1,2,3
q = -1.0, confidence = 0.09

 22 23  0  0  1  0  0  0  0  0999 V2000
    0.4107   -0.8265   -1.2277 O   0  0  0  0  0  1  0  0  0  0  0  0
    0.0571    1.8384   -0.5766 O   0  5  0  0  0  0  0  0  0  0  0  0
    0.1152   -0.5683    1.5158 O   0  0  0  0  0  1  0  0  0  0  0  0
    3.6626   -3.3752    1.9612 O   0  0  0  0  0  0  0  0  0  0  0  0
    2.8783   -1.7546   -2.2113 O   0  0  0  0  0  0  0  0  0  0  0  0
    4.2895   -0.1773    0.2661 O   0  0  0  0  0  0  0  0  0  0  0  0
    3.7824    4.3592   -0.0499 O   0  0  0  0  0  0  0  0  0  0  0  0
    2.0528   -1.7516    1.7695 N   0  0  0  0  0  0  0  0  0  0  0  0
    1.8997   -1.8298    2.7804 H   0  0  0  0  0  0  0  0  0  0  0  0
    3.0329   -2.6995   -0.1427 N   0  0  0  0  0  0  0  0  0  0  0  0
    3.7630   -3.3158   -0.5142 H   0  0  0  0  0  0  0  0  0  0  0  0
    3.9887    2.0961    0.1466 N   0  0  0  0  0  0  0  0  0  0  0  0
    4.9692    2.2322    0.4070 H   0  0  0  0  0  0  0  0  0  0  0  0
    1.8985    3.0987   -0.4270 N   0  0  0  0  0  0  0  0  0  0  0  0
    1.1637   -1.0090    1.0353 C   0  0  2  0  0  3  0  0  0  0  0  0
    2.9972   -2.6494    1.2470 C   0  0  0  0  0  0  0  0  0  0  0  0
    2.5738   -1.7382   -1.0417 C   0  0  0  0  0  0  0  0  0  0  0  0
    1.5273   -0.7051   -0.4538 C   0  0  1  0  0  0  0  0  0  0  0  0
    2.1476    0.6698   -0.3636 C   0  0  2  0  0  3  0  0  0  0  0  0
    3.5398    0.7908    0.0422 C   0  0  0  0  0  0  0  0  0  0  0  0
    3.2276    3.2618   -0.1096 C   0  0  0  0  0  0  0  0  0  0  0  0
    1.3652    1.8785   -0.4955 C   0  0  0  0  0  0  0  0  0  0  0  0
  2 22  1  0  0  0  0
  5 17  2  0  0  0  0
  8  9  1  0  0  0  0
 10 16  1  0  0  0  0
 11 10  1  0  0  0  0
 12 13  1  0  0  0  0
 14 21  1  0  0  0  0
 15  3  1  1  0  0  0
 15  8  1  0  0  0  0
 16  8  1  0  0  0  0
 16  4  2  0  0  0  0
 17 18  1  0  0  0  0
 17 10  1  0  0  0  0
 18  1  1  6  0  0  0
 18 19  1  0  0  0  0
 18 15  1  0  0  0  0
 19 22  1  1  0  0  0
 19 20  1  0  0  0  0
 20 12  1  0  0  0  0
 20  6  2  0  0  0  0
 21  7  2  0  0  0  0
 21 12  1  0  0  0  0
 22 14  2  0  0  0  0
M  CHG  1   2  -1
M  END
