9,10,11
q = -1.0, confidence = 0.114

 56 61  0  0  1  0  0  0  0  0999 V2000
   -1.8018   -0.0005   -0.2946 B   0  0  0  0  0  0  0  0  0  0  0  0
   -3.0097   -0.0088   -0.4717 H   0  0  0  0  0  0  0  0  0  0  0  0
    0.1821    2.4800   -2.2919 N   0  0  0  0  0  0  0  0  0  0  0  0
   -1.2156    1.1472   -1.1582 N   0  0  0  0  0  0  0  0  0  0  0  0
   -0.1749   -3.3532   -0.6736 N   0  0  0  0  0  0  0  0  0  0  0  0
   -1.2747   -1.3997   -0.7192 N   0  0  0  0  0  0  0  0  0  0  0  0
   -0.6239    0.9683    3.1249 N   0  0  0  0  0  0  0  0  0  0  0  0
   -1.5529    0.2576    1.2129 N   0  0  0  0  0  0  0  0  0  0  0  0
    1.0280    0.4671   -1.4644 O   0  0  0  0  0  1  0  0  0  0  0  0
    0.7525   -1.5524    0.4877 O   0  0  0  0  0  1  0  0  0  0  0  0
    0.6319    1.1352    1.1600 O   0  0  0  0  0  1  0  0  0  0  0  0
    1.4052    2.9729   -2.8897 C   0  0  0  0  0  0  0  0  0  0  0  0
    2.2576    2.4381   -2.4338 H   0  0  0  0  0  0  0  0  0  0  0  0
    1.5184    4.0503   -2.6623 H   0  0  0  0  0  0  0  0  0  0  0  0
    1.4019    2.8292   -3.9904 H   0  0  0  0  0  0  0  0  0  0  0  0
    0.0703    1.2865   -1.6072 C   0  0  1  0  0  3  0  0  0  0  0  0
   -1.0527    3.1227   -2.2793 C   0  0  0  0  0  0  0  0  0  0  0  0
   -1.9343    2.2814   -1.5511 C   0  0  0  0  0  0  0  0  0  0  0  0
   -3.2649    2.6621   -1.3344 C   0  0  0  0  0  0  0  0  0  0  0  0
   -3.9469    2.0253   -0.7556 H   0  0  0  0  0  0  0  0  0  0  0  0
   -3.6872    3.8890   -1.8744 C   0  0  0  0  0  0  0  0  0  0  0  0
   -4.7269    4.2126   -1.7183 H   0  0  0  0  0  0  0  0  0  0  0  0
   -2.8089    4.7147   -2.6055 C   0  0  0  0  0  0  0  0  0  0  0  0
   -3.1744    5.6689   -3.0129 H   0  0  0  0  0  0  0  0  0  0  0  0
   -1.4708    4.3433   -2.8209 C   0  0  0  0  0  0  0  0  0  0  0  0
   -0.7820    4.9853   -3.3879 H   0  0  0  0  0  0  0  0  0  0  0  0
    0.7935   -4.3545   -0.2867 C   0  0  0  0  0  0  0  0  0  0  0  0
    1.4389   -3.9181    0.4965 H   0  0  0  0  0  0  0  0  0  0  0  0
    1.4225   -4.6673   -1.1457 H   0  0  0  0  0  0  0  0  0  0  0  0
    0.2775   -5.2459    0.1236 H   0  0  0  0  0  0  0  0  0  0  0  0
   -0.1583   -2.0354   -0.2377 C   0  0  1  0  0  3  0  0  0  0  0  0
   -1.3001   -3.5525   -1.4689 C   0  0  0  0  0  0  0  0  0  0  0  0
   -1.9911   -2.3127   -1.5003 C   0  0  0  0  0  0  0  0  0  0  0  0
   -3.1779   -2.1805   -2.2325 C   0  0  0  0  0  0  0  0  0  0  0  0
   -3.7129   -1.2223   -2.2697 H   0  0  0  0  0  0  0  0  0  0  0  0
   -3.6505   -3.3125   -2.9191 C   0  0  0  0  0  0  0  0  0  0  0  0
   -4.5792   -3.2344   -3.5036 H   0  0  0  0  0  0  0  0  0  0  0  0
   -2.9611   -4.5413   -2.8791 C   0  0  0  0  0  0  0  0  0  0  0  0
   -3.3595   -5.4054   -3.4308 H   0  0  0  0  0  0  0  0  0  0  0  0
   -1.7677   -4.6819   -2.1493 C   0  0  0  0  0  0  0  0  0  0  0  0
   -1.2238   -5.6367   -2.1185 H   0  0  0  0  0  0  0  0  0  0  0  0
    0.3425    1.5479    4.0346 C   0  0  0  0  0  0  0  0  0  0  0  0
    1.2337    1.8349    3.4488 H   0  0  0  0  0  0  0  0  0  0  0  0
    0.6517    0.8068    4.7977 H   0  0  0  0  0  0  0  0  0  0  0  0
   -0.0900    2.4386    4.5346 H   0  0  0  0  0  0  0  0  0  0  0  0
   -0.4210    0.8023    1.7689 C   0  0  1  0  0  3  0  0  0  0  0  0
   -1.8945    0.5034    3.4492 C   0  0  0  0  0  0  0  0  0  0  0  0
   -2.4806    0.0492    2.2372 C   0  0  0  0  0  0  0  0  0  0  0  0
   -3.7719   -0.4931    2.2299 C   0  0  0  0  0  0  0  0  0  0  0  0
   -4.2260   -0.8568    1.2984 H   0  0  0  0  0  0  0  0  0  0  0  0
   -4.4571   -0.5608    3.4559 C   0  0  0  0  0  0  0  0  0  0  0  0
   -5.4725   -0.9837    3.4789 H   0  0  0  0  0  0  0  0  0  0  0  0
   -3.8715   -0.1042    4.6541 C   0  0  0  0  0  0  0  0  0  0  0  0
   -4.4365   -0.1754    5.5953 H   0  0  0  0  0  0  0  0  0  0  0  0
   -2.5742    0.4374    4.6702 C   0  0  0  0  0  0  0  0  0  0  0  0
   -2.1107    0.7906    5.6022 H   0  0  0  0  0  0  0  0  0  0  0  0
  1  8  1  0  0  0  0
  2  1  1  0  0  0  0
  3 17  1  0  0  0  0
  3 16  1  0  0  0  0
  4  1  1  0  0  0  0
  5 27  1  0  0  0  0
  5 31  1  0  0  0  0
  6  1  1  0  0  0  0
  6 31  1  0  0  0  0
  7 47  1  0  0  0  0
  7 42  1  0  0  0  0
  8 46  1  0  0  0  0
  8 48  1  0  0  0  0
 12 14  1  0  0  0  0
 12 13  1  0  0  0  0
 12  3  1  0  0  0  0
 15 12  1  0  0  0  0
 16  9  1  6  0  0  0
 16  4  1  0  0  0  0
 17 18  1  0  0  0  0
 18 19  2  0  0  0  0
 18  4  1  0  0  0  0
 19 20  1  0  0  0  0
 21 22  1  0  0  0  0
 21 19  1  0  0  0  0
 23 21  2  0  0  0  0
 24 23  1  0  0  0  0
 25 23  1  0  0  0  0
 25 17  2  0  0  0  0
 26 25  1  0  0  0  0
 27 30  1  0  0  0  0
 27 28  1  0  0  0  0
 29 27  1  0  0  0  0
 31 10  1  1  0  0  0
 32  5  1  0  0  0  0
 33 32  1  0  0  0  0
 33  6  1  0  0  0  0
 34 33  2  0  0  0  0
 35 34  1  0  0  0  0
 36 38  2  0  0  0  0
 36 34  1  0  0  0  0
 37 36  1  0  0  0  0
 38 40  1  0  0  0  0
 39 38  1  0  0  0  0
 40 41  1  0  0  0  0
 40 32  2  0  0  0  0
 42 45  1  0  0  0  0
 42 44  1  0  0  0  0
 43 42  1  0  0  0  0
 46 11  1  6  0  0  0
 46  7  1  0  0  0  0
 47 55  1  0  0  0  0
 48 47  2  0  0  0  0
 49 48  1  0  0  0  0
 49 51  2  0  0  0  0
 50 49  1  0  0  0  0
 51 52  1  0  0  0  0
 51 53  1  0  0  0  0
 53 55  2  0  0  0  0
 53 54  1  0  0  0  0
 55 56  1  0  0  0  0
M  END
