2,3,4
q = -2.0, confidence = 0.816

 69 71  0  0  1  0  0  0  0  0999 V2000
   -1.4470    0.0991    0.0486 P   0  0  0  0  0  4  0  0  0  0  0  0
    1.1554   -1.5687    0.4847 O   0  5  0  0  0  0  0  0  0  0  0  0
    1.1289    1.1272    0.3238 O   0  5  0  0  0  0  0  0  0  0  0  0
   -0.0740    0.3402    2.4803 O   0  0  0  0  0  1  0  0  0  0  0  0
    0.5731   -1.7846   -0.6953 C   0  0  0  0  0  0  0  0  0  0  0  0
   -0.6213   -1.0962   -1.0412 C   0  0  0  0  0  0  0  0  0  0  0  0
   -1.2057   -1.2655   -2.3160 C   0  0  0  0  0  0  0  0  0  0  0  0
   -0.6468   -2.1541   -3.2405 C   0  0  0  0  0  0  0  0  0  0  0  0
   -1.2468   -2.3500   -4.6094 C   0  0  0  0  0  0  0  0  0  0  0  0
    0.5063   -2.8731   -2.8521 C   0  0  0  0  0  0  0  0  0  0  0  0
    1.1434   -2.7249   -1.6112 C   0  0  0  0  0  0  0  0  0  0  0  0
    2.4148   -3.5152   -1.2473 C   0  0  0  0  0  0  0  0  0  0  0  0
    2.7693   -4.5396   -2.3418 C   0  0  0  0  0  0  0  0  0  0  0  0
    2.2029   -4.2944    0.0740 C   0  0  0  0  0  0  0  0  0  0  0  0
    3.6078   -2.5385   -1.1101 C   0  0  0  0  0  0  0  0  0  0  0  0
    0.3722    2.0686   -0.2306 C   0  0  0  0  0  0  0  0  0  0  0  0
   -1.0011    1.7666   -0.4602 C   0  0  0  0  0  0  0  0  0  0  0  0
   -1.8710    2.6474   -1.1274 C   0  0  0  0  0  0  0  0  0  0  0  0
   -1.3919    3.8934   -1.5512 C   0  0  0  0  0  0  0  0  0  0  0  0
   -2.2805    4.8826   -2.2618 C   0  0  0  0  0  0  0  0  0  0  0  0
   -0.0370    4.2020   -1.2922 C   0  0  0  0  0  0  0  0  0  0  0  0
    0.8745    3.3414   -0.6567 C   0  0  0  0  0  0  0  0  0  0  0  0
    2.3417    3.7427   -0.4333 C   0  0  0  0  0  0  0  0  0  0  0  0
    2.6487    5.1378   -1.0078 C   0  0  0  0  0  0  0  0  0  0  0  0
    2.6289    3.7837    1.0854 C   0  0  0  0  0  0  0  0  0  0  0  0
    3.2671    2.7246   -1.1400 C   0  0  0  0  0  0  0  0  0  0  0  0
   -3.2376   -0.1981   -0.0206 C   0  0  0  0  0  0  0  0  0  0  0  0
   -4.1065    0.7877    0.5036 C   0  0  0  0  0  0  0  0  0  0  0  0
   -5.4327    0.4555    0.7971 C   0  0  0  0  0  0  0  0  0  0  0  0
   -5.8935   -0.8563    0.5888 C   0  0  0  0  0  0  0  0  0  0  0  0
   -5.0398   -1.8268    0.0385 C   0  0  0  0  0  0  0  0  0  0  0  0
   -3.7131   -1.5035   -0.2704 C   0  0  0  0  0  0  0  0  0  0  0  0
   -1.1670   -0.0767    1.8894 C   0  0  1  0  0  3  0  0  0  0  0  0
   -2.2374   -0.6352    2.4986 C   0  0  0  0  0  0  0  0  0  0  0  0
   -3.3221   -1.0830    3.0604 C   0  0  0  0  0  0  0  0  0  0  0  0
   -4.4949   -1.5082    3.4552 C   0  0  0  0  0  1  0  0  0  0  0  0
   -2.1102   -0.6983   -2.5868 H   0  0  0  0  0  0  0  0  0  0  0  0
   -2.1698   -1.7534   -4.7417 H   0  0  0  0  0  0  0  0  0  0  0  0
   -1.5006   -3.4152   -4.7901 H   0  0  0  0  0  0  0  0  0  0  0  0
   -0.5340   -2.0511   -5.4062 H   0  0  0  0  0  0  0  0  0  0  0  0
    0.9286   -3.5821   -3.5774 H   0  0  0  0  0  0  0  0  0  0  0  0
    3.0010   -4.0562   -3.3126 H   0  0  0  0  0  0  0  0  0  0  0  0
    1.9567   -5.2773   -2.5021 H   0  0  0  0  0  0  0  0  0  0  0  0
    3.6723   -5.1019   -2.0326 H   0  0  0  0  0  0  0  0  0  0  0  0
    1.3437   -4.9904   -0.0138 H   0  0  0  0  0  0  0  0  0  0  0  0
    2.0251   -3.6253    0.9355 H   0  0  0  0  0  0  0  0  0  0  0  0
    3.1068   -4.8982    0.2941 H   0  0  0  0  0  0  0  0  0  0  0  0
    3.7722   -1.9824   -2.0554 H   0  0  0  0  0  0  0  0  0  0  0  0
    4.5321   -3.1091   -0.8850 H   0  0  0  0  0  0  0  0  0  0  0  0
    3.4680   -1.8031   -0.2977 H   0  0  0  0  0  0  0  0  0  0  0  0
   -2.9136    2.3600   -1.3284 H   0  0  0  0  0  0  0  0  0  0  0  0
   -3.2980    4.4768   -2.4225 H   0  0  0  0  0  0  0  0  0  0  0  0
   -1.8656    5.1605   -3.2530 H   0  0  0  0  0  0  0  0  0  0  0  0
   -2.3807    5.8239   -1.6817 H   0  0  0  0  0  0  0  0  0  0  0  0
    0.3246    5.1847   -1.6253 H   0  0  0  0  0  0  0  0  0  0  0  0
    2.0448    5.9337   -0.5262 H   0  0  0  0  0  0  0  0  0  0  0  0
    2.4821    5.1856   -2.1033 H   0  0  0  0  0  0  0  0  0  0  0  0
    3.7149    5.3772   -0.8245 H   0  0  0  0  0  0  0  0  0  0  0  0
    1.9800    4.5301    1.5867 H   0  0  0  0  0  0  0  0  0  0  0  0
    3.6860    4.0682    1.2636 H   0  0  0  0  0  0  0  0  0  0  0  0
    2.4735    2.7995    1.5606 H   0  0  0  0  0  0  0  0  0  0  0  0
    4.3270    3.0176   -0.9951 H   0  0  0  0  0  0  0  0  0  0  0  0
    3.0620    2.7040   -2.2300 H   0  0  0  0  0  0  0  0  0  0  0  0
    3.1444    1.7055   -0.7324 H   0  0  0  0  0  0  0  0  0  0  0  0
   -3.7281    1.7919    0.7425 H   0  0  0  0  0  0  0  0  0  0  0  0
   -6.1013    1.2126    1.2314 H   0  0  0  0  0  0  0  0  0  0  0  0
   -6.9234   -1.1252    0.8650 H   0  0  0  0  0  0  0  0  0  0  0  0
   -5.4016   -2.8529   -0.1210 H   0  0  0  0  0  0  0  0  0  0  0  0
   -3.0317   -2.2754   -0.6551 H   0  0  0  0  0  0  0  0  0  0  0  0
  1 33  1  0  0  0  0
  5  2  1  0  0  0  0
  6  5  1  0  0  0  0
  6  1  1  0  0  0  0
  7  6  2  0  0  0  0
  8 10  2  0  0  0  0
  8  7  1  0  0  0  0
  9  8  1  0  0  0  0
 10 11  1  0  0  0  0
 11 12  1  0  0  0  0
 11  5  2  0  0  0  0
 12 15  1  0  0  0  0
 12 14  1  0  0  0  0
 13 44  1  0  0  0  0
 13 12  1  0  0  0  0
 14 47  1  0  0  0  0
 14 46  1  0  0  0  0
 15 49  1  0  0  0  0
 15 50  1  0  0  0  0
 16  3  1  0  0  0  0
 17 16  1  0  0  0  0
 17  1  1  0  0  0  0
 18 17  2  0  0  0  0
 19 21  2  0  0  0  0
 19 18  1  0  0  0  0
 20 54  1  0  0  0  0
 20 19  1  0  0  0  0
 21 22  1  0  0  0  0
 22 23  1  0  0  0  0
 22 16  2  0  0  0  0
 23 25  1  0  0  0  0
 24 58  1  0  0  0  0
 24 56  1  0  0  0  0
 24 23  1  0  0  0  0
 25 60  1  0  0  0  0
 25 61  1  0  0  0  0
 25 59  1  0  0  0  0
 26 62  1  0  0  0  0
 26 64  1  0  0  0  0
 26 23  1  0  0  0  0
 27  1  1  0  0  0  0
 27 28  1  0  0  0  0
 28 65  1  0  0  0  0
 28 29  2  0  0  0  0
 29 66  1  0  0  0  0
 30 29  1  0  0  0  0
 30 67  1  0  0  0  0
 31 30  2  0  0  0  0
 32 27  2  0  0  0  0
 32 31  1  0  0  0  0
 33  4  1  1  0  0  0
 33 34  1  0  0  0  0
 34 35  3  0  0  0  0
 35 36  1  0  0  0  0
 37  7  1  0  0  0  0
 38  9  1  0  0  0  0
 39  9  1  0  0  0  0
 40  9  1  0  0  0  0
 41 10  1  0  0  0  0
 42 13  1  0  0  0  0
 43 13  1  0  0  0  0
 45 14  1  0  0  0  0
 48 15  1  0  0  0  0
 51 18  1  0  0  0  0
 52 20  1  0  0  0  0
 53 20  1  0  0  0  0
 55 21  1  0  0  0  0
 57 24  1  0  0  0  0
 63 26  1  0  0  0  0
 68 31  1  0  0  0  0
 69 32  1  0  0  0  0
M  CHG  2   2  -1   3  -1
M  END
