3,8,10
 OpenBabel05122313063D

 18 18  0  0  0  0  0  0  0  0999 V2000
    2.4640    0.6571   -0.0016 C   0  0  0  0  0  0  0  0  0  0  0  0
    1.0548    1.7944   -0.0033 S   0  0  0  0  0  0  0  0  0  0  0  0
    0.1486    1.3493   -1.1675 O   0  0  0  0  0  1  0  0  0  0  0  0
    0.1937    1.4955    1.2395 O   0  0  0  0  0  1  0  0  0  0  0  0
    1.5637    3.1658   -0.0948 O   0  0  0  0  0  1  0  0  0  0  0  0
    2.4092   -0.7604   -0.0422 C   0  0  0  0  0  0  0  0  0  0  0  0
    0.9162   -1.7831   -0.0293 S   0  0  0  0  0  0  0  0  0  0  0  0
    0.0845   -1.3041    1.1867 O   0  0  0  0  0  1  0  0  0  0  0  0
    1.3137   -3.1918    0.0095 O   0  0  0  0  0  1  0  0  0  0  0  0
    0.0347   -1.3775   -1.2241 O   0  0  0  0  0  1  0  0  0  0  0  0
    3.6025   -1.4979   -0.0698 C   0  0  0  0  0  0  0  0  0  0  0  0
    4.8451   -0.8453   -0.0568 C   0  0  0  0  0  0  0  0  0  0  0  0
    4.8994    0.5518   -0.0130 C   0  0  0  0  0  0  0  0  0  0  0  0
    3.7114    1.2988    0.0122 C   0  0  0  0  0  0  0  0  0  0  0  0
    3.5397   -2.5951   -0.0972 H   0  0  0  0  0  0  0  0  0  0  0  0
    5.7692   -1.4410   -0.0800 H   0  0  0  0  0  0  0  0  0  0  0  0
    5.8672    1.0740   -0.0012 H   0  0  0  0  0  0  0  0  0  0  0  0
    3.7337    2.3977    0.0355 H   0  0  0  0  0  0  0  0  0  0  0  0
  1 14  1  0  0  0  0
  2  1  1  0  0  0  0
  2  4  1  0  0  0  0
  3  2  1  0  0  0  0
  5  2  1  0  0  0  0
  6  7  1  0  0  0  0
  6  1  2  0  0  0  0
  7  9  1  0  0  0  0
  7  8  1  0  0  0  0
 10  7  1  0  0  0  0
 11 12  2  0  0  0  0
 11  6  1  0  0  0  0
 12 13  1  0  0  0  0
 13 17  1  0  0  0  0
 13 14  2  0  0  0  0
 14 18  1  0  0  0  0
 15 11  1  0  0  0  0
 16 12  1  0  0  0  0
M  END
