2,5,8
 OpenBabel05122313063D

 12 11  0  0  1  0  0  0  0  0999 V2000
   -0.9665    1.7266    0.3209 C   0  0  0  0  0  0  0  0  0  0  0  0
    0.1263    1.2961    0.9498 O   0  5  0  0  0  0  0  0  0  0  0  0
   -1.6946    2.6062    0.7533 O   0  0  0  0  0  0  0  0  0  0  0  0
   -1.2101    0.9556   -1.0022 C   0  0  1  0  0  0  0  0  0  0  0  0
    0.0139    0.4677   -1.5075 O   0  0  0  0  0  1  0  0  0  0  0  0
   -2.2098   -0.1852   -0.7582 C   0  0  0  0  0  0  0  0  0  0  0  0
   -1.7344   -1.3147    0.1673 C   0  0  0  0  0  0  0  0  0  0  0  0
   -0.4522   -1.3573    0.5089 O   0  5  0  0  0  0  0  0  0  0  0  0
   -2.5163   -2.1780    0.5491 O   0  0  0  0  0  0  0  0  0  0  0  0
   -1.6542    1.6758   -1.7278 H   0  0  0  0  0  0  0  0  0  0  0  0
   -2.4578   -0.6602   -1.7321 H   0  0  0  0  0  0  0  0  0  0  0  0
   -3.1642    0.2009   -0.3456 H   0  0  0  0  0  0  0  0  0  0  0  0
  1  3  2  0  0  0  0
  1  2  1  0  0  0  0
  4 10  1  6  0  0  0
  4  6  1  0  0  0  0
  4  1  1  0  0  0  0
  5  4  1  0  0  0  0
  6 12  1  0  0  0  0
  6  7  1  0  0  0  0
  7  8  1  0  0  0  0
  7  9  2  0  0  0  0
 11  6  1  0  0  0  0
M  CHG  2   2  -1   8  -1
M  END
