1,3,5
 OpenBabel05122313063D

 20 19  0  0  1  0  0  0  0  0999 V2000
   -1.0749    1.3512    1.6185 O   0  5  0  0  0  0  0  0  0  0  0  0
   -3.0930    2.0457    2.3609 O   0  0  0  0  0  0  0  0  0  0  0  0
   -1.5425   -1.2494    1.0401 O   0  0  0  0  0  1  0  0  0  0  0  0
   -0.9162   -2.7749   -2.4738 O   0  5  0  0  0  0  0  0  0  0  0  0
    0.1449   -1.3345   -1.1025 O   0  0  0  0  0  0  0  0  0  0  0  0
   -2.0410   -0.4447    0.0128 N   0  0  0  0  0  0  0  0  0  0  0  0
   -2.3965    1.3771    1.6141 C   0  0  0  0  0  0  0  0  0  0  0  0
   -3.0506    0.5161    0.4983 C   0  0  1  0  0  0  0  0  0  0  0  0
   -2.2666   -1.2068   -1.2292 C   0  0  1  0  0  0  0  0  0  0  0  0
   -0.9231   -1.8669   -1.6528 C   0  0  0  0  0  0  0  0  0  0  0  0
   -3.5593    1.4364   -0.6126 C   0  0  0  0  0  0  0  0  0  0  0  0
   -3.4023   -2.2167   -1.1246 C   0  0  0  0  0  0  0  0  0  0  0  0
   -3.8890   -0.0478    0.9627 H   0  0  0  0  0  0  0  0  0  0  0  0
   -2.4751   -0.4527   -2.0173 H   0  0  0  0  0  0  0  0  0  0  0  0
   -2.7048    1.9149   -1.1319 H   0  0  0  0  0  0  0  0  0  0  0  0
   -4.1834    0.8966   -1.3525 H   0  0  0  0  0  0  0  0  0  0  0  0
   -4.1809    2.2223   -0.1423 H   0  0  0  0  0  0  0  0  0  0  0  0
   -4.3932   -1.7258   -1.0444 H   0  0  0  0  0  0  0  0  0  0  0  0
   -3.3787   -2.8550   -2.0280 H   0  0  0  0  0  0  0  0  0  0  0  0
   -3.2448   -2.8605   -0.2370 H   0  0  0  0  0  0  0  0  0  0  0  0
  4 10  1  0  0  0  0
  6  8  1  0  0  0  0
  6  3  1  0  0  0  0
  7  1  1  0  0  0  0
  7  2  2  0  0  0  0
  8 13  1  1  0  0  0
  8  7  1  0  0  0  0
  9 14  1  6  0  0  0
  9 12  1  0  0  0  0
  9  6  1  0  0  0  0
 10  9  1  0  0  0  0
 10  5  2  0  0  0  0
 11 17  1  0  0  0  0
 11  8  1  0  0  0  0
 12 18  1  0  0  0  0
 12 20  1  0  0  0  0
 15 11  1  0  0  0  0
 16 11  1  0  0  0  0
 19 12  1  0  0  0  0
M  CHG  2   1  -1   4  -1
M  END
