1,3,5
 OpenBabel05122313063D

 20 19  0  0  1  0  0  0  0  0999 V2000
   -1.0011   -1.2277    1.6818 O   0  5  0  0  0  0  0  0  0  0  0  0
   -3.0156   -1.8855    2.4509 O   0  0  0  0  0  0  0  0  0  0  0  0
   -1.3650    1.2924    1.0494 O   0  0  0  0  0  1  0  0  0  0  0  0
   -0.6035    2.7101   -2.4476 O   0  5  0  0  0  0  0  0  0  0  0  0
    0.3292    1.2710   -0.9924 O   0  0  0  0  0  0  0  0  0  0  0  0
   -1.9002    0.5227    0.0670 N   0  0  0  0  0  0  0  0  0  0  0  0
   -2.3122   -1.2396    1.6853 C   0  0  0  0  0  0  0  0  0  0  0  0
   -2.9501   -0.3934    0.5566 C   0  0  2  0  0  0  0  0  0  0  0  0
   -2.0588    1.2240   -1.2190 C   0  0  2  0  0  0  0  0  0  0  0  0
   -0.6826    1.8243   -1.6012 C   0  0  0  0  0  0  0  0  0  0  0  0
   -3.5148   -1.3089   -0.5277 C   0  0  0  0  0  0  0  0  0  0  0  0
   -3.1632    2.2726   -1.1922 C   0  0  0  0  0  0  0  0  0  0  0  0
   -3.7532    0.2249    1.0141 H   0  0  0  0  0  0  0  0  0  0  0  0
   -2.2612    0.4375   -1.9750 H   0  0  0  0  0  0  0  0  0  0  0  0
   -4.1686   -2.0502   -0.0288 H   0  0  0  0  0  0  0  0  0  0  0  0
   -4.1208   -0.7563   -1.2735 H   0  0  0  0  0  0  0  0  0  0  0  0
   -2.6876   -1.8389   -1.0390 H   0  0  0  0  0  0  0  0  0  0  0  0
   -3.0154    2.9435   -0.3229 H   0  0  0  0  0  0  0  0  0  0  0  0
   -3.0766    2.8769   -2.1154 H   0  0  0  0  0  0  0  0  0  0  0  0
   -4.1745    1.8220   -1.1360 H   0  0  0  0  0  0  0  0  0  0  0  0
  1  7  1  0  0  0  0
  4 10  1  0  0  0  0
  6  8  1  0  0  0  0
  6  3  1  0  0  0  0
  7  2  2  0  0  0  0
  8 13  1  1  0  0  0
  8  7  1  0  0  0  0
  9 14  1  6  0  0  0
  9 12  1  0  0  0  0
  9  6  1  0  0  0  0
 10  9  1  0  0  0  0
 10  5  2  0  0  0  0
 11 15  1  0  0  0  0
 11  8  1  0  0  0  0
 12 20  1  0  0  0  0
 12 18  1  0  0  0  0
 16 11  1  0  0  0  0
 17 11  1  0  0  0  0
 19 12  1  0  0  0  0
M  CHG  2   1  -1   4  -1
M  END
