1,2,5
q = -1.0, confidence = 0.024

 38 40  0  0  0  0  0  0  0  0999 V2000
    1.1915   -1.3520   -2.1141 S   0  0  0  0  0  1  0  0  0  0  0  0
    2.4200   -0.8221   -0.5662 P   0  0  0  0  0  4  0  0  0  0  0  0
    2.9593    0.7386   -0.4344 N   0  0  0  0  0  0  0  0  0  0  0  0
    2.0881    1.7494   -0.3305 C   0  0  0  0  0  0  0  0  0  0  0  0
    0.8108    1.6655   -0.3236 O   0  5  0  0  0  0  0  0  0  0  0  0
    3.9467   -1.8190   -0.6250 C   0  0  0  0  0  0  0  0  0  0  0  0
    3.8700   -3.1800   -0.9787 C   0  0  0  0  0  0  0  0  0  0  0  0
    2.8978   -3.6126   -1.2622 H   0  0  0  0  0  0  0  0  0  0  0  0
    5.0319   -3.9636   -0.9883 C   0  0  0  0  0  0  0  0  0  0  0  0
    4.9728   -5.0267   -1.2672 H   0  0  0  0  0  0  0  0  0  0  0  0
    6.2700   -3.3913   -0.6502 C   0  0  0  0  0  0  0  0  0  0  0  0
    7.1818   -4.0079   -0.6614 H   0  0  0  0  0  0  0  0  0  0  0  0
    6.3456   -2.0326   -0.3047 C   0  0  0  0  0  0  0  0  0  0  0  0
    7.3166   -1.5821   -0.0481 H   0  0  0  0  0  0  0  0  0  0  0  0
    5.1861   -1.2423   -0.2899 C   0  0  0  0  0  0  0  0  0  0  0  0
    5.2196   -0.1741   -0.0313 H   0  0  0  0  0  0  0  0  0  0  0  0
    1.5792   -1.2583    1.0219 C   0  0  0  0  0  0  0  0  0  0  0  0
    0.5230   -2.1898    1.0521 C   0  0  0  0  0  0  0  0  0  0  0  0
    0.2168   -2.6843    0.1180 H   0  0  0  0  0  0  0  0  0  0  0  0
   -0.1454   -2.4578    2.2568 C   0  0  0  0  0  0  0  0  0  0  0  0
   -0.9851   -3.1692    2.2636 H   0  0  0  0  0  0  0  0  0  0  0  0
    0.2434   -1.8027    3.4358 C   0  0  0  0  0  0  0  0  0  0  0  0
   -0.2890   -2.0019    4.3782 H   0  0  0  0  0  0  0  0  0  0  0  0
    1.3064   -0.8832    3.4107 C   0  0  0  0  0  0  0  0  0  0  0  0
    1.6103   -0.3668    4.3343 H   0  0  0  0  0  0  0  0  0  0  0  0
    1.9756   -0.6084    2.2089 C   0  0  0  0  0  0  0  0  0  0  0  0
    2.7936    0.1272    2.1781 H   0  0  0  0  0  0  0  0  0  0  0  0
    2.6756    3.1233   -0.1797 C   0  0  0  0  0  0  0  0  0  0  0  0
    1.8225    4.2139    0.0855 C   0  0  0  0  0  0  0  0  0  0  0  0
    0.7435    4.0190    0.1680 H   0  0  0  0  0  0  0  0  0  0  0  0
    2.3500    5.5026    0.2407 C   0  0  0  0  0  0  0  0  0  0  0  0
    1.6785    6.3494    0.4508 H   0  0  0  0  0  0  0  0  0  0  0  0
    3.7344    5.7152    0.1275 C   0  0  0  0  0  0  0  0  0  0  0  0
    4.1486    6.7283    0.2471 H   0  0  0  0  0  0  0  0  0  0  0  0
    4.5894    4.6325   -0.1408 C   0  0  0  0  0  0  0  0  0  0  0  0
    5.6737    4.7979   -0.2351 H   0  0  0  0  0  0  0  0  0  0  0  0
    4.0636    3.3426   -0.2916 C   0  0  0  0  0  0  0  0  0  0  0  0
    4.7112    2.4810   -0.5079 H   0  0  0  0  0  0  0  0  0  0  0  0
  1  2  1  0  0  0  0
  2  3  1  0  0  0  0
  2 17  1  0  0  0  0
  3  4  2  0  0  0  0
  4  5  1  0  0  0  0
  4 28  1  0  0  0  0
  6  2  1  0  0  0  0
  6 15  1  0  0  0  0
  7  6  2  0  0  0  0
  8  7  1  0  0  0  0
  9  7  1  0  0  0  0
  9 11  2  0  0  0  0
 10  9  1  0  0  0  0
 11 13  1  0  0  0  0
 12 11  1  0  0  0  0
 13 15  2  0  0  0  0
 13 14  1  0  0  0  0
 15 16  1  0  0  0  0
 17 18  2  0  0  0  0
 17 26  1  0  0  0  0
 18 20  1  0  0  0  0
 19 18  1  0  0  0  0
 20 21  1  0  0  0  0
 20 22  2  0  0  0  0
 22 23  1  0  0  0  0
 24 22  1  0  0  0  0
 24 25  1  0  0  0  0
 26 24  2  0  0  0  0
 27 26  1  0  0  0  0
 28 29  1  0  0  0  0
 29 30  1  0  0  0  0
 29 31  2  0  0  0  0
 31 32  1  0  0  0  0
 33 31  1  0  0  0  0
 33 34  1  0  0  0  0
 35 33  2  0  0  0  0
 36 35  1  0  0  0  0
 37 28  2  0  0  0  0
 37 35  1  0  0  0  0
 38 37  1  0  0  0  0
M  CHG  1   5  -1
M  END
