1,2,3
q = -1.0, confidence = 0.002

 36 37  0  0  0  0  0  0  0  0999 V2000
   -0.9068   -2.3433    2.2504 S   0  0  0  0  0  0  0  0  0  0  0  0
    1.4706   -0.2498    0.9884 P   0  0  0  0  0  0  0  0  0  0  0  0
   -1.2621    0.5110    1.9264 O   0  5  0  0  0  0  0  0  0  0  0  0
   -1.3119    1.0435    4.1026 O   0  0  0  0  0  0  0  0  0  0  0  0
   -1.4030    0.2215    3.1943 C   0  0  0  0  0  0  0  0  0  0  0  0
   -1.7010   -1.2599    3.4868 C   0  0  0  0  0  0  0  0  0  0  0  0
    0.8548   -2.3036    2.8190 C   0  0  0  0  0  0  0  0  0  0  0  0
    1.5340   -0.9416    2.7363 C   0  0  0  0  0  0  0  0  0  0  0  0
    2.1090    1.4521    1.2350 C   0  0  0  0  0  0  0  0  0  0  0  0
    1.4712    2.3066    2.1681 C   0  0  0  0  0  0  0  0  0  0  0  0
    1.8247    3.6613    2.2439 C   0  0  0  0  0  0  0  0  0  0  0  0
    2.8031    4.1965    1.3902 C   0  0  0  0  0  0  0  0  0  0  0  0
    3.4329    3.3585    0.4559 C   0  0  0  0  0  0  0  0  0  0  0  0
    3.0902    2.0011    0.3763 C   0  0  0  0  0  0  0  0  0  0  0  0
    2.8557   -1.1899    0.2177 C   0  0  0  0  0  0  0  0  0  0  0  0
    4.2045   -1.0693    0.6204 C   0  0  0  0  0  0  0  0  0  0  0  0
    5.1994   -1.8364   -0.0012 C   0  0  0  0  0  0  0  0  0  0  0  0
    4.8573   -2.7380   -1.0250 C   0  0  0  0  0  0  0  0  0  0  0  0
    3.5185   -2.8717   -1.4209 C   0  0  0  0  0  0  0  0  0  0  0  0
    2.5179   -2.1008   -0.8056 C   0  0  0  0  0  0  0  0  0  0  0  0
   -1.4046   -1.5459    4.5138 H   0  0  0  0  0  0  0  0  0  0  0  0
   -2.7891   -1.4392    3.3634 H   0  0  0  0  0  0  0  0  0  0  0  0
    1.3497   -3.0418    2.1536 H   0  0  0  0  0  0  0  0  0  0  0  0
    0.8601   -2.7166    3.8490 H   0  0  0  0  0  0  0  0  0  0  0  0
    1.0627   -0.2112    3.4240 H   0  0  0  0  0  0  0  0  0  0  0  0
    2.5930   -1.0459    3.0518 H   0  0  0  0  0  0  0  0  0  0  0  0
    0.6752    1.9319    2.8308 H   0  0  0  0  0  0  0  0  0  0  0  0
    1.3190    4.3062    2.9792 H   0  0  0  0  0  0  0  0  0  0  0  0
    3.0724    5.2619    1.4514 H   0  0  0  0  0  0  0  0  0  0  0  0
    4.2032    3.7635   -0.2190 H   0  0  0  0  0  0  0  0  0  0  0  0
    3.5855    1.3595   -0.3670 H   0  0  0  0  0  0  0  0  0  0  0  0
    4.4786   -0.3603    1.4178 H   0  0  0  0  0  0  0  0  0  0  0  0
    6.2492   -1.7321    0.3142 H   0  0  0  0  0  0  0  0  0  0  0  0
    5.6409   -3.3385   -1.5124 H   0  0  0  0  0  0  0  0  0  0  0  0
    3.2439   -3.5777   -2.2195 H   0  0  0  0  0  0  0  0  0  0  0  0
    1.4651   -2.2074   -1.1119 H   0  0  0  0  0  0  0  0  0  0  0  0
  1  7  1  0  0  0  0
  1  6  1  0  0  0  0
  2  9  1  0  0  0  0
  2  8  1  0  0  0  0
  3  5  1  0  0  0  0
  5  6  1  0  0  0  0
  5  4  2  0  0  0  0
  6 21  1  0  0  0  0
  7 24  1  0  0  0  0
  8  7  1  0  0  0  0
  8 26  1  0  0  0  0
  8 25  1  0  0  0  0
  9 10  1  0  0  0  0
 10 11  2  0  0  0  0
 10 27  1  0  0  0  0
 11 28  1  0  0  0  0
 12 29  1  0  0  0  0
 12 11  1  0  0  0  0
 13 12  2  0  0  0  0
 14 13  1  0  0  0  0
 14  9  2  0  0  0  0
 15 16  1  0  0  0  0
 15  2  1  0  0  0  0
 16 32  1  0  0  0  0
 17 33  1  0  0  0  0
 17 16  2  0  0  0  0
 18 17  1  0  0  0  0
 19 18  2  0  0  0  0
 19 20  1  0  0  0  0
 20 15  2  0  0  0  0
 22  6  1  0  0  0  0
 23  7  1  0  0  0  0
 30 13  1  0  0  0  0
 31 14  1  0  0  0  0
 34 18  1  0  0  0  0
 35 19  1  0  0  0  0
 36 20  1  0  0  0  0
M  CHG  1   3  -1
M  END
