2,79,80,81,82,83
 OpenBabel05122313063D

 84 89  0  0  1  0  0  0  0  0999 V2000
    2.6541    2.7463   -0.6840 S   0  0  0  0  0  0  0  0  0  0  0  0
    2.1563    1.3506   -1.1771 O   0  0  0  0  0  1  0  0  0  0  0  0
    4.1170    2.7055   -0.4419 O   0  0  0  0  0  1  0  0  0  0  0  0
    1.8777    2.9601    0.7901 O   0  0  0  0  0  0  0  0  0  0  0  0
    2.1103    3.8340   -1.5193 O   0  0  0  0  0  1  0  0  0  0  0  0
   -3.8331   -0.7942    0.2308 O   0  0  0  0  0  0  0  0  0  0  0  0
   -4.1973   -0.1926    0.9282 H   0  0  0  0  0  0  0  0  0  0  0  0
   -2.7197   -2.3874    1.5125 O   0  0  0  0  0  0  0  0  0  0  0  0
   -3.1055   -3.0872    0.9418 H   0  0  0  0  0  0  0  0  0  0  0  0
   -3.8310    0.6871    2.4858 O   0  0  0  0  0  0  0  0  0  0  0  0
   -2.3887   -0.3450    3.8741 O   0  0  0  0  0  0  0  0  0  0  0  0
   -2.7589   -2.2392   -2.7093 O   0  0  0  0  0  0  0  0  0  0  0  0
   -2.9006   -3.6164   -0.9165 O   0  0  0  0  0  0  0  0  0  0  0  0
   -1.5864    1.0712    0.6904 C   0  0  0  0  0  0  0  0  0  0  0  0
   -2.5688    1.4864    0.3937 H   0  0  0  0  0  0  0  0  0  0  0  0
   -1.0381    1.8239    1.2855 H   0  0  0  0  0  0  0  0  0  0  0  0
   -1.8039   -0.1991    1.5259 C   0  0  1  0  0  0  0  0  0  0  0  0
   -2.5975   -1.2545    0.6774 C   0  0  0  0  0  0  0  0  0  0  0  0
   -1.7452   -1.5323   -0.5959 C   0  0  1  0  0  0  0  0  0  0  0  0
   -1.5357   -0.2080   -1.3522 C   0  0  0  0  0  0  0  0  0  0  0  0
   -2.5335    0.1974   -1.6072 H   0  0  0  0  0  0  0  0  0  0  0  0
   -0.9852   -0.3788   -2.2924 H   0  0  0  0  0  0  0  0  0  0  0  0
   -0.4634   -0.7982    2.0094 C   0  0  2  0  0  0  0  0  0  0  0  0
   -0.6995   -1.5480    2.7886 H   0  0  0  0  0  0  0  0  0  0  0  0
   -0.4383   -2.2530   -0.1531 C   0  0  1  0  0  0  0  0  0  0  0  0
   -0.7290   -3.2448    0.2498 H   0  0  0  0  0  0  0  0  0  0  0  0
   -2.7581    0.1211    2.6782 C   0  0  0  0  0  0  0  0  0  0  0  0
   -3.3183   -0.1215    4.9471 C   0  0  0  0  0  0  0  0  0  0  0  0
   -2.8521   -0.5618    5.8454 H   0  0  0  0  0  0  0  0  0  0  0  0
   -4.2863   -0.6120    4.7257 H   0  0  0  0  0  0  0  0  0  0  0  0
   -3.4916    0.9631    5.0883 H   0  0  0  0  0  0  0  0  0  0  0  0
   -2.5143   -2.4605   -1.5458 C   0  0  0  0  0  0  0  0  0  0  0  0
   -3.6579   -4.5301   -1.7299 C   0  0  0  0  0  0  0  0  0  0  0  0
   -3.8744   -5.4024   -1.0886 H   0  0  0  0  0  0  0  0  0  0  0  0
   -3.0692   -4.8327   -2.6178 H   0  0  0  0  0  0  0  0  0  0  0  0
   -4.5967   -4.0541   -2.0746 H   0  0  0  0  0  0  0  0  0  0  0  0
    1.3666   -2.3244    1.5276 C   0  0  0  0  0  0  0  0  0  0  0  0
    1.4441   -1.9989    2.5872 H   0  0  0  0  0  0  0  0  0  0  0  0
    1.0647   -3.3929    1.5345 H   0  0  0  0  0  0  0  0  0  0  0  0
    0.4645    0.2907    2.5428 C   0  0  0  0  0  0  0  0  0  0  0  0
    0.4593    0.7625    3.8486 C   0  0  0  0  0  0  0  0  0  0  0  0
   -0.1725    0.3031    4.6149 H   0  0  0  0  0  0  0  0  0  0  0  0
    1.2883    1.9032    4.1227 C   0  0  0  0  0  0  0  0  0  0  0  0
    1.2825    2.3363    5.1361 H   0  0  0  0  0  0  0  0  0  0  0  0
    2.0976    2.4553    3.1669 C   0  0  0  0  0  0  0  0  0  0  0  0
    2.7510    3.3126    3.3841 H   0  0  0  0  0  0  0  0  0  0  0  0
    2.1763    1.8813    1.7940 C   0  0  1  0  0  0  0  0  0  0  0  0
    3.2185    1.5755    1.5258 H   0  0  0  0  0  0  0  0  0  0  0  0
    0.4712   -2.3896   -1.3508 C   0  0  1  0  0  3  0  0  0  0  0  0
    0.5674   -3.5198   -2.1627 C   0  0  0  0  0  0  0  0  0  0  0  0
    0.0155   -4.4316   -1.8893 H   0  0  0  0  0  0  0  0  0  0  0  0
    1.3674   -3.4659   -3.3190 C   0  0  0  0  0  0  0  0  0  0  0  0
    1.4609   -4.3406   -3.9781 H   0  0  0  0  0  0  0  0  0  0  0  0
    2.0453   -2.2670   -3.6065 C   0  0  0  0  0  0  0  0  0  0  0  0
    2.6808   -2.1762   -4.4993 H   0  0  0  0  0  0  0  0  0  0  0  0
    1.9179   -1.1741   -2.7462 C   0  0  0  0  0  0  0  0  0  0  0  0
    2.4315   -0.2135   -2.9059 H   0  0  0  0  0  0  0  0  0  0  0  0
    2.7110   -2.1220    0.8906 C   0  0  2  0  0  3  0  0  0  0  0  0
    3.7695   -3.0265    1.0286 C   0  0  0  0  0  0  0  0  0  0  0  0
    3.6022   -3.9816    1.5481 H   0  0  0  0  0  0  0  0  0  0  0  0
    5.0297   -2.6915    0.5124 C   0  0  0  0  0  0  0  0  0  0  0  0
    5.8778   -3.3846    0.6115 H   0  0  0  0  0  0  0  0  0  0  0  0
    5.1802   -1.4501   -0.1257 C   0  0  0  0  0  0  0  0  0  0  0  0
    6.1495   -1.1284   -0.5322 H   0  0  0  0  0  0  0  0  0  0  0  0
    4.0787   -0.5994   -0.2531 C   0  0  0  0  0  0  0  0  0  0  0  0
    4.1476    0.3883   -0.7317 H   0  0  0  0  0  0  0  0  0  0  0  0
   -0.5517    2.0403   -1.2616 C   0  0  0  0  0  0  0  0  0  0  0  0
    0.0460    2.6798   -0.5850 H   0  0  0  0  0  0  0  0  0  0  0  0
    0.1267    1.8142   -2.1056 H   0  0  0  0  0  0  0  0  0  0  0  0
   -1.7099    2.8791   -1.7680 C   0  0  0  0  0  0  0  0  0  0  0  0
   -1.3732    4.1416   -2.3099 C   0  0  0  0  0  0  0  0  0  0  0  0
   -0.3171    4.4562   -2.3194 H   0  0  0  0  0  0  0  0  0  0  0  0
   -2.3970    4.9527   -2.8058 C   0  0  0  0  0  0  0  0  0  0  0  0
   -2.1661    5.9406   -3.2333 H   0  0  0  0  0  0  0  0  0  0  0  0
   -3.7233    4.4909   -2.7434 C   0  0  0  0  0  0  0  0  0  0  0  0
   -4.5603    5.0972   -3.1201 H   0  0  0  0  0  0  0  0  0  0  0  0
   -3.9566    3.2313   -2.1784 C   0  0  0  0  0  0  0  0  0  0  0  0
   -4.9834    2.8321   -2.1010 H   0  0  0  0  0  0  0  0  0  0  0  0
   -0.7934    0.7768   -0.5304 N   0  0  0  0  0  0  0  0  0  0  0  0
    0.3094   -1.4755    0.8905 N   0  0  0  0  0  0  0  0  0  0  0  0
    1.2481    0.8134    1.5677 N   0  0  0  0  0  2  0  0  0  0  0  0
    1.1409   -1.2262   -1.6316 N   0  0  0  0  0  2  0  0  0  0  0  0
    2.8578   -0.9334    0.2390 N   0  0  0  0  0  2  0  0  0  0  0  0
   -2.9783    2.4403   -1.7021 N   0  0  0  0  0  0  0  0  0  0  0  0
  1  3  1  0  0  0  0
  1  4  1  0  0  0  0
  2  1  1  0  0  0  0
  4 47  1  0  0  0  0
  5  1  1  0  0  0  0
  6 18  1  0  0  0  0
  6  7  1  0  0  0  0
  9  8  1  0  0  0  0
 10 27  2  0  0  0  0
 11 28  1  0  0  0  0
 12 32  2  0  0  0  0
 14 16  1  0  0  0  0
 14 17  1  0  0  0  0
 15 14  1  0  0  0  0
 17 23  1  0  0  0  0
 17 27  1  1  0  0  0
 18  8  1  0  0  0  0
 18 17  1  0  0  0  0
 19 32  1  6  0  0  0
 19 25  1  0  0  0  0
 19 18  1  0  0  0  0
 20 19  1  0  0  0  0
 20 79  1  0  0  0  0
 21 20  1  0  0  0  0
 22 20  1  0  0  0  0
 23 40  1  0  0  0  0
 23 24  1  1  0  0  0
 25 26  1  1  0  0  0
 25 80  1  0  0  0  0
 27 11  1  0  0  0  0
 28 31  1  0  0  0  0
 28 29  1  0  0  0  0
 30 28  1  0  0  0  0
 32 13  1  0  0  0  0
 33 34  1  0  0  0  0
 33 13  1  0  0  0  0
 35 33  1  0  0  0  0
 36 33  1  0  0  0  0
 37 39  1  0  0  0  0
 37 38  1  0  0  0  0
 40 41  2  0  0  0  0
 41 43  1  0  0  0  0
 41 42  1  0  0  0  0
 43 44  1  0  0  0  0
 45 46  1  0  0  0  0
 45 43  2  0  0  0  0
 47 48  1  6  0  0  0
 47 45  1  0  0  0  0
 49 50  1  6  0  0  0
 49 25  1  0  0  0  0
 50 51  1  0  0  0  0
 52 50  2  0  0  0  0
 53 52  1  0  0  0  0
 54 52  1  0  0  0  0
 54 56  2  0  0  0  0
 55 54  1  0  0  0  0
 56 82  1  0  0  0  0
 57 56  1  0  0  0  0
 58 59  1  0  0  0  0
 58 37  1  1  0  0  0
 59 60  1  0  0  0  0
 61 62  1  0  0  0  0
 61 59  2  0  0  0  0
 63 61  1  0  0  0  0
 64 63  1  0  0  0  0
 65 63  2  0  0  0  0
 65 83  1  0  0  0  0
 66 65  1  0  0  0  0
 67 68  1  0  0  0  0
 67 79  1  0  0  0  0
 69 67  1  0  0  0  0
 70 84  1  0  0  0  0
 70 67  1  0  0  0  0
 71 70  2  0  0  0  0
 72 71  1  0  0  0  0
 73 75  2  0  0  0  0
 73 71  1  0  0  0  0
 74 73  1  0  0  0  0
 75 77  1  0  0  0  0
 76 75  1  0  0  0  0
 77 78  1  0  0  0  0
 77 84  2  0  0  0  0
 79 14  1  0  0  0  0
 80 37  1  0  0  0  0
 80 23  1  0  0  0  0
 81 47  1  0  0  0  0
 81 40  1  0  0  0  0
 82 49  1  0  0  0  0
 83 58  1  0  0  0  0
M  END
