1,2
q = 0.0, confidence = 0.986

 56 60  0  0  0  0  0  0  0  0999 V2000
    1.5887    0.7714    0.4776 P   0  0  0  0  0  0  0  0  0  0  0  0
   -1.5648    0.8667    0.4496 P   0  0  0  0  0  0  0  0  0  0  0  0
   -1.7669    1.8298   -1.0759 C   0  0  0  0  0  0  0  0  0  0  0  0
    0.7433    1.8499    1.6984 C   0  0  0  0  0  0  0  0  0  0  0  0
   -3.1757    0.4663    1.1631 C   0  0  0  0  0  0  0  0  0  0  0  0
    1.8780    1.7953   -1.0006 C   0  0  0  0  0  0  0  0  0  0  0  0
    3.1632    0.2602    1.1972 C   0  0  0  0  0  0  0  0  0  0  0  0
   -0.6709    1.9135    1.6605 C   0  0  0  0  0  0  0  0  0  0  0  0
   -4.4605   -0.7199    2.8464 C   0  0  0  0  0  0  0  0  0  0  0  0
   -4.5078   -1.4247    3.6894 H   0  0  0  0  0  0  0  0  0  0  0  0
   -2.3298    1.1893   -2.2032 C   0  0  0  0  0  0  0  0  0  0  0  0
   -2.6775    0.1460   -2.1320 H   0  0  0  0  0  0  0  0  0  0  0  0
   -1.2900    3.1534   -1.1691 C   0  0  0  0  0  0  0  0  0  0  0  0
   -0.8433    3.6488   -0.2949 H   0  0  0  0  0  0  0  0  0  0  0  0
   -4.3512    1.0659    0.6673 C   0  0  0  0  0  0  0  0  0  0  0  0
   -4.3066    1.7585   -0.1860 H   0  0  0  0  0  0  0  0  0  0  0  0
   -2.4226    1.8859   -3.4148 C   0  0  0  0  0  0  0  0  0  0  0  0
   -2.8628    1.3906   -4.2929 H   0  0  0  0  0  0  0  0  0  0  0  0
   -5.6358   -0.1217    2.3580 C   0  0  0  0  0  0  0  0  0  0  0  0
   -6.6039   -0.3574    2.8245 H   0  0  0  0  0  0  0  0  0  0  0  0
   -5.5810    0.7667    1.2730 C   0  0  0  0  0  0  0  0  0  0  0  0
   -6.5021    1.2300    0.8898 H   0  0  0  0  0  0  0  0  0  0  0  0
   -1.3815    3.8351   -2.3907 C   0  0  0  0  0  0  0  0  0  0  0  0
   -1.0065    4.8664   -2.4659 H   0  0  0  0  0  0  0  0  0  0  0  0
   -1.9462    3.2047   -3.5107 C   0  0  0  0  0  0  0  0  0  0  0  0
   -2.0142    3.7438   -4.4673 H   0  0  0  0  0  0  0  0  0  0  0  0
   -3.2279   -0.4339    2.2495 C   0  0  0  0  0  0  0  0  0  0  0  0
   -2.3103   -0.9202    2.6149 H   0  0  0  0  0  0  0  0  0  0  0  0
   -0.6427    3.5454    3.4618 C   0  0  0  0  0  0  0  0  0  0  0  0
   -1.1848    4.2004    4.1596 H   0  0  0  0  0  0  0  0  0  0  0  0
    1.4556    2.6319    2.6256 C   0  0  0  0  0  0  0  0  0  0  0  0
    2.5530    2.5638    2.6742 H   0  0  0  0  0  0  0  0  0  0  0  0
    0.7584    3.4776    3.5050 C   0  0  0  0  0  0  0  0  0  0  0  0
    1.3167    4.0784    4.2382 H   0  0  0  0  0  0  0  0  0  0  0  0
    2.2404    3.3982   -3.2726 C   0  0  0  0  0  0  0  0  0  0  0  0
    2.3790    4.0283   -4.1638 H   0  0  0  0  0  0  0  0  0  0  0  0
   -1.3617    2.7628    2.5428 C   0  0  0  0  0  0  0  0  0  0  0  0
   -2.4616    2.7971    2.5235 H   0  0  0  0  0  0  0  0  0  0  0  0
    4.3658    0.4423    0.4850 C   0  0  0  0  0  0  0  0  0  0  0  0
    4.3589    0.9264   -0.5026 H   0  0  0  0  0  0  0  0  0  0  0  0
    3.1601   -0.3823    2.4550 C   0  0  0  0  0  0  0  0  0  0  0  0
    2.2158   -0.5450    2.9975 H   0  0  0  0  0  0  0  0  0  0  0  0
    5.5702   -0.0036    1.0478 C   0  0  0  0  0  0  0  0  0  0  0  0
    6.5121    0.1373    0.4977 H   0  0  0  0  0  0  0  0  0  0  0  0
    2.2571    3.1473   -0.8537 C   0  0  0  0  0  0  0  0  0  0  0  0
    2.4002    3.5831    0.1465 H   0  0  0  0  0  0  0  0  0  0  0  0
    1.6856    1.2457   -2.2851 C   0  0  0  0  0  0  0  0  0  0  0  0
    1.4014    0.1882   -2.4005 H   0  0  0  0  0  0  0  0  0  0  0  0
    4.3694   -0.8213    3.0052 C   0  0  0  0  0  0  0  0  0  0  0  0
    4.3737   -1.3223    3.9843 H   0  0  0  0  0  0  0  0  0  0  0  0
    5.5728   -0.6326    2.3025 C   0  0  0  0  0  0  0  0  0  0  0  0
    6.5202   -0.9857    2.7363 H   0  0  0  0  0  0  0  0  0  0  0  0
    1.8659    2.0532   -3.4171 C   0  0  0  0  0  0  0  0  0  0  0  0
    1.7116    1.6246   -4.4182 H   0  0  0  0  0  0  0  0  0  0  0  0
    2.4414    3.9422   -1.9927 C   0  0  0  0  0  0  0  0  0  0  0  0
    2.7404    4.9949   -1.8794 H   0  0  0  0  0  0  0  0  0  0  0  0
  1  7  1  0  0  0  0
  1  4  1  0  0  0  0
  2  5  1  0  0  0  0
  2  8  1  0  0  0  0
  3  2  1  0  0  0  0
  4 31  1  0  0  0  0
  5 27  1  0  0  0  0
  6 45  1  0  0  0  0
  6  1  1  0  0  0  0
  7 41  1  0  0  0  0
  8  4  2  0  0  0  0
  8 37  1  0  0  0  0
  9 10  1  0  0  0  0
 11 12  1  0  0  0  0
 11  3  2  0  0  0  0
 13  3  1  0  0  0  0
 13 14  1  0  0  0  0
 15  5  2  0  0  0  0
 15 21  1  0  0  0  0
 16 15  1  0  0  0  0
 17 11  1  0  0  0  0
 18 17  1  0  0  0  0
 19 20  1  0  0  0  0
 19  9  1  0  0  0  0
 21 19  2  0  0  0  0
 22 21  1  0  0  0  0
 23 13  2  0  0  0  0
 24 23  1  0  0  0  0
 25 17  2  0  0  0  0
 25 23  1  0  0  0  0
 26 25  1  0  0  0  0
 27 28  1  0  0  0  0
 27  9  2  0  0  0  0
 29 33  1  0  0  0  0
 29 30  1  0  0  0  0
 31 32  1  0  0  0  0
 31 33  2  0  0  0  0
 33 34  1  0  0  0  0
 35 55  1  0  0  0  0
 36 35  1  0  0  0  0
 37 29  2  0  0  0  0
 38 37  1  0  0  0  0
 39 43  1  0  0  0  0
 39  7  2  0  0  0  0
 40 39  1  0  0  0  0
 41 42  1  0  0  0  0
 41 49  2  0  0  0  0
 43 51  2  0  0  0  0
 44 43  1  0  0  0  0
 45 46  1  0  0  0  0
 47  6  2  0  0  0  0
 48 47  1  0  0  0  0
 49 50  1  0  0  0  0
 51 52  1  0  0  0  0
 51 49  1  0  0  0  0
 53 35  2  0  0  0  0
 53 47  1  0  0  0  0
 54 53  1  0  0  0  0
 55 56  1  0  0  0  0
 55 45  2  0  0  0  0
M  END
