1,2
q = 0.0, confidence = 1.0

 24 23  0  0  0  0  0  0  0  0999 V2000
   -1.7242    1.4450   -0.1350 P   0  0  0  0  0  0  0  0  0  0  0  0
   -1.5380   -1.6213   -0.2024 P   0  0  0  0  0  0  0  0  0  0  0  0
   -3.3043    0.4701    0.0836 C   0  0  0  0  0  0  0  0  0  0  0  0
   -3.4341    0.2883    1.1719 H   0  0  0  0  0  0  0  0  0  0  0  0
   -4.1739    1.0696   -0.2557 H   0  0  0  0  0  0  0  0  0  0  0  0
   -3.1633   -0.8442   -0.6795 C   0  0  0  0  0  0  0  0  0  0  0  0
   -3.1134   -0.6675   -1.7744 H   0  0  0  0  0  0  0  0  0  0  0  0
   -3.9999   -1.5465   -0.4850 H   0  0  0  0  0  0  0  0  0  0  0  0
   -2.0885    2.4025   -1.6625 C   0  0  0  0  0  0  0  0  0  0  0  0
   -3.0501    2.9402   -1.5463 H   0  0  0  0  0  0  0  0  0  0  0  0
   -2.1293    1.7061   -2.5202 H   0  0  0  0  0  0  0  0  0  0  0  0
   -1.2836    3.1311   -1.8658 H   0  0  0  0  0  0  0  0  0  0  0  0
   -1.8588    2.7253    1.1854 C   0  0  0  0  0  0  0  0  0  0  0  0
   -2.8636    3.1924    1.1799 H   0  0  0  0  0  0  0  0  0  0  0  0
   -1.1034    3.5179    1.0190 H   0  0  0  0  0  0  0  0  0  0  0  0
   -1.6772    2.2658    2.1759 H   0  0  0  0  0  0  0  0  0  0  0  0
   -1.3918   -3.0088   -1.3978 C   0  0  0  0  0  0  0  0  0  0  0  0
   -2.3684   -3.5188   -1.5148 H   0  0  0  0  0  0  0  0  0  0  0  0
   -0.6488   -3.7480   -1.0415 H   0  0  0  0  0  0  0  0  0  0  0  0
   -1.0630   -2.5917   -2.3690 H   0  0  0  0  0  0  0  0  0  0  0  0
   -1.9668   -2.4799    1.3754 C   0  0  0  0  0  0  0  0  0  0  0  0
   -2.7633   -3.2318    1.2100 H   0  0  0  0  0  0  0  0  0  0  0  0
   -2.3168   -1.7406    2.1213 H   0  0  0  0  0  0  0  0  0  0  0  0
   -1.0725   -2.9840    1.7889 H   0  0  0  0  0  0  0  0  0  0  0  0
  1  3  1  0  0  0  0
  1 13  1  0  0  0  0
  2 21  1  0  0  0  0
  3  4  1  0  0  0  0
  5  3  1  0  0  0  0
  6  8  1  0  0  0  0
  6  2  1  0  0  0  0
  6  3  1  0  0  0  0
  7  6  1  0  0  0  0
  9 10  1  0  0  0  0
  9  1  1  0  0  0  0
 11  9  1  0  0  0  0
 12  9  1  0  0  0  0
 13 16  1  0  0  0  0
 14 13  1  0  0  0  0
 15 13  1  0  0  0  0
 17 19  1  0  0  0  0
 17  2  1  0  0  0  0
 18 17  1  0  0  0  0
 20 17  1  0  0  0  0
 21 24  1  0  0  0  0
 21 23  1  0  0  0  0
 22 21  1  0  0  0  0
M  END
