1,2
q = 0.0, confidence = 0.998

 67 71  0  0  1  0  0  0  0  0999 V2000
   -1.6070   -0.4051    0.1389 P   0  0  0  0  0  0  0  0  0  0  0  0
    1.8107    0.3800    0.1003 P   0  0  0  0  0  0  0  0  0  0  0  0
    0.3987    4.2102    0.4718 O   0  0  0  0  0  0  0  0  0  0  0  0
   -1.7322    3.4782    0.8946 O   0  0  0  0  0  0  0  0  0  0  0  0
    1.5775    2.2078   -0.0950 C   0  0  0  0  0  0  0  0  0  0  0  0
    2.5293    2.7066    0.1772 H   0  0  0  0  0  0  0  0  0  0  0  0
    1.3726    2.3769   -1.1716 H   0  0  0  0  0  0  0  0  0  0  0  0
    0.4519    2.8136    0.7374 C   0  0  2  0  0  0  0  0  0  0  0  0
    0.6559    2.6427    1.8235 H   0  0  0  0  0  0  0  0  0  0  0  0
   -0.9869    2.3484    0.4408 C   0  0  1  0  0  0  0  0  0  0  0  0
   -1.1107    2.2109   -0.6580 H   0  0  0  0  0  0  0  0  0  0  0  0
   -1.4469    1.1088    1.2050 C   0  0  0  0  0  0  0  0  0  0  0  0
   -2.4515    1.3157    1.6241 H   0  0  0  0  0  0  0  0  0  0  0  0
   -0.7655    0.8886    2.0505 H   0  0  0  0  0  0  0  0  0  0  0  0
   -0.9887    4.6284    0.4957 C   0  0  0  0  0  0  0  0  0  0  0  0
   -1.1796    5.7061    1.5535 C   0  0  0  0  0  0  0  0  0  0  0  0
   -2.2453    6.0003    1.6148 H   0  0  0  0  0  0  0  0  0  0  0  0
   -0.5763    6.5990    1.3020 H   0  0  0  0  0  0  0  0  0  0  0  0
   -0.8583    5.3173    2.5383 H   0  0  0  0  0  0  0  0  0  0  0  0
   -1.3775    5.0815   -0.9130 C   0  0  0  0  0  0  0  0  0  0  0  0
   -0.7211    5.9110   -1.2398 H   0  0  0  0  0  0  0  0  0  0  0  0
   -2.4295    5.4271   -0.9309 H   0  0  0  0  0  0  0  0  0  0  0  0
   -1.2624    4.2487   -1.6336 H   0  0  0  0  0  0  0  0  0  0  0  0
   -3.2221   -0.0750   -0.7019 C   0  0  0  0  0  0  0  0  0  0  0  0
   -4.3758   -0.0749    0.1129 C   0  0  0  0  0  0  0  0  0  0  0  0
   -4.3009   -0.3185    1.1839 H   0  0  0  0  0  0  0  0  0  0  0  0
   -5.6307    0.2145   -0.4397 C   0  0  0  0  0  0  0  0  0  0  0  0
   -6.5229    0.2075    0.2046 H   0  0  0  0  0  0  0  0  0  0  0  0
   -5.7460    0.5012   -1.8092 C   0  0  0  0  0  0  0  0  0  0  0  0
   -6.7319    0.7246   -2.2449 H   0  0  0  0  0  0  0  0  0  0  0  0
   -4.6014    0.4941   -2.6194 C   0  0  0  0  0  0  0  0  0  0  0  0
   -4.6839    0.7105   -3.6953 H   0  0  0  0  0  0  0  0  0  0  0  0
   -3.3401    0.2049   -2.0753 C   0  0  0  0  0  0  0  0  0  0  0  0
   -2.4475    0.1959   -2.7132 H   0  0  0  0  0  0  0  0  0  0  0  0
   -2.0604   -1.7263    1.3356 C   0  0  0  0  0  0  0  0  0  0  0  0
   -2.3253   -3.0148    0.8241 C   0  0  0  0  0  0  0  0  0  0  0  0
   -2.2200   -3.1987   -0.2564 H   0  0  0  0  0  0  0  0  0  0  0  0
   -2.7015   -4.0467    1.6929 C   0  0  0  0  0  0  0  0  0  0  0  0
   -2.9029   -5.0486    1.2852 H   0  0  0  0  0  0  0  0  0  0  0  0
   -2.8076   -3.8121    3.0737 C   0  0  0  0  0  0  0  0  0  0  0  0
   -3.0984   -4.6281    3.7527 H   0  0  0  0  0  0  0  0  0  0  0  0
   -2.5407   -2.5339    3.5856 C   0  0  0  0  0  0  0  0  0  0  0  0
   -2.6253   -2.3393    4.6658 H   0  0  0  0  0  0  0  0  0  0  0  0
   -2.1696   -1.4911    2.7210 C   0  0  0  0  0  0  0  0  0  0  0  0
   -1.9655   -0.4983    3.1446 H   0  0  0  0  0  0  0  0  0  0  0  0
    3.5364    0.0874   -0.4484 C   0  0  0  0  0  0  0  0  0  0  0  0
    4.1899    0.9468   -1.3524 C   0  0  0  0  0  0  0  0  0  0  0  0
    3.6951    1.8585   -1.7174 H   0  0  0  0  0  0  0  0  0  0  0  0
    5.4810    0.6310   -1.8056 C   0  0  0  0  0  0  0  0  0  0  0  0
    5.9891    1.3063   -2.5103 H   0  0  0  0  0  0  0  0  0  0  0  0
    6.1165   -0.5405   -1.3680 C   0  0  0  0  0  0  0  0  0  0  0  0
    7.1278   -0.7848   -1.7263 H   0  0  0  0  0  0  0  0  0  0  0  0
    5.4557   -1.4072   -0.4810 C   0  0  0  0  0  0  0  0  0  0  0  0
    5.9451   -2.3341   -0.1460 H   0  0  0  0  0  0  0  0  0  0  0  0
    4.1678   -1.1009   -0.0225 C   0  0  0  0  0  0  0  0  0  0  0  0
    3.6335   -1.7927    0.6470 H   0  0  0  0  0  0  0  0  0  0  0  0
    1.9374    0.1568    1.9273 C   0  0  0  0  0  0  0  0  0  0  0  0
    1.1759   -0.7921    2.6322 C   0  0  0  0  0  0  0  0  0  0  0  0
    0.5345   -1.4945    2.0822 H   0  0  0  0  0  0  0  0  0  0  0  0
    1.2798   -0.8769    4.0304 C   0  0  0  0  0  0  0  0  0  0  0  0
    0.6754   -1.6238    4.5674 H   0  0  0  0  0  0  0  0  0  0  0  0
    2.1474   -0.0261    4.7297 C   0  0  0  0  0  0  0  0  0  0  0  0
    2.2276   -0.0951    5.8252 H   0  0  0  0  0  0  0  0  0  0  0  0
    2.9256    0.9097    4.0262 C   0  0  0  0  0  0  0  0  0  0  0  0
    3.6178    1.5728    4.5667 H   0  0  0  0  0  0  0  0  0  0  0  0
    2.8244    1.0015    2.6320 C   0  0  0  0  0  0  0  0  0  0  0  0
    3.4463    1.7312    2.0908 H   0  0  0  0  0  0  0  0  0  0  0  0
  1 12  1  0  0  0  0
  1 35  1  0  0  0  0
  2 57  1  0  0  0  0
  3 15  1  0  0  0  0
  3  8  1  0  0  0  0
  5  2  1  0  0  0  0
  5  6  1  0  0  0  0
  5  8  1  0  0  0  0
  7  5  1  0  0  0  0
  8  9  1  1  0  0  0
 10 11  1  6  0  0  0
 10  8  1  0  0  0  0
 10  4  1  0  0  0  0
 10 12  1  0  0  0  0
 12 13  1  0  0  0  0
 12 14  1  0  0  0  0
 15  4  1  0  0  0  0
 15 16  1  0  0  0  0
 16 17  1  0  0  0  0
 16 19  1  0  0  0  0
 18 16  1  0  0  0  0
 20 15  1  0  0  0  0
 21 20  1  0  0  0  0
 22 20  1  0  0  0  0
 23 20  1  0  0  0  0
 24 25  1  0  0  0  0
 24  1  1  0  0  0  0
 25 26  1  0  0  0  0
 27 25  2  0  0  0  0
 27 28  1  0  0  0  0
 29 27  1  0  0  0  0
 30 29  1  0  0  0  0
 31 33  1  0  0  0  0
 31 29  2  0  0  0  0
 32 31  1  0  0  0  0
 33 24  2  0  0  0  0
 34 33  1  0  0  0  0
 35 44  1  0  0  0  0
 36 35  2  0  0  0  0
 36 38  1  0  0  0  0
 37 36  1  0  0  0  0
 38 40  2  0  0  0  0
 39 38  1  0  0  0  0
 40 42  1  0  0  0  0
 40 41  1  0  0  0  0
 42 43  1  0  0  0  0
 44 45  1  0  0  0  0
 44 42  2  0  0  0  0
 46 55  1  0  0  0  0
 46  2  1  0  0  0  0
 47 46  2  0  0  0  0
 48 47  1  0  0  0  0
 49 51  2  0  0  0  0
 49 47  1  0  0  0  0
 50 49  1  0  0  0  0
 51 53  1  0  0  0  0
 52 51  1  0  0  0  0
 53 54  1  0  0  0  0
 53 55  2  0  0  0  0
 55 56  1  0  0  0  0
 57 66  2  0  0  0  0
 57 58  1  0  0  0  0
 58 60  2  0  0  0  0
 59 58  1  0  0  0  0
 60 61  1  0  0  0  0
 60 62  1  0  0  0  0
 62 63  1  0  0  0  0
 64 65  1  0  0  0  0
 64 62  2  0  0  0  0
 66 64  1  0  0  0  0
 67 66  1  0  0  0  0
M  END
