1,14
q = 0.0, confidence = 0.998

 75 78  0  0  0  0  0  0  0  0999 V2000
   -0.5702    1.1779    0.1762 P   0  0  0  0  0  0  0  0  0  0  0  0
   -1.7248    0.9122    1.5905 C   0  0  0  0  0  0  0  0  0  0  0  0
   -1.3574    1.3924    2.8654 C   0  0  0  0  0  0  0  0  0  0  0  0
   -2.2297    1.2362    3.9526 C   0  0  0  0  0  0  0  0  0  0  0  0
   -3.4715    0.6040    3.7849 C   0  0  0  0  0  0  0  0  0  0  0  0
   -3.8414    0.1258    2.5184 C   0  0  0  0  0  0  0  0  0  0  0  0
   -2.9742    0.2750    1.4251 C   0  0  0  0  0  0  0  0  0  0  0  0
   -1.0934    2.7618   -0.5961 C   0  0  0  0  0  0  0  0  0  0  0  0
   -2.4373    3.1801   -0.5628 C   0  0  0  0  0  0  0  0  0  0  0  0
   -2.8232    4.3474   -1.2398 C   0  0  0  0  0  0  0  0  0  0  0  0
   -1.8730    5.0970   -1.9506 C   0  0  0  0  0  0  0  0  0  0  0  0
   -0.5313    4.6821   -1.9796 C   0  0  0  0  0  0  0  0  0  0  0  0
   -0.1377    3.5209   -1.3003 C   0  0  0  0  0  0  0  0  0  0  0  0
    2.1261   -0.8407   -0.3929 P   0  0  0  0  0  0  0  0  0  0  0  0
    2.5562   -2.2524    0.7031 C   0  0  0  0  0  0  0  0  0  0  0  0
    2.6075   -2.0635    2.0979 C   0  0  0  0  0  0  0  0  0  0  0  0
    2.8880   -3.1483    2.9419 C   0  0  0  0  0  0  0  0  0  0  0  0
    3.1297   -4.4215    2.4031 C   0  0  0  0  0  0  0  0  0  0  0  0
    3.0959   -4.6111    1.0119 C   0  0  0  0  0  0  0  0  0  0  0  0
    2.8081   -3.5317    0.1639 C   0  0  0  0  0  0  0  0  0  0  0  0
    3.5276   -0.6278   -1.5593 C   0  0  0  0  0  0  0  0  0  0  0  0
    3.3524    0.2455   -2.6525 C   0  0  0  0  0  0  0  0  0  0  0  0
    4.4051    0.4732   -3.5488 C   0  0  0  0  0  0  0  0  0  0  0  0
    5.6433   -0.1601   -3.3532 C   0  0  0  0  0  0  0  0  0  0  0  0
    5.8265   -1.0111   -2.2526 C   0  0  0  0  0  0  0  0  0  0  0  0
    4.7763   -1.2418   -1.3515 C   0  0  0  0  0  0  0  0  0  0  0  0
   -1.1233   -0.0056   -1.1372 C   0  0  0  0  0  0  0  0  0  0  0  0
   -0.6352   -1.4725   -1.0678 C   0  0  0  0  0  0  0  0  0  0  0  0
    0.8323   -1.5531   -1.5348 C   0  0  0  0  0  0  0  0  0  0  0  0
   -0.8065   -2.1070    0.3222 C   0  0  0  0  0  0  0  0  0  0  0  0
   -1.4827   -2.2864   -2.1058 C   0  0  0  0  0  0  0  0  0  0  0  0
   -2.9140   -2.2425   -1.8354 C   0  0  0  0  0  0  0  0  0  0  0  0
   -4.1093   -2.1428   -1.5488 C   0  0  0  0  0  0  0  0  0  0  0  0
   -5.8847   -1.9540   -1.0642 Si  0  0  0  0  0  0  0  0  0  0  0  0
   -6.1371   -2.8341    0.5899 C   0  0  0  0  0  0  0  0  0  0  0  0
   -6.2574   -0.1065   -0.8967 C   0  0  0  0  0  0  0  0  0  0  0  0
   -6.9723   -2.7247   -2.4019 C   0  0  0  0  0  0  0  0  0  0  0  0
   -0.3904    1.9089    2.9853 H   0  0  0  0  0  0  0  0  0  0  0  0
   -1.9313    1.6160    4.9415 H   0  0  0  0  0  0  0  0  0  0  0  0
   -4.1524    0.4823    4.6411 H   0  0  0  0  0  0  0  0  0  0  0  0
   -4.8136   -0.3705    2.3748 H   0  0  0  0  0  0  0  0  0  0  0  0
   -3.2845   -0.1240    0.4489 H   0  0  0  0  0  0  0  0  0  0  0  0
   -3.1831    2.6025    0.0046 H   0  0  0  0  0  0  0  0  0  0  0  0
   -3.8732    4.6756   -1.2045 H   0  0  0  0  0  0  0  0  0  0  0  0
   -2.1771    6.0152   -2.4758 H   0  0  0  0  0  0  0  0  0  0  0  0
    0.2199    5.2770   -2.5207 H   0  0  0  0  0  0  0  0  0  0  0  0
    0.9186    3.2103   -1.2865 H   0  0  0  0  0  0  0  0  0  0  0  0
    2.4519   -1.0553    2.5097 H   0  0  0  0  0  0  0  0  0  0  0  0
    2.9242   -2.9921    4.0304 H   0  0  0  0  0  0  0  0  0  0  0  0
    3.3520   -5.2697    3.0684 H   0  0  0  0  0  0  0  0  0  0  0  0
    3.2967   -5.6045    0.5828 H   0  0  0  0  0  0  0  0  0  0  0  0
    2.7972   -3.6908   -0.9258 H   0  0  0  0  0  0  0  0  0  0  0  0
    2.3957    0.7753   -2.7896 H   0  0  0  0  0  0  0  0  0  0  0  0
    4.2614    1.1589   -4.3974 H   0  0  0  0  0  0  0  0  0  0  0  0
    6.4721    0.0221   -4.0540 H   0  0  0  0  0  0  0  0  0  0  0  0
    6.8014   -1.4929   -2.0838 H   0  0  0  0  0  0  0  0  0  0  0  0
    4.9314   -1.8866   -0.4751 H   0  0  0  0  0  0  0  0  0  0  0  0
   -0.7767    0.4554   -2.0858 H   0  0  0  0  0  0  0  0  0  0  0  0
   -2.2311    0.0286   -1.1756 H   0  0  0  0  0  0  0  0  0  0  0  0
    1.1169   -2.6103   -1.7151 H   0  0  0  0  0  0  0  0  0  0  0  0
    0.9490   -1.0267   -2.5041 H   0  0  0  0  0  0  0  0  0  0  0  0
   -1.1279   -3.3409   -2.1041 H   0  0  0  0  0  0  0  0  0  0  0  0
   -1.2834   -1.8927   -3.1278 H   0  0  0  0  0  0  0  0  0  0  0  0
   -7.1779   -2.7026    0.9515 H   0  0  0  0  0  0  0  0  0  0  0  0
   -5.9405   -3.9209    0.4927 H   0  0  0  0  0  0  0  0  0  0  0  0
   -5.4485   -2.4348    1.3619 H   0  0  0  0  0  0  0  0  0  0  0  0
   -7.3233    0.0504   -0.6307 H   0  0  0  0  0  0  0  0  0  0  0  0
   -5.6372    0.3657   -0.1081 H   0  0  0  0  0  0  0  0  0  0  0  0
   -6.0596    0.4243   -1.8499 H   0  0  0  0  0  0  0  0  0  0  0  0
   -8.0448   -2.6294   -2.1339 H   0  0  0  0  0  0  0  0  0  0  0  0
   -6.8151   -2.2241   -3.3785 H   0  0  0  0  0  0  0  0  0  0  0  0
   -6.7428   -3.8019   -2.5280 H   0  0  0  0  0  0  0  0  0  0  0  0
   -1.8742   -2.1585    0.6073 H   0  0  0  0  0  0  0  0  0  0  0  0
   -0.3936   -3.1358    0.3292 H   0  0  0  0  0  0  0  0  0  0  0  0
   -0.2730   -1.5313    1.1047 H   0  0  0  0  0  0  0  0  0  0  0  0
  1  2  1  0  0  0  0
  2  3  1  0  0  0  0
  3 38  1  0  0  0  0
  3  4  2  0  0  0  0
  4 39  1  0  0  0  0
  5  4  1  0  0  0  0
  5 40  1  0  0  0  0
  6  5  2  0  0  0  0
  7  2  2  0  0  0  0
  7  6  1  0  0  0  0
  8  9  1  0  0  0  0
  8  1  1  0  0  0  0
  9 43  1  0  0  0  0
 10 44  1  0  0  0  0
 10  9  2  0  0  0  0
 11 10  1  0  0  0  0
 12 11  2  0  0  0  0
 12 13  1  0  0  0  0
 13 47  1  0  0  0  0
 13  8  2  0  0  0  0
 14 15  1  0  0  0  0
 15 16  1  0  0  0  0
 16 48  1  0  0  0  0
 16 17  2  0  0  0  0
 17 49  1  0  0  0  0
 18 17  1  0  0  0  0
 18 50  1  0  0  0  0
 19 18  2  0  0  0  0
 20 15  2  0  0  0  0
 20 19  1  0  0  0  0
 21 26  1  0  0  0  0
 21 14  1  0  0  0  0
 22 21  2  0  0  0  0
 23 24  2  0  0  0  0
 23 22  1  0  0  0  0
 24 25  1  0  0  0  0
 25 56  1  0  0  0  0
 25 26  2  0  0  0  0
 26 57  1  0  0  0  0
 27 28  1  0  0  0  0
 27  1  1  0  0  0  0
 28 30  1  0  0  0  0
 29 28  1  0  0  0  0
 29 14  1  0  0  0  0
 30 74  1  0  0  0  0
 30 73  1  0  0  0  0
 30 75  1  0  0  0  0
 31 62  1  0  0  0  0
 31 32  1  0  0  0  0
 31 28  1  0  0  0  0
 32 33  3  0  0  0  0
 33 34  1  0  0  0  0
 34 36  1  0  0  0  0
 34 35  1  0  0  0  0
 35 64  1  0  0  0  0
 35 66  1  0  0  0  0
 36 67  1  0  0  0  0
 36 68  1  0  0  0  0
 37 70  1  0  0  0  0
 37 34  1  0  0  0  0
 41  6  1  0  0  0  0
 42  7  1  0  0  0  0
 45 11  1  0  0  0  0
 46 12  1  0  0  0  0
 51 19  1  0  0  0  0
 52 20  1  0  0  0  0
 53 22  1  0  0  0  0
 54 23  1  0  0  0  0
 55 24  1  0  0  0  0
 58 27  1  0  0  0  0
 59 27  1  0  0  0  0
 60 29  1  0  0  0  0
 61 29  1  0  0  0  0
 63 31  1  0  0  0  0
 65 35  1  0  0  0  0
 69 36  1  0  0  0  0
 71 37  1  0  0  0  0
 72 37  1  0  0  0  0
M  END
