1,21
q = 0.0, confidence = 0.996

 65 68  0  0  0  0  0  0  0  0999 V2000
   -1.6385    0.8644    0.4558 P   0  0  0  0  0  0  0  0  0  0  0  0
   -2.4747    1.6547   -0.9813 C   0  0  0  0  0  0  0  0  0  0  0  0
   -3.3443    2.7510   -0.8004 C   0  0  0  0  0  0  0  0  0  0  0  0
   -3.9295    3.3793   -1.9096 C   0  0  0  0  0  0  0  0  0  0  0  0
   -3.6455    2.9234   -3.2073 C   0  0  0  0  0  0  0  0  0  0  0  0
   -2.7820    1.8326   -3.3920 C   0  0  0  0  0  0  0  0  0  0  0  0
   -2.2021    1.1962   -2.2847 C   0  0  0  0  0  0  0  0  0  0  0  0
   -2.9672    0.3647    1.6246 C   0  0  0  0  0  0  0  0  0  0  0  0
   -2.5856   -0.0661    2.9121 C   0  0  0  0  0  0  0  0  0  0  0  0
   -3.5528   -0.4980    3.8294 C   0  0  0  0  0  0  0  0  0  0  0  0
   -4.9090   -0.5122    3.4657 C   0  0  0  0  0  0  0  0  0  0  0  0
   -5.2903   -0.1022    2.1792 C   0  0  0  0  0  0  0  0  0  0  0  0
   -4.3255    0.3290    1.2564 C   0  0  0  0  0  0  0  0  0  0  0  0
   -0.9410    2.3268    1.3862 C   0  0  0  0  0  0  0  0  0  0  0  0
    0.4231    2.9017    0.9488 C   0  0  0  0  0  0  0  0  0  0  0  0
    0.6427    4.1941    1.8071 C   0  0  0  0  0  0  0  0  0  0  0  0
    1.9088    4.9491    1.5208 C   0  0  0  0  0  0  0  0  0  0  0  0
    2.9554    5.0472    2.3603 C   0  0  0  0  0  0  0  0  0  0  0  0
    0.4281    3.2585   -0.5471 C   0  0  0  0  0  0  0  0  0  0  0  0
    1.5493    1.9136    1.3181 C   0  0  0  0  0  0  0  0  0  0  0  0
    1.7288    0.3476    0.3275 P   0  0  0  0  0  0  0  0  0  0  0  0
    2.9357   -0.5453    1.3887 C   0  0  0  0  0  0  0  0  0  0  0  0
    2.5102   -0.9383    2.6745 C   0  0  0  0  0  0  0  0  0  0  0  0
    3.3776   -1.6395    3.5222 C   0  0  0  0  0  0  0  0  0  0  0  0
    4.6737   -1.9638    3.0890 C   0  0  0  0  0  0  0  0  0  0  0  0
    5.0929   -1.5910    1.8031 C   0  0  0  0  0  0  0  0  0  0  0  0
    4.2282   -0.8881    0.9504 C   0  0  0  0  0  0  0  0  0  0  0  0
    2.6499    0.9030   -1.1662 C   0  0  0  0  0  0  0  0  0  0  0  0
    3.7697    1.7541   -1.0497 C   0  0  0  0  0  0  0  0  0  0  0  0
    4.4278    2.2160   -2.1990 C   0  0  0  0  0  0  0  0  0  0  0  0
    3.9701    1.8388   -3.4721 C   0  0  0  0  0  0  0  0  0  0  0  0
    2.8575    0.9920   -3.5923 C   0  0  0  0  0  0  0  0  0  0  0  0
    2.2010    0.5216   -2.4454 C   0  0  0  0  0  0  0  0  0  0  0  0
   -3.5818    3.1133    0.2120 H   0  0  0  0  0  0  0  0  0  0  0  0
   -4.6125    4.2290   -1.7583 H   0  0  0  0  0  0  0  0  0  0  0  0
   -4.1032    3.4190   -4.0770 H   0  0  0  0  0  0  0  0  0  0  0  0
   -2.5612    1.4659   -4.4056 H   0  0  0  0  0  0  0  0  0  0  0  0
   -1.5404    0.3268   -2.4204 H   0  0  0  0  0  0  0  0  0  0  0  0
   -1.5205   -0.0928    3.1935 H   0  0  0  0  0  0  0  0  0  0  0  0
   -3.2436   -0.8374    4.8295 H   0  0  0  0  0  0  0  0  0  0  0  0
   -5.6687   -0.8566    4.1836 H   0  0  0  0  0  0  0  0  0  0  0  0
   -6.3495   -0.1304    1.8819 H   0  0  0  0  0  0  0  0  0  0  0  0
   -4.6277    0.6202    0.2408 H   0  0  0  0  0  0  0  0  0  0  0  0
   -0.8860    2.0130    2.4489 H   0  0  0  0  0  0  0  0  0  0  0  0
   -1.7176    3.1181    1.3382 H   0  0  0  0  0  0  0  0  0  0  0  0
    0.6105    3.9127    2.8816 H   0  0  0  0  0  0  0  0  0  0  0  0
   -0.2296    4.8608    1.6238 H   0  0  0  0  0  0  0  0  0  0  0  0
    1.9699    5.4530    0.5396 H   0  0  0  0  0  0  0  0  0  0  0  0
    3.8586    5.6180    2.0938 H   0  0  0  0  0  0  0  0  0  0  0  0
    2.9412    4.5670    3.3536 H   0  0  0  0  0  0  0  0  0  0  0  0
   -0.3550    4.0102   -0.7738 H   0  0  0  0  0  0  0  0  0  0  0  0
    1.4097    3.6609   -0.8631 H   0  0  0  0  0  0  0  0  0  0  0  0
    0.2255    2.3731   -1.1799 H   0  0  0  0  0  0  0  0  0  0  0  0
    1.4249    1.5888    2.3721 H   0  0  0  0  0  0  0  0  0  0  0  0
    2.5299    2.4297    1.2733 H   0  0  0  0  0  0  0  0  0  0  0  0
    1.4814   -0.7221    3.0049 H   0  0  0  0  0  0  0  0  0  0  0  0
    3.0344   -1.9470    4.5215 H   0  0  0  0  0  0  0  0  0  0  0  0
    5.3532   -2.5207    3.7517 H   0  0  0  0  0  0  0  0  0  0  0  0
    6.1004   -1.8600    1.4511 H   0  0  0  0  0  0  0  0  0  0  0  0
    4.5535   -0.6225   -0.0653 H   0  0  0  0  0  0  0  0  0  0  0  0
    4.1399    2.0587   -0.0588 H   0  0  0  0  0  0  0  0  0  0  0  0
    5.3034    2.8751   -2.0981 H   0  0  0  0  0  0  0  0  0  0  0  0
    4.4857    2.2049   -4.3730 H   0  0  0  0  0  0  0  0  0  0  0  0
    2.4976    0.6876   -4.5866 H   0  0  0  0  0  0  0  0  0  0  0  0
    1.3395   -0.1583   -2.5317 H   0  0  0  0  0  0  0  0  0  0  0  0
  1 14  1  0  0  0  0
  1  8  1  0  0  0  0
  2  3  1  0  0  0  0
  2  1  1  0  0  0  0
  3 34  1  0  0  0  0
  4 35  1  0  0  0  0
  4  3  2  0  0  0  0
  5  4  1  0  0  0  0
  6  5  2  0  0  0  0
  6  7  1  0  0  0  0
  7  2  2  0  0  0  0
  8  9  1  0  0  0  0
  9 39  1  0  0  0  0
  9 10  2  0  0  0  0
 10 40  1  0  0  0  0
 11 10  1  0  0  0  0
 11 41  1  0  0  0  0
 12 11  2  0  0  0  0
 13  8  2  0  0  0  0
 13 12  1  0  0  0  0
 14 44  1  0  0  0  0
 15 20  1  0  0  0  0
 15 14  1  0  0  0  0
 15 16  1  0  0  0  0
 16 46  1  0  0  0  0
 17 16  1  0  0  0  0
 17 18  2  0  0  0  0
 18 50  1  0  0  0  0
 19 15  1  0  0  0  0
 20 54  1  0  0  0  0
 21 20  1  0  0  0  0
 21 22  1  0  0  0  0
 22 23  1  0  0  0  0
 23 56  1  0  0  0  0
 23 24  2  0  0  0  0
 24 57  1  0  0  0  0
 25 24  1  0  0  0  0
 25 58  1  0  0  0  0
 26 25  2  0  0  0  0
 27 22  2  0  0  0  0
 27 26  1  0  0  0  0
 28 29  1  0  0  0  0
 28 21  1  0  0  0  0
 29 61  1  0  0  0  0
 30 62  1  0  0  0  0
 30 29  2  0  0  0  0
 31 30  1  0  0  0  0
 32 31  2  0  0  0  0
 32 33  1  0  0  0  0
 33 28  2  0  0  0  0
 36  5  1  0  0  0  0
 37  6  1  0  0  0  0
 38  7  1  0  0  0  0
 42 12  1  0  0  0  0
 43 13  1  0  0  0  0
 45 14  1  0  0  0  0
 47 16  1  0  0  0  0
 48 17  1  0  0  0  0
 49 18  1  0  0  0  0
 51 19  1  0  0  0  0
 52 19  1  0  0  0  0
 53 19  1  0  0  0  0
 55 20  1  0  0  0  0
 59 26  1  0  0  0  0
 60 27  1  0  0  0  0
 63 31  1  0  0  0  0
 64 32  1  0  0  0  0
 65 33  1  0  0  0  0
M  END
