1,2
q = 0.0, confidence = 0.998

 54 57  0  0  0  0  0  0  0  0999 V2000
    1.8297   -0.1476    0.7184 P   0  0  0  0  0  0  0  0  0  0  0  0
   -1.7411   -0.1436    0.6167 P   0  0  0  0  0  0  0  0  0  0  0  0
    1.4105   -0.4508    2.3056 O   0  0  0  0  0  0  0  0  0  0  0  0
   -1.3059    0.2231    2.1902 O   0  0  0  0  0  0  0  0  0  0  0  0
    0.4426   -1.4404    2.6511 C   0  0  0  0  0  0  0  0  0  0  0  0
    0.8568   -2.0588    3.4749 H   0  0  0  0  0  0  0  0  0  0  0  0
    0.2432   -2.1243    1.7995 H   0  0  0  0  0  0  0  0  0  0  0  0
   -0.8398   -0.7669    3.1128 C   0  0  0  0  0  0  0  0  0  0  0  0
   -1.6230   -1.5358    3.3010 H   0  0  0  0  0  0  0  0  0  0  0  0
   -0.6664   -0.2108    4.0553 H   0  0  0  0  0  0  0  0  0  0  0  0
    2.2241    1.6296    0.8475 C   0  0  0  0  0  0  0  0  0  0  0  0
    3.1295    2.2105   -0.0644 C   0  0  0  0  0  0  0  0  0  0  0  0
    3.6661    1.5804   -0.7909 H   0  0  0  0  0  0  0  0  0  0  0  0
    3.3604    3.5938   -0.0327 C   0  0  0  0  0  0  0  0  0  0  0  0
    4.0809    4.0426   -0.7329 H   0  0  0  0  0  0  0  0  0  0  0  0
    2.6883    4.4002    0.9028 C   0  0  0  0  0  0  0  0  0  0  0  0
    2.8849    5.4826    0.9375 H   0  0  0  0  0  0  0  0  0  0  0  0
    1.7778    3.8213    1.8030 C   0  0  0  0  0  0  0  0  0  0  0  0
    1.2581    4.4494    2.5423 H   0  0  0  0  0  0  0  0  0  0  0  0
    1.5393    2.4382    1.7754 C   0  0  0  0  0  0  0  0  0  0  0  0
    0.8332    1.9745    2.4785 H   0  0  0  0  0  0  0  0  0  0  0  0
    3.4512   -0.9724    0.5665 C   0  0  0  0  0  0  0  0  0  0  0  0
    3.6234   -2.1177   -0.2366 C   0  0  0  0  0  0  0  0  0  0  0  0
    2.7910   -2.5058   -0.8390 H   0  0  0  0  0  0  0  0  0  0  0  0
    4.8617   -2.7764   -0.2663 C   0  0  0  0  0  0  0  0  0  0  0  0
    4.9902   -3.6669   -0.8991 H   0  0  0  0  0  0  0  0  0  0  0  0
    5.9293   -2.2999    0.5090 C   0  0  0  0  0  0  0  0  0  0  0  0
    6.9008   -2.8157    0.4823 H   0  0  0  0  0  0  0  0  0  0  0  0
    5.7595   -1.1659    1.3223 C   0  0  0  0  0  0  0  0  0  0  0  0
    6.5951   -0.7956    1.9347 H   0  0  0  0  0  0  0  0  0  0  0  0
    4.5265   -0.5036    1.3563 C   0  0  0  0  0  0  0  0  0  0  0  0
    4.3956    0.3816    1.9968 H   0  0  0  0  0  0  0  0  0  0  0  0
   -2.6054    1.4287    0.2499 C   0  0  0  0  0  0  0  0  0  0  0  0
   -3.4514    1.4850   -0.8765 C   0  0  0  0  0  0  0  0  0  0  0  0
   -3.6307    0.5862   -1.4865 H   0  0  0  0  0  0  0  0  0  0  0  0
   -4.0835    2.6896   -1.2157 C   0  0  0  0  0  0  0  0  0  0  0  0
   -4.7521    2.7270   -2.0886 H   0  0  0  0  0  0  0  0  0  0  0  0
   -3.8771    3.8397   -0.4339 C   0  0  0  0  0  0  0  0  0  0  0  0
   -4.3848    4.7804   -0.6951 H   0  0  0  0  0  0  0  0  0  0  0  0
   -3.0359    3.7815    0.6892 C   0  0  0  0  0  0  0  0  0  0  0  0
   -2.8840    4.6760    1.3123 H   0  0  0  0  0  0  0  0  0  0  0  0
   -2.3940    2.5800    1.0325 C   0  0  0  0  0  0  0  0  0  0  0  0
   -1.7414    2.5267    1.9145 H   0  0  0  0  0  0  0  0  0  0  0  0
   -3.0937   -1.3556    0.8126 C   0  0  0  0  0  0  0  0  0  0  0  0
   -3.1515   -2.5457    0.0627 C   0  0  0  0  0  0  0  0  0  0  0  0
   -2.3728   -2.7752   -0.6767 H   0  0  0  0  0  0  0  0  0  0  0  0
   -4.2139   -3.4428    0.2545 C   0  0  0  0  0  0  0  0  0  0  0  0
   -4.2585   -4.3690   -0.3372 H   0  0  0  0  0  0  0  0  0  0  0  0
   -5.2111   -3.1590    1.1993 C   0  0  0  0  0  0  0  0  0  0  0  0
   -6.0415   -3.8650    1.3499 H   0  0  0  0  0  0  0  0  0  0  0  0
   -5.1539   -1.9733    1.9537 C   0  0  0  0  0  0  0  0  0  0  0  0
   -5.9385   -1.7507    2.6921 H   0  0  0  0  0  0  0  0  0  0  0  0
   -4.1027   -1.0693    1.7613 C   0  0  0  0  0  0  0  0  0  0  0  0
   -4.0608   -0.1351    2.3424 H   0  0  0  0  0  0  0  0  0  0  0  0
  1 11  1  0  0  0  0
  1  3  1  0  0  0  0
  2 44  1  0  0  0  0
  2  4  1  0  0  0  0
  3  5  1  0  0  0  0
  4  8  1  0  0  0  0
  5  8  1  0  0  0  0
  5  6  1  0  0  0  0
  7  5  1  0  0  0  0
  8  9  1  0  0  0  0
  8 10  1  0  0  0  0
 11 20  1  0  0  0  0
 12 14  1  0  0  0  0
 12 11  2  0  0  0  0
 13 12  1  0  0  0  0
 14 16  2  0  0  0  0
 15 14  1  0  0  0  0
 16 17  1  0  0  0  0
 16 18  1  0  0  0  0
 18 19  1  0  0  0  0
 20 18  2  0  0  0  0
 20 21  1  0  0  0  0
 22  1  1  0  0  0  0
 22 31  1  0  0  0  0
 23 22  2  0  0  0  0
 24 23  1  0  0  0  0
 25 23  1  0  0  0  0
 25 27  2  0  0  0  0
 26 25  1  0  0  0  0
 27 29  1  0  0  0  0
 28 27  1  0  0  0  0
 29 31  2  0  0  0  0
 29 30  1  0  0  0  0
 31 32  1  0  0  0  0
 33  2  1  0  0  0  0
 33 42  1  0  0  0  0
 34 33  2  0  0  0  0
 35 34  1  0  0  0  0
 36 34  1  0  0  0  0
 36 38  2  0  0  0  0
 37 36  1  0  0  0  0
 38 40  1  0  0  0  0
 39 38  1  0  0  0  0
 40 42  2  0  0  0  0
 40 41  1  0  0  0  0
 42 43  1  0  0  0  0
 44 53  1  0  0  0  0
 45 47  1  0  0  0  0
 45 44  2  0  0  0  0
 46 45  1  0  0  0  0
 47 49  2  0  0  0  0
 48 47  1  0  0  0  0
 49 50  1  0  0  0  0
 49 51  1  0  0  0  0
 51 52  1  0  0  0  0
 53 51  2  0  0  0  0
 53 54  1  0  0  0  0
M  END
