1,2
q = 0.0, confidence = 0.992

 55 58  0  0  0  0  0  0  0  0999 V2000
   -1.6949    0.9378    0.8400 P   0  0  0  0  0  0  0  0  0  0  0  0
    1.6188    0.9711    0.7941 P   0  0  0  0  0  0  0  0  0  0  0  0
   -0.0857    2.8468    2.2082 C   0  0  0  0  0  0  0  0  0  0  0  0
   -0.1341    3.4642    1.2854 H   0  0  0  0  0  0  0  0  0  0  0  0
   -0.0722    3.5654    3.0543 H   0  0  0  0  0  0  0  0  0  0  0  0
   -3.0456   -1.0464    2.2388 C   0  0  0  0  0  0  0  0  0  0  0  0
   -2.0293   -1.3834    2.5008 H   0  0  0  0  0  0  0  0  0  0  0  0
   -1.7032    1.9423   -1.7639 C   0  0  0  0  0  0  0  0  0  0  0  0
   -1.0730    1.0636   -1.9776 H   0  0  0  0  0  0  0  0  0  0  0  0
   -1.3381    1.9794    2.3315 C   0  0  0  0  0  0  0  0  0  0  0  0
   -2.2410    2.5937    2.5218 H   0  0  0  0  0  0  0  0  0  0  0  0
   -1.2556    1.2739    3.1850 H   0  0  0  0  0  0  0  0  0  0  0  0
   -2.9498    3.2942   -0.1638 C   0  0  0  0  0  0  0  0  0  0  0  0
   -3.3178    3.4840    0.8560 H   0  0  0  0  0  0  0  0  0  0  0  0
   -2.1713    2.1504   -0.4489 C   0  0  0  0  0  0  0  0  0  0  0  0
    2.0515    1.6064   -1.8908 C   0  0  0  0  0  0  0  0  0  0  0  0
    1.8099    0.5466   -2.0665 H   0  0  0  0  0  0  0  0  0  0  0  0
   -3.2190    0.0779    1.4027 C   0  0  0  0  0  0  0  0  0  0  0  0
    2.3414    3.4762   -0.3526 C   0  0  0  0  0  0  0  0  0  0  0  0
    2.3428    3.8973    0.6630 H   0  0  0  0  0  0  0  0  0  0  0  0
   -2.0153    2.8573   -2.7797 C   0  0  0  0  0  0  0  0  0  0  0  0
   -1.6400    2.6889   -3.8000 H   0  0  0  0  0  0  0  0  0  0  0  0
    3.1259   -0.8597    2.2642 C   0  0  0  0  0  0  0  0  0  0  0  0
    2.1518   -1.3219    2.4910 H   0  0  0  0  0  0  0  0  0  0  0  0
   -5.4561   -1.3428    2.3432 C   0  0  0  0  0  0  0  0  0  0  0  0
   -6.3320   -1.8997    2.7082 H   0  0  0  0  0  0  0  0  0  0  0  0
   -4.5170    0.4841    1.0352 C   0  0  0  0  0  0  0  0  0  0  0  0
   -4.6611    1.3471    0.3683 H   0  0  0  0  0  0  0  0  0  0  0  0
    2.3685    2.4462   -2.9669 C   0  0  0  0  0  0  0  0  0  0  0  0
    2.3828    2.0391   -3.9890 H   0  0  0  0  0  0  0  0  0  0  0  0
    3.1907    0.2561    1.4048 C   0  0  0  0  0  0  0  0  0  0  0  0
   -3.2602    4.2055   -1.1832 C   0  0  0  0  0  0  0  0  0  0  0  0
   -3.8671    5.0942   -0.9543 H   0  0  0  0  0  0  0  0  0  0  0  0
    4.4358    0.8249    1.0747 C   0  0  0  0  0  0  0  0  0  0  0  0
    4.4885    1.6887    0.3947 H   0  0  0  0  0  0  0  0  0  0  0  0
    4.3049   -1.4011    2.7931 C   0  0  0  0  0  0  0  0  0  0  0  0
    4.2545   -2.2757    3.4585 H   0  0  0  0  0  0  0  0  0  0  0  0
   -4.1624   -1.7490    2.7111 C   0  0  0  0  0  0  0  0  0  0  0  0
   -4.0222   -2.6246    3.3623 H   0  0  0  0  0  0  0  0  0  0  0  0
   -2.7945    3.9880   -2.4909 C   0  0  0  0  0  0  0  0  0  0  0  0
   -3.0370    4.7084   -3.2865 H   0  0  0  0  0  0  0  0  0  0  0  0
    5.6132    0.2710    1.6026 C   0  0  0  0  0  0  0  0  0  0  0  0
    6.5872    0.7092    1.3385 H   0  0  0  0  0  0  0  0  0  0  0  0
    1.2103    2.0377    2.2539 C   0  0  0  0  0  0  0  0  0  0  0  0
    1.2106    1.3411    3.1188 H   0  0  0  0  0  0  0  0  0  0  0  0
    2.0957    2.6903    2.3981 H   0  0  0  0  0  0  0  0  0  0  0  0
    2.0368    2.1165   -0.5735 C   0  0  0  0  0  0  0  0  0  0  0  0
    5.5487   -0.8384    2.4602 C   0  0  0  0  0  0  0  0  0  0  0  0
    6.4742   -1.2713    2.8685 H   0  0  0  0  0  0  0  0  0  0  0  0
    2.6494    4.3132   -1.4361 C   0  0  0  0  0  0  0  0  0  0  0  0
    2.8810    5.3734   -1.2555 H   0  0  0  0  0  0  0  0  0  0  0  0
   -5.6308   -0.2299    1.5059 C   0  0  0  0  0  0  0  0  0  0  0  0
   -6.6430    0.0876    1.2139 H   0  0  0  0  0  0  0  0  0  0  0  0
    2.6627    3.8010   -2.7425 C   0  0  0  0  0  0  0  0  0  0  0  0
    2.9043    4.4608   -3.5892 H   0  0  0  0  0  0  0  0  0  0  0  0
  1 18  1  0  0  0  0
  1 10  1  0  0  0  0
  2 31  1  0  0  0  0
  2 44  1  0  0  0  0
  3 44  1  0  0  0  0
  3 10  1  0  0  0  0
  3  5  1  0  0  0  0
  4  3  1  0  0  0  0
  6  7  1  0  0  0  0
  6 38  1  0  0  0  0
  8 15  1  0  0  0  0
  9  8  1  0  0  0  0
 10 11  1  0  0  0  0
 10 12  1  0  0  0  0
 13 14  1  0  0  0  0
 15 13  2  0  0  0  0
 15  1  1  0  0  0  0
 16 47  1  0  0  0  0
 17 16  1  0  0  0  0
 18  6  2  0  0  0  0
 19 20  1  0  0  0  0
 21 40  1  0  0  0  0
 21  8  2  0  0  0  0
 22 21  1  0  0  0  0
 23 24  1  0  0  0  0
 23 36  1  0  0  0  0
 25 26  1  0  0  0  0
 25 38  2  0  0  0  0
 27 18  1  0  0  0  0
 27 52  2  0  0  0  0
 28 27  1  0  0  0  0
 29 54  1  0  0  0  0
 29 16  2  0  0  0  0
 30 29  1  0  0  0  0
 31 23  2  0  0  0  0
 32 33  1  0  0  0  0
 32 13  1  0  0  0  0
 34 31  1  0  0  0  0
 34 42  2  0  0  0  0
 35 34  1  0  0  0  0
 36 37  1  0  0  0  0
 38 39  1  0  0  0  0
 40 32  2  0  0  0  0
 41 40  1  0  0  0  0
 42 48  1  0  0  0  0
 43 42  1  0  0  0  0
 44 46  1  0  0  0  0
 44 45  1  0  0  0  0
 47 19  2  0  0  0  0
 47  2  1  0  0  0  0
 48 36  2  0  0  0  0
 48 49  1  0  0  0  0
 50 51  1  0  0  0  0
 50 19  1  0  0  0  0
 52 25  1  0  0  0  0
 53 52  1  0  0  0  0
 54 50  2  0  0  0  0
 55 54  1  0  0  0  0
M  END
