1,41
q = 0.0, confidence = 0.998

 78 81  0  0  0  0  0  0  0  0999 V2000
   -1.5319   -0.1351    0.1302 P   0  0  0  0  0  0  0  0  0  0  0  0
   -2.6739   -1.5577    0.0655 C   0  0  0  0  0  0  0  0  0  0  0  0
   -2.1573   -2.8554   -0.2080 C   0  0  0  0  0  0  0  0  0  0  0  0
   -3.0419   -3.9319   -0.4174 C   0  0  0  0  0  0  0  0  0  0  0  0
   -2.6521   -4.9335   -0.6397 H   0  0  0  0  0  0  0  0  0  0  0  0
   -4.4272   -3.7245   -0.3494 C   0  0  0  0  0  0  0  0  0  0  0  0
   -5.1054   -4.5752   -0.5166 H   0  0  0  0  0  0  0  0  0  0  0  0
   -4.9472   -2.4501   -0.0859 C   0  0  0  0  0  0  0  0  0  0  0  0
   -6.0337   -2.2853   -0.0500 H   0  0  0  0  0  0  0  0  0  0  0  0
   -4.0678   -1.3760    0.1091 C   0  0  0  0  0  0  0  0  0  0  0  0
   -4.4693   -0.3670    0.2751 H   0  0  0  0  0  0  0  0  0  0  0  0
   -2.6347    1.3347    0.2658 C   0  0  0  0  0  0  0  0  0  0  0  0
   -3.3406    1.6456    1.4591 C   0  0  0  0  0  0  0  0  0  0  0  0
   -4.1027    2.8277    1.5396 C   0  0  0  0  0  0  0  0  0  0  0  0
   -4.6385    3.0862    2.4625 H   0  0  0  0  0  0  0  0  0  0  0  0
   -4.1908    3.6781    0.4256 C   0  0  0  0  0  0  0  0  0  0  0  0
   -4.7956    4.5950    0.4991 H   0  0  0  0  0  0  0  0  0  0  0  0
   -3.5309    3.3603   -0.7694 C   0  0  0  0  0  0  0  0  0  0  0  0
   -3.6218    4.0143   -1.6492 H   0  0  0  0  0  0  0  0  0  0  0  0
   -2.7501    2.1954   -0.8408 C   0  0  0  0  0  0  0  0  0  0  0  0
   -2.2351    1.9124   -1.7743 H   0  0  0  0  0  0  0  0  0  0  0  0
   -0.6334   -0.3000    1.5987 N   0  0  0  0  0  0  0  0  0  0  0  0
   -0.9180   -1.2302    2.6836 C   0  0  0  0  0  0  0  0  0  0  0  0
   -1.9110   -1.6710    2.4698 H   0  0  0  0  0  0  0  0  0  0  0  0
   -1.0403   -0.6586    3.6362 H   0  0  0  0  0  0  0  0  0  0  0  0
    0.1410   -2.3146    2.8667 C   0  0  0  0  0  0  0  0  0  0  0  0
   -0.1425   -2.9907    3.6985 H   0  0  0  0  0  0  0  0  0  0  0  0
    1.1228   -1.8623    3.1038 H   0  0  0  0  0  0  0  0  0  0  0  0
    0.2541   -2.9093    1.9412 H   0  0  0  0  0  0  0  0  0  0  0  0
   -0.8086   -2.9729   -0.2484 O   0  0  0  0  0  0  0  0  0  0  0  0
   -0.2360   -4.1760   -0.7388 C   0  0  0  0  0  0  0  0  0  0  0  0
    0.8554   -4.0087   -0.7505 H   0  0  0  0  0  0  0  0  0  0  0  0
   -0.5891   -4.3938   -1.7692 H   0  0  0  0  0  0  0  0  0  0  0  0
   -0.4666   -5.0390   -0.0757 H   0  0  0  0  0  0  0  0  0  0  0  0
   -3.2478    0.7392    2.4731 O   0  0  0  0  0  0  0  0  0  0  0  0
   -3.9596    0.9748    3.6740 C   0  0  0  0  0  0  0  0  0  0  0  0
   -3.7533    0.1086    4.3294 H   0  0  0  0  0  0  0  0  0  0  0  0
   -5.0555    1.0446    3.4963 H   0  0  0  0  0  0  0  0  0  0  0  0
   -3.6151    1.9033    4.1813 H   0  0  0  0  0  0  0  0  0  0  0  0
    0.6334    0.3021    1.5981 N   0  0  0  0  0  0  0  0  0  0  0  0
    1.5319    0.1352    0.1299 P   0  0  0  0  0  0  0  0  0  0  0  0
    2.6737    1.5579    0.0634 C   0  0  0  0  0  0  0  0  0  0  0  0
    2.1568    2.8554   -0.2105 C   0  0  0  0  0  0  0  0  0  0  0  0
    3.0413    3.9319   -0.4207 C   0  0  0  0  0  0  0  0  0  0  0  0
    2.6513    4.9334   -0.6432 H   0  0  0  0  0  0  0  0  0  0  0  0
    4.4266    3.7246   -0.3534 C   0  0  0  0  0  0  0  0  0  0  0  0
    5.1047    4.5753   -0.5213 H   0  0  0  0  0  0  0  0  0  0  0  0
    4.9469    2.4503   -0.0897 C   0  0  0  0  0  0  0  0  0  0  0  0
    6.0335    2.2857   -0.0543 H   0  0  0  0  0  0  0  0  0  0  0  0
    4.0676    1.3763    0.1063 C   0  0  0  0  0  0  0  0  0  0  0  0
    4.4693    0.3674    0.2725 H   0  0  0  0  0  0  0  0  0  0  0  0
    0.8081    2.9727   -0.2504 O   0  0  0  0  0  0  0  0  0  0  0  0
    0.2353    4.1761   -0.7397 C   0  0  0  0  0  0  0  0  0  0  0  0
   -0.8562    4.0089   -0.7509 H   0  0  0  0  0  0  0  0  0  0  0  0
    0.5876    4.3944   -1.7703 H   0  0  0  0  0  0  0  0  0  0  0  0
    0.4664    5.0387   -0.0764 H   0  0  0  0  0  0  0  0  0  0  0  0
    2.6350   -1.3343    0.2670 C   0  0  0  0  0  0  0  0  0  0  0  0
    3.3412   -1.6436    1.4605 C   0  0  0  0  0  0  0  0  0  0  0  0
    4.1036   -2.8254    1.5423 C   0  0  0  0  0  0  0  0  0  0  0  0
    4.6396   -3.0828    2.4653 H   0  0  0  0  0  0  0  0  0  0  0  0
    4.1915   -3.6772    0.4292 C   0  0  0  0  0  0  0  0  0  0  0  0
    4.7965   -4.5939    0.5037 H   0  0  0  0  0  0  0  0  0  0  0  0
    3.5313   -3.3610   -0.7659 C   0  0  0  0  0  0  0  0  0  0  0  0
    3.6220   -4.0160   -1.6449 H   0  0  0  0  0  0  0  0  0  0  0  0
    2.7503   -2.1963   -0.8386 C   0  0  0  0  0  0  0  0  0  0  0  0
    2.2351   -1.9145   -1.7724 H   0  0  0  0  0  0  0  0  0  0  0  0
    3.2484   -0.7361    2.4735 O   0  0  0  0  0  0  0  0  0  0  0  0
    3.9604   -0.9701    3.6745 C   0  0  0  0  0  0  0  0  0  0  0  0
    3.7540   -0.1033    4.3290 H   0  0  0  0  0  0  0  0  0  0  0  0
    5.0563   -1.0399    3.4968 H   0  0  0  0  0  0  0  0  0  0  0  0
    3.6161   -1.8981    4.1829 H   0  0  0  0  0  0  0  0  0  0  0  0
    0.9186    1.2327    2.6825 C   0  0  0  0  0  0  0  0  0  0  0  0
    1.9115    1.6735    2.4679 H   0  0  0  0  0  0  0  0  0  0  0  0
    1.0416    0.6615    3.6353 H   0  0  0  0  0  0  0  0  0  0  0  0
   -0.1404    2.3171    2.8657 C   0  0  0  0  0  0  0  0  0  0  0  0
    0.1435    2.9935    3.6971 H   0  0  0  0  0  0  0  0  0  0  0  0
   -1.1220    1.8648    3.1034 H   0  0  0  0  0  0  0  0  0  0  0  0
   -0.2539    2.9114    1.9401 H   0  0  0  0  0  0  0  0  0  0  0  0
  1 12  1  0  0  0  0
  1 22  1  0  0  0  0
  2 10  1  0  0  0  0
  2  1  1  0  0  0  0
  3  2  2  0  0  0  0
  4  6  2  0  0  0  0
  4  3  1  0  0  0  0
  5  4  1  0  0  0  0
  6  8  1  0  0  0  0
  7  6  1  0  0  0  0
  8  9  1  0  0  0  0
  8 10  2  0  0  0  0
 10 11  1  0  0  0  0
 12 13  1  0  0  0  0
 13 14  2  0  0  0  0
 13 35  1  0  0  0  0
 14 15  1  0  0  0  0
 16 17  1  0  0  0  0
 16 14  1  0  0  0  0
 18 16  2  0  0  0  0
 19 18  1  0  0  0  0
 20 18  1  0  0  0  0
 20 12  2  0  0  0  0
 21 20  1  0  0  0  0
 22 23  1  0  0  0  0
 23 26  1  0  0  0  0
 23 25  1  0  0  0  0
 24 23  1  0  0  0  0
 26 28  1  0  0  0  0
 26 27  1  0  0  0  0
 29 26  1  0  0  0  0
 30  3  1  0  0  0  0
 31 30  1  0  0  0  0
 31 34  1  0  0  0  0
 32 31  1  0  0  0  0
 33 31  1  0  0  0  0
 35 36  1  0  0  0  0
 36 39  1  0  0  0  0
 36 37  1  0  0  0  0
 38 36  1  0  0  0  0
 40 22  1  0  0  0  0
 40 72  1  0  0  0  0
 41 57  1  0  0  0  0
 41 40  1  0  0  0  0
 42 50  1  0  0  0  0
 42 41  1  0  0  0  0
 43 42  2  0  0  0  0
 44 46  2  0  0  0  0
 44 43  1  0  0  0  0
 45 44  1  0  0  0  0
 46 48  1  0  0  0  0
 47 46  1  0  0  0  0
 48 49  1  0  0  0  0
 48 50  2  0  0  0  0
 50 51  1  0  0  0  0
 52 43  1  0  0  0  0
 53 52  1  0  0  0  0
 53 56  1  0  0  0  0
 54 53  1  0  0  0  0
 55 53  1  0  0  0  0
 57 58  1  0  0  0  0
 58 59  2  0  0  0  0
 58 67  1  0  0  0  0
 59 60  1  0  0  0  0
 61 62  1  0  0  0  0
 61 59  1  0  0  0  0
 63 61  2  0  0  0  0
 64 63  1  0  0  0  0
 65 63  1  0  0  0  0
 65 57  2  0  0  0  0
 66 65  1  0  0  0  0
 67 68  1  0  0  0  0
 68 71  1  0  0  0  0
 68 69  1  0  0  0  0
 70 68  1  0  0  0  0
 72 75  1  0  0  0  0
 72 74  1  0  0  0  0
 73 72  1  0  0  0  0
 75 77  1  0  0  0  0
 75 76  1  0  0  0  0
 78 75  1  0  0  0  0
M  END
