11,42
q = 0.0, confidence = 1.0

 72 75  0  0  0  0  0  0  0  0999 V2000
    0.6395   -0.2858    1.6819 N   0  0  0  0  0  0  0  0  0  0  0  0
    0.8381   -1.3578    2.6383 C   0  0  0  0  0  0  0  0  0  0  0  0
    1.8859   -1.7053    2.5782 H   0  0  0  0  0  0  0  0  0  0  0  0
    0.1570   -2.2174    2.4544 H   0  0  0  0  0  0  0  0  0  0  0  0
    0.6727   -0.9794    3.6716 H   0  0  0  0  0  0  0  0  0  0  0  0
   -0.6394    0.2787    1.6842 N   0  0  0  0  0  0  0  0  0  0  0  0
   -0.8339    1.3520    2.6403 C   0  0  0  0  0  0  0  0  0  0  0  0
   -1.8827    1.6975    2.5860 H   0  0  0  0  0  0  0  0  0  0  0  0
   -0.1555    2.2128    2.4516 H   0  0  0  0  0  0  0  0  0  0  0  0
   -0.6617    0.9747    3.6728 H   0  0  0  0  0  0  0  0  0  0  0  0
    1.5269   -0.1094    0.1978 P   0  0  0  0  0  0  0  0  0  0  0  0
    2.5868    1.3800    0.3779 C   0  0  0  0  0  0  0  0  0  0  0  0
    3.2665    1.6693    1.5934 C   0  0  0  0  0  0  0  0  0  0  0  0
    3.1868    0.7291    2.5728 O   0  0  0  0  0  0  0  0  0  0  0  0
    3.9958    2.8692    1.7183 C   0  0  0  0  0  0  0  0  0  0  0  0
    4.5130    3.1145    2.6553 H   0  0  0  0  0  0  0  0  0  0  0  0
    4.0802    3.7518    0.6289 C   0  0  0  0  0  0  0  0  0  0  0  0
    4.6613    4.6805    0.7380 H   0  0  0  0  0  0  0  0  0  0  0  0
    3.4488    3.4528   -0.5866 C   0  0  0  0  0  0  0  0  0  0  0  0
    3.5367    4.1346   -1.4451 H   0  0  0  0  0  0  0  0  0  0  0  0
    2.6976    2.2721   -0.7036 C   0  0  0  0  0  0  0  0  0  0  0  0
    2.1996    2.0042   -1.6507 H   0  0  0  0  0  0  0  0  0  0  0  0
    3.8397    0.9618    3.8060 C   0  0  0  0  0  0  0  0  0  0  0  0
    3.6339    0.0769    4.4361 H   0  0  0  0  0  0  0  0  0  0  0  0
    3.4480    1.8697    4.3165 H   0  0  0  0  0  0  0  0  0  0  0  0
    4.9401    1.0682    3.6788 H   0  0  0  0  0  0  0  0  0  0  0  0
    2.6955   -1.5064    0.1261 C   0  0  0  0  0  0  0  0  0  0  0  0
    2.1907   -2.8270   -0.0307 C   0  0  0  0  0  0  0  0  0  0  0  0
    0.8441   -2.9632    0.0323 O   0  0  0  0  0  0  0  0  0  0  0  0
    3.0832   -3.8986   -0.2277 C   0  0  0  0  0  0  0  0  0  0  0  0
    2.7046   -4.9210   -0.3544 H   0  0  0  0  0  0  0  0  0  0  0  0
    4.4648   -3.6575   -0.2730 C   0  0  0  0  0  0  0  0  0  0  0  0
    5.1508   -4.5036   -0.4320 H   0  0  0  0  0  0  0  0  0  0  0  0
    4.9714   -2.3587   -0.1297 C   0  0  0  0  0  0  0  0  0  0  0  0
    6.0537   -2.1719   -0.1805 H   0  0  0  0  0  0  0  0  0  0  0  0
    4.0826   -1.2910    0.0611 C   0  0  0  0  0  0  0  0  0  0  0  0
    4.4671   -0.2643    0.1416 H   0  0  0  0  0  0  0  0  0  0  0  0
    0.2647   -4.2311   -0.2307 C   0  0  0  0  0  0  0  0  0  0  0  0
   -0.8285   -4.0848   -0.1726 H   0  0  0  0  0  0  0  0  0  0  0  0
    0.5782   -4.9866    0.5235 H   0  0  0  0  0  0  0  0  0  0  0  0
    0.5323   -4.5927   -1.2468 H   0  0  0  0  0  0  0  0  0  0  0  0
   -1.5270    0.1089    0.1990 P   0  0  0  0  0  0  0  0  0  0  0  0
   -2.5854   -1.3820    0.3737 C   0  0  0  0  0  0  0  0  0  0  0  0
   -3.2641   -1.6768    1.5884 C   0  0  0  0  0  0  0  0  0  0  0  0
   -3.1850   -0.7407    2.5716 O   0  0  0  0  0  0  0  0  0  0  0  0
   -3.9922   -2.8780    1.7086 C   0  0  0  0  0  0  0  0  0  0  0  0
   -4.5087   -3.1277    2.6449 H   0  0  0  0  0  0  0  0  0  0  0  0
   -4.0767   -3.7559    0.6155 C   0  0  0  0  0  0  0  0  0  0  0  0
   -4.6570   -4.6856    0.7210 H   0  0  0  0  0  0  0  0  0  0  0  0
   -3.4465   -3.4512   -0.5991 C   0  0  0  0  0  0  0  0  0  0  0  0
   -3.5344   -4.1293   -1.4606 H   0  0  0  0  0  0  0  0  0  0  0  0
   -2.6962   -2.2695   -0.7116 C   0  0  0  0  0  0  0  0  0  0  0  0
   -2.1989   -1.9972   -1.6578 H   0  0  0  0  0  0  0  0  0  0  0  0
   -3.8368   -0.9793    3.8042 C   0  0  0  0  0  0  0  0  0  0  0  0
   -3.6317   -0.0968    4.4379 H   0  0  0  0  0  0  0  0  0  0  0  0
   -3.4437   -1.8887    4.3107 H   0  0  0  0  0  0  0  0  0  0  0  0
   -4.9372   -1.0864    3.6773 H   0  0  0  0  0  0  0  0  0  0  0  0
   -2.6965    1.5055    0.1333 C   0  0  0  0  0  0  0  0  0  0  0  0
   -2.1927    2.8264   -0.0231 C   0  0  0  0  0  0  0  0  0  0  0  0
   -0.8461    2.9632    0.0369 O   0  0  0  0  0  0  0  0  0  0  0  0
   -3.0861    3.8978   -0.2169 C   0  0  0  0  0  0  0  0  0  0  0  0
   -2.7083    4.9206   -0.3436 H   0  0  0  0  0  0  0  0  0  0  0  0
   -4.4678    3.6563   -0.2588 C   0  0  0  0  0  0  0  0  0  0  0  0
   -5.1545    4.5023   -0.4152 H   0  0  0  0  0  0  0  0  0  0  0  0
   -4.9735    2.3571   -0.1155 C   0  0  0  0  0  0  0  0  0  0  0  0
   -6.0559    2.1700   -0.1638 H   0  0  0  0  0  0  0  0  0  0  0  0
   -4.0838    1.2896    0.0717 C   0  0  0  0  0  0  0  0  0  0  0  0
   -4.4677    0.2626    0.1518 H   0  0  0  0  0  0  0  0  0  0  0  0
   -0.2675    4.2306   -0.2301 C   0  0  0  0  0  0  0  0  0  0  0  0
    0.8259    4.0843   -0.1754 H   0  0  0  0  0  0  0  0  0  0  0  0
   -0.5784    4.9874    0.5239 H   0  0  0  0  0  0  0  0  0  0  0  0
   -0.5386    4.5905   -1.2459 H   0  0  0  0  0  0  0  0  0  0  0  0
  1  6  1  0  0  0  0
  1  2  1  0  0  0  0
  2  5  1  0  0  0  0
  3  2  1  0  0  0  0
  4  2  1  0  0  0  0
  6  7  1  0  0  0  0
  7 10  1  0  0  0  0
  8  7  1  0  0  0  0
  9  7  1  0  0  0  0
 11 12  1  0  0  0  0
 11  1  1  0  0  0  0
 12 13  1  0  0  0  0
 13 15  2  0  0  0  0
 13 14  1  0  0  0  0
 14 23  1  0  0  0  0
 15 16  1  0  0  0  0
 17 18  1  0  0  0  0
 17 15  1  0  0  0  0
 19 17  2  0  0  0  0
 20 19  1  0  0  0  0
 21 19  1  0  0  0  0
 21 12  2  0  0  0  0
 22 21  1  0  0  0  0
 23 25  1  0  0  0  0
 23 24  1  0  0  0  0
 26 23  1  0  0  0  0
 27 11  1  0  0  0  0
 28 29  1  0  0  0  0
 28 27  2  0  0  0  0
 30 28  1  0  0  0  0
 31 30  1  0  0  0  0
 32 30  2  0  0  0  0
 32 34  1  0  0  0  0
 33 32  1  0  0  0  0
 34 36  2  0  0  0  0
 35 34  1  0  0  0  0
 36 27  1  0  0  0  0
 36 37  1  0  0  0  0
 38 39  1  0  0  0  0
 38 29  1  0  0  0  0
 38 40  1  0  0  0  0
 41 38  1  0  0  0  0
 42 43  1  0  0  0  0
 42  6  1  0  0  0  0
 43 44  1  0  0  0  0
 44 46  2  0  0  0  0
 44 45  1  0  0  0  0
 45 54  1  0  0  0  0
 46 47  1  0  0  0  0
 48 49  1  0  0  0  0
 48 46  1  0  0  0  0
 50 48  2  0  0  0  0
 51 50  1  0  0  0  0
 52 50  1  0  0  0  0
 52 43  2  0  0  0  0
 53 52  1  0  0  0  0
 54 56  1  0  0  0  0
 54 55  1  0  0  0  0
 57 54  1  0  0  0  0
 58 42  1  0  0  0  0
 59 60  1  0  0  0  0
 59 58  2  0  0  0  0
 61 59  1  0  0  0  0
 62 61  1  0  0  0  0
 63 61  2  0  0  0  0
 63 65  1  0  0  0  0
 64 63  1  0  0  0  0
 65 67  2  0  0  0  0
 66 65  1  0  0  0  0
 67 58  1  0  0  0  0
 67 68  1  0  0  0  0
 69 70  1  0  0  0  0
 69 60  1  0  0  0  0
 69 71  1  0  0  0  0
 72 69  1  0  0  0  0
M  END
