1,2
q = 0.0, confidence = 0.88

 24 24  0  0  1  0  0  0  0  0999 V2000
    1.5424   -1.0135    0.7632 P   0  0  0  0  0  0  0  0  0  0  0  0
   -1.4397    0.6625    0.1808 P   0  0  0  0  0  0  0  0  0  0  0  0
    3.4762    0.9030    0.4034 C   0  0  2  0  0  3  0  0  0  0  0  0
    3.3176    1.2790    1.8778 C   0  0  0  0  0  0  0  0  0  0  0  0
    1.9436    1.4842    2.2794 C   0  0  0  0  0  0  0  0  0  0  0  0
    4.4733    1.3700   -0.3642 C   0  0  0  0  0  3  0  0  0  0  0  0
    0.6888    1.4673    2.2796 C   0  0  0  0  0  0  0  0  0  0  0  0
    5.0258    1.3563   -1.5478 C   0  0  0  0  0  0  0  0  0  0  0  0
   -3.5069    2.2077   -0.4598 C   0  0  0  0  0  0  0  0  0  0  0  0
   -2.6624    3.4349   -0.1050 C   0  0  0  0  0  0  0  0  0  0  0  0
   -1.2709    3.1746   -0.6950 C   0  0  0  0  0  0  0  0  0  0  0  0
   -1.0407    4.3443   -1.2806 C   0  0  0  0  0  2  0  0  0  0  0  0
   -4.5859    2.8117   -0.9450 C   0  0  0  0  0  2  0  0  0  0  0  0
   -0.6333    1.7054    2.6254 C   0  0  0  0  0  2  0  0  0  0  0  0
    5.6362    1.4495   -2.5518 O   0  0  0  0  0  0  0  0  0  0  0  0
    2.5035    0.0821   -0.1073 O   0  0  0  0  0  0  0  0  0  0  0  0
    2.3188   -1.5703    1.9234 O   0  0  0  0  0  0  0  0  0  0  0  0
   -1.6313    1.3825    1.8440 O   0  0  0  0  0  0  0  0  0  0  0  0
   -3.0303    0.9461   -0.2531 O   0  0  0  0  0  0  0  0  0  0  0  0
   -0.6601    1.9622   -0.5450 O   0  0  0  0  0  0  0  0  0  0  0  0
   -2.6187    3.5829    0.9953 H   0  0  0  0  0  0  0  0  0  0  0  0
   -3.1128    4.3651   -0.5437 H   0  0  0  0  0  0  0  0  0  0  0  0
    3.7125    0.4331    2.4919 H   0  0  0  0  0  0  0  0  0  0  0  0
    3.9647    2.1529    2.0977 H   0  0  0  0  0  0  0  0  0  0  0  0
  1 17  2  0  0  0  0
  2 18  1  0  0  0  0
  3  6  1  6  0  0  0
  3  4  1  0  0  0  0
  4 24  1  0  0  0  0
  4  5  1  0  0  0  0
  4 23  1  0  0  0  0
  5  7  3  0  0  0  0
  7 14  1  0  0  0  0
  8  6  2  0  0  0  0
  9 19  1  0  0  0  0
  9 10  1  0  0  0  0
 10 21  1  0  0  0  0
 11 20  1  0  0  0  0
 11 10  1  0  0  0  0
 12 11  2  0  0  0  0
 13  9  2  0  0  0  0
 15  8  2  0  0  0  0
 16  3  1  0  0  0  0
 16  1  1  0  0  0  0
 18 14  1  0  0  0  0
 19  2  1  0  0  0  0
 20  2  1  0  0  0  0
 22 10  1  0  0  0  0
M  END
