1,6
q = 0.0, confidence = 0.99

 50 53  0  0  0  0  0  0  0  0999 V2000
   -1.2217    0.6925   -1.2010 P   0  0  0  0  0  0  0  0  0  0  0  0
   -0.5246    0.0741   -2.7988 C   0  0  0  0  0  0  0  0  0  0  0  0
   -1.0334    0.2805   -3.7564 H   0  0  0  0  0  0  0  0  0  0  0  0
    0.6187   -0.6364   -2.7324 C   0  0  0  0  0  0  0  0  0  0  0  0
    1.1183   -1.0315   -3.6339 H   0  0  0  0  0  0  0  0  0  0  0  0
    1.3371   -0.9385   -1.0511 P   0  0  0  0  0  0  0  0  0  0  0  0
    1.8963   -2.6949   -1.1675 C   0  0  0  0  0  0  0  0  0  0  0  0
    1.4756   -3.6273   -0.2015 C   0  0  0  0  0  0  0  0  0  0  0  0
    0.8179   -3.2966    0.6163 H   0  0  0  0  0  0  0  0  0  0  0  0
    1.8975   -4.9641   -0.2827 C   0  0  0  0  0  0  0  0  0  0  0  0
    1.5658   -5.6859    0.4791 H   0  0  0  0  0  0  0  0  0  0  0  0
    2.7384   -5.3763   -1.3272 C   0  0  0  0  0  0  0  0  0  0  0  0
    3.0674   -6.4249   -1.3900 H   0  0  0  0  0  0  0  0  0  0  0  0
    3.1665   -4.4474   -2.2913 C   0  0  0  0  0  0  0  0  0  0  0  0
    3.8331   -4.7654   -3.1076 H   0  0  0  0  0  0  0  0  0  0  0  0
    2.7511   -3.1111   -2.2102 C   0  0  0  0  0  0  0  0  0  0  0  0
    3.1108   -2.3813   -2.9529 H   0  0  0  0  0  0  0  0  0  0  0  0
    2.9428   -0.0304   -1.1222 C   0  0  0  0  0  0  0  0  0  0  0  0
    4.0237   -0.4785   -0.3362 C   0  0  0  0  0  0  0  0  0  0  0  0
    3.9525   -1.4398    0.1947 H   0  0  0  0  0  0  0  0  0  0  0  0
    5.1773    0.3108   -0.2106 C   0  0  0  0  0  0  0  0  0  0  0  0
    6.0144   -0.0444    0.4102 H   0  0  0  0  0  0  0  0  0  0  0  0
    5.2647    1.5467   -0.8723 C   0  0  0  0  0  0  0  0  0  0  0  0
    6.1724    2.1621   -0.7753 H   0  0  0  0  0  0  0  0  0  0  0  0
    4.1887    1.9962   -1.6559 C   0  0  0  0  0  0  0  0  0  0  0  0
    4.2478    2.9669   -2.1715 H   0  0  0  0  0  0  0  0  0  0  0  0
    3.0287    1.2172   -1.7723 C   0  0  0  0  0  0  0  0  0  0  0  0
    2.1724    1.5912   -2.3550 H   0  0  0  0  0  0  0  0  0  0  0  0
   -3.0245    0.3342   -1.3729 C   0  0  0  0  0  0  0  0  0  0  0  0
   -3.4248   -0.9216   -1.8768 C   0  0  0  0  0  0  0  0  0  0  0  0
   -2.6705   -1.6160   -2.2764 H   0  0  0  0  0  0  0  0  0  0  0  0
   -4.7762   -1.2965   -1.8542 C   0  0  0  0  0  0  0  0  0  0  0  0
   -5.0750   -2.2794   -2.2489 H   0  0  0  0  0  0  0  0  0  0  0  0
   -5.7401   -0.4292   -1.3160 C   0  0  0  0  0  0  0  0  0  0  0  0
   -6.7999   -0.7264   -1.2948 H   0  0  0  0  0  0  0  0  0  0  0  0
   -5.3480    0.8211   -0.8103 C   0  0  0  0  0  0  0  0  0  0  0  0
   -6.0996    1.5096   -0.3940 H   0  0  0  0  0  0  0  0  0  0  0  0
   -3.9971    1.2011   -0.8354 C   0  0  0  0  0  0  0  0  0  0  0  0
   -3.6984    2.1805   -0.4343 H   0  0  0  0  0  0  0  0  0  0  0  0
   -1.1338    2.5290   -1.3702 C   0  0  0  0  0  0  0  0  0  0  0  0
   -1.2910    3.3031   -0.2002 C   0  0  0  0  0  0  0  0  0  0  0  0
   -1.4643    2.7973    0.7622 H   0  0  0  0  0  0  0  0  0  0  0  0
   -1.2091    4.7019   -0.2597 C   0  0  0  0  0  0  0  0  0  0  0  0
   -1.3356    5.2936    0.6596 H   0  0  0  0  0  0  0  0  0  0  0  0
   -0.9500    5.3423   -1.4819 C   0  0  0  0  0  0  0  0  0  0  0  0
   -0.8752    6.4395   -1.5261 H   0  0  0  0  0  0  0  0  0  0  0  0
   -0.7782    4.5779   -2.6466 C   0  0  0  0  0  0  0  0  0  0  0  0
   -0.5688    5.0741   -3.6067 H   0  0  0  0  0  0  0  0  0  0  0  0
   -0.8734    3.1786   -2.5937 C   0  0  0  0  0  0  0  0  0  0  0  0
   -0.7387    2.5932   -3.5150 H   0  0  0  0  0  0  0  0  0  0  0  0
  2  4  2  0  0  0  0
  2  1  1  0  0  0  0
  3  2  1  0  0  0  0
  4  6  1  0  0  0  0
  5  4  1  0  0  0  0
  7  6  1  0  0  0  0
  7  8  1  0  0  0  0
  8  9  1  0  0  0  0
 10  8  2  0  0  0  0
 10 11  1  0  0  0  0
 12 10  1  0  0  0  0
 13 12  1  0  0  0  0
 14 16  1  0  0  0  0
 14 12  2  0  0  0  0
 15 14  1  0  0  0  0
 16  7  2  0  0  0  0
 17 16  1  0  0  0  0
 18  6  1  0  0  0  0
 18 19  1  0  0  0  0
 19 21  2  0  0  0  0
 19 20  1  0  0  0  0
 21 22  1  0  0  0  0
 23 24  1  0  0  0  0
 23 21  1  0  0  0  0
 25 23  2  0  0  0  0
 26 25  1  0  0  0  0
 27 25  1  0  0  0  0
 27 18  2  0  0  0  0
 28 27  1  0  0  0  0
 29  1  1  0  0  0  0
 29 38  1  0  0  0  0
 30 32  1  0  0  0  0
 30 29  2  0  0  0  0
 31 30  1  0  0  0  0
 32 34  2  0  0  0  0
 33 32  1  0  0  0  0
 34 35  1  0  0  0  0
 34 36  1  0  0  0  0
 36 37  1  0  0  0  0
 38 36  2  0  0  0  0
 38 39  1  0  0  0  0
 40  1  1  0  0  0  0
 40 41  1  0  0  0  0
 41 42  1  0  0  0  0
 43 41  2  0  0  0  0
 43 44  1  0  0  0  0
 45 43  1  0  0  0  0
 46 45  1  0  0  0  0
 47 49  1  0  0  0  0
 47 45  2  0  0  0  0
 48 47  1  0  0  0  0
 49 40  2  0  0  0  0
 50 49  1  0  0  0  0
M  END
