2,3
q = 0.0, confidence = 0.992

 57 60  0  0  0  0  0  0  0  0999 V2000
   -2.0015    0.8813   -3.2748 O   0  0  0  0  0  0  0  0  0  0  0  0
    1.4483    0.0603   -0.2103 P   0  0  0  0  0  0  0  0  0  0  0  0
   -1.2539   -0.2771    0.0905 P   0  0  0  0  0  0  0  0  0  0  0  0
    2.4515   -1.2732   -0.9474 C   0  0  0  0  0  0  0  0  0  0  0  0
    2.4381   -1.5642   -2.3267 C   0  0  0  0  0  0  0  0  0  0  0  0
    1.7871   -1.0015   -3.0141 H   0  0  0  0  0  0  0  0  0  0  0  0
    3.2566   -2.5862   -2.8308 C   0  0  0  0  0  0  0  0  0  0  0  0
    3.2436   -2.8158   -3.9070 H   0  0  0  0  0  0  0  0  0  0  0  0
    4.0837   -3.3166   -1.9623 C   0  0  0  0  0  0  0  0  0  0  0  0
    4.7208   -4.1211   -2.3600 H   0  0  0  0  0  0  0  0  0  0  0  0
    4.0911   -3.0289   -0.5873 C   0  0  0  0  0  0  0  0  0  0  0  0
    4.7314   -3.6081    0.0950 H   0  0  0  0  0  0  0  0  0  0  0  0
    3.2755   -2.0121   -0.0713 C   0  0  0  0  0  0  0  0  0  0  0  0
    3.2559   -1.7821    1.0091 H   0  0  0  0  0  0  0  0  0  0  0  0
    2.4451    1.5893   -0.3080 C   0  0  0  0  0  0  0  0  0  0  0  0
    3.2077    1.8953   -1.4545 C   0  0  0  0  0  0  0  0  0  0  0  0
    3.2611    1.1814   -2.2914 H   0  0  0  0  0  0  0  0  0  0  0  0
    3.9166    3.1035   -1.5159 C   0  0  0  0  0  0  0  0  0  0  0  0
    4.5140    3.3424   -2.4089 H   0  0  0  0  0  0  0  0  0  0  0  0
    3.8737    4.0004   -0.4345 C   0  0  0  0  0  0  0  0  0  0  0  0
    4.4369    4.9448   -0.4833 H   0  0  0  0  0  0  0  0  0  0  0  0
    3.1294    3.6857    0.7132 C   0  0  0  0  0  0  0  0  0  0  0  0
    3.1141    4.3771    1.5691 H   0  0  0  0  0  0  0  0  0  0  0  0
    2.4149    2.4798    0.7834 C   0  0  0  0  0  0  0  0  0  0  0  0
    1.8582    2.1996    1.6914 H   0  0  0  0  0  0  0  0  0  0  0  0
   -0.0829    0.3005   -1.2934 C   0  0  0  0  0  0  0  0  0  0  0  0
   -0.1194   -0.4029   -2.1488 H   0  0  0  0  0  0  0  0  0  0  0  0
   -0.3219    1.7233   -1.7746 C   0  0  0  0  0  0  0  0  0  0  0  0
   -0.3907    2.4440   -0.9336 H   0  0  0  0  0  0  0  0  0  0  0  0
    0.5501    2.0732   -2.3745 H   0  0  0  0  0  0  0  0  0  0  0  0
   -1.5447    1.8498   -2.6820 C   0  0  0  0  0  0  0  0  0  0  0  0
   -2.1404    3.2315   -2.8035 C   0  0  0  0  0  0  0  0  0  0  0  0
   -2.8454    3.2730   -3.6530 H   0  0  0  0  0  0  0  0  0  0  0  0
   -1.3563    4.0091   -2.9024 H   0  0  0  0  0  0  0  0  0  0  0  0
   -2.6937    3.4483   -1.8634 H   0  0  0  0  0  0  0  0  0  0  0  0
   -2.0392   -1.8287   -0.4497 C   0  0  0  0  0  0  0  0  0  0  0  0
   -2.3906   -2.0573   -1.7976 C   0  0  0  0  0  0  0  0  0  0  0  0
   -2.2033   -1.2832   -2.5592 H   0  0  0  0  0  0  0  0  0  0  0  0
   -2.9974   -3.2716   -2.1525 C   0  0  0  0  0  0  0  0  0  0  0  0
   -3.2731   -3.4550   -3.2021 H   0  0  0  0  0  0  0  0  0  0  0  0
   -3.2515   -4.2476   -1.1747 C   0  0  0  0  0  0  0  0  0  0  0  0
   -3.7237   -5.2000   -1.4606 H   0  0  0  0  0  0  0  0  0  0  0  0
   -2.9019   -4.0128    0.1653 C   0  0  0  0  0  0  0  0  0  0  0  0
   -3.0987   -4.7784    0.9309 H   0  0  0  0  0  0  0  0  0  0  0  0
   -2.2917   -2.8060    0.5366 C   0  0  0  0  0  0  0  0  0  0  0  0
   -2.0074   -2.6028    1.5842 H   0  0  0  0  0  0  0  0  0  0  0  0
   -2.5568    0.9938    0.2650 C   0  0  0  0  0  0  0  0  0  0  0  0
   -3.7798    0.9113   -0.4301 C   0  0  0  0  0  0  0  0  0  0  0  0
   -3.9900    0.0472   -1.0770 H   0  0  0  0  0  0  0  0  0  0  0  0
   -4.7259    1.9384   -0.2962 C   0  0  0  0  0  0  0  0  0  0  0  0
   -5.6817    1.8715   -0.8374 H   0  0  0  0  0  0  0  0  0  0  0  0
   -4.4566    3.0449    0.5267 C   0  0  0  0  0  0  0  0  0  0  0  0
   -5.2036    3.8464    0.6315 H   0  0  0  0  0  0  0  0  0  0  0  0
   -3.2429    3.1201    1.2306 C   0  0  0  0  0  0  0  0  0  0  0  0
   -3.0392    3.9746    1.8933 H   0  0  0  0  0  0  0  0  0  0  0  0
   -2.2961    2.0927    1.1103 C   0  0  0  0  0  0  0  0  0  0  0  0
   -1.3557    2.1221    1.6836 H   0  0  0  0  0  0  0  0  0  0  0  0
  1 31  2  0  0  0  0
  3 47  1  0  0  0  0
  4  2  1  0  0  0  0
  4 13  1  0  0  0  0
  5  4  2  0  0  0  0
  6  5  1  0  0  0  0
  7  5  1  0  0  0  0
  7  9  2  0  0  0  0
  8  7  1  0  0  0  0
  9 11  1  0  0  0  0
 10  9  1  0  0  0  0
 11 13  2  0  0  0  0
 11 12  1  0  0  0  0
 13 14  1  0  0  0  0
 15  2  1  0  0  0  0
 15 24  1  0  0  0  0
 16 15  2  0  0  0  0
 17 16  1  0  0  0  0
 18 16  1  0  0  0  0
 18 20  2  0  0  0  0
 19 18  1  0  0  0  0
 20 22  1  0  0  0  0
 21 20  1  0  0  0  0
 22 24  2  0  0  0  0
 22 23  1  0  0  0  0
 24 25  1  0  0  0  0
 26  2  1  0  0  0  0
 26  3  1  0  0  0  0
 27 26  1  0  0  0  0
 28 26  1  0  0  0  0
 28 29  1  0  0  0  0
 30 28  1  0  0  0  0
 31 28  1  0  0  0  0
 32 31  1  0  0  0  0
 32 35  1  0  0  0  0
 33 32  1  0  0  0  0
 34 32  1  0  0  0  0
 36  3  1  0  0  0  0
 36 45  1  0  0  0  0
 37 36  2  0  0  0  0
 38 37  1  0  0  0  0
 39 37  1  0  0  0  0
 39 41  2  0  0  0  0
 40 39  1  0  0  0  0
 41 43  1  0  0  0  0
 42 41  1  0  0  0  0
 43 45  2  0  0  0  0
 43 44  1  0  0  0  0
 45 46  1  0  0  0  0
 47 56  1  0  0  0  0
 48 50  1  0  0  0  0
 48 47  2  0  0  0  0
 49 48  1  0  0  0  0
 50 52  2  0  0  0  0
 51 50  1  0  0  0  0
 52 53  1  0  0  0  0
 52 54  1  0  0  0  0
 54 55  1  0  0  0  0
 56 54  2  0  0  0  0
 56 57  1  0  0  0  0
M  END
