1,2
q = 0.0, confidence = 0.99

 61 64  0  0  0  0  0  0  0  0999 V2000
    0.9670    0.3389    0.4848 P   0  0  0  0  0  0  0  0  0  0  0  0
   -1.5505   -0.2733   -0.3284 P   0  0  0  0  0  0  0  0  0  0  0  0
    2.4590   -0.5608    1.0203 C   0  0  0  0  0  0  0  0  0  0  0  0
    2.2973   -1.6170    1.9398 C   0  0  0  0  0  0  0  0  0  0  0  0
    1.3022   -1.8161    2.3672 H   0  0  0  0  0  0  0  0  0  0  0  0
    3.4079   -2.3829    2.3195 C   0  0  0  0  0  0  0  0  0  0  0  0
    3.2801   -3.2118    3.0312 H   0  0  0  0  0  0  0  0  0  0  0  0
    4.6791   -2.0828    1.8062 C   0  0  0  0  0  0  0  0  0  0  0  0
    5.5499   -2.6831    2.1100 H   0  0  0  0  0  0  0  0  0  0  0  0
    4.8460   -1.0049    0.9207 C   0  0  0  0  0  0  0  0  0  0  0  0
    5.8472   -0.7536    0.5386 H   0  0  0  0  0  0  0  0  0  0  0  0
    3.7391   -0.2411    0.5250 C   0  0  0  0  0  0  0  0  0  0  0  0
    3.8672    0.6068   -0.1641 H   0  0  0  0  0  0  0  0  0  0  0  0
    1.4881    1.9771   -0.1184 C   0  0  0  0  0  0  0  0  0  0  0  0
    1.4118    3.0584    0.7849 C   0  0  0  0  0  0  0  0  0  0  0  0
    1.0360    2.8798    1.8077 H   0  0  0  0  0  0  0  0  0  0  0  0
    1.8119    4.3352    0.3647 C   0  0  0  0  0  0  0  0  0  0  0  0
    1.7503    5.1807    1.0662 H   0  0  0  0  0  0  0  0  0  0  0  0
    2.2785    4.5375   -0.9447 C   0  0  0  0  0  0  0  0  0  0  0  0
    2.5832    5.5437   -1.2706 H   0  0  0  0  0  0  0  0  0  0  0  0
    2.3528    3.4594   -1.8420 C   0  0  0  0  0  0  0  0  0  0  0  0
    2.7180    3.6174   -2.8683 H   0  0  0  0  0  0  0  0  0  0  0  0
    1.9588    2.1767   -1.4326 C   0  0  0  0  0  0  0  0  0  0  0  0
    2.0267    1.3299   -2.1324 H   0  0  0  0  0  0  0  0  0  0  0  0
    0.1950   -0.5711   -0.9929 C   0  0  0  0  0  0  0  0  0  0  0  0
    0.4032   -0.0848   -1.9643 H   0  0  0  0  0  0  0  0  0  0  0  0
    0.5700   -2.0499   -1.0518 C   0  0  0  0  0  0  0  0  0  0  0  0
    0.4157   -2.5615   -0.0805 H   0  0  0  0  0  0  0  0  0  0  0  0
   -0.1024   -2.5734   -1.7668 H   0  0  0  0  0  0  0  0  0  0  0  0
    1.9930   -2.3535   -1.4939 C   0  0  0  0  0  0  0  0  0  0  0  0
    3.8571   -1.5732   -2.7368 C   0  0  0  0  0  0  0  0  0  0  0  0
    3.8521   -2.4639   -3.4000 H   0  0  0  0  0  0  0  0  0  0  0  0
    4.5020   -1.8208   -1.8683 H   0  0  0  0  0  0  0  0  0  0  0  0
    4.3143   -0.3232   -3.4586 C   0  0  0  0  0  0  0  0  0  0  0  0
    3.6364   -0.0744   -4.2996 H   0  0  0  0  0  0  0  0  0  0  0  0
    5.3305   -0.4775   -3.8720 H   0  0  0  0  0  0  0  0  0  0  0  0
    4.3526    0.5472   -2.7734 H   0  0  0  0  0  0  0  0  0  0  0  0
   -2.5691   -1.7461   -0.6837 C   0  0  0  0  0  0  0  0  0  0  0  0
   -3.1071   -2.4754    0.3941 C   0  0  0  0  0  0  0  0  0  0  0  0
   -2.9584   -2.1049    1.4219 H   0  0  0  0  0  0  0  0  0  0  0  0
   -3.8683   -3.6262    0.1331 C   0  0  0  0  0  0  0  0  0  0  0  0
   -4.2971   -4.1943    0.9723 H   0  0  0  0  0  0  0  0  0  0  0  0
   -4.0888   -4.0455   -1.1878 C   0  0  0  0  0  0  0  0  0  0  0  0
   -4.6844   -4.9496   -1.3859 H   0  0  0  0  0  0  0  0  0  0  0  0
   -3.5616   -3.3071   -2.2620 C   0  0  0  0  0  0  0  0  0  0  0  0
   -3.7464   -3.6291   -3.2981 H   0  0  0  0  0  0  0  0  0  0  0  0
   -2.8063   -2.1530   -2.0142 C   0  0  0  0  0  0  0  0  0  0  0  0
   -2.4124   -1.5609   -2.8557 H   0  0  0  0  0  0  0  0  0  0  0  0
   -2.2709    1.1078   -1.2825 C   0  0  0  0  0  0  0  0  0  0  0  0
   -1.8651    1.4458   -2.5884 C   0  0  0  0  0  0  0  0  0  0  0  0
   -1.0622    0.8850   -3.0910 H   0  0  0  0  0  0  0  0  0  0  0  0
   -2.4822    2.5148   -3.2558 C   0  0  0  0  0  0  0  0  0  0  0  0
   -2.1604    2.7816   -4.2738 H   0  0  0  0  0  0  0  0  0  0  0  0
   -3.5017    3.2439   -2.6237 C   0  0  0  0  0  0  0  0  0  0  0  0
   -3.9804    4.0849   -3.1482 H   0  0  0  0  0  0  0  0  0  0  0  0
   -3.9037    2.9079   -1.3201 C   0  0  0  0  0  0  0  0  0  0  0  0
   -4.6956    3.4852   -0.8196 H   0  0  0  0  0  0  0  0  0  0  0  0
   -3.2900    1.8462   -0.6417 C   0  0  0  0  0  0  0  0  0  0  0  0
   -3.5776    1.5847    0.3921 H   0  0  0  0  0  0  0  0  0  0  0  0
    2.5115   -1.3514   -2.2547 O   0  0  0  0  0  0  0  0  0  0  0  0
    2.5830   -3.3838   -1.2460 O   0  0  0  0  0  0  0  0  0  0  0  0
  1  3  1  0  0  0  0
  3  4  1  0  0  0  0
  4  6  2  0  0  0  0
  4  5  1  0  0  0  0
  6  7  1  0  0  0  0
  8  9  1  0  0  0  0
  8  6  1  0  0  0  0
 10  8  2  0  0  0  0
 11 10  1  0  0  0  0
 12 10  1  0  0  0  0
 12  3  2  0  0  0  0
 13 12  1  0  0  0  0
 14  1  1  0  0  0  0
 14 15  1  0  0  0  0
 15 16  1  0  0  0  0
 17 15  2  0  0  0  0
 17 18  1  0  0  0  0
 19 17  1  0  0  0  0
 20 19  1  0  0  0  0
 21 23  1  0  0  0  0
 21 19  2  0  0  0  0
 22 21  1  0  0  0  0
 23 14  2  0  0  0  0
 24 23  1  0  0  0  0
 25  2  1  0  0  0  0
 25  1  1  0  0  0  0
 26 25  1  0  0  0  0
 27 25  1  0  0  0  0
 27 28  1  0  0  0  0
 29 27  1  0  0  0  0
 30 61  2  0  0  0  0
 30 27  1  0  0  0  0
 31 60  1  0  0  0  0
 31 33  1  0  0  0  0
 32 31  1  0  0  0  0
 34 37  1  0  0  0  0
 34 31  1  0  0  0  0
 35 34  1  0  0  0  0
 36 34  1  0  0  0  0
 38  2  1  0  0  0  0
 38 39  1  0  0  0  0
 39 40  1  0  0  0  0
 41 39  2  0  0  0  0
 41 42  1  0  0  0  0
 43 41  1  0  0  0  0
 44 43  1  0  0  0  0
 45 47  1  0  0  0  0
 45 43  2  0  0  0  0
 46 45  1  0  0  0  0
 47 38  2  0  0  0  0
 48 47  1  0  0  0  0
 49 58  1  0  0  0  0
 49  2  1  0  0  0  0
 50 49  2  0  0  0  0
 51 50  1  0  0  0  0
 52 54  2  0  0  0  0
 52 50  1  0  0  0  0
 53 52  1  0  0  0  0
 54 56  1  0  0  0  0
 55 54  1  0  0  0  0
 56 57  1  0  0  0  0
 56 58  2  0  0  0  0
 58 59  1  0  0  0  0
 60 30  1  0  0  0  0
M  END
