1,2
q = 0.0, confidence = 0.996

 75 82  0  0  0  0  0  0  0  0999 V2000
   -1.4291   -1.0760   -0.2816 P   0  0  0  0  0  0  0  0  0  0  0  0
    1.8061   -0.2133   -0.0709 P   0  0  0  0  0  0  0  0  0  0  0  0
   -1.3316    0.1389    1.1022 C   0  0  0  0  0  0  0  0  0  0  0  0
   -0.7232    1.9834    2.2148 C   0  0  0  0  0  0  0  0  0  0  0  0
   -0.2779    3.2329    2.6705 C   0  0  0  0  0  0  0  0  0  0  0  0
   -0.4729    3.5069    4.0302 C   0  0  0  0  0  0  0  0  0  0  0  0
   -1.0882    2.5698    4.8975 C   0  0  0  0  0  0  0  0  0  0  0  0
   -1.5442    1.3320    4.4316 C   0  0  0  0  0  0  0  0  0  0  0  0
   -1.3669    1.0361    3.0655 C   0  0  0  0  0  0  0  0  0  0  0  0
   -0.1027    1.9166   -0.2226 C   0  0  0  0  0  0  0  0  0  0  0  0
    1.0548    1.3419   -0.7662 C   0  0  0  0  0  0  0  0  0  0  0  0
    1.5858    1.8944   -1.9687 C   0  0  0  0  0  0  0  0  0  0  0  0
    0.9793    2.9695   -2.5946 C   0  0  0  0  0  0  0  0  0  0  0  0
   -0.1976    3.5648   -2.0619 C   0  0  0  0  0  0  0  0  0  0  0  0
   -0.8549    4.6525   -2.7061 C   0  0  0  0  0  0  0  0  0  0  0  0
   -2.0113    5.2001   -2.1720 C   0  0  0  0  0  0  0  0  0  0  0  0
   -2.5574    4.6758   -0.9705 C   0  0  0  0  0  0  0  0  0  0  0  0
   -1.9450    3.6153   -0.3197 C   0  0  0  0  0  0  0  0  0  0  0  0
   -0.7509    3.0354   -0.8414 C   0  0  0  0  0  0  0  0  0  0  0  0
    3.4576   -0.2221   -0.8768 C   0  0  0  0  0  0  0  0  0  0  0  0
    4.5645    0.4307   -0.3058 C   0  0  0  0  0  0  0  0  0  0  0  0
    5.7911    0.4560   -0.9893 C   0  0  0  0  0  0  0  0  0  0  0  0
    5.9140   -0.1620   -2.2424 C   0  0  0  0  0  0  0  0  0  0  0  0
    4.8098   -0.8198   -2.8106 C   0  0  0  0  0  0  0  0  0  0  0  0
    3.5873   -0.8607   -2.1282 C   0  0  0  0  0  0  0  0  0  0  0  0
    2.0675    0.1294    1.7070 C   0  0  0  0  0  0  0  0  0  0  0  0
    2.4203    1.4102    2.1789 C   0  0  0  0  0  0  0  0  0  0  0  0
    2.5963    1.6252    3.5530 C   0  0  0  0  0  0  0  0  0  0  0  0
    2.4125    0.5687    4.4587 C   0  0  0  0  0  0  0  0  0  0  0  0
    2.0668   -0.7084    3.9891 C   0  0  0  0  0  0  0  0  0  0  0  0
    1.8974   -0.9352    2.6159 C   0  0  0  0  0  0  0  0  0  0  0  0
   -1.9770   -0.0542   -1.6996 C   0  0  0  0  0  0  0  0  0  0  0  0
   -1.2203   -0.0708   -2.8866 C   0  0  0  0  0  0  0  0  0  0  0  0
   -1.5946    0.7453   -3.9639 C   0  0  0  0  0  0  0  0  0  0  0  0
   -2.7251    1.5714   -3.8617 C   0  0  0  0  0  0  0  0  0  0  0  0
   -3.4895    1.5779   -2.6831 C   0  0  0  0  0  0  0  0  0  0  0  0
   -3.1183    0.7689   -1.6011 C   0  0  0  0  0  0  0  0  0  0  0  0
   -2.8484   -2.1218    0.1981 C   0  0  0  0  0  0  0  0  0  0  0  0
   -3.9249   -2.3253   -0.6850 C   0  0  0  0  0  0  0  0  0  0  0  0
   -4.9731   -3.1832   -0.3189 C   0  0  0  0  0  0  0  0  0  0  0  0
   -4.9458   -3.8414    0.9192 C   0  0  0  0  0  0  0  0  0  0  0  0
   -3.8610   -3.6497    1.7909 C   0  0  0  0  0  0  0  0  0  0  0  0
   -2.8068   -2.8015    1.4328 C   0  0  0  0  0  0  0  0  0  0  0  0
   -1.7332   -0.0850    2.3392 N   0  0  0  0  0  0  0  0  0  0  0  0
   -0.6875    1.3759    0.9608 N   0  0  0  0  0  0  0  0  0  0  0  0
    0.2030    3.9554    1.9961 H   0  0  0  0  0  0  0  0  0  0  0  0
   -1.2148    2.8288    5.9593 H   0  0  0  0  0  0  0  0  0  0  0  0
   -2.0290    0.6015    5.0946 H   0  0  0  0  0  0  0  0  0  0  0  0
    2.4938    1.4543   -2.4027 H   0  0  0  0  0  0  0  0  0  0  0  0
    1.4065    3.3756   -3.5243 H   0  0  0  0  0  0  0  0  0  0  0  0
   -0.4258    5.0482   -3.6394 H   0  0  0  0  0  0  0  0  0  0  0  0
   -2.5101    6.0399   -2.6785 H   0  0  0  0  0  0  0  0  0  0  0  0
   -3.4794    5.1100   -0.5554 H   0  0  0  0  0  0  0  0  0  0  0  0
   -2.3829    3.2087    0.6019 H   0  0  0  0  0  0  0  0  0  0  0  0
    4.4791    0.9060    0.6820 H   0  0  0  0  0  0  0  0  0  0  0  0
    6.6573    0.9580   -0.5322 H   0  0  0  0  0  0  0  0  0  0  0  0
    6.8774   -0.1431   -2.7742 H   0  0  0  0  0  0  0  0  0  0  0  0
    4.9063   -1.3244   -3.7837 H   0  0  0  0  0  0  0  0  0  0  0  0
    2.7325   -1.4102   -2.5505 H   0  0  0  0  0  0  0  0  0  0  0  0
    2.5307    2.2476    1.4729 H   0  0  0  0  0  0  0  0  0  0  0  0
    2.8560    2.6293    3.9195 H   0  0  0  0  0  0  0  0  0  0  0  0
    2.5342    0.7446    5.5382 H   0  0  0  0  0  0  0  0  0  0  0  0
    1.9233   -1.5383    4.6970 H   0  0  0  0  0  0  0  0  0  0  0  0
    1.6447   -1.9365    2.2328 H   0  0  0  0  0  0  0  0  0  0  0  0
   -0.3293   -0.7161   -2.9451 H   0  0  0  0  0  0  0  0  0  0  0  0
   -0.9958    0.7382   -4.8869 H   0  0  0  0  0  0  0  0  0  0  0  0
   -3.0134    2.2166   -4.7053 H   0  0  0  0  0  0  0  0  0  0  0  0
   -4.3724    2.2291   -2.6008 H   0  0  0  0  0  0  0  0  0  0  0  0
   -3.7084    0.7814   -0.6717 H   0  0  0  0  0  0  0  0  0  0  0  0
   -3.9428   -1.8262   -1.6641 H   0  0  0  0  0  0  0  0  0  0  0  0
   -5.8116   -3.3426   -1.0135 H   0  0  0  0  0  0  0  0  0  0  0  0
   -5.7677   -4.5163    1.2025 H   0  0  0  0  0  0  0  0  0  0  0  0
   -3.8285   -4.1757    2.7568 H   0  0  0  0  0  0  0  0  0  0  0  0
   -1.9540   -2.6608    2.1093 H   0  0  0  0  0  0  0  0  0  0  0  0
   -0.1376    4.4735    4.4354 H   0  0  0  0  0  0  0  0  0  0  0  0
  1 38  1  0  0  0  0
  1  3  1  0  0  0  0
  2 26  1  0  0  0  0
  3 44  2  0  0  0  0
  4  5  2  0  0  0  0
  4  9  1  0  0  0  0
  5  6  1  0  0  0  0
  6 75  1  0  0  0  0
  6  7  2  0  0  0  0
  7 47  1  0  0  0  0
  8  7  1  0  0  0  0
  8 48  1  0  0  0  0
  9  8  2  0  0  0  0
 10 45  1  0  0  0  0
 11 10  1  0  0  0  0
 11  2  1  0  0  0  0
 12 11  2  0  0  0  0
 13 14  2  0  0  0  0
 13 12  1  0  0  0  0
 14 19  1  0  0  0  0
 15 16  2  0  0  0  0
 15 14  1  0  0  0  0
 16 17  1  0  0  0  0
 17 53  1  0  0  0  0
 17 18  2  0  0  0  0
 18 54  1  0  0  0  0
 19 18  1  0  0  0  0
 19 10  2  0  0  0  0
 20 21  1  0  0  0  0
 20  2  1  0  0  0  0
 21 55  1  0  0  0  0
 22 56  1  0  0  0  0
 22 21  2  0  0  0  0
 23 22  1  0  0  0  0
 24 23  2  0  0  0  0
 24 25  1  0  0  0  0
 25 20  2  0  0  0  0
 26 27  2  0  0  0  0
 26 31  1  0  0  0  0
 27 28  1  0  0  0  0
 28 61  1  0  0  0  0
 28 29  2  0  0  0  0
 29 62  1  0  0  0  0
 30 29  1  0  0  0  0
 30 63  1  0  0  0  0
 31 30  2  0  0  0  0
 32 37  1  0  0  0  0
 32  1  1  0  0  0  0
 33 32  2  0  0  0  0
 34 35  2  0  0  0  0
 34 33  1  0  0  0  0
 35 36  1  0  0  0  0
 36 68  1  0  0  0  0
 36 37  2  0  0  0  0
 37 69  1  0  0  0  0
 38 43  1  0  0  0  0
 39 40  1  0  0  0  0
 39 38  2  0  0  0  0
 40 41  2  0  0  0  0
 41 72  1  0  0  0  0
 41 42  1  0  0  0  0
 42 73  1  0  0  0  0
 43 42  2  0  0  0  0
 43 74  1  0  0  0  0
 44  9  1  0  0  0  0
 45  3  1  0  0  0  0
 45  4  1  0  0  0  0
 46  5  1  0  0  0  0
 49 12  1  0  0  0  0
 50 13  1  0  0  0  0
 51 15  1  0  0  0  0
 52 16  1  0  0  0  0
 57 23  1  0  0  0  0
 58 24  1  0  0  0  0
 59 25  1  0  0  0  0
 60 27  1  0  0  0  0
 64 31  1  0  0  0  0
 65 33  1  0  0  0  0
 66 34  1  0  0  0  0
 67 35  1  0  0  0  0
 70 39  1  0  0  0  0
 71 40  1  0  0  0  0
M  END
