1,2
q = -1.0, confidence = 0.086

 79 86  0  0  1  0  0  0  0  0999 V2000
   -1.5172   -0.9299   -0.5255 P   0  0  0  0  0  0  0  0  0  0  0  0
    1.8166   -0.2379   -0.3420 P   0  0  0  0  0  0  0  0  0  0  0  0
   -1.1787   -0.0871    1.0807 C   0  0  1  0  0  3  0  0  0  0  0  0
   -0.3229    1.3651    2.5755 C   0  0  0  0  0  0  0  0  0  0  0  0
    0.2499    2.4573    3.2394 C   0  0  0  0  0  0  0  0  0  0  0  0
    0.2968    2.3816    4.6361 C   0  0  0  0  0  0  0  0  0  0  0  0
   -0.2016    1.2575    5.3380 C   0  0  0  0  0  0  0  0  0  0  0  0
   -0.7717    0.1655    4.6728 C   0  0  0  0  0  0  0  0  0  0  0  0
   -0.8254    0.2424    3.2729 C   0  0  0  0  0  0  0  0  0  0  0  0
   -1.7937   -1.9991    2.6081 C   0  0  0  0  0  0  0  0  0  0  0  0
   -0.0393    1.9048    0.1208 C   0  0  0  0  0  0  0  0  0  0  0  0
    1.0441    1.4353   -0.6345 C   0  0  0  0  0  0  0  0  0  0  0  0
    1.5123    2.2469   -1.7063 C   0  0  0  0  0  0  0  0  0  0  0  0
    0.9037    3.4543   -2.0083 C   0  0  0  0  0  0  0  0  0  0  0  0
   -0.2180    3.9237   -1.2714 C   0  0  0  0  0  0  0  0  0  0  0  0
   -0.8958    5.1301   -1.6099 C   0  0  0  0  0  0  0  0  0  0  0  0
   -2.0101    5.5413   -0.8948 C   0  0  0  0  0  0  0  0  0  0  0  0
   -2.4858    4.7637    0.1951 C   0  0  0  0  0  0  0  0  0  0  0  0
   -1.8458    3.5876    0.5579 C   0  0  0  0  0  0  0  0  0  0  0  0
   -0.7019    3.1364   -0.1639 C   0  0  0  0  0  0  0  0  0  0  0  0
    3.2151   -0.2644   -1.5184 C   0  0  0  0  0  0  0  0  0  0  0  0
    4.4685    0.2924   -1.2009 C   0  0  0  0  0  0  0  0  0  0  0  0
    5.4923    0.2908   -2.1608 C   0  0  0  0  0  0  0  0  0  0  0  0
    5.2697   -0.2606   -3.4320 C   0  0  0  0  0  0  0  0  0  0  0  0
    4.0229   -0.8279   -3.7437 C   0  0  0  0  0  0  0  0  0  0  0  0
    2.9987   -0.8388   -2.7881 C   0  0  0  0  0  0  0  0  0  0  0  0
    2.4676   -0.0250    1.3618 C   0  0  0  0  0  0  0  0  0  0  0  0
    2.4215   -1.0883    2.2859 C   0  0  0  0  0  0  0  0  0  0  0  0
    2.9061   -0.8986    3.5890 C   0  0  0  0  0  0  0  0  0  0  0  0
    3.4546    0.3355    3.9705 C   0  0  0  0  0  0  0  0  0  0  0  0
    3.5138    1.3917    3.0471 C   0  0  0  0  0  0  0  0  0  0  0  0
    3.0114    1.2199    1.7499 C   0  0  0  0  0  0  0  0  0  0  0  0
   -3.1932   -1.6183   -0.2803 C   0  0  0  0  0  0  0  0  0  0  0  0
   -4.1270   -0.9870    0.5699 C   0  0  0  0  0  0  0  0  0  0  0  0
   -5.4429   -1.4663    0.6395 C   0  0  0  0  0  0  0  0  0  0  0  0
   -5.8323   -2.5650   -0.1439 C   0  0  0  0  0  0  0  0  0  0  0  0
   -4.9059   -3.1841   -0.9971 C   0  0  0  0  0  0  0  0  0  0  0  0
   -3.5850   -2.7185   -1.0697 C   0  0  0  0  0  0  0  0  0  0  0  0
   -1.7995    0.3592   -1.7986 C   0  0  0  0  0  0  0  0  0  0  0  0
   -0.9781    0.3525   -2.9426 C   0  0  0  0  0  0  0  0  0  0  0  0
   -1.2314    1.2512   -3.9890 C   0  0  0  0  0  0  0  0  0  0  0  0
   -2.2985    2.1575   -3.8944 C   0  0  0  0  0  0  0  0  0  0  0  0
   -3.1235    2.1595   -2.7568 C   0  0  0  0  0  0  0  0  0  0  0  0
   -2.8867    1.2553   -1.7143 C   0  0  0  0  0  0  0  0  0  0  0  0
   -1.3241   -0.6450    2.3125 N   0  0  0  0  0  0  0  0  0  0  0  0
   -0.5430    1.1130    1.2146 N   0  0  0  0  0  0  0  0  0  0  0  0
    0.6385    3.3219    2.6857 H   0  0  0  0  0  0  0  0  0  0  0  0
    0.7341    3.2157    5.2033 H   0  0  0  0  0  0  0  0  0  0  0  0
   -0.1436    1.2431    6.4359 H   0  0  0  0  0  0  0  0  0  0  0  0
   -1.1625   -0.7014    5.2224 H   0  0  0  0  0  0  0  0  0  0  0  0
   -1.2118   -2.3787    3.4677 H   0  0  0  0  0  0  0  0  0  0  0  0
   -1.6077   -2.6670    1.7408 H   0  0  0  0  0  0  0  0  0  0  0  0
   -2.8726   -1.9986    2.8546 H   0  0  0  0  0  0  0  0  0  0  0  0
    2.3655    1.8987   -2.3046 H   0  0  0  0  0  0  0  0  0  0  0  0
    1.2791    4.0613   -2.8461 H   0  0  0  0  0  0  0  0  0  0  0  0
   -0.5213    5.7266   -2.4555 H   0  0  0  0  0  0  0  0  0  0  0  0
   -2.5288    6.4722   -1.1673 H   0  0  0  0  0  0  0  0  0  0  0  0
   -3.3705    5.0990    0.7564 H   0  0  0  0  0  0  0  0  0  0  0  0
   -2.2268    2.9950    1.4018 H   0  0  0  0  0  0  0  0  0  0  0  0
    4.6576    0.7100   -0.2017 H   0  0  0  0  0  0  0  0  0  0  0  0
    6.4748    0.7158   -1.9070 H   0  0  0  0  0  0  0  0  0  0  0  0
    6.0774   -0.2640   -4.1790 H   0  0  0  0  0  0  0  0  0  0  0  0
    3.8534   -1.2850   -4.7298 H   0  0  0  0  0  0  0  0  0  0  0  0
    2.0393   -1.3305   -3.0122 H   0  0  0  0  0  0  0  0  0  0  0  0
    2.0380   -2.0694    1.9671 H   0  0  0  0  0  0  0  0  0  0  0  0
    2.8673   -1.7314    4.3070 H   0  0  0  0  0  0  0  0  0  0  0  0
    3.8420    0.4750    4.9909 H   0  0  0  0  0  0  0  0  0  0  0  0
    3.9471    2.3597    3.3404 H   0  0  0  0  0  0  0  0  0  0  0  0
    3.0335    2.0623    1.0417 H   0  0  0  0  0  0  0  0  0  0  0  0
   -3.8357   -0.1206    1.1847 H   0  0  0  0  0  0  0  0  0  0  0  0
   -6.1675   -0.9768    1.3072 H   0  0  0  0  0  0  0  0  0  0  0  0
   -6.8648   -2.9407   -0.0868 H   0  0  0  0  0  0  0  0  0  0  0  0
   -5.2083   -4.0468   -1.6088 H   0  0  0  0  0  0  0  0  0  0  0  0
   -2.8512   -3.2234   -1.7127 H   0  0  0  0  0  0  0  0  0  0  0  0
   -0.1423   -0.3609   -3.0080 H   0  0  0  0  0  0  0  0  0  0  0  0
   -0.5915    1.2386   -4.8836 H   0  0  0  0  0  0  0  0  0  0  0  0
   -2.4967    2.8611   -4.7166 H   0  0  0  0  0  0  0  0  0  0  0  0
   -3.9631    2.8661   -2.6830 H   0  0  0  0  0  0  0  0  0  0  0  0
   -3.5540    1.2470   -0.8409 H   0  0  0  0  0  0  0  0  0  0  0  0
  1 33  1  0  0  0  0
  2 27  1  0  0  0  0
  3  1  1  6  0  0  0
  3 46  1  0  0  0  0
  3 45  1  0  0  0  0
  4  5  2  0  0  0  0
  4  9  1  0  0  0  0
  5  6  1  0  0  0  0
  6 48  1  0  0  0  0
  6  7  2  0  0  0  0
  7 49  1  0  0  0  0
  8 50  1  0  0  0  0
  8  7  1  0  0  0  0
  9  8  2  0  0  0  0
 10 53  1  0  0  0  0
 10 51  1  0  0  0  0
 11 46  1  0  0  0  0
 12  2  1  0  0  0  0
 12 11  2  0  0  0  0
 13 12  1  0  0  0  0
 14 13  2  0  0  0  0
 14 15  1  0  0  0  0
 15 20  1  0  0  0  0
 16 15  2  0  0  0  0
 16 17  1  0  0  0  0
 17 18  2  0  0  0  0
 18 19  1  0  0  0  0
 18 58  1  0  0  0  0
 19 59  1  0  0  0  0
 20 11  1  0  0  0  0
 20 19  2  0  0  0  0
 21 22  1  0  0  0  0
 21  2  1  0  0  0  0
 22 60  1  0  0  0  0
 23 61  1  0  0  0  0
 23 22  2  0  0  0  0
 24 23  1  0  0  0  0
 25 24  2  0  0  0  0
 25 26  1  0  0  0  0
 26 21  2  0  0  0  0
 27 32  2  0  0  0  0
 27 28  1  0  0  0  0
 28 29  2  0  0  0  0
 29 30  1  0  0  0  0
 29 66  1  0  0  0  0
 30 67  1  0  0  0  0
 31 68  1  0  0  0  0
 31 30  2  0  0  0  0
 32 31  1  0  0  0  0
 33 34  1  0  0  0  0
 34 35  2  0  0  0  0
 34 70  1  0  0  0  0
 35 71  1  0  0  0  0
 36 72  1  0  0  0  0
 36 35  1  0  0  0  0
 37 36  2  0  0  0  0
 38 37  1  0  0  0  0
 38 33  2  0  0  0  0
 39 44  1  0  0  0  0
 39  1  1  0  0  0  0
 40 39  2  0  0  0  0
 41 42  2  0  0  0  0
 41 40  1  0  0  0  0
 42 43  1  0  0  0  0
 43 78  1  0  0  0  0
 43 44  2  0  0  0  0
 44 79  1  0  0  0  0
 45 10  1  0  0  0  0
 45  9  1  0  0  0  0
 46  4  1  0  0  0  0
 47  5  1  0  0  0  0
 52 10  1  0  0  0  0
 54 13  1  0  0  0  0
 55 14  1  0  0  0  0
 56 16  1  0  0  0  0
 57 17  1  0  0  0  0
 62 24  1  0  0  0  0
 63 25  1  0  0  0  0
 64 26  1  0  0  0  0
 65 28  1  0  0  0  0
 69 32  1  0  0  0  0
 73 37  1  0  0  0  0
 74 38  1  0  0  0  0
 75 40  1  0  0  0  0
 76 41  1  0  0  0  0
 77 42  1  0  0  0  0
M  END
