1,4
q = -1.0, confidence = 0.0

 15 15  0  0  0  0  0  0  0  0999 V2000
   -1.5260    2.0326   -0.8793 P   0  0  0  0  0  0  0  0  0  0  0  0
   -1.4285    3.4688   -0.8918 H   0  0  0  0  0  0  0  0  0  0  0  0
   -2.1234    1.9198   -2.1779 H   0  0  0  0  0  0  0  0  0  0  0  0
   -0.9681    0.8697    2.0233 P   0  0  0  0  0  2  0  0  0  0  0  0
   -1.2106   -0.2375    2.9060 H   0  0  0  0  0  0  0  0  0  0  0  0
   -2.9698    1.7602    0.2177 C   0  0  0  0  0  0  0  0  0  0  0  0
   -4.2876    2.0775   -0.1637 C   0  0  0  0  0  0  0  0  0  0  0  0
   -4.4706    2.5561   -1.1387 H   0  0  0  0  0  0  0  0  0  0  0  0
   -5.3679    1.7571    0.6693 C   0  0  0  0  0  0  0  0  0  0  0  0
   -6.3969    1.9915    0.3592 H   0  0  0  0  0  0  0  0  0  0  0  0
   -5.1172    1.1172    1.8976 C   0  0  0  0  0  0  0  0  0  0  0  0
   -5.9567    0.8480    2.5575 H   0  0  0  0  0  0  0  0  0  0  0  0
   -3.8087    0.8241    2.2958 C   0  0  0  0  0  0  0  0  0  0  0  0
   -3.6322    0.3434    3.2707 H   0  0  0  0  0  0  0  0  0  0  0  0
   -2.6964    1.1396    1.4721 C   0  0  0  0  0  0  0  0  0  0  0  0
  1  6  1  0  0  0  0
  2  1  1  0  0  0  0
  3  1  1  0  0  0  0
  4  5  1  0  0  0  0
  6 15  1  0  0  0  0
  7  6  2  0  0  0  0
  7  9  1  0  0  0  0
  8  7  1  0  0  0  0
  9 11  2  0  0  0  0
 10  9  1  0  0  0  0
 11 13  1  0  0  0  0
 11 12  1  0  0  0  0
 13 14  1  0  0  0  0
 15  4  1  0  0  0  0
 15 13  2  0  0  0  0
M  END
