1,2
q = 0.0, confidence = 0.98

 45 44  0  0  0  0  0  0  0  0999 V2000
   -0.2798   -2.0989   -0.0425 P   0  0  0  0  0  0  0  0  0  0  0  0
   -2.5037   -0.4011   -0.0772 P   0  0  0  0  0  0  0  0  0  0  0  0
   -2.1598   -2.2496   -0.0358 C   0  0  0  0  0  0  0  0  0  0  0  0
    0.3802   -3.1560    1.3528 C   0  0  0  0  0  0  0  0  0  0  0  0
    1.9154   -3.1011    1.3359 C   0  0  0  0  0  0  0  0  0  0  0  0
   -0.1717   -2.6460    2.6886 C   0  0  0  0  0  0  0  0  0  0  0  0
    0.2357   -2.8921   -1.6594 C   0  0  0  0  0  0  0  0  0  0  0  0
    0.0604   -4.4130   -1.6829 C   0  0  0  0  0  0  0  0  0  0  0  0
    1.6283   -2.4283   -2.1071 C   0  0  0  0  0  0  0  0  0  0  0  0
   -3.3860   -0.0242   -1.6819 C   0  0  0  0  0  0  0  0  0  0  0  0
   -3.7704    1.4625   -1.7057 C   0  0  0  0  0  0  0  0  0  0  0  0
   -2.4900   -0.3861   -2.8713 C   0  0  0  0  0  0  0  0  0  0  0  0
   -3.7471   -0.0243    1.2663 C   0  0  0  0  0  0  0  0  0  0  0  0
   -3.1406   -0.3137    2.6433 C   0  0  0  0  0  0  0  0  0  0  0  0
   -5.1038   -0.7045    1.0651 C   0  0  0  0  0  0  0  0  0  0  0  0
   -2.5790   -2.8224   -0.8884 H   0  0  0  0  0  0  0  0  0  0  0  0
   -2.5369   -2.7070    0.9012 H   0  0  0  0  0  0  0  0  0  0  0  0
    0.0325   -4.1989    1.1804 H   0  0  0  0  0  0  0  0  0  0  0  0
    2.3196   -3.5962    2.2428 H   0  0  0  0  0  0  0  0  0  0  0  0
    2.2743   -2.0501    1.3258 H   0  0  0  0  0  0  0  0  0  0  0  0
    2.3453   -3.6170    0.4561 H   0  0  0  0  0  0  0  0  0  0  0  0
    0.2625   -3.2322    3.5246 H   0  0  0  0  0  0  0  0  0  0  0  0
   -1.2732   -2.7373    2.7579 H   0  0  0  0  0  0  0  0  0  0  0  0
    0.0940   -1.5793    2.8396 H   0  0  0  0  0  0  0  0  0  0  0  0
   -0.5015   -2.4354   -2.3558 H   0  0  0  0  0  0  0  0  0  0  0  0
    0.2329   -4.8051   -2.7071 H   0  0  0  0  0  0  0  0  0  0  0  0
   -0.9578   -4.7265   -1.3729 H   0  0  0  0  0  0  0  0  0  0  0  0
    0.7888   -4.9158   -1.0145 H   0  0  0  0  0  0  0  0  0  0  0  0
    1.7903   -2.6958   -3.1717 H   0  0  0  0  0  0  0  0  0  0  0  0
    2.4330   -2.9115   -1.5191 H   0  0  0  0  0  0  0  0  0  0  0  0
    1.7486   -1.3325   -1.9920 H   0  0  0  0  0  0  0  0  0  0  0  0
   -4.3032   -0.6539   -1.7071 H   0  0  0  0  0  0  0  0  0  0  0  0
   -4.2383    1.7130   -2.6800 H   0  0  0  0  0  0  0  0  0  0  0  0
   -2.8767    2.1076   -1.5775 H   0  0  0  0  0  0  0  0  0  0  0  0
   -4.4960    1.7276   -0.9117 H   0  0  0  0  0  0  0  0  0  0  0  0
   -2.9878   -0.1039   -3.8216 H   0  0  0  0  0  0  0  0  0  0  0  0
   -2.2755   -1.4725   -2.9225 H   0  0  0  0  0  0  0  0  0  0  0  0
   -1.5223    0.1538   -2.8104 H   0  0  0  0  0  0  0  0  0  0  0  0
   -3.8633    1.0777    1.1691 H   0  0  0  0  0  0  0  0  0  0  0  0
   -3.7800    0.1143    3.4421 H   0  0  0  0  0  0  0  0  0  0  0  0
   -2.1226    0.1151    2.7386 H   0  0  0  0  0  0  0  0  0  0  0  0
   -3.0667   -1.4042    2.8332 H   0  0  0  0  0  0  0  0  0  0  0  0
   -5.7924   -0.4403    1.8947 H   0  0  0  0  0  0  0  0  0  0  0  0
   -5.0050   -1.8106    1.0612 H   0  0  0  0  0  0  0  0  0  0  0  0
   -5.5951   -0.4023    0.1195 H   0  0  0  0  0  0  0  0  0  0  0  0
  1  3  1  0  0  0  0
  1  4  1  0  0  0  0
  2  3  1  0  0  0  0
  2 13  1  0  0  0  0
  3 17  1  0  0  0  0
  4  6  1  0  0  0  0
  5  4  1  0  0  0  0
  5 19  1  0  0  0  0
  6 23  1  0  0  0  0
  6 24  1  0  0  0  0
  6 22  1  0  0  0  0
  7  1  1  0  0  0  0
  8  7  1  0  0  0  0
  8 27  1  0  0  0  0
  8 28  1  0  0  0  0
  9 31  1  0  0  0  0
  9  7  1  0  0  0  0
  9 30  1  0  0  0  0
 10  2  1  0  0  0  0
 11 10  1  0  0  0  0
 11 34  1  0  0  0  0
 11 35  1  0  0  0  0
 12 38  1  0  0  0  0
 12 10  1  0  0  0  0
 13 14  1  0  0  0  0
 14 41  1  0  0  0  0
 14 42  1  0  0  0  0
 14 40  1  0  0  0  0
 15 13  1  0  0  0  0
 15 43  1  0  0  0  0
 16  3  1  0  0  0  0
 18  4  1  0  0  0  0
 20  5  1  0  0  0  0
 21  5  1  0  0  0  0
 25  7  1  0  0  0  0
 26  8  1  0  0  0  0
 29  9  1  0  0  0  0
 32 10  1  0  0  0  0
 33 11  1  0  0  0  0
 36 12  1  0  0  0  0
 37 12  1  0  0  0  0
 39 13  1  0  0  0  0
 44 15  1  0  0  0  0
 45 15  1  0  0  0  0
M  END
