1,2
q = 0.0, confidence = 1.0

 80 87  0  0  0  0  0  0  0  0999 V2000
   -0.3860   -2.5220   -0.1092 P   0  0  0  0  0  0  0  0  0  0  0  0
   -1.4335    1.9685    0.7915 P   0  0  0  0  0  0  0  0  0  0  0  0
    2.5618   -0.8236   -0.7145 C   0  0  0  0  0  0  0  0  0  0  0  0
    2.2752   -2.1729   -0.9539 C   0  0  0  0  0  0  0  0  0  0  0  0
    3.2943   -3.1410   -0.7503 C   0  0  0  0  0  0  0  0  0  0  0  0
    4.5881   -2.7432   -0.4554 C   0  0  0  0  0  0  0  0  0  0  0  0
    6.2869   -0.9574   -0.2455 C   0  0  0  0  0  0  0  0  0  0  0  0
    6.6122    0.3746   -0.3211 C   0  0  0  0  0  0  0  0  0  0  0  0
    5.9677    2.7634   -0.4312 C   0  0  0  0  0  0  0  0  0  0  0  0
    5.0265    3.7608   -0.3628 C   0  0  0  0  0  0  0  0  0  0  0  0
    2.7538    4.4919    0.2857 C   0  0  0  0  0  0  0  0  0  0  0  0
    1.5197    4.2179    0.8518 C   0  0  0  0  0  0  0  0  0  0  0  0
    1.1669    2.8827    1.1823 C   0  0  0  0  0  0  0  0  0  0  0  0
    2.0168    1.8381    0.8028 C   0  0  0  0  0  0  0  0  0  0  0  0
    3.8674   -0.3801   -0.3519 C   0  0  0  0  0  0  0  0  0  0  0  0
    4.9179   -1.3691   -0.3161 C   0  0  0  0  0  0  0  0  0  0  0  0
    3.2742    2.0765    0.1739 C   0  0  0  0  0  0  0  0  0  0  0  0
    3.6767    3.4512   -0.0009 C   0  0  0  0  0  0  0  0  0  0  0  0
    4.2203    1.0206   -0.1602 C   0  0  0  0  0  0  0  0  0  0  0  0
    5.5951    1.3848   -0.3043 C   0  0  0  0  0  0  0  0  0  0  0  0
    0.9249   -2.6243   -1.4423 C   0  0  0  0  0  0  0  0  0  0  0  0
   -0.1177    2.6323    1.9332 C   0  0  0  0  0  0  0  0  0  0  0  0
   -1.7057   -3.6427   -0.7124 C   0  0  0  0  0  0  0  0  0  0  0  0
   -2.3724   -4.5327    0.1557 C   0  0  0  0  0  0  0  0  0  0  0  0
   -3.4490   -5.2993   -0.3150 C   0  0  0  0  0  0  0  0  0  0  0  0
   -3.8764   -5.1771   -1.6465 C   0  0  0  0  0  0  0  0  0  0  0  0
   -3.2232   -4.2826   -2.5092 C   0  0  0  0  0  0  0  0  0  0  0  0
   -2.1432   -3.5167   -2.0497 C   0  0  0  0  0  0  0  0  0  0  0  0
    0.3932   -3.3728    1.3154 C   0  0  0  0  0  0  0  0  0  0  0  0
    0.6941   -2.6172    2.4643 C   0  0  0  0  0  0  0  0  0  0  0  0
    1.3749   -3.2067    3.5412 C   0  0  0  0  0  0  0  0  0  0  0  0
    1.7547   -4.5556    3.4758 C   0  0  0  0  0  0  0  0  0  0  0  0
    1.4537   -5.3166    2.3329 C   0  0  0  0  0  0  0  0  0  0  0  0
    0.7782   -4.7291    1.2547 C   0  0  0  0  0  0  0  0  0  0  0  0
   -3.0260    2.1637    1.6792 C   0  0  0  0  0  0  0  0  0  0  0  0
   -3.1333    2.6423    2.9998 C   0  0  0  0  0  0  0  0  0  0  0  0
   -4.3935    2.7379    3.6132 C   0  0  0  0  0  0  0  0  0  0  0  0
   -5.5487    2.3599    2.9134 C   0  0  0  0  0  0  0  0  0  0  0  0
   -5.4433    1.8761    1.5978 C   0  0  0  0  0  0  0  0  0  0  0  0
   -4.1905    1.7690    0.9802 C   0  0  0  0  0  0  0  0  0  0  0  0
   -1.5072    3.2357   -0.5335 C   0  0  0  0  0  0  0  0  0  0  0  0
   -1.9546    4.5449   -0.2613 C   0  0  0  0  0  0  0  0  0  0  0  0
   -1.9483    5.5107   -1.2767 C   0  0  0  0  0  0  0  0  0  0  0  0
   -1.5023    5.1718   -2.5662 C   0  0  0  0  0  0  0  0  0  0  0  0
   -1.0715    3.8654   -2.8409 C   0  0  0  0  0  0  0  0  0  0  0  0
   -1.0741    2.8924   -1.8285 C   0  0  0  0  0  0  0  0  0  0  0  0
    1.7379    0.8078    1.0676 H   0  0  0  0  0  0  0  0  0  0  0  0
    0.8259    5.0370    1.0942 H   0  0  0  0  0  0  0  0  0  0  0  0
    3.0594    5.5330    0.0984 H   0  0  0  0  0  0  0  0  0  0  0  0
    5.3072    4.8156   -0.5058 H   0  0  0  0  0  0  0  0  0  0  0  0
    7.0282    3.0016   -0.6067 H   0  0  0  0  0  0  0  0  0  0  0  0
    7.6641    0.6955   -0.3724 H   0  0  0  0  0  0  0  0  0  0  0  0
    7.0701   -1.7303   -0.2102 H   0  0  0  0  0  0  0  0  0  0  0  0
    5.3951   -3.4886   -0.3800 H   0  0  0  0  0  0  0  0  0  0  0  0
    3.0608   -4.2073   -0.8905 H   0  0  0  0  0  0  0  0  0  0  0  0
    1.7706   -0.0806   -0.8958 H   0  0  0  0  0  0  0  0  0  0  0  0
    0.0142    1.8776    2.7353 H   0  0  0  0  0  0  0  0  0  0  0  0
   -0.4779    3.5723    2.3980 H   0  0  0  0  0  0  0  0  0  0  0  0
    0.9631   -3.6698   -1.8069 H   0  0  0  0  0  0  0  0  0  0  0  0
    0.5391   -1.9786   -2.2579 H   0  0  0  0  0  0  0  0  0  0  0  0
   -0.7595    1.8589   -2.0507 H   0  0  0  0  0  0  0  0  0  0  0  0
   -0.7378    3.5923   -3.8531 H   0  0  0  0  0  0  0  0  0  0  0  0
   -1.5019    5.9309   -3.3634 H   0  0  0  0  0  0  0  0  0  0  0  0
   -2.2998    6.5320   -1.0642 H   0  0  0  0  0  0  0  0  0  0  0  0
   -2.3204    4.8049    0.7451 H   0  0  0  0  0  0  0  0  0  0  0  0
   -2.2375    2.9419    3.5637 H   0  0  0  0  0  0  0  0  0  0  0  0
   -4.4694    3.1122    4.6456 H   0  0  0  0  0  0  0  0  0  0  0  0
   -6.5349    2.4371    3.3958 H   0  0  0  0  0  0  0  0  0  0  0  0
   -6.3456    1.5702    1.0470 H   0  0  0  0  0  0  0  0  0  0  0  0
   -4.1081    1.3694   -0.0443 H   0  0  0  0  0  0  0  0  0  0  0  0
    0.3911   -1.5580    2.5005 H   0  0  0  0  0  0  0  0  0  0  0  0
    1.6095   -2.6088    4.4347 H   0  0  0  0  0  0  0  0  0  0  0  0
    2.2883   -5.0191    4.3195 H   0  0  0  0  0  0  0  0  0  0  0  0
    1.7510   -6.3752    2.2814 H   0  0  0  0  0  0  0  0  0  0  0  0
    0.5425   -5.3280    0.3610 H   0  0  0  0  0  0  0  0  0  0  0  0
   -2.0506   -4.6265    1.2038 H   0  0  0  0  0  0  0  0  0  0  0  0
   -3.9610   -5.9938    0.3687 H   0  0  0  0  0  0  0  0  0  0  0  0
   -4.7266   -5.7740   -2.0101 H   0  0  0  0  0  0  0  0  0  0  0  0
   -3.5622   -4.1607   -3.5486 H   0  0  0  0  0  0  0  0  0  0  0  0
   -1.6597   -2.8015   -2.7320 H   0  0  0  0  0  0  0  0  0  0  0  0
  1 29  1  0  0  0  0
  2 35  1  0  0  0  0
  2 22  1  0  0  0  0
  3 15  1  0  0  0  0
  4  5  1  0  0  0  0
  4  3  2  0  0  0  0
  5  6  2  0  0  0  0
  6 54  1  0  0  0  0
  6 16  1  0  0  0  0
  7 53  1  0  0  0  0
  8 20  1  0  0  0  0
  8  7  2  0  0  0  0
  9 10  2  0  0  0  0
  9 20  1  0  0  0  0
 10 18  1  0  0  0  0
 11 12  1  0  0  0  0
 12 48  1  0  0  0  0
 12 13  2  0  0  0  0
 13 22  1  0  0  0  0
 14 47  1  0  0  0  0
 14 13  1  0  0  0  0
 15 16  2  0  0  0  0
 15 19  1  0  0  0  0
 16  7  1  0  0  0  0
 17 14  2  0  0  0  0
 18 17  1  0  0  0  0
 18 11  2  0  0  0  0
 19 17  1  0  0  0  0
 20 19  2  0  0  0  0
 21  4  1  0  0  0  0
 21  1  1  0  0  0  0
 22 58  1  0  0  0  0
 22 57  1  0  0  0  0
 23  1  1  0  0  0  0
 23 24  1  0  0  0  0
 24 76  1  0  0  0  0
 25 24  2  0  0  0  0
 25 77  1  0  0  0  0
 26 25  1  0  0  0  0
 27 28  1  0  0  0  0
 27 26  2  0  0  0  0
 28 23  2  0  0  0  0
 29 30  1  0  0  0  0
 30 71  1  0  0  0  0
 30 31  2  0  0  0  0
 31 72  1  0  0  0  0
 32 31  1  0  0  0  0
 32 73  1  0  0  0  0
 33 32  2  0  0  0  0
 34 29  2  0  0  0  0
 34 33  1  0  0  0  0
 35 36  1  0  0  0  0
 36 66  1  0  0  0  0
 36 37  2  0  0  0  0
 37 67  1  0  0  0  0
 38 68  1  0  0  0  0
 38 37  1  0  0  0  0
 39 38  2  0  0  0  0
 40 39  1  0  0  0  0
 40 35  2  0  0  0  0
 41 42  1  0  0  0  0
 41  2  1  0  0  0  0
 42 65  1  0  0  0  0
 43 64  1  0  0  0  0
 43 42  2  0  0  0  0
 44 43  1  0  0  0  0
 45 44  2  0  0  0  0
 45 46  1  0  0  0  0
 46 41  2  0  0  0  0
 49 11  1  0  0  0  0
 50 10  1  0  0  0  0
 51  9  1  0  0  0  0
 52  8  1  0  0  0  0
 55  5  1  0  0  0  0
 56  3  1  0  0  0  0
 59 21  1  0  0  0  0
 60 21  1  0  0  0  0
 61 46  1  0  0  0  0
 62 45  1  0  0  0  0
 63 44  1  0  0  0  0
 69 39  1  0  0  0  0
 70 40  1  0  0  0  0
 74 33  1  0  0  0  0
 75 34  1  0  0  0  0
 78 26  1  0  0  0  0
 79 27  1  0  0  0  0
 80 28  1  0  0  0  0
M  END
