1,2
q = 0.0, confidence = 1.0

 44 48  0  0  1  0  0  0  0  0999 V2000
   -0.3697    1.8101   -0.6316 P   0  0  2  0  0  0  0  0  0  0  0  0
    0.6620   -0.7396    0.1168 P   0  0  0  0  0  0  0  0  0  0  0  0
    2.3410    1.3199   -1.3116 N   0  0  1  0  0  0  0  0  0  0  0  0
    1.2690    3.3162   -2.3033 N   0  0  2  0  0  0  0  0  0  0  0  0
    1.8740    3.3187    0.0707 N   0  0  2  0  0  0  0  0  0  0  0  0
    1.0608    0.6690   -1.0867 C   0  0  2  0  0  0  0  0  0  0  0  0
    0.7391    0.1989   -2.0442 H   0  0  0  0  0  0  0  0  0  0  0  0
   -0.1340    2.9264   -2.1564 C   0  0  0  0  0  0  0  0  0  0  0  0
   -0.4755    2.3577   -3.0471 H   0  0  0  0  0  0  0  0  0  0  0  0
   -0.7699    3.8323   -2.0701 H   0  0  0  0  0  0  0  0  0  0  0  0
    0.5737    2.9033    0.5901 C   0  0  0  0  0  0  0  0  0  0  0  0
   -0.0495    3.7918    0.8264 H   0  0  0  0  0  0  0  0  0  0  0  0
    0.6994    2.3304    1.5315 H   0  0  0  0  0  0  0  0  0  0  0  0
    2.1918    2.1928   -2.5022 C   0  0  0  0  0  0  0  0  0  0  0  0
    3.1898    2.6128   -2.7465 H   0  0  0  0  0  0  0  0  0  0  0  0
    1.8482    1.5765   -3.3583 H   0  0  0  0  0  0  0  0  0  0  0  0
    1.7439    4.1047   -1.1579 C   0  0  0  0  0  0  0  0  0  0  0  0
    2.7419    4.5182   -1.4151 H   0  0  0  0  0  0  0  0  0  0  0  0
    1.0499    4.9524   -0.9822 H   0  0  0  0  0  0  0  0  0  0  0  0
    2.7589    2.1755   -0.1750 C   0  0  0  0  0  0  0  0  0  0  0  0
    2.8255    1.5594    0.7400 H   0  0  0  0  0  0  0  0  0  0  0  0
    3.7722    2.5627   -0.4081 H   0  0  0  0  0  0  0  0  0  0  0  0
    1.1944   -2.2464   -0.7871 C   0  0  0  0  0  0  0  0  0  0  0  0
    0.5058   -3.4539   -0.5550 C   0  0  0  0  0  0  0  0  0  0  0  0
   -0.3355   -3.4786    0.1543 H   0  0  0  0  0  0  0  0  0  0  0  0
    0.8798   -4.6163   -1.2453 C   0  0  0  0  0  0  0  0  0  0  0  0
    0.3361   -5.5556   -1.0635 H   0  0  0  0  0  0  0  0  0  0  0  0
    1.9326   -4.5788   -2.1736 C   0  0  0  0  0  0  0  0  0  0  0  0
    2.2187   -5.4911   -2.7186 H   0  0  0  0  0  0  0  0  0  0  0  0
    2.6142   -3.3748   -2.4139 C   0  0  0  0  0  0  0  0  0  0  0  0
    3.4349   -3.3417   -3.1467 H   0  0  0  0  0  0  0  0  0  0  0  0
    2.2500   -2.2084   -1.7238 C   0  0  0  0  0  0  0  0  0  0  0  0
    2.7827   -1.2622   -1.9126 H   0  0  0  0  0  0  0  0  0  0  0  0
    1.8481   -0.6478    1.5264 C   0  0  0  0  0  0  0  0  0  0  0  0
    3.2027   -1.0161    1.3773 C   0  0  0  0  0  0  0  0  0  0  0  0
    3.5648   -1.4114    0.4174 H   0  0  0  0  0  0  0  0  0  0  0  0
    4.0896   -0.8781    2.4542 C   0  0  0  0  0  0  0  0  0  0  0  0
    5.1456   -1.1626    2.3295 H   0  0  0  0  0  0  0  0  0  0  0  0
    3.6337   -0.3858    3.6889 C   0  0  0  0  0  0  0  0  0  0  0  0
    4.3330   -0.2815    4.5324 H   0  0  0  0  0  0  0  0  0  0  0  0
    2.2826   -0.0420    3.8484 C   0  0  0  0  0  0  0  0  0  0  0  0
    1.9141    0.3269    4.8174 H   0  0  0  0  0  0  0  0  0  0  0  0
    1.3910   -0.1767    2.7728 C   0  0  0  0  0  0  0  0  0  0  0  0
    0.3292    0.0787    2.8968 H   0  0  0  0  0  0  0  0  0  0  0  0
  1  8  1  6  0  0  0
  1 11  1  0  0  0  0
  2 34  1  0  0  0  0
  3 14  1  6  0  0  0
  3  6  1  0  0  0  0
  3 20  1  0  0  0  0
  4 14  1  1  0  0  0
  4  8  1  0  0  0  0
  4 17  1  0  0  0  0
  5 17  1  6  0  0  0
  5 11  1  0  0  0  0
  6  7  1  6  0  0  0
  6  1  1  0  0  0  0
  6  2  1  0  0  0  0
  8 10  1  0  0  0  0
  9  8  1  0  0  0  0
 11 12  1  0  0  0  0
 11 13  1  0  0  0  0
 15 14  1  0  0  0  0
 16 14  1  0  0  0  0
 17 19  1  0  0  0  0
 18 17  1  0  0  0  0
 20  5  1  0  0  0  0
 20 21  1  0  0  0  0
 22 20  1  0  0  0  0
 23 24  1  0  0  0  0
 23  2  1  0  0  0  0
 24 25  1  0  0  0  0
 26 27  1  0  0  0  0
 26 24  2  0  0  0  0
 28 26  1  0  0  0  0
 29 28  1  0  0  0  0
 30 28  2  0  0  0  0
 30 32  1  0  0  0  0
 31 30  1  0  0  0  0
 32 23  2  0  0  0  0
 33 32  1  0  0  0  0
 34 43  1  0  0  0  0
 35 34  2  0  0  0  0
 35 37  1  0  0  0  0
 36 35  1  0  0  0  0
 37 39  2  0  0  0  0
 38 37  1  0  0  0  0
 39 41  1  0  0  0  0
 39 40  1  0  0  0  0
 41 42  1  0  0  0  0
 43 44  1  0  0  0  0
 43 41  2  0  0  0  0
M  END
