1,2
q = 0.0, confidence = 0.974

 78 82  0  0  0  0  0  0  0  0999 V2000
   -1.5771    0.0587   -0.2179 P   0  0  0  0  0  0  0  0  0  0  0  0
    1.5592    0.0170   -0.2899 P   0  0  0  0  0  0  0  0  0  0  0  0
   -1.2878   -2.0580    3.0257 F   0  0  0  0  0  0  0  0  0  0  0  0
   -1.3312    0.0702    3.5764 F   0  0  0  0  0  0  0  0  0  0  0  0
    1.4410   -1.9961    3.0018 F   0  0  0  0  0  0  0  0  0  0  0  0
    1.3994    0.1355    3.5342 F   0  0  0  0  0  0  0  0  0  0  0  0
   -2.6187    1.4587    0.4738 C   0  0  0  0  0  0  0  0  0  0  0  0
   -1.7321    2.5850    1.0276 C   0  0  0  0  0  0  0  0  0  0  0  0
   -2.5766    3.7451    1.5714 C   0  0  0  0  0  0  0  0  0  0  0  0
   -3.5511    4.2756    0.5132 C   0  0  0  0  0  0  0  0  0  0  0  0
   -4.4373    3.1507   -0.0346 C   0  0  0  0  0  0  0  0  0  0  0  0
   -3.5960    1.9911   -0.5874 C   0  0  0  0  0  0  0  0  0  0  0  0
   -2.8016   -1.3299   -0.5010 C   0  0  0  0  0  0  0  0  0  0  0  0
   -3.8203   -1.5618    0.6264 C   0  0  0  0  0  0  0  0  0  0  0  0
   -4.7682   -2.7231    0.2845 C   0  0  0  0  0  0  0  0  0  0  0  0
   -3.9997   -4.0082   -0.0454 C   0  0  0  0  0  0  0  0  0  0  0  0
   -2.9879   -3.7718   -1.1732 C   0  0  0  0  0  0  0  0  0  0  0  0
   -2.0336   -2.6208   -0.8351 C   0  0  0  0  0  0  0  0  0  0  0  0
    2.6410   -1.4942   -0.5802 C   0  0  0  0  0  0  0  0  0  0  0  0
    1.7726   -2.7667   -0.6004 C   0  0  0  0  0  0  0  0  0  0  0  0
    2.6044   -4.0037   -0.9591 C   0  0  0  0  0  0  0  0  0  0  0  0
    3.7865   -4.1768    0.0013 C   0  0  0  0  0  0  0  0  0  0  0  0
    4.6466   -2.9094    0.0477 C   0  0  0  0  0  0  0  0  0  0  0  0
    3.8186   -1.6609    0.3954 C   0  0  0  0  0  0  0  0  0  0  0  0
    2.7554    1.3324    0.2935 C   0  0  0  0  0  0  0  0  0  0  0  0
    2.0411    2.5128    0.9728 C   0  0  0  0  0  0  0  0  0  0  0  0
    3.0469    3.5872    1.4102 C   0  0  0  0  0  0  0  0  0  0  0  0
    3.9150    4.0544    0.2355 C   0  0  0  0  0  0  0  0  0  0  0  0
    4.6466    2.8714   -0.4098 C   0  0  0  0  0  0  0  0  0  0  0  0
    3.6615    1.7853   -0.8654 C   0  0  0  0  0  0  0  0  0  0  0  0
   -0.6635   -0.4535    1.2845 C   0  0  0  0  0  0  0  0  0  0  0  0
   -0.7455   -0.8400    2.7546 C   0  0  0  0  0  0  0  0  0  0  0  0
    0.8348   -0.8071    2.7341 C   0  0  0  0  0  0  0  0  0  0  0  0
    0.6958   -0.4331    1.2644 C   0  0  0  0  0  0  0  0  0  0  0  0
   -3.1952    1.0201    1.3186 H   0  0  0  0  0  0  0  0  0  0  0  0
   -1.0666    2.1926    1.8235 H   0  0  0  0  0  0  0  0  0  0  0  0
   -1.0729    2.9511    0.2120 H   0  0  0  0  0  0  0  0  0  0  0  0
   -3.1503    3.3959    2.4593 H   0  0  0  0  0  0  0  0  0  0  0  0
   -1.9095    4.5565    1.9304 H   0  0  0  0  0  0  0  0  0  0  0  0
   -4.1755    5.0918    0.9329 H   0  0  0  0  0  0  0  0  0  0  0  0
   -2.9708    4.7221   -0.3252 H   0  0  0  0  0  0  0  0  0  0  0  0
   -5.0938    2.7695    0.7800 H   0  0  0  0  0  0  0  0  0  0  0  0
   -5.1126    3.5344   -0.8275 H   0  0  0  0  0  0  0  0  0  0  0  0
   -4.2575    1.1809   -0.9592 H   0  0  0  0  0  0  0  0  0  0  0  0
   -3.0121    2.3467   -1.4642 H   0  0  0  0  0  0  0  0  0  0  0  0
   -3.3444   -1.0068   -1.4196 H   0  0  0  0  0  0  0  0  0  0  0  0
   -4.4114   -0.6438    0.8204 H   0  0  0  0  0  0  0  0  0  0  0  0
   -3.2755   -1.7995    1.5661 H   0  0  0  0  0  0  0  0  0  0  0  0
   -5.4710   -2.8924    1.1270 H   0  0  0  0  0  0  0  0  0  0  0  0
   -5.3922   -2.4344   -0.5911 H   0  0  0  0  0  0  0  0  0  0  0  0
   -4.7047   -4.8212   -0.3175 H   0  0  0  0  0  0  0  0  0  0  0  0
   -3.4583   -4.3527    0.8644 H   0  0  0  0  0  0  0  0  0  0  0  0
   -3.5323   -3.5286   -2.1132 H   0  0  0  0  0  0  0  0  0  0  0  0
   -2.4065   -4.6948   -1.3787 H   0  0  0  0  0  0  0  0  0  0  0  0
   -1.4128   -2.9050    0.0446 H   0  0  0  0  0  0  0  0  0  0  0  0
   -1.3288   -2.4220   -1.6677 H   0  0  0  0  0  0  0  0  0  0  0  0
    3.0438   -1.3340   -1.6058 H   0  0  0  0  0  0  0  0  0  0  0  0
    1.3263   -2.9079    0.4090 H   0  0  0  0  0  0  0  0  0  0  0  0
    0.9293   -2.6454   -1.3066 H   0  0  0  0  0  0  0  0  0  0  0  0
    2.9794   -3.8966   -2.0014 H   0  0  0  0  0  0  0  0  0  0  0  0
    1.9568   -4.9052   -0.9504 H   0  0  0  0  0  0  0  0  0  0  0  0
    4.4036   -5.0520   -0.2908 H   0  0  0  0  0  0  0  0  0  0  0  0
    3.3981   -4.3918    1.0222 H   0  0  0  0  0  0  0  0  0  0  0  0
    5.4729   -3.0227    0.7804 H   0  0  0  0  0  0  0  0  0  0  0  0
    5.1266   -2.7559   -0.9449 H   0  0  0  0  0  0  0  0  0  0  0  0
    4.4786   -0.7707    0.3796 H   0  0  0  0  0  0  0  0  0  0  0  0
    3.4251   -1.7565    1.4313 H   0  0  0  0  0  0  0  0  0  0  0  0
    3.3798    0.8309    1.0656 H   0  0  0  0  0  0  0  0  0  0  0  0
    1.3111    2.9620    0.2707 H   0  0  0  0  0  0  0  0  0  0  0  0
    1.4656    2.1500    1.8488 H   0  0  0  0  0  0  0  0  0  0  0  0
    2.5033    4.4437    1.8608 H   0  0  0  0  0  0  0  0  0  0  0  0
    3.7016    3.1752    2.2110 H   0  0  0  0  0  0  0  0  0  0  0  0
    4.6419    4.8231    0.5710 H   0  0  0  0  0  0  0  0  0  0  0  0
    3.2660    4.5405   -0.5266 H   0  0  0  0  0  0  0  0  0  0  0  0
    5.3602    2.4354    0.3255 H   0  0  0  0  0  0  0  0  0  0  0  0
    5.2547    3.2100   -1.2743 H   0  0  0  0  0  0  0  0  0  0  0  0
    4.2134    0.9188   -1.2872 H   0  0  0  0  0  0  0  0  0  0  0  0
    3.0289    2.1832   -1.6863 H   0  0  0  0  0  0  0  0  0  0  0  0
  1  7  1  0  0  0  0
  1 31  1  0  0  0  0
  2 25  1  0  0  0  0
  2 34  1  0  0  0  0
  7  8  1  0  0  0  0
  7 35  1  0  0  0  0
  8  9  1  0  0  0  0
  8 36  1  0  0  0  0
  9 39  1  0  0  0  0
  9 38  1  0  0  0  0
 10 40  1  0  0  0  0
 10  9  1  0  0  0  0
 11 10  1  0  0  0  0
 11 42  1  0  0  0  0
 12 11  1  0  0  0  0
 12  7  1  0  0  0  0
 13  1  1  0  0  0  0
 13 14  1  0  0  0  0
 14 47  1  0  0  0  0
 14 48  1  0  0  0  0
 15 14  1  0  0  0  0
 15 49  1  0  0  0  0
 16 15  1  0  0  0  0
 16 52  1  0  0  0  0
 17 18  1  0  0  0  0
 17 16  1  0  0  0  0
 18 13  1  0  0  0  0
 18 55  1  0  0  0  0
 19  2  1  0  0  0  0
 19 24  1  0  0  0  0
 20 19  1  0  0  0  0
 20 58  1  0  0  0  0
 21 61  1  0  0  0  0
 21 20  1  0  0  0  0
 21 22  1  0  0  0  0
 22 23  1  0  0  0  0
 22 63  1  0  0  0  0
 23 24  1  0  0  0  0
 23 64  1  0  0  0  0
 24 67  1  0  0  0  0
 25 26  1  0  0  0  0
 25 68  1  0  0  0  0
 26 27  1  0  0  0  0
 26 70  1  0  0  0  0
 27 71  1  0  0  0  0
 27 72  1  0  0  0  0
 28 73  1  0  0  0  0
 28 27  1  0  0  0  0
 29 28  1  0  0  0  0
 29 75  1  0  0  0  0
 30 29  1  0  0  0  0
 30 25  1  0  0  0  0
 31 32  1  0  0  0  0
 32  3  1  0  0  0  0
 32  4  1  0  0  0  0
 33 32  1  0  0  0  0
 33  5  1  0  0  0  0
 33  6  1  0  0  0  0
 34 31  2  0  0  0  0
 34 33  1  0  0  0  0
 37  8  1  0  0  0  0
 41 10  1  0  0  0  0
 43 11  1  0  0  0  0
 44 12  1  0  0  0  0
 45 12  1  0  0  0  0
 46 13  1  0  0  0  0
 50 15  1  0  0  0  0
 51 16  1  0  0  0  0
 53 17  1  0  0  0  0
 54 17  1  0  0  0  0
 56 18  1  0  0  0  0
 57 19  1  0  0  0  0
 59 20  1  0  0  0  0
 60 21  1  0  0  0  0
 62 22  1  0  0  0  0
 65 23  1  0  0  0  0
 66 24  1  0  0  0  0
 69 26  1  0  0  0  0
 74 28  1  0  0  0  0
 76 29  1  0  0  0  0
 77 30  1  0  0  0  0
 78 30  1  0  0  0  0
M  END
