1,2
q = 0.0, confidence = 0.998

 68 71  0  0  0  0  0  0  0  0999 V2000
    1.5828   -0.0411    0.0956 P   0  0  0  0  0  0  0  0  0  0  0  0
   -1.5585    0.1182    0.1457 P   0  0  0  0  0  0  0  0  0  0  0  0
    1.2120   -2.9343    0.1005 O   0  0  0  0  0  0  0  0  0  0  0  0
    3.5186    0.8356    2.2960 O   0  0  0  0  0  0  0  0  0  0  0  0
   -3.1791   -0.9715    2.5484 O   0  0  0  0  0  0  0  0  0  0  0  0
   -1.2810    3.0241    0.0674 O   0  0  0  0  0  0  0  0  0  0  0  0
    2.9098   -1.3007   -0.0178 C   0  0  0  0  0  0  0  0  0  0  0  0
    4.2577   -0.9599   -0.2205 C   0  0  0  0  0  0  0  0  0  0  0  0
    4.5453    0.1017   -0.2273 H   0  0  0  0  0  0  0  0  0  0  0  0
    5.2329   -1.9467   -0.4347 C   0  0  0  0  0  0  0  0  0  0  0  0
    6.2821   -1.6577   -0.5932 H   0  0  0  0  0  0  0  0  0  0  0  0
    4.8556   -3.2957   -0.4567 C   0  0  0  0  0  0  0  0  0  0  0  0
    5.6095   -4.0796   -0.6259 H   0  0  0  0  0  0  0  0  0  0  0  0
    3.5129   -3.6643   -0.2768 C   0  0  0  0  0  0  0  0  0  0  0  0
    3.2298   -4.7246   -0.3097 H   0  0  0  0  0  0  0  0  0  0  0  0
    2.5369   -2.6722   -0.0631 C   0  0  0  0  0  0  0  0  0  0  0  0
    0.7378   -4.2593   -0.0751 C   0  0  0  0  0  0  0  0  0  0  0  0
    0.9884   -4.6462   -1.0867 H   0  0  0  0  0  0  0  0  0  0  0  0
   -0.3611   -4.2070    0.0303 H   0  0  0  0  0  0  0  0  0  0  0  0
    1.1538   -4.9484    0.6931 H   0  0  0  0  0  0  0  0  0  0  0  0
    2.4687    1.5592    0.3015 C   0  0  0  0  0  0  0  0  0  0  0  0
    2.2606    2.5542   -0.6709 C   0  0  0  0  0  0  0  0  0  0  0  0
    1.5810    2.3161   -1.5063 H   0  0  0  0  0  0  0  0  0  0  0  0
    2.8962    3.8033   -0.5837 C   0  0  0  0  0  0  0  0  0  0  0  0
    2.7294    4.5626   -1.3618 H   0  0  0  0  0  0  0  0  0  0  0  0
    3.7485    4.0654    0.4974 C   0  0  0  0  0  0  0  0  0  0  0  0
    4.2545    5.0395    0.5814 H   0  0  0  0  0  0  0  0  0  0  0  0
    3.9745    3.0922    1.4840 C   0  0  0  0  0  0  0  0  0  0  0  0
    4.6473    3.3175    2.3221 H   0  0  0  0  0  0  0  0  0  0  0  0
    3.3398    1.8370    1.3912 C   0  0  0  0  0  0  0  0  0  0  0  0
    4.4674    1.0040    3.3338 C   0  0  0  0  0  0  0  0  0  0  0  0
    5.4851    1.1979    2.9291 H   0  0  0  0  0  0  0  0  0  0  0  0
    4.4785    0.0540    3.8988 H   0  0  0  0  0  0  0  0  0  0  0  0
    4.1885    1.8331    4.0214 H   0  0  0  0  0  0  0  0  0  0  0  0
   -2.4060   -1.5019    0.3685 C   0  0  0  0  0  0  0  0  0  0  0  0
   -2.3692   -2.3914   -0.7230 C   0  0  0  0  0  0  0  0  0  0  0  0
   -1.8774   -2.0512   -1.6511 H   0  0  0  0  0  0  0  0  0  0  0  0
   -2.9730   -3.6576   -0.6506 C   0  0  0  0  0  0  0  0  0  0  0  0
   -2.9421   -4.3306   -1.5200 H   0  0  0  0  0  0  0  0  0  0  0  0
   -3.6169   -4.0467    0.5315 C   0  0  0  0  0  0  0  0  0  0  0  0
   -4.0870   -5.0395    0.6081 H   0  0  0  0  0  0  0  0  0  0  0  0
   -3.6880   -3.1722    1.6280 C   0  0  0  0  0  0  0  0  0  0  0  0
   -4.2124   -3.4896    2.5391 H   0  0  0  0  0  0  0  0  0  0  0  0
   -3.1007   -1.8929    1.5469 C   0  0  0  0  0  0  0  0  0  0  0  0
   -3.9528   -1.2666    3.6961 C   0  0  0  0  0  0  0  0  0  0  0  0
   -5.0128   -1.4777    3.4325 H   0  0  0  0  0  0  0  0  0  0  0  0
   -3.9129   -0.3660    4.3361 H   0  0  0  0  0  0  0  0  0  0  0  0
   -3.5446   -2.1329    4.2632 H   0  0  0  0  0  0  0  0  0  0  0  0
   -2.9285    1.3347    0.1176 C   0  0  0  0  0  0  0  0  0  0  0  0
   -4.2776    0.9483    0.0493 C   0  0  0  0  0  0  0  0  0  0  0  0
   -4.5280   -0.1219    0.0865 H   0  0  0  0  0  0  0  0  0  0  0  0
   -5.3002    1.9000   -0.0876 C   0  0  0  0  0  0  0  0  0  0  0  0
   -6.3496    1.5752   -0.1423 H   0  0  0  0  0  0  0  0  0  0  0  0
   -4.9717    3.2593   -0.1673 C   0  0  0  0  0  0  0  0  0  0  0  0
   -5.7633    4.0159   -0.2796 H   0  0  0  0  0  0  0  0  0  0  0  0
   -3.6307    3.6730   -0.1176 C   0  0  0  0  0  0  0  0  0  0  0  0
   -3.3883    4.7410   -0.1942 H   0  0  0  0  0  0  0  0  0  0  0  0
   -2.6082    2.7156    0.0194 C   0  0  0  0  0  0  0  0  0  0  0  0
   -0.8811    4.3670   -0.1392 C   0  0  0  0  0  0  0  0  0  0  0  0
   -1.2793    5.0414    0.6516 H   0  0  0  0  0  0  0  0  0  0  0  0
   -1.2106    4.7398   -1.1337 H   0  0  0  0  0  0  0  0  0  0  0  0
    0.2232    4.3687   -0.0961 H   0  0  0  0  0  0  0  0  0  0  0  0
    0.7006   -0.3270    1.7199 C   0  0  0  0  0  0  0  0  0  0  0  0
    0.5291   -1.4207    1.7660 H   0  0  0  0  0  0  0  0  0  0  0  0
    1.3698   -0.0400    2.5528 H   0  0  0  0  0  0  0  0  0  0  0  0
   -0.6188    0.4442    1.7329 C   0  0  0  0  0  0  0  0  0  0  0  0
   -0.4430    1.5386    1.7326 H   0  0  0  0  0  0  0  0  0  0  0  0
   -1.2437    0.1849    2.6066 H   0  0  0  0  0  0  0  0  0  0  0  0
  1 21  1  0  0  0  0
  1 63  1  0  0  0  0
  2 35  1  0  0  0  0
  2 66  1  0  0  0  0
  4 31  1  0  0  0  0
  5 45  1  0  0  0  0
  7  1  1  0  0  0  0
  8  7  2  0  0  0  0
  9  8  1  0  0  0  0
 10  8  1  0  0  0  0
 11 10  1  0  0  0  0
 12 10  2  0  0  0  0
 12 14  1  0  0  0  0
 13 12  1  0  0  0  0
 14 16  2  0  0  0  0
 15 14  1  0  0  0  0
 16  7  1  0  0  0  0
 16  3  1  0  0  0  0
 17 19  1  0  0  0  0
 17  3  1  0  0  0  0
 17 20  1  0  0  0  0
 18 17  1  0  0  0  0
 21 30  1  0  0  0  0
 22 24  1  0  0  0  0
 22 21  2  0  0  0  0
 23 22  1  0  0  0  0
 24 26  2  0  0  0  0
 25 24  1  0  0  0  0
 26 27  1  0  0  0  0
 26 28  1  0  0  0  0
 28 29  1  0  0  0  0
 30 28  2  0  0  0  0
 30  4  1  0  0  0  0
 31 33  1  0  0  0  0
 31 34  1  0  0  0  0
 32 31  1  0  0  0  0
 35 44  1  0  0  0  0
 36 38  1  0  0  0  0
 36 35  2  0  0  0  0
 37 36  1  0  0  0  0
 38 40  2  0  0  0  0
 39 38  1  0  0  0  0
 40 41  1  0  0  0  0
 40 42  1  0  0  0  0
 42 43  1  0  0  0  0
 44 42  2  0  0  0  0
 44  5  1  0  0  0  0
 45 48  1  0  0  0  0
 45 47  1  0  0  0  0
 46 45  1  0  0  0  0
 49  2  1  0  0  0  0
 50 51  1  0  0  0  0
 50 49  1  0  0  0  0
 52 50  2  0  0  0  0
 53 52  1  0  0  0  0
 54 56  2  0  0  0  0
 54 52  1  0  0  0  0
 55 54  1  0  0  0  0
 56 58  1  0  0  0  0
 57 56  1  0  0  0  0
 58  6  1  0  0  0  0
 58 49  2  0  0  0  0
 59 62  1  0  0  0  0
 59  6  1  0  0  0  0
 59 60  1  0  0  0  0
 61 59  1  0  0  0  0
 63 66  1  0  0  0  0
 63 64  1  0  0  0  0
 63 65  1  0  0  0  0
 66 68  1  0  0  0  0
 67 66  1  0  0  0  0
M  END
