1,2
q = 0.0, confidence = 0.972

 61 61  0  0  0  0  0  0  0  0999 V2000
   -1.1765    1.5493    0.9002 P   0  0  0  0  0  0  0  0  0  0  0  0
   -1.7379   -1.4385   -0.5306 P   0  0  0  0  0  0  0  0  0  0  0  0
   -3.7595    0.3715    0.3837 C   0  0  0  0  0  0  0  0  0  0  0  0
   -0.3375    3.9709   -0.2880 C   0  0  0  0  0  0  0  0  0  0  0  0
    0.5783    3.4298   -0.5841 H   0  0  0  0  0  0  0  0  0  0  0  0
   -0.1601    4.5028    0.6663 H   0  0  0  0  0  0  0  0  0  0  0  0
   -0.5303    4.7392   -1.0658 H   0  0  0  0  0  0  0  0  0  0  0  0
   -2.8216    0.8675    1.4515 C   0  0  0  0  0  0  0  0  0  0  0  0
   -2.5408    0.0390    2.1289 H   0  0  0  0  0  0  0  0  0  0  0  0
   -3.3317    1.6320    2.0683 H   0  0  0  0  0  0  0  0  0  0  0  0
   -1.8139    2.4589   -1.6280 C   0  0  0  0  0  0  0  0  0  0  0  0
   -2.0599    3.2978   -2.3127 H   0  0  0  0  0  0  0  0  0  0  0  0
   -2.6670    1.7537   -1.6426 H   0  0  0  0  0  0  0  0  0  0  0  0
   -0.9075    1.9568   -2.0167 H   0  0  0  0  0  0  0  0  0  0  0  0
   -1.5575    3.0387   -0.2230 C   0  0  0  0  0  0  0  0  0  0  0  0
   -3.4083   -0.6437   -0.5493 C   0  0  0  0  0  0  0  0  0  0  0  0
   -0.3940    2.0311    2.5880 C   0  0  0  0  0  0  0  0  0  0  0  0
   -1.2007    3.1562    3.2608 C   0  0  0  0  0  0  0  0  0  0  0  0
   -2.2762    2.9167    3.3803 H   0  0  0  0  0  0  0  0  0  0  0  0
   -1.1101    4.1180    2.7204 H   0  0  0  0  0  0  0  0  0  0  0  0
   -0.7894    3.3139    4.2799 H   0  0  0  0  0  0  0  0  0  0  0  0
   -1.2310   -0.8321   -3.2191 C   0  0  0  0  0  0  0  0  0  0  0  0
   -0.2775   -0.3255   -2.9650 H   0  0  0  0  0  0  0  0  0  0  0  0
   -2.0435   -0.0814   -3.1689 H   0  0  0  0  0  0  0  0  0  0  0  0
   -1.1574   -1.1829   -4.2686 H   0  0  0  0  0  0  0  0  0  0  0  0
   -2.7992    3.8117    0.2548 C   0  0  0  0  0  0  0  0  0  0  0  0
   -2.6974    4.2078    1.2821 H   0  0  0  0  0  0  0  0  0  0  0  0
   -3.7198    3.2012    0.1958 H   0  0  0  0  0  0  0  0  0  0  0  0
   -2.9435    4.6809   -0.4208 H   0  0  0  0  0  0  0  0  0  0  0  0
   -4.3712   -1.0507   -1.4997 C   0  0  0  0  0  0  0  0  0  0  0  0
   -4.1272   -1.8333   -2.2301 H   0  0  0  0  0  0  0  0  0  0  0  0
   -1.4852   -2.0310   -2.2975 C   0  0  0  0  0  0  0  0  0  0  0  0
   -2.4655   -2.4851   -2.5555 H   0  0  0  0  0  0  0  0  0  0  0  0
   -1.9302   -2.9720    0.5230 C   0  0  0  0  0  0  0  0  0  0  0  0
   -0.9448   -3.4739    0.4059 H   0  0  0  0  0  0  0  0  0  0  0  0
    1.0747    2.4692    2.4380 C   0  0  0  0  0  0  0  0  0  0  0  0
    1.2147    3.3153    1.7437 H   0  0  0  0  0  0  0  0  0  0  0  0
    1.7130    1.6415    2.0846 H   0  0  0  0  0  0  0  0  0  0  0  0
    1.4327    2.7864    3.4399 H   0  0  0  0  0  0  0  0  0  0  0  0
   -2.0986   -2.6130    2.0016 C   0  0  0  0  0  0  0  0  0  0  0  0
   -3.0633   -2.0976    2.1922 H   0  0  0  0  0  0  0  0  0  0  0  0
   -1.2560   -1.9888    2.3558 H   0  0  0  0  0  0  0  0  0  0  0  0
   -2.0952   -3.5422    2.6065 H   0  0  0  0  0  0  0  0  0  0  0  0
   -5.6505   -0.4818   -1.5447 C   0  0  0  0  0  0  0  0  0  0  0  0
   -6.3736   -0.8234   -2.3000 H   0  0  0  0  0  0  0  0  0  0  0  0
   -5.0560    0.9249    0.3287 C   0  0  0  0  0  0  0  0  0  0  0  0
   -5.3298    1.6989    1.0625 H   0  0  0  0  0  0  0  0  0  0  0  0
   -0.4109    0.7630    3.4670 C   0  0  0  0  0  0  0  0  0  0  0  0
    0.1000   -0.0884    2.9721 H   0  0  0  0  0  0  0  0  0  0  0  0
   -1.4307    0.4558    3.7716 H   0  0  0  0  0  0  0  0  0  0  0  0
    0.1495    0.9836    4.3991 H   0  0  0  0  0  0  0  0  0  0  0  0
   -3.0407   -3.8934    0.0110 C   0  0  0  0  0  0  0  0  0  0  0  0
   -2.8842   -4.2093   -1.0390 H   0  0  0  0  0  0  0  0  0  0  0  0
   -4.0387   -3.4155    0.0885 H   0  0  0  0  0  0  0  0  0  0  0  0
   -3.0611   -4.8140    0.6297 H   0  0  0  0  0  0  0  0  0  0  0  0
   -5.9974    0.5123   -0.6214 C   0  0  0  0  0  0  0  0  0  0  0  0
   -6.9993    0.9667   -0.6372 H   0  0  0  0  0  0  0  0  0  0  0  0
   -0.4207   -3.1216   -2.4684 C   0  0  0  0  0  0  0  0  0  0  0  0
   -0.5176   -3.5384   -3.4921 H   0  0  0  0  0  0  0  0  0  0  0  0
   -0.5283   -3.9572   -1.7505 H   0  0  0  0  0  0  0  0  0  0  0  0
    0.5965   -2.7130   -2.3423 H   0  0  0  0  0  0  0  0  0  0  0  0
  1  8  1  0  0  0  0
  1 17  1  0  0  0  0
  2 34  1  0  0  0  0
  3  8  1  0  0  0  0
  4 15  1  0  0  0  0
  4  6  1  0  0  0  0
  5  4  1  0  0  0  0
  7  4  1  0  0  0  0
  8 10  1  0  0  0  0
  8  9  1  0  0  0  0
 11 15  1  0  0  0  0
 12 11  1  0  0  0  0
 13 11  1  0  0  0  0
 14 11  1  0  0  0  0
 15 26  1  0  0  0  0
 15  1  1  0  0  0  0
 16  2  1  0  0  0  0
 16  3  2  0  0  0  0
 17 18  1  0  0  0  0
 17 48  1  0  0  0  0
 18 19  1  0  0  0  0
 18 21  1  0  0  0  0
 20 18  1  0  0  0  0
 22 24  1  0  0  0  0
 22 23  1  0  0  0  0
 22 32  1  0  0  0  0
 25 22  1  0  0  0  0
 26 27  1  0  0  0  0
 28 26  1  0  0  0  0
 29 26  1  0  0  0  0
 30 16  1  0  0  0  0
 31 30  1  0  0  0  0
 32  2  1  0  0  0  0
 33 32  1  0  0  0  0
 34 40  1  0  0  0  0
 35 34  1  0  0  0  0
 36 17  1  0  0  0  0
 36 39  1  0  0  0  0
 37 36  1  0  0  0  0
 38 36  1  0  0  0  0
 40 41  1  0  0  0  0
 40 42  1  0  0  0  0
 40 43  1  0  0  0  0
 44 30  2  0  0  0  0
 44 56  1  0  0  0  0
 45 44  1  0  0  0  0
 46  3  1  0  0  0  0
 46 47  1  0  0  0  0
 48 50  1  0  0  0  0
 48 51  1  0  0  0  0
 49 48  1  0  0  0  0
 52 54  1  0  0  0  0
 52 34  1  0  0  0  0
 52 55  1  0  0  0  0
 53 52  1  0  0  0  0
 56 46  2  0  0  0  0
 57 56  1  0  0  0  0
 58 61  1  0  0  0  0
 58 32  1  0  0  0  0
 58 60  1  0  0  0  0
 59 58  1  0  0  0  0
M  END
