1,2
q = 0.0, confidence = 0.998

 69 75  0  0  1  0  0  0  0  0999 V2000
    1.7414   -0.1950   -0.1586 P   0  0  1  0  0  0  0  0  0  0  0  0
   -1.2745   -0.5492    0.1272 P   0  0  2  0  0  0  0  0  0  0  0  0
    4.0039   -1.0182    1.1899 O   0  0  0  0  0  0  0  0  0  0  0  0
    5.5091    0.2842   -0.0763 O   0  0  0  0  0  0  0  0  0  0  0  0
    3.7533    1.0935   -1.4262 O   0  0  0  0  0  0  0  0  0  0  0  0
   -3.3627   -2.1092    1.0355 O   0  0  0  0  0  0  0  0  0  0  0  0
   -4.9153   -1.4383   -0.6063 O   0  0  0  0  0  0  0  0  0  0  0  0
   -3.3041   -0.0343   -1.6063 O   0  0  0  0  0  0  0  0  0  0  0  0
    1.9982   -2.9752    0.1693 N   0  0  0  0  0  0  0  0  0  0  0  0
    1.1521   -1.9312    0.1395 C   0  0  0  0  0  0  0  0  0  0  0  0
   -0.2283   -2.0465    0.4673 C   0  0  0  0  0  0  0  0  0  0  0  0
   -0.6647   -3.2855    0.9854 C   0  0  0  0  0  0  0  0  0  0  0  0
   -1.7111   -3.4024    1.2992 H   0  0  0  0  0  0  0  0  0  0  0  0
    0.2431   -4.3476    1.0834 C   0  0  0  0  0  0  0  0  0  0  0  0
   -0.0696   -5.3196    1.4934 H   0  0  0  0  0  0  0  0  0  0  0  0
    1.5515   -4.1576    0.6135 C   0  0  0  0  0  0  0  0  0  0  0  0
    2.2767   -4.9906    0.6050 H   0  0  0  0  0  0  0  0  0  0  0  0
    3.0247    0.0134    1.2567 C   0  0  1  0  0  0  0  0  0  0  0  0
    4.8824   -0.9887    0.0514 C   0  0  2  0  0  0  0  0  0  0  0  0
    4.5441    1.3263   -0.2551 C   0  0  1  0  0  0  0  0  0  0  0  0
    3.0973   -0.1692   -1.5159 C   0  0  1  0  0  0  0  0  0  0  0  0
    3.6714    1.3790    1.0097 C   0  0  0  0  0  0  0  0  0  0  0  0
    2.8990    2.1654    0.8931 H   0  0  0  0  0  0  0  0  0  0  0  0
    4.3274    1.6161    1.8729 H   0  0  0  0  0  0  0  0  0  0  0  0
    4.1123   -1.2817   -1.2488 C   0  0  0  0  0  0  0  0  0  0  0  0
    4.8423   -1.2862   -2.0851 H   0  0  0  0  0  0  0  0  0  0  0  0
    3.6181   -2.2674   -1.1695 H   0  0  0  0  0  0  0  0  0  0  0  0
    2.3474   -0.0987    2.6118 C   0  0  0  0  0  0  0  0  0  0  0  0
    1.5647    0.6771    2.7122 H   0  0  0  0  0  0  0  0  0  0  0  0
    1.8874   -1.0978    2.7428 H   0  0  0  0  0  0  0  0  0  0  0  0
    3.1027    0.0442    3.4112 H   0  0  0  0  0  0  0  0  0  0  0  0
    5.9666   -2.0062    0.3438 C   0  0  0  0  0  0  0  0  0  0  0  0
    5.5106   -3.0053    0.4751 H   0  0  0  0  0  0  0  0  0  0  0  0
    6.6947   -2.0345   -0.4880 H   0  0  0  0  0  0  0  0  0  0  0  0
    6.4893   -1.7170    1.2749 H   0  0  0  0  0  0  0  0  0  0  0  0
    5.2893    2.6182   -0.5165 C   0  0  0  0  0  0  0  0  0  0  0  0
    4.5542    3.4280   -0.6810 H   0  0  0  0  0  0  0  0  0  0  0  0
    5.9389    2.8663    0.3434 H   0  0  0  0  0  0  0  0  0  0  0  0
    5.9119    2.4981   -1.4229 H   0  0  0  0  0  0  0  0  0  0  0  0
    2.4503   -0.2209   -2.8888 C   0  0  0  0  0  0  0  0  0  0  0  0
    1.9044   -1.1744   -3.0292 H   0  0  0  0  0  0  0  0  0  0  0  0
    1.7495    0.6300   -2.9964 H   0  0  0  0  0  0  0  0  0  0  0  0
    3.2345   -0.1386   -3.6688 H   0  0  0  0  0  0  0  0  0  0  0  0
   -2.8293   -0.7824    1.2262 C   0  0  2  0  0  0  0  0  0  0  0  0
   -3.9335   -2.3997   -0.2553 C   0  0  1  0  0  0  0  0  0  0  0  0
   -4.3709   -0.1142   -0.6468 C   0  0  2  0  0  0  0  0  0  0  0  0
   -2.2504   -0.9916   -1.4791 C   0  0  2  0  0  0  0  0  0  0  0  0
   -3.8760    0.2345    0.7642 C   0  0  0  0  0  0  0  0  0  0  0  0
   -3.4720    1.2622    0.7910 H   0  0  0  0  0  0  0  0  0  0  0  0
   -4.7418    0.1708    1.4554 H   0  0  0  0  0  0  0  0  0  0  0  0
   -2.8546   -2.3912   -1.3524 C   0  0  0  0  0  0  0  0  0  0  0  0
   -2.0766   -3.1527   -1.1563 H   0  0  0  0  0  0  0  0  0  0  0  0
   -3.3471   -2.6441   -2.3145 H   0  0  0  0  0  0  0  0  0  0  0  0
   -2.4859   -0.6514    2.7001 C   0  0  0  0  0  0  0  0  0  0  0  0
   -2.1600    0.3820    2.9199 H   0  0  0  0  0  0  0  0  0  0  0  0
   -3.3879   -0.8786    3.3036 H   0  0  0  0  0  0  0  0  0  0  0  0
   -1.6794   -1.3507    2.9962 H   0  0  0  0  0  0  0  0  0  0  0  0
   -4.6360   -3.7355   -0.1085 C   0  0  0  0  0  0  0  0  0  0  0  0
   -3.9073   -4.5290    0.1441 H   0  0  0  0  0  0  0  0  0  0  0  0
   -5.3880   -3.6595    0.6989 H   0  0  0  0  0  0  0  0  0  0  0  0
   -5.1454   -3.9958   -1.0548 H   0  0  0  0  0  0  0  0  0  0  0  0
   -5.4637    0.8057   -1.1475 C   0  0  0  0  0  0  0  0  0  0  0  0
   -5.0947    1.8473   -1.1600 H   0  0  0  0  0  0  0  0  0  0  0  0
   -5.7529    0.4987   -2.1701 H   0  0  0  0  0  0  0  0  0  0  0  0
   -6.3444    0.7333   -0.4827 H   0  0  0  0  0  0  0  0  0  0  0  0
   -1.3485   -0.8285   -2.6885 C   0  0  0  0  0  0  0  0  0  0  0  0
   -0.5089   -1.5494   -2.6423 H   0  0  0  0  0  0  0  0  0  0  0  0
   -1.9295   -1.0113   -3.6153 H   0  0  0  0  0  0  0  0  0  0  0  0
   -0.9286    0.1960   -2.7187 H   0  0  0  0  0  0  0  0  0  0  0  0
  1 10  1  1  0  0  0
  1 18  1  0  0  0  0
  2 11  1  1  0  0  0
  2 44  1  0  0  0  0
  3 18  1  0  0  0  0
  4 19  1  0  0  0  0
  5 20  1  0  0  0  0
  6 44  1  0  0  0  0
  7 45  1  0  0  0  0
  8 47  1  0  0  0  0
  8 46  1  0  0  0  0
  9 16  1  0  0  0  0
 10  9  2  0  0  0  0
 10 11  1  0  0  0  0
 11 12  2  0  0  0  0
 12 14  1  0  0  0  0
 12 13  1  0  0  0  0
 14 15  1  0  0  0  0
 16 14  2  0  0  0  0
 17 16  1  0  0  0  0
 18 28  1  1  0  0  0
 19 32  1  1  0  0  0
 19  3  1  0  0  0  0
 20 36  1  6  0  0  0
 20  4  1  0  0  0  0
 20 22  1  0  0  0  0
 21 40  1  6  0  0  0
 21  5  1  0  0  0  0
 21 25  1  0  0  0  0
 21  1  1  0  0  0  0
 22 18  1  0  0  0  0
 22 24  1  0  0  0  0
 23 22  1  0  0  0  0
 25 27  1  0  0  0  0
 25 19  1  0  0  0  0
 26 25  1  0  0  0  0
 28 29  1  0  0  0  0
 28 30  1  0  0  0  0
 28 31  1  0  0  0  0
 32 33  1  0  0  0  0
 32 35  1  0  0  0  0
 34 32  1  0  0  0  0
 36 38  1  0  0  0  0
 37 36  1  0  0  0  0
 39 36  1  0  0  0  0
 41 40  1  0  0  0  0
 42 40  1  0  0  0  0
 43 40  1  0  0  0  0
 44 54  1  1  0  0  0
 45 58  1  1  0  0  0
 45  6  1  0  0  0  0
 46 62  1  6  0  0  0
 46  7  1  0  0  0  0
 46 48  1  0  0  0  0
 47 66  1  6  0  0  0
 47 51  1  0  0  0  0
 47  2  1  0  0  0  0
 48 49  1  0  0  0  0
 48 44  1  0  0  0  0
 48 50  1  0  0  0  0
 51 52  1  0  0  0  0
 51 45  1  0  0  0  0
 53 51  1  0  0  0  0
 54 55  1  0  0  0  0
 54 57  1  0  0  0  0
 54 56  1  0  0  0  0
 58 59  1  0  0  0  0
 58 60  1  0  0  0  0
 61 58  1  0  0  0  0
 62 65  1  0  0  0  0
 63 62  1  0  0  0  0
 64 62  1  0  0  0  0
 66 67  1  0  0  0  0
 68 66  1  0  0  0  0
 69 66  1  0  0  0  0
M  END
