1,14
q = 0.0, confidence = 0.996

 70 74  0  0  0  0  0  0  0  0999 V2000
   -1.6245    0.5742    0.2753 P   0  0  0  0  0  0  0  0  0  0  0  0
   -3.1240    1.2552   -0.5554 C   0  0  0  0  0  0  0  0  0  0  0  0
   -3.2782    1.1361   -1.9516 C   0  0  0  0  0  0  0  0  0  0  0  0
   -4.3527    1.7675   -2.5941 C   0  0  0  0  0  0  0  0  0  0  0  0
   -5.2865    2.5065   -1.8502 C   0  0  0  0  0  0  0  0  0  0  0  0
   -5.1419    2.6169   -0.4586 C   0  0  0  0  0  0  0  0  0  0  0  0
   -4.0617    1.9975    0.1889 C   0  0  0  0  0  0  0  0  0  0  0  0
   -2.1551    0.2942    2.0082 C   0  0  0  0  0  0  0  0  0  0  0  0
   -1.8082    1.1538    3.0690 C   0  0  0  0  0  0  0  0  0  0  0  0
   -2.2374    0.8648    4.3745 C   0  0  0  0  0  0  0  0  0  0  0  0
   -3.0127   -0.2776    4.6253 C   0  0  0  0  0  0  0  0  0  0  0  0
   -3.3611   -1.1343    3.5669 C   0  0  0  0  0  0  0  0  0  0  0  0
   -2.9343   -0.8564    2.2614 C   0  0  0  0  0  0  0  0  0  0  0  0
    1.4489   -0.8706   -0.3627 P   0  0  0  0  0  0  0  0  0  0  0  0
    2.4001   -2.4114   -0.0325 C   0  0  0  0  0  0  0  0  0  0  0  0
    3.8039   -2.4142   -0.1479 C   0  0  0  0  0  0  0  0  0  0  0  0
    4.5353   -3.5604    0.1989 C   0  0  0  0  0  0  0  0  0  0  0  0
    3.8717   -4.6994    0.6802 C   0  0  0  0  0  0  0  0  0  0  0  0
    2.4736   -4.6918    0.8104 C   0  0  0  0  0  0  0  0  0  0  0  0
    1.7362   -3.5553    0.4514 C   0  0  0  0  0  0  0  0  0  0  0  0
    1.8683    0.0405    1.1820 C   0  0  0  0  0  0  0  0  0  0  0  0
    2.8849    1.0108    1.2683 C   0  0  0  0  0  0  0  0  0  0  0  0
    3.1662    1.6257    2.4988 C   0  0  0  0  0  0  0  0  0  0  0  0
    2.4533    1.2615    3.6514 C   0  0  0  0  0  0  0  0  0  0  0  0
    1.4574    0.2731    3.5745 C   0  0  0  0  0  0  0  0  0  0  0  0
    1.1644   -0.3345    2.3464 C   0  0  0  0  0  0  0  0  0  0  0  0
    1.2302    2.2203   -1.4887 N   0  0  0  0  0  0  0  0  0  0  0  0
   -0.5804    2.1116    0.3031 C   0  0  0  0  0  0  0  0  0  0  0  0
   -0.1326    2.5624   -1.1121 C   0  0  0  0  0  0  0  0  0  0  0  0
    1.4664    1.0985   -2.3871 C   0  0  0  0  0  0  0  0  0  0  0  0
    2.2876   -0.0580   -1.7911 C   0  0  0  0  0  0  0  0  0  0  0  0
    2.2725    3.0740   -1.1378 C   0  0  0  0  0  0  0  0  0  0  0  0
    2.0989    4.0849   -0.1519 C   0  0  0  0  0  0  0  0  0  0  0  0
    3.1593    4.9189    0.2212 C   0  0  0  0  0  0  0  0  0  0  0  0
    4.4292    4.7861   -0.3620 C   0  0  0  0  0  0  0  0  0  0  0  0
    4.6108    3.8022   -1.3461 C   0  0  0  0  0  0  0  0  0  0  0  0
    3.5597    2.9615   -1.7342 C   0  0  0  0  0  0  0  0  0  0  0  0
   -2.5725    0.5171   -2.5252 H   0  0  0  0  0  0  0  0  0  0  0  0
   -4.4698    1.6642   -3.6834 H   0  0  0  0  0  0  0  0  0  0  0  0
   -6.1358    2.9903   -2.3562 H   0  0  0  0  0  0  0  0  0  0  0  0
   -5.8777    3.1846    0.1312 H   0  0  0  0  0  0  0  0  0  0  0  0
   -3.9569    2.0807    1.2817 H   0  0  0  0  0  0  0  0  0  0  0  0
   -1.1887    2.0442    2.8917 H   0  0  0  0  0  0  0  0  0  0  0  0
   -1.9595    1.5377    5.2001 H   0  0  0  0  0  0  0  0  0  0  0  0
   -3.3460   -0.5024    5.6500 H   0  0  0  0  0  0  0  0  0  0  0  0
   -3.9689   -2.0314    3.7593 H   0  0  0  0  0  0  0  0  0  0  0  0
   -3.1977   -1.5219    1.4213 H   0  0  0  0  0  0  0  0  0  0  0  0
    4.3397   -1.5216   -0.5046 H   0  0  0  0  0  0  0  0  0  0  0  0
    5.6309   -3.5597    0.0951 H   0  0  0  0  0  0  0  0  0  0  0  0
    4.4466   -5.5973    0.9535 H   0  0  0  0  0  0  0  0  0  0  0  0
    1.9477   -5.5842    1.1819 H   0  0  0  0  0  0  0  0  0  0  0  0
    0.6385   -3.5557    0.5216 H   0  0  0  0  0  0  0  0  0  0  0  0
    3.4554    1.3150    0.3810 H   0  0  0  0  0  0  0  0  0  0  0  0
    3.9460    2.4005    2.5455 H   0  0  0  0  0  0  0  0  0  0  0  0
    2.6765    1.7460    4.6141 H   0  0  0  0  0  0  0  0  0  0  0  0
    0.8936   -0.0210    4.4723 H   0  0  0  0  0  0  0  0  0  0  0  0
    0.3751   -1.1002    2.2836 H   0  0  0  0  0  0  0  0  0  0  0  0
    0.2988    1.9471    0.9544 H   0  0  0  0  0  0  0  0  0  0  0  0
   -1.2110    2.8959    0.7703 H   0  0  0  0  0  0  0  0  0  0  0  0
   -0.2518    3.6637   -1.1818 H   0  0  0  0  0  0  0  0  0  0  0  0
   -0.8140    2.1456   -1.8805 H   0  0  0  0  0  0  0  0  0  0  0  0
    0.4795    0.6931   -2.6852 H   0  0  0  0  0  0  0  0  0  0  0  0
    1.9667    1.4423   -3.3214 H   0  0  0  0  0  0  0  0  0  0  0  0
    2.3591   -0.8735   -2.5408 H   0  0  0  0  0  0  0  0  0  0  0  0
    3.3159    0.2533   -1.5212 H   0  0  0  0  0  0  0  0  0  0  0  0
    1.1324    4.2062    0.3537 H   0  0  0  0  0  0  0  0  0  0  0  0
    2.9852    5.6839    0.9938 H   0  0  0  0  0  0  0  0  0  0  0  0
    5.2598    5.4398   -0.0592 H   0  0  0  0  0  0  0  0  0  0  0  0
    5.5912    3.6848   -1.8333 H   0  0  0  0  0  0  0  0  0  0  0  0
    3.7446    2.2185   -2.5204 H   0  0  0  0  0  0  0  0  0  0  0  0
  1 28  1  0  0  0  0
  1  8  1  0  0  0  0
  2  7  1  0  0  0  0
  2  1  1  0  0  0  0
  3  2  2  0  0  0  0
  4  3  1  0  0  0  0
  4  5  2  0  0  0  0
  5  6  1  0  0  0  0
  6 41  1  0  0  0  0
  6  7  2  0  0  0  0
  7 42  1  0  0  0  0
  8 13  2  0  0  0  0
  8  9  1  0  0  0  0
  9 10  2  0  0  0  0
 10 11  1  0  0  0  0
 10 44  1  0  0  0  0
 11 45  1  0  0  0  0
 12 46  1  0  0  0  0
 12 11  2  0  0  0  0
 13 12  1  0  0  0  0
 14 15  1  0  0  0  0
 14 21  1  0  0  0  0
 15 20  1  0  0  0  0
 16 15  2  0  0  0  0
 16 17  1  0  0  0  0
 17 18  2  0  0  0  0
 18 19  1  0  0  0  0
 18 50  1  0  0  0  0
 19 51  1  0  0  0  0
 20 52  1  0  0  0  0
 20 19  2  0  0  0  0
 21 22  2  0  0  0  0
 21 26  1  0  0  0  0
 22 23  1  0  0  0  0
 23 54  1  0  0  0  0
 23 24  2  0  0  0  0
 24 55  1  0  0  0  0
 25 24  1  0  0  0  0
 25 56  1  0  0  0  0
 26 25  2  0  0  0  0
 27 32  1  0  0  0  0
 27 29  1  0  0  0  0
 28 59  1  0  0  0  0
 28 58  1  0  0  0  0
 29 28  1  0  0  0  0
 30 31  1  0  0  0  0
 30 27  1  0  0  0  0
 31 65  1  0  0  0  0
 31 14  1  0  0  0  0
 32 33  1  0  0  0  0
 33 34  2  0  0  0  0
 33 66  1  0  0  0  0
 34 67  1  0  0  0  0
 35 68  1  0  0  0  0
 35 34  1  0  0  0  0
 36 35  2  0  0  0  0
 37 36  1  0  0  0  0
 37 32  2  0  0  0  0
 38  3  1  0  0  0  0
 39  4  1  0  0  0  0
 40  5  1  0  0  0  0
 43  9  1  0  0  0  0
 47 13  1  0  0  0  0
 48 16  1  0  0  0  0
 49 17  1  0  0  0  0
 53 22  1  0  0  0  0
 57 26  1  0  0  0  0
 60 29  1  0  0  0  0
 61 29  1  0  0  0  0
 62 30  1  0  0  0  0
 63 30  1  0  0  0  0
 64 31  1  0  0  0  0
 69 36  1  0  0  0  0
 70 37  1  0  0  0  0
M  END
