1,2
q = 0.0, confidence = 0.994

 67 70  0  0  0  0  0  0  0  0999 V2000
    1.4169    0.0805    0.4396 P   0  0  0  0  0  0  0  0  0  0  0  0
   -1.4067    0.1503    0.3209 P   0  0  0  0  0  0  0  0  0  0  0  0
   -0.0376    0.2699    1.6357 C   0  0  0  0  0  0  0  0  0  0  0  0
   -0.0190   -0.7616    2.0525 H   0  0  0  0  0  0  0  0  0  0  0  0
   -0.0545    1.2933    2.7844 C   0  0  0  0  0  0  0  0  0  0  0  0
   -0.7836    2.0981    2.5560 H   0  0  0  0  0  0  0  0  0  0  0  0
    0.9265    1.8031    2.8252 H   0  0  0  0  0  0  0  0  0  0  0  0
   -0.3521    0.6789    4.1543 C   0  0  0  0  0  0  0  0  0  0  0  0
   -0.3377    1.4502    4.9504 H   0  0  0  0  0  0  0  0  0  0  0  0
   -1.3477    0.1907    4.1835 H   0  0  0  0  0  0  0  0  0  0  0  0
    0.4030   -0.0912    4.4166 H   0  0  0  0  0  0  0  0  0  0  0  0
    2.0538    1.7426   -0.0212 C   0  0  0  0  0  0  0  0  0  0  0  0
    1.3150    2.9098    0.2631 C   0  0  0  0  0  0  0  0  0  0  0  0
    0.3903    2.8504    0.8483 H   0  0  0  0  0  0  0  0  0  0  0  0
    1.7299    4.1612   -0.2121 C   0  0  0  0  0  0  0  0  0  0  0  0
    1.1297    5.0547    0.0158 H   0  0  0  0  0  0  0  0  0  0  0  0
    2.8975    4.2575   -0.9804 C   0  0  0  0  0  0  0  0  0  0  0  0
    3.2354    5.2331   -1.3612 H   0  0  0  0  0  0  0  0  0  0  0  0
    3.6277    3.0986   -1.2793 C   0  0  0  0  0  0  0  0  0  0  0  0
    4.5331    3.1707   -1.9021 H   0  0  0  0  0  0  0  0  0  0  0  0
    3.2295    1.8272   -0.8223 C   0  0  0  0  0  0  0  0  0  0  0  0
    4.0302    0.6100   -1.2033 C   0  0  0  0  0  0  0  0  0  0  0  0
    3.3753   -0.2005   -1.5859 H   0  0  0  0  0  0  0  0  0  0  0  0
    4.7699    0.8530   -1.9893 H   0  0  0  0  0  0  0  0  0  0  0  0
    4.5772    0.1877   -0.3354 H   0  0  0  0  0  0  0  0  0  0  0  0
    2.7387   -0.7919    1.4079 C   0  0  0  0  0  0  0  0  0  0  0  0
    2.8873   -2.1539    1.0621 C   0  0  0  0  0  0  0  0  0  0  0  0
    2.2562   -2.5624    0.2592 H   0  0  0  0  0  0  0  0  0  0  0  0
    3.8264   -2.9740    1.6981 C   0  0  0  0  0  0  0  0  0  0  0  0
    3.9193   -4.0304    1.4058 H   0  0  0  0  0  0  0  0  0  0  0  0
    4.6510   -2.4270    2.6906 C   0  0  0  0  0  0  0  0  0  0  0  0
    5.4049   -3.0497    3.1959 H   0  0  0  0  0  0  0  0  0  0  0  0
    4.5213   -1.0744    3.0307 C   0  0  0  0  0  0  0  0  0  0  0  0
    5.1791   -0.6457    3.8038 H   0  0  0  0  0  0  0  0  0  0  0  0
    3.5727   -0.2288    2.4152 C   0  0  0  0  0  0  0  0  0  0  0  0
    3.5031    1.2047    2.8825 C   0  0  0  0  0  0  0  0  0  0  0  0
    3.1385    1.8938    2.0999 H   0  0  0  0  0  0  0  0  0  0  0  0
    2.8271    1.2999    3.7585 H   0  0  0  0  0  0  0  0  0  0  0  0
    4.5006    1.5551    3.2119 H   0  0  0  0  0  0  0  0  0  0  0  0
   -2.7729   -0.8885    0.9930 C   0  0  0  0  0  0  0  0  0  0  0  0
   -2.5933   -1.6763    2.1468 C   0  0  0  0  0  0  0  0  0  0  0  0
   -1.6509   -1.6269    2.7105 H   0  0  0  0  0  0  0  0  0  0  0  0
   -3.5988   -2.5411    2.5981 C   0  0  0  0  0  0  0  0  0  0  0  0
   -3.4340   -3.1476    3.5010 H   0  0  0  0  0  0  0  0  0  0  0  0
   -4.8024   -2.6321    1.8859 C   0  0  0  0  0  0  0  0  0  0  0  0
   -5.6002   -3.3101    2.2249 H   0  0  0  0  0  0  0  0  0  0  0  0
   -4.9795   -1.8667    0.7255 C   0  0  0  0  0  0  0  0  0  0  0  0
   -5.9174   -1.9519    0.1543 H   0  0  0  0  0  0  0  0  0  0  0  0
   -3.9832   -0.9900    0.2503 C   0  0  0  0  0  0  0  0  0  0  0  0
   -4.2312   -0.1931   -1.0046 C   0  0  0  0  0  0  0  0  0  0  0  0
   -5.0553   -0.6359   -1.5954 H   0  0  0  0  0  0  0  0  0  0  0  0
   -4.5020    0.8586   -0.7743 H   0  0  0  0  0  0  0  0  0  0  0  0
   -3.3315   -0.1542   -1.6503 H   0  0  0  0  0  0  0  0  0  0  0  0
   -2.0999    1.8585    0.1604 C   0  0  0  0  0  0  0  0  0  0  0  0
   -1.6884    2.5644   -0.9888 C   0  0  0  0  0  0  0  0  0  0  0  0
   -1.0327    2.0558   -1.7089 H   0  0  0  0  0  0  0  0  0  0  0  0
   -2.0923    3.8844   -1.2214 C   0  0  0  0  0  0  0  0  0  0  0  0
   -1.7488    4.4115   -2.1236 H   0  0  0  0  0  0  0  0  0  0  0  0
   -2.9319    4.5154   -0.2933 C   0  0  0  0  0  0  0  0  0  0  0  0
   -3.2609    5.5535   -0.4537 H   0  0  0  0  0  0  0  0  0  0  0  0
   -3.3616    3.8160    0.8428 C   0  0  0  0  0  0  0  0  0  0  0  0
   -4.0302    4.3128    1.5637 H   0  0  0  0  0  0  0  0  0  0  0  0
   -2.9720    2.4832    1.0992 C   0  0  0  0  0  0  0  0  0  0  0  0
   -3.5429    1.7943    2.3137 C   0  0  0  0  0  0  0  0  0  0  0  0
   -2.8095    1.1545    2.8350 H   0  0  0  0  0  0  0  0  0  0  0  0
   -3.9323    2.5378    3.0356 H   0  0  0  0  0  0  0  0  0  0  0  0
   -4.3818    1.1238    2.0327 H   0  0  0  0  0  0  0  0  0  0  0  0
  1 26  1  0  0  0  0
  1  3  1  0  0  0  0
  2 40  1  0  0  0  0
  2  3  1  0  0  0  0
  3  4  1  0  0  0  0
  3  5  1  0  0  0  0
  5  7  1  0  0  0  0
  5  8  1  0  0  0  0
  6  5  1  0  0  0  0
  8 10  1  0  0  0  0
  8 11  1  0  0  0  0
  8  9  1  0  0  0  0
 12 13  1  0  0  0  0
 12  1  1  0  0  0  0
 13 14  1  0  0  0  0
 15 16  1  0  0  0  0
 15 13  2  0  0  0  0
 17 15  1  0  0  0  0
 18 17  1  0  0  0  0
 19 17  2  0  0  0  0
 19 21  1  0  0  0  0
 20 19  1  0  0  0  0
 21 12  2  0  0  0  0
 22 21  1  0  0  0  0
 22 25  1  0  0  0  0
 23 22  1  0  0  0  0
 24 22  1  0  0  0  0
 26 35  1  0  0  0  0
 27 26  2  0  0  0  0
 27 29  1  0  0  0  0
 28 27  1  0  0  0  0
 29 31  2  0  0  0  0
 30 29  1  0  0  0  0
 31 33  1  0  0  0  0
 31 32  1  0  0  0  0
 33 34  1  0  0  0  0
 35 36  1  0  0  0  0
 35 33  2  0  0  0  0
 36 39  1  0  0  0  0
 36 38  1  0  0  0  0
 37 36  1  0  0  0  0
 40 41  1  0  0  0  0
 41 43  2  0  0  0  0
 41 42  1  0  0  0  0
 43 44  1  0  0  0  0
 45 46  1  0  0  0  0
 45 43  1  0  0  0  0
 47 45  2  0  0  0  0
 48 47  1  0  0  0  0
 49 47  1  0  0  0  0
 49 40  2  0  0  0  0
 50 52  1  0  0  0  0
 50 49  1  0  0  0  0
 51 50  1  0  0  0  0
 53 50  1  0  0  0  0
 54  2  1  0  0  0  0
 54 63  1  0  0  0  0
 55 54  2  0  0  0  0
 56 55  1  0  0  0  0
 57 55  1  0  0  0  0
 57 59  2  0  0  0  0
 58 57  1  0  0  0  0
 59 61  1  0  0  0  0
 60 59  1  0  0  0  0
 61 63  2  0  0  0  0
 61 62  1  0  0  0  0
 63 64  1  0  0  0  0
 64 65  1  0  0  0  0
 64 66  1  0  0  0  0
 67 64  1  0  0  0  0
M  END
