1,2
q = 0.0, confidence = 0.996

 50 51  0  0  0  0  0  0  0  0999 V2000
    0.1563    1.5039    0.5043 P   0  0  2  0  0  0  0  0  0  0  0  0
    0.1564   -1.5039   -0.5042 P   0  0  2  0  0  0  0  0  0  0  0  0
   -2.6059    1.2446    0.6806 N   0  0  0  0  0  0  0  0  0  0  0  0
   -2.6059   -1.2448   -0.6805 N   0  0  0  0  0  0  0  0  0  0  0  0
   -1.4813    0.6475    0.3162 C   0  0  0  0  0  0  0  0  0  0  0  0
   -3.7806    0.6198    0.3704 C   0  0  0  0  0  0  0  0  0  0  0  0
   -5.0199    1.2098    0.7462 C   0  0  0  0  0  0  0  0  0  0  0  0
   -4.9914    2.1489    1.3178 H   0  0  0  0  0  0  0  0  0  0  0  0
   -6.2118    0.6041    0.3764 C   0  0  0  0  0  0  0  0  0  0  0  0
   -7.1710    1.0618    0.6618 H   0  0  0  0  0  0  0  0  0  0  0  0
   -6.2118   -0.6044   -0.3766 C   0  0  0  0  0  0  0  0  0  0  0  0
   -7.1709   -1.0621   -0.6621 H   0  0  0  0  0  0  0  0  0  0  0  0
   -5.0198   -1.2101   -0.7463 C   0  0  0  0  0  0  0  0  0  0  0  0
   -4.9912   -2.1491   -1.3179 H   0  0  0  0  0  0  0  0  0  0  0  0
   -3.7806   -0.6200   -0.3704 C   0  0  0  0  0  0  0  0  0  0  0  0
   -1.4813   -0.6477   -0.3160 C   0  0  0  0  0  0  0  0  0  0  0  0
    0.1336   -2.2260   -2.1825 C   0  0  0  0  0  0  0  0  0  0  0  0
   -0.7480   -2.8776   -2.3286 H   0  0  0  0  0  0  0  0  0  0  0  0
    1.0841   -2.7772   -2.3163 H   0  0  0  0  0  0  0  0  0  0  0  0
    0.1130   -1.3898   -2.9067 H   0  0  0  0  0  0  0  0  0  0  0  0
    0.0253   -2.9273    0.7531 C   0  0  0  0  0  0  0  0  0  0  0  0
   -0.2308   -2.2737    2.1230 C   0  0  0  0  0  0  0  0  0  0  0  0
   -0.2385   -3.0597    2.9064 H   0  0  0  0  0  0  0  0  0  0  0  0
   -1.2090   -1.7519    2.1648 H   0  0  0  0  0  0  0  0  0  0  0  0
    0.5693   -1.5466    2.3722 H   0  0  0  0  0  0  0  0  0  0  0  0
   -1.1179   -3.8840    0.3789 C   0  0  0  0  0  0  0  0  0  0  0  0
   -1.2134   -4.6515    1.1759 H   0  0  0  0  0  0  0  0  0  0  0  0
   -0.9084   -4.4202   -0.5680 H   0  0  0  0  0  0  0  0  0  0  0  0
   -2.0912   -3.3681    0.2732 H   0  0  0  0  0  0  0  0  0  0  0  0
    1.3593   -3.6901    0.7814 C   0  0  0  0  0  0  0  0  0  0  0  0
    1.2840   -4.4968    1.5413 H   0  0  0  0  0  0  0  0  0  0  0  0
    2.2124   -3.0321    1.0318 H   0  0  0  0  0  0  0  0  0  0  0  0
    1.5879   -4.1639   -0.1935 H   0  0  0  0  0  0  0  0  0  0  0  0
    0.1337    2.2258    2.1826 C   0  0  0  0  0  0  0  0  0  0  0  0
   -0.7479    2.8773    2.3290 H   0  0  0  0  0  0  0  0  0  0  0  0
    1.0842    2.7769    2.3164 H   0  0  0  0  0  0  0  0  0  0  0  0
    0.1133    1.3894    2.9068 H   0  0  0  0  0  0  0  0  0  0  0  0
    0.0249    2.9273   -0.7529 C   0  0  0  0  0  0  0  0  0  0  0  0
   -0.2325    2.2738   -2.1226 C   0  0  0  0  0  0  0  0  0  0  0  0
   -0.2400    3.0599   -2.9060 H   0  0  0  0  0  0  0  0  0  0  0  0
   -1.2111    1.7527   -2.1639 H   0  0  0  0  0  0  0  0  0  0  0  0
    0.5670    1.5462   -2.3722 H   0  0  0  0  0  0  0  0  0  0  0  0
   -1.1178    3.8844   -0.3777 C   0  0  0  0  0  0  0  0  0  0  0  0
   -1.2140    4.6517   -1.1748 H   0  0  0  0  0  0  0  0  0  0  0  0
   -0.9071    4.4207    0.5688 H   0  0  0  0  0  0  0  0  0  0  0  0
   -2.0911    3.3686   -0.2709 H   0  0  0  0  0  0  0  0  0  0  0  0
    1.3591    3.6896   -0.7822 C   0  0  0  0  0  0  0  0  0  0  0  0
    1.2833    4.4967   -1.5417 H   0  0  0  0  0  0  0  0  0  0  0  0
    2.2117    3.0314   -1.0338 H   0  0  0  0  0  0  0  0  0  0  0  0
    1.5890    4.1629    0.1927 H   0  0  0  0  0  0  0  0  0  0  0  0
  1 38  1  6  0  0  0
  1 34  1  0  0  0  0
  2 17  1  6  0  0  0
  2 16  1  0  0  0  0
  2 21  1  0  0  0  0
  4 15  1  0  0  0  0
  4 16  2  0  0  0  0
  5  1  1  0  0  0  0
  5  3  2  0  0  0  0
  6  3  1  0  0  0  0
  6  7  1  0  0  0  0
  7  8  1  0  0  0  0
  9 10  1  0  0  0  0
  9  7  2  0  0  0  0
 11  9  1  0  0  0  0
 12 11  1  0  0  0  0
 13 11  2  0  0  0  0
 13 15  1  0  0  0  0
 14 13  1  0  0  0  0
 15  6  2  0  0  0  0
 16  5  1  0  0  0  0
 18 17  1  0  0  0  0
 19 17  1  0  0  0  0
 20 17  1  0  0  0  0
 21 30  1  0  0  0  0
 21 22  1  0  0  0  0
 22 24  1  0  0  0  0
 22 25  1  0  0  0  0
 22 23  1  0  0  0  0
 26 21  1  0  0  0  0
 26 27  1  0  0  0  0
 28 26  1  0  0  0  0
 29 26  1  0  0  0  0
 30 32  1  0  0  0  0
 30 31  1  0  0  0  0
 33 30  1  0  0  0  0
 34 36  1  0  0  0  0
 34 35  1  0  0  0  0
 34 37  1  0  0  0  0
 38 43  1  0  0  0  0
 39 38  1  0  0  0  0
 40 39  1  0  0  0  0
 41 39  1  0  0  0  0
 42 39  1  0  0  0  0
 43 46  1  0  0  0  0
 43 45  1  0  0  0  0
 44 43  1  0  0  0  0
 47 38  1  0  0  0  0
 47 50  1  0  0  0  0
 48 47  1  0  0  0  0
 49 47  1  0  0  0  0
M  END
