1,2
q = 0.0, confidence = 1.0

 79 82  0  0  0  0  0  0  0  0999 V2000
    1.6304   -0.0968   -0.0460 P   0  0  0  0  0  0  0  0  0  0  0  0
   -1.5560    0.2626   -0.1067 P   0  0  0  0  0  0  0  0  0  0  0  0
    3.8271    0.5751    1.9314 O   0  0  0  0  0  0  0  0  0  0  0  0
    1.0872   -2.9207   -0.1577 O   0  0  0  0  0  0  0  0  0  0  0  0
   -0.6050    2.8883    0.7432 O   0  0  0  0  0  0  0  0  0  0  0  0
   -4.2059   -0.3088    1.3064 O   0  0  0  0  0  0  0  0  0  0  0  0
   -0.1941   -0.9801    1.8738 N   0  0  0  0  0  0  0  0  0  0  0  0
    1.1510   -0.4873    1.7465 C   0  0  0  0  0  0  0  0  0  0  0  0
    1.8738   -1.2488    2.0933 H   0  0  0  0  0  0  0  0  0  0  0  0
    1.3372    0.4437    2.3391 H   0  0  0  0  0  0  0  0  0  0  0  0
   -1.1836    0.0593    1.7221 C   0  0  0  0  0  0  0  0  0  0  0  0
   -0.8573    1.0454    2.1258 H   0  0  0  0  0  0  0  0  0  0  0  0
   -2.1403   -0.2077    2.2048 H   0  0  0  0  0  0  0  0  0  0  0  0
   -0.4089   -2.0044    2.9053 C   0  0  0  0  0  0  0  0  0  0  0  0
    0.4233   -2.7276    2.7573 H   0  0  0  0  0  0  0  0  0  0  0  0
   -1.7164   -2.7683    2.6791 C   0  0  0  0  0  0  0  0  0  0  0  0
   -1.7968   -3.1147    1.6310 H   0  0  0  0  0  0  0  0  0  0  0  0
   -2.6045   -2.1384    2.8912 H   0  0  0  0  0  0  0  0  0  0  0  0
   -1.7696   -3.6454    3.3542 H   0  0  0  0  0  0  0  0  0  0  0  0
   -0.3186   -1.4518    4.3393 C   0  0  0  0  0  0  0  0  0  0  0  0
    0.6472   -0.9348    4.5122 H   0  0  0  0  0  0  0  0  0  0  0  0
   -0.4087   -2.2624    5.0909 H   0  0  0  0  0  0  0  0  0  0  0  0
   -1.1341   -0.7231    4.5316 H   0  0  0  0  0  0  0  0  0  0  0  0
    2.6172    1.4506    0.0986 C   0  0  0  0  0  0  0  0  0  0  0  0
    3.6022    1.6353    1.1049 C   0  0  0  0  0  0  0  0  0  0  0  0
    4.2962    2.8592    1.1982 C   0  0  0  0  0  0  0  0  0  0  0  0
    5.0581    3.0127    1.9739 H   0  0  0  0  0  0  0  0  0  0  0  0
    4.0208    3.8875    0.2819 C   0  0  0  0  0  0  0  0  0  0  0  0
    4.5736    4.8364    0.3611 H   0  0  0  0  0  0  0  0  0  0  0  0
    3.0659    3.7081   -0.7279 C   0  0  0  0  0  0  0  0  0  0  0  0
    2.8635    4.5077   -1.4554 H   0  0  0  0  0  0  0  0  0  0  0  0
    2.3690    2.4932   -0.8120 C   0  0  0  0  0  0  0  0  0  0  0  0
    1.6350    2.3158   -1.6130 H   0  0  0  0  0  0  0  0  0  0  0  0
    4.8546    0.6613    2.9002 C   0  0  0  0  0  0  0  0  0  0  0  0
    5.8462    0.8460    2.4311 H   0  0  0  0  0  0  0  0  0  0  0  0
    4.8770   -0.3164    3.4158 H   0  0  0  0  0  0  0  0  0  0  0  0
    4.6551    1.4618    3.6472 H   0  0  0  0  0  0  0  0  0  0  0  0
    2.8595   -1.4040   -0.4323 C   0  0  0  0  0  0  0  0  0  0  0  0
    2.4023   -2.7445   -0.4692 C   0  0  0  0  0  0  0  0  0  0  0  0
    3.2843   -3.7857   -0.8129 C   0  0  0  0  0  0  0  0  0  0  0  0
    2.9362   -4.8268   -0.8428 H   0  0  0  0  0  0  0  0  0  0  0  0
    4.6190   -3.4853   -1.1307 C   0  0  0  0  0  0  0  0  0  0  0  0
    5.3035   -4.3037   -1.4015 H   0  0  0  0  0  0  0  0  0  0  0  0
    5.0745   -2.1600   -1.1187 C   0  0  0  0  0  0  0  0  0  0  0  0
    6.1144   -1.9261   -1.3902 H   0  0  0  0  0  0  0  0  0  0  0  0
    4.1887   -1.1252   -0.7802 C   0  0  0  0  0  0  0  0  0  0  0  0
    4.5251   -0.0789   -0.8087 H   0  0  0  0  0  0  0  0  0  0  0  0
    0.5082   -4.2026   -0.3132 C   0  0  0  0  0  0  0  0  0  0  0  0
    0.6314   -4.5812   -1.3517 H   0  0  0  0  0  0  0  0  0  0  0  0
   -0.5698   -4.0824   -0.1000 H   0  0  0  0  0  0  0  0  0  0  0  0
    0.9446   -4.9419    0.3955 H   0  0  0  0  0  0  0  0  0  0  0  0
   -2.4930    1.8325   -0.2063 C   0  0  0  0  0  0  0  0  0  0  0  0
   -1.8653    3.0261    0.2338 C   0  0  0  0  0  0  0  0  0  0  0  0
   -2.5343    4.2601    0.1214 C   0  0  0  0  0  0  0  0  0  0  0  0
   -2.0578    5.1871    0.4665 H   0  0  0  0  0  0  0  0  0  0  0  0
   -3.8135    4.3069   -0.4546 C   0  0  0  0  0  0  0  0  0  0  0  0
   -4.3264    5.2767   -0.5442 H   0  0  0  0  0  0  0  0  0  0  0  0
   -4.4263    3.1380   -0.9277 C   0  0  0  0  0  0  0  0  0  0  0  0
   -5.4173    3.1816   -1.4028 H   0  0  0  0  0  0  0  0  0  0  0  0
   -3.7582    1.9108   -0.8100 C   0  0  0  0  0  0  0  0  0  0  0  0
   -4.2113    0.9926   -1.2101 H   0  0  0  0  0  0  0  0  0  0  0  0
    0.0839    4.0356    1.2080 C   0  0  0  0  0  0  0  0  0  0  0  0
    1.0686    3.6815    1.5637 H   0  0  0  0  0  0  0  0  0  0  0  0
   -0.4617    4.5290    2.0431 H   0  0  0  0  0  0  0  0  0  0  0  0
    0.2476    4.7727    0.3924 H   0  0  0  0  0  0  0  0  0  0  0  0
   -2.7395   -1.1207   -0.3684 C   0  0  0  0  0  0  0  0  0  0  0  0
   -3.9239   -1.2863    0.3972 C   0  0  0  0  0  0  0  0  0  0  0  0
   -4.7315   -2.4268    0.2132 C   0  0  0  0  0  0  0  0  0  0  0  0
   -5.6522   -2.5583    0.7968 H   0  0  0  0  0  0  0  0  0  0  0  0
   -4.3518   -3.4097   -0.7135 C   0  0  0  0  0  0  0  0  0  0  0  0
   -4.9895   -4.2974   -0.8447 H   0  0  0  0  0  0  0  0  0  0  0  0
   -3.1804   -3.2622   -1.4693 C   0  0  0  0  0  0  0  0  0  0  0  0
   -2.8894   -4.0259   -2.2054 H   0  0  0  0  0  0  0  0  0  0  0  0
   -2.3883   -2.1177   -1.2963 C   0  0  0  0  0  0  0  0  0  0  0  0
   -1.4862   -1.9570   -1.9056 H   0  0  0  0  0  0  0  0  0  0  0  0
   -5.4335   -0.3522    2.0102 C   0  0  0  0  0  0  0  0  0  0  0  0
   -6.3022   -0.3547    1.3159 H   0  0  0  0  0  0  0  0  0  0  0  0
   -5.4675    0.5642    2.6275 H   0  0  0  0  0  0  0  0  0  0  0  0
   -5.5004   -1.2428    2.6745 H   0  0  0  0  0  0  0  0  0  0  0  0
  1 24  1  0  0  0  0
  1  8  1  0  0  0  0
  2 11  1  0  0  0  0
  3 34  1  0  0  0  0
  5 62  1  0  0  0  0
  6 76  1  0  0  0  0
  7 14  1  0  0  0  0
  8  7  1  0  0  0  0
  8  9  1  0  0  0  0
  8 10  1  0  0  0  0
 11  7  1  0  0  0  0
 11 12  1  0  0  0  0
 11 13  1  0  0  0  0
 14 20  1  0  0  0  0
 15 14  1  0  0  0  0
 16 18  1  0  0  0  0
 16 14  1  0  0  0  0
 16 19  1  0  0  0  0
 17 16  1  0  0  0  0
 20 21  1  0  0  0  0
 20 23  1  0  0  0  0
 20 22  1  0  0  0  0
 24 25  1  0  0  0  0
 25 26  2  0  0  0  0
 25  3  1  0  0  0  0
 26 27  1  0  0  0  0
 28 29  1  0  0  0  0
 28 26  1  0  0  0  0
 30 28  2  0  0  0  0
 31 30  1  0  0  0  0
 32 30  1  0  0  0  0
 32 24  2  0  0  0  0
 33 32  1  0  0  0  0
 34 36  1  0  0  0  0
 34 37  1  0  0  0  0
 35 34  1  0  0  0  0
 38  1  1  0  0  0  0
 39 38  1  0  0  0  0
 39  4  1  0  0  0  0
 40 39  2  0  0  0  0
 41 40  1  0  0  0  0
 42 44  2  0  0  0  0
 42 40  1  0  0  0  0
 43 42  1  0  0  0  0
 44 46  1  0  0  0  0
 45 44  1  0  0  0  0
 46 38  2  0  0  0  0
 47 46  1  0  0  0  0
 48  4  1  0  0  0  0
 48 50  1  0  0  0  0
 48 51  1  0  0  0  0
 49 48  1  0  0  0  0
 52  2  1  0  0  0  0
 52 53  1  0  0  0  0
 53  5  1  0  0  0  0
 54 53  2  0  0  0  0
 54 55  1  0  0  0  0
 56 54  1  0  0  0  0
 57 56  1  0  0  0  0
 58 60  1  0  0  0  0
 58 56  2  0  0  0  0
 59 58  1  0  0  0  0
 60 52  2  0  0  0  0
 61 60  1  0  0  0  0
 62 63  1  0  0  0  0
 62 64  1  0  0  0  0
 65 62  1  0  0  0  0
 66  2  1  0  0  0  0
 66 67  1  0  0  0  0
 67  6  1  0  0  0  0
 68 67  2  0  0  0  0
 68 69  1  0  0  0  0
 70 68  1  0  0  0  0
 71 70  1  0  0  0  0
 72 74  1  0  0  0  0
 72 70  2  0  0  0  0
 73 72  1  0  0  0  0
 74 66  2  0  0  0  0
 75 74  1  0  0  0  0
 76 78  1  0  0  0  0
 76 79  1  0  0  0  0
 77 76  1  0  0  0  0
M  END
