1,2
q = 0.0, confidence = 0.998

 73 78  0  0  0  0  0  0  0  0999 V2000
   -1.9347   -0.1009   -0.3480 P   0  0  0  0  0  0  0  0  0  0  0  0
    1.8675   -0.0683   -0.2708 P   0  0  0  0  0  0  0  0  0  0  0  0
   -0.3161    2.4538    0.1235 O   0  0  0  0  0  0  0  0  0  0  0  0
   -2.5439   -1.8122   -0.6169 C   0  0  0  0  0  0  0  0  0  0  0  0
   -1.5566   -2.8038   -0.8062 C   0  0  0  0  0  0  0  0  0  0  0  0
   -0.4939   -2.5173   -0.8006 H   0  0  0  0  0  0  0  0  0  0  0  0
   -1.9254   -4.1420   -0.9997 C   0  0  0  0  0  0  0  0  0  0  0  0
   -1.1429   -4.9041   -1.1339 H   0  0  0  0  0  0  0  0  0  0  0  0
   -3.2834   -4.4989   -1.0343 C   0  0  0  0  0  0  0  0  0  0  0  0
   -3.5749   -5.5477   -1.1978 H   0  0  0  0  0  0  0  0  0  0  0  0
   -4.2699   -3.5123   -0.8740 C   0  0  0  0  0  0  0  0  0  0  0  0
   -5.3354   -3.7861   -0.9149 H   0  0  0  0  0  0  0  0  0  0  0  0
   -3.9052   -2.1734   -0.6625 C   0  0  0  0  0  0  0  0  0  0  0  0
   -4.6830   -1.4052   -0.5411 H   0  0  0  0  0  0  0  0  0  0  0  0
   -3.3071    1.8290   -1.8093 C   0  0  0  0  0  0  0  0  0  0  0  0
   -2.4125    1.7966   -2.4575 H   0  0  0  0  0  0  0  0  0  0  0  0
   -4.3641    2.7112   -2.0849 C   0  0  0  0  0  0  0  0  0  0  0  0
   -4.3148    3.3529   -2.9779 H   0  0  0  0  0  0  0  0  0  0  0  0
   -5.4682    2.7880   -1.2213 C   0  0  0  0  0  0  0  0  0  0  0  0
   -6.2917    3.4853   -1.4398 H   0  0  0  0  0  0  0  0  0  0  0  0
   -5.5172    1.9864   -0.0674 C   0  0  0  0  0  0  0  0  0  0  0  0
   -6.3757    2.0566    0.6182 H   0  0  0  0  0  0  0  0  0  0  0  0
   -4.4669    1.1011    0.2157 C   0  0  0  0  0  0  0  0  0  0  0  0
   -4.4909    0.4892    1.1314 H   0  0  0  0  0  0  0  0  0  0  0  0
   -3.3659    1.0097   -0.6629 C   0  0  0  0  0  0  0  0  0  0  0  0
   -1.7214    0.0133    1.4888 C   0  0  0  0  0  0  0  0  0  0  0  0
   -1.8980   -1.1208    2.3066 C   0  0  0  0  0  0  0  0  0  0  0  0
   -2.2666   -2.0550    1.8582 H   0  0  0  0  0  0  0  0  0  0  0  0
   -1.5913   -1.0825    3.6759 C   0  0  0  0  0  0  0  0  0  0  0  0
   -1.7379   -1.9820    4.2934 H   0  0  0  0  0  0  0  0  0  0  0  0
   -1.0905    0.0957    4.2454 C   0  0  0  0  0  0  0  0  0  0  0  0
   -0.8274    0.1331    5.3132 H   0  0  0  0  0  0  0  0  0  0  0  0
   -0.9305    1.2360    3.4426 C   0  0  0  0  0  0  0  0  0  0  0  0
   -0.5418    2.1656    3.8872 H   0  0  0  0  0  0  0  0  0  0  0  0
   -1.2469    1.2249    2.0726 C   0  0  0  0  0  0  0  0  0  0  0  0
   -1.1473    2.5189    1.2827 C   0  0  0  0  0  0  0  0  0  0  0  0
   -2.1567    2.7904    0.9061 H   0  0  0  0  0  0  0  0  0  0  0  0
   -0.8104    3.3368    1.9561 H   0  0  0  0  0  0  0  0  0  0  0  0
    1.0142    2.9599    0.2608 C   0  0  0  0  0  0  0  0  0  0  0  0
    0.9745    4.0516    0.4827 H   0  0  0  0  0  0  0  0  0  0  0  0
    1.4427    2.8350   -0.7554 H   0  0  0  0  0  0  0  0  0  0  0  0
    1.8338    2.2739    1.3381 C   0  0  0  0  0  0  0  0  0  0  0  0
    2.1684    3.0109    2.4911 C   0  0  0  0  0  0  0  0  0  0  0  0
    1.8584    4.0668    2.5492 H   0  0  0  0  0  0  0  0  0  0  0  0
    2.8747    2.4354    3.5564 C   0  0  0  0  0  0  0  0  0  0  0  0
    3.1179    3.0355    4.4463 H   0  0  0  0  0  0  0  0  0  0  0  0
    3.2646    1.0918    3.4768 C   0  0  0  0  0  0  0  0  0  0  0  0
    3.8194    0.6216    4.3030 H   0  0  0  0  0  0  0  0  0  0  0  0
    2.9534    0.3441    2.3318 C   0  0  0  0  0  0  0  0  0  0  0  0
    3.2652   -0.7094    2.2778 H   0  0  0  0  0  0  0  0  0  0  0  0
    2.2405    0.9137    1.2578 C   0  0  0  0  0  0  0  0  0  0  0  0
    3.4407    0.0722   -1.2252 C   0  0  0  0  0  0  0  0  0  0  0  0
    3.3741    0.6201   -2.5215 C   0  0  0  0  0  0  0  0  0  0  0  0
    2.3987    0.9477   -2.9277 H   0  0  0  0  0  0  0  0  0  0  0  0
    4.5502    0.7533   -3.2796 C   0  0  0  0  0  0  0  0  0  0  0  0
    4.4946    1.1827   -4.2917 H   0  0  0  0  0  0  0  0  0  0  0  0
    5.7836    0.3428   -2.7535 C   0  0  0  0  0  0  0  0  0  0  0  0
    6.7021    0.4480   -3.3513 H   0  0  0  0  0  0  0  0  0  0  0  0
    5.8490   -0.2040   -1.4590 C   0  0  0  0  0  0  0  0  0  0  0  0
    6.8162   -0.5265   -1.0436 H   0  0  0  0  0  0  0  0  0  0  0  0
    4.6827   -0.3372   -0.6948 C   0  0  0  0  0  0  0  0  0  0  0  0
    4.7377   -0.7653    0.3178 H   0  0  0  0  0  0  0  0  0  0  0  0
    1.8576   -1.8147    0.2984 C   0  0  0  0  0  0  0  0  0  0  0  0
    1.1817   -2.1796    1.4837 C   0  0  0  0  0  0  0  0  0  0  0  0
    0.7838   -1.4034    2.1522 H   0  0  0  0  0  0  0  0  0  0  0  0
    0.9987   -3.5302    1.8098 C   0  0  0  0  0  0  0  0  0  0  0  0
    0.4666   -3.7939    2.7368 H   0  0  0  0  0  0  0  0  0  0  0  0
    1.4766   -4.5377    0.9559 C   0  0  0  0  0  0  0  0  0  0  0  0
    1.3274   -5.5977    1.2111 H   0  0  0  0  0  0  0  0  0  0  0  0
    2.1447   -4.1826   -0.2276 C   0  0  0  0  0  0  0  0  0  0  0  0
    2.5238   -4.9642   -0.9038 H   0  0  0  0  0  0  0  0  0  0  0  0
    2.3353   -2.8318   -0.5570 C   0  0  0  0  0  0  0  0  0  0  0  0
    2.8553   -2.5624   -1.4889 H   0  0  0  0  0  0  0  0  0  0  0  0
  1 26  1  0  0  0  0
  2 63  1  0  0  0  0
  2 51  1  0  0  0  0
  3 39  1  0  0  0  0
  3 36  1  0  0  0  0
  4  1  1  0  0  0  0
  5  6  1  0  0  0  0
  5  4  2  0  0  0  0
  7  5  1  0  0  0  0
  8  7  1  0  0  0  0
  9  7  2  0  0  0  0
  9 11  1  0  0  0  0
 10  9  1  0  0  0  0
 11 13  2  0  0  0  0
 12 11  1  0  0  0  0
 13  4  1  0  0  0  0
 13 14  1  0  0  0  0
 15 25  1  0  0  0  0
 16 15  1  0  0  0  0
 17 15  2  0  0  0  0
 17 19  1  0  0  0  0
 18 17  1  0  0  0  0
 19 21  2  0  0  0  0
 20 19  1  0  0  0  0
 21 23  1  0  0  0  0
 21 22  1  0  0  0  0
 23 24  1  0  0  0  0
 25  1  1  0  0  0  0
 25 23  2  0  0  0  0
 26 35  2  0  0  0  0
 26 27  1  0  0  0  0
 27 29  2  0  0  0  0
 28 27  1  0  0  0  0
 29 31  1  0  0  0  0
 29 30  1  0  0  0  0
 31 32  1  0  0  0  0
 33 34  1  0  0  0  0
 33 31  2  0  0  0  0
 35 33  1  0  0  0  0
 36 38  1  0  0  0  0
 36 35  1  0  0  0  0
 37 36  1  0  0  0  0
 39 40  1  0  0  0  0
 39 42  1  0  0  0  0
 41 39  1  0  0  0  0
 42 43  1  0  0  0  0
 43 44  1  0  0  0  0
 43 45  2  0  0  0  0
 45 46  1  0  0  0  0
 47 45  1  0  0  0  0
 47 48  1  0  0  0  0
 49 47  2  0  0  0  0
 50 49  1  0  0  0  0
 51 42  2  0  0  0  0
 51 49  1  0  0  0  0
 52 61  1  0  0  0  0
 52  2  1  0  0  0  0
 53 52  2  0  0  0  0
 54 53  1  0  0  0  0
 55 57  2  0  0  0  0
 55 53  1  0  0  0  0
 56 55  1  0  0  0  0
 57 59  1  0  0  0  0
 58 57  1  0  0  0  0
 59 60  1  0  0  0  0
 59 61  2  0  0  0  0
 61 62  1  0  0  0  0
 63 64  1  0  0  0  0
 64 66  2  0  0  0  0
 64 65  1  0  0  0  0
 66 67  1  0  0  0  0
 68 69  1  0  0  0  0
 68 66  1  0  0  0  0
 70 68  2  0  0  0  0
 71 70  1  0  0  0  0
 72 70  1  0  0  0  0
 72 63  2  0  0  0  0
 73 72  1  0  0  0  0
M  END
