1,2
q = 0.0, confidence = 0.996

 71 75  0  0  1  0  0  0  0  0999 V2000
   -1.6482   -0.0072    0.0697 P   0  0  0  0  0  0  0  0  0  0  0  0
    1.4645   -0.1799    0.4132 P   0  0  0  0  0  0  0  0  0  0  0  0
   -5.6823   -2.1145    0.4797 O   0  0  0  0  0  0  0  0  0  0  0  0
   -1.9382    4.4128   -0.2586 O   0  0  0  0  0  0  0  0  0  0  0  0
    4.7325   -2.8926    1.1841 O   0  0  0  0  0  0  0  0  0  0  0  0
    3.9384    3.3220   -1.1110 O   0  0  0  0  0  0  0  0  0  0  0  0
   -3.2167   -0.7073    0.3501 N   0  0  0  0  0  0  0  0  0  0  0  0
   -2.1021    1.5862   -0.3354 N   0  0  0  0  0  0  0  0  0  0  0  0
    2.2908   -1.4166    1.2856 N   0  0  0  0  0  0  0  0  0  0  0  0
    2.5279    1.0873   -0.0638 N   0  0  0  0  0  0  0  0  0  0  0  0
   -0.9278   -0.0247    1.7892 C   0  0  1  0  0  0  0  0  0  0  0  0
   -0.7126   -1.1036    1.9712 H   0  0  0  0  0  0  0  0  0  0  0  0
    0.4519    0.6733    1.7411 C   0  0  1  0  0  0  0  0  0  0  0  0
    0.3038    1.7160    1.3777 H   0  0  0  0  0  0  0  0  0  0  0  0
    0.8299    0.6799    3.2303 C   0  0  0  0  0  0  0  0  0  0  0  0
    1.6692    1.3581    3.4838 H   0  0  0  0  0  0  0  0  0  0  0  0
    1.1332   -0.3471    3.5204 H   0  0  0  0  0  0  0  0  0  0  0  0
   -0.4836    1.0760    3.9420 C   0  0  0  0  0  0  0  0  0  0  0  0
   -0.5365    2.1788    4.0495 H   0  0  0  0  0  0  0  0  0  0  0  0
   -0.5423    0.6555    4.9656 H   0  0  0  0  0  0  0  0  0  0  0  0
   -1.6348    0.5759    3.0190 C   0  0  0  0  0  0  0  0  0  0  0  0
   -2.2873   -0.1698    3.5142 H   0  0  0  0  0  0  0  0  0  0  0  0
   -2.2891    1.4189    2.7278 H   0  0  0  0  0  0  0  0  0  0  0  0
   -3.3216   -1.9655    1.0913 C   0  0  0  0  0  0  0  0  0  0  0  0
   -2.6550   -1.9493    1.9751 H   0  0  0  0  0  0  0  0  0  0  0  0
   -3.0244   -2.8381    0.4582 H   0  0  0  0  0  0  0  0  0  0  0  0
   -4.7672   -2.1470    1.5597 C   0  0  0  0  0  0  0  0  0  0  0  0
   -4.8918   -3.1302    2.0574 H   0  0  0  0  0  0  0  0  0  0  0  0
   -5.0066   -1.3406    2.2990 H   0  0  0  0  0  0  0  0  0  0  0  0
   -5.5725   -0.8974   -0.2423 C   0  0  0  0  0  0  0  0  0  0  0  0
   -5.8476   -0.0313    0.4114 H   0  0  0  0  0  0  0  0  0  0  0  0
   -6.2996   -0.9540   -1.0772 H   0  0  0  0  0  0  0  0  0  0  0  0
   -4.1572   -0.6944   -0.7780 C   0  0  0  0  0  0  0  0  0  0  0  0
   -3.9241   -1.5025   -1.5102 H   0  0  0  0  0  0  0  0  0  0  0  0
   -4.0781    0.2740   -1.3105 H   0  0  0  0  0  0  0  0  0  0  0  0
   -3.1488    2.3745    0.3060 C   0  0  0  0  0  0  0  0  0  0  0  0
   -3.6044    1.7904    1.1294 H   0  0  0  0  0  0  0  0  0  0  0  0
   -3.9584    2.5932   -0.4323 H   0  0  0  0  0  0  0  0  0  0  0  0
   -2.5704    3.7048    0.7949 C   0  0  0  0  0  0  0  0  0  0  0  0
   -3.3709    4.3650    1.1873 H   0  0  0  0  0  0  0  0  0  0  0  0
   -1.8411    3.5054    1.6222 H   0  0  0  0  0  0  0  0  0  0  0  0
   -0.8990    3.6478   -0.8568 C   0  0  0  0  0  0  0  0  0  0  0  0
   -0.0873    3.4477   -0.1110 H   0  0  0  0  0  0  0  0  0  0  0  0
   -0.4738    4.2698   -1.6704 H   0  0  0  0  0  0  0  0  0  0  0  0
   -1.4156    2.3165   -1.3984 C   0  0  0  0  0  0  0  0  0  0  0  0
   -0.5852    1.6849   -1.7839 H   0  0  0  0  0  0  0  0  0  0  0  0
   -2.1219    2.5127   -2.2403 H   0  0  0  0  0  0  0  0  0  0  0  0
    2.3237   -2.7917    0.7817 C   0  0  0  0  0  0  0  0  0  0  0  0
    1.5449   -2.9033   -0.0008 H   0  0  0  0  0  0  0  0  0  0  0  0
    2.0778   -3.4860    1.6189 H   0  0  0  0  0  0  0  0  0  0  0  0
    3.7062   -3.1437    0.2305 C   0  0  0  0  0  0  0  0  0  0  0  0
    3.7674   -4.2200   -0.0292 H   0  0  0  0  0  0  0  0  0  0  0  0
    3.8924   -2.5489   -0.6982 H   0  0  0  0  0  0  0  0  0  0  0  0
    4.7337   -1.5344    1.5844 C   0  0  0  0  0  0  0  0  0  0  0  0
    4.9361   -0.8656    0.7083 H   0  0  0  0  0  0  0  0  0  0  0  0
    5.5605   -1.4132    2.3145 H   0  0  0  0  0  0  0  0  0  0  0  0
    3.3922   -1.1401    2.2088 C   0  0  0  0  0  0  0  0  0  0  0  0
    3.2481   -1.7323    3.1433 H   0  0  0  0  0  0  0  0  0  0  0  0
    3.4012   -0.0711    2.4928 H   0  0  0  0  0  0  0  0  0  0  0  0
    3.1757    1.0175   -1.3746 C   0  0  0  0  0  0  0  0  0  0  0  0
    2.5805    0.3569   -2.0337 H   0  0  0  0  0  0  0  0  0  0  0  0
    4.2055    0.5900   -1.2885 H   0  0  0  0  0  0  0  0  0  0  0  0
    3.2647    2.4176   -1.9764 C   0  0  0  0  0  0  0  0  0  0  0  0
    3.8350    2.3990   -2.9268 H   0  0  0  0  0  0  0  0  0  0  0  0
    2.2296    2.7859   -2.1906 H   0  0  0  0  0  0  0  0  0  0  0  0
    3.2789    3.4062    0.1379 C   0  0  0  0  0  0  0  0  0  0  0  0
    2.2437    3.8119    0.0063 H   0  0  0  0  0  0  0  0  0  0  0  0
    3.8577    4.1166    0.7630 H   0  0  0  0  0  0  0  0  0  0  0  0
    3.1876    2.0396    0.8241 C   0  0  0  0  0  0  0  0  0  0  0  0
    4.2237    1.7024    1.0793 H   0  0  0  0  0  0  0  0  0  0  0  0
    2.6221    2.1399    1.7704 H   0  0  0  0  0  0  0  0  0  0  0  0
  1  7  1  0  0  0  0
  1 11  1  0  0  0  0
  2  9  1  0  0  0  0
  2 13  1  0  0  0  0
  3 27  1  0  0  0  0
  4 39  1  0  0  0  0
  5 54  1  0  0  0  0
  6 66  1  0  0  0  0
  7 24  1  0  0  0  0
  8  1  1  0  0  0  0
  8 36  1  0  0  0  0
  9 57  1  0  0  0  0
 10  2  1  0  0  0  0
 10 69  1  0  0  0  0
 11 12  1  1  0  0  0
 11 21  1  0  0  0  0
 13 14  1  6  0  0  0
 13 11  1  0  0  0  0
 13 15  1  0  0  0  0
 15 16  1  0  0  0  0
 15 17  1  0  0  0  0
 15 18  1  0  0  0  0
 18 19  1  0  0  0  0
 18 20  1  0  0  0  0
 21 22  1  0  0  0  0
 21 18  1  0  0  0  0
 23 21  1  0  0  0  0
 24 27  1  0  0  0  0
 24 25  1  0  0  0  0
 26 24  1  0  0  0  0
 27 28  1  0  0  0  0
 27 29  1  0  0  0  0
 30 31  1  0  0  0  0
 30  3  1  0  0  0  0
 32 30  1  0  0  0  0
 33 30  1  0  0  0  0
 33  7  1  0  0  0  0
 34 33  1  0  0  0  0
 35 33  1  0  0  0  0
 36 39  1  0  0  0  0
 36 37  1  0  0  0  0
 38 36  1  0  0  0  0
 39 40  1  0  0  0  0
 39 41  1  0  0  0  0
 42  4  1  0  0  0  0
 42 43  1  0  0  0  0
 44 42  1  0  0  0  0
 45 42  1  0  0  0  0
 45  8  1  0  0  0  0
 46 45  1  0  0  0  0
 47 45  1  0  0  0  0
 48  9  1  0  0  0  0
 48 50  1  0  0  0  0
 49 48  1  0  0  0  0
 51 48  1  0  0  0  0
 51  5  1  0  0  0  0
 52 51  1  0  0  0  0
 53 51  1  0  0  0  0
 54 57  1  0  0  0  0
 54 56  1  0  0  0  0
 55 54  1  0  0  0  0
 57 59  1  0  0  0  0
 57 58  1  0  0  0  0
 60 62  1  0  0  0  0
 60 10  1  0  0  0  0
 61 60  1  0  0  0  0
 63 60  1  0  0  0  0
 63  6  1  0  0  0  0
 64 63  1  0  0  0  0
 65 63  1  0  0  0  0
 66 68  1  0  0  0  0
 66 69  1  0  0  0  0
 67 66  1  0  0  0  0
 69 70  1  0  0  0  0
 69 71  1  0  0  0  0
M  END
