1,2
q = 0.0, confidence = 0.98

 71 76  0  0  1  0  0  0  0  0999 V2000
   -1.5496   -0.7550   -0.2049 P   0  0  0  0  0  0  0  0  0  0  0  0
    1.5504    0.7551   -0.2045 P   0  0  0  0  0  0  0  0  0  0  0  0
   -1.2772    0.1351    1.4361 C   0  0  1  0  0  3  0  0  0  0  0  0
    0.0003   -0.0001    1.7712 C   0  0  0  0  0  2  0  0  0  0  0  0
    1.2778   -0.1356    1.4361 C   0  0  1  0  0  3  0  0  0  0  0  0
   -2.2675    1.0932    1.9794 C   0  0  0  0  0  0  0  0  0  0  0  0
   -3.5784    0.6831    2.3048 C   0  0  0  0  0  0  0  0  0  0  0  0
   -3.8701   -0.3674    2.1642 H   0  0  0  0  0  0  0  0  0  0  0  0
   -4.5091    1.6071    2.7969 C   0  0  0  0  0  0  0  0  0  0  0  0
   -5.5276    1.2733    3.0459 H   0  0  0  0  0  0  0  0  0  0  0  0
   -4.1471    2.9540    2.9623 C   0  0  0  0  0  0  0  0  0  0  0  0
   -4.8829    3.6808    3.3387 H   0  0  0  0  0  0  0  0  0  0  0  0
   -2.8449    3.3707    2.6412 C   0  0  0  0  0  0  0  0  0  0  0  0
   -2.5544    4.4253    2.7630 H   0  0  0  0  0  0  0  0  0  0  0  0
   -1.9092    2.4484    2.1543 C   0  0  0  0  0  0  0  0  0  0  0  0
   -0.8937    2.7737    1.8860 H   0  0  0  0  0  0  0  0  0  0  0  0
    2.2675   -1.0948    1.9787 C   0  0  0  0  0  0  0  0  0  0  0  0
    3.5786   -0.6857    2.3046 C   0  0  0  0  0  0  0  0  0  0  0  0
    3.8710    0.3648    2.1650 H   0  0  0  0  0  0  0  0  0  0  0  0
    4.5087   -1.6107    2.7961 C   0  0  0  0  0  0  0  0  0  0  0  0
    5.5273   -1.2777    3.0456 H   0  0  0  0  0  0  0  0  0  0  0  0
    4.1459   -2.9574    2.9603 C   0  0  0  0  0  0  0  0  0  0  0  0
    4.8811   -3.6850    3.3363 H   0  0  0  0  0  0  0  0  0  0  0  0
    2.8435   -3.3731    2.6386 C   0  0  0  0  0  0  0  0  0  0  0  0
    2.5524   -4.4277    2.7594 H   0  0  0  0  0  0  0  0  0  0  0  0
    1.9084   -2.4499    2.1523 C   0  0  0  0  0  0  0  0  0  0  0  0
    0.8927   -2.7744    1.8836 H   0  0  0  0  0  0  0  0  0  0  0  0
   -3.2933   -0.4147   -0.6289 C   0  0  0  0  0  0  0  0  0  0  0  0
   -3.6152    0.8861   -1.0662 C   0  0  0  0  0  0  0  0  0  0  0  0
   -2.8148    1.6287   -1.2077 H   0  0  0  0  0  0  0  0  0  0  0  0
   -4.9485    1.2236   -1.3239 C   0  0  0  0  0  0  0  0  0  0  0  0
   -5.1983    2.2403   -1.6619 H   0  0  0  0  0  0  0  0  0  0  0  0
   -5.9623    0.2638   -1.1610 C   0  0  0  0  0  0  0  0  0  0  0  0
   -7.0098    0.5298   -1.3695 H   0  0  0  0  0  0  0  0  0  0  0  0
   -5.6386   -1.0372   -0.7460 C   0  0  0  0  0  0  0  0  0  0  0  0
   -6.4295   -1.7943   -0.6334 H   0  0  0  0  0  0  0  0  0  0  0  0
   -4.3047   -1.3806   -0.4770 C   0  0  0  0  0  0  0  0  0  0  0  0
   -4.0496   -2.4001   -0.1515 H   0  0  0  0  0  0  0  0  0  0  0  0
   -1.4471   -2.5447    0.1778 C   0  0  0  0  0  0  0  0  0  0  0  0
   -1.1091   -3.4419   -0.8568 C   0  0  0  0  0  0  0  0  0  0  0  0
   -0.9377   -3.0482   -1.8726 H   0  0  0  0  0  0  0  0  0  0  0  0
   -1.0123   -4.8134   -0.5794 C   0  0  0  0  0  0  0  0  0  0  0  0
   -0.7438   -5.5114   -1.3868 H   0  0  0  0  0  0  0  0  0  0  0  0
   -1.2515   -5.2949    0.7184 C   0  0  0  0  0  0  0  0  0  0  0  0
   -1.1682   -6.3717    0.9310 H   0  0  0  0  0  0  0  0  0  0  0  0
   -1.5975   -4.4021    1.7459 C   0  0  0  0  0  0  0  0  0  0  0  0
   -1.7874   -4.7752    2.7638 H   0  0  0  0  0  0  0  0  0  0  0  0
   -1.6953   -3.0277    1.4795 C   0  0  0  0  0  0  0  0  0  0  0  0
   -1.9457   -2.3249    2.2885 H   0  0  0  0  0  0  0  0  0  0  0  0
    3.2947    0.4168   -0.6277 C   0  0  0  0  0  0  0  0  0  0  0  0
    4.3051    1.3834   -0.4737 C   0  0  0  0  0  0  0  0  0  0  0  0
    4.0489    2.4023   -0.1473 H   0  0  0  0  0  0  0  0  0  0  0  0
    5.6396    1.0414   -0.7418 C   0  0  0  0  0  0  0  0  0  0  0  0
    6.4297    1.7991   -0.6277 H   0  0  0  0  0  0  0  0  0  0  0  0
    5.9649   -0.2588   -1.1581 C   0  0  0  0  0  0  0  0  0  0  0  0
    7.0127   -0.5237   -1.3659 H   0  0  0  0  0  0  0  0  0  0  0  0
    4.9521   -1.2192   -1.3230 C   0  0  0  0  0  0  0  0  0  0  0  0
    5.2030   -2.2354   -1.6620 H   0  0  0  0  0  0  0  0  0  0  0  0
    3.6182   -0.8833   -1.0662 C   0  0  0  0  0  0  0  0  0  0  0  0
    2.8185   -1.6264   -1.2093 H   0  0  0  0  0  0  0  0  0  0  0  0
    1.4456    2.5445    0.1784 C   0  0  0  0  0  0  0  0  0  0  0  0
    1.6942    3.0279    1.4799 C   0  0  0  0  0  0  0  0  0  0  0  0
    1.9463    2.3253    2.2886 H   0  0  0  0  0  0  0  0  0  0  0  0
    1.5944    4.4021    1.7465 C   0  0  0  0  0  0  0  0  0  0  0  0
    1.7846    4.7754    2.7642 H   0  0  0  0  0  0  0  0  0  0  0  0
    1.2462    5.2944    0.7193 C   0  0  0  0  0  0  0  0  0  0  0  0
    1.1615    6.3710    0.9320 H   0  0  0  0  0  0  0  0  0  0  0  0
    1.0067    4.8126   -0.5784 C   0  0  0  0  0  0  0  0  0  0  0  0
    0.7365    5.5102   -1.3855 H   0  0  0  0  0  0  0  0  0  0  0  0
    1.1053    3.4412   -0.8559 C   0  0  0  0  0  0  0  0  0  0  0  0
    0.9339    3.0474   -1.8716 H   0  0  0  0  0  0  0  0  0  0  0  0
  1 39  1  0  0  0  0
  1  3  1  0  0  0  0
  2 61  1  0  0  0  0
  2  5  1  0  0  0  0
  3  4  1  6  0  0  0
  3  6  1  0  0  0  0
  5  4  1  6  0  0  0
  5 17  1  0  0  0  0
  6 15  2  0  0  0  0
  6  7  1  0  0  0  0
  7  9  2  0  0  0  0
  8  7  1  0  0  0  0
  9 11  1  0  0  0  0
  9 10  1  0  0  0  0
 11 12  1  0  0  0  0
 13 14  1  0  0  0  0
 13 11  2  0  0  0  0
 15 13  1  0  0  0  0
 16 15  1  0  0  0  0
 17 26  2  0  0  0  0
 17 18  1  0  0  0  0
 18 20  2  0  0  0  0
 19 18  1  0  0  0  0
 20 22  1  0  0  0  0
 20 21  1  0  0  0  0
 22 23  1  0  0  0  0
 24 25  1  0  0  0  0
 24 22  2  0  0  0  0
 26 24  1  0  0  0  0
 27 26  1  0  0  0  0
 28 37  1  0  0  0  0
 28  1  1  0  0  0  0
 29 28  2  0  0  0  0
 30 29  1  0  0  0  0
 31 33  2  0  0  0  0
 31 29  1  0  0  0  0
 32 31  1  0  0  0  0
 33 35  1  0  0  0  0
 34 33  1  0  0  0  0
 35 36  1  0  0  0  0
 35 37  2  0  0  0  0
 37 38  1  0  0  0  0
 39 48  1  0  0  0  0
 40 42  1  0  0  0  0
 40 39  2  0  0  0  0
 41 40  1  0  0  0  0
 42 44  2  0  0  0  0
 43 42  1  0  0  0  0
 44 45  1  0  0  0  0
 44 46  1  0  0  0  0
 46 47  1  0  0  0  0
 48 46  2  0  0  0  0
 48 49  1  0  0  0  0
 50 51  1  0  0  0  0
 50  2  1  0  0  0  0
 51 52  1  0  0  0  0
 53 54  1  0  0  0  0
 53 51  2  0  0  0  0
 55 53  1  0  0  0  0
 56 55  1  0  0  0  0
 57 55  2  0  0  0  0
 57 59  1  0  0  0  0
 58 57  1  0  0  0  0
 59 50  2  0  0  0  0
 60 59  1  0  0  0  0
 61 62  1  0  0  0  0
 62 64  2  0  0  0  0
 62 63  1  0  0  0  0
 64 65  1  0  0  0  0
 66 67  1  0  0  0  0
 66 64  1  0  0  0  0
 68 66  2  0  0  0  0
 69 68  1  0  0  0  0
 70 68  1  0  0  0  0
 70 61  2  0  0  0  0
 71 70  1  0  0  0  0
M  END
