1,2
q = 0.0, confidence = 0.986

 55 58  0  0  0  0  0  0  0  0999 V2000
   -1.1581   -0.0221    0.3771 P   0  0  0  0  0  0  0  0  0  0  0  0
    2.1001    0.0691    0.3896 P   0  0  0  0  0  0  0  0  0  0  0  0
   -1.1644   -2.9613    0.6597 F   0  0  0  0  0  0  0  0  0  0  0  0
   -5.5334   -3.9391   -0.7916 F   0  0  0  0  0  0  0  0  0  0  0  0
   -4.0985    0.5308   -0.6409 F   0  0  0  0  0  0  0  0  0  0  0  0
   -0.3949    2.5983   -1.0826 F   0  0  0  0  0  0  0  0  0  0  0  0
   -3.3273    5.5185    1.1318 F   0  0  0  0  0  0  0  0  0  0  0  0
   -3.3452    0.9486    2.2485 F   0  0  0  0  0  0  0  0  0  0  0  0
   -0.5804   -0.4244    2.0999 C   0  0  0  0  0  0  0  0  0  0  0  0
   -1.4615   -0.5494    2.7578 H   0  0  0  0  0  0  0  0  0  0  0  0
   -0.0949   -1.4142    1.9933 H   0  0  0  0  0  0  0  0  0  0  0  0
    0.3935    0.6011    2.6998 C   0  0  0  0  0  0  0  0  0  0  0  0
    0.8643    0.1152    3.5789 H   0  0  0  0  0  0  0  0  0  0  0  0
   -0.1795    1.4637    3.0997 H   0  0  0  0  0  0  0  0  0  0  0  0
    1.4956    1.1569    1.7755 C   0  0  0  0  0  0  0  0  0  0  0  0
    2.3682    1.5018    2.3667 H   0  0  0  0  0  0  0  0  0  0  0  0
    1.1371    2.0487    1.2204 H   0  0  0  0  0  0  0  0  0  0  0  0
    3.4931    1.0742   -0.2464 C   0  0  0  0  0  0  0  0  0  0  0  0
    3.1928    2.1565   -1.0988 C   0  0  0  0  0  0  0  0  0  0  0  0
    2.1524    2.3339   -1.4116 H   0  0  0  0  0  0  0  0  0  0  0  0
    4.2237    2.9838   -1.5621 C   0  0  0  0  0  0  0  0  0  0  0  0
    3.9878    3.8238   -2.2327 H   0  0  0  0  0  0  0  0  0  0  0  0
    5.5549    2.7280   -1.1922 C   0  0  0  0  0  0  0  0  0  0  0  0
    6.3642    3.3718   -1.5689 H   0  0  0  0  0  0  0  0  0  0  0  0
    5.8536    1.6436   -0.3536 C   0  0  0  0  0  0  0  0  0  0  0  0
    6.8966    1.4331   -0.0722 H   0  0  0  0  0  0  0  0  0  0  0  0
    4.8253    0.8154    0.1236 C   0  0  0  0  0  0  0  0  0  0  0  0
    5.0622   -0.0416    0.7719 H   0  0  0  0  0  0  0  0  0  0  0  0
    2.8214   -1.4176    1.1762 C   0  0  0  0  0  0  0  0  0  0  0  0
    3.2572   -1.4135    2.5185 C   0  0  0  0  0  0  0  0  0  0  0  0
    3.1898   -0.4988    3.1263 H   0  0  0  0  0  0  0  0  0  0  0  0
    3.7927   -2.5798    3.0866 C   0  0  0  0  0  0  0  0  0  0  0  0
    4.1285   -2.5725    4.1346 H   0  0  0  0  0  0  0  0  0  0  0  0
    3.9006   -3.7499    2.3184 C   0  0  0  0  0  0  0  0  0  0  0  0
    4.3187   -4.6642    2.7665 H   0  0  0  0  0  0  0  0  0  0  0  0
    3.4764   -3.7526    0.9793 C   0  0  0  0  0  0  0  0  0  0  0  0
    3.5647   -4.6670    0.3735 H   0  0  0  0  0  0  0  0  0  0  0  0
    2.9350   -2.5941    0.4044 C   0  0  0  0  0  0  0  0  0  0  0  0
    2.6097   -2.5752   -0.6496 H   0  0  0  0  0  0  0  0  0  0  0  0
   -2.5827   -1.1434    0.1091 C   0  0  0  0  0  0  0  0  0  0  0  0
   -3.8373   -0.7644   -0.4104 C   0  0  0  0  0  0  0  0  0  0  0  0
   -4.8474   -1.6835   -0.7048 C   0  0  0  0  0  0  0  0  0  0  0  0
   -5.8111   -1.3423   -1.1030 H   0  0  0  0  0  0  0  0  0  0  0  0
   -4.5800   -3.0421   -0.5096 C   0  0  0  0  0  0  0  0  0  0  0  0
   -3.3443   -3.4928   -0.0326 C   0  0  0  0  0  0  0  0  0  0  0  0
   -3.1304   -4.5614    0.0929 H   0  0  0  0  0  0  0  0  0  0  0  0
   -2.3746   -2.5306    0.2494 C   0  0  0  0  0  0  0  0  0  0  0  0
   -1.8403    1.6720    0.5701 C   0  0  0  0  0  0  0  0  0  0  0  0
   -2.8462    1.9617    1.5166 C   0  0  0  0  0  0  0  0  0  0  0  0
   -3.3653    3.2382    1.7303 C   0  0  0  0  0  0  0  0  0  0  0  0
   -4.1541    3.4121    2.4730 H   0  0  0  0  0  0  0  0  0  0  0  0
   -2.8491    4.2824    0.9516 C   0  0  0  0  0  0  0  0  0  0  0  0
   -1.8503    4.0737   -0.0039 C   0  0  0  0  0  0  0  0  0  0  0  0
   -1.4547    4.9003   -0.6074 H   0  0  0  0  0  0  0  0  0  0  0  0
   -1.3638    2.7724   -0.1743 C   0  0  0  0  0  0  0  0  0  0  0  0
  1 48  1  0  0  0  0
  1  9  1  0  0  0  0
  2 29  1  0  0  0  0
  2 15  1  0  0  0  0
  4 44  1  0  0  0  0
  5 41  1  0  0  0  0
  6 55  1  0  0  0  0
  9 12  1  0  0  0  0
  9 10  1  0  0  0  0
 11  9  1  0  0  0  0
 12 14  1  0  0  0  0
 12 13  1  0  0  0  0
 15 16  1  0  0  0  0
 15 12  1  0  0  0  0
 17 15  1  0  0  0  0
 18 27  1  0  0  0  0
 18  2  1  0  0  0  0
 19 18  2  0  0  0  0
 20 19  1  0  0  0  0
 21 23  2  0  0  0  0
 21 19  1  0  0  0  0
 22 21  1  0  0  0  0
 23 25  1  0  0  0  0
 24 23  1  0  0  0  0
 25 26  1  0  0  0  0
 25 27  2  0  0  0  0
 27 28  1  0  0  0  0
 29 30  1  0  0  0  0
 30 32  2  0  0  0  0
 30 31  1  0  0  0  0
 32 33  1  0  0  0  0
 34 35  1  0  0  0  0
 34 32  1  0  0  0  0
 36 34  2  0  0  0  0
 37 36  1  0  0  0  0
 38 36  1  0  0  0  0
 38 29  2  0  0  0  0
 39 38  1  0  0  0  0
 40 47  1  0  0  0  0
 40  1  1  0  0  0  0
 41 40  2  0  0  0  0
 42 44  2  0  0  0  0
 42 41  1  0  0  0  0
 43 42  1  0  0  0  0
 44 45  1  0  0  0  0
 45 46  1  0  0  0  0
 45 47  2  0  0  0  0
 47  3  1  0  0  0  0
 48 49  1  0  0  0  0
 49 50  2  0  0  0  0
 49  8  1  0  0  0  0
 50 51  1  0  0  0  0
 52  7  1  0  0  0  0
 52 50  1  0  0  0  0
 53 52  2  0  0  0  0
 54 53  1  0  0  0  0
 55 53  1  0  0  0  0
 55 48  2  0  0  0  0
M  END
