1,2
q = 0.0, confidence = 0.98

 66 70  0  0  1  0  0  0  0  0999 V2000
   -1.3365    0.1413    0.3110 P   0  0  0  0  0  0  0  0  0  0  0  0
    1.6447    0.4540   -0.2078 P   0  0  1  0  0  0  0  0  0  0  0  0
    1.0658    0.7596    1.5766 C   0  0  2  0  0  0  0  0  0  0  0  0
   -0.2965    1.4330    1.1914 C   0  0  1  0  0  0  0  0  0  0  0  0
    0.0894    2.5539    0.1660 C   0  0  0  0  0  0  0  0  0  0  0  0
    1.6000    2.3409   -0.1704 C   0  0  1  0  0  0  0  0  0  0  0  0
    2.3721    2.6746    1.0987 C   0  0  0  0  0  0  0  0  0  0  0  0
    3.2258    3.8993    1.1776 C   0  0  0  0  0  0  0  0  0  0  0  0
    2.0492    1.7933    2.0877 C   0  0  0  0  0  0  0  0  0  0  0  0
    2.5078    1.7705    3.5099 C   0  0  0  0  0  0  0  0  0  0  0  0
    3.3516   -0.1684   -0.2064 C   0  0  0  0  0  0  0  0  0  0  0  0
    4.4862    0.6633   -0.2771 C   0  0  0  0  0  0  0  0  0  0  0  0
    5.7698    0.0978   -0.2559 C   0  0  0  0  0  0  0  0  0  0  0  0
    5.9256   -1.2940   -0.1624 C   0  0  0  0  0  0  0  0  0  0  0  0
    4.7954   -2.1258   -0.1066 C   0  0  0  0  0  0  0  0  0  0  0  0
    3.5103   -1.5694   -0.1419 C   0  0  0  0  0  0  0  0  0  0  0  0
   -1.7801   -1.1326    1.6243 C   0  0  0  0  0  0  0  0  0  0  0  0
   -3.2295   -1.6475    1.5207 C   0  0  0  0  0  0  0  0  0  0  0  0
   -3.5273   -2.6990    2.6002 C   0  0  0  0  0  0  0  0  0  0  0  0
   -2.5393   -3.8688    2.5494 C   0  0  0  0  0  0  0  0  0  0  0  0
   -1.0950   -3.3662    2.6429 C   0  0  0  0  0  0  0  0  0  0  0  0
   -0.7986   -2.3245    1.5572 C   0  0  0  0  0  0  0  0  0  0  0  0
   -2.9226    0.9475   -0.2359 C   0  0  0  0  0  0  0  0  0  0  0  0
   -3.5098    1.9162    0.8048 C   0  0  0  0  0  0  0  0  0  0  0  0
   -4.9104    2.3824    0.3773 C   0  0  0  0  0  0  0  0  0  0  0  0
   -4.8976    2.9912   -1.0309 C   0  0  0  0  0  0  0  0  0  0  0  0
   -4.2852    2.0269   -2.0552 C   0  0  0  0  0  0  0  0  0  0  0  0
   -2.8779    1.5754   -1.6417 C   0  0  0  0  0  0  0  0  0  0  0  0
    0.9618   -0.1385    2.2107 H   0  0  0  0  0  0  0  0  0  0  0  0
   -0.8147    1.8297    2.0870 H   0  0  0  0  0  0  0  0  0  0  0  0
   -0.0511    3.5614    0.6056 H   0  0  0  0  0  0  0  0  0  0  0  0
   -0.5220    2.5018   -0.7540 H   0  0  0  0  0  0  0  0  0  0  0  0
    1.9288    2.8564   -1.0908 H   0  0  0  0  0  0  0  0  0  0  0  0
    3.7108    4.0101    2.1661 H   0  0  0  0  0  0  0  0  0  0  0  0
    2.6271    4.8172    0.9879 H   0  0  0  0  0  0  0  0  0  0  0  0
    4.0246    3.8886    0.4044 H   0  0  0  0  0  0  0  0  0  0  0  0
    3.2190    2.5873    3.7372 H   0  0  0  0  0  0  0  0  0  0  0  0
    3.0089    0.8065    3.7452 H   0  0  0  0  0  0  0  0  0  0  0  0
    1.6512    1.8586    4.2134 H   0  0  0  0  0  0  0  0  0  0  0  0
    4.3728    1.7525   -0.3597 H   0  0  0  0  0  0  0  0  0  0  0  0
    6.6536    0.7504   -0.3182 H   0  0  0  0  0  0  0  0  0  0  0  0
    6.9342   -1.7344   -0.1484 H   0  0  0  0  0  0  0  0  0  0  0  0
    4.9139   -3.2184   -0.0571 H   0  0  0  0  0  0  0  0  0  0  0  0
    2.6220   -2.2192   -0.1478 H   0  0  0  0  0  0  0  0  0  0  0  0
   -1.6552   -0.6073    2.6004 H   0  0  0  0  0  0  0  0  0  0  0  0
   -3.3638   -2.0905    0.5097 H   0  0  0  0  0  0  0  0  0  0  0  0
   -3.9538   -0.8133    1.6136 H   0  0  0  0  0  0  0  0  0  0  0  0
   -3.4749   -2.2172    3.6033 H   0  0  0  0  0  0  0  0  0  0  0  0
   -4.5698   -3.0620    2.4832 H   0  0  0  0  0  0  0  0  0  0  0  0
   -2.6711   -4.4161    1.5900 H   0  0  0  0  0  0  0  0  0  0  0  0
   -2.7551   -4.5949    3.3609 H   0  0  0  0  0  0  0  0  0  0  0  0
   -0.3802   -4.2104    2.5510 H   0  0  0  0  0  0  0  0  0  0  0  0
   -0.9234   -2.9170    3.6480 H   0  0  0  0  0  0  0  0  0  0  0  0
   -0.8978   -2.7827    0.5492 H   0  0  0  0  0  0  0  0  0  0  0  0
    0.2533   -1.9805    1.6297 H   0  0  0  0  0  0  0  0  0  0  0  0
   -3.5899    0.0640   -0.3274 H   0  0  0  0  0  0  0  0  0  0  0  0
   -2.8423    2.8018    0.8987 H   0  0  0  0  0  0  0  0  0  0  0  0
   -3.5510    1.4460    1.8108 H   0  0  0  0  0  0  0  0  0  0  0  0
   -5.5988    1.5080    0.3934 H   0  0  0  0  0  0  0  0  0  0  0  0
   -5.3094    3.1091    1.1159 H   0  0  0  0  0  0  0  0  0  0  0  0
   -4.3016    3.9320   -1.0140 H   0  0  0  0  0  0  0  0  0  0  0  0
   -5.9259    3.2805   -1.3328 H   0  0  0  0  0  0  0  0  0  0  0  0
   -4.2490    2.4966   -3.0599 H   0  0  0  0  0  0  0  0  0  0  0  0
   -4.9345    1.1285   -2.1550 H   0  0  0  0  0  0  0  0  0  0  0  0
   -2.2018    2.4577   -1.6535 H   0  0  0  0  0  0  0  0  0  0  0  0
   -2.4717    0.8327   -2.3571 H   0  0  0  0  0  0  0  0  0  0  0  0
  1  4  1  0  0  0  0
  1 17  1  0  0  0  0
  2 11  1  1  0  0  0
  2  6  1  0  0  0  0
  2  3  1  0  0  0  0
  3  9  1  0  0  0  0
  3 29  1  1  0  0  0
  4  3  1  0  0  0  0
  4 30  1  1  0  0  0
  5 31  1  0  0  0  0
  5  4  1  0  0  0  0
  6 33  1  6  0  0  0
  6  5  1  0  0  0  0
  6  7  1  0  0  0  0
  7  8  1  0  0  0  0
  7  9  2  0  0  0  0
  8 34  1  0  0  0  0
  9 10  1  0  0  0  0
 10 37  1  0  0  0  0
 10 38  1  0  0  0  0
 10 39  1  0  0  0  0
 11 16  1  0  0  0  0
 12 13  1  0  0  0  0
 12 11  2  0  0  0  0
 13 14  2  0  0  0  0
 14 42  1  0  0  0  0
 14 15  1  0  0  0  0
 15 43  1  0  0  0  0
 16 15  2  0  0  0  0
 17 45  1  0  0  0  0
 18 47  1  0  0  0  0
 18 17  1  0  0  0  0
 18 19  1  0  0  0  0
 19 48  1  0  0  0  0
 20 19  1  0  0  0  0
 20 21  1  0  0  0  0
 20 51  1  0  0  0  0
 21 53  1  0  0  0  0
 22 17  1  0  0  0  0
 22 55  1  0  0  0  0
 22 21  1  0  0  0  0
 23  1  1  0  0  0  0
 23 24  1  0  0  0  0
 24 57  1  0  0  0  0
 24 58  1  0  0  0  0
 25 59  1  0  0  0  0
 25 24  1  0  0  0  0
 25 60  1  0  0  0  0
 26 61  1  0  0  0  0
 26 25  1  0  0  0  0
 27 28  1  0  0  0  0
 27 26  1  0  0  0  0
 28 23  1  0  0  0  0
 32  5  1  0  0  0  0
 35  8  1  0  0  0  0
 36  8  1  0  0  0  0
 40 12  1  0  0  0  0
 41 13  1  0  0  0  0
 44 16  1  0  0  0  0
 46 18  1  0  0  0  0
 49 19  1  0  0  0  0
 50 20  1  0  0  0  0
 52 21  1  0  0  0  0
 54 22  1  0  0  0  0
 56 23  1  0  0  0  0
 62 26  1  0  0  0  0
 63 27  1  0  0  0  0
 64 27  1  0  0  0  0
 65 28  1  0  0  0  0
 66 28  1  0  0  0  0
M  END
