1,2
q = 0.0, confidence = 1.0

 68 72  0  0  1  0  0  0  0  0999 V2000
   -1.8920    0.4598    0.2318 P   0  0  0  0  0  0  0  0  0  0  0  0
    1.2078   -1.0297   -0.0998 P   0  0  0  0  0  0  0  0  0  0  0  0
    1.3502   -0.0140    1.2369 O   0  0  0  0  0  0  0  0  0  0  0  0
   -1.2607    0.8287    1.8084 N   0  0  0  0  0  0  0  0  0  0  0  0
   -1.1661   -0.0348    2.3576 H   0  0  0  0  0  0  0  0  0  0  0  0
   -0.1100    1.7214    1.9950 C   0  0  2  0  0  0  0  0  0  0  0  0
   -0.4362    2.7534    1.7390 H   0  0  0  0  0  0  0  0  0  0  0  0
    1.0396    1.3660    1.0188 C   0  0  1  0  0  0  0  0  0  0  0  0
    0.6207    1.4843   -0.0116 H   0  0  0  0  0  0  0  0  0  0  0  0
    0.3226    1.6837    3.4575 C   0  0  0  0  0  0  0  0  0  0  0  0
   -0.5320    1.9257    4.1186 H   0  0  0  0  0  0  0  0  0  0  0  0
    1.1362    2.4105    3.6434 H   0  0  0  0  0  0  0  0  0  0  0  0
    0.6988    0.6742    3.7233 H   0  0  0  0  0  0  0  0  0  0  0  0
    2.2574    2.2543    1.1201 C   0  0  0  0  0  0  0  0  0  0  0  0
    3.4804    1.7766    1.6232 C   0  0  0  0  0  0  0  0  0  0  0  0
    3.5554    0.7229    1.9249 H   0  0  0  0  0  0  0  0  0  0  0  0
    4.5912    2.6291    1.7114 C   0  0  0  0  0  0  0  0  0  0  0  0
    5.5466    2.2399    2.0952 H   0  0  0  0  0  0  0  0  0  0  0  0
    4.4894    3.9690    1.3072 C   0  0  0  0  0  0  0  0  0  0  0  0
    5.3618    4.6363    1.3760 H   0  0  0  0  0  0  0  0  0  0  0  0
    3.2701    4.4520    0.8038 C   0  0  0  0  0  0  0  0  0  0  0  0
    3.1848    5.4984    0.4736 H   0  0  0  0  0  0  0  0  0  0  0  0
    2.1624    3.5985    0.7057 C   0  0  0  0  0  0  0  0  0  0  0  0
    1.2153    3.9759    0.2867 H   0  0  0  0  0  0  0  0  0  0  0  0
   -2.4052    2.1427   -0.2836 C   0  0  0  0  0  0  0  0  0  0  0  0
   -2.2508    2.5703   -1.6168 C   0  0  0  0  0  0  0  0  0  0  0  0
   -1.8810    1.8591   -2.3705 H   0  0  0  0  0  0  0  0  0  0  0  0
   -2.6045    3.8806   -1.9717 C   0  0  0  0  0  0  0  0  0  0  0  0
   -2.4839    4.2104   -3.0146 H   0  0  0  0  0  0  0  0  0  0  0  0
   -3.1148    4.7643   -1.0072 C   0  0  0  0  0  0  0  0  0  0  0  0
   -3.3926    5.7906   -1.2921 H   0  0  0  0  0  0  0  0  0  0  0  0
   -3.2703    4.3390    0.3224 C   0  0  0  0  0  0  0  0  0  0  0  0
   -3.6693    5.0291    1.0814 H   0  0  0  0  0  0  0  0  0  0  0  0
   -2.9123    3.0335    0.6885 C   0  0  0  0  0  0  0  0  0  0  0  0
   -3.0113    2.6947    1.7310 H   0  0  0  0  0  0  0  0  0  0  0  0
   -3.3504   -0.5177    0.7522 C   0  0  0  0  0  0  0  0  0  0  0  0
   -4.6306    0.0440    0.9023 C   0  0  0  0  0  0  0  0  0  0  0  0
   -4.8013    1.1035    0.6623 H   0  0  0  0  0  0  0  0  0  0  0  0
   -5.6943   -0.7601    1.3381 C   0  0  0  0  0  0  0  0  0  0  0  0
   -6.6987   -0.3228    1.4433 H   0  0  0  0  0  0  0  0  0  0  0  0
   -5.4832   -2.1171    1.6299 C   0  0  0  0  0  0  0  0  0  0  0  0
   -6.3222   -2.7440    1.9681 H   0  0  0  0  0  0  0  0  0  0  0  0
   -4.2055   -2.6783    1.4742 C   0  0  0  0  0  0  0  0  0  0  0  0
   -4.0389   -3.7455    1.6844 H   0  0  0  0  0  0  0  0  0  0  0  0
   -3.1409   -1.8848    1.0251 C   0  0  0  0  0  0  0  0  0  0  0  0
   -2.1470   -2.3324    0.8582 H   0  0  0  0  0  0  0  0  0  0  0  0
    2.7959   -0.7041   -0.9423 C   0  0  0  0  0  0  0  0  0  0  0  0
    2.8263    0.2221   -2.0032 C   0  0  0  0  0  0  0  0  0  0  0  0
    1.8812    0.6062   -2.4162 H   0  0  0  0  0  0  0  0  0  0  0  0
    4.0572    0.6321   -2.5327 C   0  0  0  0  0  0  0  0  0  0  0  0
    4.0805    1.3575   -3.3596 H   0  0  0  0  0  0  0  0  0  0  0  0
    5.2553    0.1114   -2.0169 C   0  0  0  0  0  0  0  0  0  0  0  0
    6.2202    0.4318   -2.4383 H   0  0  0  0  0  0  0  0  0  0  0  0
    5.2237   -0.8243   -0.9703 C   0  0  0  0  0  0  0  0  0  0  0  0
    6.1616   -1.2420   -0.5737 H   0  0  0  0  0  0  0  0  0  0  0  0
    3.9963   -1.2310   -0.4275 C   0  0  0  0  0  0  0  0  0  0  0  0
    3.9693   -1.9608    0.3963 H   0  0  0  0  0  0  0  0  0  0  0  0
    1.3573   -2.6296    0.7686 C   0  0  0  0  0  0  0  0  0  0  0  0
    1.6834   -2.6771    2.1411 C   0  0  0  0  0  0  0  0  0  0  0  0
    1.8644   -1.7426    2.6900 H   0  0  0  0  0  0  0  0  0  0  0  0
    1.7706   -3.9164    2.7934 C   0  0  0  0  0  0  0  0  0  0  0  0
    2.0254   -3.9510    3.8637 H   0  0  0  0  0  0  0  0  0  0  0  0
    1.5346   -5.1056    2.0859 C   0  0  0  0  0  0  0  0  0  0  0  0
    1.6029   -6.0756    2.6018 H   0  0  0  0  0  0  0  0  0  0  0  0
    1.2075   -5.0557    0.7207 C   0  0  0  0  0  0  0  0  0  0  0  0
    1.0173   -5.9854    0.1634 H   0  0  0  0  0  0  0  0  0  0  0  0
    1.1139   -3.8243    0.0574 C   0  0  0  0  0  0  0  0  0  0  0  0
    0.8481   -3.7683   -1.0112 H   0  0  0  0  0  0  0  0  0  0  0  0
  1 36  1  0  0  0  0
  1  4  1  0  0  0  0
  2 58  1  0  0  0  0
  2  3  1  0  0  0  0
  4  6  1  0  0  0  0
  4  5  1  0  0  0  0
  6  7  1  6  0  0  0
  6 10  1  0  0  0  0
  8  9  1  6  0  0  0
  8 14  1  0  0  0  0
  8  3  1  0  0  0  0
  8  6  1  0  0  0  0
 10 12  1  0  0  0  0
 10 13  1  0  0  0  0
 10 11  1  0  0  0  0
 14 15  1  0  0  0  0
 15 17  2  0  0  0  0
 15 16  1  0  0  0  0
 17 18  1  0  0  0  0
 19 20  1  0  0  0  0
 19 17  1  0  0  0  0
 21 19  2  0  0  0  0
 22 21  1  0  0  0  0
 23 21  1  0  0  0  0
 23 14  2  0  0  0  0
 24 23  1  0  0  0  0
 25  1  1  0  0  0  0
 25 34  1  0  0  0  0
 26 25  2  0  0  0  0
 27 26  1  0  0  0  0
 28 26  1  0  0  0  0
 28 30  2  0  0  0  0
 29 28  1  0  0  0  0
 30 32  1  0  0  0  0
 31 30  1  0  0  0  0
 32 34  2  0  0  0  0
 32 33  1  0  0  0  0
 34 35  1  0  0  0  0
 36 37  2  0  0  0  0
 36 45  1  0  0  0  0
 37 39  1  0  0  0  0
 38 37  1  0  0  0  0
 39 40  1  0  0  0  0
 39 41  2  0  0  0  0
 41 42  1  0  0  0  0
 43 41  1  0  0  0  0
 43 44  1  0  0  0  0
 45 43  2  0  0  0  0
 46 45  1  0  0  0  0
 47 56  1  0  0  0  0
 47  2  1  0  0  0  0
 48 47  2  0  0  0  0
 49 48  1  0  0  0  0
 50 52  2  0  0  0  0
 50 48  1  0  0  0  0
 51 50  1  0  0  0  0
 52 54  1  0  0  0  0
 53 52  1  0  0  0  0
 54 55  1  0  0  0  0
 54 56  2  0  0  0  0
 56 57  1  0  0  0  0
 58 59  1  0  0  0  0
 59 60  1  0  0  0  0
 59 61  2  0  0  0  0
 61 62  1  0  0  0  0
 63 64  1  0  0  0  0
 63 61  1  0  0  0  0
 65 63  2  0  0  0  0
 66 65  1  0  0  0  0
 67 65  1  0  0  0  0
 67 58  2  0  0  0  0
 68 67  1  0  0  0  0
M  END
