1,2
q = 0.0, confidence = 0.988

 64 68  0  0  1  0  0  0  0  0999 V2000
    1.7350    0.0201    0.2426 P   0  0  0  0  0  0  0  0  0  0  0  0
   -1.6885   -0.1421    0.0945 P   0  0  0  0  0  0  0  0  0  0  0  0
    1.3041    0.4871    1.7898 O   0  0  0  0  0  0  0  0  0  0  0  0
   -1.4096    0.8158    1.4333 O   0  0  0  0  0  0  0  0  0  0  0  0
    0.6955    1.7510    2.0850 C   0  0  2  0  0  0  0  0  0  0  0  0
    1.4114    2.5708    1.8380 H   0  0  0  0  0  0  0  0  0  0  0  0
    0.3981    1.7555    3.5835 C   0  0  0  0  0  0  0  0  0  0  0  0
    1.3491    1.6287    4.1391 H   0  0  0  0  0  0  0  0  0  0  0  0
   -0.2272    0.8637    3.8001 H   0  0  0  0  0  0  0  0  0  0  0  0
   -0.3396    3.0331    4.0045 C   0  0  0  0  0  0  0  0  0  0  0  0
   -0.5620    2.9968    5.0907 H   0  0  0  0  0  0  0  0  0  0  0  0
    0.3250    3.9134    3.8527 H   0  0  0  0  0  0  0  0  0  0  0  0
   -1.6282    3.2241    3.1936 C   0  0  0  0  0  0  0  0  0  0  0  0
   -2.1406    4.1632    3.4865 H   0  0  0  0  0  0  0  0  0  0  0  0
   -2.3325    2.3936    3.4153 H   0  0  0  0  0  0  0  0  0  0  0  0
   -1.3318    3.2325    1.6899 C   0  0  0  0  0  0  0  0  0  0  0  0
   -0.7057    4.1144    1.4304 H   0  0  0  0  0  0  0  0  0  0  0  0
   -2.2606    3.3084    1.0886 H   0  0  0  0  0  0  0  0  0  0  0  0
   -0.5755    1.9762    1.2551 C   0  0  2  0  0  0  0  0  0  0  0  0
   -0.2930    2.0649    0.1809 H   0  0  0  0  0  0  0  0  0  0  0  0
    2.8296    1.3855   -0.2856 C   0  0  0  0  0  0  0  0  0  0  0  0
    2.5241    2.1561   -1.4236 C   0  0  0  0  0  0  0  0  0  0  0  0
    1.6661    1.8703   -2.0510 H   0  0  0  0  0  0  0  0  0  0  0  0
    3.3289    3.2561   -1.7542 C   0  0  0  0  0  0  0  0  0  0  0  0
    3.0954    3.8534   -2.6484 H   0  0  0  0  0  0  0  0  0  0  0  0
    4.4337    3.5881   -0.9535 C   0  0  0  0  0  0  0  0  0  0  0  0
    5.0661    4.4490   -1.2190 H   0  0  0  0  0  0  0  0  0  0  0  0
    4.7366    2.8217    0.1848 C   0  0  0  0  0  0  0  0  0  0  0  0
    5.6041    3.0805    0.8107 H   0  0  0  0  0  0  0  0  0  0  0  0
    3.9356    1.7219    0.5230 C   0  0  0  0  0  0  0  0  0  0  0  0
    4.1675    1.1164    1.4130 H   0  0  0  0  0  0  0  0  0  0  0  0
    2.8050   -1.3733    0.7352 C   0  0  0  0  0  0  0  0  0  0  0  0
    2.4751   -2.1216    1.8832 C   0  0  0  0  0  0  0  0  0  0  0  0
    1.6032   -1.8377    2.4891 H   0  0  0  0  0  0  0  0  0  0  0  0
    3.2686   -3.2184    2.2486 C   0  0  0  0  0  0  0  0  0  0  0  0
    3.0101   -3.8024    3.1450 H   0  0  0  0  0  0  0  0  0  0  0  0
    4.3856   -3.5708    1.4746 C   0  0  0  0  0  0  0  0  0  0  0  0
    5.0055   -4.4333    1.7634 H   0  0  0  0  0  0  0  0  0  0  0  0
    4.7091   -2.8257    0.3293 C   0  0  0  0  0  0  0  0  0  0  0  0
    5.5807   -3.1026   -0.2826 H   0  0  0  0  0  0  0  0  0  0  0  0
    3.9204   -1.7298   -0.0483 C   0  0  0  0  0  0  0  0  0  0  0  0
    4.1506   -1.1609   -0.9599 H   0  0  0  0  0  0  0  0  0  0  0  0
   -2.4522   -1.5763    0.9184 C   0  0  0  0  0  0  0  0  0  0  0  0
   -2.8209   -2.6902    0.1347 C   0  0  0  0  0  0  0  0  0  0  0  0
   -2.6363   -2.6705   -0.9521 H   0  0  0  0  0  0  0  0  0  0  0  0
   -3.4023   -3.8058    0.7523 C   0  0  0  0  0  0  0  0  0  0  0  0
   -3.6887   -4.6749    0.1411 H   0  0  0  0  0  0  0  0  0  0  0  0
   -3.6105   -3.8206    2.1416 C   0  0  0  0  0  0  0  0  0  0  0  0
   -4.0636   -4.7016    2.6214 H   0  0  0  0  0  0  0  0  0  0  0  0
   -3.2351   -2.7141    2.9194 C   0  0  0  0  0  0  0  0  0  0  0  0
   -3.3934   -2.7249    4.0086 H   0  0  0  0  0  0  0  0  0  0  0  0
   -2.6553   -1.5889    2.3135 C   0  0  0  0  0  0  0  0  0  0  0  0
   -2.3562   -0.7187    2.9140 H   0  0  0  0  0  0  0  0  0  0  0  0
   -3.0376    0.7885   -0.7201 C   0  0  0  0  0  0  0  0  0  0  0  0
   -4.3257    0.7969   -0.1490 C   0  0  0  0  0  0  0  0  0  0  0  0
   -4.5502    0.1469    0.7108 H   0  0  0  0  0  0  0  0  0  0  0  0
   -5.3206    1.6277   -0.6844 C   0  0  0  0  0  0  0  0  0  0  0  0
   -6.3296    1.6255   -0.2447 H   0  0  0  0  0  0  0  0  0  0  0  0
   -5.0309    2.4563   -1.7811 C   0  0  0  0  0  0  0  0  0  0  0  0
   -5.8142    3.1057   -2.2010 H   0  0  0  0  0  0  0  0  0  0  0  0
   -3.7458    2.4505   -2.3478 C   0  0  0  0  0  0  0  0  0  0  0  0
   -3.5204    3.0918   -3.2132 H   0  0  0  0  0  0  0  0  0  0  0  0
   -2.7488    1.6159   -1.8236 C   0  0  0  0  0  0  0  0  0  0  0  0
   -1.7452    1.5836   -2.2742 H   0  0  0  0  0  0  0  0  0  0  0  0
  1 32  1  0  0  0  0
  1  3  1  0  0  0  0
  2 43  1  0  0  0  0
  2  4  1  0  0  0  0
  3  5  1  0  0  0  0
  5  6  1  6  0  0  0
  5  7  1  0  0  0  0
  7  9  1  0  0  0  0
  7 10  1  0  0  0  0
  7  8  1  0  0  0  0
 10 11  1  0  0  0  0
 12 10  1  0  0  0  0
 13 15  1  0  0  0  0
 13 14  1  0  0  0  0
 13 10  1  0  0  0  0
 16 13  1  0  0  0  0
 17 16  1  0  0  0  0
 18 16  1  0  0  0  0
 19 20  1  6  0  0  0
 19  4  1  0  0  0  0
 19 16  1  0  0  0  0
 19  5  1  0  0  0  0
 21  1  1  0  0  0  0
 21 30  1  0  0  0  0
 22 21  2  0  0  0  0
 23 22  1  0  0  0  0
 24 22  1  0  0  0  0
 24 26  2  0  0  0  0
 25 24  1  0  0  0  0
 26 28  1  0  0  0  0
 27 26  1  0  0  0  0
 28 30  2  0  0  0  0
 28 29  1  0  0  0  0
 30 31  1  0  0  0  0
 32 33  1  0  0  0  0
 33 35  2  0  0  0  0
 33 34  1  0  0  0  0
 35 36  1  0  0  0  0
 37 38  1  0  0  0  0
 37 35  1  0  0  0  0
 39 37  2  0  0  0  0
 40 39  1  0  0  0  0
 41 39  1  0  0  0  0
 41 32  2  0  0  0  0
 42 41  1  0  0  0  0
 43 52  1  0  0  0  0
 44 46  1  0  0  0  0
 44 43  2  0  0  0  0
 45 44  1  0  0  0  0
 46 48  2  0  0  0  0
 47 46  1  0  0  0  0
 48 49  1  0  0  0  0
 48 50  1  0  0  0  0
 50 51  1  0  0  0  0
 52 53  1  0  0  0  0
 52 50  2  0  0  0  0
 54 55  1  0  0  0  0
 54  2  1  0  0  0  0
 55 56  1  0  0  0  0
 57 58  1  0  0  0  0
 57 55  2  0  0  0  0
 59 57  1  0  0  0  0
 60 59  1  0  0  0  0
 61 63  1  0  0  0  0
 61 59  2  0  0  0  0
 62 61  1  0  0  0  0
 63 54  2  0  0  0  0
 64 63  1  0  0  0  0
M  END
