1,2
q = 0.0, confidence = 0.998

 68 70  0  0  0  0  0  0  0  0999 V2000
   -1.4504    0.7238   -0.0117 P   0  0  2  0  0  0  0  0  0  0  0  0
    1.6367    0.2703   -0.0360 P   0  0  1  0  0  0  0  0  0  0  0  0
   -1.3431    1.2507    1.7919 C   0  0  0  0  0  0  0  0  0  0  0  0
   -0.7518    2.1864    1.8141 H   0  0  0  0  0  0  0  0  0  0  0  0
   -2.3546    1.4858    2.1790 H   0  0  0  0  0  0  0  0  0  0  0  0
   -0.6839    0.1441    2.5901 C   0  0  0  0  0  0  0  0  0  0  0  0
    0.6717   -0.0219    2.5699 C   0  0  0  0  0  0  0  0  0  0  0  0
    1.5628    0.8871    1.7513 C   0  0  0  0  0  0  0  0  0  0  0  0
    2.5885    0.9277    2.1691 H   0  0  0  0  0  0  0  0  0  0  0  0
    1.1796    1.9243    1.7075 H   0  0  0  0  0  0  0  0  0  0  0  0
   -1.6470   -0.8341    3.2070 C   0  0  0  0  0  0  0  0  0  0  0  0
   -2.1077   -1.4509    2.4018 H   0  0  0  0  0  0  0  0  0  0  0  0
   -2.4724   -0.3108    3.7331 H   0  0  0  0  0  0  0  0  0  0  0  0
   -1.1730   -1.5325    3.9200 H   0  0  0  0  0  0  0  0  0  0  0  0
    1.3927   -1.1841    3.1992 C   0  0  0  0  0  0  0  0  0  0  0  0
    0.7571   -1.7859    3.8727 H   0  0  0  0  0  0  0  0  0  0  0  0
    2.2797   -0.8421    3.7740 H   0  0  0  0  0  0  0  0  0  0  0  0
    1.7693   -1.8705    2.4069 H   0  0  0  0  0  0  0  0  0  0  0  0
   -1.2600    2.3121   -1.0002 C   0  0  0  0  0  0  0  0  0  0  0  0
   -0.9706    1.9779   -2.0190 H   0  0  0  0  0  0  0  0  0  0  0  0
   -2.2575    2.7871   -1.0914 H   0  0  0  0  0  0  0  0  0  0  0  0
   -0.2626    3.2966   -0.4285 C   0  0  0  0  0  0  0  0  0  0  0  0
    1.0818    3.0676   -0.4847 C   0  0  0  0  0  0  0  0  0  0  0  0
    1.6440    1.8228   -1.1259 C   0  0  0  0  0  0  0  0  0  0  0  0
    2.6868    2.0047   -1.4546 H   0  0  0  0  0  0  0  0  0  0  0  0
    1.0689    1.5241   -2.0251 H   0  0  0  0  0  0  0  0  0  0  0  0
   -0.8974    4.5080    0.2038 C   0  0  0  0  0  0  0  0  0  0  0  0
   -0.1794    5.1796    0.7077 H   0  0  0  0  0  0  0  0  0  0  0  0
   -1.6636    4.2057    0.9507 H   0  0  0  0  0  0  0  0  0  0  0  0
   -1.4400    5.1051   -0.5617 H   0  0  0  0  0  0  0  0  0  0  0  0
    2.1333    3.9866    0.0825 C   0  0  0  0  0  0  0  0  0  0  0  0
    1.7236    4.8346    0.6599 H   0  0  0  0  0  0  0  0  0  0  0  0
    2.7654    4.4048   -0.7315 H   0  0  0  0  0  0  0  0  0  0  0  0
    2.8258    3.4264    0.7479 H   0  0  0  0  0  0  0  0  0  0  0  0
   -3.2171    0.2281   -0.3160 C   0  0  0  0  0  0  0  0  0  0  0  0
   -3.2915   -0.7121    0.2727 H   0  0  0  0  0  0  0  0  0  0  0  0
   -3.3868   -0.1768   -1.7924 C   0  0  0  0  0  0  0  0  0  0  0  0
   -3.2586    0.7164   -2.4465 H   0  0  0  0  0  0  0  0  0  0  0  0
   -2.5979   -0.9097   -2.0544 H   0  0  0  0  0  0  0  0  0  0  0  0
   -4.7774   -0.7818   -2.0222 C   0  0  0  0  0  0  0  0  0  0  0  0
   -4.9040   -1.0504   -3.0920 H   0  0  0  0  0  0  0  0  0  0  0  0
   -4.8407   -1.7330   -1.4490 H   0  0  0  0  0  0  0  0  0  0  0  0
   -5.8878    0.1769   -1.5739 C   0  0  0  0  0  0  0  0  0  0  0  0
   -6.8854   -0.2916   -1.7077 H   0  0  0  0  0  0  0  0  0  0  0  0
   -5.8771    1.0796   -2.2270 H   0  0  0  0  0  0  0  0  0  0  0  0
   -5.7000    0.6135   -0.1149 C   0  0  0  0  0  0  0  0  0  0  0  0
   -6.4837    1.3432    0.1792 H   0  0  0  0  0  0  0  0  0  0  0  0
   -5.8258   -0.2704    0.5490 H   0  0  0  0  0  0  0  0  0  0  0  0
   -4.3045    1.2141    0.1267 C   0  0  0  0  0  0  0  0  0  0  0  0
   -4.1928    1.4802    1.1991 H   0  0  0  0  0  0  0  0  0  0  0  0
   -4.2149    2.1656   -0.4462 H   0  0  0  0  0  0  0  0  0  0  0  0
    3.3867   -0.3631   -0.2529 C   0  0  0  0  0  0  0  0  0  0  0  0
    3.4145   -1.2654    0.3995 H   0  0  0  0  0  0  0  0  0  0  0  0
    3.6060   -0.8207   -1.7073 C   0  0  0  0  0  0  0  0  0  0  0  0
    2.7997   -1.5152   -2.0144 H   0  0  0  0  0  0  0  0  0  0  0  0
    3.5363    0.0628   -2.3813 H   0  0  0  0  0  0  0  0  0  0  0  0
    4.9844   -1.4725   -1.8834 C   0  0  0  0  0  0  0  0  0  0  0  0
    5.1299   -1.7715   -2.9424 H   0  0  0  0  0  0  0  0  0  0  0  0
    5.0176   -2.4110   -1.2861 H   0  0  0  0  0  0  0  0  0  0  0  0
    6.1102   -0.5368   -1.4269 C   0  0  0  0  0  0  0  0  0  0  0  0
    6.1432    0.3495   -2.1005 H   0  0  0  0  0  0  0  0  0  0  0  0
    7.0965   -1.0371   -1.5224 H   0  0  0  0  0  0  0  0  0  0  0  0
    5.8897   -0.0628    0.0147 C   0  0  0  0  0  0  0  0  0  0  0  0
    6.6851    0.6497    0.3185 H   0  0  0  0  0  0  0  0  0  0  0  0
    5.9699   -0.9337    0.7032 H   0  0  0  0  0  0  0  0  0  0  0  0
    4.5084    0.5876    0.1954 C   0  0  0  0  0  0  0  0  0  0  0  0
    4.4687    1.5233   -0.4067 H   0  0  0  0  0  0  0  0  0  0  0  0
    4.3744    0.8919    1.2540 H   0  0  0  0  0  0  0  0  0  0  0  0
  1 35  1  1  0  0  0
  1  3  1  0  0  0  0
  2 52  1  1  0  0  0
  2  8  1  0  0  0  0
  3  4  1  0  0  0  0
  3  5  1  0  0  0  0
  3  6  1  0  0  0  0
  6 11  1  0  0  0  0
  7  6  2  0  0  0  0
  7 15  1  0  0  0  0
  8  9  1  0  0  0  0
  8  7  1  0  0  0  0
 10  8  1  0  0  0  0
 11 13  1  0  0  0  0
 11 14  1  0  0  0  0
 12 11  1  0  0  0  0
 15 17  1  0  0  0  0
 15 16  1  0  0  0  0
 18 15  1  0  0  0  0
 19 22  1  0  0  0  0
 19  1  1  0  0  0  0
 20 19  1  0  0  0  0
 21 19  1  0  0  0  0
 22 27  1  0  0  0  0
 23 22  2  0  0  0  0
 23 31  1  0  0  0  0
 24 23  1  0  0  0  0
 24  2  1  0  0  0  0
 25 24  1  0  0  0  0
 26 24  1  0  0  0  0
 27 28  1  0  0  0  0
 27 29  1  0  0  0  0
 30 27  1  0  0  0  0
 31 32  1  0  0  0  0
 31 34  1  0  0  0  0
 33 31  1  0  0  0  0
 35 49  1  0  0  0  0
 35 36  1  0  0  0  0
 37 35  1  0  0  0  0
 38 37  1  0  0  0  0
 39 37  1  0  0  0  0
 40 37  1  0  0  0  0
 40 43  1  0  0  0  0
 40 42  1  0  0  0  0
 41 40  1  0  0  0  0
 43 46  1  0  0  0  0
 44 43  1  0  0  0  0
 45 43  1  0  0  0  0
 46 49  1  0  0  0  0
 46 47  1  0  0  0  0
 46 48  1  0  0  0  0
 49 50  1  0  0  0  0
 51 49  1  0  0  0  0
 52 66  1  0  0  0  0
 52 53  1  0  0  0  0
 54 52  1  0  0  0  0
 55 54  1  0  0  0  0
 56 54  1  0  0  0  0
 57 54  1  0  0  0  0
 57 60  1  0  0  0  0
 57 59  1  0  0  0  0
 58 57  1  0  0  0  0
 60 63  1  0  0  0  0
 61 60  1  0  0  0  0
 62 60  1  0  0  0  0
 63 66  1  0  0  0  0
 63 64  1  0  0  0  0
 63 65  1  0  0  0  0
 66 68  1  0  0  0  0
 67 66  1  0  0  0  0
M  END
