3,4
q = 0.0, confidence = 1.0

 68 69  0  0  0  0  0  0  0  0999 V2000
   -0.2311    1.5059   -1.3089 Si  0  0  0  0  0  0  0  0  0  0  0  0
   -0.0271    0.1242   -1.9620 H   0  0  0  0  0  0  0  0  0  0  0  0
   -1.7892   -0.9181    0.3969 P   0  0  0  0  0  0  0  0  0  0  0  0
    2.2008   -0.4012    0.0866 P   0  0  0  0  0  0  0  0  0  0  0  0
   -0.0124    2.6999   -2.7702 C   0  0  0  0  0  0  0  0  0  0  0  0
   -0.7751    2.5036   -3.5505 H   0  0  0  0  0  0  0  0  0  0  0  0
    0.9891    2.5548   -3.2220 H   0  0  0  0  0  0  0  0  0  0  0  0
   -0.0879    3.7630   -2.4634 H   0  0  0  0  0  0  0  0  0  0  0  0
   -2.0491    1.6420   -0.7453 C   0  0  0  0  0  0  0  0  0  0  0  0
   -2.7480    0.5701   -0.1260 C   0  0  0  0  0  0  0  0  0  0  0  0
   -4.1332    0.6792    0.1176 C   0  0  0  0  0  0  0  0  0  0  0  0
   -4.6824   -0.1676    0.5555 H   0  0  0  0  0  0  0  0  0  0  0  0
   -4.8279    1.8551   -0.2006 C   0  0  0  0  0  0  0  0  0  0  0  0
   -5.9087    1.9254   -0.0038 H   0  0  0  0  0  0  0  0  0  0  0  0
   -4.1399    2.9357   -0.7716 C   0  0  0  0  0  0  0  0  0  0  0  0
   -4.6756    3.8644   -1.0213 H   0  0  0  0  0  0  0  0  0  0  0  0
   -2.7699    2.8195   -1.0503 C   0  0  0  0  0  0  0  0  0  0  0  0
   -2.2569    3.6629   -1.5384 H   0  0  0  0  0  0  0  0  0  0  0  0
    1.0121    2.1176    0.0206 C   0  0  0  0  0  0  0  0  0  0  0  0
    2.0785    1.3653    0.5879 C   0  0  0  0  0  0  0  0  0  0  0  0
    2.9315    1.9590    1.5410 C   0  0  0  0  0  0  0  0  0  0  0  0
    3.7583    1.3760    1.9752 H   0  0  0  0  0  0  0  0  0  0  0  0
    2.7276    3.2821    1.9607 C   0  0  0  0  0  0  0  0  0  0  0  0
    3.3905    3.7275    2.7182 H   0  0  0  0  0  0  0  0  0  0  0  0
    1.6745    4.0306    1.4141 C   0  0  0  0  0  0  0  0  0  0  0  0
    1.5007    5.0661    1.7448 H   0  0  0  0  0  0  0  0  0  0  0  0
    0.8388    3.4537    0.4455 C   0  0  0  0  0  0  0  0  0  0  0  0
    0.0165    4.0585    0.0283 H   0  0  0  0  0  0  0  0  0  0  0  0
   -3.0987   -2.4624   -1.4924 C   0  0  0  0  0  0  0  0  0  0  0  0
   -2.1225   -2.5989   -2.0040 H   0  0  0  0  0  0  0  0  0  0  0  0
   -3.5866   -1.5499   -1.8903 H   0  0  0  0  0  0  0  0  0  0  0  0
   -3.7440   -3.3307   -1.7406 H   0  0  0  0  0  0  0  0  0  0  0  0
   -2.8860   -2.3854    0.0250 C   0  0  0  0  0  0  0  0  0  0  0  0
   -3.8624   -2.2385    0.5383 H   0  0  0  0  0  0  0  0  0  0  0  0
   -2.1982   -3.6489    0.5622 C   0  0  0  0  0  0  0  0  0  0  0  0
   -2.8009   -4.5458    0.3091 H   0  0  0  0  0  0  0  0  0  0  0  0
   -2.0742   -3.6303    1.6644 H   0  0  0  0  0  0  0  0  0  0  0  0
   -1.1991   -3.7621    0.0895 H   0  0  0  0  0  0  0  0  0  0  0  0
   -3.1093   -0.9385    2.9821 C   0  0  0  0  0  0  0  0  0  0  0  0
   -2.9651   -0.8954    4.0824 H   0  0  0  0  0  0  0  0  0  0  0  0
   -3.5821   -1.9129    2.7488 H   0  0  0  0  0  0  0  0  0  0  0  0
   -3.8222   -0.1321    2.7164 H   0  0  0  0  0  0  0  0  0  0  0  0
   -1.7658   -0.7487    2.2763 C   0  0  0  0  0  0  0  0  0  0  0  0
   -1.0830   -1.5729    2.5794 H   0  0  0  0  0  0  0  0  0  0  0  0
   -1.1093    0.5857    2.6456 C   0  0  0  0  0  0  0  0  0  0  0  0
   -1.7725    1.4378    2.3921 H   0  0  0  0  0  0  0  0  0  0  0  0
   -0.1553    0.7361    2.1052 H   0  0  0  0  0  0  0  0  0  0  0  0
   -0.9020    0.6282    3.7349 H   0  0  0  0  0  0  0  0  0  0  0  0
    3.0451    0.2615   -2.5001 C   0  0  0  0  0  0  0  0  0  0  0  0
    2.8774    1.3434   -2.3149 H   0  0  0  0  0  0  0  0  0  0  0  0
    2.1051   -0.1923   -2.8690 H   0  0  0  0  0  0  0  0  0  0  0  0
    3.8046    0.1765   -3.3046 H   0  0  0  0  0  0  0  0  0  0  0  0
    3.5338   -0.4546   -1.2380 C   0  0  0  0  0  0  0  0  0  0  0  0
    3.5731   -1.5419   -1.4688 H   0  0  0  0  0  0  0  0  0  0  0  0
    4.9022    0.0454   -0.7746 C   0  0  0  0  0  0  0  0  0  0  0  0
    5.6466   -0.0617   -1.5916 H   0  0  0  0  0  0  0  0  0  0  0  0
    5.2898   -0.5172    0.0982 H   0  0  0  0  0  0  0  0  0  0  0  0
    4.8645    1.1205   -0.5005 H   0  0  0  0  0  0  0  0  0  0  0  0
    3.2410   -2.7723    1.0502 C   0  0  0  0  0  0  0  0  0  0  0  0
    3.4960   -3.4141    1.9186 H   0  0  0  0  0  0  0  0  0  0  0  0
    4.0904   -2.8184    0.3408 H   0  0  0  0  0  0  0  0  0  0  0  0
    2.3566   -3.2042    0.5343 H   0  0  0  0  0  0  0  0  0  0  0  0
    2.9551   -1.3366    1.5208 C   0  0  0  0  0  0  0  0  0  0  0  0
    3.9087   -0.8439    1.8121 H   0  0  0  0  0  0  0  0  0  0  0  0
    1.9956   -1.3172    2.7140 C   0  0  0  0  0  0  0  0  0  0  0  0
    1.0322   -1.7917    2.4371 H   0  0  0  0  0  0  0  0  0  0  0  0
    1.7806   -0.2888    3.0648 H   0  0  0  0  0  0  0  0  0  0  0  0
    2.4259   -1.8872    3.5633 H   0  0  0  0  0  0  0  0  0  0  0  0
  1  9  1  0  0  0  0
  1 19  1  0  0  0  0
  2  1  1  0  0  0  0
  3 43  1  0  0  0  0
  4 20  1  0  0  0  0
  4 63  1  0  0  0  0
  5  8  1  0  0  0  0
  5  1  1  0  0  0  0
  6  5  1  0  0  0  0
  7  5  1  0  0  0  0
  9 10  1  0  0  0  0
 10 11  2  0  0  0  0
 10  3  1  0  0  0  0
 11 12  1  0  0  0  0
 13 14  1  0  0  0  0
 13 11  1  0  0  0  0
 15 13  2  0  0  0  0
 16 15  1  0  0  0  0
 17 15  1  0  0  0  0
 17  9  2  0  0  0  0
 18 17  1  0  0  0  0
 19 27  2  0  0  0  0
 19 20  1  0  0  0  0
 20 21  2  0  0  0  0
 21 23  1  0  0  0  0
 21 22  1  0  0  0  0
 23 24  1  0  0  0  0
 25 26  1  0  0  0  0
 25 23  2  0  0  0  0
 27 25  1  0  0  0  0
 28 27  1  0  0  0  0
 29 33  1  0  0  0  0
 30 29  1  0  0  0  0
 31 29  1  0  0  0  0
 32 29  1  0  0  0  0
 33  3  1  0  0  0  0
 33 34  1  0  0  0  0
 33 35  1  0  0  0  0
 35 37  1  0  0  0  0
 36 35  1  0  0  0  0
 38 35  1  0  0  0  0
 39 40  1  0  0  0  0
 41 39  1  0  0  0  0
 42 39  1  0  0  0  0
 43 44  1  0  0  0  0
 43 45  1  0  0  0  0
 43 39  1  0  0  0  0
 45 48  1  0  0  0  0
 46 45  1  0  0  0  0
 47 45  1  0  0  0  0
 49 50  1  0  0  0  0
 49 53  1  0  0  0  0
 51 49  1  0  0  0  0
 52 49  1  0  0  0  0
 53 55  1  0  0  0  0
 53  4  1  0  0  0  0
 54 53  1  0  0  0  0
 55 58  1  0  0  0  0
 55 57  1  0  0  0  0
 56 55  1  0  0  0  0
 59 63  1  0  0  0  0
 59 60  1  0  0  0  0
 61 59  1  0  0  0  0
 62 59  1  0  0  0  0
 63 64  1  0  0  0  0
 63 65  1  0  0  0  0
 65 67  1  0  0  0  0
 65 68  1  0  0  0  0
 66 65  1  0  0  0  0
M  END
