1,2
q = 0.0, confidence = 0.986

 78 83  0  0  1  0  0  0  0  0999 V2000
    1.5869   -0.0915   -0.1370 P   0  0  0  0  0  0  0  0  0  0  0  0
   -1.5797   -0.0227   -0.0729 P   0  0  0  0  0  0  0  0  0  0  0  0
   -0.1336    3.0865    1.5412 O   0  0  0  0  0  0  0  0  0  0  0  0
    1.4169    1.1844    0.9807 N   0  0  0  0  0  0  0  0  0  0  0  0
   -1.1440    0.7861    1.3811 N   0  0  0  0  0  0  0  0  0  0  0  0
    0.4220    1.5296    3.2832 N   0  3  1  0  0  0  0  0  0  0  0  0
    0.6325    0.5247    3.4015 H   0  0  0  0  0  0  0  0  0  0  0  0
    2.5585    2.0312    1.3569 C   0  0  0  0  0  0  0  0  0  0  0  0
    2.3353    3.0835    1.0797 H   0  0  0  0  0  0  0  0  0  0  0  0
    3.4624    1.7364    0.7959 H   0  0  0  0  0  0  0  0  0  0  0  0
    2.8417    1.9542    2.8580 C   0  0  0  0  0  0  0  0  0  0  0  0
    3.1897    0.9318    3.1250 H   0  0  0  0  0  0  0  0  0  0  0  0
    3.6671    2.6462    3.1262 H   0  0  0  0  0  0  0  0  0  0  0  0
    1.6160    2.3305    3.6777 C   0  0  0  0  0  0  0  0  0  0  0  0
    1.7878    2.2003    4.7682 H   0  0  0  0  0  0  0  0  0  0  0  0
    1.3396    3.3870    3.4929 H   0  0  0  0  0  0  0  0  0  0  0  0
   -0.7538    1.8765    4.1198 C   0  0  0  0  0  0  0  0  0  0  0  0
   -0.9735    2.9425    3.9121 H   0  0  0  0  0  0  0  0  0  0  0  0
   -0.4823    1.7765    5.1931 H   0  0  0  0  0  0  0  0  0  0  0  0
   -1.9339    1.0006    3.7431 C   0  0  0  0  0  0  0  0  0  0  0  0
   -2.8124    1.2962    4.3525 H   0  0  0  0  0  0  0  0  0  0  0  0
   -1.7150   -0.0605    3.9955 H   0  0  0  0  0  0  0  0  0  0  0  0
   -2.2825    1.1191    2.2608 C   0  0  0  0  0  0  0  0  0  0  0  0
   -3.1284    0.4382    2.0534 H   0  0  0  0  0  0  0  0  0  0  0  0
   -2.6545    2.1486    2.0500 H   0  0  0  0  0  0  0  0  0  0  0  0
   -0.6182    3.6167    0.3171 C   0  0  0  0  0  0  0  0  0  0  0  0
   -1.1919    4.5387    0.5657 H   0  0  0  0  0  0  0  0  0  0  0  0
   -1.3333    2.9112   -0.1590 H   0  0  0  0  0  0  0  0  0  0  0  0
    0.4696    3.9652   -0.6669 C   0  0  0  0  0  0  0  0  0  0  0  0
    1.1747    4.7539   -0.3443 H   0  0  0  0  0  0  0  0  0  0  0  0
    0.6121    3.3996   -1.8784 C   0  0  0  0  0  0  0  0  0  0  0  0
   -0.0533    2.5907   -2.2294 H   0  0  0  0  0  0  0  0  0  0  0  0
    1.4102    3.7122   -2.5705 H   0  0  0  0  0  0  0  0  0  0  0  0
    3.2968    0.0867   -0.7750 C   0  0  0  0  0  0  0  0  0  0  0  0
    3.5477    1.0521   -1.7725 C   0  0  0  0  0  0  0  0  0  0  0  0
    2.7110    1.6336   -2.1836 H   0  0  0  0  0  0  0  0  0  0  0  0
    4.8523    1.2534   -2.2370 C   0  0  0  0  0  0  0  0  0  0  0  0
    5.0425    2.0054   -3.0175 H   0  0  0  0  0  0  0  0  0  0  0  0
    5.9110    0.4803   -1.7287 C   0  0  0  0  0  0  0  0  0  0  0  0
    6.9339    0.6319   -2.1060 H   0  0  0  0  0  0  0  0  0  0  0  0
    5.6609   -0.4931   -0.7508 C   0  0  0  0  0  0  0  0  0  0  0  0
    6.4846   -1.1089   -0.3588 H   0  0  0  0  0  0  0  0  0  0  0  0
    4.3553   -0.6911   -0.2709 C   0  0  0  0  0  0  0  0  0  0  0  0
    4.1606   -1.4585    0.4927 H   0  0  0  0  0  0  0  0  0  0  0  0
    1.6251   -1.6911    0.7821 C   0  0  0  0  0  0  0  0  0  0  0  0
    1.3806   -2.8745    0.0534 C   0  0  0  0  0  0  0  0  0  0  0  0
    1.2100   -2.8104   -1.0346 H   0  0  0  0  0  0  0  0  0  0  0  0
    1.3557   -4.1090    0.7159 C   0  0  0  0  0  0  0  0  0  0  0  0
    1.1531   -5.0270    0.1443 H   0  0  0  0  0  0  0  0  0  0  0  0
    1.5702   -4.1750    2.1032 C   0  0  0  0  0  0  0  0  0  0  0  0
    1.5376   -5.1460    2.6203 H   0  0  0  0  0  0  0  0  0  0  0  0
    1.8230   -3.0011    2.8299 C   0  0  0  0  0  0  0  0  0  0  0  0
    2.0011   -3.0500    3.9154 H   0  0  0  0  0  0  0  0  0  0  0  0
    1.8495   -1.7630    2.1683 C   0  0  0  0  0  0  0  0  0  0  0  0
    2.0647   -0.8385    2.7263 H   0  0  0  0  0  0  0  0  0  0  0  0
   -3.2189    0.6614   -0.5776 C   0  0  0  0  0  0  0  0  0  0  0  0
   -3.2667    1.7660   -1.4526 C   0  0  0  0  0  0  0  0  0  0  0  0
   -2.3385    2.1455   -1.9005 H   0  0  0  0  0  0  0  0  0  0  0  0
   -4.4955    2.3449   -1.7948 C   0  0  0  0  0  0  0  0  0  0  0  0
   -4.5183    3.2027   -2.4836 H   0  0  0  0  0  0  0  0  0  0  0  0
   -5.6928    1.8123   -1.2891 C   0  0  0  0  0  0  0  0  0  0  0  0
   -6.6581    2.2610   -1.5689 H   0  0  0  0  0  0  0  0  0  0  0  0
   -5.6558    0.6929   -0.4446 C   0  0  0  0  0  0  0  0  0  0  0  0
   -6.5908    0.2562   -0.0617 H   0  0  0  0  0  0  0  0  0  0  0  0
   -4.4246    0.1182   -0.0910 C   0  0  0  0  0  0  0  0  0  0  0  0
   -4.4054   -0.7734    0.5543 H   0  0  0  0  0  0  0  0  0  0  0  0
   -1.9720   -1.7485    0.4368 C   0  0  0  0  0  0  0  0  0  0  0  0
   -2.4937   -2.6371   -0.5295 C   0  0  0  0  0  0  0  0  0  0  0  0
   -2.6854   -2.2696   -1.5521 H   0  0  0  0  0  0  0  0  0  0  0  0
   -2.7211   -3.9770   -0.1889 C   0  0  0  0  0  0  0  0  0  0  0  0
   -3.1245   -4.6670   -0.9457 H   0  0  0  0  0  0  0  0  0  0  0  0
   -2.4235   -4.4437    1.1037 C   0  0  0  0  0  0  0  0  0  0  0  0
   -2.5980   -5.4992    1.3629 H   0  0  0  0  0  0  0  0  0  0  0  0
   -1.8896   -3.5646    2.0576 C   0  0  0  0  0  0  0  0  0  0  0  0
   -1.6343   -3.9275    3.0647 H   0  0  0  0  0  0  0  0  0  0  0  0
   -1.6616   -2.2206    1.7242 C   0  0  0  0  0  0  0  0  0  0  0  0
   -1.2105   -1.5334    2.4534 H   0  0  0  0  0  0  0  0  0  0  0  0
    0.1012    1.6571    1.6129 B   0  0  2  0  0  0  0  0  0  0  0  0
  1 45  1  0  0  0  0
  1  4  1  0  0  0  0
  2 67  1  0  0  0  0
  2  5  1  0  0  0  0
  4  8  1  0  0  0  0
  4 78  1  0  0  0  0
  5 78  1  0  0  0  0
  5 23  1  0  0  0  0
  6  7  1  1  0  0  0
  6 14  1  0  0  0  0
  6 17  1  0  0  0  0
  8 11  1  0  0  0  0
  9  8  1  0  0  0  0
 10  8  1  0  0  0  0
 11 12  1  0  0  0  0
 11 13  1  0  0  0  0
 11 14  1  0  0  0  0
 14 15  1  0  0  0  0
 16 14  1  0  0  0  0
 17 19  1  0  0  0  0
 18 17  1  0  0  0  0
 20 22  1  0  0  0  0
 20 17  1  0  0  0  0
 20 21  1  0  0  0  0
 23 20  1  0  0  0  0
 24 23  1  0  0  0  0
 25 23  1  0  0  0  0
 26 27  1  0  0  0  0
 26  3  1  0  0  0  0
 28 26  1  0  0  0  0
 29 30  1  0  0  0  0
 29 26  1  0  0  0  0
 31 29  2  0  0  0  0
 32 31  1  0  0  0  0
 33 31  1  0  0  0  0
 34 43  1  0  0  0  0
 34  1  1  0  0  0  0
 35 34  2  0  0  0  0
 36 35  1  0  0  0  0
 37 35  1  0  0  0  0
 37 39  2  0  0  0  0
 38 37  1  0  0  0  0
 39 41  1  0  0  0  0
 40 39  1  0  0  0  0
 41 42  1  0  0  0  0
 41 43  2  0  0  0  0
 43 44  1  0  0  0  0
 45 54  1  0  0  0  0
 46 48  1  0  0  0  0
 46 45  2  0  0  0  0
 47 46  1  0  0  0  0
 48 50  2  0  0  0  0
 49 48  1  0  0  0  0
 50 51  1  0  0  0  0
 50 52  1  0  0  0  0
 52 53  1  0  0  0  0
 54 55  1  0  0  0  0
 54 52  2  0  0  0  0
 56 65  1  0  0  0  0
 56  2  1  0  0  0  0
 57 56  2  0  0  0  0
 58 57  1  0  0  0  0
 59 57  1  0  0  0  0
 59 61  2  0  0  0  0
 60 59  1  0  0  0  0
 61 63  1  0  0  0  0
 62 61  1  0  0  0  0
 63 65  2  0  0  0  0
 63 64  1  0  0  0  0
 65 66  1  0  0  0  0
 67 76  1  0  0  0  0
 68 70  1  0  0  0  0
 68 67  2  0  0  0  0
 69 68  1  0  0  0  0
 70 72  2  0  0  0  0
 71 70  1  0  0  0  0
 72 73  1  0  0  0  0
 72 74  1  0  0  0  0
 74 75  1  0  0  0  0
 76 74  2  0  0  0  0
 76 77  1  0  0  0  0
 78  3  1  6  0  0  0
 78  6  1  0  0  0  0
M  CHG  1   6   1
M  END
