2,3
q = 0.0, confidence = 0.996

 61 64  0  0  0  0  0  0  0  0999 V2000
    5.5307   -0.6813   -0.2420 S   0  0  0  0  0  0  0  0  0  0  0  0
    0.3770   -1.1058    0.1425 P   0  0  0  0  0  0  0  0  0  0  0  0
   -0.2037    1.4426    0.0299 P   0  0  0  0  0  0  0  0  0  0  0  0
    1.1966    0.4256    0.1727 N   0  0  0  0  0  0  0  0  0  0  0  0
    0.0371    2.4956   -1.4435 C   0  0  0  0  0  0  0  0  0  0  0  0
    0.5598    1.9004   -2.6120 C   0  0  0  0  0  0  0  0  0  0  0  0
    0.8884    0.8497   -2.5880 H   0  0  0  0  0  0  0  0  0  0  0  0
    0.6514    2.6410   -3.7969 C   0  0  0  0  0  0  0  0  0  0  0  0
    1.0661    2.1725   -4.7023 H   0  0  0  0  0  0  0  0  0  0  0  0
    0.2040    3.9733   -3.8328 C   0  0  0  0  0  0  0  0  0  0  0  0
    0.2716    4.5520   -4.7665 H   0  0  0  0  0  0  0  0  0  0  0  0
   -0.3412    4.5598   -2.6806 C   0  0  0  0  0  0  0  0  0  0  0  0
   -0.7053    5.5980   -2.7085 H   0  0  0  0  0  0  0  0  0  0  0  0
   -0.4292    3.8251   -1.4879 C   0  0  0  0  0  0  0  0  0  0  0  0
   -0.8670    4.2857   -0.5897 H   0  0  0  0  0  0  0  0  0  0  0  0
   -0.1546    2.5691    1.4689 C   0  0  0  0  0  0  0  0  0  0  0  0
    0.8134    3.5886    1.6035 C   0  0  0  0  0  0  0  0  0  0  0  0
    1.5090    3.8040    0.7774 H   0  0  0  0  0  0  0  0  0  0  0  0
    0.8735    4.3420    2.7853 C   0  0  0  0  0  0  0  0  0  0  0  0
    1.6287    5.1356    2.8914 H   0  0  0  0  0  0  0  0  0  0  0  0
   -0.0335    4.0882    3.8284 C   0  0  0  0  0  0  0  0  0  0  0  0
    0.0136    4.6851    4.7521 H   0  0  0  0  0  0  0  0  0  0  0  0
   -1.0051    3.0837    3.6907 C   0  0  0  0  0  0  0  0  0  0  0  0
   -1.7250    2.8953    4.5014 H   0  0  0  0  0  0  0  0  0  0  0  0
   -1.0670    2.3206    2.5151 C   0  0  0  0  0  0  0  0  0  0  0  0
   -1.8332    1.5396    2.3754 H   0  0  0  0  0  0  0  0  0  0  0  0
    1.1016   -2.0645   -1.2361 C   0  0  0  0  0  0  0  0  0  0  0  0
    0.3073   -2.2596   -2.3842 C   0  0  0  0  0  0  0  0  0  0  0  0
   -0.7481   -1.9396   -2.3613 H   0  0  0  0  0  0  0  0  0  0  0  0
    0.8630   -2.8729   -3.5179 C   0  0  0  0  0  0  0  0  0  0  0  0
    0.2400   -3.0352   -4.4105 H   0  0  0  0  0  0  0  0  0  0  0  0
    2.2083   -3.2756   -3.5129 C   0  0  0  0  0  0  0  0  0  0  0  0
    2.6441   -3.7468   -4.4073 H   0  0  0  0  0  0  0  0  0  0  0  0
    3.0001   -3.0839   -2.3670 C   0  0  0  0  0  0  0  0  0  0  0  0
    4.0568   -3.3910   -2.3614 H   0  0  0  0  0  0  0  0  0  0  0  0
    2.4476   -2.4897   -1.2239 C   0  0  0  0  0  0  0  0  0  0  0  0
    3.0707   -2.3495   -0.3269 H   0  0  0  0  0  0  0  0  0  0  0  0
    0.9049   -1.9596    1.6668 C   0  0  0  0  0  0  0  0  0  0  0  0
    1.0741   -1.2027    2.8459 C   0  0  0  0  0  0  0  0  0  0  0  0
    0.9563   -0.1081    2.8132 H   0  0  0  0  0  0  0  0  0  0  0  0
    1.3834   -1.8443    4.0521 C   0  0  0  0  0  0  0  0  0  0  0  0
    1.5215   -1.2485    4.9671 H   0  0  0  0  0  0  0  0  0  0  0  0
    1.5088   -3.2433    4.0953 C   0  0  0  0  0  0  0  0  0  0  0  0
    1.7475   -3.7456    5.0450 H   0  0  0  0  0  0  0  0  0  0  0  0
    1.3227   -4.0000    2.9279 C   0  0  0  0  0  0  0  0  0  0  0  0
    1.4119   -5.0964    2.9602 H   0  0  0  0  0  0  0  0  0  0  0  0
    1.0213   -3.3634    1.7147 C   0  0  0  0  0  0  0  0  0  0  0  0
    0.8733   -3.9590    0.8013 H   0  0  0  0  0  0  0  0  0  0  0  0
    2.6025    0.7185    0.4011 C   0  0  0  0  0  0  0  0  0  0  0  0
    3.0473   -0.1464    0.9397 H   0  0  0  0  0  0  0  0  0  0  0  0
    2.6825    1.5799    1.1022 H   0  0  0  0  0  0  0  0  0  0  0  0
    3.4177    0.9968   -0.8709 C   0  0  0  0  0  0  0  0  0  0  0  0
    3.1788    0.2252   -1.6328 H   0  0  0  0  0  0  0  0  0  0  0  0
    3.1130    1.9696   -1.3098 H   0  0  0  0  0  0  0  0  0  0  0  0
    4.9245    1.0133   -0.6106 C   0  0  0  0  0  0  0  0  0  0  0  0
    5.1664    1.6674    0.2563 H   0  0  0  0  0  0  0  0  0  0  0  0
    5.4705    1.4090   -1.4922 H   0  0  0  0  0  0  0  0  0  0  0  0
    7.1817   -0.2825    0.4021 C   0  0  0  0  0  0  0  0  0  0  0  0
    7.1207    0.3447    1.3150 H   0  0  0  0  0  0  0  0  0  0  0  0
    7.8016    0.2314   -0.3605 H   0  0  0  0  0  0  0  0  0  0  0  0
    7.6668   -1.2427    0.6627 H   0  0  0  0  0  0  0  0  0  0  0  0
  1 58  1  0  0  0  0
  2  4  1  0  0  0  0
  2 38  1  0  0  0  0
  3  4  1  0  0  0  0
  3 16  1  0  0  0  0
  4 49  1  0  0  0  0
  5  3  1  0  0  0  0
  6  7  1  0  0  0  0
  6  5  2  0  0  0  0
  8  6  1  0  0  0  0
  9  8  1  0  0  0  0
 10  8  2  0  0  0  0
 10 12  1  0  0  0  0
 11 10  1  0  0  0  0
 12 14  2  0  0  0  0
 13 12  1  0  0  0  0
 14  5  1  0  0  0  0
 14 15  1  0  0  0  0
 16 17  2  0  0  0  0
 16 25  1  0  0  0  0
 17 19  1  0  0  0  0
 18 17  1  0  0  0  0
 19 20  1  0  0  0  0
 19 21  2  0  0  0  0
 21 22  1  0  0  0  0
 23 21  1  0  0  0  0
 23 24  1  0  0  0  0
 25 23  2  0  0  0  0
 26 25  1  0  0  0  0
 27 36  1  0  0  0  0
 27  2  1  0  0  0  0
 28 29  1  0  0  0  0
 28 27  2  0  0  0  0
 30 32  2  0  0  0  0
 30 28  1  0  0  0  0
 31 30  1  0  0  0  0
 32 34  1  0  0  0  0
 33 32  1  0  0  0  0
 34 35  1  0  0  0  0
 34 36  2  0  0  0  0
 36 37  1  0  0  0  0
 38 47  2  0  0  0  0
 38 39  1  0  0  0  0
 39 41  2  0  0  0  0
 40 39  1  0  0  0  0
 41 43  1  0  0  0  0
 41 42  1  0  0  0  0
 43 44  1  0  0  0  0
 45 46  1  0  0  0  0
 45 43  2  0  0  0  0
 47 45  1  0  0  0  0
 48 47  1  0  0  0  0
 49 50  1  0  0  0  0
 49 51  1  0  0  0  0
 52 55  1  0  0  0  0
 52 49  1  0  0  0  0
 53 52  1  0  0  0  0
 54 52  1  0  0  0  0
 55  1  1  0  0  0  0
 55 56  1  0  0  0  0
 57 55  1  0  0  0  0
 58 61  1  0  0  0  0
 58 59  1  0  0  0  0
 60 58  1  0  0  0  0
M  END
