1,2
q = 0.0, confidence = 0.992

 45 48  0  0  0  0  0  0  0  0999 V2000
   -1.6888    0.4394    0.7249 P   0  0  1  0  0  0  0  0  0  0  0  0
    0.9114   -0.3605   -0.7680 P   0  0  0  0  0  0  0  0  0  0  0  0
   -2.1923    0.8696    2.2791 O   0  0  0  0  0  0  0  0  0  0  0  0
   -2.5838    1.5827   -1.6875 C   0  0  0  0  0  0  0  0  0  0  0  0
   -1.6928    1.1133   -2.1333 H   0  0  0  0  0  0  0  0  0  0  0  0
   -3.4553    2.3306   -2.4911 C   0  0  0  0  0  0  0  0  0  0  0  0
   -3.2434    2.4479   -3.5647 H   0  0  0  0  0  0  0  0  0  0  0  0
   -4.6002    2.9203   -1.9290 C   0  0  0  0  0  0  0  0  0  0  0  0
   -5.2881    3.5000   -2.5630 H   0  0  0  0  0  0  0  0  0  0  0  0
   -4.8678    2.7651   -0.5599 C   0  0  0  0  0  0  0  0  0  0  0  0
   -5.7669    3.2215   -0.1183 H   0  0  0  0  0  0  0  0  0  0  0  0
   -3.9922    2.0265    0.2520 C   0  0  0  0  0  0  0  0  0  0  0  0
   -4.1891    1.8977    1.3269 H   0  0  0  0  0  0  0  0  0  0  0  0
   -2.8472    1.4329   -0.3113 C   0  0  0  0  0  0  0  0  0  0  0  0
   -1.4082    1.9301    2.8704 C   0  0  0  0  0  0  0  0  0  0  0  0
   -0.7283    1.4784    3.6254 H   0  0  0  0  0  0  0  0  0  0  0  0
   -2.1054    2.6172    3.3918 H   0  0  0  0  0  0  0  0  0  0  0  0
   -0.5872    2.6524    1.7779 C   0  0  0  0  0  0  0  0  0  0  0  0
   -1.2157    3.4184    1.2733 H   0  0  0  0  0  0  0  0  0  0  0  0
    0.3056    3.1615    2.1925 H   0  0  0  0  0  0  0  0  0  0  0  0
   -0.2329    1.5649    0.8055 C   0  0  0  0  0  0  0  0  0  0  0  0
    0.9272    1.2695    0.1733 C   0  0  0  0  0  0  0  0  0  0  0  0
    2.1077    2.1651    0.1693 C   0  0  0  0  0  0  0  0  0  0  0  0
    2.0112    3.4376   -0.4388 C   0  0  0  0  0  0  0  0  0  0  0  0
    1.0603    3.7339   -0.9081 H   0  0  0  0  0  0  0  0  0  0  0  0
    3.1116    4.3063   -0.4561 C   0  0  0  0  0  0  0  0  0  0  0  0
    3.0216    5.2919   -0.9379 H   0  0  0  0  0  0  0  0  0  0  0  0
    4.3226    3.9204    0.1402 C   0  0  0  0  0  0  0  0  0  0  0  0
    5.1865    4.6022    0.1277 H   0  0  0  0  0  0  0  0  0  0  0  0
    4.4261    2.6624    0.7552 C   0  0  0  0  0  0  0  0  0  0  0  0
    5.3700    2.3558    1.2308 H   0  0  0  0  0  0  0  0  0  0  0  0
    3.3316    1.7869    0.7666 C   0  0  0  0  0  0  0  0  0  0  0  0
    3.4183    0.8045    1.2515 H   0  0  0  0  0  0  0  0  0  0  0  0
    2.6626   -0.9126   -0.7569 C   0  0  0  0  0  0  0  0  0  0  0  0
    3.0831   -1.8661    0.1916 C   0  0  0  0  0  0  0  0  0  0  0  0
    2.3512   -2.3058    0.8847 H   0  0  0  0  0  0  0  0  0  0  0  0
    4.4296   -2.2551    0.2480 C   0  0  0  0  0  0  0  0  0  0  0  0
    4.7506   -3.0000    0.9916 H   0  0  0  0  0  0  0  0  0  0  0  0
    5.3604   -1.7054   -0.6484 C   0  0  0  0  0  0  0  0  0  0  0  0
    6.4152   -2.0166   -0.6064 H   0  0  0  0  0  0  0  0  0  0  0  0
    4.9429   -0.7666   -1.6057 C   0  0  0  0  0  0  0  0  0  0  0  0
    5.6684   -0.3381   -2.3136 H   0  0  0  0  0  0  0  0  0  0  0  0
    3.5996   -0.3690   -1.6597 C   0  0  0  0  0  0  0  0  0  0  0  0
    3.2785    0.3785   -2.4014 H   0  0  0  0  0  0  0  0  0  0  0  0
    0.8789    0.1531   -2.1104 H   0  0  0  0  0  0  0  0  0  0  0  0
  1 14  1  6  0  0  0
  1 21  1  0  0  0  0
  1  3  1  0  0  0  0
  2 34  1  0  0  0  0
  2 22  1  0  0  0  0
  3 15  1  0  0  0  0
  4 14  1  0  0  0  0
  5  4  1  0  0  0  0
  6  8  1  0  0  0  0
  6  4  2  0  0  0  0
  7  6  1  0  0  0  0
  8 10  2  0  0  0  0
  9  8  1  0  0  0  0
 10 11  1  0  0  0  0
 10 12  1  0  0  0  0
 12 13  1  0  0  0  0
 14 12  2  0  0  0  0
 15 17  1  0  0  0  0
 15 16  1  0  0  0  0
 18 20  1  0  0  0  0
 18 15  1  0  0  0  0
 19 18  1  0  0  0  0
 21 18  1  0  0  0  0
 22 21  2  0  0  0  0
 23 22  1  0  0  0  0
 23 32  1  0  0  0  0
 24 23  2  0  0  0  0
 25 24  1  0  0  0  0
 26 24  1  0  0  0  0
 26 28  2  0  0  0  0
 27 26  1  0  0  0  0
 28 30  1  0  0  0  0
 29 28  1  0  0  0  0
 30 32  2  0  0  0  0
 30 31  1  0  0  0  0
 32 33  1  0  0  0  0
 34 35  1  0  0  0  0
 35 37  2  0  0  0  0
 35 36  1  0  0  0  0
 37 38  1  0  0  0  0
 39 40  1  0  0  0  0
 39 37  1  0  0  0  0
 41 39  2  0  0  0  0
 42 41  1  0  0  0  0
 43 41  1  0  0  0  0
 43 34  2  0  0  0  0
 44 43  1  0  0  0  0
 45  2  1  0  0  0  0
M  END
