1,2
q = 0.0, confidence = 0.994

 76 80  0  0  0  0  0  0  0  0999 V2000
   -0.5327   -1.7383   -0.5628 P   0  0  0  0  0  0  0  0  0  0  0  0
   -0.9816    1.3970    0.7121 P   0  0  0  0  0  0  0  0  0  0  0  0
    0.6603   -3.0880   -1.0442 C   0  0  0  0  0  0  0  0  0  0  0  0
    0.0841   -4.0337   -0.9973 H   0  0  0  0  0  0  0  0  0  0  0  0
    0.9035   -2.8730   -2.1046 H   0  0  0  0  0  0  0  0  0  0  0  0
    1.9219   -3.2227   -0.2001 C   0  0  0  0  0  0  0  0  0  0  0  0
    1.6841   -3.5246    0.8410 H   0  0  0  0  0  0  0  0  0  0  0  0
    2.5321   -4.0599   -0.6139 H   0  0  0  0  0  0  0  0  0  0  0  0
    2.6942   -1.9964   -0.1657 N   0  0  0  0  0  0  0  0  0  0  0  0
    2.5647   -1.3306   -0.9444 H   0  0  0  0  0  0  0  0  0  0  0  0
    3.8544   -1.9573    0.5693 C   0  0  0  0  0  0  0  0  0  0  0  0
    4.2238   -2.8872    1.2841 O   0  0  0  0  0  0  0  0  0  0  0  0
    4.6869   -0.7199    0.3266 C   0  0  0  0  0  0  0  0  0  0  0  0
    5.9437   -0.9138   -0.2734 C   0  0  0  0  0  0  0  0  0  0  0  0
    6.2747   -1.9429   -0.4789 H   0  0  0  0  0  0  0  0  0  0  0  0
    6.7534    0.1771   -0.6181 C   0  0  0  0  0  0  0  0  0  0  0  0
    7.7308    0.0071   -1.0945 H   0  0  0  0  0  0  0  0  0  0  0  0
    6.3110    1.4821   -0.3556 C   0  0  0  0  0  0  0  0  0  0  0  0
    6.9384    2.3463   -0.6208 H   0  0  0  0  0  0  0  0  0  0  0  0
    5.0736    1.6833    0.2695 C   0  0  0  0  0  0  0  0  0  0  0  0
    4.7465    2.7019    0.5250 H   0  0  0  0  0  0  0  0  0  0  0  0
    4.2505    0.5935    0.6248 C   0  0  0  0  0  0  0  0  0  0  0  0
    3.0277    0.8452    1.4718 C   0  0  0  0  0  0  0  0  0  0  0  0
    2.7273    0.1140    2.4266 O   0  0  0  0  0  0  0  0  0  0  0  0
    2.3545    1.9991    1.1751 N   0  0  0  0  0  0  0  0  0  0  0  0
    2.3689    2.3403    0.2007 H   0  0  0  0  0  0  0  0  0  0  0  0
    1.3145    2.5373    2.0237 C   0  0  0  0  0  0  0  0  0  0  0  0
    1.0425    3.5320    1.6177 H   0  0  0  0  0  0  0  0  0  0  0  0
    1.7367    2.6936    3.0397 H   0  0  0  0  0  0  0  0  0  0  0  0
    0.0535    1.6755    2.2094 C   0  0  0  0  0  0  0  0  0  0  0  0
   -0.5855    2.1365    2.9901 H   0  0  0  0  0  0  0  0  0  0  0  0
    0.3568    0.6742    2.5735 H   0  0  0  0  0  0  0  0  0  0  0  0
   -2.0000   -2.1815   -1.5770 C   0  0  0  0  0  0  0  0  0  0  0  0
   -2.4967   -1.2351   -2.4960 C   0  0  0  0  0  0  0  0  0  0  0  0
   -1.9974   -0.2546   -2.5658 H   0  0  0  0  0  0  0  0  0  0  0  0
   -3.5912   -1.5480   -3.3150 C   0  0  0  0  0  0  0  0  0  0  0  0
   -3.9662   -0.8020   -4.0317 H   0  0  0  0  0  0  0  0  0  0  0  0
   -4.1979   -2.8106   -3.2267 C   0  0  0  0  0  0  0  0  0  0  0  0
   -5.0582   -3.0561   -3.8678 H   0  0  0  0  0  0  0  0  0  0  0  0
   -3.6934   -3.7679   -2.3316 C   0  0  0  0  0  0  0  0  0  0  0  0
   -4.1540   -4.7656   -2.2719 H   0  0  0  0  0  0  0  0  0  0  0  0
   -2.5940   -3.4607   -1.5165 C   0  0  0  0  0  0  0  0  0  0  0  0
   -2.1998   -4.2284   -0.8338 H   0  0  0  0  0  0  0  0  0  0  0  0
   -0.8766   -2.1521    1.1924 C   0  0  0  0  0  0  0  0  0  0  0  0
   -2.0502   -2.7810    1.6497 C   0  0  0  0  0  0  0  0  0  0  0  0
   -2.8840   -2.9744    0.9612 H   0  0  0  0  0  0  0  0  0  0  0  0
   -2.1785   -3.1204    3.0049 C   0  0  0  0  0  0  0  0  0  0  0  0
   -3.1048   -3.6001    3.3556 H   0  0  0  0  0  0  0  0  0  0  0  0
   -1.1456   -2.8338    3.9116 C   0  0  0  0  0  0  0  0  0  0  0  0
   -1.2529   -3.1046    4.9731 H   0  0  0  0  0  0  0  0  0  0  0  0
    0.0206   -2.1950    3.4608 C   0  0  0  0  0  0  0  0  0  0  0  0
    0.8416   -1.9552    4.1530 H   0  0  0  0  0  0  0  0  0  0  0  0
    0.1585   -1.8549    2.1073 C   0  0  0  0  0  0  0  0  0  0  0  0
    1.0798   -1.3476    1.7771 H   0  0  0  0  0  0  0  0  0  0  0  0
   -2.4921    0.5570    1.3545 C   0  0  0  0  0  0  0  0  0  0  0  0
   -2.7032    0.2834    2.7187 C   0  0  0  0  0  0  0  0  0  0  0  0
   -1.9223    0.4909    3.4625 H   0  0  0  0  0  0  0  0  0  0  0  0
   -3.9101   -0.2956    3.1402 C   0  0  0  0  0  0  0  0  0  0  0  0
   -4.0605   -0.5133    4.2083 H   0  0  0  0  0  0  0  0  0  0  0  0
   -4.9093   -0.6132    2.2086 C   0  0  0  0  0  0  0  0  0  0  0  0
   -5.8516   -1.0720    2.5442 H   0  0  0  0  0  0  0  0  0  0  0  0
   -4.7009   -0.3459    0.8453 C   0  0  0  0  0  0  0  0  0  0  0  0
   -5.4752   -0.5942    0.1037 H   0  0  0  0  0  0  0  0  0  0  0  0
   -3.5031    0.2436    0.4226 C   0  0  0  0  0  0  0  0  0  0  0  0
   -3.3512    0.4649   -0.6433 H   0  0  0  0  0  0  0  0  0  0  0  0
   -1.7185    3.0242    0.2621 C   0  0  0  0  0  0  0  0  0  0  0  0
   -1.9796    3.9957    1.2476 C   0  0  0  0  0  0  0  0  0  0  0  0
   -1.6805    3.8295    2.2932 H   0  0  0  0  0  0  0  0  0  0  0  0
   -2.6350    5.1888    0.9055 C   0  0  0  0  0  0  0  0  0  0  0  0
   -2.8259    5.9466    1.6804 H   0  0  0  0  0  0  0  0  0  0  0  0
   -3.0482    5.4111   -0.4167 C   0  0  0  0  0  0  0  0  0  0  0  0
   -3.5634    6.3464   -0.6831 H   0  0  0  0  0  0  0  0  0  0  0  0
   -2.7991    4.4394   -1.3994 C   0  0  0  0  0  0  0  0  0  0  0  0
   -3.1130    4.6119   -2.4399 H   0  0  0  0  0  0  0  0  0  0  0  0
   -2.1306    3.2542   -1.0657 C   0  0  0  0  0  0  0  0  0  0  0  0
   -1.8996    2.5076   -1.8399 H   0  0  0  0  0  0  0  0  0  0  0  0
  1 44  1  0  0  0  0
  2 55  1  0  0  0  0
  2 30  1  0  0  0  0
  3  4  1  0  0  0  0
  3  1  1  0  0  0  0
  3  6  1  0  0  0  0
  5  3  1  0  0  0  0
  6  9  1  0  0  0  0
  6  7  1  0  0  0  0
  8  6  1  0  0  0  0
  9 11  1  0  0  0  0
 10  9  1  0  0  0  0
 11 12  2  0  0  0  0
 13 11  1  0  0  0  0
 13 22  1  0  0  0  0
 14 13  2  0  0  0  0
 15 14  1  0  0  0  0
 16 18  2  0  0  0  0
 16 14  1  0  0  0  0
 17 16  1  0  0  0  0
 18 20  1  0  0  0  0
 19 18  1  0  0  0  0
 20 21  1  0  0  0  0
 20 22  2  0  0  0  0
 22 23  1  0  0  0  0
 23 24  2  0  0  0  0
 25 23  1  0  0  0  0
 25 27  1  0  0  0  0
 26 25  1  0  0  0  0
 27 30  1  0  0  0  0
 27 29  1  0  0  0  0
 28 27  1  0  0  0  0
 30 32  1  0  0  0  0
 30 31  1  0  0  0  0
 33 42  1  0  0  0  0
 33  1  1  0  0  0  0
 34 33  2  0  0  0  0
 35 34  1  0  0  0  0
 36 38  2  0  0  0  0
 36 34  1  0  0  0  0
 37 36  1  0  0  0  0
 38 40  1  0  0  0  0
 39 38  1  0  0  0  0
 40 41  1  0  0  0  0
 40 42  2  0  0  0  0
 42 43  1  0  0  0  0
 44 45  2  0  0  0  0
 44 53  1  0  0  0  0
 45 47  1  0  0  0  0
 46 45  1  0  0  0  0
 47 48  1  0  0  0  0
 47 49  2  0  0  0  0
 49 50  1  0  0  0  0
 51 49  1  0  0  0  0
 51 52  1  0  0  0  0
 53 51  2  0  0  0  0
 54 53  1  0  0  0  0
 55 56  1  0  0  0  0
 56 58  2  0  0  0  0
 56 57  1  0  0  0  0
 58 59  1  0  0  0  0
 60 61  1  0  0  0  0
 60 58  1  0  0  0  0
 62 60  2  0  0  0  0
 63 62  1  0  0  0  0
 64 62  1  0  0  0  0
 64 55  2  0  0  0  0
 65 64  1  0  0  0  0
 66  2  1  0  0  0  0
 66 67  1  0  0  0  0
 67 68  1  0  0  0  0
 69 67  2  0  0  0  0
 69 70  1  0  0  0  0
 71 69  1  0  0  0  0
 72 71  1  0  0  0  0
 73 75  1  0  0  0  0
 73 71  2  0  0  0  0
 74 73  1  0  0  0  0
 75 66  2  0  0  0  0
 76 75  1  0  0  0  0
M  END
