1,2
q = 0.0, confidence = 0.99

 61 65  0  0  1  0  0  0  0  0999 V2000
   -1.3791   -0.0095    0.0943 P   0  0  0  0  0  0  0  0  0  0  0  0
    1.5943    0.0754   -0.3435 P   0  0  1  0  0  0  0  0  0  0  0  0
   -1.6723    5.2706   -0.2549 O   0  0  0  0  0  0  0  0  0  0  0  0
   -2.6325    5.1172   -0.1803 H   0  0  0  0  0  0  0  0  0  0  0  0
   -0.0485    1.4229   -1.8939 C   0  0  0  0  0  0  0  0  0  0  0  0
   -0.5413    0.5541   -2.3740 H   0  0  0  0  0  0  0  0  0  0  0  0
   -0.2775    2.3155   -2.5073 H   0  0  0  0  0  0  0  0  0  0  0  0
   -0.5179    1.6126   -0.3972 C   0  0  1  0  0  0  0  0  0  0  0  0
   -1.3790    2.8521   -0.0683 C   0  0  0  0  0  0  0  0  0  0  0  0
   -2.4586    2.6101   -0.1744 H   0  0  0  0  0  0  0  0  0  0  0  0
   -1.2365    3.1010    1.0036 H   0  0  0  0  0  0  0  0  0  0  0  0
   -1.1071    4.1308   -0.8745 C   0  0  0  0  0  0  0  0  0  0  0  0
   -0.0186    4.3227   -0.9470 H   0  0  0  0  0  0  0  0  0  0  0  0
   -1.4748    4.0064   -1.9237 H   0  0  0  0  0  0  0  0  0  0  0  0
    0.8316    1.6161    0.4228 C   0  0  2  0  0  0  0  0  0  0  0  0
    0.6551    1.5950    1.5143 H   0  0  0  0  0  0  0  0  0  0  0  0
    1.7555    2.7195   -0.0671 C   0  0  0  0  0  0  0  0  0  0  0  0
    2.1524    2.4665   -1.3486 C   0  0  0  0  0  0  0  0  0  0  0  0
    1.4944    1.1975   -1.8593 C   0  0  1  0  0  0  0  0  0  0  0  0
    1.9037    0.7831   -2.7981 H   0  0  0  0  0  0  0  0  0  0  0  0
    2.0959    3.8828    0.8092 C   0  0  0  0  0  0  0  0  0  0  0  0
    2.5589    3.5429    1.7607 H   0  0  0  0  0  0  0  0  0  0  0  0
    1.1885    4.4611    1.0898 H   0  0  0  0  0  0  0  0  0  0  0  0
    2.8026    4.5804    0.3207 H   0  0  0  0  0  0  0  0  0  0  0  0
    3.0492    3.2748   -2.2279 C   0  0  0  0  0  0  0  0  0  0  0  0
    3.4378    4.1770   -1.7185 H   0  0  0  0  0  0  0  0  0  0  0  0
    2.5235    3.6031   -3.1511 H   0  0  0  0  0  0  0  0  0  0  0  0
    3.9185    2.6674   -2.5609 H   0  0  0  0  0  0  0  0  0  0  0  0
   -1.8168    0.1895    1.8644 C   0  0  0  0  0  0  0  0  0  0  0  0
   -0.9627   -0.3765    2.8341 C   0  0  0  0  0  0  0  0  0  0  0  0
   -0.1014   -0.9788    2.5009 H   0  0  0  0  0  0  0  0  0  0  0  0
   -1.2312   -0.1935    4.1986 C   0  0  0  0  0  0  0  0  0  0  0  0
   -0.5654   -0.6444    4.9498 H   0  0  0  0  0  0  0  0  0  0  0  0
   -2.3550    0.5444    4.6026 C   0  0  0  0  0  0  0  0  0  0  0  0
   -2.5690    0.6803    5.6736 H   0  0  0  0  0  0  0  0  0  0  0  0
   -3.2178    1.0943    3.6398 C   0  0  0  0  0  0  0  0  0  0  0  0
   -4.1084    1.6589    3.9552 H   0  0  0  0  0  0  0  0  0  0  0  0
   -2.9541    0.9169    2.2742 C   0  0  0  0  0  0  0  0  0  0  0  0
   -3.6443    1.3285    1.5226 H   0  0  0  0  0  0  0  0  0  0  0  0
   -2.9888   -0.0743   -0.7754 C   0  0  0  0  0  0  0  0  0  0  0  0
   -3.9067   -1.0591   -0.3440 C   0  0  0  0  0  0  0  0  0  0  0  0
   -3.6278   -1.7418    0.4711 H   0  0  0  0  0  0  0  0  0  0  0  0
   -5.1469   -1.1894   -0.9830 C   0  0  0  0  0  0  0  0  0  0  0  0
   -5.8507   -1.9639   -0.6431 H   0  0  0  0  0  0  0  0  0  0  0  0
   -5.4851   -0.3501   -2.0565 C   0  0  0  0  0  0  0  0  0  0  0  0
   -6.4594   -0.4580   -2.5568 H   0  0  0  0  0  0  0  0  0  0  0  0
   -4.5739    0.6224   -2.4947 C   0  0  0  0  0  0  0  0  0  0  0  0
   -4.8287    1.2804   -3.3392 H   0  0  0  0  0  0  0  0  0  0  0  0
   -3.3295    0.7606   -1.8607 C   0  0  0  0  0  0  0  0  0  0  0  0
   -2.6311    1.5255   -2.2258 H   0  0  0  0  0  0  0  0  0  0  0  0
    3.3284   -0.0718    0.1740 C   0  0  0  0  0  0  0  0  0  0  0  0
    3.7883    0.5314    1.3617 C   0  0  0  0  0  0  0  0  0  0  0  0
    3.1001    1.1155    1.9903 H   0  0  0  0  0  0  0  0  0  0  0  0
    5.1275    0.3822    1.7495 C   0  0  0  0  0  0  0  0  0  0  0  0
    5.4835    0.8560    2.6768 H   0  0  0  0  0  0  0  0  0  0  0  0
    6.0088   -0.3705    0.9569 C   0  0  0  0  0  0  0  0  0  0  0  0
    7.0595   -0.4873    1.2628 H   0  0  0  0  0  0  0  0  0  0  0  0
    5.5470   -0.9853   -0.2178 C   0  0  0  0  0  0  0  0  0  0  0  0
    6.2316   -1.5919   -0.8295 H   0  0  0  0  0  0  0  0  0  0  0  0
    4.2079   -0.8474   -0.6102 C   0  0  0  0  0  0  0  0  0  0  0  0
    3.8315   -1.3704   -1.5009 H   0  0  0  0  0  0  0  0  0  0  0  0
  1 29  1  0  0  0  0
  2 51  1  1  0  0  0
  2 15  1  0  0  0  0
  3  4  1  0  0  0  0
  5 19  1  0  0  0  0
  5  8  1  0  0  0  0
  6  5  1  0  0  0  0
  7  5  1  0  0  0  0
  8  9  1  1  0  0  0
  8  1  1  0  0  0  0
  8 15  1  0  0  0  0
  9 11  1  0  0  0  0
 10  9  1  0  0  0  0
 12  3  1  0  0  0  0
 12  9  1  0  0  0  0
 13 12  1  0  0  0  0
 14 12  1  0  0  0  0
 15 16  1  1  0  0  0
 17 15  1  0  0  0  0
 17 21  1  0  0  0  0
 18 17  2  0  0  0  0
 19 20  1  6  0  0  0
 19 18  1  0  0  0  0
 19  2  1  0  0  0  0
 21 23  1  0  0  0  0
 21 22  1  0  0  0  0
 24 21  1  0  0  0  0
 25 26  1  0  0  0  0
 25 18  1  0  0  0  0
 27 25  1  0  0  0  0
 28 25  1  0  0  0  0
 29 38  2  0  0  0  0
 29 30  1  0  0  0  0
 30 32  2  0  0  0  0
 31 30  1  0  0  0  0
 32 34  1  0  0  0  0
 32 33  1  0  0  0  0
 34 35  1  0  0  0  0
 36 37  1  0  0  0  0
 36 34  2  0  0  0  0
 38 36  1  0  0  0  0
 39 38  1  0  0  0  0
 40 41  1  0  0  0  0
 40  1  1  0  0  0  0
 41 42  1  0  0  0  0
 43 44  1  0  0  0  0
 43 41  2  0  0  0  0
 45 43  1  0  0  0  0
 46 45  1  0  0  0  0
 47 45  2  0  0  0  0
 47 49  1  0  0  0  0
 48 47  1  0  0  0  0
 49 40  2  0  0  0  0
 50 49  1  0  0  0  0
 51 52  1  0  0  0  0
 52 54  2  0  0  0  0
 52 53  1  0  0  0  0
 54 55  1  0  0  0  0
 56 57  1  0  0  0  0
 56 54  1  0  0  0  0
 58 56  2  0  0  0  0
 59 58  1  0  0  0  0
 60 58  1  0  0  0  0
 60 51  2  0  0  0  0
 61 60  1  0  0  0  0
M  END
