1,2
q = 0.0, confidence = 0.992

 68 71  0  0  0  0  0  0  0  0999 V2000
   -1.5129   -0.1432   -0.2176 P   0  0  0  0  0  0  0  0  0  0  0  0
    1.5669   -0.1447   -0.2297 P   0  0  0  0  0  0  0  0  0  0  0  0
   -0.5479    0.1521   -1.6751 N   0  0  0  0  0  0  0  0  0  0  0  0
    0.7074   -0.4967   -1.7489 N   0  0  0  0  0  0  0  0  0  0  0  0
   -1.1387    0.4200   -2.9737 C   0  0  0  0  0  0  0  0  0  0  0  0
   -0.3414    0.7680   -3.6616 H   0  0  0  0  0  0  0  0  0  0  0  0
   -1.8878    1.2274   -2.8777 H   0  0  0  0  0  0  0  0  0  0  0  0
   -1.6351   -0.4656   -3.4346 H   0  0  0  0  0  0  0  0  0  0  0  0
    0.6303   -1.9097   -2.1398 C   0  0  0  0  0  0  0  0  0  0  0  0
    0.0039   -2.5215   -1.4541 H   0  0  0  0  0  0  0  0  0  0  0  0
    1.6492   -2.3385   -2.1689 H   0  0  0  0  0  0  0  0  0  0  0  0
    0.2015   -1.9762   -3.1600 H   0  0  0  0  0  0  0  0  0  0  0  0
   -2.8617   -1.3352   -0.7124 C   0  0  0  0  0  0  0  0  0  0  0  0
   -2.7105   -2.6328   -0.1714 C   0  0  0  0  0  0  0  0  0  0  0  0
   -1.8919   -2.8152    0.5357 H   0  0  0  0  0  0  0  0  0  0  0  0
   -3.5750   -3.6820   -0.4970 C   0  0  0  0  0  0  0  0  0  0  0  0
   -3.4232   -4.6757   -0.0501 H   0  0  0  0  0  0  0  0  0  0  0  0
   -4.6332   -3.4454   -1.3859 C   0  0  0  0  0  0  0  0  0  0  0  0
   -5.3284   -4.2540   -1.6586 H   0  0  0  0  0  0  0  0  0  0  0  0
   -4.8108   -2.1620   -1.9120 C   0  0  0  0  0  0  0  0  0  0  0  0
   -5.6560   -1.9695   -2.5927 H   0  0  0  0  0  0  0  0  0  0  0  0
   -3.9542   -1.0828   -1.5943 C   0  0  0  0  0  0  0  0  0  0  0  0
   -4.3102    0.2544   -2.2041 C   0  0  0  0  0  0  0  0  0  0  0  0
   -4.1444    0.2458   -3.3012 H   0  0  0  0  0  0  0  0  0  0  0  0
   -3.7456    1.0981   -1.7765 H   0  0  0  0  0  0  0  0  0  0  0  0
   -5.3879    0.4649   -2.0492 H   0  0  0  0  0  0  0  0  0  0  0  0
   -2.3283    1.5010    0.0184 C   0  0  0  0  0  0  0  0  0  0  0  0
   -1.6548    2.6325   -0.4870 C   0  0  0  0  0  0  0  0  0  0  0  0
   -0.7257    2.4882   -1.0544 H   0  0  0  0  0  0  0  0  0  0  0  0
   -2.1261    3.9277   -0.2423 C   0  0  0  0  0  0  0  0  0  0  0  0
   -1.5750    4.7921   -0.6423 H   0  0  0  0  0  0  0  0  0  0  0  0
   -3.2815    4.1062    0.5298 C   0  0  0  0  0  0  0  0  0  0  0  0
   -3.6638    5.1167    0.7394 H   0  0  0  0  0  0  0  0  0  0  0  0
   -3.9396    2.9865    1.0561 C   0  0  0  0  0  0  0  0  0  0  0  0
   -4.8359    3.1277    1.6807 H   0  0  0  0  0  0  0  0  0  0  0  0
   -3.4882    1.6703    0.8259 C   0  0  0  0  0  0  0  0  0  0  0  0
   -4.2636    0.5247    1.4264 C   0  0  0  0  0  0  0  0  0  0  0  0
   -4.9139    0.8864    2.2459 H   0  0  0  0  0  0  0  0  0  0  0  0
   -3.6117   -0.2655    1.8396 H   0  0  0  0  0  0  0  0  0  0  0  0
   -4.9143    0.0335    0.6737 H   0  0  0  0  0  0  0  0  0  0  0  0
    2.1027    1.6088   -0.4961 C   0  0  0  0  0  0  0  0  0  0  0  0
    1.6957    2.3079   -1.6511 C   0  0  0  0  0  0  0  0  0  0  0  0
    1.1255    1.7734   -2.4203 H   0  0  0  0  0  0  0  0  0  0  0  0
    2.0308    3.6539   -1.8416 C   0  0  0  0  0  0  0  0  0  0  0  0
    1.7006    4.1775   -2.7517 H   0  0  0  0  0  0  0  0  0  0  0  0
    2.7978    4.3180   -0.8733 C   0  0  0  0  0  0  0  0  0  0  0  0
    3.0722    5.3754   -1.0071 H   0  0  0  0  0  0  0  0  0  0  0  0
    3.2285    3.6211    0.2616 C   0  0  0  0  0  0  0  0  0  0  0  0
    3.8484    4.1350    1.0132 H   0  0  0  0  0  0  0  0  0  0  0  0
    2.8946    2.2676    0.4832 C   0  0  0  0  0  0  0  0  0  0  0  0
    3.3878    1.5975    1.7396 C   0  0  0  0  0  0  0  0  0  0  0  0
    4.2777    2.1235    2.1359 H   0  0  0  0  0  0  0  0  0  0  0  0
    3.6628    0.5379    1.5833 H   0  0  0  0  0  0  0  0  0  0  0  0
    2.6152    1.6193    2.5338 H   0  0  0  0  0  0  0  0  0  0  0  0
    3.1382   -1.1085   -0.4469 C   0  0  0  0  0  0  0  0  0  0  0  0
    3.4763   -2.0051    0.5883 C   0  0  0  0  0  0  0  0  0  0  0  0
    2.8061   -2.1048    1.4505 H   0  0  0  0  0  0  0  0  0  0  0  0
    4.6521   -2.7651    0.5458 C   0  0  0  0  0  0  0  0  0  0  0  0
    4.8876   -3.4546    1.3698 H   0  0  0  0  0  0  0  0  0  0  0  0
    5.5103   -2.6379   -0.5531 C   0  0  0  0  0  0  0  0  0  0  0  0
    6.4364   -3.2299   -0.6102 H   0  0  0  0  0  0  0  0  0  0  0  0
    5.1834   -1.7512   -1.5879 C   0  0  0  0  0  0  0  0  0  0  0  0
    5.8584   -1.6557   -2.4533 H   0  0  0  0  0  0  0  0  0  0  0  0
    4.0129   -0.9645   -1.5658 C   0  0  0  0  0  0  0  0  0  0  0  0
    3.7617   -0.0236   -2.7157 C   0  0  0  0  0  0  0  0  0  0  0  0
    4.0119    1.0202   -2.4344 H   0  0  0  0  0  0  0  0  0  0  0  0
    2.6980   -0.0192   -3.0188 H   0  0  0  0  0  0  0  0  0  0  0  0
    4.3880   -0.2982   -3.5861 H   0  0  0  0  0  0  0  0  0  0  0  0
  1 27  1  0  0  0  0
  3  1  1  0  0  0  0
  4  3  1  0  0  0  0
  4  2  1  0  0  0  0
  5  7  1  0  0  0  0
  5  3  1  0  0  0  0
  6  5  1  0  0  0  0
  8  5  1  0  0  0  0
  9  4  1  0  0  0  0
  9 10  1  0  0  0  0
 11  9  1  0  0  0  0
 12  9  1  0  0  0  0
 13  1  1  0  0  0  0
 13 14  1  0  0  0  0
 14 15  1  0  0  0  0
 16 14  2  0  0  0  0
 16 17  1  0  0  0  0
 18 16  1  0  0  0  0
 19 18  1  0  0  0  0
 20 22  1  0  0  0  0
 20 18  2  0  0  0  0
 21 20  1  0  0  0  0
 22 13  2  0  0  0  0
 23 26  1  0  0  0  0
 23 25  1  0  0  0  0
 23 22  1  0  0  0  0
 24 23  1  0  0  0  0
 27 36  1  0  0  0  0
 28 30  1  0  0  0  0
 28 27  2  0  0  0  0
 29 28  1  0  0  0  0
 30 32  2  0  0  0  0
 31 30  1  0  0  0  0
 32 33  1  0  0  0  0
 32 34  1  0  0  0  0
 34 35  1  0  0  0  0
 36 34  2  0  0  0  0
 36 37  1  0  0  0  0
 37 39  1  0  0  0  0
 37 38  1  0  0  0  0
 40 37  1  0  0  0  0
 41  2  1  0  0  0  0
 41 50  1  0  0  0  0
 42 41  2  0  0  0  0
 43 42  1  0  0  0  0
 44 42  1  0  0  0  0
 44 46  2  0  0  0  0
 45 44  1  0  0  0  0
 46 48  1  0  0  0  0
 47 46  1  0  0  0  0
 48 50  2  0  0  0  0
 48 49  1  0  0  0  0
 50 51  1  0  0  0  0
 51 52  1  0  0  0  0
 51 54  1  0  0  0  0
 53 51  1  0  0  0  0
 55  2  1  0  0  0  0
 55 56  1  0  0  0  0
 56 57  1  0  0  0  0
 58 56  2  0  0  0  0
 58 59  1  0  0  0  0
 60 58  1  0  0  0  0
 61 60  1  0  0  0  0
 62 64  1  0  0  0  0
 62 60  2  0  0  0  0
 63 62  1  0  0  0  0
 64 55  2  0  0  0  0
 65 66  1  0  0  0  0
 65 64  1  0  0  0  0
 67 65  1  0  0  0  0
 68 65  1  0  0  0  0
M  END
