1,2
q = 0.0, confidence = 0.98

 61 64  0  0  0  0  0  0  0  0999 V2000
    1.6419    0.0897    0.4638 P   0  0  0  0  0  0  0  0  0  0  0  0
   -1.5364    0.0502    0.3580 P   0  0  0  0  0  0  0  0  0  0  0  0
   -0.0212   -0.3012    3.1289 Si  0  0  0  0  0  0  0  0  0  0  0  0
    1.5334   -0.7334    2.0964 C   0  0  0  0  0  0  0  0  0  0  0  0
   -1.2325    0.7043    2.0482 C   0  0  0  0  0  0  0  0  0  0  0  0
   -0.8147   -1.8900    3.7544 C   0  0  0  0  0  0  0  0  0  0  0  0
    0.4696    0.8095    4.5748 C   0  0  0  0  0  0  0  0  0  0  0  0
    3.3413   -0.2038   -0.1529 C   0  0  0  0  0  0  0  0  0  0  0  0
    3.8181    0.6175   -1.1964 C   0  0  0  0  0  0  0  0  0  0  0  0
    5.0872    0.3909   -1.7414 C   0  0  0  0  0  0  0  0  0  0  0  0
    5.8824   -0.6633   -1.2617 C   0  0  0  0  0  0  0  0  0  0  0  0
    5.4024   -1.4928   -0.2381 C   0  0  0  0  0  0  0  0  0  0  0  0
    4.1331   -1.2689    0.3163 C   0  0  0  0  0  0  0  0  0  0  0  0
    1.6246    1.9033    0.7736 C   0  0  0  0  0  0  0  0  0  0  0  0
    0.8719    2.7206   -0.0947 C   0  0  0  0  0  0  0  0  0  0  0  0
    0.8362    4.1098    0.1081 C   0  0  0  0  0  0  0  0  0  0  0  0
    1.5454    4.6856    1.1737 C   0  0  0  0  0  0  0  0  0  0  0  0
    2.3078    3.8734    2.0313 C   0  0  0  0  0  0  0  0  0  0  0  0
    2.3547    2.4863    1.8290 C   0  0  0  0  0  0  0  0  0  0  0  0
   -2.4609   -1.5068    0.6489 C   0  0  0  0  0  0  0  0  0  0  0  0
   -1.8554   -2.7307    0.3022 C   0  0  0  0  0  0  0  0  0  0  0  0
   -2.5164   -3.9361    0.5860 C   0  0  0  0  0  0  0  0  0  0  0  0
   -3.7742   -3.9235    1.2085 C   0  0  0  0  0  0  0  0  0  0  0  0
   -4.3812   -2.7013    1.5454 C   0  0  0  0  0  0  0  0  0  0  0  0
   -3.7289   -1.4926    1.2646 C   0  0  0  0  0  0  0  0  0  0  0  0
   -2.7521    1.2087   -0.3802 C   0  0  0  0  0  0  0  0  0  0  0  0
   -3.6713    0.7333   -1.3404 C   0  0  0  0  0  0  0  0  0  0  0  0
   -4.5410    1.6267   -1.9801 C   0  0  0  0  0  0  0  0  0  0  0  0
   -4.5114    2.9939   -1.6646 C   0  0  0  0  0  0  0  0  0  0  0  0
   -3.6040    3.4697   -0.7050 C   0  0  0  0  0  0  0  0  0  0  0  0
   -2.7246    2.5838   -0.0665 C   0  0  0  0  0  0  0  0  0  0  0  0
   -0.1231   -2.4212    4.4403 H   0  0  0  0  0  0  0  0  0  0  0  0
    0.9123    1.7606    4.2162 H   0  0  0  0  0  0  0  0  0  0  0  0
    2.4508   -0.5307    2.6878 H   0  0  0  0  0  0  0  0  0  0  0  0
    1.5174   -1.8157    1.8513 H   0  0  0  0  0  0  0  0  0  0  0  0
   -2.2075    0.8002    2.5712 H   0  0  0  0  0  0  0  0  0  0  0  0
   -0.8050    1.7228    1.9449 H   0  0  0  0  0  0  0  0  0  0  0  0
   -1.7474   -1.6702    4.3130 H   0  0  0  0  0  0  0  0  0  0  0  0
   -1.0711   -2.5731    2.9209 H   0  0  0  0  0  0  0  0  0  0  0  0
   -0.4151    1.0556    5.1973 H   0  0  0  0  0  0  0  0  0  0  0  0
    1.2116    0.3052    5.2277 H   0  0  0  0  0  0  0  0  0  0  0  0
    3.1861    1.4283   -1.5897 H   0  0  0  0  0  0  0  0  0  0  0  0
    5.4525    1.0334   -2.5564 H   0  0  0  0  0  0  0  0  0  0  0  0
    6.8755   -0.8466   -1.6986 H   0  0  0  0  0  0  0  0  0  0  0  0
    6.0139   -2.3314    0.1272 H   0  0  0  0  0  0  0  0  0  0  0  0
    3.7542   -1.9441    1.0960 H   0  0  0  0  0  0  0  0  0  0  0  0
    0.3130    2.2615   -0.9280 H   0  0  0  0  0  0  0  0  0  0  0  0
    0.2466    4.7410   -0.5740 H   0  0  0  0  0  0  0  0  0  0  0  0
    1.5122    5.7739    1.3347 H   0  0  0  0  0  0  0  0  0  0  0  0
    2.8742    4.3250    2.8600 H   0  0  0  0  0  0  0  0  0  0  0  0
    2.9675    1.8578    2.4935 H   0  0  0  0  0  0  0  0  0  0  0  0
   -0.8599   -2.7386   -0.1730 H   0  0  0  0  0  0  0  0  0  0  0  0
   -2.0411   -4.8905    0.3139 H   0  0  0  0  0  0  0  0  0  0  0  0
   -4.2897   -4.8708    1.4284 H   0  0  0  0  0  0  0  0  0  0  0  0
   -5.3715   -2.6900    2.0256 H   0  0  0  0  0  0  0  0  0  0  0  0
   -4.2120   -0.5348    1.5150 H   0  0  0  0  0  0  0  0  0  0  0  0
   -3.6793   -0.3322   -1.6092 H   0  0  0  0  0  0  0  0  0  0  0  0
   -5.2399    1.2478   -2.7405 H   0  0  0  0  0  0  0  0  0  0  0  0
   -5.1939    3.6923   -2.1720 H   0  0  0  0  0  0  0  0  0  0  0  0
   -3.5753    4.5408   -0.4531 H   0  0  0  0  0  0  0  0  0  0  0  0
   -2.0104    2.9740    0.6730 H   0  0  0  0  0  0  0  0  0  0  0  0
  1 14  1  0  0  0  0
  1  4  1  0  0  0  0
  2 20  1  0  0  0  0
  2  5  1  0  0  0  0
  3  6  1  0  0  0  0
  3  7  1  0  0  0  0
  4 34  1  0  0  0  0
  4  3  1  0  0  0  0
  5 36  1  0  0  0  0
  5  3  1  0  0  0  0
  6 38  1  0  0  0  0
  6 32  1  0  0  0  0
  7 40  1  0  0  0  0
  7 41  1  0  0  0  0
  8 13  1  0  0  0  0
  8  1  1  0  0  0  0
  9  8  2  0  0  0  0
 10 11  2  0  0  0  0
 10  9  1  0  0  0  0
 11 12  1  0  0  0  0
 12 45  1  0  0  0  0
 12 13  2  0  0  0  0
 13 46  1  0  0  0  0
 14 19  1  0  0  0  0
 15 16  1  0  0  0  0
 15 14  2  0  0  0  0
 16 17  2  0  0  0  0
 17 49  1  0  0  0  0
 17 18  1  0  0  0  0
 18 50  1  0  0  0  0
 19 18  2  0  0  0  0
 19 51  1  0  0  0  0
 20 25  1  0  0  0  0
 21 22  1  0  0  0  0
 21 20  2  0  0  0  0
 22 23  2  0  0  0  0
 23 54  1  0  0  0  0
 23 24  1  0  0  0  0
 24 55  1  0  0  0  0
 25 56  1  0  0  0  0
 25 24  2  0  0  0  0
 26 31  1  0  0  0  0
 26  2  1  0  0  0  0
 27 26  2  0  0  0  0
 28 29  2  0  0  0  0
 28 27  1  0  0  0  0
 29 30  1  0  0  0  0
 30 60  1  0  0  0  0
 30 31  2  0  0  0  0
 31 61  1  0  0  0  0
 33  7  1  0  0  0  0
 35  4  1  0  0  0  0
 37  5  1  0  0  0  0
 39  6  1  0  0  0  0
 42  9  1  0  0  0  0
 43 10  1  0  0  0  0
 44 11  1  0  0  0  0
 47 15  1  0  0  0  0
 48 16  1  0  0  0  0
 52 21  1  0  0  0  0
 53 22  1  0  0  0  0
 57 27  1  0  0  0  0
 58 28  1  0  0  0  0
 59 29  1  0  0  0  0
M  END
