1,2
q = 0.0, confidence = 1.0

 74 79  0  0  0  0  0  0  0  0999 V2000
   -1.4445   -0.8779   -0.4942 P   0  0  0  0  0  0  0  0  0  0  0  0
    1.8769   -0.4593    0.4115 P   0  0  0  0  0  0  0  0  0  0  0  0
    1.7884    2.6677   -1.1208 S   0  0  0  0  0  0  0  0  0  0  0  0
   -0.6721    3.2309    0.3997 S   0  0  0  0  0  0  0  0  0  0  0  0
   -0.5448    1.3859    3.2774 S   0  0  0  0  0  0  0  0  0  0  0  0
   -2.9486   -0.3437    2.2219 S   0  0  0  0  0  0  0  0  0  0  0  0
   -1.4728   -0.1898    1.2368 C   0  0  0  0  0  0  0  0  0  0  0  0
   -0.4303    0.5772    1.6764 C   0  0  0  0  0  0  0  0  0  0  0  0
    0.7357    0.9225    0.8253 C   0  0  0  0  0  0  0  0  0  0  0  0
    0.6769    2.1149    0.1358 C   0  0  0  0  0  0  0  0  0  0  0  0
    0.8665    4.1018   -1.5962 C   0  0  0  0  0  0  0  0  0  0  0  0
   -0.2634    4.3701   -0.8847 C   0  0  0  0  0  0  0  0  0  0  0  0
    1.4338    4.8728   -2.7505 C   0  0  0  0  0  0  0  0  0  0  0  0
    1.4456    4.2582   -3.6756 H   0  0  0  0  0  0  0  0  0  0  0  0
    2.4809    5.1843   -2.5531 H   0  0  0  0  0  0  0  0  0  0  0  0
    0.8401    5.7835   -2.9525 H   0  0  0  0  0  0  0  0  0  0  0  0
   -1.2248    5.5042   -1.0732 C   0  0  0  0  0  0  0  0  0  0  0  0
   -2.2277    5.1249   -1.3636 H   0  0  0  0  0  0  0  0  0  0  0  0
   -0.8779    6.1968   -1.8624 H   0  0  0  0  0  0  0  0  0  0  0  0
   -1.3488    6.0888   -0.1374 H   0  0  0  0  0  0  0  0  0  0  0  0
   -2.1895    2.0869    3.2346 C   0  0  0  0  0  0  0  0  0  0  0  0
   -3.2217    1.3475    2.7537 C   0  0  0  0  0  0  0  0  0  0  0  0
   -2.2471    3.5191    3.6847 C   0  0  0  0  0  0  0  0  0  0  0  0
   -1.7464    3.6421    4.6677 H   0  0  0  0  0  0  0  0  0  0  0  0
   -3.2889    3.8784    3.7851 H   0  0  0  0  0  0  0  0  0  0  0  0
   -1.7117    4.1759    2.9663 H   0  0  0  0  0  0  0  0  0  0  0  0
   -4.6339    1.8207    2.5494 C   0  0  0  0  0  0  0  0  0  0  0  0
   -5.3625    1.0434    2.8579 H   0  0  0  0  0  0  0  0  0  0  0  0
   -4.8238    2.0369    1.4761 H   0  0  0  0  0  0  0  0  0  0  0  0
   -4.8474    2.7392    3.1291 H   0  0  0  0  0  0  0  0  0  0  0  0
   -2.7787   -2.1456   -0.4585 C   0  0  0  0  0  0  0  0  0  0  0  0
   -3.6219   -2.3064   -1.5761 C   0  0  0  0  0  0  0  0  0  0  0  0
   -3.5483   -1.6111   -2.4254 H   0  0  0  0  0  0  0  0  0  0  0  0
   -4.5521   -3.3558   -1.6131 C   0  0  0  0  0  0  0  0  0  0  0  0
   -5.2023   -3.4738   -2.4931 H   0  0  0  0  0  0  0  0  0  0  0  0
   -4.6497   -4.2526   -0.5383 C   0  0  0  0  0  0  0  0  0  0  0  0
   -5.3801   -5.0752   -0.5694 H   0  0  0  0  0  0  0  0  0  0  0  0
   -3.8058   -4.1012    0.5735 C   0  0  0  0  0  0  0  0  0  0  0  0
   -3.8697   -4.8037    1.4181 H   0  0  0  0  0  0  0  0  0  0  0  0
   -2.8693   -3.0593    0.6122 C   0  0  0  0  0  0  0  0  0  0  0  0
   -2.2018   -2.9669    1.4818 H   0  0  0  0  0  0  0  0  0  0  0  0
   -2.2320    0.5351   -1.3908 C   0  0  0  0  0  0  0  0  0  0  0  0
   -1.4915    1.2587   -2.3407 C   0  0  0  0  0  0  0  0  0  0  0  0
   -0.4671    0.9478   -2.5809 H   0  0  0  0  0  0  0  0  0  0  0  0
   -2.0532    2.3805   -2.9711 C   0  0  0  0  0  0  0  0  0  0  0  0
   -1.4631    2.9363   -3.7151 H   0  0  0  0  0  0  0  0  0  0  0  0
   -3.3570    2.7874   -2.6515 C   0  0  0  0  0  0  0  0  0  0  0  0
   -3.8018    3.6618   -3.1515 H   0  0  0  0  0  0  0  0  0  0  0  0
   -4.1020    2.0659   -1.7011 C   0  0  0  0  0  0  0  0  0  0  0  0
   -5.1290    2.3767   -1.4537 H   0  0  0  0  0  0  0  0  0  0  0  0
   -3.5465    0.9429   -1.0743 C   0  0  0  0  0  0  0  0  0  0  0  0
   -4.1276    0.3754   -0.3318 H   0  0  0  0  0  0  0  0  0  0  0  0
    3.4691    0.3818   -0.0195 C   0  0  0  0  0  0  0  0  0  0  0  0
    4.1787   -0.0015   -1.1723 C   0  0  0  0  0  0  0  0  0  0  0  0
    3.7737   -0.7890   -1.8224 H   0  0  0  0  0  0  0  0  0  0  0  0
    5.3948    0.6222   -1.4914 C   0  0  0  0  0  0  0  0  0  0  0  0
    5.9416    0.3160   -2.3959 H   0  0  0  0  0  0  0  0  0  0  0  0
    5.9085    1.6303   -0.6618 C   0  0  0  0  0  0  0  0  0  0  0  0
    6.8603    2.1218   -0.9156 H   0  0  0  0  0  0  0  0  0  0  0  0
    5.2083    2.0098    0.4960 C   0  0  0  0  0  0  0  0  0  0  0  0
    5.6078    2.7997    1.1501 H   0  0  0  0  0  0  0  0  0  0  0  0
    3.9963    1.3873    0.8192 C   0  0  0  0  0  0  0  0  0  0  0  0
    3.4463    1.6928    1.7218 H   0  0  0  0  0  0  0  0  0  0  0  0
    2.3378   -1.1637    2.0569 C   0  0  0  0  0  0  0  0  0  0  0  0
    2.2817   -0.4177    3.2503 C   0  0  0  0  0  0  0  0  0  0  0  0
    1.9221    0.6224    3.2364 H   0  0  0  0  0  0  0  0  0  0  0  0
    2.6884   -0.9915    4.4638 C   0  0  0  0  0  0  0  0  0  0  0  0
    2.6233   -0.4033    5.3918 H   0  0  0  0  0  0  0  0  0  0  0  0
    3.1736   -2.3082    4.4929 C   0  0  0  0  0  0  0  0  0  0  0  0
    3.4903   -2.7588    5.4458 H   0  0  0  0  0  0  0  0  0  0  0  0
    3.2540   -3.0485    3.3026 C   0  0  0  0  0  0  0  0  0  0  0  0
    3.6379   -4.0798    3.3163 H   0  0  0  0  0  0  0  0  0  0  0  0
    2.8348   -2.4819    2.0905 C   0  0  0  0  0  0  0  0  0  0  0  0
    2.8948   -3.0651    1.1596 H   0  0  0  0  0  0  0  0  0  0  0  0
  1 31  1  0  0  0  0
  1  7  1  0  0  0  0
  2  9  1  0  0  0  0
  2 64  1  0  0  0  0
  3 10  1  0  0  0  0
  6 22  1  0  0  0  0
  7  8  2  0  0  0  0
  7  6  1  0  0  0  0
  8  5  1  0  0  0  0
  9  8  1  0  0  0  0
 10  4  1  0  0  0  0
 10  9  2  0  0  0  0
 11  3  1  0  0  0  0
 11 12  2  0  0  0  0
 12  4  1  0  0  0  0
 13 15  1  0  0  0  0
 13 11  1  0  0  0  0
 14 13  1  0  0  0  0
 16 13  1  0  0  0  0
 17 12  1  0  0  0  0
 17 20  1  0  0  0  0
 18 17  1  0  0  0  0
 19 17  1  0  0  0  0
 21  5  1  0  0  0  0
 21 23  1  0  0  0  0
 22 21  2  0  0  0  0
 23 25  1  0  0  0  0
 23 24  1  0  0  0  0
 26 23  1  0  0  0  0
 27 22  1  0  0  0  0
 27 28  1  0  0  0  0
 27 30  1  0  0  0  0
 29 27  1  0  0  0  0
 31 40  1  0  0  0  0
 32 31  2  0  0  0  0
 33 32  1  0  0  0  0
 34 32  1  0  0  0  0
 34 36  2  0  0  0  0
 35 34  1  0  0  0  0
 36 38  1  0  0  0  0
 37 36  1  0  0  0  0
 38 40  2  0  0  0  0
 38 39  1  0  0  0  0
 40 41  1  0  0  0  0
 42 51  1  0  0  0  0
 42  1  1  0  0  0  0
 43 42  2  0  0  0  0
 44 43  1  0  0  0  0
 45 47  2  0  0  0  0
 45 43  1  0  0  0  0
 46 45  1  0  0  0  0
 47 49  1  0  0  0  0
 48 47  1  0  0  0  0
 49 50  1  0  0  0  0
 49 51  2  0  0  0  0
 51 52  1  0  0  0  0
 53  2  1  0  0  0  0
 53 62  1  0  0  0  0
 54 53  2  0  0  0  0
 55 54  1  0  0  0  0
 56 54  1  0  0  0  0
 56 58  2  0  0  0  0
 57 56  1  0  0  0  0
 58 60  1  0  0  0  0
 59 58  1  0  0  0  0
 60 62  2  0  0  0  0
 60 61  1  0  0  0  0
 62 63  1  0  0  0  0
 64 73  2  0  0  0  0
 64 65  1  0  0  0  0
 65 67  2  0  0  0  0
 66 65  1  0  0  0  0
 67 69  1  0  0  0  0
 67 68  1  0  0  0  0
 69 70  1  0  0  0  0
 71 72  1  0  0  0  0
 71 69  2  0  0  0  0
 73 71  1  0  0  0  0
 74 73  1  0  0  0  0
M  END
