1,3
q = 0.0, confidence = 0.974

 60 63  0  0  0  0  0  0  0  0999 V2000
    1.2005   -0.2732   -0.6828 P   0  0  0  0  0  0  0  0  0  0  0  0
    0.7773    0.3092   -2.2827 N   0  0  0  0  0  0  0  0  0  0  0  0
   -1.5332    0.4868   -0.9381 P   0  0  0  0  0  0  0  0  0  0  0  0
   -0.4218    1.0469   -2.1131 N   0  0  0  0  0  0  0  0  0  0  0  0
    1.9843    1.0158    0.0426 O   0  0  0  0  0  0  0  0  0  0  0  0
    2.4809   -1.2275   -1.1608 O   0  0  0  0  0  0  0  0  0  0  0  0
   -2.1911    1.9405   -0.3750 O   0  0  0  0  0  0  0  0  0  0  0  0
   -2.8831    0.1261   -1.8619 O   0  0  0  0  0  0  0  0  0  0  0  0
    3.1934    1.5917   -0.3072 C   0  0  0  0  0  0  0  0  0  0  0  0
    3.9852    2.0578    0.7578 C   0  0  0  0  0  0  0  0  0  0  0  0
    5.2133    2.6772    0.4879 C   0  0  0  0  0  0  0  0  0  0  0  0
    5.6565    2.8262   -0.8370 C   0  0  0  0  0  0  0  0  0  0  0  0
    4.8553    2.3588   -1.8909 C   0  0  0  0  0  0  0  0  0  0  0  0
    3.6191    1.7442   -1.6383 C   0  0  0  0  0  0  0  0  0  0  0  0
    3.0619   -2.0852   -0.2240 C   0  0  0  0  0  0  0  0  0  0  0  0
    2.4210   -3.2877    0.1129 C   0  0  0  0  0  0  0  0  0  0  0  0
    3.0339   -4.1400    1.0446 C   0  0  0  0  0  0  0  0  0  0  0  0
    4.2657   -3.7963    1.6268 C   0  0  0  0  0  0  0  0  0  0  0  0
    4.8940   -2.5913    1.2715 C   0  0  0  0  0  0  0  0  0  0  0  0
    4.2937   -1.7249    0.3443 C   0  0  0  0  0  0  0  0  0  0  0  0
   -1.6356    2.6867    0.6445 C   0  0  0  0  0  0  0  0  0  0  0  0
   -2.4666    3.0307    1.7252 C   0  0  0  0  0  0  0  0  0  0  0  0
   -1.9482    3.7951    2.7803 C   0  0  0  0  0  0  0  0  0  0  0  0
   -0.6056    4.2111    2.7630 C   0  0  0  0  0  0  0  0  0  0  0  0
    0.2117    3.8733    1.6716 C   0  0  0  0  0  0  0  0  0  0  0  0
   -0.2992    3.1189    0.6050 C   0  0  0  0  0  0  0  0  0  0  0  0
   -4.0446   -0.2699   -1.2006 C   0  0  0  0  0  0  0  0  0  0  0  0
   -5.0551    0.6780   -0.9693 C   0  0  0  0  0  0  0  0  0  0  0  0
   -6.2347    0.2783   -0.3228 C   0  0  0  0  0  0  0  0  0  0  0  0
   -6.3973   -1.0527    0.0964 C   0  0  0  0  0  0  0  0  0  0  0  0
   -5.3756   -1.9878   -0.1391 C   0  0  0  0  0  0  0  0  0  0  0  0
   -4.1917   -1.6049   -0.7891 C   0  0  0  0  0  0  0  0  0  0  0  0
    0.7205   -0.6754   -3.3800 C   0  0  0  0  0  0  0  0  0  0  0  0
   -0.6215    2.1775   -2.9961 C   0  0  0  0  0  0  0  0  0  0  0  0
    3.6199    1.9190    1.7856 H   0  0  0  0  0  0  0  0  0  0  0  0
    5.8314    3.0418    1.3225 H   0  0  0  0  0  0  0  0  0  0  0  0
    6.6230    3.3076   -1.0470 H   0  0  0  0  0  0  0  0  0  0  0  0
    5.1929    2.4753   -2.9321 H   0  0  0  0  0  0  0  0  0  0  0  0
    2.9745    1.3872   -2.4521 H   0  0  0  0  0  0  0  0  0  0  0  0
    1.4498   -3.5226   -0.3527 H   0  0  0  0  0  0  0  0  0  0  0  0
    2.5410   -5.0868    1.3147 H   0  0  0  0  0  0  0  0  0  0  0  0
    4.7394   -4.4706    2.3560 H   0  0  0  0  0  0  0  0  0  0  0  0
    5.8615   -2.3183    1.7199 H   0  0  0  0  0  0  0  0  0  0  0  0
    4.7643   -0.7743    0.0550 H   0  0  0  0  0  0  0  0  0  0  0  0
   -3.5109    2.6851    1.7187 H   0  0  0  0  0  0  0  0  0  0  0  0
   -2.5981    4.0619    3.6276 H   0  0  0  0  0  0  0  0  0  0  0  0
   -0.1998    4.8029    3.5968 H   0  0  0  0  0  0  0  0  0  0  0  0
    1.2641    4.1949    1.6436 H   0  0  0  0  0  0  0  0  0  0  0  0
    0.3397    2.8381   -0.2406 H   0  0  0  0  0  0  0  0  0  0  0  0
   -4.8973    1.7149   -1.2971 H   0  0  0  0  0  0  0  0  0  0  0  0
   -7.0329    1.0153   -0.1446 H   0  0  0  0  0  0  0  0  0  0  0  0
   -7.3234   -1.3616    0.6044 H   0  0  0  0  0  0  0  0  0  0  0  0
   -5.5001   -3.0334    0.1828 H   0  0  0  0  0  0  0  0  0  0  0  0
   -3.3687   -2.3117   -0.9814 H   0  0  0  0  0  0  0  0  0  0  0  0
    1.7068   -1.1682   -3.4522 H   0  0  0  0  0  0  0  0  0  0  0  0
    0.5333   -0.1295   -4.3266 H   0  0  0  0  0  0  0  0  0  0  0  0
   -0.0639   -1.4451   -3.2193 H   0  0  0  0  0  0  0  0  0  0  0  0
   -1.5318    2.7160   -2.6717 H   0  0  0  0  0  0  0  0  0  0  0  0
   -0.7612    1.8676   -4.0554 H   0  0  0  0  0  0  0  0  0  0  0  0
    0.2455    2.8693   -2.9356 H   0  0  0  0  0  0  0  0  0  0  0  0
  1  5  1  0  0  0  0
  2  4  1  0  0  0  0
  2  1  1  0  0  0  0
  3  7  1  0  0  0  0
  4  3  1  0  0  0  0
  6  1  1  0  0  0  0
  6 15  1  0  0  0  0
  7 21  1  0  0  0  0
  8 27  1  0  0  0  0
  8  3  1  0  0  0  0
  9  5  1  0  0  0  0
  9 10  1  0  0  0  0
 10 35  1  0  0  0  0
 11 10  2  0  0  0  0
 11 36  1  0  0  0  0
 12 11  1  0  0  0  0
 13 14  1  0  0  0  0
 13 12  2  0  0  0  0
 14  9  2  0  0  0  0
 15 16  2  0  0  0  0
 15 20  1  0  0  0  0
 16 17  1  0  0  0  0
 17 41  1  0  0  0  0
 17 18  2  0  0  0  0
 18 42  1  0  0  0  0
 19 18  1  0  0  0  0
 19 43  1  0  0  0  0
 20 19  2  0  0  0  0
 21 22  1  0  0  0  0
 22 23  2  0  0  0  0
 23 46  1  0  0  0  0
 24 23  1  0  0  0  0
 24 47  1  0  0  0  0
 25 24  2  0  0  0  0
 26 21  2  0  0  0  0
 26 25  1  0  0  0  0
 27 28  2  0  0  0  0
 27 32  1  0  0  0  0
 28 29  1  0  0  0  0
 29 51  1  0  0  0  0
 29 30  2  0  0  0  0
 30 52  1  0  0  0  0
 31 30  1  0  0  0  0
 31 53  1  0  0  0  0
 32 31  2  0  0  0  0
 33 57  1  0  0  0  0
 33  2  1  0  0  0  0
 34 60  1  0  0  0  0
 34 58  1  0  0  0  0
 34  4  1  0  0  0  0
 37 12  1  0  0  0  0
 38 13  1  0  0  0  0
 39 14  1  0  0  0  0
 40 16  1  0  0  0  0
 44 20  1  0  0  0  0
 45 22  1  0  0  0  0
 48 25  1  0  0  0  0
 49 26  1  0  0  0  0
 50 28  1  0  0  0  0
 54 32  1  0  0  0  0
 55 33  1  0  0  0  0
 56 33  1  0  0  0  0
 59 34  1  0  0  0  0
M  END
