1,2
q = 0.0, confidence = 0.988

 63 66  0  0  0  0  0  0  0  0999 V2000
    0.3470   -1.7189    0.4203 P   0  0  1  0  0  0  0  0  0  0  0  0
   -0.4503    0.6529    0.5318 P   0  0  2  0  0  0  0  0  0  0  0  0
   -2.5088   -1.4391    1.4090 P   0  0  2  0  0  0  0  0  0  0  0  0
   -0.3198   -0.5640   -0.6862 N   0  0  0  0  0  0  0  0  0  0  0  0
   -1.9936    0.2250    1.2074 N   0  0  0  0  0  0  0  0  0  0  0  0
   -1.0979   -2.3952    1.0880 N   0  0  0  0  0  0  0  0  0  0  0  0
    0.8588   -3.0122   -0.5293 O   0  0  0  0  0  0  0  0  0  0  0  0
   -0.8715    2.0746   -0.2618 O   0  0  0  0  0  0  0  0  0  0  0  0
   -3.2919   -1.7711   -0.0939 O   0  0  0  0  0  0  0  0  0  0  0  0
   -1.1516   -0.7629   -1.8820 C   0  0  0  0  0  0  0  0  0  0  0  0
   -1.3321   -1.8514   -1.9912 H   0  0  0  0  0  0  0  0  0  0  0  0
   -2.1441   -0.2992   -1.7148 H   0  0  0  0  0  0  0  0  0  0  0  0
   -0.4873   -0.1768   -3.1244 C   0  0  0  0  0  0  0  0  0  0  0  0
   -1.1045   -0.3782   -4.0231 H   0  0  0  0  0  0  0  0  0  0  0  0
    0.5188   -0.6123   -3.2866 H   0  0  0  0  0  0  0  0  0  0  0  0
   -0.3734    0.9211   -3.0306 H   0  0  0  0  0  0  0  0  0  0  0  0
   -2.5673    1.1912    2.1760 C   0  0  0  0  0  0  0  0  0  0  0  0
   -3.0039    0.6146    3.0201 H   0  0  0  0  0  0  0  0  0  0  0  0
   -1.7298    1.7760    2.6215 H   0  0  0  0  0  0  0  0  0  0  0  0
   -3.6050    2.1191    1.5530 C   0  0  0  0  0  0  0  0  0  0  0  0
   -3.9858    2.8363    2.3083 H   0  0  0  0  0  0  0  0  0  0  0  0
   -4.4643    1.5428    1.1558 H   0  0  0  0  0  0  0  0  0  0  0  0
   -3.1632    2.6889    0.7130 H   0  0  0  0  0  0  0  0  0  0  0  0
   -0.9728   -3.6442    1.8732 C   0  0  0  0  0  0  0  0  0  0  0  0
    0.0785   -3.7261    2.2307 H   0  0  0  0  0  0  0  0  0  0  0  0
   -1.5925   -3.5404    2.7901 H   0  0  0  0  0  0  0  0  0  0  0  0
   -1.3785   -4.8776    1.0739 C   0  0  0  0  0  0  0  0  0  0  0  0
   -1.2799   -5.7946    1.6895 H   0  0  0  0  0  0  0  0  0  0  0  0
   -0.7399   -4.9829    0.1755 H   0  0  0  0  0  0  0  0  0  0  0  0
   -2.4313   -4.7924    0.7376 H   0  0  0  0  0  0  0  0  0  0  0  0
    2.2084   -3.0403   -0.8788 C   0  0  0  0  0  0  0  0  0  0  0  0
    3.1813   -3.3706    0.0775 C   0  0  0  0  0  0  0  0  0  0  0  0
    2.8784   -3.6138    1.1051 H   0  0  0  0  0  0  0  0  0  0  0  0
    4.5360   -3.3735   -0.2805 C   0  0  0  0  0  0  0  0  0  0  0  0
    5.3039   -3.6136    0.4677 H   0  0  0  0  0  0  0  0  0  0  0  0
    4.9020   -3.0561   -1.5988 C   0  0  0  0  0  0  0  0  0  0  0  0
    3.9291   -2.7434   -2.5626 C   0  0  0  0  0  0  0  0  0  0  0  0
    4.2293   -2.5008   -3.5914 H   0  0  0  0  0  0  0  0  0  0  0  0
    2.5764   -2.7301   -2.1962 C   0  0  0  0  0  0  0  0  0  0  0  0
    1.7962   -2.4793   -2.9286 H   0  0  0  0  0  0  0  0  0  0  0  0
    0.0909    3.0649   -0.4281 C   0  0  0  0  0  0  0  0  0  0  0  0
   -0.1258    4.3151    0.1712 C   0  0  0  0  0  0  0  0  0  0  0  0
   -1.0351    4.4779    0.7672 H   0  0  0  0  0  0  0  0  0  0  0  0
    0.8208    5.3356    0.0110 C   0  0  0  0  0  0  0  0  0  0  0  0
    0.6629    6.3180    0.4773 H   0  0  0  0  0  0  0  0  0  0  0  0
    1.9837    5.0898   -0.7390 C   0  0  0  0  0  0  0  0  0  0  0  0
    2.2044    3.8389   -1.3367 C   0  0  0  0  0  0  0  0  0  0  0  0
    3.1202    3.6518   -1.9142 H   0  0  0  0  0  0  0  0  0  0  0  0
    1.2488    2.8247   -1.1845 C   0  0  0  0  0  0  0  0  0  0  0  0
    1.4054    1.8430   -1.6516 H   0  0  0  0  0  0  0  0  0  0  0  0
   -4.5627   -1.3336   -0.3617 C   0  0  0  0  0  0  0  0  0  0  0  0
   -5.4878   -0.9489    0.6313 C   0  0  0  0  0  0  0  0  0  0  0  0
   -5.2104   -0.9967    1.6947 H   0  0  0  0  0  0  0  0  0  0  0  0
   -6.7738   -0.5203    0.2713 C   0  0  0  0  0  0  0  0  0  0  0  0
   -7.4923   -0.2223    1.0479 H   0  0  0  0  0  0  0  0  0  0  0  0
   -7.1415   -0.4766   -1.0821 C   0  0  0  0  0  0  0  0  0  0  0  0
   -6.2325   -0.8681   -2.0788 C   0  0  0  0  0  0  0  0  0  0  0  0
   -6.5281   -0.8385   -3.1370 H   0  0  0  0  0  0  0  0  0  0  0  0
   -4.9483   -1.2920   -1.7167 C   0  0  0  0  0  0  0  0  0  0  0  0
   -4.2258   -1.6068   -2.4832 H   0  0  0  0  0  0  0  0  0  0  0  0
    6.7394   -3.0482   -2.0862 Br  0  0  0  0  0  0  0  0  0  0  0  0
   -8.8840    0.1138   -1.5699 Br  0  0  0  0  0  0  0  0  0  0  0  0
    3.2760    6.4693   -0.9427 Br  0  0  0  0  0  0  0  0  0  0  0  0
  1  7  1  6  0  0  0
  1  6  1  0  0  0  0
  2  8  1  6  0  0  0
  2  5  1  0  0  0  0
  3  9  1  6  0  0  0
  4  1  1  0  0  0  0
  4  2  1  0  0  0  0
  5  3  1  0  0  0  0
  5 17  1  0  0  0  0
  6  3  1  0  0  0  0
  6 24  1  0  0  0  0
 10 12  1  0  0  0  0
 10  4  1  0  0  0  0
 11 10  1  0  0  0  0
 13 16  1  0  0  0  0
 13 10  1  0  0  0  0
 14 13  1  0  0  0  0
 15 13  1  0  0  0  0
 17 19  1  0  0  0  0
 17 18  1  0  0  0  0
 20 17  1  0  0  0  0
 20 21  1  0  0  0  0
 22 20  1  0  0  0  0
 23 20  1  0  0  0  0
 24 25  1  0  0  0  0
 24 26  1  0  0  0  0
 27 28  1  0  0  0  0
 27 24  1  0  0  0  0
 29 27  1  0  0  0  0
 30 27  1  0  0  0  0
 31  7  1  0  0  0  0
 31 32  1  0  0  0  0
 32 33  1  0  0  0  0
 34 32  2  0  0  0  0
 34 35  1  0  0  0  0
 36 34  1  0  0  0  0
 37 39  1  0  0  0  0
 37 36  2  0  0  0  0
 38 37  1  0  0  0  0
 39 31  2  0  0  0  0
 40 39  1  0  0  0  0
 41  8  1  0  0  0  0
 41 42  1  0  0  0  0
 42 43  1  0  0  0  0
 44 42  2  0  0  0  0
 44 45  1  0  0  0  0
 46 44  1  0  0  0  0
 47 49  1  0  0  0  0
 47 46  2  0  0  0  0
 48 47  1  0  0  0  0
 49 41  2  0  0  0  0
 50 49  1  0  0  0  0
 51  9  1  0  0  0  0
 51 52  1  0  0  0  0
 52 53  1  0  0  0  0
 54 52  2  0  0  0  0
 54 55  1  0  0  0  0
 56 54  1  0  0  0  0
 57 59  1  0  0  0  0
 57 56  2  0  0  0  0
 58 57  1  0  0  0  0
 59 51  2  0  0  0  0
 60 59  1  0  0  0  0
 61 36  1  0  0  0  0
 62 56  1  0  0  0  0
 63 46  1  0  0  0  0
M  END
