1,2
q = 0.0, confidence = 0.996

 58 62  0  0  0  0  0  0  0  0999 V2000
    1.0185   -0.4932   -0.0299 P   0  0  0  0  0  0  0  0  0  0  0  0
   -1.3645    0.4962    0.2428 P   0  0  0  0  0  0  0  0  0  0  0  0
    0.2245    0.7459    0.9091 N   0  0  0  0  0  0  0  0  0  0  0  0
    2.1649    3.0572    0.8710 O   0  0  0  0  0  0  0  0  0  0  0  0
    1.7125   -1.6927    1.1465 C   0  0  0  0  0  0  0  0  0  0  0  0
    1.1008   -1.8598    2.4067 C   0  0  0  0  0  0  0  0  0  0  0  0
    0.2440   -1.2294    2.6886 H   0  0  0  0  0  0  0  0  0  0  0  0
    1.5642   -2.8495    3.2845 C   0  0  0  0  0  0  0  0  0  0  0  0
    1.0861   -2.9733    4.2680 H   0  0  0  0  0  0  0  0  0  0  0  0
    2.6251   -3.6875    2.9037 C   0  0  0  0  0  0  0  0  0  0  0  0
    2.9859   -4.4661    3.5927 H   0  0  0  0  0  0  0  0  0  0  0  0
    3.2136   -3.5434    1.6366 C   0  0  0  0  0  0  0  0  0  0  0  0
    4.0290   -4.2145    1.3273 H   0  0  0  0  0  0  0  0  0  0  0  0
    2.7582   -2.5543    0.7535 C   0  0  0  0  0  0  0  0  0  0  0  0
    3.1965   -2.4601   -0.2507 H   0  0  0  0  0  0  0  0  0  0  0  0
    2.4087    0.2581   -0.9389 C   0  0  0  0  0  0  0  0  0  0  0  0
    2.1354    0.7213   -2.2425 C   0  0  0  0  0  0  0  0  0  0  0  0
    1.1406    0.5384   -2.6779 H   0  0  0  0  0  0  0  0  0  0  0  0
    3.1373    1.3702   -2.9755 C   0  0  0  0  0  0  0  0  0  0  0  0
    2.9238    1.7262   -3.9945 H   0  0  0  0  0  0  0  0  0  0  0  0
    4.4153    1.5448   -2.4182 C   0  0  0  0  0  0  0  0  0  0  0  0
    5.2043    2.0465   -2.9993 H   0  0  0  0  0  0  0  0  0  0  0  0
    4.6915    1.0701   -1.1260 C   0  0  0  0  0  0  0  0  0  0  0  0
    5.6922    1.2043   -0.6886 H   0  0  0  0  0  0  0  0  0  0  0  0
    3.6917    0.4247   -0.3831 C   0  0  0  0  0  0  0  0  0  0  0  0
    3.9071    0.0616    0.6319 H   0  0  0  0  0  0  0  0  0  0  0  0
   -1.9402    2.1199   -0.3372 C   0  0  0  0  0  0  0  0  0  0  0  0
   -1.0155    3.1469   -0.6164 C   0  0  0  0  0  0  0  0  0  0  0  0
    0.0568    2.9927   -0.4239 H   0  0  0  0  0  0  0  0  0  0  0  0
   -1.4715    4.3658   -1.1400 C   0  0  0  0  0  0  0  0  0  0  0  0
   -0.7508    5.1710   -1.3485 H   0  0  0  0  0  0  0  0  0  0  0  0
   -2.8378    4.5559   -1.4025 C   0  0  0  0  0  0  0  0  0  0  0  0
   -3.1904    5.5123   -1.8179 H   0  0  0  0  0  0  0  0  0  0  0  0
   -3.7545    3.5229   -1.1442 C   0  0  0  0  0  0  0  0  0  0  0  0
   -4.8234    3.6650   -1.3638 H   0  0  0  0  0  0  0  0  0  0  0  0
   -3.3119    2.3035   -0.6142 C   0  0  0  0  0  0  0  0  0  0  0  0
   -4.0211    1.4817   -0.4335 H   0  0  0  0  0  0  0  0  0  0  0  0
   -2.4481    0.0327    1.6381 C   0  0  0  0  0  0  0  0  0  0  0  0
   -2.9209    0.9869    2.5623 C   0  0  0  0  0  0  0  0  0  0  0  0
   -2.7323    2.0590    2.3951 H   0  0  0  0  0  0  0  0  0  0  0  0
   -3.6488    0.5665    3.6857 C   0  0  0  0  0  0  0  0  0  0  0  0
   -4.0196    1.3102    4.4073 H   0  0  0  0  0  0  0  0  0  0  0  0
   -3.9106   -0.7995    3.8833 C   0  0  0  0  0  0  0  0  0  0  0  0
   -4.4869   -1.1252    4.7628 H   0  0  0  0  0  0  0  0  0  0  0  0
   -3.4517   -1.7486    2.9546 C   0  0  0  0  0  0  0  0  0  0  0  0
   -3.6730   -2.8167    3.0996 H   0  0  0  0  0  0  0  0  0  0  0  0
   -2.7222   -1.3367    1.8306 C   0  0  0  0  0  0  0  0  0  0  0  0
   -2.3808   -2.0605    1.0738 H   0  0  0  0  0  0  0  0  0  0  0  0
    0.6365    1.5570    2.0546 C   0  0  0  0  0  0  0  0  0  0  0  0
    0.6433    0.9667    2.9971 H   0  0  0  0  0  0  0  0  0  0  0  0
   -0.1322    2.3514    2.1787 H   0  0  0  0  0  0  0  0  0  0  0  0
    1.9834    2.1749    1.9043 C   0  0  0  0  0  0  0  0  0  0  0  0
    3.1468    2.0767    2.6375 C   0  0  0  0  0  0  0  0  0  0  0  0
    3.2979    1.4440    3.5190 H   0  0  0  0  0  0  0  0  0  0  0  0
    4.0972    2.9535    2.0141 C   0  0  0  0  0  0  0  0  0  0  0  0
    5.1342    3.1359    2.3160 H   0  0  0  0  0  0  0  0  0  0  0  0
    3.4469    3.5149    0.9407 C   0  0  0  0  0  0  0  0  0  0  0  0
    3.7463    4.2164    0.1563 H   0  0  0  0  0  0  0  0  0  0  0  0
  1  3  1  0  0  0  0
  1  5  1  0  0  0  0
  2  3  1  0  0  0  0
  2 38  1  0  0  0  0
  3 49  1  0  0  0  0
  4 57  1  0  0  0  0
  4 52  1  0  0  0  0
  5  6  1  0  0  0  0
  6  7  1  0  0  0  0
  6  8  2  0  0  0  0
  8  9  1  0  0  0  0
 10  8  1  0  0  0  0
 10 11  1  0  0  0  0
 12 10  2  0  0  0  0
 13 12  1  0  0  0  0
 14  5  2  0  0  0  0
 14 12  1  0  0  0  0
 15 14  1  0  0  0  0
 16 25  1  0  0  0  0
 16  1  1  0  0  0  0
 17 16  2  0  0  0  0
 18 17  1  0  0  0  0
 19 21  2  0  0  0  0
 19 17  1  0  0  0  0
 20 19  1  0  0  0  0
 21 23  1  0  0  0  0
 22 21  1  0  0  0  0
 23 24  1  0  0  0  0
 23 25  2  0  0  0  0
 25 26  1  0  0  0  0
 27  2  1  0  0  0  0
 28 29  1  0  0  0  0
 28 27  2  0  0  0  0
 30 28  1  0  0  0  0
 31 30  1  0  0  0  0
 32 34  1  0  0  0  0
 32 30  2  0  0  0  0
 33 32  1  0  0  0  0
 34 36  2  0  0  0  0
 35 34  1  0  0  0  0
 36 37  1  0  0  0  0
 36 27  1  0  0  0  0
 38 47  2  0  0  0  0
 38 39  1  0  0  0  0
 39 41  2  0  0  0  0
 40 39  1  0  0  0  0
 41 43  1  0  0  0  0
 41 42  1  0  0  0  0
 43 44  1  0  0  0  0
 45 46  1  0  0  0  0
 45 43  2  0  0  0  0
 47 45  1  0  0  0  0
 48 47  1  0  0  0  0
 49 51  1  0  0  0  0
 49 50  1  0  0  0  0
 52 49  1  0  0  0  0
 52 53  2  0  0  0  0
 53 54  1  0  0  0  0
 55 56  1  0  0  0  0
 55 53  1  0  0  0  0
 57 55  2  0  0  0  0
 58 57  1  0  0  0  0
M  END
