1,2
q = 0.0, confidence = 0.994

 56 59  0  0  0  0  0  0  0  0999 V2000
   -1.6752   -0.2036    0.2779 P   0  0  0  0  0  0  0  0  0  0  0  0
    1.6156   -0.2972    0.3044 P   0  0  0  0  0  0  0  0  0  0  0  0
    0.0420    0.7875    3.8906 O   0  0  0  0  0  0  0  0  0  0  0  0
   -0.7335    1.3199    4.1480 H   0  0  0  0  0  0  0  0  0  0  0  0
   -1.3506   -0.1259    2.1144 C   0  0  0  0  0  0  0  0  0  0  0  0
   -2.1856    0.4267    2.5986 H   0  0  0  0  0  0  0  0  0  0  0  0
   -1.3505   -1.1628    2.5110 H   0  0  0  0  0  0  0  0  0  0  0  0
   -0.0369    0.5838    2.4805 C   0  0  0  0  0  0  0  0  0  0  0  0
   -0.0207    1.5673    1.9485 H   0  0  0  0  0  0  0  0  0  0  0  0
    1.2352   -0.1940    2.1200 C   0  0  0  0  0  0  0  0  0  0  0  0
    1.1505   -1.2426    2.4735 H   0  0  0  0  0  0  0  0  0  0  0  0
    2.0818    0.2612    2.6736 H   0  0  0  0  0  0  0  0  0  0  0  0
   -2.0535    1.5757   -0.0688 C   0  0  0  0  0  0  0  0  0  0  0  0
   -3.1987    2.2191    0.4447 C   0  0  0  0  0  0  0  0  0  0  0  0
   -3.9416    1.6460    1.0218 H   0  0  0  0  0  0  0  0  0  0  0  0
   -3.4063    3.5854    0.2054 C   0  0  0  0  0  0  0  0  0  0  0  0
   -4.3061    4.0796    0.6031 H   0  0  0  0  0  0  0  0  0  0  0  0
   -2.4724    4.3212   -0.5448 C   0  0  0  0  0  0  0  0  0  0  0  0
   -2.6376    5.3940   -0.7286 H   0  0  0  0  0  0  0  0  0  0  0  0
   -1.3365    3.6836   -1.0662 C   0  0  0  0  0  0  0  0  0  0  0  0
   -0.6002    4.2485   -1.6578 H   0  0  0  0  0  0  0  0  0  0  0  0
   -1.1331    2.3141   -0.8360 C   0  0  0  0  0  0  0  0  0  0  0  0
   -0.2512    1.8039   -1.2490 H   0  0  0  0  0  0  0  0  0  0  0  0
   -3.3336   -1.0024    0.1804 C   0  0  0  0  0  0  0  0  0  0  0  0
   -4.2301   -1.1213    1.2616 C   0  0  0  0  0  0  0  0  0  0  0  0
   -3.9620   -0.7351    2.2562 H   0  0  0  0  0  0  0  0  0  0  0  0
   -5.4758   -1.7449    1.0839 C   0  0  0  0  0  0  0  0  0  0  0  0
   -6.1654   -1.8382    1.9369 H   0  0  0  0  0  0  0  0  0  0  0  0
   -5.8393   -2.2504   -0.1734 C   0  0  0  0  0  0  0  0  0  0  0  0
   -6.8159   -2.7394   -0.3098 H   0  0  0  0  0  0  0  0  0  0  0  0
   -4.9476   -2.1423   -1.2535 C   0  0  0  0  0  0  0  0  0  0  0  0
   -5.2213   -2.5487   -2.2391 H   0  0  0  0  0  0  0  0  0  0  0  0
   -3.6988   -1.5325   -1.0750 C   0  0  0  0  0  0  0  0  0  0  0  0
   -2.9777   -1.4745   -1.9061 H   0  0  0  0  0  0  0  0  0  0  0  0
    2.1865    1.4113   -0.1162 C   0  0  0  0  0  0  0  0  0  0  0  0
    2.3415    2.4497    0.8242 C   0  0  0  0  0  0  0  0  0  0  0  0
    2.1590    2.2707    1.8940 H   0  0  0  0  0  0  0  0  0  0  0  0
    2.7275    3.7348    0.4079 C   0  0  0  0  0  0  0  0  0  0  0  0
    2.8350    4.5376    1.1534 H   0  0  0  0  0  0  0  0  0  0  0  0
    2.9737    3.9958   -0.9478 C   0  0  0  0  0  0  0  0  0  0  0  0
    3.2737    5.0039   -1.2716 H   0  0  0  0  0  0  0  0  0  0  0  0
    2.8354    2.9623   -1.8905 C   0  0  0  0  0  0  0  0  0  0  0  0
    3.0297    3.1560   -2.9564 H   0  0  0  0  0  0  0  0  0  0  0  0
    2.4381    1.6835   -1.4788 C   0  0  0  0  0  0  0  0  0  0  0  0
    2.3056    0.8846   -2.2251 H   0  0  0  0  0  0  0  0  0  0  0  0
    3.2251   -1.2078    0.3176 C   0  0  0  0  0  0  0  0  0  0  0  0
    3.3348   -2.3947   -0.4291 C   0  0  0  0  0  0  0  0  0  0  0  0
    2.4613   -2.7411   -1.0037 H   0  0  0  0  0  0  0  0  0  0  0  0
    4.5413   -3.1127   -0.4416 C   0  0  0  0  0  0  0  0  0  0  0  0
    4.6188   -4.0412   -1.0276 H   0  0  0  0  0  0  0  0  0  0  0  0
    5.6444   -2.6452    0.2885 C   0  0  0  0  0  0  0  0  0  0  0  0
    6.5908   -3.2072    0.2790 H   0  0  0  0  0  0  0  0  0  0  0  0
    5.5433   -1.4532    1.0270 C   0  0  0  0  0  0  0  0  0  0  0  0
    6.4103   -1.0795    1.5931 H   0  0  0  0  0  0  0  0  0  0  0  0
    4.3404   -0.7339    1.0386 C   0  0  0  0  0  0  0  0  0  0  0  0
    4.2736    0.2101    1.6024 H   0  0  0  0  0  0  0  0  0  0  0  0
  1  5  1  0  0  0  0
  2 46  1  0  0  0  0
  2 10  1  0  0  0  0
  3  4  1  0  0  0  0
  5  8  1  0  0  0  0
  5  7  1  0  0  0  0
  5  6  1  0  0  0  0
  8  3  1  0  0  0  0
  9  8  1  0  0  0  0
 10 11  1  0  0  0  0
 10  8  1  0  0  0  0
 10 12  1  0  0  0  0
 13  1  1  0  0  0  0
 13 14  1  0  0  0  0
 14 15  1  0  0  0  0
 16 14  2  0  0  0  0
 16 17  1  0  0  0  0
 18 16  1  0  0  0  0
 19 18  1  0  0  0  0
 20 22  1  0  0  0  0
 20 18  2  0  0  0  0
 21 20  1  0  0  0  0
 22 13  2  0  0  0  0
 23 22  1  0  0  0  0
 24  1  1  0  0  0  0
 24 25  1  0  0  0  0
 25 26  1  0  0  0  0
 27 25  2  0  0  0  0
 27 28  1  0  0  0  0
 29 27  1  0  0  0  0
 30 29  1  0  0  0  0
 31 33  1  0  0  0  0
 31 29  2  0  0  0  0
 32 31  1  0  0  0  0
 33 24  2  0  0  0  0
 34 33  1  0  0  0  0
 35  2  1  0  0  0  0
 35 36  1  0  0  0  0
 36 37  1  0  0  0  0
 38 36  2  0  0  0  0
 38 39  1  0  0  0  0
 40 38  1  0  0  0  0
 41 40  1  0  0  0  0
 42 44  1  0  0  0  0
 42 40  2  0  0  0  0
 43 42  1  0  0  0  0
 44 35  2  0  0  0  0
 45 44  1  0  0  0  0
 46 55  1  0  0  0  0
 47 46  2  0  0  0  0
 48 47  1  0  0  0  0
 49 47  1  0  0  0  0
 49 51  2  0  0  0  0
 50 49  1  0  0  0  0
 51 53  1  0  0  0  0
 52 51  1  0  0  0  0
 53 55  2  0  0  0  0
 53 54  1  0  0  0  0
 55 56  1  0  0  0  0
M  END
