1,2
q = 0.0, confidence = 0.99

 56 58  0  0  1  0  0  0  0  0999 V2000
   -0.4846    1.5508    0.2675 P   0  0  2  0  0  0  0  0  0  0  0  0
   -0.4847   -1.5508    0.2678 P   0  0  2  0  0  0  0  0  0  0  0  0
   -1.4091    1.9157   -1.2471 C   0  0  0  0  0  0  0  0  0  0  0  0
   -2.7016    1.4988   -1.2353 C   0  0  0  0  0  0  0  0  0  0  0  0
   -3.1778    0.8170    0.0408 C   0  0  1  0  0  0  0  0  0  0  0  0
   -1.9901    0.7672    1.0587 C   0  0  1  0  0  0  0  0  0  0  0  0
   -3.6629    1.7914   -2.3532 C   0  0  0  0  0  0  0  0  0  0  0  0
   -4.4587    1.4637    0.5701 C   0  0  0  0  0  0  0  0  0  0  0  0
   -1.9900   -0.7669    1.0588 C   0  0  1  0  0  0  0  0  0  0  0  0
   -3.1778   -0.8171    0.0411 C   0  0  2  0  0  0  0  0  0  0  0  0
   -2.7019   -1.4995   -1.2347 C   0  0  0  0  0  0  0  0  0  0  0  0
   -1.4094   -1.9165   -1.2464 C   0  0  0  0  0  0  0  0  0  0  0  0
   -4.4586   -1.4635    0.5708 C   0  0  0  0  0  0  0  0  0  0  0  0
   -3.6634   -1.7924   -2.3524 C   0  0  0  0  0  0  0  0  0  0  0  0
   -0.1808    3.2135    1.1427 C   0  0  0  0  0  0  0  0  0  0  0  0
    0.8070    2.9528    2.2897 C   0  0  0  0  0  0  0  0  0  0  0  0
    0.3994    4.2064    0.1197 C   0  0  0  0  0  0  0  0  0  0  0  0
   -1.5117    3.7696    1.6750 C   0  0  0  0  0  0  0  0  0  0  0  0
   -0.1802   -3.2128    1.1440 C   0  0  0  0  0  0  0  0  0  0  0  0
    0.8087   -2.9514    2.2899 C   0  0  0  0  0  0  0  0  0  0  0  0
    0.3988   -4.2066    0.1212 C   0  0  0  0  0  0  0  0  0  0  0  0
   -1.5107   -3.7683    1.6780 C   0  0  0  0  0  0  0  0  0  0  0  0
   -0.9367    2.4049   -2.1116 H   0  0  0  0  0  0  0  0  0  0  0  0
   -2.2028    1.2175    2.0444 H   0  0  0  0  0  0  0  0  0  0  0  0
   -3.1325    2.0707   -3.2829 H   0  0  0  0  0  0  0  0  0  0  0  0
   -4.3344    0.9394   -2.5746 H   0  0  0  0  0  0  0  0  0  0  0  0
   -4.3240    2.6403   -2.0747 H   0  0  0  0  0  0  0  0  0  0  0  0
   -4.7318    1.0790    1.5707 H   0  0  0  0  0  0  0  0  0  0  0  0
   -4.3189    2.5599    0.6627 H   0  0  0  0  0  0  0  0  0  0  0  0
   -5.3197    1.2881   -0.1053 H   0  0  0  0  0  0  0  0  0  0  0  0
   -2.2028   -1.2169    2.0446 H   0  0  0  0  0  0  0  0  0  0  0  0
   -0.9371   -2.4063   -2.1108 H   0  0  0  0  0  0  0  0  0  0  0  0
   -4.7317   -1.0784    1.5712 H   0  0  0  0  0  0  0  0  0  0  0  0
   -5.3197   -1.2883   -0.1046 H   0  0  0  0  0  0  0  0  0  0  0  0
   -4.3188   -2.5597    0.6639 H   0  0  0  0  0  0  0  0  0  0  0  0
   -3.1332   -2.0691   -3.2829 H   0  0  0  0  0  0  0  0  0  0  0  0
   -4.3223   -2.6432   -2.0747 H   0  0  0  0  0  0  0  0  0  0  0  0
   -4.3370   -0.9416   -2.5717 H   0  0  0  0  0  0  0  0  0  0  0  0
    0.9720    3.8934    2.8568 H   0  0  0  0  0  0  0  0  0  0  0  0
    0.4205    2.1921    3.0000 H   0  0  0  0  0  0  0  0  0  0  0  0
    1.7805    2.5991    1.8963 H   0  0  0  0  0  0  0  0  0  0  0  0
    0.6559    5.1501    0.6463 H   0  0  0  0  0  0  0  0  0  0  0  0
    1.3181    3.8082   -0.3539 H   0  0  0  0  0  0  0  0  0  0  0  0
   -0.3398    4.4533   -0.6691 H   0  0  0  0  0  0  0  0  0  0  0  0
   -1.3378    4.7988    2.0532 H   0  0  0  0  0  0  0  0  0  0  0  0
   -2.2815    3.8339    0.8788 H   0  0  0  0  0  0  0  0  0  0  0  0
   -1.9213    3.1792    2.5181 H   0  0  0  0  0  0  0  0  0  0  0  0
    0.9739   -3.8916    2.8576 H   0  0  0  0  0  0  0  0  0  0  0  0
    1.7820   -2.5983    1.8954 H   0  0  0  0  0  0  0  0  0  0  0  0
    0.4230   -2.1900    2.9998 H   0  0  0  0  0  0  0  0  0  0  0  0
    0.6557   -5.1499    0.6482 H   0  0  0  0  0  0  0  0  0  0  0  0
   -0.3413   -4.4540   -0.6667 H   0  0  0  0  0  0  0  0  0  0  0  0
    1.3170   -3.8089   -0.3537 H   0  0  0  0  0  0  0  0  0  0  0  0
   -1.3367   -4.7973    2.0566 H   0  0  0  0  0  0  0  0  0  0  0  0
   -1.9192   -3.1773    2.5211 H   0  0  0  0  0  0  0  0  0  0  0  0
   -2.2814   -3.8329    0.8826 H   0  0  0  0  0  0  0  0  0  0  0  0
  1  6  1  0  0  0  0
  1 15  1  1  0  0  0
  2  9  1  0  0  0  0
  2 19  1  1  0  0  0
  3  4  2  0  0  0  0
  3  1  1  0  0  0  0
  4  5  1  0  0  0  0
  5 10  1  0  0  0  0
  5  8  1  1  0  0  0
  5  6  1  0  0  0  0
  6  9  1  0  0  0  0
  6 24  1  1  0  0  0
  7 27  1  0  0  0  0
  7  4  1  0  0  0  0
  8 29  1  0  0  0  0
  8 28  1  0  0  0  0
  9 31  1  1  0  0  0
 10 13  1  1  0  0  0
 10  9  1  0  0  0  0
 11 10  1  0  0  0  0
 12 11  2  0  0  0  0
 12  2  1  0  0  0  0
 13 35  1  0  0  0  0
 13 33  1  0  0  0  0
 14 37  1  0  0  0  0
 14 11  1  0  0  0  0
 15 18  1  0  0  0  0
 15 16  1  0  0  0  0
 16 39  1  0  0  0  0
 16 40  1  0  0  0  0
 17 42  1  0  0  0  0
 17 15  1  0  0  0  0
 18 45  1  0  0  0  0
 18 47  1  0  0  0  0
 19 22  1  0  0  0  0
 19 20  1  0  0  0  0
 20 48  1  0  0  0  0
 20 50  1  0  0  0  0
 21 51  1  0  0  0  0
 21 19  1  0  0  0  0
 22 54  1  0  0  0  0
 22 55  1  0  0  0  0
 23  3  1  0  0  0  0
 25  7  1  0  0  0  0
 26  7  1  0  0  0  0
 30  8  1  0  0  0  0
 32 12  1  0  0  0  0
 34 13  1  0  0  0  0
 36 14  1  0  0  0  0
 38 14  1  0  0  0  0
 41 16  1  0  0  0  0
 43 17  1  0  0  0  0
 44 17  1  0  0  0  0
 46 18  1  0  0  0  0
 49 20  1  0  0  0  0
 52 21  1  0  0  0  0
 53 21  1  0  0  0  0
 56 22  1  0  0  0  0
M  END
