1,2
q = 0.0, confidence = 0.994

 56 57  0  0  1  0  0  0  0  0999 V2000
   -1.1993   -1.0447    0.2621 P   0  0  2  0  0  0  0  0  0  0  0  0
    0.3795    1.6225    0.4686 P   0  0  1  0  0  0  0  0  0  0  0  0
   -2.2210    0.4773    0.7428 C   0  0  2  0  0  0  0  0  0  0  0  0
   -3.5638    0.2492    0.0575 C   0  0  0  0  0  0  0  0  0  0  0  0
   -3.4513   -0.6690   -1.1002 C   0  0  0  0  0  0  0  0  0  0  0  0
   -2.2906   -1.3870   -1.1441 C   0  0  0  0  0  0  0  0  0  0  0  0
   -4.7226    0.8088    0.4780 C   0  0  0  0  0  0  0  0  0  0  0  0
   -4.5631   -0.7929   -2.0998 C   0  0  0  0  0  0  0  0  0  0  0  0
   -1.4955    1.7923    0.3410 C   0  0  2  0  0  0  0  0  0  0  0  0
   -1.7355    2.3669   -1.0907 C   0  0  2  0  0  0  0  0  0  0  0  0
   -0.4525    3.0362   -1.5786 C   0  0  0  0  0  0  0  0  0  0  0  0
    0.6682    2.8095   -0.8516 C   0  0  0  0  0  0  0  0  0  0  0  0
   -0.4738    3.8271   -2.8521 C   0  0  0  0  0  0  0  0  0  0  0  0
   -2.9382    3.3234   -1.1477 C   0  0  0  0  0  0  0  0  0  0  0  0
   -1.5609   -2.4251    1.5343 C   0  0  0  0  0  0  0  0  0  0  0  0
   -2.9318   -2.2060    2.1921 C   0  0  0  0  0  0  0  0  0  0  0  0
   -1.5591   -3.7689    0.7853 C   0  0  0  0  0  0  0  0  0  0  0  0
   -0.4377   -2.3948    2.5809 C   0  0  0  0  0  0  0  0  0  0  0  0
    0.9584    2.3442    2.1187 C   0  0  0  0  0  0  0  0  0  0  0  0
    0.2395    3.6745    2.3907 C   0  0  0  0  0  0  0  0  0  0  0  0
    2.4759    2.5771    2.0265 C   0  0  0  0  0  0  0  0  0  0  0  0
    0.6460    1.3097    3.2102 C   0  0  0  0  0  0  0  0  0  0  0  0
   -2.3455    0.4829    1.8431 H   0  0  0  0  0  0  0  0  0  0  0  0
   -2.0300   -2.1157   -1.9247 H   0  0  0  0  0  0  0  0  0  0  0  0
   -4.7525    1.4581    1.3663 H   0  0  0  0  0  0  0  0  0  0  0  0
   -5.6748    0.6290   -0.0429 H   0  0  0  0  0  0  0  0  0  0  0  0
   -4.2992   -1.4903   -2.9159 H   0  0  0  0  0  0  0  0  0  0  0  0
   -5.4900   -1.1663   -1.6152 H   0  0  0  0  0  0  0  0  0  0  0  0
   -4.8119    0.1948   -2.5416 H   0  0  0  0  0  0  0  0  0  0  0  0
   -1.7978    2.5820    1.0591 H   0  0  0  0  0  0  0  0  0  0  0  0
   -1.9248    1.5145   -1.7846 H   0  0  0  0  0  0  0  0  0  0  0  0
    1.6780    3.1294   -1.1445 H   0  0  0  0  0  0  0  0  0  0  0  0
    0.5445    4.1333   -3.1553 H   0  0  0  0  0  0  0  0  0  0  0  0
   -0.9181    3.2282   -3.6763 H   0  0  0  0  0  0  0  0  0  0  0  0
   -1.0977    4.7405   -2.7549 H   0  0  0  0  0  0  0  0  0  0  0  0
   -3.8549    2.8313   -0.7756 H   0  0  0  0  0  0  0  0  0  0  0  0
   -2.7488    4.2222   -0.5240 H   0  0  0  0  0  0  0  0  0  0  0  0
   -3.1357    3.6639   -2.1832 H   0  0  0  0  0  0  0  0  0  0  0  0
   -3.1502   -3.0736    2.8499 H   0  0  0  0  0  0  0  0  0  0  0  0
   -2.9625   -1.2988    2.8276 H   0  0  0  0  0  0  0  0  0  0  0  0
   -3.7490   -2.1392    1.4470 H   0  0  0  0  0  0  0  0  0  0  0  0
   -1.6695   -4.5892    1.5258 H   0  0  0  0  0  0  0  0  0  0  0  0
   -2.4070   -3.8390    0.0744 H   0  0  0  0  0  0  0  0  0  0  0  0
   -0.6139   -3.9200    0.2261 H   0  0  0  0  0  0  0  0  0  0  0  0
   -0.6087   -3.1999    3.3264 H   0  0  0  0  0  0  0  0  0  0  0  0
    0.5509   -2.5561    2.1073 H   0  0  0  0  0  0  0  0  0  0  0  0
   -0.4073   -1.4301    3.1254 H   0  0  0  0  0  0  0  0  0  0  0  0
    0.6827    4.1499    3.2909 H   0  0  0  0  0  0  0  0  0  0  0  0
    0.3513    4.3824    1.5444 H   0  0  0  0  0  0  0  0  0  0  0  0
   -0.8425    3.5408    2.5925 H   0  0  0  0  0  0  0  0  0  0  0  0
    2.8473    2.9183    3.0162 H   0  0  0  0  0  0  0  0  0  0  0  0
    3.0198    1.6580    1.7325 H   0  0  0  0  0  0  0  0  0  0  0  0
    2.7238    3.3609    1.2833 H   0  0  0  0  0  0  0  0  0  0  0  0
    0.9894    1.6899    4.1952 H   0  0  0  0  0  0  0  0  0  0  0  0
   -0.4424    1.1068    3.2932 H   0  0  0  0  0  0  0  0  0  0  0  0
    1.1633    0.3513    3.0068 H   0  0  0  0  0  0  0  0  0  0  0  0
  1  3  1  0  0  0  0
  1 15  1  1  0  0  0
  2 19  1  1  0  0  0
  3 23  1  1  0  0  0
  4  7  2  0  0  0  0
  4  3  1  0  0  0  0
  5  4  1  0  0  0  0
  6  5  2  0  0  0  0
  6  1  1  0  0  0  0
  7 25  1  0  0  0  0
  8 28  1  0  0  0  0
  8  5  1  0  0  0  0
  9  2  1  0  0  0  0
  9  3  1  0  0  0  0
  9 30  1  1  0  0  0
 10 31  1  6  0  0  0
 10  9  1  0  0  0  0
 11 10  1  0  0  0  0
 11 12  2  0  0  0  0
 12  2  1  0  0  0  0
 13 35  1  0  0  0  0
 13 11  1  0  0  0  0
 14 10  1  0  0  0  0
 14 36  1  0  0  0  0
 14 37  1  0  0  0  0
 15 16  1  0  0  0  0
 15 18  1  0  0  0  0
 16 40  1  0  0  0  0
 16 39  1  0  0  0  0
 17 42  1  0  0  0  0
 17 15  1  0  0  0  0
 18 47  1  0  0  0  0
 18 45  1  0  0  0  0
 19 20  1  0  0  0  0
 19 22  1  0  0  0  0
 20 50  1  0  0  0  0
 20 48  1  0  0  0  0
 21 19  1  0  0  0  0
 21 51  1  0  0  0  0
 22 55  1  0  0  0  0
 22 54  1  0  0  0  0
 24  6  1  0  0  0  0
 26  7  1  0  0  0  0
 27  8  1  0  0  0  0
 29  8  1  0  0  0  0
 32 12  1  0  0  0  0
 33 13  1  0  0  0  0
 34 13  1  0  0  0  0
 38 14  1  0  0  0  0
 41 16  1  0  0  0  0
 43 17  1  0  0  0  0
 44 17  1  0  0  0  0
 46 18  1  0  0  0  0
 49 20  1  0  0  0  0
 52 21  1  0  0  0  0
 53 21  1  0  0  0  0
 56 22  1  0  0  0  0
M  END
