1,2
q = 0.0, confidence = 0.976

 60 60  0  0  1  0  0  0  0  0999 V2000
   -1.6629    0.6402    0.2070 P   0  0  0  0  0  0  0  0  0  0  0  0
    1.7353   -0.3592    0.1053 P   0  0  0  0  0  0  0  0  0  0  0  0
   -0.9500    2.1332    0.4544 O   0  0  0  0  0  0  0  0  0  0  0  0
    1.9394    1.2710    0.3910 O   0  0  0  0  0  0  0  0  0  0  0  0
    1.2210    4.1113    0.9490 C   0  0  0  0  0  0  0  0  0  0  0  0
    1.0209    3.3792    1.7582 H   0  0  0  0  0  0  0  0  0  0  0  0
    1.5150    5.0627    1.4368 H   0  0  0  0  0  0  0  0  0  0  0  0
   -0.4793    3.0138   -0.5801 C   0  0  2  0  0  0  0  0  0  0  0  0
   -1.3251    3.2387   -1.2663 H   0  0  0  0  0  0  0  0  0  0  0  0
    2.8124   -0.8220   -1.3582 C   0  0  0  0  0  0  0  0  0  0  0  0
    2.7591   -1.9271   -1.2365 H   0  0  0  0  0  0  0  0  0  0  0  0
    2.1619   -0.5074   -2.7116 C   0  0  0  0  0  0  0  0  0  0  0  0
    1.0990   -0.8234   -2.7228 H   0  0  0  0  0  0  0  0  0  0  0  0
    2.6880   -1.0677   -3.5115 H   0  0  0  0  0  0  0  0  0  0  0  0
    2.2149    0.5678   -2.9753 H   0  0  0  0  0  0  0  0  0  0  0  0
    0.6625    2.4103   -1.4013 C   0  0  0  0  0  0  0  0  0  0  0  0
    0.8410    3.0712   -2.2764 H   0  0  0  0  0  0  0  0  0  0  0  0
    0.3574    1.4272   -1.8139 H   0  0  0  0  0  0  0  0  0  0  0  0
   -2.9933    0.8857   -1.0773 C   0  0  0  0  0  0  0  0  0  0  0  0
   -3.5653   -0.0560   -0.9227 H   0  0  0  0  0  0  0  0  0  0  0  0
   -0.0538    4.3067    0.1224 C   0  0  0  0  0  0  0  0  0  0  0  0
    0.1129    5.0805   -0.6589 H   0  0  0  0  0  0  0  0  0  0  0  0
   -0.8948    4.6579    0.7540 H   0  0  0  0  0  0  0  0  0  0  0  0
    2.6454   -1.0424    1.6002 C   0  0  0  0  0  0  0  0  0  0  0  0
    3.1727   -1.9163    1.1588 H   0  0  0  0  0  0  0  0  0  0  0  0
    1.9823    2.2814   -0.6338 C   0  0  1  0  0  0  0  0  0  0  0  0
    2.7846    2.0155   -1.3559 H   0  0  0  0  0  0  0  0  0  0  0  0
   -2.4461    0.8271   -2.5097 C   0  0  0  0  0  0  0  0  0  0  0  0
   -1.7901   -0.0563   -2.6417 H   0  0  0  0  0  0  0  0  0  0  0  0
   -1.8770    1.7370   -2.7878 H   0  0  0  0  0  0  0  0  0  0  0  0
   -3.2881    0.7331   -3.2257 H   0  0  0  0  0  0  0  0  0  0  0  0
   -1.4970    0.3499    2.9628 C   0  0  0  0  0  0  0  0  0  0  0  0
   -0.6260    1.0296    2.8794 H   0  0  0  0  0  0  0  0  0  0  0  0
   -1.1316   -0.6941    2.9052 H   0  0  0  0  0  0  0  0  0  0  0  0
   -1.9612    0.5010    3.9590 H   0  0  0  0  0  0  0  0  0  0  0  0
    4.2736   -0.3731   -1.2638 C   0  0  0  0  0  0  0  0  0  0  0  0
    4.7780   -0.7702   -0.3625 H   0  0  0  0  0  0  0  0  0  0  0  0
    4.3885    0.7300   -1.2582 H   0  0  0  0  0  0  0  0  0  0  0  0
    4.8302   -0.7556   -2.1446 H   0  0  0  0  0  0  0  0  0  0  0  0
   -2.5296    0.6113    1.8610 C   0  0  0  0  0  0  0  0  0  0  0  0
   -2.8901    1.6595    1.9492 H   0  0  0  0  0  0  0  0  0  0  0  0
    2.3607    3.5880    0.0693 C   0  0  0  0  0  0  0  0  0  0  0  0
    3.2824    3.4163    0.6615 H   0  0  0  0  0  0  0  0  0  0  0  0
    2.6119    4.3363   -0.7143 H   0  0  0  0  0  0  0  0  0  0  0  0
    1.6909   -1.5689    2.6762 C   0  0  0  0  0  0  0  0  0  0  0  0
    0.9782   -2.3032    2.2548 H   0  0  0  0  0  0  0  0  0  0  0  0
    1.1208   -0.7424    3.1428 H   0  0  0  0  0  0  0  0  0  0  0  0
    2.2768   -2.0682    3.4753 H   0  0  0  0  0  0  0  0  0  0  0  0
   -3.8926    2.0953   -0.8056 C   0  0  0  0  0  0  0  0  0  0  0  0
   -4.3486    2.0643    0.2031 H   0  0  0  0  0  0  0  0  0  0  0  0
   -4.7224    2.1132   -1.5423 H   0  0  0  0  0  0  0  0  0  0  0  0
   -3.3500    3.0576   -0.8984 H   0  0  0  0  0  0  0  0  0  0  0  0
   -3.7105   -0.3589    1.9387 C   0  0  0  0  0  0  0  0  0  0  0  0
   -4.5216   -0.0969    1.2312 H   0  0  0  0  0  0  0  0  0  0  0  0
   -4.1365   -0.3293    2.9630 H   0  0  0  0  0  0  0  0  0  0  0  0
   -3.3944   -1.3955    1.7106 H   0  0  0  0  0  0  0  0  0  0  0  0
    3.6575   -0.0502    2.1851 C   0  0  0  0  0  0  0  0  0  0  0  0
    4.3722    0.3392    1.4365 H   0  0  0  0  0  0  0  0  0  0  0  0
    4.2387   -0.5529    2.9855 H   0  0  0  0  0  0  0  0  0  0  0  0
    3.1391    0.8202    2.6319 H   0  0  0  0  0  0  0  0  0  0  0  0
  1  3  1  0  0  0  0
  1 40  1  0  0  0  0
  2  4  1  0  0  0  0
  2 24  1  0  0  0  0
  5  7  1  0  0  0  0
  5  6  1  0  0  0  0
  8  9  1  6  0  0  0
  8 21  1  0  0  0  0
  8  3  1  0  0  0  0
 10 36  1  0  0  0  0
 10 11  1  0  0  0  0
 10  2  1  0  0  0  0
 12 10  1  0  0  0  0
 13 12  1  0  0  0  0
 14 12  1  0  0  0  0
 15 12  1  0  0  0  0
 16 26  1  0  0  0  0
 16  8  1  0  0  0  0
 17 16  1  0  0  0  0
 18 16  1  0  0  0  0
 19 20  1  0  0  0  0
 19 49  1  0  0  0  0
 19  1  1  0  0  0  0
 21 23  1  0  0  0  0
 21  5  1  0  0  0  0
 22 21  1  0  0  0  0
 24 57  1  0  0  0  0
 24 45  1  0  0  0  0
 25 24  1  0  0  0  0
 26 27  1  6  0  0  0
 26 42  1  0  0  0  0
 26  4  1  0  0  0  0
 28 19  1  0  0  0  0
 29 28  1  0  0  0  0
 30 28  1  0  0  0  0
 31 28  1  0  0  0  0
 32 35  1  0  0  0  0
 33 32  1  0  0  0  0
 34 32  1  0  0  0  0
 36 38  1  0  0  0  0
 36 37  1  0  0  0  0
 39 36  1  0  0  0  0
 40 53  1  0  0  0  0
 40 41  1  0  0  0  0
 40 32  1  0  0  0  0
 42 43  1  0  0  0  0
 42  5  1  0  0  0  0
 44 42  1  0  0  0  0
 45 47  1  0  0  0  0
 45 48  1  0  0  0  0
 46 45  1  0  0  0  0
 49 50  1  0  0  0  0
 51 49  1  0  0  0  0
 52 49  1  0  0  0  0
 53 55  1  0  0  0  0
 54 53  1  0  0  0  0
 56 53  1  0  0  0  0
 57 60  1  0  0  0  0
 57 59  1  0  0  0  0
 58 57  1  0  0  0  0
M  END
