1,2
q = 0.0, confidence = 1.0

 66 68  0  0  0  0  0  0  0  0999 V2000
   -2.0983   -0.0771    0.4824 P   0  0  0  0  0  0  0  0  0  0  0  0
    1.4294   -0.0963    0.4026 P   0  0  0  0  0  0  0  0  0  0  0  0
   -1.7268    1.0318    1.9619 C   0  0  0  0  0  0  0  0  0  0  0  0
   -2.6982    1.3195    2.4014 H   0  0  0  0  0  0  0  0  0  0  0  0
   -1.2406    0.3698    2.7021 H   0  0  0  0  0  0  0  0  0  0  0  0
   -0.8753    2.2541    1.7219 C   0  0  0  0  0  0  0  0  0  0  0  0
   -1.4576    3.5201    1.5076 C   0  0  0  0  0  0  0  0  0  0  0  0
   -2.5527    3.6181    1.5114 H   0  0  0  0  0  0  0  0  0  0  0  0
   -0.6743    4.6633    1.2992 C   0  0  0  0  0  0  0  0  0  0  0  0
   -1.1607    5.6355    1.1290 H   0  0  0  0  0  0  0  0  0  0  0  0
    0.7240    4.5625    1.3190 C   0  0  0  0  0  0  0  0  0  0  0  0
    1.3514    5.4515    1.1563 H   0  0  0  0  0  0  0  0  0  0  0  0
    1.3204    3.3186    1.5596 C   0  0  0  0  0  0  0  0  0  0  0  0
    2.4171    3.2315    1.5887 H   0  0  0  0  0  0  0  0  0  0  0  0
    0.5398    2.1633    1.7649 C   0  0  0  0  0  0  0  0  0  0  0  0
    1.2150    0.8441    2.0037 C   0  0  0  0  0  0  0  0  0  0  0  0
    0.6506    0.1980    2.7033 H   0  0  0  0  0  0  0  0  0  0  0  0
    2.2314    0.9936    2.4174 H   0  0  0  0  0  0  0  0  0  0  0  0
    2.7693    0.9160   -0.3405 C   0  0  0  0  0  0  0  0  0  0  0  0
    2.4221    1.9688   -1.2098 C   0  0  0  0  0  0  0  0  0  0  0  0
    1.3738    2.0886   -1.5210 H   0  0  0  0  0  0  0  0  0  0  0  0
    3.4139    2.8403   -1.6790 C   0  0  0  0  0  0  0  0  0  0  0  0
    3.1392    3.6596   -2.3602 H   0  0  0  0  0  0  0  0  0  0  0  0
    4.7527    2.6613   -1.2928 C   0  0  0  0  0  0  0  0  0  0  0  0
    5.5310    3.3417   -1.6710 H   0  0  0  0  0  0  0  0  0  0  0  0
    5.0996    1.6072   -0.4331 C   0  0  0  0  0  0  0  0  0  0  0  0
    6.1493    1.4562   -0.1383 H   0  0  0  0  0  0  0  0  0  0  0  0
    4.1096    0.7355    0.0479 C   0  0  0  0  0  0  0  0  0  0  0  0
    4.3841   -0.0955    0.7162 H   0  0  0  0  0  0  0  0  0  0  0  0
    2.2164   -1.6723    0.9605 C   0  0  0  0  0  0  0  0  0  0  0  0
    2.4077   -2.7126    0.0247 C   0  0  0  0  0  0  0  0  0  0  0  0
    2.1070   -2.5506   -1.0232 H   0  0  0  0  0  0  0  0  0  0  0  0
    2.9807   -3.9260    0.4295 C   0  0  0  0  0  0  0  0  0  0  0  0
    3.1245   -4.7270   -0.3114 H   0  0  0  0  0  0  0  0  0  0  0  0
    3.3631   -4.1236    1.7659 C   0  0  0  0  0  0  0  0  0  0  0  0
    3.8069   -5.0805    2.0804 H   0  0  0  0  0  0  0  0  0  0  0  0
    3.1754   -3.0946    2.7004 C   0  0  0  0  0  0  0  0  0  0  0  0
    3.4729   -3.2379    3.7503 H   0  0  0  0  0  0  0  0  0  0  0  0
    2.6068   -1.8743    2.3023 C   0  0  0  0  0  0  0  0  0  0  0  0
    2.4741   -1.0866    3.0564 H   0  0  0  0  0  0  0  0  0  0  0  0
   -3.6557    0.7859   -0.2798 C   0  0  0  0  0  0  0  0  0  0  0  0
   -3.1060    1.8124   -1.2921 C   0  0  0  0  0  0  0  0  0  0  0  0
   -3.9483    2.4335   -1.6649 H   0  0  0  0  0  0  0  0  0  0  0  0
   -2.6365    1.2981   -2.1517 H   0  0  0  0  0  0  0  0  0  0  0  0
   -2.3559    2.4898   -0.8379 H   0  0  0  0  0  0  0  0  0  0  0  0
   -4.5052    1.5139    0.7811 C   0  0  0  0  0  0  0  0  0  0  0  0
   -5.4251    1.8813    0.2802 H   0  0  0  0  0  0  0  0  0  0  0  0
   -4.0064    2.3999    1.2127 H   0  0  0  0  0  0  0  0  0  0  0  0
   -4.8281    0.8541    1.6093 H   0  0  0  0  0  0  0  0  0  0  0  0
   -4.5826   -0.2100   -1.0010 C   0  0  0  0  0  0  0  0  0  0  0  0
   -5.1282   -0.8600   -0.2890 H   0  0  0  0  0  0  0  0  0  0  0  0
   -4.0283   -0.8295   -1.7285 H   0  0  0  0  0  0  0  0  0  0  0  0
   -5.3446    0.3770   -1.5566 H   0  0  0  0  0  0  0  0  0  0  0  0
   -2.5553   -1.7328    1.3401 C   0  0  0  0  0  0  0  0  0  0  0  0
   -3.7180   -1.5728    2.3327 C   0  0  0  0  0  0  0  0  0  0  0  0
   -4.6640   -1.2991    1.8278 H   0  0  0  0  0  0  0  0  0  0  0  0
   -3.5089   -0.8211    3.1201 H   0  0  0  0  0  0  0  0  0  0  0  0
   -3.8899   -2.5433    2.8451 H   0  0  0  0  0  0  0  0  0  0  0  0
   -2.8964   -2.7938    0.2772 C   0  0  0  0  0  0  0  0  0  0  0  0
   -3.0009   -3.7767    0.7833 H   0  0  0  0  0  0  0  0  0  0  0  0
   -2.1020   -2.8722   -0.4898 H   0  0  0  0  0  0  0  0  0  0  0  0
   -3.8434   -2.5817   -0.2483 H   0  0  0  0  0  0  0  0  0  0  0  0
   -1.2969   -2.2182    2.0872 C   0  0  0  0  0  0  0  0  0  0  0  0
   -0.9986   -1.5570    2.9257 H   0  0  0  0  0  0  0  0  0  0  0  0
   -0.4352   -2.3325    1.4007 H   0  0  0  0  0  0  0  0  0  0  0  0
   -1.5090   -3.2145    2.5282 H   0  0  0  0  0  0  0  0  0  0  0  0
  1 54  1  0  0  0  0
  1  3  1  0  0  0  0
  2 30  1  0  0  0  0
  2 16  1  0  0  0  0
  3  4  1  0  0  0  0
  3  5  1  0  0  0  0
  6 15  1  0  0  0  0
  6  3  1  0  0  0  0
  7  8  1  0  0  0  0
  7  6  2  0  0  0  0
  9 11  2  0  0  0  0
  9  7  1  0  0  0  0
 10  9  1  0  0  0  0
 11 13  1  0  0  0  0
 12 11  1  0  0  0  0
 13 14  1  0  0  0  0
 13 15  2  0  0  0  0
 15 16  1  0  0  0  0
 16 18  1  0  0  0  0
 16 17  1  0  0  0  0
 19 28  1  0  0  0  0
 19  2  1  0  0  0  0
 20 19  2  0  0  0  0
 21 20  1  0  0  0  0
 22 24  2  0  0  0  0
 22 20  1  0  0  0  0
 23 22  1  0  0  0  0
 24 26  1  0  0  0  0
 25 24  1  0  0  0  0
 26 27  1  0  0  0  0
 26 28  2  0  0  0  0
 28 29  1  0  0  0  0
 30 39  1  0  0  0  0
 31 33  1  0  0  0  0
 31 30  2  0  0  0  0
 32 31  1  0  0  0  0
 33 35  2  0  0  0  0
 34 33  1  0  0  0  0
 35 36  1  0  0  0  0
 35 37  1  0  0  0  0
 37 38  1  0  0  0  0
 39 37  2  0  0  0  0
 39 40  1  0  0  0  0
 41  1  1  0  0  0  0
 41 46  1  0  0  0  0
 42 45  1  0  0  0  0
 42 41  1  0  0  0  0
 43 42  1  0  0  0  0
 44 42  1  0  0  0  0
 46 48  1  0  0  0  0
 46 49  1  0  0  0  0
 47 46  1  0  0  0  0
 50 51  1  0  0  0  0
 50 41  1  0  0  0  0
 52 50  1  0  0  0  0
 53 50  1  0  0  0  0
 54 63  1  0  0  0  0
 54 55  1  0  0  0  0
 55 58  1  0  0  0  0
 55 57  1  0  0  0  0
 56 55  1  0  0  0  0
 59 60  1  0  0  0  0
 59 54  1  0  0  0  0
 61 59  1  0  0  0  0
 62 59  1  0  0  0  0
 63 66  1  0  0  0  0
 63 64  1  0  0  0  0
 65 63  1  0  0  0  0
M  END
