1,34
q = 0.0, confidence = 0.998

 66 71  0  0  0  0  0  0  0  0999 V2000
    1.9237    0.9646    1.1871 P   0  0  2  0  0  0  0  0  0  0  0  0
    1.6505    2.6022    0.9975 O   0  0  0  0  0  0  0  0  0  0  0  0
   -1.7175    0.9339    2.5065 O   0  0  0  0  0  0  0  0  0  0  0  0
    0.5383    0.6753    2.1917 N   0  0  0  0  0  0  0  0  0  0  0  0
    3.2057    0.8733    2.2457 N   0  0  0  0  0  0  0  0  0  0  0  0
    0.4535    2.9048    0.3780 C   0  0  0  0  0  0  0  0  0  0  0  0
    0.5063    3.8872   -0.6377 C   0  0  0  0  0  0  0  0  0  0  0  0
    1.4831    4.3249   -0.8822 H   0  0  0  0  0  0  0  0  0  0  0  0
   -0.6528    4.2124   -1.3135 C   0  0  0  0  0  0  0  0  0  0  0  0
   -0.6282    4.9577   -2.1235 H   0  0  0  0  0  0  0  0  0  0  0  0
   -1.8928    3.5796   -1.0036 C   0  0  0  0  0  0  0  0  0  0  0  0
   -3.0726    3.9104   -1.7307 C   0  0  0  0  0  0  0  0  0  0  0  0
   -2.9982    4.6611   -2.5328 H   0  0  0  0  0  0  0  0  0  0  0  0
   -4.2834    3.3014   -1.4409 C   0  0  0  0  0  0  0  0  0  0  0  0
   -5.1878    3.5630   -2.0108 H   0  0  0  0  0  0  0  0  0  0  0  0
   -4.3490    2.3400   -0.4021 C   0  0  0  0  0  0  0  0  0  0  0  0
   -5.3049    1.8497   -0.1648 H   0  0  0  0  0  0  0  0  0  0  0  0
   -3.2184    1.9945    0.3276 C   0  0  0  0  0  0  0  0  0  0  0  0
   -3.2920    1.2641    1.1393 H   0  0  0  0  0  0  0  0  0  0  0  0
   -1.9537    2.5925    0.0516 C   0  0  0  0  0  0  0  0  0  0  0  0
   -0.7304    2.2481    0.7477 C   0  0  0  0  0  0  0  0  0  0  0  0
   -0.7183    1.2610    1.8712 C   0  0  0  0  0  0  0  0  0  0  0  0
    0.5303   -0.4706    3.1046 C   0  0  0  0  0  0  0  0  0  0  0  0
   -0.4508   -0.4411    3.6142 H   0  0  0  0  0  0  0  0  0  0  0  0
    1.3342   -0.3660    3.8610 H   0  0  0  0  0  0  0  0  0  0  0  0
    4.4858    0.3161    1.8174 C   0  0  0  0  0  0  0  0  0  0  0  0
    5.2041    1.1129    1.5280 H   0  0  0  0  0  0  0  0  0  0  0  0
    4.3320   -0.3351    0.9360 H   0  0  0  0  0  0  0  0  0  0  0  0
    4.9194   -0.2870    2.6429 H   0  0  0  0  0  0  0  0  0  0  0  0
    3.2395    1.7252    3.4309 C   0  0  0  0  0  0  0  0  0  0  0  0
    3.6299    1.1514    4.2982 H   0  0  0  0  0  0  0  0  0  0  0  0
    2.2211    2.0834    3.6714 H   0  0  0  0  0  0  0  0  0  0  0  0
    3.8915    2.6118    3.2710 H   0  0  0  0  0  0  0  0  0  0  0  0
    0.7474   -1.8489   -0.3257 P   0  0  1  0  0  0  0  0  0  0  0  0
   -0.5362   -2.0656   -1.3599 O   0  0  0  0  0  0  0  0  0  0  0  0
   -1.9405   -2.2742    2.4863 O   0  0  0  0  0  0  0  0  0  0  0  0
   -0.1379   -1.8739    1.1632 N   0  0  0  0  0  0  0  0  0  0  0  0
    1.5305   -3.3278   -0.3450 N   0  0  0  0  0  0  0  0  0  0  0  0
   -1.8476   -1.7528   -1.1123 C   0  0  0  0  0  0  0  0  0  0  0  0
   -2.6194   -1.5105   -2.2763 C   0  0  0  0  0  0  0  0  0  0  0  0
   -2.1049   -1.5355   -3.2466 H   0  0  0  0  0  0  0  0  0  0  0  0
   -3.9683   -1.2523   -2.1519 C   0  0  0  0  0  0  0  0  0  0  0  0
   -4.5778   -1.0581   -3.0478 H   0  0  0  0  0  0  0  0  0  0  0  0
   -4.5964   -1.2145   -0.8728 C   0  0  0  0  0  0  0  0  0  0  0  0
   -5.9857   -0.9213   -0.7614 C   0  0  0  0  0  0  0  0  0  0  0  0
   -6.5586   -0.7482   -1.6857 H   0  0  0  0  0  0  0  0  0  0  0  0
   -6.5999   -0.8395    0.4785 C   0  0  0  0  0  0  0  0  0  0  0  0
   -7.6728   -0.6075    0.5551 H   0  0  0  0  0  0  0  0  0  0  0  0
   -5.8301   -1.0497    1.6500 C   0  0  0  0  0  0  0  0  0  0  0  0
   -6.3097   -0.9724    2.6377 H   0  0  0  0  0  0  0  0  0  0  0  0
   -4.4760   -1.3525    1.5772 C   0  0  0  0  0  0  0  0  0  0  0  0
   -3.8919   -1.5181    2.4887 H   0  0  0  0  0  0  0  0  0  0  0  0
   -3.8129   -1.4518    0.3176 C   0  0  0  0  0  0  0  0  0  0  0  0
   -2.3986   -1.7360    0.1775 C   0  0  0  0  0  0  0  0  0  0  0  0
    0.6917   -1.8130    2.3687 C   0  0  0  0  0  0  0  0  0  0  0  0
    1.7444   -1.9706    2.0553 H   0  0  0  0  0  0  0  0  0  0  0  0
    0.4125   -2.6412    3.0505 H   0  0  0  0  0  0  0  0  0  0  0  0
    2.9170   -3.4841   -0.7693 C   0  0  0  0  0  0  0  0  0  0  0  0
    3.4309   -4.1905   -0.0828 H   0  0  0  0  0  0  0  0  0  0  0  0
    3.4343   -2.5070   -0.7355 H   0  0  0  0  0  0  0  0  0  0  0  0
    2.9884   -3.8629   -1.8109 H   0  0  0  0  0  0  0  0  0  0  0  0
    0.7520   -4.5562   -0.2485 C   0  0  0  0  0  0  0  0  0  0  0  0
    0.6283   -5.0382   -1.2434 H   0  0  0  0  0  0  0  0  0  0  0  0
   -0.2539   -4.3508    0.1646 H   0  0  0  0  0  0  0  0  0  0  0  0
    1.2600   -5.2736    0.4306 H   0  0  0  0  0  0  0  0  0  0  0  0
   -1.5343   -2.0014    1.3590 C   0  0  0  0  0  0  0  0  0  0  0  0
  1  4  1  0  0  0  0
  1  5  1  1  0  0  0
  2  1  1  0  0  0  0
  4 23  1  0  0  0  0
  5 30  1  0  0  0  0
  6 21  1  0  0  0  0
  6  2  1  0  0  0  0
  7  6  2  0  0  0  0
  8  7  1  0  0  0  0
  9 11  2  0  0  0  0
  9  7  1  0  0  0  0
 10  9  1  0  0  0  0
 11 20  1  0  0  0  0
 12 14  2  0  0  0  0
 12 11  1  0  0  0  0
 13 12  1  0  0  0  0
 14 16  1  0  0  0  0
 15 14  1  0  0  0  0
 16 17  1  0  0  0  0
 16 18  2  0  0  0  0
 18 19  1  0  0  0  0
 20 18  1  0  0  0  0
 20 21  2  0  0  0  0
 21 22  1  0  0  0  0
 22  4  1  0  0  0  0
 22  3  2  0  0  0  0
 23 24  1  0  0  0  0
 23 25  1  0  0  0  0
 26  5  1  0  0  0  0
 26 29  1  0  0  0  0
 27 26  1  0  0  0  0
 28 26  1  0  0  0  0
 30 32  1  0  0  0  0
 30 31  1  0  0  0  0
 33 30  1  0  0  0  0
 34 38  1  1  0  0  0
 34 37  1  0  0  0  0
 35 39  1  0  0  0  0
 35 34  1  0  0  0  0
 37 66  1  0  0  0  0
 37 55  1  0  0  0  0
 38 62  1  0  0  0  0
 39 54  1  0  0  0  0
 40 42  1  0  0  0  0
 40 39  2  0  0  0  0
 41 40  1  0  0  0  0
 42 44  2  0  0  0  0
 43 42  1  0  0  0  0
 44 45  1  0  0  0  0
 44 53  1  0  0  0  0
 45 47  2  0  0  0  0
 46 45  1  0  0  0  0
 47 48  1  0  0  0  0
 47 49  1  0  0  0  0
 49 50  1  0  0  0  0
 51 49  2  0  0  0  0
 51 52  1  0  0  0  0
 53 51  1  0  0  0  0
 54 53  2  0  0  0  0
 54 66  1  0  0  0  0
 55 57  1  0  0  0  0
 55 23  1  0  0  0  0
 56 55  1  0  0  0  0
 58 60  1  0  0  0  0
 58 38  1  0  0  0  0
 58 59  1  0  0  0  0
 61 58  1  0  0  0  0
 62 64  1  0  0  0  0
 62 65  1  0  0  0  0
 63 62  1  0  0  0  0
 66 36  2  0  0  0  0
M  END
