1,2
q = 0.0, confidence = 0.992

 60 60  0  0  0  0  0  0  0  0999 V2000
    0.0857   -1.5554    0.6738 P   0  0  0  0  0  0  0  0  0  0  0  0
    0.8133    1.7631    0.4989 P   0  0  0  0  0  0  0  0  0  0  0  0
    1.8351   -1.5538    1.4069 C   0  0  0  0  0  0  0  0  0  0  0  0
    2.3329    1.0863    1.3930 C   0  0  0  0  0  0  0  0  0  0  0  0
    0.2763   -2.8735   -0.6669 C   0  0  0  0  0  0  0  0  0  0  0  0
    1.0682   -2.2896   -1.8412 C   0  0  0  0  0  0  0  0  0  0  0  0
   -1.0917   -3.3899   -1.1226 C   0  0  0  0  0  0  0  0  0  0  0  0
   -0.8562   -2.4766    2.0367 C   0  0  0  0  0  0  0  0  0  0  0  0
   -1.0349   -1.5419    3.2374 C   0  0  0  0  0  0  0  0  0  0  0  0
   -0.2870   -3.8373    2.4420 C   0  0  0  0  0  0  0  0  0  0  0  0
    0.3474    3.2213    1.6017 C   0  0  0  0  0  0  0  0  0  0  0  0
    1.4954    4.1640    1.9678 C   0  0  0  0  0  0  0  0  0  0  0  0
   -0.4021    2.7003    2.8321 C   0  0  0  0  0  0  0  0  0  0  0  0
    1.5987    2.5729   -1.0158 C   0  0  0  0  0  0  0  0  0  0  0  0
    1.8342    1.5013   -2.0865 C   0  0  0  0  0  0  0  0  0  0  0  0
    0.7321    3.7086   -1.5692 C   0  0  0  0  0  0  0  0  0  0  0  0
    4.0669   -0.6100    0.0958 C   0  0  0  0  0  0  0  0  0  0  0  0
    4.8764    0.4651   -0.3536 C   0  0  0  0  0  0  0  0  0  0  0  0
    6.0340    0.2555   -1.1140 C   0  0  0  0  0  0  0  0  0  0  0  0
    6.4267   -1.0523   -1.4444 C   0  0  0  0  0  0  0  0  0  0  0  0
    5.6545   -2.1412   -1.0078 C   0  0  0  0  0  0  0  0  0  0  0  0
    4.4966   -1.9167   -0.2509 C   0  0  0  0  0  0  0  0  0  0  0  0
    2.7544   -0.3638    0.9349 B   0  0  0  0  0  0  0  0  0  0  0  0
    1.6453   -1.3989    2.4917 H   0  0  0  0  0  0  0  0  0  0  0  0
    2.2651   -2.5681    1.2853 H   0  0  0  0  0  0  0  0  0  0  0  0
    3.1371    1.8475    1.3445 H   0  0  0  0  0  0  0  0  0  0  0  0
    1.9822    1.0249    2.4464 H   0  0  0  0  0  0  0  0  0  0  0  0
    0.8543   -3.7117   -0.2176 H   0  0  0  0  0  0  0  0  0  0  0  0
    2.0765   -1.9438   -1.5416 H   0  0  0  0  0  0  0  0  0  0  0  0
    1.1964   -3.0475   -2.6429 H   0  0  0  0  0  0  0  0  0  0  0  0
    0.5316   -1.4167   -2.2658 H   0  0  0  0  0  0  0  0  0  0  0  0
   -1.7317   -2.5443   -1.4494 H   0  0  0  0  0  0  0  0  0  0  0  0
   -0.9774   -4.0887   -1.9777 H   0  0  0  0  0  0  0  0  0  0  0  0
   -1.6323   -3.9297   -0.3196 H   0  0  0  0  0  0  0  0  0  0  0  0
   -1.8554   -2.6178    1.5689 H   0  0  0  0  0  0  0  0  0  0  0  0
   -0.0748   -1.3780    3.7724 H   0  0  0  0  0  0  0  0  0  0  0  0
   -1.4052   -0.5499    2.9055 H   0  0  0  0  0  0  0  0  0  0  0  0
   -1.7485   -1.9695    3.9728 H   0  0  0  0  0  0  0  0  0  0  0  0
   -0.9259   -4.3115    3.2175 H   0  0  0  0  0  0  0  0  0  0  0  0
   -0.2236   -4.5435    1.5901 H   0  0  0  0  0  0  0  0  0  0  0  0
    0.7294   -3.7385    2.8764 H   0  0  0  0  0  0  0  0  0  0  0  0
   -0.3874    3.7602    0.9648 H   0  0  0  0  0  0  0  0  0  0  0  0
    2.2363    3.6635    2.6246 H   0  0  0  0  0  0  0  0  0  0  0  0
    2.0359    4.5432    1.0770 H   0  0  0  0  0  0  0  0  0  0  0  0
    1.1128    5.0462    2.5240 H   0  0  0  0  0  0  0  0  0  0  0  0
   -0.8014    3.5416    3.4372 H   0  0  0  0  0  0  0  0  0  0  0  0
   -1.2404    2.0429    2.5217 H   0  0  0  0  0  0  0  0  0  0  0  0
    0.2628    2.1053    3.4942 H   0  0  0  0  0  0  0  0  0  0  0  0
    2.5782    2.9873   -0.6855 H   0  0  0  0  0  0  0  0  0  0  0  0
    2.4509    0.6599   -1.7172 H   0  0  0  0  0  0  0  0  0  0  0  0
    0.8612    1.0819   -2.4158 H   0  0  0  0  0  0  0  0  0  0  0  0
    2.3536    1.9373   -2.9663 H   0  0  0  0  0  0  0  0  0  0  0  0
    1.1631    4.0871   -2.5198 H   0  0  0  0  0  0  0  0  0  0  0  0
   -0.2939    3.3452   -1.7816 H   0  0  0  0  0  0  0  0  0  0  0  0
    0.6535    4.5678   -0.8745 H   0  0  0  0  0  0  0  0  0  0  0  0
    4.5854    1.4978   -0.1061 H   0  0  0  0  0  0  0  0  0  0  0  0
    6.6361    1.1133   -1.4514 H   0  0  0  0  0  0  0  0  0  0  0  0
    7.3369   -1.2229   -2.0401 H   0  0  0  0  0  0  0  0  0  0  0  0
    5.9589   -3.1688   -1.2598 H   0  0  0  0  0  0  0  0  0  0  0  0
    3.9055   -2.7838    0.0826 H   0  0  0  0  0  0  0  0  0  0  0  0
  1  3  1  0  0  0  0
  1  8  1  0  0  0  0
  2  4  1  0  0  0  0
  2 11  1  0  0  0  0
  3 24  1  0  0  0  0
  4 27  1  0  0  0  0
  5 28  1  0  0  0  0
  5  1  1  0  0  0  0
  6 29  1  0  0  0  0
  6  5  1  0  0  0  0
  7  5  1  0  0  0  0
  7 34  1  0  0  0  0
  8 10  1  0  0  0  0
  8  9  1  0  0  0  0
  9 36  1  0  0  0  0
  9 38  1  0  0  0  0
 10 41  1  0  0  0  0
 10 39  1  0  0  0  0
 11 12  1  0  0  0  0
 11 13  1  0  0  0  0
 12 45  1  0  0  0  0
 12 43  1  0  0  0  0
 13 46  1  0  0  0  0
 13 48  1  0  0  0  0
 14 49  1  0  0  0  0
 14  2  1  0  0  0  0
 15 50  1  0  0  0  0
 15 14  1  0  0  0  0
 16 14  1  0  0  0  0
 16 55  1  0  0  0  0
 17 23  1  0  0  0  0
 18 56  1  0  0  0  0
 18 17  2  0  0  0  0
 19 18  1  0  0  0  0
 20 19  2  0  0  0  0
 20 21  1  0  0  0  0
 21 22  2  0  0  0  0
 22 60  1  0  0  0  0
 22 17  1  0  0  0  0
 23  4  1  0  0  0  0
 23  3  1  0  0  0  0
 25  3  1  0  0  0  0
 26  4  1  0  0  0  0
 30  6  1  0  0  0  0
 31  6  1  0  0  0  0
 32  7  1  0  0  0  0
 33  7  1  0  0  0  0
 35  8  1  0  0  0  0
 37  9  1  0  0  0  0
 40 10  1  0  0  0  0
 42 11  1  0  0  0  0
 44 12  1  0  0  0  0
 47 13  1  0  0  0  0
 51 15  1  0  0  0  0
 52 15  1  0  0  0  0
 53 16  1  0  0  0  0
 54 16  1  0  0  0  0
 57 19  1  0  0  0  0
 58 20  1  0  0  0  0
 59 21  1  0  0  0  0
M  END
