1,2
q = -1.0, confidence = 0.006

 65 70  0  0  1  0  0  0  0  0999 V2000
   -2.1256   -0.4547   -0.0254 P   0  0  0  0  0  0  0  0  0  0  0  0
    2.1257   -0.4546   -0.0254 P   0  0  0  0  0  0  0  0  0  0  0  0
   -2.4311    1.1827    0.4872 O   0  0  0  0  0  0  0  0  0  0  0  0
    2.4310    1.1828    0.4872 O   0  0  0  0  0  0  0  0  0  0  0  0
   -1.3294    2.0017    0.3028 C   0  0  2  0  0  0  0  0  0  0  0  0
    1.3293    2.0018    0.3028 C   0  0  1  0  0  0  0  0  0  0  0  0
   -3.0127   -1.2933    1.3796 C   0  0  0  0  0  0  0  0  0  0  0  0
   -3.9466   -0.6985    1.4896 H   0  0  0  0  0  0  0  0  0  0  0  0
   -3.3504   -2.7556    1.0638 C   0  0  0  0  0  0  0  0  0  0  0  0
   -4.0733   -2.8539    0.2317 H   0  0  0  0  0  0  0  0  0  0  0  0
   -3.8088   -3.2246    1.9587 H   0  0  0  0  0  0  0  0  0  0  0  0
   -2.4342   -3.3226    0.8024 H   0  0  0  0  0  0  0  0  0  0  0  0
   -2.1804   -1.1645    2.6602 C   0  0  0  0  0  0  0  0  0  0  0  0
   -1.2250   -1.7176    2.5565 H   0  0  0  0  0  0  0  0  0  0  0  0
   -2.7384   -1.5982    3.5151 H   0  0  0  0  0  0  0  0  0  0  0  0
   -1.9529   -0.1085    2.9009 H   0  0  0  0  0  0  0  0  0  0  0  0
   -3.2031   -0.5441   -1.5404 C   0  0  0  0  0  0  0  0  0  0  0  0
   -2.7679    0.2889   -2.1348 H   0  0  0  0  0  0  0  0  0  0  0  0
   -2.9689   -1.8466   -2.3192 C   0  0  0  0  0  0  0  0  0  0  0  0
   -1.8893   -2.0752   -2.4196 H   0  0  0  0  0  0  0  0  0  0  0  0
   -3.4087   -1.7584   -3.3336 H   0  0  0  0  0  0  0  0  0  0  0  0
   -3.4400   -2.7169   -1.8230 H   0  0  0  0  0  0  0  0  0  0  0  0
   -4.6751   -0.2258   -1.2670 C   0  0  0  0  0  0  0  0  0  0  0  0
   -5.1730   -1.0345   -0.6945 H   0  0  0  0  0  0  0  0  0  0  0  0
   -5.2219   -0.1174   -2.2264 H   0  0  0  0  0  0  0  0  0  0  0  0
   -4.7861    0.7221   -0.7044 H   0  0  0  0  0  0  0  0  0  0  0  0
    3.0128   -1.2931    1.3796 C   0  0  0  0  0  0  0  0  0  0  0  0
    3.9466   -0.6981    1.4897 H   0  0  0  0  0  0  0  0  0  0  0  0
    3.3508   -2.7553    1.0637 C   0  0  0  0  0  0  0  0  0  0  0  0
    2.4348   -3.3225    0.8022 H   0  0  0  0  0  0  0  0  0  0  0  0
    3.8093   -3.2243    1.9586 H   0  0  0  0  0  0  0  0  0  0  0  0
    4.0739   -2.8533    0.2316 H   0  0  0  0  0  0  0  0  0  0  0  0
    2.1804   -1.1646    2.6602 C   0  0  0  0  0  0  0  0  0  0  0  0
    1.9527   -0.1086    2.9009 H   0  0  0  0  0  0  0  0  0  0  0  0
    2.7384   -1.5982    3.5151 H   0  0  0  0  0  0  0  0  0  0  0  0
    1.2252   -1.7179    2.5563 H   0  0  0  0  0  0  0  0  0  0  0  0
    3.2032   -0.5438   -1.5404 C   0  0  0  0  0  0  0  0  0  0  0  0
    2.7680    0.2892   -2.1347 H   0  0  0  0  0  0  0  0  0  0  0  0
    2.9689   -1.8462   -2.3194 C   0  0  0  0  0  0  0  0  0  0  0  0
    3.4398   -2.7167   -1.8232 H   0  0  0  0  0  0  0  0  0  0  0  0
    3.4087   -1.7580   -3.3337 H   0  0  0  0  0  0  0  0  0  0  0  0
    1.8892   -2.0747   -2.4198 H   0  0  0  0  0  0  0  0  0  0  0  0
    4.6752   -0.2257   -1.2669 C   0  0  0  0  0  0  0  0  0  0  0  0
    4.7862    0.7221   -0.7042 H   0  0  0  0  0  0  0  0  0  0  0  0
    5.2220   -0.1173   -2.2264 H   0  0  0  0  0  0  0  0  0  0  0  0
    5.1729   -1.0345   -0.6945 H   0  0  0  0  0  0  0  0  0  0  0  0
   -0.0000    1.1445   -0.3559 B   0  0  0  0  0  2  0  0  0  0  0  0
   -0.0001    1.7117    1.3357 B   0  0  1  0  0  0  0  0  0  0  0  0
   -0.0000    0.8822    2.2029 H   0  0  0  0  0  0  0  0  0  0  0  0
    0.8779    2.3604   -1.3207 B   0  0  2  0  0  0  0  0  0  0  0  0
    1.5912    1.9905   -2.2186 H   0  0  0  0  0  0  0  0  0  0  0  0
   -0.8780    2.3604   -1.3207 B   0  0  2  0  0  0  0  0  0  0  0  0
   -1.5913    1.9904   -2.2186 H   0  0  0  0  0  0  0  0  0  0  0  0
    0.8966    3.2206    1.4408 B   0  0  1  0  0  0  0  0  0  0  0  0
    1.6001    3.4103    2.4005 H   0  0  0  0  0  0  0  0  0  0  0  0
    1.4471    3.6293   -0.2055 B   0  0  1  0  0  0  0  0  0  0  0  0
    2.5353    4.1226   -0.3603 H   0  0  0  0  0  0  0  0  0  0  0  0
   -0.0001    3.8946   -1.2264 B   0  0  1  0  0  0  0  0  0  0  0  0
   -0.0001    4.6756   -2.1476 H   0  0  0  0  0  0  0  0  0  0  0  0
   -1.4474    3.6292   -0.2055 B   0  0  2  0  0  0  0  0  0  0  0  0
   -2.5356    4.1225   -0.3603 H   0  0  0  0  0  0  0  0  0  0  0  0
   -0.8968    3.2205    1.4408 B   0  0  0  0  0  0  0  0  0  0  0  0
   -1.6003    3.4101    2.4005 H   0  0  0  0  0  0  0  0  0  0  0  0
   -0.0001    4.4235    0.4842 B   0  0  1  0  0  0  0  0  0  0  0  0
   -0.0002    5.5918    0.7890 H   0  0  0  0  0  0  0  0  0  0  0  0
  1  3  1  0  0  0  0
  1  7  1  0  0  0  0
  2  4  1  0  0  0  0
  2 27  1  0  0  0  0
  5  3  1  1  0  0  0
  5 48  1  0  0  0  0
  6  4  1  1  0  0  0
  6 48  1  0  0  0  0
  7  8  1  0  0  0  0
  7 13  1  0  0  0  0
  9  7  1  0  0  0  0
  9 11  1  0  0  0  0
 10  9  1  0  0  0  0
 12  9  1  0  0  0  0
 13 16  1  0  0  0  0
 13 15  1  0  0  0  0
 14 13  1  0  0  0  0
 17 23  1  0  0  0  0
 17  1  1  0  0  0  0
 18 17  1  0  0  0  0
 19 22  1  0  0  0  0
 19 17  1  0  0  0  0
 20 19  1  0  0  0  0
 21 19  1  0  0  0  0
 23 26  1  0  0  0  0
 23 24  1  0  0  0  0
 25 23  1  0  0  0  0
 27 28  1  0  0  0  0
 27 33  1  0  0  0  0
 29 27  1  0  0  0  0
 29 31  1  0  0  0  0
 30 29  1  0  0  0  0
 32 29  1  0  0  0  0
 33 34  1  0  0  0  0
 33 35  1  0  0  0  0
 36 33  1  0  0  0  0
 37 43  1  0  0  0  0
 37  2  1  0  0  0  0
 38 37  1  0  0  0  0
 39 40  1  0  0  0  0
 39 37  1  0  0  0  0
 41 39  1  0  0  0  0
 42 39  1  0  0  0  0
 43 44  1  0  0  0  0
 43 46  1  0  0  0  0
 45 43  1  0  0  0  0
 47  5  1  0  0  0  0
 47  6  1  0  0  0  0
 48 54  1  0  0  0  0
 48 49  1  1  0  0  0
 50 51  1  6  0  0  0
 50 58  1  0  0  0  0
 50 56  1  0  0  0  0
 52 53  1  6  0  0  0
 52 50  1  0  0  0  0
 52 58  1  0  0  0  0
 52 60  1  0  0  0  0
 54 55  1  1  0  0  0
 56 57  1  6  0  0  0
 56  6  1  0  0  0  0
 56 54  1  0  0  0  0
 58 59  1  6  0  0  0
 58 64  1  0  0  0  0
 60 61  1  6  0  0  0
 60  5  1  0  0  0  0
 60 62  1  0  0  0  0
 62 63  1  0  0  0  0
 64 65  1  1  0  0  0
 64 62  1  0  0  0  0
 64 54  1  0  0  0  0
M  END
