1
q = 0.0, confidence = 0.992

 57 61  0  0  1  0  0  0  0  0999 V2000
    1.7686   -0.3994    0.3499 P   0  0  0  0  0  0  0  0  0  0  0  0
   -1.2700   -0.1571    0.3910 P   0  0  2  0  0  0  0  0  0  0  0  0
   -2.7118    0.7752    1.2030 C   0  0  1  0  0  0  0  0  0  0  0  0
   -4.2975    0.1203   -0.5217 C   0  0  2  0  0  0  0  0  0  0  0  0
   -4.0766   -1.3467    1.3193 C   0  0  1  0  0  0  0  0  0  0  0  0
   -3.4205   -0.2158    2.1422 C   0  0  0  0  0  0  0  0  0  0  0  0
   -2.7368   -0.6321    2.9081 H   0  0  0  0  0  0  0  0  0  0  0  0
   -4.2253    0.3360    2.6711 H   0  0  0  0  0  0  0  0  0  0  0  0
   -3.3129   -0.7289   -1.3411 C   0  0  0  0  0  0  0  0  0  0  0  0
   -3.8935   -1.4710   -1.9268 H   0  0  0  0  0  0  0  0  0  0  0  0
   -2.7435   -0.0725   -2.0316 H   0  0  0  0  0  0  0  0  0  0  0  0
   -2.3565   -1.4776   -0.4091 C   0  0  1  0  0  0  0  0  0  0  0  0
   -2.2203    2.0493    1.8678 C   0  0  0  0  0  0  0  0  0  0  0  0
   -1.7745    2.7093    1.0985 H   0  0  0  0  0  0  0  0  0  0  0  0
   -1.4609    1.8316    2.6447 H   0  0  0  0  0  0  0  0  0  0  0  0
   -3.0772    2.5712    2.3398 H   0  0  0  0  0  0  0  0  0  0  0  0
   -5.3449    0.8055   -1.3726 C   0  0  0  0  0  0  0  0  0  0  0  0
   -5.9241    0.0567   -1.9438 H   0  0  0  0  0  0  0  0  0  0  0  0
   -4.8419    1.5032   -2.0677 H   0  0  0  0  0  0  0  0  0  0  0  0
   -6.0289    1.3740   -0.7151 H   0  0  0  0  0  0  0  0  0  0  0  0
   -4.8733   -2.3190    2.1668 C   0  0  0  0  0  0  0  0  0  0  0  0
   -5.6775   -1.7818    2.7028 H   0  0  0  0  0  0  0  0  0  0  0  0
   -4.2118   -2.8199    2.8984 H   0  0  0  0  0  0  0  0  0  0  0  0
   -5.3255   -3.0810    1.5049 H   0  0  0  0  0  0  0  0  0  0  0  0
   -1.5110   -2.5221   -1.1171 C   0  0  0  0  0  0  0  0  0  0  0  0
   -0.8070   -3.0135   -0.4171 H   0  0  0  0  0  0  0  0  0  0  0  0
   -0.9238   -2.0452   -1.9259 H   0  0  0  0  0  0  0  0  0  0  0  0
   -2.1736   -3.2970   -1.5529 H   0  0  0  0  0  0  0  0  0  0  0  0
   -3.6274    1.1690    0.1863 O   0  0  0  0  0  0  0  0  0  0  0  0
   -4.9729   -0.7542    0.3935 O   0  0  0  0  0  0  0  0  0  0  0  0
   -3.0765   -2.1386    0.6452 O   0  0  0  0  0  0  0  0  0  0  0  0
   -0.3764   -1.0882    1.7603 C   0  0  0  0  0  0  0  0  0  0  0  0
   -0.3137   -0.4334    2.6593 H   0  0  0  0  0  0  0  0  0  0  0  0
   -0.9538   -2.0015    2.0068 H   0  0  0  0  0  0  0  0  0  0  0  0
    0.9099   -1.4856    1.3178 O   0  0  0  0  0  0  0  0  0  0  0  0
    2.8573   -1.5813   -0.5099 C   0  0  0  0  0  0  0  0  0  0  0  0
    2.7930   -2.9626   -0.2367 C   0  0  0  0  0  0  0  0  0  0  0  0
    2.0700   -3.3411    0.4991 H   0  0  0  0  0  0  0  0  0  0  0  0
    3.6562   -3.8409   -0.9090 C   0  0  0  0  0  0  0  0  0  0  0  0
    3.6077   -4.9197   -0.6959 H   0  0  0  0  0  0  0  0  0  0  0  0
    4.5745   -3.3485   -1.8494 C   0  0  0  0  0  0  0  0  0  0  0  0
    5.2481   -4.0420   -2.3755 H   0  0  0  0  0  0  0  0  0  0  0  0
    4.6283   -1.9721   -2.1244 C   0  0  0  0  0  0  0  0  0  0  0  0
    5.3380   -1.5844   -2.8706 H   0  0  0  0  0  0  0  0  0  0  0  0
    3.7732   -1.0827   -1.4596 C   0  0  0  0  0  0  0  0  0  0  0  0
    3.7804   -0.0064   -1.6962 H   0  0  0  0  0  0  0  0  0  0  0  0
    2.8180    0.4812    1.5615 C   0  0  0  0  0  0  0  0  0  0  0  0
    3.2080   -0.1820    2.7442 C   0  0  0  0  0  0  0  0  0  0  0  0
    2.8770   -1.2153    2.9278 H   0  0  0  0  0  0  0  0  0  0  0  0
    4.0084    0.4860    3.6810 C   0  0  0  0  0  0  0  0  0  0  0  0
    4.3099   -0.0271    4.6070 H   0  0  0  0  0  0  0  0  0  0  0  0
    4.4264    1.8053    3.4372 C   0  0  0  0  0  0  0  0  0  0  0  0
    5.0565    2.3261    4.1744 H   0  0  0  0  0  0  0  0  0  0  0  0
    4.0406    2.4595    2.2565 C   0  0  0  0  0  0  0  0  0  0  0  0
    4.3676    3.4926    2.0647 H   0  0  0  0  0  0  0  0  0  0  0  0
    3.2311    1.8056    1.3150 C   0  0  0  0  0  0  0  0  0  0  0  0
    2.9265    2.3032    0.3793 H   0  0  0  0  0  0  0  0  0  0  0  0
  1 35  1  0  0  0  0
  1 47  1  0  0  0  0
  2  3  1  0  0  0  0
  2 32  1  1  0  0  0
  3 13  1  1  0  0  0
  3  6  1  0  0  0  0
  4 17  1  6  0  0  0
  4 29  1  0  0  0  0
  4 30  1  0  0  0  0
  5  6  1  0  0  0  0
  5 21  1  1  0  0  0
  6  8  1  0  0  0  0
  6  7  1  0  0  0  0
  9  4  1  0  0  0  0
  9 12  1  0  0  0  0
 10  9  1  0  0  0  0
 11  9  1  0  0  0  0
 12 25  1  6  0  0  0
 12  2  1  0  0  0  0
 12 31  1  0  0  0  0
 13 16  1  0  0  0  0
 13 15  1  0  0  0  0
 14 13  1  0  0  0  0
 17 20  1  0  0  0  0
 18 17  1  0  0  0  0
 19 17  1  0  0  0  0
 21 22  1  0  0  0  0
 21 23  1  0  0  0  0
 24 21  1  0  0  0  0
 25 26  1  0  0  0  0
 27 25  1  0  0  0  0
 28 25  1  0  0  0  0
 29  3  1  0  0  0  0
 30  5  1  0  0  0  0
 31  5  1  0  0  0  0
 32 34  1  0  0  0  0
 32 33  1  0  0  0  0
 35 32  1  0  0  0  0
 36 37  1  0  0  0  0
 36  1  1  0  0  0  0
 37 38  1  0  0  0  0
 39 40  1  0  0  0  0
 39 37  2  0  0  0  0
 41 39  1  0  0  0  0
 42 41  1  0  0  0  0
 43 41  2  0  0  0  0
 43 45  1  0  0  0  0
 44 43  1  0  0  0  0
 45 36  2  0  0  0  0
 46 45  1  0  0  0  0
 47 48  1  0  0  0  0
 48 49  1  0  0  0  0
 48 50  2  0  0  0  0
 50 51  1  0  0  0  0
 52 50  1  0  0  0  0
 52 53  1  0  0  0  0
 54 52  2  0  0  0  0
 55 54  1  0  0  0  0
 56 47  2  0  0  0  0
 56 54  1  0  0  0  0
 57 56  1  0  0  0  0
M  END
