6,19
q = 0.0, confidence = 0.996

 59 63  0  0  1  0  0  0  0  0999 V2000
   -1.8610   -0.4681    2.1972 C   0  0  0  0  0  0  0  0  0  0  0  0
   -0.6897    0.3070    2.7585 C   0  0  1  0  0  0  0  0  0  0  0  0
    0.0001   -0.0001    4.0718 C   0  0  0  0  0  0  0  0  0  0  0  0
    0.6898   -0.3071    2.7584 C   0  0  2  0  0  0  0  0  0  0  0  0
    1.8611    0.4680    2.1972 C   0  0  0  0  0  0  0  0  0  0  0  0
   -1.9743   -0.1314    0.3560 P   0  0  0  0  0  0  0  0  0  0  0  0
   -3.1662   -1.4169   -0.2329 C   0  0  0  0  0  0  0  0  0  0  0  0
   -4.3449   -1.6896    0.4931 C   0  0  0  0  0  0  0  0  0  0  0  0
   -5.2538   -2.6503    0.0292 C   0  0  0  0  0  0  0  0  0  0  0  0
   -5.0001   -3.3394   -1.1689 C   0  0  0  0  0  0  0  0  0  0  0  0
   -3.8369   -3.0611   -1.9016 C   0  0  0  0  0  0  0  0  0  0  0  0
   -2.9218   -2.1036   -1.4363 C   0  0  0  0  0  0  0  0  0  0  0  0
   -3.0344    1.3771    0.2429 C   0  0  0  0  0  0  0  0  0  0  0  0
   -3.3990    1.7988   -1.0538 C   0  0  0  0  0  0  0  0  0  0  0  0
   -4.1804    2.9465   -1.2327 C   0  0  0  0  0  0  0  0  0  0  0  0
   -4.5956    3.6981   -0.1200 C   0  0  0  0  0  0  0  0  0  0  0  0
   -4.2260    3.2920    1.1698 C   0  0  0  0  0  0  0  0  0  0  0  0
   -3.4498    2.1351    1.3533 C   0  0  0  0  0  0  0  0  0  0  0  0
    1.9744    0.1314    0.3559 P   0  0  0  0  0  0  0  0  0  0  0  0
    3.0344   -1.3771    0.2428 C   0  0  0  0  0  0  0  0  0  0  0  0
    3.3991   -1.7987   -1.0539 C   0  0  0  0  0  0  0  0  0  0  0  0
    4.1805   -2.9464   -1.2329 C   0  0  0  0  0  0  0  0  0  0  0  0
    4.5955   -3.6982   -0.1202 C   0  0  0  0  0  0  0  0  0  0  0  0
    4.2258   -3.2923    1.1695 C   0  0  0  0  0  0  0  0  0  0  0  0
    3.4497   -2.1353    1.3531 C   0  0  0  0  0  0  0  0  0  0  0  0
    3.1664    1.4168   -0.2330 C   0  0  0  0  0  0  0  0  0  0  0  0
    4.3452    1.6892    0.4928 C   0  0  0  0  0  0  0  0  0  0  0  0
    5.2541    2.6500    0.0290 C   0  0  0  0  0  0  0  0  0  0  0  0
    5.0002    3.3394   -1.1688 C   0  0  0  0  0  0  0  0  0  0  0  0
    3.8367    3.0616   -1.9014 C   0  0  0  0  0  0  0  0  0  0  0  0
    2.9217    2.1040   -1.4360 C   0  0  0  0  0  0  0  0  0  0  0  0
   -2.8188   -0.2321    2.7064 H   0  0  0  0  0  0  0  0  0  0  0  0
   -1.6968   -1.5613    2.2933 H   0  0  0  0  0  0  0  0  0  0  0  0
   -0.7003    1.3804    2.4992 H   0  0  0  0  0  0  0  0  0  0  0  0
   -0.3529   -0.8561    4.6684 H   0  0  0  0  0  0  0  0  0  0  0  0
    0.3532    0.8558    4.6684 H   0  0  0  0  0  0  0  0  0  0  0  0
    0.7003   -1.3805    2.4990 H   0  0  0  0  0  0  0  0  0  0  0  0
    2.8190    0.2319    2.7063 H   0  0  0  0  0  0  0  0  0  0  0  0
    1.6969    1.5612    2.2933 H   0  0  0  0  0  0  0  0  0  0  0  0
   -4.5639   -1.1389    1.4208 H   0  0  0  0  0  0  0  0  0  0  0  0
   -6.1697   -2.8588    0.6032 H   0  0  0  0  0  0  0  0  0  0  0  0
   -5.7158   -4.0921   -1.5333 H   0  0  0  0  0  0  0  0  0  0  0  0
   -3.6360   -3.5932   -2.8439 H   0  0  0  0  0  0  0  0  0  0  0  0
   -2.0114   -1.8757   -2.0101 H   0  0  0  0  0  0  0  0  0  0  0  0
   -3.0559    1.2216   -1.9271 H   0  0  0  0  0  0  0  0  0  0  0  0
   -4.4620    3.2618   -2.2489 H   0  0  0  0  0  0  0  0  0  0  0  0
   -5.2033    4.6047   -0.2609 H   0  0  0  0  0  0  0  0  0  0  0  0
   -4.5402    3.8799    2.0458 H   0  0  0  0  0  0  0  0  0  0  0  0
   -3.1683    1.8381    2.3740 H   0  0  0  0  0  0  0  0  0  0  0  0
    3.0562   -1.2214   -1.9272 H   0  0  0  0  0  0  0  0  0  0  0  0
    4.4622   -3.2616   -2.2491 H   0  0  0  0  0  0  0  0  0  0  0  0
    5.2031   -4.6049   -0.2612 H   0  0  0  0  0  0  0  0  0  0  0  0
    4.5399   -3.8803    2.0455 H   0  0  0  0  0  0  0  0  0  0  0  0
    3.1681   -1.8384    2.3737 H   0  0  0  0  0  0  0  0  0  0  0  0
    4.5644    1.1381    1.4203 H   0  0  0  0  0  0  0  0  0  0  0  0
    6.1702    2.8581    0.6028 H   0  0  0  0  0  0  0  0  0  0  0  0
    5.7159    4.0922   -1.5331 H   0  0  0  0  0  0  0  0  0  0  0  0
    3.6357    3.5939   -2.8434 H   0  0  0  0  0  0  0  0  0  0  0  0
    2.0111    1.8762   -2.0098 H   0  0  0  0  0  0  0  0  0  0  0  0
  1 33  1  0  0  0  0
  1 32  1  0  0  0  0
  1  2  1  0  0  0  0
  2 34  1  6  0  0  0
  2  3  1  0  0  0  0
  3 35  1  0  0  0  0
  3 36  1  0  0  0  0
  4 37  1  6  0  0  0
  4  2  1  0  0  0  0
  4  3  1  0  0  0  0
  5 39  1  0  0  0  0
  5 38  1  0  0  0  0
  5  4  1  0  0  0  0
  6  1  1  0  0  0  0
  7  6  1  0  0  0  0
  7  8  1  0  0  0  0
  8 40  1  0  0  0  0
  9  8  2  0  0  0  0
  9 41  1  0  0  0  0
 10  9  1  0  0  0  0
 11 12  1  0  0  0  0
 11 10  2  0  0  0  0
 12  7  2  0  0  0  0
 13  6  1  0  0  0  0
 13 18  1  0  0  0  0
 14 13  2  0  0  0  0
 15 14  1  0  0  0  0
 15 16  2  0  0  0  0
 16 17  1  0  0  0  0
 17 18  2  0  0  0  0
 17 48  1  0  0  0  0
 18 49  1  0  0  0  0
 19  5  1  0  0  0  0
 20 19  1  0  0  0  0
 20 25  1  0  0  0  0
 21 20  2  0  0  0  0
 22 21  1  0  0  0  0
 22 23  2  0  0  0  0
 23 24  1  0  0  0  0
 24 25  2  0  0  0  0
 24 53  1  0  0  0  0
 25 54  1  0  0  0  0
 26 19  1  0  0  0  0
 26 27  1  0  0  0  0
 27 55  1  0  0  0  0
 28 27  2  0  0  0  0
 28 56  1  0  0  0  0
 29 28  1  0  0  0  0
 30 31  1  0  0  0  0
 30 29  2  0  0  0  0
 31 26  2  0  0  0  0
 42 10  1  0  0  0  0
 43 11  1  0  0  0  0
 44 12  1  0  0  0  0
 45 14  1  0  0  0  0
 46 15  1  0  0  0  0
 47 16  1  0  0  0  0
 50 21  1  0  0  0  0
 51 22  1  0  0  0  0
 52 23  1  0  0  0  0
 57 29  1  0  0  0  0
 58 30  1  0  0  0  0
 59 31  1  0  0  0  0
M  END
