1,2
q = 0.0, confidence = 1.0

 49 50  0  0  0  0  0  0  0  0999 V2000
   -1.6243    0.7812    1.7095 P   0  0  0  0  0  0  0  0  0  0  0  0
   -1.1978   -1.6057   -0.7977 P   0  0  0  0  0  0  0  0  0  0  0  0
    1.0209    0.1309    1.3129 O   0  0  0  0  0  0  0  0  0  0  0  0
    1.0327   -0.0694   -1.4718 O   0  0  0  0  0  0  0  0  0  0  0  0
    1.9756    0.0964   -0.0890 Si  0  0  0  0  0  0  0  0  0  0  0  0
    0.2032    1.2227    1.6755 C   0  0  0  0  0  0  0  0  0  0  0  0
    0.2922   -1.1941   -1.8721 C   0  0  0  0  0  0  0  0  0  0  0  0
   -1.6970   -0.3280    3.1869 C   0  0  0  0  0  0  0  0  0  0  0  0
   -2.2430    2.3732    2.4199 C   0  0  0  0  0  0  0  0  0  0  0  0
   -1.9193   -2.9437   -1.8549 C   0  0  0  0  0  0  0  0  0  0  0  0
   -0.4762   -2.6423    0.5555 C   0  0  0  0  0  0  0  0  0  0  0  0
    2.8631    1.7191   -0.3280 C   0  0  0  0  0  0  0  0  0  0  0  0
    4.0637    1.9680    0.3755 C   0  0  0  0  0  0  0  0  0  0  0  0
    4.7297    3.1956    0.2438 C   0  0  0  0  0  0  0  0  0  0  0  0
    4.2020    4.1916   -0.5943 C   0  0  0  0  0  0  0  0  0  0  0  0
    3.0111    3.9571   -1.3005 C   0  0  0  0  0  0  0  0  0  0  0  0
    2.3454    2.7282   -1.1728 C   0  0  0  0  0  0  0  0  0  0  0  0
    3.0660   -1.4011    0.1608 C   0  0  0  0  0  0  0  0  0  0  0  0
    3.1922   -2.0360    1.4167 C   0  0  0  0  0  0  0  0  0  0  0  0
    4.0150   -3.1622    1.5714 C   0  0  0  0  0  0  0  0  0  0  0  0
    4.7229   -3.6717    0.4708 C   0  0  0  0  0  0  0  0  0  0  0  0
    4.6093   -3.0521   -0.7846 C   0  0  0  0  0  0  0  0  0  0  0  0
    3.7880   -1.9248   -0.9368 C   0  0  0  0  0  0  0  0  0  0  0  0
    0.4862    1.5716    2.6947 H   0  0  0  0  0  0  0  0  0  0  0  0
    0.3117    2.0896    0.9841 H   0  0  0  0  0  0  0  0  0  0  0  0
   -0.1257   -0.9883   -2.8810 H   0  0  0  0  0  0  0  0  0  0  0  0
    0.9296   -2.1081   -1.9438 H   0  0  0  0  0  0  0  0  0  0  0  0
   -1.2318    0.1496    4.0725 H   0  0  0  0  0  0  0  0  0  0  0  0
   -2.7559   -0.5654    3.4061 H   0  0  0  0  0  0  0  0  0  0  0  0
   -1.1723   -1.2754    2.9641 H   0  0  0  0  0  0  0  0  0  0  0  0
   -1.6759    2.6658    3.3267 H   0  0  0  0  0  0  0  0  0  0  0  0
   -2.1591    3.1686    1.6541 H   0  0  0  0  0  0  0  0  0  0  0  0
   -3.3142    2.2635    2.6743 H   0  0  0  0  0  0  0  0  0  0  0  0
   -1.1647   -3.7181   -2.1004 H   0  0  0  0  0  0  0  0  0  0  0  0
   -2.7540   -3.4146   -1.2997 H   0  0  0  0  0  0  0  0  0  0  0  0
   -2.3307   -2.5111   -2.7863 H   0  0  0  0  0  0  0  0  0  0  0  0
    0.1589   -3.4540    0.1475 H   0  0  0  0  0  0  0  0  0  0  0  0
    0.1275   -2.0045    1.2265 H   0  0  0  0  0  0  0  0  0  0  0  0
   -1.3124   -3.0856    1.1318 H   0  0  0  0  0  0  0  0  0  0  0  0
    4.4883    1.1884    1.0294 H   0  0  0  0  0  0  0  0  0  0  0  0
    5.6664    3.3757    0.7934 H   0  0  0  0  0  0  0  0  0  0  0  0
    4.7241    5.1553   -0.6992 H   0  0  0  0  0  0  0  0  0  0  0  0
    2.5978    4.7368   -1.9587 H   0  0  0  0  0  0  0  0  0  0  0  0
    1.4125    2.5480   -1.7283 H   0  0  0  0  0  0  0  0  0  0  0  0
    2.6320   -1.6400    2.2779 H   0  0  0  0  0  0  0  0  0  0  0  0
    4.1043   -3.6469    2.5558 H   0  0  0  0  0  0  0  0  0  0  0  0
    5.3674   -4.5560    0.5918 H   0  0  0  0  0  0  0  0  0  0  0  0
    5.1643   -3.4496   -1.6481 H   0  0  0  0  0  0  0  0  0  0  0  0
    3.7071   -1.4435   -1.9254 H   0  0  0  0  0  0  0  0  0  0  0  0
  1  9  1  0  0  0  0
  1  8  1  0  0  0  0
  2 11  1  0  0  0  0
  3  6  1  0  0  0  0
  4  5  1  0  0  0  0
  5 18  1  0  0  0  0
  5  3  1  0  0  0  0
  6  1  1  0  0  0  0
  6 24  1  0  0  0  0
  7  4  1  0  0  0  0
  7  2  1  0  0  0  0
  8 29  1  0  0  0  0
  8 28  1  0  0  0  0
  9 33  1  0  0  0  0
  9 31  1  0  0  0  0
 10 35  1  0  0  0  0
 10  2  1  0  0  0  0
 11 39  1  0  0  0  0
 11 38  1  0  0  0  0
 12  5  1  0  0  0  0
 12 13  1  0  0  0  0
 13 40  1  0  0  0  0
 14 13  2  0  0  0  0
 14 41  1  0  0  0  0
 15 14  1  0  0  0  0
 16 17  1  0  0  0  0
 16 15  2  0  0  0  0
 17 12  2  0  0  0  0
 18 19  1  0  0  0  0
 19 20  2  0  0  0  0
 19 45  1  0  0  0  0
 20 46  1  0  0  0  0
 21 47  1  0  0  0  0
 21 20  1  0  0  0  0
 22 21  2  0  0  0  0
 23 22  1  0  0  0  0
 23 18  2  0  0  0  0
 25  6  1  0  0  0  0
 26  7  1  0  0  0  0
 27  7  1  0  0  0  0
 30  8  1  0  0  0  0
 32  9  1  0  0  0  0
 34 10  1  0  0  0  0
 36 10  1  0  0  0  0
 37 11  1  0  0  0  0
 42 15  1  0  0  0  0
 43 16  1  0  0  0  0
 44 17  1  0  0  0  0
 48 22  1  0  0  0  0
 49 23  1  0  0  0  0
M  END
