1,2
q = 0.0, confidence = 0.992

 65 66  0  0  0  0  0  0  0  0999 V2000
   -2.0545    0.1670    0.0099 P   0  0  0  0  0  0  0  0  0  0  0  0
    1.4669   -0.4448    0.6576 P   0  0  0  0  0  0  0  0  0  0  0  0
    2.4670    0.3629   -0.6735 C   0  0  0  0  0  0  0  0  0  0  0  0
    1.8600    1.2688   -1.5909 C   0  0  0  0  0  0  0  0  0  0  0  0
    0.3652    1.4922   -1.6642 C   0  0  0  0  0  0  0  0  0  0  0  0
   -0.1164    0.4891   -1.7095 H   0  0  0  0  0  0  0  0  0  0  0  0
    0.1435    1.9824   -2.6342 H   0  0  0  0  0  0  0  0  0  0  0  0
    4.6310    0.7136   -1.7775 C   0  0  0  0  0  0  0  0  0  0  0  0
    5.7005    0.4672   -1.8558 H   0  0  0  0  0  0  0  0  0  0  0  0
    4.0497    1.6494   -2.6415 C   0  0  0  0  0  0  0  0  0  0  0  0
    4.6558    2.1601   -3.4047 H   0  0  0  0  0  0  0  0  0  0  0  0
    2.6752    1.9035   -2.5499 C   0  0  0  0  0  0  0  0  0  0  0  0
    2.2018    2.5960   -3.2640 H   0  0  0  0  0  0  0  0  0  0  0  0
    3.8413    0.0778   -0.8101 C   0  0  0  0  0  0  0  0  0  0  0  0
    4.3140   -0.6680   -0.1605 H   0  0  0  0  0  0  0  0  0  0  0  0
    0.2502    3.6124   -0.3277 C   0  0  0  0  0  0  0  0  0  0  0  0
    1.1154    3.9439   -0.9233 H   0  0  0  0  0  0  0  0  0  0  0  0
   -0.2759    2.3272   -0.5682 C   0  0  0  0  0  0  0  0  0  0  0  0
   -1.3834    1.8852    0.2113 C   0  0  0  0  0  0  0  0  0  0  0  0
   -0.2879    4.4601    0.6480 C   0  0  0  0  0  0  0  0  0  0  0  0
    0.1513    5.4548    0.8172 H   0  0  0  0  0  0  0  0  0  0  0  0
   -1.3893    4.0322    1.4030 C   0  0  0  0  0  0  0  0  0  0  0  0
   -1.8299    4.6862    2.1703 H   0  0  0  0  0  0  0  0  0  0  0  0
   -1.9297    2.7588    1.1782 C   0  0  0  0  0  0  0  0  0  0  0  0
   -2.7892    2.4390    1.7838 H   0  0  0  0  0  0  0  0  0  0  0  0
    2.5503   -1.7983    1.4025 C   0  0  0  0  0  0  0  0  0  0  0  0
    2.9013   -2.2875    0.4692 H   0  0  0  0  0  0  0  0  0  0  0  0
    1.3015    0.9133    1.9769 C   0  0  0  0  0  0  0  0  0  0  0  0
    0.3920    1.4503    1.6515 H   0  0  0  0  0  0  0  0  0  0  0  0
    3.7528   -1.3644    2.2539 C   0  0  0  0  0  0  0  0  0  0  0  0
    3.4547   -1.0469    3.2711 H   0  0  0  0  0  0  0  0  0  0  0  0
    4.3477   -0.5441    1.8112 H   0  0  0  0  0  0  0  0  0  0  0  0
    4.4298   -2.2355    2.3770 H   0  0  0  0  0  0  0  0  0  0  0  0
    1.6930   -2.8406    2.1369 C   0  0  0  0  0  0  0  0  0  0  0  0
    2.3375   -3.6935    2.4347 H   0  0  0  0  0  0  0  0  0  0  0  0
    0.8980   -3.2359    1.4760 H   0  0  0  0  0  0  0  0  0  0  0  0
    1.2318   -2.4359    3.0592 H   0  0  0  0  0  0  0  0  0  0  0  0
    2.4571    1.9206    1.9855 C   0  0  0  0  0  0  0  0  0  0  0  0
    2.2413    2.7133    2.7324 H   0  0  0  0  0  0  0  0  0  0  0  0
    2.5896    2.4116    1.0035 H   0  0  0  0  0  0  0  0  0  0  0  0
    3.4204    1.4508    2.2654 H   0  0  0  0  0  0  0  0  0  0  0  0
    1.0275    0.3569    3.3805 C   0  0  0  0  0  0  0  0  0  0  0  0
    0.2877   -0.4628    3.3803 H   0  0  0  0  0  0  0  0  0  0  0  0
    0.6257    1.1688    4.0216 H   0  0  0  0  0  0  0  0  0  0  0  0
    1.9475   -0.0158    3.8679 H   0  0  0  0  0  0  0  0  0  0  0  0
   -3.1621   -0.1467    1.4942 C   0  0  0  0  0  0  0  0  0  0  0  0
   -3.7817    0.7674    1.6186 H   0  0  0  0  0  0  0  0  0  0  0  0
   -3.2852    0.3465   -1.4066 C   0  0  0  0  0  0  0  0  0  0  0  0
   -3.7511   -0.6605   -1.4107 H   0  0  0  0  0  0  0  0  0  0  0  0
   -2.6176    0.5392   -2.7689 C   0  0  0  0  0  0  0  0  0  0  0  0
   -1.8782   -0.2593   -2.9712 H   0  0  0  0  0  0  0  0  0  0  0  0
   -2.1308    1.5312   -2.8546 H   0  0  0  0  0  0  0  0  0  0  0  0
   -3.3934    0.4846   -3.5602 H   0  0  0  0  0  0  0  0  0  0  0  0
   -4.3270    1.4322   -1.1226 C   0  0  0  0  0  0  0  0  0  0  0  0
   -4.9016    1.2501   -0.1932 H   0  0  0  0  0  0  0  0  0  0  0  0
   -5.0581    1.4648   -1.9570 H   0  0  0  0  0  0  0  0  0  0  0  0
   -3.8623    2.4372   -1.0491 H   0  0  0  0  0  0  0  0  0  0  0  0
   -4.0968   -1.3384    1.2457 C   0  0  0  0  0  0  0  0  0  0  0  0
   -4.6531   -1.5617    2.1794 H   0  0  0  0  0  0  0  0  0  0  0  0
   -3.5296   -2.2393    0.9382 H   0  0  0  0  0  0  0  0  0  0  0  0
   -4.8422   -1.1323    0.4539 H   0  0  0  0  0  0  0  0  0  0  0  0
   -2.3173   -0.3543    2.7508 C   0  0  0  0  0  0  0  0  0  0  0  0
   -2.9742   -0.5281    3.6278 H   0  0  0  0  0  0  0  0  0  0  0  0
   -1.6777    0.5198    2.9748 H   0  0  0  0  0  0  0  0  0  0  0  0
   -1.6628   -1.2418    2.6300 H   0  0  0  0  0  0  0  0  0  0  0  0
  1 19  1  0  0  0  0
  1 46  1  0  0  0  0
  2 26  1  0  0  0  0
  2 28  1  0  0  0  0
  3  2  1  0  0  0  0
  4  3  2  0  0  0  0
  5  4  1  0  0  0  0
  5 18  1  0  0  0  0
  6  5  1  0  0  0  0
  7  5  1  0  0  0  0
  8 14  2  0  0  0  0
  9  8  1  0  0  0  0
 10 12  2  0  0  0  0
 10  8  1  0  0  0  0
 11 10  1  0  0  0  0
 12  4  1  0  0  0  0
 13 12  1  0  0  0  0
 14  3  1  0  0  0  0
 14 15  1  0  0  0  0
 16 20  1  0  0  0  0
 17 16  1  0  0  0  0
 18 16  2  0  0  0  0
 18 19  1  0  0  0  0
 19 24  2  0  0  0  0
 20 21  1  0  0  0  0
 20 22  2  0  0  0  0
 22 23  1  0  0  0  0
 24 22  1  0  0  0  0
 24 25  1  0  0  0  0
 26 34  1  0  0  0  0
 26 30  1  0  0  0  0
 27 26  1  0  0  0  0
 28 38  1  0  0  0  0
 28 42  1  0  0  0  0
 29 28  1  0  0  0  0
 30 33  1  0  0  0  0
 30 31  1  0  0  0  0
 32 30  1  0  0  0  0
 34 35  1  0  0  0  0
 34 37  1  0  0  0  0
 36 34  1  0  0  0  0
 38 41  1  0  0  0  0
 38 39  1  0  0  0  0
 40 38  1  0  0  0  0
 42 45  1  0  0  0  0
 42 44  1  0  0  0  0
 43 42  1  0  0  0  0
 46 47  1  0  0  0  0
 46 62  1  0  0  0  0
 48 54  1  0  0  0  0
 48  1  1  0  0  0  0
 49 48  1  0  0  0  0
 50 48  1  0  0  0  0
 51 50  1  0  0  0  0
 52 50  1  0  0  0  0
 53 50  1  0  0  0  0
 54 57  1  0  0  0  0
 54 55  1  0  0  0  0
 56 54  1  0  0  0  0
 58 46  1  0  0  0  0
 58 59  1  0  0  0  0
 60 58  1  0  0  0  0
 61 58  1  0  0  0  0
 62 64  1  0  0  0  0
 62 63  1  0  0  0  0
 65 62  1  0  0  0  0
M  END
