1,2
q = 0.0, confidence = 0.986

 64 68  0  0  0  0  0  0  0  0999 V2000
    0.9939    1.7647    0.3486 P   0  0  0  0  0  0  0  0  0  0  0  0
   -0.8639   -0.8980    0.1481 P   0  0  0  0  0  0  0  0  0  0  0  0
    2.3223    0.5183   -0.0284 C   0  0  0  0  0  0  0  0  0  0  0  0
    3.6354    0.9729   -0.2191 C   0  0  0  0  0  0  0  0  0  0  0  0
    4.7575    0.1305   -0.4279 C   0  0  0  0  0  0  0  0  0  0  0  0
    4.5581   -1.2370   -0.4094 C   0  0  0  0  0  0  0  0  0  0  0  0
    3.2404   -1.7320   -0.2064 C   0  0  0  0  0  0  0  0  0  0  0  0
    3.2454   -3.1535   -0.1823 C   0  0  0  0  0  0  0  0  0  0  0  0
    2.0513   -3.8252    0.0160 C   0  0  0  0  0  0  0  0  0  0  0  0
    0.8705   -3.0547    0.1417 C   0  0  0  0  0  0  0  0  0  0  0  0
    0.8347   -1.6508    0.1046 C   0  0  0  0  0  0  0  0  0  0  0  0
    2.0722   -0.9115   -0.0417 C   0  0  0  0  0  0  0  0  0  0  0  0
    5.5249   -2.3901   -0.5664 C   0  0  0  0  0  0  0  0  0  0  0  0
    4.6531   -3.6683   -0.3867 C   0  0  0  0  0  0  0  0  0  0  0  0
    1.0357    1.6039    2.2441 C   0  0  0  0  0  0  0  0  0  0  0  0
   -0.2043    2.1533    2.9497 C   0  0  0  0  0  0  0  0  0  0  0  0
    2.3370    2.1185    2.8665 C   0  0  0  0  0  0  0  0  0  0  0  0
    1.7915    3.4346   -0.0113 C   0  0  0  0  0  0  0  0  0  0  0  0
    0.8958    4.5593    0.5245 C   0  0  0  0  0  0  0  0  0  0  0  0
    2.0707    3.6120   -1.5095 C   0  0  0  0  0  0  0  0  0  0  0  0
   -1.3626   -1.0408    1.9228 C   0  0  0  0  0  0  0  0  0  0  0  0
   -2.6359   -0.5505    2.2848 C   0  0  0  0  0  0  0  0  0  0  0  0
   -3.0607   -0.5969    3.6192 C   0  0  0  0  0  0  0  0  0  0  0  0
   -2.2110   -1.1142    4.6119 C   0  0  0  0  0  0  0  0  0  0  0  0
   -0.9441   -1.6023    4.2587 C   0  0  0  0  0  0  0  0  0  0  0  0
   -0.5236   -1.5768    2.9183 C   0  0  0  0  0  0  0  0  0  0  0  0
   -1.8730   -2.2325   -0.6540 C   0  0  0  0  0  0  0  0  0  0  0  0
   -1.7301   -2.4108   -2.0466 C   0  0  0  0  0  0  0  0  0  0  0  0
   -2.4794   -3.3860   -2.7156 C   0  0  0  0  0  0  0  0  0  0  0  0
   -3.3891   -4.1890   -2.0067 C   0  0  0  0  0  0  0  0  0  0  0  0
   -3.5371   -4.0147   -0.6236 C   0  0  0  0  0  0  0  0  0  0  0  0
   -2.7796   -3.0443    0.0541 C   0  0  0  0  0  0  0  0  0  0  0  0
    3.8295    2.0526   -0.1984 H   0  0  0  0  0  0  0  0  0  0  0  0
    5.7531    0.5740   -0.5801 H   0  0  0  0  0  0  0  0  0  0  0  0
    1.9971   -4.9236    0.0543 H   0  0  0  0  0  0  0  0  0  0  0  0
   -0.0817   -3.5939    0.2532 H   0  0  0  0  0  0  0  0  0  0  0  0
    6.3451   -2.3331    0.1793 H   0  0  0  0  0  0  0  0  0  0  0  0
    6.0138   -2.3606   -1.5628 H   0  0  0  0  0  0  0  0  0  0  0  0
    4.7080   -4.3405   -1.2682 H   0  0  0  0  0  0  0  0  0  0  0  0
    4.9814   -4.2763    0.4825 H   0  0  0  0  0  0  0  0  0  0  0  0
    1.0167    0.4988    2.3590 H   0  0  0  0  0  0  0  0  0  0  0  0
   -0.3158    3.2480    2.8257 H   0  0  0  0  0  0  0  0  0  0  0  0
   -0.1338    1.9425    4.0371 H   0  0  0  0  0  0  0  0  0  0  0  0
   -1.1270    1.6742    2.5808 H   0  0  0  0  0  0  0  0  0  0  0  0
    2.3855    1.8155    3.9332 H   0  0  0  0  0  0  0  0  0  0  0  0
    2.3952    3.2259    2.8424 H   0  0  0  0  0  0  0  0  0  0  0  0
    3.2365    1.7109    2.3640 H   0  0  0  0  0  0  0  0  0  0  0  0
    2.7502    3.4610    0.5492 H   0  0  0  0  0  0  0  0  0  0  0  0
   -0.1351    4.4760    0.1259 H   0  0  0  0  0  0  0  0  0  0  0  0
    1.3009    5.5425    0.2078 H   0  0  0  0  0  0  0  0  0  0  0  0
    0.8368    4.5620    1.6296 H   0  0  0  0  0  0  0  0  0  0  0  0
    2.6500    4.5447   -1.6721 H   0  0  0  0  0  0  0  0  0  0  0  0
    1.1281    3.7013   -2.0796 H   0  0  0  0  0  0  0  0  0  0  0  0
    2.6443    2.7720   -1.9463 H   0  0  0  0  0  0  0  0  0  0  0  0
   -3.2938   -0.1247    1.5121 H   0  0  0  0  0  0  0  0  0  0  0  0
   -4.0565   -0.2128    3.8870 H   0  0  0  0  0  0  0  0  0  0  0  0
   -2.5385   -1.1359    5.6623 H   0  0  0  0  0  0  0  0  0  0  0  0
   -0.2748   -2.0116    5.0309 H   0  0  0  0  0  0  0  0  0  0  0  0
    0.4655   -1.9737    2.6452 H   0  0  0  0  0  0  0  0  0  0  0  0
   -1.0310   -1.7759   -2.6110 H   0  0  0  0  0  0  0  0  0  0  0  0
   -2.3598   -3.5121   -3.8023 H   0  0  0  0  0  0  0  0  0  0  0  0
   -3.9854   -4.9477   -2.5358 H   0  0  0  0  0  0  0  0  0  0  0  0
   -4.2478   -4.6386   -0.0602 H   0  0  0  0  0  0  0  0  0  0  0  0
   -2.8979   -2.9228    1.1405 H   0  0  0  0  0  0  0  0  0  0  0  0
  1 15  1  0  0  0  0
  2 21  1  0  0  0  0
  3  1  1  0  0  0  0
  4 33  1  0  0  0  0
  4  3  2  0  0  0  0
  5  6  2  0  0  0  0
  5  4  1  0  0  0  0
  6  7  1  0  0  0  0
  7  8  2  0  0  0  0
  7 12  1  0  0  0  0
  8  9  1  0  0  0  0
  9 35  1  0  0  0  0
  9 10  2  0  0  0  0
 10 36  1  0  0  0  0
 11 10  1  0  0  0  0
 11  2  1  0  0  0  0
 12  3  1  0  0  0  0
 12 11  2  0  0  0  0
 13  6  1  0  0  0  0
 13 14  1  0  0  0  0
 13 37  1  0  0  0  0
 14  8  1  0  0  0  0
 14 40  1  0  0  0  0
 15 41  1  0  0  0  0
 15 17  1  0  0  0  0
 15 16  1  0  0  0  0
 16 43  1  0  0  0  0
 17 45  1  0  0  0  0
 18  1  1  0  0  0  0
 18 19  1  0  0  0  0
 18 48  1  0  0  0  0
 19 51  1  0  0  0  0
 20 18  1  0  0  0  0
 21 22  2  0  0  0  0
 21 26  1  0  0  0  0
 22 23  1  0  0  0  0
 23 56  1  0  0  0  0
 23 24  2  0  0  0  0
 24 57  1  0  0  0  0
 25 24  1  0  0  0  0
 25 58  1  0  0  0  0
 26 25  2  0  0  0  0
 27 32  1  0  0  0  0
 27  2  1  0  0  0  0
 28 27  2  0  0  0  0
 29 28  1  0  0  0  0
 29 30  2  0  0  0  0
 30 31  1  0  0  0  0
 31 63  1  0  0  0  0
 31 32  2  0  0  0  0
 32 64  1  0  0  0  0
 34  5  1  0  0  0  0
 38 13  1  0  0  0  0
 39 14  1  0  0  0  0
 42 16  1  0  0  0  0
 44 16  1  0  0  0  0
 46 17  1  0  0  0  0
 47 17  1  0  0  0  0
 49 19  1  0  0  0  0
 50 19  1  0  0  0  0
 52 20  1  0  0  0  0
 53 20  1  0  0  0  0
 54 20  1  0  0  0  0
 55 22  1  0  0  0  0
 59 26  1  0  0  0  0
 60 28  1  0  0  0  0
 61 29  1  0  0  0  0
 62 30  1  0  0  0  0
M  END
