1,2
q = 0.0, confidence = 0.998

 61 65  0  0  1  0  0  0  0  0999 V2000
   -1.6422    0.0098    0.2909 P   0  0  0  0  0  0  0  0  0  0  0  0
    1.7583    0.0566    0.4778 P   0  0  0  0  0  0  0  0  0  0  0  0
   -1.3224    0.5523    1.8788 N   0  0  0  0  0  0  0  0  0  0  0  0
    1.1321    0.1183    2.2183 C   0  0  0  0  0  0  0  0  0  0  0  0
    1.9769    0.4152    2.8734 H   0  0  0  0  0  0  0  0  0  0  0  0
    0.8037   -0.8972    2.5177 H   0  0  0  0  0  0  0  0  0  0  0  0
   -0.0395    1.0921    2.3749 C   0  0  2  0  0  0  0  0  0  0  0  0
    0.2143    2.0422    1.8449 H   0  0  0  0  0  0  0  0  0  0  0  0
   -0.3426    1.4015    3.8548 C   0  0  0  0  0  0  0  0  0  0  0  0
    0.2890    2.2264    4.2382 H   0  0  0  0  0  0  0  0  0  0  0  0
   -0.1289    0.4994    4.4676 H   0  0  0  0  0  0  0  0  0  0  0  0
   -1.8429    1.7004    3.8710 C   0  0  0  0  0  0  0  0  0  0  0  0
   -2.0366    2.7261    3.4928 H   0  0  0  0  0  0  0  0  0  0  0  0
   -2.2993    1.6167    4.8764 H   0  0  0  0  0  0  0  0  0  0  0  0
   -2.3924    0.6701    2.8806 C   0  0  0  0  0  0  0  0  0  0  0  0
   -2.5929   -0.3081    3.3775 H   0  0  0  0  0  0  0  0  0  0  0  0
   -3.3420    1.0022    2.4107 H   0  0  0  0  0  0  0  0  0  0  0  0
   -2.8810    2.5083    0.1182 C   0  0  0  0  0  0  0  0  0  0  0  0
   -3.8261    3.4366   -0.3417 C   0  0  0  0  0  0  0  0  0  0  0  0
   -4.8512    3.0223   -1.2070 C   0  0  0  0  0  0  0  0  0  0  0  0
   -4.9235    1.6808   -1.6154 C   0  0  0  0  0  0  0  0  0  0  0  0
   -3.9774    0.7493   -1.1633 C   0  0  0  0  0  0  0  0  0  0  0  0
   -2.9562    1.1597   -0.2831 C   0  0  0  0  0  0  0  0  0  0  0  0
   -2.0730    2.8298    0.7935 H   0  0  0  0  0  0  0  0  0  0  0  0
   -3.7597    4.4886   -0.0250 H   0  0  0  0  0  0  0  0  0  0  0  0
   -5.5939    3.7494   -1.5692 H   0  0  0  0  0  0  0  0  0  0  0  0
   -5.7192    1.3556   -2.3026 H   0  0  0  0  0  0  0  0  0  0  0  0
   -4.0150   -0.2934   -1.5066 H   0  0  0  0  0  0  0  0  0  0  0  0
   -3.7786   -1.7237    1.0365 C   0  0  0  0  0  0  0  0  0  0  0  0
   -4.3393   -2.9885    1.2715 C   0  0  0  0  0  0  0  0  0  0  0  0
   -3.6002   -4.1497    0.9948 C   0  0  0  0  0  0  0  0  0  0  0  0
   -2.2995   -4.0456    0.4753 C   0  0  0  0  0  0  0  0  0  0  0  0
   -1.7356   -2.7844    0.2379 C   0  0  0  0  0  0  0  0  0  0  0  0
   -2.4695   -1.6149    0.5242 C   0  0  0  0  0  0  0  0  0  0  0  0
   -4.3718   -0.8183    1.2345 H   0  0  0  0  0  0  0  0  0  0  0  0
   -5.3635   -3.0666    1.6669 H   0  0  0  0  0  0  0  0  0  0  0  0
   -4.0447   -5.1405    1.1746 H   0  0  0  0  0  0  0  0  0  0  0  0
   -1.7240   -4.9532    0.2382 H   0  0  0  0  0  0  0  0  0  0  0  0
   -0.7271   -2.6890   -0.1971 H   0  0  0  0  0  0  0  0  0  0  0  0
    2.4415    2.5529   -0.6192 C   0  0  0  0  0  0  0  0  0  0  0  0
    3.1758    3.7468   -0.6872 C   0  0  0  0  0  0  0  0  0  0  0  0
    4.2333    3.9785    0.2059 C   0  0  0  0  0  0  0  0  0  0  0  0
    4.5623    3.0125    1.1720 C   0  0  0  0  0  0  0  0  0  0  0  0
    3.8297    1.8196    1.2480 C   0  0  0  0  0  0  0  0  0  0  0  0
    2.7631    1.5870    0.3540 C   0  0  0  0  0  0  0  0  0  0  0  0
    1.6275    2.3455   -1.3304 H   0  0  0  0  0  0  0  0  0  0  0  0
    2.9226    4.4969   -1.4513 H   0  0  0  0  0  0  0  0  0  0  0  0
    4.8101    4.9141    0.1465 H   0  0  0  0  0  0  0  0  0  0  0  0
    5.3973    3.1874    1.8674 H   0  0  0  0  0  0  0  0  0  0  0  0
    4.1027    1.0590    1.9968 H   0  0  0  0  0  0  0  0  0  0  0  0
    2.5558   -2.5695    1.0676 C   0  0  0  0  0  0  0  0  0  0  0  0
    3.4239   -3.6699    1.0287 C   0  0  0  0  0  0  0  0  0  0  0  0
    4.6779   -3.5545    0.4082 C   0  0  0  0  0  0  0  0  0  0  0  0
    5.0563   -2.3388   -0.1829 C   0  0  0  0  0  0  0  0  0  0  0  0
    4.1920   -1.2353   -0.1492 C   0  0  0  0  0  0  0  0  0  0  0  0
    2.9428   -1.3409    0.4938 C   0  0  0  0  0  0  0  0  0  0  0  0
    1.5640   -2.6806    1.5328 H   0  0  0  0  0  0  0  0  0  0  0  0
    3.1147   -4.6249    1.4797 H   0  0  0  0  0  0  0  0  0  0  0  0
    5.3580   -4.4192    0.3754 H   0  0  0  0  0  0  0  0  0  0  0  0
    6.0303   -2.2497   -0.6873 H   0  0  0  0  0  0  0  0  0  0  0  0
    4.4757   -0.2929   -0.6379 H   0  0  0  0  0  0  0  0  0  0  0  0
  1 34  1  0  0  0  0
  1  3  1  0  0  0  0
  2 56  1  0  0  0  0
  2  4  1  0  0  0  0
  3  7  1  0  0  0  0
  3 15  1  0  0  0  0
  4  7  1  0  0  0  0
  4  6  1  0  0  0  0
  4  5  1  0  0  0  0
  7  8  1  6  0  0  0
  7  9  1  0  0  0  0
  9 12  1  0  0  0  0
  9 10  1  0  0  0  0
  9 11  1  0  0  0  0
 12 14  1  0  0  0  0
 13 12  1  0  0  0  0
 15 16  1  0  0  0  0
 15 12  1  0  0  0  0
 17 15  1  0  0  0  0
 18 24  1  0  0  0  0
 19 25  1  0  0  0  0
 19 18  2  0  0  0  0
 20 19  1  0  0  0  0
 21 20  2  0  0  0  0
 21 22  1  0  0  0  0
 22 23  2  0  0  0  0
 23 18  1  0  0  0  0
 23  1  1  0  0  0  0
 26 20  1  0  0  0  0
 27 21  1  0  0  0  0
 28 22  1  0  0  0  0
 29 35  1  0  0  0  0
 29 30  1  0  0  0  0
 30 36  1  0  0  0  0
 31 37  1  0  0  0  0
 31 30  2  0  0  0  0
 32 31  1  0  0  0  0
 33 32  2  0  0  0  0
 33 34  1  0  0  0  0
 34 29  2  0  0  0  0
 38 32  1  0  0  0  0
 39 33  1  0  0  0  0
 40 45  1  0  0  0  0
 41 40  2  0  0  0  0
 41 42  1  0  0  0  0
 42 43  2  0  0  0  0
 43 44  1  0  0  0  0
 43 49  1  0  0  0  0
 44 50  1  0  0  0  0
 45  2  1  0  0  0  0
 45 44  2  0  0  0  0
 46 40  1  0  0  0  0
 47 41  1  0  0  0  0
 48 42  1  0  0  0  0
 51 57  1  0  0  0  0
 52 51  1  0  0  0  0
 52 58  1  0  0  0  0
 53 52  2  0  0  0  0
 54 55  2  0  0  0  0
 54 53  1  0  0  0  0
 55 56  1  0  0  0  0
 56 51  2  0  0  0  0
 59 53  1  0  0  0  0
 60 54  1  0  0  0  0
 61 55  1  0  0  0  0
M  END
