1,2
q = 0.0, confidence = 0.994

 35 36  0  0  0  0  0  0  0  0999 V2000
    1.6754   -0.3108   -1.1894 P   0  0  0  0  0  0  0  0  0  0  0  0
   -1.4168    0.0674   -1.3563 P   0  0  0  0  0  0  0  0  0  0  0  0
    1.4532   -0.6677   -3.0056 C   0  0  0  0  0  0  0  0  0  0  0  0
    2.4196   -0.4417   -3.4997 H   0  0  0  0  0  0  0  0  0  0  0  0
    1.2821   -1.7623   -3.0624 H   0  0  0  0  0  0  0  0  0  0  0  0
    0.3020    0.0947   -3.6691 C   0  0  0  0  0  0  0  0  0  0  0  0
    0.3363   -0.1063   -4.7620 H   0  0  0  0  0  0  0  0  0  0  0  0
    0.4561    1.1921   -3.5693 H   0  0  0  0  0  0  0  0  0  0  0  0
   -1.0864   -0.2956   -3.1568 C   0  0  0  0  0  0  0  0  0  0  0  0
   -1.2293   -1.3932   -3.2327 H   0  0  0  0  0  0  0  0  0  0  0  0
   -1.8839    0.2093   -3.7392 H   0  0  0  0  0  0  0  0  0  0  0  0
    3.2856   -1.1412   -0.8822 C   0  0  0  0  0  0  0  0  0  0  0  0
    3.3144   -2.5311   -0.6450 C   0  0  0  0  0  0  0  0  0  0  0  0
    2.3684   -3.0928   -0.6088 H   0  0  0  0  0  0  0  0  0  0  0  0
    4.5435   -3.1774   -0.4506 C   0  0  0  0  0  0  0  0  0  0  0  0
    4.5619   -4.2623   -0.2658 H   0  0  0  0  0  0  0  0  0  0  0  0
    5.7435   -2.4476   -0.4748 C   0  0  0  0  0  0  0  0  0  0  0  0
    6.7044   -2.9599   -0.3121 H   0  0  0  0  0  0  0  0  0  0  0  0
    5.7161   -1.0631   -0.7044 C   0  0  0  0  0  0  0  0  0  0  0  0
    6.6531   -0.4852   -0.7243 H   0  0  0  0  0  0  0  0  0  0  0  0
    4.4901   -0.4111   -0.9102 C   0  0  0  0  0  0  0  0  0  0  0  0
    4.4693    0.6761   -1.0839 H   0  0  0  0  0  0  0  0  0  0  0  0
   -1.8337    1.8637   -1.3820 C   0  0  0  0  0  0  0  0  0  0  0  0
   -3.1562    2.2942   -1.1500 C   0  0  0  0  0  0  0  0  0  0  0  0
   -3.9483    1.5476   -0.9789 H   0  0  0  0  0  0  0  0  0  0  0  0
   -3.4656    3.6637   -1.1270 C   0  0  0  0  0  0  0  0  0  0  0  0
   -4.5018    3.9861   -0.9418 H   0  0  0  0  0  0  0  0  0  0  0  0
   -2.4595    4.6190   -1.3409 C   0  0  0  0  0  0  0  0  0  0  0  0
   -2.7036    5.6921   -1.3259 H   0  0  0  0  0  0  0  0  0  0  0  0
   -1.1381    4.1995   -1.5665 C   0  0  0  0  0  0  0  0  0  0  0  0
   -0.3413    4.9422   -1.7265 H   0  0  0  0  0  0  0  0  0  0  0  0
   -0.8255    2.8321   -1.5757 C   0  0  0  0  0  0  0  0  0  0  0  0
    0.2214    2.5178   -1.7093 H   0  0  0  0  0  0  0  0  0  0  0  0
    2.1564    1.0416   -1.2876 H   0  0  0  0  0  0  0  0  0  0  0  0
   -2.7609   -0.4311   -1.3200 H   0  0  0  0  0  0  0  0  0  0  0  0
  1 12  1  0  0  0  0
  2 35  1  0  0  0  0
  3  1  1  0  0  0  0
  4  3  1  0  0  0  0
  5  3  1  0  0  0  0
  6  8  1  0  0  0  0
  6  9  1  0  0  0  0
  6  3  1  0  0  0  0
  7  6  1  0  0  0  0
  9  2  1  0  0  0  0
 10  9  1  0  0  0  0
 11  9  1  0  0  0  0
 12 13  1  0  0  0  0
 13 14  1  0  0  0  0
 13 15  2  0  0  0  0
 15 16  1  0  0  0  0
 17 15  1  0  0  0  0
 17 18  1  0  0  0  0
 19 17  2  0  0  0  0
 20 19  1  0  0  0  0
 21 12  2  0  0  0  0
 21 19  1  0  0  0  0
 22 21  1  0  0  0  0
 23  2  1  0  0  0  0
 23 24  1  0  0  0  0
 24 26  2  0  0  0  0
 24 25  1  0  0  0  0
 26 27  1  0  0  0  0
 28 29  1  0  0  0  0
 28 26  1  0  0  0  0
 30 28  2  0  0  0  0
 31 30  1  0  0  0  0
 32 30  1  0  0  0  0
 32 23  2  0  0  0  0
 33 32  1  0  0  0  0
 34  1  1  0  0  0  0
M  END
