1,2
q = 0.0, confidence = 0.992

 35 36  0  0  0  0  0  0  0  0999 V2000
    0.1374    1.0664    1.3263 P   0  0  0  0  0  0  0  0  0  0  0  0
   -1.6312   -1.5747    1.4500 P   0  0  0  0  0  0  0  0  0  0  0  0
   -0.1452    0.9459    3.1642 C   0  0  0  0  0  0  0  0  0  0  0  0
    0.6555    0.2837    3.5512 H   0  0  0  0  0  0  0  0  0  0  0  0
    0.0114    1.9640    3.5748 H   0  0  0  0  0  0  0  0  0  0  0  0
   -1.5287    0.4085    3.5416 C   0  0  0  0  0  0  0  0  0  0  0  0
   -2.3152    1.0185    3.0428 H   0  0  0  0  0  0  0  0  0  0  0  0
   -1.6816    0.5648    4.6312 H   0  0  0  0  0  0  0  0  0  0  0  0
   -1.7218   -1.0836    3.2436 C   0  0  0  0  0  0  0  0  0  0  0  0
   -2.6863   -1.4529    3.6480 H   0  0  0  0  0  0  0  0  0  0  0  0
   -0.9057   -1.6635    3.7200 H   0  0  0  0  0  0  0  0  0  0  0  0
    1.7218    2.0098    1.2894 C   0  0  0  0  0  0  0  0  0  0  0  0
    1.7507    3.3703    0.9197 C   0  0  0  0  0  0  0  0  0  0  0  0
    0.8120    3.8888    0.6687 H   0  0  0  0  0  0  0  0  0  0  0  0
    2.9705    4.0635    0.8688 C   0  0  0  0  0  0  0  0  0  0  0  0
    2.9847    5.1251    0.5767 H   0  0  0  0  0  0  0  0  0  0  0  0
    4.1681    3.4058    1.1934 C   0  0  0  0  0  0  0  0  0  0  0  0
    5.1239    3.9509    1.1553 H   0  0  0  0  0  0  0  0  0  0  0  0
    4.1423    2.0514    1.5648 C   0  0  0  0  0  0  0  0  0  0  0  0
    5.0780    1.5267    1.8114 H   0  0  0  0  0  0  0  0  0  0  0  0
    2.9282    1.3503    1.6078 C   0  0  0  0  0  0  0  0  0  0  0  0
    2.9041    0.2787    1.8683 H   0  0  0  0  0  0  0  0  0  0  0  0
   -3.3823   -1.5457    0.8813 C   0  0  0  0  0  0  0  0  0  0  0  0
   -4.2781   -0.5217    1.2512 C   0  0  0  0  0  0  0  0  0  0  0  0
   -3.9742    0.2463    1.9785 H   0  0  0  0  0  0  0  0  0  0  0  0
   -5.5651   -0.4650    0.6924 C   0  0  0  0  0  0  0  0  0  0  0  0
   -6.2573    0.3353    0.9968 H   0  0  0  0  0  0  0  0  0  0  0  0
   -5.9685   -1.4249   -0.2497 C   0  0  0  0  0  0  0  0  0  0  0  0
   -6.9771   -1.3793   -0.6878 H   0  0  0  0  0  0  0  0  0  0  0  0
   -5.0777   -2.4416   -0.6312 C   0  0  0  0  0  0  0  0  0  0  0  0
   -5.3851   -3.1942   -1.3734 H   0  0  0  0  0  0  0  0  0  0  0  0
   -3.7916   -2.5019   -0.0742 C   0  0  0  0  0  0  0  0  0  0  0  0
   -3.0771   -3.2740   -0.4002 H   0  0  0  0  0  0  0  0  0  0  0  0
   -0.7514    2.1645    1.0558 H   0  0  0  0  0  0  0  0  0  0  0  0
   -1.4576   -2.9848    1.5779 H   0  0  0  0  0  0  0  0  0  0  0  0
  1  3  1  0  0  0  0
  2 35  1  0  0  0  0
  2  9  1  0  0  0  0
  3  6  1  0  0  0  0
  3  4  1  0  0  0  0
  3  5  1  0  0  0  0
  6  8  1  0  0  0  0
  7  6  1  0  0  0  0
  9  6  1  0  0  0  0
  9 10  1  0  0  0  0
  9 11  1  0  0  0  0
 12  1  1  0  0  0  0
 12 21  1  0  0  0  0
 13 12  2  0  0  0  0
 14 13  1  0  0  0  0
 15 13  1  0  0  0  0
 15 17  2  0  0  0  0
 16 15  1  0  0  0  0
 17 19  1  0  0  0  0
 18 17  1  0  0  0  0
 19 21  2  0  0  0  0
 19 20  1  0  0  0  0
 21 22  1  0  0  0  0
 23 24  1  0  0  0  0
 23  2  1  0  0  0  0
 24 25  1  0  0  0  0
 26 27  1  0  0  0  0
 26 24  2  0  0  0  0
 28 26  1  0  0  0  0
 29 28  1  0  0  0  0
 30 28  2  0  0  0  0
 30 32  1  0  0  0  0
 31 30  1  0  0  0  0
 32 23  2  0  0  0  0
 33 32  1  0  0  0  0
 34  1  1  0  0  0  0
M  END
