1,2
q = 0.0, confidence = 0.984

 54 58  0  0  1  0  0  0  0  0999 V2000
   -1.4716    0.0830    0.2853 P   0  0  1  0  0  0  0  0  0  0  0  0
    1.3961    0.4994    0.1001 P   0  0  0  0  0  0  0  0  0  0  0  0
   -0.9465    1.9050    0.4163 C   0  0  1  0  0  0  0  0  0  0  0  0
   -2.0409    2.4937    1.2854 C   0  0  0  0  0  0  0  0  0  0  0  0
   -2.4270    1.6004    2.2422 C   0  0  0  0  0  0  0  0  0  0  0  0
   -1.5866    0.3382    2.1494 C   0  0  2  0  0  0  0  0  0  0  0  0
   -2.5728    3.8638    1.0141 C   0  0  0  0  0  0  0  0  0  0  0  0
   -3.4773    1.7470    3.2940 C   0  0  0  0  0  0  0  0  0  0  0  0
    0.3545    1.5979    1.2187 C   0  0  1  0  0  0  0  0  0  0  0  0
   -0.1048    0.7384    2.4407 C   0  0  0  0  0  0  0  0  0  0  0  0
   -3.1433    0.1003   -0.4359 C   0  0  0  0  0  0  0  0  0  0  0  0
   -4.1951   -0.6513    0.1240 C   0  0  0  0  0  0  0  0  0  0  0  0
   -5.4708   -0.6043   -0.4546 C   0  0  0  0  0  0  0  0  0  0  0  0
   -5.7005    0.1765   -1.5996 C   0  0  0  0  0  0  0  0  0  0  0  0
   -4.6498    0.9126   -2.1687 C   0  0  0  0  0  0  0  0  0  0  0  0
   -3.3724    0.8757   -1.5897 C   0  0  0  0  0  0  0  0  0  0  0  0
    1.9617    1.5885   -1.2657 C   0  0  0  0  0  0  0  0  0  0  0  0
    1.9693    2.9963   -1.1653 C   0  0  0  0  0  0  0  0  0  0  0  0
    2.4122    3.7778   -2.2438 C   0  0  0  0  0  0  0  0  0  0  0  0
    2.8516    3.1619   -3.4260 C   0  0  0  0  0  0  0  0  0  0  0  0
    2.8433    1.7613   -3.5295 C   0  0  0  0  0  0  0  0  0  0  0  0
    2.3959    0.9736   -2.4595 C   0  0  0  0  0  0  0  0  0  0  0  0
    2.8888    0.1582    1.1109 C   0  0  0  0  0  0  0  0  0  0  0  0
    3.8742    1.1497    1.2901 C   0  0  0  0  0  0  0  0  0  0  0  0
    4.9690    0.9044    2.1320 C   0  0  0  0  0  0  0  0  0  0  0  0
    5.0849   -0.3279    2.7956 C   0  0  0  0  0  0  0  0  0  0  0  0
    4.1079   -1.3189    2.6110 C   0  0  0  0  0  0  0  0  0  0  0  0
    3.0134   -1.0830    1.7663 C   0  0  0  0  0  0  0  0  0  0  0  0
   -0.7607    2.4353   -0.5356 H   0  0  0  0  0  0  0  0  0  0  0  0
   -1.9393   -0.5332    2.7288 H   0  0  0  0  0  0  0  0  0  0  0  0
   -3.3597    4.1607    1.7333 H   0  0  0  0  0  0  0  0  0  0  0  0
   -1.7669    4.6287    1.0527 H   0  0  0  0  0  0  0  0  0  0  0  0
   -3.0091    3.9169   -0.0076 H   0  0  0  0  0  0  0  0  0  0  0  0
   -3.9752    2.7347    3.2583 H   0  0  0  0  0  0  0  0  0  0  0  0
   -4.2597    0.9663    3.1717 H   0  0  0  0  0  0  0  0  0  0  0  0
   -3.0550    1.6116    4.3134 H   0  0  0  0  0  0  0  0  0  0  0  0
    0.5359   -0.1537    2.5885 H   0  0  0  0  0  0  0  0  0  0  0  0
   -0.0617    1.3312    3.3757 H   0  0  0  0  0  0  0  0  0  0  0  0
    0.9037    2.5098    1.5228 H   0  0  0  0  0  0  0  0  0  0  0  0
   -4.0044   -1.2871    1.0004 H   0  0  0  0  0  0  0  0  0  0  0  0
   -6.2907   -1.1906   -0.0129 H   0  0  0  0  0  0  0  0  0  0  0  0
   -6.7022    0.2051   -2.0547 H   0  0  0  0  0  0  0  0  0  0  0  0
   -4.8231    1.5177   -3.0715 H   0  0  0  0  0  0  0  0  0  0  0  0
   -2.5492    1.4500   -2.0424 H   0  0  0  0  0  0  0  0  0  0  0  0
    1.6291    3.4951   -0.2455 H   0  0  0  0  0  0  0  0  0  0  0  0
    2.4142    4.8751   -2.1574 H   0  0  0  0  0  0  0  0  0  0  0  0
    3.1985    3.7767   -4.2705 H   0  0  0  0  0  0  0  0  0  0  0  0
    3.1834    1.2736   -4.4556 H   0  0  0  0  0  0  0  0  0  0  0  0
    2.3807   -0.1275   -2.5314 H   0  0  0  0  0  0  0  0  0  0  0  0
    3.7947    2.1111    0.7596 H   0  0  0  0  0  0  0  0  0  0  0  0
    5.7402    1.6786    2.2638 H   0  0  0  0  0  0  0  0  0  0  0  0
    5.9474   -0.5197    3.4520 H   0  0  0  0  0  0  0  0  0  0  0  0
    4.2036   -2.2917    3.1165 H   0  0  0  0  0  0  0  0  0  0  0  0
    2.2667   -1.8699    1.5804 H   0  0  0  0  0  0  0  0  0  0  0  0
  1 11  1  6  0  0  0
  1  3  1  0  0  0  0
  1  6  1  0  0  0  0
  2 23  1  0  0  0  0
  2  9  1  0  0  0  0
  3 29  1  6  0  0  0
  3  9  1  0  0  0  0
  3  4  1  0  0  0  0
  4  5  2  0  0  0  0
  5  8  1  0  0  0  0
  6  5  1  0  0  0  0
  6 10  1  0  0  0  0
  6 30  1  1  0  0  0
  7 32  1  0  0  0  0
  7  4  1  0  0  0  0
  7 31  1  0  0  0  0
  8 36  1  0  0  0  0
  9 39  1  1  0  0  0
  9 10  1  0  0  0  0
 10 37  1  0  0  0  0
 10 38  1  0  0  0  0
 11 12  1  0  0  0  0
 12 40  1  0  0  0  0
 13 41  1  0  0  0  0
 13 12  2  0  0  0  0
 14 13  1  0  0  0  0
 15 14  2  0  0  0  0
 15 16  1  0  0  0  0
 16 11  2  0  0  0  0
 17 18  1  0  0  0  0
 17  2  1  0  0  0  0
 18 45  1  0  0  0  0
 19 46  1  0  0  0  0
 19 18  2  0  0  0  0
 20 19  1  0  0  0  0
 21 20  2  0  0  0  0
 21 22  1  0  0  0  0
 22 17  2  0  0  0  0
 23 24  2  0  0  0  0
 23 28  1  0  0  0  0
 24 25  1  0  0  0  0
 25 51  1  0  0  0  0
 25 26  2  0  0  0  0
 26 52  1  0  0  0  0
 27 26  1  0  0  0  0
 27 53  1  0  0  0  0
 28 27  2  0  0  0  0
 33  7  1  0  0  0  0
 34  8  1  0  0  0  0
 35  8  1  0  0  0  0
 42 14  1  0  0  0  0
 43 15  1  0  0  0  0
 44 16  1  0  0  0  0
 47 20  1  0  0  0  0
 48 21  1  0  0  0  0
 49 22  1  0  0  0  0
 50 24  1  0  0  0  0
 54 28  1  0  0  0  0
M  END
