1,48
q = 0.0, confidence = 0.986

 50 51  0  0  0  0  0  0  0  0999 V2000
   -0.8242    2.1591    0.1503 P   0  0  0  0  0  0  0  0  0  0  0  0
   -2.5134    2.0365   -0.5645 C   0  0  0  0  0  0  0  0  0  0  0  0
   -2.6635    2.0728   -1.9686 C   0  0  0  0  0  0  0  0  0  0  0  0
   -1.7982    2.3116   -2.6052 H   0  0  0  0  0  0  0  0  0  0  0  0
   -3.9032    1.7849   -2.5547 C   0  0  0  0  0  0  0  0  0  0  0  0
   -4.0032    1.7934   -3.6501 H   0  0  0  0  0  0  0  0  0  0  0  0
   -5.0066    1.4603   -1.7486 C   0  0  0  0  0  0  0  0  0  0  0  0
   -5.9702    1.1978   -2.2104 H   0  0  0  0  0  0  0  0  0  0  0  0
   -4.8698    1.4421   -0.3526 C   0  0  0  0  0  0  0  0  0  0  0  0
   -5.7236    1.1657    0.2841 H   0  0  0  0  0  0  0  0  0  0  0  0
   -3.6293    1.7243    0.2389 C   0  0  0  0  0  0  0  0  0  0  0  0
   -3.5293    1.6504    1.3314 H   0  0  0  0  0  0  0  0  0  0  0  0
   -0.0583    3.5119   -0.8424 C   0  0  0  0  0  0  0  0  0  0  0  0
   -0.7861    4.7042   -1.0583 C   0  0  0  0  0  0  0  0  0  0  0  0
   -1.8164    4.7998   -0.6801 H   0  0  0  0  0  0  0  0  0  0  0  0
   -0.2075    5.7611   -1.7728 C   0  0  0  0  0  0  0  0  0  0  0  0
   -0.7805    6.6858   -1.9408 H   0  0  0  0  0  0  0  0  0  0  0  0
    1.0983    5.6368   -2.2799 C   0  0  0  0  0  0  0  0  0  0  0  0
    1.5493    6.4669   -2.8449 H   0  0  0  0  0  0  0  0  0  0  0  0
    1.8197    4.4533   -2.0687 C   0  0  0  0  0  0  0  0  0  0  0  0
    2.8397    4.3442   -2.4679 H   0  0  0  0  0  0  0  0  0  0  0  0
    1.2485    3.3885   -1.3507 C   0  0  0  0  0  0  0  0  0  0  0  0
    1.8129    2.4584   -1.1858 H   0  0  0  0  0  0  0  0  0  0  0  0
   -1.0276    2.9620    1.8192 C   0  0  0  0  0  0  0  0  0  0  0  0
   -1.3365    4.0199    1.7002 H   0  0  0  0  0  0  0  0  0  0  0  0
   -1.8296    2.4190    2.3554 H   0  0  0  0  0  0  0  0  0  0  0  0
    0.3127    2.8176    2.5351 C   0  0  0  0  0  0  0  0  0  0  0  0
    0.2706    3.1471    3.5925 H   0  0  0  0  0  0  0  0  0  0  0  0
    1.0817    3.4344    2.0234 H   0  0  0  0  0  0  0  0  0  0  0  0
    0.2906    0.2180    3.9918 C   0  0  0  0  0  0  0  0  0  0  0  0
   -1.1155    0.6841    4.3909 C   0  0  0  0  0  0  0  0  0  0  0  0
   -1.8512    0.4105    3.6091 H   0  0  0  0  0  0  0  0  0  0  0  0
   -1.1734    1.7726    4.5864 H   0  0  0  0  0  0  0  0  0  0  0  0
   -1.4209    0.1688    5.3253 H   0  0  0  0  0  0  0  0  0  0  0  0
    0.3256   -1.3123    3.8774 C   0  0  0  0  0  0  0  0  0  0  0  0
    0.0758   -1.7634    4.8601 H   0  0  0  0  0  0  0  0  0  0  0  0
    1.3116   -1.7036    3.5664 H   0  0  0  0  0  0  0  0  0  0  0  0
   -0.4324   -1.6484    3.1428 H   0  0  0  0  0  0  0  0  0  0  0  0
    2.7665    1.2314    2.6403 C   0  0  0  0  0  0  0  0  0  0  0  0
    3.4714   -0.1035    2.9101 C   0  0  0  0  0  0  0  0  0  0  0  0
    4.5694    0.0312    2.8276 H   0  0  0  0  0  0  0  0  0  0  0  0
    3.1827   -0.8945    2.1949 H   0  0  0  0  0  0  0  0  0  0  0  0
    3.2613   -0.4714    3.9353 H   0  0  0  0  0  0  0  0  0  0  0  0
    3.1495    2.2698    3.7025 C   0  0  0  0  0  0  0  0  0  0  0  0
    2.7770    1.9866    4.7095 H   0  0  0  0  0  0  0  0  0  0  0  0
    2.7782    3.2862    3.4720 H   0  0  0  0  0  0  0  0  0  0  0  0
    4.2552    2.3339    3.7737 H   0  0  0  0  0  0  0  0  0  0  0  0
    0.9067    1.0410    2.4115 P   0  0  0  0  0  0  0  0  0  0  0  0
    1.0166    0.5493    4.7695 H   0  0  0  0  0  0  0  0  0  0  0  0
    3.0756    1.5991    1.6371 H   0  0  0  0  0  0  0  0  0  0  0  0
  1 24  1  0  0  0  0
  2  1  1  0  0  0  0
  2 11  1  0  0  0  0
  3  2  2  0  0  0  0
  4  3  1  0  0  0  0
  5  3  1  0  0  0  0
  5  7  2  0  0  0  0
  6  5  1  0  0  0  0
  7  9  1  0  0  0  0
  8  7  1  0  0  0  0
  9 11  2  0  0  0  0
  9 10  1  0  0  0  0
 11 12  1  0  0  0  0
 13  1  1  0  0  0  0
 14 13  1  0  0  0  0
 14 15  1  0  0  0  0
 16 14  2  0  0  0  0
 17 16  1  0  0  0  0
 18 20  2  0  0  0  0
 18 16  1  0  0  0  0
 19 18  1  0  0  0  0
 20 22  1  0  0  0  0
 21 20  1  0  0  0  0
 22 23  1  0  0  0  0
 22 13  2  0  0  0  0
 24 26  1  0  0  0  0
 24 27  1  0  0  0  0
 25 24  1  0  0  0  0
 27 28  1  0  0  0  0
 29 27  1  0  0  0  0
 30 31  1  0  0  0  0
 30 49  1  0  0  0  0
 31 33  1  0  0  0  0
 31 34  1  0  0  0  0
 32 31  1  0  0  0  0
 35 30  1  0  0  0  0
 35 36  1  0  0  0  0
 37 35  1  0  0  0  0
 38 35  1  0  0  0  0
 39 40  1  0  0  0  0
 39 44  1  0  0  0  0
 40 43  1  0  0  0  0
 41 40  1  0  0  0  0
 42 40  1  0  0  0  0
 44 47  1  0  0  0  0
 44 45  1  0  0  0  0
 46 44  1  0  0  0  0
 48 27  1  0  0  0  0
 48 39  1  0  0  0  0
 48 30  1  0  0  0  0
 50 39  1  0  0  0  0
M  END
