1,2
q = 0.0, confidence = 0.978

 74 81  0  0  1  0  0  0  0  0999 V2000
   -1.1938   -0.3337   -1.0325 P   0  0  2  0  0  0  0  0  0  0  0  0
    1.1938   -0.3340    1.0324 P   0  0  2  0  0  0  0  0  0  0  0  0
   -0.8882    2.4299   -1.1084 N   0  0  0  0  0  0  0  0  0  0  0  0
    0.8888    2.4297    1.1084 N   0  0  0  0  0  0  0  0  0  0  0  0
   -1.2808   -0.2836   -2.8567 C   0  0  0  0  0  0  0  0  0  0  0  0
   -0.2435   -0.2571   -3.2409 H   0  0  0  0  0  0  0  0  0  0  0  0
   -1.8358    0.6081   -3.2037 H   0  0  0  0  0  0  0  0  0  0  0  0
   -1.7522   -1.2265   -3.1926 H   0  0  0  0  0  0  0  0  0  0  0  0
   -2.9505   -0.2213   -0.3431 C   0  0  2  0  0  0  0  0  0  0  0  0
   -3.7520    0.9435   -0.9684 C   0  0  0  0  0  0  0  0  0  0  0  0
   -3.8545    0.7881   -2.0631 H   0  0  0  0  0  0  0  0  0  0  0  0
   -3.2218    1.9071   -0.8291 H   0  0  0  0  0  0  0  0  0  0  0  0
   -5.1552    1.0062   -0.3248 C   0  0  1  0  0  0  0  0  0  0  0  0
   -5.7136    1.8530   -0.7777 H   0  0  0  0  0  0  0  0  0  0  0  0
   -5.9014   -0.3144   -0.5888 C   0  0  0  0  0  0  0  0  0  0  0  0
   -6.9220   -0.2699   -0.1511 H   0  0  0  0  0  0  0  0  0  0  0  0
   -6.0250   -0.4713   -1.6820 H   0  0  0  0  0  0  0  0  0  0  0  0
   -5.1065   -1.4797    0.0275 C   0  0  2  0  0  0  0  0  0  0  0  0
   -5.6273   -2.4396   -0.1725 H   0  0  0  0  0  0  0  0  0  0  0  0
   -4.9735   -1.2686    1.5471 C   0  0  0  0  0  0  0  0  0  0  0  0
   -5.9781   -1.2479    2.0214 H   0  0  0  0  0  0  0  0  0  0  0  0
   -4.4153   -2.1147    2.0008 H   0  0  0  0  0  0  0  0  0  0  0  0
   -4.2351    0.0559    1.8161 C   0  0  1  0  0  0  0  0  0  0  0  0
   -4.1295    0.2129    2.9106 H   0  0  0  0  0  0  0  0  0  0  0  0
   -2.8301   -0.0061    1.1865 C   0  0  0  0  0  0  0  0  0  0  0  0
   -2.2392   -0.8366    1.6308 H   0  0  0  0  0  0  0  0  0  0  0  0
   -2.2842    0.9381    1.4029 H   0  0  0  0  0  0  0  0  0  0  0  0
   -3.7020   -1.5482   -0.6060 C   0  0  0  0  0  0  0  0  0  0  0  0
   -3.1250   -2.4032   -0.2012 H   0  0  0  0  0  0  0  0  0  0  0  0
   -3.7871   -1.7281   -1.6982 H   0  0  0  0  0  0  0  0  0  0  0  0
   -5.0184    1.2274    1.1936 C   0  0  0  0  0  0  0  0  0  0  0  0
   -6.0244    1.3044    1.6587 H   0  0  0  0  0  0  0  0  0  0  0  0
   -4.4947    2.1874    1.3946 H   0  0  0  0  0  0  0  0  0  0  0  0
    1.2807   -0.2842    2.8567 C   0  0  0  0  0  0  0  0  0  0  0  0
    0.2433   -0.2573    3.2408 H   0  0  0  0  0  0  0  0  0  0  0  0
    1.8359    0.6073    3.2039 H   0  0  0  0  0  0  0  0  0  0  0  0
    1.7517   -1.2273    3.1924 H   0  0  0  0  0  0  0  0  0  0  0  0
    2.9504   -0.2218    0.3431 C   0  0  1  0  0  0  0  0  0  0  0  0
    3.7018   -1.5487    0.6063 C   0  0  0  0  0  0  0  0  0  0  0  0
    3.7869   -1.7285    1.6985 H   0  0  0  0  0  0  0  0  0  0  0  0
    3.1248   -2.4037    0.2014 H   0  0  0  0  0  0  0  0  0  0  0  0
    5.1064   -1.4803   -0.0272 C   0  0  2  0  0  0  0  0  0  0  0  0
    5.6272   -2.4401    0.1729 H   0  0  0  0  0  0  0  0  0  0  0  0
    5.9013   -0.3150    0.5890 C   0  0  0  0  0  0  0  0  0  0  0  0
    6.0248   -0.4718    1.6823 H   0  0  0  0  0  0  0  0  0  0  0  0
    6.9219   -0.2705    0.1514 H   0  0  0  0  0  0  0  0  0  0  0  0
    5.1552    1.0056    0.3248 C   0  0  1  0  0  0  0  0  0  0  0  0
    5.7136    1.8525    0.7777 H   0  0  0  0  0  0  0  0  0  0  0  0
    5.0185    1.2267   -1.1936 C   0  0  0  0  0  0  0  0  0  0  0  0
    6.0245    1.3036   -1.6587 H   0  0  0  0  0  0  0  0  0  0  0  0
    4.4948    2.1867   -1.3947 H   0  0  0  0  0  0  0  0  0  0  0  0
    4.2352    0.0552   -1.8160 C   0  0  2  0  0  0  0  0  0  0  0  0
    4.1296    0.2121   -2.9105 H   0  0  0  0  0  0  0  0  0  0  0  0
    2.8302   -0.0067   -1.1865 C   0  0  0  0  0  0  0  0  0  0  0  0
    2.2392   -0.8373   -1.6307 H   0  0  0  0  0  0  0  0  0  0  0  0
    2.2843    0.9375   -1.4030 H   0  0  0  0  0  0  0  0  0  0  0  0
    4.9734   -1.2693   -1.5468 C   0  0  0  0  0  0  0  0  0  0  0  0
    5.9781   -1.2487   -2.0211 H   0  0  0  0  0  0  0  0  0  0  0  0
    4.4153   -2.1154   -2.0005 H   0  0  0  0  0  0  0  0  0  0  0  0
    3.7520    0.9431    0.9683 C   0  0  0  0  0  0  0  0  0  0  0  0
    3.8543    0.7878    2.0631 H   0  0  0  0  0  0  0  0  0  0  0  0
    3.2218    1.9067    0.8290 H   0  0  0  0  0  0  0  0  0  0  0  0
   -0.4758    1.3062   -0.5410 C   0  0  0  0  0  0  0  0  0  0  0  0
    0.4760    1.3061    0.5410 C   0  0  0  0  0  0  0  0  0  0  0  0
    0.4308    3.6038    0.5802 C   0  0  0  0  0  0  0  0  0  0  0  0
    0.8323    4.8434    1.1526 C   0  0  0  0  0  0  0  0  0  0  0  0
    1.4808    4.8142    2.0403 H   0  0  0  0  0  0  0  0  0  0  0  0
    0.4149    6.0355    0.5791 C   0  0  0  0  0  0  0  0  0  0  0  0
    0.7287    6.9945    1.0181 H   0  0  0  0  0  0  0  0  0  0  0  0
   -0.4134    6.0356   -0.5791 C   0  0  0  0  0  0  0  0  0  0  0  0
   -0.7268    6.9947   -1.0181 H   0  0  0  0  0  0  0  0  0  0  0  0
   -0.8311    4.8436   -1.1526 C   0  0  0  0  0  0  0  0  0  0  0  0
   -1.4796    4.8146   -2.0403 H   0  0  0  0  0  0  0  0  0  0  0  0
   -0.4299    3.6039   -0.5801 C   0  0  0  0  0  0  0  0  0  0  0  0
  1  5  1  6  0  0  0
  1 63  1  0  0  0  0
  2 34  1  1  0  0  0
  3 74  2  0  0  0  0
  3 63  1  0  0  0  0
  6  5  1  0  0  0  0
  7  5  1  0  0  0  0
  8  5  1  0  0  0  0
  9  1  1  6  0  0  0
  9 25  1  0  0  0  0
 10 12  1  0  0  0  0
 10  9  1  0  0  0  0
 10 13  1  0  0  0  0
 11 10  1  0  0  0  0
 13 14  1  6  0  0  0
 13 31  1  0  0  0  0
 15 13  1  0  0  0  0
 15 16  1  0  0  0  0
 15 18  1  0  0  0  0
 17 15  1  0  0  0  0
 18 19  1  6  0  0  0
 18 20  1  0  0  0  0
 20 23  1  0  0  0  0
 20 22  1  0  0  0  0
 20 21  1  0  0  0  0
 23 24  1  1  0  0  0
 25 27  1  0  0  0  0
 25 26  1  0  0  0  0
 25 23  1  0  0  0  0
 28  9  1  0  0  0  0
 28 29  1  0  0  0  0
 28 18  1  0  0  0  0
 30 28  1  0  0  0  0
 31 33  1  0  0  0  0
 31 32  1  0  0  0  0
 31 23  1  0  0  0  0
 34 37  1  0  0  0  0
 34 36  1  0  0  0  0
 34 35  1  0  0  0  0
 38 39  1  0  0  0  0
 38 60  1  0  0  0  0
 38  2  1  1  0  0  0
 39 40  1  0  0  0  0
 41 39  1  0  0  0  0
 42 43  1  1  0  0  0
 42 44  1  0  0  0  0
 42 39  1  0  0  0  0
 44 45  1  0  0  0  0
 46 44  1  0  0  0  0
 47 44  1  0  0  0  0
 47 48  1  1  0  0  0
 47 60  1  0  0  0  0
 49 47  1  0  0  0  0
 50 49  1  0  0  0  0
 51 49  1  0  0  0  0
 52 53  1  6  0  0  0
 52 57  1  0  0  0  0
 52 49  1  0  0  0  0
 52 54  1  0  0  0  0
 54 38  1  0  0  0  0
 55 54  1  0  0  0  0
 56 54  1  0  0  0  0
 57 42  1  0  0  0  0
 58 57  1  0  0  0  0
 59 57  1  0  0  0  0
 60 61  1  0  0  0  0
 62 60  1  0  0  0  0
 63 64  2  0  0  0  0
 64  2  1  0  0  0  0
 64  4  1  0  0  0  0
 65  4  2  0  0  0  0
 65 66  1  0  0  0  0
 66 67  1  0  0  0  0
 68 69  1  0  0  0  0
 68 66  2  0  0  0  0
 70 68  1  0  0  0  0
 71 70  1  0  0  0  0
 72 74  1  0  0  0  0
 72 70  2  0  0  0  0
 73 72  1  0  0  0  0
 74 65  1  0  0  0  0
M  END
