1,2
q = 0.0, confidence = 0.986

 72 77  0  0  1  0  0  0  0  0999 V2000
    1.5833   -0.3976   -0.0822 P   0  0  0  0  0  0  0  0  0  0  0  0
   -1.6243   -0.3776    0.1106 P   0  0  0  0  0  0  0  0  0  0  0  0
    2.6855    0.0400   -1.4942 C   0  0  0  0  0  0  0  0  0  0  0  0
    3.8379    0.8366   -1.3157 C   0  0  0  0  0  0  0  0  0  0  0  0
    4.6100    1.2171   -2.4207 C   0  0  0  0  0  0  0  0  0  0  0  0
    4.2394    0.8149   -3.7148 C   0  0  0  0  0  0  0  0  0  0  0  0
    3.0972    0.0216   -3.8990 C   0  0  0  0  0  0  0  0  0  0  0  0
    2.3265   -0.3693   -2.7923 C   0  0  0  0  0  0  0  0  0  0  0  0
    2.7578   -0.5588    1.3294 C   0  0  0  0  0  0  0  0  0  0  0  0
    3.9535   -1.2819    1.1274 C   0  0  0  0  0  0  0  0  0  0  0  0
    4.8029   -1.5676    2.2053 C   0  0  0  0  0  0  0  0  0  0  0  0
    4.4701   -1.1434    3.5016 C   0  0  0  0  0  0  0  0  0  0  0  0
    3.2747   -0.4412    3.7142 C   0  0  0  0  0  0  0  0  0  0  0  0
    2.4218   -0.1554    2.6376 C   0  0  0  0  0  0  0  0  0  0  0  0
    0.6505    1.2404    0.2638 C   0  0  1  0  0  0  0  0  0  0  0  0
    1.4865    2.4646   -0.0191 C   0  0  0  0  0  0  0  0  0  0  0  0
    2.2913    3.0222    0.9958 C   0  0  0  0  0  0  0  0  0  0  0  0
    3.1251    4.1192    0.7332 C   0  0  0  0  0  0  0  0  0  0  0  0
    3.1620    4.6853   -0.5504 C   0  0  0  0  0  0  0  0  0  0  0  0
    2.3548    4.1476   -1.5654 C   0  0  0  0  0  0  0  0  0  0  0  0
    1.5270    3.0489   -1.3021 C   0  0  0  0  0  0  0  0  0  0  0  0
   -3.1134   -0.5066   -0.9607 C   0  0  0  0  0  0  0  0  0  0  0  0
   -4.2881   -1.0914   -0.4400 C   0  0  0  0  0  0  0  0  0  0  0  0
   -5.3875   -1.3401   -1.2737 C   0  0  0  0  0  0  0  0  0  0  0  0
   -5.3288   -1.0174   -2.6384 C   0  0  0  0  0  0  0  0  0  0  0  0
   -4.1567   -0.4572   -3.1684 C   0  0  0  0  0  0  0  0  0  0  0  0
   -3.0544   -0.2100   -2.3378 C   0  0  0  0  0  0  0  0  0  0  0  0
   -2.3016    0.1495    1.7423 C   0  0  0  0  0  0  0  0  0  0  0  0
   -1.6219   -0.2327    2.9153 C   0  0  0  0  0  0  0  0  0  0  0  0
   -2.0479    0.2327    4.1694 C   0  0  0  0  0  0  0  0  0  0  0  0
   -3.1680    1.0732    4.2625 C   0  0  0  0  0  0  0  0  0  0  0  0
   -3.8572    1.4504    3.0984 C   0  0  0  0  0  0  0  0  0  0  0  0
   -3.4247    0.9999    1.8433 C   0  0  0  0  0  0  0  0  0  0  0  0
   -0.7149    1.2137   -0.4578 C   0  0  2  0  0  0  0  0  0  0  0  0
   -1.5196    2.4799   -0.2824 C   0  0  0  0  0  0  0  0  0  0  0  0
   -2.3305    2.9625   -1.3309 C   0  0  0  0  0  0  0  0  0  0  0  0
   -3.1144    4.1141   -1.1691 C   0  0  0  0  0  0  0  0  0  0  0  0
   -3.0943    4.8160    0.0459 C   0  0  0  0  0  0  0  0  0  0  0  0
   -2.2795    4.3573    1.0924 C   0  0  0  0  0  0  0  0  0  0  0  0
   -1.5027    3.2027    0.9302 C   0  0  0  0  0  0  0  0  0  0  0  0
    4.1255    1.1712   -0.3088 H   0  0  0  0  0  0  0  0  0  0  0  0
    5.5033    1.8417   -2.2693 H   0  0  0  0  0  0  0  0  0  0  0  0
    4.8472    1.1171   -4.5814 H   0  0  0  0  0  0  0  0  0  0  0  0
    2.8057   -0.3068   -4.9080 H   0  0  0  0  0  0  0  0  0  0  0  0
    1.4426   -1.0050   -2.9345 H   0  0  0  0  0  0  0  0  0  0  0  0
    4.2174   -1.6320    0.1181 H   0  0  0  0  0  0  0  0  0  0  0  0
    5.7306   -2.1329    2.0293 H   0  0  0  0  0  0  0  0  0  0  0  0
    5.1368   -1.3701    4.3471 H   0  0  0  0  0  0  0  0  0  0  0  0
    2.9955   -0.1176    4.7283 H   0  0  0  0  0  0  0  0  0  0  0  0
    1.4752    0.3686    2.8372 H   0  0  0  0  0  0  0  0  0  0  0  0
    0.4599    1.1870    1.3561 H   0  0  0  0  0  0  0  0  0  0  0  0
    2.2712    2.5832    2.0046 H   0  0  0  0  0  0  0  0  0  0  0  0
    3.7461    4.5369    1.5403 H   0  0  0  0  0  0  0  0  0  0  0  0
    3.8131    5.5480   -0.7578 H   0  0  0  0  0  0  0  0  0  0  0  0
    2.3726    4.5843   -2.5752 H   0  0  0  0  0  0  0  0  0  0  0  0
    0.9128    2.6332   -2.1138 H   0  0  0  0  0  0  0  0  0  0  0  0
   -4.3411   -1.3618    0.6250 H   0  0  0  0  0  0  0  0  0  0  0  0
   -6.2953   -1.7972   -0.8517 H   0  0  0  0  0  0  0  0  0  0  0  0
   -6.1921   -1.2145   -3.2917 H   0  0  0  0  0  0  0  0  0  0  0  0
   -4.0922   -0.2188   -4.2407 H   0  0  0  0  0  0  0  0  0  0  0  0
   -2.1332    0.1928   -2.7820 H   0  0  0  0  0  0  0  0  0  0  0  0
   -0.7624   -0.9130    2.8436 H   0  0  0  0  0  0  0  0  0  0  0  0
   -1.5085   -0.0774    5.0771 H   0  0  0  0  0  0  0  0  0  0  0  0
   -3.5093    1.4315    5.2458 H   0  0  0  0  0  0  0  0  0  0  0  0
   -4.7339    2.1124    3.1642 H   0  0  0  0  0  0  0  0  0  0  0  0
   -3.9580    1.3172    0.9357 H   0  0  0  0  0  0  0  0  0  0  0  0
   -0.5507    1.0291   -1.5410 H   0  0  0  0  0  0  0  0  0  0  0  0
   -2.3476    2.4289   -2.2918 H   0  0  0  0  0  0  0  0  0  0  0  0
   -3.7391    4.4681   -2.0032 H   0  0  0  0  0  0  0  0  0  0  0  0
   -3.7044    5.7230    0.1733 H   0  0  0  0  0  0  0  0  0  0  0  0
   -2.2477    4.9017    2.0483 H   0  0  0  0  0  0  0  0  0  0  0  0
   -0.8774    2.8593    1.7662 H   0  0  0  0  0  0  0  0  0  0  0  0
  1 15  1  0  0  0  0
  1  9  1  0  0  0  0
  2 28  1  0  0  0  0
  3  4  1  0  0  0  0
  3  1  1  0  0  0  0
  4 41  1  0  0  0  0
  5 42  1  0  0  0  0
  5  4  2  0  0  0  0
  6  5  1  0  0  0  0
  7  6  2  0  0  0  0
  7  8  1  0  0  0  0
  8  3  2  0  0  0  0
  9 14  1  0  0  0  0
 10  9  2  0  0  0  0
 10 11  1  0  0  0  0
 11 12  2  0  0  0  0
 12 13  1  0  0  0  0
 12 48  1  0  0  0  0
 13 49  1  0  0  0  0
 14 50  1  0  0  0  0
 14 13  2  0  0  0  0
 15 51  1  1  0  0  0
 16 15  1  0  0  0  0
 16 17  1  0  0  0  0
 17 52  1  0  0  0  0
 18 17  2  0  0  0  0
 18 53  1  0  0  0  0
 19 18  1  0  0  0  0
 20 21  1  0  0  0  0
 20 19  2  0  0  0  0
 21 16  2  0  0  0  0
 22 23  1  0  0  0  0
 22  2  1  0  0  0  0
 23 57  1  0  0  0  0
 24 58  1  0  0  0  0
 24 23  2  0  0  0  0
 25 24  1  0  0  0  0
 26 25  2  0  0  0  0
 26 27  1  0  0  0  0
 27 22  2  0  0  0  0
 28 33  2  0  0  0  0
 28 29  1  0  0  0  0
 29 30  2  0  0  0  0
 30 31  1  0  0  0  0
 30 63  1  0  0  0  0
 31 64  1  0  0  0  0
 32 65  1  0  0  0  0
 32 31  2  0  0  0  0
 33 32  1  0  0  0  0
 34 67  1  6  0  0  0
 34 35  1  0  0  0  0
 34  2  1  0  0  0  0
 34 15  1  0  0  0  0
 35 40  1  0  0  0  0
 36 37  1  0  0  0  0
 36 35  2  0  0  0  0
 37 38  2  0  0  0  0
 38 70  1  0  0  0  0
 38 39  1  0  0  0  0
 39 71  1  0  0  0  0
 40 39  2  0  0  0  0
 40 72  1  0  0  0  0
 43  6  1  0  0  0  0
 44  7  1  0  0  0  0
 45  8  1  0  0  0  0
 46 10  1  0  0  0  0
 47 11  1  0  0  0  0
 54 19  1  0  0  0  0
 55 20  1  0  0  0  0
 56 21  1  0  0  0  0
 59 25  1  0  0  0  0
 60 26  1  0  0  0  0
 61 27  1  0  0  0  0
 62 29  1  0  0  0  0
 66 33  1  0  0  0  0
 68 36  1  0  0  0  0
 69 37  1  0  0  0  0
M  END
