1,2
q = 0.0, confidence = 0.998

 60 64  0  0  0  0  0  0  0  0999 V2000
   -0.3728    1.4583   -0.2805 P   0  0  1  0  0  0  0  0  0  0  0  0
   -0.0241   -1.3437   -0.3586 P   0  0  2  0  0  0  0  0  0  0  0  0
   -2.1305   -0.2103    1.0918 N   0  0  0  0  0  0  0  0  0  0  0  0
   -1.2498   -0.0095   -2.4661 N   0  0  0  0  0  0  0  0  0  0  0  0
   -0.1875    3.2698   -0.0550 C   0  0  0  0  0  0  0  0  0  0  0  0
    1.0140    3.7473    0.5028 C   0  0  0  0  0  0  0  0  0  0  0  0
    1.7928    3.0214    0.7900 H   0  0  0  0  0  0  0  0  0  0  0  0
    1.1989    5.1255    0.6877 C   0  0  0  0  0  0  0  0  0  0  0  0
    2.1392    5.4957    1.1233 H   0  0  0  0  0  0  0  0  0  0  0  0
    0.1877    6.0278    0.3212 C   0  0  0  0  0  0  0  0  0  0  0  0
    0.3343    7.1087    0.4682 H   0  0  0  0  0  0  0  0  0  0  0  0
   -1.0139    5.5538   -0.2325 C   0  0  0  0  0  0  0  0  0  0  0  0
   -1.8076    6.2610   -0.5179 H   0  0  0  0  0  0  0  0  0  0  0  0
   -1.2029    4.1776   -0.4240 C   0  0  0  0  0  0  0  0  0  0  0  0
   -2.1487    3.8142   -0.8582 H   0  0  0  0  0  0  0  0  0  0  0  0
    0.5509   -3.0840   -0.2399 C   0  0  0  0  0  0  0  0  0  0  0  0
   -0.2474   -4.1550   -0.6971 C   0  0  0  0  0  0  0  0  0  0  0  0
   -1.2445   -3.9673   -1.1283 H   0  0  0  0  0  0  0  0  0  0  0  0
    0.2241   -5.4717   -0.5974 C   0  0  0  0  0  0  0  0  0  0  0  0
   -0.4015   -6.3056   -0.9504 H   0  0  0  0  0  0  0  0  0  0  0  0
    1.4933   -5.7240   -0.0489 C   0  0  0  0  0  0  0  0  0  0  0  0
    1.8624   -6.7582    0.0254 H   0  0  0  0  0  0  0  0  0  0  0  0
    2.2876   -4.6594    0.4051 C   0  0  0  0  0  0  0  0  0  0  0  0
    3.2805   -4.8549    0.8375 H   0  0  0  0  0  0  0  0  0  0  0  0
    1.8195   -3.3399    0.3135 C   0  0  0  0  0  0  0  0  0  0  0  0
    2.4220   -2.4916    0.6793 H   0  0  0  0  0  0  0  0  0  0  0  0
   -2.0919    1.0729    0.4292 C   0  0  0  0  0  0  0  0  0  0  0  0
   -2.2655    1.8660    1.1805 H   0  0  0  0  0  0  0  0  0  0  0  0
   -2.8579    1.1815   -0.3744 H   0  0  0  0  0  0  0  0  0  0  0  0
   -2.8762   -0.3648    2.2796 C   0  0  0  0  0  0  0  0  0  0  0  0
   -2.6144   -1.4440    3.1594 C   0  0  0  0  0  0  0  0  0  0  0  0
   -1.8033   -2.1513    2.9357 H   0  0  0  0  0  0  0  0  0  0  0  0
   -3.3414   -1.5923    4.3445 C   0  0  0  0  0  0  0  0  0  0  0  0
   -3.1058   -2.4341    5.0135 H   0  0  0  0  0  0  0  0  0  0  0  0
   -4.3391   -0.6687    4.6991 C   0  0  0  0  0  0  0  0  0  0  0  0
   -4.9023   -0.7859    5.6364 H   0  0  0  0  0  0  0  0  0  0  0  0
   -4.6003    0.4061    3.8385 C   0  0  0  0  0  0  0  0  0  0  0  0
   -5.3842    1.1373    4.0895 H   0  0  0  0  0  0  0  0  0  0  0  0
   -3.8888    0.5557    2.6390 C   0  0  0  0  0  0  0  0  0  0  0  0
   -4.1462    1.3849    1.9657 H   0  0  0  0  0  0  0  0  0  0  0  0
   -1.8024   -1.3760    0.2982 C   0  0  0  0  0  0  0  0  0  0  0  0
   -2.4992   -1.4916   -0.5641 H   0  0  0  0  0  0  0  0  0  0  0  0
   -1.8963   -2.2834    0.9195 H   0  0  0  0  0  0  0  0  0  0  0  0
   -0.6767    1.2826   -2.1411 C   0  0  0  0  0  0  0  0  0  0  0  0
   -1.3069    2.1112   -2.5037 H   0  0  0  0  0  0  0  0  0  0  0  0
    0.3188    1.3928   -2.6219 H   0  0  0  0  0  0  0  0  0  0  0  0
   -2.5908   -0.1656   -2.8381 C   0  0  0  0  0  0  0  0  0  0  0  0
   -3.1477   -1.4477   -3.1059 C   0  0  0  0  0  0  0  0  0  0  0  0
   -2.5333   -2.3538   -3.0315 H   0  0  0  0  0  0  0  0  0  0  0  0
   -4.4888   -1.5958   -3.4804 C   0  0  0  0  0  0  0  0  0  0  0  0
   -4.8716   -2.6091   -3.6769 H   0  0  0  0  0  0  0  0  0  0  0  0
   -5.3375   -0.4867   -3.6066 C   0  0  0  0  0  0  0  0  0  0  0  0
   -6.3906   -0.6101   -3.8962 H   0  0  0  0  0  0  0  0  0  0  0  0
   -4.8028    0.7845   -3.3521 C   0  0  0  0  0  0  0  0  0  0  0  0
   -5.4379    1.6790   -3.4446 H   0  0  0  0  0  0  0  0  0  0  0  0
   -3.4642    0.9494   -2.9758 C   0  0  0  0  0  0  0  0  0  0  0  0
   -3.1060    1.9702   -2.7923 H   0  0  0  0  0  0  0  0  0  0  0  0
   -0.3686   -1.1335   -2.2154 C   0  0  0  0  0  0  0  0  0  0  0  0
    0.6212   -0.9629   -2.6879 H   0  0  0  0  0  0  0  0  0  0  0  0
   -0.7791   -2.0704   -2.6259 H   0  0  0  0  0  0  0  0  0  0  0  0
  1  5  1  6  0  0  0
  1 27  1  0  0  0  0
  2 16  1  6  0  0  0
  2 41  1  0  0  0  0
  3 30  1  0  0  0  0
  4 58  1  0  0  0  0
  4 44  1  0  0  0  0
  5  6  1  0  0  0  0
  6  8  2  0  0  0  0
  6  7  1  0  0  0  0
  8  9  1  0  0  0  0
 10 11  1  0  0  0  0
 10  8  1  0  0  0  0
 12 10  2  0  0  0  0
 13 12  1  0  0  0  0
 14 12  1  0  0  0  0
 14  5  2  0  0  0  0
 15 14  1  0  0  0  0
 16 25  1  0  0  0  0
 17 19  1  0  0  0  0
 17 16  2  0  0  0  0
 18 17  1  0  0  0  0
 19 21  2  0  0  0  0
 20 19  1  0  0  0  0
 21 22  1  0  0  0  0
 21 23  1  0  0  0  0
 23 24  1  0  0  0  0
 25 23  2  0  0  0  0
 25 26  1  0  0  0  0
 27  3  1  0  0  0  0
 27 28  1  0  0  0  0
 29 27  1  0  0  0  0
 30 39  2  0  0  0  0
 30 31  1  0  0  0  0
 31 33  2  0  0  0  0
 32 31  1  0  0  0  0
 33 35  1  0  0  0  0
 33 34  1  0  0  0  0
 35 36  1  0  0  0  0
 37 38  1  0  0  0  0
 37 35  2  0  0  0  0
 39 37  1  0  0  0  0
 40 39  1  0  0  0  0
 41 43  1  0  0  0  0
 41  3  1  0  0  0  0
 42 41  1  0  0  0  0
 44  1  1  0  0  0  0
 45 44  1  0  0  0  0
 46 44  1  0  0  0  0
 47  4  1  0  0  0  0
 48 49  1  0  0  0  0
 48 47  2  0  0  0  0
 50 48  1  0  0  0  0
 51 50  1  0  0  0  0
 52 50  2  0  0  0  0
 52 54  1  0  0  0  0
 53 52  1  0  0  0  0
 54 56  2  0  0  0  0
 55 54  1  0  0  0  0
 56 47  1  0  0  0  0
 56 57  1  0  0  0  0
 58  2  1  0  0  0  0
 59 58  1  0  0  0  0
 60 58  1  0  0  0  0
M  END
