1,34
q = 0.0, confidence = 0.996

 64 67  0  0  0  0  0  0  0  0999 V2000
   -1.8036    2.1906    0.1670 P   0  0  0  0  0  0  0  0  0  0  0  0
    1.4522    1.4305    0.6124 C   0  0  0  0  0  0  0  0  0  0  0  0
    0.8654    2.6867    0.8196 C   0  0  0  0  0  0  0  0  0  0  0  0
    1.6080    3.8572    0.5164 C   0  0  0  0  0  0  0  0  0  0  0  0
    2.9326    3.7597    0.1222 C   0  0  0  0  0  0  0  0  0  0  0  0
    4.9827    2.4312   -0.2089 C   0  0  0  0  0  0  0  0  0  0  0  0
    5.6329    1.2260   -0.1310 C   0  0  0  0  0  0  0  0  0  0  0  0
    2.7986    1.2856    0.1653 C   0  0  0  0  0  0  0  0  0  0  0  0
    3.5680    2.4970   -0.0072 C   0  0  0  0  0  0  0  0  0  0  0  0
    3.4710   -0.0000   -0.0000 C   0  0  0  0  0  0  0  0  0  0  0  0
    4.9022   -0.0000   -0.0000 C   0  0  0  0  0  0  0  0  0  0  0  0
   -0.5328    2.8170    1.3661 C   0  0  0  0  0  0  0  0  0  0  0  0
   -3.4200    2.7341    0.8821 C   0  0  0  0  0  0  0  0  0  0  0  0
   -4.5997    2.3936   -0.0308 C   0  0  0  0  0  0  0  0  0  0  0  0
   -1.5486    3.2106   -1.3519 C   0  0  0  0  0  0  0  0  0  0  0  0
   -1.7397    4.7177   -1.1922 C   0  0  0  0  0  0  0  0  0  0  0  0
    0.8659    0.5402    0.8823 H   0  0  0  0  0  0  0  0  0  0  0  0
    1.1426    4.8459    0.6528 H   0  0  0  0  0  0  0  0  0  0  0  0
    3.5314    4.6684   -0.0461 H   0  0  0  0  0  0  0  0  0  0  0  0
    5.5410    3.3693   -0.3513 H   0  0  0  0  0  0  0  0  0  0  0  0
    6.7311    1.1729   -0.1876 H   0  0  0  0  0  0  0  0  0  0  0  0
   -0.6824    2.1868    2.2672 H   0  0  0  0  0  0  0  0  0  0  0  0
   -0.7616    3.8698    1.6284 H   0  0  0  0  0  0  0  0  0  0  0  0
   -3.3760    3.8199    1.1128 H   0  0  0  0  0  0  0  0  0  0  0  0
   -3.4877    2.1846    1.8439 H   0  0  0  0  0  0  0  0  0  0  0  0
   -5.5637    2.6320    0.4618 H   0  0  0  0  0  0  0  0  0  0  0  0
   -4.5617    2.9564   -0.9856 H   0  0  0  0  0  0  0  0  0  0  0  0
   -4.6003    1.3145   -0.2870 H   0  0  0  0  0  0  0  0  0  0  0  0
   -2.2227    2.7790   -2.1188 H   0  0  0  0  0  0  0  0  0  0  0  0
   -0.5235    2.9585   -1.6960 H   0  0  0  0  0  0  0  0  0  0  0  0
   -1.5311    5.2363   -2.1501 H   0  0  0  0  0  0  0  0  0  0  0  0
   -2.7771    4.9772   -0.8986 H   0  0  0  0  0  0  0  0  0  0  0  0
   -1.0574    5.1501   -0.4329 H   0  0  0  0  0  0  0  0  0  0  0  0
   -1.8036   -2.1906   -0.1670 P   0  0  0  0  0  0  0  0  0  0  0  0
    2.7985   -1.2856   -0.1653 C   0  0  0  0  0  0  0  0  0  0  0  0
    5.6329   -1.2260    0.1310 C   0  0  0  0  0  0  0  0  0  0  0  0
   -0.5328   -2.8170   -1.3661 C   0  0  0  0  0  0  0  0  0  0  0  0
   -3.4200   -2.7341   -0.8821 C   0  0  0  0  0  0  0  0  0  0  0  0
   -1.5486   -3.2106    1.3519 C   0  0  0  0  0  0  0  0  0  0  0  0
    1.4522   -1.4305   -0.6124 C   0  0  0  0  0  0  0  0  0  0  0  0
    3.5680   -2.4970    0.0072 C   0  0  0  0  0  0  0  0  0  0  0  0
    4.9827   -2.4312    0.2089 C   0  0  0  0  0  0  0  0  0  0  0  0
    6.7311   -1.1729    0.1876 H   0  0  0  0  0  0  0  0  0  0  0  0
    0.8654   -2.6867   -0.8196 C   0  0  0  0  0  0  0  0  0  0  0  0
   -0.6824   -2.1868   -2.2672 H   0  0  0  0  0  0  0  0  0  0  0  0
   -0.7616   -3.8698   -1.6285 H   0  0  0  0  0  0  0  0  0  0  0  0
   -4.5997   -2.3936    0.0308 C   0  0  0  0  0  0  0  0  0  0  0  0
   -3.3760   -3.8199   -1.1128 H   0  0  0  0  0  0  0  0  0  0  0  0
   -3.4877   -2.1846   -1.8439 H   0  0  0  0  0  0  0  0  0  0  0  0
   -1.7397   -4.7177    1.1922 C   0  0  0  0  0  0  0  0  0  0  0  0
   -2.2227   -2.7790    2.1188 H   0  0  0  0  0  0  0  0  0  0  0  0
   -0.5235   -2.9585    1.6960 H   0  0  0  0  0  0  0  0  0  0  0  0
    0.8659   -0.5402   -0.8823 H   0  0  0  0  0  0  0  0  0  0  0  0
    2.9326   -3.7597   -0.1222 C   0  0  0  0  0  0  0  0  0  0  0  0
    5.5410   -3.3693    0.3513 H   0  0  0  0  0  0  0  0  0  0  0  0
    1.6080   -3.8572   -0.5164 C   0  0  0  0  0  0  0  0  0  0  0  0
   -5.5637   -2.6320   -0.4618 H   0  0  0  0  0  0  0  0  0  0  0  0
   -4.5617   -2.9564    0.9856 H   0  0  0  0  0  0  0  0  0  0  0  0
   -4.6003   -1.3145    0.2870 H   0  0  0  0  0  0  0  0  0  0  0  0
   -1.5312   -5.2364    2.1500 H   0  0  0  0  0  0  0  0  0  0  0  0
   -2.7771   -4.9772    0.8986 H   0  0  0  0  0  0  0  0  0  0  0  0
   -1.0574   -5.1501    0.4329 H   0  0  0  0  0  0  0  0  0  0  0  0
    3.5314   -4.6684    0.0461 H   0  0  0  0  0  0  0  0  0  0  0  0
    1.1425   -4.8459   -0.6528 H   0  0  0  0  0  0  0  0  0  0  0  0
  1 13  1  0  0  0  0
  1 12  1  0  0  0  0
  2  3  1  0  0  0  0
  2 17  1  0  0  0  0
  3 12  1  0  0  0  0
  4 18  1  0  0  0  0
  4  3  2  0  0  0  0
  5  4  1  0  0  0  0
  6  7  2  0  0  0  0
  6  9  1  0  0  0  0
  7 11  1  0  0  0  0
  8  2  2  0  0  0  0
  9  5  2  0  0  0  0
  9  8  1  0  0  0  0
 10  8  1  0  0  0  0
 11 10  1  0  0  0  0
 11 36  2  0  0  0  0
 12 23  1  0  0  0  0
 12 22  1  0  0  0  0
 13 24  1  0  0  0  0
 13 25  1  0  0  0  0
 14 26  1  0  0  0  0
 14 13  1  0  0  0  0
 15 16  1  0  0  0  0
 15  1  1  0  0  0  0
 16 32  1  0  0  0  0
 16 33  1  0  0  0  0
 19  5  1  0  0  0  0
 20  6  1  0  0  0  0
 21  7  1  0  0  0  0
 27 14  1  0  0  0  0
 28 14  1  0  0  0  0
 29 15  1  0  0  0  0
 30 15  1  0  0  0  0
 31 16  1  0  0  0  0
 34 39  1  0  0  0  0
 35 10  2  0  0  0  0
 35 41  1  0  0  0  0
 36 43  1  0  0  0  0
 36 42  1  0  0  0  0
 37 44  1  0  0  0  0
 37 34  1  0  0  0  0
 38 34  1  0  0  0  0
 38 47  1  0  0  0  0
 39 52  1  0  0  0  0
 39 51  1  0  0  0  0
 40 35  1  0  0  0  0
 41 42  2  0  0  0  0
 42 55  1  0  0  0  0
 44 40  2  0  0  0  0
 44 56  1  0  0  0  0
 45 37  1  0  0  0  0
 46 37  1  0  0  0  0
 47 59  1  0  0  0  0
 47 58  1  0  0  0  0
 48 38  1  0  0  0  0
 49 38  1  0  0  0  0
 50 39  1  0  0  0  0
 50 60  1  0  0  0  0
 53 40  1  0  0  0  0
 54 41  1  0  0  0  0
 54 63  1  0  0  0  0
 56 54  2  0  0  0  0
 57 47  1  0  0  0  0
 61 50  1  0  0  0  0
 62 50  1  0  0  0  0
 64 56  1  0  0  0  0
M  END
