1,2
q = 0.0, confidence = 0.994

 40 40  0  0  0  0  0  0  0  0999 V2000
   -1.6755    1.5170    0.0352 P   0  0  0  0  0  0  0  0  0  0  0  0
   -1.6754   -1.5170    0.0349 P   0  0  0  0  0  0  0  0  0  0  0  0
   -3.3196    0.7020    0.1611 C   0  0  0  0  0  0  0  0  0  0  0  0
   -4.5361    1.4082    0.2377 C   0  0  0  0  0  0  0  0  0  0  0  0
   -5.7449    0.7030    0.3175 C   0  0  0  0  0  0  0  0  0  0  0  0
   -5.7449   -0.7034    0.3172 C   0  0  0  0  0  0  0  0  0  0  0  0
   -4.5360   -1.4085    0.2372 C   0  0  0  0  0  0  0  0  0  0  0  0
   -3.3195   -0.7021    0.1608 C   0  0  0  0  0  0  0  0  0  0  0  0
   -1.9098    2.6602   -1.4101 C   0  0  0  0  0  0  0  0  0  0  0  0
   -2.3385    1.9527   -2.6944 C   0  0  0  0  0  0  0  0  0  0  0  0
   -1.7270    2.6675    1.4965 C   0  0  0  0  0  0  0  0  0  0  0  0
   -1.8057    1.9353    2.8338 C   0  0  0  0  0  0  0  0  0  0  0  0
   -1.7268   -2.6671    1.4965 C   0  0  0  0  0  0  0  0  0  0  0  0
   -1.8061   -1.9344    2.8336 C   0  0  0  0  0  0  0  0  0  0  0  0
   -1.9098   -2.6605   -1.4102 C   0  0  0  0  0  0  0  0  0  0  0  0
   -2.3376   -1.9530   -2.6947 C   0  0  0  0  0  0  0  0  0  0  0  0
   -4.5493    2.5091    0.2315 H   0  0  0  0  0  0  0  0  0  0  0  0
   -6.6962    1.2524    0.3772 H   0  0  0  0  0  0  0  0  0  0  0  0
   -6.6960   -1.2530    0.3767 H   0  0  0  0  0  0  0  0  0  0  0  0
   -4.5491   -2.5094    0.2306 H   0  0  0  0  0  0  0  0  0  0  0  0
   -0.9527    3.1969   -1.5590 H   0  0  0  0  0  0  0  0  0  0  0  0
   -2.6554    3.4185   -1.0860 H   0  0  0  0  0  0  0  0  0  0  0  0
   -2.4743    2.6946   -3.5059 H   0  0  0  0  0  0  0  0  0  0  0  0
   -3.2995    1.4167   -2.5636 H   0  0  0  0  0  0  0  0  0  0  0  0
   -1.5639    1.2264   -3.0087 H   0  0  0  0  0  0  0  0  0  0  0  0
   -2.6027    3.3352    1.3528 H   0  0  0  0  0  0  0  0  0  0  0  0
   -0.8324    3.3216    1.4364 H   0  0  0  0  0  0  0  0  0  0  0  0
   -1.7780    2.6513    3.6788 H   0  0  0  0  0  0  0  0  0  0  0  0
   -0.9647    1.2243    2.9555 H   0  0  0  0  0  0  0  0  0  0  0  0
   -2.7453    1.3537    2.9143 H   0  0  0  0  0  0  0  0  0  0  0  0
   -0.8318   -3.3208    1.4370 H   0  0  0  0  0  0  0  0  0  0  0  0
   -2.6021   -3.3353    1.3529 H   0  0  0  0  0  0  0  0  0  0  0  0
   -1.7778   -2.6500    3.6789 H   0  0  0  0  0  0  0  0  0  0  0  0
   -2.7462   -1.3535    2.9138 H   0  0  0  0  0  0  0  0  0  0  0  0
   -0.9657   -1.2227    2.9549 H   0  0  0  0  0  0  0  0  0  0  0  0
   -2.6560   -3.4181   -1.0860 H   0  0  0  0  0  0  0  0  0  0  0  0
   -0.9531   -3.1979   -1.5586 H   0  0  0  0  0  0  0  0  0  0  0  0
   -2.4735   -2.6950   -3.5062 H   0  0  0  0  0  0  0  0  0  0  0  0
   -1.5627   -1.2270   -3.0088 H   0  0  0  0  0  0  0  0  0  0  0  0
   -3.2986   -1.4166   -2.5643 H   0  0  0  0  0  0  0  0  0  0  0  0
  1  3  1  0  0  0  0
  1 11  1  0  0  0  0
  2  8  1  0  0  0  0
  2 13  1  0  0  0  0
  3  4  1  0  0  0  0
  4  5  2  0  0  0  0
  5 18  1  0  0  0  0
  6  5  1  0  0  0  0
  6 19  1  0  0  0  0
  7  6  2  0  0  0  0
  8  3  2  0  0  0  0
  8  7  1  0  0  0  0
  9 22  1  0  0  0  0
  9  1  1  0  0  0  0
 10 24  1  0  0  0  0
 10  9  1  0  0  0  0
 11 12  1  0  0  0  0
 12 30  1  0  0  0  0
 12 29  1  0  0  0  0
 12 28  1  0  0  0  0
 13 14  1  0  0  0  0
 14 34  1  0  0  0  0
 14 35  1  0  0  0  0
 14 33  1  0  0  0  0
 15 36  1  0  0  0  0
 15  2  1  0  0  0  0
 16 40  1  0  0  0  0
 16 15  1  0  0  0  0
 17  4  1  0  0  0  0
 20  7  1  0  0  0  0
 21  9  1  0  0  0  0
 23 10  1  0  0  0  0
 25 10  1  0  0  0  0
 26 11  1  0  0  0  0
 27 11  1  0  0  0  0
 31 13  1  0  0  0  0
 32 13  1  0  0  0  0
 37 15  1  0  0  0  0
 38 16  1  0  0  0  0
 39 16  1  0  0  0  0
M  END
