1,2
q = 0.0, confidence = 1.0

 51 54  0  0  1  0  0  0  0  0999 V2000
    1.1551    0.0046   -0.0967 P   0  0  0  0  0  0  0  0  0  0  0  0
   -1.4723   -0.0303   -0.4599 P   0  0  1  0  0  0  0  0  0  0  0  0
   -0.0012   -0.2356   -1.3803 N   0  0  0  0  0  0  0  0  0  0  0  0
    2.3703    1.2541   -0.6920 C   0  0  0  0  0  0  0  0  0  0  0  0
    2.4614    2.4959   -0.0339 C   0  0  0  0  0  0  0  0  0  0  0  0
    1.8309    2.6902    0.8448 H   0  0  0  0  0  0  0  0  0  0  0  0
    3.3614    3.4729   -0.4870 C   0  0  0  0  0  0  0  0  0  0  0  0
    3.4280    4.4373    0.0387 H   0  0  0  0  0  0  0  0  0  0  0  0
    4.1746    3.2182   -1.6015 C   0  0  0  0  0  0  0  0  0  0  0  0
    4.8788    3.9856   -1.9575 H   0  0  0  0  0  0  0  0  0  0  0  0
    4.0997    1.9765   -2.2552 C   0  0  0  0  0  0  0  0  0  0  0  0
    4.7466    1.7683   -3.1210 H   0  0  0  0  0  0  0  0  0  0  0  0
    3.2094    0.9948   -1.7989 C   0  0  0  0  0  0  0  0  0  0  0  0
    3.1823    0.0119   -2.2928 H   0  0  0  0  0  0  0  0  0  0  0  0
    2.1628   -1.5336   -0.1067 C   0  0  0  0  0  0  0  0  0  0  0  0
    1.5769   -2.7532   -0.4993 C   0  0  0  0  0  0  0  0  0  0  0  0
    0.5433   -2.7593   -0.8782 H   0  0  0  0  0  0  0  0  0  0  0  0
    2.3030   -3.9491   -0.4025 C   0  0  0  0  0  0  0  0  0  0  0  0
    1.8392   -4.8966   -0.7159 H   0  0  0  0  0  0  0  0  0  0  0  0
    3.6136   -3.9385    0.1008 C   0  0  0  0  0  0  0  0  0  0  0  0
    4.1809   -4.8780    0.1815 H   0  0  0  0  0  0  0  0  0  0  0  0
    4.1971   -2.7271    0.5065 C   0  0  0  0  0  0  0  0  0  0  0  0
    5.2219   -2.7151    0.9078 H   0  0  0  0  0  0  0  0  0  0  0  0
    3.4776   -1.5279    0.4026 C   0  0  0  0  0  0  0  0  0  0  0  0
    3.9398   -0.5806    0.7205 H   0  0  0  0  0  0  0  0  0  0  0  0
    0.3162   -0.4073   -2.7910 C   0  0  0  0  0  0  0  0  0  0  0  0
    0.6456    0.5425   -3.2668 H   0  0  0  0  0  0  0  0  0  0  0  0
   -0.5583   -0.7882   -3.3480 H   0  0  0  0  0  0  0  0  0  0  0  0
    1.1305   -1.1545   -2.9086 H   0  0  0  0  0  0  0  0  0  0  0  0
   -3.5560   -0.5491   -2.9697 C   0  0  0  0  0  0  0  0  0  0  0  0
   -4.6340   -0.4946   -2.7251 H   0  0  0  0  0  0  0  0  0  0  0  0
   -3.5207   -0.7747   -4.0565 H   0  0  0  0  0  0  0  0  0  0  0  0
   -2.9261   -1.7307   -2.2035 C   0  0  0  0  0  0  0  0  0  0  0  0
   -1.9934   -2.0572   -2.7097 H   0  0  0  0  0  0  0  0  0  0  0  0
   -3.6119   -2.6040   -2.2719 H   0  0  0  0  0  0  0  0  0  0  0  0
   -2.5954    1.2063   -1.2731 C   0  0  2  0  0  0  0  0  0  0  0  0
   -2.0571    2.1767   -1.2625 H   0  0  0  0  0  0  0  0  0  0  0  0
   -2.6010   -1.4863   -0.7162 C   0  0  2  0  0  0  0  0  0  0  0  0
   -2.0641   -2.3726   -0.3173 H   0  0  0  0  0  0  0  0  0  0  0  0
   -3.8196    1.3338   -0.3318 C   0  0  0  0  0  0  0  0  0  0  0  0
   -3.4568    1.7153    0.6449 H   0  0  0  0  0  0  0  0  0  0  0  0
   -4.4883    2.1242   -0.7366 H   0  0  0  0  0  0  0  0  0  0  0  0
   -3.8236   -1.2266    0.1985 C   0  0  0  0  0  0  0  0  0  0  0  0
   -4.4951   -2.1108    0.1400 H   0  0  0  0  0  0  0  0  0  0  0  0
   -3.4612   -1.1894    1.2462 H   0  0  0  0  0  0  0  0  0  0  0  0
   -4.6407    0.0482   -0.0994 C   0  0  0  0  0  0  0  0  0  0  0  0
   -5.3224    0.2264    0.7579 H   0  0  0  0  0  0  0  0  0  0  0  0
   -5.3064   -0.1303   -0.9666 H   0  0  0  0  0  0  0  0  0  0  0  0
   -2.9150    0.8346   -2.7358 C   0  0  0  0  0  0  0  0  0  0  0  0
   -3.5921    1.6130   -3.1517 H   0  0  0  0  0  0  0  0  0  0  0  0
   -1.9791    0.9211   -3.3254 H   0  0  0  0  0  0  0  0  0  0  0  0
  2  3  1  6  0  0  0
  3  1  1  0  0  0  0
  4  1  1  0  0  0  0
  4  5  1  0  0  0  0
  5  6  1  0  0  0  0
  7  5  2  0  0  0  0
  7  8  1  0  0  0  0
  9  7  1  0  0  0  0
 10  9  1  0  0  0  0
 11 13  1  0  0  0  0
 11  9  2  0  0  0  0
 12 11  1  0  0  0  0
 13  4  2  0  0  0  0
 14 13  1  0  0  0  0
 15  1  1  0  0  0  0
 15 24  1  0  0  0  0
 16 18  1  0  0  0  0
 16 15  2  0  0  0  0
 17 16  1  0  0  0  0
 18 20  2  0  0  0  0
 19 18  1  0  0  0  0
 20 21  1  0  0  0  0
 20 22  1  0  0  0  0
 22 23  1  0  0  0  0
 24 22  2  0  0  0  0
 24 25  1  0  0  0  0
 26  3  1  0  0  0  0
 27 26  1  0  0  0  0
 28 26  1  0  0  0  0
 29 26  1  0  0  0  0
 30 49  1  0  0  0  0
 30 31  1  0  0  0  0
 30 33  1  0  0  0  0
 32 30  1  0  0  0  0
 33 38  1  0  0  0  0
 34 33  1  0  0  0  0
 35 33  1  0  0  0  0
 36 37  1  6  0  0  0
 36  2  1  0  0  0  0
 36 40  1  0  0  0  0
 38  2  1  0  0  0  0
 38 39  1  1  0  0  0
 38 43  1  0  0  0  0
 40 46  1  0  0  0  0
 40 41  1  0  0  0  0
 42 40  1  0  0  0  0
 43 45  1  0  0  0  0
 44 43  1  0  0  0  0
 46 43  1  0  0  0  0
 46 47  1  0  0  0  0
 48 46  1  0  0  0  0
 49 36  1  0  0  0  0
 50 49  1  0  0  0  0
 51 49  1  0  0  0  0
M  END
