1,2
q = 0.0, confidence = 0.996

 50 53  0  0  0  0  0  0  0  0999 V2000
    1.3124   -0.8800   -0.1502 P   0  0  0  0  0  0  0  0  0  0  0  0
   -1.7446   -0.7881    0.1755 P   0  0  0  0  0  0  0  0  0  0  0  0
    2.2389   -1.0145    1.2212 O   0  0  0  0  0  0  0  0  0  0  0  0
    2.4207   -1.0025   -1.3718 O   0  0  0  0  0  0  0  0  0  0  0  0
   -2.6980   -1.1893   -1.1200 O   0  0  0  0  0  0  0  0  0  0  0  0
   -2.8005   -0.5138    1.4132 O   0  0  0  0  0  0  0  0  0  0  0  0
    3.3298   -1.9497    1.2362 C   0  0  0  0  0  0  0  0  0  0  0  0
    3.5187   -1.9223   -1.2475 C   0  0  0  0  0  0  0  0  0  0  0  0
    4.2984   -1.7373    0.0653 C   0  0  0  0  0  0  0  0  0  0  0  0
    5.4766   -2.7618    0.1253 C   0  0  0  0  0  0  0  0  0  0  0  0
    6.7615   -1.9253    0.2909 C   0  0  0  0  0  0  0  0  0  0  0  0
    6.4134   -0.5877   -0.3744 C   0  0  0  0  0  0  0  0  0  0  0  0
    4.9777   -0.3370    0.1044 C   0  0  0  0  0  0  0  0  0  0  0  0
   -3.9325   -1.8902   -0.9010 C   0  0  0  0  0  0  0  0  0  0  0  0
   -4.0673   -1.1872    1.4776 C   0  0  0  0  0  0  0  0  0  0  0  0
   -4.8111   -1.1759    0.1319 C   0  0  0  0  0  0  0  0  0  0  0  0
   -6.1931   -1.8841    0.2934 C   0  0  0  0  0  0  0  0  0  0  0  0
    0.3817   -2.5006   -0.2151 C   0  0  0  0  0  0  0  0  0  0  0  0
   -0.9023   -2.3996    0.6203 C   0  0  0  0  0  0  0  0  0  0  0  0
   -5.1453    0.2817   -0.2999 C   0  0  0  0  0  0  0  0  0  0  0  0
   -6.5709    0.5113    0.2153 C   0  0  0  0  0  0  0  0  0  0  0  0
   -7.2575   -0.8294   -0.0792 C   0  0  0  0  0  0  0  0  0  0  0  0
    3.8476   -1.7971    2.2050 H   0  0  0  0  0  0  0  0  0  0  0  0
    3.1509   -2.9724   -1.3295 H   0  0  0  0  0  0  0  0  0  0  0  0
    5.3419   -3.5042    0.9390 H   0  0  0  0  0  0  0  0  0  0  0  0
    6.9678   -1.7572    1.3696 H   0  0  0  0  0  0  0  0  0  0  0  0
    6.4389   -0.6943   -1.4812 H   0  0  0  0  0  0  0  0  0  0  0  0
    4.4254    0.4148   -0.4922 H   0  0  0  0  0  0  0  0  0  0  0  0
   -4.4389   -1.9298   -1.8870 H   0  0  0  0  0  0  0  0  0  0  0  0
   -3.9246   -2.2390    1.8236 H   0  0  0  0  0  0  0  0  0  0  0  0
   -6.3269   -2.2187    1.3448 H   0  0  0  0  0  0  0  0  0  0  0  0
    0.1439   -2.6604   -1.2882 H   0  0  0  0  0  0  0  0  0  0  0  0
   -1.5648   -3.2760    0.4667 H   0  0  0  0  0  0  0  0  0  0  0  0
   -4.3958    1.0159    0.0567 H   0  0  0  0  0  0  0  0  0  0  0  0
   -7.0708    1.3794   -0.2588 H   0  0  0  0  0  0  0  0  0  0  0  0
   -7.4869   -0.8925   -1.1644 H   0  0  0  0  0  0  0  0  0  0  0  0
    2.9395   -2.9956    1.2233 H   0  0  0  0  0  0  0  0  0  0  0  0
    4.1734   -1.7277   -2.1212 H   0  0  0  0  0  0  0  0  0  0  0  0
    5.5155   -3.3461   -0.8194 H   0  0  0  0  0  0  0  0  0  0  0  0
    7.6556   -2.4216   -0.1365 H   0  0  0  0  0  0  0  0  0  0  0  0
    7.1091    0.2346   -0.1139 H   0  0  0  0  0  0  0  0  0  0  0  0
    4.9917    0.0383    1.1491 H   0  0  0  0  0  0  0  0  0  0  0  0
   -3.7307   -2.9410   -0.5783 H   0  0  0  0  0  0  0  0  0  0  0  0
   -4.6520   -0.6521    2.2533 H   0  0  0  0  0  0  0  0  0  0  0  0
   -6.2655   -2.7997   -0.3298 H   0  0  0  0  0  0  0  0  0  0  0  0
    1.0247   -3.3417    0.1157 H   0  0  0  0  0  0  0  0  0  0  0  0
   -0.6665   -2.3336    1.7036 H   0  0  0  0  0  0  0  0  0  0  0  0
   -5.1331    0.3457   -1.4084 H   0  0  0  0  0  0  0  0  0  0  0  0
   -6.5611    0.7044    1.3107 H   0  0  0  0  0  0  0  0  0  0  0  0
   -8.2138   -0.9751    0.4623 H   0  0  0  0  0  0  0  0  0  0  0  0
  1  3  1  0  0  0  0
  2 19  1  0  0  0  0
  2  6  1  0  0  0  0
  3  7  1  0  0  0  0
  4  8  1  0  0  0  0
  4  1  1  0  0  0  0
  5 14  1  0  0  0  0
  5  2  1  0  0  0  0
  6 15  1  0  0  0  0
  7 23  1  0  0  0  0
  8  9  1  0  0  0  0
  9 13  1  0  0  0  0
  9 10  1  0  0  0  0
  9  7  1  0  0  0  0
 10 11  1  0  0  0  0
 10 25  1  0  0  0  0
 11 26  1  0  0  0  0
 12 41  1  0  0  0  0
 12 13  1  0  0  0  0
 12 11  1  0  0  0  0
 13 42  1  0  0  0  0
 14 43  1  0  0  0  0
 14 16  1  0  0  0  0
 15 30  1  0  0  0  0
 15 44  1  0  0  0  0
 16 17  1  0  0  0  0
 16 15  1  0  0  0  0
 17 31  1  0  0  0  0
 18  1  1  0  0  0  0
 18 46  1  0  0  0  0
 18 19  1  0  0  0  0
 19 47  1  0  0  0  0
 20 34  1  0  0  0  0
 20 16  1  0  0  0  0
 20 21  1  0  0  0  0
 21 49  1  0  0  0  0
 22 21  1  0  0  0  0
 22 17  1  0  0  0  0
 22 50  1  0  0  0  0
 24  8  1  0  0  0  0
 27 12  1  0  0  0  0
 28 13  1  0  0  0  0
 29 14  1  0  0  0  0
 32 18  1  0  0  0  0
 33 19  1  0  0  0  0
 35 21  1  0  0  0  0
 36 22  1  0  0  0  0
 37  7  1  0  0  0  0
 38  8  1  0  0  0  0
 39 10  1  0  0  0  0
 40 11  1  0  0  0  0
 45 17  1  0  0  0  0
 48 20  1  0  0  0  0
M  END
