1,2
q = 0.0, confidence = 0.992

 40 43  0  0  0  0  0  0  0  0999 V2000
   -1.4409    0.6317   -0.3771 P   0  0  1  0  0  0  0  0  0  0  0  0
    1.3696    0.6558   -0.4762 P   0  0  2  0  0  0  0  0  0  0  0  0
   -0.8469    0.4738   -2.1532 C   0  0  0  0  0  0  0  0  0  0  0  0
   -1.2279   -0.5069   -2.5024 H   0  0  0  0  0  0  0  0  0  0  0  0
   -1.2928    1.2873   -2.7577 H   0  0  0  0  0  0  0  0  0  0  0  0
    0.6999    0.4955   -2.2121 C   0  0  0  0  0  0  0  0  0  0  0  0
    1.0757    1.3355   -2.8285 H   0  0  0  0  0  0  0  0  0  0  0  0
    1.0771   -0.4701   -2.6057 H   0  0  0  0  0  0  0  0  0  0  0  0
    0.6764    2.3154   -0.0814 C   0  0  0  0  0  0  0  0  0  0  0  0
    1.3844    3.4967    0.1799 C   0  0  0  0  0  0  0  0  0  0  0  0
    2.4844    3.4997    0.1314 H   0  0  0  0  0  0  0  0  0  0  0  0
    0.6801    4.6649    0.5219 C   0  0  0  0  0  0  0  0  0  0  0  0
    1.2336    5.5894    0.7457 H   0  0  0  0  0  0  0  0  0  0  0  0
   -0.7221    4.6540    0.5878 C   0  0  0  0  0  0  0  0  0  0  0  0
   -1.2657    5.5691    0.8677 H   0  0  0  0  0  0  0  0  0  0  0  0
   -1.4403    3.4779    0.3058 C   0  0  0  0  0  0  0  0  0  0  0  0
   -2.5396    3.4718    0.3602 H   0  0  0  0  0  0  0  0  0  0  0  0
   -0.7469    2.3048   -0.0264 C   0  0  0  0  0  0  0  0  0  0  0  0
   -3.2567    0.7905   -0.4531 C   0  0  0  0  0  0  0  0  0  0  0  0
   -4.0298   -0.0589    0.3645 C   0  0  0  0  0  0  0  0  0  0  0  0
   -3.5245   -0.7829    1.0200 H   0  0  0  0  0  0  0  0  0  0  0  0
   -5.4305    0.0190    0.3289 C   0  0  0  0  0  0  0  0  0  0  0  0
   -6.0299   -0.6481    0.9664 H   0  0  0  0  0  0  0  0  0  0  0  0
   -6.0631    0.9401   -0.5199 C   0  0  0  0  0  0  0  0  0  0  0  0
   -7.1619    0.9987   -0.5476 H   0  0  0  0  0  0  0  0  0  0  0  0
   -5.2960    1.7857   -1.3393 C   0  0  0  0  0  0  0  0  0  0  0  0
   -5.7923    2.5054   -2.0081 H   0  0  0  0  0  0  0  0  0  0  0  0
   -3.8964    1.7125   -1.3100 C   0  0  0  0  0  0  0  0  0  0  0  0
   -3.3004    2.3763   -1.9552 H   0  0  0  0  0  0  0  0  0  0  0  0
    3.1776    0.8249   -0.5427 C   0  0  0  0  0  0  0  0  0  0  0  0
    3.9063    0.8179   -1.7492 C   0  0  0  0  0  0  0  0  0  0  0  0
    3.3857    0.7302   -2.7138 H   0  0  0  0  0  0  0  0  0  0  0  0
    5.3057    0.9172   -1.7219 C   0  0  0  0  0  0  0  0  0  0  0  0
    5.8704    0.9081   -2.6664 H   0  0  0  0  0  0  0  0  0  0  0  0
    5.9833    1.0266   -0.4975 C   0  0  0  0  0  0  0  0  0  0  0  0
    7.0809    1.1038   -0.4811 H   0  0  0  0  0  0  0  0  0  0  0  0
    5.2610    1.0263    0.7074 C   0  0  0  0  0  0  0  0  0  0  0  0
    5.7899    1.1001    1.6695 H   0  0  0  0  0  0  0  0  0  0  0  0
    3.8641    0.9154    0.6890 C   0  0  0  0  0  0  0  0  0  0  0  0
    3.2976    0.8892    1.6331 H   0  0  0  0  0  0  0  0  0  0  0  0
  1 19  1  6  0  0  0
  1 18  1  0  0  0  0
  2 30  1  6  0  0  0
  2  9  1  0  0  0  0
  3  1  1  0  0  0  0
  4  3  1  0  0  0  0
  5  3  1  0  0  0  0
  6  3  1  0  0  0  0
  6  2  1  0  0  0  0
  7  6  1  0  0  0  0
  8  6  1  0  0  0  0
  9 18  2  0  0  0  0
  9 10  1  0  0  0  0
 10 12  2  0  0  0  0
 11 10  1  0  0  0  0
 12 14  1  0  0  0  0
 12 13  1  0  0  0  0
 14 15  1  0  0  0  0
 16 17  1  0  0  0  0
 16 14  2  0  0  0  0
 18 16  1  0  0  0  0
 19 20  1  0  0  0  0
 20 21  1  0  0  0  0
 22 20  2  0  0  0  0
 22 23  1  0  0  0  0
 24 22  1  0  0  0  0
 25 24  1  0  0  0  0
 26 28  1  0  0  0  0
 26 24  2  0  0  0  0
 27 26  1  0  0  0  0
 28 19  2  0  0  0  0
 29 28  1  0  0  0  0
 30 39  1  0  0  0  0
 31 33  1  0  0  0  0
 31 30  2  0  0  0  0
 32 31  1  0  0  0  0
 33 35  2  0  0  0  0
 34 33  1  0  0  0  0
 35 36  1  0  0  0  0
 35 37  1  0  0  0  0
 37 38  1  0  0  0  0
 39 37  2  0  0  0  0
 39 40  1  0  0  0  0
M  END
