1,2
q = 0.0, confidence = 1.0

 59 62  0  0  0  0  0  0  0  0999 V2000
   -2.3427   -0.1072    0.3402 P   0  0  0  0  0  0  0  0  0  0  0  0
    2.3425   -0.1066    0.3402 P   0  0  0  0  0  0  0  0  0  0  0  0
   -0.0000    0.1004    2.3412 O   0  0  0  0  0  0  0  0  0  0  0  0
   -2.3513   -0.1326    2.2015 C   0  0  0  0  0  0  0  0  0  0  0  0
   -3.3350    0.1887    2.5977 H   0  0  0  0  0  0  0  0  0  0  0  0
   -2.2055   -1.2012    2.4608 H   0  0  0  0  0  0  0  0  0  0  0  0
   -1.2113    0.6934    2.7933 C   0  0  0  0  0  0  0  0  0  0  0  0
   -1.2634    1.7573    2.4640 H   0  0  0  0  0  0  0  0  0  0  0  0
   -1.2532    0.6597    3.9078 H   0  0  0  0  0  0  0  0  0  0  0  0
    1.2110    0.6940    2.7933 C   0  0  0  0  0  0  0  0  0  0  0  0
    1.2529    0.6605    3.9077 H   0  0  0  0  0  0  0  0  0  0  0  0
    1.2626    1.7579    2.4638 H   0  0  0  0  0  0  0  0  0  0  0  0
    2.3514   -0.1315    2.2015 C   0  0  0  0  0  0  0  0  0  0  0  0
    2.2062   -1.2001    2.4611 H   0  0  0  0  0  0  0  0  0  0  0  0
    3.3349    0.1905    2.5976 H   0  0  0  0  0  0  0  0  0  0  0  0
   -3.5313   -1.4216   -0.1484 C   0  0  0  0  0  0  0  0  0  0  0  0
   -3.0578   -2.6137   -0.7311 C   0  0  0  0  0  0  0  0  0  0  0  0
   -1.9749   -2.7596   -0.8607 H   0  0  0  0  0  0  0  0  0  0  0  0
   -3.9695   -3.6120   -1.1082 C   0  0  0  0  0  0  0  0  0  0  0  0
   -3.5960   -4.5421   -1.5629 H   0  0  0  0  0  0  0  0  0  0  0  0
   -5.3464   -3.4287   -0.9090 C   0  0  0  0  0  0  0  0  0  0  0  0
   -6.0569   -4.2143   -1.2089 H   0  0  0  0  0  0  0  0  0  0  0  0
   -5.8194   -2.2380   -0.3325 C   0  0  0  0  0  0  0  0  0  0  0  0
   -6.8992   -2.0860   -0.1828 H   0  0  0  0  0  0  0  0  0  0  0  0
   -4.9165   -1.2336    0.0431 C   0  0  0  0  0  0  0  0  0  0  0  0
   -5.2930   -0.2909    0.4695 H   0  0  0  0  0  0  0  0  0  0  0  0
   -3.1978    1.4342   -0.1751 C   0  0  0  0  0  0  0  0  0  0  0  0
   -3.9870    2.2187    0.6859 C   0  0  0  0  0  0  0  0  0  0  0  0
   -4.0986    1.9491    1.7468 H   0  0  0  0  0  0  0  0  0  0  0  0
   -4.6372    3.3649    0.1996 C   0  0  0  0  0  0  0  0  0  0  0  0
   -5.2488    3.9755    0.8812 H   0  0  0  0  0  0  0  0  0  0  0  0
   -4.5048    3.7306   -1.1477 C   0  0  0  0  0  0  0  0  0  0  0  0
   -5.0137    4.6297   -1.5272 H   0  0  0  0  0  0  0  0  0  0  0  0
   -3.7119    2.9532   -2.0089 C   0  0  0  0  0  0  0  0  0  0  0  0
   -3.5928    3.2444   -3.0634 H   0  0  0  0  0  0  0  0  0  0  0  0
   -3.0546    1.8156   -1.5254 C   0  0  0  0  0  0  0  0  0  0  0  0
   -2.4048    1.2238   -2.1891 H   0  0  0  0  0  0  0  0  0  0  0  0
    3.1979    1.4344   -0.1757 C   0  0  0  0  0  0  0  0  0  0  0  0
    3.9876    2.2189    0.6848 C   0  0  0  0  0  0  0  0  0  0  0  0
    4.0994    1.9497    1.7457 H   0  0  0  0  0  0  0  0  0  0  0  0
    4.6381    3.3648    0.1979 C   0  0  0  0  0  0  0  0  0  0  0  0
    5.2501    3.9754    0.8792 H   0  0  0  0  0  0  0  0  0  0  0  0
    4.5054    3.7301   -1.1495 C   0  0  0  0  0  0  0  0  0  0  0  0
    5.0146    4.6288   -1.5294 H   0  0  0  0  0  0  0  0  0  0  0  0
    3.7120    2.9527   -2.0102 C   0  0  0  0  0  0  0  0  0  0  0  0
    3.5928    3.2435   -3.0648 H   0  0  0  0  0  0  0  0  0  0  0  0
    3.0545    1.8154   -1.5262 C   0  0  0  0  0  0  0  0  0  0  0  0
    2.4043    1.2236   -2.1895 H   0  0  0  0  0  0  0  0  0  0  0  0
    3.5307   -1.4215   -0.1482 C   0  0  0  0  0  0  0  0  0  0  0  0
    3.0575   -2.6108   -0.7366 C   0  0  0  0  0  0  0  0  0  0  0  0
    1.9749   -2.7547   -0.8704 H   0  0  0  0  0  0  0  0  0  0  0  0
    3.9690   -3.6092   -1.1139 C   0  0  0  0  0  0  0  0  0  0  0  0
    3.5958   -4.5372   -1.5731 H   0  0  0  0  0  0  0  0  0  0  0  0
    5.3455   -3.4286   -0.9092 C   0  0  0  0  0  0  0  0  0  0  0  0
    6.0559   -4.2142   -1.2092 H   0  0  0  0  0  0  0  0  0  0  0  0
    5.8182   -2.2406   -0.3270 C   0  0  0  0  0  0  0  0  0  0  0  0
    6.8977   -2.0907   -0.1730 H   0  0  0  0  0  0  0  0  0  0  0  0
    4.9155   -1.2362    0.0488 C   0  0  0  0  0  0  0  0  0  0  0  0
    5.2919   -0.2954    0.4797 H   0  0  0  0  0  0  0  0  0  0  0  0
  1  4  1  0  0  0  0
  2 13  1  0  0  0  0
  3 10  1  0  0  0  0
  3  7  1  0  0  0  0
  4  6  1  0  0  0  0
  4  5  1  0  0  0  0
  4  7  1  0  0  0  0
  7  9  1  0  0  0  0
  8  7  1  0  0  0  0
 10 11  1  0  0  0  0
 12 10  1  0  0  0  0
 13 14  1  0  0  0  0
 13 15  1  0  0  0  0
 13 10  1  0  0  0  0
 16 25  1  0  0  0  0
 16  1  1  0  0  0  0
 17 16  2  0  0  0  0
 18 17  1  0  0  0  0
 19 21  2  0  0  0  0
 19 17  1  0  0  0  0
 20 19  1  0  0  0  0
 21 23  1  0  0  0  0
 22 21  1  0  0  0  0
 23 24  1  0  0  0  0
 23 25  2  0  0  0  0
 25 26  1  0  0  0  0
 27  1  1  0  0  0  0
 27 28  1  0  0  0  0
 28 29  1  0  0  0  0
 30 28  2  0  0  0  0
 30 31  1  0  0  0  0
 32 30  1  0  0  0  0
 33 32  1  0  0  0  0
 34 36  1  0  0  0  0
 34 32  2  0  0  0  0
 35 34  1  0  0  0  0
 36 27  2  0  0  0  0
 37 36  1  0  0  0  0
 38  2  1  0  0  0  0
 38 39  1  0  0  0  0
 39 40  1  0  0  0  0
 41 39  2  0  0  0  0
 41 42  1  0  0  0  0
 43 41  1  0  0  0  0
 44 43  1  0  0  0  0
 45 47  1  0  0  0  0
 45 43  2  0  0  0  0
 46 45  1  0  0  0  0
 47 38  2  0  0  0  0
 48 47  1  0  0  0  0
 49 58  1  0  0  0  0
 49  2  1  0  0  0  0
 50 49  2  0  0  0  0
 51 50  1  0  0  0  0
 52 54  2  0  0  0  0
 52 50  1  0  0  0  0
 53 52  1  0  0  0  0
 54 56  1  0  0  0  0
 55 54  1  0  0  0  0
 56 57  1  0  0  0  0
 56 58  2  0  0  0  0
 58 59  1  0  0  0  0
M  END
