1,2
q = 0.0, confidence = 0.996

 70 73  0  0  0  0  0  0  0  0999 V2000
    1.8748   -0.4407    0.2816 P   0  0  0  0  0  0  0  0  0  0  0  0
   -1.4397    0.9303    0.1473 P   0  0  0  0  0  0  0  0  0  0  0  0
   -2.7011   -4.0501    2.4209 O   0  0  0  0  0  0  0  0  0  0  0  0
   -0.7240   -1.9953    1.2462 N   0  0  0  0  0  0  0  0  0  0  0  0
    1.7737   -1.8675    1.4568 C   0  0  0  0  0  0  0  0  0  0  0  0
    1.9206   -2.7507    0.8010 H   0  0  0  0  0  0  0  0  0  0  0  0
    2.6103   -1.8370    2.1839 H   0  0  0  0  0  0  0  0  0  0  0  0
    0.4213   -1.9235    2.1713 C   0  0  0  0  0  0  0  0  0  0  0  0
    0.4179   -2.7860    2.8779 H   0  0  0  0  0  0  0  0  0  0  0  0
    0.3017   -1.0241    2.8048 H   0  0  0  0  0  0  0  0  0  0  0  0
   -1.9195   -1.2989    1.7681 C   0  0  0  0  0  0  0  0  0  0  0  0
   -2.2006   -1.6826    2.7744 H   0  0  0  0  0  0  0  0  0  0  0  0
   -2.7583   -1.5534    1.0900 H   0  0  0  0  0  0  0  0  0  0  0  0
   -1.7418    0.2202    1.8260 C   0  0  0  0  0  0  0  0  0  0  0  0
   -0.8629    0.5070    2.4399 H   0  0  0  0  0  0  0  0  0  0  0  0
   -2.6266    0.6843    2.3038 H   0  0  0  0  0  0  0  0  0  0  0  0
   -1.0196   -3.3815    0.8127 C   0  0  0  0  0  0  0  0  0  0  0  0
   -0.1234   -3.7669    0.2872 H   0  0  0  0  0  0  0  0  0  0  0  0
   -1.8034   -3.3122    0.0326 H   0  0  0  0  0  0  0  0  0  0  0  0
   -1.4399   -4.3865    1.8763 C   0  0  0  0  0  0  0  0  0  0  0  0
   -1.4795   -5.3912    1.3845 H   0  0  0  0  0  0  0  0  0  0  0  0
   -0.6775   -4.4791    2.6938 H   0  0  0  0  0  0  0  0  0  0  0  0
   -3.1672   -4.9971    3.3500 C   0  0  0  0  0  0  0  0  0  0  0  0
   -4.1553   -4.6562    3.7161 H   0  0  0  0  0  0  0  0  0  0  0  0
   -2.4799   -5.1038    4.2261 H   0  0  0  0  0  0  0  0  0  0  0  0
   -3.2877   -6.0093    2.8918 H   0  0  0  0  0  0  0  0  0  0  0  0
    3.5189   -0.6210   -0.5331 C   0  0  0  0  0  0  0  0  0  0  0  0
    4.6849   -0.6464    0.2601 C   0  0  0  0  0  0  0  0  0  0  0  0
    4.6116   -0.5602    1.3560 H   0  0  0  0  0  0  0  0  0  0  0  0
    5.9450   -0.7594   -0.3434 C   0  0  0  0  0  0  0  0  0  0  0  0
    6.8512   -0.7830    0.2809 H   0  0  0  0  0  0  0  0  0  0  0  0
    6.0478   -0.8320   -1.7426 C   0  0  0  0  0  0  0  0  0  0  0  0
    7.0372   -0.9170   -2.2176 H   0  0  0  0  0  0  0  0  0  0  0  0
    4.8893   -0.7904   -2.5334 C   0  0  0  0  0  0  0  0  0  0  0  0
    4.9664   -0.8434   -3.6299 H   0  0  0  0  0  0  0  0  0  0  0  0
    3.6240   -0.6877   -1.9348 C   0  0  0  0  0  0  0  0  0  0  0  0
    2.7129   -0.6693   -2.5491 H   0  0  0  0  0  0  0  0  0  0  0  0
    2.1808    1.0538    1.3137 C   0  0  0  0  0  0  0  0  0  0  0  0
    2.2016    1.0512    2.7222 C   0  0  0  0  0  0  0  0  0  0  0  0
    2.0361    0.1213    3.2854 H   0  0  0  0  0  0  0  0  0  0  0  0
    2.4617    2.2376    3.4296 C   0  0  0  0  0  0  0  0  0  0  0  0
    2.4762    2.2231    4.5302 H   0  0  0  0  0  0  0  0  0  0  0  0
    2.7178    3.4289    2.7369 C   0  0  0  0  0  0  0  0  0  0  0  0
    2.9262    4.3564    3.2913 H   0  0  0  0  0  0  0  0  0  0  0  0
    2.7055    3.4355    1.3319 C   0  0  0  0  0  0  0  0  0  0  0  0
    2.8993    4.3680    0.7822 H   0  0  0  0  0  0  0  0  0  0  0  0
    2.4295    2.2603    0.6245 C   0  0  0  0  0  0  0  0  0  0  0  0
    2.4087    2.2693   -0.4761 H   0  0  0  0  0  0  0  0  0  0  0  0
   -3.1037    1.3383   -0.5518 C   0  0  0  0  0  0  0  0  0  0  0  0
   -3.2136    1.4400   -1.9536 C   0  0  0  0  0  0  0  0  0  0  0  0
   -2.3494    1.1853   -2.5849 H   0  0  0  0  0  0  0  0  0  0  0  0
   -4.4224    1.8427   -2.5369 C   0  0  0  0  0  0  0  0  0  0  0  0
   -4.4992    1.9145   -3.6323 H   0  0  0  0  0  0  0  0  0  0  0  0
   -5.5346    2.1341   -1.7307 C   0  0  0  0  0  0  0  0  0  0  0  0
   -6.4862    2.4400   -2.1916 H   0  0  0  0  0  0  0  0  0  0  0  0
   -5.4309    2.0314   -0.3353 C   0  0  0  0  0  0  0  0  0  0  0  0
   -6.2984    2.2590    0.3030 H   0  0  0  0  0  0  0  0  0  0  0  0
   -4.2174    1.6416    0.2529 C   0  0  0  0  0  0  0  0  0  0  0  0
   -4.1520    1.5842    1.3500 H   0  0  0  0  0  0  0  0  0  0  0  0
   -0.8170    2.6404    0.4312 C   0  0  0  0  0  0  0  0  0  0  0  0
   -0.8622    3.2693    1.6896 C   0  0  0  0  0  0  0  0  0  0  0  0
   -1.1962    2.7204    2.5817 H   0  0  0  0  0  0  0  0  0  0  0  0
   -0.4797    4.6137    1.8192 C   0  0  0  0  0  0  0  0  0  0  0  0
   -0.5097    5.0934    2.8093 H   0  0  0  0  0  0  0  0  0  0  0  0
   -0.0657    5.3427    0.6949 C   0  0  0  0  0  0  0  0  0  0  0  0
    0.2242    6.3995    0.7985 H   0  0  0  0  0  0  0  0  0  0  0  0
   -0.0159    4.7167   -0.5616 C   0  0  0  0  0  0  0  0  0  0  0  0
    0.3162    5.2794   -1.4474 H   0  0  0  0  0  0  0  0  0  0  0  0
   -0.3819    3.3710   -0.6943 C   0  0  0  0  0  0  0  0  0  0  0  0
   -0.3177    2.8715   -1.6735 H   0  0  0  0  0  0  0  0  0  0  0  0
  1 38  1  0  0  0  0
  1  5  1  0  0  0  0
  2 60  1  0  0  0  0
  2 14  1  0  0  0  0
  3 23  1  0  0  0  0
  4 11  1  0  0  0  0
  4  8  1  0  0  0  0
  5  8  1  0  0  0  0
  5  7  1  0  0  0  0
  6  5  1  0  0  0  0
  8 10  1  0  0  0  0
  8  9  1  0  0  0  0
 11 14  1  0  0  0  0
 11 12  1  0  0  0  0
 13 11  1  0  0  0  0
 14 16  1  0  0  0  0
 14 15  1  0  0  0  0
 17  4  1  0  0  0  0
 17 20  1  0  0  0  0
 18 17  1  0  0  0  0
 19 17  1  0  0  0  0
 20  3  1  0  0  0  0
 20 22  1  0  0  0  0
 21 20  1  0  0  0  0
 23 24  1  0  0  0  0
 23 25  1  0  0  0  0
 26 23  1  0  0  0  0
 27 28  1  0  0  0  0
 27  1  1  0  0  0  0
 28 29  1  0  0  0  0
 30 28  2  0  0  0  0
 30 31  1  0  0  0  0
 32 30  1  0  0  0  0
 33 32  1  0  0  0  0
 34 36  1  0  0  0  0
 34 32  2  0  0  0  0
 35 34  1  0  0  0  0
 36 27  2  0  0  0  0
 37 36  1  0  0  0  0
 38 39  1  0  0  0  0
 39 40  1  0  0  0  0
 39 41  2  0  0  0  0
 41 42  1  0  0  0  0
 43 44  1  0  0  0  0
 43 41  1  0  0  0  0
 45 43  2  0  0  0  0
 46 45  1  0  0  0  0
 47 38  2  0  0  0  0
 47 45  1  0  0  0  0
 48 47  1  0  0  0  0
 49  2  1  0  0  0  0
 49 58  1  0  0  0  0
 50 49  2  0  0  0  0
 51 50  1  0  0  0  0
 52 50  1  0  0  0  0
 52 54  2  0  0  0  0
 53 52  1  0  0  0  0
 54 56  1  0  0  0  0
 55 54  1  0  0  0  0
 56 58  2  0  0  0  0
 56 57  1  0  0  0  0
 58 59  1  0  0  0  0
 60 61  1  0  0  0  0
 61 63  2  0  0  0  0
 61 62  1  0  0  0  0
 63 64  1  0  0  0  0
 65 66  1  0  0  0  0
 65 63  1  0  0  0  0
 67 65  2  0  0  0  0
 68 67  1  0  0  0  0
 69 67  1  0  0  0  0
 69 60  2  0  0  0  0
 70 69  1  0  0  0  0
M  END
