5,6
q = 0.0, confidence = 0.966

 82 83  0  0  0  0  0  0  0  0999 V2000
   -2.7660    1.2125   -0.3009 N   0  0  0  0  0  0  0  0  0  0  0  0
   -2.7773   -1.1204   -0.6621 N   0  0  0  0  0  0  0  0  0  0  0  0
    2.7773    1.1203   -0.6622 N   0  0  0  0  0  0  0  0  0  0  0  0
    2.7660   -1.2126   -0.3008 N   0  0  0  0  0  0  0  0  0  0  0  0
   -1.5185    0.0416   -0.4525 P   0  0  0  0  0  0  0  0  0  0  0  0
    1.5185   -0.0416   -0.4525 P   0  0  0  0  0  0  0  0  0  0  0  0
   -4.0993    0.0319   -0.3352 Si  0  0  0  0  0  0  0  0  0  0  0  0
    4.0993   -0.0320   -0.3352 Si  0  0  0  0  0  0  0  0  0  0  0  0
   -5.0390   -0.2582    1.2591 C   0  0  0  0  0  0  0  0  0  0  0  0
   -5.5952   -1.2173    1.2124 H   0  0  0  0  0  0  0  0  0  0  0  0
   -5.7748    0.5467    1.4572 H   0  0  0  0  0  0  0  0  0  0  0  0
   -4.3035   -0.3065    2.0872 H   0  0  0  0  0  0  0  0  0  0  0  0
   -5.2754    0.2836   -1.7836 C   0  0  0  0  0  0  0  0  0  0  0  0
   -4.7109    0.4059   -2.7288 H   0  0  0  0  0  0  0  0  0  0  0  0
   -5.8958    1.1908   -1.6274 H   0  0  0  0  0  0  0  0  0  0  0  0
   -5.9680   -0.5758   -1.8934 H   0  0  0  0  0  0  0  0  0  0  0  0
    5.0390    0.2582    1.2591 C   0  0  0  0  0  0  0  0  0  0  0  0
    4.3035    0.3066    2.0872 H   0  0  0  0  0  0  0  0  0  0  0  0
    5.5951    1.2173    1.2123 H   0  0  0  0  0  0  0  0  0  0  0  0
    5.7749   -0.5467    1.4572 H   0  0  0  0  0  0  0  0  0  0  0  0
    5.2754   -0.2838   -1.7836 C   0  0  0  0  0  0  0  0  0  0  0  0
    5.8959   -1.1909   -1.6273 H   0  0  0  0  0  0  0  0  0  0  0  0
    5.9679    0.5756   -1.8935 H   0  0  0  0  0  0  0  0  0  0  0  0
    4.7109   -0.4063   -2.7288 H   0  0  0  0  0  0  0  0  0  0  0  0
   -2.6693    2.6452    0.0367 C   0  0  0  0  0  0  0  0  0  0  0  0
   -1.4972    2.9017    0.9982 C   0  0  0  0  0  0  0  0  0  0  0  0
   -1.6515    2.3750    1.9589 H   0  0  0  0  0  0  0  0  0  0  0  0
   -1.3696    3.9876    1.1798 H   0  0  0  0  0  0  0  0  0  0  0  0
   -0.5473    2.5103    0.5774 H   0  0  0  0  0  0  0  0  0  0  0  0
   -3.9788    3.0569    0.7318 C   0  0  0  0  0  0  0  0  0  0  0  0
   -4.8571    2.8763    0.0762 H   0  0  0  0  0  0  0  0  0  0  0  0
   -3.9637    4.1378    0.9743 H   0  0  0  0  0  0  0  0  0  0  0  0
   -4.1110    2.4915    1.6744 H   0  0  0  0  0  0  0  0  0  0  0  0
   -2.5001    3.4725   -1.2554 C   0  0  0  0  0  0  0  0  0  0  0  0
   -1.5463    3.2300   -1.7646 H   0  0  0  0  0  0  0  0  0  0  0  0
   -2.4930    4.5598   -1.0363 H   0  0  0  0  0  0  0  0  0  0  0  0
   -3.3271    3.2613   -1.9629 H   0  0  0  0  0  0  0  0  0  0  0  0
   -0.7047    0.2842   -2.1344 C   0  0  0  0  0  0  0  0  0  0  0  0
   -1.3719   -0.1717   -2.8917 H   0  0  0  0  0  0  0  0  0  0  0  0
   -0.7006    1.3782   -2.3088 H   0  0  0  0  0  0  0  0  0  0  0  0
    0.7047   -0.2843   -2.1344 C   0  0  0  0  0  0  0  0  0  0  0  0
    1.3718    0.1714   -2.8917 H   0  0  0  0  0  0  0  0  0  0  0  0
    0.7006   -1.3784   -2.3087 H   0  0  0  0  0  0  0  0  0  0  0  0
   -2.7166   -2.5914   -0.6504 C   0  0  0  0  0  0  0  0  0  0  0  0
   -1.5457   -3.0639   -1.5272 C   0  0  0  0  0  0  0  0  0  0  0  0
   -1.6399   -2.6808   -2.5631 H   0  0  0  0  0  0  0  0  0  0  0  0
   -1.5030   -4.1705   -1.5644 H   0  0  0  0  0  0  0  0  0  0  0  0
   -0.5829   -2.7158   -1.1060 H   0  0  0  0  0  0  0  0  0  0  0  0
   -2.5530   -3.1398    0.7801 C   0  0  0  0  0  0  0  0  0  0  0  0
   -1.6698   -2.6944    1.2759 H   0  0  0  0  0  0  0  0  0  0  0  0
   -2.4523   -4.2446    0.7714 H   0  0  0  0  0  0  0  0  0  0  0  0
   -3.4282   -2.8720    1.4036 H   0  0  0  0  0  0  0  0  0  0  0  0
   -4.0339   -3.1064   -1.2588 C   0  0  0  0  0  0  0  0  0  0  0  0
   -4.9055   -2.7860   -0.6510 H   0  0  0  0  0  0  0  0  0  0  0  0
   -4.0410   -4.2141   -1.2839 H   0  0  0  0  0  0  0  0  0  0  0  0
   -4.1692   -2.7287   -2.2921 H   0  0  0  0  0  0  0  0  0  0  0  0
    2.7167    2.5914   -0.6505 C   0  0  0  0  0  0  0  0  0  0  0  0
    4.0341    3.1063   -1.2589 C   0  0  0  0  0  0  0  0  0  0  0  0
    4.9056    2.7858   -0.6511 H   0  0  0  0  0  0  0  0  0  0  0  0
    4.0412    4.2140   -1.2840 H   0  0  0  0  0  0  0  0  0  0  0  0
    4.1694    2.7286   -2.2922 H   0  0  0  0  0  0  0  0  0  0  0  0
    2.5531    3.1397    0.7800 C   0  0  0  0  0  0  0  0  0  0  0  0
    1.6699    2.6943    1.2758 H   0  0  0  0  0  0  0  0  0  0  0  0
    2.4524    4.2445    0.7713 H   0  0  0  0  0  0  0  0  0  0  0  0
    3.4283    2.8719    1.4035 H   0  0  0  0  0  0  0  0  0  0  0  0
    1.5458    3.0639   -1.5273 C   0  0  0  0  0  0  0  0  0  0  0  0
    1.6401    2.6809   -2.5633 H   0  0  0  0  0  0  0  0  0  0  0  0
    1.5032    4.1705   -1.5645 H   0  0  0  0  0  0  0  0  0  0  0  0
    0.5830    2.7159   -1.1062 H   0  0  0  0  0  0  0  0  0  0  0  0
    2.6692   -2.6453    0.0368 C   0  0  0  0  0  0  0  0  0  0  0  0
    1.4971   -2.9016    0.9982 C   0  0  0  0  0  0  0  0  0  0  0  0
    1.6513   -2.3748    1.9590 H   0  0  0  0  0  0  0  0  0  0  0  0
    1.3694   -3.9875    1.1799 H   0  0  0  0  0  0  0  0  0  0  0  0
    0.5472   -2.5102    0.5774 H   0  0  0  0  0  0  0  0  0  0  0  0
    2.5000   -3.4726   -1.2553 C   0  0  0  0  0  0  0  0  0  0  0  0
    1.5463   -3.2301   -1.7644 H   0  0  0  0  0  0  0  0  0  0  0  0
    2.4929   -4.5598   -1.0361 H   0  0  0  0  0  0  0  0  0  0  0  0
    3.3271   -3.2614   -1.9627 H   0  0  0  0  0  0  0  0  0  0  0  0
    3.9786   -3.0569    0.7320 C   0  0  0  0  0  0  0  0  0  0  0  0
    4.8570   -2.8764    0.0765 H   0  0  0  0  0  0  0  0  0  0  0  0
    3.9635   -4.1378    0.9746 H   0  0  0  0  0  0  0  0  0  0  0  0
    4.1108   -2.4915    1.6746 H   0  0  0  0  0  0  0  0  0  0  0  0
  1 25  1  0  0  0  0
  2 44  1  0  0  0  0
  2  5  1  0  0  0  0
  2  7  1  0  0  0  0
  3 57  1  0  0  0  0
  3  6  1  0  0  0  0
  3  8  1  0  0  0  0
  4 70  1  0  0  0  0
  5  1  1  0  0  0  0
  6  4  1  0  0  0  0
  7  1  1  0  0  0  0
  7  9  1  0  0  0  0
  8  4  1  0  0  0  0
  8 17  1  0  0  0  0
  9 11  1  0  0  0  0
  9 12  1  0  0  0  0
 10  9  1  0  0  0  0
 13 15  1  0  0  0  0
 13  7  1  0  0  0  0
 14 13  1  0  0  0  0
 16 13  1  0  0  0  0
 17 20  1  0  0  0  0
 17 18  1  0  0  0  0
 19 17  1  0  0  0  0
 21 22  1  0  0  0  0
 21  8  1  0  0  0  0
 23 21  1  0  0  0  0
 24 21  1  0  0  0  0
 25 30  1  0  0  0  0
 25 26  1  0  0  0  0
 26 28  1  0  0  0  0
 26 27  1  0  0  0  0
 29 26  1  0  0  0  0
 30 32  1  0  0  0  0
 30 33  1  0  0  0  0
 31 30  1  0  0  0  0
 34 36  1  0  0  0  0
 34 25  1  0  0  0  0
 35 34  1  0  0  0  0
 37 34  1  0  0  0  0
 38 41  1  0  0  0  0
 38  5  1  0  0  0  0
 39 38  1  0  0  0  0
 40 38  1  0  0  0  0
 41  6  1  0  0  0  0
 42 41  1  0  0  0  0
 43 41  1  0  0  0  0
 44 49  1  0  0  0  0
 45 48  1  0  0  0  0
 45 44  1  0  0  0  0
 46 45  1  0  0  0  0
 47 45  1  0  0  0  0
 49 50  1  0  0  0  0
 49 52  1  0  0  0  0
 51 49  1  0  0  0  0
 53 54  1  0  0  0  0
 53 44  1  0  0  0  0
 55 53  1  0  0  0  0
 56 53  1  0  0  0  0
 57 62  1  0  0  0  0
 58 59  1  0  0  0  0
 58 57  1  0  0  0  0
 60 58  1  0  0  0  0
 61 58  1  0  0  0  0
 62 63  1  0  0  0  0
 62 65  1  0  0  0  0
 64 62  1  0  0  0  0
 66 69  1  0  0  0  0
 66 57  1  0  0  0  0
 67 66  1  0  0  0  0
 68 66  1  0  0  0  0
 70 79  1  0  0  0  0
 70 71  1  0  0  0  0
 71 73  1  0  0  0  0
 71 72  1  0  0  0  0
 74 71  1  0  0  0  0
 75 77  1  0  0  0  0
 75 70  1  0  0  0  0
 76 75  1  0  0  0  0
 78 75  1  0  0  0  0
 79 81  1  0  0  0  0
 79 82  1  0  0  0  0
 80 79  1  0  0  0  0
M  END
