1,2
q = 0.0, confidence = 0.986

 69 68  0  0  0  0  0  0  0  0999 V2000
   -1.2286    1.7673   -0.3750 P   0  0  0  0  0  0  0  0  0  0  0  0
   -1.2907   -1.6902    0.4930 P   0  0  0  0  0  0  0  0  0  0  0  0
   -4.0369   -0.0248   -0.2444 Si  0  0  0  0  0  0  0  0  0  0  0  0
   -1.4671    2.9460    1.1036 C   0  0  0  0  0  0  0  0  0  0  0  0
   -1.4032   -2.9596   -0.9357 C   0  0  0  0  0  0  0  0  0  0  0  0
   -2.1953    4.2399    0.7069 C   0  0  0  0  0  0  0  0  0  0  0  0
   -3.1743    4.0492    0.2221 H   0  0  0  0  0  0  0  0  0  0  0  0
   -1.5880    4.8749    0.0351 H   0  0  0  0  0  0  0  0  0  0  0  0
   -2.3969    4.8308    1.6254 H   0  0  0  0  0  0  0  0  0  0  0  0
   -2.3068    2.1818    2.1392 C   0  0  0  0  0  0  0  0  0  0  0  0
   -1.8240    1.2233    2.4094 H   0  0  0  0  0  0  0  0  0  0  0  0
   -3.3360    1.9873    1.7858 H   0  0  0  0  0  0  0  0  0  0  0  0
   -2.3829    2.7897    3.0649 H   0  0  0  0  0  0  0  0  0  0  0  0
   -3.0373   -1.2102    0.8496 C   0  0  0  0  0  0  0  0  0  0  0  0
   -2.9845   -0.6951    1.8310 H   0  0  0  0  0  0  0  0  0  0  0  0
   -3.6404   -2.1257    1.0140 H   0  0  0  0  0  0  0  0  0  0  0  0
   -2.9295    1.3453   -0.9630 C   0  0  0  0  0  0  0  0  0  0  0  0
   -2.7622    1.0323   -2.0149 H   0  0  0  0  0  0  0  0  0  0  0  0
   -3.5239    2.2810   -1.0217 H   0  0  0  0  0  0  0  0  0  0  0  0
   -0.5811   -1.2479    3.1324 C   0  0  0  0  0  0  0  0  0  0  0  0
   -1.5116   -0.6594    3.2668 H   0  0  0  0  0  0  0  0  0  0  0  0
    0.2241   -0.5709    2.7770 H   0  0  0  0  0  0  0  0  0  0  0  0
   -0.2934   -1.6235    4.1367 H   0  0  0  0  0  0  0  0  0  0  0  0
   -0.2345   -3.9597   -0.9053 C   0  0  0  0  0  0  0  0  0  0  0  0
   -0.3842   -4.7371   -0.1323 H   0  0  0  0  0  0  0  0  0  0  0  0
    0.7416   -3.4787   -0.7261 H   0  0  0  0  0  0  0  0  0  0  0  0
   -0.1892   -4.4742   -1.8878 H   0  0  0  0  0  0  0  0  0  0  0  0
   -4.8898   -0.8601   -1.7142 C   0  0  0  0  0  0  0  0  0  0  0  0
   -5.5531   -1.6824   -1.3756 H   0  0  0  0  0  0  0  0  0  0  0  0
   -4.1863   -1.2717   -2.4630 H   0  0  0  0  0  0  0  0  0  0  0  0
   -5.5290   -0.1121   -2.2285 H   0  0  0  0  0  0  0  0  0  0  0  0
   -1.3100   -2.1174   -2.2248 C   0  0  0  0  0  0  0  0  0  0  0  0
   -1.4761   -2.7772   -3.1027 H   0  0  0  0  0  0  0  0  0  0  0  0
   -0.3144   -1.6397   -2.3258 H   0  0  0  0  0  0  0  0  0  0  0  0
   -2.0776   -1.3195   -2.2592 H   0  0  0  0  0  0  0  0  0  0  0  0
   -5.4480    0.6565    0.8208 C   0  0  0  0  0  0  0  0  0  0  0  0
   -6.0043    1.4442    0.2715 H   0  0  0  0  0  0  0  0  0  0  0  0
   -5.1205    1.0809    1.7895 H   0  0  0  0  0  0  0  0  0  0  0  0
   -6.1655   -0.1612    1.0412 H   0  0  0  0  0  0  0  0  0  0  0  0
   -0.7686   -2.4558    2.1911 C   0  0  0  0  0  0  0  0  0  0  0  0
   -2.7257   -3.7442   -0.9015 C   0  0  0  0  0  0  0  0  0  0  0  0
   -2.7195   -4.4809   -1.7323 H   0  0  0  0  0  0  0  0  0  0  0  0
   -3.6123   -3.1003   -1.0437 H   0  0  0  0  0  0  0  0  0  0  0  0
   -2.8523   -4.3142    0.0402 H   0  0  0  0  0  0  0  0  0  0  0  0
   -0.5489    2.7052   -1.9275 C   0  0  0  0  0  0  0  0  0  0  0  0
   -0.0184    1.6093   -2.8724 C   0  0  0  0  0  0  0  0  0  0  0  0
    0.3291    2.0878   -3.8125 H   0  0  0  0  0  0  0  0  0  0  0  0
   -0.8066    0.8796   -3.1516 H   0  0  0  0  0  0  0  0  0  0  0  0
    0.8284    1.0401   -2.4429 H   0  0  0  0  0  0  0  0  0  0  0  0
    0.5895    3.6766   -1.5699 C   0  0  0  0  0  0  0  0  0  0  0  0
    1.4054    3.1758   -1.0221 H   0  0  0  0  0  0  0  0  0  0  0  0
    0.2302    4.5462   -0.9859 H   0  0  0  0  0  0  0  0  0  0  0  0
    1.0088    4.0744   -2.5180 H   0  0  0  0  0  0  0  0  0  0  0  0
   -1.6567    3.4975   -2.6514 C   0  0  0  0  0  0  0  0  0  0  0  0
   -2.1515    4.2461   -2.0045 H   0  0  0  0  0  0  0  0  0  0  0  0
   -2.4343    2.8499   -3.0985 H   0  0  0  0  0  0  0  0  0  0  0  0
   -1.1813    4.0507   -3.4881 H   0  0  0  0  0  0  0  0  0  0  0  0
   -1.8630   -3.3926    2.7319 C   0  0  0  0  0  0  0  0  0  0  0  0
   -2.0468   -4.2533    2.0581 H   0  0  0  0  0  0  0  0  0  0  0  0
   -2.8254   -2.8800    2.9225 H   0  0  0  0  0  0  0  0  0  0  0  0
   -1.5173   -3.8080    3.7019 H   0  0  0  0  0  0  0  0  0  0  0  0
    0.5632   -3.2270    2.1392 C   0  0  0  0  0  0  0  0  0  0  0  0
    0.8802   -3.4181    3.1858 H   0  0  0  0  0  0  0  0  0  0  0  0
    1.3625   -2.6605    1.6307 H   0  0  0  0  0  0  0  0  0  0  0  0
    0.4589   -4.2100    1.6467 H   0  0  0  0  0  0  0  0  0  0  0  0
   -0.1039    3.2593    1.7442 C   0  0  0  0  0  0  0  0  0  0  0  0
   -0.2698    3.9415    2.6045 H   0  0  0  0  0  0  0  0  0  0  0  0
    0.6032    3.7523    1.0545 H   0  0  0  0  0  0  0  0  0  0  0  0
    0.3795    2.3403    2.1276 H   0  0  0  0  0  0  0  0  0  0  0  0
  1  4  1  0  0  0  0
  2 14  1  0  0  0  0
  2 40  1  0  0  0  0
  3 36  1  0  0  0  0
  3 14  1  0  0  0  0
  4 66  1  0  0  0  0
  4 10  1  0  0  0  0
  5 24  1  0  0  0  0
  5 41  1  0  0  0  0
  5  2  1  0  0  0  0
  6  4  1  0  0  0  0
  6  9  1  0  0  0  0
  7  6  1  0  0  0  0
  8  6  1  0  0  0  0
 10 11  1  0  0  0  0
 10 13  1  0  0  0  0
 12 10  1  0  0  0  0
 14 16  1  0  0  0  0
 14 15  1  0  0  0  0
 17  1  1  0  0  0  0
 17  3  1  0  0  0  0
 18 17  1  0  0  0  0
 19 17  1  0  0  0  0
 20 21  1  0  0  0  0
 20 23  1  0  0  0  0
 22 20  1  0  0  0  0
 24 26  1  0  0  0  0
 24 25  1  0  0  0  0
 27 24  1  0  0  0  0
 28 29  1  0  0  0  0
 28  3  1  0  0  0  0
 30 28  1  0  0  0  0
 31 28  1  0  0  0  0
 32  5  1  0  0  0  0
 33 32  1  0  0  0  0
 34 32  1  0  0  0  0
 35 32  1  0  0  0  0
 36 39  1  0  0  0  0
 36 38  1  0  0  0  0
 37 36  1  0  0  0  0
 40 58  1  0  0  0  0
 40 20  1  0  0  0  0
 41 44  1  0  0  0  0
 42 41  1  0  0  0  0
 43 41  1  0  0  0  0
 45 50  1  0  0  0  0
 45  1  1  0  0  0  0
 46 49  1  0  0  0  0
 46 45  1  0  0  0  0
 47 46  1  0  0  0  0
 48 46  1  0  0  0  0
 50 51  1  0  0  0  0
 50 52  1  0  0  0  0
 53 50  1  0  0  0  0
 54 55  1  0  0  0  0
 54 45  1  0  0  0  0
 56 54  1  0  0  0  0
 57 54  1  0  0  0  0
 58 60  1  0  0  0  0
 58 61  1  0  0  0  0
 59 58  1  0  0  0  0
 62 40  1  0  0  0  0
 62 63  1  0  0  0  0
 64 62  1  0  0  0  0
 65 62  1  0  0  0  0
 66 69  1  0  0  0  0
 66 67  1  0  0  0  0
 68 66  1  0  0  0  0
M  END
