1,2
q = 0.0, confidence = 0.984

 52 56  0  0  1  0  0  0  0  0999 V2000
    1.4482   -0.4307   -0.0840 P   0  0  1  0  0  0  0  0  0  0  0  0
   -1.2238   -1.4334    0.1960 P   0  0  2  0  0  0  0  0  0  0  0  0
    1.2712   -2.0583   -1.0341 C   0  0  1  0  0  0  0  0  0  0  0  0
    0.9007   -1.9306   -2.0661 H   0  0  0  0  0  0  0  0  0  0  0  0
    2.6562   -2.6580   -0.8821 C   0  0  0  0  0  0  0  0  0  0  0  0
    3.3315   -3.3268   -2.0346 C   0  0  0  0  0  0  0  0  0  0  0  0
    4.3496   -3.6808   -1.7827 H   0  0  0  0  0  0  0  0  0  0  0  0
    3.4172   -2.6297   -2.8969 H   0  0  0  0  0  0  0  0  0  0  0  0
    2.7439   -4.1984   -2.3969 H   0  0  0  0  0  0  0  0  0  0  0  0
    3.1479   -2.4142    0.3678 C   0  0  0  0  0  0  0  0  0  0  0  0
    4.4945   -2.7404    0.9257 C   0  0  0  0  0  0  0  0  0  0  0  0
    5.1471   -3.2391    0.1835 H   0  0  0  0  0  0  0  0  0  0  0  0
    4.4229   -3.4007    1.8174 H   0  0  0  0  0  0  0  0  0  0  0  0
    5.0088   -1.8117    1.2580 H   0  0  0  0  0  0  0  0  0  0  0  0
    2.0858   -1.7372    1.2174 C   0  0  2  0  0  0  0  0  0  0  0  0
    2.4497   -1.3554    2.1901 H   0  0  0  0  0  0  0  0  0  0  0  0
    0.8704   -2.7669    1.3411 C   0  0  2  0  0  0  0  0  0  0  0  0
    1.3611   -4.2013    1.6299 C   0  0  0  0  0  0  0  0  0  0  0  0
    0.4880   -4.8715    1.7673 H   0  0  0  0  0  0  0  0  0  0  0  0
    1.9772   -4.2460    2.5508 H   0  0  0  0  0  0  0  0  0  0  0  0
    1.9700   -4.5935    0.7955 H   0  0  0  0  0  0  0  0  0  0  0  0
    0.2091   -2.6658   -0.0749 C   0  0  1  0  0  0  0  0  0  0  0  0
   -0.1986   -3.6357   -0.4207 H   0  0  0  0  0  0  0  0  0  0  0  0
   -0.1608   -2.3866    2.4070 C   0  0  0  0  0  0  0  0  0  0  0  0
    0.1583   -2.6004    3.8594 C   0  0  0  0  0  0  0  0  0  0  0  0
   -0.5944   -2.1208    4.5131 H   0  0  0  0  0  0  0  0  0  0  0  0
    1.1573   -2.1877    4.1205 H   0  0  0  0  0  0  0  0  0  0  0  0
    0.1976   -3.6809    4.1118 H   0  0  0  0  0  0  0  0  0  0  0  0
   -1.3217   -1.8551    1.9556 C   0  0  0  0  0  0  0  0  0  0  0  0
   -2.1097   -1.4754    2.6241 H   0  0  0  0  0  0  0  0  0  0  0  0
   -2.6736   -2.2077   -0.6315 C   0  0  0  0  0  0  0  0  0  0  0  0
   -3.6143   -2.9574    0.1034 C   0  0  0  0  0  0  0  0  0  0  0  0
   -3.4931   -3.0748    1.1910 H   0  0  0  0  0  0  0  0  0  0  0  0
   -4.7005   -3.5607   -0.5494 C   0  0  0  0  0  0  0  0  0  0  0  0
   -5.4343   -4.1394    0.0326 H   0  0  0  0  0  0  0  0  0  0  0  0
   -4.8494   -3.4290   -1.9390 C   0  0  0  0  0  0  0  0  0  0  0  0
   -5.7013   -3.9040   -2.4494 H   0  0  0  0  0  0  0  0  0  0  0  0
   -3.9093   -2.6888   -2.6750 C   0  0  0  0  0  0  0  0  0  0  0  0
   -4.0226   -2.5814   -3.7648 H   0  0  0  0  0  0  0  0  0  0  0  0
   -2.8262   -2.0745   -2.0289 C   0  0  0  0  0  0  0  0  0  0  0  0
   -2.0984   -1.4653   -2.5928 H   0  0  0  0  0  0  0  0  0  0  0  0
    2.9917    0.3800   -0.6447 C   0  0  0  0  0  0  0  0  0  0  0  0
    3.3139    0.4254   -2.0168 C   0  0  0  0  0  0  0  0  0  0  0  0
    2.6626   -0.0806   -2.7453 H   0  0  0  0  0  0  0  0  0  0  0  0
    4.4327    1.1519   -2.4510 C   0  0  0  0  0  0  0  0  0  0  0  0
    4.6796    1.1830   -3.5234 H   0  0  0  0  0  0  0  0  0  0  0  0
    5.2297    1.8454   -1.5249 C   0  0  0  0  0  0  0  0  0  0  0  0
    6.1044    2.4178   -1.8692 H   0  0  0  0  0  0  0  0  0  0  0  0
    4.9004    1.8170   -0.1603 C   0  0  0  0  0  0  0  0  0  0  0  0
    5.5137    2.3703    0.5673 H   0  0  0  0  0  0  0  0  0  0  0  0
    3.7828    1.0908    0.2789 C   0  0  0  0  0  0  0  0  0  0  0  0
    3.5154    1.0884    1.3477 H   0  0  0  0  0  0  0  0  0  0  0  0
  1 42  1  6  0  0  0
  1 15  1  0  0  0  0
  2 31  1  6  0  0  0
  2 29  1  0  0  0  0
  3  4  1  6  0  0  0
  3  5  1  0  0  0  0
  3  1  1  0  0  0  0
  3 22  1  0  0  0  0
  5 10  2  0  0  0  0
  6  7  1  0  0  0  0
  6  5  1  0  0  0  0
  8  6  1  0  0  0  0
  9  6  1  0  0  0  0
 10 11  1  0  0  0  0
 10 15  1  0  0  0  0
 11 14  1  0  0  0  0
 11 13  1  0  0  0  0
 12 11  1  0  0  0  0
 15 17  1  0  0  0  0
 15 16  1  1  0  0  0
 17 18  1  1  0  0  0
 17 24  1  0  0  0  0
 18 19  1  0  0  0  0
 18 20  1  0  0  0  0
 21 18  1  0  0  0  0
 22 23  1  6  0  0  0
 22  2  1  0  0  0  0
 22 17  1  0  0  0  0
 24 25  1  0  0  0  0
 25 28  1  0  0  0  0
 25 27  1  0  0  0  0
 25 26  1  0  0  0  0
 29 24  2  0  0  0  0
 29 30  1  0  0  0  0
 31 32  1  0  0  0  0
 32 33  1  0  0  0  0
 34 35  1  0  0  0  0
 34 32  2  0  0  0  0
 36 34  1  0  0  0  0
 37 36  1  0  0  0  0
 38 40  1  0  0  0  0
 38 36  2  0  0  0  0
 39 38  1  0  0  0  0
 40 31  2  0  0  0  0
 41 40  1  0  0  0  0
 42 51  1  0  0  0  0
 43 42  2  0  0  0  0
 44 43  1  0  0  0  0
 45 43  1  0  0  0  0
 45 47  2  0  0  0  0
 46 45  1  0  0  0  0
 47 49  1  0  0  0  0
 48 47  1  0  0  0  0
 49 51  2  0  0  0  0
 49 50  1  0  0  0  0
 51 52  1  0  0  0  0
M  END
