1,2
q = 0.0, confidence = 0.994

 65 69  0  0  0  0  0  0  0  0999 V2000
   -1.7692    0.1095   -0.3722 P   0  0  0  0  0  0  0  0  0  0  0  0
    1.5280   -0.7723   -0.1110 P   0  0  0  0  0  0  0  0  0  0  0  0
    0.0457    2.3948    0.2637 O   0  0  0  0  0  0  0  0  0  0  0  0
   -0.0584    2.9713    1.0434 H   0  0  0  0  0  0  0  0  0  0  0  0
    0.4487    0.9521   -2.0415 N   0  0  0  0  0  0  0  0  0  0  0  0
   -2.7360    1.5247    0.2988 C   0  0  0  0  0  0  0  0  0  0  0  0
   -2.6581    1.8750    1.6614 C   0  0  0  0  0  0  0  0  0  0  0  0
   -2.0785    1.2364    2.3451 H   0  0  0  0  0  0  0  0  0  0  0  0
   -3.3558    2.9952    2.1373 C   0  0  0  0  0  0  0  0  0  0  0  0
   -3.2936    3.2589    3.2043 H   0  0  0  0  0  0  0  0  0  0  0  0
   -4.1432    3.7662    1.2661 C   0  0  0  0  0  0  0  0  0  0  0  0
   -4.6922    4.6418    1.6450 H   0  0  0  0  0  0  0  0  0  0  0  0
   -4.2397    3.4080   -0.0874 C   0  0  0  0  0  0  0  0  0  0  0  0
   -4.8665    3.9972   -0.7738 H   0  0  0  0  0  0  0  0  0  0  0  0
   -3.5387    2.2921   -0.5705 C   0  0  0  0  0  0  0  0  0  0  0  0
   -3.6372    2.0133   -1.6315 H   0  0  0  0  0  0  0  0  0  0  0  0
   -3.0263   -1.0391   -1.0580 C   0  0  0  0  0  0  0  0  0  0  0  0
   -4.3839   -0.9683   -0.6908 C   0  0  0  0  0  0  0  0  0  0  0  0
   -4.7229   -0.1842    0.0004 H   0  0  0  0  0  0  0  0  0  0  0  0
   -5.2963   -1.9095   -1.1906 C   0  0  0  0  0  0  0  0  0  0  0  0
   -6.3548   -1.8478   -0.8956 H   0  0  0  0  0  0  0  0  0  0  0  0
   -4.8638   -2.9322   -2.0487 C   0  0  0  0  0  0  0  0  0  0  0  0
   -5.5827   -3.6703   -2.4350 H   0  0  0  0  0  0  0  0  0  0  0  0
   -3.5068   -3.0213   -2.3993 C   0  0  0  0  0  0  0  0  0  0  0  0
   -3.1560   -3.8325   -3.0551 H   0  0  0  0  0  0  0  0  0  0  0  0
   -2.5915   -2.0848   -1.9003 C   0  0  0  0  0  0  0  0  0  0  0  0
   -1.5231   -2.1878   -2.1493 H   0  0  0  0  0  0  0  0  0  0  0  0
   -0.9805    0.7975   -1.9774 C   0  0  0  0  0  0  0  0  0  0  0  0
   -1.3123    0.0958   -2.7749 H   0  0  0  0  0  0  0  0  0  0  0  0
   -1.4578    1.7754   -2.1778 H   0  0  0  0  0  0  0  0  0  0  0  0
    1.0678    2.2179   -1.8516 C   0  0  0  0  0  0  0  0  0  0  0  0
    1.9465    2.7305   -2.8232 C   0  0  0  0  0  0  0  0  0  0  0  0
    2.0943    2.1479   -3.7453 H   0  0  0  0  0  0  0  0  0  0  0  0
    2.6199    3.9446   -2.6253 C   0  0  0  0  0  0  0  0  0  0  0  0
    3.3055    4.3270   -3.3954 H   0  0  0  0  0  0  0  0  0  0  0  0
    2.3956    4.6760   -1.4477 C   0  0  0  0  0  0  0  0  0  0  0  0
    2.9117    5.6334   -1.2820 H   0  0  0  0  0  0  0  0  0  0  0  0
    1.5141    4.1908   -0.4718 C   0  0  0  0  0  0  0  0  0  0  0  0
    1.3531    4.7481    0.4650 H   0  0  0  0  0  0  0  0  0  0  0  0
    0.8606    2.9612   -0.6613 C   0  0  0  0  0  0  0  0  0  0  0  0
    1.2550   -0.2343   -1.9016 C   0  0  0  0  0  0  0  0  0  0  0  0
    2.2414   -0.1053   -2.3922 H   0  0  0  0  0  0  0  0  0  0  0  0
    0.7632   -1.0983   -2.3983 H   0  0  0  0  0  0  0  0  0  0  0  0
    2.4253   -2.3472   -0.3724 C   0  0  0  0  0  0  0  0  0  0  0  0
    1.6573   -3.5173   -0.5495 C   0  0  0  0  0  0  0  0  0  0  0  0
    0.5638   -3.4741   -0.4197 H   0  0  0  0  0  0  0  0  0  0  0  0
    2.2899   -4.7315   -0.8461 C   0  0  0  0  0  0  0  0  0  0  0  0
    1.6869   -5.6432   -0.9736 H   0  0  0  0  0  0  0  0  0  0  0  0
    3.6896   -4.7895   -0.9551 C   0  0  0  0  0  0  0  0  0  0  0  0
    4.1856   -5.7468   -1.1761 H   0  0  0  0  0  0  0  0  0  0  0  0
    4.4554   -3.6289   -0.7658 C   0  0  0  0  0  0  0  0  0  0  0  0
    5.5530   -3.6740   -0.8345 H   0  0  0  0  0  0  0  0  0  0  0  0
    3.8279   -2.4069   -0.4771 C   0  0  0  0  0  0  0  0  0  0  0  0
    4.4333   -1.5029   -0.3126 H   0  0  0  0  0  0  0  0  0  0  0  0
    2.7185    0.4611    0.5513 C   0  0  0  0  0  0  0  0  0  0  0  0
    3.6709    1.0962   -0.2734 C   0  0  0  0  0  0  0  0  0  0  0  0
    3.7547    0.8413   -1.3392 H   0  0  0  0  0  0  0  0  0  0  0  0
    4.5136    2.0871    0.2508 C   0  0  0  0  0  0  0  0  0  0  0  0
    5.2403    2.5857   -0.4078 H   0  0  0  0  0  0  0  0  0  0  0  0
    4.4148    2.4502    1.6026 C   0  0  0  0  0  0  0  0  0  0  0  0
    5.0712    3.2335    2.0116 H   0  0  0  0  0  0  0  0  0  0  0  0
    3.4793    1.8098    2.4313 C   0  0  0  0  0  0  0  0  0  0  0  0
    3.4072    2.0804    3.4958 H   0  0  0  0  0  0  0  0  0  0  0  0
    2.6325    0.8191    1.9130 C   0  0  0  0  0  0  0  0  0  0  0  0
    1.9125    0.2903    2.5582 H   0  0  0  0  0  0  0  0  0  0  0  0
  1  6  1  0  0  0  0
  2 55  1  0  0  0  0
  3  4  1  0  0  0  0
  5 28  1  0  0  0  0
  5 41  1  0  0  0  0
  5 31  1  0  0  0  0
  6  7  1  0  0  0  0
  7  9  2  0  0  0  0
  7  8  1  0  0  0  0
  9 10  1  0  0  0  0
 11 12  1  0  0  0  0
 11  9  1  0  0  0  0
 13 11  2  0  0  0  0
 14 13  1  0  0  0  0
 15 13  1  0  0  0  0
 15  6  2  0  0  0  0
 16 15  1  0  0  0  0
 17 18  1  0  0  0  0
 17  1  1  0  0  0  0
 18 19  1  0  0  0  0
 20 21  1  0  0  0  0
 20 18  2  0  0  0  0
 22 20  1  0  0  0  0
 23 22  1  0  0  0  0
 24 22  2  0  0  0  0
 24 26  1  0  0  0  0
 25 24  1  0  0  0  0
 26 17  2  0  0  0  0
 27 26  1  0  0  0  0
 28  1  1  0  0  0  0
 29 28  1  0  0  0  0
 30 28  1  0  0  0  0
 31 40  1  0  0  0  0
 32 34  1  0  0  0  0
 32 31  2  0  0  0  0
 33 32  1  0  0  0  0
 34 36  2  0  0  0  0
 35 34  1  0  0  0  0
 36 37  1  0  0  0  0
 36 38  1  0  0  0  0
 38 39  1  0  0  0  0
 40 38  2  0  0  0  0
 40  3  1  0  0  0  0
 41  2  1  0  0  0  0
 42 41  1  0  0  0  0
 43 41  1  0  0  0  0
 44  2  1  0  0  0  0
 45 46  1  0  0  0  0
 45 44  2  0  0  0  0
 47 45  1  0  0  0  0
 48 47  1  0  0  0  0
 49 47  2  0  0  0  0
 49 51  1  0  0  0  0
 50 49  1  0  0  0  0
 51 53  2  0  0  0  0
 52 51  1  0  0  0  0
 53 44  1  0  0  0  0
 53 54  1  0  0  0  0
 55 64  1  0  0  0  0
 56 58  1  0  0  0  0
 56 55  2  0  0  0  0
 57 56  1  0  0  0  0
 58 60  2  0  0  0  0
 59 58  1  0  0  0  0
 60 61  1  0  0  0  0
 60 62  1  0  0  0  0
 62 63  1  0  0  0  0
 64 62  2  0  0  0  0
 64 65  1  0  0  0  0
M  END
