1,2
q = 0.0, confidence = 0.992

 77 80  0  0  1  0  0  0  0  0999 V2000
   -1.6299    0.1005    0.2318 P   0  0  0  0  0  0  0  0  0  0  0  0
    1.6299   -0.1005    0.2319 P   0  0  0  0  0  0  0  0  0  0  0  0
   -1.6191    2.7667   -0.8253 O   0  0  0  0  0  0  0  0  0  0  0  0
   -3.0069   -1.1345    2.7834 O   0  0  0  0  0  0  0  0  0  0  0  0
    3.0070    1.1344    2.7836 O   0  0  0  0  0  0  0  0  0  0  0  0
    1.6191   -2.7667   -0.8255 O   0  0  0  0  0  0  0  0  0  0  0  0
   -3.1187    1.0636   -0.2066 C   0  0  0  0  0  0  0  0  0  0  0  0
   -4.4242    0.5620   -0.0882 C   0  0  0  0  0  0  0  0  0  0  0  0
   -4.5830   -0.4344    0.3490 H   0  0  0  0  0  0  0  0  0  0  0  0
   -5.5169    1.3045   -0.5625 C   0  0  0  0  0  0  0  0  0  0  0  0
   -6.5362    0.9018   -0.4708 H   0  0  0  0  0  0  0  0  0  0  0  0
   -5.2963    2.5447   -1.1794 C   0  0  0  0  0  0  0  0  0  0  0  0
   -6.1461    3.1227   -1.5737 H   0  0  0  0  0  0  0  0  0  0  0  0
   -3.9977    3.0606   -1.3097 C   0  0  0  0  0  0  0  0  0  0  0  0
   -3.8353    4.0286   -1.8027 H   0  0  0  0  0  0  0  0  0  0  0  0
   -2.9077    2.3316   -0.8028 C   0  0  0  0  0  0  0  0  0  0  0  0
   -1.2067    3.6020   -1.9031 C   0  0  0  0  0  0  0  0  0  0  0  0
   -1.4592    3.1234   -2.8722 H   0  0  0  0  0  0  0  0  0  0  0  0
   -0.1093    3.6903   -1.8147 H   0  0  0  0  0  0  0  0  0  0  0  0
   -1.6568    4.6165   -1.8357 H   0  0  0  0  0  0  0  0  0  0  0  0
   -2.2761   -1.5962    0.5726 C   0  0  0  0  0  0  0  0  0  0  0  0
   -2.1898   -2.4950   -0.5113 C   0  0  0  0  0  0  0  0  0  0  0  0
   -1.7742   -2.1189   -1.4616 H   0  0  0  0  0  0  0  0  0  0  0  0
   -2.6482   -3.8158   -0.4048 C   0  0  0  0  0  0  0  0  0  0  0  0
   -2.5761   -4.4926   -1.2687 H   0  0  0  0  0  0  0  0  0  0  0  0
   -3.1974   -4.2578    0.8056 C   0  0  0  0  0  0  0  0  0  0  0  0
   -3.5495   -5.2953    0.9121 H   0  0  0  0  0  0  0  0  0  0  0  0
   -3.3170   -3.3805    1.8937 C   0  0  0  0  0  0  0  0  0  0  0  0
   -3.7638   -3.7396    2.8299 H   0  0  0  0  0  0  0  0  0  0  0  0
   -2.8753   -2.0461    1.7789 C   0  0  0  0  0  0  0  0  0  0  0  0
   -3.6177   -1.5288    3.9990 C   0  0  0  0  0  0  0  0  0  0  0  0
   -4.6637   -1.8726    3.8420 H   0  0  0  0  0  0  0  0  0  0  0  0
   -3.6260   -0.6309    4.6446 H   0  0  0  0  0  0  0  0  0  0  0  0
   -3.0443   -2.3356    4.5068 H   0  0  0  0  0  0  0  0  0  0  0  0
    2.2761    1.5961    0.5728 C   0  0  0  0  0  0  0  0  0  0  0  0
    2.1898    2.4949   -0.5111 C   0  0  0  0  0  0  0  0  0  0  0  0
    1.7742    2.1189   -1.4614 H   0  0  0  0  0  0  0  0  0  0  0  0
    2.6482    3.8158   -0.4046 C   0  0  0  0  0  0  0  0  0  0  0  0
    2.5761    4.4926   -1.2685 H   0  0  0  0  0  0  0  0  0  0  0  0
    3.1974    4.2577    0.8058 C   0  0  0  0  0  0  0  0  0  0  0  0
    3.5494    5.2952    0.9124 H   0  0  0  0  0  0  0  0  0  0  0  0
    3.3169    3.3804    1.8939 C   0  0  0  0  0  0  0  0  0  0  0  0
    3.7638    3.7395    2.8301 H   0  0  0  0  0  0  0  0  0  0  0  0
    2.8753    2.0460    1.7791 C   0  0  0  0  0  0  0  0  0  0  0  0
    3.6177    1.5287    3.9992 C   0  0  0  0  0  0  0  0  0  0  0  0
    4.6637    1.8725    3.8422 H   0  0  0  0  0  0  0  0  0  0  0  0
    3.6260    0.6308    4.6448 H   0  0  0  0  0  0  0  0  0  0  0  0
    3.0443    2.3355    4.5070 H   0  0  0  0  0  0  0  0  0  0  0  0
    3.1187   -1.0636   -0.2066 C   0  0  0  0  0  0  0  0  0  0  0  0
    4.4242   -0.5621   -0.0882 C   0  0  0  0  0  0  0  0  0  0  0  0
    4.5830    0.4343    0.3492 H   0  0  0  0  0  0  0  0  0  0  0  0
    5.5169   -1.3044   -0.5625 C   0  0  0  0  0  0  0  0  0  0  0  0
    6.5362   -0.9017   -0.4708 H   0  0  0  0  0  0  0  0  0  0  0  0
    5.2963   -2.5446   -1.1795 C   0  0  0  0  0  0  0  0  0  0  0  0
    6.1461   -3.1225   -1.5739 H   0  0  0  0  0  0  0  0  0  0  0  0
    3.9978   -3.0605   -1.3099 C   0  0  0  0  0  0  0  0  0  0  0  0
    3.8354   -4.0285   -1.8030 H   0  0  0  0  0  0  0  0  0  0  0  0
    2.9078   -2.3316   -0.8029 C   0  0  0  0  0  0  0  0  0  0  0  0
    1.2068   -3.6018   -1.9035 C   0  0  0  0  0  0  0  0  0  0  0  0
    1.4593   -3.1231   -2.8725 H   0  0  0  0  0  0  0  0  0  0  0  0
    0.1094   -3.6903   -1.8150 H   0  0  0  0  0  0  0  0  0  0  0  0
    1.6570   -4.6164   -1.8362 H   0  0  0  0  0  0  0  0  0  0  0  0
   -1.8823    1.7348    2.6254 C   0  0  0  0  0  0  0  0  0  0  0  0
   -2.6486    1.0835    3.0816 H   0  0  0  0  0  0  0  0  0  0  0  0
   -2.3991    2.5176    2.0388 H   0  0  0  0  0  0  0  0  0  0  0  0
   -1.3171    2.2395    3.4376 H   0  0  0  0  0  0  0  0  0  0  0  0
   -0.9090    0.9434    1.7525 C   0  0  1  0  0  0  0  0  0  0  0  0
   -0.2661    1.6870    1.2323 H   0  0  0  0  0  0  0  0  0  0  0  0
   -0.0001   -0.0002    2.5590 C   0  0  0  0  0  0  0  0  0  0  0  0
   -0.6327   -0.6275    3.2216 H   0  0  0  0  0  0  0  0  0  0  0  0
    0.6325    0.6271    3.2218 H   0  0  0  0  0  0  0  0  0  0  0  0
    0.9088   -0.9436    1.7524 C   0  0  2  0  0  0  0  0  0  0  0  0
    0.2660   -1.6871    1.2321 H   0  0  0  0  0  0  0  0  0  0  0  0
    1.8820   -1.7353    2.6252 C   0  0  0  0  0  0  0  0  0  0  0  0
    2.6483   -1.0841    3.0816 H   0  0  0  0  0  0  0  0  0  0  0  0
    2.3988   -2.5180    2.0385 H   0  0  0  0  0  0  0  0  0  0  0  0
    1.3167   -2.2401    3.4372 H   0  0  0  0  0  0  0  0  0  0  0  0
  1 21  1  0  0  0  0
  1 67  1  0  0  0  0
  2 35  1  0  0  0  0
  2 72  1  0  0  0  0
  3 16  1  0  0  0  0
  4 31  1  0  0  0  0
  5 45  1  0  0  0  0
  6 58  1  0  0  0  0
  7  8  1  0  0  0  0
  7  1  1  0  0  0  0
  8  9  1  0  0  0  0
 10 11  1  0  0  0  0
 10  8  2  0  0  0  0
 12 10  1  0  0  0  0
 13 12  1  0  0  0  0
 14 12  2  0  0  0  0
 14 16  1  0  0  0  0
 15 14  1  0  0  0  0
 16  7  2  0  0  0  0
 17 20  1  0  0  0  0
 17 19  1  0  0  0  0
 17  3  1  0  0  0  0
 18 17  1  0  0  0  0
 21 30  1  0  0  0  0
 22 24  1  0  0  0  0
 22 21  2  0  0  0  0
 23 22  1  0  0  0  0
 24 26  2  0  0  0  0
 25 24  1  0  0  0  0
 26 27  1  0  0  0  0
 26 28  1  0  0  0  0
 28 29  1  0  0  0  0
 30 28  2  0  0  0  0
 30  4  1  0  0  0  0
 31 34  1  0  0  0  0
 31 33  1  0  0  0  0
 32 31  1  0  0  0  0
 35 44  1  0  0  0  0
 36 38  1  0  0  0  0
 36 35  2  0  0  0  0
 37 36  1  0  0  0  0
 38 40  2  0  0  0  0
 39 38  1  0  0  0  0
 40 41  1  0  0  0  0
 40 42  1  0  0  0  0
 42 43  1  0  0  0  0
 44 42  2  0  0  0  0
 44  5  1  0  0  0  0
 45 48  1  0  0  0  0
 45 47  1  0  0  0  0
 46 45  1  0  0  0  0
 49 50  1  0  0  0  0
 49  2  1  0  0  0  0
 50 51  1  0  0  0  0
 52 53  1  0  0  0  0
 52 50  2  0  0  0  0
 54 52  1  0  0  0  0
 55 54  1  0  0  0  0
 56 54  2  0  0  0  0
 56 58  1  0  0  0  0
 57 56  1  0  0  0  0
 58 49  2  0  0  0  0
 59 62  1  0  0  0  0
 59 61  1  0  0  0  0
 59  6  1  0  0  0  0
 60 59  1  0  0  0  0
 63 64  1  0  0  0  0
 63 66  1  0  0  0  0
 65 63  1  0  0  0  0
 67 68  1  6  0  0  0
 67 69  1  0  0  0  0
 67 63  1  0  0  0  0
 69 70  1  0  0  0  0
 69 71  1  0  0  0  0
 72 73  1  6  0  0  0
 72 69  1  0  0  0  0
 72 74  1  0  0  0  0
 74 75  1  0  0  0  0
 74 77  1  0  0  0  0
 76 74  1  0  0  0  0
M  END
