1,2
q = 0.0, confidence = 0.98

 68 72  0  0  1  0  0  0  0  0999 V2000
    1.7114   -0.9427   -0.3264 P   0  0  0  0  0  0  0  0  0  0  0  0
   -1.6142   -1.0585   -0.1236 P   0  0  0  0  0  0  0  0  0  0  0  0
    1.2071   -1.8932   -3.0721 C   0  0  2  0  0  0  0  0  0  0  0  0
    1.9474   -1.1875   -3.5052 H   0  0  0  0  0  0  0  0  0  0  0  0
   -0.1750   -1.2158   -3.1621 C   0  0  0  0  0  0  0  0  0  0  0  0
   -0.1907   -0.2857   -2.5482 H   0  0  0  0  0  0  0  0  0  0  0  0
   -0.3094   -0.8833   -4.2135 H   0  0  0  0  0  0  0  0  0  0  0  0
   -1.3724   -2.1222   -2.8099 C   0  0  1  0  0  0  0  0  0  0  0  0
   -2.2955   -1.5741   -3.0944 H   0  0  0  0  0  0  0  0  0  0  0  0
   -1.3137   -3.4036   -3.6724 C   0  0  0  0  0  0  0  0  0  0  0  0
   -2.1344   -4.0958   -3.3877 H   0  0  0  0  0  0  0  0  0  0  0  0
   -1.5037   -3.1133   -4.7288 H   0  0  0  0  0  0  0  0  0  0  0  0
    0.0445   -4.1147   -3.5952 C   0  0  0  0  0  0  0  0  0  0  0  0
    0.0513   -4.9885   -4.2790 H   0  0  0  0  0  0  0  0  0  0  0  0
    0.1949   -4.5394   -2.5776 H   0  0  0  0  0  0  0  0  0  0  0  0
    1.2011   -3.1679   -3.9477 C   0  0  0  0  0  0  0  0  0  0  0  0
    1.0994   -2.8576   -5.0104 H   0  0  0  0  0  0  0  0  0  0  0  0
    2.1755   -3.6950   -3.8680 H   0  0  0  0  0  0  0  0  0  0  0  0
    1.7030   -2.2506   -1.6549 C   0  0  0  0  0  0  0  0  0  0  0  0
    2.7537   -2.6022   -1.7222 H   0  0  0  0  0  0  0  0  0  0  0  0
    1.1235   -3.0959   -1.2385 H   0  0  0  0  0  0  0  0  0  0  0  0
   -1.5226   -2.4800   -1.3156 C   0  0  0  0  0  0  0  0  0  0  0  0
   -0.6976   -3.1299   -0.9690 H   0  0  0  0  0  0  0  0  0  0  0  0
   -2.4611   -3.0545   -1.1662 H   0  0  0  0  0  0  0  0  0  0  0  0
    3.3326   -0.1274   -0.5856 C   0  0  0  0  0  0  0  0  0  0  0  0
    3.5311    0.6248   -1.7631 C   0  0  0  0  0  0  0  0  0  0  0  0
    2.7131    0.7458   -2.4883 H   0  0  0  0  0  0  0  0  0  0  0  0
    4.7554    1.2692   -1.9834 C   0  0  0  0  0  0  0  0  0  0  0  0
    4.8980    1.8682   -2.8948 H   0  0  0  0  0  0  0  0  0  0  0  0
    5.7782    1.1832   -1.0258 C   0  0  0  0  0  0  0  0  0  0  0  0
    6.7313    1.7076   -1.1909 H   0  0  0  0  0  0  0  0  0  0  0  0
    5.5754    0.4504    0.1530 C   0  0  0  0  0  0  0  0  0  0  0  0
    6.3670    0.3990    0.9153 H   0  0  0  0  0  0  0  0  0  0  0  0
    4.3550   -0.2024    0.3790 C   0  0  0  0  0  0  0  0  0  0  0  0
    4.1901   -0.7561    1.3142 H   0  0  0  0  0  0  0  0  0  0  0  0
    1.8721   -1.9025    1.2258 C   0  0  0  0  0  0  0  0  0  0  0  0
    2.2810   -3.2528    1.2472 C   0  0  0  0  0  0  0  0  0  0  0  0
    2.5330   -3.7823    0.3174 H   0  0  0  0  0  0  0  0  0  0  0  0
    2.3833   -3.9355    2.4683 C   0  0  0  0  0  0  0  0  0  0  0  0
    2.7023   -4.9888    2.4782 H   0  0  0  0  0  0  0  0  0  0  0  0
    2.0838   -3.2765    3.6705 C   0  0  0  0  0  0  0  0  0  0  0  0
    2.1599   -3.8159    4.6270 H   0  0  0  0  0  0  0  0  0  0  0  0
    1.6894   -1.9295    3.6515 C   0  0  0  0  0  0  0  0  0  0  0  0
    1.4546   -1.4074    4.5907 H   0  0  0  0  0  0  0  0  0  0  0  0
    1.5798   -1.2389    2.4369 C   0  0  0  0  0  0  0  0  0  0  0  0
    1.2969   -0.1744    2.4114 H   0  0  0  0  0  0  0  0  0  0  0  0
   -1.6374   -1.8334    1.5367 C   0  0  0  0  0  0  0  0  0  0  0  0
   -1.4536   -3.2165    1.7374 C   0  0  0  0  0  0  0  0  0  0  0  0
   -1.3056   -3.8984    0.8887 H   0  0  0  0  0  0  0  0  0  0  0  0
   -1.4554   -3.7436    3.0377 C   0  0  0  0  0  0  0  0  0  0  0  0
   -1.3005   -4.8229    3.1853 H   0  0  0  0  0  0  0  0  0  0  0  0
   -1.6554   -2.9009    4.1411 C   0  0  0  0  0  0  0  0  0  0  0  0
   -1.6607   -3.3196    5.1591 H   0  0  0  0  0  0  0  0  0  0  0  0
   -1.8369   -1.5229    3.9428 C   0  0  0  0  0  0  0  0  0  0  0  0
   -1.9847   -0.8533    4.8036 H   0  0  0  0  0  0  0  0  0  0  0  0
   -1.8147   -0.9814    2.6505 C   0  0  0  0  0  0  0  0  0  0  0  0
   -1.9303    0.1042    2.4893 H   0  0  0  0  0  0  0  0  0  0  0  0
   -3.3062   -0.4134   -0.4175 C   0  0  0  0  0  0  0  0  0  0  0  0
   -4.3651   -0.6637    0.4768 C   0  0  0  0  0  0  0  0  0  0  0  0
   -4.1880   -1.2430    1.3941 H   0  0  0  0  0  0  0  0  0  0  0  0
   -5.6444   -0.1571    0.2049 C   0  0  0  0  0  0  0  0  0  0  0  0
   -6.4638   -0.3453    0.9147 H   0  0  0  0  0  0  0  0  0  0  0  0
   -5.8748    0.5990   -0.9539 C   0  0  0  0  0  0  0  0  0  0  0  0
   -6.8759    1.0095   -1.1538 H   0  0  0  0  0  0  0  0  0  0  0  0
   -4.8225    0.8490   -1.8480 C   0  0  0  0  0  0  0  0  0  0  0  0
   -4.9897    1.4643   -2.7441 H   0  0  0  0  0  0  0  0  0  0  0  0
   -3.5398    0.3525   -1.5809 C   0  0  0  0  0  0  0  0  0  0  0  0
   -2.7074    0.6059   -2.2521 H   0  0  0  0  0  0  0  0  0  0  0  0
  1 36  1  0  0  0  0
  2 47  1  0  0  0  0
  3  4  1  6  0  0  0
  3 19  1  0  0  0  0
  5  3  1  0  0  0  0
  5  8  1  0  0  0  0
  5  6  1  0  0  0  0
  7  5  1  0  0  0  0
  8  9  1  6  0  0  0
  8 22  1  0  0  0  0
 10 13  1  0  0  0  0
 10 11  1  0  0  0  0
 10  8  1  0  0  0  0
 12 10  1  0  0  0  0
 13 15  1  0  0  0  0
 14 13  1  0  0  0  0
 16 18  1  0  0  0  0
 16 13  1  0  0  0  0
 16  3  1  0  0  0  0
 17 16  1  0  0  0  0
 19 21  1  0  0  0  0
 19  1  1  0  0  0  0
 20 19  1  0  0  0  0
 22 24  1  0  0  0  0
 22 23  1  0  0  0  0
 22  2  1  0  0  0  0
 25  1  1  0  0  0  0
 25 34  1  0  0  0  0
 26 25  2  0  0  0  0
 27 26  1  0  0  0  0
 28 26  1  0  0  0  0
 28 30  2  0  0  0  0
 29 28  1  0  0  0  0
 30 32  1  0  0  0  0
 31 30  1  0  0  0  0
 32 34  2  0  0  0  0
 32 33  1  0  0  0  0
 34 35  1  0  0  0  0
 36 37  2  0  0  0  0
 36 45  1  0  0  0  0
 37 39  1  0  0  0  0
 38 37  1  0  0  0  0
 39 40  1  0  0  0  0
 39 41  2  0  0  0  0
 41 42  1  0  0  0  0
 43 41  1  0  0  0  0
 43 44  1  0  0  0  0
 45 43  2  0  0  0  0
 46 45  1  0  0  0  0
 47 48  2  0  0  0  0
 47 56  1  0  0  0  0
 48 50  1  0  0  0  0
 49 48  1  0  0  0  0
 50 51  1  0  0  0  0
 50 52  2  0  0  0  0
 52 53  1  0  0  0  0
 54 52  1  0  0  0  0
 54 55  1  0  0  0  0
 56 54  2  0  0  0  0
 57 56  1  0  0  0  0
 58  2  1  0  0  0  0
 58 59  1  0  0  0  0
 59 60  1  0  0  0  0
 61 59  2  0  0  0  0
 61 62  1  0  0  0  0
 63 61  1  0  0  0  0
 64 63  1  0  0  0  0
 65 67  1  0  0  0  0
 65 63  2  0  0  0  0
 66 65  1  0  0  0  0
 67 58  2  0  0  0  0
 68 67  1  0  0  0  0
M  END
