1,2
q = 0.0, confidence = 0.992

 68 73  0  0  1  0  0  0  0  0999 V2000
   -0.4861   -1.1838   -0.0834 P   0  0  0  0  0  0  0  0  0  0  0  0
    1.2408    0.8265    0.2225 P   0  0  0  0  0  0  0  0  0  0  0  0
   -0.3292    0.3286    0.7965 N   0  0  0  0  0  0  0  0  0  0  0  0
   -1.3035    1.0772    1.6037 C   0  0  2  0  0  0  0  0  0  0  0  0
   -1.7472    0.3036    2.8540 C   0  0  0  0  0  0  0  0  0  0  0  0
   -2.7781    1.1120    3.6396 C   0  0  0  0  0  0  0  0  0  0  0  0
   -4.0498    1.2895    2.8095 C   0  0  0  0  0  0  0  0  0  0  0  0
   -3.7784    1.7262    1.3833 C   0  0  0  0  0  0  0  0  0  0  0  0
   -2.4971    1.6000    0.7933 C   0  0  0  0  0  0  0  0  0  0  0  0
   -2.3200    1.9809   -0.5513 C   0  0  0  0  0  0  0  0  0  0  0  0
   -3.3847    2.4658   -1.3166 C   0  0  0  0  0  0  0  0  0  0  0  0
   -4.6580    2.5861   -0.7373 C   0  0  0  0  0  0  0  0  0  0  0  0
   -4.8423    2.2207    0.6006 C   0  0  0  0  0  0  0  0  0  0  0  0
   -0.5885   -2.5080    1.1660 C   0  0  0  0  0  0  0  0  0  0  0  0
    0.3064   -2.4656    2.2567 C   0  0  0  0  0  0  0  0  0  0  0  0
    0.3184   -3.5074    3.1913 C   0  0  0  0  0  0  0  0  0  0  0  0
   -0.5474   -4.6044    3.0362 C   0  0  0  0  0  0  0  0  0  0  0  0
   -1.4184   -4.6607    1.9379 C   0  0  0  0  0  0  0  0  0  0  0  0
   -1.4398   -3.6176    0.9985 C   0  0  0  0  0  0  0  0  0  0  0  0
   -2.0446   -1.2110   -1.0244 C   0  0  0  0  0  0  0  0  0  0  0  0
   -1.9678   -1.1676   -2.4312 C   0  0  0  0  0  0  0  0  0  0  0  0
   -3.1480   -1.0862   -3.1859 C   0  0  0  0  0  0  0  0  0  0  0  0
   -4.3954   -1.0432   -2.5451 C   0  0  0  0  0  0  0  0  0  0  0  0
   -4.4726   -1.1092   -1.1433 C   0  0  0  0  0  0  0  0  0  0  0  0
   -3.3016   -1.2032   -0.3822 C   0  0  0  0  0  0  0  0  0  0  0  0
    2.3934    0.9646    1.6299 C   0  0  0  0  0  0  0  0  0  0  0  0
    3.7658    0.9592    1.2957 C   0  0  0  0  0  0  0  0  0  0  0  0
    4.7247    1.0625    2.3125 C   0  0  0  0  0  0  0  0  0  0  0  0
    4.3268    1.1635    3.6565 C   0  0  0  0  0  0  0  0  0  0  0  0
    2.9629    1.1562    3.9878 C   0  0  0  0  0  0  0  0  0  0  0  0
    1.9932    1.0558    2.9774 C   0  0  0  0  0  0  0  0  0  0  0  0
    1.1184    2.5171   -0.4480 C   0  0  0  0  0  0  0  0  0  0  0  0
    1.1178    2.6840   -1.8486 C   0  0  0  0  0  0  0  0  0  0  0  0
    0.9374    3.9640   -2.3922 C   0  0  0  0  0  0  0  0  0  0  0  0
    0.7564    5.0713   -1.5476 C   0  0  0  0  0  0  0  0  0  0  0  0
    0.7823    4.9082   -0.1523 C   0  0  0  0  0  0  0  0  0  0  0  0
    0.9761    3.6349    0.4009 C   0  0  0  0  0  0  0  0  0  0  0  0
   -0.8610    0.0570    3.4719 H   0  0  0  0  0  0  0  0  0  0  0  0
   -2.1829   -0.6735    2.5534 H   0  0  0  0  0  0  0  0  0  0  0  0
   -3.0119    0.6149    4.6027 H   0  0  0  0  0  0  0  0  0  0  0  0
   -2.3504    2.1074    3.8935 H   0  0  0  0  0  0  0  0  0  0  0  0
   -4.6000    0.3202    2.7804 H   0  0  0  0  0  0  0  0  0  0  0  0
   -4.7441    2.0074    3.2941 H   0  0  0  0  0  0  0  0  0  0  0  0
   -0.7474    1.9769    1.9558 H   0  0  0  0  0  0  0  0  0  0  0  0
   -1.3314    1.8687   -1.0147 H   0  0  0  0  0  0  0  0  0  0  0  0
   -3.2191    2.7422   -2.3684 H   0  0  0  0  0  0  0  0  0  0  0  0
   -5.5060    2.9640   -1.3284 H   0  0  0  0  0  0  0  0  0  0  0  0
   -5.8395    2.3123    1.0610 H   0  0  0  0  0  0  0  0  0  0  0  0
    0.9978   -1.6158    2.3642 H   0  0  0  0  0  0  0  0  0  0  0  0
    1.0159   -3.4689    4.0415 H   0  0  0  0  0  0  0  0  0  0  0  0
   -0.5328   -5.4247    3.7698 H   0  0  0  0  0  0  0  0  0  0  0  0
   -2.0854   -5.5258    1.8050 H   0  0  0  0  0  0  0  0  0  0  0  0
   -2.1139   -3.6695    0.1311 H   0  0  0  0  0  0  0  0  0  0  0  0
   -0.9817   -1.2275   -2.9192 H   0  0  0  0  0  0  0  0  0  0  0  0
   -3.0884   -1.0576   -4.2842 H   0  0  0  0  0  0  0  0  0  0  0  0
   -5.3179   -0.9656   -3.1407 H   0  0  0  0  0  0  0  0  0  0  0  0
   -5.4501   -1.0786   -0.6396 H   0  0  0  0  0  0  0  0  0  0  0  0
   -3.3669   -1.2559    0.7143 H   0  0  0  0  0  0  0  0  0  0  0  0
    4.0663    0.8429    0.2391 H   0  0  0  0  0  0  0  0  0  0  0  0
    5.7938    1.0506    2.0522 H   0  0  0  0  0  0  0  0  0  0  0  0
    5.0845    1.2394    4.4511 H   0  0  0  0  0  0  0  0  0  0  0  0
    2.6486    1.2268    5.0402 H   0  0  0  0  0  0  0  0  0  0  0  0
    0.9274    1.0403    3.2445 H   0  0  0  0  0  0  0  0  0  0  0  0
    1.2872    1.8071   -2.4933 H   0  0  0  0  0  0  0  0  0  0  0  0
    0.9455    4.0973   -3.4844 H   0  0  0  0  0  0  0  0  0  0  0  0
    0.6094    6.0732   -1.9789 H   0  0  0  0  0  0  0  0  0  0  0  0
    0.6604    5.7797    0.5084 H   0  0  0  0  0  0  0  0  0  0  0  0
    1.0318    3.5124    1.4939 H   0  0  0  0  0  0  0  0  0  0  0  0
  1  3  1  0  0  0  0
  1 14  1  0  0  0  0
  2  3  1  0  0  0  0
  2 26  1  0  0  0  0
  3  4  1  0  0  0  0
  4 44  1  1  0  0  0
  4  5  1  0  0  0  0
  5 38  1  0  0  0  0
  5  6  1  0  0  0  0
  6 41  1  0  0  0  0
  6 40  1  0  0  0  0
  7 43  1  0  0  0  0
  7  6  1  0  0  0  0
  8  7  1  0  0  0  0
  9  8  1  0  0  0  0
  9  4  1  0  0  0  0
 10  9  2  0  0  0  0
 11 12  2  0  0  0  0
 11 10  1  0  0  0  0
 12 13  1  0  0  0  0
 13 48  1  0  0  0  0
 13  8  2  0  0  0  0
 14 15  1  0  0  0  0
 15 49  1  0  0  0  0
 15 16  2  0  0  0  0
 16 50  1  0  0  0  0
 17 16  1  0  0  0  0
 17 51  1  0  0  0  0
 18 17  2  0  0  0  0
 19 14  2  0  0  0  0
 19 18  1  0  0  0  0
 20 25  1  0  0  0  0
 20  1  1  0  0  0  0
 21 20  2  0  0  0  0
 22 23  2  0  0  0  0
 22 21  1  0  0  0  0
 23 24  1  0  0  0  0
 24 57  1  0  0  0  0
 24 25  2  0  0  0  0
 25 58  1  0  0  0  0
 26 31  1  0  0  0  0
 27 26  2  0  0  0  0
 27 28  1  0  0  0  0
 28 29  2  0  0  0  0
 29 30  1  0  0  0  0
 29 61  1  0  0  0  0
 30 62  1  0  0  0  0
 31 63  1  0  0  0  0
 31 30  2  0  0  0  0
 32  2  1  0  0  0  0
 32 37  1  0  0  0  0
 33 32  2  0  0  0  0
 34 33  1  0  0  0  0
 34 35  2  0  0  0  0
 35 36  1  0  0  0  0
 36 37  2  0  0  0  0
 36 67  1  0  0  0  0
 37 68  1  0  0  0  0
 39  5  1  0  0  0  0
 42  7  1  0  0  0  0
 45 10  1  0  0  0  0
 46 11  1  0  0  0  0
 47 12  1  0  0  0  0
 52 18  1  0  0  0  0
 53 19  1  0  0  0  0
 54 21  1  0  0  0  0
 55 22  1  0  0  0  0
 56 23  1  0  0  0  0
 59 27  1  0  0  0  0
 60 28  1  0  0  0  0
 64 33  1  0  0  0  0
 65 34  1  0  0  0  0
 66 35  1  0  0  0  0
M  END
