1,2
q = 0.0, confidence = 0.988

 59 64  0  0  1  0  0  0  0  0999 V2000
   -1.5844    0.0181    0.0448 P   0  0  0  0  0  0  0  0  0  0  0  0
    1.5418   -0.0773    0.1488 P   0  0  0  0  0  0  0  0  0  0  0  0
   -0.5787   -1.9380    1.7391 O   0  0  0  0  0  0  0  0  0  0  0  0
   -0.8174   -0.5171    1.6743 C   0  0  2  0  0  0  0  0  0  0  0  0
   -1.5497   -0.2378    2.9828 C   0  0  0  0  0  0  0  0  0  0  0  0
   -1.0742   -1.1506    3.8536 C   0  0  0  0  0  0  0  0  0  0  0  0
   -0.0299   -1.9367    3.0739 C   0  0  2  0  0  0  0  0  0  0  0  0
    1.1991   -0.9741    2.9123 C   0  0  0  0  0  0  0  0  0  0  0  0
    0.6617    0.0058    1.8356 C   0  0  1  0  0  0  0  0  0  0  0  0
   -3.1993   -0.8189   -0.0726 C   0  0  0  0  0  0  0  0  0  0  0  0
   -4.1307   -0.3289   -1.0159 C   0  0  0  0  0  0  0  0  0  0  0  0
   -5.3771   -0.9544   -1.1483 C   0  0  0  0  0  0  0  0  0  0  0  0
   -5.6984   -2.0703   -0.3578 C   0  0  0  0  0  0  0  0  0  0  0  0
   -4.7655   -2.5668    0.5651 C   0  0  0  0  0  0  0  0  0  0  0  0
   -3.5133   -1.9499    0.7091 C   0  0  0  0  0  0  0  0  0  0  0  0
   -1.9732    1.7771    0.4194 C   0  0  0  0  0  0  0  0  0  0  0  0
   -3.1771    2.1516    1.0523 C   0  0  0  0  0  0  0  0  0  0  0  0
   -3.4084    3.4963    1.3774 C   0  0  0  0  0  0  0  0  0  0  0  0
   -2.4444    4.4725    1.0758 C   0  0  0  0  0  0  0  0  0  0  0  0
   -1.2498    4.1043    0.4372 C   0  0  0  0  0  0  0  0  0  0  0  0
   -1.0164    2.7627    0.1014 C   0  0  0  0  0  0  0  0  0  0  0  0
    2.0821   -2.7987   -0.0179 C   0  0  0  0  0  0  0  0  0  0  0  0
    2.8915   -3.9415    0.0050 C   0  0  0  0  0  0  0  0  0  0  0  0
    4.2758   -3.8238    0.2164 C   0  0  0  0  0  0  0  0  0  0  0  0
    4.8508   -2.5579    0.4053 C   0  0  0  0  0  0  0  0  0  0  0  0
    4.0463   -1.4076    0.3924 C   0  0  0  0  0  0  0  0  0  0  0  0
    2.6166    1.4120    0.2009 C   0  0  0  0  0  0  0  0  0  0  0  0
    3.2173    1.8231    1.4115 C   0  0  0  0  0  0  0  0  0  0  0  0
    4.0156    2.9759    1.4464 C   0  0  0  0  0  0  0  0  0  0  0  0
    4.2170    3.7269    0.2768 C   0  0  0  0  0  0  0  0  0  0  0  0
    3.6256    3.3170   -0.9283 C   0  0  0  0  0  0  0  0  0  0  0  0
    2.8285    2.1628   -0.9737 C   0  0  0  0  0  0  0  0  0  0  0  0
    2.6586   -1.5276    0.1895 C   0  0  0  0  0  0  0  0  0  0  0  0
   -2.2282    0.6053    3.1599 H   0  0  0  0  0  0  0  0  0  0  0  0
   -1.2759   -1.2397    4.9295 H   0  0  0  0  0  0  0  0  0  0  0  0
    0.2053   -2.9677    3.3924 H   0  0  0  0  0  0  0  0  0  0  0  0
    2.0849   -1.5346    2.5595 H   0  0  0  0  0  0  0  0  0  0  0  0
    1.4584   -0.4654    3.8603 H   0  0  0  0  0  0  0  0  0  0  0  0
    0.6819    1.0680    2.1447 H   0  0  0  0  0  0  0  0  0  0  0  0
   -3.8630    0.5219   -1.6580 H   0  0  0  0  0  0  0  0  0  0  0  0
   -6.0990   -0.5720   -1.8855 H   0  0  0  0  0  0  0  0  0  0  0  0
   -6.6780   -2.5598   -0.4689 H   0  0  0  0  0  0  0  0  0  0  0  0
   -5.0088   -3.4475    1.1786 H   0  0  0  0  0  0  0  0  0  0  0  0
   -2.7735   -2.3492    1.4156 H   0  0  0  0  0  0  0  0  0  0  0  0
   -3.9384    1.3897    1.2789 H   0  0  0  0  0  0  0  0  0  0  0  0
   -4.3519    3.7842    1.8656 H   0  0  0  0  0  0  0  0  0  0  0  0
   -2.6315    5.5270    1.3296 H   0  0  0  0  0  0  0  0  0  0  0  0
   -0.4967    4.8655    0.1838 H   0  0  0  0  0  0  0  0  0  0  0  0
   -0.0936    2.4746   -0.4265 H   0  0  0  0  0  0  0  0  0  0  0  0
    1.0001   -2.8814   -0.1989 H   0  0  0  0  0  0  0  0  0  0  0  0
    2.4397   -4.9311   -0.1611 H   0  0  0  0  0  0  0  0  0  0  0  0
    4.9105   -4.7229    0.2211 H   0  0  0  0  0  0  0  0  0  0  0  0
    5.9368   -2.4604    0.5547 H   0  0  0  0  0  0  0  0  0  0  0  0
    4.5015   -0.4155    0.5266 H   0  0  0  0  0  0  0  0  0  0  0  0
    3.0699    1.2414    2.3345 H   0  0  0  0  0  0  0  0  0  0  0  0
    4.4817    3.2888    2.3930 H   0  0  0  0  0  0  0  0  0  0  0  0
    4.8398    4.6339    0.3066 H   0  0  0  0  0  0  0  0  0  0  0  0
    3.7852    3.8989   -1.8487 H   0  0  0  0  0  0  0  0  0  0  0  0
    2.3822    1.8135   -1.9199 H   0  0  0  0  0  0  0  0  0  0  0  0
  1 16  1  0  0  0  0
  2 33  1  0  0  0  0
  2 27  1  0  0  0  0
  2  9  1  0  0  0  0
  3  7  1  0  0  0  0
  4  1  1  6  0  0  0
  4  3  1  0  0  0  0
  4  9  1  0  0  0  0
  4  5  1  0  0  0  0
  5 34  1  0  0  0  0
  5  6  2  0  0  0  0
  6 35  1  0  0  0  0
  7 36  1  1  0  0  0
  7  6  1  0  0  0  0
  8  7  1  0  0  0  0
  8 38  1  0  0  0  0
  9 39  1  1  0  0  0
  9  8  1  0  0  0  0
 10  1  1  0  0  0  0
 10 15  1  0  0  0  0
 11 10  2  0  0  0  0
 12 11  1  0  0  0  0
 12 13  2  0  0  0  0
 13 14  1  0  0  0  0
 14 15  2  0  0  0  0
 14 43  1  0  0  0  0
 15 44  1  0  0  0  0
 16 17  1  0  0  0  0
 17 45  1  0  0  0  0
 17 18  2  0  0  0  0
 18 46  1  0  0  0  0
 19 47  1  0  0  0  0
 19 18  1  0  0  0  0
 20 19  2  0  0  0  0
 21 16  2  0  0  0  0
 21 20  1  0  0  0  0
 22 23  2  0  0  0  0
 22 33  1  0  0  0  0
 23 24  1  0  0  0  0
 24 52  1  0  0  0  0
 24 25  2  0  0  0  0
 25 53  1  0  0  0  0
 26 25  1  0  0  0  0
 26 54  1  0  0  0  0
 27 28  1  0  0  0  0
 28 29  2  0  0  0  0
 28 55  1  0  0  0  0
 29 56  1  0  0  0  0
 30 57  1  0  0  0  0
 30 29  1  0  0  0  0
 31 30  2  0  0  0  0
 32 31  1  0  0  0  0
 32 27  2  0  0  0  0
 33 26  2  0  0  0  0
 37  8  1  0  0  0  0
 40 11  1  0  0  0  0
 41 12  1  0  0  0  0
 42 13  1  0  0  0  0
 48 20  1  0  0  0  0
 49 21  1  0  0  0  0
 50 22  1  0  0  0  0
 51 23  1  0  0  0  0
 58 31  1  0  0  0  0
 59 32  1  0  0  0  0
M  END
