2
q = 0.0, confidence = 0.984

 60 64  0  0  1  0  0  0  0  0999 V2000
    1.3940    0.1498    0.2327 P   0  0  1  0  0  0  0  0  0  0  0  0
   -1.4904    0.1650    0.1978 P   0  0  2  0  0  0  0  0  0  0  0  0
    1.2787    0.0327    2.1009 C   0  0  2  0  0  0  0  0  0  0  0  0
    2.1208   -0.6521    2.3467 H   0  0  0  0  0  0  0  0  0  0  0  0
   -1.3349   -0.0028    2.0576 C   0  0  0  0  0  0  0  0  0  0  0  0
   -1.4823    1.0082    2.4911 H   0  0  0  0  0  0  0  0  0  0  0  0
   -2.2051   -0.6233    2.3580 H   0  0  0  0  0  0  0  0  0  0  0  0
   -0.0305   -0.6704    2.5093 C   0  0  0  0  0  0  0  0  0  0  0  0
   -0.0123   -1.7079    2.1137 H   0  0  0  0  0  0  0  0  0  0  0  0
   -0.0453   -0.7512    3.6185 H   0  0  0  0  0  0  0  0  0  0  0  0
    1.5181    1.3877    2.7707 C   0  0  0  0  0  0  0  0  0  0  0  0
    0.7133    2.1112    2.5318 H   0  0  0  0  0  0  0  0  0  0  0  0
    2.4784    1.8326    2.4427 H   0  0  0  0  0  0  0  0  0  0  0  0
    1.5577    1.2681    3.8732 H   0  0  0  0  0  0  0  0  0  0  0  0
    0.6825    1.7491   -0.3272 C   0  0  0  0  0  0  0  0  0  0  0  0
    1.6833    2.4603   -0.9759 C   0  0  0  0  0  0  0  0  0  0  0  0
    3.0324    1.8845   -0.8050 C   0  0  0  0  0  0  0  0  0  0  0  0
    3.0900    0.6692   -0.1358 C   0  0  0  0  0  0  0  0  0  0  0  0
   -0.7529    1.7991   -0.2176 C   0  0  0  0  0  0  0  0  0  0  0  0
   -1.7704    2.7257   -0.3848 C   0  0  0  0  0  0  0  0  0  0  0  0
   -3.1241    2.1485   -0.2722 C   0  0  0  0  0  0  0  0  0  0  0  0
   -3.1920    0.7947    0.0320 C   0  0  0  0  0  0  0  0  0  0  0  0
    1.4705    3.6377   -1.8821 C   0  0  0  0  0  0  0  0  0  0  0  0
    2.0873    3.5432   -2.7982 H   0  0  0  0  0  0  0  0  0  0  0  0
    1.7654    4.5970   -1.4035 H   0  0  0  0  0  0  0  0  0  0  0  0
    0.4166    3.7193   -2.1964 H   0  0  0  0  0  0  0  0  0  0  0  0
    4.2315    2.5786   -1.3846 C   0  0  0  0  0  0  0  0  0  0  0  0
    4.0609    2.8193   -2.4543 H   0  0  0  0  0  0  0  0  0  0  0  0
    5.1396    1.9536   -1.3171 H   0  0  0  0  0  0  0  0  0  0  0  0
    4.4331    3.5454   -0.8753 H   0  0  0  0  0  0  0  0  0  0  0  0
    4.2499   -0.0736    0.3647 C   0  0  0  0  0  0  0  0  0  0  0  0
    5.3571    0.6015    0.9409 C   0  0  0  0  0  0  0  0  0  0  0  0
    5.3508    1.6995    1.0061 H   0  0  0  0  0  0  0  0  0  0  0  0
    6.4384   -0.1172    1.4657 C   0  0  0  0  0  0  0  0  0  0  0  0
    7.2856    0.4243    1.9139 H   0  0  0  0  0  0  0  0  0  0  0  0
    6.4360   -1.5218    1.4355 C   0  0  0  0  0  0  0  0  0  0  0  0
    7.2863   -2.0847    1.8498 H   0  0  0  0  0  0  0  0  0  0  0  0
    5.3380   -2.2015    0.8831 C   0  0  0  0  0  0  0  0  0  0  0  0
    5.3265   -3.3018    0.8539 H   0  0  0  0  0  0  0  0  0  0  0  0
    4.2509   -1.4915    0.3576 C   0  0  0  0  0  0  0  0  0  0  0  0
    3.4053   -2.0283   -0.1107 H   0  0  0  0  0  0  0  0  0  0  0  0
   -1.5982    4.2019   -0.6083 C   0  0  0  0  0  0  0  0  0  0  0  0
   -0.5733    4.5320   -0.3667 H   0  0  0  0  0  0  0  0  0  0  0  0
   -2.2984    4.7777    0.0310 H   0  0  0  0  0  0  0  0  0  0  0  0
   -1.8174    4.5001   -1.6566 H   0  0  0  0  0  0  0  0  0  0  0  0
   -4.3280    3.0155   -0.5187 C   0  0  0  0  0  0  0  0  0  0  0  0
   -5.2344    2.4098   -0.6996 H   0  0  0  0  0  0  0  0  0  0  0  0
   -4.1649    3.6680   -1.4003 H   0  0  0  0  0  0  0  0  0  0  0  0
   -4.5372    3.6908    0.3392 H   0  0  0  0  0  0  0  0  0  0  0  0
   -4.3479   -0.0339    0.3840 C   0  0  0  0  0  0  0  0  0  0  0  0
   -4.3525   -1.4144    0.0596 C   0  0  0  0  0  0  0  0  0  0  0  0
   -3.5081   -1.8468   -0.5100 H   0  0  0  0  0  0  0  0  0  0  0  0
   -5.4347   -2.2262    0.4224 C   0  0  0  0  0  0  0  0  0  0  0  0
   -5.4198   -3.2922    0.1486 H   0  0  0  0  0  0  0  0  0  0  0  0
   -6.5265   -1.6898    1.1237 C   0  0  0  0  0  0  0  0  0  0  0  0
   -7.3739   -2.3318    1.4088 H   0  0  0  0  0  0  0  0  0  0  0  0
   -6.5241   -0.3287    1.4729 C   0  0  0  0  0  0  0  0  0  0  0  0
   -7.3639    0.0965    2.0435 H   0  0  0  0  0  0  0  0  0  0  0  0
   -5.4472    0.4909    1.1135 C   0  0  0  0  0  0  0  0  0  0  0  0
   -5.4399    1.5425    1.4331 H   0  0  0  0  0  0  0  0  0  0  0  0
  1 15  1  1  0  0  0
  1  3  1  0  0  0  0
  2 19  1  1  0  0  0
  2  5  1  0  0  0  0
  3  4  1  1  0  0  0
  3  8  1  0  0  0  0
  3 11  1  0  0  0  0
  5  7  1  0  0  0  0
  5  6  1  0  0  0  0
  5  8  1  0  0  0  0
  8 10  1  0  0  0  0
  9  8  1  0  0  0  0
 11 14  1  0  0  0  0
 12 11  1  0  0  0  0
 13 11  1  0  0  0  0
 15 19  1  0  0  0  0
 16 17  1  0  0  0  0
 16 15  2  0  0  0  0
 17 18  2  0  0  0  0
 18  1  1  0  0  0  0
 18 31  1  0  0  0  0
 20 21  1  0  0  0  0
 20 19  2  0  0  0  0
 21 22  2  0  0  0  0
 22  2  1  0  0  0  0
 22 50  1  0  0  0  0
 23 25  1  0  0  0  0
 23 16  1  0  0  0  0
 24 23  1  0  0  0  0
 26 23  1  0  0  0  0
 27 29  1  0  0  0  0
 27 30  1  0  0  0  0
 27 17  1  0  0  0  0
 28 27  1  0  0  0  0
 31 32  1  0  0  0  0
 32 33  1  0  0  0  0
 32 34  2  0  0  0  0
 34 35  1  0  0  0  0
 36 34  1  0  0  0  0
 36 37  1  0  0  0  0
 38 36  2  0  0  0  0
 39 38  1  0  0  0  0
 40 31  2  0  0  0  0
 40 38  1  0  0  0  0
 41 40  1  0  0  0  0
 42 20  1  0  0  0  0
 42 43  1  0  0  0  0
 42 44  1  0  0  0  0
 45 42  1  0  0  0  0
 46 21  1  0  0  0  0
 46 49  1  0  0  0  0
 47 46  1  0  0  0  0
 48 46  1  0  0  0  0
 50 59  1  0  0  0  0
 51 50  2  0  0  0  0
 51 53  1  0  0  0  0
 52 51  1  0  0  0  0
 53 55  2  0  0  0  0
 54 53  1  0  0  0  0
 55 56  1  0  0  0  0
 55 57  1  0  0  0  0
 57 58  1  0  0  0  0
 59 60  1  0  0  0  0
 59 57  2  0  0  0  0
M  END
