1,2
q = 0.0, confidence = 0.992

 57 60  0  0  1  0  0  0  0  0999 V2000
    1.6942    0.0131    0.3746 P   0  0  0  0  0  0  0  0  0  0  0  0
   -1.6932   -0.0307    0.4098 P   0  0  0  0  0  0  0  0  0  0  0  0
    1.2841    0.3973    1.9595 O   0  0  0  0  0  0  0  0  0  0  0  0
   -0.7900    2.7727    3.8089 O   0  0  0  0  0  0  0  0  0  0  0  0
   -0.6775    3.5703    3.2595 H   0  0  0  0  0  0  0  0  0  0  0  0
    0.1173    1.1989    2.1715 C   0  0  1  0  0  0  0  0  0  0  0  0
    0.0592    1.9916    1.3850 H   0  0  0  0  0  0  0  0  0  0  0  0
   -1.1381    0.3228    2.1328 C   0  0  0  0  0  0  0  0  0  0  0  0
   -1.9653    0.7876    2.7050 H   0  0  0  0  0  0  0  0  0  0  0  0
   -0.9109   -0.6541    2.6055 H   0  0  0  0  0  0  0  0  0  0  0  0
    0.2908    1.9019    3.5250 C   0  0  0  0  0  0  0  0  0  0  0  0
    0.3155    1.1364    4.3287 H   0  0  0  0  0  0  0  0  0  0  0  0
    1.2776    2.4192    3.5281 H   0  0  0  0  0  0  0  0  0  0  0  0
    2.5811    1.5236   -0.1612 C   0  0  0  0  0  0  0  0  0  0  0  0
    3.4361    2.1646    0.7614 C   0  0  0  0  0  0  0  0  0  0  0  0
    3.5755    1.7353    1.7655 H   0  0  0  0  0  0  0  0  0  0  0  0
    4.1013    3.3417    0.3928 C   0  0  0  0  0  0  0  0  0  0  0  0
    4.7707    3.8404    1.1103 H   0  0  0  0  0  0  0  0  0  0  0  0
    3.9168    3.8803   -0.8925 C   0  0  0  0  0  0  0  0  0  0  0  0
    4.4418    4.8039   -1.1806 H   0  0  0  0  0  0  0  0  0  0  0  0
    3.0675    3.2409   -1.8092 C   0  0  0  0  0  0  0  0  0  0  0  0
    2.9259    3.6597   -2.8168 H   0  0  0  0  0  0  0  0  0  0  0  0
    2.3950    2.0631   -1.4483 C   0  0  0  0  0  0  0  0  0  0  0  0
    1.7452    1.5369   -2.1636 H   0  0  0  0  0  0  0  0  0  0  0  0
    2.9741   -1.2223    0.7683 C   0  0  0  0  0  0  0  0  0  0  0  0
    4.1216   -1.3386   -0.0405 C   0  0  0  0  0  0  0  0  0  0  0  0
    4.2514   -0.6715   -0.9040 H   0  0  0  0  0  0  0  0  0  0  0  0
    5.0783   -2.3202    0.2524 C   0  0  0  0  0  0  0  0  0  0  0  0
    5.9739   -2.4115   -0.3801 H   0  0  0  0  0  0  0  0  0  0  0  0
    4.8931   -3.1868    1.3418 C   0  0  0  0  0  0  0  0  0  0  0  0
    5.6461   -3.9576    1.5658 H   0  0  0  0  0  0  0  0  0  0  0  0
    3.7462   -3.0725    2.1436 C   0  0  0  0  0  0  0  0  0  0  0  0
    3.5982   -3.7508    2.9975 H   0  0  0  0  0  0  0  0  0  0  0  0
    2.7834   -2.0938    1.8586 C   0  0  0  0  0  0  0  0  0  0  0  0
    1.8863   -1.9956    2.4864 H   0  0  0  0  0  0  0  0  0  0  0  0
   -2.5592    1.5057   -0.1158 C   0  0  0  0  0  0  0  0  0  0  0  0
   -3.0091    1.5880   -1.4518 C   0  0  0  0  0  0  0  0  0  0  0  0
   -2.8103    0.7464   -2.1372 H   0  0  0  0  0  0  0  0  0  0  0  0
   -3.6908    2.7309   -1.8907 C   0  0  0  0  0  0  0  0  0  0  0  0
   -4.0402    2.7844   -2.9330 H   0  0  0  0  0  0  0  0  0  0  0  0
   -3.9215    3.8030   -1.0131 C   0  0  0  0  0  0  0  0  0  0  0  0
   -4.4538    4.7005   -1.3635 H   0  0  0  0  0  0  0  0  0  0  0  0
   -3.4664    3.7287    0.3116 C   0  0  0  0  0  0  0  0  0  0  0  0
   -3.6412    4.5662    1.0044 H   0  0  0  0  0  0  0  0  0  0  0  0
   -2.7886    2.5850    0.7648 C   0  0  0  0  0  0  0  0  0  0  0  0
   -2.4353    2.5562    1.8061 H   0  0  0  0  0  0  0  0  0  0  0  0
   -2.9997   -1.2878    0.6602 C   0  0  0  0  0  0  0  0  0  0  0  0
   -4.3024   -0.9066    1.0355 C   0  0  0  0  0  0  0  0  0  0  0  0
   -4.5675    0.1598    1.1048 H   0  0  0  0  0  0  0  0  0  0  0  0
   -5.2655   -1.8907    1.3051 C   0  0  0  0  0  0  0  0  0  0  0  0
   -6.2854   -1.5921    1.5915 H   0  0  0  0  0  0  0  0  0  0  0  0
   -4.9309   -3.2502    1.2021 C   0  0  0  0  0  0  0  0  0  0  0  0
   -5.6899   -4.0201    1.4087 H   0  0  0  0  0  0  0  0  0  0  0  0
   -3.6319   -3.6286    0.8244 C   0  0  0  0  0  0  0  0  0  0  0  0
   -3.3718   -4.6935    0.7293 H   0  0  0  0  0  0  0  0  0  0  0  0
   -2.6656   -2.6518    0.5476 C   0  0  0  0  0  0  0  0  0  0  0  0
   -1.6532   -2.9361    0.2223 H   0  0  0  0  0  0  0  0  0  0  0  0
  1 25  1  0  0  0  0
  1  3  1  0  0  0  0
  2 47  1  0  0  0  0
  2  8  1  0  0  0  0
  3  6  1  0  0  0  0
  5  4  1  0  0  0  0
  6  7  1  6  0  0  0
  6 11  1  0  0  0  0
  8  6  1  0  0  0  0
  8 10  1  0  0  0  0
  8  9  1  0  0  0  0
 11 13  1  0  0  0  0
 11  4  1  0  0  0  0
 11 12  1  0  0  0  0
 14  1  1  0  0  0  0
 14 15  1  0  0  0  0
 15 16  1  0  0  0  0
 17 15  2  0  0  0  0
 17 18  1  0  0  0  0
 19 17  1  0  0  0  0
 20 19  1  0  0  0  0
 21 23  1  0  0  0  0
 21 19  2  0  0  0  0
 22 21  1  0  0  0  0
 23 14  2  0  0  0  0
 24 23  1  0  0  0  0
 25 34  1  0  0  0  0
 26 28  1  0  0  0  0
 26 25  2  0  0  0  0
 27 26  1  0  0  0  0
 28 30  2  0  0  0  0
 29 28  1  0  0  0  0
 30 31  1  0  0  0  0
 30 32  1  0  0  0  0
 32 33  1  0  0  0  0
 34 32  2  0  0  0  0
 34 35  1  0  0  0  0
 36  2  1  0  0  0  0
 36 45  1  0  0  0  0
 37 36  2  0  0  0  0
 38 37  1  0  0  0  0
 39 37  1  0  0  0  0
 39 41  2  0  0  0  0
 40 39  1  0  0  0  0
 41 43  1  0  0  0  0
 42 41  1  0  0  0  0
 43 45  2  0  0  0  0
 43 44  1  0  0  0  0
 45 46  1  0  0  0  0
 47 48  1  0  0  0  0
 48 49  1  0  0  0  0
 48 50  2  0  0  0  0
 50 51  1  0  0  0  0
 52 50  1  0  0  0  0
 52 53  1  0  0  0  0
 54 52  2  0  0  0  0
 55 54  1  0  0  0  0
 56 47  2  0  0  0  0
 56 54  1  0  0  0  0
 57 56  1  0  0  0  0
M  END
