1,2
q = 0.0, confidence = 0.988

 60 63  0  0  1  0  0  0  0  0999 V2000
    1.5889   -0.0192    0.2544 P   0  0  0  0  0  0  0  0  0  0  0  0
   -1.6057    0.1301    0.4038 P   0  0  0  0  0  0  0  0  0  0  0  0
    1.1626    0.2922    1.8481 O   0  0  0  0  0  0  0  0  0  0  0  0
   -1.5252   -0.5938    1.9080 O   0  0  0  0  0  0  0  0  0  0  0  0
    0.7606   -0.7611    2.7219 C   0  0  0  0  0  0  0  0  0  0  0  0
    0.5349   -0.2647    3.6881 H   0  0  0  0  0  0  0  0  0  0  0  0
    1.5969   -1.4792    2.8831 H   0  0  0  0  0  0  0  0  0  0  0  0
   -0.4704   -1.5202    2.2273 C   0  0  1  0  0  0  0  0  0  0  0  0
   -0.2018   -2.0732    1.2953 H   0  0  0  0  0  0  0  0  0  0  0  0
   -1.0033   -2.5065    3.2623 C   0  0  0  0  0  0  0  0  0  0  0  0
   -1.2733   -1.9425    4.1819 H   0  0  0  0  0  0  0  0  0  0  0  0
   -0.1695   -3.1861    3.5419 H   0  0  0  0  0  0  0  0  0  0  0  0
   -2.2028   -3.3082    2.7598 C   0  0  0  0  0  0  0  0  0  0  0  0
   -3.0363   -2.6315    2.4879 H   0  0  0  0  0  0  0  0  0  0  0  0
   -2.5676   -4.0131    3.5324 H   0  0  0  0  0  0  0  0  0  0  0  0
   -1.9413   -3.8986    1.8573 H   0  0  0  0  0  0  0  0  0  0  0  0
    2.2823    1.6202   -0.1409 C   0  0  0  0  0  0  0  0  0  0  0  0
    2.6056    1.9030   -1.4851 C   0  0  0  0  0  0  0  0  0  0  0  0
    2.4658    1.1224   -2.2516 H   0  0  0  0  0  0  0  0  0  0  0  0
    3.0861    3.1750   -1.8248 C   0  0  0  0  0  0  0  0  0  0  0  0
    3.3382    3.3964   -2.8729 H   0  0  0  0  0  0  0  0  0  0  0  0
    3.2367    4.1641   -0.8378 C   0  0  0  0  0  0  0  0  0  0  0  0
    3.6072    5.1637   -1.1123 H   0  0  0  0  0  0  0  0  0  0  0  0
    2.9098    3.8790    0.4970 C   0  0  0  0  0  0  0  0  0  0  0  0
    3.0168    4.6544    1.2707 H   0  0  0  0  0  0  0  0  0  0  0  0
    2.4327    2.6086    0.8521 C   0  0  0  0  0  0  0  0  0  0  0  0
    2.1490    2.3844    1.8892 H   0  0  0  0  0  0  0  0  0  0  0  0
    2.9773   -1.1885    0.4643 C   0  0  0  0  0  0  0  0  0  0  0  0
    4.1700   -0.7389    1.0667 C   0  0  0  0  0  0  0  0  0  0  0  0
    4.2950    0.3275    1.3104 H   0  0  0  0  0  0  0  0  0  0  0  0
    5.1981   -1.6518    1.3422 C   0  0  0  0  0  0  0  0  0  0  0  0
    6.1333   -1.2997    1.8032 H   0  0  0  0  0  0  0  0  0  0  0  0
    5.0358   -3.0104    1.0236 C   0  0  0  0  0  0  0  0  0  0  0  0
    5.8459   -3.7245    1.2369 H   0  0  0  0  0  0  0  0  0  0  0  0
    3.8458   -3.4579    0.4270 C   0  0  0  0  0  0  0  0  0  0  0  0
    3.7223   -4.5203    0.1687 H   0  0  0  0  0  0  0  0  0  0  0  0
    2.8149   -2.5507    0.1431 C   0  0  0  0  0  0  0  0  0  0  0  0
    1.8914   -2.8830   -0.3543 H   0  0  0  0  0  0  0  0  0  0  0  0
   -1.3095    1.9010    0.7454 C   0  0  0  0  0  0  0  0  0  0  0  0
   -1.4176    2.4215    2.0488 C   0  0  0  0  0  0  0  0  0  0  0  0
   -1.6974    1.7526    2.8758 H   0  0  0  0  0  0  0  0  0  0  0  0
   -1.1508    3.7792    2.2776 C   0  0  0  0  0  0  0  0  0  0  0  0
   -1.2276    4.1870    3.2971 H   0  0  0  0  0  0  0  0  0  0  0  0
   -0.7838    4.6165    1.2105 C   0  0  0  0  0  0  0  0  0  0  0  0
   -0.5693    5.6801    1.3958 H   0  0  0  0  0  0  0  0  0  0  0  0
   -0.6798    4.0970   -0.0896 C   0  0  0  0  0  0  0  0  0  0  0  0
   -0.3756    4.7461   -0.9240 H   0  0  0  0  0  0  0  0  0  0  0  0
   -0.9365    2.7388   -0.3250 C   0  0  0  0  0  0  0  0  0  0  0  0
   -0.8259    2.3154   -1.3361 H   0  0  0  0  0  0  0  0  0  0  0  0
   -3.3921   -0.0131    0.0847 C   0  0  0  0  0  0  0  0  0  0  0  0
   -4.2362    1.1131    0.0825 C   0  0  0  0  0  0  0  0  0  0  0  0
   -3.8178    2.1164    0.2500 H   0  0  0  0  0  0  0  0  0  0  0  0
   -5.6139    0.9523   -0.1337 C   0  0  0  0  0  0  0  0  0  0  0  0
   -6.2716    1.8346   -0.1363 H   0  0  0  0  0  0  0  0  0  0  0  0
   -6.1484   -0.3275   -0.3434 C   0  0  0  0  0  0  0  0  0  0  0  0
   -7.2289   -0.4510   -0.5132 H   0  0  0  0  0  0  0  0  0  0  0  0
   -5.3049   -1.4517   -0.3458 C   0  0  0  0  0  0  0  0  0  0  0  0
   -5.7210   -2.4545   -0.5247 H   0  0  0  0  0  0  0  0  0  0  0  0
   -3.9284   -1.2988   -0.1422 C   0  0  0  0  0  0  0  0  0  0  0  0
   -3.2624   -2.1723   -0.1777 H   0  0  0  0  0  0  0  0  0  0  0  0
  1 28  1  0  0  0  0
  1  3  1  0  0  0  0
  2 39  1  0  0  0  0
  2  4  1  0  0  0  0
  3  5  1  0  0  0  0
  4  8  1  0  0  0  0
  5  7  1  0  0  0  0
  5  6  1  0  0  0  0
  8  9  1  6  0  0  0
  8  5  1  0  0  0  0
  8 10  1  0  0  0  0
 10 12  1  0  0  0  0
 10 11  1  0  0  0  0
 13 10  1  0  0  0  0
 13 15  1  0  0  0  0
 14 13  1  0  0  0  0
 16 13  1  0  0  0  0
 17  1  1  0  0  0  0
 17 26  1  0  0  0  0
 18 17  2  0  0  0  0
 19 18  1  0  0  0  0
 20 18  1  0  0  0  0
 20 22  2  0  0  0  0
 21 20  1  0  0  0  0
 22 24  1  0  0  0  0
 23 22  1  0  0  0  0
 24 26  2  0  0  0  0
 24 25  1  0  0  0  0
 26 27  1  0  0  0  0
 28 29  1  0  0  0  0
 29 30  1  0  0  0  0
 29 31  2  0  0  0  0
 31 32  1  0  0  0  0
 33 34  1  0  0  0  0
 33 31  1  0  0  0  0
 35 33  2  0  0  0  0
 36 35  1  0  0  0  0
 37 35  1  0  0  0  0
 37 28  2  0  0  0  0
 38 37  1  0  0  0  0
 39 40  1  0  0  0  0
 40 42  2  0  0  0  0
 40 41  1  0  0  0  0
 42 43  1  0  0  0  0
 44 45  1  0  0  0  0
 44 42  1  0  0  0  0
 46 44  2  0  0  0  0
 47 46  1  0  0  0  0
 48 46  1  0  0  0  0
 48 39  2  0  0  0  0
 49 48  1  0  0  0  0
 50  2  1  0  0  0  0
 51 50  1  0  0  0  0
 51 52  1  0  0  0  0
 53 51  2  0  0  0  0
 54 53  1  0  0  0  0
 55 53  1  0  0  0  0
 56 55  1  0  0  0  0
 57 55  2  0  0  0  0
 57 59  1  0  0  0  0
 58 57  1  0  0  0  0
 59 50  2  0  0  0  0
 60 59  1  0  0  0  0
M  END
