1,54
q = 0.0, confidence = 0.998

 76 80  0  0  0  0  0  0  0  0999 V2000
    1.5637   -0.0696   -0.0703 P   0  0  0  0  0  0  0  0  0  0  0  0
    3.1044   -0.7461    0.6849 C   0  0  0  0  0  0  0  0  0  0  0  0
    2.9779   -1.5860    1.8115 C   0  0  0  0  0  0  0  0  0  0  0  0
    1.9743   -1.8685    2.1649 H   0  0  0  0  0  0  0  0  0  0  0  0
    4.1190   -2.0912    2.4462 C   0  0  0  0  0  0  0  0  0  0  0  0
    4.0086   -2.7479    3.3221 H   0  0  0  0  0  0  0  0  0  0  0  0
    5.3966   -1.7855    1.9478 C   0  0  0  0  0  0  0  0  0  0  0  0
    6.2926   -2.1944    2.4390 H   0  0  0  0  0  0  0  0  0  0  0  0
    5.5257   -0.9765    0.8098 C   0  0  0  0  0  0  0  0  0  0  0  0
    6.5224   -0.7515    0.4009 H   0  0  0  0  0  0  0  0  0  0  0  0
    4.3842   -0.4549    0.1790 C   0  0  0  0  0  0  0  0  0  0  0  0
    4.4959    0.1672   -0.7206 H   0  0  0  0  0  0  0  0  0  0  0  0
    2.0842    0.5247   -1.7282 C   0  0  0  0  0  0  0  0  0  0  0  0
    2.8175    1.7186   -1.8880 C   0  0  0  0  0  0  0  0  0  0  0  0
    3.0413    2.3455   -1.0110 H   0  0  0  0  0  0  0  0  0  0  0  0
    3.2503    2.1118   -3.1637 C   0  0  0  0  0  0  0  0  0  0  0  0
    3.8231    3.0442   -3.2840 H   0  0  0  0  0  0  0  0  0  0  0  0
    2.9479    1.3194   -4.2834 C   0  0  0  0  0  0  0  0  0  0  0  0
    3.2824    1.6318   -5.2844 H   0  0  0  0  0  0  0  0  0  0  0  0
    2.2253    0.1259   -4.1234 C   0  0  0  0  0  0  0  0  0  0  0  0
    1.9965   -0.5025   -4.9974 H   0  0  0  0  0  0  0  0  0  0  0  0
    1.7986   -0.2793   -2.8496 C   0  0  0  0  0  0  0  0  0  0  0  0
    1.2630   -1.2308   -2.7038 H   0  0  0  0  0  0  0  0  0  0  0  0
    1.2260    1.4659    0.9269 C   0  0  0  0  0  0  0  0  0  0  0  0
    1.9065    1.5792    2.2769 C   0  0  0  0  0  0  0  0  0  0  0  0
    1.2132    2.0854    2.9793 H   0  0  0  0  0  0  0  0  0  0  0  0
    2.0588    0.5658    2.6974 H   0  0  0  0  0  0  0  0  0  0  0  0
    3.2561    2.3107    2.2407 C   0  0  0  0  0  0  0  0  0  0  0  0
    3.6997    2.3730    3.2548 H   0  0  0  0  0  0  0  0  0  0  0  0
    3.1437    3.3437    1.8520 H   0  0  0  0  0  0  0  0  0  0  0  0
    3.9791    1.7804    1.5906 H   0  0  0  0  0  0  0  0  0  0  0  0
    0.3872    2.4386    0.4597 C   0  0  0  0  0  0  0  0  0  0  0  0
    0.2246    3.7832    1.1453 C   0  0  0  0  0  0  0  0  0  0  0  0
    0.8434    3.8541    2.0578 H   0  0  0  0  0  0  0  0  0  0  0  0
   -0.8332    3.8907    1.4699 H   0  0  0  0  0  0  0  0  0  0  0  0
    0.5544    4.9311    0.1747 C   0  0  0  0  0  0  0  0  0  0  0  0
    0.3999    5.9056    0.6831 H   0  0  0  0  0  0  0  0  0  0  0  0
    1.6316    4.8817   -0.0996 H   0  0  0  0  0  0  0  0  0  0  0  0
   -0.3897    2.3280   -0.8068 C   0  0  0  0  0  0  0  0  0  0  0  0
   -0.1345    3.4708   -1.7753 C   0  0  0  0  0  0  0  0  0  0  0  0
    0.9103    3.3821   -2.1464 H   0  0  0  0  0  0  0  0  0  0  0  0
   -0.7907    3.4059   -2.6616 H   0  0  0  0  0  0  0  0  0  0  0  0
   -0.3017    4.8372   -1.0888 C   0  0  0  0  0  0  0  0  0  0  0  0
   -1.3717    4.9834   -0.8203 H   0  0  0  0  0  0  0  0  0  0  0  0
   -0.0403    5.6464   -1.8022 H   0  0  0  0  0  0  0  0  0  0  0  0
   -1.2984    1.3374   -1.0579 C   0  0  0  0  0  0  0  0  0  0  0  0
   -1.9987    1.2143   -2.3974 C   0  0  0  0  0  0  0  0  0  0  0  0
   -2.1871    0.1439   -2.6123 H   0  0  0  0  0  0  0  0  0  0  0  0
   -1.3020    1.5469   -3.1934 H   0  0  0  0  0  0  0  0  0  0  0  0
   -3.3207    1.9894   -2.4878 C   0  0  0  0  0  0  0  0  0  0  0  0
   -3.7863    1.8615   -3.4857 H   0  0  0  0  0  0  0  0  0  0  0  0
   -3.1602    3.0742   -2.3198 H   0  0  0  0  0  0  0  0  0  0  0  0
   -4.0449    1.6334   -1.7290 H   0  0  0  0  0  0  0  0  0  0  0  0
   -1.6531   -0.0312    0.1520 P   0  0  0  0  0  0  0  0  0  0  0  0
   -1.7663    0.7010    1.8318 C   0  0  0  0  0  0  0  0  0  0  0  0
   -1.2530   -0.0426    2.9124 C   0  0  0  0  0  0  0  0  0  0  0  0
   -0.7648   -1.0093    2.7075 H   0  0  0  0  0  0  0  0  0  0  0  0
   -1.3633    0.4522    4.2204 C   0  0  0  0  0  0  0  0  0  0  0  0
   -0.9564   -0.1315    5.0600 H   0  0  0  0  0  0  0  0  0  0  0  0
   -1.9933    1.6846    4.4580 C   0  0  0  0  0  0  0  0  0  0  0  0
   -2.0799    2.0712    5.4849 H   0  0  0  0  0  0  0  0  0  0  0  0
   -2.5173    2.4226    3.3837 C   0  0  0  0  0  0  0  0  0  0  0  0
   -3.0143    3.3876    3.5671 H   0  0  0  0  0  0  0  0  0  0  0  0
   -2.4056    1.9338    2.0734 C   0  0  0  0  0  0  0  0  0  0  0  0
   -2.8069    2.5155    1.2289 H   0  0  0  0  0  0  0  0  0  0  0  0
   -3.3894   -0.5305   -0.2321 C   0  0  0  0  0  0  0  0  0  0  0  0
   -3.6240   -1.3977   -1.3218 C   0  0  0  0  0  0  0  0  0  0  0  0
   -2.7751   -1.8374   -1.8634 H   0  0  0  0  0  0  0  0  0  0  0  0
   -4.9339   -1.7346   -1.6869 C   0  0  0  0  0  0  0  0  0  0  0  0
   -5.1005   -2.4095   -2.5398 H   0  0  0  0  0  0  0  0  0  0  0  0
   -6.0237   -1.2405   -0.9526 C   0  0  0  0  0  0  0  0  0  0  0  0
   -7.0512   -1.5157   -1.2353 H   0  0  0  0  0  0  0  0  0  0  0  0
   -5.7958   -0.4134    0.1567 C   0  0  0  0  0  0  0  0  0  0  0  0
   -6.6416   -0.0403    0.7538 H   0  0  0  0  0  0  0  0  0  0  0  0
   -4.4857   -0.0597    0.5173 C   0  0  0  0  0  0  0  0  0  0  0  0
   -4.3255    0.5802    1.3955 H   0  0  0  0  0  0  0  0  0  0  0  0
  1  2  1  0  0  0  0
  1 24  1  0  0  0  0
  2  3  1  0  0  0  0
  3  4  1  0  0  0  0
  3  5  2  0  0  0  0
  5  6  1  0  0  0  0
  7  8  1  0  0  0  0
  7  5  1  0  0  0  0
  9  7  2  0  0  0  0
 10  9  1  0  0  0  0
 11  2  2  0  0  0  0
 11  9  1  0  0  0  0
 12 11  1  0  0  0  0
 13  1  1  0  0  0  0
 14 13  1  0  0  0  0
 14 15  1  0  0  0  0
 16 14  2  0  0  0  0
 17 16  1  0  0  0  0
 18 20  2  0  0  0  0
 18 16  1  0  0  0  0
 19 18  1  0  0  0  0
 20 22  1  0  0  0  0
 21 20  1  0  0  0  0
 22 23  1  0  0  0  0
 22 13  2  0  0  0  0
 24 25  1  0  0  0  0
 25 27  1  0  0  0  0
 25 26  1  0  0  0  0
 28 25  1  0  0  0  0
 28 29  1  0  0  0  0
 30 28  1  0  0  0  0
 31 28  1  0  0  0  0
 32 24  2  0  0  0  0
 32 33  1  0  0  0  0
 33 35  1  0  0  0  0
 33 34  1  0  0  0  0
 36 37  1  0  0  0  0
 36 33  1  0  0  0  0
 38 36  1  0  0  0  0
 39 32  1  0  0  0  0
 40 43  1  0  0  0  0
 40 39  1  0  0  0  0
 41 40  1  0  0  0  0
 42 40  1  0  0  0  0
 43 44  1  0  0  0  0
 43 36  1  0  0  0  0
 45 43  1  0  0  0  0
 46 39  2  0  0  0  0
 46 54  1  0  0  0  0
 47 46  1  0  0  0  0
 48 47  1  0  0  0  0
 49 47  1  0  0  0  0
 50 47  1  0  0  0  0
 50 52  1  0  0  0  0
 50 53  1  0  0  0  0
 51 50  1  0  0  0  0
 54 55  1  0  0  0  0
 55 64  2  0  0  0  0
 55 56  1  0  0  0  0
 56 58  2  0  0  0  0
 57 56  1  0  0  0  0
 58 60  1  0  0  0  0
 58 59  1  0  0  0  0
 60 61  1  0  0  0  0
 62 63  1  0  0  0  0
 62 60  2  0  0  0  0
 64 62  1  0  0  0  0
 65 64  1  0  0  0  0
 66 54  1  0  0  0  0
 66 75  1  0  0  0  0
 67 66  2  0  0  0  0
 68 67  1  0  0  0  0
 69 67  1  0  0  0  0
 69 71  2  0  0  0  0
 70 69  1  0  0  0  0
 71 73  1  0  0  0  0
 72 71  1  0  0  0  0
 73 75  2  0  0  0  0
 73 74  1  0  0  0  0
 75 76  1  0  0  0  0
M  END
