1,2
q = 0.0, confidence = 0.996

 51 55  0  0  0  0  0  0  0  0999 V2000
    1.5618   -0.0865   -0.3425 P   0  0  0  0  0  0  0  0  0  0  0  0
   -1.6421    0.0778   -0.4807 P   0  0  0  0  0  0  0  0  0  0  0  0
    3.1657   -0.9415   -0.5415 C   0  0  0  0  0  0  0  0  0  0  0  0
    3.4116   -2.3200   -0.4943 C   0  0  0  0  0  0  0  0  0  0  0  0
    4.7286   -2.7831   -0.6564 C   0  0  0  0  0  0  0  0  0  0  0  0
    5.7818   -1.8710   -0.8489 C   0  0  0  0  0  0  0  0  0  0  0  0
    5.5374   -0.4897   -0.8820 C   0  0  0  0  0  0  0  0  0  0  0  0
    4.2236   -0.0103   -0.7299 C   0  0  0  0  0  0  0  0  0  0  0  0
    3.7808    1.3973   -0.7194 C   0  0  0  0  0  0  0  0  0  0  0  0
    4.5805    2.5453   -0.8650 C   0  0  0  0  0  0  0  0  0  0  0  0
    3.9890    3.8167   -0.8098 C   0  0  0  0  0  0  0  0  0  0  0  0
    2.6060    3.9565   -0.5979 C   0  0  0  0  0  0  0  0  0  0  0  0
    1.7957    2.8186   -0.4408 C   0  0  0  0  0  0  0  0  0  0  0  0
    2.3822    1.5493   -0.5162 C   0  0  0  0  0  0  0  0  0  0  0  0
    0.6863   -0.2889   -1.9699 C   0  0  0  0  0  0  0  0  0  0  0  0
    1.1064   -1.1171   -2.9450 C   0  0  0  0  0  0  0  0  0  0  0  0
   -0.5987    0.4901   -1.9981 C   0  0  0  0  0  0  0  0  0  0  0  0
   -2.6832    1.5897   -0.2677 C   0  0  0  0  0  0  0  0  0  0  0  0
   -2.8539    2.5652   -1.2714 C   0  0  0  0  0  0  0  0  0  0  0  0
   -3.6719    3.6833   -1.0418 C   0  0  0  0  0  0  0  0  0  0  0  0
   -4.3327    3.8339    0.1864 C   0  0  0  0  0  0  0  0  0  0  0  0
   -4.1721    2.8626    1.1878 C   0  0  0  0  0  0  0  0  0  0  0  0
   -3.3494    1.7500    0.9653 C   0  0  0  0  0  0  0  0  0  0  0  0
   -2.8839   -1.1254   -1.1406 C   0  0  0  0  0  0  0  0  0  0  0  0
   -3.6110   -0.8504   -2.3181 C   0  0  0  0  0  0  0  0  0  0  0  0
   -4.5602   -1.7650   -2.7932 C   0  0  0  0  0  0  0  0  0  0  0  0
   -4.8010   -2.9587   -2.0913 C   0  0  0  0  0  0  0  0  0  0  0  0
   -4.0941   -3.2291   -0.9109 C   0  0  0  0  0  0  0  0  0  0  0  0
   -3.1392   -2.3157   -0.4358 C   0  0  0  0  0  0  0  0  0  0  0  0
    2.5879   -3.0296   -0.3275 H   0  0  0  0  0  0  0  0  0  0  0  0
    4.9360   -3.8630   -0.6221 H   0  0  0  0  0  0  0  0  0  0  0  0
    6.8107   -2.2431   -0.9669 H   0  0  0  0  0  0  0  0  0  0  0  0
    6.3724    0.2132   -1.0223 H   0  0  0  0  0  0  0  0  0  0  0  0
    5.6664    2.4503   -1.0171 H   0  0  0  0  0  0  0  0  0  0  0  0
    4.6170    4.7132   -0.9228 H   0  0  0  0  0  0  0  0  0  0  0  0
    2.1568    4.9591   -0.5399 H   0  0  0  0  0  0  0  0  0  0  0  0
    0.7193    2.9304   -0.2401 H   0  0  0  0  0  0  0  0  0  0  0  0
    2.0537   -1.6717   -2.8666 H   0  0  0  0  0  0  0  0  0  0  0  0
    0.5021   -1.2652   -3.8555 H   0  0  0  0  0  0  0  0  0  0  0  0
   -0.3765    1.5767   -1.9275 H   0  0  0  0  0  0  0  0  0  0  0  0
   -1.1624    0.3143   -2.9351 H   0  0  0  0  0  0  0  0  0  0  0  0
   -2.3499    2.4655   -2.2442 H   0  0  0  0  0  0  0  0  0  0  0  0
   -3.7921    4.4410   -1.8311 H   0  0  0  0  0  0  0  0  0  0  0  0
   -4.9716    4.7120    0.3652 H   0  0  0  0  0  0  0  0  0  0  0  0
   -4.6838    2.9753    2.1554 H   0  0  0  0  0  0  0  0  0  0  0  0
   -3.2141    0.9988    1.7580 H   0  0  0  0  0  0  0  0  0  0  0  0
   -3.4508    0.0936   -2.8624 H   0  0  0  0  0  0  0  0  0  0  0  0
   -5.1212   -1.5423   -3.7137 H   0  0  0  0  0  0  0  0  0  0  0  0
   -5.5477   -3.6759   -2.4649 H   0  0  0  0  0  0  0  0  0  0  0  0
   -4.2834   -4.1576   -0.3515 H   0  0  0  0  0  0  0  0  0  0  0  0
   -2.5890   -2.5198    0.4937 H   0  0  0  0  0  0  0  0  0  0  0  0
  2 18  1  0  0  0  0
  3  4  1  0  0  0  0
  3  1  1  0  0  0  0
  4 30  1  0  0  0  0
  5 31  1  0  0  0  0
  5  4  2  0  0  0  0
  6  5  1  0  0  0  0
  7  6  2  0  0  0  0
  7  8  1  0  0  0  0
  8  9  1  0  0  0  0
  8  3  2  0  0  0  0
  9 14  1  0  0  0  0
 10 11  1  0  0  0  0
 10  9  2  0  0  0  0
 11 12  2  0  0  0  0
 12 36  1  0  0  0  0
 12 13  1  0  0  0  0
 13 37  1  0  0  0  0
 14 13  2  0  0  0  0
 14  1  1  0  0  0  0
 15  1  1  0  0  0  0
 16 38  1  0  0  0  0
 16 15  2  0  0  0  0
 17 15  1  0  0  0  0
 17 40  1  0  0  0  0
 17  2  1  0  0  0  0
 18 23  1  0  0  0  0
 19 20  1  0  0  0  0
 19 18  2  0  0  0  0
 20 21  2  0  0  0  0
 21 44  1  0  0  0  0
 21 22  1  0  0  0  0
 22 45  1  0  0  0  0
 23 22  2  0  0  0  0
 23 46  1  0  0  0  0
 24  2  1  0  0  0  0
 24 29  1  0  0  0  0
 25 24  2  0  0  0  0
 26 25  1  0  0  0  0
 26 27  2  0  0  0  0
 27 28  1  0  0  0  0
 28 29  2  0  0  0  0
 28 50  1  0  0  0  0
 29 51  1  0  0  0  0
 32  6  1  0  0  0  0
 33  7  1  0  0  0  0
 34 10  1  0  0  0  0
 35 11  1  0  0  0  0
 39 16  1  0  0  0  0
 41 17  1  0  0  0  0
 42 19  1  0  0  0  0
 43 20  1  0  0  0  0
 47 25  1  0  0  0  0
 48 26  1  0  0  0  0
 49 27  1  0  0  0  0
M  END
