1,2
q = 0.0, confidence = 0.98

 68 73  0  0  0  0  0  0  0  0999 V2000
   -1.7052   -0.0669   -0.0206 P   0  0  0  0  0  0  0  0  0  0  0  0
    1.7418   -0.2111    0.0264 P   0  0  0  0  0  0  0  0  0  0  0  0
    0.8582    3.0494    1.0715 O   0  0  0  0  0  0  0  0  0  0  0  0
   -2.0414   -1.0642    2.6381 C   0  0  0  0  0  0  0  0  0  0  0  0
    3.2785   -2.6001    0.2492 C   0  0  0  0  0  0  0  0  0  0  0  0
    4.9700    2.2523    0.8155 C   0  0  0  0  0  0  0  0  0  0  0  0
    0.5553    0.1588    4.5306 C   0  0  0  0  0  0  0  0  0  0  0  0
    0.1400    1.1181    3.5993 C   0  0  0  0  0  0  0  0  0  0  0  0
   -3.9465   -1.7957   -3.0490 C   0  0  0  0  0  0  0  0  0  0  0  0
    2.8018   -4.6169   -1.0258 C   0  0  0  0  0  0  0  0  0  0  0  0
    1.2936   -0.9516    4.0987 C   0  0  0  0  0  0  0  0  0  0  0  0
   -4.1658   -1.4185   -0.2794 C   0  0  0  0  0  0  0  0  0  0  0  0
    1.2697   -0.0942    1.8104 C   0  0  0  0  0  0  0  0  0  0  0  0
   -1.0226   -3.5988    1.9833 C   0  0  0  0  0  0  0  0  0  0  0  0
   -1.5676   -1.3121    1.3374 C   0  0  0  0  0  0  0  0  0  0  0  0
    1.4135   -2.6426   -1.3179 C   0  0  0  0  0  0  0  0  0  0  0  0
   -4.1853    3.0624    1.1089 C   0  0  0  0  0  0  0  0  0  0  0  0
   -3.0538   -0.8922   -0.9736 C   0  0  0  0  0  0  0  0  0  0  0  0
   -3.2677    4.0132    1.5758 C   0  0  0  0  0  0  0  0  0  0  0  0
    5.8789    1.8929   -0.1903 C   0  0  0  0  0  0  0  0  0  0  0  0
    1.6445   -1.0751    2.7475 C   0  0  0  0  0  0  0  0  0  0  0  0
    2.1720   -1.9582   -0.3478 C   0  0  0  0  0  0  0  0  0  0  0  0
   -2.9437   -1.0933   -2.3632 C   0  0  0  0  0  0  0  0  0  0  0  0
   -1.0710   -2.5907    1.0129 C   0  0  0  0  0  0  0  0  0  0  0  0
    0.4850    1.0044    2.2371 C   0  0  0  0  0  0  0  0  0  0  0  0
   -3.7367    1.8010    0.6846 C   0  0  0  0  0  0  0  0  0  0  0  0
    3.7183    1.6233    0.8970 C   0  0  0  0  0  0  0  0  0  0  0  0
   -2.3758    1.4635    0.7623 C   0  0  0  0  0  0  0  0  0  0  0  0
    5.5311    0.9064   -1.1278 C   0  0  0  0  0  0  0  0  0  0  0  0
   -5.0650   -2.2915   -2.3621 C   0  0  0  0  0  0  0  0  0  0  0  0
   -1.9030    3.6960    1.6283 C   0  0  0  0  0  0  0  0  0  0  0  0
   -1.9988   -2.0798    3.6070 C   0  0  0  0  0  0  0  0  0  0  0  0
   -1.4862   -3.3451    3.2850 C   0  0  0  0  0  0  0  0  0  0  0  0
    0.0455    2.1832    1.3748 C   0  0  0  0  0  0  0  0  0  0  0  0
    3.3756    0.6247   -0.0336 C   0  0  0  0  0  0  0  0  0  0  0  0
    3.5817   -3.9287   -0.0810 C   0  0  0  0  0  0  0  0  0  0  0  0
   -1.4442    2.4222    1.2449 C   0  0  0  0  0  0  0  0  0  0  0  0
   -5.1736   -2.1012   -0.9750 C   0  0  0  0  0  0  0  0  0  0  0  0
    4.2823    0.2764   -1.0577 C   0  0  0  0  0  0  0  0  0  0  0  0
    1.7264   -3.9688   -1.6530 C   0  0  0  0  0  0  0  0  0  0  0  0
    6.2331    0.6320   -1.9296 H   0  0  0  0  0  0  0  0  0  0  0  0
   -2.3668   -1.8750    4.6239 H   0  0  0  0  0  0  0  0  0  0  0  0
   -1.1605    4.4380    1.9578 H   0  0  0  0  0  0  0  0  0  0  0  0
   -5.8519   -2.8352   -2.9069 H   0  0  0  0  0  0  0  0  0  0  0  0
   -2.4434   -0.0729    2.8947 H   0  0  0  0  0  0  0  0  0  0  0  0
    3.9220   -2.0497    0.9522 H   0  0  0  0  0  0  0  0  0  0  0  0
    5.2304    3.0347    1.5442 H   0  0  0  0  0  0  0  0  0  0  0  0
    0.2782    0.2658    5.5902 H   0  0  0  0  0  0  0  0  0  0  0  0
   -0.4725    1.9736    3.9243 H   0  0  0  0  0  0  0  0  0  0  0  0
   -3.8515   -1.9481   -4.1347 H   0  0  0  0  0  0  0  0  0  0  0  0
    1.5904   -1.7348    4.8118 H   0  0  0  0  0  0  0  0  0  0  0  0
    3.0479   -5.6569   -1.2887 H   0  0  0  0  0  0  0  0  0  0  0  0
   -4.2376   -1.3129    0.8136 H   0  0  0  0  0  0  0  0  0  0  0  0
   -0.6233   -4.5894    1.7175 H   0  0  0  0  0  0  0  0  0  0  0  0
    0.5891   -2.1079   -1.8185 H   0  0  0  0  0  0  0  0  0  0  0  0
   -5.2552    3.3101    1.0405 H   0  0  0  0  0  0  0  0  0  0  0  0
   -3.6109    5.0129    1.8815 H   0  0  0  0  0  0  0  0  0  0  0  0
    6.8597    2.3889   -0.2508 H   0  0  0  0  0  0  0  0  0  0  0  0
    2.1994   -1.9628    2.4149 H   0  0  0  0  0  0  0  0  0  0  0  0
   -2.0836   -0.6743   -2.9040 H   0  0  0  0  0  0  0  0  0  0  0  0
   -0.7265   -2.8024   -0.0084 H   0  0  0  0  0  0  0  0  0  0  0  0
    2.9980    1.9374    1.6636 H   0  0  0  0  0  0  0  0  0  0  0  0
   -4.4510    1.0885    0.2484 H   0  0  0  0  0  0  0  0  0  0  0  0
   -1.4516   -4.1370    4.0485 H   0  0  0  0  0  0  0  0  0  0  0  0
    4.4425   -4.4256    0.3915 H   0  0  0  0  0  0  0  0  0  0  0  0
   -6.0415   -2.4979   -0.4266 H   0  0  0  0  0  0  0  0  0  0  0  0
    4.0055   -0.4803   -1.8047 H   0  0  0  0  0  0  0  0  0  0  0  0
    1.1319   -4.4932   -2.4163 H   0  0  0  0  0  0  0  0  0  0  0  0
  1 28  1  0  0  0  0
  1 15  1  0  0  0  0
  2 13  1  0  0  0  0
  3 34  2  0  0  0  0
  4 45  1  0  0  0  0
  4 32  1  0  0  0  0
  5 46  1  0  0  0  0
  6 27  1  0  0  0  0
  6 47  1  0  0  0  0
  7 48  1  0  0  0  0
  8 49  1  0  0  0  0
  8  7  2  0  0  0  0
  9 23  2  0  0  0  0
  9 30  1  0  0  0  0
 10 36  2  0  0  0  0
 11  7  1  0  0  0  0
 11 51  1  0  0  0  0
 12 53  1  0  0  0  0
 13 25  2  0  0  0  0
 13 21  1  0  0  0  0
 14 33  1  0  0  0  0
 15  4  2  0  0  0  0
 16 22  1  0  0  0  0
 17 19  1  0  0  0  0
 18 12  2  0  0  0  0
 18  1  1  0  0  0  0
 19 31  2  0  0  0  0
 19 57  1  0  0  0  0
 20  6  2  0  0  0  0
 21 11  2  0  0  0  0
 22  2  1  0  0  0  0
 22  5  2  0  0  0  0
 23 18  1  0  0  0  0
 24 15  1  0  0  0  0
 24 14  2  0  0  0  0
 25  8  1  0  0  0  0
 26 28  1  0  0  0  0
 26 17  2  0  0  0  0
 27 62  1  0  0  0  0
 28 37  2  0  0  0  0
 29 39  2  0  0  0  0
 29 20  1  0  0  0  0
 30 38  2  0  0  0  0
 31 43  1  0  0  0  0
 32 42  1  0  0  0  0
 33 32  2  0  0  0  0
 33 64  1  0  0  0  0
 34 25  1  0  0  0  0
 35  2  1  0  0  0  0
 35 27  2  0  0  0  0
 36  5  1  0  0  0  0
 36 65  1  0  0  0  0
 37 34  1  0  0  0  0
 37 31  1  0  0  0  0
 38 66  1  0  0  0  0
 38 12  1  0  0  0  0
 39 35  1  0  0  0  0
 40 16  2  0  0  0  0
 40 10  1  0  0  0  0
 41 29  1  0  0  0  0
 44 30  1  0  0  0  0
 50  9  1  0  0  0  0
 52 10  1  0  0  0  0
 54 14  1  0  0  0  0
 55 16  1  0  0  0  0
 56 17  1  0  0  0  0
 58 20  1  0  0  0  0
 59 21  1  0  0  0  0
 60 23  1  0  0  0  0
 61 24  1  0  0  0  0
 63 26  1  0  0  0  0
 67 39  1  0  0  0  0
 68 40  1  0  0  0  0
M  END
