1,2
q = 0.0, confidence = 1.0

 58 63  0  0  1  0  0  0  0  0999 V2000
    1.3919   -0.9906   -0.2816 P   0  0  2  0  0  0  0  0  0  0  0  0
   -1.6017   -0.0476   -0.4042 P   0  0  0  0  0  0  0  0  0  0  0  0
   -0.7702   -0.4688   -2.0412 C   0  0  0  0  0  0  0  0  0  0  0  0
    0.7281   -0.2235   -1.9037 C   0  0  2  0  0  0  0  0  0  0  0  0
    1.6496   -0.7913   -3.0141 C   0  0  2  0  0  0  0  0  0  0  0  0
    2.8721   -1.5175   -2.3023 C   0  0  1  0  0  0  0  0  0  0  0  0
    3.6483   -0.4570   -1.4987 C   0  0  0  0  0  0  0  0  0  0  0  0
    2.9884   -0.0562   -0.3713 C   0  0  0  0  0  0  0  0  0  0  0  0
    2.1730   -2.3800   -1.2273 C   0  0  0  0  0  0  0  0  0  0  0  0
    2.0370    0.2671   -4.0453 C   0  0  0  0  0  0  0  0  0  0  0  0
    3.7128   -2.3364   -3.2801 C   0  0  0  0  0  0  0  0  0  0  0  0
    4.9612    0.0821   -1.9793 C   0  0  0  0  0  0  0  0  0  0  0  0
    3.2748    1.0646    0.5393 C   0  0  0  0  0  0  0  0  0  0  0  0
    3.2658    0.8708    1.9401 C   0  0  0  0  0  0  0  0  0  0  0  0
    3.4775    1.9471    2.8109 C   0  0  0  0  0  0  0  0  0  0  0  0
    3.6905    3.2384    2.3022 C   0  0  0  0  0  0  0  0  0  0  0  0
    3.6941    3.4483    0.9138 C   0  0  0  0  0  0  0  0  0  0  0  0
    3.4869    2.3718    0.0394 C   0  0  0  0  0  0  0  0  0  0  0  0
   -1.7477    1.7794   -0.4806 C   0  0  0  0  0  0  0  0  0  0  0  0
   -0.7414    2.7294   -0.2610 C   0  0  0  0  0  0  0  0  0  0  0  0
   -1.0574    4.0950   -0.3635 C   0  0  0  0  0  0  0  0  0  0  0  0
   -2.3706    4.4971   -0.6665 C   0  0  0  0  0  0  0  0  0  0  0  0
   -3.3835    3.5468   -0.8686 C   0  0  0  0  0  0  0  0  0  0  0  0
   -3.0809    2.1757   -0.7778 C   0  0  0  0  0  0  0  0  0  0  0  0
   -4.0083    1.0383   -0.9396 C   0  0  0  0  0  0  0  0  0  0  0  0
   -5.3873    1.0890   -1.2146 C   0  0  0  0  0  0  0  0  0  0  0  0
   -6.1195   -0.1037   -1.3170 C   0  0  0  0  0  0  0  0  0  0  0  0
   -5.4934   -1.3511   -1.1402 C   0  0  0  0  0  0  0  0  0  0  0  0
   -4.1185   -1.4180   -0.8584 C   0  0  0  0  0  0  0  0  0  0  0  0
   -3.3849   -0.2286   -0.7701 C   0  0  0  0  0  0  0  0  0  0  0  0
   -0.9941   -1.5410   -2.2298 H   0  0  0  0  0  0  0  0  0  0  0  0
   -1.2335    0.1321   -2.8507 H   0  0  0  0  0  0  0  0  0  0  0  0
    0.8999    0.8680   -1.7947 H   0  0  0  0  0  0  0  0  0  0  0  0
    1.0940   -1.6040   -3.5330 H   0  0  0  0  0  0  0  0  0  0  0  0
    2.8859   -2.9356   -0.5870 H   0  0  0  0  0  0  0  0  0  0  0  0
    1.4216   -3.0815   -1.6433 H   0  0  0  0  0  0  0  0  0  0  0  0
    2.6776   -0.1459   -4.8504 H   0  0  0  0  0  0  0  0  0  0  0  0
    2.5802    1.1084   -3.5675 H   0  0  0  0  0  0  0  0  0  0  0  0
    1.1331    0.6917   -4.5272 H   0  0  0  0  0  0  0  0  0  0  0  0
    3.0788   -3.0807   -3.8035 H   0  0  0  0  0  0  0  0  0  0  0  0
    4.5144   -2.8892   -2.7506 H   0  0  0  0  0  0  0  0  0  0  0  0
    4.1944   -1.7039   -4.0521 H   0  0  0  0  0  0  0  0  0  0  0  0
    5.6959   -0.7377   -2.1246 H   0  0  0  0  0  0  0  0  0  0  0  0
    5.3884    0.8096   -1.2642 H   0  0  0  0  0  0  0  0  0  0  0  0
    4.8614    0.5832   -2.9660 H   0  0  0  0  0  0  0  0  0  0  0  0
    3.0833   -0.1369    2.3419 H   0  0  0  0  0  0  0  0  0  0  0  0
    3.4623    1.7780    3.8980 H   0  0  0  0  0  0  0  0  0  0  0  0
    3.8451    4.0841    2.9892 H   0  0  0  0  0  0  0  0  0  0  0  0
    3.8513    4.4596    0.5084 H   0  0  0  0  0  0  0  0  0  0  0  0
    3.4661    2.5394   -1.0485 H   0  0  0  0  0  0  0  0  0  0  0  0
    0.2800    2.4177    0.0078 H   0  0  0  0  0  0  0  0  0  0  0  0
   -0.2752    4.8492   -0.1905 H   0  0  0  0  0  0  0  0  0  0  0  0
   -2.6108    5.5689   -0.7353 H   0  0  0  0  0  0  0  0  0  0  0  0
   -4.4098    3.8760   -1.0916 H   0  0  0  0  0  0  0  0  0  0  0  0
   -5.8933    2.0578   -1.3442 H   0  0  0  0  0  0  0  0  0  0  0  0
   -7.1985   -0.0611   -1.5294 H   0  0  0  0  0  0  0  0  0  0  0  0
   -6.0835   -2.2769   -1.2120 H   0  0  0  0  0  0  0  0  0  0  0  0
   -3.6260   -2.3897   -0.6989 H   0  0  0  0  0  0  0  0  0  0  0  0
  1  8  1  6  0  0  0
  3  4  1  0  0  0  0
  3  2  1  0  0  0  0
  4 33  1  1  0  0  0
  4  1  1  0  0  0  0
  5 34  1  6  0  0  0
  5  6  1  0  0  0  0
  5  4  1  0  0  0  0
  6 11  1  6  0  0  0
  6  7  1  0  0  0  0
  6  9  1  0  0  0  0
  7  8  2  0  0  0  0
  8 13  1  0  0  0  0
  9 35  1  0  0  0  0
  9  1  1  0  0  0  0
 10 38  1  0  0  0  0
 10  5  1  0  0  0  0
 11 41  1  0  0  0  0
 12  7  1  0  0  0  0
 12 44  1  0  0  0  0
 13 14  1  0  0  0  0
 14 46  1  0  0  0  0
 14 15  2  0  0  0  0
 15 47  1  0  0  0  0
 16 15  1  0  0  0  0
 16 48  1  0  0  0  0
 17 16  2  0  0  0  0
 18 13  2  0  0  0  0
 18 17  1  0  0  0  0
 19  2  1  0  0  0  0
 19 20  1  0  0  0  0
 20 51  1  0  0  0  0
 21 20  2  0  0  0  0
 21 52  1  0  0  0  0
 22 21  1  0  0  0  0
 23 24  1  0  0  0  0
 23 22  2  0  0  0  0
 24 19  2  0  0  0  0
 25 24  1  0  0  0  0
 25 30  1  0  0  0  0
 26 25  2  0  0  0  0
 27 26  1  0  0  0  0
 27 28  2  0  0  0  0
 28 29  1  0  0  0  0
 29 30  2  0  0  0  0
 29 58  1  0  0  0  0
 30  2  1  0  0  0  0
 31  3  1  0  0  0  0
 32  3  1  0  0  0  0
 36  9  1  0  0  0  0
 37 10  1  0  0  0  0
 39 10  1  0  0  0  0
 40 11  1  0  0  0  0
 42 11  1  0  0  0  0
 43 12  1  0  0  0  0
 45 12  1  0  0  0  0
 49 17  1  0  0  0  0
 50 18  1  0  0  0  0
 53 22  1  0  0  0  0
 54 23  1  0  0  0  0
 55 26  1  0  0  0  0
 56 27  1  0  0  0  0
 57 28  1  0  0  0  0
M  END
