1,2
q = 0.0, confidence = 0.998

 57 61  0  0  1  0  0  0  0  0999 V2000
    1.2359   -1.1564   -0.2614 P   0  0  2  0  0  0  0  0  0  0  0  0
   -1.5533    0.2636   -0.5731 P   0  0  0  0  0  0  0  0  0  0  0  0
   -0.8022   -0.4880   -2.1236 C   0  0  0  0  0  0  0  0  0  0  0  0
    0.7178   -0.4690   -1.9808 C   0  0  2  0  0  0  0  0  0  0  0  0
    1.5482   -1.3051   -2.9787 C   0  0  0  0  0  0  0  0  0  0  0  0
    2.6246   -2.1306   -2.1771 C   0  0  1  0  0  0  0  0  0  0  0  0
    3.5472   -1.1067   -1.4878 C   0  0  0  0  0  0  0  0  0  0  0  0
    2.9584   -0.4905   -0.4190 C   0  0  0  0  0  0  0  0  0  0  0  0
    1.7994   -2.7471   -1.0278 C   0  0  0  0  0  0  0  0  0  0  0  0
    3.3319   -3.1583   -3.0578 C   0  0  0  0  0  0  0  0  0  0  0  0
    4.8984   -0.7926   -2.0514 C   0  0  0  0  0  0  0  0  0  0  0  0
    3.3923    0.6830    0.3564 C   0  0  0  0  0  0  0  0  0  0  0  0
    3.2500    0.6953    1.7640 C   0  0  0  0  0  0  0  0  0  0  0  0
    3.5851    1.8338    2.5080 C   0  0  0  0  0  0  0  0  0  0  0  0
    4.0640    2.9850    1.8619 C   0  0  0  0  0  0  0  0  0  0  0  0
    4.2054    2.9909    0.4644 C   0  0  0  0  0  0  0  0  0  0  0  0
    3.8688    1.8531   -0.2826 C   0  0  0  0  0  0  0  0  0  0  0  0
   -3.3681    0.1978   -0.8423 C   0  0  0  0  0  0  0  0  0  0  0  0
   -3.9668   -0.4252   -1.9548 C   0  0  0  0  0  0  0  0  0  0  0  0
   -5.3661   -0.4791   -2.0659 C   0  0  0  0  0  0  0  0  0  0  0  0
   -6.1763    0.0932   -1.0746 C   0  0  0  0  0  0  0  0  0  0  0  0
   -5.5844    0.7186    0.0360 C   0  0  0  0  0  0  0  0  0  0  0  0
   -4.1900    0.7648    0.1562 C   0  0  0  0  0  0  0  0  0  0  0  0
   -1.1488    2.0518   -0.8278 C   0  0  0  0  0  0  0  0  0  0  0  0
   -2.0098    2.9159   -1.5356 C   0  0  0  0  0  0  0  0  0  0  0  0
   -1.6391    4.2501   -1.7624 C   0  0  0  0  0  0  0  0  0  0  0  0
   -0.4056    4.7322   -1.2947 C   0  0  0  0  0  0  0  0  0  0  0  0
    0.4577    3.8758   -0.5937 C   0  0  0  0  0  0  0  0  0  0  0  0
    0.0851    2.5448   -0.3546 C   0  0  0  0  0  0  0  0  0  0  0  0
   -1.1847   -1.5286   -2.1965 H   0  0  0  0  0  0  0  0  0  0  0  0
   -1.1427    0.0761   -3.0173 H   0  0  0  0  0  0  0  0  0  0  0  0
    1.0606    0.5851   -1.9774 H   0  0  0  0  0  0  0  0  0  0  0  0
    2.0371   -0.6734   -3.7477 H   0  0  0  0  0  0  0  0  0  0  0  0
    0.8940   -2.0254   -3.5139 H   0  0  0  0  0  0  0  0  0  0  0  0
    2.4151   -3.3250   -0.3108 H   0  0  0  0  0  0  0  0  0  0  0  0
    0.9505   -3.3691   -1.3766 H   0  0  0  0  0  0  0  0  0  0  0  0
    2.5977   -3.8760   -3.4762 H   0  0  0  0  0  0  0  0  0  0  0  0
    4.0795   -3.7383   -2.4803 H   0  0  0  0  0  0  0  0  0  0  0  0
    3.8545   -2.6796   -3.9106 H   0  0  0  0  0  0  0  0  0  0  0  0
    5.5108   -1.7118   -2.1608 H   0  0  0  0  0  0  0  0  0  0  0  0
    5.4520   -0.0772   -1.4155 H   0  0  0  0  0  0  0  0  0  0  0  0
    4.8160   -0.3537   -3.0708 H   0  0  0  0  0  0  0  0  0  0  0  0
    2.8613   -0.2009    2.2700 H   0  0  0  0  0  0  0  0  0  0  0  0
    3.4571    1.8263    3.6006 H   0  0  0  0  0  0  0  0  0  0  0  0
    4.3188    3.8814    2.4472 H   0  0  0  0  0  0  0  0  0  0  0  0
    4.5697    3.8935   -0.0501 H   0  0  0  0  0  0  0  0  0  0  0  0
    3.9439    1.8745   -1.3801 H   0  0  0  0  0  0  0  0  0  0  0  0
   -3.3483   -0.8767   -2.7435 H   0  0  0  0  0  0  0  0  0  0  0  0
   -5.8238   -0.9735   -2.9363 H   0  0  0  0  0  0  0  0  0  0  0  0
   -7.2723    0.0480   -1.1635 H   0  0  0  0  0  0  0  0  0  0  0  0
   -6.2136    1.1634    0.8215 H   0  0  0  0  0  0  0  0  0  0  0  0
   -3.7298    1.2405    1.0359 H   0  0  0  0  0  0  0  0  0  0  0  0
   -2.9780    2.5445   -1.9045 H   0  0  0  0  0  0  0  0  0  0  0  0
   -2.3219    4.9191   -2.3084 H   0  0  0  0  0  0  0  0  0  0  0  0
   -0.1201    5.7802   -1.4729 H   0  0  0  0  0  0  0  0  0  0  0  0
    1.4264    4.2375   -0.2170 H   0  0  0  0  0  0  0  0  0  0  0  0
    0.7615    1.8863    0.2101 H   0  0  0  0  0  0  0  0  0  0  0  0
  1  8  1  6  0  0  0
  3  4  1  0  0  0  0
  3  2  1  0  0  0  0
  4 32  1  6  0  0  0
  4  1  1  0  0  0  0
  5  6  1  0  0  0  0
  5  4  1  0  0  0  0
  6 10  1  6  0  0  0
  6  7  1  0  0  0  0
  6  9  1  0  0  0  0
  7  8  2  0  0  0  0
  8 12  1  0  0  0  0
  9 35  1  0  0  0  0
  9  1  1  0  0  0  0
 10 38  1  0  0  0  0
 11  7  1  0  0  0  0
 11 41  1  0  0  0  0
 12 13  1  0  0  0  0
 13 43  1  0  0  0  0
 13 14  2  0  0  0  0
 14 44  1  0  0  0  0
 15 45  1  0  0  0  0
 15 14  1  0  0  0  0
 16 15  2  0  0  0  0
 17 12  2  0  0  0  0
 17 16  1  0  0  0  0
 18  2  1  0  0  0  0
 18 23  1  0  0  0  0
 19 18  2  0  0  0  0
 20 19  1  0  0  0  0
 20 21  2  0  0  0  0
 21 22  1  0  0  0  0
 22 23  2  0  0  0  0
 22 51  1  0  0  0  0
 23 52  1  0  0  0  0
 24  2  1  0  0  0  0
 24 29  1  0  0  0  0
 25 24  2  0  0  0  0
 26 25  1  0  0  0  0
 26 27  2  0  0  0  0
 27 28  1  0  0  0  0
 28 29  2  0  0  0  0
 28 56  1  0  0  0  0
 29 57  1  0  0  0  0
 30  3  1  0  0  0  0
 31  3  1  0  0  0  0
 33  5  1  0  0  0  0
 34  5  1  0  0  0  0
 36  9  1  0  0  0  0
 37 10  1  0  0  0  0
 39 10  1  0  0  0  0
 40 11  1  0  0  0  0
 42 11  1  0  0  0  0
 46 16  1  0  0  0  0
 47 17  1  0  0  0  0
 48 19  1  0  0  0  0
 49 20  1  0  0  0  0
 50 21  1  0  0  0  0
 53 25  1  0  0  0  0
 54 26  1  0  0  0  0
 55 27  1  0  0  0  0
M  END
