1,2
q = 0.0, confidence = 0.992

 38 39  0  0  0  0  0  0  0  0999 V2000
    1.8295   -1.2606   -1.2151 P   0  0  2  0  0  0  0  0  0  0  0  0
   -1.1050   -0.8701   -1.8854 P   0  0  1  0  0  0  0  0  0  0  0  0
    3.1516   -2.4897   -0.8886 C   0  0  0  0  0  0  0  0  0  0  0  0
    2.6484   -3.4153   -0.5453 H   0  0  0  0  0  0  0  0  0  0  0  0
    3.8557   -2.1218   -0.1205 H   0  0  0  0  0  0  0  0  0  0  0  0
    3.7148   -2.6950   -1.8194 H   0  0  0  0  0  0  0  0  0  0  0  0
    1.2913   -1.6965   -2.9385 C   0  0  0  0  0  0  0  0  0  0  0  0
    2.1456   -1.5822   -3.6365 H   0  0  0  0  0  0  0  0  0  0  0  0
    1.0005   -2.7675   -2.9004 H   0  0  0  0  0  0  0  0  0  0  0  0
    2.6672    0.3565   -1.4193 C   0  0  0  0  0  0  0  0  0  0  0  0
    1.9669    1.5213   -1.0484 C   0  0  0  0  0  0  0  0  0  0  0  0
    0.9676    1.4126   -0.5989 H   0  0  0  0  0  0  0  0  0  0  0  0
    2.5517    2.7838   -1.2148 C   0  0  0  0  0  0  0  0  0  0  0  0
    2.0009    3.6865   -0.9117 H   0  0  0  0  0  0  0  0  0  0  0  0
    3.8468    2.8898   -1.7459 C   0  0  0  0  0  0  0  0  0  0  0  0
    4.3119    3.8790   -1.8711 H   0  0  0  0  0  0  0  0  0  0  0  0
    4.5538    1.7322   -2.1110 C   0  0  0  0  0  0  0  0  0  0  0  0
    5.5698    1.8146   -2.5252 H   0  0  0  0  0  0  0  0  0  0  0  0
    3.9692    0.4672   -1.9501 C   0  0  0  0  0  0  0  0  0  0  0  0
    4.5360   -0.4304   -2.2408 H   0  0  0  0  0  0  0  0  0  0  0  0
   -2.1596   -2.2840   -2.4020 C   0  0  0  0  0  0  0  0  0  0  0  0
   -1.5685   -3.2042   -2.2231 H   0  0  0  0  0  0  0  0  0  0  0  0
   -2.4458   -2.1825   -3.4664 H   0  0  0  0  0  0  0  0  0  0  0  0
   -3.0713   -2.3576   -1.7858 H   0  0  0  0  0  0  0  0  0  0  0  0
    0.1194   -0.7920   -3.2916 C   0  0  0  0  0  0  0  0  0  0  0  0
   -0.3865   -1.0826   -4.2342 H   0  0  0  0  0  0  0  0  0  0  0  0
    0.4596    0.2572   -3.4029 H   0  0  0  0  0  0  0  0  0  0  0  0
   -2.1386    0.6294   -2.0732 C   0  0  0  0  0  0  0  0  0  0  0  0
   -3.5293    0.5827   -1.8412 C   0  0  0  0  0  0  0  0  0  0  0  0
   -4.0281   -0.3736   -1.6277 H   0  0  0  0  0  0  0  0  0  0  0  0
   -4.2972    1.7550   -1.8806 C   0  0  0  0  0  0  0  0  0  0  0  0
   -5.3803    1.7017   -1.6958 H   0  0  0  0  0  0  0  0  0  0  0  0
   -3.6885    2.9882   -2.1580 C   0  0  0  0  0  0  0  0  0  0  0  0
   -4.2930    3.9067   -2.1931 H   0  0  0  0  0  0  0  0  0  0  0  0
   -2.3057    3.0443   -2.3948 C   0  0  0  0  0  0  0  0  0  0  0  0
   -1.8223    4.0065   -2.6217 H   0  0  0  0  0  0  0  0  0  0  0  0
   -1.5331    1.8761   -2.3442 C   0  0  0  0  0  0  0  0  0  0  0  0
   -0.4483    1.9457   -2.5147 H   0  0  0  0  0  0  0  0  0  0  0  0
  1  7  1  6  0  0  0
  1  3  1  0  0  0  0
  2 25  1  6  0  0  0
  3  4  1  0  0  0  0
  3  5  1  0  0  0  0
  6  3  1  0  0  0  0
  7  9  1  0  0  0  0
  8  7  1  0  0  0  0
 10  1  1  0  0  0  0
 10 11  1  0  0  0  0
 11 12  1  0  0  0  0
 13 11  2  0  0  0  0
 13 14  1  0  0  0  0
 15 13  1  0  0  0  0
 16 15  1  0  0  0  0
 17 19  1  0  0  0  0
 17 15  2  0  0  0  0
 18 17  1  0  0  0  0
 19 10  2  0  0  0  0
 20 19  1  0  0  0  0
 21 22  1  0  0  0  0
 21  2  1  0  0  0  0
 21 24  1  0  0  0  0
 23 21  1  0  0  0  0
 25  7  1  0  0  0  0
 26 25  1  0  0  0  0
 27 25  1  0  0  0  0
 28  2  1  0  0  0  0
 28 29  1  0  0  0  0
 29 30  1  0  0  0  0
 31 29  2  0  0  0  0
 31 32  1  0  0  0  0
 33 31  1  0  0  0  0
 34 33  1  0  0  0  0
 35 37  1  0  0  0  0
 35 33  2  0  0  0  0
 36 35  1  0  0  0  0
 37 28  2  0  0  0  0
 38 37  1  0  0  0  0
M  END
