1,2
q = 0.0, confidence = 0.99

 59 62  0  0  1  0  0  0  0  0999 V2000
   -1.7136    0.0141    0.5163 P   0  0  0  0  0  0  0  0  0  0  0  0
    1.6446   -0.0855    0.2985 P   0  0  0  0  0  0  0  0  0  0  0  0
    1.3329    0.2278    1.9150 O   0  0  0  0  0  0  0  0  0  0  0  0
    2.9264   -1.3545    0.5654 C   0  0  0  0  0  0  0  0  0  0  0  0
    2.8482   -2.1983    1.6911 C   0  0  0  0  0  0  0  0  0  0  0  0
    2.0371   -2.0608    2.4195 H   0  0  0  0  0  0  0  0  0  0  0  0
    3.8143   -3.1968    1.8821 C   0  0  0  0  0  0  0  0  0  0  0  0
    3.7524   -3.8534    2.7633 H   0  0  0  0  0  0  0  0  0  0  0  0
    4.8550   -3.3576    0.9539 C   0  0  0  0  0  0  0  0  0  0  0  0
    5.6110   -4.1432    1.1051 H   0  0  0  0  0  0  0  0  0  0  0  0
    4.9300   -2.5173   -0.1687 C   0  0  0  0  0  0  0  0  0  0  0  0
    5.7422   -2.6435   -0.9003 H   0  0  0  0  0  0  0  0  0  0  0  0
    3.9683   -1.5177   -0.3701 C   0  0  0  0  0  0  0  0  0  0  0  0
    4.0085   -0.8733   -1.2590 H   0  0  0  0  0  0  0  0  0  0  0  0
    2.5152    1.4248   -0.2502 C   0  0  0  0  0  0  0  0  0  0  0  0
    3.6752    1.8476    0.4326 C   0  0  0  0  0  0  0  0  0  0  0  0
    4.0879    1.2321    1.2466 H   0  0  0  0  0  0  0  0  0  0  0  0
    4.3024    3.0451    0.0637 C   0  0  0  0  0  0  0  0  0  0  0  0
    5.2100    3.3738    0.5925 H   0  0  0  0  0  0  0  0  0  0  0  0
    3.7752    3.8215   -0.9830 C   0  0  0  0  0  0  0  0  0  0  0  0
    4.2718    4.7602   -1.2727 H   0  0  0  0  0  0  0  0  0  0  0  0
    2.6211    3.4005   -1.6624 C   0  0  0  0  0  0  0  0  0  0  0  0
    2.2117    4.0053   -2.4853 H   0  0  0  0  0  0  0  0  0  0  0  0
    1.9874    2.2029   -1.2985 C   0  0  0  0  0  0  0  0  0  0  0  0
    1.0885    1.8512   -1.8281 H   0  0  0  0  0  0  0  0  0  0  0  0
   -3.0936   -1.1557    0.7979 C   0  0  0  0  0  0  0  0  0  0  0  0
   -4.3451   -0.6964    1.2520 C   0  0  0  0  0  0  0  0  0  0  0  0
   -4.5283    0.3833    1.3675 H   0  0  0  0  0  0  0  0  0  0  0  0
   -5.3638   -1.6178    1.5384 C   0  0  0  0  0  0  0  0  0  0  0  0
   -6.3441   -1.2576    1.8858 H   0  0  0  0  0  0  0  0  0  0  0  0
   -5.1353   -2.9931    1.3733 C   0  0  0  0  0  0  0  0  0  0  0  0
   -5.9377   -3.7137    1.5930 H   0  0  0  0  0  0  0  0  0  0  0  0
   -3.8881   -3.4493    0.9157 C   0  0  0  0  0  0  0  0  0  0  0  0
   -3.7125   -4.5259    0.7706 H   0  0  0  0  0  0  0  0  0  0  0  0
   -2.8672   -2.5350    0.6214 C   0  0  0  0  0  0  0  0  0  0  0  0
   -1.8972   -2.8785    0.2309 H   0  0  0  0  0  0  0  0  0  0  0  0
   -2.4948    1.6156    0.0507 C   0  0  0  0  0  0  0  0  0  0  0  0
   -2.6193    2.6952    0.9501 C   0  0  0  0  0  0  0  0  0  0  0  0
   -2.2551    2.6170    1.9843 H   0  0  0  0  0  0  0  0  0  0  0  0
   -3.2163    3.8964    0.5349 C   0  0  0  0  0  0  0  0  0  0  0  0
   -3.3041    4.7333    1.2444 H   0  0  0  0  0  0  0  0  0  0  0  0
   -3.6980    4.0277   -0.7757 C   0  0  0  0  0  0  0  0  0  0  0  0
   -4.1654    4.9703   -1.0991 H   0  0  0  0  0  0  0  0  0  0  0  0
   -3.5780    2.9538   -1.6732 C   0  0  0  0  0  0  0  0  0  0  0  0
   -3.9516    3.0502   -2.7039 H   0  0  0  0  0  0  0  0  0  0  0  0
   -2.9756    1.7546   -1.2702 C   0  0  0  0  0  0  0  0  0  0  0  0
   -2.8640    0.9111   -1.9732 H   0  0  0  0  0  0  0  0  0  0  0  0
   -1.0713    0.2894    2.2284 C   0  0  0  0  0  0  0  0  0  0  0  0
   -1.8665    0.7704    2.8327 H   0  0  0  0  0  0  0  0  0  0  0  0
   -0.8953   -0.7142    2.6658 H   0  0  0  0  0  0  0  0  0  0  0  0
    0.2382    1.0909    2.2685 C   0  0  1  0  0  0  0  0  0  0  0  0
    0.1929    1.9376    1.5414 H   0  0  0  0  0  0  0  0  0  0  0  0
    0.5375    1.6624    3.6550 C   0  0  0  0  0  0  0  0  0  0  0  0
   -0.3177    2.3131    3.9393 H   0  0  0  0  0  0  0  0  0  0  0  0
    0.5478    0.8219    4.3828 H   0  0  0  0  0  0  0  0  0  0  0  0
    1.8484    2.4433    3.7177 C   0  0  0  0  0  0  0  0  0  0  0  0
    2.0148    2.8668    4.7277 H   0  0  0  0  0  0  0  0  0  0  0  0
    1.8544    3.2807    2.9898 H   0  0  0  0  0  0  0  0  0  0  0  0
    2.7050    1.7861    3.4733 H   0  0  0  0  0  0  0  0  0  0  0  0
  1 26  1  0  0  0  0
  1 48  1  0  0  0  0
  2  4  1  0  0  0  0
  2  3  1  0  0  0  0
  3 51  1  0  0  0  0
  4  5  1  0  0  0  0
  5  7  2  0  0  0  0
  5  6  1  0  0  0  0
  7  8  1  0  0  0  0
  9 10  1  0  0  0  0
  9  7  1  0  0  0  0
 11  9  2  0  0  0  0
 12 11  1  0  0  0  0
 13 11  1  0  0  0  0
 13  4  2  0  0  0  0
 14 13  1  0  0  0  0
 15  2  1  0  0  0  0
 15 16  1  0  0  0  0
 16 17  1  0  0  0  0
 18 16  2  0  0  0  0
 18 19  1  0  0  0  0
 20 18  1  0  0  0  0
 21 20  1  0  0  0  0
 22 24  1  0  0  0  0
 22 20  2  0  0  0  0
 23 22  1  0  0  0  0
 24 15  2  0  0  0  0
 25 24  1  0  0  0  0
 26 27  1  0  0  0  0
 27 28  1  0  0  0  0
 27 29  2  0  0  0  0
 29 30  1  0  0  0  0
 31 29  1  0  0  0  0
 31 32  1  0  0  0  0
 33 31  2  0  0  0  0
 34 33  1  0  0  0  0
 35 26  2  0  0  0  0
 35 33  1  0  0  0  0
 36 35  1  0  0  0  0
 37  1  1  0  0  0  0
 37 38  1  0  0  0  0
 38 39  1  0  0  0  0
 40 38  2  0  0  0  0
 40 41  1  0  0  0  0
 42 40  1  0  0  0  0
 43 42  1  0  0  0  0
 44 46  1  0  0  0  0
 44 42  2  0  0  0  0
 45 44  1  0  0  0  0
 46 37  2  0  0  0  0
 47 46  1  0  0  0  0
 48 51  1  0  0  0  0
 48 50  1  0  0  0  0
 48 49  1  0  0  0  0
 51 52  1  6  0  0  0
 51 53  1  0  0  0  0
 53 56  1  0  0  0  0
 53 54  1  0  0  0  0
 53 55  1  0  0  0  0
 56 57  1  0  0  0  0
 58 56  1  0  0  0  0
 59 56  1  0  0  0  0
M  END
