7,8
q = 0.0, confidence = 0.994

 61 60  0  0  0  0  0  0  0  0999 V2000
   -0.7275    2.5254   -1.0722 C   0  0  0  0  0  0  0  0  0  0  0  0
   -1.5028    3.0117   -1.7137 H   0  0  0  0  0  0  0  0  0  0  0  0
   -0.3568    1.6507   -1.6466 H   0  0  0  0  0  0  0  0  0  0  0  0
    0.4293    3.5107   -0.8499 C   0  0  0  0  0  0  0  0  0  0  0  0
    0.1720    4.2201   -0.0360 H   0  0  0  0  0  0  0  0  0  0  0  0
    0.5428    4.1426   -1.7561 H   0  0  0  0  0  0  0  0  0  0  0  0
   -1.7903    0.3421    0.1511 P   0  0  0  0  0  0  0  0  0  0  0  0
    1.7905    0.1159    0.0516 P   0  0  0  0  0  0  0  0  0  0  0  0
   -1.3373    2.0252    0.1649 N   0  0  0  0  0  0  0  0  0  0  0  0
    1.8066    1.7995    0.4334 N   0  0  0  0  0  0  0  0  0  0  0  0
    1.7873    2.8428   -0.5791 C   0  0  0  0  0  0  0  0  0  0  0  0
    2.1638    2.4152   -1.5241 H   0  0  0  0  0  0  0  0  0  0  0  0
    2.5231    3.6294   -0.2855 H   0  0  0  0  0  0  0  0  0  0  0  0
   -2.0863    3.0388    0.8958 C   0  0  0  0  0  0  0  0  0  0  0  0
   -3.0419    3.3394    0.4053 H   0  0  0  0  0  0  0  0  0  0  0  0
   -1.4684    3.9553    0.9929 H   0  0  0  0  0  0  0  0  0  0  0  0
   -2.3117    2.7123    1.9270 H   0  0  0  0  0  0  0  0  0  0  0  0
    1.4575    2.2369    1.7735 C   0  0  0  0  0  0  0  0  0  0  0  0
    2.1987    2.9814    2.1428 H   0  0  0  0  0  0  0  0  0  0  0  0
    1.4566    1.3824    2.4729 H   0  0  0  0  0  0  0  0  0  0  0  0
    0.4456    2.6922    1.8177 H   0  0  0  0  0  0  0  0  0  0  0  0
   -3.1780    0.1374   -1.1014 C   0  0  0  0  0  0  0  0  0  0  0  0
   -3.5444   -0.8782   -0.8416 H   0  0  0  0  0  0  0  0  0  0  0  0
   -2.6495    0.0564   -2.5385 C   0  0  0  0  0  0  0  0  0  0  0  0
   -3.4713   -0.2521   -3.2176 H   0  0  0  0  0  0  0  0  0  0  0  0
   -1.8476   -0.7035   -2.6188 H   0  0  0  0  0  0  0  0  0  0  0  0
   -2.2669    1.0299   -2.9052 H   0  0  0  0  0  0  0  0  0  0  0  0
   -4.2944    1.1719   -0.9430 C   0  0  0  0  0  0  0  0  0  0  0  0
   -3.9596    2.1863   -1.2413 H   0  0  0  0  0  0  0  0  0  0  0  0
   -4.6871    1.2304    0.0920 H   0  0  0  0  0  0  0  0  0  0  0  0
   -5.1466    0.9048   -1.6025 H   0  0  0  0  0  0  0  0  0  0  0  0
   -2.5992    0.1280    1.8307 C   0  0  0  0  0  0  0  0  0  0  0  0
   -3.2548    1.0154    1.9564 H   0  0  0  0  0  0  0  0  0  0  0  0
   -3.4822   -1.1210    1.9296 C   0  0  0  0  0  0  0  0  0  0  0  0
   -2.9166   -2.0399    1.6817 H   0  0  0  0  0  0  0  0  0  0  0  0
   -4.3524   -1.0734    1.2464 H   0  0  0  0  0  0  0  0  0  0  0  0
   -3.8735   -1.1994    2.9651 H   0  0  0  0  0  0  0  0  0  0  0  0
   -1.5189    0.1415    2.9192 C   0  0  0  0  0  0  0  0  0  0  0  0
   -1.9890    0.0991    3.9232 H   0  0  0  0  0  0  0  0  0  0  0  0
   -0.8862    1.0485    2.8726 H   0  0  0  0  0  0  0  0  0  0  0  0
   -0.8543   -0.7393    2.8109 H   0  0  0  0  0  0  0  0  0  0  0  0
    2.7284   -0.0733   -1.5684 C   0  0  0  0  0  0  0  0  0  0  0  0
    2.8474   -1.1789   -1.5039 H   0  0  0  0  0  0  0  0  0  0  0  0
    1.8557    0.1672   -2.8096 C   0  0  0  0  0  0  0  0  0  0  0  0
    1.6873    1.2407   -3.0326 H   0  0  0  0  0  0  0  0  0  0  0  0
    0.8681   -0.3262   -2.7011 H   0  0  0  0  0  0  0  0  0  0  0  0
    2.3539   -0.2753   -3.6963 H   0  0  0  0  0  0  0  0  0  0  0  0
    4.1159    0.5679   -1.6593 C   0  0  0  0  0  0  0  0  0  0  0  0
    4.5705    0.3047   -2.6372 H   0  0  0  0  0  0  0  0  0  0  0  0
    4.7990    0.1936   -0.8741 H   0  0  0  0  0  0  0  0  0  0  0  0
    4.0969    1.6743   -1.5945 H   0  0  0  0  0  0  0  0  0  0  0  0
    2.9371   -0.6377    1.3554 C   0  0  0  0  0  0  0  0  0  0  0  0
    3.3677   -1.4664    0.7535 H   0  0  0  0  0  0  0  0  0  0  0  0
    2.1782   -1.2980    2.5131 C   0  0  0  0  0  0  0  0  0  0  0  0
    2.8949   -1.8535    3.1528 H   0  0  0  0  0  0  0  0  0  0  0  0
    1.4312   -2.0214    2.1331 H   0  0  0  0  0  0  0  0  0  0  0  0
    1.6652   -0.5578    3.1612 H   0  0  0  0  0  0  0  0  0  0  0  0
    4.0520    0.2919    1.8485 C   0  0  0  0  0  0  0  0  0  0  0  0
    3.6857    1.0048    2.6125 H   0  0  0  0  0  0  0  0  0  0  0  0
    4.5185    0.8848    1.0408 H   0  0  0  0  0  0  0  0  0  0  0  0
    4.8470   -0.3160    2.3284 H   0  0  0  0  0  0  0  0  0  0  0  0
  1  4  1  0  0  0  0
  1  9  1  0  0  0  0
  2  1  1  0  0  0  0
  3  1  1  0  0  0  0
  4 11  1  0  0  0  0
  4  5  1  0  0  0  0
  6  4  1  0  0  0  0
  7  9  1  0  0  0  0
  7 32  1  0  0  0  0
  8 10  1  0  0  0  0
  8 52  1  0  0  0  0
  9 14  1  0  0  0  0
 10 18  1  0  0  0  0
 11 13  1  0  0  0  0
 11 10  1  0  0  0  0
 12 11  1  0  0  0  0
 14 16  1  0  0  0  0
 14 17  1  0  0  0  0
 15 14  1  0  0  0  0
 18 21  1  0  0  0  0
 18 19  1  0  0  0  0
 18 20  1  0  0  0  0
 22 28  1  0  0  0  0
 22 23  1  0  0  0  0
 22  7  1  0  0  0  0
 24 22  1  0  0  0  0
 25 24  1  0  0  0  0
 26 24  1  0  0  0  0
 27 24  1  0  0  0  0
 28 30  1  0  0  0  0
 29 28  1  0  0  0  0
 31 28  1  0  0  0  0
 32 34  1  0  0  0  0
 32 33  1  0  0  0  0
 32 38  1  0  0  0  0
 34 37  1  0  0  0  0
 35 34  1  0  0  0  0
 36 34  1  0  0  0  0
 38 39  1  0  0  0  0
 40 38  1  0  0  0  0
 41 38  1  0  0  0  0
 42 43  1  0  0  0  0
 42  8  1  0  0  0  0
 44 46  1  0  0  0  0
 44 42  1  0  0  0  0
 45 44  1  0  0  0  0
 47 44  1  0  0  0  0
 48 51  1  0  0  0  0
 48 42  1  0  0  0  0
 48 50  1  0  0  0  0
 49 48  1  0  0  0  0
 52 58  1  0  0  0  0
 52 54  1  0  0  0  0
 53 52  1  0  0  0  0
 54 55  1  0  0  0  0
 54 57  1  0  0  0  0
 56 54  1  0  0  0  0
 58 61  1  0  0  0  0
 58 59  1  0  0  0  0
 60 58  1  0  0  0  0
M  END
