1,2
q = 0.0, confidence = 0.996

 65 68  0  0  0  0  0  0  0  0999 V2000
   -1.7796   -0.1528    0.3129 P   0  0  0  0  0  0  0  0  0  0  0  0
    1.7793   -0.1261    0.2685 P   0  0  0  0  0  0  0  0  0  0  0  0
   -1.4430   -0.5135    1.9779 N   0  0  0  0  0  0  0  0  0  0  0  0
    1.7247   -0.2042    2.0041 N   0  0  0  0  0  0  0  0  0  0  0  0
   -0.8626   -1.8511    2.1738 C   0  0  0  0  0  0  0  0  0  0  0  0
   -0.4421   -2.1950    1.2031 H   0  0  0  0  0  0  0  0  0  0  0  0
   -1.6707   -2.5763    2.4321 H   0  0  0  0  0  0  0  0  0  0  0  0
    0.2418   -1.8743    3.2344 C   0  0  0  0  0  0  0  0  0  0  0  0
    0.3261   -2.8981    3.6567 H   0  0  0  0  0  0  0  0  0  0  0  0
   -0.0397   -1.2215    4.0880 H   0  0  0  0  0  0  0  0  0  0  0  0
    1.6208   -1.4959    2.6781 C   0  0  0  0  0  0  0  0  0  0  0  0
    2.3664   -1.5147    3.5085 H   0  0  0  0  0  0  0  0  0  0  0  0
    1.9397   -2.2832    1.9665 H   0  0  0  0  0  0  0  0  0  0  0  0
   -2.4541   -0.1942    2.9813 C   0  0  0  0  0  0  0  0  0  0  0  0
   -2.0011   -0.2445    3.9936 H   0  0  0  0  0  0  0  0  0  0  0  0
   -3.3192   -0.8999    2.9582 H   0  0  0  0  0  0  0  0  0  0  0  0
   -2.8372    0.8334    2.8380 H   0  0  0  0  0  0  0  0  0  0  0  0
    1.4182    0.9464    2.8318 C   0  0  0  0  0  0  0  0  0  0  0  0
    1.6573    1.8844    2.2981 H   0  0  0  0  0  0  0  0  0  0  0  0
    2.0403    0.9135    3.7545 H   0  0  0  0  0  0  0  0  0  0  0  0
    0.3485    0.9790    3.1382 H   0  0  0  0  0  0  0  0  0  0  0  0
   -2.2926    1.6034    0.3387 C   0  0  0  0  0  0  0  0  0  0  0  0
   -3.1981    2.0860   -0.6296 C   0  0  0  0  0  0  0  0  0  0  0  0
   -3.6461    1.3864   -1.3498 H   0  0  0  0  0  0  0  0  0  0  0  0
   -3.4786    3.4581   -0.6989 C   0  0  0  0  0  0  0  0  0  0  0  0
   -4.1823    3.8286   -1.4593 H   0  0  0  0  0  0  0  0  0  0  0  0
   -2.8569    4.3569    0.1832 C   0  0  0  0  0  0  0  0  0  0  0  0
   -3.0780    5.4333    0.1205 H   0  0  0  0  0  0  0  0  0  0  0  0
   -1.9429    3.8806    1.1368 C   0  0  0  0  0  0  0  0  0  0  0  0
   -1.4413    4.5803    1.8225 H   0  0  0  0  0  0  0  0  0  0  0  0
   -1.6564    2.5101    1.2123 C   0  0  0  0  0  0  0  0  0  0  0  0
   -0.9234    2.1388    1.9420 H   0  0  0  0  0  0  0  0  0  0  0  0
   -3.2830   -1.1464   -0.0373 C   0  0  0  0  0  0  0  0  0  0  0  0
   -3.1319   -2.4087   -0.6482 C   0  0  0  0  0  0  0  0  0  0  0  0
   -2.1520   -2.6945   -1.0590 H   0  0  0  0  0  0  0  0  0  0  0  0
   -4.2317   -3.2683   -0.7658 C   0  0  0  0  0  0  0  0  0  0  0  0
   -4.1081   -4.2473   -1.2530 H   0  0  0  0  0  0  0  0  0  0  0  0
   -5.4921   -2.8743   -0.2850 C   0  0  0  0  0  0  0  0  0  0  0  0
   -6.3569   -3.5473   -0.3887 H   0  0  0  0  0  0  0  0  0  0  0  0
   -5.6489   -1.6175    0.3184 C   0  0  0  0  0  0  0  0  0  0  0  0
   -6.6359   -1.3004    0.6882 H   0  0  0  0  0  0  0  0  0  0  0  0
   -4.5476   -0.7558    0.4494 C   0  0  0  0  0  0  0  0  0  0  0  0
   -4.6801    0.2326    0.9145 H   0  0  0  0  0  0  0  0  0  0  0  0
    2.4818    1.5592    0.0156 C   0  0  0  0  0  0  0  0  0  0  0  0
    1.5945    2.5833   -0.3752 C   0  0  0  0  0  0  0  0  0  0  0  0
    0.5404    2.3417   -0.5830 H   0  0  0  0  0  0  0  0  0  0  0  0
    2.0539    3.8995   -0.5173 C   0  0  0  0  0  0  0  0  0  0  0  0
    1.3493    4.6886   -0.8202 H   0  0  0  0  0  0  0  0  0  0  0  0
    3.4063    4.2008   -0.2908 C   0  0  0  0  0  0  0  0  0  0  0  0
    3.7710    5.2320   -0.4142 H   0  0  0  0  0  0  0  0  0  0  0  0
    4.2967    3.1801    0.0789 C   0  0  0  0  0  0  0  0  0  0  0  0
    5.3616    3.4073    0.2391 H   0  0  0  0  0  0  0  0  0  0  0  0
    3.8383    1.8635    0.2370 C   0  0  0  0  0  0  0  0  0  0  0  0
    4.5486    1.0716    0.5110 H   0  0  0  0  0  0  0  0  0  0  0  0
    3.0991   -1.3875   -0.0186 C   0  0  0  0  0  0  0  0  0  0  0  0
    2.9782   -2.3437   -1.0454 C   0  0  0  0  0  0  0  0  0  0  0  0
    2.1146   -2.3011   -1.7240 H   0  0  0  0  0  0  0  0  0  0  0  0
    3.9744   -3.3164   -1.2194 C   0  0  0  0  0  0  0  0  0  0  0  0
    3.8705   -4.0571   -2.0266 H   0  0  0  0  0  0  0  0  0  0  0  0
    5.0973   -3.3427   -0.3782 C   0  0  0  0  0  0  0  0  0  0  0  0
    5.8792   -4.1038   -0.5230 H   0  0  0  0  0  0  0  0  0  0  0  0
    5.2154   -2.4013    0.6571 C   0  0  0  0  0  0  0  0  0  0  0  0
    6.0861   -2.4234    1.3301 H   0  0  0  0  0  0  0  0  0  0  0  0
    4.2165   -1.4359    0.8445 C   0  0  0  0  0  0  0  0  0  0  0  0
    4.2843   -0.7314    1.6866 H   0  0  0  0  0  0  0  0  0  0  0  0
  1 22  1  0  0  0  0
  1  3  1  0  0  0  0
  2  4  1  0  0  0  0
  3  5  1  0  0  0  0
  3 14  1  0  0  0  0
  4 11  1  0  0  0  0
  4 18  1  0  0  0  0
  5  7  1  0  0  0  0
  5  8  1  0  0  0  0
  6  5  1  0  0  0  0
  8  9  1  0  0  0  0
  8 10  1  0  0  0  0
 11  8  1  0  0  0  0
 11 12  1  0  0  0  0
 13 11  1  0  0  0  0
 14 15  1  0  0  0  0
 16 14  1  0  0  0  0
 17 14  1  0  0  0  0
 18 21  1  0  0  0  0
 18 20  1  0  0  0  0
 19 18  1  0  0  0  0
 22 31  1  0  0  0  0
 23 22  2  0  0  0  0
 24 23  1  0  0  0  0
 25 23  1  0  0  0  0
 25 27  2  0  0  0  0
 26 25  1  0  0  0  0
 27 29  1  0  0  0  0
 28 27  1  0  0  0  0
 29 31  2  0  0  0  0
 29 30  1  0  0  0  0
 31 32  1  0  0  0  0
 33  1  1  0  0  0  0
 33 42  1  0  0  0  0
 34 33  2  0  0  0  0
 35 34  1  0  0  0  0
 36 34  1  0  0  0  0
 36 38  2  0  0  0  0
 37 36  1  0  0  0  0
 38 40  1  0  0  0  0
 39 38  1  0  0  0  0
 40 42  2  0  0  0  0
 40 41  1  0  0  0  0
 42 43  1  0  0  0  0
 44 53  1  0  0  0  0
 44  2  1  0  0  0  0
 45 44  2  0  0  0  0
 46 45  1  0  0  0  0
 47 45  1  0  0  0  0
 47 49  2  0  0  0  0
 48 47  1  0  0  0  0
 49 51  1  0  0  0  0
 50 49  1  0  0  0  0
 51 53  2  0  0  0  0
 51 52  1  0  0  0  0
 53 54  1  0  0  0  0
 55  2  1  0  0  0  0
 55 64  1  0  0  0  0
 56 55  2  0  0  0  0
 57 56  1  0  0  0  0
 58 56  1  0  0  0  0
 58 60  2  0  0  0  0
 59 58  1  0  0  0  0
 60 62  1  0  0  0  0
 61 60  1  0  0  0  0
 62 64  2  0  0  0  0
 62 63  1  0  0  0  0
 64 65  1  0  0  0  0
M  END
