1,2
q = 0.0, confidence = 0.998

 40 43  0  0  1  0  0  0  0  0999 V2000
   -1.4734   -0.6783    0.0002 P   0  0  2  0  0  0  0  0  0  0  0  0
    1.3942   -0.4466   -0.0002 P   0  0  1  0  0  0  0  0  0  0  0  0
   -0.7153   -1.7813   -1.3128 C   0  0  0  0  0  0  0  0  0  0  0  0
    0.6927   -2.0283   -0.7707 C   0  0  2  0  0  0  0  0  0  0  0  0
    0.6929   -2.0283    0.7706 C   0  0  2  0  0  0  0  0  0  0  0  0
   -0.7150   -1.7813    1.3130 C   0  0  0  0  0  0  0  0  0  0  0  0
    1.5539   -2.9941   -1.5526 C   0  0  0  0  0  0  0  0  0  0  0  0
    1.5543   -2.9940    1.5523 C   0  0  0  0  0  0  0  0  0  0  0  0
   -3.2813   -0.9816    0.0002 C   0  0  0  0  0  0  0  0  0  0  0  0
   -3.8242   -2.2841    0.0011 C   0  0  0  0  0  0  0  0  0  0  0  0
   -5.2135   -2.4678    0.0009 C   0  0  0  0  0  0  0  0  0  0  0  0
   -6.0710   -1.3541   -0.0003 C   0  0  0  0  0  0  0  0  0  0  0  0
   -5.5359   -0.0573   -0.0012 C   0  0  0  0  0  0  0  0  0  0  0  0
   -4.1448    0.1312   -0.0010 C   0  0  0  0  0  0  0  0  0  0  0  0
    3.2150   -0.5749   -0.0002 C   0  0  0  0  0  0  0  0  0  0  0  0
    3.9256   -0.5646   -1.2194 C   0  0  0  0  0  0  0  0  0  0  0  0
    5.3280   -0.5734   -1.2163 C   0  0  0  0  0  0  0  0  0  0  0  0
    6.0303   -0.5819   -0.0002 C   0  0  0  0  0  0  0  0  0  0  0  0
    5.3280   -0.5728    1.2159 C   0  0  0  0  0  0  0  0  0  0  0  0
    3.9256   -0.5640    1.2190 C   0  0  0  0  0  0  0  0  0  0  0  0
   -0.7126   -1.2818   -2.3013 H   0  0  0  0  0  0  0  0  0  0  0  0
   -1.2747   -2.7393   -1.3957 H   0  0  0  0  0  0  0  0  0  0  0  0
   -1.2743   -2.7394    1.3961 H   0  0  0  0  0  0  0  0  0  0  0  0
   -0.7121   -1.2819    2.3015 H   0  0  0  0  0  0  0  0  0  0  0  0
    1.1005   -4.0092   -1.5438 H   0  0  0  0  0  0  0  0  0  0  0  0
    1.6403   -2.6751   -2.6108 H   0  0  0  0  0  0  0  0  0  0  0  0
    2.5778   -3.0750   -1.1421 H   0  0  0  0  0  0  0  0  0  0  0  0
    1.1010   -4.0091    1.5436 H   0  0  0  0  0  0  0  0  0  0  0  0
    2.5781   -3.0749    1.1416 H   0  0  0  0  0  0  0  0  0  0  0  0
    1.6408   -2.6750    2.6105 H   0  0  0  0  0  0  0  0  0  0  0  0
   -3.1621   -3.1646    0.0020 H   0  0  0  0  0  0  0  0  0  0  0  0
   -5.6309   -3.4863    0.0016 H   0  0  0  0  0  0  0  0  0  0  0  0
   -7.1618   -1.5008   -0.0005 H   0  0  0  0  0  0  0  0  0  0  0  0
   -6.2033    0.8176   -0.0021 H   0  0  0  0  0  0  0  0  0  0  0  0
   -3.7208    1.1461   -0.0016 H   0  0  0  0  0  0  0  0  0  0  0  0
    3.3760   -0.5422   -2.1729 H   0  0  0  0  0  0  0  0  0  0  0  0
    5.8762   -0.5672   -2.1706 H   0  0  0  0  0  0  0  0  0  0  0  0
    7.1308   -0.5850   -0.0002 H   0  0  0  0  0  0  0  0  0  0  0  0
    5.8762   -0.5662    2.1702 H   0  0  0  0  0  0  0  0  0  0  0  0
    3.3760   -0.5412    2.1725 H   0  0  0  0  0  0  0  0  0  0  0  0
  1  9  1  1  0  0  0
  1  6  1  0  0  0  0
  2 15  1  6  0  0  0
  2  5  1  0  0  0  0
  3  4  1  0  0  0  0
  3  1  1  0  0  0  0
  4  7  1  6  0  0  0
  4  2  1  0  0  0  0
  4  5  1  0  0  0  0
  5  6  1  0  0  0  0
  5  8  1  1  0  0  0
  6 23  1  0  0  0  0
  6 24  1  0  0  0  0
  7 25  1  0  0  0  0
  7 27  1  0  0  0  0
  8 30  1  0  0  0  0
  9 10  1  0  0  0  0
 10 31  1  0  0  0  0
 11 10  2  0  0  0  0
 11 32  1  0  0  0  0
 12 11  1  0  0  0  0
 13 14  1  0  0  0  0
 13 12  2  0  0  0  0
 14  9  2  0  0  0  0
 15 20  1  0  0  0  0
 16 17  1  0  0  0  0
 16 15  2  0  0  0  0
 17 18  2  0  0  0  0
 18 19  1  0  0  0  0
 19 20  2  0  0  0  0
 19 39  1  0  0  0  0
 20 40  1  0  0  0  0
 21  3  1  0  0  0  0
 22  3  1  0  0  0  0
 26  7  1  0  0  0  0
 28  8  1  0  0  0  0
 29  8  1  0  0  0  0
 33 12  1  0  0  0  0
 34 13  1  0  0  0  0
 35 14  1  0  0  0  0
 36 16  1  0  0  0  0
 37 17  1  0  0  0  0
 38 18  1  0  0  0  0
M  END
