1,2
q = 0.0, confidence = 0.99

 52 55  0  0  0  0  0  0  0  0999 V2000
   -1.5805    0.7251    0.5809 P   0  0  0  0  0  0  0  0  0  0  0  0
    1.5659    0.7077    0.6791 P   0  0  0  0  0  0  0  0  0  0  0  0
    0.6695    1.3072    2.2079 C   0  0  0  0  0  0  0  0  0  0  0  0
    0.5484    0.4299    2.8665 H   0  0  0  0  0  0  0  0  0  0  0  0
    1.2767    2.0640    2.7406 H   0  0  0  0  0  0  0  0  0  0  0  0
   -0.6948    1.8632    1.7920 C   0  0  0  0  0  0  0  0  0  0  0  0
   -0.5753    2.8093    1.2223 H   0  0  0  0  0  0  0  0  0  0  0  0
   -1.3355    2.0796    2.6663 H   0  0  0  0  0  0  0  0  0  0  0  0
   -4.7824   -1.7602    1.3989 C   0  0  0  0  0  0  0  0  0  0  0  0
   -5.6005   -2.1658    0.7889 H   0  0  0  0  0  0  0  0  0  0  0  0
   -2.8084   -0.2811    1.5095 C   0  0  0  0  0  0  0  0  0  0  0  0
   -2.6369   -0.7173    2.8362 C   0  0  0  0  0  0  0  0  0  0  0  0
   -3.8985   -0.8487    0.8147 C   0  0  0  0  0  0  0  0  0  0  0  0
   -4.5746   -2.1467    2.7291 C   0  0  0  0  0  0  0  0  0  0  0  0
   -5.2556   -2.8692    3.2018 H   0  0  0  0  0  0  0  0  0  0  0  0
   -3.4954   -1.6272    3.4590 C   0  0  0  0  0  0  0  0  0  0  0  0
   -3.2994   -1.9150    4.5009 H   0  0  0  0  0  0  0  0  0  0  0  0
   -2.6014    2.1255   -1.6903 C   0  0  0  0  0  0  0  0  0  0  0  0
   -2.6597    1.9387   -0.2944 C   0  0  0  0  0  0  0  0  0  0  0  0
   -3.4229    3.0425   -2.3593 C   0  0  0  0  0  0  0  0  0  0  0  0
   -3.3299    3.1378   -3.4496 H   0  0  0  0  0  0  0  0  0  0  0  0
   -4.4329    3.6550   -0.2282 C   0  0  0  0  0  0  0  0  0  0  0  0
   -5.1408    4.2377    0.3769 H   0  0  0  0  0  0  0  0  0  0  0  0
   -3.5946    2.7312    0.4013 C   0  0  0  0  0  0  0  0  0  0  0  0
   -4.3387    3.8024   -1.6203 C   0  0  0  0  0  0  0  0  0  0  0  0
   -4.9904    4.5226   -2.1364 H   0  0  0  0  0  0  0  0  0  0  0  0
    2.2816    2.2874    0.0454 C   0  0  0  0  0  0  0  0  0  0  0  0
    3.1661    3.0716    0.8133 C   0  0  0  0  0  0  0  0  0  0  0  0
    1.9580    2.7911   -1.2303 C   0  0  0  0  0  0  0  0  0  0  0  0
    2.4667    4.0039   -1.7136 C   0  0  0  0  0  0  0  0  0  0  0  0
    2.1724    4.3391   -2.7174 H   0  0  0  0  0  0  0  0  0  0  0  0
    3.3378    4.7457   -0.9057 C   0  0  0  0  0  0  0  0  0  0  0  0
    3.7461    5.6977   -1.2755 H   0  0  0  0  0  0  0  0  0  0  0  0
    3.6973    4.2848    0.3700 C   0  0  0  0  0  0  0  0  0  0  0  0
    4.3837    4.8415    1.0225 H   0  0  0  0  0  0  0  0  0  0  0  0
    4.2301   -0.2907    0.5059 C   0  0  0  0  0  0  0  0  0  0  0  0
    5.2601   -1.1987    0.7643 C   0  0  0  0  0  0  0  0  0  0  0  0
    6.1748   -1.1429    0.1593 H   0  0  0  0  0  0  0  0  0  0  0  0
    5.0821   -2.1635    1.7633 C   0  0  0  0  0  0  0  0  0  0  0  0
    5.8812   -2.8894    1.9720 H   0  0  0  0  0  0  0  0  0  0  0  0
    3.0124   -0.2849    1.2190 C   0  0  0  0  0  0  0  0  0  0  0  0
    2.8726   -1.3036    2.1837 C   0  0  0  0  0  0  0  0  0  0  0  0
    3.8805   -2.2230    2.4814 C   0  0  0  0  0  0  0  0  0  0  0  0
    3.6934   -2.9834    3.2517 H   0  0  0  0  0  0  0  0  0  0  0  0
   -4.0974   -0.4998   -0.4666 F   0  0  0  0  0  0  0  0  0  0  0  0
   -1.5896   -0.2461    3.5519 F   0  0  0  0  0  0  0  0  0  0  0  0
   -3.6836    2.5938    1.7404 F   0  0  0  0  0  0  0  0  0  0  0  0
   -1.7349    1.4117   -2.4196 F   0  0  0  0  0  0  0  0  0  0  0  0
    1.1306    2.0984   -2.0286 F   0  0  0  0  0  0  0  0  0  0  0  0
    4.4165    0.6052   -0.4813 F   0  0  0  0  0  0  0  0  0  0  0  0
    3.5223    2.6240    2.0347 F   0  0  0  0  0  0  0  0  0  0  0  0
    1.6957   -1.4300    2.8375 F   0  0  0  0  0  0  0  0  0  0  0  0
  1 11  1  0  0  0  0
  1  6  1  0  0  0  0
  2 41  1  0  0  0  0
  2  3  1  0  0  0  0
  3  5  1  0  0  0  0
  3  4  1  0  0  0  0
  6  3  1  0  0  0  0
  6  8  1  0  0  0  0
  7  6  1  0  0  0  0
  9 14  1  0  0  0  0
 10  9  1  0  0  0  0
 11 12  2  0  0  0  0
 12 16  1  0  0  0  0
 12 46  1  0  0  0  0
 13  9  2  0  0  0  0
 13 11  1  0  0  0  0
 14 15  1  0  0  0  0
 14 16  2  0  0  0  0
 16 17  1  0  0  0  0
 18 19  1  0  0  0  0
 19 24  2  0  0  0  0
 19  1  1  0  0  0  0
 20 18  2  0  0  0  0
 20 25  1  0  0  0  0
 21 20  1  0  0  0  0
 22 23  1  0  0  0  0
 22 24  1  0  0  0  0
 24 47  1  0  0  0  0
 25 22  2  0  0  0  0
 26 25  1  0  0  0  0
 27  2  1  0  0  0  0
 27 28  1  0  0  0  0
 28 51  1  0  0  0  0
 29 27  2  0  0  0  0
 30 29  1  0  0  0  0
 30 32  2  0  0  0  0
 31 30  1  0  0  0  0
 32 34  1  0  0  0  0
 33 32  1  0  0  0  0
 34 28  2  0  0  0  0
 34 35  1  0  0  0  0
 36 37  2  0  0  0  0
 36 41  1  0  0  0  0
 37 39  1  0  0  0  0
 38 37  1  0  0  0  0
 39 40  1  0  0  0  0
 39 43  2  0  0  0  0
 41 42  2  0  0  0  0
 42 43  1  0  0  0  0
 42 52  1  0  0  0  0
 43 44  1  0  0  0  0
 45 13  1  0  0  0  0
 48 18  1  0  0  0  0
 49 29  1  0  0  0  0
 50 36  1  0  0  0  0
M  END
