1,36
q = 0.0, confidence = 0.842

 64 68  0  0  1  0  0  0  0  0999 V2000
    2.2893   -0.4670    0.0853 P   0  0  0  0  0  0  0  0  0  0  0  0
    2.5180    1.2058   -0.1525 O   0  0  0  0  0  0  0  0  0  0  0  0
    1.3385    1.9342   -0.2481 C   0  0  1  0  0  0  0  0  0  0  0  0
    3.2516   -0.7526    1.6621 C   0  0  0  0  0  0  0  0  0  0  0  0
    3.1273   -1.8466    1.8320 H   0  0  0  0  0  0  0  0  0  0  0  0
    2.6136    0.0023    2.8344 C   0  0  0  0  0  0  0  0  0  0  0  0
    2.7571    1.0940    2.7185 H   0  0  0  0  0  0  0  0  0  0  0  0
    3.0942   -0.3081    3.7841 H   0  0  0  0  0  0  0  0  0  0  0  0
    1.5269   -0.1833    2.9157 H   0  0  0  0  0  0  0  0  0  0  0  0
    4.7420   -0.4122    1.5311 C   0  0  0  0  0  0  0  0  0  0  0  0
    5.2760   -1.0672    0.8160 H   0  0  0  0  0  0  0  0  0  0  0  0
    5.2381   -0.5273    2.5165 H   0  0  0  0  0  0  0  0  0  0  0  0
    4.8768    0.6410    1.2109 H   0  0  0  0  0  0  0  0  0  0  0  0
    3.3854   -1.1342   -1.2630 C   0  0  0  0  0  0  0  0  0  0  0  0
    4.3624   -0.6354   -1.0856 H   0  0  0  0  0  0  0  0  0  0  0  0
    2.8846   -0.7222   -2.6500 C   0  0  0  0  0  0  0  0  0  0  0  0
    1.9020   -1.1727   -2.8866 H   0  0  0  0  0  0  0  0  0  0  0  0
    3.6078   -1.0617   -3.4195 H   0  0  0  0  0  0  0  0  0  0  0  0
    2.7850    0.3761   -2.7347 H   0  0  0  0  0  0  0  0  0  0  0  0
    3.5528   -2.6520   -1.1136 C   0  0  0  0  0  0  0  0  0  0  0  0
    3.9909   -2.9402   -0.1372 H   0  0  0  0  0  0  0  0  0  0  0  0
    4.2278   -3.0344   -1.9063 H   0  0  0  0  0  0  0  0  0  0  0  0
    2.5841   -3.1790   -1.2235 H   0  0  0  0  0  0  0  0  0  0  0  0
   -0.0000    1.1298   -1.0172 B   0  0  0  0  0  1  0  0  0  0  0  0
   -0.0000    1.3413    0.6874 B   0  0  0  0  0  2  0  0  0  0  0  0
    0.8824    2.4863   -1.7919 B   0  0  0  0  0  0  0  0  0  0  0  0
    1.6157    2.3068   -2.7313 H   0  0  0  0  0  0  0  0  0  0  0  0
    0.8810    2.8537    1.1058 B   0  0  1  0  0  0  0  0  0  0  0  0
    1.6139    2.9172    2.0597 H   0  0  0  0  0  0  0  0  0  0  0  0
    1.4399    3.5806   -0.4582 B   0  0  1  0  0  0  0  0  0  0  0  0
    2.5239    4.1021   -0.5240 H   0  0  0  0  0  0  0  0  0  0  0  0
   -0.0000    3.9898   -1.4231 B   0  0  1  0  0  0  0  0  0  0  0  0
   -0.0001    4.9302   -2.1811 H   0  0  0  0  0  0  0  0  0  0  0  0
   -0.0000    4.2174    0.3725 B   0  0  1  0  0  0  0  0  0  0  0  0
   -0.0000    5.3166    0.8733 H   0  0  0  0  0  0  0  0  0  0  0  0
   -2.2893   -0.4670    0.0853 P   0  0  0  0  0  0  0  0  0  0  0  0
   -2.5180    1.2058   -0.1525 O   0  0  0  0  0  0  0  0  0  0  0  0
   -1.3385    1.9342   -0.2481 C   0  0  2  0  0  0  0  0  0  0  0  0
   -3.2516   -0.7527    1.6621 C   0  0  0  0  0  0  0  0  0  0  0  0
   -3.1275   -1.8467    1.8318 H   0  0  0  0  0  0  0  0  0  0  0  0
   -2.6133    0.0018    2.8345 C   0  0  0  0  0  0  0  0  0  0  0  0
   -2.7565    1.0935    2.7188 H   0  0  0  0  0  0  0  0  0  0  0  0
   -3.0939   -0.3087    3.7842 H   0  0  0  0  0  0  0  0  0  0  0  0
   -1.5267   -0.1841    2.9157 H   0  0  0  0  0  0  0  0  0  0  0  0
   -4.7419   -0.4119    1.5313 C   0  0  0  0  0  0  0  0  0  0  0  0
   -5.2761   -1.0666    0.8161 H   0  0  0  0  0  0  0  0  0  0  0  0
   -5.2379   -0.5271    2.5167 H   0  0  0  0  0  0  0  0  0  0  0  0
   -4.8765    0.6414    1.2113 H   0  0  0  0  0  0  0  0  0  0  0  0
   -3.3854   -1.1342   -1.2630 C   0  0  0  0  0  0  0  0  0  0  0  0
   -4.3624   -0.6354   -1.0856 H   0  0  0  0  0  0  0  0  0  0  0  0
   -2.8845   -0.7222   -2.6500 C   0  0  0  0  0  0  0  0  0  0  0  0
   -1.9020   -1.1726   -2.8866 H   0  0  0  0  0  0  0  0  0  0  0  0
   -3.6077   -1.0617   -3.4195 H   0  0  0  0  0  0  0  0  0  0  0  0
   -2.7849    0.3761   -2.7347 H   0  0  0  0  0  0  0  0  0  0  0  0
   -3.5528   -2.6520   -1.1137 C   0  0  0  0  0  0  0  0  0  0  0  0
   -3.9909   -2.9402   -0.1372 H   0  0  0  0  0  0  0  0  0  0  0  0
   -4.2278   -3.0344   -1.9064 H   0  0  0  0  0  0  0  0  0  0  0  0
   -2.5841   -3.1791   -1.2236 H   0  0  0  0  0  0  0  0  0  0  0  0
   -0.8825    2.4863   -1.7919 B   0  0  2  0  0  0  0  0  0  0  0  0
   -1.6158    2.3067   -2.7312 H   0  0  0  0  0  0  0  0  0  0  0  0
   -0.8810    2.8537    1.1058 B   0  0  1  0  0  0  0  0  0  0  0  0
   -1.6140    2.9172    2.0598 H   0  0  0  0  0  0  0  0  0  0  0  0
   -1.4400    3.5805   -0.4581 B   0  0  2  0  0  0  0  0  0  0  0  0
   -2.5240    4.1020   -0.5240 H   0  0  0  0  0  0  0  0  0  0  0  0
  1  4  1  0  0  0  0
  2  1  1  0  0  0  0
  3  2  1  1  0  0  0
  3 28  1  0  0  0  0
  4  5  1  0  0  0  0
  4  6  1  0  0  0  0
  6  9  1  0  0  0  0
  6  8  1  0  0  0  0
  7  6  1  0  0  0  0
 10  4  1  0  0  0  0
 10 12  1  0  0  0  0
 11 10  1  0  0  0  0
 13 10  1  0  0  0  0
 14 20  1  0  0  0  0
 14 15  1  0  0  0  0
 14  1  1  0  0  0  0
 16 14  1  0  0  0  0
 17 16  1  0  0  0  0
 18 16  1  0  0  0  0
 19 16  1  0  0  0  0
 20 21  1  0  0  0  0
 22 20  1  0  0  0  0
 23 20  1  0  0  0  0
 24 25  1  0  0  0  0
 25 61  1  0  0  0  0
 26 59  1  0  0  0  0
 26  3  1  0  0  0  0
 27 26  1  0  0  0  0
 28 61  1  0  0  0  0
 28 29  1  1  0  0  0
 30 31  1  6  0  0  0
 30  3  1  0  0  0  0
 30 34  1  0  0  0  0
 32 33  1  6  0  0  0
 32 30  1  0  0  0  0
 32 63  1  0  0  0  0
 34 35  1  1  0  0  0
 34 28  1  0  0  0  0
 36 39  1  0  0  0  0
 37 36  1  0  0  0  0
 38 37  1  1  0  0  0
 38 61  1  0  0  0  0
 39 40  1  0  0  0  0
 39 41  1  0  0  0  0
 41 44  1  0  0  0  0
 41 43  1  0  0  0  0
 42 41  1  0  0  0  0
 45 39  1  0  0  0  0
 45 47  1  0  0  0  0
 46 45  1  0  0  0  0
 48 45  1  0  0  0  0
 49 55  1  0  0  0  0
 49 50  1  0  0  0  0
 49 36  1  0  0  0  0
 51 49  1  0  0  0  0
 52 51  1  0  0  0  0
 53 51  1  0  0  0  0
 54 51  1  0  0  0  0
 55 56  1  0  0  0  0
 57 55  1  0  0  0  0
 58 55  1  0  0  0  0
 59 60  1  6  0  0  0
 59 32  1  0  0  0  0
 59 38  1  0  0  0  0
 61 62  1  1  0  0  0
 63 64  1  6  0  0  0
 63 38  1  0  0  0  0
 63 34  1  0  0  0  0
M  END
