1,2
q = 0.0, confidence = 0.998

 80 83  0  0  0  0  0  0  0  0999 V2000
    0.0823    1.4790    0.3545 P   0  0  0  0  0  0  0  0  0  0  0  0
   -1.4833   -1.5708   -0.3873 P   0  0  0  0  0  0  0  0  0  0  0  0
    3.8156    0.0175    1.1651 O   0  0  0  0  0  0  0  0  0  0  0  0
    6.1510   -1.3131   -0.1026 O   0  0  0  0  0  0  0  0  0  0  0  0
    3.8376   -3.0063   -1.3827 O   0  0  0  0  0  0  0  0  0  0  0  0
    1.2412   -1.9390   -1.9373 O   0  0  0  0  0  0  0  0  0  0  0  0
    1.5128    0.3607    0.7194 C   0  0  0  0  0  0  0  0  0  0  0  0
    2.8591    1.0393    0.9366 C   0  0  0  0  0  0  0  0  0  0  0  0
    5.1491    0.4863    1.1840 C   0  0  0  0  0  0  0  0  0  0  0  0
    6.1040   -0.6938    1.1716 C   0  0  0  0  0  0  0  0  0  0  0  0
    5.9532   -2.7189   -0.1184 C   0  0  0  0  0  0  0  0  0  0  0  0
    4.4817   -3.1398   -0.1310 C   0  0  0  0  0  0  0  0  0  0  0  0
    3.6167   -1.6711   -1.8152 C   0  0  0  0  0  0  0  0  0  0  0  0
    2.3915   -1.6384   -2.7059 C   0  0  0  0  0  0  0  0  0  0  0  0
    0.0584   -2.1010   -2.7011 C   0  0  0  0  0  0  0  0  0  0  0  0
   -1.0433   -2.6658   -1.8176 C   0  0  0  0  0  0  0  0  0  0  0  0
    0.9382    2.8865   -0.4639 C   0  0  0  0  0  0  0  0  0  0  0  0
    1.3377    4.0299    0.2496 C   0  0  0  0  0  0  0  0  0  0  0  0
    2.0973    5.0232   -0.3908 C   0  0  0  0  0  0  0  0  0  0  0  0
    2.4658    4.8731   -1.7357 C   0  0  0  0  0  0  0  0  0  0  0  0
    2.0648    3.7298   -2.4491 C   0  0  0  0  0  0  0  0  0  0  0  0
    1.2979    2.7418   -1.8198 C   0  0  0  0  0  0  0  0  0  0  0  0
   -0.5007    2.1251    1.9681 C   0  0  0  0  0  0  0  0  0  0  0  0
    0.0678    1.7320    3.1960 C   0  0  0  0  0  0  0  0  0  0  0  0
   -0.4501    2.2317    4.4018 C   0  0  0  0  0  0  0  0  0  0  0  0
   -1.5317    3.1253    4.3880 C   0  0  0  0  0  0  0  0  0  0  0  0
   -2.0995    3.5186    3.1640 C   0  0  0  0  0  0  0  0  0  0  0  0
   -1.5947    3.0193    1.9560 C   0  0  0  0  0  0  0  0  0  0  0  0
   -3.1255   -2.1910    0.1760 C   0  0  0  0  0  0  0  0  0  0  0  0
   -3.2757   -3.5625    0.4686 C   0  0  0  0  0  0  0  0  0  0  0  0
   -4.5048   -4.0531    0.9311 C   0  0  0  0  0  0  0  0  0  0  0  0
   -5.5846   -3.1751    1.1219 C   0  0  0  0  0  0  0  0  0  0  0  0
   -5.4319   -1.8075    0.8471 C   0  0  0  0  0  0  0  0  0  0  0  0
   -4.2082   -1.3131    0.3703 C   0  0  0  0  0  0  0  0  0  0  0  0
   -0.4629   -2.1009    1.0503 C   0  0  0  0  0  0  0  0  0  0  0  0
    0.6950   -2.8956    0.9418 C   0  0  0  0  0  0  0  0  0  0  0  0
    1.4208   -3.2269    2.0981 C   0  0  0  0  0  0  0  0  0  0  0  0
    1.0115   -2.7610    3.3569 C   0  0  0  0  0  0  0  0  0  0  0  0
   -0.1405   -1.9630    3.4652 C   0  0  0  0  0  0  0  0  0  0  0  0
   -0.8788   -1.6403    2.3193 C   0  0  0  0  0  0  0  0  0  0  0  0
    1.5667   -0.3257   -0.1498 H   0  0  0  0  0  0  0  0  0  0  0  0
    1.2603   -0.2687    1.5923 H   0  0  0  0  0  0  0  0  0  0  0  0
    3.1454    1.6413    0.0431 H   0  0  0  0  0  0  0  0  0  0  0  0
    2.8241    1.7512    1.7988 H   0  0  0  0  0  0  0  0  0  0  0  0
    5.3418    1.1057    2.0961 H   0  0  0  0  0  0  0  0  0  0  0  0
    5.3548    1.1334    0.2965 H   0  0  0  0  0  0  0  0  0  0  0  0
    7.1216   -0.3230    1.4433 H   0  0  0  0  0  0  0  0  0  0  0  0
    5.7903   -1.4099    1.9653 H   0  0  0  0  0  0  0  0  0  0  0  0
    6.4648   -3.2024    0.7496 H   0  0  0  0  0  0  0  0  0  0  0  0
    6.4402   -3.0983   -1.0421 H   0  0  0  0  0  0  0  0  0  0  0  0
    4.4235   -4.2214    0.1191 H   0  0  0  0  0  0  0  0  0  0  0  0
    3.9349   -2.5704    0.6593 H   0  0  0  0  0  0  0  0  0  0  0  0
    4.4890   -1.2786   -2.3899 H   0  0  0  0  0  0  0  0  0  0  0  0
    3.4830   -0.9985   -0.9408 H   0  0  0  0  0  0  0  0  0  0  0  0
    2.3049   -0.6288   -3.1794 H   0  0  0  0  0  0  0  0  0  0  0  0
    2.5086   -2.3855   -3.5285 H   0  0  0  0  0  0  0  0  0  0  0  0
    0.2438   -2.8037   -3.5498 H   0  0  0  0  0  0  0  0  0  0  0  0
   -0.2790   -1.1280   -3.1322 H   0  0  0  0  0  0  0  0  0  0  0  0
   -1.9817   -2.7070   -2.4050 H   0  0  0  0  0  0  0  0  0  0  0  0
   -0.7970   -3.6822   -1.4493 H   0  0  0  0  0  0  0  0  0  0  0  0
    1.0492    4.1500    1.3047 H   0  0  0  0  0  0  0  0  0  0  0  0
    2.3993    5.9222    0.1679 H   0  0  0  0  0  0  0  0  0  0  0  0
    3.0593    5.6539   -2.2352 H   0  0  0  0  0  0  0  0  0  0  0  0
    2.3376    3.6159   -3.5091 H   0  0  0  0  0  0  0  0  0  0  0  0
    0.9508    1.8595   -2.3803 H   0  0  0  0  0  0  0  0  0  0  0  0
    0.9107    1.0267    3.2234 H   0  0  0  0  0  0  0  0  0  0  0  0
   -0.0028    1.9182    5.3575 H   0  0  0  0  0  0  0  0  0  0  0  0
   -1.9365    3.5145    5.3347 H   0  0  0  0  0  0  0  0  0  0  0  0
   -2.9508    4.2160    3.1486 H   0  0  0  0  0  0  0  0  0  0  0  0
   -2.0401    3.3081    0.9884 H   0  0  0  0  0  0  0  0  0  0  0  0
   -2.4259   -4.2525    0.3480 H   0  0  0  0  0  0  0  0  0  0  0  0
   -4.6178   -5.1258    1.1497 H   0  0  0  0  0  0  0  0  0  0  0  0
   -6.5484   -3.5601    1.4887 H   0  0  0  0  0  0  0  0  0  0  0  0
   -6.2747   -1.1157    0.9955 H   0  0  0  0  0  0  0  0  0  0  0  0
   -4.0875   -0.2464    0.1310 H   0  0  0  0  0  0  0  0  0  0  0  0
    1.0688   -3.2010   -0.0462 H   0  0  0  0  0  0  0  0  0  0  0  0
    2.3253   -3.8466    2.0077 H   0  0  0  0  0  0  0  0  0  0  0  0
    1.5909   -3.0192    4.2563 H   0  0  0  0  0  0  0  0  0  0  0  0
   -0.4680   -1.5886    4.4470 H   0  0  0  0  0  0  0  0  0  0  0  0
   -1.7814   -1.0153    2.4067 H   0  0  0  0  0  0  0  0  0  0  0  0
  1  7  1  0  0  0  0
  1 23  1  0  0  0  0
  2 29  1  0  0  0  0
  2 35  1  0  0  0  0
  3  9  1  0  0  0  0
  4 10  1  0  0  0  0
  5 12  1  0  0  0  0
  7  8  1  0  0  0  0
  7 42  1  0  0  0  0
  8  3  1  0  0  0  0
  8 44  1  0  0  0  0
  9 45  1  0  0  0  0
 10  9  1  0  0  0  0
 10 47  1  0  0  0  0
 10 48  1  0  0  0  0
 11  4  1  0  0  0  0
 11 49  1  0  0  0  0
 12 11  1  0  0  0  0
 12 51  1  0  0  0  0
 12 52  1  0  0  0  0
 13  5  1  0  0  0  0
 13 54  1  0  0  0  0
 14  6  1  0  0  0  0
 14 13  1  0  0  0  0
 15  6  1  0  0  0  0
 15 16  1  0  0  0  0
 16 60  1  0  0  0  0
 16  2  1  0  0  0  0
 17 18  1  0  0  0  0
 17  1  1  0  0  0  0
 18 61  1  0  0  0  0
 19 62  1  0  0  0  0
 19 18  2  0  0  0  0
 20 19  1  0  0  0  0
 21 22  1  0  0  0  0
 21 20  2  0  0  0  0
 22 17  2  0  0  0  0
 23 24  1  0  0  0  0
 24 66  1  0  0  0  0
 24 25  2  0  0  0  0
 25 67  1  0  0  0  0
 26 25  1  0  0  0  0
 26 68  1  0  0  0  0
 27 26  2  0  0  0  0
 28 23  2  0  0  0  0
 28 27  1  0  0  0  0
 29 34  2  0  0  0  0
 29 30  1  0  0  0  0
 30 31  2  0  0  0  0
 31 32  1  0  0  0  0
 31 72  1  0  0  0  0
 32 73  1  0  0  0  0
 33 74  1  0  0  0  0
 33 32  2  0  0  0  0
 34 33  1  0  0  0  0
 35 40  1  0  0  0  0
 36 35  2  0  0  0  0
 36 37  1  0  0  0  0
 37 38  2  0  0  0  0
 38 39  1  0  0  0  0
 38 78  1  0  0  0  0
 39 79  1  0  0  0  0
 40 80  1  0  0  0  0
 40 39  2  0  0  0  0
 41  7  1  0  0  0  0
 43  8  1  0  0  0  0
 46  9  1  0  0  0  0
 50 11  1  0  0  0  0
 53 13  1  0  0  0  0
 55 14  1  0  0  0  0
 56 14  1  0  0  0  0
 57 15  1  0  0  0  0
 58 15  1  0  0  0  0
 59 16  1  0  0  0  0
 63 20  1  0  0  0  0
 64 21  1  0  0  0  0
 65 22  1  0  0  0  0
 69 27  1  0  0  0  0
 70 28  1  0  0  0  0
 71 30  1  0  0  0  0
 75 34  1  0  0  0  0
 76 36  1  0  0  0  0
 77 37  1  0  0  0  0
M  END
