1,2
q = 0.0, confidence = 0.994

 62 69  0  0  0  0  0  0  0  0999 V2000
   -1.5929   -0.4835   -0.0684 P   0  0  2  0  0  0  0  0  0  0  0  0
    1.6182    0.3926   -0.3212 P   0  0  2  0  0  0  0  0  0  0  0  0
   -2.4980    1.7766    1.0779 C   0  0  0  0  0  0  0  0  0  0  0  0
   -1.4487    0.8279    1.2107 C   0  0  0  0  0  0  0  0  0  0  0  0
   -0.4626    0.9717    2.2052 C   0  0  0  0  0  0  0  0  0  0  0  0
   -0.5221    2.1050    3.0457 C   0  0  0  0  0  0  0  0  0  0  0  0
    0.2512    2.2328    3.8175 H   0  0  0  0  0  0  0  0  0  0  0  0
   -1.5277    3.0703    2.8854 C   0  0  0  0  0  0  0  0  0  0  0  0
   -1.5389    3.9564    3.5375 H   0  0  0  0  0  0  0  0  0  0  0  0
   -2.5206    2.9105    1.9092 C   0  0  0  0  0  0  0  0  0  0  0  0
   -3.3176    3.6611    1.8026 H   0  0  0  0  0  0  0  0  0  0  0  0
   -3.4980    1.4095    0.0596 C   0  0  0  0  0  0  0  0  0  0  0  0
   -3.2109    0.1915   -0.6130 C   0  0  0  0  0  0  0  0  0  0  0  0
   -4.0885   -0.3299   -1.5723 C   0  0  0  0  0  0  0  0  0  0  0  0
   -3.8277   -1.2585   -2.0981 H   0  0  0  0  0  0  0  0  0  0  0  0
   -5.2656    0.3770   -1.8683 C   0  0  0  0  0  0  0  0  0  0  0  0
   -5.9631   -0.0228   -2.6196 H   0  0  0  0  0  0  0  0  0  0  0  0
   -5.5518    1.5926   -1.2220 C   0  0  0  0  0  0  0  0  0  0  0  0
   -6.4732    2.1411   -1.4699 H   0  0  0  0  0  0  0  0  0  0  0  0
   -4.6737    2.1124   -0.2597 C   0  0  0  0  0  0  0  0  0  0  0  0
   -4.9095    3.0601    0.2475 H   0  0  0  0  0  0  0  0  0  0  0  0
   -1.8596   -2.0603    0.8268 C   0  0  0  0  0  0  0  0  0  0  0  0
   -1.5912   -3.2758    0.1659 C   0  0  0  0  0  0  0  0  0  0  0  0
   -1.2552   -3.2567   -0.8837 H   0  0  0  0  0  0  0  0  0  0  0  0
   -1.7813   -4.4876    0.8466 C   0  0  0  0  0  0  0  0  0  0  0  0
   -1.5725   -5.4367    0.3303 H   0  0  0  0  0  0  0  0  0  0  0  0
   -2.2299   -4.4916    2.1770 C   0  0  0  0  0  0  0  0  0  0  0  0
   -2.3705   -5.4454    2.7082 H   0  0  0  0  0  0  0  0  0  0  0  0
   -2.4994   -3.2784    2.8317 C   0  0  0  0  0  0  0  0  0  0  0  0
   -2.8525   -3.2787    3.8742 H   0  0  0  0  0  0  0  0  0  0  0  0
   -2.3170   -2.0614    2.1605 C   0  0  0  0  0  0  0  0  0  0  0  0
   -2.5247   -1.1101    2.6734 H   0  0  0  0  0  0  0  0  0  0  0  0
    2.7234   -1.0741    1.6444 C   0  0  0  0  0  0  0  0  0  0  0  0
    1.5877   -0.2589    1.3986 C   0  0  0  0  0  0  0  0  0  0  0  0
    0.6302   -0.0191    2.4006 C   0  0  0  0  0  0  0  0  0  0  0  0
    0.7870   -0.6740    3.6415 C   0  0  0  0  0  0  0  0  0  0  0  0
    0.0438   -0.4983    4.4335 H   0  0  0  0  0  0  0  0  0  0  0  0
    1.8664   -1.5431    3.8647 C   0  0  0  0  0  0  0  0  0  0  0  0
    1.9565   -2.0597    4.8321 H   0  0  0  0  0  0  0  0  0  0  0  0
    2.8444   -1.7372    2.8786 C   0  0  0  0  0  0  0  0  0  0  0  0
    3.7090   -2.3874    3.0779 H   0  0  0  0  0  0  0  0  0  0  0  0
    3.7096   -1.0452    0.5479 C   0  0  0  0  0  0  0  0  0  0  0  0
    3.3258   -0.2242   -0.5474 C   0  0  0  0  0  0  0  0  0  0  0  0
    4.1847   -0.0200   -1.6359 C   0  0  0  0  0  0  0  0  0  0  0  0
    3.8596    0.5988   -2.4821 H   0  0  0  0  0  0  0  0  0  0  0  0
    5.4415   -0.6470   -1.6330 C   0  0  0  0  0  0  0  0  0  0  0  0
    6.1266   -0.4923   -2.4798 H   0  0  0  0  0  0  0  0  0  0  0  0
    5.8216   -1.4807   -0.5664 C   0  0  0  0  0  0  0  0  0  0  0  0
    6.8037   -1.9772   -0.5836 H   0  0  0  0  0  0  0  0  0  0  0  0
    4.9631   -1.6823    0.5244 C   0  0  0  0  0  0  0  0  0  0  0  0
    5.2743   -2.3268    1.3602 H   0  0  0  0  0  0  0  0  0  0  0  0
    1.6277    2.2142   -0.1640 C   0  0  0  0  0  0  0  0  0  0  0  0
    0.5737    2.9530   -0.7327 C   0  0  0  0  0  0  0  0  0  0  0  0
   -0.1966    2.4305   -1.3222 H   0  0  0  0  0  0  0  0  0  0  0  0
    0.5131    4.3409   -0.5366 C   0  0  0  0  0  0  0  0  0  0  0  0
   -0.3139    4.9175   -0.9774 H   0  0  0  0  0  0  0  0  0  0  0  0
    1.5054    4.9886    0.2152 C   0  0  0  0  0  0  0  0  0  0  0  0
    1.4576    6.0779    0.3658 H   0  0  0  0  0  0  0  0  0  0  0  0
    2.5647    4.2507    0.7722 C   0  0  0  0  0  0  0  0  0  0  0  0
    3.3458    4.7608    1.3561 H   0  0  0  0  0  0  0  0  0  0  0  0
    2.6282    2.8633    0.5869 C   0  0  0  0  0  0  0  0  0  0  0  0
    3.4517    2.2792    1.0268 H   0  0  0  0  0  0  0  0  0  0  0  0
  1 22  1  1  0  0  0
  1  4  1  0  0  0  0
  2 52  1  1  0  0  0
  2 34  1  0  0  0  0
  3  4  2  0  0  0  0
  3 10  1  0  0  0  0
  4  5  1  0  0  0  0
  5 35  1  0  0  0  0
  5  6  2  0  0  0  0
  6  7  1  0  0  0  0
  8  6  1  0  0  0  0
  8  9  1  0  0  0  0
 10  8  2  0  0  0  0
 11 10  1  0  0  0  0
 12  3  1  0  0  0  0
 13  1  1  0  0  0  0
 13 12  2  0  0  0  0
 14 13  1  0  0  0  0
 15 14  1  0  0  0  0
 16 14  2  0  0  0  0
 16 18  1  0  0  0  0
 17 16  1  0  0  0  0
 18 20  2  0  0  0  0
 19 18  1  0  0  0  0
 20 12  1  0  0  0  0
 20 21  1  0  0  0  0
 22 31  1  0  0  0  0
 23 22  2  0  0  0  0
 23 25  1  0  0  0  0
 24 23  1  0  0  0  0
 25 27  2  0  0  0  0
 26 25  1  0  0  0  0
 27 28  1  0  0  0  0
 27 29  1  0  0  0  0
 29 30  1  0  0  0  0
 31 32  1  0  0  0  0
 31 29  2  0  0  0  0
 33 40  1  0  0  0  0
 34 33  2  0  0  0  0
 34 35  1  0  0  0  0
 35 36  2  0  0  0  0
 36 38  1  0  0  0  0
 36 37  1  0  0  0  0
 38 39  1  0  0  0  0
 40 41  1  0  0  0  0
 40 38  2  0  0  0  0
 42 33  1  0  0  0  0
 43  2  1  0  0  0  0
 43 42  2  0  0  0  0
 44 46  2  0  0  0  0
 44 43  1  0  0  0  0
 45 44  1  0  0  0  0
 46 48  1  0  0  0  0
 47 46  1  0  0  0  0
 48 50  2  0  0  0  0
 49 48  1  0  0  0  0
 50 42  1  0  0  0  0
 50 51  1  0  0  0  0
 52 61  1  0  0  0  0
 53 55  1  0  0  0  0
 53 52  2  0  0  0  0
 54 53  1  0  0  0  0
 55 57  2  0  0  0  0
 56 55  1  0  0  0  0
 57 58  1  0  0  0  0
 57 59  1  0  0  0  0
 59 60  1  0  0  0  0
 61 59  2  0  0  0  0
 61 62  1  0  0  0  0
M  END
