1,2
q = 0.0, confidence = 0.98

 70 73  0  0  1  0  0  0  0  0999 V2000
   -2.2484    0.4298    0.3949 P   0  0  0  0  0  0  0  0  0  0  0  0
    1.0935    0.1957   -0.0886 P   0  0  1  0  0  0  0  0  0  0  0  0
    2.7138   -1.2252    1.5981 O   0  0  0  0  0  0  0  0  0  0  0  0
    3.6562    0.8588   -0.8766 O   0  0  0  0  0  0  0  0  0  0  0  0
    4.7772   -0.4402    0.7508 O   0  0  0  0  0  0  0  0  0  0  0  0
   -1.3474    1.8398    1.2233 C   0  0  0  0  0  0  0  0  0  0  0  0
   -2.0877    2.5449    1.6406 H   0  0  0  0  0  0  0  0  0  0  0  0
   -0.8584    1.3436    2.0829 H   0  0  0  0  0  0  0  0  0  0  0  0
   -0.3626    2.6048    0.3856 C   0  0  0  0  0  0  0  0  0  0  0  0
    0.7516    2.0135   -0.2755 C   0  0  0  0  0  0  0  0  0  0  0  0
    1.5603    2.8392   -1.0926 C   0  0  0  0  0  0  0  0  0  0  0  0
    2.4427    2.4150   -1.5823 H   0  0  0  0  0  0  0  0  0  0  0  0
    1.2964    4.2058   -1.2505 C   0  0  0  0  0  0  0  0  0  0  0  0
    1.9485    4.8109   -1.8981 H   0  0  0  0  0  0  0  0  0  0  0  0
    0.2220    4.7937   -0.5709 C   0  0  0  0  0  0  0  0  0  0  0  0
    0.0124    5.8693   -0.6697 H   0  0  0  0  0  0  0  0  0  0  0  0
   -0.5883    3.9911    0.2381 C   0  0  0  0  0  0  0  0  0  0  0  0
   -1.4394    4.4419    0.7723 H   0  0  0  0  0  0  0  0  0  0  0  0
   -3.2362    1.2463   -1.0373 C   0  0  0  0  0  0  0  0  0  0  0  0
   -2.2036    1.6502   -2.1126 C   0  0  0  0  0  0  0  0  0  0  0  0
   -1.6181    0.7708   -2.4492 H   0  0  0  0  0  0  0  0  0  0  0  0
   -1.4996    2.4299   -1.7733 H   0  0  0  0  0  0  0  0  0  0  0  0
   -2.7556    2.0525   -2.9879 H   0  0  0  0  0  0  0  0  0  0  0  0
   -3.9976    2.4845   -0.5355 C   0  0  0  0  0  0  0  0  0  0  0  0
   -3.3281    3.2619   -0.1194 H   0  0  0  0  0  0  0  0  0  0  0  0
   -4.7612    2.2275    0.2251 H   0  0  0  0  0  0  0  0  0  0  0  0
   -4.5337    2.9433   -1.3930 H   0  0  0  0  0  0  0  0  0  0  0  0
   -4.2201    0.2639   -1.6984 C   0  0  0  0  0  0  0  0  0  0  0  0
   -4.5990    0.7394   -2.6275 H   0  0  0  0  0  0  0  0  0  0  0  0
   -5.0925    0.0372   -1.0620 H   0  0  0  0  0  0  0  0  0  0  0  0
   -3.7327   -0.6939   -1.9613 H   0  0  0  0  0  0  0  0  0  0  0  0
   -3.3726   -0.1533    1.8619 C   0  0  0  0  0  0  0  0  0  0  0  0
   -3.7024    1.0003    2.8302 C   0  0  0  0  0  0  0  0  0  0  0  0
   -4.4107    0.6130    3.5921 H   0  0  0  0  0  0  0  0  0  0  0  0
   -4.1982    1.8561    2.3310 H   0  0  0  0  0  0  0  0  0  0  0  0
   -2.8166    1.3742    3.3778 H   0  0  0  0  0  0  0  0  0  0  0  0
   -4.6965   -0.7654    1.3740 C   0  0  0  0  0  0  0  0  0  0  0  0
   -4.5229   -1.5532    0.6190 H   0  0  0  0  0  0  0  0  0  0  0  0
   -5.3815    0.0013    0.9634 H   0  0  0  0  0  0  0  0  0  0  0  0
   -5.2044   -1.2243    2.2487 H   0  0  0  0  0  0  0  0  0  0  0  0
   -2.5664   -1.2278    2.6155 C   0  0  0  0  0  0  0  0  0  0  0  0
   -3.1453   -1.5486    3.5074 H   0  0  0  0  0  0  0  0  0  0  0  0
   -1.5909   -0.8435    2.9744 H   0  0  0  0  0  0  0  0  0  0  0  0
   -2.3799   -2.1101    1.9746 H   0  0  0  0  0  0  0  0  0  0  0  0
    2.6633   -0.1464   -1.1584 C   0  0  1  0  0  0  0  0  0  0  0  0
    3.2466   -1.5036   -0.7580 C   0  0  0  0  0  0  0  0  0  0  0  0
    4.0920   -1.7081   -1.4474 H   0  0  0  0  0  0  0  0  0  0  0  0
    2.4854   -2.2985   -0.8752 H   0  0  0  0  0  0  0  0  0  0  0  0
    3.7847   -1.4676    0.6662 C   0  0  2  0  0  0  0  0  0  0  0  0
    2.1067    0.0623    1.5606 C   0  0  1  0  0  0  0  0  0  0  0  0
    3.1846    1.1558    1.5194 C   0  0  0  0  0  0  0  0  0  0  0  0
    3.7037    1.1629    2.5004 H   0  0  0  0  0  0  0  0  0  0  0  0
    2.7361    2.1539    1.3559 H   0  0  0  0  0  0  0  0  0  0  0  0
    4.2338    0.8366    0.4414 C   0  0  2  0  0  0  0  0  0  0  0  0
    1.2508    0.1411    2.8124 C   0  0  0  0  0  0  0  0  0  0  0  0
    0.4163   -0.5837    2.7576 H   0  0  0  0  0  0  0  0  0  0  0  0
    0.8590    1.1644    2.9647 H   0  0  0  0  0  0  0  0  0  0  0  0
    1.8867   -0.1213    3.6816 H   0  0  0  0  0  0  0  0  0  0  0  0
    5.3812    1.8270    0.4059 C   0  0  0  0  0  0  0  0  0  0  0  0
    5.9066    1.8298    1.3789 H   0  0  0  0  0  0  0  0  0  0  0  0
    5.0007    2.8429    0.1887 H   0  0  0  0  0  0  0  0  0  0  0  0
    6.0901    1.5250   -0.3875 H   0  0  0  0  0  0  0  0  0  0  0  0
    2.3228   -0.1042   -2.6408 C   0  0  0  0  0  0  0  0  0  0  0  0
    1.8130    0.8312   -2.9382 H   0  0  0  0  0  0  0  0  0  0  0  0
    1.6589   -0.9617   -2.8673 H   0  0  0  0  0  0  0  0  0  0  0  0
    3.2602   -0.2004   -3.2252 H   0  0  0  0  0  0  0  0  0  0  0  0
    4.4316   -2.7643    1.1050 C   0  0  0  0  0  0  0  0  0  0  0  0
    5.2799   -3.0059    0.4382 H   0  0  0  0  0  0  0  0  0  0  0  0
    3.6876   -3.5813    1.0664 H   0  0  0  0  0  0  0  0  0  0  0  0
    4.8029   -2.6523    2.1411 H   0  0  0  0  0  0  0  0  0  0  0  0
  1  6  1  0  0  0  0
  1 32  1  0  0  0  0
  2 10  1  6  0  0  0
  2 50  1  0  0  0  0
  4 54  1  0  0  0  0
  6  7  1  0  0  0  0
  6  8  1  0  0  0  0
  9  6  1  0  0  0  0
 10  9  2  0  0  0  0
 11 10  1  0  0  0  0
 12 11  1  0  0  0  0
 13 11  2  0  0  0  0
 13 15  1  0  0  0  0
 14 13  1  0  0  0  0
 15 17  2  0  0  0  0
 16 15  1  0  0  0  0
 17  9  1  0  0  0  0
 17 18  1  0  0  0  0
 19 24  1  0  0  0  0
 19  1  1  0  0  0  0
 20 22  1  0  0  0  0
 20 19  1  0  0  0  0
 21 20  1  0  0  0  0
 23 20  1  0  0  0  0
 24 25  1  0  0  0  0
 24 26  1  0  0  0  0
 27 24  1  0  0  0  0
 28 30  1  0  0  0  0
 28 19  1  0  0  0  0
 29 28  1  0  0  0  0
 31 28  1  0  0  0  0
 32 41  1  0  0  0  0
 32 33  1  0  0  0  0
 33 36  1  0  0  0  0
 33 34  1  0  0  0  0
 35 33  1  0  0  0  0
 37 32  1  0  0  0  0
 37 40  1  0  0  0  0
 38 37  1  0  0  0  0
 39 37  1  0  0  0  0
 41 43  1  0  0  0  0
 41 42  1  0  0  0  0
 44 41  1  0  0  0  0
 45 63  1  6  0  0  0
 45  4  1  0  0  0  0
 45 46  1  0  0  0  0
 45  2  1  0  0  0  0
 46 49  1  0  0  0  0
 47 46  1  0  0  0  0
 48 46  1  0  0  0  0
 49  5  1  0  0  0  0
 49 67  1  1  0  0  0
 49  3  1  0  0  0  0
 50  3  1  0  0  0  0
 50 55  1  1  0  0  0
 51 50  1  0  0  0  0
 51 52  1  0  0  0  0
 53 51  1  0  0  0  0
 54 59  1  1  0  0  0
 54  5  1  0  0  0  0
 54 51  1  0  0  0  0
 55 57  1  0  0  0  0
 55 58  1  0  0  0  0
 56 55  1  0  0  0  0
 59 60  1  0  0  0  0
 61 59  1  0  0  0  0
 62 59  1  0  0  0  0
 64 63  1  0  0  0  0
 65 63  1  0  0  0  0
 66 63  1  0  0  0  0
 67 70  1  0  0  0  0
 68 67  1  0  0  0  0
 69 67  1  0  0  0  0
M  END
