1,2
q = 0.0, confidence = 0.988

 67 67  0  0  0  0  0  0  0  0999 V2000
    1.7016    0.6710    0.1266 P   0  0  0  0  0  0  0  0  0  0  0  0
   -1.6807   -0.0708    0.0936 P   0  0  0  0  0  0  0  0  0  0  0  0
    0.7845    1.8895    1.1883 C   0  0  0  0  0  0  0  0  0  0  0  0
    0.5709    1.2939    2.0997 H   0  0  0  0  0  0  0  0  0  0  0  0
    1.4768    2.6949    1.4913 H   0  0  0  0  0  0  0  0  0  0  0  0
   -0.4710    2.5153    0.6534 C   0  0  0  0  0  0  0  0  0  0  0  0
   -1.5980    1.7971    0.1673 C   0  0  0  0  0  0  0  0  0  0  0  0
   -2.7143    2.5519   -0.2616 C   0  0  0  0  0  0  0  0  0  0  0  0
   -3.6090    2.0341   -0.6159 H   0  0  0  0  0  0  0  0  0  0  0  0
   -2.7384    3.9507   -0.2453 C   0  0  0  0  0  0  0  0  0  0  0  0
   -3.6351    4.4846   -0.5934 H   0  0  0  0  0  0  0  0  0  0  0  0
   -1.6206    4.6522    0.2227 C   0  0  0  0  0  0  0  0  0  0  0  0
   -1.6123    5.7522    0.2470 H   0  0  0  0  0  0  0  0  0  0  0  0
   -0.5114    3.9293    0.6682 C   0  0  0  0  0  0  0  0  0  0  0  0
    0.3710    4.4694    1.0460 H   0  0  0  0  0  0  0  0  0  0  0  0
    2.3381    1.6469   -1.3877 C   0  0  0  0  0  0  0  0  0  0  0  0
    1.0951    2.1063   -2.1719 C   0  0  0  0  0  0  0  0  0  0  0  0
    1.4301    2.5760   -3.1206 H   0  0  0  0  0  0  0  0  0  0  0  0
    0.4834    2.8468   -1.6255 H   0  0  0  0  0  0  0  0  0  0  0  0
    0.4518    1.2444   -2.4283 H   0  0  0  0  0  0  0  0  0  0  0  0
    3.1694    2.8712   -0.9727 C   0  0  0  0  0  0  0  0  0  0  0  0
    4.1114    2.5891   -0.4647 H   0  0  0  0  0  0  0  0  0  0  0  0
    2.6064    3.5656   -0.3170 H   0  0  0  0  0  0  0  0  0  0  0  0
    3.4472    3.4396   -1.8857 H   0  0  0  0  0  0  0  0  0  0  0  0
    3.1577    0.7240   -2.3082 C   0  0  0  0  0  0  0  0  0  0  0  0
    3.3492    1.2641   -3.2597 H   0  0  0  0  0  0  0  0  0  0  0  0
    2.6174   -0.2161   -2.5309 H   0  0  0  0  0  0  0  0  0  0  0  0
    4.1346    0.4471   -1.8755 H   0  0  0  0  0  0  0  0  0  0  0  0
    3.1391    0.2359    1.3601 C   0  0  0  0  0  0  0  0  0  0  0  0
    3.5234    1.4389    2.2478 C   0  0  0  0  0  0  0  0  0  0  0  0
    2.7329    1.7121    2.9721 H   0  0  0  0  0  0  0  0  0  0  0  0
    3.8015    2.3405    1.6691 H   0  0  0  0  0  0  0  0  0  0  0  0
    4.4136    1.1471    2.8431 H   0  0  0  0  0  0  0  0  0  0  0  0
    4.4019   -0.2476    0.6275 C   0  0  0  0  0  0  0  0  0  0  0  0
    5.1152   -0.6317    1.3873 H   0  0  0  0  0  0  0  0  0  0  0  0
    4.9113    0.5744    0.0878 H   0  0  0  0  0  0  0  0  0  0  0  0
    4.1697   -1.0687   -0.0758 H   0  0  0  0  0  0  0  0  0  0  0  0
    2.6138   -0.8945    2.2674 C   0  0  0  0  0  0  0  0  0  0  0  0
    2.4523   -1.8279    1.6965 H   0  0  0  0  0  0  0  0  0  0  0  0
    1.6606   -0.6278    2.7678 H   0  0  0  0  0  0  0  0  0  0  0  0
    3.3660   -1.0884    3.0616 H   0  0  0  0  0  0  0  0  0  0  0  0
   -2.6279   -0.4806    1.7279 C   0  0  0  0  0  0  0  0  0  0  0  0
   -1.5502   -0.4752    2.8285 C   0  0  0  0  0  0  0  0  0  0  0  0
   -1.0884    0.5258    2.9477 H   0  0  0  0  0  0  0  0  0  0  0  0
   -0.7577   -1.2186    2.6126 H   0  0  0  0  0  0  0  0  0  0  0  0
   -2.0236   -0.7348    3.7989 H   0  0  0  0  0  0  0  0  0  0  0  0
   -3.2691   -1.8777    1.6750 C   0  0  0  0  0  0  0  0  0  0  0  0
   -3.6774   -2.1077    2.6823 H   0  0  0  0  0  0  0  0  0  0  0  0
   -2.5267   -2.6537    1.4063 H   0  0  0  0  0  0  0  0  0  0  0  0
   -4.1132   -1.9311    0.9623 H   0  0  0  0  0  0  0  0  0  0  0  0
   -3.6982    0.5718    2.0609 C   0  0  0  0  0  0  0  0  0  0  0  0
   -4.4854    0.6421    1.2867 H   0  0  0  0  0  0  0  0  0  0  0  0
   -3.2701    1.5806    2.2147 H   0  0  0  0  0  0  0  0  0  0  0  0
   -4.1964    0.2699    3.0065 H   0  0  0  0  0  0  0  0  0  0  0  0
   -2.7729   -0.4647   -1.4801 C   0  0  0  0  0  0  0  0  0  0  0  0
   -2.5730   -1.9397   -1.8756 C   0  0  0  0  0  0  0  0  0  0  0  0
   -3.1899   -2.1316   -2.7789 H   0  0  0  0  0  0  0  0  0  0  0  0
   -2.8748   -2.6483   -1.0848 H   0  0  0  0  0  0  0  0  0  0  0  0
   -1.5182   -2.1637   -2.1184 H   0  0  0  0  0  0  0  0  0  0  0  0
   -4.2929   -0.2562   -1.3138 C   0  0  0  0  0  0  0  0  0  0  0  0
   -4.7768   -0.5600   -2.2659 H   0  0  0  0  0  0  0  0  0  0  0  0
   -4.6142    0.7830   -1.1220 H   0  0  0  0  0  0  0  0  0  0  0  0
   -4.7185   -0.8964   -0.5201 H   0  0  0  0  0  0  0  0  0  0  0  0
   -2.2265    0.3875   -2.6405 C   0  0  0  0  0  0  0  0  0  0  0  0
   -1.1578    0.1557   -2.8149 H   0  0  0  0  0  0  0  0  0  0  0  0
   -2.3292    1.4777   -2.4880 H   0  0  0  0  0  0  0  0  0  0  0  0
   -2.7789    0.1179   -3.5650 H   0  0  0  0  0  0  0  0  0  0  0  0
  1  3  1  0  0  0  0
  1 29  1  0  0  0  0
  2  7  1  0  0  0  0
  2 42  1  0  0  0  0
  3  5  1  0  0  0  0
  3  4  1  0  0  0  0
  6 14  1  0  0  0  0
  6  3  1  0  0  0  0
  7  6  2  0  0  0  0
  8 10  2  0  0  0  0
  8  7  1  0  0  0  0
  9  8  1  0  0  0  0
 10 12  1  0  0  0  0
 11 10  1  0  0  0  0
 12 13  1  0  0  0  0
 12 14  2  0  0  0  0
 14 15  1  0  0  0  0
 16 21  1  0  0  0  0
 16  1  1  0  0  0  0
 17 19  1  0  0  0  0
 17 16  1  0  0  0  0
 18 17  1  0  0  0  0
 20 17  1  0  0  0  0
 21 22  1  0  0  0  0
 21 23  1  0  0  0  0
 24 21  1  0  0  0  0
 25 28  1  0  0  0  0
 25 16  1  0  0  0  0
 26 25  1  0  0  0  0
 27 25  1  0  0  0  0
 29 30  1  0  0  0  0
 29 38  1  0  0  0  0
 30 33  1  0  0  0  0
 30 31  1  0  0  0  0
 32 30  1  0  0  0  0
 34 29  1  0  0  0  0
 34 35  1  0  0  0  0
 36 34  1  0  0  0  0
 37 34  1  0  0  0  0
 38 40  1  0  0  0  0
 38 41  1  0  0  0  0
 39 38  1  0  0  0  0
 42 51  1  0  0  0  0
 42 43  1  0  0  0  0
 43 44  1  0  0  0  0
 43 46  1  0  0  0  0
 45 43  1  0  0  0  0
 47 42  1  0  0  0  0
 47 48  1  0  0  0  0
 49 47  1  0  0  0  0
 50 47  1  0  0  0  0
 51 53  1  0  0  0  0
 51 54  1  0  0  0  0
 52 51  1  0  0  0  0
 55 60  1  0  0  0  0
 55  2  1  0  0  0  0
 56 55  1  0  0  0  0
 56 58  1  0  0  0  0
 57 56  1  0  0  0  0
 59 56  1  0  0  0  0
 60 62  1  0  0  0  0
 60 63  1  0  0  0  0
 61 60  1  0  0  0  0
 64 66  1  0  0  0  0
 64 55  1  0  0  0  0
 65 64  1  0  0  0  0
 67 64  1  0  0  0  0
M  END
