1,2
q = 0.0, confidence = 0.994

 71 74  0  0  0  0  0  0  0  0999 V2000
    0.2687   -0.9862    0.0203 P   0  0  0  0  0  0  0  0  0  0  0  0
   -2.0349    0.5369   -0.1276 P   0  0  0  0  0  0  0  0  0  0  0  0
    1.0754   -1.0418    1.6758 C   0  0  0  0  0  0  0  0  0  0  0  0
    2.1542   -0.1879    1.9973 C   0  0  0  0  0  0  0  0  0  0  0  0
    2.7540   -0.2635    3.2618 C   0  0  0  0  0  0  0  0  0  0  0  0
    2.2993   -1.1992    4.2069 C   0  0  0  0  0  0  0  0  0  0  0  0
    1.2489   -2.0703    3.8792 C   0  0  0  0  0  0  0  0  0  0  0  0
    0.6377   -1.9937    2.6176 C   0  0  0  0  0  0  0  0  0  0  0  0
    2.5169    0.5175    1.2324 H   0  0  0  0  0  0  0  0  0  0  0  0
    3.5912    0.4088    3.5065 H   0  0  0  0  0  0  0  0  0  0  0  0
    2.7734   -1.2567    5.1988 H   0  0  0  0  0  0  0  0  0  0  0  0
    0.8993   -2.8168    4.6082 H   0  0  0  0  0  0  0  0  0  0  0  0
   -0.1811   -2.6787    2.3574 H   0  0  0  0  0  0  0  0  0  0  0  0
    1.6826   -1.4017   -1.0940 C   0  0  0  0  0  0  0  0  0  0  0  0
    1.6839   -0.9888   -2.4436 C   0  0  0  0  0  0  0  0  0  0  0  0
    2.7459   -1.3325   -3.2921 C   0  0  0  0  0  0  0  0  0  0  0  0
    3.8108   -2.1124   -2.8132 C   0  0  0  0  0  0  0  0  0  0  0  0
    3.8027   -2.5506   -1.4802 C   0  0  0  0  0  0  0  0  0  0  0  0
    2.7485   -2.1970   -0.6244 C   0  0  0  0  0  0  0  0  0  0  0  0
    0.8455   -0.4065   -2.8536 H   0  0  0  0  0  0  0  0  0  0  0  0
    2.7342   -0.9957   -4.3397 H   0  0  0  0  0  0  0  0  0  0  0  0
    4.6418   -2.3839   -3.4815 H   0  0  0  0  0  0  0  0  0  0  0  0
    4.6266   -3.1717   -1.0968 H   0  0  0  0  0  0  0  0  0  0  0  0
    2.7592   -2.5387    0.4207 H   0  0  0  0  0  0  0  0  0  0  0  0
   -2.4496    1.3529    1.4699 C   0  0  0  0  0  0  0  0  0  0  0  0
   -3.6053    2.1494    1.6055 C   0  0  0  0  0  0  0  0  0  0  0  0
   -3.9496    2.6905    2.8540 C   0  0  0  0  0  0  0  0  0  0  0  0
   -3.1471    2.4442    3.9782 C   0  0  0  0  0  0  0  0  0  0  0  0
   -2.0027    1.6406    3.8523 C   0  0  0  0  0  0  0  0  0  0  0  0
   -1.6603    1.0892    2.6104 C   0  0  0  0  0  0  0  0  0  0  0  0
   -4.2425    2.3479    0.7311 H   0  0  0  0  0  0  0  0  0  0  0  0
   -4.8555    3.3088    2.9460 H   0  0  0  0  0  0  0  0  0  0  0  0
   -3.4185    2.8711    4.9556 H   0  0  0  0  0  0  0  0  0  0  0  0
   -1.3726    1.4285    4.7293 H   0  0  0  0  0  0  0  0  0  0  0  0
   -0.7780    0.4369    2.5386 H   0  0  0  0  0  0  0  0  0  0  0  0
   -2.8558    1.6124   -1.3787 C   0  0  0  0  0  0  0  0  0  0  0  0
   -3.7187    1.0242   -2.3238 C   0  0  0  0  0  0  0  0  0  0  0  0
   -4.3260    1.8127   -3.3143 C   0  0  0  0  0  0  0  0  0  0  0  0
   -4.0731    3.1910   -3.3718 C   0  0  0  0  0  0  0  0  0  0  0  0
   -3.2188    3.7866   -2.4279 C   0  0  0  0  0  0  0  0  0  0  0  0
   -2.6177    3.0042   -1.4326 C   0  0  0  0  0  0  0  0  0  0  0  0
   -3.9201   -0.0553   -2.2786 H   0  0  0  0  0  0  0  0  0  0  0  0
   -5.0004    1.3421   -4.0454 H   0  0  0  0  0  0  0  0  0  0  0  0
   -4.5467    3.8071   -4.1513 H   0  0  0  0  0  0  0  0  0  0  0  0
   -3.0243    4.8694   -2.4640 H   0  0  0  0  0  0  0  0  0  0  0  0
   -1.9700    3.4814   -0.6812 H   0  0  0  0  0  0  0  0  0  0  0  0
    1.9483    1.9782   -0.3235 N   0  0  0  0  0  0  0  0  0  0  0  0
    1.9784    1.8751   -1.3455 H   0  0  0  0  0  0  0  0  0  0  0  0
    6.1988    1.4556   -0.7219 N   0  0  0  0  0  0  0  0  0  0  0  0
   -0.1854    0.8045   -0.3846 C   0  0  0  0  0  0  0  0  0  0  0  0
   -0.1322    0.8166   -1.4966 H   0  0  0  0  0  0  0  0  0  0  0  0
    0.5802    2.0040    0.1558 C   0  0  0  0  0  0  0  0  0  0  0  0
    0.5909    1.9876    1.2672 H   0  0  0  0  0  0  0  0  0  0  0  0
    0.0265    2.9393   -0.1247 H   0  0  0  0  0  0  0  0  0  0  0  0
    2.7975    3.0773    0.1100 C   0  0  0  0  0  0  0  0  0  0  0  0
    2.3758    4.0829   -0.1520 H   0  0  0  0  0  0  0  0  0  0  0  0
    2.8438    3.0497    1.2233 H   0  0  0  0  0  0  0  0  0  0  0  0
    4.2077    2.9498   -0.4690 C   0  0  0  0  0  0  0  0  0  0  0  0
    4.1753    3.0427   -1.5775 H   0  0  0  0  0  0  0  0  0  0  0  0
    4.8085    3.8099   -0.1071 H   0  0  0  0  0  0  0  0  0  0  0  0
    4.8852    1.6205   -0.1191 C   0  0  0  0  0  0  0  0  0  0  0  0
    4.2389    0.7956   -0.4821 H   0  0  0  0  0  0  0  0  0  0  0  0
    4.9212    1.5079    1.0034 H   0  0  0  0  0  0  0  0  0  0  0  0
    6.6205    0.0676   -0.7360 C   0  0  0  0  0  0  0  0  0  0  0  0
    5.8601   -0.5552   -1.2488 H   0  0  0  0  0  0  0  0  0  0  0  0
    6.7750   -0.3638    0.2915 H   0  0  0  0  0  0  0  0  0  0  0  0
    7.5792   -0.0335   -1.2855 H   0  0  0  0  0  0  0  0  0  0  0  0
    7.2120    2.3185   -0.1464 C   0  0  0  0  0  0  0  0  0  0  0  0
    6.9189    3.3839   -0.2283 H   0  0  0  0  0  0  0  0  0  0  0  0
    8.1694    2.1966   -0.6929 H   0  0  0  0  0  0  0  0  0  0  0  0
    7.4114    2.1035    0.9403 H   0  0  0  0  0  0  0  0  0  0  0  0
  1  3  1  0  0  0  0
  2 25  1  0  0  0  0
  3  4  2  0  0  0  0
  3  8  1  0  0  0  0
  4  5  1  0  0  0  0
  5 10  1  0  0  0  0
  5  6  2  0  0  0  0
  6 11  1  0  0  0  0
  7  6  1  0  0  0  0
  7 12  1  0  0  0  0
  8  7  2  0  0  0  0
  9  4  1  0  0  0  0
 13  8  1  0  0  0  0
 14 19  1  0  0  0  0
 14  1  1  0  0  0  0
 15 14  2  0  0  0  0
 16 17  2  0  0  0  0
 16 15  1  0  0  0  0
 17 18  1  0  0  0  0
 18 23  1  0  0  0  0
 18 19  2  0  0  0  0
 19 24  1  0  0  0  0
 20 15  1  0  0  0  0
 21 16  1  0  0  0  0
 22 17  1  0  0  0  0
 25 26  2  0  0  0  0
 25 30  1  0  0  0  0
 26 27  1  0  0  0  0
 27 32  1  0  0  0  0
 27 28  2  0  0  0  0
 28 33  1  0  0  0  0
 29 28  1  0  0  0  0
 29 34  1  0  0  0  0
 30 29  2  0  0  0  0
 31 26  1  0  0  0  0
 35 30  1  0  0  0  0
 36  2  1  0  0  0  0
 37 42  1  0  0  0  0
 37 36  2  0  0  0  0
 38 37  1  0  0  0  0
 39 38  2  0  0  0  0
 39 40  1  0  0  0  0
 40 41  2  0  0  0  0
 41 36  1  0  0  0  0
 41 46  1  0  0  0  0
 43 38  1  0  0  0  0
 44 39  1  0  0  0  0
 45 40  1  0  0  0  0
 47 55  1  0  0  0  0
 47 52  1  0  0  0  0
 48 47  1  0  0  0  0
 49 68  1  0  0  0  0
 49 61  1  0  0  0  0
 50  2  1  0  0  0  0
 50  1  1  0  0  0  0
 50 52  1  0  0  0  0
 51 50  1  0  0  0  0
 52 53  1  0  0  0  0
 54 52  1  0  0  0  0
 55 57  1  0  0  0  0
 56 55  1  0  0  0  0
 58 61  1  0  0  0  0
 58 60  1  0  0  0  0
 58 55  1  0  0  0  0
 59 58  1  0  0  0  0
 61 63  1  0  0  0  0
 62 61  1  0  0  0  0
 64 49  1  0  0  0  0
 64 66  1  0  0  0  0
 65 64  1  0  0  0  0
 67 64  1  0  0  0  0
 68 71  1  0  0  0  0
 69 68  1  0  0  0  0
 70 68  1  0  0  0  0
M  END
