1,2
q = 0.0, confidence = 0.998

 39 38  0  0  0  0  0  0  0  0999 V2000
    0.8469    1.5342    0.0654 P   0  0  0  0  0  0  0  0  0  0  0  0
    2.2787   -0.5931    0.0680 P   0  0  0  0  0  0  0  0  0  0  0  0
    2.5042    1.0851    0.3281 O   0  0  0  0  0  0  0  0  0  0  0  0
    0.8906    2.7015   -1.1706 N   0  0  0  0  0  0  0  0  0  0  0  0
    0.6867    2.5607    1.4455 N   0  0  0  0  0  0  0  0  0  0  0  0
    3.5701   -0.8723   -1.0378 N   0  0  0  0  0  0  0  0  0  0  0  0
    2.8420   -1.4301    1.4195 N   0  0  0  0  0  0  0  0  0  0  0  0
   -0.4962    3.4110    1.5145 C   0  0  0  0  0  0  0  0  0  0  0  0
    1.0471    1.9654    2.7271 C   0  0  0  0  0  0  0  0  0  0  0  0
    0.5826    2.2820   -2.5279 C   0  0  0  0  0  0  0  0  0  0  0  0
    1.6877    3.9124   -1.0563 C   0  0  0  0  0  0  0  0  0  0  0  0
    3.7464    0.0821   -2.1242 C   0  0  0  0  0  0  0  0  0  0  0  0
    3.7192   -2.2653   -1.4573 C   0  0  0  0  0  0  0  0  0  0  0  0
    1.8884   -2.0174    2.3477 C   0  0  0  0  0  0  0  0  0  0  0  0
    4.2122   -1.3136    1.8896 C   0  0  0  0  0  0  0  0  0  0  0  0
   -0.6759    3.8899    0.5344 H   0  0  0  0  0  0  0  0  0  0  0  0
   -0.3233    4.2119    2.2648 H   0  0  0  0  0  0  0  0  0  0  0  0
   -1.4197    2.8520    1.7966 H   0  0  0  0  0  0  0  0  0  0  0  0
    1.9708    1.3698    2.6155 H   0  0  0  0  0  0  0  0  0  0  0  0
    0.2469    1.3063    3.1422 H   0  0  0  0  0  0  0  0  0  0  0  0
    1.2422    2.7755    3.4616 H   0  0  0  0  0  0  0  0  0  0  0  0
    0.0796    1.2913   -2.4919 H   0  0  0  0  0  0  0  0  0  0  0  0
    1.5038    2.1774   -3.1472 H   0  0  0  0  0  0  0  0  0  0  0  0
   -0.0869    3.0166   -3.0284 H   0  0  0  0  0  0  0  0  0  0  0  0
    1.9400    4.0883    0.0062 H   0  0  0  0  0  0  0  0  0  0  0  0
    1.1258    4.7920   -1.4422 H   0  0  0  0  0  0  0  0  0  0  0  0
    2.6360    3.8317   -1.6375 H   0  0  0  0  0  0  0  0  0  0  0  0
    3.6568    1.1124   -1.7356 H   0  0  0  0  0  0  0  0  0  0  0  0
    3.0059   -0.0585   -2.9496 H   0  0  0  0  0  0  0  0  0  0  0  0
    4.7627   -0.0418   -2.5551 H   0  0  0  0  0  0  0  0  0  0  0  0
    3.5185   -2.9385   -0.6027 H   0  0  0  0  0  0  0  0  0  0  0  0
    4.7592   -2.4375   -1.8082 H   0  0  0  0  0  0  0  0  0  0  0  0
    3.0163   -2.5424   -2.2772 H   0  0  0  0  0  0  0  0  0  0  0  0
    0.8983   -2.0901    1.8545 H   0  0  0  0  0  0  0  0  0  0  0  0
    1.7879   -1.4124    3.2795 H   0  0  0  0  0  0  0  0  0  0  0  0
    2.2137   -3.0420    2.6325 H   0  0  0  0  0  0  0  0  0  0  0  0
    4.8333   -0.8453    1.1030 H   0  0  0  0  0  0  0  0  0  0  0  0
    4.6341   -2.3172    2.1203 H   0  0  0  0  0  0  0  0  0  0  0  0
    4.2746   -0.6951    2.8150 H   0  0  0  0  0  0  0  0  0  0  0  0
  1  3  1  0  0  0  0
  1  5  1  0  0  0  0
  2  3  1  0  0  0  0
  2  7  1  0  0  0  0
  4 11  1  0  0  0  0
  4  1  1  0  0  0  0
  5  8  1  0  0  0  0
  5  9  1  0  0  0  0
  6  2  1  0  0  0  0
  7 15  1  0  0  0  0
  7 14  1  0  0  0  0
  8 18  1  0  0  0  0
  8 17  1  0  0  0  0
  9 20  1  0  0  0  0
  9 21  1  0  0  0  0
 10 22  1  0  0  0  0
 10  4  1  0  0  0  0
 11 25  1  0  0  0  0
 12 28  1  0  0  0  0
 12  6  1  0  0  0  0
 13  6  1  0  0  0  0
 13 31  1  0  0  0  0
 14 36  1  0  0  0  0
 14 35  1  0  0  0  0
 15 38  1  0  0  0  0
 15 39  1  0  0  0  0
 16  8  1  0  0  0  0
 19  9  1  0  0  0  0
 23 10  1  0  0  0  0
 24 10  1  0  0  0  0
 26 11  1  0  0  0  0
 27 11  1  0  0  0  0
 29 12  1  0  0  0  0
 30 12  1  0  0  0  0
 32 13  1  0  0  0  0
 33 13  1  0  0  0  0
 34 14  1  0  0  0  0
 37 15  1  0  0  0  0
M  END
