1,3
q = 0.0, confidence = 0.992

 64 68  0  0  0  0  0  0  0  0999 V2000
   -1.6065   -0.4744   -0.1282 P   0  0  0  0  0  0  0  0  0  0  0  0
   -0.0052    2.1910    0.4862 P   0  0  0  0  0  0  0  0  0  0  0  0
    1.7001   -0.2834   -0.1266 P   0  0  0  0  0  0  0  0  0  0  0  0
   -1.4527    1.3719   -0.3783 C   0  0  0  0  0  0  0  0  0  0  0  0
    1.3210    1.4785   -0.6054 C   0  0  0  0  0  0  0  0  0  0  0  0
   -2.5241   -0.5844    1.4592 C   0  0  0  0  0  0  0  0  0  0  0  0
   -3.5872   -1.4982    1.6117 C   0  0  0  0  0  0  0  0  0  0  0  0
   -4.2430   -1.6081    2.8456 C   0  0  0  0  0  0  0  0  0  0  0  0
   -3.8354   -0.8267    3.9392 C   0  0  0  0  0  0  0  0  0  0  0  0
   -2.7637    0.0679    3.7957 C   0  0  0  0  0  0  0  0  0  0  0  0
   -2.1056    0.1889    2.5624 C   0  0  0  0  0  0  0  0  0  0  0  0
   -2.8139   -0.8275   -1.4675 C   0  0  0  0  0  0  0  0  0  0  0  0
   -4.0898   -0.2294   -1.4640 C   0  0  0  0  0  0  0  0  0  0  0  0
   -4.9631   -0.4345   -2.5430 C   0  0  0  0  0  0  0  0  0  0  0  0
   -4.5632   -1.2273   -3.6307 C   0  0  0  0  0  0  0  0  0  0  0  0
   -3.2912   -1.8227   -3.6348 C   0  0  0  0  0  0  0  0  0  0  0  0
   -2.4186   -1.6299   -2.5547 C   0  0  0  0  0  0  0  0  0  0  0  0
   -0.2123    3.8926   -0.2119 C   0  0  0  0  0  0  0  0  0  0  0  0
    0.4534    4.3833   -1.3535 C   0  0  0  0  0  0  0  0  0  0  0  0
    0.2293    5.6964   -1.7978 C   0  0  0  0  0  0  0  0  0  0  0  0
   -0.6678    6.5317   -1.1149 C   0  0  0  0  0  0  0  0  0  0  0  0
   -1.3352    6.0528    0.0245 C   0  0  0  0  0  0  0  0  0  0  0  0
   -1.0997    4.7478    0.4786 C   0  0  0  0  0  0  0  0  0  0  0  0
    2.4769   -0.0247    1.5170 C   0  0  0  0  0  0  0  0  0  0  0  0
    1.8945   -0.6416    2.6409 C   0  0  0  0  0  0  0  0  0  0  0  0
    2.4075   -0.3896    3.9210 C   0  0  0  0  0  0  0  0  0  0  0  0
    3.5073    0.4674    4.0848 C   0  0  0  0  0  0  0  0  0  0  0  0
    4.0975    1.0744    2.9642 C   0  0  0  0  0  0  0  0  0  0  0  0
    3.5823    0.8332    1.6821 C   0  0  0  0  0  0  0  0  0  0  0  0
    3.0453   -0.6582   -1.3202 C   0  0  0  0  0  0  0  0  0  0  0  0
    4.2613   -1.2290   -0.8949 C   0  0  0  0  0  0  0  0  0  0  0  0
    5.2587   -1.5318   -1.8322 C   0  0  0  0  0  0  0  0  0  0  0  0
    5.0468   -1.2881   -3.1987 C   0  0  0  0  0  0  0  0  0  0  0  0
    3.8275   -0.7424   -3.6289 C   0  0  0  0  0  0  0  0  0  0  0  0
    2.8293   -0.4300   -2.6941 C   0  0  0  0  0  0  0  0  0  0  0  0
   -1.3833    1.5459   -1.4728 H   0  0  0  0  0  0  0  0  0  0  0  0
   -2.3916    1.8415   -0.0208 H   0  0  0  0  0  0  0  0  0  0  0  0
    1.0304    1.5080   -1.6760 H   0  0  0  0  0  0  0  0  0  0  0  0
    2.2530    2.0663   -0.4798 H   0  0  0  0  0  0  0  0  0  0  0  0
   -3.8835   -2.1326    0.7650 H   0  0  0  0  0  0  0  0  0  0  0  0
   -5.0748   -2.3203    2.9554 H   0  0  0  0  0  0  0  0  0  0  0  0
   -4.3496   -0.9220    4.9077 H   0  0  0  0  0  0  0  0  0  0  0  0
   -2.4293    0.6751    4.6507 H   0  0  0  0  0  0  0  0  0  0  0  0
   -1.2560    0.8841    2.4641 H   0  0  0  0  0  0  0  0  0  0  0  0
   -4.4102    0.3879   -0.6102 H   0  0  0  0  0  0  0  0  0  0  0  0
   -5.9626    0.0262   -2.5317 H   0  0  0  0  0  0  0  0  0  0  0  0
   -5.2496   -1.3874   -4.4762 H   0  0  0  0  0  0  0  0  0  0  0  0
   -2.9795   -2.4549   -4.4800 H   0  0  0  0  0  0  0  0  0  0  0  0
   -1.4380   -2.1271   -2.5221 H   0  0  0  0  0  0  0  0  0  0  0  0
    1.1557    3.7434   -1.9082 H   0  0  0  0  0  0  0  0  0  0  0  0
    0.7595    6.0675   -2.6883 H   0  0  0  0  0  0  0  0  0  0  0  0
   -0.8428    7.5596   -1.4670 H   0  0  0  0  0  0  0  0  0  0  0  0
   -2.0346    6.7044    0.5702 H   0  0  0  0  0  0  0  0  0  0  0  0
   -1.6066    4.3837    1.3876 H   0  0  0  0  0  0  0  0  0  0  0  0
    1.0537   -1.3367    2.4967 H   0  0  0  0  0  0  0  0  0  0  0  0
    1.9471   -0.8735    4.7955 H   0  0  0  0  0  0  0  0  0  0  0  0
    3.9114    0.6601    5.0904 H   0  0  0  0  0  0  0  0  0  0  0  0
    4.9655    1.7397    3.0882 H   0  0  0  0  0  0  0  0  0  0  0  0
    4.0548    1.3075    0.8073 H   0  0  0  0  0  0  0  0  0  0  0  0
    4.4150   -1.4489    0.1706 H   0  0  0  0  0  0  0  0  0  0  0  0
    6.2066   -1.9748   -1.4909 H   0  0  0  0  0  0  0  0  0  0  0  0
    5.8302   -1.5337   -3.9315 H   0  0  0  0  0  0  0  0  0  0  0  0
    3.6473   -0.5637   -4.6998 H   0  0  0  0  0  0  0  0  0  0  0  0
    1.8694   -0.0217   -3.0473 H   0  0  0  0  0  0  0  0  0  0  0  0
  1  6  1  0  0  0  0
  3 24  1  0  0  0  0
  4  1  1  0  0  0  0
  4 37  1  0  0  0  0
  4  2  1  0  0  0  0
  5 39  1  0  0  0  0
  5  3  1  0  0  0  0
  5  2  1  0  0  0  0
  6  7  2  0  0  0  0
  6 11  1  0  0  0  0
  7  8  1  0  0  0  0
  8 41  1  0  0  0  0
  8  9  2  0  0  0  0
  9 42  1  0  0  0  0
 10  9  1  0  0  0  0
 10 43  1  0  0  0  0
 11 10  2  0  0  0  0
 12 13  1  0  0  0  0
 12  1  1  0  0  0  0
 13 45  1  0  0  0  0
 14 46  1  0  0  0  0
 14 13  2  0  0  0  0
 15 14  1  0  0  0  0
 16 15  2  0  0  0  0
 16 17  1  0  0  0  0
 17 49  1  0  0  0  0
 17 12  2  0  0  0  0
 18 23  1  0  0  0  0
 18  2  1  0  0  0  0
 19 18  2  0  0  0  0
 20 19  1  0  0  0  0
 20 21  2  0  0  0  0
 21 22  1  0  0  0  0
 22 23  2  0  0  0  0
 22 53  1  0  0  0  0
 23 54  1  0  0  0  0
 24 29  2  0  0  0  0
 24 25  1  0  0  0  0
 25 26  2  0  0  0  0
 26 27  1  0  0  0  0
 26 56  1  0  0  0  0
 27 57  1  0  0  0  0
 28 58  1  0  0  0  0
 28 27  2  0  0  0  0
 29 28  1  0  0  0  0
 30 31  1  0  0  0  0
 30  3  1  0  0  0  0
 31 60  1  0  0  0  0
 32 61  1  0  0  0  0
 32 31  2  0  0  0  0
 33 32  1  0  0  0  0
 34 33  2  0  0  0  0
 34 35  1  0  0  0  0
 35 30  2  0  0  0  0
 36  4  1  0  0  0  0
 38  5  1  0  0  0  0
 40  7  1  0  0  0  0
 44 11  1  0  0  0  0
 47 15  1  0  0  0  0
 48 16  1  0  0  0  0
 50 19  1  0  0  0  0
 51 20  1  0  0  0  0
 52 21  1  0  0  0  0
 55 25  1  0  0  0  0
 59 29  1  0  0  0  0
 62 33  1  0  0  0  0
 63 34  1  0  0  0  0
 64 35  1  0  0  0  0
M  END
