1,2
q = 0.0, confidence = 0.992

 79 83  0  0  1  0  0  0  0  0999 V2000
   -1.0104    0.0590   -0.5824 P   0  0  2  0  0  0  0  0  0  0  0  0
    1.2324   -1.0408   -0.0363 P   0  0  0  0  0  0  0  0  0  0  0  0
    0.4870    0.5416    0.1809 N   0  0  0  0  0  0  0  0  0  0  0  0
   -3.8601    1.5577   -0.4103 Si  0  0  0  0  0  0  0  0  0  0  0  0
   -3.1368   -1.0016    1.4346 Si  0  0  0  0  0  0  0  0  0  0  0  0
   -1.1327    1.1754   -2.3917 Cl  0  0  0  0  0  0  0  0  0  0  0  0
   -2.4377    0.5395    0.4392 C   0  0  0  0  0  0  0  0  0  0  0  0
   -2.0125    1.2051    1.2199 H   0  0  0  0  0  0  0  0  0  0  0  0
   -3.2907    3.3234   -0.8101 C   0  0  0  0  0  0  0  0  0  0  0  0
   -2.4908    3.3624   -1.5724 H   0  0  0  0  0  0  0  0  0  0  0  0
   -2.9441    3.8526    0.1013 H   0  0  0  0  0  0  0  0  0  0  0  0
   -4.1661    3.8821   -1.2036 H   0  0  0  0  0  0  0  0  0  0  0  0
   -5.2472    1.8229    0.8598 C   0  0  0  0  0  0  0  0  0  0  0  0
   -4.8862    2.3857    1.7448 H   0  0  0  0  0  0  0  0  0  0  0  0
   -5.7285    0.8911    1.2115 H   0  0  0  0  0  0  0  0  0  0  0  0
   -6.0307    2.4407    0.3725 H   0  0  0  0  0  0  0  0  0  0  0  0
   -4.5060    0.6519   -1.9368 C   0  0  0  0  0  0  0  0  0  0  0  0
   -5.5440    0.2991   -1.7737 H   0  0  0  0  0  0  0  0  0  0  0  0
   -3.8787   -0.2315   -2.1791 H   0  0  0  0  0  0  0  0  0  0  0  0
   -4.5044    1.3247   -2.8175 H   0  0  0  0  0  0  0  0  0  0  0  0
   -3.5475   -0.2898    3.1456 C   0  0  0  0  0  0  0  0  0  0  0  0
   -3.9889   -1.0848    3.7818 H   0  0  0  0  0  0  0  0  0  0  0  0
   -4.2621    0.5543    3.1121 H   0  0  0  0  0  0  0  0  0  0  0  0
   -2.6218    0.0616    3.6486 H   0  0  0  0  0  0  0  0  0  0  0  0
   -4.6328   -1.7701    0.5886 C   0  0  0  0  0  0  0  0  0  0  0  0
   -4.3006   -2.1980   -0.3797 H   0  0  0  0  0  0  0  0  0  0  0  0
   -5.4748   -1.0767    0.4073 H   0  0  0  0  0  0  0  0  0  0  0  0
   -5.0033   -2.6006    1.2250 H   0  0  0  0  0  0  0  0  0  0  0  0
   -1.9076   -2.4055    1.7260 C   0  0  0  0  0  0  0  0  0  0  0  0
   -2.4016   -3.1134    2.4268 H   0  0  0  0  0  0  0  0  0  0  0  0
   -0.9591   -2.0884    2.1976 H   0  0  0  0  0  0  0  0  0  0  0  0
   -1.6712   -2.9693    0.7996 H   0  0  0  0  0  0  0  0  0  0  0  0
    1.7757   -1.6519    1.5862 C   0  0  0  0  0  0  0  0  0  0  0  0
    1.2517   -1.1231    2.7822 C   0  0  0  0  0  0  0  0  0  0  0  0
    0.5659   -0.2651    2.7391 H   0  0  0  0  0  0  0  0  0  0  0  0
    1.5959   -1.6965    4.0140 C   0  0  0  0  0  0  0  0  0  0  0  0
    1.1900   -1.2740    4.9455 H   0  0  0  0  0  0  0  0  0  0  0  0
    2.4462   -2.8134    4.0559 C   0  0  0  0  0  0  0  0  0  0  0  0
    2.7131   -3.2656    5.0231 H   0  0  0  0  0  0  0  0  0  0  0  0
    2.9426   -3.3627    2.8626 C   0  0  0  0  0  0  0  0  0  0  0  0
    3.5902   -4.2518    2.8913 H   0  0  0  0  0  0  0  0  0  0  0  0
    2.6068   -2.7928    1.6265 C   0  0  0  0  0  0  0  0  0  0  0  0
    2.9574   -3.2450    0.6873 H   0  0  0  0  0  0  0  0  0  0  0  0
    2.7138   -0.9058   -1.0905 C   0  0  0  0  0  0  0  0  0  0  0  0
    4.0093   -0.6970   -0.5784 C   0  0  0  0  0  0  0  0  0  0  0  0
    4.1787   -0.6749    0.5087 H   0  0  0  0  0  0  0  0  0  0  0  0
    5.0856   -0.5228   -1.4613 C   0  0  0  0  0  0  0  0  0  0  0  0
    6.0982   -0.3585   -1.0628 H   0  0  0  0  0  0  0  0  0  0  0  0
    4.8711   -0.5628   -2.8488 C   0  0  0  0  0  0  0  0  0  0  0  0
    5.7176   -0.4253   -3.5387 H   0  0  0  0  0  0  0  0  0  0  0  0
    3.5820   -0.7953   -3.3580 C   0  0  0  0  0  0  0  0  0  0  0  0
    3.4171   -0.8482   -4.4444 H   0  0  0  0  0  0  0  0  0  0  0  0
    2.5039   -0.9763   -2.4829 C   0  0  0  0  0  0  0  0  0  0  0  0
    1.4908   -1.1813   -2.8621 H   0  0  0  0  0  0  0  0  0  0  0  0
    1.1110    1.8806    0.3708 C   0  0  2  0  0  0  0  0  0  0  0  0
    0.0251    2.8991    0.7735 C   0  0  0  0  0  0  0  0  0  0  0  0
   -0.4627    2.5631    1.7142 H   0  0  0  0  0  0  0  0  0  0  0  0
   -0.7544    2.9430   -0.0117 H   0  0  0  0  0  0  0  0  0  0  0  0
    1.8017    2.3681   -0.9307 C   0  0  0  0  0  0  0  0  0  0  0  0
    2.5879    1.6451   -1.2221 H   0  0  0  0  0  0  0  0  0  0  0  0
    1.0589    2.3886   -1.7503 H   0  0  0  0  0  0  0  0  0  0  0  0
    2.1655    1.8326    1.4986 C   0  0  0  0  0  0  0  0  0  0  0  0
    2.9501    1.0886    1.2530 H   0  0  0  0  0  0  0  0  0  0  0  0
    1.6889    1.5023    2.4425 H   0  0  0  0  0  0  0  0  0  0  0  0
    2.7990    3.2244    1.6983 C   0  0  2  0  0  0  0  0  0  0  0  0
    3.5539    3.1552    2.5098 H   0  0  0  0  0  0  0  0  0  0  0  0
    1.6998    4.2284    2.0951 C   0  0  0  0  0  0  0  0  0  0  0  0
    1.2252    3.9187    3.0512 H   0  0  0  0  0  0  0  0  0  0  0  0
    2.1425    5.2329    2.2644 H   0  0  0  0  0  0  0  0  0  0  0  0
    0.6454    4.2951    0.9752 C   0  0  1  0  0  0  0  0  0  0  0  0
   -0.1617    5.0037    1.2579 H   0  0  0  0  0  0  0  0  0  0  0  0
    1.3106    4.7587   -0.3341 C   0  0  0  0  0  0  0  0  0  0  0  0
    1.7347    5.7772   -0.2041 H   0  0  0  0  0  0  0  0  0  0  0  0
    0.5537    4.8226   -1.1447 H   0  0  0  0  0  0  0  0  0  0  0  0
    2.4187    3.7627   -0.7233 C   0  0  1  0  0  0  0  0  0  0  0  0
    2.8979    4.0864   -1.6713 H   0  0  0  0  0  0  0  0  0  0  0  0
    3.4740    3.6880    0.3946 C   0  0  0  0  0  0  0  0  0  0  0  0
    4.2805    2.9796    0.1076 H   0  0  0  0  0  0  0  0  0  0  0  0
    3.9507    4.6801    0.5454 H   0  0  0  0  0  0  0  0  0  0  0  0
  1  6  1  6  0  0  0
  1  3  1  0  0  0  0
  1  7  1  0  0  0  0
  2  3  1  0  0  0  0
  2 33  1  0  0  0  0
  4  7  1  0  0  0  0
  4 13  1  0  0  0  0
  5 29  1  0  0  0  0
  5 21  1  0  0  0  0
  7  8  1  0  0  0  0
  7  5  1  0  0  0  0
  9  4  1  0  0  0  0
  9 11  1  0  0  0  0
 10  9  1  0  0  0  0
 12  9  1  0  0  0  0
 13 15  1  0  0  0  0
 13 14  1  0  0  0  0
 16 13  1  0  0  0  0
 17 18  1  0  0  0  0
 17  4  1  0  0  0  0
 19 17  1  0  0  0  0
 20 17  1  0  0  0  0
 21 24  1  0  0  0  0
 21 22  1  0  0  0  0
 23 21  1  0  0  0  0
 25 28  1  0  0  0  0
 25  5  1  0  0  0  0
 26 25  1  0  0  0  0
 27 25  1  0  0  0  0
 29 31  1  0  0  0  0
 29 30  1  0  0  0  0
 32 29  1  0  0  0  0
 33 42  2  0  0  0  0
 33 34  1  0  0  0  0
 34 36  2  0  0  0  0
 35 34  1  0  0  0  0
 36 38  1  0  0  0  0
 36 37  1  0  0  0  0
 38 39  1  0  0  0  0
 40 41  1  0  0  0  0
 40 38  2  0  0  0  0
 42 40  1  0  0  0  0
 43 42  1  0  0  0  0
 44 45  1  0  0  0  0
 44  2  1  0  0  0  0
 45 46  1  0  0  0  0
 47 48  1  0  0  0  0
 47 45  2  0  0  0  0
 49 47  1  0  0  0  0
 50 49  1  0  0  0  0
 51 49  2  0  0  0  0
 51 53  1  0  0  0  0
 52 51  1  0  0  0  0
 53 44  2  0  0  0  0
 54 53  1  0  0  0  0
 55  3  1  6  0  0  0
 55 56  1  0  0  0  0
 55 62  1  0  0  0  0
 56 70  1  0  0  0  0
 56 57  1  0  0  0  0
 58 56  1  0  0  0  0
 59 75  1  0  0  0  0
 59 55  1  0  0  0  0
 60 59  1  0  0  0  0
 61 59  1  0  0  0  0
 62 65  1  0  0  0  0
 62 64  1  0  0  0  0
 63 62  1  0  0  0  0
 65 67  1  0  0  0  0
 65 66  1  1  0  0  0
 67 69  1  0  0  0  0
 67 68  1  0  0  0  0
 70 71  1  1  0  0  0
 70 67  1  0  0  0  0
 72 73  1  0  0  0  0
 72 70  1  0  0  0  0
 74 72  1  0  0  0  0
 75 76  1  6  0  0  0
 75 72  1  0  0  0  0
 75 77  1  0  0  0  0
 77 79  1  0  0  0  0
 77 65  1  0  0  0  0
 78 77  1  0  0  0  0
M  END
