1,2
q = 0.0, confidence = 0.98

 81 84  0  0  0  0  0  0  0  0999 V2000
    1.6940    0.0659    0.5123 P   0  0  0  0  0  0  0  0  0  0  0  0
   -1.6940    0.0657    0.5124 P   0  0  0  0  0  0  0  0  0  0  0  0
   -0.0001   -0.3779    2.7108 N   0  0  0  0  0  0  0  0  0  0  0  0
   -0.0003   -0.6775    4.1377 C   0  0  0  0  0  0  0  0  0  0  0  0
    0.8947   -1.2794    4.3938 H   0  0  0  0  0  0  0  0  0  0  0  0
   -0.8957   -1.2787    4.3937 H   0  0  0  0  0  0  0  0  0  0  0  0
    0.0000    0.2378    4.7854 H   0  0  0  0  0  0  0  0  0  0  0  0
   -1.2077    0.3217    2.2984 C   0  0  0  0  0  0  0  0  0  0  0  0
   -1.1377    1.4266    2.4819 H   0  0  0  0  0  0  0  0  0  0  0  0
   -2.0602   -0.0494    2.9016 H   0  0  0  0  0  0  0  0  0  0  0  0
    1.2080    0.3209    2.2987 C   0  0  0  0  0  0  0  0  0  0  0  0
    2.0604   -0.0515    2.9014 H   0  0  0  0  0  0  0  0  0  0  0  0
    1.1391    1.4257    2.4831 H   0  0  0  0  0  0  0  0  0  0  0  0
   -2.7371   -1.4828    0.6213 C   0  0  0  0  0  0  0  0  0  0  0  0
   -3.3234   -1.3568    1.5624 H   0  0  0  0  0  0  0  0  0  0  0  0
   -1.8186   -2.7091    0.7769 C   0  0  0  0  0  0  0  0  0  0  0  0
   -1.1740   -2.7653   -0.1274 H   0  0  0  0  0  0  0  0  0  0  0  0
   -1.1320   -2.5667    1.6360 H   0  0  0  0  0  0  0  0  0  0  0  0
   -2.6239   -4.0057    0.9232 C   0  0  0  0  0  0  0  0  0  0  0  0
   -1.9306   -4.8702    0.9935 H   0  0  0  0  0  0  0  0  0  0  0  0
   -3.1917   -3.9814    1.8815 H   0  0  0  0  0  0  0  0  0  0  0  0
   -3.6037   -4.1889   -0.2413 C   0  0  0  0  0  0  0  0  0  0  0  0
   -4.2018   -5.1144   -0.1062 H   0  0  0  0  0  0  0  0  0  0  0  0
   -3.0273   -4.3191   -1.1841 H   0  0  0  0  0  0  0  0  0  0  0  0
   -4.5229   -2.9696   -0.3816 C   0  0  0  0  0  0  0  0  0  0  0  0
   -5.1724   -2.8969    0.5210 H   0  0  0  0  0  0  0  0  0  0  0  0
   -5.2059   -3.0945   -1.2475 H   0  0  0  0  0  0  0  0  0  0  0  0
   -3.7230   -1.6690   -0.5437 C   0  0  0  0  0  0  0  0  0  0  0  0
   -3.1555   -1.6741   -1.4979 H   0  0  0  0  0  0  0  0  0  0  0  0
   -4.4163   -0.8051   -0.6086 H   0  0  0  0  0  0  0  0  0  0  0  0
   -2.8593    1.4773    0.1916 C   0  0  0  0  0  0  0  0  0  0  0  0
   -3.2680    1.2083   -0.8082 H   0  0  0  0  0  0  0  0  0  0  0  0
   -4.0081    1.6111    1.2058 C   0  0  0  0  0  0  0  0  0  0  0  0
   -4.5743    0.6601    1.2897 H   0  0  0  0  0  0  0  0  0  0  0  0
   -3.5962    1.8280    2.2171 H   0  0  0  0  0  0  0  0  0  0  0  0
   -4.9544    2.7529    0.8023 C   0  0  0  0  0  0  0  0  0  0  0  0
   -5.4474    2.4867   -0.1591 H   0  0  0  0  0  0  0  0  0  0  0  0
   -5.7652    2.8560    1.5539 H   0  0  0  0  0  0  0  0  0  0  0  0
   -4.1996    4.0775    0.6341 C   0  0  0  0  0  0  0  0  0  0  0  0
   -4.8966    4.8804    0.3150 H   0  0  0  0  0  0  0  0  0  0  0  0
   -3.7923    4.3921    1.6221 H   0  0  0  0  0  0  0  0  0  0  0  0
   -3.0456    3.9379   -0.3668 C   0  0  0  0  0  0  0  0  0  0  0  0
   -2.4836    4.8914   -0.4508 H   0  0  0  0  0  0  0  0  0  0  0  0
   -3.4573    3.7266   -1.3784 H   0  0  0  0  0  0  0  0  0  0  0  0
   -2.0907    2.8008    0.0187 C   0  0  0  0  0  0  0  0  0  0  0  0
   -1.3067    2.6672   -0.7544 H   0  0  0  0  0  0  0  0  0  0  0  0
   -1.5664    3.0635    0.9662 H   0  0  0  0  0  0  0  0  0  0  0  0
    2.8588    1.4780    0.1918 C   0  0  0  0  0  0  0  0  0  0  0  0
    3.2671    1.2096   -0.8083 H   0  0  0  0  0  0  0  0  0  0  0  0
    4.0080    1.6116    1.2056 C   0  0  0  0  0  0  0  0  0  0  0  0
    4.5746    0.6607    1.2886 H   0  0  0  0  0  0  0  0  0  0  0  0
    3.5965    1.8277    2.2172 H   0  0  0  0  0  0  0  0  0  0  0  0
    4.9538    2.7539    0.8024 C   0  0  0  0  0  0  0  0  0  0  0  0
    5.7648    2.8569    1.5537 H   0  0  0  0  0  0  0  0  0  0  0  0
    5.4465    2.4885   -0.1593 H   0  0  0  0  0  0  0  0  0  0  0  0
    4.1985    4.0783    0.6352 C   0  0  0  0  0  0  0  0  0  0  0  0
    4.8951    4.8817    0.3163 H   0  0  0  0  0  0  0  0  0  0  0  0
    3.7915    4.3922    1.6236 H   0  0  0  0  0  0  0  0  0  0  0  0
    3.0442    3.9390   -0.3653 C   0  0  0  0  0  0  0  0  0  0  0  0
    3.4555    3.7284   -1.3772 H   0  0  0  0  0  0  0  0  0  0  0  0
    2.4818    4.8924   -0.4486 H   0  0  0  0  0  0  0  0  0  0  0  0
    2.0898    2.8014    0.0199 C   0  0  0  0  0  0  0  0  0  0  0  0
    1.5658    3.0634    0.9678 H   0  0  0  0  0  0  0  0  0  0  0  0
    1.3055    2.6680   -0.7529 H   0  0  0  0  0  0  0  0  0  0  0  0
    2.7377   -1.4822    0.6207 C   0  0  0  0  0  0  0  0  0  0  0  0
    3.3244   -1.3559    1.5615 H   0  0  0  0  0  0  0  0  0  0  0  0
    3.7232   -1.6681   -0.5448 C   0  0  0  0  0  0  0  0  0  0  0  0
    4.4160   -0.8040   -0.6102 H   0  0  0  0  0  0  0  0  0  0  0  0
    3.1553   -1.6737   -1.4987 H   0  0  0  0  0  0  0  0  0  0  0  0
    4.5236   -2.9684   -0.3827 C   0  0  0  0  0  0  0  0  0  0  0  0
    5.2064   -3.0932   -1.2489 H   0  0  0  0  0  0  0  0  0  0  0  0
    5.1735   -2.8953    0.5196 H   0  0  0  0  0  0  0  0  0  0  0  0
    3.6051   -4.1880   -0.2420 C   0  0  0  0  0  0  0  0  0  0  0  0
    4.2036   -5.1133   -0.1069 H   0  0  0  0  0  0  0  0  0  0  0  0
    3.0283   -4.3186   -1.1845 H   0  0  0  0  0  0  0  0  0  0  0  0
    2.6257   -4.0051    0.9230 C   0  0  0  0  0  0  0  0  0  0  0  0
    1.9327   -4.8699    0.9937 H   0  0  0  0  0  0  0  0  0  0  0  0
    3.1938   -3.9804    1.8810 H   0  0  0  0  0  0  0  0  0  0  0  0
    1.8198   -2.7088    0.7768 C   0  0  0  0  0  0  0  0  0  0  0  0
    1.1747   -2.7654   -0.1272 H   0  0  0  0  0  0  0  0  0  0  0  0
    1.1335   -2.5667    1.6363 H   0  0  0  0  0  0  0  0  0  0  0  0
  1 65  1  0  0  0  0
  1 11  1  0  0  0  0
  2 14  1  0  0  0  0
  2  8  1  0  0  0  0
  3  4  1  0  0  0  0
  4  6  1  0  0  0  0
  4  5  1  0  0  0  0
  4  7  1  0  0  0  0
  8  9  1  0  0  0  0
  8  3  1  0  0  0  0
  8 10  1  0  0  0  0
 11 13  1  0  0  0  0
 11  3  1  0  0  0  0
 11 12  1  0  0  0  0
 14 16  1  0  0  0  0
 14 15  1  0  0  0  0
 16 19  1  0  0  0  0
 16 18  1  0  0  0  0
 17 16  1  0  0  0  0
 19 20  1  0  0  0  0
 19 21  1  0  0  0  0
 22 23  1  0  0  0  0
 22 19  1  0  0  0  0
 24 22  1  0  0  0  0
 25 22  1  0  0  0  0
 25 26  1  0  0  0  0
 27 25  1  0  0  0  0
 28 25  1  0  0  0  0
 28 14  1  0  0  0  0
 29 28  1  0  0  0  0
 30 28  1  0  0  0  0
 31  2  1  0  0  0  0
 31 33  1  0  0  0  0
 32 31  1  0  0  0  0
 33 34  1  0  0  0  0
 33 35  1  0  0  0  0
 36 33  1  0  0  0  0
 36 38  1  0  0  0  0
 37 36  1  0  0  0  0
 39 36  1  0  0  0  0
 39 41  1  0  0  0  0
 40 39  1  0  0  0  0
 42 45  1  0  0  0  0
 42 39  1  0  0  0  0
 43 42  1  0  0  0  0
 44 42  1  0  0  0  0
 45 31  1  0  0  0  0
 45 47  1  0  0  0  0
 46 45  1  0  0  0  0
 48  1  1  0  0  0  0
 48 50  1  0  0  0  0
 49 48  1  0  0  0  0
 50 51  1  0  0  0  0
 50 52  1  0  0  0  0
 53 50  1  0  0  0  0
 53 54  1  0  0  0  0
 55 53  1  0  0  0  0
 56 53  1  0  0  0  0
 56 58  1  0  0  0  0
 57 56  1  0  0  0  0
 59 62  1  0  0  0  0
 59 56  1  0  0  0  0
 60 59  1  0  0  0  0
 61 59  1  0  0  0  0
 62 48  1  0  0  0  0
 62 63  1  0  0  0  0
 64 62  1  0  0  0  0
 65 79  1  0  0  0  0
 65 66  1  0  0  0  0
 67 70  1  0  0  0  0
 67 65  1  0  0  0  0
 68 67  1  0  0  0  0
 69 67  1  0  0  0  0
 70 73  1  0  0  0  0
 70 72  1  0  0  0  0
 71 70  1  0  0  0  0
 73 74  1  0  0  0  0
 73 76  1  0  0  0  0
 75 73  1  0  0  0  0
 76 77  1  0  0  0  0
 76 78  1  0  0  0  0
 79 76  1  0  0  0  0
 79 81  1  0  0  0  0
 80 79  1  0  0  0  0
M  END
