1,18
q = 0.0, confidence = 0.998

 58 60  0  0  0  0  0  0  0  0999 V2000
   -1.7576   -0.0458    0.4106 P   0  0  1  0  0  0  0  0  0  0  0  0
   -3.1910   -0.8764    1.1737 C   0  0  0  0  0  0  0  0  0  0  0  0
   -4.3084   -0.5383    0.4593 C   0  0  0  0  0  0  0  0  0  0  0  0
   -4.0583    0.3250   -0.7327 C   0  0  0  0  0  0  0  0  0  0  0  0
   -2.7504    0.6843   -0.9314 C   0  0  0  0  0  0  0  0  0  0  0  0
   -3.0293   -1.8023    2.3323 C   0  0  0  0  0  0  0  0  0  0  0  0
   -5.6953   -1.0302    0.7554 C   0  0  0  0  0  0  0  0  0  0  0  0
   -5.1923    0.6826   -1.6486 C   0  0  0  0  0  0  0  0  0  0  0  0
   -2.1162    1.4044   -2.0773 C   0  0  0  0  0  0  0  0  0  0  0  0
   -1.5082    1.3769    1.6165 C   0  0  0  0  0  0  0  0  0  0  0  0
   -0.7094    2.5270    1.0682 C   0  0  0  0  0  0  0  0  0  0  0  0
   -1.3921    3.6364    0.5265 C   0  0  0  0  0  0  0  0  0  0  0  0
   -0.7017    4.7284   -0.0143 C   0  0  0  0  0  0  0  0  0  0  0  0
    0.7018    4.7284   -0.0143 C   0  0  0  0  0  0  0  0  0  0  0  0
    1.3922    3.6364    0.5266 C   0  0  0  0  0  0  0  0  0  0  0  0
    0.7095    2.5270    1.0682 C   0  0  0  0  0  0  0  0  0  0  0  0
    1.5082    1.3769    1.6166 C   0  0  0  0  0  0  0  0  0  0  0  0
    1.7576   -0.0459    0.4107 P   0  0  1  0  0  0  0  0  0  0  0  0
    2.7503    0.6843   -0.9313 C   0  0  0  0  0  0  0  0  0  0  0  0
    4.0582    0.3251   -0.7328 C   0  0  0  0  0  0  0  0  0  0  0  0
    4.3084   -0.5383    0.4592 C   0  0  0  0  0  0  0  0  0  0  0  0
    3.1911   -0.8764    1.1737 C   0  0  0  0  0  0  0  0  0  0  0  0
    2.1160    1.4044   -2.0772 C   0  0  0  0  0  0  0  0  0  0  0  0
    5.1922    0.6827   -1.6487 C   0  0  0  0  0  0  0  0  0  0  0  0
    5.6953   -1.0302    0.7552 C   0  0  0  0  0  0  0  0  0  0  0  0
    3.0294   -1.8023    2.3322 C   0  0  0  0  0  0  0  0  0  0  0  0
   -4.0002   -2.0986    2.7743 H   0  0  0  0  0  0  0  0  0  0  0  0
   -2.4069   -1.3593    3.1394 H   0  0  0  0  0  0  0  0  0  0  0  0
   -2.5072   -2.7218    1.9886 H   0  0  0  0  0  0  0  0  0  0  0  0
   -6.4170   -0.1917    0.8462 H   0  0  0  0  0  0  0  0  0  0  0  0
   -5.7364   -1.6189    1.6902 H   0  0  0  0  0  0  0  0  0  0  0  0
   -6.0655   -1.6803   -0.0659 H   0  0  0  0  0  0  0  0  0  0  0  0
   -5.6324   -0.2301   -2.1038 H   0  0  0  0  0  0  0  0  0  0  0  0
   -4.8707    1.3468   -2.4716 H   0  0  0  0  0  0  0  0  0  0  0  0
   -6.0140    1.1890   -1.1001 H   0  0  0  0  0  0  0  0  0  0  0  0
   -2.8672    1.8633   -2.7493 H   0  0  0  0  0  0  0  0  0  0  0  0
   -1.5072    0.6939   -2.6780 H   0  0  0  0  0  0  0  0  0  0  0  0
   -1.4274    2.2036   -1.7340 H   0  0  0  0  0  0  0  0  0  0  0  0
   -2.5306    1.7031    1.8909 H   0  0  0  0  0  0  0  0  0  0  0  0
   -1.0417    0.9323    2.5201 H   0  0  0  0  0  0  0  0  0  0  0  0
   -2.4935    3.6286    0.5278 H   0  0  0  0  0  0  0  0  0  0  0  0
   -1.2594    5.5804   -0.4310 H   0  0  0  0  0  0  0  0  0  0  0  0
    1.2595    5.5804   -0.4310 H   0  0  0  0  0  0  0  0  0  0  0  0
    2.4935    3.6286    0.5279 H   0  0  0  0  0  0  0  0  0  0  0  0
    1.0417    0.9323    2.5202 H   0  0  0  0  0  0  0  0  0  0  0  0
    2.5306    1.7030    1.8910 H   0  0  0  0  0  0  0  0  0  0  0  0
    1.5079    0.6937   -2.6785 H   0  0  0  0  0  0  0  0  0  0  0  0
    2.8670    1.8643   -2.7486 H   0  0  0  0  0  0  0  0  0  0  0  0
    1.4263    2.2029   -1.7339 H   0  0  0  0  0  0  0  0  0  0  0  0
    4.8705    1.3471   -2.4716 H   0  0  0  0  0  0  0  0  0  0  0  0
    5.6318   -0.2300   -2.1043 H   0  0  0  0  0  0  0  0  0  0  0  0
    6.0141    1.1887   -1.1004 H   0  0  0  0  0  0  0  0  0  0  0  0
    6.0652   -1.6807   -0.0660 H   0  0  0  0  0  0  0  0  0  0  0  0
    5.7365   -1.6186    1.6902 H   0  0  0  0  0  0  0  0  0  0  0  0
    6.4171   -0.1918    0.8455 H   0  0  0  0  0  0  0  0  0  0  0  0
    4.0004   -2.0985    2.7743 H   0  0  0  0  0  0  0  0  0  0  0  0
    2.5075   -2.7219    1.9885 H   0  0  0  0  0  0  0  0  0  0  0  0
    2.4070   -1.3594    3.1394 H   0  0  0  0  0  0  0  0  0  0  0  0
  1  2  1  0  0  0  0
  1 10  1  1  0  0  0
  2  6  1  0  0  0  0
  3  7  1  0  0  0  0
  3  2  2  0  0  0  0
  4  3  1  0  0  0  0
  5  4  2  0  0  0  0
  5  1  1  0  0  0  0
  6 27  1  0  0  0  0
  6 28  1  0  0  0  0
  7 30  1  0  0  0  0
  7 31  1  0  0  0  0
  8 35  1  0  0  0  0
  8  4  1  0  0  0  0
  9 38  1  0  0  0  0
  9  5  1  0  0  0  0
 10 39  1  0  0  0  0
 10 40  1  0  0  0  0
 11 16  1  0  0  0  0
 11 10  1  0  0  0  0
 12 41  1  0  0  0  0
 12 11  2  0  0  0  0
 13 14  2  0  0  0  0
 13 12  1  0  0  0  0
 14 15  1  0  0  0  0
 15 44  1  0  0  0  0
 15 16  2  0  0  0  0
 16 17  1  0  0  0  0
 17 46  1  0  0  0  0
 17 45  1  0  0  0  0
 18 22  1  0  0  0  0
 18 17  1  1  0  0  0
 19 20  2  0  0  0  0
 19 18  1  0  0  0  0
 20 21  1  0  0  0  0
 21 25  1  0  0  0  0
 21 22  2  0  0  0  0
 22 26  1  0  0  0  0
 23 49  1  0  0  0  0
 23 19  1  0  0  0  0
 24 52  1  0  0  0  0
 24 20  1  0  0  0  0
 25 55  1  0  0  0  0
 25 54  1  0  0  0  0
 26 56  1  0  0  0  0
 26 58  1  0  0  0  0
 29  6  1  0  0  0  0
 32  7  1  0  0  0  0
 33  8  1  0  0  0  0
 34  8  1  0  0  0  0
 36  9  1  0  0  0  0
 37  9  1  0  0  0  0
 42 13  1  0  0  0  0
 43 14  1  0  0  0  0
 47 23  1  0  0  0  0
 48 23  1  0  0  0  0
 50 24  1  0  0  0  0
 51 24  1  0  0  0  0
 53 25  1  0  0  0  0
 57 26  1  0  0  0  0
M  END
