2,3
q = 0.0, confidence = 0.998

 53 52  0  0  0  0  0  0  0  0999 V2000
   -0.2083   -2.2172   -0.3009 Se  0  0  0  0  0  0  0  0  0  0  0  0
    0.8719   -0.2130    0.0695 P   0  0  0  0  0  2  0  0  0  0  0  0
   -2.0779   -0.8937    0.0280 P   0  0  2  0  0  0  0  0  0  0  0  0
    3.3582    1.4017    0.4490 Si  0  0  0  0  0  0  0  0  0  0  0  0
    3.6672   -1.7940   -0.2112 Si  0  0  0  0  0  0  0  0  0  0  0  0
    2.5413   -0.3122    0.1435 C   0  0  0  0  0  3  0  0  0  0  0  0
    2.4942    2.3122    1.8622 C   0  0  0  0  0  0  0  0  0  0  0  0
    2.6564    1.7634    2.8126 H   0  0  0  0  0  0  0  0  0  0  0  0
    1.4047    2.4134    1.7107 H   0  0  0  0  0  0  0  0  0  0  0  0
    2.9219    3.3299    1.9730 H   0  0  0  0  0  0  0  0  0  0  0  0
    3.3142    2.3547   -1.1835 C   0  0  0  0  0  0  0  0  0  0  0  0
    2.2866    2.4005   -1.5929 H   0  0  0  0  0  0  0  0  0  0  0  0
    3.9570    1.8531   -1.9354 H   0  0  0  0  0  0  0  0  0  0  0  0
    3.6787    3.3939   -1.0500 H   0  0  0  0  0  0  0  0  0  0  0  0
    5.1653    1.2391    1.0044 C   0  0  0  0  0  0  0  0  0  0  0  0
    5.2427    0.7667    2.0038 H   0  0  0  0  0  0  0  0  0  0  0  0
    5.5731    2.2682    1.0920 H   0  0  0  0  0  0  0  0  0  0  0  0
    5.8143    0.6829    0.3015 H   0  0  0  0  0  0  0  0  0  0  0  0
    4.7941   -1.3171   -1.6608 C   0  0  0  0  0  0  0  0  0  0  0  0
    5.4768   -2.1585   -1.9013 H   0  0  0  0  0  0  0  0  0  0  0  0
    5.4148   -0.4236   -1.4562 H   0  0  0  0  0  0  0  0  0  0  0  0
    4.1818   -1.1054   -2.5612 H   0  0  0  0  0  0  0  0  0  0  0  0
    4.6728   -2.2403    1.3299 C   0  0  0  0  0  0  0  0  0  0  0  0
    5.2872   -3.1418    1.1250 H   0  0  0  0  0  0  0  0  0  0  0  0
    3.9949   -2.4758    2.1757 H   0  0  0  0  0  0  0  0  0  0  0  0
    5.3524   -1.4288    1.6503 H   0  0  0  0  0  0  0  0  0  0  0  0
    2.7617   -3.3699   -0.7442 C   0  0  0  0  0  0  0  0  0  0  0  0
    3.5386   -4.1248   -0.9914 H   0  0  0  0  0  0  0  0  0  0  0  0
    2.1404   -3.2261   -1.6506 H   0  0  0  0  0  0  0  0  0  0  0  0
    2.1288   -3.7999    0.0576 H   0  0  0  0  0  0  0  0  0  0  0  0
   -2.7588   -1.5086    1.7096 C   0  0  0  0  0  0  0  0  0  0  0  0
   -3.3115   -2.9360    1.5931 C   0  0  0  0  0  0  0  0  0  0  0  0
   -2.5429   -3.6381    1.2078 H   0  0  0  0  0  0  0  0  0  0  0  0
   -4.2039   -2.9976    0.9401 H   0  0  0  0  0  0  0  0  0  0  0  0
   -3.6136   -3.2971    2.5988 H   0  0  0  0  0  0  0  0  0  0  0  0
   -1.6090   -1.4864    2.7313 C   0  0  0  0  0  0  0  0  0  0  0  0
   -0.8384   -2.2454    2.4971 H   0  0  0  0  0  0  0  0  0  0  0  0
   -2.0208   -1.7070    3.7383 H   0  0  0  0  0  0  0  0  0  0  0  0
   -1.1143   -0.4975    2.7811 H   0  0  0  0  0  0  0  0  0  0  0  0
   -3.8501   -0.5183    2.1618 C   0  0  0  0  0  0  0  0  0  0  0  0
   -4.7221   -0.4956    1.4829 H   0  0  0  0  0  0  0  0  0  0  0  0
   -3.4553    0.5123    2.2423 H   0  0  0  0  0  0  0  0  0  0  0  0
   -4.2152   -0.8190    3.1664 H   0  0  0  0  0  0  0  0  0  0  0  0
   -3.2366   -1.5695   -1.3030 C   0  0  0  0  0  0  0  0  0  0  0  0
   -3.2703   -2.6670   -1.1310 H   0  0  0  0  0  0  0  0  0  0  0  0
   -4.6523   -0.9892   -1.1802 C   0  0  0  0  0  0  0  0  0  0  0  0
   -5.1839   -1.3353   -0.2743 H   0  0  0  0  0  0  0  0  0  0  0  0
   -5.2543   -1.3076   -2.0563 H   0  0  0  0  0  0  0  0  0  0  0  0
   -4.6385    0.1196   -1.1735 H   0  0  0  0  0  0  0  0  0  0  0  0
   -2.6656   -1.3033   -2.6987 C   0  0  0  0  0  0  0  0  0  0  0  0
   -1.6078   -1.6182   -2.7902 H   0  0  0  0  0  0  0  0  0  0  0  0
   -2.7300   -0.2281   -2.9535 H   0  0  0  0  0  0  0  0  0  0  0  0
   -3.2582   -1.8629   -3.4514 H   0  0  0  0  0  0  0  0  0  0  0  0
  1  2  1  0  0  0  0
  2  6  1  0  0  0  0
  3  1  1  6  0  0  0
  3 31  1  0  0  0  0
  4 15  1  0  0  0  0
  4  7  1  0  0  0  0
  5  6  1  0  0  0  0
  5 23  1  0  0  0  0
  6  4  1  0  0  0  0
  7 10  1  0  0  0  0
  7  8  1  0  0  0  0
  9  7  1  0  0  0  0
 11 14  1  0  0  0  0
 11  4  1  0  0  0  0
 12 11  1  0  0  0  0
 13 11  1  0  0  0  0
 15 17  1  0  0  0  0
 15 16  1  0  0  0  0
 18 15  1  0  0  0  0
 19 21  1  0  0  0  0
 19  5  1  0  0  0  0
 20 19  1  0  0  0  0
 22 19  1  0  0  0  0
 23 26  1  0  0  0  0
 23 25  1  0  0  0  0
 24 23  1  0  0  0  0
 27  5  1  0  0  0  0
 27 30  1  0  0  0  0
 28 27  1  0  0  0  0
 29 27  1  0  0  0  0
 31 40  1  0  0  0  0
 31 36  1  0  0  0  0
 32 31  1  0  0  0  0
 32 35  1  0  0  0  0
 33 32  1  0  0  0  0
 34 32  1  0  0  0  0
 36 39  1  0  0  0  0
 36 38  1  0  0  0  0
 37 36  1  0  0  0  0
 40 42  1  0  0  0  0
 40 43  1  0  0  0  0
 41 40  1  0  0  0  0
 44 46  1  0  0  0  0
 44 45  1  0  0  0  0
 44  3  1  0  0  0  0
 46 49  1  0  0  0  0
 46 47  1  0  0  0  0
 48 46  1  0  0  0  0
 50 44  1  0  0  0  0
 51 50  1  0  0  0  0
 52 50  1  0  0  0  0
 53 50  1  0  0  0  0
M  END
