1,2
q = 0.0, confidence = 0.996

 34 35  0  0  0  0  0  0  0  0999 V2000
    2.7697   -0.6542   -1.2688 P   0  0  2  0  0  0  0  0  0  0  0  0
    0.6948    1.7117   -1.1350 P   0  0  1  0  0  0  0  0  0  0  0  0
    3.2260   -1.9381   -2.2105 O   0  0  0  0  0  0  0  0  0  0  0  0
    0.0057    2.0728   -2.6015 O   0  0  0  0  0  0  0  0  0  0  0  0
    3.0849    0.8672   -2.2763 C   0  0  0  0  0  0  0  0  0  0  0  0
    2.4597    2.0732   -1.5698 C   0  0  0  0  0  0  0  0  0  0  0  0
    3.9229   -0.5844    0.1411 C   0  0  0  0  0  0  0  0  0  0  0  0
    5.1442    0.1233    0.0788 C   0  0  0  0  0  0  0  0  0  0  0  0
    6.0037    0.1361    1.1864 C   0  0  0  0  0  0  0  0  0  0  0  0
    5.6528   -0.5554    2.3574 C   0  0  0  0  0  0  0  0  0  0  0  0
    4.4414   -1.2628    2.4221 C   0  0  0  0  0  0  0  0  0  0  0  0
    3.5716   -1.2793    1.3225 C   0  0  0  0  0  0  0  0  0  0  0  0
    0.1940    3.0669   -0.0255 C   0  0  0  0  0  0  0  0  0  0  0  0
    0.4103    2.9314    1.3607 C   0  0  0  0  0  0  0  0  0  0  0  0
   -0.0170    3.9396    2.2359 C   0  0  0  0  0  0  0  0  0  0  0  0
   -0.6611    5.0814    1.7301 C   0  0  0  0  0  0  0  0  0  0  0  0
   -0.8712    5.2186    0.3476 C   0  0  0  0  0  0  0  0  0  0  0  0
   -0.4476    4.2135   -0.5340 C   0  0  0  0  0  0  0  0  0  0  0  0
    4.1925   -2.0943   -2.1805 H   0  0  0  0  0  0  0  0  0  0  0  0
   -0.9102    1.7067   -2.6405 H   0  0  0  0  0  0  0  0  0  0  0  0
    2.5962    0.6817   -3.2552 H   0  0  0  0  0  0  0  0  0  0  0  0
    4.1682    1.0059   -2.4691 H   0  0  0  0  0  0  0  0  0  0  0  0
    2.9847    2.3108   -0.6206 H   0  0  0  0  0  0  0  0  0  0  0  0
    2.4753    2.9841   -2.2028 H   0  0  0  0  0  0  0  0  0  0  0  0
    5.4350    0.6727   -0.8294 H   0  0  0  0  0  0  0  0  0  0  0  0
    6.9526    0.6904    1.1346 H   0  0  0  0  0  0  0  0  0  0  0  0
    6.3303   -0.5426    3.2244 H   0  0  0  0  0  0  0  0  0  0  0  0
    4.1694   -1.8102    3.3369 H   0  0  0  0  0  0  0  0  0  0  0  0
    2.6275   -1.8469    1.3720 H   0  0  0  0  0  0  0  0  0  0  0  0
    0.9026    2.0309    1.7573 H   0  0  0  0  0  0  0  0  0  0  0  0
    0.1459    3.8286    3.3184 H   0  0  0  0  0  0  0  0  0  0  0  0
   -1.0012    5.8699    2.4181 H   0  0  0  0  0  0  0  0  0  0  0  0
   -1.3710    6.1161   -0.0473 H   0  0  0  0  0  0  0  0  0  0  0  0
   -0.6225    4.3030   -1.6165 H   0  0  0  0  0  0  0  0  0  0  0  0
  1  3  1  6  0  0  0
  1  7  1  0  0  0  0
  2  4  1  6  0  0  0
  2 13  1  0  0  0  0
  3 19  1  0  0  0  0
  5  6  1  0  0  0  0
  5  1  1  0  0  0  0
  6  2  1  0  0  0  0
  6 23  1  0  0  0  0
  7 12  1  0  0  0  0
  8  7  2  0  0  0  0
  8  9  1  0  0  0  0
  9 10  2  0  0  0  0
 10 11  1  0  0  0  0
 10 27  1  0  0  0  0
 11 28  1  0  0  0  0
 12 29  1  0  0  0  0
 12 11  2  0  0  0  0
 13 14  1  0  0  0  0
 14 30  1  0  0  0  0
 14 15  2  0  0  0  0
 15 31  1  0  0  0  0
 16 15  1  0  0  0  0
 16 32  1  0  0  0  0
 17 16  2  0  0  0  0
 18 13  2  0  0  0  0
 18 17  1  0  0  0  0
 20  4  1  0  0  0  0
 21  5  1  0  0  0  0
 22  5  1  0  0  0  0
 24  6  1  0  0  0  0
 25  8  1  0  0  0  0
 26  9  1  0  0  0  0
 33 17  1  0  0  0  0
 34 18  1  0  0  0  0
M  END
