1,2
q = 0.0, confidence = 0.996

 80 87  0  0  0  0  0  0  0  0999 V2000
    1.3943    0.8717   -0.5908 P   0  0  0  0  0  0  0  0  0  0  0  0
   -1.2937   -0.9080   -0.4161 P   0  0  0  0  0  0  0  0  0  0  0  0
    1.5541   -0.0145    0.9212 N   0  0  0  0  0  0  0  0  0  0  0  0
    2.5509   -0.9675    1.1713 C   0  0  0  0  0  0  0  0  0  0  0  0
    3.5841   -1.4399    0.3425 C   0  0  0  0  0  0  0  0  0  0  0  0
    3.7082   -1.0807   -0.6892 H   0  0  0  0  0  0  0  0  0  0  0  0
    4.4208   -2.4328    0.8674 C   0  0  0  0  0  0  0  0  0  0  0  0
    5.2287   -2.8344    0.2379 H   0  0  0  0  0  0  0  0  0  0  0  0
    4.2372   -2.9417    2.1760 C   0  0  0  0  0  0  0  0  0  0  0  0
    4.9177   -3.7210    2.5511 H   0  0  0  0  0  0  0  0  0  0  0  0
    3.1927   -2.4856    2.9854 C   0  0  0  0  0  0  0  0  0  0  0  0
    3.0342   -2.9038    3.9911 H   0  0  0  0  0  0  0  0  0  0  0  0
    2.3215   -1.4961    2.4799 C   0  0  0  0  0  0  0  0  0  0  0  0
    1.1031   -0.9103    2.9837 C   0  0  0  0  0  0  0  0  0  0  0  0
    0.6228   -0.0619    1.9880 C   0  0  0  0  0  0  0  0  0  0  0  0
   -0.6705    0.6010    1.8936 C   0  0  0  0  0  0  0  0  0  0  0  0
   -1.5730    0.3646    0.8133 N   0  0  0  0  0  0  0  0  0  0  0  0
   -2.6409    1.2735    0.9523 C   0  0  0  0  0  0  0  0  0  0  0  0
   -3.7429    1.5762    0.1285 C   0  0  0  0  0  0  0  0  0  0  0  0
   -3.9216    1.0633   -0.8201 H   0  0  0  0  0  0  0  0  0  0  0  0
   -4.6142    2.5961    0.5328 C   0  0  0  0  0  0  0  0  0  0  0  0
   -5.4718    2.8397   -0.1124 H   0  0  0  0  0  0  0  0  0  0  0  0
   -4.4173    3.3162    1.7322 C   0  0  0  0  0  0  0  0  0  0  0  0
   -5.1245    4.1105    2.0144 H   0  0  0  0  0  0  0  0  0  0  0  0
   -3.3247    3.0269    2.5522 C   0  0  0  0  0  0  0  0  0  0  0  0
   -3.1491    3.5890    3.4820 H   0  0  0  0  0  0  0  0  0  0  0  0
   -2.4273    2.0107    2.1637 C   0  0  0  0  0  0  0  0  0  0  0  0
   -1.1871    1.5694    2.7419 C   0  0  0  0  0  0  0  0  0  0  0  0
    0.4396   -1.2253    4.2845 C   0  0  0  0  0  0  0  0  0  0  0  0
    0.9455   -0.7196    5.1355 H   0  0  0  0  0  0  0  0  0  0  0  0
    0.4624   -2.3143    4.4899 H   0  0  0  0  0  0  0  0  0  0  0  0
   -0.6180   -0.8981    4.2827 H   0  0  0  0  0  0  0  0  0  0  0  0
   -0.5184    2.1498    3.9444 C   0  0  0  0  0  0  0  0  0  0  0  0
    0.5191    1.7771    4.0444 H   0  0  0  0  0  0  0  0  0  0  0  0
   -1.0594    1.9006    4.8821 H   0  0  0  0  0  0  0  0  0  0  0  0
   -0.4838    3.2581    3.8772 H   0  0  0  0  0  0  0  0  0  0  0  0
    3.0676    1.5813   -0.8185 C   0  0  0  0  0  0  0  0  0  0  0  0
    3.4226    2.0405   -2.1026 C   0  0  0  0  0  0  0  0  0  0  0  0
    2.7644    1.8325   -2.9579 H   0  0  0  0  0  0  0  0  0  0  0  0
    4.6382    2.7168   -2.2832 C   0  0  0  0  0  0  0  0  0  0  0  0
    4.9175    3.0670   -3.2882 H   0  0  0  0  0  0  0  0  0  0  0  0
    5.4980    2.9336   -1.1955 C   0  0  0  0  0  0  0  0  0  0  0  0
    6.4540    3.4583   -1.3446 H   0  0  0  0  0  0  0  0  0  0  0  0
    5.1418    2.4746    0.0829 C   0  0  0  0  0  0  0  0  0  0  0  0
    5.8153    2.6365    0.9379 H   0  0  0  0  0  0  0  0  0  0  0  0
    3.9280    1.8008    0.2773 C   0  0  0  0  0  0  0  0  0  0  0  0
    3.6589    1.4352    1.2786 H   0  0  0  0  0  0  0  0  0  0  0  0
    0.4310    2.3881   -0.2202 C   0  0  0  0  0  0  0  0  0  0  0  0
    0.8132    3.2823    0.8016 C   0  0  0  0  0  0  0  0  0  0  0  0
    1.6646    3.0434    1.4560 H   0  0  0  0  0  0  0  0  0  0  0  0
    0.1012    4.4734    0.9843 C   0  0  0  0  0  0  0  0  0  0  0  0
    0.3946    5.1649    1.7886 H   0  0  0  0  0  0  0  0  0  0  0  0
   -0.9831    4.7868    0.1449 C   0  0  0  0  0  0  0  0  0  0  0  0
   -1.5434    5.7214    0.2968 H   0  0  0  0  0  0  0  0  0  0  0  0
   -1.3526    3.9081   -0.8820 C   0  0  0  0  0  0  0  0  0  0  0  0
   -2.2042    4.1449   -1.5359 H   0  0  0  0  0  0  0  0  0  0  0  0
   -0.6481    2.7077   -1.0649 C   0  0  0  0  0  0  0  0  0  0  0  0
   -0.9368    2.0036   -1.8619 H   0  0  0  0  0  0  0  0  0  0  0  0
   -2.9450   -1.1016   -1.1789 C   0  0  0  0  0  0  0  0  0  0  0  0
   -4.0151   -1.7100   -0.4982 C   0  0  0  0  0  0  0  0  0  0  0  0
   -3.8663   -2.1455    0.4990 H   0  0  0  0  0  0  0  0  0  0  0  0
   -5.2822   -1.7639   -1.0978 C   0  0  0  0  0  0  0  0  0  0  0  0
   -6.1172   -2.2389   -0.5615 H   0  0  0  0  0  0  0  0  0  0  0  0
   -5.4826   -1.2176   -2.3748 C   0  0  0  0  0  0  0  0  0  0  0  0
   -6.4785   -1.2608   -2.8414 H   0  0  0  0  0  0  0  0  0  0  0  0
   -4.4082   -0.6303   -3.0644 C   0  0  0  0  0  0  0  0  0  0  0  0
   -4.5553   -0.2205   -4.0747 H   0  0  0  0  0  0  0  0  0  0  0  0
   -3.1393   -0.5781   -2.4740 C   0  0  0  0  0  0  0  0  0  0  0  0
   -2.2883   -0.1433   -3.0189 H   0  0  0  0  0  0  0  0  0  0  0  0
   -0.9986   -2.3415    0.6879 C   0  0  0  0  0  0  0  0  0  0  0  0
   -1.7380   -2.5010    1.8802 C   0  0  0  0  0  0  0  0  0  0  0  0
   -2.4741   -1.7409    2.1820 H   0  0  0  0  0  0  0  0  0  0  0  0
   -1.4995   -3.6075    2.7052 C   0  0  0  0  0  0  0  0  0  0  0  0
   -2.0804   -3.7313    3.6317 H   0  0  0  0  0  0  0  0  0  0  0  0
   -0.5049   -4.5398    2.3637 C   0  0  0  0  0  0  0  0  0  0  0  0
   -0.3090   -5.3999    3.0219 H   0  0  0  0  0  0  0  0  0  0  0  0
    0.2464   -4.3669    1.1920 C   0  0  0  0  0  0  0  0  0  0  0  0
    1.0389   -5.0829    0.9292 H   0  0  0  0  0  0  0  0  0  0  0  0
   -0.0017   -3.2757    0.3462 C   0  0  0  0  0  0  0  0  0  0  0  0
    0.5691   -3.1494   -0.5856 H   0  0  0  0  0  0  0  0  0  0  0  0
  1 48  1  0  0  0  0
  1  3  1  0  0  0  0
  2 70  1  0  0  0  0
  2 17  1  0  0  0  0
  3  4  1  0  0  0  0
  3 15  1  0  0  0  0
  4 13  1  0  0  0  0
  5  7  1  0  0  0  0
  5  4  2  0  0  0  0
  6  5  1  0  0  0  0
  7  9  2  0  0  0  0
  8  7  1  0  0  0  0
  9 10  1  0  0  0  0
  9 11  1  0  0  0  0
 11 12  1  0  0  0  0
 13 14  1  0  0  0  0
 13 11  2  0  0  0  0
 14 29  1  0  0  0  0
 15 14  2  0  0  0  0
 16 15  1  0  0  0  0
 16 28  2  0  0  0  0
 17 18  1  0  0  0  0
 17 16  1  0  0  0  0
 18 27  1  0  0  0  0
 19 21  1  0  0  0  0
 19 18  2  0  0  0  0
 20 19  1  0  0  0  0
 21 23  2  0  0  0  0
 22 21  1  0  0  0  0
 23 24  1  0  0  0  0
 23 25  1  0  0  0  0
 25 26  1  0  0  0  0
 27 25  2  0  0  0  0
 27 28  1  0  0  0  0
 28 33  1  0  0  0  0
 29 31  1  0  0  0  0
 29 30  1  0  0  0  0
 32 29  1  0  0  0  0
 33 34  1  0  0  0  0
 33 35  1  0  0  0  0
 36 33  1  0  0  0  0
 37  1  1  0  0  0  0
 37 46  1  0  0  0  0
 38 37  2  0  0  0  0
 39 38  1  0  0  0  0
 40 38  1  0  0  0  0
 40 42  2  0  0  0  0
 41 40  1  0  0  0  0
 42 44  1  0  0  0  0
 43 42  1  0  0  0  0
 44 46  2  0  0  0  0
 44 45  1  0  0  0  0
 46 47  1  0  0  0  0
 48 49  1  0  0  0  0
 49 51  2  0  0  0  0
 49 50  1  0  0  0  0
 51 52  1  0  0  0  0
 53 54  1  0  0  0  0
 53 51  1  0  0  0  0
 55 53  2  0  0  0  0
 56 55  1  0  0  0  0
 57 55  1  0  0  0  0
 57 48  2  0  0  0  0
 58 57  1  0  0  0  0
 59 60  1  0  0  0  0
 59  2  1  0  0  0  0
 60 61  1  0  0  0  0
 62 63  1  0  0  0  0
 62 60  2  0  0  0  0
 64 62  1  0  0  0  0
 65 64  1  0  0  0  0
 66 68  1  0  0  0  0
 66 64  2  0  0  0  0
 67 66  1  0  0  0  0
 68 59  2  0  0  0  0
 69 68  1  0  0  0  0
 70 71  1  0  0  0  0
 71 72  1  0  0  0  0
 71 73  2  0  0  0  0
 73 74  1  0  0  0  0
 75 73  1  0  0  0  0
 75 76  1  0  0  0  0
 77 75  2  0  0  0  0
 78 77  1  0  0  0  0
 79 70  2  0  0  0  0
 79 77  1  0  0  0  0
 80 79  1  0  0  0  0
M  END
