1,3
q = 0.0, confidence = 0.98

 71 76  0  0  0  0  0  0  0  0999 V2000
   -1.6329   -0.6239   -0.3371 P   0  0  0  0  0  0  0  0  0  0  0  0
   -0.2554    1.9520    0.3690 P   0  0  0  0  0  4  0  0  0  0  0  0
    1.6228   -0.2182    0.5586 P   0  0  0  0  0  0  0  0  0  0  0  0
   -1.5173    1.0782   -0.2585 O   0  0  0  0  0  0  0  0  0  0  0  0
    0.8161    1.1140    1.1921 N   0  0  0  0  0  2  0  0  0  0  0  0
   -2.6748   -0.6659   -1.8348 C   0  0  0  0  0  0  0  0  0  0  0  0
   -2.0761   -0.9259   -3.0836 C   0  0  0  0  0  0  0  0  0  0  0  0
   -2.8468   -0.8534   -4.2510 C   0  0  0  0  0  0  0  0  0  0  0  0
   -4.2129   -0.5331   -4.1761 C   0  0  0  0  0  0  0  0  0  0  0  0
   -4.8100   -0.2823   -2.9307 C   0  0  0  0  0  0  0  0  0  0  0  0
   -4.0432   -0.3452   -1.7575 C   0  0  0  0  0  0  0  0  0  0  0  0
   -2.7240   -0.9457    1.0962 C   0  0  0  0  0  0  0  0  0  0  0  0
   -2.9866   -2.2837    1.4610 C   0  0  0  0  0  0  0  0  0  0  0  0
   -3.8017   -2.5500    2.5697 C   0  0  0  0  0  0  0  0  0  0  0  0
   -4.3477   -1.4963    3.3215 C   0  0  0  0  0  0  0  0  0  0  0  0
   -4.0809   -0.1667    2.9602 C   0  0  0  0  0  0  0  0  0  0  0  0
   -3.2724    0.1137    1.8481 C   0  0  0  0  0  0  0  0  0  0  0  0
   -1.0514    3.1327    1.4765 C   0  0  0  0  0  0  0  0  0  0  0  0
   -2.1159    3.9288    1.0057 C   0  0  0  0  0  0  0  0  0  0  0  0
   -2.7668    4.8018    1.8882 C   0  0  0  0  0  0  0  0  0  0  0  0
   -2.3572    4.8790    3.2306 C   0  0  0  0  0  0  0  0  0  0  0  0
   -1.2962    4.0843    3.6951 C   0  0  0  0  0  0  0  0  0  0  0  0
   -0.6397    3.2063    2.8205 C   0  0  0  0  0  0  0  0  0  0  0  0
    0.3579    2.8192   -1.0998 C   0  0  0  0  0  0  0  0  0  0  0  0
    0.8076    4.1509   -1.0072 C   0  0  0  0  0  0  0  0  0  0  0  0
    1.4527    4.7445   -2.1020 C   0  0  0  0  0  0  0  0  0  0  0  0
    1.6613    4.0078   -3.2786 C   0  0  0  0  0  0  0  0  0  0  0  0
    1.2133    2.6794   -3.3699 C   0  0  0  0  0  0  0  0  0  0  0  0
    0.5556    2.0837   -2.2870 C   0  0  0  0  0  0  0  0  0  0  0  0
    2.5269   -0.8262    2.0267 C   0  0  0  0  0  0  0  0  0  0  0  0
    1.9277   -0.6964    3.2943 C   0  0  0  0  0  0  0  0  0  0  0  0
    2.5880   -1.1846    4.4310 C   0  0  0  0  0  0  0  0  0  0  0  0
    3.8433   -1.8015    4.3051 C   0  0  0  0  0  0  0  0  0  0  0  0
    4.4373   -1.9324    3.0394 C   0  0  0  0  0  0  0  0  0  0  0  0
    3.7816   -1.4511    1.8972 C   0  0  0  0  0  0  0  0  0  0  0  0
    2.9001    0.4552   -0.5873 C   0  0  0  0  0  0  0  0  0  0  0  0
    3.4238    1.7373   -0.3208 C   0  0  0  0  0  0  0  0  0  0  0  0
    4.3249    2.3269   -1.2169 C   0  0  0  0  0  0  0  0  0  0  0  0
    4.7134    1.6393   -2.3792 C   0  0  0  0  0  0  0  0  0  0  0  0
    4.2036    0.3576   -2.6376 C   0  0  0  0  0  0  0  0  0  0  0  0
    3.2950   -0.2374   -1.7479 C   0  0  0  0  0  0  0  0  0  0  0  0
   -1.0141   -1.2116   -3.1247 H   0  0  0  0  0  0  0  0  0  0  0  0
   -2.3810   -1.0637   -5.2255 H   0  0  0  0  0  0  0  0  0  0  0  0
   -4.8178   -0.4873   -5.0946 H   0  0  0  0  0  0  0  0  0  0  0  0
   -5.8820   -0.0405   -2.8699 H   0  0  0  0  0  0  0  0  0  0  0  0
   -4.5099   -0.1541   -0.7791 H   0  0  0  0  0  0  0  0  0  0  0  0
   -2.5451   -3.1008    0.8669 H   0  0  0  0  0  0  0  0  0  0  0  0
   -4.0049   -3.5940    2.8524 H   0  0  0  0  0  0  0  0  0  0  0  0
   -4.9804   -1.7129    4.1958 H   0  0  0  0  0  0  0  0  0  0  0  0
   -4.5019    0.6636    3.5476 H   0  0  0  0  0  0  0  0  0  0  0  0
   -3.0634    1.1553    1.5677 H   0  0  0  0  0  0  0  0  0  0  0  0
   -2.4363    3.8570   -0.0452 H   0  0  0  0  0  0  0  0  0  0  0  0
   -3.5998    5.4242    1.5284 H   0  0  0  0  0  0  0  0  0  0  0  0
   -2.8710    5.5656    3.9206 H   0  0  0  0  0  0  0  0  0  0  0  0
   -0.9792    4.1468    4.7470 H   0  0  0  0  0  0  0  0  0  0  0  0
    0.1900    2.5660    3.1564 H   0  0  0  0  0  0  0  0  0  0  0  0
    0.6575    4.7206   -0.0771 H   0  0  0  0  0  0  0  0  0  0  0  0
    1.7999    5.7864   -2.0332 H   0  0  0  0  0  0  0  0  0  0  0  0
    2.1794    4.4714   -4.1317 H   0  0  0  0  0  0  0  0  0  0  0  0
    1.3825    2.0994   -4.2890 H   0  0  0  0  0  0  0  0  0  0  0  0
    0.2125    1.0397   -2.3536 H   0  0  0  0  0  0  0  0  0  0  0  0
    0.9455   -0.2079    3.3786 H   0  0  0  0  0  0  0  0  0  0  0  0
    2.1183   -1.0839    5.4214 H   0  0  0  0  0  0  0  0  0  0  0  0
    4.3606   -2.1845    5.1980 H   0  0  0  0  0  0  0  0  0  0  0  0
    5.4193   -2.4186    2.9380 H   0  0  0  0  0  0  0  0  0  0  0  0
    4.2356   -1.5683    0.9035 H   0  0  0  0  0  0  0  0  0  0  0  0
    3.0989    2.2773    0.5813 H   0  0  0  0  0  0  0  0  0  0  0  0
    4.7209    3.3330   -1.0109 H   0  0  0  0  0  0  0  0  0  0  0  0
    5.4171    2.1065   -3.0853 H   0  0  0  0  0  0  0  0  0  0  0  0
    4.5111   -0.1875   -3.5432 H   0  0  0  0  0  0  0  0  0  0  0  0
    2.8972   -1.2474   -1.9341 H   0  0  0  0  0  0  0  0  0  0  0  0
  1  4  1  0  0  0  0
  1 12  1  0  0  0  0
  2  5  1  0  0  0  0
  2 18  1  0  0  0  0
  3  5  1  0  0  0  0
  3 30  1  0  0  0  0
  4  2  1  0  0  0  0
  6 11  1  0  0  0  0
  6  1  1  0  0  0  0
  7  6  2  0  0  0  0
  8  9  2  0  0  0  0
  8  7  1  0  0  0  0
  9 10  1  0  0  0  0
 10 45  1  0  0  0  0
 10 11  2  0  0  0  0
 11 46  1  0  0  0  0
 12 13  2  0  0  0  0
 12 17  1  0  0  0  0
 13 14  1  0  0  0  0
 14 48  1  0  0  0  0
 14 15  2  0  0  0  0
 15 49  1  0  0  0  0
 16 15  1  0  0  0  0
 16 50  1  0  0  0  0
 17 16  2  0  0  0  0
 18 23  1  0  0  0  0
 19 18  2  0  0  0  0
 19 20  1  0  0  0  0
 20 21  2  0  0  0  0
 21 22  1  0  0  0  0
 21 54  1  0  0  0  0
 22 55  1  0  0  0  0
 23 56  1  0  0  0  0
 23 22  2  0  0  0  0
 24 25  1  0  0  0  0
 24  2  1  0  0  0  0
 25 57  1  0  0  0  0
 26 58  1  0  0  0  0
 26 25  2  0  0  0  0
 27 26  1  0  0  0  0
 28 27  2  0  0  0  0
 28 29  1  0  0  0  0
 29 24  2  0  0  0  0
 30 31  1  0  0  0  0
 31 62  1  0  0  0  0
 31 32  2  0  0  0  0
 32 63  1  0  0  0  0
 33 32  1  0  0  0  0
 33 64  1  0  0  0  0
 34 33  2  0  0  0  0
 35 30  2  0  0  0  0
 35 34  1  0  0  0  0
 36 37  1  0  0  0  0
 36  3  1  0  0  0  0
 37 67  1  0  0  0  0
 38 68  1  0  0  0  0
 38 37  2  0  0  0  0
 39 38  1  0  0  0  0
 40 39  2  0  0  0  0
 40 41  1  0  0  0  0
 41 36  2  0  0  0  0
 42  7  1  0  0  0  0
 43  8  1  0  0  0  0
 44  9  1  0  0  0  0
 47 13  1  0  0  0  0
 51 17  1  0  0  0  0
 52 19  1  0  0  0  0
 53 20  1  0  0  0  0
 59 27  1  0  0  0  0
 60 28  1  0  0  0  0
 61 29  1  0  0  0  0
 65 34  1  0  0  0  0
 66 35  1  0  0  0  0
 69 39  1  0  0  0  0
 70 40  1  0  0  0  0
 71 41  1  0  0  0  0
M  END
