1,2
q = 0.0, confidence = 0.802

 49 52  0  0  0  0  0  0  0  0999 V2000
    1.8551    0.1718   -0.7132 P   0  0  0  0  0  0  0  0  0  0  0  0
   -1.5843    0.4891   -0.9997 P   0  0  0  0  0  0  0  0  0  0  0  0
    1.5788    0.6553   -2.4325 C   0  0  0  0  0  2  0  0  0  0  0  0
    0.3234    0.9823   -2.6164 C   0  0  0  0  0  2  0  0  0  0  0  0
   -0.9835    0.9777   -2.6263 C   0  0  0  0  0  2  0  0  0  0  0  0
    3.4003   -0.7920   -0.7078 C   0  0  0  0  0  0  0  0  0  0  0  0
    3.6892   -1.6241   -1.8050 C   0  0  0  0  0  0  0  0  0  0  0  0
    4.8216   -2.4486   -1.7729 C   0  0  0  0  0  0  0  0  0  0  0  0
    5.6592   -2.4480   -0.6471 C   0  0  0  0  0  0  0  0  0  0  0  0
    5.3733   -1.6134    0.4456 C   0  0  0  0  0  0  0  0  0  0  0  0
    4.2428   -0.7860    0.4229 C   0  0  0  0  0  0  0  0  0  0  0  0
    2.2808    1.8079    0.0105 C   0  0  0  0  0  0  0  0  0  0  0  0
    3.4439    2.4834   -0.4197 C   0  0  0  0  0  0  0  0  0  0  0  0
    3.7396    3.7501    0.1013 C   0  0  0  0  0  0  0  0  0  0  0  0
    2.8799    4.3463    1.0403 C   0  0  0  0  0  0  0  0  0  0  0  0
    1.7230    3.6736    1.4657 C   0  0  0  0  0  0  0  0  0  0  0  0
    1.4183    2.4058    0.9500 C   0  0  0  0  0  0  0  0  0  0  0  0
   -3.2022   -0.3305   -1.2135 C   0  0  0  0  0  0  0  0  0  0  0  0
   -4.3945    0.4149   -1.2964 C   0  0  0  0  0  0  0  0  0  0  0  0
   -5.6142   -0.2513   -1.4819 C   0  0  0  0  0  0  0  0  0  0  0  0
   -5.6463   -1.6525   -1.5775 C   0  0  0  0  0  0  0  0  0  0  0  0
   -4.4571   -2.3934   -1.4927 C   0  0  0  0  0  0  0  0  0  0  0  0
   -3.2323   -1.7350   -1.3169 C   0  0  0  0  0  0  0  0  0  0  0  0
   -1.9210    2.0840   -0.1511 C   0  0  0  0  0  0  0  0  0  0  0  0
   -1.6601    3.3259   -0.7613 C   0  0  0  0  0  0  0  0  0  0  0  0
   -1.8390    4.5101   -0.0299 C   0  0  0  0  0  0  0  0  0  0  0  0
   -2.2826    4.4584    1.3005 C   0  0  0  0  0  0  0  0  0  0  0  0
   -2.5518    3.2173    1.9039 C   0  0  0  0  0  0  0  0  0  0  0  0
   -2.3682    2.0273    1.1861 C   0  0  0  0  0  0  0  0  0  0  0  0
    3.0265   -1.6207   -2.6843 H   0  0  0  0  0  0  0  0  0  0  0  0
    5.0439   -3.1033   -2.6284 H   0  0  0  0  0  0  0  0  0  0  0  0
    6.5417   -3.1047   -0.6195 H   0  0  0  0  0  0  0  0  0  0  0  0
    6.0315   -1.6119    1.3272 H   0  0  0  0  0  0  0  0  0  0  0  0
    4.0110   -0.1407    1.2826 H   0  0  0  0  0  0  0  0  0  0  0  0
    4.1122    2.0114   -1.1553 H   0  0  0  0  0  0  0  0  0  0  0  0
    4.6463    4.2778   -0.2308 H   0  0  0  0  0  0  0  0  0  0  0  0
    3.1157    5.3429    1.4435 H   0  0  0  0  0  0  0  0  0  0  0  0
    1.0481    4.1341    2.2025 H   0  0  0  0  0  0  0  0  0  0  0  0
    0.5142    1.8711    1.2803 H   0  0  0  0  0  0  0  0  0  0  0  0
   -4.3685    1.5116   -1.2092 H   0  0  0  0  0  0  0  0  0  0  0  0
   -6.5476    0.3282   -1.5443 H   0  0  0  0  0  0  0  0  0  0  0  0
   -6.6078   -2.1712   -1.7098 H   0  0  0  0  0  0  0  0  0  0  0  0
   -4.4799   -3.4914   -1.5497 H   0  0  0  0  0  0  0  0  0  0  0  0
   -2.2995   -2.3137   -1.2330 H   0  0  0  0  0  0  0  0  0  0  0  0
   -1.3184    3.3654   -1.8065 H   0  0  0  0  0  0  0  0  0  0  0  0
   -1.6315    5.4796   -0.5073 H   0  0  0  0  0  0  0  0  0  0  0  0
   -2.4228    5.3894    1.8706 H   0  0  0  0  0  0  0  0  0  0  0  0
   -2.9011    3.1724    2.9465 H   0  0  0  0  0  0  0  0  0  0  0  0
   -2.5467    1.0503    1.6634 H   0  0  0  0  0  0  0  0  0  0  0  0
  1  6  1  0  0  0  0
  1 12  1  0  0  0  0
  2 24  1  0  0  0  0
  3  1  1  0  0  0  0
  4  3  1  0  0  0  0
  5  4  1  0  0  0  0
  5  2  1  0  0  0  0
  6 11  1  0  0  0  0
  7  8  1  0  0  0  0
  7  6  2  0  0  0  0
  8  9  2  0  0  0  0
  9 32  1  0  0  0  0
  9 10  1  0  0  0  0
 10 33  1  0  0  0  0
 11 10  2  0  0  0  0
 11 34  1  0  0  0  0
 12 17  1  0  0  0  0
 13 12  2  0  0  0  0
 13 14  1  0  0  0  0
 14 15  2  0  0  0  0
 15 37  1  0  0  0  0
 15 16  1  0  0  0  0
 16 38  1  0  0  0  0
 17 39  1  0  0  0  0
 17 16  2  0  0  0  0
 18  2  1  0  0  0  0
 19 18  1  0  0  0  0
 19 40  1  0  0  0  0
 20 19  2  0  0  0  0
 21 22  2  0  0  0  0
 21 20  1  0  0  0  0
 22 23  1  0  0  0  0
 23 44  1  0  0  0  0
 23 18  2  0  0  0  0
 24 29  1  0  0  0  0
 25 24  2  0  0  0  0
 25 26  1  0  0  0  0
 26 27  2  0  0  0  0
 27 47  1  0  0  0  0
 27 28  1  0  0  0  0
 28 48  1  0  0  0  0
 29 49  1  0  0  0  0
 29 28  2  0  0  0  0
 30  7  1  0  0  0  0
 31  8  1  0  0  0  0
 35 13  1  0  0  0  0
 36 14  1  0  0  0  0
 41 20  1  0  0  0  0
 42 21  1  0  0  0  0
 43 22  1  0  0  0  0
 45 25  1  0  0  0  0
 46 26  1  0  0  0  0
M  END
