1,2
q = 0.0, confidence = 0.998

 52 55  0  0  0  0  0  0  0  0999 V2000
    1.5429   -0.1117   -0.3648 P   0  0  0  0  0  0  0  0  0  0  0  0
   -1.4511   -0.1021   -0.5070 P   0  0  0  0  0  0  0  0  0  0  0  0
    2.4740   -4.8990    1.2973 F   0  0  0  0  0  0  0  0  0  0  0  0
    4.0906   -5.5051   -0.8045 F   0  0  0  0  0  0  0  0  0  0  0  0
    4.5882   -3.6497   -2.7250 F   0  0  0  0  0  0  0  0  0  0  0  0
    6.5036    1.4336    0.2258 F   0  0  0  0  0  0  0  0  0  0  0  0
    5.7925    4.0619    0.1910 F   0  0  0  0  0  0  0  0  0  0  0  0
    3.1823    4.7603   -0.1214 F   0  0  0  0  0  0  0  0  0  0  0  0
   -3.1769    4.1022   -3.1329 F   0  0  0  0  0  0  0  0  0  0  0  0
   -3.6210    5.4650   -0.8208 F   0  0  0  0  0  0  0  0  0  0  0  0
   -3.0873    4.2999    1.5749 F   0  0  0  0  0  0  0  0  0  0  0  0
   -5.2917   -2.9592   -2.6066 F   0  0  0  0  0  0  0  0  0  0  0  0
   -6.3321   -3.5173   -0.1574 F   0  0  0  0  0  0  0  0  0  0  0  0
   -5.1532   -2.5405    2.0851 F   0  0  0  0  0  0  0  0  0  0  0  0
    0.7946    0.1965   -2.0595 C   0  0  0  0  0  0  0  0  0  0  0  0
    0.7004    1.2978   -2.1606 H   0  0  0  0  0  0  0  0  0  0  0  0
    1.4682   -0.1546   -2.8669 H   0  0  0  0  0  0  0  0  0  0  0  0
   -0.5827   -0.4724   -2.1109 C   0  0  0  0  0  0  0  0  0  0  0  0
   -0.4874   -1.5779   -2.1539 H   0  0  0  0  0  0  0  0  0  0  0  0
   -1.1595   -0.1574   -3.0040 H   0  0  0  0  0  0  0  0  0  0  0  0
    2.3758   -1.7413   -0.5335 C   0  0  0  0  0  0  0  0  0  0  0  0
    2.1149   -2.7029    0.4612 C   0  0  0  0  0  0  0  0  0  0  0  0
    1.4586   -2.4680    1.3133 H   0  0  0  0  0  0  0  0  0  0  0  0
    2.7014   -3.9688    0.3666 C   0  0  0  0  0  0  0  0  0  0  0  0
    3.5398   -4.2966   -0.7147 C   0  0  0  0  0  0  0  0  0  0  0  0
    3.7885   -3.3250   -1.7037 C   0  0  0  0  0  0  0  0  0  0  0  0
    3.2144   -2.0534   -1.6236 C   0  0  0  0  0  0  0  0  0  0  0  0
    3.4479   -1.3275   -2.4159 H   0  0  0  0  0  0  0  0  0  0  0  0
    2.9014    1.1204   -0.2700 C   0  0  0  0  0  0  0  0  0  0  0  0
    4.2487    0.7577   -0.0930 C   0  0  0  0  0  0  0  0  0  0  0  0
    4.5728   -0.2917   -0.0698 H   0  0  0  0  0  0  0  0  0  0  0  0
    5.2165    1.7567    0.0609 C   0  0  0  0  0  0  0  0  0  0  0  0
    4.8646    3.1173    0.0459 C   0  0  0  0  0  0  0  0  0  0  0  0
    3.5095    3.4644   -0.1187 C   0  0  0  0  0  0  0  0  0  0  0  0
    2.5289    2.4813   -0.2652 C   0  0  0  0  0  0  0  0  0  0  0  0
    1.4790    2.8003   -0.3528 H   0  0  0  0  0  0  0  0  0  0  0  0
   -2.1164    1.6055   -0.6896 C   0  0  0  0  0  0  0  0  0  0  0  0
   -2.3992    2.2034   -1.9322 C   0  0  0  0  0  0  0  0  0  0  0  0
   -2.2505    1.6867   -2.8908 H   0  0  0  0  0  0  0  0  0  0  0  0
   -2.9057    3.5066   -1.9646 C   0  0  0  0  0  0  0  0  0  0  0  0
   -3.1411    4.2223   -0.7769 C   0  0  0  0  0  0  0  0  0  0  0  0
   -2.8586    3.6052    0.4571 C   0  0  0  0  0  0  0  0  0  0  0  0
   -2.3373    2.3099    0.5131 C   0  0  0  0  0  0  0  0  0  0  0  0
   -2.1197    1.8453    1.4904 H   0  0  0  0  0  0  0  0  0  0  0  0
   -2.9382   -1.1675   -0.4673 C   0  0  0  0  0  0  0  0  0  0  0  0
   -3.5476   -1.6681   -1.6349 C   0  0  0  0  0  0  0  0  0  0  0  0
   -3.1670   -1.4592   -2.6444 H   0  0  0  0  0  0  0  0  0  0  0  0
   -4.6915   -2.4625   -1.5167 C   0  0  0  0  0  0  0  0  0  0  0  0
   -5.2406   -2.7580   -0.2556 C   0  0  0  0  0  0  0  0  0  0  0  0
   -4.6177   -2.2438    0.8979 C   0  0  0  0  0  0  0  0  0  0  0  0
   -3.4680   -1.4546    0.8081 C   0  0  0  0  0  0  0  0  0  0  0  0
   -2.9803   -1.0670    1.7221 H   0  0  0  0  0  0  0  0  0  0  0  0
  1 29  1  0  0  0  0
  2 45  1  0  0  0  0
  4 25  1  0  0  0  0
  5 26  1  0  0  0  0
  8 34  1  0  0  0  0
  9 40  1  0  0  0  0
 10 41  1  0  0  0  0
 12 48  1  0  0  0  0
 15  1  1  0  0  0  0
 16 15  1  0  0  0  0
 17 15  1  0  0  0  0
 18 15  1  0  0  0  0
 18  2  1  0  0  0  0
 19 18  1  0  0  0  0
 20 18  1  0  0  0  0
 21  1  1  0  0  0  0
 21 22  1  0  0  0  0
 22 23  1  0  0  0  0
 24 22  2  0  0  0  0
 24  3  1  0  0  0  0
 25 24  1  0  0  0  0
 26 27  1  0  0  0  0
 26 25  2  0  0  0  0
 27 21  2  0  0  0  0
 28 27  1  0  0  0  0
 29 35  2  0  0  0  0
 29 30  1  0  0  0  0
 30 31  1  0  0  0  0
 30 32  2  0  0  0  0
 32  6  1  0  0  0  0
 33 32  1  0  0  0  0
 33  7  1  0  0  0  0
 34 33  2  0  0  0  0
 35 34  1  0  0  0  0
 36 35  1  0  0  0  0
 37  2  1  0  0  0  0
 37 43  1  0  0  0  0
 38 37  2  0  0  0  0
 39 38  1  0  0  0  0
 40 38  1  0  0  0  0
 40 41  2  0  0  0  0
 41 42  1  0  0  0  0
 42 43  2  0  0  0  0
 42 11  1  0  0  0  0
 43 44  1  0  0  0  0
 45 51  1  0  0  0  0
 46 48  1  0  0  0  0
 46 45  2  0  0  0  0
 47 46  1  0  0  0  0
 48 49  2  0  0  0  0
 49 13  1  0  0  0  0
 49 50  1  0  0  0  0
 50 14  1  0  0  0  0
 51 50  2  0  0  0  0
 51 52  1  0  0  0  0
M  END
