2,3
q = 0.0, confidence = 0.998

 68 73  0  0  0  0  0  0  0  0999 V2000
   -0.0384    0.5690    0.8239 N   0  0  0  0  0  0  0  0  0  0  0  0
   -1.2915   -0.2620   -0.0591 P   0  0  1  0  0  0  0  0  0  0  0  0
    1.3760   -0.0251   -0.0512 P   0  0  0  0  0  0  0  0  0  0  0  0
   -3.5737   -1.9452   -0.4960 O   0  0  0  0  0  0  0  0  0  0  0  0
    0.4674    2.4075   -1.4306 O   0  0  0  0  0  0  0  0  0  0  0  0
    3.8801   -1.3614   -0.5522 O   0  0  0  0  0  0  0  0  0  0  0  0
   -4.5324   -2.8474   -1.0247 C   0  0  0  0  0  0  0  0  0  0  0  0
   -4.4437   -2.7774   -2.1231 H   0  0  0  0  0  0  0  0  0  0  0  0
   -5.5635   -2.5766   -0.7076 H   0  0  0  0  0  0  0  0  0  0  0  0
   -4.3154   -3.8928   -0.7158 H   0  0  0  0  0  0  0  0  0  0  0  0
   -2.2787   -1.0849    1.2579 C   0  0  0  0  0  0  0  0  0  0  0  0
   -3.3520   -1.9150    0.8445 C   0  0  0  0  0  0  0  0  0  0  0  0
   -4.1028   -2.6298    1.7961 C   0  0  0  0  0  0  0  0  0  0  0  0
   -4.9301   -3.2801    1.4826 H   0  0  0  0  0  0  0  0  0  0  0  0
   -3.7890   -2.5037    3.1594 C   0  0  0  0  0  0  0  0  0  0  0  0
   -4.3810   -3.0637    3.8992 H   0  0  0  0  0  0  0  0  0  0  0  0
   -2.7391   -1.6764    3.5804 C   0  0  0  0  0  0  0  0  0  0  0  0
   -2.5005   -1.5782    4.6494 H   0  0  0  0  0  0  0  0  0  0  0  0
   -1.9867   -0.9719    2.6260 C   0  0  0  0  0  0  0  0  0  0  0  0
   -1.1625   -0.3204    2.9485 H   0  0  0  0  0  0  0  0  0  0  0  0
   -2.3558    1.1487   -0.5127 C   0  0  0  0  0  0  0  0  0  0  0  0
   -2.3233    2.3389    0.2675 C   0  0  0  0  0  0  0  0  0  0  0  0
   -3.1623    3.3994   -0.1585 C   0  0  0  0  0  0  0  0  0  0  0  0
   -3.1357    4.3585    0.3769 H   0  0  0  0  0  0  0  0  0  0  0  0
   -3.9986    3.2797   -1.2743 C   0  0  0  0  0  0  0  0  0  0  0  0
   -4.6341    4.1293   -1.5670 H   0  0  0  0  0  0  0  0  0  0  0  0
   -4.0063    2.0981   -2.0333 C   0  0  0  0  0  0  0  0  0  0  0  0
   -4.6492    2.0065   -2.9214 H   0  0  0  0  0  0  0  0  0  0  0  0
   -3.1705    1.0403   -1.6538 C   0  0  0  0  0  0  0  0  0  0  0  0
   -3.1405    0.1114   -2.2419 H   0  0  0  0  0  0  0  0  0  0  0  0
   -0.2224    1.7328    1.5873 C   0  0  0  0  0  0  0  0  0  0  0  0
   -1.3949    2.5346    1.4112 C   0  0  0  0  0  0  0  0  0  0  0  0
   -1.5837    3.6071    2.3161 C   0  0  0  0  0  0  0  0  0  0  0  0
   -2.5110    4.1943    2.2583 H   0  0  0  0  0  0  0  0  0  0  0  0
   -0.6321    3.9492    3.2811 C   0  0  0  0  0  0  0  0  0  0  0  0
   -0.8202    4.7910    3.9634 H   0  0  0  0  0  0  0  0  0  0  0  0
    0.5641    3.2172    3.3625 C   0  0  0  0  0  0  0  0  0  0  0  0
    1.3385    3.4896    4.0952 H   0  0  0  0  0  0  0  0  0  0  0  0
    0.7595    2.1128    2.5290 C   0  0  0  0  0  0  0  0  0  0  0  0
    1.6775    1.5145    2.6064 H   0  0  0  0  0  0  0  0  0  0  0  0
   -0.1785    3.4082   -2.2021 C   0  0  0  0  0  0  0  0  0  0  0  0
   -1.1862    3.0172   -2.4259 H   0  0  0  0  0  0  0  0  0  0  0  0
    0.3617    3.5919   -3.1552 H   0  0  0  0  0  0  0  0  0  0  0  0
   -0.2704    4.3570   -1.6305 H   0  0  0  0  0  0  0  0  0  0  0  0
    2.3497    1.5074   -0.3317 C   0  0  0  0  0  0  0  0  0  0  0  0
    1.7538    2.5833   -1.0483 C   0  0  0  0  0  0  0  0  0  0  0  0
    2.4922    3.7575   -1.2983 C   0  0  0  0  0  0  0  0  0  0  0  0
    2.0378    4.5891   -1.8522 H   0  0  0  0  0  0  0  0  0  0  0  0
    3.8096    3.8683   -0.8309 C   0  0  0  0  0  0  0  0  0  0  0  0
    4.3748    4.7909   -1.0332 H   0  0  0  0  0  0  0  0  0  0  0  0
    4.4001    2.8245   -0.1052 C   0  0  0  0  0  0  0  0  0  0  0  0
    5.4284    2.9180    0.2731 H   0  0  0  0  0  0  0  0  0  0  0  0
    3.6657    1.6556    0.1415 C   0  0  0  0  0  0  0  0  0  0  0  0
    4.1201    0.8414    0.7223 H   0  0  0  0  0  0  0  0  0  0  0  0
    4.9351   -2.0893   -1.1601 C   0  0  0  0  0  0  0  0  0  0  0  0
    4.9861   -1.7386   -2.2057 H   0  0  0  0  0  0  0  0  0  0  0  0
    4.7248   -3.1801   -1.1600 H   0  0  0  0  0  0  0  0  0  0  0  0
    5.9055   -1.8973   -0.6512 H   0  0  0  0  0  0  0  0  0  0  0  0
    2.3553   -0.9721    1.1834 C   0  0  0  0  0  0  0  0  0  0  0  0
    3.5095   -1.6577    0.7207 C   0  0  0  0  0  0  0  0  0  0  0  0
    4.1829   -2.5628    1.5617 C   0  0  0  0  0  0  0  0  0  0  0  0
    5.0760   -3.0947    1.2079 H   0  0  0  0  0  0  0  0  0  0  0  0
    3.6991   -2.7912    2.8604 C   0  0  0  0  0  0  0  0  0  0  0  0
    4.2277   -3.5038    3.5116 H   0  0  0  0  0  0  0  0  0  0  0  0
    2.5514   -2.1337    3.3226 C   0  0  0  0  0  0  0  0  0  0  0  0
    2.1649   -2.3291    4.3333 H   0  0  0  0  0  0  0  0  0  0  0  0
    1.8812   -1.2342    2.4781 C   0  0  0  0  0  0  0  0  0  0  0  0
    0.9560   -0.7471    2.8153 H   0  0  0  0  0  0  0  0  0  0  0  0
  1 31  1  0  0  0  0
  2  1  1  0  0  0  0
  2 11  1  1  0  0  0
  3  1  1  0  0  0  0
  3 59  1  0  0  0  0
  4 12  1  0  0  0  0
  5 46  1  0  0  0  0
  6 60  1  0  0  0  0
  7 10  1  0  0  0  0
  7  9  1  0  0  0  0
  7  4  1  0  0  0  0
  8  7  1  0  0  0  0
 11 19  1  0  0  0  0
 12 11  2  0  0  0  0
 12 13  1  0  0  0  0
 13 15  2  0  0  0  0
 14 13  1  0  0  0  0
 15 17  1  0  0  0  0
 15 16  1  0  0  0  0
 17 18  1  0  0  0  0
 19 20  1  0  0  0  0
 19 17  2  0  0  0  0
 21  2  1  0  0  0  0
 21 22  1  0  0  0  0
 22 32  1  0  0  0  0
 23 22  2  0  0  0  0
 23 24  1  0  0  0  0
 25 23  1  0  0  0  0
 26 25  1  0  0  0  0
 27 29  1  0  0  0  0
 27 25  2  0  0  0  0
 28 27  1  0  0  0  0
 29 21  2  0  0  0  0
 30 29  1  0  0  0  0
 31 39  1  0  0  0  0
 32 31  2  0  0  0  0
 32 33  1  0  0  0  0
 33 35  2  0  0  0  0
 34 33  1  0  0  0  0
 35 37  1  0  0  0  0
 35 36  1  0  0  0  0
 37 38  1  0  0  0  0
 39 40  1  0  0  0  0
 39 37  2  0  0  0  0
 41 44  1  0  0  0  0
 41  5  1  0  0  0  0
 42 41  1  0  0  0  0
 43 41  1  0  0  0  0
 45  3  1  0  0  0  0
 45 53  1  0  0  0  0
 46 45  2  0  0  0  0
 47 46  1  0  0  0  0
 47 49  2  0  0  0  0
 48 47  1  0  0  0  0
 49 51  1  0  0  0  0
 50 49  1  0  0  0  0
 51 53  2  0  0  0  0
 51 52  1  0  0  0  0
 53 54  1  0  0  0  0
 55 57  1  0  0  0  0
 55 58  1  0  0  0  0
 55  6  1  0  0  0  0
 56 55  1  0  0  0  0
 59 67  1  0  0  0  0
 60 59  2  0  0  0  0
 60 61  1  0  0  0  0
 61 63  2  0  0  0  0
 62 61  1  0  0  0  0
 63 65  1  0  0  0  0
 63 64  1  0  0  0  0
 65 66  1  0  0  0  0
 67 68  1  0  0  0  0
 67 65  2  0  0  0  0
M  END
