1,2
q = 0.0, confidence = 0.998

 54 57  0  0  0  0  0  0  0  0999 V2000
   -0.1636    1.4121   -0.9636 P   0  0  0  0  0  0  0  0  0  0  0  0
   -0.2716   -1.4509    0.6144 P   0  0  0  0  0  0  0  0  0  0  0  0
    1.5825    0.9304   -1.1212 C   0  0  0  0  0  0  0  0  0  0  0  0
    2.3843    1.7079   -1.9682 C   0  0  0  0  0  0  0  0  0  0  0  0
    3.7929    1.5609   -2.0602 C   0  0  0  0  0  0  0  0  0  0  0  0
    4.4072    0.6337   -1.2325 C   0  0  0  0  0  0  0  0  0  0  0  0
    3.6036   -0.1630   -0.3713 C   0  0  0  0  0  0  0  0  0  0  0  0
    4.4066   -1.0100    0.4367 C   0  0  0  0  0  0  0  0  0  0  0  0
    3.7790   -1.8316    1.3592 C   0  0  0  0  0  0  0  0  0  0  0  0
    2.3602   -1.8405    1.3980 C   0  0  0  0  0  0  0  0  0  0  0  0
    1.5390   -1.0437    0.5815 C   0  0  0  0  0  0  0  0  0  0  0  0
    2.1752   -0.1008   -0.3086 C   0  0  0  0  0  0  0  0  0  0  0  0
    5.8645    0.2740   -1.0351 C   0  0  0  0  0  0  0  0  0  0  0  0
    5.8669   -0.7908    0.1053 C   0  0  0  0  0  0  0  0  0  0  0  0
   -0.1896    2.7106    0.3391 C   0  0  0  0  0  0  0  0  0  0  0  0
    0.9657    3.0888    1.0485 C   0  0  0  0  0  0  0  0  0  0  0  0
    0.8705    4.0370    2.0799 C   0  0  0  0  0  0  0  0  0  0  0  0
   -0.3695    4.6126    2.3963 C   0  0  0  0  0  0  0  0  0  0  0  0
   -1.5202    4.2389    1.6810 C   0  0  0  0  0  0  0  0  0  0  0  0
   -1.4392    3.2839    0.6585 C   0  0  0  0  0  0  0  0  0  0  0  0
   -0.6819   -1.3804    2.4424 C   0  0  0  0  0  0  0  0  0  0  0  0
   -0.6646    0.0888    2.8840 C   0  0  0  0  0  0  0  0  0  0  0  0
   -2.0084   -2.0691    2.7747 C   0  0  0  0  0  0  0  0  0  0  0  0
   -0.3694   -3.2263    0.0272 C   0  0  0  0  0  0  0  0  0  0  0  0
    0.0998   -3.2847   -1.4312 C   0  0  0  0  0  0  0  0  0  0  0  0
    0.2897   -4.2974    0.8963 C   0  0  0  0  0  0  0  0  0  0  0  0
   -0.3808    2.1455   -2.1682 H   0  0  0  0  0  0  0  0  0  0  0  0
    1.8994    2.4892   -2.5748 H   0  0  0  0  0  0  0  0  0  0  0  0
    4.3673    2.1963   -2.7507 H   0  0  0  0  0  0  0  0  0  0  0  0
    4.3466   -2.4870    2.0369 H   0  0  0  0  0  0  0  0  0  0  0  0
    1.8856   -2.5326    2.1067 H   0  0  0  0  0  0  0  0  0  0  0  0
    6.4693    1.1678   -0.7765 H   0  0  0  0  0  0  0  0  0  0  0  0
    6.2992   -0.1282   -1.9743 H   0  0  0  0  0  0  0  0  0  0  0  0
    6.3551   -1.7375   -0.2063 H   0  0  0  0  0  0  0  0  0  0  0  0
    6.4252   -0.4381    0.9979 H   0  0  0  0  0  0  0  0  0  0  0  0
    1.9397    2.6407    0.8005 H   0  0  0  0  0  0  0  0  0  0  0  0
    1.7734    4.3270    2.6387 H   0  0  0  0  0  0  0  0  0  0  0  0
   -0.4409    5.3548    3.2060 H   0  0  0  0  0  0  0  0  0  0  0  0
   -2.4943    4.6882    1.9271 H   0  0  0  0  0  0  0  0  0  0  0  0
   -2.3370    2.9645    0.1021 H   0  0  0  0  0  0  0  0  0  0  0  0
    0.1464   -1.9183    2.9532 H   0  0  0  0  0  0  0  0  0  0  0  0
   -0.8128    0.1551    3.9814 H   0  0  0  0  0  0  0  0  0  0  0  0
   -1.4795    0.6552    2.3895 H   0  0  0  0  0  0  0  0  0  0  0  0
    0.2914    0.5932    2.6376 H   0  0  0  0  0  0  0  0  0  0  0  0
   -2.8437   -1.6389    2.1877 H   0  0  0  0  0  0  0  0  0  0  0  0
   -2.2231   -1.9435    3.8563 H   0  0  0  0  0  0  0  0  0  0  0  0
   -1.9855   -3.1551    2.5582 H   0  0  0  0  0  0  0  0  0  0  0  0
   -1.4762   -3.3535    0.0386 H   0  0  0  0  0  0  0  0  0  0  0  0
   -0.0811   -4.2985   -1.8439 H   0  0  0  0  0  0  0  0  0  0  0  0
    1.1862   -3.0717   -1.5188 H   0  0  0  0  0  0  0  0  0  0  0  0
   -0.4524   -2.5560   -2.0577 H   0  0  0  0  0  0  0  0  0  0  0  0
    1.3950   -4.2788    0.8132 H   0  0  0  0  0  0  0  0  0  0  0  0
   -0.0427   -5.2978    0.5484 H   0  0  0  0  0  0  0  0  0  0  0  0
    0.0156   -4.2172    1.9674 H   0  0  0  0  0  0  0  0  0  0  0  0
  1 15  1  0  0  0  0
  2 21  1  0  0  0  0
  3  1  1  0  0  0  0
  3 12  1  0  0  0  0
  4  3  2  0  0  0  0
  5  4  1  0  0  0  0
  5  6  2  0  0  0  0
  6 13  1  0  0  0  0
  6  7  1  0  0  0  0
  7 12  2  0  0  0  0
  7  8  1  0  0  0  0
  8  9  2  0  0  0  0
  9 10  1  0  0  0  0
  9 30  1  0  0  0  0
 10 31  1  0  0  0  0
 11  2  1  0  0  0  0
 11 10  2  0  0  0  0
 12 11  1  0  0  0  0
 13 32  1  0  0  0  0
 13 14  1  0  0  0  0
 14  8  1  0  0  0  0
 14 35  1  0  0  0  0
 15 20  2  0  0  0  0
 15 16  1  0  0  0  0
 16 17  2  0  0  0  0
 17 18  1  0  0  0  0
 17 37  1  0  0  0  0
 18 38  1  0  0  0  0
 19 39  1  0  0  0  0
 19 18  2  0  0  0  0
 20 19  1  0  0  0  0
 21 23  1  0  0  0  0
 21 22  1  0  0  0  0
 21 41  1  0  0  0  0
 22 42  1  0  0  0  0
 23 46  1  0  0  0  0
 24 48  1  0  0  0  0
 24  2  1  0  0  0  0
 24 26  1  0  0  0  0
 25 24  1  0  0  0  0
 26 54  1  0  0  0  0
 27  1  1  0  0  0  0
 28  4  1  0  0  0  0
 29  5  1  0  0  0  0
 33 13  1  0  0  0  0
 34 14  1  0  0  0  0
 36 16  1  0  0  0  0
 40 20  1  0  0  0  0
 43 22  1  0  0  0  0
 44 22  1  0  0  0  0
 45 23  1  0  0  0  0
 47 23  1  0  0  0  0
 49 25  1  0  0  0  0
 50 25  1  0  0  0  0
 51 25  1  0  0  0  0
 52 26  1  0  0  0  0
 53 26  1  0  0  0  0
M  END
