1,2
q = 0.0, confidence = 0.996

 79 78  0  0  0  0  0  0  0  0999 V2000
   -2.2418   -0.6176    0.2292 P   0  0  0  0  0  0  0  0  0  0  0  0
    2.2464   -0.6219    0.4075 P   0  0  0  0  0  0  0  0  0  0  0  0
   -1.6745    2.4646    1.0766 Si  0  0  0  0  0  0  0  0  0  0  0  0
    1.4259    2.3379    1.4921 Si  0  0  0  0  0  0  0  0  0  0  0  0
   -0.1324    1.7684    1.1575 O   0  0  0  0  0  0  0  0  0  0  0  0
   -2.2051    3.0714    2.7881 C   0  0  0  0  0  0  0  0  0  0  0  0
   -1.6294    3.9789    3.0622 H   0  0  0  0  0  0  0  0  0  0  0  0
   -2.0571    2.3247    3.5918 H   0  0  0  0  0  0  0  0  0  0  0  0
   -3.2786    3.3542    2.7741 H   0  0  0  0  0  0  0  0  0  0  0  0
   -1.7111    3.9469   -0.0800 C   0  0  0  0  0  0  0  0  0  0  0  0
   -1.0732    4.7714    0.2980 H   0  0  0  0  0  0  0  0  0  0  0  0
   -2.7477    4.3355   -0.1654 H   0  0  0  0  0  0  0  0  0  0  0  0
   -1.3545    3.6551   -1.0882 H   0  0  0  0  0  0  0  0  0  0  0  0
   -2.8438    1.1237    0.4043 C   0  0  0  0  0  0  0  0  0  0  0  0
   -3.8050    1.1392    0.9599 H   0  0  0  0  0  0  0  0  0  0  0  0
   -3.0647    1.4380   -0.6379 H   0  0  0  0  0  0  0  0  0  0  0  0
   -3.4839   -1.3511   -1.0646 C   0  0  0  0  0  0  0  0  0  0  0  0
   -3.4049   -2.8848   -1.0639 C   0  0  0  0  0  0  0  0  0  0  0  0
   -3.9362   -3.2705   -1.9596 H   0  0  0  0  0  0  0  0  0  0  0  0
   -3.8907   -3.3327   -0.1766 H   0  0  0  0  0  0  0  0  0  0  0  0
   -2.3561   -3.2405   -1.1197 H   0  0  0  0  0  0  0  0  0  0  0  0
   -4.9309   -0.8913   -0.8109 C   0  0  0  0  0  0  0  0  0  0  0  0
   -5.5842   -1.3450   -1.5863 H   0  0  0  0  0  0  0  0  0  0  0  0
   -5.0417    0.2069   -0.8992 H   0  0  0  0  0  0  0  0  0  0  0  0
   -5.3245   -1.2020    0.1731 H   0  0  0  0  0  0  0  0  0  0  0  0
   -3.0522   -0.8437   -2.4510 C   0  0  0  0  0  0  0  0  0  0  0  0
   -3.7988   -1.1846   -3.1998 H   0  0  0  0  0  0  0  0  0  0  0  0
   -2.0591   -1.2331   -2.7418 H   0  0  0  0  0  0  0  0  0  0  0  0
   -2.9939    0.2612   -2.5087 H   0  0  0  0  0  0  0  0  0  0  0  0
   -2.5655   -1.4291    1.9508 C   0  0  0  0  0  0  0  0  0  0  0  0
   -4.0263   -1.3878    2.4232 C   0  0  0  0  0  0  0  0  0  0  0  0
   -4.0742   -1.7308    3.4791 H   0  0  0  0  0  0  0  0  0  0  0  0
   -4.6791   -2.0609    1.8357 H   0  0  0  0  0  0  0  0  0  0  0  0
   -4.4567   -0.3662    2.3950 H   0  0  0  0  0  0  0  0  0  0  0  0
   -1.7024   -0.6198    2.9349 C   0  0  0  0  0  0  0  0  0  0  0  0
   -1.6499   -1.1548    3.9066 H   0  0  0  0  0  0  0  0  0  0  0  0
   -2.1387    0.3775    3.1278 H   0  0  0  0  0  0  0  0  0  0  0  0
   -0.6753   -0.4800    2.5462 H   0  0  0  0  0  0  0  0  0  0  0  0
   -2.0716   -2.8877    1.9157 C   0  0  0  0  0  0  0  0  0  0  0  0
   -1.8469   -3.2299    2.9474 H   0  0  0  0  0  0  0  0  0  0  0  0
   -1.1489   -2.9881    1.3103 H   0  0  0  0  0  0  0  0  0  0  0  0
   -2.8275   -3.5741    1.4943 H   0  0  0  0  0  0  0  0  0  0  0  0
    1.9473    3.6282    0.2319 C   0  0  0  0  0  0  0  0  0  0  0  0
    1.7054    3.2947   -0.7966 H   0  0  0  0  0  0  0  0  0  0  0  0
    3.0334    3.8429    0.2971 H   0  0  0  0  0  0  0  0  0  0  0  0
    1.4035    4.5755    0.4241 H   0  0  0  0  0  0  0  0  0  0  0  0
    1.4541    3.0981    3.2222 C   0  0  0  0  0  0  0  0  0  0  0  0
    1.0301    2.4011    3.9737 H   0  0  0  0  0  0  0  0  0  0  0  0
    0.8703    4.0402    3.2608 H   0  0  0  0  0  0  0  0  0  0  0  0
    2.4942    3.3392    3.5264 H   0  0  0  0  0  0  0  0  0  0  0  0
    2.5084    0.7824    1.5882 C   0  0  0  0  0  0  0  0  0  0  0  0
    3.5836    1.0605    1.6095 H   0  0  0  0  0  0  0  0  0  0  0  0
    2.2755    0.3634    2.5896 H   0  0  0  0  0  0  0  0  0  0  0  0
    2.6912   -2.1504    1.5191 C   0  0  0  0  0  0  0  0  0  0  0  0
    2.7768   -3.4081    0.6408 C   0  0  0  0  0  0  0  0  0  0  0  0
    2.8778   -4.3028    1.2914 H   0  0  0  0  0  0  0  0  0  0  0  0
    3.6547   -3.3904   -0.0335 H   0  0  0  0  0  0  0  0  0  0  0  0
    1.8638   -3.5357    0.0254 H   0  0  0  0  0  0  0  0  0  0  0  0
    3.9845   -1.9765    2.3372 C   0  0  0  0  0  0  0  0  0  0  0  0
    4.0603   -2.8228    3.0528 H   0  0  0  0  0  0  0  0  0  0  0  0
    3.9813   -1.0466    2.9396 H   0  0  0  0  0  0  0  0  0  0  0  0
    4.8996   -1.9881    1.7231 H   0  0  0  0  0  0  0  0  0  0  0  0
    1.5318   -2.3179    2.5132 C   0  0  0  0  0  0  0  0  0  0  0  0
    1.7101   -3.2233    3.1314 H   0  0  0  0  0  0  0  0  0  0  0  0
    0.5694   -2.4234    1.9852 H   0  0  0  0  0  0  0  0  0  0  0  0
    1.4430   -1.4579    3.2082 H   0  0  0  0  0  0  0  0  0  0  0  0
    3.6322   -0.4042   -0.9260 C   0  0  0  0  0  0  0  0  0  0  0  0
    3.2512   -1.2588   -2.1481 C   0  0  0  0  0  0  0  0  0  0  0  0
    4.0300   -1.1364   -2.9304 H   0  0  0  0  0  0  0  0  0  0  0  0
    2.2816   -0.9345   -2.5738 H   0  0  0  0  0  0  0  0  0  0  0  0
    3.1744   -2.3368   -1.9097 H   0  0  0  0  0  0  0  0  0  0  0  0
    3.6203    1.0759   -1.3391 C   0  0  0  0  0  0  0  0  0  0  0  0
    4.2814    1.2045   -2.2226 H   0  0  0  0  0  0  0  0  0  0  0  0
    4.0077    1.7379   -0.5405 H   0  0  0  0  0  0  0  0  0  0  0  0
    2.6068    1.4104   -1.6357 H   0  0  0  0  0  0  0  0  0  0  0  0
    5.0494   -0.7618   -0.4560 C   0  0  0  0  0  0  0  0  0  0  0  0
    5.7660   -0.4741   -1.2551 H   0  0  0  0  0  0  0  0  0  0  0  0
    5.1819   -1.8455   -0.2773 H   0  0  0  0  0  0  0  0  0  0  0  0
    5.3471   -0.2114    0.4591 H   0  0  0  0  0  0  0  0  0  0  0  0
  1 14  1  0  0  0  0
  1 30  1  0  0  0  0
  2 54  1  0  0  0  0
  2 51  1  0  0  0  0
  3  5  1  0  0  0  0
  3  6  1  0  0  0  0
  4 51  1  0  0  0  0
  4 47  1  0  0  0  0
  5  4  1  0  0  0  0
  6  7  1  0  0  0  0
  6  8  1  0  0  0  0
  9  6  1  0  0  0  0
 10 11  1  0  0  0  0
 10  3  1  0  0  0  0
 12 10  1  0  0  0  0
 13 10  1  0  0  0  0
 14 15  1  0  0  0  0
 14  3  1  0  0  0  0
 16 14  1  0  0  0  0
 17 18  1  0  0  0  0
 17 22  1  0  0  0  0
 17  1  1  0  0  0  0
 18 20  1  0  0  0  0
 19 18  1  0  0  0  0
 21 18  1  0  0  0  0
 22 25  1  0  0  0  0
 23 22  1  0  0  0  0
 24 22  1  0  0  0  0
 26 17  1  0  0  0  0
 27 26  1  0  0  0  0
 28 26  1  0  0  0  0
 29 26  1  0  0  0  0
 30 31  1  0  0  0  0
 30 35  1  0  0  0  0
 31 32  1  0  0  0  0
 33 31  1  0  0  0  0
 34 31  1  0  0  0  0
 35 37  1  0  0  0  0
 35 36  1  0  0  0  0
 38 35  1  0  0  0  0
 39 30  1  0  0  0  0
 39 40  1  0  0  0  0
 41 39  1  0  0  0  0
 42 39  1  0  0  0  0
 43 45  1  0  0  0  0
 43 46  1  0  0  0  0
 43  4  1  0  0  0  0
 44 43  1  0  0  0  0
 47 49  1  0  0  0  0
 47 50  1  0  0  0  0
 47 48  1  0  0  0  0
 51 52  1  0  0  0  0
 51 53  1  0  0  0  0
 54 59  1  0  0  0  0
 54 63  1  0  0  0  0
 55 56  1  0  0  0  0
 55 54  1  0  0  0  0
 57 55  1  0  0  0  0
 58 55  1  0  0  0  0
 59 61  1  0  0  0  0
 59 60  1  0  0  0  0
 62 59  1  0  0  0  0
 63 64  1  0  0  0  0
 63 66  1  0  0  0  0
 65 63  1  0  0  0  0
 67 76  1  0  0  0  0
 67  2  1  0  0  0  0
 68 71  1  0  0  0  0
 68 67  1  0  0  0  0
 69 68  1  0  0  0  0
 70 68  1  0  0  0  0
 72 67  1  0  0  0  0
 72 74  1  0  0  0  0
 73 72  1  0  0  0  0
 75 72  1  0  0  0  0
 76 78  1  0  0  0  0
 76 79  1  0  0  0  0
 77 76  1  0  0  0  0
M  END
