1,2
q = 0.0, confidence = 0.992

 70 74  0  0  0  0  0  0  0  0999 V2000
   -1.3517    0.9048    0.1648 P   0  0  0  0  0  0  0  0  0  0  0  0
    1.8537   -0.1663   -0.3854 P   0  0  0  0  0  0  0  0  0  0  0  0
    0.1629   -3.3990   -0.3665 O   0  0  0  0  0  0  0  0  0  0  0  0
   -2.4260   -2.7299   -2.4932 N   0  0  0  0  0  0  0  0  0  0  0  0
   -2.7832   -3.8169   -1.7739 N   0  0  0  0  0  0  0  0  0  0  0  0
   -1.4230   -0.1272   -1.3729 C   0  0  0  0  0  0  0  0  0  0  0  0
   -2.4900   -0.3555   -1.5787 H   0  0  0  0  0  0  0  0  0  0  0  0
   -1.1119    0.5655   -2.1825 H   0  0  0  0  0  0  0  0  0  0  0  0
    0.9101   -1.0318   -1.7479 C   0  0  0  0  0  0  0  0  0  0  0  0
    0.9549   -0.3649   -2.6325 H   0  0  0  0  0  0  0  0  0  0  0  0
    1.4848   -1.9455   -1.9962 H   0  0  0  0  0  0  0  0  0  0  0  0
   -1.0608   -2.2689   -2.6365 C   0  0  0  0  0  0  0  0  0  0  0  0
   -1.0308   -1.6755   -3.5741 H   0  0  0  0  0  0  0  0  0  0  0  0
   -0.4137   -3.1600   -2.7395 H   0  0  0  0  0  0  0  0  0  0  0  0
   -0.5569   -1.4026   -1.4418 C   0  0  0  0  0  0  0  0  0  0  0  0
   -0.6262   -2.2519   -0.1607 C   0  0  0  0  0  0  0  0  0  0  0  0
   -0.2527   -1.6564    0.7116 H   0  0  0  0  0  0  0  0  0  0  0  0
   -1.6795   -2.5297    0.0712 H   0  0  0  0  0  0  0  0  0  0  0  0
   -3.6585    2.4693   -0.3946 C   0  0  0  0  0  0  0  0  0  0  0  0
   -4.2497    1.6504    0.0418 H   0  0  0  0  0  0  0  0  0  0  0  0
   -4.3066    3.5994   -0.9176 C   0  0  0  0  0  0  0  0  0  0  0  0
   -5.4054    3.6563   -0.8939 H   0  0  0  0  0  0  0  0  0  0  0  0
   -3.5575    4.6551   -1.4595 C   0  0  0  0  0  0  0  0  0  0  0  0
   -4.0686    5.5421   -1.8638 H   0  0  0  0  0  0  0  0  0  0  0  0
   -2.1545    4.5857   -1.4717 C   0  0  0  0  0  0  0  0  0  0  0  0
   -1.5627    5.4199   -1.8778 H   0  0  0  0  0  0  0  0  0  0  0  0
   -1.5009    3.4643   -0.9439 C   0  0  0  0  0  0  0  0  0  0  0  0
   -0.4006    3.4211   -0.9125 H   0  0  0  0  0  0  0  0  0  0  0  0
   -2.2533    2.3975   -0.4121 C   0  0  0  0  0  0  0  0  0  0  0  0
   -2.2489    0.2118    2.7367 C   0  0  0  0  0  0  0  0  0  0  0  0
   -1.4480    0.8896    3.0742 H   0  0  0  0  0  0  0  0  0  0  0  0
   -3.0714   -0.4503    3.6600 C   0  0  0  0  0  0  0  0  0  0  0  0
   -2.8955   -0.3091    4.7372 H   0  0  0  0  0  0  0  0  0  0  0  0
   -4.1095   -1.2857    3.2183 C   0  0  0  0  0  0  0  0  0  0  0  0
   -4.7479   -1.8081    3.9470 H   0  0  0  0  0  0  0  0  0  0  0  0
   -4.3324   -1.4519    1.8427 C   0  0  0  0  0  0  0  0  0  0  0  0
   -5.1434   -2.1037    1.4838 H   0  0  0  0  0  0  0  0  0  0  0  0
   -3.5153   -0.7926    0.9119 C   0  0  0  0  0  0  0  0  0  0  0  0
   -3.7127   -0.9451   -0.1592 H   0  0  0  0  0  0  0  0  0  0  0  0
   -2.4624    0.0400    1.3528 C   0  0  0  0  0  0  0  0  0  0  0  0
    2.5494   -1.5201    1.9850 C   0  0  0  0  0  0  0  0  0  0  0  0
    2.0917   -0.6582    2.4929 H   0  0  0  0  0  0  0  0  0  0  0  0
    3.1058   -2.5746    2.7257 C   0  0  0  0  0  0  0  0  0  0  0  0
    3.0559   -2.5494    3.8246 H   0  0  0  0  0  0  0  0  0  0  0  0
    3.7303   -3.6468    2.0707 C   0  0  0  0  0  0  0  0  0  0  0  0
    4.1690   -4.4708    2.6539 H   0  0  0  0  0  0  0  0  0  0  0  0
    3.8000   -3.6648    0.6677 C   0  0  0  0  0  0  0  0  0  0  0  0
    4.2932   -4.5002    0.1480 H   0  0  0  0  0  0  0  0  0  0  0  0
    3.2404   -2.6173   -0.0765 C   0  0  0  0  0  0  0  0  0  0  0  0
    3.3057   -2.6433   -1.1749 H   0  0  0  0  0  0  0  0  0  0  0  0
    2.6099   -1.5388    0.5778 C   0  0  0  0  0  0  0  0  0  0  0  0
    4.5646    0.3286   -1.0975 C   0  0  0  0  0  0  0  0  0  0  0  0
    4.8395   -0.3843   -0.3074 H   0  0  0  0  0  0  0  0  0  0  0  0
    5.5619    0.9791   -1.8396 C   0  0  0  0  0  0  0  0  0  0  0  0
    6.6205    0.7598   -1.6342 H   0  0  0  0  0  0  0  0  0  0  0  0
    5.2158    1.9144   -2.8268 C   0  0  0  0  0  0  0  0  0  0  0  0
    6.0020    2.4259   -3.4024 H   0  0  0  0  0  0  0  0  0  0  0  0
    3.8638    2.2094   -3.0671 C   0  0  0  0  0  0  0  0  0  0  0  0
    3.5862    2.9575   -3.8250 H   0  0  0  0  0  0  0  0  0  0  0  0
    2.8639    1.5624   -2.3291 C   0  0  0  0  0  0  0  0  0  0  0  0
    1.8066    1.8259   -2.4953 H   0  0  0  0  0  0  0  0  0  0  0  0
    3.2092    0.6052   -1.3530 C   0  0  0  0  0  0  0  0  0  0  0  0
   -4.0997   -3.6340   -1.8961 C   0  0  0  0  0  3  0  0  0  0  0  0
   -4.7589   -2.6354   -2.5866 C   0  0  0  0  0  0  0  0  0  0  0  0
   -5.7996   -2.3681   -2.7735 H   0  0  0  0  0  0  0  0  0  0  0  0
   -3.5429   -2.0532   -2.9311 C   0  0  0  0  0  3  0  0  0  0  0  0
    0.1213   -4.2971    0.7221 C   0  0  0  0  0  0  0  0  0  0  0  0
    0.4880   -3.8191    1.6604 H   0  0  0  0  0  0  0  0  0  0  0  0
    0.7870   -5.1463    0.4768 H   0  0  0  0  0  0  0  0  0  0  0  0
   -0.9119   -4.6805    0.8913 H   0  0  0  0  0  0  0  0  0  0  0  0
  1 40  1  0  0  0  0
  2 51  1  0  0  0  0
  3 16  1  0  0  0  0
  3 67  1  0  0  0  0
  4  5  1  0  0  0  0
  6  1  1  0  0  0  0
  7  6  1  0  0  0  0
  8  6  1  0  0  0  0
  9 15  1  0  0  0  0
  9  2  1  0  0  0  0
 10  9  1  0  0  0  0
 11  9  1  0  0  0  0
 12  4  1  0  0  0  0
 12 15  1  0  0  0  0
 13 12  1  0  0  0  0
 14 12  1  0  0  0  0
 15  6  1  0  0  0  0
 15 16  1  0  0  0  0
 16 18  1  0  0  0  0
 16 17  1  0  0  0  0
 19 20  1  0  0  0  0
 21 22  1  0  0  0  0
 21 19  2  0  0  0  0
 23 21  1  0  0  0  0
 24 23  1  0  0  0  0
 25 23  2  0  0  0  0
 25 27  1  0  0  0  0
 26 25  1  0  0  0  0
 27 28  1  0  0  0  0
 27 29  2  0  0  0  0
 29 19  1  0  0  0  0
 29  1  1  0  0  0  0
 30 31  1  0  0  0  0
 30 32  1  0  0  0  0
 32 33  1  0  0  0  0
 34 32  2  0  0  0  0
 34 35  1  0  0  0  0
 36 34  1  0  0  0  0
 37 36  1  0  0  0  0
 38 40  1  0  0  0  0
 38 36  2  0  0  0  0
 39 38  1  0  0  0  0
 40 30  2  0  0  0  0
 41 42  1  0  0  0  0
 41 43  1  0  0  0  0
 43 44  1  0  0  0  0
 45 46  1  0  0  0  0
 45 43  2  0  0  0  0
 47 45  1  0  0  0  0
 48 47  1  0  0  0  0
 49 51  1  0  0  0  0
 49 47  2  0  0  0  0
 50 49  1  0  0  0  0
 51 41  2  0  0  0  0
 52 53  1  0  0  0  0
 54 55  1  0  0  0  0
 54 52  2  0  0  0  0
 56 54  1  0  0  0  0
 57 56  1  0  0  0  0
 58 56  2  0  0  0  0
 58 60  1  0  0  0  0
 59 58  1  0  0  0  0
 60 62  2  0  0  0  0
 61 60  1  0  0  0  0
 62 52  1  0  0  0  0
 62  2  1  0  0  0  0
 63  5  2  0  0  0  0
 64 63  1  0  0  0  0
 65 64  1  0  0  0  0
 66 64  2  0  0  0  0
 66  4  1  0  0  0  0
 67 70  1  0  0  0  0
 67 68  1  0  0  0  0
 69 67  1  0  0  0  0
M  END
