1,2
q = 0.0, confidence = 0.974

 63 67  0  0  1  0  0  0  0  0999 V2000
   -1.8297   -0.3926   -0.0689 P   0  0  0  0  0  0  0  0  0  0  0  0
    0.9169    0.8861   -0.4451 P   0  0  0  0  0  0  0  0  0  0  0  0
   -2.3578    0.0424    1.4757 O   0  0  0  0  0  0  0  0  0  0  0  0
   -3.1251   -1.1880   -0.7323 O   0  0  0  0  0  0  0  0  0  0  0  0
    1.3774    1.3218   -1.9968 O   0  0  0  0  0  0  0  0  0  0  0  0
    2.1234    1.5132    0.5144 O   0  0  0  0  0  0  0  0  0  0  0  0
   -1.7954    1.2962   -0.8162 C   0  0  2  0  0  0  0  0  0  0  0  0
   -1.6287    1.1171   -1.9044 H   0  0  0  0  0  0  0  0  0  0  0  0
   -0.5364    1.9975   -0.2390 C   0  0  2  0  0  0  0  0  0  0  0  0
   -0.6612    2.0507    0.8675 H   0  0  0  0  0  0  0  0  0  0  0  0
   -0.6187    3.4100   -0.8420 C   0  0  0  0  0  0  0  0  0  0  0  0
   -0.0669    4.1505   -0.2342 H   0  0  0  0  0  0  0  0  0  0  0  0
   -0.1586    3.4000   -1.8497 H   0  0  0  0  0  0  0  0  0  0  0  0
   -2.1475    3.7017   -0.9235 C   0  0  0  0  0  0  0  0  0  0  0  0
   -2.4154    4.0711   -1.9332 H   0  0  0  0  0  0  0  0  0  0  0  0
   -2.4491    4.4927   -0.2088 H   0  0  0  0  0  0  0  0  0  0  0  0
   -2.8773    2.3651   -0.6102 C   0  0  0  0  0  0  0  0  0  0  0  0
   -3.2098    2.3317    0.4469 H   0  0  0  0  0  0  0  0  0  0  0  0
   -3.7686    2.1947   -1.2420 H   0  0  0  0  0  0  0  0  0  0  0  0
   -1.6688   -0.3903    2.6054 C   0  0  0  0  0  0  0  0  0  0  0  0
   -1.3646   -1.7451    2.8135 C   0  0  0  0  0  0  0  0  0  0  0  0
   -1.6437   -2.5016    2.0644 H   0  0  0  0  0  0  0  0  0  0  0  0
   -0.6570   -2.1116    3.9686 C   0  0  0  0  0  0  0  0  0  0  0  0
   -0.4009   -3.1701    4.1241 H   0  0  0  0  0  0  0  0  0  0  0  0
   -0.2657   -1.1447    4.9081 C   0  0  0  0  0  0  0  0  0  0  0  0
    0.2941   -1.4423    5.8068 H   0  0  0  0  0  0  0  0  0  0  0  0
   -0.5871    0.2050    4.6920 C   0  0  0  0  0  0  0  0  0  0  0  0
   -0.2871    0.9701    5.4242 H   0  0  0  0  0  0  0  0  0  0  0  0
   -1.2867    0.5884    3.5373 C   0  0  0  0  0  0  0  0  0  0  0  0
   -1.5469    1.6401    3.3453 H   0  0  0  0  0  0  0  0  0  0  0  0
   -4.3461   -0.5735   -0.9854 C   0  0  0  0  0  0  0  0  0  0  0  0
   -5.1966   -0.1989    0.0680 C   0  0  0  0  0  0  0  0  0  0  0  0
   -4.8832   -0.3841    1.1042 H   0  0  0  0  0  0  0  0  0  0  0  0
   -6.4210    0.4166   -0.2321 C   0  0  0  0  0  0  0  0  0  0  0  0
   -7.0901    0.7158    0.5889 H   0  0  0  0  0  0  0  0  0  0  0  0
   -6.7961    0.6486   -1.5656 C   0  0  0  0  0  0  0  0  0  0  0  0
   -7.7583    1.1311   -1.7927 H   0  0  0  0  0  0  0  0  0  0  0  0
   -5.9424    0.2530   -2.6088 C   0  0  0  0  0  0  0  0  0  0  0  0
   -6.2343    0.4221   -3.6564 H   0  0  0  0  0  0  0  0  0  0  0  0
   -4.7135   -0.3604   -2.3238 C   0  0  0  0  0  0  0  0  0  0  0  0
   -4.0277   -0.6805   -3.1214 H   0  0  0  0  0  0  0  0  0  0  0  0
    2.2246    2.8650    0.8142 C   0  0  0  0  0  0  0  0  0  0  0  0
    1.7927    3.2960    2.0795 C   0  0  0  0  0  0  0  0  0  0  0  0
    1.3840    2.5547    2.7823 H   0  0  0  0  0  0  0  0  0  0  0  0
    1.8949    4.6552    2.4106 C   0  0  0  0  0  0  0  0  0  0  0  0
    1.5578    4.9998    3.4000 H   0  0  0  0  0  0  0  0  0  0  0  0
    2.4269    5.5723    1.4884 C   0  0  0  0  0  0  0  0  0  0  0  0
    2.5054    6.6373    1.7524 H   0  0  0  0  0  0  0  0  0  0  0  0
    2.8647    5.1244    0.2312 C   0  0  0  0  0  0  0  0  0  0  0  0
    3.2864    5.8380   -0.4927 H   0  0  0  0  0  0  0  0  0  0  0  0
    2.7671    3.7680   -0.1141 C   0  0  0  0  0  0  0  0  0  0  0  0
    3.0889    3.4018   -1.0984 H   0  0  0  0  0  0  0  0  0  0  0  0
    2.1211    0.4363   -2.7805 C   0  0  0  0  0  0  0  0  0  0  0  0
    3.4892    0.6807   -2.9670 C   0  0  0  0  0  0  0  0  0  0  0  0
    3.9553    1.5495   -2.4807 H   0  0  0  0  0  0  0  0  0  0  0  0
    4.2406   -0.2025   -3.7572 C   0  0  0  0  0  0  0  0  0  0  0  0
    5.3154   -0.0179   -3.9043 H   0  0  0  0  0  0  0  0  0  0  0  0
    3.6295   -1.3221   -4.3441 C   0  0  0  0  0  0  0  0  0  0  0  0
    4.2245   -2.0183   -4.9535 H   0  0  0  0  0  0  0  0  0  0  0  0
    2.2587   -1.5543   -4.1476 C   0  0  0  0  0  0  0  0  0  0  0  0
    1.7752   -2.4349   -4.5957 H   0  0  0  0  0  0  0  0  0  0  0  0
    1.4950   -0.6734   -3.3681 C   0  0  0  0  0  0  0  0  0  0  0  0
    0.4250   -0.8507   -3.1884 H   0  0  0  0  0  0  0  0  0  0  0  0
  1  3  1  0  0  0  0
  2  9  1  0  0  0  0
  2  6  1  0  0  0  0
  3 20  1  0  0  0  0
  4  1  1  0  0  0  0
  5  2  1  0  0  0  0
  6 42  1  0  0  0  0
  7  8  1  6  0  0  0
  7 17  1  0  0  0  0
  7  9  1  0  0  0  0
  7  1  1  0  0  0  0
  9 10  1  1  0  0  0
 11  9  1  0  0  0  0
 11 12  1  0  0  0  0
 13 11  1  0  0  0  0
 14 11  1  0  0  0  0
 14 17  1  0  0  0  0
 14 16  1  0  0  0  0
 15 14  1  0  0  0  0
 17 18  1  0  0  0  0
 19 17  1  0  0  0  0
 20 21  2  0  0  0  0
 20 29  1  0  0  0  0
 21 23  1  0  0  0  0
 22 21  1  0  0  0  0
 23 24  1  0  0  0  0
 23 25  2  0  0  0  0
 25 26  1  0  0  0  0
 27 25  1  0  0  0  0
 27 28  1  0  0  0  0
 29 27  2  0  0  0  0
 30 29  1  0  0  0  0
 31  4  1  0  0  0  0
 31 32  1  0  0  0  0
 32 33  1  0  0  0  0
 34 32  2  0  0  0  0
 34 35  1  0  0  0  0
 36 34  1  0  0  0  0
 37 36  1  0  0  0  0
 38 40  1  0  0  0  0
 38 36  2  0  0  0  0
 39 38  1  0  0  0  0
 40 31  2  0  0  0  0
 41 40  1  0  0  0  0
 42 43  1  0  0  0  0
 43 45  2  0  0  0  0
 43 44  1  0  0  0  0
 45 46  1  0  0  0  0
 47 48  1  0  0  0  0
 47 45  1  0  0  0  0
 49 47  2  0  0  0  0
 50 49  1  0  0  0  0
 51 49  1  0  0  0  0
 51 42  2  0  0  0  0
 52 51  1  0  0  0  0
 53  5  1  0  0  0  0
 54 53  1  0  0  0  0
 54 55  1  0  0  0  0
 56 54  2  0  0  0  0
 57 56  1  0  0  0  0
 58 60  2  0  0  0  0
 58 56  1  0  0  0  0
 59 58  1  0  0  0  0
 60 62  1  0  0  0  0
 61 60  1  0  0  0  0
 62 63  1  0  0  0  0
 62 53  2  0  0  0  0
M  END
