1,2
q = 0.0, confidence = 0.994

 58 62  0  0  0  0  0  0  0  0999 V2000
   -1.5956    0.0379    0.2871 P   0  0  0  0  0  0  0  0  0  0  0  0
    1.6303    0.3512    0.2133 P   0  0  0  0  0  0  0  0  0  0  0  0
    0.9369    1.2325    1.5155 O   0  0  0  0  0  0  0  0  0  0  0  0
   -3.0723    5.0009    0.7744 O   0  0  0  0  0  0  0  0  0  0  0  0
   -1.3248    1.7825    0.7958 C   0  0  0  0  0  0  0  0  0  0  0  0
   -0.0458    2.1660    1.2751 C   0  0  0  0  0  0  0  0  0  0  0  0
    0.2202    3.5125    1.5626 C   0  0  0  0  0  0  0  0  0  0  0  0
   -0.7797    4.4807    1.4058 C   0  0  0  0  0  0  0  0  0  0  0  0
   -2.0581    4.1099    0.9434 C   0  0  0  0  0  0  0  0  0  0  0  0
   -2.3216    2.7606    0.6364 C   0  0  0  0  0  0  0  0  0  0  0  0
   -3.3226    0.0299   -0.3093 C   0  0  0  0  0  0  0  0  0  0  0  0
   -3.5856    0.3867   -1.6474 C   0  0  0  0  0  0  0  0  0  0  0  0
   -4.9103    0.4673   -2.0964 C   0  0  0  0  0  0  0  0  0  0  0  0
   -5.9716    0.1774   -1.2224 C   0  0  0  0  0  0  0  0  0  0  0  0
   -5.7084   -0.1896    0.1062 C   0  0  0  0  0  0  0  0  0  0  0  0
   -4.3845   -0.2619    0.5676 C   0  0  0  0  0  0  0  0  0  0  0  0
   -1.5789   -0.9370    1.8408 C   0  0  0  0  0  0  0  0  0  0  0  0
   -1.4680   -2.3398    1.7282 C   0  0  0  0  0  0  0  0  0  0  0  0
   -1.3890   -3.1242    2.8871 C   0  0  0  0  0  0  0  0  0  0  0  0
   -1.4084   -2.5177    4.1547 C   0  0  0  0  0  0  0  0  0  0  0  0
   -1.5208   -1.1222    4.2651 C   0  0  0  0  0  0  0  0  0  0  0  0
   -1.6103   -0.3286    3.1104 C   0  0  0  0  0  0  0  0  0  0  0  0
    2.7092    1.6231   -0.5241 C   0  0  0  0  0  0  0  0  0  0  0  0
    3.6607    2.2745    0.2891 C   0  0  0  0  0  0  0  0  0  0  0  0
    4.4201    3.3282   -0.2384 C   0  0  0  0  0  0  0  0  0  0  0  0
    4.2253    3.7388   -1.5681 C   0  0  0  0  0  0  0  0  0  0  0  0
    3.2707    3.0957   -2.3727 C   0  0  0  0  0  0  0  0  0  0  0  0
    2.5100    2.0378   -1.8546 C   0  0  0  0  0  0  0  0  0  0  0  0
    2.6620   -0.7316    1.2513 C   0  0  0  0  0  0  0  0  0  0  0  0
    3.9542   -1.1106    0.8361 C   0  0  0  0  0  0  0  0  0  0  0  0
    4.7005   -2.0000    1.6218 C   0  0  0  0  0  0  0  0  0  0  0  0
    4.1606   -2.5194    2.8096 C   0  0  0  0  0  0  0  0  0  0  0  0
    2.8695   -2.1464    3.2165 C   0  0  0  0  0  0  0  0  0  0  0  0
    2.1153   -1.2547    2.4414 C   0  0  0  0  0  0  0  0  0  0  0  0
   -2.7513    5.8893    1.0160 H   0  0  0  0  0  0  0  0  0  0  0  0
    1.2243    3.7846    1.9172 H   0  0  0  0  0  0  0  0  0  0  0  0
   -0.5638    5.5357    1.6411 H   0  0  0  0  0  0  0  0  0  0  0  0
   -3.3218    2.4919    0.2692 H   0  0  0  0  0  0  0  0  0  0  0  0
   -2.7496    0.5785   -2.3356 H   0  0  0  0  0  0  0  0  0  0  0  0
   -5.1142    0.7421   -3.1421 H   0  0  0  0  0  0  0  0  0  0  0  0
   -7.0103    0.2310   -1.5823 H   0  0  0  0  0  0  0  0  0  0  0  0
   -6.5374   -0.4241    0.7908 H   0  0  0  0  0  0  0  0  0  0  0  0
   -4.1768   -0.5497    1.6091 H   0  0  0  0  0  0  0  0  0  0  0  0
   -1.4289   -2.8031    0.7281 H   0  0  0  0  0  0  0  0  0  0  0  0
   -1.2974   -4.2170    2.7974 H   0  0  0  0  0  0  0  0  0  0  0  0
   -1.3329   -3.1362    5.0621 H   0  0  0  0  0  0  0  0  0  0  0  0
   -1.5358   -0.6453    5.2568 H   0  0  0  0  0  0  0  0  0  0  0  0
   -1.6890    0.7657    3.1943 H   0  0  0  0  0  0  0  0  0  0  0  0
    3.8056    1.9516    1.3315 H   0  0  0  0  0  0  0  0  0  0  0  0
    5.1700    3.8309    0.3913 H   0  0  0  0  0  0  0  0  0  0  0  0
    4.8244    4.5652   -1.9802 H   0  0  0  0  0  0  0  0  0  0  0  0
    3.1203    3.4152   -3.4148 H   0  0  0  0  0  0  0  0  0  0  0  0
    1.7763    1.5077   -2.4805 H   0  0  0  0  0  0  0  0  0  0  0  0
    4.3633   -0.7203   -0.1067 H   0  0  0  0  0  0  0  0  0  0  0  0
    5.7098   -2.2951    1.2976 H   0  0  0  0  0  0  0  0  0  0  0  0
    4.7484   -3.2226    3.4191 H   0  0  0  0  0  0  0  0  0  0  0  0
    2.4389   -2.5545    4.1434 H   0  0  0  0  0  0  0  0  0  0  0  0
    1.1042   -0.9648    2.7599 H   0  0  0  0  0  0  0  0  0  0  0  0
  1  5  1  0  0  0  0
  1 17  1  0  0  0  0
  2 29  1  0  0  0  0
  2  3  1  0  0  0  0
  4  9  1  0  0  0  0
  4 35  1  0  0  0  0
  5  6  1  0  0  0  0
  6  3  1  0  0  0  0
  6  7  2  0  0  0  0
  7 36  1  0  0  0  0
  8  7  1  0  0  0  0
  8 37  1  0  0  0  0
  9  8  2  0  0  0  0
 10  5  2  0  0  0  0
 10  9  1  0  0  0  0
 11  1  1  0  0  0  0
 11 16  1  0  0  0  0
 12 11  2  0  0  0  0
 13 12  1  0  0  0  0
 13 14  2  0  0  0  0
 14 15  1  0  0  0  0
 15 16  2  0  0  0  0
 15 42  1  0  0  0  0
 16 43  1  0  0  0  0
 17 22  1  0  0  0  0
 18 17  2  0  0  0  0
 18 19  1  0  0  0  0
 19 20  2  0  0  0  0
 20 21  1  0  0  0  0
 20 46  1  0  0  0  0
 21 47  1  0  0  0  0
 22 48  1  0  0  0  0
 22 21  2  0  0  0  0
 23  2  1  0  0  0  0
 23 24  1  0  0  0  0
 24 49  1  0  0  0  0
 25 24  2  0  0  0  0
 25 50  1  0  0  0  0
 26 25  1  0  0  0  0
 27 28  1  0  0  0  0
 27 26  2  0  0  0  0
 28 23  2  0  0  0  0
 29 34  1  0  0  0  0
 30 29  2  0  0  0  0
 30 31  1  0  0  0  0
 31 32  2  0  0  0  0
 32 33  1  0  0  0  0
 32 56  1  0  0  0  0
 33 57  1  0  0  0  0
 34 58  1  0  0  0  0
 34 33  2  0  0  0  0
 38 10  1  0  0  0  0
 39 12  1  0  0  0  0
 40 13  1  0  0  0  0
 41 14  1  0  0  0  0
 44 18  1  0  0  0  0
 45 19  1  0  0  0  0
 51 26  1  0  0  0  0
 52 27  1  0  0  0  0
 53 28  1  0  0  0  0
 54 30  1  0  0  0  0
 55 31  1  0  0  0  0
M  END
