1,2
q = 0.0, confidence = 0.994

 68 71  0  0  0  0  0  0  0  0999 V2000
   -1.4576   -0.3161   -0.1125 P   0  0  0  0  0  0  0  0  0  0  0  0
    1.4584    0.3157   -0.1141 P   0  0  0  0  0  0  0  0  0  0  0  0
   -2.7048    0.7799   -0.2192 O   0  0  0  0  0  0  0  0  0  0  0  0
   -2.3576   -1.7234   -0.1168 O   0  0  0  0  0  0  0  0  0  0  0  0
    2.3587    1.7228   -0.1270 O   0  0  0  0  0  0  0  0  0  0  0  0
    2.7053   -0.7812   -0.2137 O   0  0  0  0  0  0  0  0  0  0  0  0
   -0.6116   -0.3515   -1.6053 N   0  0  0  0  0  0  0  0  0  0  0  0
    0.6128    0.3417   -1.6073 N   0  0  0  0  0  0  0  0  0  0  0  0
   -3.5771   -0.0095   -2.2281 N   0  0  0  0  0  0  0  0  0  0  0  0
   -0.4587   -2.8896    0.4705 N   0  0  0  0  0  0  0  0  0  0  0  0
    0.4600    2.8932    0.4520 N   0  0  0  0  0  0  0  0  0  0  0  0
    3.5770   -0.0054   -2.2281 N   0  0  0  0  0  0  0  0  0  0  0  0
   -0.6755   -1.4939   -2.5110 C   0  0  0  0  0  0  0  0  0  0  0  0
   -0.3941   -1.1589   -3.5305 H   0  0  0  0  0  0  0  0  0  0  0  0
   -1.7213   -1.8468   -2.5449 H   0  0  0  0  0  0  0  0  0  0  0  0
   -0.0016   -2.3154   -2.1863 H   0  0  0  0  0  0  0  0  0  0  0  0
    0.6767    1.4787   -2.5199 C   0  0  0  0  0  0  0  0  0  0  0  0
    0.3952    1.1375   -3.5373 H   0  0  0  0  0  0  0  0  0  0  0  0
    1.7226    1.8313   -2.5559 H   0  0  0  0  0  0  0  0  0  0  0  0
    0.0030    2.3021   -2.2001 H   0  0  0  0  0  0  0  0  0  0  0  0
   -4.3746   -0.9433   -4.3221 C   0  0  0  0  0  0  0  0  0  0  0  0
   -3.3655   -0.9327   -4.7830 H   0  0  0  0  0  0  0  0  0  0  0  0
   -5.1290   -0.7862   -5.1152 H   0  0  0  0  0  0  0  0  0  0  0  0
   -4.5164   -1.9554   -3.8906 H   0  0  0  0  0  0  0  0  0  0  0  0
   -4.4655    0.0996   -3.2404 C   0  0  0  0  0  0  0  0  0  0  0  0
   -5.4199    1.1322   -3.2695 C   0  0  0  0  0  0  0  0  0  0  0  0
   -6.1350    1.2012   -4.1018 H   0  0  0  0  0  0  0  0  0  0  0  0
   -5.4445    2.0649   -2.2179 C   0  0  0  0  0  0  0  0  0  0  0  0
   -6.1849    2.8793   -2.2139 H   0  0  0  0  0  0  0  0  0  0  0  0
   -4.5242    1.9522   -1.1737 C   0  0  0  0  0  0  0  0  0  0  0  0
   -4.4976    2.6449   -0.3220 H   0  0  0  0  0  0  0  0  0  0  0  0
   -3.6107    0.8814   -1.2459 C   0  0  0  0  0  0  0  0  0  0  0  0
    1.6609   -3.7979    1.2071 C   0  0  0  0  0  0  0  0  0  0  0  0
    2.0963   -3.6521    0.1986 H   0  0  0  0  0  0  0  0  0  0  0  0
    2.1093   -4.6919    1.6787 H   0  0  0  0  0  0  0  0  0  0  0  0
    1.9309   -2.8972    1.8005 H   0  0  0  0  0  0  0  0  0  0  0  0
    0.1647   -3.8928    1.1256 C   0  0  0  0  0  0  0  0  0  0  0  0
   -0.5800   -4.9228    1.7297 C   0  0  0  0  0  0  0  0  0  0  0  0
   -0.0643   -5.7396    2.2545 H   0  0  0  0  0  0  0  0  0  0  0  0
   -1.9834   -4.8795    1.6699 C   0  0  0  0  0  0  0  0  0  0  0  0
   -2.5821   -5.6730    2.1420 H   0  0  0  0  0  0  0  0  0  0  0  0
   -2.6224   -3.8057    1.0397 C   0  0  0  0  0  0  0  0  0  0  0  0
   -3.7138   -3.6926    1.0061 H   0  0  0  0  0  0  0  0  0  0  0  0
   -1.7844   -2.8356    0.4704 C   0  0  0  0  0  0  0  0  0  0  0  0
   -1.6597    3.8063    1.1823 C   0  0  0  0  0  0  0  0  0  0  0  0
   -2.0948    3.6527    0.1748 H   0  0  0  0  0  0  0  0  0  0  0  0
   -2.1083    4.7040    1.6468 H   0  0  0  0  0  0  0  0  0  0  0  0
   -1.9300    2.9103    1.7826 H   0  0  0  0  0  0  0  0  0  0  0  0
   -0.1635    3.9005    1.1007 C   0  0  0  0  0  0  0  0  0  0  0  0
    0.5812    4.9340    1.6988 C   0  0  0  0  0  0  0  0  0  0  0  0
    0.0654    5.7541    2.2183 H   0  0  0  0  0  0  0  0  0  0  0  0
    1.9846    4.8900    1.6399 C   0  0  0  0  0  0  0  0  0  0  0  0
    2.5833    5.6862    2.1074 H   0  0  0  0  0  0  0  0  0  0  0  0
    2.6236    3.8122    1.0166 C   0  0  0  0  0  0  0  0  0  0  0  0
    3.7150    3.6986    0.9842 H   0  0  0  0  0  0  0  0  0  0  0  0
    1.7856    2.8388    0.4530 C   0  0  0  0  0  0  0  0  0  0  0  0
    4.3738    0.9142   -4.3286 C   0  0  0  0  0  0  0  0  0  0  0  0
    3.3645    0.9019   -4.7890 H   0  0  0  0  0  0  0  0  0  0  0  0
    5.1277    0.7515   -5.1211 H   0  0  0  0  0  0  0  0  0  0  0  0
    4.5168    1.9287   -3.9032 H   0  0  0  0  0  0  0  0  0  0  0  0
    4.4641   -0.1223   -3.2407 C   0  0  0  0  0  0  0  0  0  0  0  0
    5.4165   -1.1568   -3.2647 C   0  0  0  0  0  0  0  0  0  0  0  0
    6.1306   -1.2321   -4.0973 H   0  0  0  0  0  0  0  0  0  0  0  0
    5.4406   -2.0833   -2.2075 C   0  0  0  0  0  0  0  0  0  0  0  0
    6.1795   -2.8989   -2.1994 H   0  0  0  0  0  0  0  0  0  0  0  0
    4.5215   -1.9626   -1.1631 C   0  0  0  0  0  0  0  0  0  0  0  0
    4.4946   -2.6502   -0.3072 H   0  0  0  0  0  0  0  0  0  0  0  0
    3.6100   -0.8906   -1.2407 C   0  0  0  0  0  0  0  0  0  0  0  0
  3  1  1  0  0  0  0
  4  1  1  0  0  0  0
  4 44  1  0  0  0  0
  5  2  1  0  0  0  0
  5 56  1  0  0  0  0
  6  2  1  0  0  0  0
  7  1  1  0  0  0  0
  8  7  1  0  0  0  0
  8  2  1  0  0  0  0
  9 32  1  0  0  0  0
 10 37  1  0  0  0  0
 11 56  2  0  0  0  0
 11 49  1  0  0  0  0
 12 68  1  0  0  0  0
 13 16  1  0  0  0  0
 13  7  1  0  0  0  0
 14 13  1  0  0  0  0
 15 13  1  0  0  0  0
 17 20  1  0  0  0  0
 17  8  1  0  0  0  0
 18 17  1  0  0  0  0
 19 17  1  0  0  0  0
 21 24  1  0  0  0  0
 21 25  1  0  0  0  0
 22 21  1  0  0  0  0
 23 21  1  0  0  0  0
 25  9  2  0  0  0  0
 26 25  1  0  0  0  0
 26 28  2  0  0  0  0
 27 26  1  0  0  0  0
 28 29  1  0  0  0  0
 28 30  1  0  0  0  0
 30 31  1  0  0  0  0
 32 30  2  0  0  0  0
 32  3  1  0  0  0  0
 33 35  1  0  0  0  0
 33 36  1  0  0  0  0
 34 33  1  0  0  0  0
 37 33  1  0  0  0  0
 37 38  2  0  0  0  0
 38 39  1  0  0  0  0
 40 38  1  0  0  0  0
 40 41  1  0  0  0  0
 42 40  2  0  0  0  0
 43 42  1  0  0  0  0
 44 10  2  0  0  0  0
 44 42  1  0  0  0  0
 45 47  1  0  0  0  0
 45 48  1  0  0  0  0
 46 45  1  0  0  0  0
 49 45  1  0  0  0  0
 49 50  2  0  0  0  0
 50 51  1  0  0  0  0
 52 50  1  0  0  0  0
 52 53  1  0  0  0  0
 54 52  2  0  0  0  0
 55 54  1  0  0  0  0
 56 54  1  0  0  0  0
 57 60  1  0  0  0  0
 57 61  1  0  0  0  0
 58 57  1  0  0  0  0
 59 57  1  0  0  0  0
 61 12  2  0  0  0  0
 62 61  1  0  0  0  0
 62 64  2  0  0  0  0
 63 62  1  0  0  0  0
 64 65  1  0  0  0  0
 64 66  1  0  0  0  0
 66 67  1  0  0  0  0
 68 66  2  0  0  0  0
 68  6  1  0  0  0  0
M  END
