1,2
 OpenBabel05122313063D

 70 70  0  0  0  0  0  0  0  0999 V2000
   -1.9584   -0.1197    0.3290 P   0  0  0  0  0  0  0  0  0  0  0  0
    1.7334    0.6035    0.4789 P   0  0  0  0  0  0  0  0  0  0  0  0
   -3.0656   -0.9677    1.6758 C   0  0  0  0  0  0  0  0  0  0  0  0
   -2.0719   -1.3742    2.7808 C   0  0  0  0  0  0  0  0  0  0  0  0
   -1.5279   -0.5002    3.1944 H   0  0  0  0  0  0  0  0  0  0  0  0
   -1.3311   -2.1000    2.3917 H   0  0  0  0  0  0  0  0  0  0  0  0
   -2.6252   -1.8476    3.6200 H   0  0  0  0  0  0  0  0  0  0  0  0
   -4.1487   -0.0525    2.2750 C   0  0  0  0  0  0  0  0  0  0  0  0
   -3.7327    0.7917    2.8578 H   0  0  0  0  0  0  0  0  0  0  0  0
   -4.7633   -0.6545    2.9776 H   0  0  0  0  0  0  0  0  0  0  0  0
   -4.8366    0.3556    1.5082 H   0  0  0  0  0  0  0  0  0  0  0  0
   -3.7491   -2.2345    1.1334 C   0  0  0  0  0  0  0  0  0  0  0  0
   -3.0277   -2.9052    0.6297 H   0  0  0  0  0  0  0  0  0  0  0  0
   -4.5782   -1.9921    0.4405 H   0  0  0  0  0  0  0  0  0  0  0  0
   -4.1909   -2.7851    1.9917 H   0  0  0  0  0  0  0  0  0  0  0  0
   -2.8368   -0.0824   -1.3819 C   0  0  0  0  0  0  0  0  0  0  0  0
   -2.9905   -1.5074   -1.9491 C   0  0  0  0  0  0  0  0  0  0  0  0
   -2.0674   -2.1080   -1.8318 H   0  0  0  0  0  0  0  0  0  0  0  0
   -3.2304   -1.4270   -3.0307 H   0  0  0  0  0  0  0  0  0  0  0  0
   -3.8098   -2.0705   -1.4697 H   0  0  0  0  0  0  0  0  0  0  0  0
   -4.2112    0.6007   -1.3420 C   0  0  0  0  0  0  0  0  0  0  0  0
   -4.9296    0.0403   -0.7118 H   0  0  0  0  0  0  0  0  0  0  0  0
   -4.6336    0.6353   -2.3693 H   0  0  0  0  0  0  0  0  0  0  0  0
   -4.1655    1.6431   -0.9740 H   0  0  0  0  0  0  0  0  0  0  0  0
   -1.8743    0.6753   -2.3230 C   0  0  0  0  0  0  0  0  0  0  0  0
   -0.8795    0.1845   -2.3409 H   0  0  0  0  0  0  0  0  0  0  0  0
   -1.7242    1.7321   -2.0410 H   0  0  0  0  0  0  0  0  0  0  0  0
   -2.2883    0.6529   -3.3536 H   0  0  0  0  0  0  0  0  0  0  0  0
   -2.0855    1.6573    0.9533 C   0  0  0  0  0  0  0  0  0  0  0  0
   -3.1569    1.8998    1.0748 H   0  0  0  0  0  0  0  0  0  0  0  0
   -1.6624    1.5930    1.9790 H   0  0  0  0  0  0  0  0  0  0  0  0
   -1.4298    2.7719    0.1839 C   0  0  0  0  0  0  0  0  0  0  0  0
   -2.2588    3.6701   -0.5258 C   0  0  0  0  0  0  0  0  0  0  0  0
   -3.3476    3.5096   -0.5039 H   0  0  0  0  0  0  0  0  0  0  0  0
   -1.7437    4.7527   -1.2460 C   0  0  0  0  0  0  0  0  0  0  0  0
   -2.4213    5.4248   -1.7934 H   0  0  0  0  0  0  0  0  0  0  0  0
   -0.3605    4.9801   -1.2383 C   0  0  0  0  0  0  0  0  0  0  0  0
    0.0716    5.8350   -1.7795 H   0  0  0  0  0  0  0  0  0  0  0  0
    0.4691    4.1256   -0.5038 C   0  0  0  0  0  0  0  0  0  0  0  0
    1.5457    4.3451   -0.4608 H   0  0  0  0  0  0  0  0  0  0  0  0
   -0.0296    3.0076    0.2026 C   0  0  0  0  0  0  0  0  0  0  0  0
    0.9100    2.2008    1.0637 C   0  0  0  0  0  0  0  0  0  0  0  0
    0.3804    1.8692    1.9798 H   0  0  0  0  0  0  0  0  0  0  0  0
    1.7297    2.8616    1.4032 H   0  0  0  0  0  0  0  0  0  0  0  0
    2.9884    1.1990   -0.8550 C   0  0  0  0  0  0  0  0  0  0  0  0
    3.7636    2.4664   -0.4592 C   0  0  0  0  0  0  0  0  0  0  0  0
    4.4536    2.2778    0.3857 H   0  0  0  0  0  0  0  0  0  0  0  0
    3.1162    3.3191   -0.1885 H   0  0  0  0  0  0  0  0  0  0  0  0
    4.3854    2.7908   -1.3207 H   0  0  0  0  0  0  0  0  0  0  0  0
    2.1155    1.4600   -2.1014 C   0  0  0  0  0  0  0  0  0  0  0  0
    1.6166    0.5290   -2.4344 H   0  0  0  0  0  0  0  0  0  0  0  0
    2.7605    1.8218   -2.9304 H   0  0  0  0  0  0  0  0  0  0  0  0
    1.3288    2.2175   -1.9274 H   0  0  0  0  0  0  0  0  0  0  0  0
    4.0257    0.1168   -1.2074 C   0  0  0  0  0  0  0  0  0  0  0  0
    3.5905   -0.8892   -1.3235 H   0  0  0  0  0  0  0  0  0  0  0  0
    4.8271    0.0454   -0.4503 H   0  0  0  0  0  0  0  0  0  0  0  0
    4.5053    0.3939   -2.1700 H   0  0  0  0  0  0  0  0  0  0  0  0
    2.6131    0.1359    2.1390 C   0  0  0  0  0  0  0  0  0  0  0  0
    1.5195   -0.5159    3.0074 C   0  0  0  0  0  0  0  0  0  0  0  0
    0.6828    0.1759    3.2320 H   0  0  0  0  0  0  0  0  0  0  0  0
    1.9629   -0.8220    3.9787 H   0  0  0  0  0  0  0  0  0  0  0  0
    1.0979   -1.4153    2.5149 H   0  0  0  0  0  0  0  0  0  0  0  0
    3.2150    1.3302    2.8999 C   0  0  0  0  0  0  0  0  0  0  0  0
    2.4529    2.0498    3.2558 H   0  0  0  0  0  0  0  0  0  0  0  0
    3.9670    1.8823    2.3043 H   0  0  0  0  0  0  0  0  0  0  0  0
    3.7353    0.9420    3.8013 H   0  0  0  0  0  0  0  0  0  0  0  0
    3.7125   -0.9105    1.8901 C   0  0  0  0  0  0  0  0  0  0  0  0
    4.6161   -0.4626    1.4361 H   0  0  0  0  0  0  0  0  0  0  0  0
    3.3649   -1.7450    1.2520 H   0  0  0  0  0  0  0  0  0  0  0  0
    4.0189   -1.3343    2.8702 H   0  0  0  0  0  0  0  0  0  0  0  0
  1 29  1  0  0  0  0
  1  3  1  0  0  0  0
  2 42  1  0  0  0  0
  2 58  1  0  0  0  0
  3  8  1  0  0  0  0
  3  4  1  0  0  0  0
  4  5  1  0  0  0  0
  4  7  1  0  0  0  0
  6  4  1  0  0  0  0
  8  9  1  0  0  0  0
  8 10  1  0  0  0  0
 11  8  1  0  0  0  0
 12  3  1  0  0  0  0
 12 15  1  0  0  0  0
 13 12  1  0  0  0  0
 14 12  1  0  0  0  0
 16 21  1  0  0  0  0
 16  1  1  0  0  0  0
 17 18  1  0  0  0  0
 17 20  1  0  0  0  0
 17 16  1  0  0  0  0
 19 17  1  0  0  0  0
 21 24  1  0  0  0  0
 21 22  1  0  0  0  0
 23 21  1  0  0  0  0
 25 27  1  0  0  0  0
 25 16  1  0  0  0  0
 26 25  1  0  0  0  0
 28 25  1  0  0  0  0
 29 30  1  0  0  0  0
 29 31  1  0  0  0  0
 32 41  1  0  0  0  0
 32 29  1  0  0  0  0
 33 34  1  0  0  0  0
 33 32  2  0  0  0  0
 35 37  2  0  0  0  0
 35 33  1  0  0  0  0
 36 35  1  0  0  0  0
 37 39  1  0  0  0  0
 38 37  1  0  0  0  0
 39 40  1  0  0  0  0
 39 41  2  0  0  0  0
 41 42  1  0  0  0  0
 42 44  1  0  0  0  0
 42 43  1  0  0  0  0
 45 46  1  0  0  0  0
 45  2  1  0  0  0  0
 46 48  1  0  0  0  0
 46 47  1  0  0  0  0
 49 46  1  0  0  0  0
 50 53  1  0  0  0  0
 50 45  1  0  0  0  0
 51 50  1  0  0  0  0
 52 50  1  0  0  0  0
 54 45  1  0  0  0  0
 54 56  1  0  0  0  0
 55 54  1  0  0  0  0
 57 54  1  0  0  0  0
 58 63  1  0  0  0  0
 58 59  1  0  0  0  0
 59 60  1  0  0  0  0
 59 61  1  0  0  0  0
 62 59  1  0  0  0  0
 63 64  1  0  0  0  0
 63 66  1  0  0  0  0
 65 63  1  0  0  0  0
 67 58  1  0  0  0  0
 67 70  1  0  0  0  0
 68 67  1  0  0  0  0
 69 67  1  0  0  0  0
M  END
