1,2
 OpenBabel05122313063D

 36 35  0  0  0  0  0  0  0  0999 V2000
    2.1308    0.9168   -1.1284 P   0  0  0  0  0  0  0  0  0  0  0  0
    2.2292   -0.7555    1.3896 P   0  0  0  0  0  0  0  0  0  0  0  0
    3.5964    1.2460    0.0063 C   0  0  0  0  0  0  0  0  0  0  0  0
    4.4936    1.5374   -0.5781 H   0  0  0  0  0  0  0  0  0  0  0  0
    3.3081    2.1231    0.6227 H   0  0  0  0  0  0  0  0  0  0  0  0
    3.8580    0.0289    0.9012 C   0  0  0  0  0  0  0  0  0  0  0  0
    4.4582    0.2871    1.7990 H   0  0  0  0  0  0  0  0  0  0  0  0
    4.4210   -0.7503    0.3469 H   0  0  0  0  0  0  0  0  0  0  0  0
    2.9094    0.3951   -2.7347 C   0  0  0  0  0  0  0  0  0  0  0  0
    2.1162    0.4980   -3.5043 H   0  0  0  0  0  0  0  0  0  0  0  0
    3.7107    1.1188   -2.9932 H   0  0  0  0  0  0  0  0  0  0  0  0
    3.4351   -1.0401   -2.7020 C   0  0  0  0  0  0  0  0  0  0  0  0
    3.8239   -1.3438   -3.6948 H   0  0  0  0  0  0  0  0  0  0  0  0
    2.6301   -1.7460   -2.4145 H   0  0  0  0  0  0  0  0  0  0  0  0
    4.2628   -1.1598   -1.9734 H   0  0  0  0  0  0  0  0  0  0  0  0
    1.4800    2.6186   -1.4853 C   0  0  0  0  0  0  0  0  0  0  0  0
    0.6145    2.4685   -2.1637 H   0  0  0  0  0  0  0  0  0  0  0  0
    1.0478    2.9693   -0.5243 H   0  0  0  0  0  0  0  0  0  0  0  0
    2.4683    3.6368   -2.0545 C   0  0  0  0  0  0  0  0  0  0  0  0
    1.9763    4.6213   -2.1913 H   0  0  0  0  0  0  0  0  0  0  0  0
    2.8598    3.3270   -3.0439 H   0  0  0  0  0  0  0  0  0  0  0  0
    3.3364    3.7945   -1.3825 H   0  0  0  0  0  0  0  0  0  0  0  0
    1.8451   -0.0829    3.0759 C   0  0  0  0  0  0  0  0  0  0  0  0
    0.8557   -0.5259    3.3220 H   0  0  0  0  0  0  0  0  0  0  0  0
    2.5832   -0.4876    3.8018 H   0  0  0  0  0  0  0  0  0  0  0  0
    1.7819    1.4428    3.1316 C   0  0  0  0  0  0  0  0  0  0  0  0
    1.4262    1.7893    4.1227 H   0  0  0  0  0  0  0  0  0  0  0  0
    1.0831    1.8385    2.3682 H   0  0  0  0  0  0  0  0  0  0  0  0
    2.7756    1.9053    2.9601 H   0  0  0  0  0  0  0  0  0  0  0  0
    2.6560   -2.5187    1.7705 C   0  0  0  0  0  0  0  0  0  0  0  0
    3.5431   -2.5328    2.4407 H   0  0  0  0  0  0  0  0  0  0  0  0
    1.7886   -2.8974    2.3518 H   0  0  0  0  0  0  0  0  0  0  0  0
    2.8568   -3.3722    0.5193 C   0  0  0  0  0  0  0  0  0  0  0  0
    3.0845   -4.4227    0.7904 H   0  0  0  0  0  0  0  0  0  0  0  0
    3.6916   -3.0032   -0.1116 H   0  0  0  0  0  0  0  0  0  0  0  0
    1.9335   -3.3634   -0.0944 H   0  0  0  0  0  0  0  0  0  0  0  0
  1  3  1  0  0  0  0
  2 30  1  0  0  0  0
  2 23  1  0  0  0  0
  3  5  1  0  0  0  0
  3  6  1  0  0  0  0
  4  3  1  0  0  0  0
  6  2  1  0  0  0  0
  6  7  1  0  0  0  0
  8  6  1  0  0  0  0
  9 12  1  0  0  0  0
  9  1  1  0  0  0  0
 10  9  1  0  0  0  0
 11  9  1  0  0  0  0
 12 14  1  0  0  0  0
 12 15  1  0  0  0  0
 13 12  1  0  0  0  0
 16  1  1  0  0  0  0
 16 18  1  0  0  0  0
 17 16  1  0  0  0  0
 19 16  1  0  0  0  0
 19 22  1  0  0  0  0
 20 19  1  0  0  0  0
 21 19  1  0  0  0  0
 23 26  1  0  0  0  0
 23 24  1  0  0  0  0
 23 25  1  0  0  0  0
 26 27  1  0  0  0  0
 28 26  1  0  0  0  0
 29 26  1  0  0  0  0
 30 32  1  0  0  0  0
 30 31  1  0  0  0  0
 33 34  1  0  0  0  0
 33 30  1  0  0  0  0
 35 33  1  0  0  0  0
 36 33  1  0  0  0  0
M  END
