1,29
 OpenBabel05122313063D

 51 50  0  0  0  0  0  0  0  0999 V2000
    1.7024    0.0611    0.4372 P   0  0  0  0  0  0  0  0  0  0  0  0
    2.7820   -1.4683    0.5424 C   0  0  0  0  0  0  0  0  0  0  0  0
    3.4746   -1.2802    1.3945 H   0  0  0  0  0  0  0  0  0  0  0  0
    1.9247   -2.6996    0.8610 C   0  0  0  0  0  0  0  0  0  0  0  0
    2.5739   -3.5930    0.9678 H   0  0  0  0  0  0  0  0  0  0  0  0
    1.2070   -2.8935    0.0385 H   0  0  0  0  0  0  0  0  0  0  0  0
    1.3478   -2.5925    1.8008 H   0  0  0  0  0  0  0  0  0  0  0  0
    3.5774   -1.6666   -0.7549 C   0  0  0  0  0  0  0  0  0  0  0  0
    2.9027   -1.5803   -1.6318 H   0  0  0  0  0  0  0  0  0  0  0  0
    4.0657   -2.6628   -0.7455 H   0  0  0  0  0  0  0  0  0  0  0  0
    4.3729   -0.9049   -0.8742 H   0  0  0  0  0  0  0  0  0  0  0  0
    2.8221    1.4394   -0.1323 C   0  0  0  0  0  0  0  0  0  0  0  0
    3.0997    1.0660   -1.1410 H   0  0  0  0  0  0  0  0  0  0  0  0
    2.0235    2.7330   -0.3288 C   0  0  0  0  0  0  0  0  0  0  0  0
    2.6898    3.5310   -0.7166 H   0  0  0  0  0  0  0  0  0  0  0  0
    1.5805    3.1075    0.6189 H   0  0  0  0  0  0  0  0  0  0  0  0
    1.2059    2.5826   -1.0604 H   0  0  0  0  0  0  0  0  0  0  0  0
    4.0571    1.6327    0.7518 C   0  0  0  0  0  0  0  0  0  0  0  0
    3.7860    1.9949    1.7656 H   0  0  0  0  0  0  0  0  0  0  0  0
    4.7265    2.3959    0.3030 H   0  0  0  0  0  0  0  0  0  0  0  0
    4.6496    0.7035    0.8678 H   0  0  0  0  0  0  0  0  0  0  0  0
    1.2970    0.4789    2.2031 C   0  0  0  0  0  0  0  0  0  0  0  0
    2.1624    0.1681    2.8250 H   0  0  0  0  0  0  0  0  0  0  0  0
    1.2503    1.5879    2.2589 H   0  0  0  0  0  0  0  0  0  0  0  0
   -0.0001   -0.1153    2.7746 C   0  0  0  0  0  0  0  0  0  0  0  0
   -0.0002    0.0634    3.8711 H   0  0  0  0  0  0  0  0  0  0  0  0
   -0.0002   -1.2179    2.6545 H   0  0  0  0  0  0  0  0  0  0  0  0
   -1.2972    0.4790    2.2029 C   0  0  0  0  0  0  0  0  0  0  0  0
   -1.7025    0.0611    0.4370 P   0  0  0  0  0  0  0  0  0  0  0  0
   -2.7819   -1.4683    0.5426 C   0  0  0  0  0  0  0  0  0  0  0  0
   -3.4747   -1.2799    1.3944 H   0  0  0  0  0  0  0  0  0  0  0  0
   -1.9246   -2.6993    0.8621 C   0  0  0  0  0  0  0  0  0  0  0  0
   -2.5737   -3.5927    0.9690 H   0  0  0  0  0  0  0  0  0  0  0  0
   -1.2066   -2.8935    0.0398 H   0  0  0  0  0  0  0  0  0  0  0  0
   -1.3480   -2.5917    1.8020 H   0  0  0  0  0  0  0  0  0  0  0  0
   -3.5770   -1.6672   -0.7548 C   0  0  0  0  0  0  0  0  0  0  0  0
   -2.9021   -1.5814   -1.6316 H   0  0  0  0  0  0  0  0  0  0  0  0
   -4.0653   -2.6635   -0.7450 H   0  0  0  0  0  0  0  0  0  0  0  0
   -4.3725   -0.9056   -0.8746 H   0  0  0  0  0  0  0  0  0  0  0  0
   -2.8222    1.4393   -0.1327 C   0  0  0  0  0  0  0  0  0  0  0  0
   -3.0996    1.0659   -1.1414 H   0  0  0  0  0  0  0  0  0  0  0  0
   -2.0237    2.7330   -0.3291 C   0  0  0  0  0  0  0  0  0  0  0  0
   -2.6900    3.5309   -0.7171 H   0  0  0  0  0  0  0  0  0  0  0  0
   -1.5811    3.1077    0.6188 H   0  0  0  0  0  0  0  0  0  0  0  0
   -1.2059    2.5827   -1.0604 H   0  0  0  0  0  0  0  0  0  0  0  0
   -4.0574    1.6325    0.7512 C   0  0  0  0  0  0  0  0  0  0  0  0
   -3.7865    1.9947    1.7651 H   0  0  0  0  0  0  0  0  0  0  0  0
   -4.7267    2.3957    0.3023 H   0  0  0  0  0  0  0  0  0  0  0  0
   -4.6499    0.7033    0.8671 H   0  0  0  0  0  0  0  0  0  0  0  0
   -2.1626    0.1684    2.8248 H   0  0  0  0  0  0  0  0  0  0  0  0
   -1.2504    1.5881    2.2588 H   0  0  0  0  0  0  0  0  0  0  0  0
  1  2  1  0  0  0  0
  1 22  1  0  0  0  0
  2  4  1  0  0  0  0
  2  3  1  0  0  0  0
  4  5  1  0  0  0  0
  4  7  1  0  0  0  0
  6  4  1  0  0  0  0
  8 10  1  0  0  0  0
  8  2  1  0  0  0  0
  9  8  1  0  0  0  0
 11  8  1  0  0  0  0
 12  1  1  0  0  0  0
 12 18  1  0  0  0  0
 13 12  1  0  0  0  0
 14 12  1  0  0  0  0
 14 16  1  0  0  0  0
 15 14  1  0  0  0  0
 17 14  1  0  0  0  0
 18 21  1  0  0  0  0
 18 19  1  0  0  0  0
 20 18  1  0  0  0  0
 22 24  1  0  0  0  0
 22 25  1  0  0  0  0
 22 23  1  0  0  0  0
 25 26  1  0  0  0  0
 27 25  1  0  0  0  0
 28 51  1  0  0  0  0
 28 25  1  0  0  0  0
 28 50  1  0  0  0  0
 29 30  1  0  0  0  0
 29 28  1  0  0  0  0
 30 32  1  0  0  0  0
 30 31  1  0  0  0  0
 32 33  1  0  0  0  0
 32 35  1  0  0  0  0
 34 32  1  0  0  0  0
 36 38  1  0  0  0  0
 36 30  1  0  0  0  0
 37 36  1  0  0  0  0
 39 36  1  0  0  0  0
 40 29  1  0  0  0  0
 40 46  1  0  0  0  0
 41 40  1  0  0  0  0
 42 40  1  0  0  0  0
 42 44  1  0  0  0  0
 43 42  1  0  0  0  0
 45 42  1  0  0  0  0
 46 49  1  0  0  0  0
 46 47  1  0  0  0  0
 48 46  1  0  0  0  0
M  END
