1,2
 OpenBabel05122313063D

 65 68  0  0  0  0  0  0  0  0999 V2000
    1.7694    0.9849   -0.0112 P   0  0  0  0  0  0  0  0  0  0  0  0
   -1.0102   -0.5120    0.0315 P   0  0  0  0  0  0  0  0  0  0  0  0
   -0.0402    3.4547   -0.2770 C   0  0  0  0  0  0  0  0  0  0  0  0
    0.3428    3.9655    0.6345 H   0  0  0  0  0  0  0  0  0  0  0  0
    0.4757    3.9455   -1.1264 H   0  0  0  0  0  0  0  0  0  0  0  0
    0.2142    1.9601   -0.2057 C   0  0  0  0  0  0  0  0  0  0  0  0
   -0.9932    1.3001   -0.2105 C   0  0  0  0  0  0  0  0  0  0  0  0
   -2.1004    2.2548   -0.3452 C   0  0  0  0  0  0  0  0  0  0  0  0
   -3.4921    2.0693   -0.4260 C   0  0  0  0  0  0  0  0  0  0  0  0
   -3.9267    1.0608   -0.4045 H   0  0  0  0  0  0  0  0  0  0  0  0
   -4.3113    3.2025   -0.5431 C   0  0  0  0  0  0  0  0  0  0  0  0
   -5.4024    3.0782   -0.6111 H   0  0  0  0  0  0  0  0  0  0  0  0
   -3.7560    4.4959   -0.5771 C   0  0  0  0  0  0  0  0  0  0  0  0
   -4.4187    5.3696   -0.6697 H   0  0  0  0  0  0  0  0  0  0  0  0
   -2.3639    4.6847   -0.4957 C   0  0  0  0  0  0  0  0  0  0  0  0
   -1.9360    5.6987   -0.5228 H   0  0  0  0  0  0  0  0  0  0  0  0
   -1.5410    3.5607   -0.3801 C   0  0  0  0  0  0  0  0  0  0  0  0
    2.4663    1.5646    1.6738 C   0  0  0  0  0  0  0  0  0  0  0  0
    1.2868    1.4459    2.6588 C   0  0  0  0  0  0  0  0  0  0  0  0
    1.6538    1.6553    3.6853 H   0  0  0  0  0  0  0  0  0  0  0  0
    0.8601    0.4221    2.6522 H   0  0  0  0  0  0  0  0  0  0  0  0
    0.4699    2.1616    2.4388 H   0  0  0  0  0  0  0  0  0  0  0  0
    2.9997    3.0050    1.6456 C   0  0  0  0  0  0  0  0  0  0  0  0
    3.3177    3.2881    2.6715 H   0  0  0  0  0  0  0  0  0  0  0  0
    2.2389    3.7433    1.3256 H   0  0  0  0  0  0  0  0  0  0  0  0
    3.8846    3.1093    0.9889 H   0  0  0  0  0  0  0  0  0  0  0  0
    3.5784    0.6017    2.1266 C   0  0  0  0  0  0  0  0  0  0  0  0
    3.8695    0.8699    3.1643 H   0  0  0  0  0  0  0  0  0  0  0  0
    4.4808    0.6678    1.4926 H   0  0  0  0  0  0  0  0  0  0  0  0
    3.2438   -0.4529    2.1083 H   0  0  0  0  0  0  0  0  0  0  0  0
    2.8840    1.4516   -1.4978 C   0  0  0  0  0  0  0  0  0  0  0  0
    2.3633    0.5993   -2.6721 C   0  0  0  0  0  0  0  0  0  0  0  0
    2.9287    0.8680   -3.5896 H   0  0  0  0  0  0  0  0  0  0  0  0
    1.2872    0.7877   -2.8678 H   0  0  0  0  0  0  0  0  0  0  0  0
    2.5001   -0.4815   -2.4734 H   0  0  0  0  0  0  0  0  0  0  0  0
    4.3432    1.0715   -1.1909 C   0  0  0  0  0  0  0  0  0  0  0  0
    4.9327    1.1720   -2.1268 H   0  0  0  0  0  0  0  0  0  0  0  0
    4.4211    0.0223   -0.8415 H   0  0  0  0  0  0  0  0  0  0  0  0
    4.8001    1.7458   -0.4403 H   0  0  0  0  0  0  0  0  0  0  0  0
    2.8046    2.9384   -1.8836 C   0  0  0  0  0  0  0  0  0  0  0  0
    3.5788    3.1372   -2.6544 H   0  0  0  0  0  0  0  0  0  0  0  0
    3.0007    3.6244   -1.0379 H   0  0  0  0  0  0  0  0  0  0  0  0
    1.8289    3.1962   -2.3377 H   0  0  0  0  0  0  0  0  0  0  0  0
   -2.0877   -1.1755   -1.2933 C   0  0  0  0  0  0  0  0  0  0  0  0
   -1.5210   -1.3308   -2.5742 C   0  0  0  0  0  0  0  0  0  0  0  0
   -0.4514   -1.1137   -2.7205 H   0  0  0  0  0  0  0  0  0  0  0  0
   -2.3110   -1.7913   -3.6353 C   0  0  0  0  0  0  0  0  0  0  0  0
   -1.8645   -1.9169   -4.6331 H   0  0  0  0  0  0  0  0  0  0  0  0
   -3.6621   -2.1118   -3.4211 C   0  0  0  0  0  0  0  0  0  0  0  0
   -4.2783   -2.4828   -4.2541 H   0  0  0  0  0  0  0  0  0  0  0  0
   -4.2218   -1.9752   -2.1414 C   0  0  0  0  0  0  0  0  0  0  0  0
   -5.2755   -2.2410   -1.9675 H   0  0  0  0  0  0  0  0  0  0  0  0
   -3.4380   -1.5075   -1.0751 C   0  0  0  0  0  0  0  0  0  0  0  0
   -3.8727   -1.4165   -0.0681 H   0  0  0  0  0  0  0  0  0  0  0  0
   -1.9053   -0.7767    1.6103 C   0  0  0  0  0  0  0  0  0  0  0  0
   -2.3377    0.2958    2.4168 C   0  0  0  0  0  0  0  0  0  0  0  0
   -2.1830    1.3346    2.0932 H   0  0  0  0  0  0  0  0  0  0  0  0
   -2.9726    0.0389    3.6418 C   0  0  0  0  0  0  0  0  0  0  0  0
   -3.3085    0.8807    4.2661 H   0  0  0  0  0  0  0  0  0  0  0  0
   -3.1783   -1.2824    4.0670 C   0  0  0  0  0  0  0  0  0  0  0  0
   -3.6769   -1.4803    5.0281 H   0  0  0  0  0  0  0  0  0  0  0  0
   -2.7374   -2.3511    3.2686 C   0  0  0  0  0  0  0  0  0  0  0  0
   -2.8819   -3.3889    3.6049 H   0  0  0  0  0  0  0  0  0  0  0  0
   -2.0968   -2.1066    2.0464 C   0  0  0  0  0  0  0  0  0  0  0  0
   -1.7058   -2.9353    1.4328 H   0  0  0  0  0  0  0  0  0  0  0  0
  1 18  1  0  0  0  0
  2 55  1  0  0  0  0
  3  6  1  0  0  0  0
  3  4  1  0  0  0  0
  5  3  1  0  0  0  0
  6  1  1  0  0  0  0
  7  6  2  0  0  0  0
  7  2  1  0  0  0  0
  8  7  1  0  0  0  0
  9 10  1  0  0  0  0
  9  8  2  0  0  0  0
 11  9  1  0  0  0  0
 12 11  1  0  0  0  0
 13 11  2  0  0  0  0
 13 15  1  0  0  0  0
 14 13  1  0  0  0  0
 15 17  2  0  0  0  0
 16 15  1  0  0  0  0
 17  8  1  0  0  0  0
 17  3  1  0  0  0  0
 18 27  1  0  0  0  0
 18 19  1  0  0  0  0
 19 20  1  0  0  0  0
 21 19  1  0  0  0  0
 22 19  1  0  0  0  0
 23 18  1  0  0  0  0
 23 24  1  0  0  0  0
 25 23  1  0  0  0  0
 26 23  1  0  0  0  0
 27 28  1  0  0  0  0
 29 27  1  0  0  0  0
 30 27  1  0  0  0  0
 31 36  1  0  0  0  0
 31  1  1  0  0  0  0
 32 35  1  0  0  0  0
 32 31  1  0  0  0  0
 33 32  1  0  0  0  0
 34 32  1  0  0  0  0
 36 38  1  0  0  0  0
 36 39  1  0  0  0  0
 37 36  1  0  0  0  0
 40 31  1  0  0  0  0
 40 42  1  0  0  0  0
 41 40  1  0  0  0  0
 43 40  1  0  0  0  0
 44 53  1  0  0  0  0
 44  2  1  0  0  0  0
 45 44  2  0  0  0  0
 46 45  1  0  0  0  0
 47 49  2  0  0  0  0
 47 45  1  0  0  0  0
 48 47  1  0  0  0  0
 49 51  1  0  0  0  0
 50 49  1  0  0  0  0
 51 52  1  0  0  0  0
 51 53  2  0  0  0  0
 53 54  1  0  0  0  0
 55 64  2  0  0  0  0
 55 56  1  0  0  0  0
 56 58  2  0  0  0  0
 57 56  1  0  0  0  0
 58 60  1  0  0  0  0
 58 59  1  0  0  0  0
 60 61  1  0  0  0  0
 62 63  1  0  0  0  0
 62 60  2  0  0  0  0
 64 62  1  0  0  0  0
 65 64  1  0  0  0  0
M  END
