1,2
 OpenBabel05122313063D

 62 65  0  0  0  0  0  0  0  0999 V2000
    1.4192   -0.0265    0.0087 P   0  0  0  0  0  0  0  0  0  0  0  0
   -1.6208   -0.1182    0.1871 P   0  0  0  0  0  0  0  0  0  0  0  0
    0.6875    0.1507    1.7346 C   0  0  0  0  0  0  0  0  0  0  0  0
   -0.6653    0.0699    1.7400 C   0  0  0  0  0  0  0  0  0  0  0  0
   -1.2377    0.1829    2.6778 H   0  0  0  0  0  0  0  0  0  0  0  0
    1.4626    0.5073    3.0281 C   0  0  0  0  0  0  0  0  0  0  0  0
    0.9726   -0.3846    4.1911 C   0  0  0  0  0  0  0  0  0  0  0  0
    1.1555   -1.4570    3.9783 H   0  0  0  0  0  0  0  0  0  0  0  0
   -0.1084   -0.2569    4.3955 H   0  0  0  0  0  0  0  0  0  0  0  0
    1.5210   -0.1236    5.1189 H   0  0  0  0  0  0  0  0  0  0  0  0
    2.9928    0.3594    2.9291 C   0  0  0  0  0  0  0  0  0  0  0  0
    3.4186    0.9834    2.1230 H   0  0  0  0  0  0  0  0  0  0  0  0
    3.3062   -0.6864    2.7591 H   0  0  0  0  0  0  0  0  0  0  0  0
    3.4457    0.6965    3.8833 H   0  0  0  0  0  0  0  0  0  0  0  0
    1.1485    1.9897    3.3543 C   0  0  0  0  0  0  0  0  0  0  0  0
    1.6843    2.2975    4.2757 H   0  0  0  0  0  0  0  0  0  0  0  0
    0.0635    2.1440    3.5215 H   0  0  0  0  0  0  0  0  0  0  0  0
    1.4715    2.6557    2.5300 H   0  0  0  0  0  0  0  0  0  0  0  0
    2.6683   -1.3668    0.1484 C   0  0  0  0  0  0  0  0  0  0  0  0
    2.4930   -2.3862    1.1073 C   0  0  0  0  0  0  0  0  0  0  0  0
    1.6751   -2.3129    1.8401 H   0  0  0  0  0  0  0  0  0  0  0  0
    3.3348   -3.5069    1.1177 C   0  0  0  0  0  0  0  0  0  0  0  0
    3.1832   -4.2936    1.8721 H   0  0  0  0  0  0  0  0  0  0  0  0
    4.3569   -3.6306    0.1639 C   0  0  0  0  0  0  0  0  0  0  0  0
    5.0177   -4.5104    0.1719 H   0  0  0  0  0  0  0  0  0  0  0  0
    4.5143   -2.6388   -0.8166 C   0  0  0  0  0  0  0  0  0  0  0  0
    5.2925   -2.7418   -1.5879 H   0  0  0  0  0  0  0  0  0  0  0  0
    3.6694   -1.5193   -0.8352 C   0  0  0  0  0  0  0  0  0  0  0  0
    3.7733   -0.7811   -1.6430 H   0  0  0  0  0  0  0  0  0  0  0  0
    2.3328    1.5727   -0.1779 C   0  0  0  0  0  0  0  0  0  0  0  0
    1.5369    2.7367   -0.2394 C   0  0  0  0  0  0  0  0  0  0  0  0
    0.4416    2.6585   -0.1771 H   0  0  0  0  0  0  0  0  0  0  0  0
    2.1290    3.9991   -0.3780 C   0  0  0  0  0  0  0  0  0  0  0  0
    1.4908    4.8944   -0.4237 H   0  0  0  0  0  0  0  0  0  0  0  0
    3.5251    4.1168   -0.4707 C   0  0  0  0  0  0  0  0  0  0  0  0
    3.9908    5.1068   -0.5897 H   0  0  0  0  0  0  0  0  0  0  0  0
    4.3230    2.9643   -0.4131 C   0  0  0  0  0  0  0  0  0  0  0  0
    5.4185    3.0464   -0.4813 H   0  0  0  0  0  0  0  0  0  0  0  0
    3.7339    1.6989   -0.2619 C   0  0  0  0  0  0  0  0  0  0  0  0
    4.3755    0.8095   -0.1936 H   0  0  0  0  0  0  0  0  0  0  0  0
   -2.5118    1.4973    0.0900 C   0  0  0  0  0  0  0  0  0  0  0  0
   -2.1250    2.6263    0.8373 C   0  0  0  0  0  0  0  0  0  0  0  0
   -1.3117    2.5479    1.5739 H   0  0  0  0  0  0  0  0  0  0  0  0
   -2.7707    3.8589    0.6406 C   0  0  0  0  0  0  0  0  0  0  0  0
   -2.4612    4.7356    1.2300 H   0  0  0  0  0  0  0  0  0  0  0  0
   -3.8037    3.9714   -0.3008 C   0  0  0  0  0  0  0  0  0  0  0  0
   -4.3068    4.9377   -0.4562 H   0  0  0  0  0  0  0  0  0  0  0  0
   -4.1917    2.8465   -1.0491 C   0  0  0  0  0  0  0  0  0  0  0  0
   -4.9977    2.9301   -1.7938 H   0  0  0  0  0  0  0  0  0  0  0  0
   -3.5495    1.6165   -0.8586 C   0  0  0  0  0  0  0  0  0  0  0  0
   -3.8476    0.7416   -1.4578 H   0  0  0  0  0  0  0  0  0  0  0  0
   -2.9984   -1.2370    0.7100 C   0  0  0  0  0  0  0  0  0  0  0  0
   -3.8710   -0.8389    1.7463 C   0  0  0  0  0  0  0  0  0  0  0  0
   -3.7523    0.1510    2.2149 H   0  0  0  0  0  0  0  0  0  0  0  0
   -4.9037   -1.6872    2.1668 C   0  0  0  0  0  0  0  0  0  0  0  0
   -5.5790   -1.3682    2.9754 H   0  0  0  0  0  0  0  0  0  0  0  0
   -5.0824   -2.9371    1.5494 C   0  0  0  0  0  0  0  0  0  0  0  0
   -5.8970   -3.6013    1.8761 H   0  0  0  0  0  0  0  0  0  0  0  0
   -4.2272   -3.3313    0.5102 C   0  0  0  0  0  0  0  0  0  0  0  0
   -4.3684   -4.3042    0.0158 H   0  0  0  0  0  0  0  0  0  0  0  0
   -3.1877   -2.4855    0.0901 C   0  0  0  0  0  0  0  0  0  0  0  0
   -2.5271   -2.7975   -0.7295 H   0  0  0  0  0  0  0  0  0  0  0  0
  1 19  1  0  0  0  0
  1  3  1  0  0  0  0
  2 52  1  0  0  0  0
  2  4  1  0  0  0  0
  3  4  2  0  0  0  0
  3  6  1  0  0  0  0
  4  5  1  0  0  0  0
  6 15  1  0  0  0  0
  6  7  1  0  0  0  0
  7  9  1  0  0  0  0
  7 10  1  0  0  0  0
  8  7  1  0  0  0  0
 11  6  1  0  0  0  0
 11 14  1  0  0  0  0
 12 11  1  0  0  0  0
 13 11  1  0  0  0  0
 15 17  1  0  0  0  0
 15 16  1  0  0  0  0
 18 15  1  0  0  0  0
 19 20  1  0  0  0  0
 20 22  2  0  0  0  0
 20 21  1  0  0  0  0
 22 23  1  0  0  0  0
 24 25  1  0  0  0  0
 24 22  1  0  0  0  0
 26 24  2  0  0  0  0
 27 26  1  0  0  0  0
 28 26  1  0  0  0  0
 28 19  2  0  0  0  0
 29 28  1  0  0  0  0
 30  1  1  0  0  0  0
 31 30  1  0  0  0  0
 31 32  1  0  0  0  0
 33 31  2  0  0  0  0
 34 33  1  0  0  0  0
 35 37  2  0  0  0  0
 35 33  1  0  0  0  0
 36 35  1  0  0  0  0
 37 39  1  0  0  0  0
 38 37  1  0  0  0  0
 39 40  1  0  0  0  0
 39 30  2  0  0  0  0
 41  2  1  0  0  0  0
 41 42  1  0  0  0  0
 42 43  1  0  0  0  0
 44 42  2  0  0  0  0
 44 45  1  0  0  0  0
 46 44  1  0  0  0  0
 47 46  1  0  0  0  0
 48 50  1  0  0  0  0
 48 46  2  0  0  0  0
 49 48  1  0  0  0  0
 50 41  2  0  0  0  0
 51 50  1  0  0  0  0
 52 53  1  0  0  0  0
 53 55  2  0  0  0  0
 53 54  1  0  0  0  0
 55 56  1  0  0  0  0
 57 58  1  0  0  0  0
 57 55  1  0  0  0  0
 59 57  2  0  0  0  0
 60 59  1  0  0  0  0
 61 59  1  0  0  0  0
 61 52  2  0  0  0  0
 62 61  1  0  0  0  0
M  END
