1,40
 OpenBabel05122313063D

 78 79  0  0  0  0  0  0  0  0999 V2000
   -0.1944   -1.6906    0.2955 P   0  0  0  0  0  0  0  0  0  0  0  0
    1.3250   -0.9070    0.5858 N   0  0  0  0  0  0  0  0  0  0  0  0
    1.4839   -0.0836    1.7830 C   0  0  0  0  0  0  0  0  0  0  0  0
    2.4894    0.3768    1.7310 H   0  0  0  0  0  0  0  0  0  0  0  0
    1.4843   -0.7179    2.6971 H   0  0  0  0  0  0  0  0  0  0  0  0
    2.1612   -0.5032   -0.5411 C   0  0  0  0  0  0  0  0  0  0  0  0
    2.2381    0.6042   -0.5745 H   0  0  0  0  0  0  0  0  0  0  0  0
    1.6703   -0.7776   -1.4948 H   0  0  0  0  0  0  0  0  0  0  0  0
    3.5646   -1.0876   -0.5283 C   0  0  0  0  0  0  0  0  0  0  0  0
    3.9656   -2.0466    0.4175 C   0  0  0  0  0  0  0  0  0  0  0  0
    3.2343   -2.3842    1.1657 H   0  0  0  0  0  0  0  0  0  0  0  0
    5.2721   -2.5632    0.4033 C   0  0  0  0  0  0  0  0  0  0  0  0
    5.5703   -3.3132    1.1521 H   0  0  0  0  0  0  0  0  0  0  0  0
    6.1934   -2.1277   -0.5600 C   0  0  0  0  0  0  0  0  0  0  0  0
    7.2170   -2.5318   -0.5723 H   0  0  0  0  0  0  0  0  0  0  0  0
    5.7991   -1.1719   -1.5125 C   0  0  0  0  0  0  0  0  0  0  0  0
    6.5145   -0.8262   -2.2747 H   0  0  0  0  0  0  0  0  0  0  0  0
    4.4970   -0.6557   -1.4936 C   0  0  0  0  0  0  0  0  0  0  0  0
    4.1944    0.0984   -2.2373 H   0  0  0  0  0  0  0  0  0  0  0  0
   -0.4714   -2.7427    1.8246 C   0  0  0  0  0  0  0  0  0  0  0  0
   -1.1745   -3.4868    1.3933 H   0  0  0  0  0  0  0  0  0  0  0  0
    0.7905   -3.4464    2.3317 C   0  0  0  0  0  0  0  0  0  0  0  0
    1.4746   -2.7446    2.8490 H   0  0  0  0  0  0  0  0  0  0  0  0
    1.3670   -3.9358    1.5238 H   0  0  0  0  0  0  0  0  0  0  0  0
    0.5095   -4.2302    3.0654 H   0  0  0  0  0  0  0  0  0  0  0  0
   -1.2438   -2.0267    2.9395 C   0  0  0  0  0  0  0  0  0  0  0  0
   -1.6005   -2.7724    3.6794 H   0  0  0  0  0  0  0  0  0  0  0  0
   -2.1297   -1.5001    2.5321 H   0  0  0  0  0  0  0  0  0  0  0  0
   -0.6165   -1.2961    3.4890 H   0  0  0  0  0  0  0  0  0  0  0  0
    0.2922   -2.8963   -1.0885 C   0  0  0  0  0  0  0  0  0  0  0  0
    1.4021   -2.8905   -1.0437 H   0  0  0  0  0  0  0  0  0  0  0  0
   -0.1831   -4.3419   -0.8842 C   0  0  0  0  0  0  0  0  0  0  0  0
   -1.2885   -4.3886   -0.8668 H   0  0  0  0  0  0  0  0  0  0  0  0
    0.2114   -4.8058    0.0384 H   0  0  0  0  0  0  0  0  0  0  0  0
    0.1790   -4.9510   -1.7382 H   0  0  0  0  0  0  0  0  0  0  0  0
   -0.1801   -2.3805   -2.4550 C   0  0  0  0  0  0  0  0  0  0  0  0
    0.2036   -3.0456   -3.2558 H   0  0  0  0  0  0  0  0  0  0  0  0
    0.1642   -1.3512   -2.6737 H   0  0  0  0  0  0  0  0  0  0  0  0
   -1.2874   -2.3767   -2.4955 H   0  0  0  0  0  0  0  0  0  0  0  0
   -1.3184    1.6869   -0.0303 P   0  0  0  0  0  0  0  0  0  0  0  0
    0.1996    1.8620    0.8019 N   0  0  0  0  0  0  0  0  0  0  0  0
    0.3990    0.9870    1.9578 C   0  0  0  0  0  0  0  0  0  0  0  0
   -0.5579    0.4726    2.1775 H   0  0  0  0  0  0  0  0  0  0  0  0
    0.6278    1.5986    2.8620 H   0  0  0  0  0  0  0  0  0  0  0  0
    0.9273    3.1383    0.8549 C   0  0  0  0  0  0  0  0  0  0  0  0
    0.8183    3.5914    1.8689 H   0  0  0  0  0  0  0  0  0  0  0  0
    0.4638    3.8480    0.1458 H   0  0  0  0  0  0  0  0  0  0  0  0
    2.4054    3.0234    0.5280 C   0  0  0  0  0  0  0  0  0  0  0  0
    3.3593    2.8400    1.5471 C   0  0  0  0  0  0  0  0  0  0  0  0
    3.0298    2.8321    2.5988 H   0  0  0  0  0  0  0  0  0  0  0  0
    4.7178    2.6641    1.2397 C   0  0  0  0  0  0  0  0  0  0  0  0
    5.4478    2.5090    2.0484 H   0  0  0  0  0  0  0  0  0  0  0  0
    5.1439    2.6876   -0.0966 C   0  0  0  0  0  0  0  0  0  0  0  0
    6.2066    2.5416   -0.3407 H   0  0  0  0  0  0  0  0  0  0  0  0
    4.2072    2.9013   -1.1206 C   0  0  0  0  0  0  0  0  0  0  0  0
    4.5371    2.9394   -2.1700 H   0  0  0  0  0  0  0  0  0  0  0  0
    2.8494    3.0645   -0.8093 C   0  0  0  0  0  0  0  0  0  0  0  0
    2.1190    3.2256   -1.6175 H   0  0  0  0  0  0  0  0  0  0  0  0
   -2.5701    2.7602    0.8643 C   0  0  0  0  0  0  0  0  0  0  0  0
   -3.4678    2.6229    0.2232 H   0  0  0  0  0  0  0  0  0  0  0  0
   -2.2041    4.2442    0.9631 C   0  0  0  0  0  0  0  0  0  0  0  0
   -3.0800    4.8136    1.3387 H   0  0  0  0  0  0  0  0  0  0  0  0
   -1.9203    4.6914   -0.0103 H   0  0  0  0  0  0  0  0  0  0  0  0
   -1.3762    4.4202    1.6784 H   0  0  0  0  0  0  0  0  0  0  0  0
   -2.8921    2.1593    2.2378 C   0  0  0  0  0  0  0  0  0  0  0  0
   -2.0335    2.2430    2.9362 H   0  0  0  0  0  0  0  0  0  0  0  0
   -3.1780    1.0923    2.1497 H   0  0  0  0  0  0  0  0  0  0  0  0
   -3.7440    2.7030    2.6957 H   0  0  0  0  0  0  0  0  0  0  0  0
   -1.0252    2.5059   -1.6903 C   0  0  0  0  0  0  0  0  0  0  0  0
   -0.4289    3.4196   -1.4753 H   0  0  0  0  0  0  0  0  0  0  0  0
   -2.3314    2.9268   -2.3762 C   0  0  0  0  0  0  0  0  0  0  0  0
   -2.0984    3.3259   -3.3849 H   0  0  0  0  0  0  0  0  0  0  0  0
   -2.8677    3.7181   -1.8183 H   0  0  0  0  0  0  0  0  0  0  0  0
   -3.0223    2.0665   -2.4789 H   0  0  0  0  0  0  0  0  0  0  0  0
   -0.2004    1.5760   -2.5858 C   0  0  0  0  0  0  0  0  0  0  0  0
   -0.7880    0.6700   -2.8350 H   0  0  0  0  0  0  0  0  0  0  0  0
    0.7376    1.2539   -2.0974 H   0  0  0  0  0  0  0  0  0  0  0  0
    0.0613    2.0929   -3.5320 H   0  0  0  0  0  0  0  0  0  0  0  0
  1  2  1  0  0  0  0
  1 20  1  0  0  0  0
  2  3  1  0  0  0  0
  3 42  1  0  0  0  0
  3  5  1  0  0  0  0
  4  3  1  0  0  0  0
  6  9  1  0  0  0  0
  6  2  1  0  0  0  0
  7  6  1  0  0  0  0
  8  6  1  0  0  0  0
  9 10  1  0  0  0  0
 10 11  1  0  0  0  0
 12 10  2  0  0  0  0
 12 13  1  0  0  0  0
 14 12  1  0  0  0  0
 15 14  1  0  0  0  0
 16 18  1  0  0  0  0
 16 14  2  0  0  0  0
 17 16  1  0  0  0  0
 18  9  2  0  0  0  0
 19 18  1  0  0  0  0
 20 22  1  0  0  0  0
 20 26  1  0  0  0  0
 21 20  1  0  0  0  0
 22 23  1  0  0  0  0
 22 25  1  0  0  0  0
 24 22  1  0  0  0  0
 26 29  1  0  0  0  0
 26 27  1  0  0  0  0
 28 26  1  0  0  0  0
 30 31  1  0  0  0  0
 30 32  1  0  0  0  0
 30  1  1  0  0  0  0
 32 33  1  0  0  0  0
 32 34  1  0  0  0  0
 35 32  1  0  0  0  0
 36 30  1  0  0  0  0
 37 36  1  0  0  0  0
 38 36  1  0  0  0  0
 39 36  1  0  0  0  0
 40 41  1  0  0  0  0
 40 59  1  0  0  0  0
 41 45  1  0  0  0  0
 41 42  1  0  0  0  0
 42 43  1  0  0  0  0
 42 44  1  0  0  0  0
 45 46  1  0  0  0  0
 47 45  1  0  0  0  0
 48 45  1  0  0  0  0
 48 49  1  0  0  0  0
 49 50  1  0  0  0  0
 51 49  2  0  0  0  0
 51 52  1  0  0  0  0
 53 51  1  0  0  0  0
 54 53  1  0  0  0  0
 55 57  1  0  0  0  0
 55 53  2  0  0  0  0
 56 55  1  0  0  0  0
 57 48  2  0  0  0  0
 58 57  1  0  0  0  0
 59 61  1  0  0  0  0
 59 65  1  0  0  0  0
 60 59  1  0  0  0  0
 61 62  1  0  0  0  0
 61 64  1  0  0  0  0
 63 61  1  0  0  0  0
 65 68  1  0  0  0  0
 65 66  1  0  0  0  0
 67 65  1  0  0  0  0
 69 70  1  0  0  0  0
 69 40  1  0  0  0  0
 71 73  1  0  0  0  0
 71 69  1  0  0  0  0
 72 71  1  0  0  0  0
 74 71  1  0  0  0  0
 75 77  1  0  0  0  0
 75 69  1  0  0  0  0
 76 75  1  0  0  0  0
 78 75  1  0  0  0  0
M  END
