1,2
 OpenBabel05122313063D

 49 52  0  0  0  0  0  0  0  0999 V2000
    1.4992   -0.7546    0.4488 P   0  0  0  0  0  0  0  0  0  0  0  0
   -0.6501    0.8988    0.5988 P   0  0  0  0  0  0  0  0  0  0  0  0
    3.0015    0.2568    0.2170 C   0  0  0  0  0  0  0  0  0  0  0  0
    0.4944    0.0631    1.8039 C   0  0  0  0  0  0  0  0  0  0  0  0
   -0.0862   -0.7469    2.2910 H   0  0  0  0  0  0  0  0  0  0  0  0
    1.0065    0.6879    2.5606 H   0  0  0  0  0  0  0  0  0  0  0  0
    2.0656   -2.3725    1.0929 C   0  0  0  0  0  0  0  0  0  0  0  0
   -2.2789    1.0978    1.3880 C   0  0  0  0  0  0  0  0  0  0  0  0
   -3.4299    1.2058    0.5849 C   0  0  0  0  0  0  0  0  0  0  0  0
   -3.3426    1.1085   -0.5075 H   0  0  0  0  0  0  0  0  0  0  0  0
    1.1532   -3.4485    1.0704 C   0  0  0  0  0  0  0  0  0  0  0  0
    0.1399   -3.2967    0.6609 H   0  0  0  0  0  0  0  0  0  0  0  0
    2.8411   -4.8823    2.0807 C   0  0  0  0  0  0  0  0  0  0  0  0
    3.1465   -5.8672    2.4656 H   0  0  0  0  0  0  0  0  0  0  0  0
    3.3829    1.2937    1.0914 C   0  0  0  0  0  0  0  0  0  0  0  0
    2.7939    1.5122    1.9933 H   0  0  0  0  0  0  0  0  0  0  0  0
    3.3678   -2.5561    1.5996 C   0  0  0  0  0  0  0  0  0  0  0  0
    4.0808   -1.7176    1.6031 H   0  0  0  0  0  0  0  0  0  0  0  0
   -2.3824    1.1552    2.7935 C   0  0  0  0  0  0  0  0  0  0  0  0
   -1.4882    1.0514    3.4273 H   0  0  0  0  0  0  0  0  0  0  0  0
    4.5151    2.0727    0.8105 C   0  0  0  0  0  0  0  0  0  0  0  0
    4.8006    2.8845    1.4963 H   0  0  0  0  0  0  0  0  0  0  0  0
    3.7628    0.0122   -0.9480 C   0  0  0  0  0  0  0  0  0  0  0  0
    3.4447   -0.7656   -1.6569 H   0  0  0  0  0  0  0  0  0  0  0  0
    0.8619    2.8709   -0.7448 C   0  0  0  0  0  0  0  0  0  0  0  0
    1.0536    2.1009   -1.5108 H   0  0  0  0  0  0  0  0  0  0  0  0
    0.0206    2.5875    0.3484 C   0  0  0  0  0  0  0  0  0  0  0  0
    1.5446   -4.6979    1.5722 C   0  0  0  0  0  0  0  0  0  0  0  0
    0.8322   -5.5366    1.5558 H   0  0  0  0  0  0  0  0  0  0  0  0
    5.2746    1.8204   -0.3424 C   0  0  0  0  0  0  0  0  0  0  0  0
    6.1607    2.4347   -0.5634 H   0  0  0  0  0  0  0  0  0  0  0  0
    3.7512   -3.8129    2.0913 C   0  0  0  0  0  0  0  0  0  0  0  0
    4.7691   -3.9572    2.4842 H   0  0  0  0  0  0  0  0  0  0  0  0
    0.3504    4.8447    1.1971 C   0  0  0  0  0  0  0  0  0  0  0  0
    0.1403    5.6185    1.9511 H   0  0  0  0  0  0  0  0  0  0  0  0
   -3.6394    1.3302    3.3912 C   0  0  0  0  0  0  0  0  0  0  0  0
   -3.7209    1.3730    4.4878 H   0  0  0  0  0  0  0  0  0  0  0  0
   -4.6819    1.3656    1.1929 C   0  0  0  0  0  0  0  0  0  0  0  0
   -5.5829    1.4100    0.5641 H   0  0  0  0  0  0  0  0  0  0  0  0
   -0.2462    3.5818    1.3150 C   0  0  0  0  0  0  0  0  0  0  0  0
   -0.9270    3.3735    2.1543 H   0  0  0  0  0  0  0  0  0  0  0  0
   -4.7887    1.4336    2.5911 C   0  0  0  0  0  0  0  0  0  0  0  0
   -5.7757    1.5549    3.0629 H   0  0  0  0  0  0  0  0  0  0  0  0
    1.2026    5.1237    0.1153 C   0  0  0  0  0  0  0  0  0  0  0  0
    1.6662    6.1179    0.0239 H   0  0  0  0  0  0  0  0  0  0  0  0
    1.4506    4.1398   -0.8535 C   0  0  0  0  0  0  0  0  0  0  0  0
    2.1085    4.3553   -1.7086 H   0  0  0  0  0  0  0  0  0  0  0  0
    4.8979    0.7889   -1.2178 C   0  0  0  0  0  0  0  0  0  0  0  0
    5.4826    0.5961   -2.1297 H   0  0  0  0  0  0  0  0  0  0  0  0
  1  7  1  0  0  0  0
  1  4  1  0  0  0  0
  2  8  1  0  0  0  0
  2  4  1  0  0  0  0
  3  1  1  0  0  0  0
  3 15  1  0  0  0  0
  4  5  1  0  0  0  0
  4  6  1  0  0  0  0
  7 17  1  0  0  0  0
  8 19  1  0  0  0  0
  9 38  1  0  0  0  0
  9  8  2  0  0  0  0
 10  9  1  0  0  0  0
 11  7  2  0  0  0  0
 11 28  1  0  0  0  0
 12 11  1  0  0  0  0
 13 32  1  0  0  0  0
 13 14  1  0  0  0  0
 15 16  1  0  0  0  0
 17 18  1  0  0  0  0
 17 32  2  0  0  0  0
 19 36  2  0  0  0  0
 19 20  1  0  0  0  0
 21 15  2  0  0  0  0
 21 22  1  0  0  0  0
 23  3  2  0  0  0  0
 24 23  1  0  0  0  0
 25 27  1  0  0  0  0
 26 25  1  0  0  0  0
 27  2  1  0  0  0  0
 27 40  2  0  0  0  0
 28 13  2  0  0  0  0
 29 28  1  0  0  0  0
 30 21  1  0  0  0  0
 31 30  1  0  0  0  0
 32 33  1  0  0  0  0
 34 40  1  0  0  0  0
 34 35  1  0  0  0  0
 36 37  1  0  0  0  0
 38 42  2  0  0  0  0
 39 38  1  0  0  0  0
 40 41  1  0  0  0  0
 42 43  1  0  0  0  0
 42 36  1  0  0  0  0
 44 34  2  0  0  0  0
 45 44  1  0  0  0  0
 46 25  2  0  0  0  0
 46 44  1  0  0  0  0
 47 46  1  0  0  0  0
 48 23  1  0  0  0  0
 48 30  2  0  0  0  0
 49 48  1  0  0  0  0
M  END
