1,2
 OpenBabel05122313063D

 59 63  0  0  0  0  0  0  0  0999 V2000
   -1.3322    0.1925    0.1060 P   0  0  0  0  0  0  0  0  0  0  0  0
    1.2502   -0.5529    0.0123 P   0  0  0  0  0  0  0  0  0  0  0  0
    0.2398    0.7127    0.7046 N   0  0  0  0  0  0  0  0  0  0  0  0
    0.6547    3.1525   -1.9899 N   0  0  0  0  0  0  0  0  0  0  0  0
    0.6716    1.8954    1.3516 C   0  0  0  0  0  0  0  0  0  0  0  0
    0.8922    3.0904    0.6051 C   0  0  0  0  0  0  0  0  0  0  0  0
    1.3306    4.2605    1.2659 C   0  0  0  0  0  0  0  0  0  0  0  0
    1.4897    5.1751    0.6774 H   0  0  0  0  0  0  0  0  0  0  0  0
    1.5761    4.2440    2.6435 C   0  0  0  0  0  0  0  0  0  0  0  0
    1.9207    5.1591    3.1471 H   0  0  0  0  0  0  0  0  0  0  0  0
    1.3973    3.0581    3.3749 C   0  0  0  0  0  0  0  0  0  0  0  0
    1.6073    3.0377    4.4547 H   0  0  0  0  0  0  0  0  0  0  0  0
    0.9482    1.8955    2.7327 C   0  0  0  0  0  0  0  0  0  0  0  0
    0.8105    0.9589    3.2908 H   0  0  0  0  0  0  0  0  0  0  0  0
    0.7343    3.1053   -0.8198 C   0  0  0  0  0  0  0  0  0  0  0  0
   -2.3739   -0.2072    1.5502 C   0  0  0  0  0  0  0  0  0  0  0  0
   -2.3200    0.4988    2.7707 C   0  0  0  0  0  0  0  0  0  0  0  0
   -1.6248    1.3408    2.9005 H   0  0  0  0  0  0  0  0  0  0  0  0
   -3.1545    0.1186    3.8324 C   0  0  0  0  0  0  0  0  0  0  0  0
   -3.1087    0.6671    4.7856 H   0  0  0  0  0  0  0  0  0  0  0  0
   -4.0453   -0.9564    3.6791 C   0  0  0  0  0  0  0  0  0  0  0  0
   -4.6976   -1.2520    4.5149 H   0  0  0  0  0  0  0  0  0  0  0  0
   -4.1015   -1.6552    2.4623 C   0  0  0  0  0  0  0  0  0  0  0  0
   -4.7959   -2.5002    2.3412 H   0  0  0  0  0  0  0  0  0  0  0  0
   -3.2662   -1.2905    1.3963 C   0  0  0  0  0  0  0  0  0  0  0  0
   -3.2926   -1.8385    0.4377 H   0  0  0  0  0  0  0  0  0  0  0  0
   -2.1206    1.5953   -0.7339 C   0  0  0  0  0  0  0  0  0  0  0  0
   -2.2826    1.5253   -2.1318 C   0  0  0  0  0  0  0  0  0  0  0  0
   -2.0085    0.5996   -2.6612 H   0  0  0  0  0  0  0  0  0  0  0  0
   -2.8076    2.6279   -2.8193 C   0  0  0  0  0  0  0  0  0  0  0  0
   -2.9336    2.5773   -3.9108 H   0  0  0  0  0  0  0  0  0  0  0  0
   -3.1634    3.7923   -2.1210 C   0  0  0  0  0  0  0  0  0  0  0  0
   -3.5645    4.6593   -2.6677 H   0  0  0  0  0  0  0  0  0  0  0  0
   -3.0195    3.8531   -0.7246 C   0  0  0  0  0  0  0  0  0  0  0  0
   -3.3122    4.7617   -0.1771 H   0  0  0  0  0  0  0  0  0  0  0  0
   -2.5077    2.7524   -0.0248 C   0  0  0  0  0  0  0  0  0  0  0  0
   -2.4115    2.7966    1.0705 H   0  0  0  0  0  0  0  0  0  0  0  0
    2.5800    0.2687   -0.9080 C   0  0  0  0  0  0  0  0  0  0  0  0
    2.6229    0.1075   -2.3076 C   0  0  0  0  0  0  0  0  0  0  0  0
    1.9258   -0.5961   -2.7904 H   0  0  0  0  0  0  0  0  0  0  0  0
    3.5657    0.8280   -3.0542 C   0  0  0  0  0  0  0  0  0  0  0  0
    3.6015    0.7051   -4.1468 H   0  0  0  0  0  0  0  0  0  0  0  0
    4.4537    1.7060   -2.4134 C   0  0  0  0  0  0  0  0  0  0  0  0
    5.1834    2.2782   -3.0064 H   0  0  0  0  0  0  0  0  0  0  0  0
    4.4206    1.8539   -1.0163 C   0  0  0  0  0  0  0  0  0  0  0  0
    5.1234    2.5365   -0.5151 H   0  0  0  0  0  0  0  0  0  0  0  0
    3.4892    1.1328   -0.2575 C   0  0  0  0  0  0  0  0  0  0  0  0
    3.4657    1.2451    0.8372 H   0  0  0  0  0  0  0  0  0  0  0  0
    2.0093   -1.3893    1.4424 C   0  0  0  0  0  0  0  0  0  0  0  0
    1.1723   -1.7470    2.5220 C   0  0  0  0  0  0  0  0  0  0  0  0
    0.1048   -1.4759    2.5005 H   0  0  0  0  0  0  0  0  0  0  0  0
    1.6991   -2.4560    3.6083 C   0  0  0  0  0  0  0  0  0  0  0  0
    1.0443   -2.7321    4.4485 H   0  0  0  0  0  0  0  0  0  0  0  0
    3.0556   -2.8263    3.6174 C   0  0  0  0  0  0  0  0  0  0  0  0
    3.4662   -3.3887    4.4697 H   0  0  0  0  0  0  0  0  0  0  0  0
    3.8825   -2.4913    2.5347 C   0  0  0  0  0  0  0  0  0  0  0  0
    4.9410   -2.7919    2.5341 H   0  0  0  0  0  0  0  0  0  0  0  0
    3.3636   -1.7753    1.4442 C   0  0  0  0  0  0  0  0  0  0  0  0
    4.0100   -1.5210    0.5915 H   0  0  0  0  0  0  0  0  0  0  0  0
  1  3  1  0  0  0  0
  1 16  1  0  0  0  0
  2  3  1  0  0  0  0
  2 49  1  0  0  0  0
  3  5  1  0  0  0  0
  4 15  3  0  0  0  0
  5 13  1  0  0  0  0
  6  7  1  0  0  0  0
  6  5  2  0  0  0  0
  7  9  2  0  0  0  0
  8  7  1  0  0  0  0
  9 10  1  0  0  0  0
  9 11  1  0  0  0  0
 11 12  1  0  0  0  0
 13 14  1  0  0  0  0
 13 11  2  0  0  0  0
 15  6  1  0  0  0  0
 16 17  1  0  0  0  0
 17 18  1  0  0  0  0
 17 19  2  0  0  0  0
 19 20  1  0  0  0  0
 21 19  1  0  0  0  0
 21 22  1  0  0  0  0
 23 21  2  0  0  0  0
 24 23  1  0  0  0  0
 25 16  2  0  0  0  0
 25 23  1  0  0  0  0
 26 25  1  0  0  0  0
 27 36  1  0  0  0  0
 27  1  1  0  0  0  0
 28 27  2  0  0  0  0
 29 28  1  0  0  0  0
 30 28  1  0  0  0  0
 30 32  2  0  0  0  0
 31 30  1  0  0  0  0
 32 34  1  0  0  0  0
 33 32  1  0  0  0  0
 34 35  1  0  0  0  0
 34 36  2  0  0  0  0
 36 37  1  0  0  0  0
 38 47  1  0  0  0  0
 38  2  1  0  0  0  0
 39 38  2  0  0  0  0
 40 39  1  0  0  0  0
 41 43  2  0  0  0  0
 41 39  1  0  0  0  0
 42 41  1  0  0  0  0
 43 45  1  0  0  0  0
 44 43  1  0  0  0  0
 45 46  1  0  0  0  0
 45 47  2  0  0  0  0
 47 48  1  0  0  0  0
 49 58  2  0  0  0  0
 49 50  1  0  0  0  0
 50 52  2  0  0  0  0
 51 50  1  0  0  0  0
 52 54  1  0  0  0  0
 52 53  1  0  0  0  0
 54 55  1  0  0  0  0
 56 54  2  0  0  0  0
 57 56  1  0  0  0  0
 58 56  1  0  0  0  0
 59 58  1  0  0  0  0
M  END
