1,2
 OpenBabel05122313063D

 47 50  0  0  0  0  0  0  0  0999 V2000
    1.3107   -0.2102   -0.2692 P   0  0  0  0  0  0  0  0  0  0  0  0
   -1.3106    0.2097   -0.2698 P   0  0  0  0  0  0  0  0  0  0  0  0
    0.0002   -0.0004   -1.3629 O   0  0  0  0  0  0  0  0  0  0  0  0
    2.0250   -1.7737   -0.8927 C   0  0  0  0  0  0  0  0  0  0  0  0
    3.4197   -1.9746   -0.9182 C   0  0  0  0  0  0  0  0  0  0  0  0
    3.9403   -3.2172   -1.3090 C   0  0  0  0  0  0  0  0  0  0  0  0
    3.0754   -4.2591   -1.6796 C   0  0  0  0  0  0  0  0  0  0  0  0
    1.6852   -4.0586   -1.6573 C   0  0  0  0  0  0  0  0  0  0  0  0
    1.1567   -2.8228   -1.2604 C   0  0  0  0  0  0  0  0  0  0  0  0
    2.4962    1.0625   -0.8305 C   0  0  0  0  0  0  0  0  0  0  0  0
    3.2586    1.7595    0.1264 C   0  0  0  0  0  0  0  0  0  0  0  0
    4.1707    2.7425   -0.2888 C   0  0  0  0  0  0  0  0  0  0  0  0
    4.3060    3.0422   -1.6532 C   0  0  0  0  0  0  0  0  0  0  0  0
    3.5349    2.3559   -2.6081 C   0  0  0  0  0  0  0  0  0  0  0  0
    2.6346    1.3618   -2.2021 C   0  0  0  0  0  0  0  0  0  0  0  0
   -2.4957   -1.0635   -0.8306 C   0  0  0  0  0  0  0  0  0  0  0  0
   -2.6347   -1.3626   -2.2022 C   0  0  0  0  0  0  0  0  0  0  0  0
   -3.5346   -2.3571   -2.6080 C   0  0  0  0  0  0  0  0  0  0  0  0
   -4.3047   -3.0441   -1.6527 C   0  0  0  0  0  0  0  0  0  0  0  0
   -4.1689   -2.7446   -0.2883 C   0  0  0  0  0  0  0  0  0  0  0  0
   -3.2571   -1.7611    0.1265 C   0  0  0  0  0  0  0  0  0  0  0  0
   -2.0251    1.7727   -0.8942 C   0  0  0  0  0  0  0  0  0  0  0  0
   -3.4197    1.9742   -0.9166 C   0  0  0  0  0  0  0  0  0  0  0  0
   -3.9407    3.2165   -1.3078 C   0  0  0  0  0  0  0  0  0  0  0  0
   -3.0762    4.2576   -1.6819 C   0  0  0  0  0  0  0  0  0  0  0  0
   -1.6861    4.0564   -1.6626 C   0  0  0  0  0  0  0  0  0  0  0  0
   -1.1572    2.8209   -1.2652 C   0  0  0  0  0  0  0  0  0  0  0  0
    4.0998   -1.1556   -0.6376 H   0  0  0  0  0  0  0  0  0  0  0  0
    5.0300   -3.3700   -1.3289 H   0  0  0  0  0  0  0  0  0  0  0  0
    3.4864   -5.2324   -1.9878 H   0  0  0  0  0  0  0  0  0  0  0  0
    1.0044   -4.8725   -1.9491 H   0  0  0  0  0  0  0  0  0  0  0  0
    0.0674   -2.6679   -1.2438 H   0  0  0  0  0  0  0  0  0  0  0  0
    3.1262    1.5330    1.1960 H   0  0  0  0  0  0  0  0  0  0  0  0
    4.7684    3.2846    0.4592 H   0  0  0  0  0  0  0  0  0  0  0  0
    5.0135    3.8207   -1.9768 H   0  0  0  0  0  0  0  0  0  0  0  0
    3.6381    2.5978   -3.6769 H   0  0  0  0  0  0  0  0  0  0  0  0
    2.0244    0.8216   -2.9418 H   0  0  0  0  0  0  0  0  0  0  0  0
   -2.0253   -0.8219   -2.9422 H   0  0  0  0  0  0  0  0  0  0  0  0
   -3.6383   -2.5989   -3.6767 H   0  0  0  0  0  0  0  0  0  0  0  0
   -5.0120   -3.8230   -1.9761 H   0  0  0  0  0  0  0  0  0  0  0  0
   -4.7658   -3.2872    0.4599 H   0  0  0  0  0  0  0  0  0  0  0  0
   -3.1242   -1.5347    1.1961 H   0  0  0  0  0  0  0  0  0  0  0  0
   -4.0995    1.1559   -0.6333 H   0  0  0  0  0  0  0  0  0  0  0  0
   -5.0304    3.3698   -1.3253 H   0  0  0  0  0  0  0  0  0  0  0  0
   -3.4875    5.2306   -1.9903 H   0  0  0  0  0  0  0  0  0  0  0  0
   -1.0055    4.8696   -1.9570 H   0  0  0  0  0  0  0  0  0  0  0  0
   -0.0679    2.6654   -1.2510 H   0  0  0  0  0  0  0  0  0  0  0  0
  3  2  1  0  0  0  0
  3  1  1  0  0  0  0
  4  1  1  0  0  0  0
  5  4  1  0  0  0  0
  5 28  1  0  0  0  0
  6  5  2  0  0  0  0
  7  8  2  0  0  0  0
  7  6  1  0  0  0  0
  8  9  1  0  0  0  0
  9 32  1  0  0  0  0
  9  4  2  0  0  0  0
 10  1  1  0  0  0  0
 10 11  1  0  0  0  0
 11 33  1  0  0  0  0
 12 11  2  0  0  0  0
 12 34  1  0  0  0  0
 13 12  1  0  0  0  0
 14 15  1  0  0  0  0
 14 13  2  0  0  0  0
 15 10  2  0  0  0  0
 16  2  1  0  0  0  0
 16 21  1  0  0  0  0
 17 16  2  0  0  0  0
 18 17  1  0  0  0  0
 18 19  2  0  0  0  0
 19 20  1  0  0  0  0
 20 21  2  0  0  0  0
 20 41  1  0  0  0  0
 21 42  1  0  0  0  0
 22  2  1  0  0  0  0
 23 22  1  0  0  0  0
 23 43  1  0  0  0  0
 24 23  2  0  0  0  0
 25 26  2  0  0  0  0
 25 24  1  0  0  0  0
 26 27  1  0  0  0  0
 27 47  1  0  0  0  0
 27 22  2  0  0  0  0
 29  6  1  0  0  0  0
 30  7  1  0  0  0  0
 31  8  1  0  0  0  0
 35 13  1  0  0  0  0
 36 14  1  0  0  0  0
 37 15  1  0  0  0  0
 38 17  1  0  0  0  0
 39 18  1  0  0  0  0
 40 19  1  0  0  0  0
 44 24  1  0  0  0  0
 45 25  1  0  0  0  0
 46 26  1  0  0  0  0
M  END
