1,2
 OpenBabel05122313063D

 72 74  0  0  0  0  0  0  0  0999 V2000
   -2.0894   -0.9545    0.3669 P   0  0  0  0  0  0  0  0  0  0  0  0
    2.2557   -0.5214   -0.4158 P   0  0  0  0  0  0  0  0  0  0  0  0
   -3.1925    0.4608   -0.0806 C   0  0  0  0  0  0  0  0  0  0  0  0
   -4.5789    0.1796   -0.1130 C   0  0  0  0  0  0  0  0  0  0  0  0
   -5.5391    1.1751   -0.3272 C   0  0  0  0  0  0  0  0  0  0  0  0
   -5.1199    2.5000   -0.5078 C   0  0  0  0  0  0  0  0  0  0  0  0
   -3.7537    2.7934   -0.5072 C   0  0  0  0  0  0  0  0  0  0  0  0
   -2.7591    1.8004   -0.3159 C   0  0  0  0  0  0  0  0  0  0  0  0
   -1.3461    2.2435   -0.4715 C   0  0  0  0  0  0  0  0  0  0  0  0
   -1.0395    3.0769   -1.5703 C   0  0  0  0  0  0  0  0  0  0  0  0
    0.2614    3.5433   -1.7874 C   0  0  0  0  0  0  0  0  0  0  0  0
    1.2965    3.1674   -0.9194 C   0  0  0  0  0  0  0  0  0  0  0  0
    1.0310    2.3095    0.1637 C   0  0  0  0  0  0  0  0  0  0  0  0
    2.1345    1.8841    1.0777 C   0  0  0  0  0  0  0  0  0  0  0  0
    2.5266    2.7510    2.1167 C   0  0  0  0  0  0  0  0  0  0  0  0
    3.5254    2.3867    3.0304 C   0  0  0  0  0  0  0  0  0  0  0  0
    4.1417    1.1338    2.9144 C   0  0  0  0  0  0  0  0  0  0  0  0
    3.7711    0.2645    1.8788 C   0  0  0  0  0  0  0  0  0  0  0  0
    2.7840    0.6253    0.9391 C   0  0  0  0  0  0  0  0  0  0  0  0
   -0.2923    1.8651    0.3902 C   0  0  0  0  0  0  0  0  0  0  0  0
   -2.8327   -2.4931   -0.4261 C   0  0  0  0  0  0  0  0  0  0  0  0
   -3.2004   -2.3301   -1.9040 C   0  0  0  0  0  0  0  0  0  0  0  0
   -1.8372   -3.6459   -0.2237 C   0  0  0  0  0  0  0  0  0  0  0  0
   -2.4820   -1.1727    2.2081 C   0  0  0  0  0  0  0  0  0  0  0  0
   -1.9970    0.0425    3.0076 C   0  0  0  0  0  0  0  0  0  0  0  0
   -3.9330   -1.5091    2.5616 C   0  0  0  0  0  0  0  0  0  0  0  0
    2.7980    0.3153   -2.0094 C   0  0  0  0  0  0  0  0  0  0  0  0
    4.1056    1.1070   -1.9114 C   0  0  0  0  0  0  0  0  0  0  0  0
    2.7820   -0.6546   -3.1981 C   0  0  0  0  0  0  0  0  0  0  0  0
    3.2494   -2.0944   -0.1735 C   0  0  0  0  0  0  0  0  0  0  0  0
    2.5388   -3.2706   -0.8596 C   0  0  0  0  0  0  0  0  0  0  0  0
    4.7395   -2.0241   -0.5262 C   0  0  0  0  0  0  0  0  0  0  0  0
   -4.9221   -0.8542    0.0275 H   0  0  0  0  0  0  0  0  0  0  0  0
   -6.6077    0.9136   -0.3452 H   0  0  0  0  0  0  0  0  0  0  0  0
   -5.8551    3.3056   -0.6544 H   0  0  0  0  0  0  0  0  0  0  0  0
   -3.4255    3.8335   -0.6504 H   0  0  0  0  0  0  0  0  0  0  0  0
   -1.8348    3.3346   -2.2846 H   0  0  0  0  0  0  0  0  0  0  0  0
    0.4742    4.1920   -2.6504 H   0  0  0  0  0  0  0  0  0  0  0  0
    2.3238    3.5232   -1.0883 H   0  0  0  0  0  0  0  0  0  0  0  0
    2.0175    3.7225    2.2090 H   0  0  0  0  0  0  0  0  0  0  0  0
    3.8114    3.0767    3.8386 H   0  0  0  0  0  0  0  0  0  0  0  0
    4.9154    0.8248    3.6333 H   0  0  0  0  0  0  0  0  0  0  0  0
    4.2610   -0.7156    1.8146 H   0  0  0  0  0  0  0  0  0  0  0  0
   -0.5025    1.2874    1.2989 H   0  0  0  0  0  0  0  0  0  0  0  0
   -3.7544   -2.7165    0.1529 H   0  0  0  0  0  0  0  0  0  0  0  0
   -2.2992   -2.1142   -2.5086 H   0  0  0  0  0  0  0  0  0  0  0  0
   -3.9210   -1.5075   -2.0747 H   0  0  0  0  0  0  0  0  0  0  0  0
   -3.6616   -3.2714   -2.2703 H   0  0  0  0  0  0  0  0  0  0  0  0
   -2.2999   -4.6045   -0.5376 H   0  0  0  0  0  0  0  0  0  0  0  0
   -1.4973   -3.7484    0.8257 H   0  0  0  0  0  0  0  0  0  0  0  0
   -0.9345   -3.4788   -0.8460 H   0  0  0  0  0  0  0  0  0  0  0  0
   -1.8251   -2.0287    2.4722 H   0  0  0  0  0  0  0  0  0  0  0  0
   -2.5000    0.9773    2.6831 H   0  0  0  0  0  0  0  0  0  0  0  0
   -0.9000    0.1609    2.9227 H   0  0  0  0  0  0  0  0  0  0  0  0
   -2.2290   -0.1035    4.0829 H   0  0  0  0  0  0  0  0  0  0  0  0
   -3.9903   -1.7556    3.6426 H   0  0  0  0  0  0  0  0  0  0  0  0
   -4.3305   -2.3846    2.0111 H   0  0  0  0  0  0  0  0  0  0  0  0
   -4.6110   -0.6499    2.3862 H   0  0  0  0  0  0  0  0  0  0  0  0
    1.9542    1.0209   -2.1612 H   0  0  0  0  0  0  0  0  0  0  0  0
    4.9888    0.4463   -1.8119 H   0  0  0  0  0  0  0  0  0  0  0  0
    4.1124    1.8072   -1.0538 H   0  0  0  0  0  0  0  0  0  0  0  0
    4.2430    1.7038   -2.8380 H   0  0  0  0  0  0  0  0  0  0  0  0
    2.8993   -0.0762   -4.1382 H   0  0  0  0  0  0  0  0  0  0  0  0
    1.8173   -1.1934   -3.2578 H   0  0  0  0  0  0  0  0  0  0  0  0
    3.6129   -1.3864   -3.1577 H   0  0  0  0  0  0  0  0  0  0  0  0
    3.1285   -2.2502    0.9196 H   0  0  0  0  0  0  0  0  0  0  0  0
    2.5279   -3.1716   -1.9623 H   0  0  0  0  0  0  0  0  0  0  0  0
    1.4930   -3.3468   -0.5046 H   0  0  0  0  0  0  0  0  0  0  0  0
    3.0585   -4.2190   -0.6092 H   0  0  0  0  0  0  0  0  0  0  0  0
    5.2457   -2.9485   -0.1765 H   0  0  0  0  0  0  0  0  0  0  0  0
    5.2554   -1.1627   -0.0599 H   0  0  0  0  0  0  0  0  0  0  0  0
    4.9012   -1.9597   -1.6199 H   0  0  0  0  0  0  0  0  0  0  0  0
  1 24  1  0  0  0  0
  2 30  1  0  0  0  0
  2 19  1  0  0  0  0
  3  1  1  0  0  0  0
  4  3  1  0  0  0  0
  4 33  1  0  0  0  0
  5  4  2  0  0  0  0
  6  7  2  0  0  0  0
  6  5  1  0  0  0  0
  7  8  1  0  0  0  0
  8  3  2  0  0  0  0
  9  8  1  0  0  0  0
  9 20  1  0  0  0  0
 10  9  2  0  0  0  0
 11 10  1  0  0  0  0
 11 12  2  0  0  0  0
 12 13  1  0  0  0  0
 13 20  2  0  0  0  0
 13 14  1  0  0  0  0
 14 15  1  0  0  0  0
 15 40  1  0  0  0  0
 15 16  2  0  0  0  0
 16 41  1  0  0  0  0
 17 16  1  0  0  0  0
 17 42  1  0  0  0  0
 18 17  2  0  0  0  0
 19 14  2  0  0  0  0
 19 18  1  0  0  0  0
 20 44  1  0  0  0  0
 21 23  1  0  0  0  0
 21 45  1  0  0  0  0
 21  1  1  0  0  0  0
 22 21  1  0  0  0  0
 23 50  1  0  0  0  0
 24 52  1  0  0  0  0
 24 26  1  0  0  0  0
 24 25  1  0  0  0  0
 25 55  1  0  0  0  0
 26 56  1  0  0  0  0
 27 28  1  0  0  0  0
 27  2  1  0  0  0  0
 28 60  1  0  0  0  0
 28 61  1  0  0  0  0
 29 65  1  0  0  0  0
 29 27  1  0  0  0  0
 30 66  1  0  0  0  0
 31 69  1  0  0  0  0
 31 68  1  0  0  0  0
 31 30  1  0  0  0  0
 32 70  1  0  0  0  0
 32 30  1  0  0  0  0
 32 71  1  0  0  0  0
 34  5  1  0  0  0  0
 35  6  1  0  0  0  0
 36  7  1  0  0  0  0
 37 10  1  0  0  0  0
 38 11  1  0  0  0  0
 39 12  1  0  0  0  0
 43 18  1  0  0  0  0
 46 22  1  0  0  0  0
 47 22  1  0  0  0  0
 48 22  1  0  0  0  0
 49 23  1  0  0  0  0
 51 23  1  0  0  0  0
 53 25  1  0  0  0  0
 54 25  1  0  0  0  0
 57 26  1  0  0  0  0
 58 26  1  0  0  0  0
 59 27  1  0  0  0  0
 62 28  1  0  0  0  0
 63 29  1  0  0  0  0
 64 29  1  0  0  0  0
 67 31  1  0  0  0  0
 72 32  1  0  0  0  0
M  END
