1,2
 OpenBabel05122313063D

 62 65  0  0  0  0  0  0  0  0999 V2000
   -1.5186   -0.0396   -0.1200 P   0  0  0  0  0  0  0  0  0  0  0  0
    1.6059   -0.0672    0.2921 P   0  0  0  0  0  0  0  0  0  0  0  0
   -2.0101   -1.8630    3.0820 C   0  0  0  0  0  0  0  0  0  0  0  0
   -2.6992   -1.8201    3.9467 H   0  0  0  0  0  0  0  0  0  0  0  0
   -1.0805   -2.4002    3.3646 H   0  0  0  0  0  0  0  0  0  0  0  0
   -2.4951   -2.4097    2.2488 H   0  0  0  0  0  0  0  0  0  0  0  0
   -1.7116   -0.4854    2.6909 N   0  0  0  0  0  0  0  0  0  0  0  0
   -2.3512    0.5660    3.3293 C   0  0  0  0  0  0  0  0  0  0  0  0
   -3.1508    0.4484    4.2460 O   0  0  0  0  0  0  0  0  0  0  0  0
    1.0225   -0.2818    3.0721 N   0  0  0  0  0  0  0  0  0  0  0  0
    2.3942   -0.4454    3.5129 C   0  0  0  0  0  0  0  0  0  0  0  0
    2.7413   -1.5010    3.4730 H   0  0  0  0  0  0  0  0  0  0  0  0
    2.4704   -0.0859    4.5574 H   0  0  0  0  0  0  0  0  0  0  0  0
    3.0869    0.1583    2.8977 H   0  0  0  0  0  0  0  0  0  0  0  0
    0.5222   -0.2377    1.8016 C   0  0  0  0  0  0  0  0  0  0  0  0
   -0.8446   -0.2686    1.5744 C   0  0  0  0  0  0  0  0  0  0  0  0
   -3.0461   -1.0727   -0.0932 C   0  0  0  0  0  0  0  0  0  0  0  0
   -3.0782   -2.2708   -0.8328 C   0  0  0  0  0  0  0  0  0  0  0  0
   -2.2199   -2.5386   -1.4646 H   0  0  0  0  0  0  0  0  0  0  0  0
   -4.1990   -3.1133   -0.7688 C   0  0  0  0  0  0  0  0  0  0  0  0
   -4.2128   -4.0457   -1.3531 H   0  0  0  0  0  0  0  0  0  0  0  0
   -5.2975   -2.7633    0.0312 C   0  0  0  0  0  0  0  0  0  0  0  0
   -6.1763   -3.4241    0.0819 H   0  0  0  0  0  0  0  0  0  0  0  0
   -5.2790   -1.5614    0.7585 C   0  0  0  0  0  0  0  0  0  0  0  0
   -6.1405   -1.2775    1.3817 H   0  0  0  0  0  0  0  0  0  0  0  0
   -4.1627   -0.7157    0.6947 C   0  0  0  0  0  0  0  0  0  0  0  0
   -4.1665    0.2276    1.2597 H   0  0  0  0  0  0  0  0  0  0  0  0
   -2.1861    1.6841   -0.1267 C   0  0  0  0  0  0  0  0  0  0  0  0
   -3.3235    2.0104   -0.8923 C   0  0  0  0  0  0  0  0  0  0  0  0
   -3.8923    1.2160   -1.3988 H   0  0  0  0  0  0  0  0  0  0  0  0
   -3.7293    3.3478   -1.0167 C   0  0  0  0  0  0  0  0  0  0  0  0
   -4.6204    3.5914   -1.6150 H   0  0  0  0  0  0  0  0  0  0  0  0
   -3.0021    4.3710   -0.3880 C   0  0  0  0  0  0  0  0  0  0  0  0
   -3.3223    5.4188   -0.4895 H   0  0  0  0  0  0  0  0  0  0  0  0
   -1.8583    4.0520    0.3607 C   0  0  0  0  0  0  0  0  0  0  0  0
   -1.2713    4.8481    0.8434 H   0  0  0  0  0  0  0  0  0  0  0  0
   -1.4515    2.7166    0.4893 C   0  0  0  0  0  0  0  0  0  0  0  0
   -0.5387    2.4756    1.0548 H   0  0  0  0  0  0  0  0  0  0  0  0
    2.4209    1.5724    0.5123 C   0  0  0  0  0  0  0  0  0  0  0  0
    2.1936    2.4121    1.6222 C   0  0  0  0  0  0  0  0  0  0  0  0
    1.5562    2.0715    2.4514 H   0  0  0  0  0  0  0  0  0  0  0  0
    2.7683    3.6923    1.6693 C   0  0  0  0  0  0  0  0  0  0  0  0
    2.5753    4.3422    2.5364 H   0  0  0  0  0  0  0  0  0  0  0  0
    3.5815    4.1424    0.6186 C   0  0  0  0  0  0  0  0  0  0  0  0
    4.0299    5.1465    0.6581 H   0  0  0  0  0  0  0  0  0  0  0  0
    3.8089    3.3122   -0.4910 C   0  0  0  0  0  0  0  0  0  0  0  0
    4.4321    3.6634   -1.3270 H   0  0  0  0  0  0  0  0  0  0  0  0
    3.2227    2.0406   -0.5524 C   0  0  0  0  0  0  0  0  0  0  0  0
    3.3665    1.4145   -1.4464 H   0  0  0  0  0  0  0  0  0  0  0  0
    2.9183   -1.3246    0.6183 C   0  0  0  0  0  0  0  0  0  0  0  0
    4.2909   -1.0465    0.4811 C   0  0  0  0  0  0  0  0  0  0  0  0
    4.6281   -0.0280    0.2387 H   0  0  0  0  0  0  0  0  0  0  0  0
    5.2362   -2.0678    0.6657 C   0  0  0  0  0  0  0  0  0  0  0  0
    6.3076   -1.8416    0.5543 H   0  0  0  0  0  0  0  0  0  0  0  0
    4.8213   -3.3681    0.9916 C   0  0  0  0  0  0  0  0  0  0  0  0
    5.5652   -4.1660    1.1351 H   0  0  0  0  0  0  0  0  0  0  0  0
    3.4515   -3.6482    1.1290 C   0  0  0  0  0  0  0  0  0  0  0  0
    3.1165   -4.6662    1.3789 H   0  0  0  0  0  0  0  0  0  0  0  0
    2.5028   -2.6346    0.9369 C   0  0  0  0  0  0  0  0  0  0  0  0
    1.4308   -2.8629    1.0370 H   0  0  0  0  0  0  0  0  0  0  0  0
   -2.0368    1.5540    2.8949 H   0  0  0  0  0  0  0  0  0  0  0  0
    0.2963   -0.3615    3.7911 H   0  0  0  0  0  0  0  0  0  0  0  0
  1 17  1  0  0  0  0
  1 16  1  0  0  0  0
  2 39  1  0  0  0  0
  2 50  1  0  0  0  0
  2 15  1  0  0  0  0
  3  5  1  0  0  0  0
  3  4  1  0  0  0  0
  6  3  1  0  0  0  0
  7  3  1  0  0  0  0
  7  8  1  0  0  0  0
  8  9  2  0  0  0  0
 10 11  1  0  0  0  0
 10 62  1  0  0  0  0
 11 13  1  0  0  0  0
 12 11  1  0  0  0  0
 14 11  1  0  0  0  0
 15 10  1  0  0  0  0
 16 15  2  0  0  0  0
 16  7  1  0  0  0  0
 17 26  1  0  0  0  0
 18 20  1  0  0  0  0
 18 17  2  0  0  0  0
 19 18  1  0  0  0  0
 20 22  2  0  0  0  0
 21 20  1  0  0  0  0
 22 23  1  0  0  0  0
 22 24  1  0  0  0  0
 24 25  1  0  0  0  0
 26 24  2  0  0  0  0
 26 27  1  0  0  0  0
 28  1  1  0  0  0  0
 28 37  1  0  0  0  0
 29 28  2  0  0  0  0
 30 29  1  0  0  0  0
 31 29  1  0  0  0  0
 31 33  2  0  0  0  0
 32 31  1  0  0  0  0
 33 35  1  0  0  0  0
 34 33  1  0  0  0  0
 35 37  2  0  0  0  0
 35 36  1  0  0  0  0
 37 38  1  0  0  0  0
 39 40  1  0  0  0  0
 40 42  2  0  0  0  0
 40 41  1  0  0  0  0
 42 43  1  0  0  0  0
 44 45  1  0  0  0  0
 44 42  1  0  0  0  0
 46 44  2  0  0  0  0
 47 46  1  0  0  0  0
 48 46  1  0  0  0  0
 48 39  2  0  0  0  0
 49 48  1  0  0  0  0
 50 59  1  0  0  0  0
 51 50  2  0  0  0  0
 51 53  1  0  0  0  0
 52 51  1  0  0  0  0
 53 55  2  0  0  0  0
 54 53  1  0  0  0  0
 55 57  1  0  0  0  0
 55 56  1  0  0  0  0
 57 58  1  0  0  0  0
 59 60  1  0  0  0  0
 59 57  2  0  0  0  0
 61  8  1  0  0  0  0
M  END
