1,2
 OpenBabel05122313063D

 76 82  0  0  0  0  0  0  0  0999 V2000
   -1.7837   -0.1767   -0.0550 P   0  0  0  0  0  0  0  0  0  0  0  0
    1.7958   -0.2482   -0.0536 P   0  0  0  0  0  0  0  0  0  0  0  0
   -3.0619   -0.6177   -1.3130 C   0  0  0  0  0  0  0  0  0  0  0  0
   -3.0059   -1.8330   -2.0218 C   0  0  0  0  0  0  0  0  0  0  0  0
   -2.2167   -2.5601   -1.7839 H   0  0  0  0  0  0  0  0  0  0  0  0
   -3.9694   -2.1161   -3.0016 C   0  0  0  0  0  0  0  0  0  0  0  0
   -3.9160   -3.0673   -3.5525 H   0  0  0  0  0  0  0  0  0  0  0  0
   -4.9958   -1.1991   -3.2754 C   0  0  0  0  0  0  0  0  0  0  0  0
   -5.7512   -1.4278   -4.0427 H   0  0  0  0  0  0  0  0  0  0  0  0
   -5.0548    0.0140   -2.5706 C   0  0  0  0  0  0  0  0  0  0  0  0
   -5.8546    0.7400   -2.7818 H   0  0  0  0  0  0  0  0  0  0  0  0
   -4.0874    0.3103   -1.5994 C   0  0  0  0  0  0  0  0  0  0  0  0
   -4.1247    1.2734   -1.0688 H   0  0  0  0  0  0  0  0  0  0  0  0
   -2.6402   -0.1245    1.5740 C   0  0  0  0  0  0  0  0  0  0  0  0
   -4.0323   -0.2641    1.7115 C   0  0  0  0  0  0  0  0  0  0  0  0
   -4.6604   -0.4299    0.8250 H   0  0  0  0  0  0  0  0  0  0  0  0
   -4.6176   -0.2188    2.9865 C   0  0  0  0  0  0  0  0  0  0  0  0
   -5.7068   -0.3408    3.0875 H   0  0  0  0  0  0  0  0  0  0  0  0
   -3.8223   -0.0316    4.1271 C   0  0  0  0  0  0  0  0  0  0  0  0
   -4.2862   -0.0006    5.1246 H   0  0  0  0  0  0  0  0  0  0  0  0
   -2.4302    0.0983    3.9934 C   0  0  0  0  0  0  0  0  0  0  0  0
   -1.7966    0.2270    4.8840 H   0  0  0  0  0  0  0  0  0  0  0  0
   -1.8399    0.0422    2.7240 C   0  0  0  0  0  0  0  0  0  0  0  0
   -0.7458    0.1069    2.6191 H   0  0  0  0  0  0  0  0  0  0  0  0
   -1.5528    1.6140   -0.4527 C   0  0  0  0  0  0  0  0  0  0  0  0
   -1.6088    2.5849    0.5614 C   0  0  0  0  0  0  0  0  0  0  0  0
   -1.7021    2.2660    1.6101 H   0  0  0  0  0  0  0  0  0  0  0  0
   -1.4264    3.9530    0.2759 C   0  0  0  0  0  0  0  0  0  0  0  0
   -1.5001    4.3383   -1.0754 C   0  0  0  0  0  0  0  0  0  0  0  0
   -1.4641    5.4073   -1.3393 H   0  0  0  0  0  0  0  0  0  0  0  0
   -1.4441    3.3753   -2.0937 C   0  0  0  0  0  0  0  0  0  0  0  0
   -1.3588    3.7044   -3.1418 H   0  0  0  0  0  0  0  0  0  0  0  0
   -1.3003    2.0083   -1.7965 C   0  0  0  0  0  0  0  0  0  0  0  0
   -0.6570    1.0757   -2.7978 C   0  0  0  0  0  0  0  0  0  0  0  0
   -1.0684    1.2497   -3.8120 H   0  0  0  0  0  0  0  0  0  0  0  0
   -0.8775    0.0215   -2.5449 H   0  0  0  0  0  0  0  0  0  0  0  0
    0.9246    1.2533   -2.8581 C   0  0  0  0  0  0  0  0  0  0  0  0
    1.3804    0.2460   -2.9024 H   0  0  0  0  0  0  0  0  0  0  0  0
    1.1916    1.7661   -3.8031 H   0  0  0  0  0  0  0  0  0  0  0  0
   -0.8932    4.8930    1.3321 C   0  0  0  0  0  0  0  0  0  0  0  0
   -1.4283    4.7572    2.2939 H   0  0  0  0  0  0  0  0  0  0  0  0
   -1.0622    5.9411    1.0136 H   0  0  0  0  0  0  0  0  0  0  0  0
    0.6697    4.6794    1.5979 C   0  0  0  0  0  0  0  0  0  0  0  0
    1.1479    5.6779    1.6628 H   0  0  0  0  0  0  0  0  0  0  0  0
    0.8014    4.1939    2.5853 H   0  0  0  0  0  0  0  0  0  0  0  0
    1.4583    2.0670   -1.6999 C   0  0  0  0  0  0  0  0  0  0  0  0
    1.6133    3.4584   -1.8553 C   0  0  0  0  0  0  0  0  0  0  0  0
    1.6346    3.8754   -2.8749 H   0  0  0  0  0  0  0  0  0  0  0  0
    1.5589    4.3324   -0.7618 C   0  0  0  0  0  0  0  0  0  0  0  0
    1.5514    5.4198   -0.9381 H   0  0  0  0  0  0  0  0  0  0  0  0
    1.3251    3.8306    0.5324 C   0  0  0  0  0  0  0  0  0  0  0  0
    1.4859    2.4420    0.7140 C   0  0  0  0  0  0  0  0  0  0  0  0
    1.4531    2.0287    1.7347 H   0  0  0  0  0  0  0  0  0  0  0  0
    1.5835    1.5578   -0.3775 C   0  0  0  0  0  0  0  0  0  0  0  0
    2.7060   -0.2167    1.5580 C   0  0  0  0  0  0  0  0  0  0  0  0
    2.0905   -0.7441    2.7108 C   0  0  0  0  0  0  0  0  0  0  0  0
    1.1190   -1.2524    2.6174 H   0  0  0  0  0  0  0  0  0  0  0  0
    2.7306   -0.6581    3.9564 C   0  0  0  0  0  0  0  0  0  0  0  0
    2.2408   -1.0804    4.8468 H   0  0  0  0  0  0  0  0  0  0  0  0
    3.9934   -0.0560    4.0610 C   0  0  0  0  0  0  0  0  0  0  0  0
    4.4985    0.0044    5.0371 H   0  0  0  0  0  0  0  0  0  0  0  0
    4.6167    0.4593    2.9130 C   0  0  0  0  0  0  0  0  0  0  0  0
    5.6119    0.9237    2.9847 H   0  0  0  0  0  0  0  0  0  0  0  0
    3.9766    0.3830    1.6678 C   0  0  0  0  0  0  0  0  0  0  0  0
    4.4784    0.7899    0.7793 H   0  0  0  0  0  0  0  0  0  0  0  0
    3.0439   -0.7047   -1.3448 C   0  0  0  0  0  0  0  0  0  0  0  0
    4.0389    0.2221   -1.7303 C   0  0  0  0  0  0  0  0  0  0  0  0
    4.0677    1.2260   -1.2835 H   0  0  0  0  0  0  0  0  0  0  0  0
    4.9743   -0.1132   -2.7194 C   0  0  0  0  0  0  0  0  0  0  0  0
    5.7448    0.6178   -3.0082 H   0  0  0  0  0  0  0  0  0  0  0  0
    4.9203   -1.3690   -3.3448 C   0  0  0  0  0  0  0  0  0  0  0  0
    5.6518   -1.6289   -4.1253 H   0  0  0  0  0  0  0  0  0  0  0  0
    3.9261   -2.2867   -2.9744 C   0  0  0  0  0  0  0  0  0  0  0  0
    3.8727   -3.2719   -3.4620 H   0  0  0  0  0  0  0  0  0  0  0  0
    2.9912   -1.9615   -1.9796 C   0  0  0  0  0  0  0  0  0  0  0  0
    2.2295   -2.6906   -1.6685 H   0  0  0  0  0  0  0  0  0  0  0  0
  1 14  1  0  0  0  0
  2 55  1  0  0  0  0
  3  1  1  0  0  0  0
  4  5  1  0  0  0  0
  4  3  2  0  0  0  0
  6  4  1  0  0  0  0
  7  6  1  0  0  0  0
  8  6  2  0  0  0  0
  8 10  1  0  0  0  0
  9  8  1  0  0  0  0
 10 12  2  0  0  0  0
 11 10  1  0  0  0  0
 12  3  1  0  0  0  0
 12 13  1  0  0  0  0
 14 15  2  0  0  0  0
 14 23  1  0  0  0  0
 15 17  1  0  0  0  0
 16 15  1  0  0  0  0
 17 18  1  0  0  0  0
 17 19  2  0  0  0  0
 19 20  1  0  0  0  0
 21 19  1  0  0  0  0
 21 22  1  0  0  0  0
 23 21  2  0  0  0  0
 24 23  1  0  0  0  0
 25  1  1  0  0  0  0
 25 26  1  0  0  0  0
 26 27  1  0  0  0  0
 28 26  2  0  0  0  0
 28 40  1  0  0  0  0
 29 28  1  0  0  0  0
 30 29  1  0  0  0  0
 31 33  1  0  0  0  0
 31 29  2  0  0  0  0
 32 31  1  0  0  0  0
 33 25  2  0  0  0  0
 34 36  1  0  0  0  0
 34 33  1  0  0  0  0
 35 34  1  0  0  0  0
 37 34  1  0  0  0  0
 37 46  1  0  0  0  0
 38 37  1  0  0  0  0
 39 37  1  0  0  0  0
 40 43  1  0  0  0  0
 40 41  1  0  0  0  0
 42 40  1  0  0  0  0
 43 44  1  0  0  0  0
 43 45  1  0  0  0  0
 46 54  1  0  0  0  0
 47 46  2  0  0  0  0
 47 49  1  0  0  0  0
 48 47  1  0  0  0  0
 49 51  2  0  0  0  0
 50 49  1  0  0  0  0
 51 52  1  0  0  0  0
 51 43  1  0  0  0  0
 52 53  1  0  0  0  0
 54  2  1  0  0  0  0
 54 52  2  0  0  0  0
 55 64  2  0  0  0  0
 55 56  1  0  0  0  0
 56 58  2  0  0  0  0
 57 56  1  0  0  0  0
 58 60  1  0  0  0  0
 58 59  1  0  0  0  0
 60 61  1  0  0  0  0
 62 63  1  0  0  0  0
 62 60  2  0  0  0  0
 64 62  1  0  0  0  0
 65 64  1  0  0  0  0
 66  2  1  0  0  0  0
 67 66  1  0  0  0  0
 67 68  1  0  0  0  0
 69 67  2  0  0  0  0
 70 69  1  0  0  0  0
 71 73  2  0  0  0  0
 71 69  1  0  0  0  0
 72 71  1  0  0  0  0
 73 75  1  0  0  0  0
 74 73  1  0  0  0  0
 75 76  1  0  0  0  0
 75 66  2  0  0  0  0
M  END
