4,15
 OpenBabel05122313063D

 42 44  0  0  0  0  0  0  0  0999 V2000
   -1.3488    4.6142   -0.5981 C   0  0  0  0  0  0  0  0  0  0  0  0
   -1.8084    3.3355   -0.9445 C   0  0  0  0  0  0  0  0  0  0  0  0
   -1.1228    2.1901   -0.4942 C   0  0  0  0  0  0  0  0  0  0  0  0
   -1.6841    0.4765   -0.8814 P   0  0  2  0  0  0  0  0  0  0  0  0
   -2.1312    0.4617   -2.6574 C   0  0  0  0  0  0  0  0  0  0  0  0
   -3.2848    0.2841    0.0002 C   0  0  0  0  0  0  0  0  0  0  0  0
   -3.8335    1.2725    0.8401 C   0  0  0  0  0  0  0  0  0  0  0  0
   -5.0397    1.0278    1.5163 C   0  0  0  0  0  0  0  0  0  0  0  0
   -5.7016   -0.1989    1.3587 C   0  0  0  0  0  0  0  0  0  0  0  0
   -5.1484   -1.1907    0.5315 C   0  0  0  0  0  0  0  0  0  0  0  0
   -3.9419   -0.9587   -0.1419 C   0  0  0  0  0  0  0  0  0  0  0  0
   -0.2022    4.7576    0.2018 C   0  0  0  0  0  0  0  0  0  0  0  0
    0.4905    3.6226    0.6463 C   0  0  0  0  0  0  0  0  0  0  0  0
    0.0371    2.3356    0.2991 C   0  0  0  0  0  0  0  0  0  0  0  0
    0.9228    0.8016    0.8383 P   0  0  2  0  0  0  0  0  0  0  0  0
    0.7823    0.8030    2.6707 C   0  0  0  0  0  0  0  0  0  0  0  0
    2.6915    1.1851    0.5233 C   0  0  0  0  0  0  0  0  0  0  0  0
    3.6889    0.6567    1.3695 C   0  0  0  0  0  0  0  0  0  0  0  0
    5.0441    0.8875    1.0862 C   0  0  0  0  0  0  0  0  0  0  0  0
    5.4142    1.6392   -0.0397 C   0  0  0  0  0  0  0  0  0  0  0  0
    4.4233    2.1572   -0.8896 C   0  0  0  0  0  0  0  0  0  0  0  0
    3.0675    1.9283   -0.6166 C   0  0  0  0  0  0  0  0  0  0  0  0
   -1.8862    5.5052   -0.9565 H   0  0  0  0  0  0  0  0  0  0  0  0
   -2.7092    3.2284   -1.5681 H   0  0  0  0  0  0  0  0  0  0  0  0
   -3.3186    2.2353    0.9737 H   0  0  0  0  0  0  0  0  0  0  0  0
   -5.4621    1.8037    2.1730 H   0  0  0  0  0  0  0  0  0  0  0  0
   -6.6464   -0.3877    1.8907 H   0  0  0  0  0  0  0  0  0  0  0  0
   -5.6541   -2.1616    0.4189 H   0  0  0  0  0  0  0  0  0  0  0  0
   -3.4793   -1.7530   -0.7525 H   0  0  0  0  0  0  0  0  0  0  0  0
    0.1594    5.7612    0.4720 H   0  0  0  0  0  0  0  0  0  0  0  0
    1.4041    3.7364    1.2505 H   0  0  0  0  0  0  0  0  0  0  0  0
    3.4135    0.0256    2.2251 H   0  0  0  0  0  0  0  0  0  0  0  0
    5.8151    0.4693    1.7510 H   0  0  0  0  0  0  0  0  0  0  0  0
    6.4779    1.8178   -0.2592 H   0  0  0  0  0  0  0  0  0  0  0  0
    4.7068    2.7375   -1.7806 H   0  0  0  0  0  0  0  0  0  0  0  0
    2.2957    2.3101   -1.2986 H   0  0  0  0  0  0  0  0  0  0  0  0
   -2.3972   -0.5856   -2.9006 H   0  0  0  0  0  0  0  0  0  0  0  0
   -2.9744    1.1455   -2.8709 H   0  0  0  0  0  0  0  0  0  0  0  0
   -1.2198    0.7260   -3.2253 H   0  0  0  0  0  0  0  0  0  0  0  0
    1.2444   -0.1387    3.0280 H   0  0  0  0  0  0  0  0  0  0  0  0
    1.2794    1.6804    3.1265 H   0  0  0  0  0  0  0  0  0  0  0  0
   -0.2929    0.7909    2.9322 H   0  0  0  0  0  0  0  0  0  0  0  0
  1 12  1  0  0  0  0
  2  1  2  0  0  0  0
  2  3  1  0  0  0  0
  3 14  2  0  0  0  0
  4  5  1  6  0  0  0
  4  3  1  0  0  0  0
  4  6  1  0  0  0  0
  6  7  1  0  0  0  0
  7 25  1  0  0  0  0
  7  8  2  0  0  0  0
  8 26  1  0  0  0  0
  9  8  1  0  0  0  0
  9 27  1  0  0  0  0
 10  9  2  0  0  0  0
 11  6  2  0  0  0  0
 11 10  1  0  0  0  0
 12 30  1  0  0  0  0
 12 13  2  0  0  0  0
 13 31  1  0  0  0  0
 14 13  1  0  0  0  0
 14 15  1  0  0  0  0
 15 16  1  1  0  0  0
 16 42  1  0  0  0  0
 16 40  1  0  0  0  0
 16 41  1  0  0  0  0
 17 15  1  0  0  0  0
 17 18  1  0  0  0  0
 18 32  1  0  0  0  0
 19 18  2  0  0  0  0
 19 33  1  0  0  0  0
 20 19  1  0  0  0  0
 21 22  1  0  0  0  0
 21 20  2  0  0  0  0
 22 17  2  0  0  0  0
 23  1  1  0  0  0  0
 24  2  1  0  0  0  0
 28 10  1  0  0  0  0
 29 11  1  0  0  0  0
 34 20  1  0  0  0  0
 35 21  1  0  0  0  0
 36 22  1  0  0  0  0
 37  5  1  0  0  0  0
 38  5  1  0  0  0  0
 39  5  1  0  0  0  0
M  END
