1,2
 OpenBabel05122313063D

 72 74  0  0  1  0  0  0  0  0999 V2000
    1.3565    1.1026   -0.0059 P   0  0  2  0  0  0  0  0  0  0  0  0
   -1.7724    0.5060   -0.0330 P   0  0  2  0  0  0  0  0  0  0  0  0
    2.6622    1.3137    1.3318 C   0  0  2  0  0  0  0  0  0  0  0  0
    2.7462    2.4155    1.4817 H   0  0  0  0  0  0  0  0  0  0  0  0
    3.9395    0.8659    0.6032 C   0  0  0  0  0  0  0  0  0  0  0  0
    4.8403    1.1083    1.2018 H   0  0  0  0  0  0  0  0  0  0  0  0
    3.9340   -0.2322    0.4433 H   0  0  0  0  0  0  0  0  0  0  0  0
    3.9482    1.6087   -0.7359 C   0  0  0  0  0  0  0  0  0  0  0  0
    4.7589    1.2433   -1.3975 H   0  0  0  0  0  0  0  0  0  0  0  0
    4.1401    2.6899   -0.5527 H   0  0  0  0  0  0  0  0  0  0  0  0
    2.5743    1.4523   -1.4257 C   0  0  2  0  0  0  0  0  0  0  0  0
    2.5693    0.4848   -1.9717 H   0  0  0  0  0  0  0  0  0  0  0  0
    2.3064    0.6727    2.6893 C   0  0  0  0  0  0  0  0  0  0  0  0
    1.7683   -0.2765    2.4787 H   0  0  0  0  0  0  0  0  0  0  0  0
    3.5506    0.3231    3.5151 C   0  0  0  0  0  0  0  0  0  0  0  0
    3.2530   -0.0923    4.4993 H   0  0  0  0  0  0  0  0  0  0  0  0
    4.1769    1.2201    3.7086 H   0  0  0  0  0  0  0  0  0  0  0  0
    4.1791   -0.4356    3.0090 H   0  0  0  0  0  0  0  0  0  0  0  0
    1.3684    1.5974    3.4749 C   0  0  0  0  0  0  0  0  0  0  0  0
    0.4526    1.8432    2.9016 H   0  0  0  0  0  0  0  0  0  0  0  0
    1.8775    2.5553    3.7161 H   0  0  0  0  0  0  0  0  0  0  0  0
    1.0533    1.1330    4.4298 H   0  0  0  0  0  0  0  0  0  0  0  0
    2.2146    2.5674   -2.4264 C   0  0  0  0  0  0  0  0  0  0  0  0
    2.1146    3.5208   -1.8599 H   0  0  0  0  0  0  0  0  0  0  0  0
    3.3415    2.7548   -3.4552 C   0  0  0  0  0  0  0  0  0  0  0  0
    4.2991    3.0541   -2.9864 H   0  0  0  0  0  0  0  0  0  0  0  0
    3.0690    3.5392   -4.1902 H   0  0  0  0  0  0  0  0  0  0  0  0
    3.5188    1.8145   -4.0192 H   0  0  0  0  0  0  0  0  0  0  0  0
    0.8893    2.2925   -3.1396 C   0  0  0  0  0  0  0  0  0  0  0  0
    0.0463    2.1974   -2.4292 H   0  0  0  0  0  0  0  0  0  0  0  0
    0.9446    1.3481   -3.7189 H   0  0  0  0  0  0  0  0  0  0  0  0
    0.6411    3.1093   -3.8471 H   0  0  0  0  0  0  0  0  0  0  0  0
    0.1883    2.5260    0.1832 C   0  0  0  0  0  0  0  0  0  0  0  0
    0.6579    3.8450    0.3503 C   0  0  0  0  0  0  0  0  0  0  0  0
    1.7400    4.0401    0.4037 H   0  0  0  0  0  0  0  0  0  0  0  0
   -0.2392    4.9167    0.4514 C   0  0  0  0  0  0  0  0  0  0  0  0
    0.1408    5.9413    0.5801 H   0  0  0  0  0  0  0  0  0  0  0  0
   -1.6199    4.6766    0.3785 C   0  0  0  0  0  0  0  0  0  0  0  0
   -2.3317    5.5130    0.4467 H   0  0  0  0  0  0  0  0  0  0  0  0
   -2.0966    3.3672    0.2222 C   0  0  0  0  0  0  0  0  0  0  0  0
   -3.1809    3.1992    0.1636 H   0  0  0  0  0  0  0  0  0  0  0  0
   -1.2086    2.2738    0.1378 C   0  0  0  0  0  0  0  0  0  0  0  0
   -3.1400    0.5705   -1.3495 C   0  0  2  0  0  0  0  0  0  0  0  0
   -3.1104    1.6103   -1.7458 H   0  0  0  0  0  0  0  0  0  0  0  0
   -4.4606    0.3323   -0.5740 C   0  0  0  0  0  0  0  0  0  0  0  0
   -5.3076    0.8541   -1.0632 H   0  0  0  0  0  0  0  0  0  0  0  0
   -4.6853   -0.7551   -0.6126 H   0  0  0  0  0  0  0  0  0  0  0  0
   -4.3126    0.7391    0.8959 C   0  0  0  0  0  0  0  0  0  0  0  0
   -4.3469    1.8428    1.0200 H   0  0  0  0  0  0  0  0  0  0  0  0
   -5.1511    0.3358    1.5001 H   0  0  0  0  0  0  0  0  0  0  0  0
   -2.9694    0.1749    1.3779 C   0  0  2  0  0  0  0  0  0  0  0  0
   -3.0361   -0.9384    1.3179 H   0  0  0  0  0  0  0  0  0  0  0  0
   -2.9375   -0.4095   -2.5273 C   0  0  0  0  0  0  0  0  0  0  0  0
   -2.8834   -1.4319   -2.0885 H   0  0  0  0  0  0  0  0  0  0  0  0
   -1.6297   -0.1612   -3.2781 C   0  0  0  0  0  0  0  0  0  0  0  0
   -0.7543   -0.2677   -2.6018 H   0  0  0  0  0  0  0  0  0  0  0  0
   -1.6076    0.8553   -3.7249 H   0  0  0  0  0  0  0  0  0  0  0  0
   -1.5030   -0.8962   -4.0981 H   0  0  0  0  0  0  0  0  0  0  0  0
   -4.1303   -0.3520   -3.4931 C   0  0  0  0  0  0  0  0  0  0  0  0
   -5.0863   -0.6268   -3.0058 H   0  0  0  0  0  0  0  0  0  0  0  0
   -3.9767   -1.0534   -4.3378 H   0  0  0  0  0  0  0  0  0  0  0  0
   -4.2474    0.6670   -3.9222 H   0  0  0  0  0  0  0  0  0  0  0  0
   -2.4701    0.5450    2.7884 C   0  0  0  0  0  0  0  0  0  0  0  0
   -2.0354    1.5710    2.7475 H   0  0  0  0  0  0  0  0  0  0  0  0
   -3.6174    0.5726    3.8093 C   0  0  0  0  0  0  0  0  0  0  0  0
   -4.3769    1.3438    3.5726 H   0  0  0  0  0  0  0  0  0  0  0  0
   -3.2253    0.7901    4.8235 H   0  0  0  0  0  0  0  0  0  0  0  0
   -4.1312   -0.4109    3.8555 H   0  0  0  0  0  0  0  0  0  0  0  0
   -1.3819   -0.4377    3.2389 C   0  0  0  0  0  0  0  0  0  0  0  0
   -0.5457   -0.4894    2.5108 H   0  0  0  0  0  0  0  0  0  0  0  0
   -1.7957   -1.4646    3.3121 H   0  0  0  0  0  0  0  0  0  0  0  0
   -0.9705   -0.1572    4.2282 H   0  0  0  0  0  0  0  0  0  0  0  0
  1 33  1  1  0  0  0
  1  3  1  0  0  0  0
  2 42  1  1  0  0  0
  2 51  1  0  0  0  0
  3  4  1  1  0  0  0
  3 13  1  0  0  0  0
  5  6  1  0  0  0  0
  5  3  1  0  0  0  0
  7  5  1  0  0  0  0
  8 10  1  0  0  0  0
  8  5  1  0  0  0  0
  9  8  1  0  0  0  0
 11 12  1  6  0  0  0
 11  8  1  0  0  0  0
 11  1  1  0  0  0  0
 13 19  1  0  0  0  0
 13 15  1  0  0  0  0
 14 13  1  0  0  0  0
 15 17  1  0  0  0  0
 15 16  1  0  0  0  0
 18 15  1  0  0  0  0
 19 21  1  0  0  0  0
 19 22  1  0  0  0  0
 20 19  1  0  0  0  0
 23 24  1  0  0  0  0
 23 11  1  0  0  0  0
 25 26  1  0  0  0  0
 25 23  1  0  0  0  0
 27 25  1  0  0  0  0
 28 25  1  0  0  0  0
 29 30  1  0  0  0  0
 29 23  1  0  0  0  0
 31 29  1  0  0  0  0
 32 29  1  0  0  0  0
 33 34  1  0  0  0  0
 34 35  1  0  0  0  0
 34 36  2  0  0  0  0
 36 37  1  0  0  0  0
 38 39  1  0  0  0  0
 38 36  1  0  0  0  0
 40 38  2  0  0  0  0
 41 40  1  0  0  0  0
 42 33  2  0  0  0  0
 42 40  1  0  0  0  0
 43 44  1  6  0  0  0
 43 45  1  0  0  0  0
 43  2  1  0  0  0  0
 45 48  1  0  0  0  0
 46 45  1  0  0  0  0
 47 45  1  0  0  0  0
 48 49  1  0  0  0  0
 48 51  1  0  0  0  0
 48 50  1  0  0  0  0
 51 52  1  1  0  0  0
 51 63  1  0  0  0  0
 53 54  1  0  0  0  0
 53 43  1  0  0  0  0
 55 56  1  0  0  0  0
 55 53  1  0  0  0  0
 57 55  1  0  0  0  0
 58 55  1  0  0  0  0
 59 60  1  0  0  0  0
 59 53  1  0  0  0  0
 61 59  1  0  0  0  0
 62 59  1  0  0  0  0
 63 69  1  0  0  0  0
 63 65  1  0  0  0  0
 64 63  1  0  0  0  0
 65 68  1  0  0  0  0
 65 67  1  0  0  0  0
 66 65  1  0  0  0  0
 69 71  1  0  0  0  0
 69 72  1  0  0  0  0
 70 69  1  0  0  0  0
M  END
