1,2
 OpenBabel05122313063D

 44 48  0  0  1  0  0  0  0  0999 V2000
    0.8841    1.6837   -0.5753 P   0  0  1  0  0  0  0  0  0  0  0  0
   -0.5604   -0.6709    0.1324 P   0  0  0  0  0  0  0  0  0  0  0  0
   -1.8451    1.6190   -1.3524 N   0  0  2  0  0  0  0  0  0  0  0  0
   -0.4413    3.4186   -2.3056 N   0  0  1  0  0  0  0  0  0  0  0  0
   -1.1225    3.5279    0.0458 N   0  0  1  0  0  0  0  0  0  0  0  0
   -0.6905    0.7782   -1.0807 C   0  0  1  0  0  0  0  0  0  0  0  0
   -0.4122    0.2590   -2.0264 H   0  0  0  0  0  0  0  0  0  0  0  0
    0.8771    2.8145   -2.1071 C   0  0  0  0  0  0  0  0  0  0  0  0
    1.6434    3.6107   -1.9992 H   0  0  0  0  0  0  0  0  0  0  0  0
    1.1568    2.1947   -2.9853 H   0  0  0  0  0  0  0  0  0  0  0  0
    0.0779    2.9169    0.6113 C   0  0  0  0  0  0  0  0  0  0  0  0
   -0.1704    2.3754    1.5468 H   0  0  0  0  0  0  0  0  0  0  0  0
    0.8226    3.6990    0.8713 H   0  0  0  0  0  0  0  0  0  0  0  0
   -1.5201    2.4508   -2.5368 C   0  0  0  0  0  0  0  0  0  0  0  0
   -2.4314    3.0192   -2.8170 H   0  0  0  0  0  0  0  0  0  0  0  0
   -1.2463    1.7837   -3.3799 H   0  0  0  0  0  0  0  0  0  0  0  0
   -0.8276    4.2771   -1.1773 C   0  0  0  0  0  0  0  0  0  0  0  0
   -0.0164    5.0070   -0.9766 H   0  0  0  0  0  0  0  0  0  0  0  0
   -1.7390    4.8401   -1.4699 H   0  0  0  0  0  0  0  0  0  0  0  0
   -2.1657    2.5351   -0.2323 C   0  0  0  0  0  0  0  0  0  0  0  0
   -3.0971    3.0743   -0.5022 H   0  0  0  0  0  0  0  0  0  0  0  0
   -2.3604    1.9423    0.6797 H   0  0  0  0  0  0  0  0  0  0  0  0
   -1.3114   -2.0722   -0.7867 C   0  0  0  0  0  0  0  0  0  0  0  0
   -0.8495   -3.3783   -0.5279 C   0  0  0  0  0  0  0  0  0  0  0  0
   -0.0495   -3.5419    0.2103 H   0  0  0  0  0  0  0  0  0  0  0  0
   -1.3958   -4.4653   -1.2263 C   0  0  0  0  0  0  0  0  0  0  0  0
   -1.0289   -5.4826   -1.0230 H   0  0  0  0  0  0  0  0  0  0  0  0
   -2.3956   -4.2554   -2.1897 C   0  0  0  0  0  0  0  0  0  0  0  0
   -2.8171   -5.1098   -2.7408 H   0  0  0  0  0  0  0  0  0  0  0  0
   -2.8511   -2.9542   -2.4566 C   0  0  0  0  0  0  0  0  0  0  0  0
   -3.6299   -2.7867   -3.2163 H   0  0  0  0  0  0  0  0  0  0  0  0
   -2.3138   -1.8618   -1.7584 C   0  0  0  0  0  0  0  0  0  0  0  0
   -2.6698   -0.8396   -1.9661 H   0  0  0  0  0  0  0  0  0  0  0  0
   -1.7607   -0.3810    1.5041 C   0  0  0  0  0  0  0  0  0  0  0  0
   -3.1513   -0.5347    1.3155 C   0  0  0  0  0  0  0  0  0  0  0  0
   -3.5420   -0.8791    0.3471 H   0  0  0  0  0  0  0  0  0  0  0  0
   -4.0379   -0.2477    2.3629 C   0  0  0  0  0  0  0  0  0  0  0  0
   -5.1211   -0.3648    2.2066 H   0  0  0  0  0  0  0  0  0  0  0  0
   -3.5481    0.1811    3.6084 C   0  0  0  0  0  0  0  0  0  0  0  0
   -4.2475    0.4030    4.4286 H   0  0  0  0  0  0  0  0  0  0  0  0
   -2.1652    0.3104    3.8081 C   0  0  0  0  0  0  0  0  0  0  0  0
   -1.7728    0.6275    4.7860 H   0  0  0  0  0  0  0  0  0  0  0  0
   -1.2738    0.0258    2.7618 C   0  0  0  0  0  0  0  0  0  0  0  0
   -0.1896    0.1124    2.9190 H   0  0  0  0  0  0  0  0  0  0  0  0
  1  8  1  6  0  0  0
  1 11  1  0  0  0  0
  2 34  1  0  0  0  0
  3 14  1  6  0  0  0
  3  6  1  0  0  0  0
  3 20  1  0  0  0  0
  4 14  1  1  0  0  0
  4  8  1  0  0  0  0
  4 17  1  0  0  0  0
  5 17  1  6  0  0  0
  5 11  1  0  0  0  0
  6  7  1  6  0  0  0
  6  1  1  0  0  0  0
  6  2  1  0  0  0  0
  8  9  1  0  0  0  0
 10  8  1  0  0  0  0
 11 13  1  0  0  0  0
 11 12  1  0  0  0  0
 15 14  1  0  0  0  0
 16 14  1  0  0  0  0
 17 18  1  0  0  0  0
 19 17  1  0  0  0  0
 20  5  1  0  0  0  0
 20 22  1  0  0  0  0
 21 20  1  0  0  0  0
 23 24  1  0  0  0  0
 23  2  1  0  0  0  0
 24 25  1  0  0  0  0
 26 27  1  0  0  0  0
 26 24  2  0  0  0  0
 28 26  1  0  0  0  0
 29 28  1  0  0  0  0
 30 28  2  0  0  0  0
 30 32  1  0  0  0  0
 31 30  1  0  0  0  0
 32 23  2  0  0  0  0
 33 32  1  0  0  0  0
 34 43  1  0  0  0  0
 35 34  2  0  0  0  0
 35 37  1  0  0  0  0
 36 35  1  0  0  0  0
 37 39  2  0  0  0  0
 38 37  1  0  0  0  0
 39 41  1  0  0  0  0
 39 40  1  0  0  0  0
 41 42  1  0  0  0  0
 43 44  1  0  0  0  0
 43 41  2  0  0  0  0
M  END
