3,4
 OpenBabel05122313063D

 62 67  0  0  0  0  0  0  0  0999 V2000
   -2.8757    3.5155    0.0554 I   0  0  0  0  0  0  0  0  0  0  0  0
   -2.8732   -3.5175    0.0555 I   0  0  0  0  0  0  0  0  0  0  0  0
    0.1324    1.5368    0.1560 P   0  0  0  0  0  0  0  0  0  0  0  0
    0.1334   -1.5367    0.1561 P   0  0  0  0  0  0  0  0  0  0  0  0
   -1.5311    0.7217   -0.0974 C   0  0  0  0  0  0  0  0  0  0  0  0
   -2.7325    1.4113   -0.2821 C   0  0  0  0  0  0  0  0  0  0  0  0
   -3.9425    0.7226   -0.6421 C   0  0  0  0  0  0  0  0  0  0  0  0
   -5.1471    1.3970   -0.9992 C   0  0  0  0  0  0  0  0  0  0  0  0
   -5.1458    2.4957   -1.0016 H   0  0  0  0  0  0  0  0  0  0  0  0
   -6.2950    0.7056   -1.3492 C   0  0  0  0  0  0  0  0  0  0  0  0
   -7.2030    1.2599   -1.6293 H   0  0  0  0  0  0  0  0  0  0  0  0
   -6.2944   -0.7101   -1.3492 C   0  0  0  0  0  0  0  0  0  0  0  0
   -7.2021   -1.2650   -1.6293 H   0  0  0  0  0  0  0  0  0  0  0  0
   -5.1461   -1.4007   -0.9992 C   0  0  0  0  0  0  0  0  0  0  0  0
   -5.1440   -2.4993   -1.0016 H   0  0  0  0  0  0  0  0  0  0  0  0
   -3.9420   -0.7254   -0.6421 C   0  0  0  0  0  0  0  0  0  0  0  0
   -2.7315   -1.4133   -0.2821 C   0  0  0  0  0  0  0  0  0  0  0  0
   -1.5306   -0.7228   -0.0974 C   0  0  0  0  0  0  0  0  0  0  0  0
    0.0996    2.1664    1.8777 C   0  0  0  0  0  0  0  0  0  0  0  0
   -0.9831    1.8930    2.7386 C   0  0  0  0  0  0  0  0  0  0  0  0
   -1.8689    1.3605    2.3641 H   0  0  0  0  0  0  0  0  0  0  0  0
   -0.9334    2.2980    4.0800 C   0  0  0  0  0  0  0  0  0  0  0  0
   -1.7821    2.0774    4.7448 H   0  0  0  0  0  0  0  0  0  0  0  0
    0.1905    2.9802    4.5707 C   0  0  0  0  0  0  0  0  0  0  0  0
    0.2262    3.2979    5.6238 H   0  0  0  0  0  0  0  0  0  0  0  0
    1.2757    3.2410    3.7187 C   0  0  0  0  0  0  0  0  0  0  0  0
    2.1699    3.7555    4.1016 H   0  0  0  0  0  0  0  0  0  0  0  0
    1.2425    2.8261    2.3802 C   0  0  0  0  0  0  0  0  0  0  0  0
    2.1198    2.9747    1.7283 H   0  0  0  0  0  0  0  0  0  0  0  0
    0.1943    2.9150   -1.0426 C   0  0  0  0  0  0  0  0  0  0  0  0
    0.5772    4.2202   -0.6842 C   0  0  0  0  0  0  0  0  0  0  0  0
    0.7678    4.4718    0.3686 H   0  0  0  0  0  0  0  0  0  0  0  0
    0.6943    5.2051   -1.6739 C   0  0  0  0  0  0  0  0  0  0  0  0
    0.9956    6.2250   -1.3915 H   0  0  0  0  0  0  0  0  0  0  0  0
    0.4332    4.8938   -3.0178 C   0  0  0  0  0  0  0  0  0  0  0  0
    0.5278    5.6705   -3.7916 H   0  0  0  0  0  0  0  0  0  0  0  0
    0.0628    3.5875   -3.3757 C   0  0  0  0  0  0  0  0  0  0  0  0
   -0.1309    3.3355   -4.4291 H   0  0  0  0  0  0  0  0  0  0  0  0
   -0.0469    2.5951   -2.3930 C   0  0  0  0  0  0  0  0  0  0  0  0
   -0.3127    1.5646   -2.6757 H   0  0  0  0  0  0  0  0  0  0  0  0
    0.1012   -2.1663    1.8777 C   0  0  0  0  0  0  0  0  0  0  0  0
   -0.9817   -1.8936    2.7387 C   0  0  0  0  0  0  0  0  0  0  0  0
   -1.8679   -1.3619    2.3641 H   0  0  0  0  0  0  0  0  0  0  0  0
   -0.9316   -2.2985    4.0801 C   0  0  0  0  0  0  0  0  0  0  0  0
   -1.7805   -2.0785    4.7450 H   0  0  0  0  0  0  0  0  0  0  0  0
    0.1928   -2.9799    4.5708 C   0  0  0  0  0  0  0  0  0  0  0  0
    0.2288   -3.2975    5.6239 H   0  0  0  0  0  0  0  0  0  0  0  0
    1.2782   -3.2399    3.7187 C   0  0  0  0  0  0  0  0  0  0  0  0
    2.1728   -3.7538    4.1016 H   0  0  0  0  0  0  0  0  0  0  0  0
    1.2445   -2.8251    2.3802 C   0  0  0  0  0  0  0  0  0  0  0  0
    2.1219   -2.9730    1.7283 H   0  0  0  0  0  0  0  0  0  0  0  0
    0.1964   -2.9149   -1.0424 C   0  0  0  0  0  0  0  0  0  0  0  0
    0.5803   -4.2198   -0.6840 C   0  0  0  0  0  0  0  0  0  0  0  0
    0.7710   -4.4712    0.3688 H   0  0  0  0  0  0  0  0  0  0  0  0
    0.6982   -5.2047   -1.6737 C   0  0  0  0  0  0  0  0  0  0  0  0
    1.0002   -6.2244   -1.3913 H   0  0  0  0  0  0  0  0  0  0  0  0
    0.4368   -4.8936   -3.0176 C   0  0  0  0  0  0  0  0  0  0  0  0
    0.5321   -5.6702   -3.7914 H   0  0  0  0  0  0  0  0  0  0  0  0
    0.0655   -3.5876   -3.3756 C   0  0  0  0  0  0  0  0  0  0  0  0
   -0.1284   -3.3358   -4.4290 H   0  0  0  0  0  0  0  0  0  0  0  0
   -0.0450   -2.5953   -2.3929 C   0  0  0  0  0  0  0  0  0  0  0  0
   -0.3117   -1.5650   -2.6756 H   0  0  0  0  0  0  0  0  0  0  0  0
  3 19  1  0  0  0  0
  4 41  1  0  0  0  0
  5 18  1  0  0  0  0
  5  3  1  0  0  0  0
  6  5  2  0  0  0  0
  6  1  1  0  0  0  0
  7 16  1  0  0  0  0
  7  6  1  0  0  0  0
  8  7  2  0  0  0  0
  9  8  1  0  0  0  0
 10  8  1  0  0  0  0
 11 10  1  0  0  0  0
 12 10  2  0  0  0  0
 12 14  1  0  0  0  0
 13 12  1  0  0  0  0
 14 16  2  0  0  0  0
 15 14  1  0  0  0  0
 16 17  1  0  0  0  0
 17 18  2  0  0  0  0
 17  2  1  0  0  0  0
 18  4  1  0  0  0  0
 19 28  2  0  0  0  0
 19 20  1  0  0  0  0
 20 22  2  0  0  0  0
 21 20  1  0  0  0  0
 22 24  1  0  0  0  0
 22 23  1  0  0  0  0
 24 25  1  0  0  0  0
 26 27  1  0  0  0  0
 26 24  2  0  0  0  0
 28 26  1  0  0  0  0
 29 28  1  0  0  0  0
 30 31  1  0  0  0  0
 30  3  1  0  0  0  0
 31 32  1  0  0  0  0
 33 34  1  0  0  0  0
 33 31  2  0  0  0  0
 35 33  1  0  0  0  0
 36 35  1  0  0  0  0
 37 35  2  0  0  0  0
 37 39  1  0  0  0  0
 38 37  1  0  0  0  0
 39 30  2  0  0  0  0
 40 39  1  0  0  0  0
 41 50  2  0  0  0  0
 41 42  1  0  0  0  0
 42 44  2  0  0  0  0
 43 42  1  0  0  0  0
 44 46  1  0  0  0  0
 44 45  1  0  0  0  0
 46 47  1  0  0  0  0
 48 49  1  0  0  0  0
 48 46  2  0  0  0  0
 50 48  1  0  0  0  0
 51 50  1  0  0  0  0
 52 53  1  0  0  0  0
 52  4  1  0  0  0  0
 53 54  1  0  0  0  0
 55 56  1  0  0  0  0
 55 53  2  0  0  0  0
 57 55  1  0  0  0  0
 58 57  1  0  0  0  0
 59 57  2  0  0  0  0
 59 61  1  0  0  0  0
 60 59  1  0  0  0  0
 61 52  2  0  0  0  0
 62 61  1  0  0  0  0
M  END
