1,2
 OpenBabel05122313063D

 36 38  0  0  0  0  0  0  0  0999 V2000
    1.6068   -1.0278    1.2101 P   0  0  0  0  0  0  0  0  0  0  0  0
   -0.4640    0.0635   -0.0801 P   0  0  0  0  0  0  0  0  0  0  0  0
   -0.1330   -1.0535    1.3416 C   0  0  0  0  0  0  0  0  0  0  0  0
   -0.9070   -1.8239    2.2229 C   0  0  0  0  0  0  0  0  0  0  0  0
   -0.2311   -2.6192    3.1828 C   0  0  0  0  0  0  0  0  0  0  0  0
   -0.8460   -3.2058    3.8835 H   0  0  0  0  0  0  0  0  0  0  0  0
    1.1669   -2.7221    3.3006 C   0  0  0  0  0  0  0  0  0  0  0  0
    1.5512   -3.3800    4.0986 H   0  0  0  0  0  0  0  0  0  0  0  0
    2.1217   -2.0818    2.4884 C   0  0  0  0  0  0  0  0  0  0  0  0
    3.1943   -2.2605    2.6609 H   0  0  0  0  0  0  0  0  0  0  0  0
   -2.4108   -1.8487    2.1244 C   0  0  0  0  0  0  0  0  0  0  0  0
   -2.7245   -2.4595    1.2511 H   0  0  0  0  0  0  0  0  0  0  0  0
   -2.8288   -0.8364    1.9593 H   0  0  0  0  0  0  0  0  0  0  0  0
   -2.8726   -2.2837    3.0314 H   0  0  0  0  0  0  0  0  0  0  0  0
   -1.7596   -0.7794   -1.0821 C   0  0  0  0  0  0  0  0  0  0  0  0
   -3.0177   -0.2038   -1.3467 C   0  0  0  0  0  0  0  0  0  0  0  0
   -3.2593    0.7963   -0.9583 H   0  0  0  0  0  0  0  0  0  0  0  0
   -3.9702   -0.9097   -2.0987 C   0  0  0  0  0  0  0  0  0  0  0  0
   -4.9499   -0.4509   -2.3015 H   0  0  0  0  0  0  0  0  0  0  0  0
   -3.6787   -2.1928   -2.5852 C   0  0  0  0  0  0  0  0  0  0  0  0
   -4.4276   -2.7439   -3.1738 H   0  0  0  0  0  0  0  0  0  0  0  0
   -2.4259   -2.7713   -2.3203 C   0  0  0  0  0  0  0  0  0  0  0  0
   -2.1886   -3.7763   -2.7006 H   0  0  0  0  0  0  0  0  0  0  0  0
   -1.4676   -2.0683   -1.5779 C   0  0  0  0  0  0  0  0  0  0  0  0
   -0.4880   -2.5275   -1.3807 H   0  0  0  0  0  0  0  0  0  0  0  0
   -1.2662    1.5855    0.5525 C   0  0  0  0  0  0  0  0  0  0  0  0
   -1.5788    1.7630    1.9136 C   0  0  0  0  0  0  0  0  0  0  0  0
   -1.3850    0.9519    2.6311 H   0  0  0  0  0  0  0  0  0  0  0  0
   -2.1115    2.9832    2.3590 C   0  0  0  0  0  0  0  0  0  0  0  0
   -2.3483    3.1164    3.4255 H   0  0  0  0  0  0  0  0  0  0  0  0
   -2.3341    4.0300    1.4520 C   0  0  0  0  0  0  0  0  0  0  0  0
   -2.7504    4.9858    1.8041 H   0  0  0  0  0  0  0  0  0  0  0  0
   -2.0081    3.8620    0.0956 C   0  0  0  0  0  0  0  0  0  0  0  0
   -2.1627    4.6864   -0.6166 H   0  0  0  0  0  0  0  0  0  0  0  0
   -1.4656    2.6505   -0.3535 C   0  0  0  0  0  0  0  0  0  0  0  0
   -1.1803    2.5364   -1.4113 H   0  0  0  0  0  0  0  0  0  0  0  0
  1  3  2  0  0  0  0
  1  9  1  0  0  0  0
  2 26  1  0  0  0  0
  2  3  1  0  0  0  0
  3  4  1  0  0  0  0
  4  5  2  0  0  0  0
  5  7  1  0  0  0  0
  5  6  1  0  0  0  0
  7  8  1  0  0  0  0
  9 10  1  0  0  0  0
  9  7  2  0  0  0  0
 11  4  1  0  0  0  0
 11 14  1  0  0  0  0
 12 11  1  0  0  0  0
 13 11  1  0  0  0  0
 15  2  1  0  0  0  0
 16 15  1  0  0  0  0
 16 17  1  0  0  0  0
 18 16  2  0  0  0  0
 19 18  1  0  0  0  0
 20 22  2  0  0  0  0
 20 18  1  0  0  0  0
 21 20  1  0  0  0  0
 22 24  1  0  0  0  0
 23 22  1  0  0  0  0
 24 25  1  0  0  0  0
 24 15  2  0  0  0  0
 26 27  1  0  0  0  0
 27 29  2  0  0  0  0
 27 28  1  0  0  0  0
 29 30  1  0  0  0  0
 31 32  1  0  0  0  0
 31 29  1  0  0  0  0
 33 31  2  0  0  0  0
 34 33  1  0  0  0  0
 35 33  1  0  0  0  0
 35 26  2  0  0  0  0
 36 35  1  0  0  0  0
M  END
