1,2
 OpenBabel05122313063D

 48 50  0  0  0  0  0  0  0  0999 V2000
    1.3499   -0.2962    0.2701 P   0  0  0  0  0  0  0  0  0  0  0  0
   -1.2952   -0.0837   -0.0030 P   0  0  0  0  0  0  0  0  0  0  0  0
    4.4699   -0.5372    0.4958 Si  0  0  0  0  0  0  0  0  0  0  0  0
   -0.0564   -1.1681    0.8109 C   0  0  0  0  0  0  0  0  0  0  0  0
   -0.0613   -2.3762    1.5251 C   0  0  0  0  0  0  0  0  0  0  0  0
    1.1895   -2.9088    1.9277 C   0  0  0  0  0  0  0  0  0  0  0  0
    1.1784   -3.8460    2.5068 H   0  0  0  0  0  0  0  0  0  0  0  0
    2.4472   -2.3443    1.6379 C   0  0  0  0  0  0  0  0  0  0  0  0
    3.3202   -2.8947    2.0321 H   0  0  0  0  0  0  0  0  0  0  0  0
    2.7193   -1.1740    0.8886 C   0  0  0  0  0  0  0  0  0  0  0  0
   -1.3448   -3.1119    1.8111 C   0  0  0  0  0  0  0  0  0  0  0  0
   -1.2025   -3.9033    2.5716 H   0  0  0  0  0  0  0  0  0  0  0  0
   -1.7244   -3.5893    0.8825 H   0  0  0  0  0  0  0  0  0  0  0  0
   -2.1439   -2.4250    2.1530 H   0  0  0  0  0  0  0  0  0  0  0  0
   -2.4509   -1.2189   -0.8799 C   0  0  0  0  0  0  0  0  0  0  0  0
   -3.8291   -1.2772   -0.5948 C   0  0  0  0  0  0  0  0  0  0  0  0
   -4.2618   -0.6176    0.1715 H   0  0  0  0  0  0  0  0  0  0  0  0
   -4.6518   -2.1839   -1.2820 C   0  0  0  0  0  0  0  0  0  0  0  0
   -5.7278   -2.2211   -1.0535 H   0  0  0  0  0  0  0  0  0  0  0  0
   -4.1071   -3.0405   -2.2503 C   0  0  0  0  0  0  0  0  0  0  0  0
   -4.7544   -3.7505   -2.7869 H   0  0  0  0  0  0  0  0  0  0  0  0
   -2.7321   -2.9868   -2.5350 C   0  0  0  0  0  0  0  0  0  0  0  0
   -2.2978   -3.6534   -3.2953 H   0  0  0  0  0  0  0  0  0  0  0  0
   -1.9071   -2.0779   -1.8591 C   0  0  0  0  0  0  0  0  0  0  0  0
   -0.8333   -2.0395   -2.0929 H   0  0  0  0  0  0  0  0  0  0  0  0
   -2.3108    0.7159    1.2966 C   0  0  0  0  0  0  0  0  0  0  0  0
   -3.2205    1.7203    0.8991 C   0  0  0  0  0  0  0  0  0  0  0  0
   -3.3324    1.9731   -0.1671 H   0  0  0  0  0  0  0  0  0  0  0  0
   -3.9686    2.4109    1.8621 C   0  0  0  0  0  0  0  0  0  0  0  0
   -4.6774    3.1906    1.5448 H   0  0  0  0  0  0  0  0  0  0  0  0
   -3.7998    2.1232    3.2270 C   0  0  0  0  0  0  0  0  0  0  0  0
   -4.3808    2.6741    3.9819 H   0  0  0  0  0  0  0  0  0  0  0  0
   -2.8769    1.1449    3.6262 C   0  0  0  0  0  0  0  0  0  0  0  0
   -2.7283    0.9288    4.6951 H   0  0  0  0  0  0  0  0  0  0  0  0
   -2.1326    0.4415    2.6658 C   0  0  0  0  0  0  0  0  0  0  0  0
   -1.3936   -0.3095    2.9823 H   0  0  0  0  0  0  0  0  0  0  0  0
    4.6149    1.2374    1.1275 C   0  0  0  0  0  0  0  0  0  0  0  0
    3.8915    1.8982    0.6080 H   0  0  0  0  0  0  0  0  0  0  0  0
    5.6316    1.6389    0.9364 H   0  0  0  0  0  0  0  0  0  0  0  0
    4.4181    1.2968    2.2171 H   0  0  0  0  0  0  0  0  0  0  0  0
    5.7268   -1.6637    1.3491 C   0  0  0  0  0  0  0  0  0  0  0  0
    5.5913   -1.6689    2.4501 H   0  0  0  0  0  0  0  0  0  0  0  0
    6.7564   -1.3076    1.1398 H   0  0  0  0  0  0  0  0  0  0  0  0
    5.6547   -2.7092    0.9853 H   0  0  0  0  0  0  0  0  0  0  0  0
    4.7004   -0.5695   -1.3796 C   0  0  0  0  0  0  0  0  0  0  0  0
    4.5598   -1.5914   -1.7863 H   0  0  0  0  0  0  0  0  0  0  0  0
    5.7176   -0.2228   -1.6562 H   0  0  0  0  0  0  0  0  0  0  0  0
    3.9705    0.1027   -1.8747 H   0  0  0  0  0  0  0  0  0  0  0  0
  1  4  2  0  0  0  0
  1 10  1  0  0  0  0
  2  4  1  0  0  0  0
  2 26  1  0  0  0  0
  3 10  1  0  0  0  0
  3 37  1  0  0  0  0
  3 41  1  0  0  0  0
  4  5  1  0  0  0  0
  5 11  1  0  0  0  0
  5  6  2  0  0  0  0
  6  7  1  0  0  0  0
  8  6  1  0  0  0  0
  8  9  1  0  0  0  0
 10  8  2  0  0  0  0
 11 14  1  0  0  0  0
 11 12  1  0  0  0  0
 13 11  1  0  0  0  0
 15 16  1  0  0  0  0
 15  2  1  0  0  0  0
 16 17  1  0  0  0  0
 18 19  1  0  0  0  0
 18 16  2  0  0  0  0
 20 18  1  0  0  0  0
 21 20  1  0  0  0  0
 22 20  2  0  0  0  0
 22 24  1  0  0  0  0
 23 22  1  0  0  0  0
 24 15  2  0  0  0  0
 25 24  1  0  0  0  0
 26 35  1  0  0  0  0
 27 26  2  0  0  0  0
 27 29  1  0  0  0  0
 28 27  1  0  0  0  0
 29 31  2  0  0  0  0
 30 29  1  0  0  0  0
 31 33  1  0  0  0  0
 31 32  1  0  0  0  0
 33 34  1  0  0  0  0
 35 36  1  0  0  0  0
 35 33  2  0  0  0  0
 37 40  1  0  0  0  0
 38 37  1  0  0  0  0
 39 37  1  0  0  0  0
 41 42  1  0  0  0  0
 43 41  1  0  0  0  0
 44 41  1  0  0  0  0
 45  3  1  0  0  0  0
 46 45  1  0  0  0  0
 47 45  1  0  0  0  0
 48 45  1  0  0  0  0
M  END
