2,3
 OpenBabel05122313063D

 64 68  0  0  0  0  0  0  0  0999 V2000
    0.5947    0.1345    0.1159 N   0  0  0  0  0  0  0  0  0  0  0  0
   -0.2655   -1.3938    0.0509 P   0  0  0  0  0  0  0  0  0  0  0  0
   -0.7693    1.2180   -0.0960 P   0  0  0  0  0  0  0  0  0  0  0  0
    1.9768    0.4090    0.2838 C   0  0  0  0  0  0  0  0  0  0  0  0
    2.8503   -0.5777    0.7908 C   0  0  0  0  0  0  0  0  0  0  0  0
    2.4608   -1.5646    1.0723 H   0  0  0  0  0  0  0  0  0  0  0  0
    4.2138   -0.3000    0.9452 C   0  0  0  0  0  0  0  0  0  0  0  0
    4.8734   -1.0877    1.3433 H   0  0  0  0  0  0  0  0  0  0  0  0
    4.7567    0.9587    0.6200 C   0  0  0  0  0  0  0  0  0  0  0  0
    3.8714    1.9350    0.1225 C   0  0  0  0  0  0  0  0  0  0  0  0
    4.2582    2.9319   -0.1429 H   0  0  0  0  0  0  0  0  0  0  0  0
    2.5065    1.6742   -0.0504 C   0  0  0  0  0  0  0  0  0  0  0  0
    1.8494    2.4578   -0.4492 H   0  0  0  0  0  0  0  0  0  0  0  0
    6.2390    1.2292    0.7402 C   0  0  0  0  0  0  0  0  0  0  0  0
    6.6490    0.6583    1.6002 H   0  0  0  0  0  0  0  0  0  0  0  0
    6.4000    2.3030    0.9734 H   0  0  0  0  0  0  0  0  0  0  0  0
    7.0142    0.8604   -0.5343 C   0  0  0  0  0  0  0  0  0  0  0  0
    6.8935   -0.2154   -0.7758 H   0  0  0  0  0  0  0  0  0  0  0  0
    8.0980    1.0664   -0.4218 H   0  0  0  0  0  0  0  0  0  0  0  0
    6.6444    1.4380   -1.4060 H   0  0  0  0  0  0  0  0  0  0  0  0
    0.3973   -2.3847   -1.3224 C   0  0  0  0  0  0  0  0  0  0  0  0
    1.5497   -2.0183   -2.0479 C   0  0  0  0  0  0  0  0  0  0  0  0
    2.1225   -1.1216   -1.7735 H   0  0  0  0  0  0  0  0  0  0  0  0
    1.9630   -2.8077   -3.1318 C   0  0  0  0  0  0  0  0  0  0  0  0
    2.8629   -2.5229   -3.6975 H   0  0  0  0  0  0  0  0  0  0  0  0
    1.2342   -3.9519   -3.4934 C   0  0  0  0  0  0  0  0  0  0  0  0
    1.5642   -4.5672   -4.3443 H   0  0  0  0  0  0  0  0  0  0  0  0
    0.0743   -4.3014   -2.7820 C   0  0  0  0  0  0  0  0  0  0  0  0
   -0.5147   -5.1813   -3.0813 H   0  0  0  0  0  0  0  0  0  0  0  0
   -0.3569   -3.5184   -1.7022 C   0  0  0  0  0  0  0  0  0  0  0  0
   -1.3035   -3.7412   -1.1795 H   0  0  0  0  0  0  0  0  0  0  0  0
    0.0670   -2.2779    1.6103 C   0  0  0  0  0  0  0  0  0  0  0  0
   -0.3166   -1.6336    2.8052 C   0  0  0  0  0  0  0  0  0  0  0  0
   -0.8021   -0.6455    2.7643 H   0  0  0  0  0  0  0  0  0  0  0  0
   -0.0870   -2.2603    4.0359 C   0  0  0  0  0  0  0  0  0  0  0  0
   -0.3848   -1.7569    4.9678 H   0  0  0  0  0  0  0  0  0  0  0  0
    0.5060   -3.5341    4.0787 C   0  0  0  0  0  0  0  0  0  0  0  0
    0.6762   -4.0283    5.0472 H   0  0  0  0  0  0  0  0  0  0  0  0
    0.8712   -4.1813    2.8881 C   0  0  0  0  0  0  0  0  0  0  0  0
    1.3276   -5.1821    2.9206 H   0  0  0  0  0  0  0  0  0  0  0  0
    0.6554   -3.5564    1.6502 C   0  0  0  0  0  0  0  0  0  0  0  0
    0.9450   -4.0599    0.7158 H   0  0  0  0  0  0  0  0  0  0  0  0
   -0.4375    2.2389   -1.5695 C   0  0  0  0  0  0  0  0  0  0  0  0
   -0.2536    1.5590   -2.7917 C   0  0  0  0  0  0  0  0  0  0  0  0
   -0.3225    0.4599   -2.8238 H   0  0  0  0  0  0  0  0  0  0  0  0
    0.0043    2.2876   -3.9590 C   0  0  0  0  0  0  0  0  0  0  0  0
    0.1492    1.7570   -4.9119 H   0  0  0  0  0  0  0  0  0  0  0  0
    0.0608    3.6915   -3.9158 C   0  0  0  0  0  0  0  0  0  0  0  0
    0.2539    4.2619   -4.8369 H   0  0  0  0  0  0  0  0  0  0  0  0
   -0.1398    4.3675   -2.7023 C   0  0  0  0  0  0  0  0  0  0  0  0
   -0.1045    5.4668   -2.6695 H   0  0  0  0  0  0  0  0  0  0  0  0
   -0.3878    3.6453   -1.5248 C   0  0  0  0  0  0  0  0  0  0  0  0
   -0.5416    4.1727   -0.5714 H   0  0  0  0  0  0  0  0  0  0  0  0
   -0.8795    2.3176    1.3484 C   0  0  0  0  0  0  0  0  0  0  0  0
    0.1266    2.3987    2.3333 C   0  0  0  0  0  0  0  0  0  0  0  0
    1.0516    1.8131    2.2387 H   0  0  0  0  0  0  0  0  0  0  0  0
   -0.0616    3.2344    3.4446 C   0  0  0  0  0  0  0  0  0  0  0  0
    0.7234    3.2990    4.2131 H   0  0  0  0  0  0  0  0  0  0  0  0
   -1.2424    3.9826    3.5766 C   0  0  0  0  0  0  0  0  0  0  0  0
   -1.3832    4.6368    4.4505 H   0  0  0  0  0  0  0  0  0  0  0  0
   -2.2514    3.8825    2.6042 C   0  0  0  0  0  0  0  0  0  0  0  0
   -3.1895    4.4460    2.7197 H   0  0  0  0  0  0  0  0  0  0  0  0
   -2.0828    3.0453    1.4927 C   0  0  0  0  0  0  0  0  0  0  0  0
   -2.8944    2.9039    0.7572 H   0  0  0  0  0  0  0  0  0  0  0  0
  1  4  1  0  0  0  0
  2  1  1  0  0  0  0
  2 32  1  0  0  0  0
  3  1  1  0  0  0  0
  3 54  1  0  0  0  0
  4  5  1  0  0  0  0
  5  7  2  0  0  0  0
  5  6  1  0  0  0  0
  7  8  1  0  0  0  0
  9 14  1  0  0  0  0
  9  7  1  0  0  0  0
 10  9  2  0  0  0  0
 11 10  1  0  0  0  0
 12 10  1  0  0  0  0
 12  4  2  0  0  0  0
 13 12  1  0  0  0  0
 14 16  1  0  0  0  0
 14 15  1  0  0  0  0
 17 19  1  0  0  0  0
 17 14  1  0  0  0  0
 18 17  1  0  0  0  0
 20 17  1  0  0  0  0
 21  2  1  0  0  0  0
 22 23  1  0  0  0  0
 22 21  2  0  0  0  0
 24 22  1  0  0  0  0
 25 24  1  0  0  0  0
 26 24  2  0  0  0  0
 26 28  1  0  0  0  0
 27 26  1  0  0  0  0
 28 30  2  0  0  0  0
 29 28  1  0  0  0  0
 30 21  1  0  0  0  0
 30 31  1  0  0  0  0
 32 41  2  0  0  0  0
 32 33  1  0  0  0  0
 33 35  2  0  0  0  0
 34 33  1  0  0  0  0
 35 37  1  0  0  0  0
 35 36  1  0  0  0  0
 37 38  1  0  0  0  0
 39 40  1  0  0  0  0
 39 37  2  0  0  0  0
 41 39  1  0  0  0  0
 42 41  1  0  0  0  0
 43 52  1  0  0  0  0
 43  3  1  0  0  0  0
 44 43  2  0  0  0  0
 45 44  1  0  0  0  0
 46 48  2  0  0  0  0
 46 44  1  0  0  0  0
 47 46  1  0  0  0  0
 48 50  1  0  0  0  0
 49 48  1  0  0  0  0
 50 51  1  0  0  0  0
 50 52  2  0  0  0  0
 52 53  1  0  0  0  0
 54 63  2  0  0  0  0
 54 55  1  0  0  0  0
 55 57  2  0  0  0  0
 56 55  1  0  0  0  0
 57 59  1  0  0  0  0
 57 58  1  0  0  0  0
 59 60  1  0  0  0  0
 61 62  1  0  0  0  0
 61 59  2  0  0  0  0
 63 61  1  0  0  0  0
 64 63  1  0  0  0  0
M  END
