1,2
 OpenBabel05122313063D

 64 69  0  0  1  0  0  0  0  0999 V2000
    1.7142   -0.1951    0.2075 P   0  0  0  0  0  0  0  0  0  0  0  0
   -1.4871    0.1587   -0.1714 P   0  0  0  0  0  0  0  0  0  0  0  0
    1.6351   -0.8773    1.7174 O   0  0  0  0  0  0  0  0  0  0  0  0
   -1.1846    0.1971    1.4844 O   0  0  0  0  0  0  0  0  0  0  0  0
    0.1260   -0.8896    3.9096 O   0  0  0  0  0  0  0  0  0  0  0  0
   -0.8047   -2.5400    1.0140 O   0  0  0  0  0  0  0  0  0  0  0  0
   -3.3215   -1.9414   -0.6331 C   0  0  0  0  0  0  0  0  0  0  0  0
   -2.4478   -2.5317   -0.9367 H   0  0  0  0  0  0  0  0  0  0  0  0
   -4.6009   -2.5129   -0.6102 C   0  0  0  0  0  0  0  0  0  0  0  0
   -4.7289   -3.5659   -0.9031 H   0  0  0  0  0  0  0  0  0  0  0  0
   -5.7151   -1.7463   -0.2307 C   0  0  0  0  0  0  0  0  0  0  0  0
   -6.7182   -2.1995   -0.2223 H   0  0  0  0  0  0  0  0  0  0  0  0
   -5.5515   -0.3990    0.1281 C   0  0  0  0  0  0  0  0  0  0  0  0
   -6.4232    0.2084    0.4153 H   0  0  0  0  0  0  0  0  0  0  0  0
   -4.2746    0.1824    0.1079 C   0  0  0  0  0  0  0  0  0  0  0  0
   -4.1484    1.2430    0.3739 H   0  0  0  0  0  0  0  0  0  0  0  0
   -3.1560   -0.5899   -0.2691 C   0  0  0  0  0  0  0  0  0  0  0  0
   -1.7326    1.9447   -0.4706 C   0  0  0  0  0  0  0  0  0  0  0  0
   -1.7713    2.3911   -1.8092 C   0  0  0  0  0  0  0  0  0  0  0  0
   -1.6699    1.6568   -2.6259 H   0  0  0  0  0  0  0  0  0  0  0  0
   -1.9368    3.7568   -2.0759 C   0  0  0  0  0  0  0  0  0  0  0  0
   -1.9705    4.1052   -3.1193 H   0  0  0  0  0  0  0  0  0  0  0  0
   -2.0536    4.6774   -1.0202 C   0  0  0  0  0  0  0  0  0  0  0  0
   -2.1768    5.7499   -1.2357 H   0  0  0  0  0  0  0  0  0  0  0  0
   -2.0055    4.2300    0.3090 C   0  0  0  0  0  0  0  0  0  0  0  0
   -2.0807    4.9498    1.1382 H   0  0  0  0  0  0  0  0  0  0  0  0
   -1.8449    2.8649    0.5888 C   0  0  0  0  0  0  0  0  0  0  0  0
   -1.7756    2.5091    1.6259 H   0  0  0  0  0  0  0  0  0  0  0  0
   -1.7247   -0.7070    2.4382 C   0  0  2  0  0  0  0  0  0  0  0  0
   -2.8345   -0.6908    2.4002 H   0  0  0  0  0  0  0  0  0  0  0  0
   -1.1747   -0.3106    3.8091 C   0  0  0  0  0  0  0  0  0  0  0  0
   -1.0849    0.7880    3.9157 H   0  0  0  0  0  0  0  0  0  0  0  0
   -1.8476   -0.6969    4.6132 H   0  0  0  0  0  0  0  0  0  0  0  0
    0.1397   -2.0953    3.1732 C   0  0  2  0  0  0  0  0  0  0  0  0
    0.2225   -2.9699    3.8582 H   0  0  0  0  0  0  0  0  0  0  0  0
    1.2596   -2.1944    2.0967 C   0  0  1  0  0  0  0  0  0  0  0  0
    2.1680   -2.7079    2.4768 H   0  0  0  0  0  0  0  0  0  0  0  0
    0.5435   -3.0317    1.0405 C   0  0  0  0  0  0  0  0  0  0  0  0
    0.9704   -2.9569    0.0176 H   0  0  0  0  0  0  0  0  0  0  0  0
    0.5624   -4.1028    1.3540 H   0  0  0  0  0  0  0  0  0  0  0  0
   -1.1618   -2.1498    2.3245 C   0  0  2  0  0  0  0  0  0  0  0  0
   -1.9082   -2.8576    2.7510 H   0  0  0  0  0  0  0  0  0  0  0  0
    3.4990   -0.3178   -0.1955 C   0  0  0  0  0  0  0  0  0  0  0  0
    4.4184   -0.6156    0.8290 C   0  0  0  0  0  0  0  0  0  0  0  0
    4.0523   -0.8353    1.8427 H   0  0  0  0  0  0  0  0  0  0  0  0
    5.7938   -0.6181    0.5527 C   0  0  0  0  0  0  0  0  0  0  0  0
    6.5105   -0.8585    1.3528 H   0  0  0  0  0  0  0  0  0  0  0  0
    6.2529   -0.3086   -0.7370 C   0  0  0  0  0  0  0  0  0  0  0  0
    7.3325   -0.3098   -0.9520 H   0  0  0  0  0  0  0  0  0  0  0  0
    5.3346   -0.0022   -1.7545 C   0  0  0  0  0  0  0  0  0  0  0  0
    5.6911    0.2304   -2.7692 H   0  0  0  0  0  0  0  0  0  0  0  0
    3.9576   -0.0138   -1.4922 C   0  0  0  0  0  0  0  0  0  0  0  0
    3.2363    0.1784   -2.2990 H   0  0  0  0  0  0  0  0  0  0  0  0
    1.5631    1.5637    0.7010 C   0  0  0  0  0  0  0  0  0  0  0  0
    1.5595    2.5336   -0.3209 C   0  0  0  0  0  0  0  0  0  0  0  0
    1.6087    2.2228   -1.3768 H   0  0  0  0  0  0  0  0  0  0  0  0
    1.4717    3.8925    0.0085 C   0  0  0  0  0  0  0  0  0  0  0  0
    1.4574    4.6476   -0.7912 H   0  0  0  0  0  0  0  0  0  0  0  0
    1.3793    4.2837    1.3541 C   0  0  0  0  0  0  0  0  0  0  0  0
    1.3044    5.3512    1.6116 H   0  0  0  0  0  0  0  0  0  0  0  0
    1.3680    3.3133    2.3691 C   0  0  0  0  0  0  0  0  0  0  0  0
    1.2877    3.6204    3.4235 H   0  0  0  0  0  0  0  0  0  0  0  0
    1.4586    1.9497    2.0498 C   0  0  0  0  0  0  0  0  0  0  0  0
    1.4341    1.1751    2.8301 H   0  0  0  0  0  0  0  0  0  0  0  0
  1 54  1  0  0  0  0
  1  3  1  0  0  0  0
  2  4  1  0  0  0  0
  3 36  1  0  0  0  0
  4 29  1  0  0  0  0
  6 38  1  0  0  0  0
  6 41  1  0  0  0  0
  7  9  2  0  0  0  0
  7 17  1  0  0  0  0
  8  7  1  0  0  0  0
  9 11  1  0  0  0  0
 10  9  1  0  0  0  0
 11 12  1  0  0  0  0
 11 13  2  0  0  0  0
 13 14  1  0  0  0  0
 15 13  1  0  0  0  0
 15 16  1  0  0  0  0
 17  2  1  0  0  0  0
 17 15  2  0  0  0  0
 18  2  1  0  0  0  0
 18 27  1  0  0  0  0
 19 18  2  0  0  0  0
 20 19  1  0  0  0  0
 21 19  1  0  0  0  0
 21 23  2  0  0  0  0
 22 21  1  0  0  0  0
 23 25  1  0  0  0  0
 24 23  1  0  0  0  0
 25 27  2  0  0  0  0
 25 26  1  0  0  0  0
 27 28  1  0  0  0  0
 29 30  1  6  0  0  0
 29 31  1  0  0  0  0
 31  5  1  0  0  0  0
 31 32  1  0  0  0  0
 31 33  1  0  0  0  0
 34 35  1  1  0  0  0
 34  5  1  0  0  0  0
 36 37  1  1  0  0  0
 36 34  1  0  0  0  0
 38 40  1  0  0  0  0
 38 36  1  0  0  0  0
 39 38  1  0  0  0  0
 41 29  1  0  0  0  0
 41 42  1  1  0  0  0
 41 34  1  0  0  0  0
 43  1  1  0  0  0  0
 43 44  1  0  0  0  0
 44 45  1  0  0  0  0
 46 44  2  0  0  0  0
 46 47  1  0  0  0  0
 48 46  1  0  0  0  0
 49 48  1  0  0  0  0
 50 52  1  0  0  0  0
 50 48  2  0  0  0  0
 51 50  1  0  0  0  0
 52 43  2  0  0  0  0
 53 52  1  0  0  0  0
 54 63  1  0  0  0  0
 55 57  1  0  0  0  0
 55 54  2  0  0  0  0
 56 55  1  0  0  0  0
 57 59  2  0  0  0  0
 58 57  1  0  0  0  0
 59 60  1  0  0  0  0
 59 61  1  0  0  0  0
 61 62  1  0  0  0  0
 63 61  2  0  0  0  0
 63 64  1  0  0  0  0
M  END
