1,2
 OpenBabel05122313063D

 67 71  0  0  1  0  0  0  0  0999 V2000
    1.6276   -0.7771    0.2437 P   0  0  0  0  0  0  0  0  0  0  0  0
   -1.0874    1.2998   -0.0171 P   0  0  0  0  0  0  0  0  0  0  0  0
    2.3947    0.8084    0.8445 C   0  0  0  0  0  0  0  0  0  0  0  0
    2.3812    1.8855   -0.2363 C   0  0  1  0  0  0  0  0  0  0  0  0
    1.2904    2.9615   -0.1151 C   0  0  2  0  0  0  0  0  0  0  0  0
   -0.0754    2.6981   -0.7342 C   0  0  0  0  0  0  0  0  0  0  0  0
    3.5602    2.6774   -0.1068 O   0  0  0  0  0  0  0  0  0  0  0  0
    1.8706    4.0637   -0.8082 O   0  0  0  0  0  0  0  0  0  0  0  0
    3.3065    3.9322   -0.7455 C   0  0  0  0  0  0  0  0  0  0  0  0
    3.8976    5.0324    0.1286 C   0  0  0  0  0  0  0  0  0  0  0  0
    3.8457    3.9365   -2.1753 C   0  0  0  0  0  0  0  0  0  0  0  0
    1.0866   -3.1351    1.6379 C   0  0  0  0  0  0  0  0  0  0  0  0
    1.0580   -3.9824    2.7539 C   0  0  0  0  0  0  0  0  0  0  0  0
    1.6338   -3.5771    3.9699 C   0  0  0  0  0  0  0  0  0  0  0  0
    2.2491   -2.3196    4.0629 C   0  0  0  0  0  0  0  0  0  0  0  0
    2.2864   -1.4665    2.9477 C   0  0  0  0  0  0  0  0  0  0  0  0
    1.7022   -1.8660    1.7276 C   0  0  0  0  0  0  0  0  0  0  0  0
    4.1394   -1.9771   -0.3150 C   0  0  0  0  0  0  0  0  0  0  0  0
    5.1941   -2.3465   -1.1634 C   0  0  0  0  0  0  0  0  0  0  0  0
    5.0999   -2.1173   -2.5455 C   0  0  0  0  0  0  0  0  0  0  0  0
    3.9446   -1.5258   -3.0807 C   0  0  0  0  0  0  0  0  0  0  0  0
    2.8828   -1.1654   -2.2383 C   0  0  0  0  0  0  0  0  0  0  0  0
    2.9810   -1.3809   -0.8494 C   0  0  0  0  0  0  0  0  0  0  0  0
   -0.7638    0.3692    2.6192 C   0  0  0  0  0  0  0  0  0  0  0  0
   -0.6374    0.5058    4.0111 C   0  0  0  0  0  0  0  0  0  0  0  0
   -0.7011    1.7771    4.6000 C   0  0  0  0  0  0  0  0  0  0  0  0
   -0.9038    2.9142    3.7974 C   0  0  0  0  0  0  0  0  0  0  0  0
   -1.0302    2.7809    2.4080 C   0  0  0  0  0  0  0  0  0  0  0  0
   -0.9464    1.5051    1.8085 C   0  0  0  0  0  0  0  0  0  0  0  0
   -3.7970    1.7987    0.6502 C   0  0  0  0  0  0  0  0  0  0  0  0
   -5.1081    2.2200    0.3799 C   0  0  0  0  0  0  0  0  0  0  0  0
   -5.4341    2.7542   -0.8758 C   0  0  0  0  0  0  0  0  0  0  0  0
   -4.4435    2.8639   -1.8647 C   0  0  0  0  0  0  0  0  0  0  0  0
   -3.1331    2.4414   -1.5996 C   0  0  0  0  0  0  0  0  0  0  0  0
   -2.7980    1.9110   -0.3359 C   0  0  0  0  0  0  0  0  0  0  0  0
    3.4507    0.6031    1.1106 H   0  0  0  0  0  0  0  0  0  0  0  0
    1.8689    1.1551    1.7569 H   0  0  0  0  0  0  0  0  0  0  0  0
    2.3322    1.4263   -1.2554 H   0  0  0  0  0  0  0  0  0  0  0  0
    1.1727    3.2063    0.9686 H   0  0  0  0  0  0  0  0  0  0  0  0
   -0.6727    3.6293   -0.6609 H   0  0  0  0  0  0  0  0  0  0  0  0
    0.0506    2.4697   -1.8117 H   0  0  0  0  0  0  0  0  0  0  0  0
    3.4320    4.9999    1.1321 H   0  0  0  0  0  0  0  0  0  0  0  0
    4.9899    4.8892    0.2408 H   0  0  0  0  0  0  0  0  0  0  0  0
    3.7113    6.0250   -0.3245 H   0  0  0  0  0  0  0  0  0  0  0  0
    3.4406    3.0728   -2.7372 H   0  0  0  0  0  0  0  0  0  0  0  0
    3.5421    4.8649   -2.6968 H   0  0  0  0  0  0  0  0  0  0  0  0
    4.9509    3.8712   -2.1711 H   0  0  0  0  0  0  0  0  0  0  0  0
    0.6311   -3.4433    0.6816 H   0  0  0  0  0  0  0  0  0  0  0  0
    0.5752   -4.9681    2.6723 H   0  0  0  0  0  0  0  0  0  0  0  0
    1.6035   -4.2428    4.8460 H   0  0  0  0  0  0  0  0  0  0  0  0
    2.7064   -1.9955    5.0105 H   0  0  0  0  0  0  0  0  0  0  0  0
    2.7707   -0.4849    3.0444 H   0  0  0  0  0  0  0  0  0  0  0  0
    4.2128   -2.1631    0.7679 H   0  0  0  0  0  0  0  0  0  0  0  0
    6.0940   -2.8198   -0.7417 H   0  0  0  0  0  0  0  0  0  0  0  0
    5.9277   -2.4095   -3.2096 H   0  0  0  0  0  0  0  0  0  0  0  0
    3.8606   -1.3584   -4.1652 H   0  0  0  0  0  0  0  0  0  0  0  0
    1.9566   -0.7386   -2.6526 H   0  0  0  0  0  0  0  0  0  0  0  0
   -0.7195   -0.6246    2.1497 H   0  0  0  0  0  0  0  0  0  0  0  0
   -0.4832   -0.3910    4.6296 H   0  0  0  0  0  0  0  0  0  0  0  0
   -0.5982    1.8865    5.6904 H   0  0  0  0  0  0  0  0  0  0  0  0
   -0.9640    3.9117    4.2584 H   0  0  0  0  0  0  0  0  0  0  0  0
   -1.2038    3.6747    1.7887 H   0  0  0  0  0  0  0  0  0  0  0  0
   -3.5498    1.3851    1.6388 H   0  0  0  0  0  0  0  0  0  0  0  0
   -5.8798    2.1266    1.1587 H   0  0  0  0  0  0  0  0  0  0  0  0
   -6.4632    3.0815   -1.0868 H   0  0  0  0  0  0  0  0  0  0  0  0
   -4.6930    3.2754   -2.8543 H   0  0  0  0  0  0  0  0  0  0  0  0
   -2.3705    2.5173   -2.3895 H   0  0  0  0  0  0  0  0  0  0  0  0
  1  3  1  0  0  0  0
  1 17  1  0  0  0  0
  2 29  1  0  0  0  0
  3 36  1  0  0  0  0
  3 37  1  0  0  0  0
  4 38  1  6  0  0  0
  4  5  1  0  0  0  0
  4  7  1  0  0  0  0
  4  3  1  0  0  0  0
  5 39  1  1  0  0  0
  6 40  1  0  0  0  0
  6  5  1  0  0  0  0
  6  2  1  0  0  0  0
  8  9  1  0  0  0  0
  8  5  1  0  0  0  0
  9  7  1  0  0  0  0
  9 10  1  0  0  0  0
 10 43  1  0  0  0  0
 10 42  1  0  0  0  0
 11 47  1  0  0  0  0
 11  9  1  0  0  0  0
 12 17  2  0  0  0  0
 12 13  1  0  0  0  0
 13 14  2  0  0  0  0
 14 15  1  0  0  0  0
 14 50  1  0  0  0  0
 15 51  1  0  0  0  0
 16 52  1  0  0  0  0
 16 15  2  0  0  0  0
 17 16  1  0  0  0  0
 18 53  1  0  0  0  0
 19 54  1  0  0  0  0
 19 18  2  0  0  0  0
 20 19  1  0  0  0  0
 21 20  2  0  0  0  0
 21 22  1  0  0  0  0
 22 23  2  0  0  0  0
 23 18  1  0  0  0  0
 23  1  1  0  0  0  0
 24 25  1  0  0  0  0
 25 26  2  0  0  0  0
 25 59  1  0  0  0  0
 26 60  1  0  0  0  0
 27 61  1  0  0  0  0
 27 26  1  0  0  0  0
 28 27  2  0  0  0  0
 29 28  1  0  0  0  0
 29 24  2  0  0  0  0
 30 63  1  0  0  0  0
 31 30  1  0  0  0  0
 31 64  1  0  0  0  0
 32 31  2  0  0  0  0
 33 34  2  0  0  0  0
 33 32  1  0  0  0  0
 34 35  1  0  0  0  0
 35  2  1  0  0  0  0
 35 30  2  0  0  0  0
 41  6  1  0  0  0  0
 44 10  1  0  0  0  0
 45 11  1  0  0  0  0
 46 11  1  0  0  0  0
 48 12  1  0  0  0  0
 49 13  1  0  0  0  0
 55 20  1  0  0  0  0
 56 21  1  0  0  0  0
 57 22  1  0  0  0  0
 58 24  1  0  0  0  0
 62 28  1  0  0  0  0
 65 32  1  0  0  0  0
 66 33  1  0  0  0  0
 67 34  1  0  0  0  0
M  END
