1,2
 OpenBabel05122313063D

 52 55  0  0  0  0  0  0  0  0999 V2000
    1.0230    1.6279    0.3656 P   0  0  0  0  0  0  0  0  0  0  0  0
   -1.3210    0.5561    1.0577 P   0  0  0  0  0  0  0  0  0  0  0  0
   -0.0899    1.7334    1.8845 C   0  0  0  0  0  0  0  0  0  0  0  0
   -0.5057    2.7414    2.0852 H   0  0  0  0  0  0  0  0  0  0  0  0
    0.5776    1.1352    3.1207 C   0  0  0  0  0  0  0  0  0  0  0  0
    1.0118    0.1365    2.9099 H   0  0  0  0  0  0  0  0  0  0  0  0
   -0.1599    1.0193    3.9394 H   0  0  0  0  0  0  0  0  0  0  0  0
    1.3975    1.7920    3.4728 H   0  0  0  0  0  0  0  0  0  0  0  0
    2.7332    2.0375    0.8230 C   0  0  0  0  0  0  0  0  0  0  0  0
    3.5402    1.0323    1.3937 C   0  0  0  0  0  0  0  0  0  0  0  0
    3.1658   -0.0015    1.4806 H   0  0  0  0  0  0  0  0  0  0  0  0
    4.8447    1.3511    1.7980 C   0  0  0  0  0  0  0  0  0  0  0  0
    5.4819    0.5635    2.2269 H   0  0  0  0  0  0  0  0  0  0  0  0
    5.3414    2.6530    1.6325 C   0  0  0  0  0  0  0  0  0  0  0  0
    6.3689    2.8938    1.9451 H   0  0  0  0  0  0  0  0  0  0  0  0
    4.5367    3.6479    1.0513 C   0  0  0  0  0  0  0  0  0  0  0  0
    4.9309    4.6652    0.9077 H   0  0  0  0  0  0  0  0  0  0  0  0
    3.2313    3.3457    0.6408 C   0  0  0  0  0  0  0  0  0  0  0  0
    2.6060    4.1196    0.1708 H   0  0  0  0  0  0  0  0  0  0  0  0
    0.4118    2.8559   -0.8361 C   0  0  0  0  0  0  0  0  0  0  0  0
   -0.1278    4.0983   -0.4470 C   0  0  0  0  0  0  0  0  0  0  0  0
   -0.1553    4.3894    0.6140 H   0  0  0  0  0  0  0  0  0  0  0  0
   -0.6568    4.9629   -1.4159 C   0  0  0  0  0  0  0  0  0  0  0  0
   -1.0918    5.9257   -1.1087 H   0  0  0  0  0  0  0  0  0  0  0  0
   -0.6421    4.5946   -2.7710 C   0  0  0  0  0  0  0  0  0  0  0  0
   -1.0668    5.2719   -3.5274 H   0  0  0  0  0  0  0  0  0  0  0  0
   -0.0975    3.3607   -3.1611 C   0  0  0  0  0  0  0  0  0  0  0  0
   -0.0943    3.0648   -4.2206 H   0  0  0  0  0  0  0  0  0  0  0  0
    0.4245    2.4864   -2.1983 C   0  0  0  0  0  0  0  0  0  0  0  0
    0.8164    1.5009   -2.4959 H   0  0  0  0  0  0  0  0  0  0  0  0
   -2.0811   -0.5648    2.2690 C   0  0  0  0  0  0  0  0  0  0  0  0
   -3.3696   -0.3434    2.7953 C   0  0  0  0  0  0  0  0  0  0  0  0
   -3.9604    0.5268    2.4742 H   0  0  0  0  0  0  0  0  0  0  0  0
   -3.9070   -1.2576    3.7122 C   0  0  0  0  0  0  0  0  0  0  0  0
   -4.9151   -1.0901    4.1199 H   0  0  0  0  0  0  0  0  0  0  0  0
   -3.1690   -2.3894    4.0960 C   0  0  0  0  0  0  0  0  0  0  0  0
   -3.5999   -3.1087    4.8088 H   0  0  0  0  0  0  0  0  0  0  0  0
   -1.8929   -2.6169    3.5563 C   0  0  0  0  0  0  0  0  0  0  0  0
   -1.3232   -3.5155    3.8350 H   0  0  0  0  0  0  0  0  0  0  0  0
   -1.3455   -1.7135    2.6355 C   0  0  0  0  0  0  0  0  0  0  0  0
   -0.3638   -1.9153    2.1776 H   0  0  0  0  0  0  0  0  0  0  0  0
   -2.5545    1.6656    0.3069 C   0  0  0  0  0  0  0  0  0  0  0  0
   -2.8356    1.5562   -1.0693 C   0  0  0  0  0  0  0  0  0  0  0  0
   -2.3654    0.7587   -1.6683 H   0  0  0  0  0  0  0  0  0  0  0  0
   -3.7144    2.4743   -1.6639 C   0  0  0  0  0  0  0  0  0  0  0  0
   -3.9272    2.3946   -2.7403 H   0  0  0  0  0  0  0  0  0  0  0  0
   -4.3142    3.4857   -0.8980 C   0  0  0  0  0  0  0  0  0  0  0  0
   -5.0014    4.2023   -1.3731 H   0  0  0  0  0  0  0  0  0  0  0  0
   -4.0375    3.5886    0.4757 C   0  0  0  0  0  0  0  0  0  0  0  0
   -4.5074    4.3804    1.0784 H   0  0  0  0  0  0  0  0  0  0  0  0
   -3.1522    2.6854    1.0797 C   0  0  0  0  0  0  0  0  0  0  0  0
   -2.9222    2.7841    2.1525 H   0  0  0  0  0  0  0  0  0  0  0  0
  1  9  1  0  0  0  0
  1  3  1  0  0  0  0
  2  3  1  0  0  0  0
  2 31  1  0  0  0  0
  3  4  1  0  0  0  0
  3  5  1  0  0  0  0
  5  8  1  0  0  0  0
  5  7  1  0  0  0  0
  6  5  1  0  0  0  0
  9 10  1  0  0  0  0
 10 11  1  0  0  0  0
 10 12  2  0  0  0  0
 12 13  1  0  0  0  0
 14 12  1  0  0  0  0
 14 15  1  0  0  0  0
 16 14  2  0  0  0  0
 17 16  1  0  0  0  0
 18  9  2  0  0  0  0
 18 16  1  0  0  0  0
 19 18  1  0  0  0  0
 20 21  1  0  0  0  0
 20  1  1  0  0  0  0
 21 22  1  0  0  0  0
 23 24  1  0  0  0  0
 23 21  2  0  0  0  0
 25 23  1  0  0  0  0
 26 25  1  0  0  0  0
 27 25  2  0  0  0  0
 27 29  1  0  0  0  0
 28 27  1  0  0  0  0
 29 20  2  0  0  0  0
 30 29  1  0  0  0  0
 31 40  2  0  0  0  0
 31 32  1  0  0  0  0
 32 34  2  0  0  0  0
 33 32  1  0  0  0  0
 34 36  1  0  0  0  0
 34 35  1  0  0  0  0
 36 37  1  0  0  0  0
 38 39  1  0  0  0  0
 38 36  2  0  0  0  0
 40 38  1  0  0  0  0
 41 40  1  0  0  0  0
 42  2  1  0  0  0  0
 42 51  1  0  0  0  0
 43 42  2  0  0  0  0
 44 43  1  0  0  0  0
 45 43  1  0  0  0  0
 45 47  2  0  0  0  0
 46 45  1  0  0  0  0
 47 49  1  0  0  0  0
 48 47  1  0  0  0  0
 49 50  1  0  0  0  0
 49 51  2  0  0  0  0
 51 52  1  0  0  0  0
M  END
