1,2
 OpenBabel05122313063D

 64 68  0  0  0  0  0  0  0  0999 V2000
    1.7227   -0.1550    0.3493 P   0  0  0  0  0  0  0  0  0  0  0  0
   -1.6926   -0.4064    0.3066 P   0  0  0  0  0  0  0  0  0  0  0  0
   -0.1312    1.5072    1.6759 N   0  0  0  0  0  0  0  0  0  0  0  0
    1.1690    0.8963    1.8092 C   0  0  0  0  0  0  0  0  0  0  0  0
    1.9569    1.6535    1.9665 H   0  0  0  0  0  0  0  0  0  0  0  0
    1.2074    0.2029    2.6812 H   0  0  0  0  0  0  0  0  0  0  0  0
   -1.2578    0.6151    1.8322 C   0  0  0  0  0  0  0  0  0  0  0  0
   -1.0301   -0.1236    2.6345 H   0  0  0  0  0  0  0  0  0  0  0  0
   -2.1567    1.1825    2.1411 H   0  0  0  0  0  0  0  0  0  0  0  0
    2.3227    1.0101   -0.9333 C   0  0  0  0  0  0  0  0  0  0  0  0
    3.0362    0.4616   -2.0238 C   0  0  0  0  0  0  0  0  0  0  0  0
    3.2369   -0.6210   -2.0651 H   0  0  0  0  0  0  0  0  0  0  0  0
    3.4714    1.2975   -3.0608 C   0  0  0  0  0  0  0  0  0  0  0  0
    4.0279    0.8636   -3.9050 H   0  0  0  0  0  0  0  0  0  0  0  0
    3.1913    2.6743   -3.0304 C   0  0  0  0  0  0  0  0  0  0  0  0
    3.5300    3.3243   -3.8514 H   0  0  0  0  0  0  0  0  0  0  0  0
    2.4759    3.2171   -1.9528 C   0  0  0  0  0  0  0  0  0  0  0  0
    2.2487    4.2934   -1.9195 H   0  0  0  0  0  0  0  0  0  0  0  0
    2.0411    2.3909   -0.9037 C   0  0  0  0  0  0  0  0  0  0  0  0
    1.4754    2.8419   -0.0776 H   0  0  0  0  0  0  0  0  0  0  0  0
    3.2261   -0.9115    1.0655 C   0  0  0  0  0  0  0  0  0  0  0  0
    4.4096   -0.1565    1.1985 C   0  0  0  0  0  0  0  0  0  0  0  0
    4.4595    0.8666    0.7937 H   0  0  0  0  0  0  0  0  0  0  0  0
    5.5308   -0.7210    1.8232 C   0  0  0  0  0  0  0  0  0  0  0  0
    6.4572   -0.1345    1.9172 H   0  0  0  0  0  0  0  0  0  0  0  0
    5.4740   -2.0349    2.3166 C   0  0  0  0  0  0  0  0  0  0  0  0
    6.3581   -2.4788    2.7989 H   0  0  0  0  0  0  0  0  0  0  0  0
    4.2965   -2.7873    2.1827 C   0  0  0  0  0  0  0  0  0  0  0  0
    4.2561   -3.8226    2.5526 H   0  0  0  0  0  0  0  0  0  0  0  0
    3.1722   -2.2309    1.5559 C   0  0  0  0  0  0  0  0  0  0  0  0
    2.2567   -2.8260    1.4181 H   0  0  0  0  0  0  0  0  0  0  0  0
   -0.3115    2.9062    1.6782 C   0  0  0  0  0  0  0  0  0  0  0  0
   -1.5113    3.4784    1.1878 C   0  0  0  0  0  0  0  0  0  0  0  0
   -2.2959    2.8389    0.7659 H   0  0  0  0  0  0  0  0  0  0  0  0
   -1.6945    4.8661    1.1784 C   0  0  0  0  0  0  0  0  0  0  0  0
   -2.6361    5.2711    0.7770 H   0  0  0  0  0  0  0  0  0  0  0  0
   -0.6928    5.7320    1.6429 C   0  0  0  0  0  0  0  0  0  0  0  0
   -0.8368    6.8218    1.6231 H   0  0  0  0  0  0  0  0  0  0  0  0
    0.4978    5.1760    2.1333 C   0  0  0  0  0  0  0  0  0  0  0  0
    1.2955    5.8292    2.5190 H   0  0  0  0  0  0  0  0  0  0  0  0
    0.6884    3.7877    2.1618 C   0  0  0  0  0  0  0  0  0  0  0  0
    1.6227    3.3981    2.5890 H   0  0  0  0  0  0  0  0  0  0  0  0
   -3.1787   -1.3361    0.8389 C   0  0  0  0  0  0  0  0  0  0  0  0
   -3.9923   -1.9298   -0.1517 C   0  0  0  0  0  0  0  0  0  0  0  0
   -3.7264   -1.8418   -1.2140 H   0  0  0  0  0  0  0  0  0  0  0  0
   -5.1247   -2.6659    0.2203 C   0  0  0  0  0  0  0  0  0  0  0  0
   -5.7428   -3.1325   -0.5610 H   0  0  0  0  0  0  0  0  0  0  0  0
   -5.4568   -2.8234    1.5752 C   0  0  0  0  0  0  0  0  0  0  0  0
   -6.3445   -3.4072    1.8623 H   0  0  0  0  0  0  0  0  0  0  0  0
   -4.6488   -2.2418    2.5631 C   0  0  0  0  0  0  0  0  0  0  0  0
   -4.8988   -2.3646    3.6277 H   0  0  0  0  0  0  0  0  0  0  0  0
   -3.5133   -1.5014    2.1999 C   0  0  0  0  0  0  0  0  0  0  0  0
   -2.8948   -1.0632    2.9954 H   0  0  0  0  0  0  0  0  0  0  0  0
   -2.3004    0.8566   -0.8703 C   0  0  0  0  0  0  0  0  0  0  0  0
   -3.6196    1.3536   -0.8107 C   0  0  0  0  0  0  0  0  0  0  0  0
   -4.3482    0.9020   -0.1204 H   0  0  0  0  0  0  0  0  0  0  0  0
   -3.9984    2.4255   -1.6319 C   0  0  0  0  0  0  0  0  0  0  0  0
   -5.0292    2.8084   -1.5877 H   0  0  0  0  0  0  0  0  0  0  0  0
   -3.0658    3.0100   -2.5060 C   0  0  0  0  0  0  0  0  0  0  0  0
   -3.3658    3.8554   -3.1435 H   0  0  0  0  0  0  0  0  0  0  0  0
   -1.7576    2.5068   -2.5762 C   0  0  0  0  0  0  0  0  0  0  0  0
   -1.0251    2.9519   -3.2660 H   0  0  0  0  0  0  0  0  0  0  0  0
   -1.3761    1.4251   -1.7695 C   0  0  0  0  0  0  0  0  0  0  0  0
   -0.3563    1.0171   -1.8360 H   0  0  0  0  0  0  0  0  0  0  0  0
  1 21  1  0  0  0  0
  1  4  1  0  0  0  0
  2 43  1  0  0  0  0
  2  7  1  0  0  0  0
  3 32  1  0  0  0  0
  3  4  1  0  0  0  0
  3  7  1  0  0  0  0
  4  5  1  0  0  0  0
  4  6  1  0  0  0  0
  7  9  1  0  0  0  0
  7  8  1  0  0  0  0
 10 19  1  0  0  0  0
 10  1  1  0  0  0  0
 11 10  2  0  0  0  0
 12 11  1  0  0  0  0
 13 15  2  0  0  0  0
 13 11  1  0  0  0  0
 14 13  1  0  0  0  0
 15 17  1  0  0  0  0
 16 15  1  0  0  0  0
 17 18  1  0  0  0  0
 17 19  2  0  0  0  0
 19 20  1  0  0  0  0
 21 22  2  0  0  0  0
 21 30  1  0  0  0  0
 22 24  1  0  0  0  0
 23 22  1  0  0  0  0
 24 25  1  0  0  0  0
 24 26  2  0  0  0  0
 26 27  1  0  0  0  0
 28 26  1  0  0  0  0
 28 29  1  0  0  0  0
 30 28  2  0  0  0  0
 31 30  1  0  0  0  0
 32 41  1  0  0  0  0
 33 32  2  0  0  0  0
 34 33  1  0  0  0  0
 35 33  1  0  0  0  0
 35 37  2  0  0  0  0
 36 35  1  0  0  0  0
 37 39  1  0  0  0  0
 38 37  1  0  0  0  0
 39 41  2  0  0  0  0
 39 40  1  0  0  0  0
 41 42  1  0  0  0  0
 43 52  1  0  0  0  0
 44 46  1  0  0  0  0
 44 43  2  0  0  0  0
 45 44  1  0  0  0  0
 46 48  2  0  0  0  0
 47 46  1  0  0  0  0
 48 49  1  0  0  0  0
 48 50  1  0  0  0  0
 50 51  1  0  0  0  0
 52 50  2  0  0  0  0
 52 53  1  0  0  0  0
 54 55  1  0  0  0  0
 54  2  1  0  0  0  0
 55 56  1  0  0  0  0
 57 58  1  0  0  0  0
 57 55  2  0  0  0  0
 59 57  1  0  0  0  0
 60 59  1  0  0  0  0
 61 59  2  0  0  0  0
 61 63  1  0  0  0  0
 62 61  1  0  0  0  0
 63 54  2  0  0  0  0
 64 63  1  0  0  0  0
M  END
