1,2
 OpenBabel05122313063D

 64 65  0  0  0  0  0  0  0  0999 V2000
    1.0939    1.3818   -0.5876 P   0  0  0  0  0  0  0  0  0  0  0  0
   -0.6336   -1.4782   -0.2325 P   0  0  0  0  0  0  0  0  0  0  0  0
   -0.4002    2.0191   -0.0981 O   0  0  0  0  0  0  0  0  0  0  0  0
   -1.5519   -0.3253   -1.0761 O   0  0  0  0  0  0  0  0  0  0  0  0
    0.7730    1.3888   -2.4191 C   0  0  0  0  0  0  0  0  0  0  0  0
    0.3586    2.7497   -2.9867 C   0  0  0  0  0  0  0  0  0  0  0  0
    1.9096    0.7164   -3.2017 C   0  0  0  0  0  0  0  0  0  0  0  0
    2.3202    2.7177   -0.1210 C   0  0  0  0  0  0  0  0  0  0  0  0
    1.6963    4.1140   -0.0146 C   0  0  0  0  0  0  0  0  0  0  0  0
    3.5622    2.6948   -1.0221 C   0  0  0  0  0  0  0  0  0  0  0  0
   -0.6050   -2.8638   -1.4873 C   0  0  0  0  0  0  0  0  0  0  0  0
   -1.9462   -3.0605   -2.2001 C   0  0  0  0  0  0  0  0  0  0  0  0
    0.5435   -2.6871   -2.4849 C   0  0  0  0  0  0  0  0  0  0  0  0
   -1.7004   -2.0258    1.2181 C   0  0  0  0  0  0  0  0  0  0  0  0
   -1.0806   -1.5885    2.5523 C   0  0  0  0  0  0  0  0  0  0  0  0
   -1.9968   -3.5319    1.2421 C   0  0  0  0  0  0  0  0  0  0  0  0
   -0.8999    1.8110    1.1661 C   0  0  0  0  0  0  0  0  0  0  0  0
   -0.1144    2.0385    2.3131 C   0  0  0  0  0  0  0  0  0  0  0  0
   -0.6802    1.9429    3.5904 C   0  0  0  0  0  0  0  0  0  0  0  0
   -2.0372    1.6145    3.7321 C   0  0  0  0  0  0  0  0  0  0  0  0
   -2.8039    1.3503    2.5921 C   0  0  0  0  0  0  0  0  0  0  0  0
   -2.2569    1.4215    1.2891 C   0  0  0  0  0  0  0  0  0  0  0  0
   -3.1296    1.1362    0.1222 C   0  0  0  0  0  0  0  0  0  0  0  0
   -4.4131    1.7329    0.0857 C   0  0  0  0  0  0  0  0  0  0  0  0
   -5.3186    1.5046   -0.9553 C   0  0  0  0  0  0  0  0  0  0  0  0
   -4.9535    0.6533   -2.0091 C   0  0  0  0  0  0  0  0  0  0  0  0
   -3.6969    0.0394   -1.9978 C   0  0  0  0  0  0  0  0  0  0  0  0
   -2.7856    0.2624   -0.9461 C   0  0  0  0  0  0  0  0  0  0  0  0
   -0.1119    0.7177   -2.4414 H   0  0  0  0  0  0  0  0  0  0  0  0
   -0.4568    3.2080   -2.3949 H   0  0  0  0  0  0  0  0  0  0  0  0
   -0.0077    2.6182   -4.0260 H   0  0  0  0  0  0  0  0  0  0  0  0
    1.2101    3.4578   -3.0269 H   0  0  0  0  0  0  0  0  0  0  0  0
    2.2606   -0.2074   -2.7005 H   0  0  0  0  0  0  0  0  0  0  0  0
    2.7807    1.3858   -3.3294 H   0  0  0  0  0  0  0  0  0  0  0  0
    1.5487    0.4413   -4.2139 H   0  0  0  0  0  0  0  0  0  0  0  0
    2.6532    2.3660    0.8804 H   0  0  0  0  0  0  0  0  0  0  0  0
    0.8203    4.1416    0.6604 H   0  0  0  0  0  0  0  0  0  0  0  0
    1.3736    4.5018   -0.9999 H   0  0  0  0  0  0  0  0  0  0  0  0
    2.4573    4.8154    0.3861 H   0  0  0  0  0  0  0  0  0  0  0  0
    3.9974    1.6792   -1.0832 H   0  0  0  0  0  0  0  0  0  0  0  0
    4.3341    3.3578   -0.5803 H   0  0  0  0  0  0  0  0  0  0  0  0
    3.3434    3.0743   -2.0399 H   0  0  0  0  0  0  0  0  0  0  0  0
   -0.3696   -3.7384   -0.8467 H   0  0  0  0  0  0  0  0  0  0  0  0
   -2.8226   -3.0259   -1.5239 H   0  0  0  0  0  0  0  0  0  0  0  0
   -1.9541   -4.0443   -2.7124 H   0  0  0  0  0  0  0  0  0  0  0  0
   -2.0894   -2.2822   -2.9746 H   0  0  0  0  0  0  0  0  0  0  0  0
    1.5178   -2.6207   -1.9637 H   0  0  0  0  0  0  0  0  0  0  0  0
    0.4067   -1.7746   -3.0996 H   0  0  0  0  0  0  0  0  0  0  0  0
    0.5737   -3.5553   -3.1752 H   0  0  0  0  0  0  0  0  0  0  0  0
   -2.6480   -1.4666    1.0481 H   0  0  0  0  0  0  0  0  0  0  0  0
   -0.7323   -0.5419    2.5370 H   0  0  0  0  0  0  0  0  0  0  0  0
   -0.2039   -2.2232    2.7834 H   0  0  0  0  0  0  0  0  0  0  0  0
   -1.8324   -1.6933    3.3602 H   0  0  0  0  0  0  0  0  0  0  0  0
   -2.5362   -3.8956    0.3481 H   0  0  0  0  0  0  0  0  0  0  0  0
   -2.6311   -3.7523    2.1252 H   0  0  0  0  0  0  0  0  0  0  0  0
   -1.0548   -4.1041    1.3544 H   0  0  0  0  0  0  0  0  0  0  0  0
    0.9477    2.2936    2.2019 H   0  0  0  0  0  0  0  0  0  0  0  0
   -0.0517    2.1219    4.4750 H   0  0  0  0  0  0  0  0  0  0  0  0
   -2.4904    1.5359    4.7310 H   0  0  0  0  0  0  0  0  0  0  0  0
   -3.8555    1.0442    2.6986 H   0  0  0  0  0  0  0  0  0  0  0  0
   -4.6818    2.4232    0.8993 H   0  0  0  0  0  0  0  0  0  0  0  0
   -6.3001    2.0008   -0.9499 H   0  0  0  0  0  0  0  0  0  0  0  0
   -5.6448    0.4658   -2.8443 H   0  0  0  0  0  0  0  0  0  0  0  0
   -3.3902   -0.6282   -2.8136 H   0  0  0  0  0  0  0  0  0  0  0  0
  1  8  1  0  0  0  0
  1  3  1  0  0  0  0
  2 14  1  0  0  0  0
  3 17  1  0  0  0  0
  4 28  1  0  0  0  0
  4  2  1  0  0  0  0
  5  1  1  0  0  0  0
  6  5  1  0  0  0  0
  6 30  1  0  0  0  0
  7 33  1  0  0  0  0
  7  5  1  0  0  0  0
  8  9  1  0  0  0  0
  8 36  1  0  0  0  0
  9 39  1  0  0  0  0
  9 37  1  0  0  0  0
 10 41  1  0  0  0  0
 10  8  1  0  0  0  0
 11 43  1  0  0  0  0
 11  2  1  0  0  0  0
 12 44  1  0  0  0  0
 12 11  1  0  0  0  0
 13 47  1  0  0  0  0
 13 11  1  0  0  0  0
 14 16  1  0  0  0  0
 14 15  1  0  0  0  0
 15 52  1  0  0  0  0
 15 53  1  0  0  0  0
 16 56  1  0  0  0  0
 16 55  1  0  0  0  0
 17 22  2  0  0  0  0
 17 18  1  0  0  0  0
 18 19  2  0  0  0  0
 19 20  1  0  0  0  0
 19 58  1  0  0  0  0
 20 59  1  0  0  0  0
 21 60  1  0  0  0  0
 21 20  2  0  0  0  0
 22 21  1  0  0  0  0
 23 22  1  0  0  0  0
 24 23  1  0  0  0  0
 24 61  1  0  0  0  0
 25 62  1  0  0  0  0
 25 24  2  0  0  0  0
 26 27  2  0  0  0  0
 26 25  1  0  0  0  0
 27 28  1  0  0  0  0
 28 23  2  0  0  0  0
 29  5  1  0  0  0  0
 31  6  1  0  0  0  0
 32  6  1  0  0  0  0
 34  7  1  0  0  0  0
 35  7  1  0  0  0  0
 38  9  1  0  0  0  0
 40 10  1  0  0  0  0
 42 10  1  0  0  0  0
 45 12  1  0  0  0  0
 46 12  1  0  0  0  0
 48 13  1  0  0  0  0
 49 13  1  0  0  0  0
 50 14  1  0  0  0  0
 51 15  1  0  0  0  0
 54 16  1  0  0  0  0
 57 18  1  0  0  0  0
 63 26  1  0  0  0  0
 64 27  1  0  0  0  0
M  END
