1,2
 OpenBabel05122313063D

 68 73  0  0  0  0  0  0  0  0999 V2000
   -1.7886   -0.0329    0.4526 P   0  0  0  0  0  0  0  0  0  0  0  0
    1.2868    0.4766   -0.4402 P   0  0  0  0  0  0  0  0  0  0  0  0
   -1.1211   -1.2400    1.4209 O   0  0  0  0  0  0  0  0  0  0  0  0
    1.0353    0.4141    1.2244 O   0  0  0  0  0  0  0  0  0  0  0  0
   -0.3772   -2.2652    0.8638 C   0  0  0  0  0  0  0  0  0  0  0  0
   -0.9169   -3.0590   -0.1639 C   0  0  0  0  0  0  0  0  0  0  0  0
   -0.2003   -4.1628   -0.6423 C   0  0  0  0  0  0  0  0  0  0  0  0
    1.0508   -4.4789   -0.0885 C   0  0  0  0  0  0  0  0  0  0  0  0
    1.5946   -3.6648    0.9103 C   0  0  0  0  0  0  0  0  0  0  0  0
    0.9115   -2.5241    1.3909 C   0  0  0  0  0  0  0  0  0  0  0  0
   -3.5626   -0.4660    0.4891 C   0  0  0  0  0  0  0  0  0  0  0  0
   -4.0086   -1.6136    1.1716 C   0  0  0  0  0  0  0  0  0  0  0  0
   -5.3809   -1.9051    1.2204 C   0  0  0  0  0  0  0  0  0  0  0  0
   -6.3046   -1.0531    0.5969 C   0  0  0  0  0  0  0  0  0  0  0  0
   -5.8572    0.0941   -0.0797 C   0  0  0  0  0  0  0  0  0  0  0  0
   -4.4896    0.3900   -0.1408 C   0  0  0  0  0  0  0  0  0  0  0  0
   -1.6795    1.4067    1.5721 C   0  0  0  0  0  0  0  0  0  0  0  0
   -1.6756    2.6927    0.9989 C   0  0  0  0  0  0  0  0  0  0  0  0
   -1.5979    3.8228    1.8278 C   0  0  0  0  0  0  0  0  0  0  0  0
   -1.5077    3.6683    3.2202 C   0  0  0  0  0  0  0  0  0  0  0  0
   -1.5037    2.3818    3.7873 C   0  0  0  0  0  0  0  0  0  0  0  0
   -1.5982    1.2480    2.9688 C   0  0  0  0  0  0  0  0  0  0  0  0
    1.6605   -0.2459    2.2511 C   0  0  0  0  0  0  0  0  0  0  0  0
    2.3406    0.5386    3.1998 C   0  0  0  0  0  0  0  0  0  0  0  0
    2.9473   -0.0625    4.3092 C   0  0  0  0  0  0  0  0  0  0  0  0
    2.8776   -1.4554    4.4710 C   0  0  0  0  0  0  0  0  0  0  0  0
    2.1968   -2.2309    3.5246 C   0  0  0  0  0  0  0  0  0  0  0  0
    1.5653   -1.6543    2.3994 C   0  0  0  0  0  0  0  0  0  0  0  0
    2.5730   -0.7588   -0.8069 C   0  0  0  0  0  0  0  0  0  0  0  0
    3.7915   -0.7144   -0.0948 C   0  0  0  0  0  0  0  0  0  0  0  0
    4.7680   -1.6916   -0.3299 C   0  0  0  0  0  0  0  0  0  0  0  0
    4.5426   -2.6940   -1.2886 C   0  0  0  0  0  0  0  0  0  0  0  0
    3.3381   -2.7237   -2.0090 C   0  0  0  0  0  0  0  0  0  0  0  0
    2.3453   -1.7651   -1.7652 C   0  0  0  0  0  0  0  0  0  0  0  0
    2.1151    2.0994   -0.5747 C   0  0  0  0  0  0  0  0  0  0  0  0
    1.8359    3.1050    0.3727 C   0  0  0  0  0  0  0  0  0  0  0  0
    2.4302    4.3685    0.2414 C   0  0  0  0  0  0  0  0  0  0  0  0
    3.2949    4.6329   -0.8327 C   0  0  0  0  0  0  0  0  0  0  0  0
    3.5633    3.6322   -1.7811 C   0  0  0  0  0  0  0  0  0  0  0  0
    2.9740    2.3658   -1.6602 C   0  0  0  0  0  0  0  0  0  0  0  0
   -1.9042   -2.8087   -0.5795 H   0  0  0  0  0  0  0  0  0  0  0  0
   -0.6271   -4.7766   -1.4493 H   0  0  0  0  0  0  0  0  0  0  0  0
    1.6195   -5.3444   -0.4589 H   0  0  0  0  0  0  0  0  0  0  0  0
    2.6037   -3.8699    1.2972 H   0  0  0  0  0  0  0  0  0  0  0  0
   -3.2819   -2.2722    1.6685 H   0  0  0  0  0  0  0  0  0  0  0  0
   -5.7275   -2.8041    1.7524 H   0  0  0  0  0  0  0  0  0  0  0  0
   -7.3800   -1.2844    0.6355 H   0  0  0  0  0  0  0  0  0  0  0  0
   -6.5790    0.7596   -0.5763 H   0  0  0  0  0  0  0  0  0  0  0  0
   -4.1397    1.2734   -0.6933 H   0  0  0  0  0  0  0  0  0  0  0  0
   -1.7025    2.8013   -0.0975 H   0  0  0  0  0  0  0  0  0  0  0  0
   -1.5917    4.8276    1.3790 H   0  0  0  0  0  0  0  0  0  0  0  0
   -1.4358    4.5547    3.8687 H   0  0  0  0  0  0  0  0  0  0  0  0
   -1.4241    2.2605    4.8783 H   0  0  0  0  0  0  0  0  0  0  0  0
   -1.5816    0.2388    3.4047 H   0  0  0  0  0  0  0  0  0  0  0  0
    2.3829    1.6253    3.0409 H   0  0  0  0  0  0  0  0  0  0  0  0
    3.4750    0.5599    5.0474 H   0  0  0  0  0  0  0  0  0  0  0  0
    3.3461   -1.9387    5.3410 H   0  0  0  0  0  0  0  0  0  0  0  0
    2.1240   -3.3207    3.6587 H   0  0  0  0  0  0  0  0  0  0  0  0
    3.9776    0.0826    0.6406 H   0  0  0  0  0  0  0  0  0  0  0  0
    5.7142   -1.6634    0.2311 H   0  0  0  0  0  0  0  0  0  0  0  0
    5.3165   -3.4534   -1.4793 H   0  0  0  0  0  0  0  0  0  0  0  0
    3.1634   -3.5044   -2.7641 H   0  0  0  0  0  0  0  0  0  0  0  0
    1.3977   -1.7779   -2.3223 H   0  0  0  0  0  0  0  0  0  0  0  0
    1.1491    2.8969    1.2054 H   0  0  0  0  0  0  0  0  0  0  0  0
    2.2120    5.1517    0.9835 H   0  0  0  0  0  0  0  0  0  0  0  0
    3.7597    5.6254   -0.9341 H   0  0  0  0  0  0  0  0  0  0  0  0
    4.2352    3.8394   -2.6275 H   0  0  0  0  0  0  0  0  0  0  0  0
    3.1606    1.5868   -2.4128 H   0  0  0  0  0  0  0  0  0  0  0  0
  1 11  1  0  0  0  0
  1  3  1  0  0  0  0
  1 17  1  0  0  0  0
  2  4  1  0  0  0  0
  4 23  1  0  0  0  0
  5 10  1  0  0  0  0
  5  3  1  0  0  0  0
  6  5  2  0  0  0  0
  7  6  1  0  0  0  0
  7  8  2  0  0  0  0
  8  9  1  0  0  0  0
  9 44  1  0  0  0  0
  9 10  2  0  0  0  0
 10 28  1  0  0  0  0
 11 12  1  0  0  0  0
 12 13  2  0  0  0  0
 12 45  1  0  0  0  0
 13 46  1  0  0  0  0
 14 47  1  0  0  0  0
 14 13  1  0  0  0  0
 15 14  2  0  0  0  0
 16 15  1  0  0  0  0
 16 11  2  0  0  0  0
 17 22  1  0  0  0  0
 18 17  2  0  0  0  0
 18 19  1  0  0  0  0
 19 20  2  0  0  0  0
 20 21  1  0  0  0  0
 20 52  1  0  0  0  0
 21 53  1  0  0  0  0
 22 54  1  0  0  0  0
 22 21  2  0  0  0  0
 23 28  2  0  0  0  0
 23 24  1  0  0  0  0
 24 25  2  0  0  0  0
 25 26  1  0  0  0  0
 25 56  1  0  0  0  0
 26 57  1  0  0  0  0
 27 58  1  0  0  0  0
 27 26  2  0  0  0  0
 28 27  1  0  0  0  0
 29  2  1  0  0  0  0
 29 30  1  0  0  0  0
 30 59  1  0  0  0  0
 31 30  2  0  0  0  0
 31 60  1  0  0  0  0
 32 31  1  0  0  0  0
 33 34  1  0  0  0  0
 33 32  2  0  0  0  0
 34 29  2  0  0  0  0
 35  2  1  0  0  0  0
 35 36  1  0  0  0  0
 36 64  1  0  0  0  0
 37 36  2  0  0  0  0
 37 65  1  0  0  0  0
 38 37  1  0  0  0  0
 39 40  1  0  0  0  0
 39 38  2  0  0  0  0
 40 35  2  0  0  0  0
 41  6  1  0  0  0  0
 42  7  1  0  0  0  0
 43  8  1  0  0  0  0
 48 15  1  0  0  0  0
 49 16  1  0  0  0  0
 50 18  1  0  0  0  0
 51 19  1  0  0  0  0
 55 24  1  0  0  0  0
 61 32  1  0  0  0  0
 62 33  1  0  0  0  0
 63 34  1  0  0  0  0
 66 38  1  0  0  0  0
 67 39  1  0  0  0  0
 68 40  1  0  0  0  0
M  END
