1,35
 OpenBabel05122313063D

 64 67  0  0  0  0  0  0  0  0999 V2000
   -1.3865   -0.1013   -0.2086 P   0  0  0  0  0  0  0  0  0  0  0  0
   -0.0001   -0.2079   -1.5059 C   0  0  0  0  0  0  0  0  0  0  0  0
   -0.0002    0.6162   -2.2473 H   0  0  0  0  0  0  0  0  0  0  0  0
   -0.0002   -1.5554   -2.2340 C   0  0  0  0  0  0  0  0  0  0  0  0
   -0.8980   -1.6529   -2.8749 H   0  0  0  0  0  0  0  0  0  0  0  0
   -0.0005   -2.4094   -1.5314 H   0  0  0  0  0  0  0  0  0  0  0  0
   -2.7726   -1.1792   -0.8043 C   0  0  0  0  0  0  0  0  0  0  0  0
   -3.1300   -2.2477    0.0440 C   0  0  0  0  0  0  0  0  0  0  0  0
   -2.5843   -2.3833    0.9876 H   0  0  0  0  0  0  0  0  0  0  0  0
   -4.1672   -3.1287   -0.2900 C   0  0  0  0  0  0  0  0  0  0  0  0
   -4.4255   -3.9536    0.3903 H   0  0  0  0  0  0  0  0  0  0  0  0
   -4.8596   -2.9480   -1.4940 C   0  0  0  0  0  0  0  0  0  0  0  0
   -5.6729   -3.6331   -1.7779 H   0  0  0  0  0  0  0  0  0  0  0  0
   -4.5118   -1.8882   -2.3430 C   0  0  0  0  0  0  0  0  0  0  0  0
   -5.0572   -1.7505   -3.2903 H   0  0  0  0  0  0  0  0  0  0  0  0
   -3.4798   -0.9814   -2.0250 C   0  0  0  0  0  0  0  0  0  0  0  0
   -3.1928    0.1492   -2.9793 C   0  0  0  0  0  0  0  0  0  0  0  0
   -3.6797   -0.0308   -3.9569 H   0  0  0  0  0  0  0  0  0  0  0  0
   -3.5683    1.1149   -2.5836 H   0  0  0  0  0  0  0  0  0  0  0  0
   -2.1090    0.2866   -3.1598 H   0  0  0  0  0  0  0  0  0  0  0  0
   -2.1016    1.6079   -0.2801 C   0  0  0  0  0  0  0  0  0  0  0  0
   -1.6985    2.5415   -1.2545 C   0  0  0  0  0  0  0  0  0  0  0  0
   -0.9907    2.2437   -2.0372 H   0  0  0  0  0  0  0  0  0  0  0  0
   -2.2005    3.8486   -1.2774 C   0  0  0  0  0  0  0  0  0  0  0  0
   -1.8594    4.5531   -2.0506 H   0  0  0  0  0  0  0  0  0  0  0  0
   -3.1410    4.2394   -0.3157 C   0  0  0  0  0  0  0  0  0  0  0  0
   -3.5495    5.2612   -0.3163 H   0  0  0  0  0  0  0  0  0  0  0  0
   -3.5663    3.3143    0.6456 C   0  0  0  0  0  0  0  0  0  0  0  0
   -4.3143    3.6150    1.3961 H   0  0  0  0  0  0  0  0  0  0  0  0
   -3.0639    1.9975    0.6956 C   0  0  0  0  0  0  0  0  0  0  0  0
   -3.5497    1.0787    1.7843 C   0  0  0  0  0  0  0  0  0  0  0  0
   -3.7153    0.0430    1.4330 H   0  0  0  0  0  0  0  0  0  0  0  0
   -2.8122    1.0215    2.6094 H   0  0  0  0  0  0  0  0  0  0  0  0
   -4.4998    1.4498    2.2139 H   0  0  0  0  0  0  0  0  0  0  0  0
    1.3865   -0.1010   -0.2088 P   0  0  0  0  0  0  0  0  0  0  0  0
    0.8978   -1.6532   -2.8746 H   0  0  0  0  0  0  0  0  0  0  0  0
    2.7729   -1.1791   -0.8036 C   0  0  0  0  0  0  0  0  0  0  0  0
    3.1307   -2.2465    0.0460 C   0  0  0  0  0  0  0  0  0  0  0  0
    2.5850   -2.3811    0.9897 H   0  0  0  0  0  0  0  0  0  0  0  0
    4.1682   -3.1275   -0.2869 C   0  0  0  0  0  0  0  0  0  0  0  0
    4.4267   -3.9515    0.3945 H   0  0  0  0  0  0  0  0  0  0  0  0
    4.8604   -2.9483   -1.4911 C   0  0  0  0  0  0  0  0  0  0  0  0
    5.6739   -3.6335   -1.7742 H   0  0  0  0  0  0  0  0  0  0  0  0
    4.5122   -1.8897   -2.3416 C   0  0  0  0  0  0  0  0  0  0  0  0
    5.0575   -1.7531   -3.2890 H   0  0  0  0  0  0  0  0  0  0  0  0
    3.4800   -0.9828   -2.0246 C   0  0  0  0  0  0  0  0  0  0  0  0
    3.1929    0.1466   -2.9804 C   0  0  0  0  0  0  0  0  0  0  0  0
    3.6798   -0.0346   -3.9577 H   0  0  0  0  0  0  0  0  0  0  0  0
    3.5683    1.1128   -2.5859 H   0  0  0  0  0  0  0  0  0  0  0  0
    2.1091    0.2836   -3.1612 H   0  0  0  0  0  0  0  0  0  0  0  0
    2.1017    1.6082   -0.2811 C   0  0  0  0  0  0  0  0  0  0  0  0
    1.7005    2.5405   -1.2576 C   0  0  0  0  0  0  0  0  0  0  0  0
    0.9945    2.2417   -2.0414 H   0  0  0  0  0  0  0  0  0  0  0  0
    2.2025    3.8477   -1.2811 C   0  0  0  0  0  0  0  0  0  0  0  0
    1.8629    4.5512   -2.0560 H   0  0  0  0  0  0  0  0  0  0  0  0
    3.1411    4.2398   -0.3182 C   0  0  0  0  0  0  0  0  0  0  0  0
    3.5494    5.2617   -0.3192 H   0  0  0  0  0  0  0  0  0  0  0  0
    3.5648    3.3158    0.6450 C   0  0  0  0  0  0  0  0  0  0  0  0
    4.3115    3.6175    1.3963 H   0  0  0  0  0  0  0  0  0  0  0  0
    3.0625    1.9990    0.6956 C   0  0  0  0  0  0  0  0  0  0  0  0
    3.5471    1.0814    1.7858 C   0  0  0  0  0  0  0  0  0  0  0  0
    3.7124    0.0451    1.4359 H   0  0  0  0  0  0  0  0  0  0  0  0
    2.8091    1.0257    2.6105 H   0  0  0  0  0  0  0  0  0  0  0  0
    4.4972    1.4525    2.2154 H   0  0  0  0  0  0  0  0  0  0  0  0
  2 35  1  0  0  0  0
  2  1  1  0  0  0  0
  3  2  1  0  0  0  0
  4  6  1  0  0  0  0
  4  2  1  0  0  0  0
  5  4  1  0  0  0  0
  7  1  1  0  0  0  0
  7  8  1  0  0  0  0
  8  9  1  0  0  0  0
 10  8  2  0  0  0  0
 10 11  1  0  0  0  0
 12 10  1  0  0  0  0
 13 12  1  0  0  0  0
 14 16  1  0  0  0  0
 14 12  2  0  0  0  0
 15 14  1  0  0  0  0
 16  7  2  0  0  0  0
 17 19  1  0  0  0  0
 17 16  1  0  0  0  0
 18 17  1  0  0  0  0
 20 17  1  0  0  0  0
 21  1  1  0  0  0  0
 21 30  1  0  0  0  0
 22 21  2  0  0  0  0
 23 22  1  0  0  0  0
 24 22  1  0  0  0  0
 24 26  2  0  0  0  0
 25 24  1  0  0  0  0
 26 28  1  0  0  0  0
 27 26  1  0  0  0  0
 28 30  2  0  0  0  0
 28 29  1  0  0  0  0
 30 31  1  0  0  0  0
 31 34  1  0  0  0  0
 31 33  1  0  0  0  0
 32 31  1  0  0  0  0
 36  4  1  0  0  0  0
 37 35  1  0  0  0  0
 37 38  1  0  0  0  0
 38 39  1  0  0  0  0
 40 38  2  0  0  0  0
 40 41  1  0  0  0  0
 42 40  1  0  0  0  0
 43 42  1  0  0  0  0
 44 46  1  0  0  0  0
 44 42  2  0  0  0  0
 45 44  1  0  0  0  0
 46 37  2  0  0  0  0
 47 49  1  0  0  0  0
 47 46  1  0  0  0  0
 48 47  1  0  0  0  0
 50 47  1  0  0  0  0
 51 35  1  0  0  0  0
 51 60  1  0  0  0  0
 52 51  2  0  0  0  0
 53 52  1  0  0  0  0
 54 52  1  0  0  0  0
 54 56  2  0  0  0  0
 55 54  1  0  0  0  0
 56 58  1  0  0  0  0
 57 56  1  0  0  0  0
 58 60  2  0  0  0  0
 58 59  1  0  0  0  0
 60 61  1  0  0  0  0
 61 64  1  0  0  0  0
 61 63  1  0  0  0  0
 62 61  1  0  0  0  0
M  END
