1,2
 OpenBabel05122313063D

 74 78  0  0  0  0  0  0  0  0999 V2000
    1.5329    0.4872    0.1002 P   0  0  0  0  0  0  0  0  0  0  0  0
   -1.0512   -0.6877   -0.0141 P   0  0  0  0  0  0  0  0  0  0  0  0
   -0.2617    0.9525    0.5557 C   0  0  0  0  0  0  0  0  0  0  0  0
   -0.4093    1.1662    1.6327 H   0  0  0  0  0  0  0  0  0  0  0  0
   -0.7678    2.1478   -0.2849 C   0  0  0  0  0  0  0  0  0  0  0  0
   -0.9286    1.8330   -1.3348 H   0  0  0  0  0  0  0  0  0  0  0  0
    0.0433    2.9048   -0.3335 H   0  0  0  0  0  0  0  0  0  0  0  0
    2.4305    0.1257    1.6827 C   0  0  0  0  0  0  0  0  0  0  0  0
    1.9020    0.4689    2.9430 C   0  0  0  0  0  0  0  0  0  0  0  0
    0.9533    1.0189    3.0085 H   0  0  0  0  0  0  0  0  0  0  0  0
    2.5713    0.1576    4.1336 C   0  0  0  0  0  0  0  0  0  0  0  0
    2.1287    0.4374    5.1014 H   0  0  0  0  0  0  0  0  0  0  0  0
    3.8063   -0.5014    4.0736 C   0  0  0  0  0  0  0  0  0  0  0  0
    4.3465   -0.7594    4.9969 H   0  0  0  0  0  0  0  0  0  0  0  0
    4.3584   -0.8187    2.8262 C   0  0  0  0  0  0  0  0  0  0  0  0
    5.3379   -1.3196    2.7763 H   0  0  0  0  0  0  0  0  0  0  0  0
    3.7011   -0.5167    1.6156 C   0  0  0  0  0  0  0  0  0  0  0  0
    4.3628   -0.8706    0.3122 C   0  0  0  0  0  0  0  0  0  0  0  0
    5.3826   -1.2649    0.4803 H   0  0  0  0  0  0  0  0  0  0  0  0
    3.7803   -1.6374   -0.2355 H   0  0  0  0  0  0  0  0  0  0  0  0
    4.4389    0.0022   -0.3671 H   0  0  0  0  0  0  0  0  0  0  0  0
    2.3957    2.0094   -0.5236 C   0  0  0  0  0  0  0  0  0  0  0  0
    2.9264    1.8980   -1.8267 C   0  0  0  0  0  0  0  0  0  0  0  0
    2.7773    0.9572   -2.3757 H   0  0  0  0  0  0  0  0  0  0  0  0
    3.6329    2.9513   -2.4217 C   0  0  0  0  0  0  0  0  0  0  0  0
    4.0356    2.8348   -3.4387 H   0  0  0  0  0  0  0  0  0  0  0  0
    3.8093    4.1456   -1.7116 C   0  0  0  0  0  0  0  0  0  0  0  0
    4.3532    4.9888   -2.1639 H   0  0  0  0  0  0  0  0  0  0  0  0
    3.2854    4.2673   -0.4173 C   0  0  0  0  0  0  0  0  0  0  0  0
    3.4223    5.2095    0.1368 H   0  0  0  0  0  0  0  0  0  0  0  0
    2.5838    3.2169    0.2096 C   0  0  0  0  0  0  0  0  0  0  0  0
    2.0864    3.4249    1.6159 C   0  0  0  0  0  0  0  0  0  0  0  0
    1.0581    3.0424    1.7602 H   0  0  0  0  0  0  0  0  0  0  0  0
    2.7269    2.8951    2.3502 H   0  0  0  0  0  0  0  0  0  0  0  0
    2.0863    4.5004    1.8769 H   0  0  0  0  0  0  0  0  0  0  0  0
   -2.7598   -0.3381   -0.6242 C   0  0  0  0  0  0  0  0  0  0  0  0
   -2.9396   -0.4562   -2.0185 C   0  0  0  0  0  0  0  0  0  0  0  0
   -2.0746   -0.7298   -2.6401 H   0  0  0  0  0  0  0  0  0  0  0  0
   -4.1936   -0.2532   -2.6090 C   0  0  0  0  0  0  0  0  0  0  0  0
   -4.3096   -0.3467   -3.6989 H   0  0  0  0  0  0  0  0  0  0  0  0
   -5.2918    0.0540   -1.7931 C   0  0  0  0  0  0  0  0  0  0  0  0
   -6.2874    0.2098   -2.2361 H   0  0  0  0  0  0  0  0  0  0  0  0
   -5.1207    0.1651   -0.4066 C   0  0  0  0  0  0  0  0  0  0  0  0
   -5.9830    0.4229    0.2281 H   0  0  0  0  0  0  0  0  0  0  0  0
   -3.8667   -0.0182    0.2109 C   0  0  0  0  0  0  0  0  0  0  0  0
   -3.7649    0.1406    1.7046 C   0  0  0  0  0  0  0  0  0  0  0  0
   -4.6200    0.7282    2.0898 H   0  0  0  0  0  0  0  0  0  0  0  0
   -3.7594   -0.8426    2.2186 H   0  0  0  0  0  0  0  0  0  0  0  0
   -2.8381    0.6641    2.0028 H   0  0  0  0  0  0  0  0  0  0  0  0
   -1.3066   -1.7669    1.4598 C   0  0  0  0  0  0  0  0  0  0  0  0
   -0.8746   -1.3865    2.7432 C   0  0  0  0  0  0  0  0  0  0  0  0
   -0.4330   -0.3974    2.9007 H   0  0  0  0  0  0  0  0  0  0  0  0
   -0.9960   -2.2460    3.8422 C   0  0  0  0  0  0  0  0  0  0  0  0
   -0.6372   -1.9221    4.8306 H   0  0  0  0  0  0  0  0  0  0  0  0
   -1.5692   -3.5119    3.6657 C   0  0  0  0  0  0  0  0  0  0  0  0
   -1.6699   -4.2032    4.5160 H   0  0  0  0  0  0  0  0  0  0  0  0
   -2.0101   -3.8977    2.3927 C   0  0  0  0  0  0  0  0  0  0  0  0
   -2.4581   -4.8937    2.2503 H   0  0  0  0  0  0  0  0  0  0  0  0
   -1.8916   -3.0528    1.2708 C   0  0  0  0  0  0  0  0  0  0  0  0
   -2.3898   -3.5266   -0.0679 C   0  0  0  0  0  0  0  0  0  0  0  0
   -1.6470   -3.3356   -0.8676 H   0  0  0  0  0  0  0  0  0  0  0  0
   -2.6067   -4.6112   -0.0492 H   0  0  0  0  0  0  0  0  0  0  0  0
   -3.3170   -2.9964   -0.3690 H   0  0  0  0  0  0  0  0  0  0  0  0
   -2.0164    2.8230    0.2430 C   0  0  0  0  0  0  0  0  0  0  0  0
   -2.0652    3.3347    1.5570 C   0  0  0  0  0  0  0  0  0  0  0  0
   -1.1893    3.2303    2.2182 H   0  0  0  0  0  0  0  0  0  0  0  0
   -3.2108    3.9835    2.0386 C   0  0  0  0  0  0  0  0  0  0  0  0
   -3.2272    4.3738    3.0677 H   0  0  0  0  0  0  0  0  0  0  0  0
   -4.3326    4.1383    1.2076 C   0  0  0  0  0  0  0  0  0  0  0  0
   -5.2342    4.6454    1.5835 H   0  0  0  0  0  0  0  0  0  0  0  0
   -4.2923    3.6459   -0.1055 C   0  0  0  0  0  0  0  0  0  0  0  0
   -5.1660    3.7570   -0.7654 H   0  0  0  0  0  0  0  0  0  0  0  0
   -3.1445    2.9946   -0.5813 C   0  0  0  0  0  0  0  0  0  0  0  0
   -3.1288    2.5900   -1.6050 H   0  0  0  0  0  0  0  0  0  0  0  0
  1  3  1  0  0  0  0
  1  8  1  0  0  0  0
  2  3  1  0  0  0  0
  2 50  1  0  0  0  0
  3  4  1  0  0  0  0
  5 64  1  0  0  0  0
  5  3  1  0  0  0  0
  6  5  1  0  0  0  0
  7  5  1  0  0  0  0
  8  9  1  0  0  0  0
  9 10  1  0  0  0  0
  9 11  2  0  0  0  0
 11 12  1  0  0  0  0
 13 11  1  0  0  0  0
 13 14  1  0  0  0  0
 15 13  2  0  0  0  0
 16 15  1  0  0  0  0
 17  8  2  0  0  0  0
 17 15  1  0  0  0  0
 18 19  1  0  0  0  0
 18 17  1  0  0  0  0
 20 18  1  0  0  0  0
 21 18  1  0  0  0  0
 22  1  1  0  0  0  0
 22 31  1  0  0  0  0
 23 22  2  0  0  0  0
 24 23  1  0  0  0  0
 25 23  1  0  0  0  0
 25 27  2  0  0  0  0
 26 25  1  0  0  0  0
 27 29  1  0  0  0  0
 28 27  1  0  0  0  0
 29 30  1  0  0  0  0
 29 31  2  0  0  0  0
 31 32  1  0  0  0  0
 32 33  1  0  0  0  0
 32 35  1  0  0  0  0
 32 34  1  0  0  0  0
 36  2  1  0  0  0  0
 36 45  1  0  0  0  0
 37 36  2  0  0  0  0
 38 37  1  0  0  0  0
 39 37  1  0  0  0  0
 39 41  2  0  0  0  0
 40 39  1  0  0  0  0
 41 43  1  0  0  0  0
 42 41  1  0  0  0  0
 43 45  2  0  0  0  0
 43 44  1  0  0  0  0
 45 46  1  0  0  0  0
 46 49  1  0  0  0  0
 46 47  1  0  0  0  0
 46 48  1  0  0  0  0
 50 51  1  0  0  0  0
 51 52  1  0  0  0  0
 51 53  2  0  0  0  0
 53 54  1  0  0  0  0
 55 53  1  0  0  0  0
 55 56  1  0  0  0  0
 57 55  2  0  0  0  0
 58 57  1  0  0  0  0
 59 50  2  0  0  0  0
 59 57  1  0  0  0  0
 60 62  1  0  0  0  0
 60 59  1  0  0  0  0
 61 60  1  0  0  0  0
 63 60  1  0  0  0  0
 64 65  1  0  0  0  0
 65 67  2  0  0  0  0
 65 66  1  0  0  0  0
 67 68  1  0  0  0  0
 69 70  1  0  0  0  0
 69 67  1  0  0  0  0
 71 69  2  0  0  0  0
 72 71  1  0  0  0  0
 73 71  1  0  0  0  0
 73 64  2  0  0  0  0
 74 73  1  0  0  0  0
M  END
