1,2
 OpenBabel05122313063D

 48 51  0  0  1  0  0  0  0  0999 V2000
   -1.2167    0.0064   -0.3119 P   0  0  1  0  0  0  0  0  0  0  0  0
    1.7655    0.4498   -0.6158 P   0  0  2  0  0  0  0  0  0  0  0  0
   -1.6674    1.1269   -1.7613 C   0  0  1  0  0  0  0  0  0  0  0  0
   -2.3404    2.3106   -1.0775 C   0  0  0  0  0  0  0  0  0  0  0  0
   -3.4678    3.0365   -1.7388 C   0  0  0  0  0  0  0  0  0  0  0  0
   -1.6873    2.6207    0.0791 C   0  0  0  0  0  0  0  0  0  0  0  0
   -1.9552    3.7349    1.0383 C   0  0  0  0  0  0  0  0  0  0  0  0
   -0.5321    1.6656    0.3063 C   0  0  2  0  0  0  0  0  0  0  0  0
   -0.2373    1.6043   -2.1690 C   0  0  0  0  0  0  0  0  0  0  0  0
    0.5391    1.8400   -0.8258 C   0  0  2  0  0  0  0  0  0  0  0  0
   -2.6786   -0.4719    0.6545 C   0  0  0  0  0  0  0  0  0  0  0  0
   -3.9896   -0.0613    0.3416 C   0  0  0  0  0  0  0  0  0  0  0  0
   -5.0600   -0.4613    1.1550 C   0  0  0  0  0  0  0  0  0  0  0  0
   -4.8280   -1.2680    2.2799 C   0  0  0  0  0  0  0  0  0  0  0  0
   -3.5241   -1.6913    2.5841 C   0  0  0  0  0  0  0  0  0  0  0  0
   -2.4513   -1.3079    1.7689 C   0  0  0  0  0  0  0  0  0  0  0  0
    2.6707    0.7545    0.9512 C   0  0  0  0  0  0  0  0  0  0  0  0
    3.1761   -0.3533    1.6630 C   0  0  0  0  0  0  0  0  0  0  0  0
    3.8764   -0.1455    2.8607 C   0  0  0  0  0  0  0  0  0  0  0  0
    4.0672    1.1544    3.3558 C   0  0  0  0  0  0  0  0  0  0  0  0
    3.5667    2.2573    2.6447 C   0  0  0  0  0  0  0  0  0  0  0  0
    2.8749    2.0614    1.4404 C   0  0  0  0  0  0  0  0  0  0  0  0
    3.0118    0.5885   -1.9268 C   0  0  0  0  0  0  0  0  0  0  0  0
    3.1496    1.6209   -2.7776 C   0  0  0  0  0  0  0  0  0  0  0  0
   -2.2311    0.6550   -2.5861 H   0  0  0  0  0  0  0  0  0  0  0  0
   -3.8463    3.8748   -1.1235 H   0  0  0  0  0  0  0  0  0  0  0  0
   -4.3208    2.3556   -1.9512 H   0  0  0  0  0  0  0  0  0  0  0  0
   -3.1545    3.4505   -2.7222 H   0  0  0  0  0  0  0  0  0  0  0  0
   -2.1584    3.3356    2.0555 H   0  0  0  0  0  0  0  0  0  0  0  0
   -2.8216    4.3532    0.7356 H   0  0  0  0  0  0  0  0  0  0  0  0
   -1.0741    4.4060    1.1362 H   0  0  0  0  0  0  0  0  0  0  0  0
   -0.1053    1.6585    1.3260 H   0  0  0  0  0  0  0  0  0  0  0  0
    0.2650    0.8543   -2.8126 H   0  0  0  0  0  0  0  0  0  0  0  0
   -0.3160    2.5445   -2.7498 H   0  0  0  0  0  0  0  0  0  0  0  0
    1.0130    2.8400   -0.7775 H   0  0  0  0  0  0  0  0  0  0  0  0
   -4.1816    0.5626   -0.5412 H   0  0  0  0  0  0  0  0  0  0  0  0
   -6.0832   -0.1437    0.9032 H   0  0  0  0  0  0  0  0  0  0  0  0
   -5.6707   -1.5817    2.9146 H   0  0  0  0  0  0  0  0  0  0  0  0
   -3.3416   -2.3434    3.4512 H   0  0  0  0  0  0  0  0  0  0  0  0
   -1.4360   -1.6790    1.9739 H   0  0  0  0  0  0  0  0  0  0  0  0
    3.0270   -1.3671    1.2531 H   0  0  0  0  0  0  0  0  0  0  0  0
    4.2724   -1.0112    3.4129 H   0  0  0  0  0  0  0  0  0  0  0  0
    4.6106    1.3110    4.3001 H   0  0  0  0  0  0  0  0  0  0  0  0
    3.7187    3.2779    3.0276 H   0  0  0  0  0  0  0  0  0  0  0  0
    2.4981    2.9338    0.8849 H   0  0  0  0  0  0  0  0  0  0  0  0
    3.6420   -0.3165   -1.9825 H   0  0  0  0  0  0  0  0  0  0  0  0
    2.5066    2.5155   -2.7390 H   0  0  0  0  0  0  0  0  0  0  0  0
    3.9244    1.6046   -3.5614 H   0  0  0  0  0  0  0  0  0  0  0  0
  1  8  1  0  0  0  0
  1 11  1  1  0  0  0
  2 23  1  6  0  0  0
  2 17  1  0  0  0  0
  3 25  1  6  0  0  0
  3  4  1  0  0  0  0
  3  1  1  0  0  0  0
  4  6  2  0  0  0  0
  5 26  1  0  0  0  0
  5  4  1  0  0  0  0
  6  8  1  0  0  0  0
  6  7  1  0  0  0  0
  7 31  1  0  0  0  0
  7 29  1  0  0  0  0
  8 32  1  1  0  0  0
  9  3  1  0  0  0  0
  9 10  1  0  0  0  0
 10 35  1  1  0  0  0
 10  2  1  0  0  0  0
 10  8  1  0  0  0  0
 11 16  1  0  0  0  0
 12 11  2  0  0  0  0
 12 13  1  0  0  0  0
 13 14  2  0  0  0  0
 14 15  1  0  0  0  0
 14 38  1  0  0  0  0
 15 39  1  0  0  0  0
 16 40  1  0  0  0  0
 16 15  2  0  0  0  0
 17 22  2  0  0  0  0
 17 18  1  0  0  0  0
 18 19  2  0  0  0  0
 19 20  1  0  0  0  0
 19 42  1  0  0  0  0
 20 43  1  0  0  0  0
 21 44  1  0  0  0  0
 21 20  2  0  0  0  0
 22 21  1  0  0  0  0
 24 47  1  0  0  0  0
 24 23  2  0  0  0  0
 27  5  1  0  0  0  0
 28  5  1  0  0  0  0
 30  7  1  0  0  0  0
 33  9  1  0  0  0  0
 34  9  1  0  0  0  0
 36 12  1  0  0  0  0
 37 13  1  0  0  0  0
 41 18  1  0  0  0  0
 45 22  1  0  0  0  0
 46 23  1  0  0  0  0
 48 24  1  0  0  0  0
M  END
