1,2
 OpenBabel05122313063D

 57 60  0  0  0  0  0  0  0  0999 V2000
   -1.6324    0.4924    0.7629 P   0  0  0  0  0  0  0  0  0  0  0  0
    1.8677    0.0789    0.4423 P   0  0  0  0  0  0  0  0  0  0  0  0
    1.5959    0.5322    2.0266 O   0  0  0  0  0  0  0  0  0  0  0  0
    1.5278   -0.4783    3.0485 C   0  0  0  0  0  0  0  0  0  0  0  0
    2.4643   -0.4241    3.6435 H   0  0  0  0  0  0  0  0  0  0  0  0
    1.4954   -1.4948    2.5968 H   0  0  0  0  0  0  0  0  0  0  0  0
    0.3129   -0.2641    3.9381 C   0  0  0  0  0  0  0  0  0  0  0  0
    0.3500    0.7466    4.3960 H   0  0  0  0  0  0  0  0  0  0  0  0
    0.3693   -0.9933    4.7743 H   0  0  0  0  0  0  0  0  0  0  0  0
   -1.0251   -0.4447    3.2351 C   0  0  0  0  0  0  0  0  0  0  0  0
   -1.0397   -1.3975    2.6629 H   0  0  0  0  0  0  0  0  0  0  0  0
   -1.8546   -0.4914    3.9713 H   0  0  0  0  0  0  0  0  0  0  0  0
   -1.2873    0.6749    2.3726 O   0  0  0  0  0  0  0  0  0  0  0  0
    2.4448    1.6792   -0.2149 C   0  0  0  0  0  0  0  0  0  0  0  0
    3.1920    1.6915   -1.4111 C   0  0  0  0  0  0  0  0  0  0  0  0
    3.5000    0.7448   -1.8831 H   0  0  0  0  0  0  0  0  0  0  0  0
    3.5428    2.9138   -1.9992 C   0  0  0  0  0  0  0  0  0  0  0  0
    4.1298    2.9235   -2.9295 H   0  0  0  0  0  0  0  0  0  0  0  0
    3.1479    4.1225   -1.4009 C   0  0  0  0  0  0  0  0  0  0  0  0
    3.4222    5.0807   -1.8671 H   0  0  0  0  0  0  0  0  0  0  0  0
    2.4097    4.1080   -0.2075 C   0  0  0  0  0  0  0  0  0  0  0  0
    2.1045    5.0537    0.2650 H   0  0  0  0  0  0  0  0  0  0  0  0
    2.0579    2.8891    0.3916 C   0  0  0  0  0  0  0  0  0  0  0  0
    1.4889    2.8695    1.3305 H   0  0  0  0  0  0  0  0  0  0  0  0
    3.3893   -0.9354    0.5732 C   0  0  0  0  0  0  0  0  0  0  0  0
    3.4164   -2.3113    0.2748 C   0  0  0  0  0  0  0  0  0  0  0  0
    2.5179   -2.8162   -0.1047 H   0  0  0  0  0  0  0  0  0  0  0  0
    4.5949   -3.0501    0.4628 C   0  0  0  0  0  0  0  0  0  0  0  0
    4.6095   -4.1235    0.2226 H   0  0  0  0  0  0  0  0  0  0  0  0
    5.7482   -2.4201    0.9532 C   0  0  0  0  0  0  0  0  0  0  0  0
    6.6725   -2.9997    1.0963 H   0  0  0  0  0  0  0  0  0  0  0  0
    5.7247   -1.0488    1.2617 C   0  0  0  0  0  0  0  0  0  0  0  0
    6.6287   -0.5539    1.6468 H   0  0  0  0  0  0  0  0  0  0  0  0
    4.5518   -0.3069    1.0757 C   0  0  0  0  0  0  0  0  0  0  0  0
    4.5345    0.7676    1.3146 H   0  0  0  0  0  0  0  0  0  0  0  0
   -3.3506   -0.1741    0.7546 C   0  0  0  0  0  0  0  0  0  0  0  0
   -3.5460   -1.5751    0.7619 C   0  0  0  0  0  0  0  0  0  0  0  0
   -2.6873   -2.2588    0.6857 H   0  0  0  0  0  0  0  0  0  0  0  0
   -4.8411   -2.1085    0.8542 C   0  0  0  0  0  0  0  0  0  0  0  0
   -4.9818   -3.1999    0.8652 H   0  0  0  0  0  0  0  0  0  0  0  0
   -5.9498   -1.2513    0.9395 C   0  0  0  0  0  0  0  0  0  0  0  0
   -6.9651   -1.6696    1.0100 H   0  0  0  0  0  0  0  0  0  0  0  0
   -5.7621    0.1410    0.9408 C   0  0  0  0  0  0  0  0  0  0  0  0
   -6.6295    0.8139    1.0150 H   0  0  0  0  0  0  0  0  0  0  0  0
   -4.4712    0.6809    0.8542 C   0  0  0  0  0  0  0  0  0  0  0  0
   -4.3307    1.7717    0.8663 H   0  0  0  0  0  0  0  0  0  0  0  0
   -1.8183    2.2567    0.3360 C   0  0  0  0  0  0  0  0  0  0  0  0
   -2.3711    2.6092   -0.9126 C   0  0  0  0  0  0  0  0  0  0  0  0
   -2.7379    1.8303   -1.6003 H   0  0  0  0  0  0  0  0  0  0  0  0
   -2.4643    3.9564   -1.2848 C   0  0  0  0  0  0  0  0  0  0  0  0
   -2.8964    4.2258   -2.2598 H   0  0  0  0  0  0  0  0  0  0  0  0
   -2.0058    4.9585   -0.4134 C   0  0  0  0  0  0  0  0  0  0  0  0
   -2.0766    6.0162   -0.7078 H   0  0  0  0  0  0  0  0  0  0  0  0
   -1.4650    4.6098    0.8333 C   0  0  0  0  0  0  0  0  0  0  0  0
   -1.1157    5.3940    1.5218 H   0  0  0  0  0  0  0  0  0  0  0  0
   -1.3700    3.2622    1.2138 C   0  0  0  0  0  0  0  0  0  0  0  0
   -0.9572    2.9805    2.1920 H   0  0  0  0  0  0  0  0  0  0  0  0
  1 13  1  0  0  0  0
  2 25  1  0  0  0  0
  2  3  1  0  0  0  0
  3  4  1  0  0  0  0
  4  5  1  0  0  0  0
  4  7  1  0  0  0  0
  6  4  1  0  0  0  0
  7  8  1  0  0  0  0
  7  9  1  0  0  0  0
 10  7  1  0  0  0  0
 10 12  1  0  0  0  0
 11 10  1  0  0  0  0
 13 10  1  0  0  0  0
 14 23  1  0  0  0  0
 14  2  1  0  0  0  0
 15 14  2  0  0  0  0
 16 15  1  0  0  0  0
 17 15  1  0  0  0  0
 17 19  2  0  0  0  0
 18 17  1  0  0  0  0
 19 21  1  0  0  0  0
 20 19  1  0  0  0  0
 21 22  1  0  0  0  0
 21 23  2  0  0  0  0
 23 24  1  0  0  0  0
 25 34  1  0  0  0  0
 26 28  1  0  0  0  0
 26 25  2  0  0  0  0
 27 26  1  0  0  0  0
 28 30  2  0  0  0  0
 29 28  1  0  0  0  0
 30 31  1  0  0  0  0
 30 32  1  0  0  0  0
 32 33  1  0  0  0  0
 34 32  2  0  0  0  0
 34 35  1  0  0  0  0
 36 37  2  0  0  0  0
 36  1  1  0  0  0  0
 36 45  1  0  0  0  0
 37 39  1  0  0  0  0
 38 37  1  0  0  0  0
 39 40  1  0  0  0  0
 39 41  2  0  0  0  0
 41 43  1  0  0  0  0
 41 42  1  0  0  0  0
 43 44  1  0  0  0  0
 45 46  1  0  0  0  0
 45 43  2  0  0  0  0
 47  1  1  0  0  0  0
 47 56  1  0  0  0  0
 48 47  2  0  0  0  0
 49 48  1  0  0  0  0
 50 48  1  0  0  0  0
 50 52  2  0  0  0  0
 51 50  1  0  0  0  0
 52 54  1  0  0  0  0
 53 52  1  0  0  0  0
 54 56  2  0  0  0  0
 54 55  1  0  0  0  0
 56 57  1  0  0  0  0
M  END
