1,2
 OpenBabel05122313063D

 74 80  0  0  0  0  0  0  0  0999 V2000
    1.8622   -0.4900    0.1907 P   0  0  0  0  0  0  0  0  0  0  0  0
   -1.8873   -0.3114    0.3376 P   0  0  0  0  0  0  0  0  0  0  0  0
    0.1732    1.6604    1.0207 O   0  0  0  0  0  0  0  0  0  0  0  0
    1.9131   -0.8318    2.0062 C   0  0  0  0  0  0  0  0  0  0  0  0
   -2.1361   -2.2544    2.3405 C   0  0  0  0  0  0  0  0  0  0  0  0
   -2.4341   -2.9187    1.5158 H   0  0  0  0  0  0  0  0  0  0  0  0
   -0.9932    2.3203    0.7042 C   0  0  0  0  0  0  0  0  0  0  0  0
    2.3155    1.2884    0.1040 C   0  0  0  0  0  0  0  0  0  0  0  0
    3.5166   -1.5877   -1.7893 C   0  0  0  0  0  0  0  0  0  0  0  0
    2.6653   -1.3667   -2.4527 H   0  0  0  0  0  0  0  0  0  0  0  0
   -2.1187    1.5168    0.4436 C   0  0  0  0  0  0  0  0  0  0  0  0
   -3.3175    2.1707    0.0993 C   0  0  0  0  0  0  0  0  0  0  0  0
   -4.2139    1.5794   -0.1337 H   0  0  0  0  0  0  0  0  0  0  0  0
   -3.3584    3.5698    0.0161 C   0  0  0  0  0  0  0  0  0  0  0  0
   -4.2992    4.0690   -0.2593 H   0  0  0  0  0  0  0  0  0  0  0  0
    3.4049   -1.3021   -0.4138 C   0  0  0  0  0  0  0  0  0  0  0  0
   -0.9956    3.7239    0.6129 C   0  0  0  0  0  0  0  0  0  0  0  0
    4.4819   -1.5951    0.4475 C   0  0  0  0  0  0  0  0  0  0  0  0
    4.4008   -1.3748    1.5226 H   0  0  0  0  0  0  0  0  0  0  0  0
   -1.8433   -0.8962    2.0855 C   0  0  0  0  0  0  0  0  0  0  0  0
    3.6661    3.1892   -0.5816 C   0  0  0  0  0  0  0  0  0  0  0  0
    4.5933    3.5863   -1.0205 H   0  0  0  0  0  0  0  0  0  0  0  0
    4.6951   -2.1524   -2.2984 C   0  0  0  0  0  0  0  0  0  0  0  0
    4.7740   -2.3697   -3.3744 H   0  0  0  0  0  0  0  0  0  0  0  0
   -2.0686   -2.7612    3.6452 C   0  0  0  0  0  0  0  0  0  0  0  0
   -2.3077   -3.8197    3.8292 H   0  0  0  0  0  0  0  0  0  0  0  0
    3.5035    1.8017   -0.4455 C   0  0  0  0  0  0  0  0  0  0  0  0
    4.2892    1.1120   -0.7860 H   0  0  0  0  0  0  0  0  0  0  0  0
    2.3391   -0.1676    4.3161 C   0  0  0  0  0  0  0  0  0  0  0  0
    2.6452    0.6041    5.0392 H   0  0  0  0  0  0  0  0  0  0  0  0
    5.7636   -2.4500   -1.4368 C   0  0  0  0  0  0  0  0  0  0  0  0
    6.6836   -2.9043   -1.8353 H   0  0  0  0  0  0  0  0  0  0  0  0
   -3.5568   -0.8677   -0.2210 C   0  0  0  0  0  0  0  0  0  0  0  0
   -2.2081    4.3384    0.2584 C   0  0  0  0  0  0  0  0  0  0  0  0
   -2.2612    5.4323    0.1668 H   0  0  0  0  0  0  0  0  0  0  0  0
    2.6569    4.0774   -0.1717 C   0  0  0  0  0  0  0  0  0  0  0  0
    2.8084    5.1589   -0.2959 H   0  0  0  0  0  0  0  0  0  0  0  0
    2.3026    0.1424    2.9477 C   0  0  0  0  0  0  0  0  0  0  0  0
    2.5900    1.1484    2.6091 H   0  0  0  0  0  0  0  0  0  0  0  0
    1.3311    2.2054    0.5111 C   0  0  0  0  0  0  0  0  0  0  0  0
   -5.9158   -1.3136    0.2019 C   0  0  0  0  0  0  0  0  0  0  0  0
   -6.7627   -1.3689    0.9030 H   0  0  0  0  0  0  0  0  0  0  0  0
    1.6088   -2.4283    3.8268 C   0  0  0  0  0  0  0  0  0  0  0  0
    1.3275   -3.4370    4.1640 H   0  0  0  0  0  0  0  0  0  0  0  0
   -1.4712   -0.0616    3.1575 C   0  0  0  0  0  0  0  0  0  0  0  0
   -1.2417    0.9973    2.9792 H   0  0  0  0  0  0  0  0  0  0  0  0
   -4.6499   -0.9310    0.6694 C   0  0  0  0  0  0  0  0  0  0  0  0
   -4.5072   -0.6846    1.7325 H   0  0  0  0  0  0  0  0  0  0  0  0
   -5.0182   -1.5557   -2.0446 C   0  0  0  0  0  0  0  0  0  0  0  0
   -5.1580   -1.7998   -3.1086 H   0  0  0  0  0  0  0  0  0  0  0  0
   -1.6976   -1.9242    4.7094 C   0  0  0  0  0  0  0  0  0  0  0  0
   -1.6396   -2.3235    5.7333 H   0  0  0  0  0  0  0  0  0  0  0  0
   -6.1019   -1.6256   -1.1553 C   0  0  0  0  0  0  0  0  0  0  0  0
   -7.0959   -1.9279   -1.5191 H   0  0  0  0  0  0  0  0  0  0  0  0
   -1.3966   -0.5770    4.4600 C   0  0  0  0  0  0  0  0  0  0  0  0
   -1.0980    0.0848    5.2867 H   0  0  0  0  0  0  0  0  0  0  0  0
    1.9947   -1.4527    4.7597 C   0  0  0  0  0  0  0  0  0  0  0  0
    2.0217   -1.6941    5.8332 H   0  0  0  0  0  0  0  0  0  0  0  0
    1.5643   -2.1209    2.4608 C   0  0  0  0  0  0  0  0  0  0  0  0
    1.2587   -2.8972    1.7464 H   0  0  0  0  0  0  0  0  0  0  0  0
    5.6539   -2.1725   -0.0647 C   0  0  0  0  0  0  0  0  0  0  0  0
    6.4876   -2.4075    0.6148 H   0  0  0  0  0  0  0  0  0  0  0  0
    0.3135    4.4584    0.9392 C   0  0  0  0  0  0  0  0  0  0  0  0
    0.3355    5.8782    0.3606 C   0  0  0  0  0  0  0  0  0  0  0  0
    1.2808    6.3926    0.6212 H   0  0  0  0  0  0  0  0  0  0  0  0
   -0.4847    6.4892    0.7850 H   0  0  0  0  0  0  0  0  0  0  0  0
    0.2331    5.8698   -0.7424 H   0  0  0  0  0  0  0  0  0  0  0  0
    0.4572    4.5290    2.4850 C   0  0  0  0  0  0  0  0  0  0  0  0
    0.4535    3.5156    2.9330 H   0  0  0  0  0  0  0  0  0  0  0  0
   -0.3826    5.1045    2.9243 H   0  0  0  0  0  0  0  0  0  0  0  0
    1.4111    5.0232    2.7599 H   0  0  0  0  0  0  0  0  0  0  0  0
   -3.7479   -1.1824   -1.5796 C   0  0  0  0  0  0  0  0  0  0  0  0
   -2.8841   -1.1368   -2.2620 H   0  0  0  0  0  0  0  0  0  0  0  0
    1.4624    3.5983    0.3947 C   0  0  0  0  0  0  0  0  0  0  0  0
  1  4  1  0  0  0  0
  2 11  1  0  0  0  0
  2 20  1  0  0  0  0
  4 59  2  0  0  0  0
  4 38  1  0  0  0  0
  5 25  1  0  0  0  0
  6  5  1  0  0  0  0
  7  3  1  0  0  0  0
  8  1  1  0  0  0  0
  8 40  1  0  0  0  0
  9 16  1  0  0  0  0
 10  9  1  0  0  0  0
 11  7  2  0  0  0  0
 12 11  1  0  0  0  0
 13 12  1  0  0  0  0
 14 12  2  0  0  0  0
 14 34  1  0  0  0  0
 15 14  1  0  0  0  0
 16  1  1  0  0  0  0
 16 18  2  0  0  0  0
 17  7  1  0  0  0  0
 17 63  1  0  0  0  0
 18 19  1  0  0  0  0
 20  5  2  0  0  0  0
 20 45  1  0  0  0  0
 21 27  1  0  0  0  0
 21 36  2  0  0  0  0
 22 21  1  0  0  0  0
 23  9  2  0  0  0  0
 23 31  1  0  0  0  0
 24 23  1  0  0  0  0
 25 26  1  0  0  0  0
 25 51  2  0  0  0  0
 27  8  2  0  0  0  0
 28 27  1  0  0  0  0
 29 57  1  0  0  0  0
 29 30  1  0  0  0  0
 31 61  2  0  0  0  0
 32 31  1  0  0  0  0
 33  2  1  0  0  0  0
 33 47  1  0  0  0  0
 34 17  2  0  0  0  0
 35 34  1  0  0  0  0
 36 74  1  0  0  0  0
 37 36  1  0  0  0  0
 38 29  2  0  0  0  0
 39 38  1  0  0  0  0
 40  3  1  0  0  0  0
 41 47  2  0  0  0  0
 41 42  1  0  0  0  0
 43 44  1  0  0  0  0
 43 57  2  0  0  0  0
 45 55  2  0  0  0  0
 46 45  1  0  0  0  0
 47 48  1  0  0  0  0
 49 72  1  0  0  0  0
 49 53  2  0  0  0  0
 50 49  1  0  0  0  0
 51 52  1  0  0  0  0
 53 41  1  0  0  0  0
 54 53  1  0  0  0  0
 55 51  1  0  0  0  0
 55 56  1  0  0  0  0
 57 58  1  0  0  0  0
 59 43  1  0  0  0  0
 60 59  1  0  0  0  0
 61 18  1  0  0  0  0
 61 62  1  0  0  0  0
 63 68  1  0  0  0  0
 64 65  1  0  0  0  0
 64 66  1  0  0  0  0
 64 63  1  0  0  0  0
 67 64  1  0  0  0  0
 68 71  1  0  0  0  0
 68 70  1  0  0  0  0
 68 69  1  0  0  0  0
 72 33  2  0  0  0  0
 73 72  1  0  0  0  0
 74 40  2  0  0  0  0
 74 63  1  0  0  0  0
M  END
