1,2
 OpenBabel05122313063D

 73 76  0  0  0  0  0  0  0  0999 V2000
   -1.7020    0.1512    0.1713 P   0  0  0  0  0  0  0  0  0  0  0  0
    1.6928   -0.0547    0.2051 P   0  0  0  0  0  0  0  0  0  0  0  0
   -4.0840   -0.6881    1.8671 O   0  0  0  0  0  0  0  0  0  0  0  0
   -1.0744    2.9563    0.6088 O   0  0  0  0  0  0  0  0  0  0  0  0
    1.1324   -2.8975    0.2875 O   0  0  0  0  0  0  0  0  0  0  0  0
    3.9779    0.4337    2.0796 O   0  0  0  0  0  0  0  0  0  0  0  0
   -0.1622   -0.8481    2.1478 N   0  0  0  0  0  0  0  0  0  0  0  0
   -1.1616    0.1748    1.9640 C   0  0  0  0  0  0  0  0  0  0  0  0
   -0.7850    1.1990    2.1835 H   0  0  0  0  0  0  0  0  0  0  0  0
   -2.0558   -0.0107    2.5875 H   0  0  0  0  0  0  0  0  0  0  0  0
    1.1955   -0.4091    2.0051 C   0  0  0  0  0  0  0  0  0  0  0  0
    1.8921   -1.1871    2.3656 H   0  0  0  0  0  0  0  0  0  0  0  0
    1.4168    0.5284    2.5763 H   0  0  0  0  0  0  0  0  0  0  0  0
   -0.4339   -1.8859    3.1155 C   0  0  0  0  0  0  0  0  0  0  0  0
    0.2857   -2.7179    2.9782 H   0  0  0  0  0  0  0  0  0  0  0  0
   -1.4495   -2.2992    2.9477 H   0  0  0  0  0  0  0  0  0  0  0  0
   -0.3724   -1.5474    4.1839 H   0  0  0  0  0  0  0  0  0  0  0  0
   -2.6998   -1.3877    0.0727 C   0  0  0  0  0  0  0  0  0  0  0  0
   -3.7770   -1.6598    0.9608 C   0  0  0  0  0  0  0  0  0  0  0  0
   -4.4710   -2.8837    0.8745 C   0  0  0  0  0  0  0  0  0  0  0  0
   -5.3043   -3.1015    1.5555 H   0  0  0  0  0  0  0  0  0  0  0  0
   -4.0977   -3.8323   -0.0905 C   0  0  0  0  0  0  0  0  0  0  0  0
   -4.6503   -4.7828   -0.1484 H   0  0  0  0  0  0  0  0  0  0  0  0
   -3.0438   -3.5721   -0.9765 C   0  0  0  0  0  0  0  0  0  0  0  0
   -2.7619   -4.3085   -1.7430 H   0  0  0  0  0  0  0  0  0  0  0  0
   -2.3548   -2.3527   -0.8908 C   0  0  0  0  0  0  0  0  0  0  0  0
   -1.5411   -2.1143   -1.5929 H   0  0  0  0  0  0  0  0  0  0  0  0
   -5.2398   -0.8337    2.6725 C   0  0  0  0  0  0  0  0  0  0  0  0
   -5.3229    0.0968    3.2636 H   0  0  0  0  0  0  0  0  0  0  0  0
   -5.1577   -1.6998    3.3665 H   0  0  0  0  0  0  0  0  0  0  0  0
   -6.1554   -0.9537    2.0531 H   0  0  0  0  0  0  0  0  0  0  0  0
   -2.8604    1.5524   -0.0294 C   0  0  0  0  0  0  0  0  0  0  0  0
   -2.3736    2.8649    0.2004 C   0  0  0  0  0  0  0  0  0  0  0  0
   -3.2128    3.9757   -0.0070 C   0  0  0  0  0  0  0  0  0  0  0  0
   -2.8441    4.9948    0.1689 H   0  0  0  0  0  0  0  0  0  0  0  0
   -4.5288    3.7780   -0.4538 C   0  0  0  0  0  0  0  0  0  0  0  0
   -5.1768    4.6527   -0.6169 H   0  0  0  0  0  0  0  0  0  0  0  0
   -5.0112    2.4864   -0.7068 C   0  0  0  0  0  0  0  0  0  0  0  0
   -6.0345    2.3372   -1.0811 H   0  0  0  0  0  0  0  0  0  0  0  0
   -4.1716    1.3819   -0.5015 C   0  0  0  0  0  0  0  0  0  0  0  0
   -4.5259    0.3677   -0.7350 H   0  0  0  0  0  0  0  0  0  0  0  0
   -0.4704    4.2347    0.7068 C   0  0  0  0  0  0  0  0  0  0  0  0
    0.5892    4.0570    0.9661 H   0  0  0  0  0  0  0  0  0  0  0  0
   -0.9480    4.8561    1.4969 H   0  0  0  0  0  0  0  0  0  0  0  0
   -0.5170    4.7787   -0.2618 H   0  0  0  0  0  0  0  0  0  0  0  0
    2.8627   -1.3944   -0.2359 C   0  0  0  0  0  0  0  0  0  0  0  0
    2.4044   -2.7340   -0.1732 C   0  0  0  0  0  0  0  0  0  0  0  0
    3.2431   -3.7888   -0.5794 C   0  0  0  0  0  0  0  0  0  0  0  0
    2.8936   -4.8289   -0.5359 H   0  0  0  0  0  0  0  0  0  0  0  0
    4.5339   -3.5040   -1.0527 C   0  0  0  0  0  0  0  0  0  0  0  0
    5.1836   -4.3334   -1.3714 H   0  0  0  0  0  0  0  0  0  0  0  0
    4.9890   -2.1808   -1.1353 C   0  0  0  0  0  0  0  0  0  0  0  0
    5.9921   -1.9603   -1.5285 H   0  0  0  0  0  0  0  0  0  0  0  0
    4.1471   -1.1315   -0.7370 C   0  0  0  0  0  0  0  0  0  0  0  0
    4.4778   -0.0880   -0.8374 H   0  0  0  0  0  0  0  0  0  0  0  0
    0.5348   -4.1795    0.2284 C   0  0  0  0  0  0  0  0  0  0  0  0
   -0.5090   -4.0488    0.5671 H   0  0  0  0  0  0  0  0  0  0  0  0
    1.0535   -4.9077    0.8918 H   0  0  0  0  0  0  0  0  0  0  0  0
    0.5285   -4.5767   -0.8103 H   0  0  0  0  0  0  0  0  0  0  0  0
    2.7314    1.4538    0.3506 C   0  0  0  0  0  0  0  0  0  0  0  0
    3.7793    1.5381    1.3071 C   0  0  0  0  0  0  0  0  0  0  0  0
    4.5490    2.7137    1.4105 C   0  0  0  0  0  0  0  0  0  0  0  0
    5.3618    2.7875    2.1451 H   0  0  0  0  0  0  0  0  0  0  0  0
    4.2754    3.8008    0.5648 C   0  0  0  0  0  0  0  0  0  0  0  0
    4.8842    4.7138    0.6537 H   0  0  0  0  0  0  0  0  0  0  0  0
    3.2504    3.7259   -0.3879 C   0  0  0  0  0  0  0  0  0  0  0  0
    3.0500    4.5718   -1.0615 H   0  0  0  0  0  0  0  0  0  0  0  0
    2.4878    2.5517   -0.4931 C   0  0  0  0  0  0  0  0  0  0  0  0
    1.7047    2.4531   -1.2604 H   0  0  0  0  0  0  0  0  0  0  0  0
    5.0750    0.4044    2.9733 C   0  0  0  0  0  0  0  0  0  0  0  0
    5.0640   -0.5955    3.4446 H   0  0  0  0  0  0  0  0  0  0  0  0
    4.9861    1.1810    3.7654 H   0  0  0  0  0  0  0  0  0  0  0  0
    6.0408    0.5425    2.4393 H   0  0  0  0  0  0  0  0  0  0  0  0
  1  8  1  0  0  0  0
  2 60  1  0  0  0  0
  2 11  1  0  0  0  0
  3 28  1  0  0  0  0
  4 42  1  0  0  0  0
  6 70  1  0  0  0  0
  7 14  1  0  0  0  0
  8  7  1  0  0  0  0
  8  9  1  0  0  0  0
  8 10  1  0  0  0  0
 11  7  1  0  0  0  0
 11 12  1  0  0  0  0
 11 13  1  0  0  0  0
 14 17  1  0  0  0  0
 15 14  1  0  0  0  0
 16 14  1  0  0  0  0
 18  1  1  0  0  0  0
 18 19  1  0  0  0  0
 19  3  1  0  0  0  0
 20 19  2  0  0  0  0
 20 21  1  0  0  0  0
 22 20  1  0  0  0  0
 23 22  1  0  0  0  0
 24 26  1  0  0  0  0
 24 22  2  0  0  0  0
 25 24  1  0  0  0  0
 26 18  2  0  0  0  0
 27 26  1  0  0  0  0
 28 29  1  0  0  0  0
 28 30  1  0  0  0  0
 31 28  1  0  0  0  0
 32  1  1  0  0  0  0
 32 33  1  0  0  0  0
 33  4  1  0  0  0  0
 34 35  1  0  0  0  0
 34 33  2  0  0  0  0
 36 34  1  0  0  0  0
 37 36  1  0  0  0  0
 38 40  1  0  0  0  0
 38 36  2  0  0  0  0
 39 38  1  0  0  0  0
 40 32  2  0  0  0  0
 41 40  1  0  0  0  0
 42 43  1  0  0  0  0
 42 44  1  0  0  0  0
 45 42  1  0  0  0  0
 46 47  1  0  0  0  0
 46  2  1  0  0  0  0
 47  5  1  0  0  0  0
 48 49  1  0  0  0  0
 48 47  2  0  0  0  0
 50 48  1  0  0  0  0
 51 50  1  0  0  0  0
 52 50  2  0  0  0  0
 52 54  1  0  0  0  0
 53 52  1  0  0  0  0
 54 46  2  0  0  0  0
 55 54  1  0  0  0  0
 56  5  1  0  0  0  0
 56 57  1  0  0  0  0
 56 58  1  0  0  0  0
 59 56  1  0  0  0  0
 60 61  1  0  0  0  0
 61 62  2  0  0  0  0
 61  6  1  0  0  0  0
 62 63  1  0  0  0  0
 64 65  1  0  0  0  0
 64 62  1  0  0  0  0
 66 64  2  0  0  0  0
 67 66  1  0  0  0  0
 68 66  1  0  0  0  0
 68 60  2  0  0  0  0
 69 68  1  0  0  0  0
 70 71  1  0  0  0  0
 70 72  1  0  0  0  0
 73 70  1  0  0  0  0
M  END
