1,2
 OpenBabel05122313063D

 68 72  0  0  0  0  0  0  0  0999 V2000
   -1.5380   -0.2726    0.2283 P   0  0  0  0  0  0  0  0  0  0  0  0
    1.5399   -0.2650    0.2439 P   0  0  0  0  0  0  0  0  0  0  0  0
   -3.5158    6.1882    1.1544 O   0  0  0  0  0  0  0  0  0  0  0  0
   -3.9015    7.0695    0.9607 H   0  0  0  0  0  0  0  0  0  0  0  0
   -4.2831    5.9006   -0.9545 O   0  0  0  0  0  0  0  0  0  0  0  0
   -7.4149   -3.6388    0.9336 O   0  0  0  0  0  0  0  0  0  0  0  0
   -8.0628   -4.3758    0.9193 H   0  0  0  0  0  0  0  0  0  0  0  0
   -6.1580   -5.3375    0.1252 O   0  0  0  0  0  0  0  0  0  0  0  0
    6.1305   -5.2687    0.0611 O   0  0  0  0  0  0  0  0  0  0  0  0
    6.9724   -5.7591    0.1778 H   0  0  0  0  0  0  0  0  0  0  0  0
    7.4413   -3.6954    1.0231 O   0  0  0  0  0  0  0  0  0  0  0  0
    4.2148    5.8533   -0.9992 O   0  0  0  0  0  0  0  0  0  0  0  0
    4.4882    6.7886   -0.8832 H   0  0  0  0  0  0  0  0  0  0  0  0
    3.5355    6.2634    1.1196 O   0  0  0  0  0  0  0  0  0  0  0  0
   -0.7137   -0.5133    1.8636 C   0  0  0  0  0  0  0  0  0  0  0  0
    0.7006   -0.5124    1.8709 C   0  0  0  0  0  0  0  0  0  0  0  0
    1.3956   -0.7189    3.0763 C   0  0  0  0  0  0  0  0  0  0  0  0
    2.4961   -0.7429    3.0786 H   0  0  0  0  0  0  0  0  0  0  0  0
    0.6830   -0.9185    4.2691 C   0  0  0  0  0  0  0  0  0  0  0  0
    1.2291   -1.0896    5.2088 H   0  0  0  0  0  0  0  0  0  0  0  0
   -0.7217   -0.9186    4.2618 C   0  0  0  0  0  0  0  0  0  0  0  0
   -1.2774   -1.0898    5.1959 H   0  0  0  0  0  0  0  0  0  0  0  0
   -1.4215   -0.7196    3.0614 C   0  0  0  0  0  0  0  0  0  0  0  0
   -2.5220   -0.7440    3.0510 H   0  0  0  0  0  0  0  0  0  0  0  0
   -2.2078    1.4333    0.2565 C   0  0  0  0  0  0  0  0  0  0  0  0
   -2.0595    2.2868    1.3675 C   0  0  0  0  0  0  0  0  0  0  0  0
   -1.5604    1.9297    2.2801 H   0  0  0  0  0  0  0  0  0  0  0  0
   -2.5449    3.6000    1.3092 C   0  0  0  0  0  0  0  0  0  0  0  0
   -2.4310    4.2746    2.1688 H   0  0  0  0  0  0  0  0  0  0  0  0
   -3.1824    4.0641    0.1425 C   0  0  0  0  0  0  0  0  0  0  0  0
   -3.3204    3.2089   -0.9705 C   0  0  0  0  0  0  0  0  0  0  0  0
   -3.8097    3.6004   -1.8743 H   0  0  0  0  0  0  0  0  0  0  0  0
   -2.8300    1.9015   -0.9232 C   0  0  0  0  0  0  0  0  0  0  0  0
   -2.8953    1.2373   -1.8019 H   0  0  0  0  0  0  0  0  0  0  0  0
   -3.7196    5.4540    0.0293 C   0  0  0  0  0  0  0  0  0  0  0  0
   -2.9902   -1.3829    0.2673 C   0  0  0  0  0  0  0  0  0  0  0  0
   -4.2375   -0.9433    0.7529 C   0  0  0  0  0  0  0  0  0  0  0  0
   -4.3723    0.1040    1.0631 H   0  0  0  0  0  0  0  0  0  0  0  0
   -5.3134   -1.8383    0.8223 C   0  0  0  0  0  0  0  0  0  0  0  0
   -6.2921   -1.5062    1.1949 H   0  0  0  0  0  0  0  0  0  0  0  0
   -5.1452   -3.1734    0.4059 C   0  0  0  0  0  0  0  0  0  0  0  0
   -3.8982   -3.6052   -0.0900 C   0  0  0  0  0  0  0  0  0  0  0  0
   -3.8008   -4.6486   -0.4232 H   0  0  0  0  0  0  0  0  0  0  0  0
   -2.8246   -2.7145   -0.1666 C   0  0  0  0  0  0  0  0  0  0  0  0
   -1.8559   -3.0339   -0.5793 H   0  0  0  0  0  0  0  0  0  0  0  0
   -6.2578   -4.1703    0.4607 C   0  0  0  0  0  0  0  0  0  0  0  0
    3.0029   -1.3606    0.2948 C   0  0  0  0  0  0  0  0  0  0  0  0
    2.8691   -2.6788   -0.1849 C   0  0  0  0  0  0  0  0  0  0  0  0
    1.9180   -2.9968   -0.6374 H   0  0  0  0  0  0  0  0  0  0  0  0
    3.9525   -3.5603   -0.1061 C   0  0  0  0  0  0  0  0  0  0  0  0
    3.8616   -4.5883   -0.4826 H   0  0  0  0  0  0  0  0  0  0  0  0
    5.1765   -3.1273    0.4442 C   0  0  0  0  0  0  0  0  0  0  0  0
    5.3110   -1.8047    0.9088 C   0  0  0  0  0  0  0  0  0  0  0  0
    6.2812   -1.4917    1.3215 H   0  0  0  0  0  0  0  0  0  0  0  0
    4.2296   -0.9199    0.8325 C   0  0  0  0  0  0  0  0  0  0  0  0
    4.3416    0.1193    1.1774 H   0  0  0  0  0  0  0  0  0  0  0  0
    6.3671   -4.0253    0.5500 C   0  0  0  0  0  0  0  0  0  0  0  0
    2.1956    1.4465    0.2814 C   0  0  0  0  0  0  0  0  0  0  0  0
    2.8008    1.9276   -0.9008 C   0  0  0  0  0  0  0  0  0  0  0  0
    2.8620    1.2694   -1.7845 H   0  0  0  0  0  0  0  0  0  0  0  0
    3.2818    3.2402   -0.9475 C   0  0  0  0  0  0  0  0  0  0  0  0
    3.7530    3.6244   -1.8626 H   0  0  0  0  0  0  0  0  0  0  0  0
    3.1503    4.0847    0.1748 C   0  0  0  0  0  0  0  0  0  0  0  0
    2.5320    3.6050    1.3450 C   0  0  0  0  0  0  0  0  0  0  0  0
    2.4354    4.2876    2.2020 H   0  0  0  0  0  0  0  0  0  0  0  0
    2.0552    2.2905    1.4017 C   0  0  0  0  0  0  0  0  0  0  0  0
    1.5701    1.9230    2.3178 H   0  0  0  0  0  0  0  0  0  0  0  0
    3.6369    5.4978    0.1756 C   0  0  0  0  0  0  0  0  0  0  0  0
  1 25  1  0  0  0  0
  1 36  1  0  0  0  0
  1 15  1  0  0  0  0
  2 58  1  0  0  0  0
  2 47  1  0  0  0  0
  2 16  1  0  0  0  0
  4  3  1  0  0  0  0
  5 35  2  0  0  0  0
  7  6  1  0  0  0  0
  8 46  2  0  0  0  0
  9 10  1  0  0  0  0
  9 57  1  0  0  0  0
 12 13  1  0  0  0  0
 12 68  1  0  0  0  0
 15 16  2  0  0  0  0
 15 23  1  0  0  0  0
 16 17  1  0  0  0  0
 17 18  1  0  0  0  0
 17 19  2  0  0  0  0
 19 20  1  0  0  0  0
 21 19  1  0  0  0  0
 21 22  1  0  0  0  0
 23 21  2  0  0  0  0
 24 23  1  0  0  0  0
 25 26  1  0  0  0  0
 26 27  1  0  0  0  0
 28 26  2  0  0  0  0
 28 29  1  0  0  0  0
 30 28  1  0  0  0  0
 31 33  1  0  0  0  0
 31 30  2  0  0  0  0
 32 31  1  0  0  0  0
 33 25  2  0  0  0  0
 34 33  1  0  0  0  0
 35 30  1  0  0  0  0
 35  3  1  0  0  0  0
 36 37  1  0  0  0  0
 37 39  2  0  0  0  0
 37 38  1  0  0  0  0
 39 40  1  0  0  0  0
 41 46  1  0  0  0  0
 41 39  1  0  0  0  0
 42 41  2  0  0  0  0
 43 42  1  0  0  0  0
 44 42  1  0  0  0  0
 44 36  2  0  0  0  0
 45 44  1  0  0  0  0
 46  6  1  0  0  0  0
 47 55  1  0  0  0  0
 48 50  1  0  0  0  0
 48 47  2  0  0  0  0
 49 48  1  0  0  0  0
 50 52  2  0  0  0  0
 51 50  1  0  0  0  0
 52 57  1  0  0  0  0
 52 53  1  0  0  0  0
 53 54  1  0  0  0  0
 55 53  2  0  0  0  0
 55 56  1  0  0  0  0
 57 11  2  0  0  0  0
 58 66  1  0  0  0  0
 59 58  2  0  0  0  0
 60 59  1  0  0  0  0
 61 59  1  0  0  0  0
 61 63  2  0  0  0  0
 62 61  1  0  0  0  0
 63 68  1  0  0  0  0
 63 64  1  0  0  0  0
 64 66  2  0  0  0  0
 64 65  1  0  0  0  0
 66 67  1  0  0  0  0
 68 14  2  0  0  0  0
M  END
