1,2
 OpenBabel05122313063D

 70 74  0  0  0  0  0  0  0  0999 V2000
    1.7256    0.3906    0.3663 P   0  0  0  0  0  0  0  0  0  0  0  0
   -1.4196   -0.8911    0.1550 P   0  0  0  0  0  0  0  0  0  0  0  0
   -0.6543    1.5941    1.1171 N   0  0  0  0  0  0  0  0  0  0  0  0
    0.7095    1.4212    1.5651 C   0  0  0  0  0  0  0  0  0  0  0  0
    0.7895    0.9240    2.5645 H   0  0  0  0  0  0  0  0  0  0  0  0
    1.2134    2.4052    1.6419 H   0  0  0  0  0  0  0  0  0  0  0  0
   -1.4964    0.4698    1.4505 C   0  0  0  0  0  0  0  0  0  0  0  0
   -2.5540    0.7907    1.5037 H   0  0  0  0  0  0  0  0  0  0  0  0
   -1.2340    0.0051    2.4333 H   0  0  0  0  0  0  0  0  0  0  0  0
   -1.2319    2.9414    1.2688 C   0  0  0  0  0  0  0  0  0  0  0  0
   -0.4169    3.6384    0.9686 H   0  0  0  0  0  0  0  0  0  0  0  0
   -1.6384    3.2961    2.7133 C   0  0  0  0  0  0  0  0  0  0  0  0
   -2.4236    2.5830    3.0516 H   0  0  0  0  0  0  0  0  0  0  0  0
   -0.7710    3.1566    3.3933 H   0  0  0  0  0  0  0  0  0  0  0  0
   -2.1786    4.7293    2.8117 C   0  0  0  0  0  0  0  0  0  0  0  0
   -2.4925    4.9511    3.8530 H   0  0  0  0  0  0  0  0  0  0  0  0
   -1.3578    5.4439    2.5762 H   0  0  0  0  0  0  0  0  0  0  0  0
   -3.3388    4.9585    1.8347 C   0  0  0  0  0  0  0  0  0  0  0  0
   -3.6942    6.0083    1.8949 H   0  0  0  0  0  0  0  0  0  0  0  0
   -4.2000    4.3192    2.1341 H   0  0  0  0  0  0  0  0  0  0  0  0
   -2.9306    4.6111    0.3974 C   0  0  0  0  0  0  0  0  0  0  0  0
   -2.1427    5.3219    0.0601 H   0  0  0  0  0  0  0  0  0  0  0  0
   -3.7862    4.7443   -0.2965 H   0  0  0  0  0  0  0  0  0  0  0  0
   -2.3940    3.1777    0.2925 C   0  0  0  0  0  0  0  0  0  0  0  0
   -3.2210    2.4658    0.5102 H   0  0  0  0  0  0  0  0  0  0  0  0
   -2.0630    2.9449   -0.7403 H   0  0  0  0  0  0  0  0  0  0  0  0
    2.2787    1.6304   -0.8655 C   0  0  0  0  0  0  0  0  0  0  0  0
   -2.5548   -0.2274   -1.1276 C   0  0  0  0  0  0  0  0  0  0  0  0
    1.3221    2.5092   -1.4166 C   0  0  0  0  0  0  0  0  0  0  0  0
    0.2740    2.4438   -1.0886 H   0  0  0  0  0  0  0  0  0  0  0  0
   -1.9856    0.3989   -2.2542 C   0  0  0  0  0  0  0  0  0  0  0  0
   -0.8940    0.3603   -2.3956 H   0  0  0  0  0  0  0  0  0  0  0  0
    1.7050    3.4383   -2.3943 C   0  0  0  0  0  0  0  0  0  0  0  0
    0.9547    4.1223   -2.8198 H   0  0  0  0  0  0  0  0  0  0  0  0
   -2.8096    1.0431   -3.1890 C   0  0  0  0  0  0  0  0  0  0  0  0
   -2.3581    1.5272   -4.0682 H   0  0  0  0  0  0  0  0  0  0  0  0
    3.0365    3.4850   -2.8385 C   0  0  0  0  0  0  0  0  0  0  0  0
    3.3353    4.2101   -3.6107 H   0  0  0  0  0  0  0  0  0  0  0  0
   -4.2019    1.0570   -3.0112 C   0  0  0  0  0  0  0  0  0  0  0  0
   -4.8477    1.5577   -3.7487 H   0  0  0  0  0  0  0  0  0  0  0  0
    3.9823    2.5931   -2.3082 C   0  0  0  0  0  0  0  0  0  0  0  0
    5.0221    2.6134   -2.6682 H   0  0  0  0  0  0  0  0  0  0  0  0
   -4.7726    0.4145   -1.8999 C   0  0  0  0  0  0  0  0  0  0  0  0
   -5.8654    0.4053   -1.7681 H   0  0  0  0  0  0  0  0  0  0  0  0
    3.6083    1.6616   -1.3283 C   0  0  0  0  0  0  0  0  0  0  0  0
    4.3408    0.9436   -0.9335 H   0  0  0  0  0  0  0  0  0  0  0  0
   -3.9533   -0.2271   -0.9591 C   0  0  0  0  0  0  0  0  0  0  0  0
   -4.4086   -0.7412   -0.0988 H   0  0  0  0  0  0  0  0  0  0  0  0
    3.1825   -0.0236    1.3923 C   0  0  0  0  0  0  0  0  0  0  0  0
   -2.2912   -2.2620    1.0235 C   0  0  0  0  0  0  0  0  0  0  0  0
    3.9591    1.0083    1.9614 C   0  0  0  0  0  0  0  0  0  0  0  0
    3.7441    2.0618    1.7220 H   0  0  0  0  0  0  0  0  0  0  0  0
   -3.2878   -1.9839    1.9880 C   0  0  0  0  0  0  0  0  0  0  0  0
   -3.5734   -0.9494    2.2270 H   0  0  0  0  0  0  0  0  0  0  0  0
    5.0251    0.6939    2.8169 C   0  0  0  0  0  0  0  0  0  0  0  0
    5.6325    1.5012    3.2536 H   0  0  0  0  0  0  0  0  0  0  0  0
   -3.9335   -3.0301    2.6642 C   0  0  0  0  0  0  0  0  0  0  0  0
   -4.7079   -2.7989    3.4113 H   0  0  0  0  0  0  0  0  0  0  0  0
    5.3183   -0.6482    3.1091 C   0  0  0  0  0  0  0  0  0  0  0  0
    6.1571   -0.8939    3.7782 H   0  0  0  0  0  0  0  0  0  0  0  0
   -3.5900   -4.3627    2.3903 C   0  0  0  0  0  0  0  0  0  0  0  0
   -4.0959   -5.1827    2.9226 H   0  0  0  0  0  0  0  0  0  0  0  0
    4.5476   -1.6755    2.5417 C   0  0  0  0  0  0  0  0  0  0  0  0
    4.7829   -2.7279    2.7606 H   0  0  0  0  0  0  0  0  0  0  0  0
   -2.5985   -4.6437    1.4377 C   0  0  0  0  0  0  0  0  0  0  0  0
   -2.3235   -5.6862    1.2170 H   0  0  0  0  0  0  0  0  0  0  0  0
    3.4819   -1.3688    1.6831 C   0  0  0  0  0  0  0  0  0  0  0  0
    2.8908   -2.1644    1.2060 H   0  0  0  0  0  0  0  0  0  0  0  0
   -1.9481   -3.6039    0.7574 C   0  0  0  0  0  0  0  0  0  0  0  0
   -1.1862   -3.8188   -0.0086 H   0  0  0  0  0  0  0  0  0  0  0  0
  1 49  1  0  0  0  0
  1  4  1  0  0  0  0
  2 50  1  0  0  0  0
  2  7  1  0  0  0  0
  3 10  1  0  0  0  0
  3  7  1  0  0  0  0
  3  4  1  0  0  0  0
  4  6  1  0  0  0  0
  4  5  1  0  0  0  0
  7  8  1  0  0  0  0
  7  9  1  0  0  0  0
 10 12  1  0  0  0  0
 11 10  1  0  0  0  0
 12 15  1  0  0  0  0
 12 13  1  0  0  0  0
 12 14  1  0  0  0  0
 15 16  1  0  0  0  0
 17 15  1  0  0  0  0
 18 19  1  0  0  0  0
 18 20  1  0  0  0  0
 18 15  1  0  0  0  0
 21 18  1  0  0  0  0
 22 21  1  0  0  0  0
 23 21  1  0  0  0  0
 24 21  1  0  0  0  0
 24 25  1  0  0  0  0
 24 10  1  0  0  0  0
 26 24  1  0  0  0  0
 27  1  1  0  0  0  0
 28 47  1  0  0  0  0
 28  2  1  0  0  0  0
 29 30  1  0  0  0  0
 29 27  2  0  0  0  0
 31 28  2  0  0  0  0
 32 31  1  0  0  0  0
 33 29  1  0  0  0  0
 34 33  1  0  0  0  0
 35 39  2  0  0  0  0
 35 31  1  0  0  0  0
 36 35  1  0  0  0  0
 37 33  2  0  0  0  0
 37 41  1  0  0  0  0
 38 37  1  0  0  0  0
 39 43  1  0  0  0  0
 40 39  1  0  0  0  0
 41 45  2  0  0  0  0
 42 41  1  0  0  0  0
 43 44  1  0  0  0  0
 43 47  2  0  0  0  0
 45 46  1  0  0  0  0
 45 27  1  0  0  0  0
 47 48  1  0  0  0  0
 49 67  2  0  0  0  0
 49 51  1  0  0  0  0
 50 53  1  0  0  0  0
 51 55  2  0  0  0  0
 52 51  1  0  0  0  0
 53 54  1  0  0  0  0
 53 57  2  0  0  0  0
 55 59  1  0  0  0  0
 55 56  1  0  0  0  0
 57 58  1  0  0  0  0
 59 60  1  0  0  0  0
 61 57  1  0  0  0  0
 61 62  1  0  0  0  0
 63 64  1  0  0  0  0
 63 59  2  0  0  0  0
 65 61  2  0  0  0  0
 66 65  1  0  0  0  0
 67 63  1  0  0  0  0
 68 67  1  0  0  0  0
 69 50  2  0  0  0  0
 69 65  1  0  0  0  0
 70 69  1  0  0  0  0
M  END
