1,2
 OpenBabel05122313063D

 60 62  0  0  1  0  0  0  0  0999 V2000
   -1.4601   -0.8682   -0.1614 P   0  0  1  0  0  0  0  0  0  0  0  0
    0.5311    1.4175   -0.1749 P   0  0  2  0  0  0  0  0  0  0  0  0
   -1.9603    0.6372   -1.0977 C   0  0  0  0  0  0  0  0  0  0  0  0
   -1.0568    1.7207   -1.0495 C   0  0  0  0  0  0  0  0  0  0  0  0
   -1.3956    2.9477   -1.6525 C   0  0  0  0  0  0  0  0  0  0  0  0
   -0.7053    3.8034   -1.6035 H   0  0  0  0  0  0  0  0  0  0  0  0
   -2.6191    3.0839   -2.3248 C   0  0  0  0  0  0  0  0  0  0  0  0
   -2.8771    4.0398   -2.8041 H   0  0  0  0  0  0  0  0  0  0  0  0
   -3.5114    2.0010   -2.3885 C   0  0  0  0  0  0  0  0  0  0  0  0
   -4.4702    2.1078   -2.9171 H   0  0  0  0  0  0  0  0  0  0  0  0
   -3.1888    0.7833   -1.7708 C   0  0  0  0  0  0  0  0  0  0  0  0
   -3.9065   -0.0493   -1.8147 H   0  0  0  0  0  0  0  0  0  0  0  0
   -2.7391   -1.0535    1.2169 C   0  0  2  0  0  0  0  0  0  0  0  0
   -2.1721   -1.6228    1.9888 H   0  0  0  0  0  0  0  0  0  0  0  0
   -3.8244   -1.9728    0.6361 C   0  0  0  0  0  0  0  0  0  0  0  0
   -4.4374   -2.4285    1.4400 H   0  0  0  0  0  0  0  0  0  0  0  0
   -4.5224   -1.3784    0.0066 H   0  0  0  0  0  0  0  0  0  0  0  0
   -3.1167   -3.0372   -0.2077 C   0  0  0  0  0  0  0  0  0  0  0  0
   -3.8299   -3.6611   -0.7840 H   0  0  0  0  0  0  0  0  0  0  0  0
   -2.5607   -3.7312    0.4614 H   0  0  0  0  0  0  0  0  0  0  0  0
   -2.1176   -2.3450   -1.1565 C   0  0  2  0  0  0  0  0  0  0  0  0
   -2.6811   -1.8702   -1.9895 H   0  0  0  0  0  0  0  0  0  0  0  0
   -3.2025    0.2697    1.8295 C   0  0  0  0  0  0  0  0  0  0  0  0
   -3.7654    0.8486    1.0663 H   0  0  0  0  0  0  0  0  0  0  0  0
   -2.3052    0.8798    2.0722 H   0  0  0  0  0  0  0  0  0  0  0  0
   -4.0561    0.0910    3.0867 C   0  0  0  0  0  0  0  0  0  0  0  0
   -4.9944   -0.4597    2.8737 H   0  0  0  0  0  0  0  0  0  0  0  0
   -4.3409    1.0718    3.5161 H   0  0  0  0  0  0  0  0  0  0  0  0
   -3.5085   -0.4720    3.8707 H   0  0  0  0  0  0  0  0  0  0  0  0
   -1.0775   -3.2903   -1.7614 C   0  0  0  0  0  0  0  0  0  0  0  0
   -0.4837   -3.7475   -0.9411 H   0  0  0  0  0  0  0  0  0  0  0  0
   -1.6316   -4.1351   -2.2254 H   0  0  0  0  0  0  0  0  0  0  0  0
   -0.1535   -2.6475   -2.7915 C   0  0  0  0  0  0  0  0  0  0  0  0
   -0.7289   -2.2036   -3.6297 H   0  0  0  0  0  0  0  0  0  0  0  0
    0.5461   -3.3891   -3.2259 H   0  0  0  0  0  0  0  0  0  0  0  0
    0.4481   -1.8386   -2.3301 H   0  0  0  0  0  0  0  0  0  0  0  0
    0.6848    2.8415    1.0612 C   0  0  2  0  0  0  0  0  0  0  0  0
   -0.0334    3.6023    0.6803 H   0  0  0  0  0  0  0  0  0  0  0  0
    2.1088    3.3762    0.8361 C   0  0  0  0  0  0  0  0  0  0  0  0
    2.2393    4.3771    1.2942 H   0  0  0  0  0  0  0  0  0  0  0  0
    2.8436    2.7017    1.3314 H   0  0  0  0  0  0  0  0  0  0  0  0
    2.3503    3.4065   -0.6758 C   0  0  0  0  0  0  0  0  0  0  0  0
    3.4023    3.6509   -0.9292 H   0  0  0  0  0  0  0  0  0  0  0  0
    1.7237    4.2018   -1.1359 H   0  0  0  0  0  0  0  0  0  0  0  0
    1.9550    2.0395   -1.2654 C   0  0  2  0  0  0  0  0  0  0  0  0
    2.7595    1.3077   -1.0302 H   0  0  0  0  0  0  0  0  0  0  0  0
    0.3052    2.4904    2.5002 C   0  0  0  0  0  0  0  0  0  0  0  0
   -0.6940    2.0049    2.4993 H   0  0  0  0  0  0  0  0  0  0  0  0
    1.0075    1.7174    2.8772 H   0  0  0  0  0  0  0  0  0  0  0  0
    0.2910    3.6977    3.4401 C   0  0  0  0  0  0  0  0  0  0  0  0
    1.2927    4.1638    3.5318 H   0  0  0  0  0  0  0  0  0  0  0  0
   -0.0306    3.4048    4.4590 H   0  0  0  0  0  0  0  0  0  0  0  0
   -0.4095    4.4798    3.0812 H   0  0  0  0  0  0  0  0  0  0  0  0
    1.7287    2.0355   -2.7797 C   0  0  0  0  0  0  0  0  0  0  0  0
    0.9259    2.7592   -3.0352 H   0  0  0  0  0  0  0  0  0  0  0  0
    2.6521    2.4420   -3.2480 H   0  0  0  0  0  0  0  0  0  0  0  0
    1.4025    0.6701   -3.3771 C   0  0  0  0  0  0  0  0  0  0  0  0
    2.1842   -0.0779   -3.1330 H   0  0  0  0  0  0  0  0  0  0  0  0
    1.3219    0.7243   -4.4803 H   0  0  0  0  0  0  0  0  0  0  0  0
    0.4393    0.2816   -2.9916 H   0  0  0  0  0  0  0  0  0  0  0  0
  1  3  1  6  0  0  0
  1 13  1  0  0  0  0
  2  4  1  6  0  0  0
  2 37  1  0  0  0  0
  3  4  1  0  0  0  0
  5  6  1  0  0  0  0
  5  4  2  0  0  0  0
  7  5  1  0  0  0  0
  8  7  1  0  0  0  0
  9  7  2  0  0  0  0
  9 11  1  0  0  0  0
 10  9  1  0  0  0  0
 11  3  2  0  0  0  0
 12 11  1  0  0  0  0
 13 23  1  0  0  0  0
 13 14  1  1  0  0  0
 15 13  1  0  0  0  0
 15 16  1  0  0  0  0
 17 15  1  0  0  0  0
 18 20  1  0  0  0  0
 18 15  1  0  0  0  0
 19 18  1  0  0  0  0
 21 22  1  6  0  0  0
 21 18  1  0  0  0  0
 21  1  1  0  0  0  0
 23 25  1  0  0  0  0
 23 26  1  0  0  0  0
 24 23  1  0  0  0  0
 26 28  1  0  0  0  0
 26 29  1  0  0  0  0
 27 26  1  0  0  0  0
 30 21  1  0  0  0  0
 30 31  1  0  0  0  0
 32 30  1  0  0  0  0
 33 36  1  0  0  0  0
 33 30  1  0  0  0  0
 34 33  1  0  0  0  0
 35 33  1  0  0  0  0
 37 38  1  6  0  0  0
 37 47  1  0  0  0  0
 39 37  1  0  0  0  0
 39 40  1  0  0  0  0
 39 41  1  0  0  0  0
 42 39  1  0  0  0  0
 43 42  1  0  0  0  0
 44 42  1  0  0  0  0
 45 46  1  1  0  0  0
 45 42  1  0  0  0  0
 45  2  1  0  0  0  0
 47 49  1  0  0  0  0
 47 50  1  0  0  0  0
 48 47  1  0  0  0  0
 50 51  1  0  0  0  0
 50 52  1  0  0  0  0
 53 50  1  0  0  0  0
 54 45  1  0  0  0  0
 55 54  1  0  0  0  0
 56 54  1  0  0  0  0
 57 58  1  0  0  0  0
 57 60  1  0  0  0  0
 57 54  1  0  0  0  0
 59 57  1  0  0  0  0
M  END
