1,2
 OpenBabel05122313063D

 67 70  0  0  0  0  0  0  0  0999 V2000
   -0.6885   -0.3705    0.5515 P   0  0  0  0  0  0  0  0  0  0  0  0
    2.4094   -1.3591    0.8128 P   0  0  0  0  0  0  0  0  0  0  0  0
   -0.5453   -0.4809    2.3997 C   0  0  0  0  0  0  0  0  0  0  0  0
   -1.3031    0.1994    2.8416 H   0  0  0  0  0  0  0  0  0  0  0  0
   -0.8806   -1.5129    2.6392 H   0  0  0  0  0  0  0  0  0  0  0  0
    0.8416   -0.1995    2.9898 C   0  0  0  0  0  0  0  0  0  0  0  0
    0.7452   -0.2193    4.0963 H   0  0  0  0  0  0  0  0  0  0  0  0
    1.1481    0.8353    2.7370 H   0  0  0  0  0  0  0  0  0  0  0  0
    1.9532   -1.1832    2.6058 C   0  0  0  0  0  0  0  0  0  0  0  0
    1.6818   -2.2173    2.9077 H   0  0  0  0  0  0  0  0  0  0  0  0
    2.8894   -0.9415    3.1514 H   0  0  0  0  0  0  0  0  0  0  0  0
    3.7326   -2.6166    0.9346 C   0  0  0  0  0  0  0  0  0  0  0  0
    3.3945   -3.9823    0.8603 C   0  0  0  0  0  0  0  0  0  0  0  0
    2.3621   -4.2770    0.6204 H   0  0  0  0  0  0  0  0  0  0  0  0
    4.3860   -4.9537    1.0517 C   0  0  0  0  0  0  0  0  0  0  0  0
    4.1229   -6.0201    0.9858 H   0  0  0  0  0  0  0  0  0  0  0  0
    5.7139   -4.5685    1.3012 C   0  0  0  0  0  0  0  0  0  0  0  0
    6.4919   -5.3348    1.4384 H   0  0  0  0  0  0  0  0  0  0  0  0
    6.0518   -3.2079    1.3625 C   0  0  0  0  0  0  0  0  0  0  0  0
    7.0933   -2.9037    1.5469 H   0  0  0  0  0  0  0  0  0  0  0  0
    5.0630   -2.2282    1.1818 C   0  0  0  0  0  0  0  0  0  0  0  0
    5.3289   -1.1605    1.2199 H   0  0  0  0  0  0  0  0  0  0  0  0
    3.2110    0.2115    0.3026 C   0  0  0  0  0  0  0  0  0  0  0  0
    3.4034    1.3022    1.1747 C   0  0  0  0  0  0  0  0  0  0  0  0
    3.1596    1.2232    2.2434 H   0  0  0  0  0  0  0  0  0  0  0  0
    3.9069    2.5177    0.6827 C   0  0  0  0  0  0  0  0  0  0  0  0
    4.0212    3.3712    1.3673 H   0  0  0  0  0  0  0  0  0  0  0  0
    4.2427    2.6430   -0.6734 C   0  0  0  0  0  0  0  0  0  0  0  0
    4.6216    3.6000   -1.0619 H   0  0  0  0  0  0  0  0  0  0  0  0
    4.0800    1.5485   -1.5395 C   0  0  0  0  0  0  0  0  0  0  0  0
    4.3339    1.6447   -2.6053 H   0  0  0  0  0  0  0  0  0  0  0  0
    3.5571    0.3401   -1.0625 C   0  0  0  0  0  0  0  0  0  0  0  0
    3.3900   -0.5116   -1.7438 H   0  0  0  0  0  0  0  0  0  0  0  0
   -0.2847    1.3787    0.1484 C   0  0  0  0  0  0  0  0  0  0  0  0
    0.1552    1.6572   -1.1636 C   0  0  0  0  0  0  0  0  0  0  0  0
    0.1122    0.8642   -1.9293 H   0  0  0  0  0  0  0  0  0  0  0  0
    0.6670    2.9240   -1.4714 C   0  0  0  0  0  0  0  0  0  0  0  0
    0.7627    3.9168   -0.4820 C   0  0  0  0  0  0  0  0  0  0  0  0
    1.2096    4.8924   -0.7162 H   0  0  0  0  0  0  0  0  0  0  0  0
    0.3026    3.6457    0.8116 C   0  0  0  0  0  0  0  0  0  0  0  0
   -0.2381    2.3870    1.1254 C   0  0  0  0  0  0  0  0  0  0  0  0
   -0.5947    2.2074    2.1492 H   0  0  0  0  0  0  0  0  0  0  0  0
   -2.4991   -0.5685    0.3328 C   0  0  0  0  0  0  0  0  0  0  0  0
   -3.0217   -1.8624    0.1476 C   0  0  0  0  0  0  0  0  0  0  0  0
   -2.3451   -2.7220    0.0386 H   0  0  0  0  0  0  0  0  0  0  0  0
   -4.4079   -2.0422    0.0546 C   0  0  0  0  0  0  0  0  0  0  0  0
   -5.2762   -0.9392    0.1197 C   0  0  0  0  0  0  0  0  0  0  0  0
   -6.3604   -1.0815    0.0134 H   0  0  0  0  0  0  0  0  0  0  0  0
   -4.7493    0.3466    0.2957 C   0  0  0  0  0  0  0  0  0  0  0  0
   -3.3603    0.5366    0.4042 C   0  0  0  0  0  0  0  0  0  0  0  0
   -2.9608    1.5553    0.5174 H   0  0  0  0  0  0  0  0  0  0  0  0
   -4.9846   -3.4347   -0.0866 C   0  0  0  0  0  0  0  0  0  0  0  0
   -5.3566   -3.9245    1.1246 F   0  0  0  0  0  0  0  0  0  0  0  0
   -4.0934   -4.2990   -0.6134 F   0  0  0  0  0  0  0  0  0  0  0  0
   -6.0868   -3.4368   -0.8707 F   0  0  0  0  0  0  0  0  0  0  0  0
   -5.6729    1.5380    0.4201 C   0  0  0  0  0  0  0  0  0  0  0  0
   -5.9450    1.8068    1.7224 F   0  0  0  0  0  0  0  0  0  0  0  0
   -6.8535    1.3274   -0.2016 F   0  0  0  0  0  0  0  0  0  0  0  0
   -5.1167    2.6540   -0.1068 F   0  0  0  0  0  0  0  0  0  0  0  0
    1.1369    3.2300   -2.8783 C   0  0  0  0  0  0  0  0  0  0  0  0
    2.2028    4.0729   -2.8646 F   0  0  0  0  0  0  0  0  0  0  0  0
    0.1636    3.8329   -3.5989 F   0  0  0  0  0  0  0  0  0  0  0  0
    1.5047    2.1133   -3.5386 F   0  0  0  0  0  0  0  0  0  0  0  0
    0.5077    4.6470    1.9230 C   0  0  0  0  0  0  0  0  0  0  0  0
    0.6602    5.9044    1.4605 F   0  0  0  0  0  0  0  0  0  0  0  0
    1.6287    4.3396    2.6371 F   0  0  0  0  0  0  0  0  0  0  0  0
   -0.5245    4.6425    2.7982 F   0  0  0  0  0  0  0  0  0  0  0  0
  1  3  1  0  0  0  0
  2 12  1  0  0  0  0
  2  9  1  0  0  0  0
  3  5  1  0  0  0  0
  3  4  1  0  0  0  0
  3  6  1  0  0  0  0
  6  7  1  0  0  0  0
  8  6  1  0  0  0  0
  9 10  1  0  0  0  0
  9  6  1  0  0  0  0
  9 11  1  0  0  0  0
 12 21  1  0  0  0  0
 13 12  2  0  0  0  0
 13 15  1  0  0  0  0
 14 13  1  0  0  0  0
 15 17  2  0  0  0  0
 16 15  1  0  0  0  0
 17 19  1  0  0  0  0
 17 18  1  0  0  0  0
 19 20  1  0  0  0  0
 21 22  1  0  0  0  0
 21 19  2  0  0  0  0
 23  2  1  0  0  0  0
 23 24  1  0  0  0  0
 24 25  1  0  0  0  0
 26 24  2  0  0  0  0
 26 27  1  0  0  0  0
 28 26  1  0  0  0  0
 29 28  1  0  0  0  0
 30 32  1  0  0  0  0
 30 28  2  0  0  0  0
 31 30  1  0  0  0  0
 32 23  2  0  0  0  0
 33 32  1  0  0  0  0
 34  1  1  0  0  0  0
 34 41  1  0  0  0  0
 35 34  2  0  0  0  0
 36 35  1  0  0  0  0
 37 35  1  0  0  0  0
 37 38  2  0  0  0  0
 38 40  1  0  0  0  0
 39 38  1  0  0  0  0
 40 41  2  0  0  0  0
 40 64  1  0  0  0  0
 41 42  1  0  0  0  0
 43 50  1  0  0  0  0
 43  1  1  0  0  0  0
 44 43  2  0  0  0  0
 45 44  1  0  0  0  0
 46 47  2  0  0  0  0
 46 44  1  0  0  0  0
 47 49  1  0  0  0  0
 48 47  1  0  0  0  0
 49 50  2  0  0  0  0
 49 56  1  0  0  0  0
 50 51  1  0  0  0  0
 52 46  1  0  0  0  0
 52 53  1  0  0  0  0
 54 52  1  0  0  0  0
 55 52  1  0  0  0  0
 56 57  1  0  0  0  0
 58 56  1  0  0  0  0
 59 56  1  0  0  0  0
 60 61  1  0  0  0  0
 60 37  1  0  0  0  0
 62 60  1  0  0  0  0
 63 60  1  0  0  0  0
 64 66  1  0  0  0  0
 64 67  1  0  0  0  0
 65 64  1  0  0  0  0
M  END
