1,2
 OpenBabel05122313063D

 67 70  0  0  0  0  0  0  0  0999 V2000
    2.0373   -0.3566    0.5757 P   0  0  0  0  0  0  0  0  0  0  0  0
   -1.3105   -0.2090    0.5300 P   0  0  0  0  0  0  0  0  0  0  0  0
    1.6203   -0.3454    2.3847 C   0  0  0  0  0  0  0  0  0  0  0  0
    1.5592   -1.4191    2.6619 H   0  0  0  0  0  0  0  0  0  0  0  0
    2.5027    0.0578    2.9237 H   0  0  0  0  0  0  0  0  0  0  0  0
    0.3325    0.3847    2.7866 C   0  0  0  0  0  0  0  0  0  0  0  0
    0.3315    1.4256    2.3968 H   0  0  0  0  0  0  0  0  0  0  0  0
    0.3209    0.4758    3.8934 H   0  0  0  0  0  0  0  0  0  0  0  0
   -0.9500   -0.3309    2.3518 C   0  0  0  0  0  0  0  0  0  0  0  0
   -1.8329    0.0906    2.8744 H   0  0  0  0  0  0  0  0  0  0  0  0
   -0.9003   -1.4079    2.6144 H   0  0  0  0  0  0  0  0  0  0  0  0
   -2.8989   -1.1056    0.3847 C   0  0  0  0  0  0  0  0  0  0  0  0
   -3.0577   -2.3562    1.0150 C   0  0  0  0  0  0  0  0  0  0  0  0
   -2.2423   -2.7887    1.6154 H   0  0  0  0  0  0  0  0  0  0  0  0
   -4.2496   -3.0865    0.8700 C   0  0  0  0  0  0  0  0  0  0  0  0
   -5.2769   -2.5386    0.0746 C   0  0  0  0  0  0  0  0  0  0  0  0
   -6.2167   -3.1023   -0.0477 H   0  0  0  0  0  0  0  0  0  0  0  0
   -5.1343   -1.3028   -0.5803 C   0  0  0  0  0  0  0  0  0  0  0  0
   -3.9297   -0.5907   -0.4186 C   0  0  0  0  0  0  0  0  0  0  0  0
   -3.7880    0.3662   -0.9411 H   0  0  0  0  0  0  0  0  0  0  0  0
   -4.4271   -4.4312    1.5300 C   0  0  0  0  0  0  0  0  0  0  0  0
   -3.5699   -4.6836    2.1837 H   0  0  0  0  0  0  0  0  0  0  0  0
   -4.5203   -5.2375    0.7724 H   0  0  0  0  0  0  0  0  0  0  0  0
   -5.3490   -4.4621    2.1469 H   0  0  0  0  0  0  0  0  0  0  0  0
   -6.2193   -0.7554   -1.4726 C   0  0  0  0  0  0  0  0  0  0  0  0
   -6.4304    0.3102   -1.2492 H   0  0  0  0  0  0  0  0  0  0  0  0
   -7.1633   -1.3247   -1.3700 H   0  0  0  0  0  0  0  0  0  0  0  0
   -5.9082   -0.8040   -2.5377 H   0  0  0  0  0  0  0  0  0  0  0  0
   -1.6885    1.5762    0.3444 C   0  0  0  0  0  0  0  0  0  0  0  0
   -0.8436    2.3667   -0.4492 C   0  0  0  0  0  0  0  0  0  0  0  0
   -0.0214    1.8877   -1.0048 H   0  0  0  0  0  0  0  0  0  0  0  0
   -1.0404    3.7612   -0.5412 C   0  0  0  0  0  0  0  0  0  0  0  0
   -2.1102    4.3299    0.1695 C   0  0  0  0  0  0  0  0  0  0  0  0
   -2.2769    5.4179    0.1015 H   0  0  0  0  0  0  0  0  0  0  0  0
   -2.9838    3.5543    0.9644 C   0  0  0  0  0  0  0  0  0  0  0  0
   -2.7575    2.1708    1.0490 C   0  0  0  0  0  0  0  0  0  0  0  0
   -3.4329    1.5490    1.6585 H   0  0  0  0  0  0  0  0  0  0  0  0
   -0.1106    4.5965   -1.3831 C   0  0  0  0  0  0  0  0  0  0  0  0
   -0.3962    5.6660   -1.3747 H   0  0  0  0  0  0  0  0  0  0  0  0
   -0.1074    4.2472   -2.4362 H   0  0  0  0  0  0  0  0  0  0  0  0
    0.9342    4.5109   -1.0189 H   0  0  0  0  0  0  0  0  0  0  0  0
   -4.1345    4.2046    1.6913 C   0  0  0  0  0  0  0  0  0  0  0  0
   -4.8675    4.6341    0.9764 H   0  0  0  0  0  0  0  0  0  0  0  0
   -3.7872    5.0403    2.3334 H   0  0  0  0  0  0  0  0  0  0  0  0
   -4.6744    3.4816    2.3327 H   0  0  0  0  0  0  0  0  0  0  0  0
    2.6920    1.3305    0.2261 C   0  0  0  0  0  0  0  0  0  0  0  0
    3.0281    1.6390   -1.1115 C   0  0  0  0  0  0  0  0  0  0  0  0
    2.8932    0.8665   -1.8889 H   0  0  0  0  0  0  0  0  0  0  0  0
    3.5163    2.9120   -1.4350 C   0  0  0  0  0  0  0  0  0  0  0  0
    3.7785    3.1403   -2.4792 H   0  0  0  0  0  0  0  0  0  0  0  0
    3.6614    3.8934   -0.4395 C   0  0  0  0  0  0  0  0  0  0  0  0
    4.0375    4.8947   -0.6994 H   0  0  0  0  0  0  0  0  0  0  0  0
    3.3219    3.5933    0.8882 C   0  0  0  0  0  0  0  0  0  0  0  0
    3.4309    4.3562    1.6741 H   0  0  0  0  0  0  0  0  0  0  0  0
    2.8432    2.3160    1.2231 C   0  0  0  0  0  0  0  0  0  0  0  0
    2.5910    2.1025    2.2714 H   0  0  0  0  0  0  0  0  0  0  0  0
    3.5026   -1.4604    0.5866 C   0  0  0  0  0  0  0  0  0  0  0  0
    4.7651   -0.9720    0.9738 C   0  0  0  0  0  0  0  0  0  0  0  0
    4.9001    0.0995    1.1892 H   0  0  0  0  0  0  0  0  0  0  0  0
    5.8559   -1.8504    1.0669 C   0  0  0  0  0  0  0  0  0  0  0  0
    6.8439   -1.4645    1.3610 H   0  0  0  0  0  0  0  0  0  0  0  0
    5.6878   -3.2136    0.7783 C   0  0  0  0  0  0  0  0  0  0  0  0
    6.5454   -3.9001    0.8469 H   0  0  0  0  0  0  0  0  0  0  0  0
    4.4284   -3.6993    0.3891 C   0  0  0  0  0  0  0  0  0  0  0  0
    4.2982   -4.7646    0.1457 H   0  0  0  0  0  0  0  0  0  0  0  0
    3.3366   -2.8265    0.2850 C   0  0  0  0  0  0  0  0  0  0  0  0
    2.3577   -3.1911   -0.0604 H   0  0  0  0  0  0  0  0  0  0  0  0
  1 57  1  0  0  0  0
  1  3  1  0  0  0  0
  2  9  1  0  0  0  0
  3  4  1  0  0  0  0
  3  6  1  0  0  0  0
  3  5  1  0  0  0  0
  6  8  1  0  0  0  0
  7  6  1  0  0  0  0
  9 11  1  0  0  0  0
  9  6  1  0  0  0  0
  9 10  1  0  0  0  0
 12  2  1  0  0  0  0
 12 13  1  0  0  0  0
 13 14  1  0  0  0  0
 15 13  2  0  0  0  0
 15 21  1  0  0  0  0
 16 15  1  0  0  0  0
 17 16  1  0  0  0  0
 18 19  1  0  0  0  0
 18 16  2  0  0  0  0
 19 12  2  0  0  0  0
 20 19  1  0  0  0  0
 21 24  1  0  0  0  0
 21 22  1  0  0  0  0
 23 21  1  0  0  0  0
 25 27  1  0  0  0  0
 25 26  1  0  0  0  0
 25 18  1  0  0  0  0
 28 25  1  0  0  0  0
 29  2  1  0  0  0  0
 29 36  1  0  0  0  0
 30 29  2  0  0  0  0
 31 30  1  0  0  0  0
 32 30  1  0  0  0  0
 32 33  2  0  0  0  0
 33 35  1  0  0  0  0
 34 33  1  0  0  0  0
 35 36  2  0  0  0  0
 35 42  1  0  0  0  0
 36 37  1  0  0  0  0
 38 39  1  0  0  0  0
 38 41  1  0  0  0  0
 38 32  1  0  0  0  0
 40 38  1  0  0  0  0
 42 45  1  0  0  0  0
 42 44  1  0  0  0  0
 43 42  1  0  0  0  0
 46  1  1  0  0  0  0
 46 55  1  0  0  0  0
 47 46  2  0  0  0  0
 48 47  1  0  0  0  0
 49 47  1  0  0  0  0
 49 51  2  0  0  0  0
 50 49  1  0  0  0  0
 51 53  1  0  0  0  0
 52 51  1  0  0  0  0
 53 55  2  0  0  0  0
 53 54  1  0  0  0  0
 55 56  1  0  0  0  0
 57 58  1  0  0  0  0
 58 60  2  0  0  0  0
 58 59  1  0  0  0  0
 60 61  1  0  0  0  0
 62 63  1  0  0  0  0
 62 60  1  0  0  0  0
 64 62  2  0  0  0  0
 65 64  1  0  0  0  0
 66 64  1  0  0  0  0
 66 57  2  0  0  0  0
 67 66  1  0  0  0  0
M  END
