1,10
 OpenBabel05122313063D

 66 69  0  0  0  0  0  0  0  0999 V2000
   -1.8107    0.1813    0.2775 P   0  0  0  0  0  0  0  0  0  0  0  0
   -2.8580    0.6491    1.7603 C   0  0  0  0  0  0  0  0  0  0  0  0
   -2.1086    0.5644    3.0815 C   0  0  0  0  0  0  0  0  0  0  0  0
   -0.9140    1.3294    3.0191 O   0  0  0  0  0  0  0  0  0  0  0  0
    0.0132    0.9845    4.0298 C   0  0  0  0  0  0  0  0  0  0  0  0
    1.3084    1.7557    3.8195 C   0  0  0  0  0  0  0  0  0  0  0  0
    2.0021    1.4190    2.6312 O   0  0  0  0  0  0  0  0  0  0  0  0
    2.7022    0.1824    2.6851 C   0  0  0  0  0  0  0  0  0  0  0  0
    3.1713   -0.1918    1.2890 C   0  0  0  0  0  0  0  0  0  0  0  0
    1.7863   -0.2616    0.0432 P   0  0  0  0  0  0  0  0  0  0  0  0
    2.4790   -1.3188   -1.3041 C   0  0  0  0  0  0  0  0  0  0  0  0
    3.6131   -0.8805   -2.0208 C   0  0  0  0  0  0  0  0  0  0  0  0
    4.1546   -1.6771   -3.0393 C   0  0  0  0  0  0  0  0  0  0  0  0
    3.5623   -2.9103   -3.3592 C   0  0  0  0  0  0  0  0  0  0  0  0
    2.4318   -3.3467   -2.6523 C   0  0  0  0  0  0  0  0  0  0  0  0
    1.8921   -2.5583   -1.6238 C   0  0  0  0  0  0  0  0  0  0  0  0
    1.8256    1.3793   -0.7912 C   0  0  0  0  0  0  0  0  0  0  0  0
    2.4366    2.5097   -0.2130 C   0  0  0  0  0  0  0  0  0  0  0  0
    2.5440    3.7022   -0.9452 C   0  0  0  0  0  0  0  0  0  0  0  0
    2.0268    3.7845   -2.2457 C   0  0  0  0  0  0  0  0  0  0  0  0
    1.3822    2.6719   -2.8108 C   0  0  0  0  0  0  0  0  0  0  0  0
    1.2808    1.4767   -2.0893 C   0  0  0  0  0  0  0  0  0  0  0  0
   -2.9377   -0.6618   -0.9005 C   0  0  0  0  0  0  0  0  0  0  0  0
   -2.3965   -1.6189   -1.7809 C   0  0  0  0  0  0  0  0  0  0  0  0
   -3.2123   -2.2357   -2.7398 C   0  0  0  0  0  0  0  0  0  0  0  0
   -4.5751   -1.9078   -2.8211 C   0  0  0  0  0  0  0  0  0  0  0  0
   -5.1189   -0.9546   -1.9453 C   0  0  0  0  0  0  0  0  0  0  0  0
   -4.3033   -0.3276   -0.9914 C   0  0  0  0  0  0  0  0  0  0  0  0
   -1.5732    1.8225   -0.5313 C   0  0  0  0  0  0  0  0  0  0  0  0
   -0.9476    2.8542    0.2011 C   0  0  0  0  0  0  0  0  0  0  0  0
   -0.8389    4.1369   -0.3511 C   0  0  0  0  0  0  0  0  0  0  0  0
   -1.3472    4.4048   -1.6327 C   0  0  0  0  0  0  0  0  0  0  0  0
   -1.9533    3.3775   -2.3697 C   0  0  0  0  0  0  0  0  0  0  0  0
   -2.0610    2.0879   -1.8273 C   0  0  0  0  0  0  0  0  0  0  0  0
   -3.6926   -0.0777    1.7883 H   0  0  0  0  0  0  0  0  0  0  0  0
   -3.2603    1.6652    1.5764 H   0  0  0  0  0  0  0  0  0  0  0  0
   -1.8741   -0.5059    3.2801 H   0  0  0  0  0  0  0  0  0  0  0  0
   -2.7676    0.9342    3.9060 H   0  0  0  0  0  0  0  0  0  0  0  0
   -0.3860    1.2392    5.0440 H   0  0  0  0  0  0  0  0  0  0  0  0
    0.1983   -0.1167    4.0197 H   0  0  0  0  0  0  0  0  0  0  0  0
    1.9592    1.6100    4.7156 H   0  0  0  0  0  0  0  0  0  0  0  0
    1.0743    2.8380    3.7424 H   0  0  0  0  0  0  0  0  0  0  0  0
    3.5805    0.2652    3.3724 H   0  0  0  0  0  0  0  0  0  0  0  0
    2.0539   -0.6426    3.0563 H   0  0  0  0  0  0  0  0  0  0  0  0
    3.9551    0.4902    0.9021 H   0  0  0  0  0  0  0  0  0  0  0  0
    3.5681   -1.2243    1.3158 H   0  0  0  0  0  0  0  0  0  0  0  0
   -1.3320   -1.8882   -1.6957 H   0  0  0  0  0  0  0  0  0  0  0  0
   -2.7823   -2.9871   -3.4191 H   0  0  0  0  0  0  0  0  0  0  0  0
   -5.2175   -2.3997   -3.5672 H   0  0  0  0  0  0  0  0  0  0  0  0
   -6.1869   -0.6954   -2.0046 H   0  0  0  0  0  0  0  0  0  0  0  0
   -4.7373    0.4296   -0.3211 H   0  0  0  0  0  0  0  0  0  0  0  0
   -0.5680    2.6416    1.2121 H   0  0  0  0  0  0  0  0  0  0  0  0
   -0.3474    4.9351    0.2252 H   0  0  0  0  0  0  0  0  0  0  0  0
   -1.2629    5.4158   -2.0596 H   0  0  0  0  0  0  0  0  0  0  0  0
   -2.3478    3.5772   -3.3778 H   0  0  0  0  0  0  0  0  0  0  0  0
   -2.5397    1.2896   -2.4117 H   0  0  0  0  0  0  0  0  0  0  0  0
    4.0680    0.0956   -1.7916 H   0  0  0  0  0  0  0  0  0  0  0  0
    5.0418   -1.3298   -3.5904 H   0  0  0  0  0  0  0  0  0  0  0  0
    3.9854   -3.5322   -4.1629 H   0  0  0  0  0  0  0  0  0  0  0  0
    1.9658   -4.3138   -2.8947 H   0  0  0  0  0  0  0  0  0  0  0  0
    1.0272   -2.9133   -1.0435 H   0  0  0  0  0  0  0  0  0  0  0  0
    2.8033    2.4636    0.8213 H   0  0  0  0  0  0  0  0  0  0  0  0
    3.0328    4.5763   -0.4883 H   0  0  0  0  0  0  0  0  0  0  0  0
    2.1127    4.7207   -2.8179 H   0  0  0  0  0  0  0  0  0  0  0  0
    0.9520    2.7358   -3.8212 H   0  0  0  0  0  0  0  0  0  0  0  0
    0.7877    0.6031   -2.5432 H   0  0  0  0  0  0  0  0  0  0  0  0
  1  2  1  0  0  0  0
  2 35  1  0  0  0  0
  2  3  1  0  0  0  0
  3 37  1  0  0  0  0
  3 38  1  0  0  0  0
  4  3  1  0  0  0  0
  4  5  1  0  0  0  0
  5 39  1  0  0  0  0
  6  5  1  0  0  0  0
  6 41  1  0  0  0  0
  7  8  1  0  0  0  0
  7  6  1  0  0  0  0
  8 44  1  0  0  0  0
  8 43  1  0  0  0  0
  9 46  1  0  0  0  0
  9  8  1  0  0  0  0
 10  9  1  0  0  0  0
 11 10  1  0  0  0  0
 12 57  1  0  0  0  0
 12 11  2  0  0  0  0
 13 12  1  0  0  0  0
 14 13  2  0  0  0  0
 14 15  1  0  0  0  0
 15 16  2  0  0  0  0
 16 11  1  0  0  0  0
 16 61  1  0  0  0  0
 17 18  1  0  0  0  0
 17 10  1  0  0  0  0
 18 62  1  0  0  0  0
 19 63  1  0  0  0  0
 19 18  2  0  0  0  0
 20 19  1  0  0  0  0
 21 20  2  0  0  0  0
 21 22  1  0  0  0  0
 22 17  2  0  0  0  0
 23  1  1  0  0  0  0
 24 47  1  0  0  0  0
 24 23  2  0  0  0  0
 25 24  1  0  0  0  0
 26 25  2  0  0  0  0
 26 27  1  0  0  0  0
 27 28  2  0  0  0  0
 28 23  1  0  0  0  0
 28 51  1  0  0  0  0
 29 30  1  0  0  0  0
 29  1  1  0  0  0  0
 30 52  1  0  0  0  0
 31 30  2  0  0  0  0
 31 53  1  0  0  0  0
 32 31  1  0  0  0  0
 33 34  1  0  0  0  0
 33 32  2  0  0  0  0
 34 29  2  0  0  0  0
 36  2  1  0  0  0  0
 40  5  1  0  0  0  0
 42  6  1  0  0  0  0
 45  9  1  0  0  0  0
 48 25  1  0  0  0  0
 49 26  1  0  0  0  0
 50 27  1  0  0  0  0
 54 32  1  0  0  0  0
 55 33  1  0  0  0  0
 56 34  1  0  0  0  0
 58 13  1  0  0  0  0
 59 14  1  0  0  0  0
 60 15  1  0  0  0  0
 64 20  1  0  0  0  0
 65 21  1  0  0  0  0
 66 22  1  0  0  0  0
M  END
