4,5
 OpenBabel05122313063D

 69 74  0  0  0  0  0  0  0  0999 V2000
   -1.6373    2.3207    1.2706 N   0  0  0  0  0  0  0  0  0  0  0  0
    0.4656    2.8985    1.2880 N   0  0  0  0  0  0  0  0  0  0  0  0
    1.4626    2.8936    1.0583 H   0  0  0  0  0  0  0  0  0  0  0  0
   -0.7045   -0.7730   -0.3804 P   0  0  0  0  0  0  0  0  0  0  0  0
    1.7714    0.2634   -0.0434 P   0  0  0  0  0  0  0  0  0  0  0  0
    0.0682    0.6671    0.3331 C   0  0  0  0  0  0  0  0  0  0  0  0
   -0.3748    1.8736    0.9381 C   0  0  0  0  0  0  0  0  0  0  0  0
   -0.2425    3.9708    1.8165 C   0  0  0  0  0  0  0  0  0  0  0  0
    0.2513    4.8834    2.1602 H   0  0  0  0  0  0  0  0  0  0  0  0
   -1.5659    3.6241    1.8188 C   0  0  0  0  0  0  0  0  0  0  0  0
   -2.7683    4.3524    2.3051 C   0  0  0  0  0  0  0  0  0  0  0  0
   -3.4849    4.5653    1.4860 H   0  0  0  0  0  0  0  0  0  0  0  0
   -2.4652    5.3138    2.7581 H   0  0  0  0  0  0  0  0  0  0  0  0
   -3.3163    3.7629    3.0686 H   0  0  0  0  0  0  0  0  0  0  0  0
   -2.1116   -0.3368   -1.4737 C   0  0  0  0  0  0  0  0  0  0  0  0
   -3.3058   -1.0809   -1.5312 C   0  0  0  0  0  0  0  0  0  0  0  0
   -3.4809   -1.9108   -0.8346 H   0  0  0  0  0  0  0  0  0  0  0  0
   -4.2982   -0.7461   -2.4661 C   0  0  0  0  0  0  0  0  0  0  0  0
   -5.2264   -1.3357   -2.5024 H   0  0  0  0  0  0  0  0  0  0  0  0
   -4.1151    0.3331   -3.3422 C   0  0  0  0  0  0  0  0  0  0  0  0
   -4.8923    0.5855   -4.0790 H   0  0  0  0  0  0  0  0  0  0  0  0
   -2.9365    1.0947   -3.2716 C   0  0  0  0  0  0  0  0  0  0  0  0
   -2.7879    1.9499   -3.9476 H   0  0  0  0  0  0  0  0  0  0  0  0
   -1.9413    0.7616   -2.3448 C   0  0  0  0  0  0  0  0  0  0  0  0
   -1.0250    1.3661   -2.2880 H   0  0  0  0  0  0  0  0  0  0  0  0
    2.6047    1.7502   -0.7493 C   0  0  0  0  0  0  0  0  0  0  0  0
    1.8934    2.5505   -1.6715 C   0  0  0  0  0  0  0  0  0  0  0  0
    0.8532    2.2986   -1.9242 H   0  0  0  0  0  0  0  0  0  0  0  0
    2.5000    3.6722   -2.2511 C   0  0  0  0  0  0  0  0  0  0  0  0
    1.9361    4.2878   -2.9676 H   0  0  0  0  0  0  0  0  0  0  0  0
    3.8236    4.0075   -1.9200 C   0  0  0  0  0  0  0  0  0  0  0  0
    4.3008    4.8859   -2.3793 H   0  0  0  0  0  0  0  0  0  0  0  0
    4.5335    3.2224   -0.9990 C   0  0  0  0  0  0  0  0  0  0  0  0
    5.5682    3.4839   -0.7315 H   0  0  0  0  0  0  0  0  0  0  0  0
    3.9302    2.0991   -0.4114 C   0  0  0  0  0  0  0  0  0  0  0  0
    4.4938    1.4969    0.3158 H   0  0  0  0  0  0  0  0  0  0  0  0
   -1.2951   -1.9499    0.8963 C   0  0  0  0  0  0  0  0  0  0  0  0
   -1.0101   -1.6985    2.2519 C   0  0  0  0  0  0  0  0  0  0  0  0
   -0.5145   -0.7576    2.5324 H   0  0  0  0  0  0  0  0  0  0  0  0
   -1.3222   -2.6532    3.2307 C   0  0  0  0  0  0  0  0  0  0  0  0
   -1.0920   -2.4472    4.2868 H   0  0  0  0  0  0  0  0  0  0  0  0
   -1.9109   -3.8728    2.8625 C   0  0  0  0  0  0  0  0  0  0  0  0
   -2.1537   -4.6229    3.6298 H   0  0  0  0  0  0  0  0  0  0  0  0
   -2.1598   -4.1465    1.5078 C   0  0  0  0  0  0  0  0  0  0  0  0
   -2.5903   -5.1142    1.2097 H   0  0  0  0  0  0  0  0  0  0  0  0
   -1.8402   -3.1989    0.5247 C   0  0  0  0  0  0  0  0  0  0  0  0
   -1.9923   -3.4531   -0.5349 H   0  0  0  0  0  0  0  0  0  0  0  0
    2.7270   -0.0967    1.4833 C   0  0  0  0  0  0  0  0  0  0  0  0
    3.9480   -0.7980    1.3835 C   0  0  0  0  0  0  0  0  0  0  0  0
    4.3283   -1.1180    0.4009 H   0  0  0  0  0  0  0  0  0  0  0  0
    4.6813   -1.1026    2.5393 C   0  0  0  0  0  0  0  0  0  0  0  0
    5.6308   -1.6516    2.4534 H   0  0  0  0  0  0  0  0  0  0  0  0
    4.1981   -0.7212    3.8014 C   0  0  0  0  0  0  0  0  0  0  0  0
    4.7708   -0.9685    4.7076 H   0  0  0  0  0  0  0  0  0  0  0  0
    2.9788   -0.0339    3.9063 C   0  0  0  0  0  0  0  0  0  0  0  0
    2.5937    0.2589    4.8946 H   0  0  0  0  0  0  0  0  0  0  0  0
    2.2433    0.2775    2.7526 C   0  0  0  0  0  0  0  0  0  0  0  0
    1.2838    0.8079    2.8431 H   0  0  0  0  0  0  0  0  0  0  0  0
   -2.8843    1.6270    1.1053 C   0  0  0  0  0  0  0  0  0  0  0  0
   -3.7597    2.0322    0.0823 C   0  0  0  0  0  0  0  0  0  0  0  0
   -3.4496    2.8183   -0.6202 H   0  0  0  0  0  0  0  0  0  0  0  0
   -5.0134    1.4197   -0.0326 C   0  0  0  0  0  0  0  0  0  0  0  0
   -5.6993    1.7325   -0.8327 H   0  0  0  0  0  0  0  0  0  0  0  0
   -5.3849    0.4001    0.8601 C   0  0  0  0  0  0  0  0  0  0  0  0
   -6.3684   -0.0830    0.7624 H   0  0  0  0  0  0  0  0  0  0  0  0
   -4.5070    0.0013    1.8784 C   0  0  0  0  0  0  0  0  0  0  0  0
   -4.7952   -0.7922    2.5834 H   0  0  0  0  0  0  0  0  0  0  0  0
   -3.2585    0.6268    2.0152 C   0  0  0  0  0  0  0  0  0  0  0  0
   -2.5822    0.3510    2.8337 H   0  0  0  0  0  0  0  0  0  0  0  0
  1 10  1  0  0  0  0
  2  8  1  0  0  0  0
  3  2  1  0  0  0  0
  4  6  1  0  0  0  0
  4 37  1  0  0  0  0
  5  6  1  0  0  0  0
  5 48  1  0  0  0  0
  6  7  2  0  0  0  0
  7  1  1  0  0  0  0
  7  2  1  0  0  0  0
  8 10  2  0  0  0  0
  8  9  1  0  0  0  0
 10 11  1  0  0  0  0
 11 13  1  0  0  0  0
 11 14  1  0  0  0  0
 12 11  1  0  0  0  0
 15  4  1  0  0  0  0
 16 15  1  0  0  0  0
 16 17  1  0  0  0  0
 18 16  2  0  0  0  0
 19 18  1  0  0  0  0
 20 22  2  0  0  0  0
 20 18  1  0  0  0  0
 21 20  1  0  0  0  0
 22 24  1  0  0  0  0
 23 22  1  0  0  0  0
 24 25  1  0  0  0  0
 24 15  2  0  0  0  0
 26 35  1  0  0  0  0
 26  5  1  0  0  0  0
 27 26  2  0  0  0  0
 28 27  1  0  0  0  0
 29 31  2  0  0  0  0
 29 27  1  0  0  0  0
 30 29  1  0  0  0  0
 31 33  1  0  0  0  0
 32 31  1  0  0  0  0
 33 34  1  0  0  0  0
 33 35  2  0  0  0  0
 35 36  1  0  0  0  0
 37 38  1  0  0  0  0
 38 39  1  0  0  0  0
 38 40  2  0  0  0  0
 40 41  1  0  0  0  0
 42 40  1  0  0  0  0
 42 43  1  0  0  0  0
 44 42  2  0  0  0  0
 45 44  1  0  0  0  0
 46 37  2  0  0  0  0
 46 44  1  0  0  0  0
 47 46  1  0  0  0  0
 48 57  1  0  0  0  0
 49 48  2  0  0  0  0
 49 51  1  0  0  0  0
 50 49  1  0  0  0  0
 51 53  2  0  0  0  0
 52 51  1  0  0  0  0
 53 55  1  0  0  0  0
 53 54  1  0  0  0  0
 55 56  1  0  0  0  0
 57 58  1  0  0  0  0
 57 55  2  0  0  0  0
 59  1  1  0  0  0  0
 59 68  1  0  0  0  0
 60 59  2  0  0  0  0
 61 60  1  0  0  0  0
 62 60  1  0  0  0  0
 62 64  2  0  0  0  0
 63 62  1  0  0  0  0
 64 66  1  0  0  0  0
 65 64  1  0  0  0  0
 66 68  2  0  0  0  0
 66 67  1  0  0  0  0
 68 69  1  0  0  0  0
M  END
