2,3
 OpenBabel05122313063D

 29 28  0  0  0  0  0  0  0  0999 V2000
   -3.8693   -0.2941   -0.3552 P   0  0  0  0  0  0  0  0  0  0  0  0
   -1.5575    1.3822    0.8959 P   0  0  0  0  0  0  0  0  0  0  0  0
   -1.0266   -1.0070   -1.3953 P   0  0  0  0  0  0  0  0  0  0  0  0
   -5.2220   -1.3250    0.4114 C   0  0  0  0  0  0  0  0  0  0  0  0
   -3.1329    0.4174    1.2129 C   0  0  0  0  0  0  0  0  0  0  0  0
   -2.6537   -1.6674   -0.7423 C   0  0  0  0  0  0  0  0  0  0  0  0
   -2.2565    2.8479   -0.0139 C   0  0  0  0  0  0  0  0  0  0  0  0
   -1.3372    2.1557    2.5763 C   0  0  0  0  0  0  0  0  0  0  0  0
   -0.2602   -2.5969   -1.9969 C   0  0  0  0  0  0  0  0  0  0  0  0
   -1.6021   -0.3372   -3.0343 C   0  0  0  0  0  0  0  0  0  0  0  0
   -5.9951   -0.6552    0.8392 H   0  0  0  0  0  0  0  0  0  0  0  0
   -5.7026   -1.9425   -0.3741 H   0  0  0  0  0  0  0  0  0  0  0  0
   -4.8408   -1.9932    1.2125 H   0  0  0  0  0  0  0  0  0  0  0  0
   -2.8849   -0.3949    1.9320 H   0  0  0  0  0  0  0  0  0  0  0  0
   -3.9112    1.0663    1.6746 H   0  0  0  0  0  0  0  0  0  0  0  0
   -3.1417   -2.3336   -1.4893 H   0  0  0  0  0  0  0  0  0  0  0  0
   -2.4335   -2.2658    0.1692 H   0  0  0  0  0  0  0  0  0  0  0  0
   -3.0984    3.3328    0.5249 H   0  0  0  0  0  0  0  0  0  0  0  0
   -1.4447    3.5876   -0.1640 H   0  0  0  0  0  0  0  0  0  0  0  0
   -2.6084    2.5148   -1.0098 H   0  0  0  0  0  0  0  0  0  0  0  0
   -1.1218    1.3598    3.3160 H   0  0  0  0  0  0  0  0  0  0  0  0
   -0.4590    2.8313    2.5421 H   0  0  0  0  0  0  0  0  0  0  0  0
   -2.2296    2.7283    2.9071 H   0  0  0  0  0  0  0  0  0  0  0  0
    0.0013   -3.2337   -1.1289 H   0  0  0  0  0  0  0  0  0  0  0  0
   -0.9263   -3.1676   -2.6784 H   0  0  0  0  0  0  0  0  0  0  0  0
    0.6803   -2.3506   -2.5299 H   0  0  0  0  0  0  0  0  0  0  0  0
   -2.1972   -1.0765   -3.6115 H   0  0  0  0  0  0  0  0  0  0  0  0
   -2.2207    0.5638   -2.8570 H   0  0  0  0  0  0  0  0  0  0  0  0
   -0.7176   -0.0384   -3.6306 H   0  0  0  0  0  0  0  0  0  0  0  0
  1  4  1  0  0  0  0
  1  5  1  0  0  0  0
  2  5  1  0  0  0  0
  2  8  1  0  0  0  0
  3  6  1  0  0  0  0
  4 11  1  0  0  0  0
  4 13  1  0  0  0  0
  5 15  1  0  0  0  0
  5 14  1  0  0  0  0
  6  1  1  0  0  0  0
  6 17  1  0  0  0  0
  7 18  1  0  0  0  0
  7  2  1  0  0  0  0
  8 23  1  0  0  0  0
  8 21  1  0  0  0  0
  9  3  1  0  0  0  0
  9 24  1  0  0  0  0
 10 28  1  0  0  0  0
 10  3  1  0  0  0  0
 12  4  1  0  0  0  0
 16  6  1  0  0  0  0
 19  7  1  0  0  0  0
 20  7  1  0  0  0  0
 22  8  1  0  0  0  0
 25  9  1  0  0  0  0
 26  9  1  0  0  0  0
 27 10  1  0  0  0  0
 29 10  1  0  0  0  0
M  END
