1,2
 OpenBabel05122313063D

 58 62  0  0  1  0  0  0  0  0999 V2000
   -1.4057    0.2521    0.1128 P   0  0  0  0  0  0  0  0  0  0  0  0
    1.6163    0.2078   -0.3700 P   0  0  2  0  0  0  0  0  0  0  0  0
   -2.3528    3.2553   -0.4505 O   0  0  0  0  0  0  0  0  0  0  0  0
   -2.6674    4.1722   -0.3575 H   0  0  0  0  0  0  0  0  0  0  0  0
   -0.4059    1.8472   -0.2443 C   0  0  2  0  0  0  0  0  0  0  0  0
   -1.0672    3.1669    0.1383 C   0  0  0  0  0  0  0  0  0  0  0  0
   -1.1140    3.2405    1.2518 H   0  0  0  0  0  0  0  0  0  0  0  0
   -0.3975    3.9857   -0.2179 H   0  0  0  0  0  0  0  0  0  0  0  0
    0.0103    1.7721   -1.7555 C   0  0  0  0  0  0  0  0  0  0  0  0
   -0.5598    1.0019   -2.3089 H   0  0  0  0  0  0  0  0  0  0  0  0
   -0.1932    2.7394   -2.2570 H   0  0  0  0  0  0  0  0  0  0  0  0
    1.5371    1.4652   -1.7793 C   0  0  1  0  0  0  0  0  0  0  0  0
    1.9104    1.1305   -2.7642 H   0  0  0  0  0  0  0  0  0  0  0  0
    2.2506    2.6657   -1.1709 C   0  0  0  0  0  0  0  0  0  0  0  0
    1.9086    2.8051    0.1433 C   0  0  0  0  0  0  0  0  0  0  0  0
    0.9474    1.7050    0.5541 C   0  0  2  0  0  0  0  0  0  0  0  0
    0.8011    1.5691    1.6420 H   0  0  0  0  0  0  0  0  0  0  0  0
    3.1010    3.5613   -2.0135 C   0  0  0  0  0  0  0  0  0  0  0  0
    3.5499    4.3870   -1.4292 H   0  0  0  0  0  0  0  0  0  0  0  0
    2.5090    4.0115   -2.8403 H   0  0  0  0  0  0  0  0  0  0  0  0
    3.9280    2.9984   -2.4981 H   0  0  0  0  0  0  0  0  0  0  0  0
    2.3556    3.8427    1.1226 C   0  0  0  0  0  0  0  0  0  0  0  0
    3.0563    4.5722    0.6737 H   0  0  0  0  0  0  0  0  0  0  0  0
    2.8675    3.3657    1.9864 H   0  0  0  0  0  0  0  0  0  0  0  0
    1.4954    4.4075    1.5431 H   0  0  0  0  0  0  0  0  0  0  0  0
   -2.0640    0.3945    1.8195 C   0  0  0  0  0  0  0  0  0  0  0  0
   -1.8005   -0.6664    2.7125 C   0  0  0  0  0  0  0  0  0  0  0  0
   -1.2578   -1.5525    2.3474 H   0  0  0  0  0  0  0  0  0  0  0  0
   -2.2690   -0.6040    4.0333 C   0  0  0  0  0  0  0  0  0  0  0  0
   -2.0633   -1.4392    4.7197 H   0  0  0  0  0  0  0  0  0  0  0  0
   -3.0018    0.5085    4.4743 C   0  0  0  0  0  0  0  0  0  0  0  0
   -3.3670    0.5538    5.5118 H   0  0  0  0  0  0  0  0  0  0  0  0
   -3.2778    1.5605    3.5862 C   0  0  0  0  0  0  0  0  0  0  0  0
   -3.8624    2.4299    3.9240 H   0  0  0  0  0  0  0  0  0  0  0  0
   -2.8151    1.5079    2.2630 C   0  0  0  0  0  0  0  0  0  0  0  0
   -3.0488    2.3264    1.5667 H   0  0  0  0  0  0  0  0  0  0  0  0
   -2.8248    0.1563   -1.0505 C   0  0  0  0  0  0  0  0  0  0  0  0
   -4.0817    0.7376   -0.7952 C   0  0  0  0  0  0  0  0  0  0  0  0
   -4.2596    1.2879    0.1368 H   0  0  0  0  0  0  0  0  0  0  0  0
   -5.1196    0.6044   -1.7276 C   0  0  0  0  0  0  0  0  0  0  0  0
   -6.1010    1.0552   -1.5151 H   0  0  0  0  0  0  0  0  0  0  0  0
   -4.9137   -0.1042   -2.9222 C   0  0  0  0  0  0  0  0  0  0  0  0
   -5.7327   -0.2073   -3.6504 H   0  0  0  0  0  0  0  0  0  0  0  0
   -3.6682   -0.6985   -3.1743 C   0  0  0  0  0  0  0  0  0  0  0  0
   -3.5051   -1.2792   -4.0945 H   0  0  0  0  0  0  0  0  0  0  0  0
   -2.6312   -0.5814   -2.2383 C   0  0  0  0  0  0  0  0  0  0  0  0
   -1.6718   -1.0970   -2.4035 H   0  0  0  0  0  0  0  0  0  0  0  0
    3.3392   -0.1071    0.1168 C   0  0  0  0  0  0  0  0  0  0  0  0
    3.5440   -0.8966    1.2681 C   0  0  0  0  0  0  0  0  0  0  0  0
    2.6780   -1.3195    1.7992 H   0  0  0  0  0  0  0  0  0  0  0  0
    4.8467   -1.1627    1.7090 C   0  0  0  0  0  0  0  0  0  0  0  0
    5.0018   -1.7787    2.6073 H   0  0  0  0  0  0  0  0  0  0  0  0
    5.9490   -0.6677    0.9931 C   0  0  0  0  0  0  0  0  0  0  0  0
    6.9716   -0.8891    1.3347 H   0  0  0  0  0  0  0  0  0  0  0  0
    5.7475    0.0937   -0.1686 C   0  0  0  0  0  0  0  0  0  0  0  0
    6.6095    0.4679   -0.7415 H   0  0  0  0  0  0  0  0  0  0  0  0
    4.4456    0.3762   -0.6079 C   0  0  0  0  0  0  0  0  0  0  0  0
    4.2961    0.9635   -1.5242 H   0  0  0  0  0  0  0  0  0  0  0  0
  1 26  1  0  0  0  0
  2 48  1  1  0  0  0
  2 16  1  0  0  0  0
  3  4  1  0  0  0  0
  3  6  1  0  0  0  0
  5  1  1  1  0  0  0
  5  6  1  0  0  0  0
  5 16  1  0  0  0  0
  6  7  1  0  0  0  0
  8  6  1  0  0  0  0
  9  5  1  0  0  0  0
 10  9  1  0  0  0  0
 11  9  1  0  0  0  0
 12 13  1  6  0  0  0
 12  9  1  0  0  0  0
 12 14  1  0  0  0  0
 12  2  1  0  0  0  0
 14 15  2  0  0  0  0
 15 16  1  0  0  0  0
 15 22  1  0  0  0  0
 16 17  1  1  0  0  0
 18 19  1  0  0  0  0
 18 14  1  0  0  0  0
 20 18  1  0  0  0  0
 21 18  1  0  0  0  0
 22 25  1  0  0  0  0
 22 24  1  0  0  0  0
 23 22  1  0  0  0  0
 26 35  2  0  0  0  0
 26 27  1  0  0  0  0
 27 29  2  0  0  0  0
 28 27  1  0  0  0  0
 29 31  1  0  0  0  0
 29 30  1  0  0  0  0
 31 32  1  0  0  0  0
 33 34  1  0  0  0  0
 33 31  2  0  0  0  0
 35 33  1  0  0  0  0
 36 35  1  0  0  0  0
 37 38  1  0  0  0  0
 37  1  1  0  0  0  0
 38 39  1  0  0  0  0
 40 41  1  0  0  0  0
 40 38  2  0  0  0  0
 42 40  1  0  0  0  0
 43 42  1  0  0  0  0
 44 42  2  0  0  0  0
 44 46  1  0  0  0  0
 45 44  1  0  0  0  0
 46 37  2  0  0  0  0
 47 46  1  0  0  0  0
 48 49  1  0  0  0  0
 49 51  2  0  0  0  0
 49 50  1  0  0  0  0
 51 52  1  0  0  0  0
 53 54  1  0  0  0  0
 53 51  1  0  0  0  0
 55 53  2  0  0  0  0
 56 55  1  0  0  0  0
 57 55  1  0  0  0  0
 57 48  2  0  0  0  0
 58 57  1  0  0  0  0
M  END
