1,2
 OpenBabel05122313063D

 55 59  0  0  0  0  0  0  0  0999 V2000
   -1.3780    0.1533    0.6948 P   0  0  0  0  0  0  0  0  0  0  0  0
    1.1492    1.7740   -0.5322 P   0  0  0  0  0  0  0  0  0  0  0  0
    1.0201   -0.5022    2.0814 N   0  0  0  0  0  0  0  0  0  0  0  0
   -1.8560   -1.1658    1.8853 C   0  0  0  0  0  0  0  0  0  0  0  0
   -3.2172   -1.4195    2.1341 C   0  0  0  0  0  0  0  0  0  0  0  0
   -3.6064   -2.4421    3.0112 C   0  0  0  0  0  0  0  0  0  0  0  0
   -2.6321   -3.2273    3.6431 C   0  0  0  0  0  0  0  0  0  0  0  0
   -1.2754   -2.9895    3.3890 C   0  0  0  0  0  0  0  0  0  0  0  0
   -0.8625   -1.9643    2.5140 C   0  0  0  0  0  0  0  0  0  0  0  0
    0.5820   -1.7722    2.2298 C   0  0  0  0  0  0  0  0  0  0  0  0
    1.4350   -2.8847    2.0652 C   0  0  0  0  0  0  0  0  0  0  0  0
    2.7758   -2.6628    1.7422 C   0  0  0  0  0  0  0  0  0  0  0  0
    3.2352   -1.3465    1.6172 C   0  0  0  0  0  0  0  0  0  0  0  0
    2.3208   -0.2887    1.7945 C   0  0  0  0  0  0  0  0  0  0  0  0
    2.8276    1.1175    1.7171 C   0  0  0  0  0  0  0  0  0  0  0  0
    3.8529    1.4722    2.6237 C   0  0  0  0  0  0  0  0  0  0  0  0
    4.4232    2.7501    2.6274 C   0  0  0  0  0  0  0  0  0  0  0  0
    3.9877    3.7105    1.7018 C   0  0  0  0  0  0  0  0  0  0  0  0
    2.9853    3.3753    0.7849 C   0  0  0  0  0  0  0  0  0  0  0  0
    2.3936    2.0923    0.7831 C   0  0  0  0  0  0  0  0  0  0  0  0
   -2.9356    0.7883   -0.0321 C   0  0  0  0  0  0  0  0  0  0  0  0
   -3.6737    1.7784    0.6487 C   0  0  0  0  0  0  0  0  0  0  0  0
   -4.8320    2.3153    0.0689 C   0  0  0  0  0  0  0  0  0  0  0  0
   -5.2571    1.8688   -1.1927 C   0  0  0  0  0  0  0  0  0  0  0  0
   -4.5236    0.8822   -1.8728 C   0  0  0  0  0  0  0  0  0  0  0  0
   -3.3634    0.3419   -1.2990 C   0  0  0  0  0  0  0  0  0  0  0  0
   -0.1298    3.0814   -0.3026 C   0  0  0  0  0  0  0  0  0  0  0  0
   -0.3266    3.7655    0.9131 C   0  0  0  0  0  0  0  0  0  0  0  0
   -1.3768    4.6909    1.0346 C   0  0  0  0  0  0  0  0  0  0  0  0
   -2.2319    4.9370   -0.0499 C   0  0  0  0  0  0  0  0  0  0  0  0
   -2.0444    4.2486   -1.2602 C   0  0  0  0  0  0  0  0  0  0  0  0
   -1.0048    3.3187   -1.3850 C   0  0  0  0  0  0  0  0  0  0  0  0
    1.8312    2.2795   -1.6800 H   0  0  0  0  0  0  0  0  0  0  0  0
   -1.0794    1.2400    1.5688 H   0  0  0  0  0  0  0  0  0  0  0  0
   -3.9839   -0.8194    1.6229 H   0  0  0  0  0  0  0  0  0  0  0  0
   -4.6757   -2.6264    3.1940 H   0  0  0  0  0  0  0  0  0  0  0  0
   -2.9277   -4.0294    4.3359 H   0  0  0  0  0  0  0  0  0  0  0  0
   -0.5101   -3.5995    3.8919 H   0  0  0  0  0  0  0  0  0  0  0  0
    1.0294   -3.9032    2.1317 H   0  0  0  0  0  0  0  0  0  0  0  0
    3.4548   -3.5094    1.5632 H   0  0  0  0  0  0  0  0  0  0  0  0
    4.2768   -1.1300    1.3426 H   0  0  0  0  0  0  0  0  0  0  0  0
    4.1931    0.7176    3.3490 H   0  0  0  0  0  0  0  0  0  0  0  0
    5.2123    2.9959    3.3539 H   0  0  0  0  0  0  0  0  0  0  0  0
    4.4333    4.7163    1.6862 H   0  0  0  0  0  0  0  0  0  0  0  0
    2.6540    4.1230    0.0473 H   0  0  0  0  0  0  0  0  0  0  0  0
   -3.3310    2.1430    1.6295 H   0  0  0  0  0  0  0  0  0  0  0  0
   -5.3999    3.0931    0.6018 H   0  0  0  0  0  0  0  0  0  0  0  0
   -6.1641    2.2938   -1.6495 H   0  0  0  0  0  0  0  0  0  0  0  0
   -4.8541    0.5313   -2.8622 H   0  0  0  0  0  0  0  0  0  0  0  0
   -2.7783   -0.4294   -1.8259 H   0  0  0  0  0  0  0  0  0  0  0  0
    0.3465    3.5810    1.7639 H   0  0  0  0  0  0  0  0  0  0  0  0
   -1.5239    5.2236    1.9866 H   0  0  0  0  0  0  0  0  0  0  0  0
   -3.0544    5.6613    0.0495 H   0  0  0  0  0  0  0  0  0  0  0  0
   -2.7229    4.4241   -2.1081 H   0  0  0  0  0  0  0  0  0  0  0  0
   -0.8777    2.7594   -2.3258 H   0  0  0  0  0  0  0  0  0  0  0  0
  1 34  1  0  0  0  0
  1  4  1  0  0  0  0
  2 27  1  0  0  0  0
  2 20  1  0  0  0  0
  3 10  1  0  0  0  0
  4  5  2  0  0  0  0
  4  9  1  0  0  0  0
  5  6  1  0  0  0  0
  6 36  1  0  0  0  0
  6  7  2  0  0  0  0
  7 37  1  0  0  0  0
  8  7  1  0  0  0  0
  8 38  1  0  0  0  0
  9  8  2  0  0  0  0
 10  9  1  0  0  0  0
 11 39  1  0  0  0  0
 11 10  2  0  0  0  0
 12 11  1  0  0  0  0
 13 12  2  0  0  0  0
 13 14  1  0  0  0  0
 14  3  2  0  0  0  0
 15 14  1  0  0  0  0
 15 16  1  0  0  0  0
 16 17  2  0  0  0  0
 16 42  1  0  0  0  0
 17 43  1  0  0  0  0
 18 17  1  0  0  0  0
 19 18  2  0  0  0  0
 20 19  1  0  0  0  0
 20 15  2  0  0  0  0
 21 22  1  0  0  0  0
 21  1  1  0  0  0  0
 22 46  1  0  0  0  0
 23 47  1  0  0  0  0
 23 22  2  0  0  0  0
 24 23  1  0  0  0  0
 25 26  1  0  0  0  0
 25 24  2  0  0  0  0
 26 21  2  0  0  0  0
 27 28  1  0  0  0  0
 28 29  2  0  0  0  0
 28 51  1  0  0  0  0
 29 52  1  0  0  0  0
 30 53  1  0  0  0  0
 30 29  1  0  0  0  0
 31 30  2  0  0  0  0
 32 31  1  0  0  0  0
 32 27  2  0  0  0  0
 33  2  1  0  0  0  0
 35  5  1  0  0  0  0
 40 12  1  0  0  0  0
 41 13  1  0  0  0  0
 44 18  1  0  0  0  0
 45 19  1  0  0  0  0
 48 24  1  0  0  0  0
 49 25  1  0  0  0  0
 50 26  1  0  0  0  0
 54 31  1  0  0  0  0
 55 32  1  0  0  0  0
M  END
