2,33
 OpenBabel05122313063D

 68 69  0  0  0  0  0  0  0  0999 V2000
   -0.0540    1.9468   -0.9868 Si  0  0  0  0  0  0  0  0  0  0  0  0
   -2.2197   -0.6049    0.1995 P   0  0  0  0  0  0  0  0  0  0  0  0
   -2.7013    1.1634    0.2592 C   0  0  0  0  0  0  0  0  0  0  0  0
   -1.7837    2.1704   -0.1437 C   0  0  0  0  0  0  0  0  0  0  0  0
   -2.2035    3.5167   -0.0007 C   0  0  0  0  0  0  0  0  0  0  0  0
   -1.5321    4.3165   -0.3410 H   0  0  0  0  0  0  0  0  0  0  0  0
   -3.4544    3.8567    0.5328 C   0  0  0  0  0  0  0  0  0  0  0  0
   -3.7333    4.9165    0.6384 H   0  0  0  0  0  0  0  0  0  0  0  0
   -4.3484    2.8494    0.9202 C   0  0  0  0  0  0  0  0  0  0  0  0
   -5.3357    3.1029    1.3356 H   0  0  0  0  0  0  0  0  0  0  0  0
   -3.9709    1.5089    0.7752 C   0  0  0  0  0  0  0  0  0  0  0  0
   -4.6706    0.7204    1.0889 H   0  0  0  0  0  0  0  0  0  0  0  0
   -2.6544   -1.2562    1.8995 C   0  0  0  0  0  0  0  0  0  0  0  0
   -3.7233   -0.9906    2.0560 H   0  0  0  0  0  0  0  0  0  0  0  0
   -2.4978   -2.7803    1.9683 C   0  0  0  0  0  0  0  0  0  0  0  0
   -1.5093   -3.1148    1.5882 H   0  0  0  0  0  0  0  0  0  0  0  0
   -3.2630   -3.3021    1.3604 H   0  0  0  0  0  0  0  0  0  0  0  0
   -2.6180   -3.1181    3.0185 H   0  0  0  0  0  0  0  0  0  0  0  0
   -1.8149   -0.5204    2.9501 C   0  0  0  0  0  0  0  0  0  0  0  0
   -2.1032   -0.8554    3.9678 H   0  0  0  0  0  0  0  0  0  0  0  0
   -1.9526    0.5778    2.8969 H   0  0  0  0  0  0  0  0  0  0  0  0
   -0.7368   -0.7320    2.8114 H   0  0  0  0  0  0  0  0  0  0  0  0
   -3.3028   -1.5271   -1.0090 C   0  0  0  0  0  0  0  0  0  0  0  0
   -2.8737   -2.5517   -0.9166 H   0  0  0  0  0  0  0  0  0  0  0  0
   -4.7954   -1.5358   -0.6723 C   0  0  0  0  0  0  0  0  0  0  0  0
   -5.2458   -0.5302   -0.7980 H   0  0  0  0  0  0  0  0  0  0  0  0
   -5.0029   -1.8842    0.3591 H   0  0  0  0  0  0  0  0  0  0  0  0
   -5.3275   -2.2217   -1.3639 H   0  0  0  0  0  0  0  0  0  0  0  0
   -3.0299   -1.0325   -2.4324 C   0  0  0  0  0  0  0  0  0  0  0  0
   -3.6390   -1.6126   -3.1556 H   0  0  0  0  0  0  0  0  0  0  0  0
   -1.9659   -1.1688   -2.7034 H   0  0  0  0  0  0  0  0  0  0  0  0
   -3.2915    0.0396   -2.5523 H   0  0  0  0  0  0  0  0  0  0  0  0
    2.3401   -0.4888    0.0241 P   0  0  0  0  0  0  0  0  0  0  0  0
    2.5273    1.2773    0.4904 C   0  0  0  0  0  0  0  0  0  0  0  0
    1.5295    2.2141    0.1051 C   0  0  0  0  0  0  0  0  0  0  0  0
    1.7017    3.5520    0.5380 C   0  0  0  0  0  0  0  0  0  0  0  0
    0.9693    4.3091    0.2267 H   0  0  0  0  0  0  0  0  0  0  0  0
    2.7834    3.9447    1.3389 C   0  0  0  0  0  0  0  0  0  0  0  0
    2.8635    4.9901    1.6746 H   0  0  0  0  0  0  0  0  0  0  0  0
    3.7622    3.0098    1.7004 C   0  0  0  0  0  0  0  0  0  0  0  0
    4.6208    3.3066    2.3218 H   0  0  0  0  0  0  0  0  0  0  0  0
    3.6371    1.6849    1.2628 C   0  0  0  0  0  0  0  0  0  0  0  0
    4.4071    0.9532    1.5485 H   0  0  0  0  0  0  0  0  0  0  0  0
    2.9872   -1.4910    1.4675 C   0  0  0  0  0  0  0  0  0  0  0  0
    3.9947   -1.0843    1.7042 H   0  0  0  0  0  0  0  0  0  0  0  0
    2.0757   -1.2972    2.6839 C   0  0  0  0  0  0  0  0  0  0  0  0
    2.5209   -1.7894    3.5729 H   0  0  0  0  0  0  0  0  0  0  0  0
    1.0886   -1.7655    2.4965 H   0  0  0  0  0  0  0  0  0  0  0  0
    1.9145   -0.2277    2.9259 H   0  0  0  0  0  0  0  0  0  0  0  0
    3.1113   -2.9715    1.0807 C   0  0  0  0  0  0  0  0  0  0  0  0
    3.3871   -3.5626    1.9785 H   0  0  0  0  0  0  0  0  0  0  0  0
    3.8982   -3.1437    0.3200 H   0  0  0  0  0  0  0  0  0  0  0  0
    2.1503   -3.3663    0.6819 H   0  0  0  0  0  0  0  0  0  0  0  0
    3.5418   -0.8417   -1.3692 C   0  0  0  0  0  0  0  0  0  0  0  0
    3.3999   -1.9336   -1.5244 H   0  0  0  0  0  0  0  0  0  0  0  0
    3.1212   -0.1138   -2.6467 C   0  0  0  0  0  0  0  0  0  0  0  0
    3.1071    0.9865   -2.5026 H   0  0  0  0  0  0  0  0  0  0  0  0
    2.1175   -0.4329   -2.9802 H   0  0  0  0  0  0  0  0  0  0  0  0
    3.8392   -0.3372   -3.4625 H   0  0  0  0  0  0  0  0  0  0  0  0
    5.0005   -0.5566   -0.9999 C   0  0  0  0  0  0  0  0  0  0  0  0
    5.6633   -0.8650   -1.8350 H   0  0  0  0  0  0  0  0  0  0  0  0
    5.3317   -1.1061   -0.0967 H   0  0  0  0  0  0  0  0  0  0  0  0
    5.1669    0.5264   -0.8285 H   0  0  0  0  0  0  0  0  0  0  0  0
    0.0020    3.5196   -1.6344 F   0  0  0  0  0  0  0  0  0  0  0  0
   -0.1014    1.1108   -2.6890 C   0  0  0  0  0  0  0  0  0  0  0  0
   -1.0635    1.4256   -3.1427 H   0  0  0  0  0  0  0  0  0  0  0  0
   -0.0446    0.0074   -2.7209 H   0  0  0  0  0  0  0  0  0  0  0  0
    0.7146    1.5382   -3.3041 H   0  0  0  0  0  0  0  0  0  0  0  0
  1  4  1  0  0  0  0
  1 35  1  0  0  0  0
  2  3  1  0  0  0  0
  2 13  1  0  0  0  0
  3 11  1  0  0  0  0
  4  5  1  0  0  0  0
  4  3  2  0  0  0  0
  5  7  2  0  0  0  0
  6  5  1  0  0  0  0
  7  8  1  0  0  0  0
  7  9  1  0  0  0  0
  9 10  1  0  0  0  0
 11  9  2  0  0  0  0
 11 12  1  0  0  0  0
 13 15  1  0  0  0  0
 13 14  1  0  0  0  0
 13 19  1  0  0  0  0
 15 18  1  0  0  0  0
 16 15  1  0  0  0  0
 17 15  1  0  0  0  0
 19 20  1  0  0  0  0
 21 19  1  0  0  0  0
 22 19  1  0  0  0  0
 23 24  1  0  0  0  0
 23 25  1  0  0  0  0
 23  2  1  0  0  0  0
 25 27  1  0  0  0  0
 26 25  1  0  0  0  0
 28 25  1  0  0  0  0
 29 23  1  0  0  0  0
 30 29  1  0  0  0  0
 31 29  1  0  0  0  0
 32 29  1  0  0  0  0
 33 34  1  0  0  0  0
 33 44  1  0  0  0  0
 34 42  1  0  0  0  0
 35 34  2  0  0  0  0
 35 36  1  0  0  0  0
 36 38  2  0  0  0  0
 37 36  1  0  0  0  0
 38 39  1  0  0  0  0
 38 40  1  0  0  0  0
 40 41  1  0  0  0  0
 42 43  1  0  0  0  0
 42 40  2  0  0  0  0
 44 45  1  0  0  0  0
 44 46  1  0  0  0  0
 46 49  1  0  0  0  0
 46 47  1  0  0  0  0
 48 46  1  0  0  0  0
 50 44  1  0  0  0  0
 50 51  1  0  0  0  0
 52 50  1  0  0  0  0
 53 50  1  0  0  0  0
 54 60  1  0  0  0  0
 54 33  1  0  0  0  0
 55 54  1  0  0  0  0
 56 57  1  0  0  0  0
 56 54  1  0  0  0  0
 58 56  1  0  0  0  0
 59 56  1  0  0  0  0
 60 63  1  0  0  0  0
 60 62  1  0  0  0  0
 61 60  1  0  0  0  0
 64  1  1  0  0  0  0
 65  1  1  0  0  0  0
 66 65  1  0  0  0  0
 67 65  1  0  0  0  0
 68 65  1  0  0  0  0
M  END
