1,2
 OpenBabel05122313063D

 74 79  0  0  1  0  0  0  0  0999 V2000
    1.3553   -0.7718   -0.6307 P   0  0  0  0  0  0  0  0  0  0  0  0
   -1.4892   -0.4919    0.7813 P   0  0  0  0  0  0  0  0  0  0  0  0
    3.3848    1.8498    0.1284 S   0  0  0  0  0  0  0  0  0  0  0  0
    1.1094    3.3297    1.2386 S   0  0  0  0  0  0  0  0  0  0  0  0
   -0.5116    3.2825   -1.4939 S   0  0  0  0  0  0  0  0  0  0  0  0
   -3.0443    2.5814   -0.1857 S   0  0  0  0  0  0  0  0  0  0  0  0
    2.8066   -1.1537    0.4463 C   0  0  0  0  0  0  0  0  0  0  0  0
    2.5819   -1.1476    1.8391 C   0  0  0  0  0  0  0  0  0  0  0  0
    1.5870   -0.8929    2.2339 H   0  0  0  0  0  0  0  0  0  0  0  0
    3.6243   -1.4522    2.7226 C   0  0  0  0  0  0  0  0  0  0  0  0
    3.4354   -1.4380    3.8068 H   0  0  0  0  0  0  0  0  0  0  0  0
    4.8965   -1.7833    2.2268 C   0  0  0  0  0  0  0  0  0  0  0  0
    5.7139   -2.0300    2.9216 H   0  0  0  0  0  0  0  0  0  0  0  0
    5.1188   -1.8061    0.8413 C   0  0  0  0  0  0  0  0  0  0  0  0
    6.1124   -2.0667    0.4453 H   0  0  0  0  0  0  0  0  0  0  0  0
    4.0808   -1.4893   -0.0485 C   0  0  0  0  0  0  0  0  0  0  0  0
    4.2722   -1.4824   -1.1312 H   0  0  0  0  0  0  0  0  0  0  0  0
    2.0629   -0.4635   -2.3065 C   0  0  0  0  0  0  0  0  0  0  0  0
    2.5570   -1.5653   -3.0389 C   0  0  0  0  0  0  0  0  0  0  0  0
    2.5290   -2.5753   -2.6042 H   0  0  0  0  0  0  0  0  0  0  0  0
    3.0576   -1.3835   -4.3357 C   0  0  0  0  0  0  0  0  0  0  0  0
    3.4393   -2.2502   -4.8964 H   0  0  0  0  0  0  0  0  0  0  0  0
    3.0503   -0.1077   -4.9239 C   0  0  0  0  0  0  0  0  0  0  0  0
    3.4326    0.0308   -5.9467 H   0  0  0  0  0  0  0  0  0  0  0  0
    2.5373    0.9844   -4.2087 C   0  0  0  0  0  0  0  0  0  0  0  0
    2.5114    1.9844   -4.6682 H   0  0  0  0  0  0  0  0  0  0  0  0
    2.0479    0.8106   -2.9048 C   0  0  0  0  0  0  0  0  0  0  0  0
    1.6319    1.6675   -2.3562 H   0  0  0  0  0  0  0  0  0  0  0  0
    0.7664    0.8787   -0.0300 C   0  0  0  0  0  0  0  0  0  0  0  0
    1.6420    1.8691    0.3925 C   0  0  0  0  0  0  0  0  0  0  0  0
    3.7723    3.2661    1.1059 C   0  0  0  0  0  0  0  0  0  0  0  0
    5.2338    3.5646    1.2625 C   0  0  0  0  0  0  0  0  0  0  0  0
    5.7304    3.6742    0.2756 H   0  0  0  0  0  0  0  0  0  0  0  0
    5.7537    2.7449    1.8015 H   0  0  0  0  0  0  0  0  0  0  0  0
    5.3924    4.5012    1.8283 H   0  0  0  0  0  0  0  0  0  0  0  0
    2.7162    3.9514    1.6296 C   0  0  0  0  0  0  0  0  0  0  0  0
    2.7493    5.1875    2.4782 C   0  0  0  0  0  0  0  0  0  0  0  0
    2.1390    5.9990    2.0285 H   0  0  0  0  0  0  0  0  0  0  0  0
    3.7824    5.5646    2.5930 H   0  0  0  0  0  0  0  0  0  0  0  0
    2.3416    4.9958    3.4932 H   0  0  0  0  0  0  0  0  0  0  0  0
   -1.0683   -0.4616    2.5761 C   0  0  0  0  0  0  0  0  0  0  0  0
   -0.4667    0.6501    3.1947 C   0  0  0  0  0  0  0  0  0  0  0  0
   -0.2661    1.5618    2.6125 H   0  0  0  0  0  0  0  0  0  0  0  0
   -0.1038    0.5907    4.5501 C   0  0  0  0  0  0  0  0  0  0  0  0
    0.3800    1.4609    5.0200 H   0  0  0  0  0  0  0  0  0  0  0  0
   -0.3534   -0.5701    5.2980 C   0  0  0  0  0  0  0  0  0  0  0  0
   -0.0649   -0.6168    6.3592 H   0  0  0  0  0  0  0  0  0  0  0  0
   -0.9715   -1.6754    4.6877 C   0  0  0  0  0  0  0  0  0  0  0  0
   -1.1692   -2.5892    5.2680 H   0  0  0  0  0  0  0  0  0  0  0  0
   -1.3225   -1.6252    3.3322 C   0  0  0  0  0  0  0  0  0  0  0  0
   -1.7858   -2.4982    2.8469 H   0  0  0  0  0  0  0  0  0  0  0  0
   -3.3124   -0.2381    0.7929 C   0  0  0  0  0  0  0  0  0  0  0  0
   -4.0530   -0.5710   -0.3603 C   0  0  0  0  0  0  0  0  0  0  0  0
   -3.5376   -0.9964   -1.2329 H   0  0  0  0  0  0  0  0  0  0  0  0
   -5.4356   -0.3493   -0.3967 C   0  0  0  0  0  0  0  0  0  0  0  0
   -6.0041   -0.6056   -1.3033 H   0  0  0  0  0  0  0  0  0  0  0  0
   -6.0932    0.1881    0.7222 C   0  0  0  0  0  0  0  0  0  0  0  0
   -7.1807    0.3566    0.6940 H   0  0  0  0  0  0  0  0  0  0  0  0
   -5.3652    0.4915    1.8840 C   0  0  0  0  0  0  0  0  0  0  0  0
   -5.8795    0.8986    2.7679 H   0  0  0  0  0  0  0  0  0  0  0  0
   -3.9799    0.2794    1.9228 C   0  0  0  0  0  0  0  0  0  0  0  0
   -3.4097    0.5281    2.8300 H   0  0  0  0  0  0  0  0  0  0  0  0
   -0.6957    1.0308    0.0925 C   0  0  1  0  0  3  0  0  0  0  0  0
   -1.3528    2.1306   -0.4377 C   0  0  2  0  0  3  0  0  0  0  0  0
   -1.9099    4.2723   -1.9148 C   0  0  0  0  0  0  0  0  0  0  0  0
   -1.6533    5.3789   -2.8939 C   0  0  0  0  0  0  0  0  0  0  0  0
   -0.8485    6.0541   -2.5340 H   0  0  0  0  0  0  0  0  0  0  0  0
   -2.5621    5.9884   -3.0529 H   0  0  0  0  0  0  0  0  0  0  0  0
   -1.3321    4.9818   -3.8799 H   0  0  0  0  0  0  0  0  0  0  0  0
   -3.0833    3.9466   -1.3049 C   0  0  0  0  0  0  0  0  0  0  0  0
   -4.4222    4.6018   -1.4703 C   0  0  0  0  0  0  0  0  0  0  0  0
   -4.8197    4.9589   -0.4969 H   0  0  0  0  0  0  0  0  0  0  0  0
   -5.1671    3.8911   -1.8861 H   0  0  0  0  0  0  0  0  0  0  0  0
   -4.3610    5.4703   -2.1518 H   0  0  0  0  0  0  0  0  0  0  0  0
  1 29  1  0  0  0  0
  1  7  1  0  0  0  0
  2 52  1  0  0  0  0
  2 41  1  0  0  0  0
  3 30  1  0  0  0  0
  3 31  1  0  0  0  0
  4 36  1  0  0  0  0
  5 64  1  0  0  0  0
  7  8  1  0  0  0  0
  8  9  1  0  0  0  0
  8 10  2  0  0  0  0
 10 11  1  0  0  0  0
 12 10  1  0  0  0  0
 12 13  1  0  0  0  0
 14 12  2  0  0  0  0
 15 14  1  0  0  0  0
 16  7  2  0  0  0  0
 16 14  1  0  0  0  0
 17 16  1  0  0  0  0
 18  1  1  0  0  0  0
 19 20  1  0  0  0  0
 19 18  2  0  0  0  0
 21 19  1  0  0  0  0
 22 21  1  0  0  0  0
 23 21  2  0  0  0  0
 23 25  1  0  0  0  0
 24 23  1  0  0  0  0
 25 27  2  0  0  0  0
 26 25  1  0  0  0  0
 27 28  1  0  0  0  0
 27 18  1  0  0  0  0
 29 30  2  0  0  0  0
 30  4  1  0  0  0  0
 31 32  1  0  0  0  0
 31 36  2  0  0  0  0
 32 34  1  0  0  0  0
 32 35  1  0  0  0  0
 33 32  1  0  0  0  0
 36 37  1  0  0  0  0
 37 39  1  0  0  0  0
 37 40  1  0  0  0  0
 38 37  1  0  0  0  0
 41 42  2  0  0  0  0
 41 50  1  0  0  0  0
 42 44  1  0  0  0  0
 43 42  1  0  0  0  0
 44 45  1  0  0  0  0
 44 46  2  0  0  0  0
 46 47  1  0  0  0  0
 48 49  1  0  0  0  0
 48 46  1  0  0  0  0
 50 48  2  0  0  0  0
 51 50  1  0  0  0  0
 52 61  1  0  0  0  0
 53 52  2  0  0  0  0
 54 53  1  0  0  0  0
 55 53  1  0  0  0  0
 55 57  2  0  0  0  0
 56 55  1  0  0  0  0
 57 59  1  0  0  0  0
 58 57  1  0  0  0  0
 59 61  2  0  0  0  0
 59 60  1  0  0  0  0
 61 62  1  0  0  0  0
 63 29  1  6  0  0  0
 63  2  1  0  0  0  0
 64  6  1  0  0  0  0
 64 63  1  1  0  0  0
 65  5  1  0  0  0  0
 65 70  2  0  0  0  0
 66 67  1  0  0  0  0
 66 65  1  0  0  0  0
 68 66  1  0  0  0  0
 69 66  1  0  0  0  0
 70  6  1  0  0  0  0
 71 70  1  0  0  0  0
 71 72  1  0  0  0  0
 73 71  1  0  0  0  0
 74 71  1  0  0  0  0
M  END
