1,2
 OpenBabel05122313063D

 55 58  0  0  0  0  0  0  0  0999 V2000
    1.3444   -0.0477   -0.3575 P   0  0  0  0  0  0  0  0  0  0  0  0
   -1.2408    0.0068   -0.1832 P   0  0  0  0  0  0  0  0  0  0  0  0
   -0.0235   -0.0290   -1.4354 N   0  0  0  0  0  0  0  0  0  0  0  0
    2.3093    1.4600   -0.7155 C   0  0  0  0  0  0  0  0  0  0  0  0
    3.0843    1.5846   -1.8872 C   0  0  0  0  0  0  0  0  0  0  0  0
    3.2113    0.7228   -2.5608 H   0  0  0  0  0  0  0  0  0  0  0  0
    3.7068    2.8066   -2.1829 C   0  0  0  0  0  0  0  0  0  0  0  0
    4.3128    2.9053   -3.0964 H   0  0  0  0  0  0  0  0  0  0  0  0
    3.5628    3.8985   -1.3106 C   0  0  0  0  0  0  0  0  0  0  0  0
    4.0571    4.8542   -1.5431 H   0  0  0  0  0  0  0  0  0  0  0  0
    2.8011    3.7700   -0.1373 C   0  0  0  0  0  0  0  0  0  0  0  0
    2.7024    4.6202    0.5544 H   0  0  0  0  0  0  0  0  0  0  0  0
    2.1735    2.5532    0.1641 C   0  0  0  0  0  0  0  0  0  0  0  0
    1.5966    2.4214    1.0931 H   0  0  0  0  0  0  0  0  0  0  0  0
    2.3693   -1.4554   -0.8807 C   0  0  0  0  0  0  0  0  0  0  0  0
    1.7774   -2.5415   -1.5566 C   0  0  0  0  0  0  0  0  0  0  0  0
    0.7066   -2.5048   -1.8103 H   0  0  0  0  0  0  0  0  0  0  0  0
    2.5508   -3.6639   -1.8850 C   0  0  0  0  0  0  0  0  0  0  0  0
    2.0893   -4.5084   -2.4188 H   0  0  0  0  0  0  0  0  0  0  0  0
    3.9077   -3.7131   -1.5252 C   0  0  0  0  0  0  0  0  0  0  0  0
    4.5121   -4.5968   -1.7802 H   0  0  0  0  0  0  0  0  0  0  0  0
    4.4913   -2.6406   -0.8304 C   0  0  0  0  0  0  0  0  0  0  0  0
    5.5500   -2.6859   -0.5339 H   0  0  0  0  0  0  0  0  0  0  0  0
    3.7272   -1.5119   -0.5034 C   0  0  0  0  0  0  0  0  0  0  0  0
    4.1732   -0.6791    0.0607 H   0  0  0  0  0  0  0  0  0  0  0  0
   -2.2005    1.5358   -0.3887 C   0  0  0  0  0  0  0  0  0  0  0  0
   -1.5985    2.6586   -0.9938 C   0  0  0  0  0  0  0  0  0  0  0  0
   -0.5742    2.5870   -1.3889 H   0  0  0  0  0  0  0  0  0  0  0  0
   -2.2967    3.8717   -1.0683 C   0  0  0  0  0  0  0  0  0  0  0  0
   -1.8249    4.7439   -1.5457 H   0  0  0  0  0  0  0  0  0  0  0  0
   -3.5877    3.9757   -0.5250 C   0  0  0  0  0  0  0  0  0  0  0  0
   -4.1334    4.9297   -0.5819 H   0  0  0  0  0  0  0  0  0  0  0  0
   -4.1756    2.8670    0.1056 C   0  0  0  0  0  0  0  0  0  0  0  0
   -5.1778    2.9529    0.5518 H   0  0  0  0  0  0  0  0  0  0  0  0
   -3.4857    1.6490    0.1820 C   0  0  0  0  0  0  0  0  0  0  0  0
   -3.9312    0.7884    0.7021 H   0  0  0  0  0  0  0  0  0  0  0  0
   -2.3782   -1.3980   -0.4378 C   0  0  0  0  0  0  0  0  0  0  0  0
   -3.4951   -1.3433   -1.2955 C   0  0  0  0  0  0  0  0  0  0  0  0
   -3.7443   -0.4078   -1.8165 H   0  0  0  0  0  0  0  0  0  0  0  0
   -4.2793   -2.4899   -1.4892 C   0  0  0  0  0  0  0  0  0  0  0  0
   -5.1524   -2.4475   -2.1581 H   0  0  0  0  0  0  0  0  0  0  0  0
   -3.9539   -3.6873   -0.8304 C   0  0  0  0  0  0  0  0  0  0  0  0
   -4.5736   -4.5840   -0.9840 H   0  0  0  0  0  0  0  0  0  0  0  0
   -2.8489   -3.7382    0.0354 C   0  0  0  0  0  0  0  0  0  0  0  0
   -2.6047   -4.6693    0.5684 H   0  0  0  0  0  0  0  0  0  0  0  0
   -2.0652   -2.5944    0.2397 C   0  0  0  0  0  0  0  0  0  0  0  0
   -1.2212   -2.6029    0.9472 H   0  0  0  0  0  0  0  0  0  0  0  0
   -0.0492    0.2033   -2.8802 C   0  0  0  0  0  0  0  0  0  0  0  0
    0.8864   -0.2427   -3.2879 H   0  0  0  0  0  0  0  0  0  0  0  0
   -0.0160    1.2906   -3.1192 H   0  0  0  0  0  0  0  0  0  0  0  0
   -1.2324   -0.4327   -3.5514 C   0  0  0  0  0  0  0  0  0  0  0  0
   -1.3329   -1.5252   -3.4255 H   0  0  0  0  0  0  0  0  0  0  0  0
   -2.1423    0.2478   -4.2683 C   0  0  0  0  0  0  0  0  0  0  0  0
   -2.0768    1.3424   -4.3863 H   0  0  0  0  0  0  0  0  0  0  0  0
   -2.9858   -0.2621   -4.7590 H   0  0  0  0  0  0  0  0  0  0  0  0
  3  1  1  0  0  0  0
  3  2  1  0  0  0  0
  4  1  1  0  0  0  0
  4 13  1  0  0  0  0
  5  4  2  0  0  0  0
  6  5  1  0  0  0  0
  7  5  1  0  0  0  0
  7  9  2  0  0  0  0
  8  7  1  0  0  0  0
  9 11  1  0  0  0  0
 10  9  1  0  0  0  0
 11 13  2  0  0  0  0
 11 12  1  0  0  0  0
 13 14  1  0  0  0  0
 15 24  1  0  0  0  0
 15  1  1  0  0  0  0
 16 15  2  0  0  0  0
 17 16  1  0  0  0  0
 18 16  1  0  0  0  0
 18 20  2  0  0  0  0
 19 18  1  0  0  0  0
 20 22  1  0  0  0  0
 21 20  1  0  0  0  0
 22 23  1  0  0  0  0
 22 24  2  0  0  0  0
 24 25  1  0  0  0  0
 26  2  1  0  0  0  0
 26 35  1  0  0  0  0
 27 26  2  0  0  0  0
 28 27  1  0  0  0  0
 29 27  1  0  0  0  0
 29 31  2  0  0  0  0
 30 29  1  0  0  0  0
 31 33  1  0  0  0  0
 32 31  1  0  0  0  0
 33 35  2  0  0  0  0
 33 34  1  0  0  0  0
 35 36  1  0  0  0  0
 37  2  1  0  0  0  0
 37 46  1  0  0  0  0
 38 37  2  0  0  0  0
 39 38  1  0  0  0  0
 40 38  1  0  0  0  0
 40 42  2  0  0  0  0
 41 40  1  0  0  0  0
 42 44  1  0  0  0  0
 43 42  1  0  0  0  0
 44 46  2  0  0  0  0
 44 45  1  0  0  0  0
 46 47  1  0  0  0  0
 48  3  1  0  0  0  0
 49 48  1  0  0  0  0
 50 48  1  0  0  0  0
 51 52  1  0  0  0  0
 51 48  1  0  0  0  0
 53 51  2  0  0  0  0
 54 53  1  0  0  0  0
 55 53  1  0  0  0  0
M  END
