77,78
 OpenBabel05122313063D

 78 85  0  0  0  0  0  0  0  0999 V2000
    0.1696    1.7352    0.6683 C   0  0  0  0  0  0  0  0  0  0  0  0
    1.0546    0.7937    1.2203 C   0  0  0  0  0  0  0  0  0  0  0  0
    1.3754    0.8574    2.6091 C   0  0  0  0  0  0  0  0  0  0  0  0
    2.0741    0.1248    3.0348 H   0  0  0  0  0  0  0  0  0  0  0  0
    0.8134    1.8191    3.4285 C   0  0  0  0  0  0  0  0  0  0  0  0
    1.0610    1.8424    4.5010 H   0  0  0  0  0  0  0  0  0  0  0  0
   -0.0836    2.7914    2.9073 C   0  0  0  0  0  0  0  0  0  0  0  0
   -0.6809    3.7850    3.7362 C   0  0  0  0  0  0  0  0  0  0  0  0
   -0.4404    3.7865    4.8106 H   0  0  0  0  0  0  0  0  0  0  0  0
   -1.5428    4.7315    3.2042 C   0  0  0  0  0  0  0  0  0  0  0  0
   -1.9955    5.4954    3.8541 H   0  0  0  0  0  0  0  0  0  0  0  0
   -1.8407    4.7172    1.8159 C   0  0  0  0  0  0  0  0  0  0  0  0
   -2.5234    5.4716    1.3963 H   0  0  0  0  0  0  0  0  0  0  0  0
   -1.2835    3.7564    0.9855 C   0  0  0  0  0  0  0  0  0  0  0  0
   -1.5291    3.7473   -0.0852 H   0  0  0  0  0  0  0  0  0  0  0  0
   -0.3939    2.7652    1.5004 C   0  0  0  0  0  0  0  0  0  0  0  0
   -0.2119    1.6800   -0.7768 C   0  0  0  0  0  0  0  0  0  0  0  0
   -1.0751    0.6839   -1.2637 C   0  0  0  0  0  0  0  0  0  0  0  0
   -1.3843    0.6384   -2.6558 C   0  0  0  0  0  0  0  0  0  0  0  0
   -2.0686   -0.1339   -3.0313 H   0  0  0  0  0  0  0  0  0  0  0  0
   -0.8309    1.5453   -3.5404 C   0  0  0  0  0  0  0  0  0  0  0  0
   -1.0681    1.4828   -4.6137 H   0  0  0  0  0  0  0  0  0  0  0  0
    0.0398    2.5736   -3.0859 C   0  0  0  0  0  0  0  0  0  0  0  0
    0.6214    3.5172   -3.9817 C   0  0  0  0  0  0  0  0  0  0  0  0
    0.3929    3.4316   -5.0554 H   0  0  0  0  0  0  0  0  0  0  0  0
    1.4517    4.5240   -3.5145 C   0  0  0  0  0  0  0  0  0  0  0  0
    1.8920    5.2488   -4.2157 H   0  0  0  0  0  0  0  0  0  0  0  0
    1.7330    4.6222   -2.1262 C   0  0  0  0  0  0  0  0  0  0  0  0
    2.3899    5.4246   -1.7576 H   0  0  0  0  0  0  0  0  0  0  0  0
    1.1924    3.7110   -1.2314 C   0  0  0  0  0  0  0  0  0  0  0  0
    1.4265    3.7896   -0.1609 H   0  0  0  0  0  0  0  0  0  0  0  0
    0.3353    2.6598   -1.6784 C   0  0  0  0  0  0  0  0  0  0  0  0
    2.3524   -0.0233   -1.3154 C   0  0  0  0  0  0  0  0  0  0  0  0
    2.1203   -0.7532   -2.4985 C   0  0  0  0  0  0  0  0  0  0  0  0
    1.5447   -1.6908   -2.4465 H   0  0  0  0  0  0  0  0  0  0  0  0
    2.6346   -0.2852   -3.7164 C   0  0  0  0  0  0  0  0  0  0  0  0
    2.4456   -0.8530   -4.6398 H   0  0  0  0  0  0  0  0  0  0  0  0
    3.3865    0.8999   -3.7577 C   0  0  0  0  0  0  0  0  0  0  0  0
    3.7834    1.2678   -4.7160 H   0  0  0  0  0  0  0  0  0  0  0  0
    3.6312    1.6194   -2.5771 C   0  0  0  0  0  0  0  0  0  0  0  0
    4.2094    2.5547   -2.6083 H   0  0  0  0  0  0  0  0  0  0  0  0
    3.1130    1.1631   -1.3575 C   0  0  0  0  0  0  0  0  0  0  0  0
    3.2760    1.7462   -0.4387 H   0  0  0  0  0  0  0  0  0  0  0  0
    3.0677   -1.2814    1.2496 C   0  0  0  0  0  0  0  0  0  0  0  0
    4.3910   -0.8712    1.0090 C   0  0  0  0  0  0  0  0  0  0  0  0
    4.6219   -0.2099    0.1620 H   0  0  0  0  0  0  0  0  0  0  0  0
    5.4290   -1.3282    1.8377 C   0  0  0  0  0  0  0  0  0  0  0  0
    6.4636   -1.0120    1.6354 H   0  0  0  0  0  0  0  0  0  0  0  0
    5.1511   -2.1884    2.9095 C   0  0  0  0  0  0  0  0  0  0  0  0
    5.9671   -2.5473    3.5550 H   0  0  0  0  0  0  0  0  0  0  0  0
    3.8303   -2.6051    3.1474 C   0  0  0  0  0  0  0  0  0  0  0  0
    3.6075   -3.2970    3.9734 H   0  0  0  0  0  0  0  0  0  0  0  0
    2.7931   -2.1642    2.3163 C   0  0  0  0  0  0  0  0  0  0  0  0
    1.7645   -2.5209    2.4770 H   0  0  0  0  0  0  0  0  0  0  0  0
   -2.3025    0.0289    1.3547 C   0  0  0  0  0  0  0  0  0  0  0  0
   -3.1311    1.1704    1.3449 C   0  0  0  0  0  0  0  0  0  0  0  0
   -3.3742    1.6669    0.3934 H   0  0  0  0  0  0  0  0  0  0  0  0
   -3.6169    1.6932    2.5507 C   0  0  0  0  0  0  0  0  0  0  0  0
   -4.2500    2.5927    2.5395 H   0  0  0  0  0  0  0  0  0  0  0  0
   -3.2716    1.0875    3.7697 C   0  0  0  0  0  0  0  0  0  0  0  0
   -3.6453    1.5077    4.7157 H   0  0  0  0  0  0  0  0  0  0  0  0
   -2.4452   -0.0471    3.7822 C   0  0  0  0  0  0  0  0  0  0  0  0
   -2.1707   -0.5217    4.7362 H   0  0  0  0  0  0  0  0  0  0  0  0
   -1.9628   -0.5810    2.5784 C   0  0  0  0  0  0  0  0  0  0  0  0
   -1.3148   -1.4717    2.5717 H   0  0  0  0  0  0  0  0  0  0  0  0
   -3.1117   -1.3783   -1.0983 C   0  0  0  0  0  0  0  0  0  0  0  0
   -4.4331   -1.0175   -0.7799 C   0  0  0  0  0  0  0  0  0  0  0  0
   -4.6385   -0.3545    0.0719 H   0  0  0  0  0  0  0  0  0  0  0  0
   -5.5027   -1.5259   -1.5354 C   0  0  0  0  0  0  0  0  0  0  0  0
   -6.5338   -1.2459   -1.2714 H   0  0  0  0  0  0  0  0  0  0  0  0
   -5.2599   -2.3908   -2.6116 C   0  0  0  0  0  0  0  0  0  0  0  0
   -6.1002   -2.7893   -3.2002 H   0  0  0  0  0  0  0  0  0  0  0  0
   -3.9417   -2.7631   -2.9246 C   0  0  0  0  0  0  0  0  0  0  0  0
   -3.7442   -3.4613   -3.7517 H   0  0  0  0  0  0  0  0  0  0  0  0
   -2.8725   -2.2725   -2.1652 C   0  0  0  0  0  0  0  0  0  0  0  0
   -1.8453   -2.6017   -2.3813 H   0  0  0  0  0  0  0  0  0  0  0  0
    1.6522   -0.6714    0.2444 P   0  0  0  0  0  0  0  0  0  0  0  0
   -1.6565   -0.7161   -0.1853 P   0  0  0  0  0  0  0  0  0  0  0  0
  1  2  2  0  0  0  0
  1 16  1  0  0  0  0
  2  3  1  0  0  0  0
  3  4  1  0  0  0  0
  3  5  2  0  0  0  0
  5  6  1  0  0  0  0
  7  5  1  0  0  0  0
  7  8  1  0  0  0  0
  8  9  1  0  0  0  0
 10  8  2  0  0  0  0
 10 11  1  0  0  0  0
 12 10  1  0  0  0  0
 13 12  1  0  0  0  0
 14 16  1  0  0  0  0
 14 12  2  0  0  0  0
 15 14  1  0  0  0  0
 16  7  2  0  0  0  0
 17  1  1  0  0  0  0
 18 17  1  0  0  0  0
 18 78  1  0  0  0  0
 19 18  2  0  0  0  0
 20 19  1  0  0  0  0
 21 23  2  0  0  0  0
 21 19  1  0  0  0  0
 22 21  1  0  0  0  0
 23 32  1  0  0  0  0
 24 26  2  0  0  0  0
 24 23  1  0  0  0  0
 25 24  1  0  0  0  0
 26 28  1  0  0  0  0
 27 26  1  0  0  0  0
 28 29  1  0  0  0  0
 28 30  2  0  0  0  0
 30 31  1  0  0  0  0
 32 30  1  0  0  0  0
 32 17  2  0  0  0  0
 33 77  1  0  0  0  0
 34 35  1  0  0  0  0
 34 33  2  0  0  0  0
 36 34  1  0  0  0  0
 37 36  1  0  0  0  0
 38 36  2  0  0  0  0
 38 40  1  0  0  0  0
 39 38  1  0  0  0  0
 40 42  2  0  0  0  0
 41 40  1  0  0  0  0
 42 33  1  0  0  0  0
 42 43  1  0  0  0  0
 44 53  1  0  0  0  0
 45 44  2  0  0  0  0
 45 47  1  0  0  0  0
 46 45  1  0  0  0  0
 47 49  2  0  0  0  0
 48 47  1  0  0  0  0
 49 51  1  0  0  0  0
 49 50  1  0  0  0  0
 51 52  1  0  0  0  0
 53 54  1  0  0  0  0
 53 51  2  0  0  0  0
 55 64  1  0  0  0  0
 56 55  2  0  0  0  0
 56 58  1  0  0  0  0
 57 56  1  0  0  0  0
 58 60  2  0  0  0  0
 59 58  1  0  0  0  0
 60 62  1  0  0  0  0
 60 61  1  0  0  0  0
 62 63  1  0  0  0  0
 64 62  2  0  0  0  0
 65 64  1  0  0  0  0
 66 67  1  0  0  0  0
 66 78  1  0  0  0  0
 67 68  1  0  0  0  0
 69 70  1  0  0  0  0
 69 67  2  0  0  0  0
 71 69  1  0  0  0  0
 72 71  1  0  0  0  0
 73 71  2  0  0  0  0
 73 75  1  0  0  0  0
 74 73  1  0  0  0  0
 75 66  2  0  0  0  0
 76 75  1  0  0  0  0
 77  2  1  0  0  0  0
 77 44  1  0  0  0  0
 78 55  1  0  0  0  0
M  END
