1,2
 OpenBabel05122313063D

 75 82  0  0  0  0  0  0  0  0999 V2000
    2.1817    0.5734   -0.7825 P   0  0  0  0  0  0  0  0  0  0  0  0
   -2.1813    0.5741    0.7827 P   0  0  0  0  0  0  0  0  0  0  0  0
    2.2312   -3.7050    0.3188 C   0  0  0  0  0  0  0  0  0  0  0  0
    2.0893   -2.6685   -0.6380 C   0  0  0  0  0  0  0  0  0  0  0  0
    3.1867   -1.9338   -1.1058 C   0  0  0  0  0  0  0  0  0  0  0  0
    4.4666   -2.3201   -0.6305 C   0  0  0  0  0  0  0  0  0  0  0  0
    5.3501   -1.7564   -0.9673 H   0  0  0  0  0  0  0  0  0  0  0  0
    4.6151   -3.3801    0.2746 C   0  0  0  0  0  0  0  0  0  0  0  0
    5.6227   -3.6582    0.6180 H   0  0  0  0  0  0  0  0  0  0  0  0
    3.4957   -4.0824    0.7776 C   0  0  0  0  0  0  0  0  0  0  0  0
    3.6017   -4.8914    1.5142 H   0  0  0  0  0  0  0  0  0  0  0  0
    2.9649   -0.6896   -1.9224 C   0  0  0  0  0  0  0  0  0  0  0  0
    2.2514   -0.8535   -2.7568 H   0  0  0  0  0  0  0  0  0  0  0  0
    3.9154   -0.2842   -2.3233 H   0  0  0  0  0  0  0  0  0  0  0  0
    3.4484    0.8057    0.5221 C   0  0  0  0  0  0  0  0  0  0  0  0
    4.4468    1.7967    0.4349 C   0  0  0  0  0  0  0  0  0  0  0  0
    4.4520    2.5007   -0.4113 H   0  0  0  0  0  0  0  0  0  0  0  0
    5.4323    1.8862    1.4292 C   0  0  0  0  0  0  0  0  0  0  0  0
    6.2082    2.6638    1.3594 H   0  0  0  0  0  0  0  0  0  0  0  0
    5.4326    0.9850    2.5065 C   0  0  0  0  0  0  0  0  0  0  0  0
    6.2094    1.0565    3.2830 H   0  0  0  0  0  0  0  0  0  0  0  0
    4.4417   -0.0056    2.5932 C   0  0  0  0  0  0  0  0  0  0  0  0
    4.4403   -0.7194    3.4303 H   0  0  0  0  0  0  0  0  0  0  0  0
    3.4465   -0.0928    1.6097 C   0  0  0  0  0  0  0  0  0  0  0  0
    2.6742   -0.8758    1.6747 H   0  0  0  0  0  0  0  0  0  0  0  0
    2.1361    2.1735   -1.6760 C   0  0  0  0  0  0  0  0  0  0  0  0
    1.6383    3.2998   -0.9820 C   0  0  0  0  0  0  0  0  0  0  0  0
    1.3225    3.1972    0.0688 H   0  0  0  0  0  0  0  0  0  0  0  0
    1.5459    4.5418   -1.6220 C   0  0  0  0  0  0  0  0  0  0  0  0
    1.1639    5.4137   -1.0688 H   0  0  0  0  0  0  0  0  0  0  0  0
    1.9324    4.6726   -2.9676 C   0  0  0  0  0  0  0  0  0  0  0  0
    1.8516    5.6467   -3.4731 H   0  0  0  0  0  0  0  0  0  0  0  0
    2.4184    3.5568   -3.6643 C   0  0  0  0  0  0  0  0  0  0  0  0
    2.7209    3.6528   -4.7181 H   0  0  0  0  0  0  0  0  0  0  0  0
    2.5251    2.3112   -3.0227 C   0  0  0  0  0  0  0  0  0  0  0  0
    2.9115    1.4469   -3.5823 H   0  0  0  0  0  0  0  0  0  0  0  0
   -2.0900   -2.6678    0.6383 C   0  0  0  0  0  0  0  0  0  0  0  0
   -2.2323   -3.7042   -0.3185 C   0  0  0  0  0  0  0  0  0  0  0  0
   -3.4969   -4.0811   -0.7772 C   0  0  0  0  0  0  0  0  0  0  0  0
   -3.6033   -4.8900   -1.5139 H   0  0  0  0  0  0  0  0  0  0  0  0
   -4.6160   -3.3784   -0.2742 C   0  0  0  0  0  0  0  0  0  0  0  0
   -5.6238   -3.6561   -0.6176 H   0  0  0  0  0  0  0  0  0  0  0  0
   -4.4672   -2.3185    0.6309 C   0  0  0  0  0  0  0  0  0  0  0  0
   -5.3505   -1.7545    0.9678 H   0  0  0  0  0  0  0  0  0  0  0  0
   -3.1871   -1.9328    1.1062 C   0  0  0  0  0  0  0  0  0  0  0  0
   -2.9648   -0.6886    1.9228 C   0  0  0  0  0  0  0  0  0  0  0  0
   -2.2512   -0.8528    2.7571 H   0  0  0  0  0  0  0  0  0  0  0  0
   -3.9150   -0.2828    2.3239 H   0  0  0  0  0  0  0  0  0  0  0  0
   -3.4476    0.8056   -0.5224 C   0  0  0  0  0  0  0  0  0  0  0  0
   -4.4477    1.7949   -0.4347 C   0  0  0  0  0  0  0  0  0  0  0  0
   -4.4543    2.4982    0.4121 H   0  0  0  0  0  0  0  0  0  0  0  0
   -5.4332    1.8834   -1.4291 C   0  0  0  0  0  0  0  0  0  0  0  0
   -6.2104    2.6597   -1.3589 H   0  0  0  0  0  0  0  0  0  0  0  0
   -5.4317    0.9830   -2.5071 C   0  0  0  0  0  0  0  0  0  0  0  0
   -6.2084    1.0538   -3.2837 H   0  0  0  0  0  0  0  0  0  0  0  0
   -4.4391   -0.0058   -2.5943 C   0  0  0  0  0  0  0  0  0  0  0  0
   -4.4364   -0.7190   -3.4319 H   0  0  0  0  0  0  0  0  0  0  0  0
   -3.4440   -0.0921   -1.6106 C   0  0  0  0  0  0  0  0  0  0  0  0
   -2.6704   -0.8738   -1.6760 H   0  0  0  0  0  0  0  0  0  0  0  0
   -2.1361    2.1744    1.6756 C   0  0  0  0  0  0  0  0  0  0  0  0
   -2.5212    2.3114    3.0235 C   0  0  0  0  0  0  0  0  0  0  0  0
   -2.9045    1.4465    3.5843 H   0  0  0  0  0  0  0  0  0  0  0  0
   -2.4146    3.5572    3.6649 C   0  0  0  0  0  0  0  0  0  0  0  0
   -2.7141    3.6526    4.7196 H   0  0  0  0  0  0  0  0  0  0  0  0
   -1.9324    4.6738    2.9668 C   0  0  0  0  0  0  0  0  0  0  0  0
   -1.8517    5.6480    3.4721 H   0  0  0  0  0  0  0  0  0  0  0  0
   -1.5499    4.5437    1.6200 C   0  0  0  0  0  0  0  0  0  0  0  0
   -1.1710    5.4162    1.0657 H   0  0  0  0  0  0  0  0  0  0  0  0
   -1.6423    3.3016    0.9802 C   0  0  0  0  0  0  0  0  0  0  0  0
   -1.3297    3.1996   -0.0716 H   0  0  0  0  0  0  0  0  0  0  0  0
   -0.0005   -3.3825    0.0001 B   0  0  0  0  0  0  0  0  0  0  0  0
    1.0233   -4.1836    0.6828 O   0  0  0  0  0  0  0  0  0  0  0  0
    0.7793   -2.4692   -0.9323 O   0  0  0  0  0  0  0  0  0  0  0  0
   -0.7799   -2.4690    0.9325 O   0  0  0  0  0  0  0  0  0  0  0  0
   -1.0246   -4.1831   -0.6826 O   0  0  0  0  0  0  0  0  0  0  0  0
  1 15  1  0  0  0  0
  2 60  1  0  0  0  0
  2 46  1  0  0  0  0
  3 72  1  0  0  0  0
  3 10  1  0  0  0  0
  4  3  2  0  0  0  0
  5  4  1  0  0  0  0
  5  6  2  0  0  0  0
  6  8  1  0  0  0  0
  7  6  1  0  0  0  0
  8  9  1  0  0  0  0
  8 10  2  0  0  0  0
 10 11  1  0  0  0  0
 12  5  1  0  0  0  0
 12  1  1  0  0  0  0
 13 12  1  0  0  0  0
 14 12  1  0  0  0  0
 15 24  1  0  0  0  0
 16 15  2  0  0  0  0
 16 18  1  0  0  0  0
 17 16  1  0  0  0  0
 18 20  2  0  0  0  0
 19 18  1  0  0  0  0
 20 22  1  0  0  0  0
 20 21  1  0  0  0  0
 22 23  1  0  0  0  0
 24 25  1  0  0  0  0
 24 22  2  0  0  0  0
 26 27  1  0  0  0  0
 26  1  1  0  0  0  0
 27 28  1  0  0  0  0
 29 30  1  0  0  0  0
 29 27  2  0  0  0  0
 31 29  1  0  0  0  0
 32 31  1  0  0  0  0
 33 35  1  0  0  0  0
 33 31  2  0  0  0  0
 34 33  1  0  0  0  0
 35 26  2  0  0  0  0
 36 35  1  0  0  0  0
 37 74  1  0  0  0  0
 37 45  1  0  0  0  0
 38 37  2  0  0  0  0
 39 38  1  0  0  0  0
 39 41  2  0  0  0  0
 40 39  1  0  0  0  0
 41 43  1  0  0  0  0
 42 41  1  0  0  0  0
 43 44  1  0  0  0  0
 43 45  2  0  0  0  0
 45 46  1  0  0  0  0
 46 48  1  0  0  0  0
 46 47  1  0  0  0  0
 49 50  1  0  0  0  0
 49  2  1  0  0  0  0
 50 51  1  0  0  0  0
 52 53  1  0  0  0  0
 52 50  2  0  0  0  0
 54 52  1  0  0  0  0
 55 54  1  0  0  0  0
 56 54  2  0  0  0  0
 56 58  1  0  0  0  0
 57 56  1  0  0  0  0
 58 49  2  0  0  0  0
 59 58  1  0  0  0  0
 60 61  1  0  0  0  0
 61 62  1  0  0  0  0
 61 63  2  0  0  0  0
 63 64  1  0  0  0  0
 65 66  1  0  0  0  0
 65 63  1  0  0  0  0
 67 65  2  0  0  0  0
 68 67  1  0  0  0  0
 69 67  1  0  0  0  0
 69 60  2  0  0  0  0
 70 69  1  0  0  0  0
 71 72  1  0  0  0  0
 71 74  1  0  0  0  0
 73  4  1  0  0  0  0
 73 71  1  0  0  0  0
 75 38  1  0  0  0  0
 75 71  1  0  0  0  0
M  END
