1,2
 OpenBabel05122313063D

 70 72  0  0  0  0  0  0  0  0999 V2000
   -2.2690   -0.8932   -0.1270 P   0  0  0  0  0  0  0  0  0  0  0  0
    2.2990   -0.8326   -0.1164 P   0  0  0  0  0  0  0  0  0  0  0  0
   -0.0088    1.1123    0.0743 O   0  0  0  0  0  0  0  0  0  0  0  0
   -3.3499   -1.1796    1.3982 C   0  0  0  0  0  0  0  0  0  0  0  0
   -2.8878   -0.4516    2.1026 H   0  0  0  0  0  0  0  0  0  0  0  0
   -4.8395   -0.8646    1.2523 C   0  0  0  0  0  0  0  0  0  0  0  0
   -5.3348   -1.5344    0.5183 H   0  0  0  0  0  0  0  0  0  0  0  0
   -5.0274    0.1835    0.9508 H   0  0  0  0  0  0  0  0  0  0  0  0
   -5.3512   -1.0208    2.2254 H   0  0  0  0  0  0  0  0  0  0  0  0
   -3.1109   -2.5825    1.9756 C   0  0  0  0  0  0  0  0  0  0  0  0
   -3.5529   -2.6432    2.9918 H   0  0  0  0  0  0  0  0  0  0  0  0
   -2.0291   -2.8015    2.0623 H   0  0  0  0  0  0  0  0  0  0  0  0
   -3.5869   -3.3717    1.3593 H   0  0  0  0  0  0  0  0  0  0  0  0
   -3.2380   -1.5443   -1.6030 C   0  0  0  0  0  0  0  0  0  0  0  0
   -4.2741   -1.1540   -1.4963 H   0  0  0  0  0  0  0  0  0  0  0  0
   -2.6455   -1.0313   -2.9188 C   0  0  0  0  0  0  0  0  0  0  0  0
   -1.6063   -1.3939   -3.0478 H   0  0  0  0  0  0  0  0  0  0  0  0
   -2.6248    0.0752   -2.9669 H   0  0  0  0  0  0  0  0  0  0  0  0
   -3.2487   -1.4015   -3.7741 H   0  0  0  0  0  0  0  0  0  0  0  0
   -3.2767   -3.0772   -1.5679 C   0  0  0  0  0  0  0  0  0  0  0  0
   -3.7828   -3.4671   -2.4755 H   0  0  0  0  0  0  0  0  0  0  0  0
   -3.8206   -3.4669   -0.6863 H   0  0  0  0  0  0  0  0  0  0  0  0
   -2.2480   -3.4920   -1.5415 H   0  0  0  0  0  0  0  0  0  0  0  0
   -2.3713    0.9554   -0.3622 C   0  0  0  0  0  0  0  0  0  0  0  0
   -3.5592    1.6215   -0.7274 C   0  0  0  0  0  0  0  0  0  0  0  0
   -4.4580    1.0317   -0.9562 H   0  0  0  0  0  0  0  0  0  0  0  0
   -3.6105    3.0178   -0.8240 C   0  0  0  0  0  0  0  0  0  0  0  0
   -4.5432    3.5161   -1.1270 H   0  0  0  0  0  0  0  0  0  0  0  0
   -2.4795    3.7807   -0.5012 C   0  0  0  0  0  0  0  0  0  0  0  0
   -2.5421    4.8771   -0.5272 H   0  0  0  0  0  0  0  0  0  0  0  0
   -1.2722    3.1646   -0.1316 C   0  0  0  0  0  0  0  0  0  0  0  0
   -1.2266    1.7557   -0.1417 C   0  0  0  0  0  0  0  0  0  0  0  0
   -0.0573    3.9193    0.4078 C   0  0  0  0  0  0  0  0  0  0  0  0
   -0.0901    3.7907    1.9598 C   0  0  0  0  0  0  0  0  0  0  0  0
   -0.0936    2.7277    2.2762 H   0  0  0  0  0  0  0  0  0  0  0  0
   -1.0043    4.2729    2.3615 H   0  0  0  0  0  0  0  0  0  0  0  0
    0.7992    4.2840    2.4019 H   0  0  0  0  0  0  0  0  0  0  0  0
   -0.0704    5.4034    0.0230 C   0  0  0  0  0  0  0  0  0  0  0  0
    0.7970    5.9300    0.4652 H   0  0  0  0  0  0  0  0  0  0  0  0
   -0.9738    5.9027    0.4224 H   0  0  0  0  0  0  0  0  0  0  0  0
   -0.0461    5.5463   -1.0755 H   0  0  0  0  0  0  0  0  0  0  0  0
    1.2006    3.2008   -0.0801 C   0  0  0  0  0  0  0  0  0  0  0  0
    2.4045    3.8534   -0.3942 C   0  0  0  0  0  0  0  0  0  0  0  0
    2.4373    4.9513   -0.4071 H   0  0  0  0  0  0  0  0  0  0  0  0
    3.5687    3.1258   -0.6778 C   0  0  0  0  0  0  0  0  0  0  0  0
    4.4990    3.6531   -0.9353 H   0  0  0  0  0  0  0  0  0  0  0  0
    3.5508    1.7273   -0.6047 C   0  0  0  0  0  0  0  0  0  0  0  0
    4.4732    1.1658   -0.8095 H   0  0  0  0  0  0  0  0  0  0  0  0
    2.3681    1.0245   -0.2963 C   0  0  0  0  0  0  0  0  0  0  0  0
    1.1948    1.7911   -0.1031 C   0  0  0  0  0  0  0  0  0  0  0  0
    3.4295   -1.1613    1.3708 C   0  0  0  0  0  0  0  0  0  0  0  0
    3.0717   -0.3833    2.0820 H   0  0  0  0  0  0  0  0  0  0  0  0
    3.1119   -2.5349    1.9794 C   0  0  0  0  0  0  0  0  0  0  0  0
    3.4467   -3.3629    1.3227 H   0  0  0  0  0  0  0  0  0  0  0  0
    2.0246   -2.6512    2.1556 H   0  0  0  0  0  0  0  0  0  0  0  0
    3.6395   -2.6464    2.9499 H   0  0  0  0  0  0  0  0  0  0  0  0
    4.9313   -0.9639    1.1521 C   0  0  0  0  0  0  0  0  0  0  0  0
    5.4727   -1.1229    2.1086 H   0  0  0  0  0  0  0  0  0  0  0  0
    5.1844    0.0550    0.8020 H   0  0  0  0  0  0  0  0  0  0  0  0
    5.3422   -1.6944    0.4252 H   0  0  0  0  0  0  0  0  0  0  0  0
    3.2699   -1.4156   -1.6214 C   0  0  0  0  0  0  0  0  0  0  0  0
    4.2952   -0.9993   -1.5133 H   0  0  0  0  0  0  0  0  0  0  0  0
    2.6539   -0.8807   -2.9171 C   0  0  0  0  0  0  0  0  0  0  0  0
    3.2614   -1.2077   -3.7869 H   0  0  0  0  0  0  0  0  0  0  0  0
    2.6037    0.2259   -2.9304 H   0  0  0  0  0  0  0  0  0  0  0  0
    1.6240   -1.2669   -3.0513 H   0  0  0  0  0  0  0  0  0  0  0  0
    3.3507   -2.9470   -1.6279 C   0  0  0  0  0  0  0  0  0  0  0  0
    2.3339   -3.3905   -1.6158 H   0  0  0  0  0  0  0  0  0  0  0  0
    3.9029   -3.3462   -0.7551 H   0  0  0  0  0  0  0  0  0  0  0  0
    3.8698   -3.2992   -2.5436 H   0  0  0  0  0  0  0  0  0  0  0  0
  1  4  1  0  0  0  0
  2 51  1  0  0  0  0
  4 10  1  0  0  0  0
  4  5  1  0  0  0  0
  6  4  1  0  0  0  0
  6  9  1  0  0  0  0
  7  6  1  0  0  0  0
  8  6  1  0  0  0  0
 10 12  1  0  0  0  0
 10 11  1  0  0  0  0
 13 10  1  0  0  0  0
 14 20  1  0  0  0  0
 14 15  1  0  0  0  0
 14  1  1  0  0  0  0
 16 14  1  0  0  0  0
 17 16  1  0  0  0  0
 18 16  1  0  0  0  0
 19 16  1  0  0  0  0
 20 23  1  0  0  0  0
 20 22  1  0  0  0  0
 21 20  1  0  0  0  0
 24 32  1  0  0  0  0
 24  1  1  0  0  0  0
 25 24  2  0  0  0  0
 26 25  1  0  0  0  0
 27 25  1  0  0  0  0
 27 29  2  0  0  0  0
 28 27  1  0  0  0  0
 29 31  1  0  0  0  0
 30 29  1  0  0  0  0
 31 33  1  0  0  0  0
 32 31  2  0  0  0  0
 32  3  1  0  0  0  0
 33 34  1  0  0  0  0
 34 35  1  0  0  0  0
 34 36  1  0  0  0  0
 34 37  1  0  0  0  0
 38 33  1  0  0  0  0
 38 40  1  0  0  0  0
 38 39  1  0  0  0  0
 41 38  1  0  0  0  0
 42 33  1  0  0  0  0
 43 42  2  0  0  0  0
 44 43  1  0  0  0  0
 45 47  2  0  0  0  0
 45 43  1  0  0  0  0
 46 45  1  0  0  0  0
 47 49  1  0  0  0  0
 48 47  1  0  0  0  0
 49  2  1  0  0  0  0
 49 50  2  0  0  0  0
 50 42  1  0  0  0  0
 50  3  1  0  0  0  0
 51 53  1  0  0  0  0
 51 52  1  0  0  0  0
 53 55  1  0  0  0  0
 53 56  1  0  0  0  0
 54 53  1  0  0  0  0
 57 51  1  0  0  0  0
 57 58  1  0  0  0  0
 59 57  1  0  0  0  0
 60 57  1  0  0  0  0
 61 62  1  0  0  0  0
 61  2  1  0  0  0  0
 63 61  1  0  0  0  0
 64 63  1  0  0  0  0
 65 63  1  0  0  0  0
 66 63  1  0  0  0  0
 67 61  1  0  0  0  0
 67 68  1  0  0  0  0
 67 69  1  0  0  0  0
 70 67  1  0  0  0  0
M  END
