1,2
 OpenBabel05122313063D

 61 64  0  0  1  0  0  0  0  0999 V2000
   -1.6754   -0.0865    0.3846 P   0  0  0  0  0  0  0  0  0  0  0  0
    1.6634    0.0051    0.4003 P   0  0  0  0  0  0  0  0  0  0  0  0
    2.1746    1.7733    0.2088 C   0  0  0  0  0  0  0  0  0  0  0  0
    1.1916    2.7243   -0.1325 C   0  0  0  0  0  0  0  0  0  0  0  0
    0.1683    2.3983   -0.3597 H   0  0  0  0  0  0  0  0  0  0  0  0
    1.5044    4.0908   -0.1878 C   0  0  0  0  0  0  0  0  0  0  0  0
    0.7183    4.8129   -0.4559 H   0  0  0  0  0  0  0  0  0  0  0  0
    2.8099    4.5250    0.0849 C   0  0  0  0  0  0  0  0  0  0  0  0
    3.0607    5.5954    0.0312 H   0  0  0  0  0  0  0  0  0  0  0  0
    3.7982    3.5859    0.4226 C   0  0  0  0  0  0  0  0  0  0  0  0
    4.8253    3.9182    0.6378 H   0  0  0  0  0  0  0  0  0  0  0  0
    3.4839    2.2205    0.4917 C   0  0  0  0  0  0  0  0  0  0  0  0
    4.2653    1.4965    0.7641 H   0  0  0  0  0  0  0  0  0  0  0  0
    3.2424   -0.9320    0.2400 C   0  0  0  0  0  0  0  0  0  0  0  0
    4.1115   -0.6428   -0.8339 C   0  0  0  0  0  0  0  0  0  0  0  0
    3.8902    0.2004   -1.5057 H   0  0  0  0  0  0  0  0  0  0  0  0
    5.2462   -1.4320   -1.0639 C   0  0  0  0  0  0  0  0  0  0  0  0
    5.9120   -1.1930   -1.9069 H   0  0  0  0  0  0  0  0  0  0  0  0
    5.5246   -2.5294   -0.2338 C   0  0  0  0  0  0  0  0  0  0  0  0
    6.4134   -3.1515   -0.4180 H   0  0  0  0  0  0  0  0  0  0  0  0
    4.6546   -2.8374    0.8228 C   0  0  0  0  0  0  0  0  0  0  0  0
    4.8555   -3.7043    1.4704 H   0  0  0  0  0  0  0  0  0  0  0  0
    3.5192   -2.0473    1.0579 C   0  0  0  0  0  0  0  0  0  0  0  0
    2.8401   -2.3201    1.8786 H   0  0  0  0  0  0  0  0  0  0  0  0
   -2.2747    1.6074   -0.0657 C   0  0  0  0  0  0  0  0  0  0  0  0
   -2.2705    2.7184    0.8013 C   0  0  0  0  0  0  0  0  0  0  0  0
   -1.9299    2.6185    1.8413 H   0  0  0  0  0  0  0  0  0  0  0  0
   -2.6936    3.9796    0.3476 C   0  0  0  0  0  0  0  0  0  0  0  0
   -2.6737    4.8383    1.0361 H   0  0  0  0  0  0  0  0  0  0  0  0
   -3.1406    4.1427   -0.9712 C   0  0  0  0  0  0  0  0  0  0  0  0
   -3.4703    5.1310   -1.3259 H   0  0  0  0  0  0  0  0  0  0  0  0
   -3.1677    3.0360   -1.8368 C   0  0  0  0  0  0  0  0  0  0  0  0
   -3.5217    3.1515   -2.8722 H   0  0  0  0  0  0  0  0  0  0  0  0
   -2.7342    1.7819   -1.3901 C   0  0  0  0  0  0  0  0  0  0  0  0
   -2.7511    0.9219   -2.0770 H   0  0  0  0  0  0  0  0  0  0  0  0
   -3.2891   -1.0037    0.4251 C   0  0  0  0  0  0  0  0  0  0  0  0
   -4.4937   -0.3331    0.7249 C   0  0  0  0  0  0  0  0  0  0  0  0
   -4.4928    0.7575    0.8725 H   0  0  0  0  0  0  0  0  0  0  0  0
   -5.6976   -1.0460    0.8253 C   0  0  0  0  0  0  0  0  0  0  0  0
   -6.6311   -0.5092    1.0536 H   0  0  0  0  0  0  0  0  0  0  0  0
   -5.7131   -2.4362    0.6301 C   0  0  0  0  0  0  0  0  0  0  0  0
   -6.6589   -2.9942    0.7040 H   0  0  0  0  0  0  0  0  0  0  0  0
   -4.5183   -3.1099    0.3340 C   0  0  0  0  0  0  0  0  0  0  0  0
   -4.5211   -4.1988    0.1750 H   0  0  0  0  0  0  0  0  0  0  0  0
   -3.3136   -2.3989    0.2291 C   0  0  0  0  0  0  0  0  0  0  0  0
   -2.3841   -2.9359   -0.0044 H   0  0  0  0  0  0  0  0  0  0  0  0
    1.2995   -0.0481    2.2522 C   0  0  1  0  0  0  0  0  0  0  0  0
    1.1400   -1.1273    2.4602 H   0  0  0  0  0  0  0  0  0  0  0  0
    2.4507    0.4690    3.1195 C   0  0  0  0  0  0  0  0  0  0  0  0
    3.4150   -0.0155    2.8727 H   0  0  0  0  0  0  0  0  0  0  0  0
    2.2341    0.2711    4.1903 H   0  0  0  0  0  0  0  0  0  0  0  0
    2.5794    1.5634    3.0003 H   0  0  0  0  0  0  0  0  0  0  0  0
    0.0000    0.7171    2.5726 C   0  0  0  0  0  0  0  0  0  0  0  0
   -0.0044    0.8999    3.6707 H   0  0  0  0  0  0  0  0  0  0  0  0
    0.0544    1.7269    2.1121 H   0  0  0  0  0  0  0  0  0  0  0  0
   -1.3396    0.0329    2.2395 C   0  0  2  0  0  0  0  0  0  0  0  0
   -2.1507    0.6896    2.6231 H   0  0  0  0  0  0  0  0  0  0  0  0
   -1.4879   -1.3277    2.9331 C   0  0  0  0  0  0  0  0  0  0  0  0
   -2.5279   -1.6996    2.8792 H   0  0  0  0  0  0  0  0  0  0  0  0
   -1.2165   -1.2285    4.0051 H   0  0  0  0  0  0  0  0  0  0  0  0
   -0.8369   -2.1078    2.4936 H   0  0  0  0  0  0  0  0  0  0  0  0
  1 36  1  0  0  0  0
  1 56  1  0  0  0  0
  2 47  1  0  0  0  0
  3  2  1  0  0  0  0
  3 12  1  0  0  0  0
  4  3  2  0  0  0  0
  5  4  1  0  0  0  0
  6  4  1  0  0  0  0
  6  8  2  0  0  0  0
  7  6  1  0  0  0  0
  8 10  1  0  0  0  0
  9  8  1  0  0  0  0
 10 12  2  0  0  0  0
 10 11  1  0  0  0  0
 12 13  1  0  0  0  0
 14  2  1  0  0  0  0
 14 23  1  0  0  0  0
 15 14  2  0  0  0  0
 16 15  1  0  0  0  0
 17 15  1  0  0  0  0
 17 19  2  0  0  0  0
 18 17  1  0  0  0  0
 19 21  1  0  0  0  0
 20 19  1  0  0  0  0
 21 23  2  0  0  0  0
 21 22  1  0  0  0  0
 23 24  1  0  0  0  0
 25  1  1  0  0  0  0
 25 26  1  0  0  0  0
 26 27  1  0  0  0  0
 28 26  2  0  0  0  0
 28 29  1  0  0  0  0
 30 28  1  0  0  0  0
 31 30  1  0  0  0  0
 32 34  1  0  0  0  0
 32 30  2  0  0  0  0
 33 32  1  0  0  0  0
 34 25  2  0  0  0  0
 35 34  1  0  0  0  0
 36 37  1  0  0  0  0
 37 39  2  0  0  0  0
 37 38  1  0  0  0  0
 39 40  1  0  0  0  0
 41 42  1  0  0  0  0
 41 39  1  0  0  0  0
 43 41  2  0  0  0  0
 44 43  1  0  0  0  0
 45 43  1  0  0  0  0
 45 36  2  0  0  0  0
 46 45  1  0  0  0  0
 47 48  1  1  0  0  0
 47 53  1  0  0  0  0
 47 49  1  0  0  0  0
 49 51  1  0  0  0  0
 50 49  1  0  0  0  0
 52 49  1  0  0  0  0
 53 54  1  0  0  0  0
 55 53  1  0  0  0  0
 56 53  1  0  0  0  0
 56 57  1  1  0  0  0
 56 58  1  0  0  0  0
 58 60  1  0  0  0  0
 59 58  1  0  0  0  0
 61 58  1  0  0  0  0
M  END
