1,2
 OpenBabel05122313063D

 60 64  0  0  0  0  0  0  0  0999 V2000
    1.3174    0.5732    0.2888 P   0  0  0  0  0  0  0  0  0  0  0  0
   -0.8216   -0.8756    0.0318 P   0  0  0  0  0  0  0  0  0  0  0  0
   -0.2544    0.4511    1.0169 N   0  0  0  0  0  0  0  0  0  0  0  0
   -3.2640    1.3260    1.8471 N   0  0  0  0  0  0  0  0  0  0  0  0
   -0.8549    1.1723    2.1370 C   0  0  0  0  0  0  0  0  0  0  0  0
   -0.0793    1.8491    2.5490 H   0  0  0  0  0  0  0  0  0  0  0  0
   -1.1437    0.4613    2.9407 H   0  0  0  0  0  0  0  0  0  0  0  0
   -2.0818    1.9590    1.7201 C   0  0  0  0  0  0  0  0  0  0  0  0
   -1.9689    3.2495    1.1666 C   0  0  0  0  0  0  0  0  0  0  0  0
   -0.9811    3.7252    1.0698 H   0  0  0  0  0  0  0  0  0  0  0  0
   -3.1300    3.8966    0.7263 C   0  0  0  0  0  0  0  0  0  0  0  0
   -3.0743    4.9054    0.2893 H   0  0  0  0  0  0  0  0  0  0  0  0
   -4.3594    3.2317    0.8431 C   0  0  0  0  0  0  0  0  0  0  0  0
   -5.2961    3.6953    0.5006 H   0  0  0  0  0  0  0  0  0  0  0  0
   -4.3696    1.9482    1.4104 C   0  0  0  0  0  0  0  0  0  0  0  0
   -5.3170    1.3910    1.5141 H   0  0  0  0  0  0  0  0  0  0  0  0
    1.4842    2.3081   -0.2570 C   0  0  0  0  0  0  0  0  0  0  0  0
    1.1834    2.6074   -1.6011 C   0  0  0  0  0  0  0  0  0  0  0  0
    1.0150    1.7784   -2.3064 H   0  0  0  0  0  0  0  0  0  0  0  0
    1.1379    3.9435   -2.0235 C   0  0  0  0  0  0  0  0  0  0  0  0
    0.9089    4.1759   -3.0745 H   0  0  0  0  0  0  0  0  0  0  0  0
    1.3997    4.9807   -1.1122 C   0  0  0  0  0  0  0  0  0  0  0  0
    1.3673    6.0285   -1.4477 H   0  0  0  0  0  0  0  0  0  0  0  0
    1.7237    4.6827    0.2220 C   0  0  0  0  0  0  0  0  0  0  0  0
    1.9482    5.4943    0.9308 H   0  0  0  0  0  0  0  0  0  0  0  0
    1.7710    3.3471    0.6520 C   0  0  0  0  0  0  0  0  0  0  0  0
    2.0409    3.1111    1.6932 H   0  0  0  0  0  0  0  0  0  0  0  0
    2.5301    0.3392    1.6241 C   0  0  0  0  0  0  0  0  0  0  0  0
    3.8630    0.7654    1.4430 C   0  0  0  0  0  0  0  0  0  0  0  0
    4.1492    1.2860    0.5167 H   0  0  0  0  0  0  0  0  0  0  0  0
    4.8179    0.4975    2.4334 C   0  0  0  0  0  0  0  0  0  0  0  0
    5.8577    0.8282    2.2906 H   0  0  0  0  0  0  0  0  0  0  0  0
    4.4533   -0.1990    3.5977 C   0  0  0  0  0  0  0  0  0  0  0  0
    5.2068   -0.4073    4.3723 H   0  0  0  0  0  0  0  0  0  0  0  0
    3.1310   -0.6406    3.7685 C   0  0  0  0  0  0  0  0  0  0  0  0
    2.8464   -1.1982    4.6736 H   0  0  0  0  0  0  0  0  0  0  0  0
    2.1699   -0.3811    2.7812 C   0  0  0  0  0  0  0  0  0  0  0  0
    1.1389   -0.7481    2.8991 H   0  0  0  0  0  0  0  0  0  0  0  0
   -1.3060   -2.1924    1.1914 C   0  0  0  0  0  0  0  0  0  0  0  0
   -0.5510   -3.3822    1.2162 C   0  0  0  0  0  0  0  0  0  0  0  0
    0.2438   -3.5278    0.4675 H   0  0  0  0  0  0  0  0  0  0  0  0
   -0.8494   -4.3705    2.1653 C   0  0  0  0  0  0  0  0  0  0  0  0
   -0.2683   -5.3050    2.1797 H   0  0  0  0  0  0  0  0  0  0  0  0
   -1.8887   -4.1704    3.0886 C   0  0  0  0  0  0  0  0  0  0  0  0
   -2.1198   -4.9487    3.8322 H   0  0  0  0  0  0  0  0  0  0  0  0
   -2.6385   -2.9823    3.0632 C   0  0  0  0  0  0  0  0  0  0  0  0
   -3.4533   -2.8279    3.7871 H   0  0  0  0  0  0  0  0  0  0  0  0
   -2.3565   -1.9872    2.1146 C   0  0  0  0  0  0  0  0  0  0  0  0
   -2.9390   -1.0495    2.0939 H   0  0  0  0  0  0  0  0  0  0  0  0
   -2.3327   -0.3245   -0.8229 C   0  0  0  0  0  0  0  0  0  0  0  0
   -2.3522    0.9641   -1.3935 C   0  0  0  0  0  0  0  0  0  0  0  0
   -1.4897    1.6346   -1.2616 H   0  0  0  0  0  0  0  0  0  0  0  0
   -3.4749    1.3928   -2.1110 C   0  0  0  0  0  0  0  0  0  0  0  0
   -3.4924    2.4054   -2.5415 H   0  0  0  0  0  0  0  0  0  0  0  0
   -4.5722    0.5314   -2.2836 C   0  0  0  0  0  0  0  0  0  0  0  0
   -5.4525    0.8684   -2.8519 H   0  0  0  0  0  0  0  0  0  0  0  0
   -4.5402   -0.7623   -1.7410 C   0  0  0  0  0  0  0  0  0  0  0  0
   -5.3916   -1.4440   -1.8872 H   0  0  0  0  0  0  0  0  0  0  0  0
   -3.4211   -1.1959   -1.0138 C   0  0  0  0  0  0  0  0  0  0  0  0
   -3.3920   -2.2121   -0.5945 H   0  0  0  0  0  0  0  0  0  0  0  0
  1  3  1  0  0  0  0
  1 28  1  0  0  0  0
  2  3  1  0  0  0  0
  2 39  1  0  0  0  0
  3  5  1  0  0  0  0
  5  6  1  0  0  0  0
  5  7  1  0  0  0  0
  8  4  1  0  0  0  0
  8  5  1  0  0  0  0
  9  8  2  0  0  0  0
 10  9  1  0  0  0  0
 11 13  2  0  0  0  0
 11  9  1  0  0  0  0
 12 11  1  0  0  0  0
 13 15  1  0  0  0  0
 14 13  1  0  0  0  0
 15 16  1  0  0  0  0
 15  4  2  0  0  0  0
 17  1  1  0  0  0  0
 17 26  1  0  0  0  0
 18 17  2  0  0  0  0
 19 18  1  0  0  0  0
 20 18  1  0  0  0  0
 20 22  2  0  0  0  0
 21 20  1  0  0  0  0
 22 24  1  0  0  0  0
 23 22  1  0  0  0  0
 24 26  2  0  0  0  0
 24 25  1  0  0  0  0
 26 27  1  0  0  0  0
 28 37  1  0  0  0  0
 29 28  2  0  0  0  0
 29 31  1  0  0  0  0
 30 29  1  0  0  0  0
 31 33  2  0  0  0  0
 32 31  1  0  0  0  0
 33 35  1  0  0  0  0
 33 34  1  0  0  0  0
 35 36  1  0  0  0  0
 37 38  1  0  0  0  0
 37 35  2  0  0  0  0
 39 40  2  0  0  0  0
 39 48  1  0  0  0  0
 40 42  1  0  0  0  0
 41 40  1  0  0  0  0
 42 43  1  0  0  0  0
 42 44  2  0  0  0  0
 44 45  1  0  0  0  0
 46 44  1  0  0  0  0
 46 47  1  0  0  0  0
 48 46  2  0  0  0  0
 49 48  1  0  0  0  0
 50  2  1  0  0  0  0
 51 52  1  0  0  0  0
 51 50  2  0  0  0  0
 53 51  1  0  0  0  0
 54 53  1  0  0  0  0
 55 53  2  0  0  0  0
 55 57  1  0  0  0  0
 56 55  1  0  0  0  0
 57 59  2  0  0  0  0
 58 57  1  0  0  0  0
 59 50  1  0  0  0  0
 59 60  1  0  0  0  0
M  END
