1,2
 OpenBabel05122313063D

 64 68  0  0  1  0  0  0  0  0999 V2000
   -1.4818    0.2200    0.0155 P   0  0  0  0  0  0  0  0  0  0  0  0
    0.7629   -1.0166    0.3076 P   0  0  0  0  0  0  0  0  0  0  0  0
   -2.9286   -0.3749   -0.9117 C   0  0  0  0  0  0  0  0  0  0  0  0
   -2.8030   -1.3598   -1.9111 C   0  0  0  0  0  0  0  0  0  0  0  0
   -3.9471   -1.8956   -2.5178 C   0  0  0  0  0  0  0  0  0  0  0  0
   -5.2227   -1.4675   -2.1149 C   0  0  0  0  0  0  0  0  0  0  0  0
   -5.3512   -0.5125   -1.0935 C   0  0  0  0  0  0  0  0  0  0  0  0
   -4.2115    0.0312   -0.4846 C   0  0  0  0  0  0  0  0  0  0  0  0
   -1.7520    2.0052    0.3070 C   0  0  0  0  0  0  0  0  0  0  0  0
   -1.2468    2.5383    1.5112 C   0  0  0  0  0  0  0  0  0  0  0  0
   -1.3432    3.9137    1.7615 C   0  0  0  0  0  0  0  0  0  0  0  0
   -1.9583    4.7587    0.8231 C   0  0  0  0  0  0  0  0  0  0  0  0
   -2.4961    4.2245   -0.3592 C   0  0  0  0  0  0  0  0  0  0  0  0
   -2.3989    2.8491   -0.6174 C   0  0  0  0  0  0  0  0  0  0  0  0
    1.2709   -2.5892   -0.4540 C   0  0  0  0  0  0  0  0  0  0  0  0
    0.8524   -2.9916   -1.7371 C   0  0  0  0  0  0  0  0  0  0  0  0
    1.2287   -4.2475   -2.2367 C   0  0  0  0  0  0  0  0  0  0  0  0
    2.0068   -5.1120   -1.4508 C   0  0  0  0  0  0  0  0  0  0  0  0
    2.4043   -4.7219   -0.1607 C   0  0  0  0  0  0  0  0  0  0  0  0
    2.0407   -3.4660    0.3422 C   0  0  0  0  0  0  0  0  0  0  0  0
    2.3189   -0.2142    0.8202 C   0  0  0  0  0  0  0  0  0  0  0  0
    3.4610   -0.2228   -0.0048 C   0  0  0  0  0  0  0  0  0  0  0  0
    4.5953    0.5076    0.3729 C   0  0  0  0  0  0  0  0  0  0  0  0
    4.5988    1.2263    1.5801 C   0  0  0  0  0  0  0  0  0  0  0  0
    3.4732    1.2045    2.4190 C   0  0  0  0  0  0  0  0  0  0  0  0
    2.3302    0.4855    2.0425 C   0  0  0  0  0  0  0  0  0  0  0  0
   -0.0279   -0.0538   -0.9268 N   0  0  0  0  0  0  0  0  0  0  0  0
    0.5451    0.5013   -2.1673 C   0  0  2  0  0  0  0  0  0  0  0  0
    1.6457    1.5340   -1.9366 C   0  0  0  0  0  0  0  0  0  0  0  0
    2.7395    1.5762   -2.8215 C   0  0  0  0  0  0  0  0  0  0  0  0
    3.7559    2.5297   -2.6625 C   0  0  0  0  0  0  0  0  0  0  0  0
    3.6919    3.4521   -1.6067 C   0  0  0  0  0  0  0  0  0  0  0  0
    2.6016    3.4189   -0.7227 C   0  0  0  0  0  0  0  0  0  0  0  0
    1.5826    2.4714   -0.8905 C   0  0  0  0  0  0  0  0  0  0  0  0
   -0.5332    1.0771   -3.0940 C   0  0  0  0  0  0  0  0  0  0  0  0
   -1.8040   -1.7156   -2.2006 H   0  0  0  0  0  0  0  0  0  0  0  0
   -3.8419   -2.6593   -3.3031 H   0  0  0  0  0  0  0  0  0  0  0  0
   -6.1208   -1.8910   -2.5895 H   0  0  0  0  0  0  0  0  0  0  0  0
   -6.3496   -0.1929   -0.7588 H   0  0  0  0  0  0  0  0  0  0  0  0
   -4.3098    0.7489    0.3428 H   0  0  0  0  0  0  0  0  0  0  0  0
   -0.8125    1.8536    2.2550 H   0  0  0  0  0  0  0  0  0  0  0  0
   -0.9493    4.3253    2.7028 H   0  0  0  0  0  0  0  0  0  0  0  0
   -2.0350    5.8386    1.0217 H   0  0  0  0  0  0  0  0  0  0  0  0
   -2.9987    4.8821   -1.0844 H   0  0  0  0  0  0  0  0  0  0  0  0
   -2.8395    2.4300   -1.5343 H   0  0  0  0  0  0  0  0  0  0  0  0
    0.2290   -2.3219   -2.3471 H   0  0  0  0  0  0  0  0  0  0  0  0
    0.9076   -4.5532   -3.2440 H   0  0  0  0  0  0  0  0  0  0  0  0
    2.2976   -6.0987   -1.8421 H   0  0  0  0  0  0  0  0  0  0  0  0
    2.9976   -5.4060    0.4645 H   0  0  0  0  0  0  0  0  0  0  0  0
    2.3148   -3.1668    1.3656 H   0  0  0  0  0  0  0  0  0  0  0  0
    3.4595   -0.7913   -0.9468 H   0  0  0  0  0  0  0  0  0  0  0  0
    5.4800    0.5191   -0.2809 H   0  0  0  0  0  0  0  0  0  0  0  0
    5.4923    1.7982    1.8738 H   0  0  0  0  0  0  0  0  0  0  0  0
    3.4871    1.7441    3.3780 H   0  0  0  0  0  0  0  0  0  0  0  0
    1.4529    0.4164    2.7039 H   0  0  0  0  0  0  0  0  0  0  0  0
    1.0206   -0.3538   -2.6981 H   0  0  0  0  0  0  0  0  0  0  0  0
    2.8024    0.8400   -3.6401 H   0  0  0  0  0  0  0  0  0  0  0  0
    4.6080    2.5442   -3.3593 H   0  0  0  0  0  0  0  0  0  0  0  0
    4.4940    4.1930   -1.4696 H   0  0  0  0  0  0  0  0  0  0  0  0
    2.5445    4.1320    0.1136 H   0  0  0  0  0  0  0  0  0  0  0  0
    0.7421    2.4439   -0.1844 H   0  0  0  0  0  0  0  0  0  0  0  0
   -0.9926    1.9771   -2.6445 H   0  0  0  0  0  0  0  0  0  0  0  0
   -0.0629    1.3887   -4.0462 H   0  0  0  0  0  0  0  0  0  0  0  0
   -1.3283    0.3399   -3.3147 H   0  0  0  0  0  0  0  0  0  0  0  0
  1  9  1  0  0  0  0
  2 21  1  0  0  0  0
  3  8  1  0  0  0  0
  3  1  1  0  0  0  0
  4  3  2  0  0  0  0
  5  6  2  0  0  0  0
  5  4  1  0  0  0  0
  6  7  1  0  0  0  0
  7 39  1  0  0  0  0
  7  8  2  0  0  0  0
  8 40  1  0  0  0  0
  9 10  1  0  0  0  0
 10 11  2  0  0  0  0
 10 41  1  0  0  0  0
 11 42  1  0  0  0  0
 12 43  1  0  0  0  0
 12 11  1  0  0  0  0
 13 12  2  0  0  0  0
 14 13  1  0  0  0  0
 14  9  2  0  0  0  0
 15  2  1  0  0  0  0
 15 20  1  0  0  0  0
 16 15  2  0  0  0  0
 17 16  1  0  0  0  0
 17 18  2  0  0  0  0
 18 19  1  0  0  0  0
 19 20  2  0  0  0  0
 19 49  1  0  0  0  0
 20 50  1  0  0  0  0
 21 26  1  0  0  0  0
 22 23  1  0  0  0  0
 22 21  2  0  0  0  0
 23 24  2  0  0  0  0
 24 53  1  0  0  0  0
 24 25  1  0  0  0  0
 25 54  1  0  0  0  0
 26 25  2  0  0  0  0
 26 55  1  0  0  0  0
 27  1  1  0  0  0  0
 27  2  1  0  0  0  0
 28 56  1  6  0  0  0
 28 29  1  0  0  0  0
 28 27  1  0  0  0  0
 29 34  1  0  0  0  0
 30 31  1  0  0  0  0
 30 29  2  0  0  0  0
 31 32  2  0  0  0  0
 32 59  1  0  0  0  0
 32 33  1  0  0  0  0
 33 60  1  0  0  0  0
 34 33  2  0  0  0  0
 34 61  1  0  0  0  0
 35 62  1  0  0  0  0
 35 28  1  0  0  0  0
 36  4  1  0  0  0  0
 37  5  1  0  0  0  0
 38  6  1  0  0  0  0
 44 13  1  0  0  0  0
 45 14  1  0  0  0  0
 46 16  1  0  0  0  0
 47 17  1  0  0  0  0
 48 18  1  0  0  0  0
 51 22  1  0  0  0  0
 52 23  1  0  0  0  0
 57 30  1  0  0  0  0
 58 31  1  0  0  0  0
 63 35  1  0  0  0  0
 64 35  1  0  0  0  0
M  END
