1,2
 OpenBabel05122313063D

 58 61  0  0  0  0  0  0  0  0999 V2000
    1.7762   -0.2086   -0.9297 P   0  0  0  0  0  0  0  0  0  0  0  0
   -1.4432    0.3721   -0.6255 P   0  0  1  0  0  0  0  0  0  0  0  0
    3.4012   -1.0577   -0.8772 C   0  0  0  0  0  0  0  0  0  0  0  0
    4.6026   -0.3600   -1.0978 C   0  0  0  0  0  0  0  0  0  0  0  0
    4.5898    0.7306   -1.2421 H   0  0  0  0  0  0  0  0  0  0  0  0
    5.8213   -1.0579   -1.1226 C   0  0  0  0  0  0  0  0  0  0  0  0
    6.7599   -0.5078   -1.2893 H   0  0  0  0  0  0  0  0  0  0  0  0
    5.8421   -2.4471   -0.9316 C   0  0  0  0  0  0  0  0  0  0  0  0
    6.7988   -2.9909   -0.9475 H   0  0  0  0  0  0  0  0  0  0  0  0
    4.6418   -3.1431   -0.7074 C   0  0  0  0  0  0  0  0  0  0  0  0
    4.6563   -4.2303   -0.5384 H   0  0  0  0  0  0  0  0  0  0  0  0
    3.4240   -2.4525   -0.6702 C   0  0  0  0  0  0  0  0  0  0  0  0
    2.4883   -2.9883   -0.4504 H   0  0  0  0  0  0  0  0  0  0  0  0
    2.1770    1.5871   -0.8324 C   0  0  0  0  0  0  0  0  0  0  0  0
    2.2589    2.4423   -1.9494 C   0  0  0  0  0  0  0  0  0  0  0  0
    2.1355    2.0489   -2.9692 H   0  0  0  0  0  0  0  0  0  0  0  0
    2.4930    3.8165   -1.7726 C   0  0  0  0  0  0  0  0  0  0  0  0
    2.5446    4.4775   -2.6511 H   0  0  0  0  0  0  0  0  0  0  0  0
    2.6604    4.3424   -0.4823 C   0  0  0  0  0  0  0  0  0  0  0  0
    2.8382    5.4199   -0.3457 H   0  0  0  0  0  0  0  0  0  0  0  0
    2.6010    3.4899    0.6332 C   0  0  0  0  0  0  0  0  0  0  0  0
    2.7320    3.8949    1.6478 H   0  0  0  0  0  0  0  0  0  0  0  0
    2.3556    2.1206    0.4646 C   0  0  0  0  0  0  0  0  0  0  0  0
    2.2853    1.4507    1.3382 H   0  0  0  0  0  0  0  0  0  0  0  0
    1.2645   -0.5641   -2.6873 C   0  0  0  0  0  0  0  0  0  0  0  0
    1.8679    0.0917   -3.3496 H   0  0  0  0  0  0  0  0  0  0  0  0
    1.6307   -1.5937   -2.8714 H   0  0  0  0  0  0  0  0  0  0  0  0
   -0.2355   -0.4688   -3.0048 C   0  0  0  0  0  0  0  0  0  0  0  0
   -0.7428   -1.3989   -2.6679 H   0  0  0  0  0  0  0  0  0  0  0  0
   -0.3553   -0.4468   -4.1079 H   0  0  0  0  0  0  0  0  0  0  0  0
   -0.9469    0.7425   -2.3854 C   0  0  0  0  0  0  0  0  0  0  0  0
   -1.8773    0.9914   -2.9332 H   0  0  0  0  0  0  0  0  0  0  0  0
   -0.3064    1.6466   -2.4020 H   0  0  0  0  0  0  0  0  0  0  0  0
   -1.9842    1.9949    0.0267 C   0  0  0  0  0  0  0  0  0  0  0  0
   -1.1750    3.1316   -0.1834 C   0  0  0  0  0  0  0  0  0  0  0  0
   -0.2462    3.0613   -0.7684 H   0  0  0  0  0  0  0  0  0  0  0  0
   -1.5343    4.3644    0.3795 C   0  0  0  0  0  0  0  0  0  0  0  0
   -0.8926    5.2427    0.2120 H   0  0  0  0  0  0  0  0  0  0  0  0
   -2.6968    4.4719    1.1589 C   0  0  0  0  0  0  0  0  0  0  0  0
   -2.9766    5.4397    1.6020 H   0  0  0  0  0  0  0  0  0  0  0  0
   -3.4951    3.3387    1.3823 C   0  0  0  0  0  0  0  0  0  0  0  0
   -4.3989    3.4138    2.0057 H   0  0  0  0  0  0  0  0  0  0  0  0
   -3.1400    2.1008    0.8278 C   0  0  0  0  0  0  0  0  0  0  0  0
   -3.7472    1.2072    1.0295 H   0  0  0  0  0  0  0  0  0  0  0  0
   -2.9468   -0.6384   -0.8993 C   0  0  0  0  0  0  0  0  0  0  0  0
   -4.0794   -0.0820   -1.5279 C   0  0  0  0  0  0  0  0  0  0  0  0
   -4.0991    0.9873   -1.7917 H   0  0  0  0  0  0  0  0  0  0  0  0
   -5.1952   -0.8823   -1.8069 C   0  0  0  0  0  0  0  0  0  0  0  0
   -6.0767   -0.4326   -2.2907 H   0  0  0  0  0  0  0  0  0  0  0  0
   -5.2095   -2.2538   -1.4784 C   0  0  0  0  0  0  0  0  0  0  0  0
   -4.0655   -2.7993   -0.8594 C   0  0  0  0  0  0  0  0  0  0  0  0
   -4.0524   -3.8674   -0.5908 H   0  0  0  0  0  0  0  0  0  0  0  0
   -2.9499   -2.0062   -0.5638 C   0  0  0  0  0  0  0  0  0  0  0  0
   -2.0792   -2.4358   -0.0460 H   0  0  0  0  0  0  0  0  0  0  0  0
   -6.4215   -3.1073   -1.7493 C   0  0  0  0  0  0  0  0  0  0  0  0
   -7.0787   -2.6564   -2.5180 H   0  0  0  0  0  0  0  0  0  0  0  0
   -7.0285   -3.2324   -0.8269 H   0  0  0  0  0  0  0  0  0  0  0  0
   -6.1364   -4.1240   -2.0862 H   0  0  0  0  0  0  0  0  0  0  0  0
  1  3  1  0  0  0  0
  1 14  1  0  0  0  0
  2 31  1  6  0  0  0
  2 34  1  0  0  0  0
  3 12  1  0  0  0  0
  4  3  2  0  0  0  0
  5  4  1  0  0  0  0
  6  4  1  0  0  0  0
  6  8  2  0  0  0  0
  7  6  1  0  0  0  0
  8 10  1  0  0  0  0
  9  8  1  0  0  0  0
 10 12  2  0  0  0  0
 10 11  1  0  0  0  0
 12 13  1  0  0  0  0
 14 23  1  0  0  0  0
 15 17  1  0  0  0  0
 15 14  2  0  0  0  0
 16 15  1  0  0  0  0
 17 19  2  0  0  0  0
 18 17  1  0  0  0  0
 19 20  1  0  0  0  0
 19 21  1  0  0  0  0
 21 22  1  0  0  0  0
 23 21  2  0  0  0  0
 23 24  1  0  0  0  0
 25  1  1  0  0  0  0
 26 25  1  0  0  0  0
 27 25  1  0  0  0  0
 28 25  1  0  0  0  0
 28 29  1  0  0  0  0
 28 31  1  0  0  0  0
 30 28  1  0  0  0  0
 32 31  1  0  0  0  0
 33 31  1  0  0  0  0
 34 43  1  0  0  0  0
 35 34  2  0  0  0  0
 35 37  1  0  0  0  0
 36 35  1  0  0  0  0
 37 39  2  0  0  0  0
 38 37  1  0  0  0  0
 39 41  1  0  0  0  0
 39 40  1  0  0  0  0
 41 42  1  0  0  0  0
 43 44  1  0  0  0  0
 43 41  2  0  0  0  0
 45  2  1  0  0  0  0
 45 53  1  0  0  0  0
 46 45  2  0  0  0  0
 47 46  1  0  0  0  0
 48 46  1  0  0  0  0
 48 50  2  0  0  0  0
 49 48  1  0  0  0  0
 50 51  1  0  0  0  0
 51 52  1  0  0  0  0
 51 53  2  0  0  0  0
 53 54  1  0  0  0  0
 55 50  1  0  0  0  0
 55 57  1  0  0  0  0
 56 55  1  0  0  0  0
 58 55  1  0  0  0  0
M  END
