1,2
 OpenBabel05122313063D

 60 63  0  0  0  0  0  0  0  0999 V2000
   -1.5852    0.4281   -0.8977 P   0  0  1  0  0  0  0  0  0  0  0  0
    1.3871   -0.0424   -0.4626 P   0  0  1  0  0  0  0  0  0  0  0  0
   -0.5318    1.9841    1.3946 O   0  0  0  0  0  0  0  0  0  0  0  0
    3.7595   -0.0258   -2.1262 O   0  0  0  0  0  0  0  0  0  0  0  0
   -0.6704    0.1021   -2.4766 C   0  0  0  0  0  0  0  0  0  0  0  0
   -0.9537   -0.9201   -2.7929 H   0  0  0  0  0  0  0  0  0  0  0  0
   -1.0363    0.7961   -3.2592 H   0  0  0  0  0  0  0  0  0  0  0  0
    0.8415    0.2377   -2.2502 C   0  0  0  0  0  0  0  0  0  0  0  0
    1.2040    1.2443   -2.5287 H   0  0  0  0  0  0  0  0  0  0  0  0
    1.4160   -0.4727   -2.8729 H   0  0  0  0  0  0  0  0  0  0  0  0
   -1.5879    2.2464   -0.7218 C   0  0  0  0  0  0  0  0  0  0  0  0
   -1.0486    2.8310    0.4524 C   0  0  0  0  0  0  0  0  0  0  0  0
   -1.0385    4.2318    0.5968 C   0  0  0  0  0  0  0  0  0  0  0  0
   -0.6232    4.6965    1.4992 H   0  0  0  0  0  0  0  0  0  0  0  0
   -1.5486    5.0396   -0.4286 C   0  0  0  0  0  0  0  0  0  0  0  0
   -1.5323    6.1327   -0.3042 H   0  0  0  0  0  0  0  0  0  0  0  0
   -2.0705    4.4751   -1.6038 C   0  0  0  0  0  0  0  0  0  0  0  0
   -2.4650    5.1162   -2.4047 H   0  0  0  0  0  0  0  0  0  0  0  0
   -2.0883    3.0816   -1.7421 C   0  0  0  0  0  0  0  0  0  0  0  0
   -2.5095    2.6299   -2.6540 H   0  0  0  0  0  0  0  0  0  0  0  0
    0.0698    2.5319    2.5814 C   0  0  0  0  0  0  0  0  0  0  0  0
    0.9158    3.1938    2.3088 H   0  0  0  0  0  0  0  0  0  0  0  0
    0.4427    1.6578    3.1453 H   0  0  0  0  0  0  0  0  0  0  0  0
   -0.6891    3.0832    3.1718 H   0  0  0  0  0  0  0  0  0  0  0  0
   -3.3133   -0.1067   -1.1161 C   0  0  0  0  0  0  0  0  0  0  0  0
   -4.3923    0.7771   -0.8996 C   0  0  0  0  0  0  0  0  0  0  0  0
   -4.2047    1.8337   -0.6596 H   0  0  0  0  0  0  0  0  0  0  0  0
   -5.7101    0.3026   -0.9828 C   0  0  0  0  0  0  0  0  0  0  0  0
   -6.5487    0.9952   -0.8171 H   0  0  0  0  0  0  0  0  0  0  0  0
   -5.9578   -1.0480   -1.2754 C   0  0  0  0  0  0  0  0  0  0  0  0
   -6.9928   -1.4159   -1.3389 H   0  0  0  0  0  0  0  0  0  0  0  0
   -4.8843   -1.9307   -1.4816 C   0  0  0  0  0  0  0  0  0  0  0  0
   -5.0745   -2.9916   -1.7017 H   0  0  0  0  0  0  0  0  0  0  0  0
   -3.5641   -1.4691   -1.3971 C   0  0  0  0  0  0  0  0  0  0  0  0
   -2.7303   -2.1766   -1.5223 H   0  0  0  0  0  0  0  0  0  0  0  0
    2.6946   -1.3133   -0.4595 C   0  0  0  0  0  0  0  0  0  0  0  0
    3.8079   -1.1254   -1.3267 C   0  0  0  0  0  0  0  0  0  0  0  0
    4.8690   -2.0487   -1.3112 C   0  0  0  0  0  0  0  0  0  0  0  0
    5.7322   -1.9192   -1.9770 H   0  0  0  0  0  0  0  0  0  0  0  0
    4.8219   -3.1452   -0.4361 C   0  0  0  0  0  0  0  0  0  0  0  0
    5.6567   -3.8622   -0.4339 H   0  0  0  0  0  0  0  0  0  0  0  0
    3.7359   -3.3285    0.4313 C   0  0  0  0  0  0  0  0  0  0  0  0
    3.7108   -4.1820    1.1232 H   0  0  0  0  0  0  0  0  0  0  0  0
    2.6763   -2.4109    0.4201 C   0  0  0  0  0  0  0  0  0  0  0  0
    1.8336   -2.5292    1.1141 H   0  0  0  0  0  0  0  0  0  0  0  0
    4.8927    0.3066   -2.9202 C   0  0  0  0  0  0  0  0  0  0  0  0
    5.7976    0.4464   -2.2913 H   0  0  0  0  0  0  0  0  0  0  0  0
    4.6477    1.2598   -3.4223 H   0  0  0  0  0  0  0  0  0  0  0  0
    5.0956   -0.4702   -3.6885 H   0  0  0  0  0  0  0  0  0  0  0  0
    2.2571    1.4842    0.0705 C   0  0  0  0  0  0  0  0  0  0  0  0
    3.1507    1.3703    1.1573 C   0  0  0  0  0  0  0  0  0  0  0  0
    3.3226    0.3903    1.6264 H   0  0  0  0  0  0  0  0  0  0  0  0
    3.8080    2.5080    1.6452 C   0  0  0  0  0  0  0  0  0  0  0  0
    4.5081    2.4107    2.4882 H   0  0  0  0  0  0  0  0  0  0  0  0
    3.5744    3.7651    1.0625 C   0  0  0  0  0  0  0  0  0  0  0  0
    4.0954    4.6557    1.4446 H   0  0  0  0  0  0  0  0  0  0  0  0
    2.6747    3.8824   -0.0093 C   0  0  0  0  0  0  0  0  0  0  0  0
    2.4833    4.8640   -0.4680 H   0  0  0  0  0  0  0  0  0  0  0  0
    2.0151    2.7471   -0.5047 C   0  0  0  0  0  0  0  0  0  0  0  0
    1.3054    2.8656   -1.3365 H   0  0  0  0  0  0  0  0  0  0  0  0
  1  5  1  6  0  0  0
  1 11  1  0  0  0  0
  2  8  1  6  0  0  0
  2 36  1  0  0  0  0
  2 50  1  0  0  0  0
  3 21  1  0  0  0  0
  4 37  1  0  0  0  0
  5  8  1  0  0  0  0
  6  5  1  0  0  0  0
  7  5  1  0  0  0  0
  9  8  1  0  0  0  0
 10  8  1  0  0  0  0
 11 12  1  0  0  0  0
 12 13  2  0  0  0  0
 12  3  1  0  0  0  0
 13 14  1  0  0  0  0
 15 16  1  0  0  0  0
 15 13  1  0  0  0  0
 17 15  2  0  0  0  0
 18 17  1  0  0  0  0
 19 17  1  0  0  0  0
 19 11  2  0  0  0  0
 20 19  1  0  0  0  0
 21 23  1  0  0  0  0
 21 24  1  0  0  0  0
 22 21  1  0  0  0  0
 25 26  1  0  0  0  0
 25  1  1  0  0  0  0
 26 27  1  0  0  0  0
 28 26  2  0  0  0  0
 28 29  1  0  0  0  0
 30 28  1  0  0  0  0
 31 30  1  0  0  0  0
 32 34  1  0  0  0  0
 32 30  2  0  0  0  0
 33 32  1  0  0  0  0
 34 25  2  0  0  0  0
 35 34  1  0  0  0  0
 36 44  1  0  0  0  0
 37 38  1  0  0  0  0
 37 36  2  0  0  0  0
 38 40  2  0  0  0  0
 39 38  1  0  0  0  0
 40 41  1  0  0  0  0
 40 42  1  0  0  0  0
 42 43  1  0  0  0  0
 44 42  2  0  0  0  0
 44 45  1  0  0  0  0
 46 47  1  0  0  0  0
 46  4  1  0  0  0  0
 48 46  1  0  0  0  0
 49 46  1  0  0  0  0
 50 51  1  0  0  0  0
 51 52  1  0  0  0  0
 51 53  2  0  0  0  0
 53 54  1  0  0  0  0
 55 56  1  0  0  0  0
 55 53  1  0  0  0  0
 57 55  2  0  0  0  0
 58 57  1  0  0  0  0
 59 57  1  0  0  0  0
 59 50  2  0  0  0  0
 60 59  1  0  0  0  0
M  END
