1,2
 OpenBabel05122313063D

 50 49  0  0  0  0  0  0  0  0999 V2000
    1.8205   -0.3132   -0.4446 P   0  0  0  0  0  0  0  0  0  0  0  0
   -1.6719   -0.3536   -0.4895 P   0  0  0  0  0  0  0  0  0  0  0  0
    1.6139   -0.0392   -2.0857 O   0  0  0  0  0  0  0  0  0  0  0  0
   -1.1886   -1.0281   -1.9482 O   0  0  0  0  0  0  0  0  0  0  0  0
    0.5078    0.6391   -2.6588 C   0  0  0  0  0  0  0  0  0  0  0  0
    0.8760    1.1327   -3.5835 H   0  0  0  0  0  0  0  0  0  0  0  0
    0.1374    1.4392   -1.9850 H   0  0  0  0  0  0  0  0  0  0  0  0
   -0.6205   -0.3019   -3.0382 C   0  0  0  0  0  0  0  0  0  0  0  0
   -1.4042    0.2818   -3.5738 H   0  0  0  0  0  0  0  0  0  0  0  0
   -0.2449   -1.0766   -3.7367 H   0  0  0  0  0  0  0  0  0  0  0  0
   -2.7723    1.0662   -1.0713 C   0  0  0  0  0  0  0  0  0  0  0  0
   -2.0416    1.7203   -1.5973 H   0  0  0  0  0  0  0  0  0  0  0  0
   -3.8277    0.6029   -2.0863 C   0  0  0  0  0  0  0  0  0  0  0  0
   -4.6856    0.1160   -1.5812 H   0  0  0  0  0  0  0  0  0  0  0  0
   -3.4295   -0.1088   -2.8345 H   0  0  0  0  0  0  0  0  0  0  0  0
   -4.2316    1.4808   -2.6301 H   0  0  0  0  0  0  0  0  0  0  0  0
   -3.4091    1.8887    0.0552 C   0  0  0  0  0  0  0  0  0  0  0  0
   -3.9518    2.7506   -0.3844 H   0  0  0  0  0  0  0  0  0  0  0  0
   -2.6729    2.2892    0.7752 H   0  0  0  0  0  0  0  0  0  0  0  0
   -4.1549    1.2985    0.6225 H   0  0  0  0  0  0  0  0  0  0  0  0
   -2.8702   -1.7094   -0.0072 C   0  0  0  0  0  0  0  0  0  0  0  0
   -3.6993   -1.5402   -0.7261 H   0  0  0  0  0  0  0  0  0  0  0  0
   -2.3316   -3.1235   -0.2570 C   0  0  0  0  0  0  0  0  0  0  0  0
   -1.5531   -3.4079    0.4750 H   0  0  0  0  0  0  0  0  0  0  0  0
   -1.9246   -3.2371   -1.2778 H   0  0  0  0  0  0  0  0  0  0  0  0
   -3.1671   -3.8428   -0.1384 H   0  0  0  0  0  0  0  0  0  0  0  0
   -3.4155   -1.5435    1.4162 C   0  0  0  0  0  0  0  0  0  0  0  0
   -4.2404   -2.2679    1.5700 H   0  0  0  0  0  0  0  0  0  0  0  0
   -3.8219   -0.5352    1.6198 H   0  0  0  0  0  0  0  0  0  0  0  0
   -2.6477   -1.7653    2.1823 H   0  0  0  0  0  0  0  0  0  0  0  0
    2.4128   -2.0773   -0.5412 C   0  0  0  0  0  0  0  0  0  0  0  0
    3.1518   -2.0032   -1.3676 H   0  0  0  0  0  0  0  0  0  0  0  0
    3.1394   -2.5235    0.7341 C   0  0  0  0  0  0  0  0  0  0  0  0
    2.4705   -2.5546    1.6152 H   0  0  0  0  0  0  0  0  0  0  0  0
    4.0077   -1.8823    0.9812 H   0  0  0  0  0  0  0  0  0  0  0  0
    3.5253   -3.5528    0.5890 H   0  0  0  0  0  0  0  0  0  0  0  0
    1.3232   -3.0534   -0.9899 C   0  0  0  0  0  0  0  0  0  0  0  0
    1.7896   -4.0298   -1.2318 H   0  0  0  0  0  0  0  0  0  0  0  0
    0.7935   -2.6959   -1.8918 H   0  0  0  0  0  0  0  0  0  0  0  0
    0.5733   -3.2370   -0.2001 H   0  0  0  0  0  0  0  0  0  0  0  0
    3.4142    0.6446   -0.1635 C   0  0  0  0  0  0  0  0  0  0  0  0
    3.7184    0.3742    0.8712 H   0  0  0  0  0  0  0  0  0  0  0  0
    3.1811    2.1599   -0.2196 C   0  0  0  0  0  0  0  0  0  0  0  0
    4.1524    2.6844   -0.1196 H   0  0  0  0  0  0  0  0  0  0  0  0
    2.5287    2.5191    0.5965 H   0  0  0  0  0  0  0  0  0  0  0  0
    2.7425    2.4628   -1.1931 H   0  0  0  0  0  0  0  0  0  0  0  0
    4.5170    0.2269   -1.1464 C   0  0  0  0  0  0  0  0  0  0  0  0
    4.1874    0.3647   -2.1953 H   0  0  0  0  0  0  0  0  0  0  0  0
    4.8401   -0.8230   -1.0167 H   0  0  0  0  0  0  0  0  0  0  0  0
    5.4102    0.8634   -0.9849 H   0  0  0  0  0  0  0  0  0  0  0  0
  1 41  1  0  0  0  0
  2 21  1  0  0  0  0
  3  1  1  0  0  0  0
  4  2  1  0  0  0  0
  5  3  1  0  0  0  0
  5  7  1  0  0  0  0
  6  5  1  0  0  0  0
  8  5  1  0  0  0  0
  8  4  1  0  0  0  0
  9  8  1  0  0  0  0
 10  8  1  0  0  0  0
 11  2  1  0  0  0  0
 11 17  1  0  0  0  0
 12 11  1  0  0  0  0
 13 14  1  0  0  0  0
 13 11  1  0  0  0  0
 15 13  1  0  0  0  0
 16 13  1  0  0  0  0
 17 20  1  0  0  0  0
 17 19  1  0  0  0  0
 18 17  1  0  0  0  0
 21 27  1  0  0  0  0
 22 21  1  0  0  0  0
 23 26  1  0  0  0  0
 23 21  1  0  0  0  0
 23 24  1  0  0  0  0
 25 23  1  0  0  0  0
 27 28  1  0  0  0  0
 27 29  1  0  0  0  0
 27 30  1  0  0  0  0
 31  1  1  0  0  0  0
 31 33  1  0  0  0  0
 32 31  1  0  0  0  0
 33 35  1  0  0  0  0
 33 34  1  0  0  0  0
 36 33  1  0  0  0  0
 37 31  1  0  0  0  0
 37 40  1  0  0  0  0
 38 37  1  0  0  0  0
 39 37  1  0  0  0  0
 41 42  1  0  0  0  0
 43 41  1  0  0  0  0
 43 44  1  0  0  0  0
 43 45  1  0  0  0  0
 46 43  1  0  0  0  0
 47 49  1  0  0  0  0
 47 50  1  0  0  0  0
 47 41  1  0  0  0  0
 48 47  1  0  0  0  0
M  END
