1,2
 OpenBabel05122313063D

 52 56  0  0  1  0  0  0  0  0999 V2000
   -1.4075    1.2625    0.1801 P   0  0  2  0  0  0  0  0  0  0  0  0
    1.4556    0.5181   -0.0668 P   0  0  2  0  0  0  0  0  0  0  0  0
   -2.8802    1.8000   -0.7394 C   0  0  0  0  0  0  0  0  0  0  0  0
   -4.1709    1.4796   -0.2692 C   0  0  0  0  0  0  0  0  0  0  0  0
   -5.2961    1.8650   -1.0120 C   0  0  0  0  0  0  0  0  0  0  0  0
   -5.1436    2.5567   -2.2239 C   0  0  0  0  0  0  0  0  0  0  0  0
   -3.8588    2.8650   -2.6993 C   0  0  0  0  0  0  0  0  0  0  0  0
   -2.7281    2.4856   -1.9622 C   0  0  0  0  0  0  0  0  0  0  0  0
   -1.5592    1.4924    1.9636 C   0  0  0  0  0  0  0  0  0  0  0  0
   -0.4347    2.0553    2.4682 C   0  0  0  0  0  0  0  0  0  0  0  0
   -0.1141    2.1095    3.9323 C   0  0  0  0  0  0  0  0  0  0  0  0
    0.5507    2.6487    1.4521 C   0  0  2  0  0  0  0  0  0  0  0  0
    0.8468    4.1070    1.8626 C   0  0  0  0  0  0  0  0  0  0  0  0
   -0.0787    2.5863    0.0107 C   0  0  1  0  0  0  0  0  0  0  0  0
    1.0514    2.1322   -0.9612 C   0  0  1  0  0  0  0  0  0  0  0  0
    2.3518    2.8974   -0.7737 C   0  0  0  0  0  0  0  0  0  0  0  0
    2.9443    3.6818   -1.8975 C   0  0  0  0  0  0  0  0  0  0  0  0
    2.8593    2.6719    0.4730 C   0  0  0  0  0  0  0  0  0  0  0  0
    4.1412    3.1600    1.0627 C   0  0  0  0  0  0  0  0  0  0  0  0
    1.8952    1.8129    1.2817 C   0  0  2  0  0  0  0  0  0  0  0  0
    3.0470   -0.1102   -0.6898 C   0  0  0  0  0  0  0  0  0  0  0  0
    4.0588   -0.5177    0.2002 C   0  0  0  0  0  0  0  0  0  0  0  0
    5.2555   -1.0500   -0.3004 C   0  0  0  0  0  0  0  0  0  0  0  0
    5.4420   -1.1861   -1.6851 C   0  0  0  0  0  0  0  0  0  0  0  0
    4.4254   -0.7969   -2.5721 C   0  0  0  0  0  0  0  0  0  0  0  0
    3.2256   -0.2664   -2.0778 C   0  0  0  0  0  0  0  0  0  0  0  0
   -4.2927    0.9146    0.6656 H   0  0  0  0  0  0  0  0  0  0  0  0
   -6.3014    1.6134   -0.6422 H   0  0  0  0  0  0  0  0  0  0  0  0
   -6.0304    2.8524   -2.8046 H   0  0  0  0  0  0  0  0  0  0  0  0
   -3.7348    3.4012   -3.6523 H   0  0  0  0  0  0  0  0  0  0  0  0
   -1.7240    2.7201   -2.3485 H   0  0  0  0  0  0  0  0  0  0  0  0
   -2.3238    0.9815    2.5663 H   0  0  0  0  0  0  0  0  0  0  0  0
    0.8745    1.6454    4.1379 H   0  0  0  0  0  0  0  0  0  0  0  0
   -0.8723    1.5695    4.5290 H   0  0  0  0  0  0  0  0  0  0  0  0
   -0.0574    3.1534    4.3053 H   0  0  0  0  0  0  0  0  0  0  0  0
    1.4072    4.6407    1.0733 H   0  0  0  0  0  0  0  0  0  0  0  0
    1.4438    4.1533    2.7954 H   0  0  0  0  0  0  0  0  0  0  0  0
   -0.1066    4.6449    2.0383 H   0  0  0  0  0  0  0  0  0  0  0  0
   -0.5417    3.5486   -0.2831 H   0  0  0  0  0  0  0  0  0  0  0  0
    0.7136    2.0220   -2.0084 H   0  0  0  0  0  0  0  0  0  0  0  0
    2.2458    4.4679   -2.2577 H   0  0  0  0  0  0  0  0  0  0  0  0
    3.1497    3.0195   -2.7675 H   0  0  0  0  0  0  0  0  0  0  0  0
    3.8953    4.1717   -1.6149 H   0  0  0  0  0  0  0  0  0  0  0  0
    3.9671    3.7481    1.9894 H   0  0  0  0  0  0  0  0  0  0  0  0
    4.7134    3.7921    0.3573 H   0  0  0  0  0  0  0  0  0  0  0  0
    4.7867    2.3005    1.3471 H   0  0  0  0  0  0  0  0  0  0  0  0
    2.2969    1.4206    2.2334 H   0  0  0  0  0  0  0  0  0  0  0  0
    3.9065   -0.4365    1.2868 H   0  0  0  0  0  0  0  0  0  0  0  0
    6.0430   -1.3720    0.3975 H   0  0  0  0  0  0  0  0  0  0  0  0
    6.3799   -1.6095   -2.0750 H   0  0  0  0  0  0  0  0  0  0  0  0
    4.5628   -0.9168   -3.6572 H   0  0  0  0  0  0  0  0  0  0  0  0
    2.4195    0.0131   -2.7736 H   0  0  0  0  0  0  0  0  0  0  0  0
  1  3  1  6  0  0  0
  1  9  1  0  0  0  0
  2 21  1  6  0  0  0
  2 20  1  0  0  0  0
  3  4  1  0  0  0  0
  4 27  1  0  0  0  0
  5 28  1  0  0  0  0
  5  4  2  0  0  0  0
  6  5  1  0  0  0  0
  7  6  2  0  0  0  0
  7  8  1  0  0  0  0
  8  3  2  0  0  0  0
  9 10  2  0  0  0  0
  9 32  1  0  0  0  0
 10 11  1  0  0  0  0
 11 33  1  0  0  0  0
 11 35  1  0  0  0  0
 11 34  1  0  0  0  0
 12 13  1  1  0  0  0
 12 10  1  0  0  0  0
 13 38  1  0  0  0  0
 13 37  1  0  0  0  0
 14 39  1  6  0  0  0
 14  1  1  0  0  0  0
 14 12  1  0  0  0  0
 15 40  1  6  0  0  0
 15 16  1  0  0  0  0
 15  2  1  0  0  0  0
 15 14  1  0  0  0  0
 16 18  2  0  0  0  0
 17 43  1  0  0  0  0
 17 16  1  0  0  0  0
 18 19  1  0  0  0  0
 18 20  1  0  0  0  0
 19 46  1  0  0  0  0
 19 44  1  0  0  0  0
 20 12  1  0  0  0  0
 20 47  1  1  0  0  0
 21 22  1  0  0  0  0
 22 48  1  0  0  0  0
 23 22  2  0  0  0  0
 23 49  1  0  0  0  0
 24 23  1  0  0  0  0
 25 26  1  0  0  0  0
 25 24  2  0  0  0  0
 26 21  2  0  0  0  0
 29  6  1  0  0  0  0
 30  7  1  0  0  0  0
 31  8  1  0  0  0  0
 36 13  1  0  0  0  0
 41 17  1  0  0  0  0
 42 17  1  0  0  0  0
 45 19  1  0  0  0  0
 50 24  1  0  0  0  0
 51 25  1  0  0  0  0
 52 26  1  0  0  0  0
M  END
