1,2
 OpenBabel05122313063D

 69 74  0  0  1  0  0  0  0  0999 V2000
    1.0642   -0.4049   -0.3637 P   0  0  2  0  0  0  0  0  0  0  0  0
   -1.9210   -0.1465    0.0447 P   0  0  0  0  0  0  0  0  0  0  0  0
    3.2059   -1.7052   -1.5232 O   0  0  0  0  0  0  0  0  0  0  0  0
    4.6711   -1.4418    0.3085 O   0  0  0  0  0  0  0  0  0  0  0  0
    3.0025   -0.2958    1.5205 O   0  0  0  0  0  0  0  0  0  0  0  0
    0.0135   -1.7243   -1.1637 C   0  0  0  0  0  0  0  0  0  0  0  0
   -1.3844   -1.5791   -0.9778 C   0  0  0  0  0  0  0  0  0  0  0  0
   -2.2876   -2.4589   -1.6023 C   0  0  0  0  0  0  0  0  0  0  0  0
   -3.3696   -2.3100   -1.4624 H   0  0  0  0  0  0  0  0  0  0  0  0
   -1.8106   -3.4967   -2.4158 C   0  0  0  0  0  0  0  0  0  0  0  0
   -2.5183   -4.1776   -2.9124 H   0  0  0  0  0  0  0  0  0  0  0  0
   -0.4279   -3.6512   -2.6019 C   0  0  0  0  0  0  0  0  0  0  0  0
   -0.0453   -4.4545   -3.2500 H   0  0  0  0  0  0  0  0  0  0  0  0
    0.4793   -2.7775   -1.9823 C   0  0  0  0  0  0  0  0  0  0  0  0
    1.5577   -2.8858   -2.1570 H   0  0  0  0  0  0  0  0  0  0  0  0
    2.6641   -0.3719   -1.4174 C   0  0  2  0  0  0  0  0  0  0  0  0
    3.7151   -2.2907   -0.3106 C   0  0  1  0  0  0  0  0  0  0  0  0
    4.1159   -0.1602    0.6223 C   0  0  2  0  0  0  0  0  0  0  0  0
    1.9664   -1.2064    1.1338 C   0  0  2  0  0  0  0  0  0  0  0  0
    3.6888    0.5031   -0.6927 C   0  0  0  0  0  0  0  0  0  0  0  0
    4.5842    0.5849   -1.3431 H   0  0  0  0  0  0  0  0  0  0  0  0
    3.2923    1.5158   -0.5073 H   0  0  0  0  0  0  0  0  0  0  0  0
    2.5840   -2.5380    0.7031 C   0  0  0  0  0  0  0  0  0  0  0  0
    1.8153   -3.2164    0.2860 H   0  0  0  0  0  0  0  0  0  0  0  0
    3.0278   -3.0251    1.5966 H   0  0  0  0  0  0  0  0  0  0  0  0
    2.3621    0.1131   -2.8246 C   0  0  0  0  0  0  0  0  0  0  0  0
    1.9832    1.1521   -2.7806 H   0  0  0  0  0  0  0  0  0  0  0  0
    3.2919    0.0931   -3.4285 H   0  0  0  0  0  0  0  0  0  0  0  0
    1.6043   -0.5238   -3.3205 H   0  0  0  0  0  0  0  0  0  0  0  0
    4.4368   -3.5564   -0.7310 C   0  0  0  0  0  0  0  0  0  0  0  0
    3.7279   -4.2669   -1.1969 H   0  0  0  0  0  0  0  0  0  0  0  0
    5.2248   -3.2948   -1.4617 H   0  0  0  0  0  0  0  0  0  0  0  0
    4.9038   -4.0316    0.1515 H   0  0  0  0  0  0  0  0  0  0  0  0
    5.1719    0.6211    1.3751 C   0  0  0  0  0  0  0  0  0  0  0  0
    4.7847    1.6287    1.6145 H   0  0  0  0  0  0  0  0  0  0  0  0
    5.4209    0.0846    2.3098 H   0  0  0  0  0  0  0  0  0  0  0  0
    6.0821    0.7141    0.7541 H   0  0  0  0  0  0  0  0  0  0  0  0
    1.0296   -1.3296    2.3197 C   0  0  0  0  0  0  0  0  0  0  0  0
    0.2208   -2.0555    2.1123 H   0  0  0  0  0  0  0  0  0  0  0  0
    1.6027   -1.6682    3.2065 H   0  0  0  0  0  0  0  0  0  0  0  0
    0.5630   -0.3511    2.5439 H   0  0  0  0  0  0  0  0  0  0  0  0
   -3.5433    0.3253   -0.6747 C   0  0  0  0  0  0  0  0  0  0  0  0
   -3.5907    0.8396   -2.0012 C   0  0  0  0  0  0  0  0  0  0  0  0
   -4.8450    1.2297   -2.5081 C   0  0  0  0  0  0  0  0  0  0  0  0
   -4.8956    1.6338   -3.5315 H   0  0  0  0  0  0  0  0  0  0  0  0
   -6.0163    1.1266   -1.7436 C   0  0  0  0  0  0  0  0  0  0  0  0
   -6.9786    1.4482   -2.1703 H   0  0  0  0  0  0  0  0  0  0  0  0
   -5.9560    0.6202   -0.4383 C   0  0  0  0  0  0  0  0  0  0  0  0
   -6.8672    0.5365    0.1728 H   0  0  0  0  0  0  0  0  0  0  0  0
   -4.7205    0.2215    0.0912 C   0  0  0  0  0  0  0  0  0  0  0  0
   -4.6684   -0.1763    1.1155 H   0  0  0  0  0  0  0  0  0  0  0  0
   -2.3581    0.9516   -2.8572 C   0  0  0  0  0  0  0  0  0  0  0  0
   -2.5332    1.6157   -3.7247 H   0  0  0  0  0  0  0  0  0  0  0  0
   -2.0379   -0.0405   -3.2405 H   0  0  0  0  0  0  0  0  0  0  0  0
   -1.5172    1.3710   -2.2634 H   0  0  0  0  0  0  0  0  0  0  0  0
   -2.3415   -0.9140    1.6755 C   0  0  0  0  0  0  0  0  0  0  0  0
   -2.4641   -0.0972    2.8347 C   0  0  0  0  0  0  0  0  0  0  0  0
   -2.7472   -0.7320    4.0620 C   0  0  0  0  0  0  0  0  0  0  0  0
   -2.8463   -0.1067    4.9632 H   0  0  0  0  0  0  0  0  0  0  0  0
   -2.8974   -2.1217    4.1627 C   0  0  0  0  0  0  0  0  0  0  0  0
   -3.1127   -2.5815    5.1392 H   0  0  0  0  0  0  0  0  0  0  0  0
   -2.7725   -2.9180    3.0159 C   0  0  0  0  0  0  0  0  0  0  0  0
   -2.8896   -4.0105    3.0760 H   0  0  0  0  0  0  0  0  0  0  0  0
   -2.4971   -2.3119    1.7824 C   0  0  0  0  0  0  0  0  0  0  0  0
   -2.3948   -2.9417    0.8874 H   0  0  0  0  0  0  0  0  0  0  0  0
   -2.2794    1.3937    2.7914 C   0  0  0  0  0  0  0  0  0  0  0  0
   -1.2175    1.6619    2.6004 H   0  0  0  0  0  0  0  0  0  0  0  0
   -2.5803    1.8607    3.7485 H   0  0  0  0  0  0  0  0  0  0  0  0
   -2.8385    1.8774    1.9652 H   0  0  0  0  0  0  0  0  0  0  0  0
  1  6  1  6  0  0  0
  1 19  1  0  0  0  0
  2 56  1  0  0  0  0
  3 16  1  0  0  0  0
  3 17  1  0  0  0  0
  4 18  1  0  0  0  0
  6  7  1  0  0  0  0
  7  2  1  0  0  0  0
  8  9  1  0  0  0  0
  8  7  2  0  0  0  0
 10  8  1  0  0  0  0
 11 10  1  0  0  0  0
 12 10  2  0  0  0  0
 12 14  1  0  0  0  0
 13 12  1  0  0  0  0
 14  6  2  0  0  0  0
 15 14  1  0  0  0  0
 16 26  1  6  0  0  0
 16 20  1  0  0  0  0
 16  1  1  0  0  0  0
 17 30  1  6  0  0  0
 17  4  1  0  0  0  0
 17 23  1  0  0  0  0
 18 34  1  1  0  0  0
 18  5  1  0  0  0  0
 19  5  1  0  0  0  0
 19 38  1  1  0  0  0
 20 22  1  0  0  0  0
 20 18  1  0  0  0  0
 21 20  1  0  0  0  0
 23 19  1  0  0  0  0
 23 25  1  0  0  0  0
 24 23  1  0  0  0  0
 26 27  1  0  0  0  0
 28 26  1  0  0  0  0
 29 26  1  0  0  0  0
 30 33  1  0  0  0  0
 31 30  1  0  0  0  0
 32 30  1  0  0  0  0
 34 35  1  0  0  0  0
 34 36  1  0  0  0  0
 37 34  1  0  0  0  0
 38 41  1  0  0  0  0
 38 40  1  0  0  0  0
 39 38  1  0  0  0  0
 42  2  1  0  0  0  0
 42 50  1  0  0  0  0
 43 42  2  0  0  0  0
 44 43  1  0  0  0  0
 44 46  2  0  0  0  0
 45 44  1  0  0  0  0
 46 48  1  0  0  0  0
 47 46  1  0  0  0  0
 48 50  2  0  0  0  0
 48 49  1  0  0  0  0
 50 51  1  0  0  0  0
 52 55  1  0  0  0  0
 52 43  1  0  0  0  0
 53 52  1  0  0  0  0
 54 52  1  0  0  0  0
 56 64  2  0  0  0  0
 56 57  1  0  0  0  0
 57 58  2  0  0  0  0
 58 60  1  0  0  0  0
 58 59  1  0  0  0  0
 60 61  1  0  0  0  0
 62 63  1  0  0  0  0
 62 60  2  0  0  0  0
 64 62  1  0  0  0  0
 65 64  1  0  0  0  0
 66 57  1  0  0  0  0
 66 68  1  0  0  0  0
 67 66  1  0  0  0  0
 69 66  1  0  0  0  0
M  END
