1,2
 OpenBabel05122313063D

 42 41  0  0  0  0  0  0  0  0999 V2000
   -1.6205    0.1350   -0.2546 P   0  0  0  0  0  0  0  0  0  0  0  0
    1.6738    0.5033   -0.5279 P   0  0  0  0  0  0  0  0  0  0  0  0
   -0.1825    2.4296    0.1812 N   0  3  0  0  0  0  0  0  0  0  0  0
   -0.0867    1.6159    0.9079 H   0  0  0  0  0  0  0  0  0  0  0  0
   -2.3706   -0.4748   -1.8366 C   0  0  0  0  0  0  0  0  0  0  0  0
   -3.2576    0.1488   -2.0754 H   0  0  0  0  0  0  0  0  0  0  0  0
   -1.6225   -0.2990   -2.6331 H   0  0  0  0  0  0  0  0  0  0  0  0
   -2.7330   -1.9584   -1.7484 C   0  0  0  0  0  0  0  0  0  0  0  0
   -3.5015   -2.1540   -0.9736 H   0  0  0  0  0  0  0  0  0  0  0  0
   -1.8445   -2.5748   -1.5048 H   0  0  0  0  0  0  0  0  0  0  0  0
   -3.1407   -2.3155   -2.7142 H   0  0  0  0  0  0  0  0  0  0  0  0
   -3.0798    0.2066    0.9065 C   0  0  0  0  0  0  0  0  0  0  0  0
   -3.2290   -0.8352    1.2577 H   0  0  0  0  0  0  0  0  0  0  0  0
   -2.7091    0.7554    1.7991 H   0  0  0  0  0  0  0  0  0  0  0  0
   -4.3871    0.7910    0.3777 C   0  0  0  0  0  0  0  0  0  0  0  0
   -5.1364    0.8430    1.1924 H   0  0  0  0  0  0  0  0  0  0  0  0
   -4.8260    0.1687   -0.4266 H   0  0  0  0  0  0  0  0  0  0  0  0
   -4.2738    1.8220   -0.0185 H   0  0  0  0  0  0  0  0  0  0  0  0
    3.3530    0.7027    0.2414 C   0  0  0  0  0  0  0  0  0  0  0  0
    3.9451    1.3656   -0.4263 H   0  0  0  0  0  0  0  0  0  0  0  0
    3.1970    1.2465    1.1964 H   0  0  0  0  0  0  0  0  0  0  0  0
    4.0726   -0.6222    0.4968 C   0  0  0  0  0  0  0  0  0  0  0  0
    5.0658   -0.4302    0.9476 H   0  0  0  0  0  0  0  0  0  0  0  0
    4.2388   -1.1992   -0.4344 H   0  0  0  0  0  0  0  0  0  0  0  0
    3.5011   -1.2614    1.1973 H   0  0  0  0  0  0  0  0  0  0  0  0
    2.1290    0.1299   -2.2840 C   0  0  0  0  0  0  0  0  0  0  0  0
    2.7827    0.9612   -2.6260 H   0  0  0  0  0  0  0  0  0  0  0  0
    2.7782   -0.7683   -2.2151 H   0  0  0  0  0  0  0  0  0  0  0  0
    0.9809   -0.1240   -3.2519 C   0  0  0  0  0  0  0  0  0  0  0  0
    0.3071    0.7528   -3.3479 H   0  0  0  0  0  0  0  0  0  0  0  0
    0.3792   -0.9975   -2.9351 H   0  0  0  0  0  0  0  0  0  0  0  0
    1.3749   -0.3393   -4.2645 H   0  0  0  0  0  0  0  0  0  0  0  0
    1.0975    2.3146   -0.5897 C   0  0  0  0  0  0  0  0  0  0  0  0
    1.8582    2.9479   -0.0945 H   0  0  0  0  0  0  0  0  0  0  0  0
    0.9409    2.6819   -1.6217 H   0  0  0  0  0  0  0  0  0  0  0  0
   -1.3710    1.9791   -0.6264 C   0  0  0  0  0  0  0  0  0  0  0  0
   -1.1812    2.1630   -1.7002 H   0  0  0  0  0  0  0  0  0  0  0  0
   -2.2547    2.5681   -0.3174 H   0  0  0  0  0  0  0  0  0  0  0  0
   -0.3640    3.7379    0.8686 C   0  0  0  0  0  0  0  0  0  0  0  0
    0.5060    3.9208    1.5260 H   0  0  0  0  0  0  0  0  0  0  0  0
   -1.2839    3.6948    1.4802 H   0  0  0  0  0  0  0  0  0  0  0  0
   -0.4479    4.5472    0.1200 H   0  0  0  0  0  0  0  0  0  0  0  0
  1 12  1  0  0  0  0
  2 19  1  0  0  0  0
  3 39  1  0  0  0  0
  3  4  1  0  0  0  0
  5  8  1  0  0  0  0
  5  1  1  0  0  0  0
  6  5  1  0  0  0  0
  7  5  1  0  0  0  0
  8 10  1  0  0  0  0
  8  9  1  0  0  0  0
 11  8  1  0  0  0  0
 12 13  1  0  0  0  0
 12 14  1  0  0  0  0
 15 12  1  0  0  0  0
 15 16  1  0  0  0  0
 17 15  1  0  0  0  0
 18 15  1  0  0  0  0
 19 22  1  0  0  0  0
 19 21  1  0  0  0  0
 20 19  1  0  0  0  0
 22 23  1  0  0  0  0
 22 25  1  0  0  0  0
 24 22  1  0  0  0  0
 26 28  1  0  0  0  0
 26  2  1  0  0  0  0
 27 26  1  0  0  0  0
 29 31  1  0  0  0  0
 29 26  1  0  0  0  0
 30 29  1  0  0  0  0
 32 29  1  0  0  0  0
 33  2  1  0  0  0  0
 33 34  1  0  0  0  0
 33  3  1  0  0  0  0
 35 33  1  0  0  0  0
 36 38  1  0  0  0  0
 36  1  1  0  0  0  0
 36  3  1  0  0  0  0
 37 36  1  0  0  0  0
 39 41  1  0  0  0  0
 39 40  1  0  0  0  0
 42 39  1  0  0  0  0
M  CHG  1   3   1
M  END
