1,2
 OpenBabel05122313063D

 58 61  0  0  0  0  0  0  0  0999 V2000
   -2.2546   -0.0353    0.3809 P   0  0  0  0  0  0  0  0  0  0  0  0
    0.9140   -0.0531    0.4510 P   0  0  0  0  0  0  0  0  0  0  0  0
   -1.3508    0.5602    1.9280 C   0  0  0  0  0  0  0  0  0  0  0  0
   -0.0088   -0.1558    2.0793 C   0  0  0  0  0  0  0  0  0  0  0  0
    2.4319   -1.0867    0.6673 C   0  0  0  0  0  0  0  0  0  0  0  0
    3.4055   -1.2699   -0.3498 C   0  0  0  0  0  0  0  0  0  0  0  0
    4.4511   -2.1906   -0.1654 C   0  0  0  0  0  0  0  0  0  0  0  0
    4.5490   -2.9515    1.0052 C   0  0  0  0  0  0  0  0  0  0  0  0
    3.5932   -2.7817    2.0130 C   0  0  0  0  0  0  0  0  0  0  0  0
    2.5551   -1.8567    1.8431 C   0  0  0  0  0  0  0  0  0  0  0  0
    3.3832   -0.5583   -1.6902 C   0  0  0  0  0  0  0  0  0  0  0  0
    2.7803    0.6546   -1.6329 F   0  0  0  0  0  0  0  0  0  0  0  0
    2.7389   -1.2890   -2.6267 F   0  0  0  0  0  0  0  0  0  0  0  0
    4.6412   -0.3475   -2.1516 F   0  0  0  0  0  0  0  0  0  0  0  0
    1.3231    1.7744    0.4304 C   0  0  0  0  0  0  0  0  0  0  0  0
    2.3264    2.4758    1.1545 C   0  0  0  0  0  0  0  0  0  0  0  0
    2.3963    3.8792    1.0684 C   0  0  0  0  0  0  0  0  0  0  0  0
    1.4822    4.6090    0.2976 C   0  0  0  0  0  0  0  0  0  0  0  0
    0.4858    3.9290   -0.4100 C   0  0  0  0  0  0  0  0  0  0  0  0
    0.4209    2.5305   -0.3451 C   0  0  0  0  0  0  0  0  0  0  0  0
    3.3812    1.7972    2.0069 C   0  0  0  0  0  0  0  0  0  0  0  0
    4.0883    2.6848    2.7439 F   0  0  0  0  0  0  0  0  0  0  0  0
    4.2771    1.1114    1.2594 F   0  0  0  0  0  0  0  0  0  0  0  0
    2.8342    0.9169    2.8926 F   0  0  0  0  0  0  0  0  0  0  0  0
   -3.2494    1.4457   -0.0917 C   0  0  0  0  0  0  0  0  0  0  0  0
   -3.4816    1.6784   -1.4618 C   0  0  0  0  0  0  0  0  0  0  0  0
   -4.2054    2.8059   -1.8776 C   0  0  0  0  0  0  0  0  0  0  0  0
   -4.6933    3.7195   -0.9294 C   0  0  0  0  0  0  0  0  0  0  0  0
   -4.4619    3.4981    0.4378 C   0  0  0  0  0  0  0  0  0  0  0  0
   -3.7480    2.3647    0.8568 C   0  0  0  0  0  0  0  0  0  0  0  0
   -3.5063   -1.2098    1.0686 C   0  0  0  0  0  0  0  0  0  0  0  0
   -4.8277   -0.8334    1.3839 C   0  0  0  0  0  0  0  0  0  0  0  0
   -5.7140   -1.7694    1.9398 C   0  0  0  0  0  0  0  0  0  0  0  0
   -5.2904   -3.0835    2.1919 C   0  0  0  0  0  0  0  0  0  0  0  0
   -3.9774   -3.4655    1.8718 C   0  0  0  0  0  0  0  0  0  0  0  0
   -3.0935   -2.5381    1.3019 C   0  0  0  0  0  0  0  0  0  0  0  0
   -1.1991    1.6528    1.8113 H   0  0  0  0  0  0  0  0  0  0  0  0
   -1.9879    0.3981    2.8203 H   0  0  0  0  0  0  0  0  0  0  0  0
   -0.1725   -1.2334    2.2832 H   0  0  0  0  0  0  0  0  0  0  0  0
    0.5941    0.2797    2.8998 H   0  0  0  0  0  0  0  0  0  0  0  0
    5.2014   -2.3036   -0.9603 H   0  0  0  0  0  0  0  0  0  0  0  0
    5.3721   -3.6706    1.1271 H   0  0  0  0  0  0  0  0  0  0  0  0
    3.6532   -3.3647    2.9441 H   0  0  0  0  0  0  0  0  0  0  0  0
    1.8305   -1.7336    2.6571 H   0  0  0  0  0  0  0  0  0  0  0  0
    3.1838    4.4040    1.6251 H   0  0  0  0  0  0  0  0  0  0  0  0
    1.5573    5.7056    0.2525 H   0  0  0  0  0  0  0  0  0  0  0  0
   -0.2456    4.4760   -1.0236 H   0  0  0  0  0  0  0  0  0  0  0  0
   -0.3521    1.9925   -0.9165 H   0  0  0  0  0  0  0  0  0  0  0  0
   -3.0641    0.9736   -2.1982 H   0  0  0  0  0  0  0  0  0  0  0  0
   -4.3794    2.9767   -2.9508 H   0  0  0  0  0  0  0  0  0  0  0  0
   -5.2520    4.6098   -1.2563 H   0  0  0  0  0  0  0  0  0  0  0  0
   -4.8397    4.2128    1.1850 H   0  0  0  0  0  0  0  0  0  0  0  0
   -3.5811    2.2009    1.9324 H   0  0  0  0  0  0  0  0  0  0  0  0
   -5.1726    0.1920    1.1850 H   0  0  0  0  0  0  0  0  0  0  0  0
   -6.7467   -1.4678    2.1734 H   0  0  0  0  0  0  0  0  0  0  0  0
   -5.9887   -3.8151    2.6262 H   0  0  0  0  0  0  0  0  0  0  0  0
   -3.6427   -4.4989    2.0495 H   0  0  0  0  0  0  0  0  0  0  0  0
   -2.0777   -2.8423    1.0031 H   0  0  0  0  0  0  0  0  0  0  0  0
  1 31  1  0  0  0  0
  1  3  1  0  0  0  0
  2  5  1  0  0  0  0
  2  4  1  0  0  0  0
  3  4  1  0  0  0  0
  3 38  1  0  0  0  0
  4 39  1  0  0  0  0
  4 40  1  0  0  0  0
  5 10  1  0  0  0  0
  6  7  1  0  0  0  0
  6  5  2  0  0  0  0
  7  8  2  0  0  0  0
  8 42  1  0  0  0  0
  8  9  1  0  0  0  0
  9 43  1  0  0  0  0
 10  9  2  0  0  0  0
 10 44  1  0  0  0  0
 11 12  1  0  0  0  0
 11  6  1  0  0  0  0
 13 11  1  0  0  0  0
 14 11  1  0  0  0  0
 15  2  1  0  0  0  0
 15 16  1  0  0  0  0
 16 21  1  0  0  0  0
 17 16  2  0  0  0  0
 17 45  1  0  0  0  0
 18 17  1  0  0  0  0
 19 20  1  0  0  0  0
 19 18  2  0  0  0  0
 20 15  2  0  0  0  0
 21 22  1  0  0  0  0
 21 24  1  0  0  0  0
 23 21  1  0  0  0  0
 25  1  1  0  0  0  0
 25 30  1  0  0  0  0
 26 25  2  0  0  0  0
 27 26  1  0  0  0  0
 27 28  2  0  0  0  0
 28 29  1  0  0  0  0
 29 30  2  0  0  0  0
 29 52  1  0  0  0  0
 30 53  1  0  0  0  0
 31 36  2  0  0  0  0
 31 32  1  0  0  0  0
 32 33  2  0  0  0  0
 33 55  1  0  0  0  0
 33 34  1  0  0  0  0
 34 56  1  0  0  0  0
 35 57  1  0  0  0  0
 35 34  2  0  0  0  0
 36 35  1  0  0  0  0
 37  3  1  0  0  0  0
 41  7  1  0  0  0  0
 46 18  1  0  0  0  0
 47 19  1  0  0  0  0
 48 20  1  0  0  0  0
 49 26  1  0  0  0  0
 50 27  1  0  0  0  0
 51 28  1  0  0  0  0
 54 32  1  0  0  0  0
 58 36  1  0  0  0  0
M  END
