1,2
 OpenBabel05122313063D

 74 79  0  0  0  0  0  0  0  0999 V2000
    1.2282   -0.1168   -1.0198 P   0  0  0  0  0  0  0  0  0  0  0  0
   -0.1744   -1.6632    0.8167 P   0  0  0  0  0  0  0  0  0  0  0  0
   -0.8226    1.4149    1.0754 P   0  0  0  0  0  0  0  0  0  0  0  0
   -1.3539    1.3025    2.4787 O   0  0  0  0  0  0  0  0  0  0  0  0
   -1.8432    1.2612   -0.1745 O   0  0  0  0  0  0  0  0  0  0  0  0
   -0.1934    2.8984    0.6932 O   0  0  0  0  0  0  0  0  0  0  0  0
    2.9239    0.5467   -0.8918 C   0  0  0  0  0  0  0  0  0  0  0  0
    3.2816    1.5726    0.0052 C   0  0  0  0  0  0  0  0  0  0  0  0
    2.5477    2.0061    0.6980 H   0  0  0  0  0  0  0  0  0  0  0  0
    4.5975    2.0593    0.0191 C   0  0  0  0  0  0  0  0  0  0  0  0
    4.8662    2.8638    0.7202 H   0  0  0  0  0  0  0  0  0  0  0  0
    5.5551    1.5209   -0.8545 C   0  0  0  0  0  0  0  0  0  0  0  0
    6.5877    1.9016   -0.8398 H   0  0  0  0  0  0  0  0  0  0  0  0
    5.1991    0.4891   -1.7394 C   0  0  0  0  0  0  0  0  0  0  0  0
    5.9524    0.0553   -2.4143 H   0  0  0  0  0  0  0  0  0  0  0  0
    3.8879   -0.0063   -1.7632 C   0  0  0  0  0  0  0  0  0  0  0  0
    3.5985   -0.8335   -2.4358 H   0  0  0  0  0  0  0  0  0  0  0  0
    0.3756    0.8509   -2.3125 C   0  0  0  0  0  0  0  0  0  0  0  0
   -0.3860    0.1556   -3.2722 C   0  0  0  0  0  0  0  0  0  0  0  0
   -0.4087   -0.9451   -3.2509 H   0  0  0  0  0  0  0  0  0  0  0  0
   -1.0618    0.8725   -4.2714 C   0  0  0  0  0  0  0  0  0  0  0  0
   -1.6492    0.3290   -5.0267 H   0  0  0  0  0  0  0  0  0  0  0  0
   -0.9765    2.2732   -4.3149 C   0  0  0  0  0  0  0  0  0  0  0  0
   -1.5089    2.8331   -5.0989 H   0  0  0  0  0  0  0  0  0  0  0  0
   -0.1967    2.9619   -3.3698 C   0  0  0  0  0  0  0  0  0  0  0  0
   -0.1166    4.0586   -3.4140 H   0  0  0  0  0  0  0  0  0  0  0  0
    0.4887    2.2541   -2.3740 C   0  0  0  0  0  0  0  0  0  0  0  0
    1.1135    2.7918   -1.6469 H   0  0  0  0  0  0  0  0  0  0  0  0
    0.3355   -2.2151    2.4765 C   0  0  0  0  0  0  0  0  0  0  0  0
    0.8533   -3.5215    2.5992 C   0  0  0  0  0  0  0  0  0  0  0  0
    0.9275   -4.1601    1.7012 H   0  0  0  0  0  0  0  0  0  0  0  0
    1.2573   -3.9824    3.8611 C   0  0  0  0  0  0  0  0  0  0  0  0
    1.6634   -5.0003    3.9605 H   0  0  0  0  0  0  0  0  0  0  0  0
    1.1521   -3.1510    4.9876 C   0  0  0  0  0  0  0  0  0  0  0  0
    1.4759   -3.5176    5.9738 H   0  0  0  0  0  0  0  0  0  0  0  0
    0.6364   -1.8504    4.8594 C   0  0  0  0  0  0  0  0  0  0  0  0
    0.5505   -1.1995    5.7428 H   0  0  0  0  0  0  0  0  0  0  0  0
    0.2250   -1.3739    3.6060 C   0  0  0  0  0  0  0  0  0  0  0  0
   -0.1954   -0.3600    3.5063 H   0  0  0  0  0  0  0  0  0  0  0  0
   -1.9976   -1.6745    0.7182 C   0  0  0  0  0  0  0  0  0  0  0  0
   -2.5822   -1.8201   -0.5569 C   0  0  0  0  0  0  0  0  0  0  0  0
   -1.9361   -1.9811   -1.4333 H   0  0  0  0  0  0  0  0  0  0  0  0
   -3.9746   -1.7563   -0.6958 C   0  0  0  0  0  0  0  0  0  0  0  0
   -4.4277   -1.8589   -1.6927 H   0  0  0  0  0  0  0  0  0  0  0  0
   -4.7868   -1.5690    0.4339 C   0  0  0  0  0  0  0  0  0  0  0  0
   -5.8799   -1.5143    0.3220 H   0  0  0  0  0  0  0  0  0  0  0  0
   -4.2050   -1.4491    1.7056 C   0  0  0  0  0  0  0  0  0  0  0  0
   -4.8402   -1.3074    2.5928 H   0  0  0  0  0  0  0  0  0  0  0  0
   -2.8117   -1.5009    1.8550 C   0  0  0  0  0  0  0  0  0  0  0  0
   -2.3614   -1.3971    2.8516 H   0  0  0  0  0  0  0  0  0  0  0  0
    0.4133    0.1537    0.6711 C   0  0  0  0  0  0  0  0  0  0  0  0
    1.2316    0.2684    1.4143 H   0  0  0  0  0  0  0  0  0  0  0  0
    0.7678    3.5843    1.4216 C   0  0  0  0  0  0  0  0  0  0  0  0
    1.4118    4.6339    0.7429 C   0  0  0  0  0  0  0  0  0  0  0  0
    1.0989    4.8741   -0.2831 H   0  0  0  0  0  0  0  0  0  0  0  0
    2.4374    5.3425    1.3822 C   0  0  0  0  0  0  0  0  0  0  0  0
    2.9435    6.1600    0.8469 H   0  0  0  0  0  0  0  0  0  0  0  0
    2.8217    5.0104    2.6924 C   0  0  0  0  0  0  0  0  0  0  0  0
    3.6306    5.5650    3.1900 H   0  0  0  0  0  0  0  0  0  0  0  0
    2.1561    3.9748    3.3659 C   0  0  0  0  0  0  0  0  0  0  0  0
    2.4367    3.7184    4.3987 H   0  0  0  0  0  0  0  0  0  0  0  0
    1.1215    3.2578    2.7431 C   0  0  0  0  0  0  0  0  0  0  0  0
    0.5740    2.4700    3.2787 H   0  0  0  0  0  0  0  0  0  0  0  0
   -3.1719    1.6673   -0.2771 C   0  0  0  0  0  0  0  0  0  0  0  0
   -3.9635    1.9848    0.8369 C   0  0  0  0  0  0  0  0  0  0  0  0
   -3.5328    1.9432    1.8463 H   0  0  0  0  0  0  0  0  0  0  0  0
   -5.3087    2.3258    0.6258 C   0  0  0  0  0  0  0  0  0  0  0  0
   -5.9389    2.5741    1.4933 H   0  0  0  0  0  0  0  0  0  0  0  0
   -5.8525    2.3454   -0.6679 C   0  0  0  0  0  0  0  0  0  0  0  0
   -6.9093    2.6104   -0.8197 H   0  0  0  0  0  0  0  0  0  0  0  0
   -5.0383    2.0286   -1.7681 C   0  0  0  0  0  0  0  0  0  0  0  0
   -5.4531    2.0453   -2.7873 H   0  0  0  0  0  0  0  0  0  0  0  0
   -3.6916    1.6902   -1.5793 C   0  0  0  0  0  0  0  0  0  0  0  0
   -3.0297    1.4376   -2.4194 H   0  0  0  0  0  0  0  0  0  0  0  0
  1  7  1  0  0  0  0
  1 51  1  0  0  0  0
  2 29  1  0  0  0  0
  3  4  2  0  0  0  0
  5  3  1  0  0  0  0
  6  3  1  0  0  0  0
  6 53  1  0  0  0  0
  7  8  1  0  0  0  0
  8 10  2  0  0  0  0
  8  9  1  0  0  0  0
 10 11  1  0  0  0  0
 12 13  1  0  0  0  0
 12 10  1  0  0  0  0
 14 12  2  0  0  0  0
 15 14  1  0  0  0  0
 16 14  1  0  0  0  0
 16  7  2  0  0  0  0
 17 16  1  0  0  0  0
 18  1  1  0  0  0  0
 19 20  1  0  0  0  0
 19 18  2  0  0  0  0
 21 19  1  0  0  0  0
 22 21  1  0  0  0  0
 23 21  2  0  0  0  0
 23 25  1  0  0  0  0
 24 23  1  0  0  0  0
 25 27  2  0  0  0  0
 26 25  1  0  0  0  0
 27 18  1  0  0  0  0
 27 28  1  0  0  0  0
 29 30  2  0  0  0  0
 29 38  1  0  0  0  0
 30 32  1  0  0  0  0
 31 30  1  0  0  0  0
 32 33  1  0  0  0  0
 32 34  2  0  0  0  0
 34 35  1  0  0  0  0
 36 34  1  0  0  0  0
 36 37  1  0  0  0  0
 38 36  2  0  0  0  0
 39 38  1  0  0  0  0
 40  2  1  0  0  0  0
 40 49  1  0  0  0  0
 41 40  2  0  0  0  0
 42 41  1  0  0  0  0
 43 41  1  0  0  0  0
 43 45  2  0  0  0  0
 44 43  1  0  0  0  0
 45 47  1  0  0  0  0
 46 45  1  0  0  0  0
 47 49  2  0  0  0  0
 47 48  1  0  0  0  0
 49 50  1  0  0  0  0
 51  2  1  0  0  0  0
 51  3  1  0  0  0  0
 51 52  1  0  0  0  0
 53 62  1  0  0  0  0
 54 56  1  0  0  0  0
 54 53  2  0  0  0  0
 55 54  1  0  0  0  0
 56 58  2  0  0  0  0
 57 56  1  0  0  0  0
 58 59  1  0  0  0  0
 58 60  1  0  0  0  0
 60 61  1  0  0  0  0
 62 63  1  0  0  0  0
 62 60  2  0  0  0  0
 64  5  1  0  0  0  0
 64 65  1  0  0  0  0
 65 66  1  0  0  0  0
 67 65  2  0  0  0  0
 67 68  1  0  0  0  0
 69 67  1  0  0  0  0
 70 69  1  0  0  0  0
 71 73  1  0  0  0  0
 71 69  2  0  0  0  0
 72 71  1  0  0  0  0
 73 64  2  0  0  0  0
 74 73  1  0  0  0  0
M  END
