1,2
 OpenBabel05122313063D

 67 73  0  0  0  0  0  0  0  0999 V2000
   -2.0628   -0.0490   -0.0922 P   0  0  0  0  0  0  0  0  0  0  0  0
    1.9866    0.0759   -0.1196 P   0  0  0  0  0  0  0  0  0  0  0  0
   -0.0583    1.8777    0.9185 O   0  0  0  0  0  0  0  0  0  0  0  0
   -0.0989    3.4587    3.1435 N   0  0  0  0  0  0  0  0  0  0  0  0
   -2.3491    1.2500    1.1842 C   0  0  0  0  0  0  0  0  0  0  0  0
   -3.6461   -0.9808   -0.0750 C   0  0  0  0  0  0  0  0  0  0  0  0
   -2.0846    0.8231   -1.7069 C   0  0  0  0  0  0  0  0  0  0  0  0
    1.8600    1.1345   -1.6162 C   0  0  0  0  0  0  0  0  0  0  0  0
    3.6129   -0.7533   -0.2783 C   0  0  0  0  0  0  0  0  0  0  0  0
   -3.5850    1.4488    1.8454 C   0  0  0  0  0  0  0  0  0  0  0  0
   -4.4708    0.8852    1.5216 H   0  0  0  0  0  0  0  0  0  0  0  0
   -3.7124   -2.1463    0.7158 C   0  0  0  0  0  0  0  0  0  0  0  0
   -2.8205   -2.4896    1.2650 H   0  0  0  0  0  0  0  0  0  0  0  0
   -2.2189    0.0380   -2.8741 C   0  0  0  0  0  0  0  0  0  0  0  0
   -2.3464   -1.0529   -2.7893 H   0  0  0  0  0  0  0  0  0  0  0  0
    1.3857    0.5396   -2.8034 C   0  0  0  0  0  0  0  0  0  0  0  0
    1.0738   -0.5169   -2.7970 H   0  0  0  0  0  0  0  0  0  0  0  0
    3.7583   -2.0282    0.3016 C   0  0  0  0  0  0  0  0  0  0  0  0
    2.9129   -2.5192    0.8073 H   0  0  0  0  0  0  0  0  0  0  0  0
   -3.6689    2.3478    2.9154 C   0  0  0  0  0  0  0  0  0  0  0  0
   -4.6338    2.5034    3.4199 H   0  0  0  0  0  0  0  0  0  0  0  0
   -4.9077   -2.8774    0.7903 C   0  0  0  0  0  0  0  0  0  0  0  0
   -4.9484   -3.7896    1.4043 H   0  0  0  0  0  0  0  0  0  0  0  0
   -2.2055    0.6442   -4.1369 C   0  0  0  0  0  0  0  0  0  0  0  0
   -2.3266    0.0251   -5.0390 H   0  0  0  0  0  0  0  0  0  0  0  0
    1.3011    1.2927   -3.9811 C   0  0  0  0  0  0  0  0  0  0  0  0
    0.9259    0.8223   -4.9017 H   0  0  0  0  0  0  0  0  0  0  0  0
    4.9842   -2.7040    0.2129 C   0  0  0  0  0  0  0  0  0  0  0  0
    5.0637   -3.7077    0.6565 H   0  0  0  0  0  0  0  0  0  0  0  0
   -2.5336    3.0386    3.3776 C   0  0  0  0  0  0  0  0  0  0  0  0
   -2.6037    3.7136    4.2444 H   0  0  0  0  0  0  0  0  0  0  0  0
   -6.0380   -2.4554    0.0728 C   0  0  0  0  0  0  0  0  0  0  0  0
   -6.9723   -3.0349    0.1256 H   0  0  0  0  0  0  0  0  0  0  0  0
   -2.0308    2.0336   -4.2514 C   0  0  0  0  0  0  0  0  0  0  0  0
   -2.0123    2.5083   -5.2441 H   0  0  0  0  0  0  0  0  0  0  0  0
    1.6722    2.6473   -3.9805 C   0  0  0  0  0  0  0  0  0  0  0  0
    1.5948    3.2398   -4.9048 H   0  0  0  0  0  0  0  0  0  0  0  0
    6.0662   -2.1093   -0.4543 C   0  0  0  0  0  0  0  0  0  0  0  0
    7.0263   -2.6423   -0.5330 H   0  0  0  0  0  0  0  0  0  0  0  0
   -1.2972    2.8586    2.7363 C   0  0  0  0  0  0  0  0  0  0  0  0
   -5.9741   -1.2974   -0.7206 C   0  0  0  0  0  0  0  0  0  0  0  0
   -6.8584   -0.9663   -1.2864 H   0  0  0  0  0  0  0  0  0  0  0  0
   -1.8683    2.8119   -3.0956 C   0  0  0  0  0  0  0  0  0  0  0  0
   -1.7180    3.8989   -3.1785 H   0  0  0  0  0  0  0  0  0  0  0  0
    2.1291    3.2471   -2.7973 C   0  0  0  0  0  0  0  0  0  0  0  0
    2.4145    4.3102   -2.7909 H   0  0  0  0  0  0  0  0  0  0  0  0
    5.9223   -0.8377   -1.0376 C   0  0  0  0  0  0  0  0  0  0  0  0
    6.7680   -0.3756   -1.5696 H   0  0  0  0  0  0  0  0  0  0  0  0
    1.1129    2.8555    2.7844 C   0  0  0  0  0  0  0  0  0  0  0  0
   -4.7841   -0.5590   -0.7953 C   0  0  0  0  0  0  0  0  0  0  0  0
   -4.7339    0.3471   -1.4180 H   0  0  0  0  0  0  0  0  0  0  0  0
   -1.8996    2.2138   -1.8267 C   0  0  0  0  0  0  0  0  0  0  0  0
   -1.7832    2.8337   -0.9263 H   0  0  0  0  0  0  0  0  0  0  0  0
    2.2269    2.4941   -1.6164 C   0  0  0  0  0  0  0  0  0  0  0  0
    2.5885    2.9648   -0.6896 H   0  0  0  0  0  0  0  0  0  0  0  0
    4.6985   -0.1575   -0.9553 C   0  0  0  0  0  0  0  0  0  0  0  0
    4.5818    0.8310   -1.4258 H   0  0  0  0  0  0  0  0  0  0  0  0
    2.3252    3.0243    3.4749 C   0  0  0  0  0  0  0  0  0  0  0  0
    2.3632    3.6888    4.3518 H   0  0  0  0  0  0  0  0  0  0  0  0
    3.4775    2.3381    3.0493 C   0  0  0  0  0  0  0  0  0  0  0  0
    4.4207    2.4838    3.5961 H   0  0  0  0  0  0  0  0  0  0  0  0
    3.4376    1.4587    1.9591 C   0  0  0  0  0  0  0  0  0  0  0  0
    4.3347    0.9030    1.6515 H   0  0  0  0  0  0  0  0  0  0  0  0
    2.2272    1.2748    1.2529 C   0  0  0  0  0  0  0  0  0  0  0  0
    1.1008    2.0012    1.6605 C   0  0  0  0  0  0  0  0  0  0  0  0
   -1.2432    1.9937    1.6194 C   0  0  0  0  0  0  0  0  0  0  0  0
   -0.1163    3.9881    4.0155 H   0  0  0  0  0  0  0  0  0  0  0  0
  1  6  1  0  0  0  0
  1  5  1  0  0  0  0
  2 64  1  0  0  0  0
  3 66  1  0  0  0  0
  3 65  1  0  0  0  0
  4 67  1  0  0  0  0
  5 66  2  0  0  0  0
  5 10  1  0  0  0  0
  6 12  1  0  0  0  0
  7  1  1  0  0  0  0
  8  2  1  0  0  0  0
  9  2  1  0  0  0  0
  9 18  1  0  0  0  0
 10 20  2  0  0  0  0
 11 10  1  0  0  0  0
 12 22  2  0  0  0  0
 12 13  1  0  0  0  0
 14 15  1  0  0  0  0
 14  7  2  0  0  0  0
 16 17  1  0  0  0  0
 16  8  2  0  0  0  0
 18 19  1  0  0  0  0
 20 30  1  0  0  0  0
 20 21  1  0  0  0  0
 22 23  1  0  0  0  0
 24 14  1  0  0  0  0
 25 24  1  0  0  0  0
 26 36  2  0  0  0  0
 26 16  1  0  0  0  0
 27 26  1  0  0  0  0
 28 18  2  0  0  0  0
 28 29  1  0  0  0  0
 30 31  1  0  0  0  0
 32 33  1  0  0  0  0
 32 22  1  0  0  0  0
 34 24  2  0  0  0  0
 34 43  1  0  0  0  0
 35 34  1  0  0  0  0
 36 45  1  0  0  0  0
 37 36  1  0  0  0  0
 38 28  1  0  0  0  0
 39 38  1  0  0  0  0
 40  4  1  0  0  0  0
 40 30  2  0  0  0  0
 41 32  2  0  0  0  0
 42 41  1  0  0  0  0
 43 52  2  0  0  0  0
 44 43  1  0  0  0  0
 45 46  1  0  0  0  0
 45 54  2  0  0  0  0
 47 56  1  0  0  0  0
 47 38  2  0  0  0  0
 48 47  1  0  0  0  0
 49  4  1  0  0  0  0
 49 58  1  0  0  0  0
 50 41  1  0  0  0  0
 50  6  2  0  0  0  0
 51 50  1  0  0  0  0
 52  7  1  0  0  0  0
 52 53  1  0  0  0  0
 54  8  1  0  0  0  0
 54 55  1  0  0  0  0
 56  9  2  0  0  0  0
 57 56  1  0  0  0  0
 58 59  1  0  0  0  0
 60 58  2  0  0  0  0
 60 61  1  0  0  0  0
 62 60  1  0  0  0  0
 63 62  1  0  0  0  0
 64 65  1  0  0  0  0
 64 62  2  0  0  0  0
 65 49  2  0  0  0  0
 66 40  1  0  0  0  0
M  END
