1,36
 OpenBabel05122313063D

 58 62  0  0  0  0  0  0  0  0999 V2000
    1.5819   -0.0653    0.3531 P   0  0  0  0  0  0  0  0  0  0  0  0
    1.0554    0.1046    2.0069 N   0  0  0  0  0  0  0  0  0  0  0  0
    1.8558    0.1550    2.6463 H   0  0  0  0  0  0  0  0  0  0  0  0
   -0.0891   -0.3943    2.6363 C   0  0  0  0  0  0  0  0  0  0  0  0
   -1.3617   -0.5028    2.0025 C   0  0  0  0  0  0  0  0  0  0  0  0
   -2.4604   -0.9842    2.7463 C   0  0  0  0  0  0  0  0  0  0  0  0
   -3.4374   -1.0675    2.2491 H   0  0  0  0  0  0  0  0  0  0  0  0
   -2.3369   -1.3428    4.0934 C   0  0  0  0  0  0  0  0  0  0  0  0
   -3.2120   -1.7089    4.6492 H   0  0  0  0  0  0  0  0  0  0  0  0
   -1.0855   -1.2259    4.7192 C   0  0  0  0  0  0  0  0  0  0  0  0
   -0.9623   -1.5056    5.7764 H   0  0  0  0  0  0  0  0  0  0  0  0
    0.0188   -0.7658    3.9987 C   0  0  0  0  0  0  0  0  0  0  0  0
    1.0033   -0.6907    4.4879 H   0  0  0  0  0  0  0  0  0  0  0  0
    3.1269   -1.0133    0.5991 C   0  0  0  0  0  0  0  0  0  0  0  0
    3.0776   -2.4211    0.5358 C   0  0  0  0  0  0  0  0  0  0  0  0
    2.1448   -2.9175    0.2292 H   0  0  0  0  0  0  0  0  0  0  0  0
    4.2242   -3.1682    0.8325 C   0  0  0  0  0  0  0  0  0  0  0  0
    4.1884   -4.2664    0.7740 H   0  0  0  0  0  0  0  0  0  0  0  0
    5.4206   -2.5193    1.1846 C   0  0  0  0  0  0  0  0  0  0  0  0
    6.3214   -3.1111    1.4081 H   0  0  0  0  0  0  0  0  0  0  0  0
    5.4717   -1.1182    1.2392 C   0  0  0  0  0  0  0  0  0  0  0  0
    6.4109   -0.6081    1.5022 H   0  0  0  0  0  0  0  0  0  0  0  0
    4.3263   -0.3608    0.9458 C   0  0  0  0  0  0  0  0  0  0  0  0
    4.3690    0.7392    0.9698 H   0  0  0  0  0  0  0  0  0  0  0  0
    2.1059    1.6359   -0.0780 C   0  0  0  0  0  0  0  0  0  0  0  0
    2.6468    1.8500   -1.3646 C   0  0  0  0  0  0  0  0  0  0  0  0
    2.7614    0.9951   -2.0524 H   0  0  0  0  0  0  0  0  0  0  0  0
    3.0021    3.1476   -1.7560 C   0  0  0  0  0  0  0  0  0  0  0  0
    3.4219    3.3153   -2.7594 H   0  0  0  0  0  0  0  0  0  0  0  0
    2.8129    4.2307   -0.8800 C   0  0  0  0  0  0  0  0  0  0  0  0
    3.0866    5.2489   -1.1963 H   0  0  0  0  0  0  0  0  0  0  0  0
    2.2660    4.0150    0.3940 C   0  0  0  0  0  0  0  0  0  0  0  0
    2.1015    4.8618    1.0773 H   0  0  0  0  0  0  0  0  0  0  0  0
    1.9120    2.7189    0.7988 C   0  0  0  0  0  0  0  0  0  0  0  0
    1.4557    2.5481    1.7845 H   0  0  0  0  0  0  0  0  0  0  0  0
   -1.5734   -0.0174    0.2493 P   0  0  0  0  0  0  0  0  0  0  0  0
   -1.4732    1.8178    0.2662 C   0  0  0  0  0  0  0  0  0  0  0  0
   -1.6841    2.5643    1.4415 C   0  0  0  0  0  0  0  0  0  0  0  0
   -1.9222    2.0472    2.3837 H   0  0  0  0  0  0  0  0  0  0  0  0
   -1.5792    3.9637    1.4073 C   0  0  0  0  0  0  0  0  0  0  0  0
   -1.7399    4.5458    2.3277 H   0  0  0  0  0  0  0  0  0  0  0  0
   -1.2672    4.6179    0.2049 C   0  0  0  0  0  0  0  0  0  0  0  0
   -1.1783    5.7147    0.1830 H   0  0  0  0  0  0  0  0  0  0  0  0
   -1.0589    3.8735   -0.9680 C   0  0  0  0  0  0  0  0  0  0  0  0
   -0.8015    4.3824   -1.9087 H   0  0  0  0  0  0  0  0  0  0  0  0
   -1.1573    2.4762   -0.9411 C   0  0  0  0  0  0  0  0  0  0  0  0
   -0.9725    1.8810   -1.8496 H   0  0  0  0  0  0  0  0  0  0  0  0
   -3.3150   -0.4188   -0.1346 C   0  0  0  0  0  0  0  0  0  0  0  0
   -4.3136    0.5727   -0.1073 C   0  0  0  0  0  0  0  0  0  0  0  0
   -4.0476    1.6179    0.1089 H   0  0  0  0  0  0  0  0  0  0  0  0
   -5.6500    0.2243   -0.3599 C   0  0  0  0  0  0  0  0  0  0  0  0
   -6.4283    1.0021   -0.3422 H   0  0  0  0  0  0  0  0  0  0  0  0
   -5.9894   -1.1088   -0.6358 C   0  0  0  0  0  0  0  0  0  0  0  0
   -7.0373   -1.3795   -0.8359 H   0  0  0  0  0  0  0  0  0  0  0  0
   -4.9909   -2.0970   -0.6673 C   0  0  0  0  0  0  0  0  0  0  0  0
   -5.2527   -3.1403   -0.8985 H   0  0  0  0  0  0  0  0  0  0  0  0
   -3.6533   -1.7567   -0.4275 C   0  0  0  0  0  0  0  0  0  0  0  0
   -2.8650   -2.5205   -0.4845 H   0  0  0  0  0  0  0  0  0  0  0  0
  1 14  1  0  0  0  0
  1  2  1  0  0  0  0
  2  4  1  0  0  0  0
  2  3  1  0  0  0  0
  4 12  1  0  0  0  0
  5  4  2  0  0  0  0
  5  6  1  0  0  0  0
  6  8  2  0  0  0  0
  7  6  1  0  0  0  0
  8  9  1  0  0  0  0
  8 10  1  0  0  0  0
 10 11  1  0  0  0  0
 12 13  1  0  0  0  0
 12 10  2  0  0  0  0
 14 23  1  0  0  0  0
 15 14  2  0  0  0  0
 15 17  1  0  0  0  0
 16 15  1  0  0  0  0
 17 19  2  0  0  0  0
 18 17  1  0  0  0  0
 19 21  1  0  0  0  0
 19 20  1  0  0  0  0
 21 22  1  0  0  0  0
 23 24  1  0  0  0  0
 23 21  2  0  0  0  0
 25  1  1  0  0  0  0
 25 34  1  0  0  0  0
 26 25  2  0  0  0  0
 27 26  1  0  0  0  0
 28 26  1  0  0  0  0
 28 30  2  0  0  0  0
 29 28  1  0  0  0  0
 30 32  1  0  0  0  0
 31 30  1  0  0  0  0
 32 34  2  0  0  0  0
 32 33  1  0  0  0  0
 34 35  1  0  0  0  0
 36 37  1  0  0  0  0
 36  5  1  0  0  0  0
 37 38  1  0  0  0  0
 38 39  1  0  0  0  0
 40 38  2  0  0  0  0
 40 41  1  0  0  0  0
 42 40  1  0  0  0  0
 43 42  1  0  0  0  0
 44 46  1  0  0  0  0
 44 42  2  0  0  0  0
 45 44  1  0  0  0  0
 46 37  2  0  0  0  0
 47 46  1  0  0  0  0
 48 49  1  0  0  0  0
 48 36  1  0  0  0  0
 49 50  1  0  0  0  0
 51 52  1  0  0  0  0
 51 49  2  0  0  0  0
 53 51  1  0  0  0  0
 54 53  1  0  0  0  0
 55 53  2  0  0  0  0
 55 57  1  0  0  0  0
 56 55  1  0  0  0  0
 57 48  2  0  0  0  0
 58 57  1  0  0  0  0
M  END
