1,28
 OpenBabel05122313063D

 52 54  0  0  1  0  0  0  0  0999 V2000
   -1.5534   -0.2482    0.0127 P   0  0  2  0  0  0  0  0  0  0  0  0
   -2.8141   -0.3084    1.4001 C   0  0  1  0  0  0  0  0  0  0  0  0
   -2.8838   -1.3900    1.6415 H   0  0  0  0  0  0  0  0  0  0  0  0
   -2.8194   -0.1496   -1.3651 C   0  0  1  0  0  0  0  0  0  0  0  0
   -2.8411    0.9460   -1.5552 H   0  0  0  0  0  0  0  0  0  0  0  0
   -0.7070   -1.8854   -0.0051 C   0  0  0  0  0  0  0  0  0  0  0  0
   -2.4370    0.4956    2.6397 C   0  0  0  0  0  0  0  0  0  0  0  0
   -1.4841    0.1352    3.0762 H   0  0  0  0  0  0  0  0  0  0  0  0
   -3.2286    0.4018    3.4103 H   0  0  0  0  0  0  0  0  0  0  0  0
   -2.3181    1.5673    2.3904 H   0  0  0  0  0  0  0  0  0  0  0  0
   -4.1582    0.0995    0.7278 C   0  0  2  0  0  0  0  0  0  0  0  0
   -4.9902   -0.3706    1.2973 H   0  0  0  0  0  0  0  0  0  0  0  0
   -2.4662   -0.8941   -2.6461 C   0  0  0  0  0  0  0  0  0  0  0  0
   -1.4926   -0.5523   -3.0507 H   0  0  0  0  0  0  0  0  0  0  0  0
   -3.2322   -0.7060   -3.4271 H   0  0  0  0  0  0  0  0  0  0  0  0
   -2.3920   -1.9885   -2.4841 H   0  0  0  0  0  0  0  0  0  0  0  0
   -4.1604   -0.5186   -0.6929 C   0  0  2  0  0  0  0  0  0  0  0  0
   -5.0032   -0.0644   -1.2632 H   0  0  0  0  0  0  0  0  0  0  0  0
   -1.4099   -3.1074   -0.0094 C   0  0  0  0  0  0  0  0  0  0  0  0
   -2.5116   -3.0890   -0.0299 H   0  0  0  0  0  0  0  0  0  0  0  0
   -0.7027   -4.3182   -0.0043 C   0  0  0  0  0  0  0  0  0  0  0  0
   -1.2539   -5.2709   -0.0088 H   0  0  0  0  0  0  0  0  0  0  0  0
   -4.4009    1.4751    0.7017 O   0  0  0  0  0  0  0  0  0  0  0  0
   -3.5771    1.9634    0.4317 H   0  0  0  0  0  0  0  0  0  0  0  0
   -4.3426   -1.9272   -0.5511 O   0  0  0  0  0  0  0  0  0  0  0  0
   -4.4768   -2.3014   -1.4407 H   0  0  0  0  0  0  0  0  0  0  0  0
    0.7071   -1.8854    0.0055 C   0  0  0  0  0  0  0  0  0  0  0  0
    1.5534   -0.2482   -0.0126 P   0  0  2  0  0  0  0  0  0  0  0  0
    2.8140   -0.3085   -1.4002 C   0  0  1  0  0  0  0  0  0  0  0  0
    2.8836   -1.3901   -1.6415 H   0  0  0  0  0  0  0  0  0  0  0  0
    2.4366    0.4953   -2.6399 C   0  0  0  0  0  0  0  0  0  0  0  0
    1.4836    0.1348   -3.0762 H   0  0  0  0  0  0  0  0  0  0  0  0
    3.2281    0.4014   -3.4106 H   0  0  0  0  0  0  0  0  0  0  0  0
    2.3176    1.5670   -2.3908 H   0  0  0  0  0  0  0  0  0  0  0  0
    4.1581    0.0997   -0.7282 C   0  0  2  0  0  0  0  0  0  0  0  0
    4.9900   -0.3704   -1.2978 H   0  0  0  0  0  0  0  0  0  0  0  0
    4.1606   -0.5183    0.6925 C   0  0  1  0  0  0  0  0  0  0  0  0
    2.8196   -0.1495    1.3650 C   0  0  2  0  0  0  0  0  0  0  0  0
    2.8413    0.9462    1.5550 H   0  0  0  0  0  0  0  0  0  0  0  0
    2.4667   -0.8940    2.6460 C   0  0  0  0  0  0  0  0  0  0  0  0
    1.4931   -0.5523    3.0508 H   0  0  0  0  0  0  0  0  0  0  0  0
    3.2328   -0.7058    3.4269 H   0  0  0  0  0  0  0  0  0  0  0  0
    2.3925   -1.9884    2.4840 H   0  0  0  0  0  0  0  0  0  0  0  0
    5.0034   -0.0640    1.2627 H   0  0  0  0  0  0  0  0  0  0  0  0
    4.3430   -1.9269    0.5509 O   0  0  0  0  0  0  0  0  0  0  0  0
    4.4775   -2.3010    1.4405 H   0  0  0  0  0  0  0  0  0  0  0  0
    4.4006    1.4753   -0.7022 O   0  0  0  0  0  0  0  0  0  0  0  0
    3.5768    1.9633   -0.4321 H   0  0  0  0  0  0  0  0  0  0  0  0
    1.4100   -3.1073    0.0098 C   0  0  0  0  0  0  0  0  0  0  0  0
    2.5117   -3.0889    0.0303 H   0  0  0  0  0  0  0  0  0  0  0  0
    0.7029   -4.3182    0.0047 C   0  0  0  0  0  0  0  0  0  0  0  0
    1.2540   -5.2708    0.0093 H   0  0  0  0  0  0  0  0  0  0  0  0
  1  6  1  6  0  0  0
  1  2  1  0  0  0  0
  2  3  1  1  0  0  0
  2  7  1  0  0  0  0
  4  5  1  6  0  0  0
  4 17  1  0  0  0  0
  4  1  1  0  0  0  0
  6 27  1  0  0  0  0
  7  8  1  0  0  0  0
  7  9  1  0  0  0  0
 10  7  1  0  0  0  0
 11 12  1  1  0  0  0
 11  2  1  0  0  0  0
 13 16  1  0  0  0  0
 13  4  1  0  0  0  0
 14 13  1  0  0  0  0
 15 13  1  0  0  0  0
 17 18  1  6  0  0  0
 17 25  1  0  0  0  0
 17 11  1  0  0  0  0
 19  6  2  0  0  0  0
 19 21  1  0  0  0  0
 20 19  1  0  0  0  0
 21 51  2  0  0  0  0
 22 21  1  0  0  0  0
 23 11  1  0  0  0  0
 24 23  1  0  0  0  0
 26 25  1  0  0  0  0
 27 49  2  0  0  0  0
 28 27  1  1  0  0  0
 28 38  1  0  0  0  0
 29 30  1  6  0  0  0
 29 35  1  0  0  0  0
 29 28  1  0  0  0  0
 31 34  1  0  0  0  0
 31 29  1  0  0  0  0
 32 31  1  0  0  0  0
 33 31  1  0  0  0  0
 35 36  1  6  0  0  0
 35 47  1  0  0  0  0
 35 37  1  0  0  0  0
 37 44  1  1  0  0  0
 37 38  1  0  0  0  0
 38 39  1  1  0  0  0
 38 40  1  0  0  0  0
 40 41  1  0  0  0  0
 40 42  1  0  0  0  0
 43 40  1  0  0  0  0
 45 37  1  0  0  0  0
 45 46  1  0  0  0  0
 47 48  1  0  0  0  0
 49 50  1  0  0  0  0
 51 52  1  0  0  0  0
 51 49  1  0  0  0  0
M  END
