1,4
 OpenBabel05122313063D

 63 68  0  0  0  0  0  0  0  0999 V2000
    1.4879    0.1186   -0.3479 P   0  0  0  0  0  0  0  0  0  0  0  0
    1.3106   -1.3790    0.5773 N   0  0  0  0  0  0  0  0  0  0  0  0
    0.1344   -2.1049    0.7650 C   0  0  0  0  0  0  0  0  0  0  0  0
   -1.6256   -0.1470   -0.2534 P   0  0  0  0  0  0  0  0  0  0  0  0
   -1.2001   -1.7880    0.4309 C   0  0  0  0  0  0  0  0  0  0  0  0
   -1.8038    0.9130    1.2411 C   0  0  0  0  0  0  0  0  0  0  0  0
   -1.9555    0.3618    2.5291 C   0  0  0  0  0  0  0  0  0  0  0  0
   -2.0000   -0.7301    2.6583 H   0  0  0  0  0  0  0  0  0  0  0  0
   -2.0407    1.2081    3.6453 C   0  0  0  0  0  0  0  0  0  0  0  0
   -2.1589    0.7743    4.6501 H   0  0  0  0  0  0  0  0  0  0  0  0
   -1.9669    2.6001    3.4817 C   0  0  0  0  0  0  0  0  0  0  0  0
   -2.0227    3.2612    4.3600 H   0  0  0  0  0  0  0  0  0  0  0  0
   -1.8162    3.1487    2.1975 C   0  0  0  0  0  0  0  0  0  0  0  0
   -1.7523    4.2393    2.0661 H   0  0  0  0  0  0  0  0  0  0  0  0
   -1.7327    2.3126    1.0759 C   0  0  0  0  0  0  0  0  0  0  0  0
   -1.6201    2.7302    0.0623 H   0  0  0  0  0  0  0  0  0  0  0  0
   -3.3160   -0.4111   -0.9052 C   0  0  0  0  0  0  0  0  0  0  0  0
   -4.4543   -0.0504   -0.1636 C   0  0  0  0  0  0  0  0  0  0  0  0
   -4.3412    0.4525    0.8083 H   0  0  0  0  0  0  0  0  0  0  0  0
   -5.7345   -0.3299   -0.6704 C   0  0  0  0  0  0  0  0  0  0  0  0
   -6.6242   -0.0422   -0.0899 H   0  0  0  0  0  0  0  0  0  0  0  0
   -5.8777   -0.9682   -1.9107 C   0  0  0  0  0  0  0  0  0  0  0  0
   -6.8816   -1.1840   -2.3068 H   0  0  0  0  0  0  0  0  0  0  0  0
   -4.7377   -1.3231   -2.6536 C   0  0  0  0  0  0  0  0  0  0  0  0
   -4.8470   -1.8115   -3.6336 H   0  0  0  0  0  0  0  0  0  0  0  0
   -3.4596   -1.0410   -2.1578 C   0  0  0  0  0  0  0  0  0  0  0  0
   -2.5654   -1.2880   -2.7496 H   0  0  0  0  0  0  0  0  0  0  0  0
   -2.1813   -2.7568    0.7244 C   0  0  0  0  0  0  0  0  0  0  0  0
   -3.2287   -2.5468    0.4646 H   0  0  0  0  0  0  0  0  0  0  0  0
   -1.8534   -3.9754    1.3565 C   0  0  0  0  0  0  0  0  0  0  0  0
   -2.6547   -4.6975    1.5729 H   0  0  0  0  0  0  0  0  0  0  0  0
   -0.5333   -4.2674    1.7171 C   0  0  0  0  0  0  0  0  0  0  0  0
   -0.2835   -5.2137    2.2207 H   0  0  0  0  0  0  0  0  0  0  0  0
    0.4776   -3.3319    1.4201 C   0  0  0  0  0  0  0  0  0  0  0  0
    1.9076   -3.3238    1.6347 C   0  0  0  0  0  0  0  0  0  0  0  0
    2.3688   -2.1349    1.1081 C   0  0  0  0  0  0  0  0  0  0  0  0
    3.3937   -1.7536    1.0490 H   0  0  0  0  0  0  0  0  0  0  0  0
    2.7131   -4.4016    2.2888 C   0  0  0  0  0  0  0  0  0  0  0  0
    2.6103   -5.3675    1.7501 H   0  0  0  0  0  0  0  0  0  0  0  0
    2.3824   -4.5815    3.3338 H   0  0  0  0  0  0  0  0  0  0  0  0
    3.7893   -4.1437    2.3150 H   0  0  0  0  0  0  0  0  0  0  0  0
    3.1324   -0.1911   -1.0861 C   0  0  0  0  0  0  0  0  0  0  0  0
    3.1956   -1.0173   -2.2261 C   0  0  0  0  0  0  0  0  0  0  0  0
    2.2647   -1.3831   -2.6854 H   0  0  0  0  0  0  0  0  0  0  0  0
    4.4381   -1.3418   -2.7818 C   0  0  0  0  0  0  0  0  0  0  0  0
    4.4860   -1.9831   -3.6747 H   0  0  0  0  0  0  0  0  0  0  0  0
    5.6203   -0.8377   -2.2110 C   0  0  0  0  0  0  0  0  0  0  0  0
    6.5957   -1.0890   -2.6545 H   0  0  0  0  0  0  0  0  0  0  0  0
    5.5558   -0.0069   -1.0828 C   0  0  0  0  0  0  0  0  0  0  0  0
    6.4787    0.3961   -0.6388 H   0  0  0  0  0  0  0  0  0  0  0  0
    4.3124    0.3183   -0.5158 C   0  0  0  0  0  0  0  0  0  0  0  0
    4.2596    0.9725    0.3672 H   0  0  0  0  0  0  0  0  0  0  0  0
    1.7184    1.3734    0.9716 C   0  0  0  0  0  0  0  0  0  0  0  0
    1.9894    2.7084    0.5985 C   0  0  0  0  0  0  0  0  0  0  0  0
    2.1023    2.9564   -0.4691 H   0  0  0  0  0  0  0  0  0  0  0  0
    2.0809    3.6996    1.5845 C   0  0  0  0  0  0  0  0  0  0  0  0
    2.2973    4.7376    1.2895 H   0  0  0  0  0  0  0  0  0  0  0  0
    1.8790    3.3770    2.9368 C   0  0  0  0  0  0  0  0  0  0  0  0
    1.9374    4.1619    3.7062 H   0  0  0  0  0  0  0  0  0  0  0  0
    1.5911    2.0540    3.3041 C   0  0  0  0  0  0  0  0  0  0  0  0
    1.4173    1.7971    4.3597 H   0  0  0  0  0  0  0  0  0  0  0  0
    1.5136    1.0502    2.3273 C   0  0  0  0  0  0  0  0  0  0  0  0
    1.2823    0.0163    2.6206 H   0  0  0  0  0  0  0  0  0  0  0  0
  1  2  1  0  0  0  0
  1 53  1  0  0  0  0
  2  3  1  0  0  0  0
  2 36  1  0  0  0  0
  3 34  1  0  0  0  0
  4  5  1  0  0  0  0
  4  6  1  0  0  0  0
  5 28  1  0  0  0  0
  5  3  2  0  0  0  0
  6  7  1  0  0  0  0
  7  8  1  0  0  0  0
  7  9  2  0  0  0  0
  9 10  1  0  0  0  0
 11  9  1  0  0  0  0
 11 12  1  0  0  0  0
 13 11  2  0  0  0  0
 14 13  1  0  0  0  0
 15  6  2  0  0  0  0
 15 13  1  0  0  0  0
 16 15  1  0  0  0  0
 17  4  1  0  0  0  0
 17 18  1  0  0  0  0
 18 19  1  0  0  0  0
 20 18  2  0  0  0  0
 20 21  1  0  0  0  0
 22 20  1  0  0  0  0
 23 22  1  0  0  0  0
 24 26  1  0  0  0  0
 24 22  2  0  0  0  0
 25 24  1  0  0  0  0
 26 17  2  0  0  0  0
 27 26  1  0  0  0  0
 28 30  2  0  0  0  0
 29 28  1  0  0  0  0
 30 31  1  0  0  0  0
 30 32  1  0  0  0  0
 32 33  1  0  0  0  0
 34 35  1  0  0  0  0
 34 32  2  0  0  0  0
 35 38  1  0  0  0  0
 36 35  2  0  0  0  0
 37 36  1  0  0  0  0
 38 41  1  0  0  0  0
 38 40  1  0  0  0  0
 39 38  1  0  0  0  0
 42 51  1  0  0  0  0
 42  1  1  0  0  0  0
 43 42  2  0  0  0  0
 44 43  1  0  0  0  0
 45 43  1  0  0  0  0
 45 47  2  0  0  0  0
 46 45  1  0  0  0  0
 47 49  1  0  0  0  0
 48 47  1  0  0  0  0
 49 50  1  0  0  0  0
 49 51  2  0  0  0  0
 51 52  1  0  0  0  0
 53 62  1  0  0  0  0
 54 53  2  0  0  0  0
 54 56  1  0  0  0  0
 55 54  1  0  0  0  0
 56 58  2  0  0  0  0
 57 56  1  0  0  0  0
 58 60  1  0  0  0  0
 58 59  1  0  0  0  0
 60 61  1  0  0  0  0
 62 63  1  0  0  0  0
 62 60  2  0  0  0  0
M  END
