1,2
 OpenBabel05122313063D

 55 57  0  0  1  0  0  0  0  0999 V2000
   -2.1937    0.9515    0.0939 P   0  0  0  0  0  0  0  0  0  0  0  0
    0.8314    0.4279    0.1380 P   0  0  2  0  0  0  0  0  0  0  0  0
    2.1877    0.1238    1.4351 C   0  0  1  0  0  0  0  0  0  0  0  0
    3.7072   -0.8801   -0.1794 C   0  0  2  0  0  0  0  0  0  0  0  0
    3.8576    1.4635    0.1034 C   0  0  1  0  0  0  0  0  0  0  0  0
    3.1113    1.3525    1.4489 C   0  0  0  0  0  0  0  0  0  0  0  0
    3.8639    1.2062    2.2516 H   0  0  0  0  0  0  0  0  0  0  0  0
    2.5600    2.2882    1.6680 H   0  0  0  0  0  0  0  0  0  0  0  0
    2.8044   -0.6919   -1.4066 C   0  0  0  0  0  0  0  0  0  0  0  0
    3.4468   -0.6607   -2.3107 H   0  0  0  0  0  0  0  0  0  0  0  0
    2.0944   -1.5427   -1.4807 H   0  0  0  0  0  0  0  0  0  0  0  0
    2.0418    0.6303   -1.3021 C   0  0  2  0  0  0  0  0  0  0  0  0
    1.5761   -0.2209    2.7821 C   0  0  0  0  0  0  0  0  0  0  0  0
    0.9397   -1.1213    2.6791 H   0  0  0  0  0  0  0  0  0  0  0  0
    0.9607    0.6149    3.1684 H   0  0  0  0  0  0  0  0  0  0  0  0
    2.3869   -0.4328    3.5080 H   0  0  0  0  0  0  0  0  0  0  0  0
    2.9408   -1.0139    1.0246 O   0  0  0  0  0  0  0  0  0  0  0  0
    4.5772    0.2581   -0.0998 O   0  0  0  0  0  0  0  0  0  0  0  0
    2.9293    1.7126   -0.9727 O   0  0  0  0  0  0  0  0  0  0  0  0
    4.5668   -2.1232   -0.2567 C   0  0  0  0  0  0  0  0  0  0  0  0
    5.2052   -2.1787    0.6450 H   0  0  0  0  0  0  0  0  0  0  0  0
    5.2070   -2.0904   -1.1575 H   0  0  0  0  0  0  0  0  0  0  0  0
    3.9082   -3.0109   -0.2952 H   0  0  0  0  0  0  0  0  0  0  0  0
    4.8560    2.6034    0.0620 C   0  0  0  0  0  0  0  0  0  0  0  0
    5.6128    2.4720    0.8575 H   0  0  0  0  0  0  0  0  0  0  0  0
    4.3375    3.5707    0.2005 H   0  0  0  0  0  0  0  0  0  0  0  0
    5.3609    2.5996   -0.9220 H   0  0  0  0  0  0  0  0  0  0  0  0
    1.3167    1.0067   -2.5814 C   0  0  0  0  0  0  0  0  0  0  0  0
    0.7684    1.9626   -2.4671 H   0  0  0  0  0  0  0  0  0  0  0  0
    0.5947    0.2122   -2.8512 H   0  0  0  0  0  0  0  0  0  0  0  0
    2.0551    1.1252   -3.3999 H   0  0  0  0  0  0  0  0  0  0  0  0
    0.1762    2.1749    0.4342 C   0  0  0  0  0  0  0  0  0  0  0  0
    0.3121    2.4169    1.5126 H   0  0  0  0  0  0  0  0  0  0  0  0
    0.7920    2.8799   -0.1615 H   0  0  0  0  0  0  0  0  0  0  0  0
   -1.1787    2.3063    0.0517 O   0  0  0  0  0  0  0  0  0  0  0  0
   -3.1416    1.1976    1.6744 C   0  0  0  0  0  0  0  0  0  0  0  0
   -3.3866    2.2831    1.6671 H   0  0  0  0  0  0  0  0  0  0  0  0
   -2.2268    0.8968    2.8687 C   0  0  0  0  0  0  0  0  0  0  0  0
   -2.7753    1.0668    3.8176 H   0  0  0  0  0  0  0  0  0  0  0  0
   -1.3305    1.5481    2.8814 H   0  0  0  0  0  0  0  0  0  0  0  0
   -1.8851   -0.1583    2.8474 H   0  0  0  0  0  0  0  0  0  0  0  0
   -4.4295    0.3657    1.7082 C   0  0  0  0  0  0  0  0  0  0  0  0
   -4.2109   -0.7111    1.5621 H   0  0  0  0  0  0  0  0  0  0  0  0
   -5.1460    0.6705    0.9203 H   0  0  0  0  0  0  0  0  0  0  0  0
   -4.9304    0.5016    2.6888 H   0  0  0  0  0  0  0  0  0  0  0  0
   -3.3312    1.3242   -1.3121 C   0  0  0  0  0  0  0  0  0  0  0  0
   -4.0667    0.4931   -1.2344 H   0  0  0  0  0  0  0  0  0  0  0  0
   -2.5716    1.1741   -2.6354 C   0  0  0  0  0  0  0  0  0  0  0  0
   -3.2656    1.3254   -3.4868 H   0  0  0  0  0  0  0  0  0  0  0  0
   -2.1272    0.1632   -2.7235 H   0  0  0  0  0  0  0  0  0  0  0  0
   -1.7607    1.9258   -2.7171 H   0  0  0  0  0  0  0  0  0  0  0  0
   -4.0187    2.6863   -1.1678 C   0  0  0  0  0  0  0  0  0  0  0  0
   -3.2720    3.5051   -1.1394 H   0  0  0  0  0  0  0  0  0  0  0  0
   -4.6427    2.7546   -0.2550 H   0  0  0  0  0  0  0  0  0  0  0  0
   -4.6837    2.8628   -2.0379 H   0  0  0  0  0  0  0  0  0  0  0  0
  1 36  1  0  0  0  0
  2 32  1  1  0  0  0
  2  3  1  0  0  0  0
  3  6  1  0  0  0  0
  3 13  1  1  0  0  0
  4 20  1  6  0  0  0
  4 18  1  0  0  0  0
  4 17  1  0  0  0  0
  5 24  1  1  0  0  0
  5  6  1  0  0  0  0
  6  8  1  0  0  0  0
  6  7  1  0  0  0  0
  9 12  1  0  0  0  0
  9  4  1  0  0  0  0
 10  9  1  0  0  0  0
 11  9  1  0  0  0  0
 12 28  1  6  0  0  0
 12 19  1  0  0  0  0
 12  2  1  0  0  0  0
 13 15  1  0  0  0  0
 13 16  1  0  0  0  0
 14 13  1  0  0  0  0
 17  3  1  0  0  0  0
 18  5  1  0  0  0  0
 19  5  1  0  0  0  0
 20 21  1  0  0  0  0
 22 20  1  0  0  0  0
 23 20  1  0  0  0  0
 24 26  1  0  0  0  0
 24 25  1  0  0  0  0
 27 24  1  0  0  0  0
 28 29  1  0  0  0  0
 30 28  1  0  0  0  0
 31 28  1  0  0  0  0
 32 33  1  0  0  0  0
 34 32  1  0  0  0  0
 35  1  1  0  0  0  0
 35 32  1  0  0  0  0
 36 42  1  0  0  0  0
 36 38  1  0  0  0  0
 37 36  1  0  0  0  0
 38 40  1  0  0  0  0
 38 39  1  0  0  0  0
 41 38  1  0  0  0  0
 42 45  1  0  0  0  0
 43 42  1  0  0  0  0
 44 42  1  0  0  0  0
 46 47  1  0  0  0  0
 46 52  1  0  0  0  0
 46  1  1  0  0  0  0
 48 46  1  0  0  0  0
 49 48  1  0  0  0  0
 50 48  1  0  0  0  0
 51 48  1  0  0  0  0
 52 53  1  0  0  0  0
 52 54  1  0  0  0  0
 55 52  1  0  0  0  0
M  END
