1,2
 OpenBabel05122313063D

 79 84  0  0  0  0  0  0  0  0999 V2000
    2.3080    0.3936    0.0299 P   0  0  0  0  0  0  0  0  0  0  0  0
   -2.3603    0.3179   -0.0365 P   0  0  0  0  0  0  0  0  0  0  0  0
    2.8341    1.4162   -2.5375 C   0  0  0  0  0  0  0  0  0  0  0  0
    3.4593    1.4508   -3.7903 C   0  0  0  0  0  0  0  0  0  0  0  0
    4.4197    0.4814   -4.1254 C   0  0  0  0  0  0  0  0  0  0  0  0
    4.7573   -0.5146   -3.1973 C   0  0  0  0  0  0  0  0  0  0  0  0
    4.1436   -0.5447   -1.9345 C   0  0  0  0  0  0  0  0  0  0  0  0
    3.1749    0.4199   -1.5977 C   0  0  0  0  0  0  0  0  0  0  0  0
    2.8801   -2.2651    0.8623 C   0  0  0  0  0  0  0  0  0  0  0  0
    3.7518   -3.2063    1.4797 C   0  0  0  0  0  0  0  0  0  0  0  0
    4.8681   -2.7942    2.2138 C   0  0  0  0  0  0  0  0  0  0  0  0
    5.1701   -1.4327    2.3645 C   0  0  0  0  0  0  0  0  0  0  0  0
    4.3454   -0.4901    1.7366 C   0  0  0  0  0  0  0  0  0  0  0  0
    3.2247   -0.8762    0.9789 C   0  0  0  0  0  0  0  0  0  0  0  0
    2.0808    2.4306    1.9505 C   0  0  0  0  0  0  0  0  0  0  0  0
    2.4359    3.6324    2.5789 C   0  0  0  0  0  0  0  0  0  0  0  0
    3.4897    4.4132    2.0756 C   0  0  0  0  0  0  0  0  0  0  0  0
    4.1967    3.9821    0.9428 C   0  0  0  0  0  0  0  0  0  0  0  0
    3.8519    2.7768    0.3107 C   0  0  0  0  0  0  0  0  0  0  0  0
    2.7884    1.9965    0.8088 C   0  0  0  0  0  0  0  0  0  0  0  0
   -2.2774    2.8595   -1.2671 C   0  0  0  0  0  0  0  0  0  0  0  0
   -2.8392    4.0582   -1.7341 C   0  0  0  0  0  0  0  0  0  0  0  0
   -4.2150    4.2937   -1.5920 C   0  0  0  0  0  0  0  0  0  0  0  0
   -5.0312    3.3311   -0.9737 C   0  0  0  0  0  0  0  0  0  0  0  0
   -4.4746    2.1340   -0.5033 C   0  0  0  0  0  0  0  0  0  0  0  0
   -3.0935    1.8864   -0.6595 C   0  0  0  0  0  0  0  0  0  0  0  0
   -2.5634   -2.3557   -0.8535 C   0  0  0  0  0  0  0  0  0  0  0  0
   -3.0056   -3.3721   -1.7442 C   0  0  0  0  0  0  0  0  0  0  0  0
   -3.8499   -3.0771   -2.8189 C   0  0  0  0  0  0  0  0  0  0  0  0
   -4.2819   -1.7636   -3.0610 C   0  0  0  0  0  0  0  0  0  0  0  0
   -3.8561   -0.7448   -2.1981 C   0  0  0  0  0  0  0  0  0  0  0  0
   -3.0184   -1.0147   -1.1010 C   0  0  0  0  0  0  0  0  0  0  0  0
   -4.2208   -0.8649    1.7623 C   0  0  0  0  0  0  0  0  0  0  0  0
   -4.8817   -0.9631    2.9976 C   0  0  0  0  0  0  0  0  0  0  0  0
   -4.5529   -0.0890    4.0445 C   0  0  0  0  0  0  0  0  0  0  0  0
   -3.5561    0.8840    3.8589 C   0  0  0  0  0  0  0  0  0  0  0  0
   -2.8859    0.9797    2.6330 C   0  0  0  0  0  0  0  0  0  0  0  0
   -3.2242    0.1108    1.5752 C   0  0  0  0  0  0  0  0  0  0  0  0
    1.7794   -2.6828    0.1532 N   0  0  0  0  0  0  0  0  0  0  0  0
    1.4053   -4.0800    0.0787 C   0  0  0  0  0  0  0  0  0  0  0  0
    0.0079   -4.3271   -0.4882 C   0  0  0  0  0  0  0  0  0  0  0  0
   -1.1601   -3.9387    0.4548 C   0  0  0  0  0  0  0  0  0  0  0  0
   -1.7535   -2.6418    0.2188 N   0  0  0  0  0  0  0  0  0  0  0  0
    2.0760    2.1726   -2.2822 H   0  0  0  0  0  0  0  0  0  0  0  0
    3.1883    2.2348   -4.5135 H   0  0  0  0  0  0  0  0  0  0  0  0
    4.9041    0.5036   -5.1135 H   0  0  0  0  0  0  0  0  0  0  0  0
    5.5095   -1.2763   -3.4532 H   0  0  0  0  0  0  0  0  0  0  0  0
    4.4223   -1.3169   -1.2025 H   0  0  0  0  0  0  0  0  0  0  0  0
    3.5436   -4.2797    1.3881 H   0  0  0  0  0  0  0  0  0  0  0  0
    5.5093   -3.5577    2.6814 H   0  0  0  0  0  0  0  0  0  0  0  0
    6.0401   -1.1060    2.9518 H   0  0  0  0  0  0  0  0  0  0  0  0
    4.5813    0.5804    1.8261 H   0  0  0  0  0  0  0  0  0  0  0  0
    1.2589    1.8114    2.3437 H   0  0  0  0  0  0  0  0  0  0  0  0
    1.8803    3.9627    3.4699 H   0  0  0  0  0  0  0  0  0  0  0  0
    3.7611    5.3594    2.5682 H   0  0  0  0  0  0  0  0  0  0  0  0
    5.0277    4.5852    0.5461 H   0  0  0  0  0  0  0  0  0  0  0  0
    4.4155    2.4414   -0.5720 H   0  0  0  0  0  0  0  0  0  0  0  0
   -1.1960    2.6740   -1.3549 H   0  0  0  0  0  0  0  0  0  0  0  0
   -2.1941    4.8148   -2.2056 H   0  0  0  0  0  0  0  0  0  0  0  0
   -4.6539    5.2351   -1.9563 H   0  0  0  0  0  0  0  0  0  0  0  0
   -6.1091    3.5169   -0.8515 H   0  0  0  0  0  0  0  0  0  0  0  0
   -5.1118    1.3870   -0.0057 H   0  0  0  0  0  0  0  0  0  0  0  0
   -2.6742   -4.4081   -1.5941 H   0  0  0  0  0  0  0  0  0  0  0  0
   -4.1671   -3.8936   -3.4861 H   0  0  0  0  0  0  0  0  0  0  0  0
   -4.9341   -1.5312   -3.9148 H   0  0  0  0  0  0  0  0  0  0  0  0
   -4.1739    0.2917   -2.3829 H   0  0  0  0  0  0  0  0  0  0  0  0
   -4.4835   -1.5436    0.9369 H   0  0  0  0  0  0  0  0  0  0  0  0
   -5.6605   -1.7279    3.1391 H   0  0  0  0  0  0  0  0  0  0  0  0
   -5.0723   -0.1676    5.0118 H   0  0  0  0  0  0  0  0  0  0  0  0
   -3.2900    1.5660    4.6807 H   0  0  0  0  0  0  0  0  0  0  0  0
   -2.0905    1.7264    2.4928 H   0  0  0  0  0  0  0  0  0  0  0  0
    1.0555   -1.9692   -0.0379 H   0  0  0  0  0  0  0  0  0  0  0  0
    1.4506   -4.5481    1.0932 H   0  0  0  0  0  0  0  0  0  0  0  0
    2.1524   -4.6309   -0.5398 H   0  0  0  0  0  0  0  0  0  0  0  0
   -0.1141   -3.8103   -1.4642 H   0  0  0  0  0  0  0  0  0  0  0  0
   -0.0567   -5.4133   -0.7072 H   0  0  0  0  0  0  0  0  0  0  0  0
   -1.9559   -4.7122    0.3948 H   0  0  0  0  0  0  0  0  0  0  0  0
   -0.8068   -3.9480    1.5066 H   0  0  0  0  0  0  0  0  0  0  0  0
   -1.3653   -1.8652    0.7721 H   0  0  0  0  0  0  0  0  0  0  0  0
  1 20  1  0  0  0  0
  1 14  1  0  0  0  0
  2 38  1  0  0  0  0
  3 44  1  0  0  0  0
  3  8  1  0  0  0  0
  4  3  2  0  0  0  0
  5  4  1  0  0  0  0
  5  6  2  0  0  0  0
  6  7  1  0  0  0  0
  7  8  2  0  0  0  0
  7 48  1  0  0  0  0
  8  1  1  0  0  0  0
  9 14  2  0  0  0  0
  9 10  1  0  0  0  0
 10 11  2  0  0  0  0
 11 12  1  0  0  0  0
 11 50  1  0  0  0  0
 12 51  1  0  0  0  0
 13 52  1  0  0  0  0
 13 12  2  0  0  0  0
 14 13  1  0  0  0  0
 15 53  1  0  0  0  0
 15 16  1  0  0  0  0
 16 54  1  0  0  0  0
 17 55  1  0  0  0  0
 17 16  2  0  0  0  0
 18 17  1  0  0  0  0
 19 20  1  0  0  0  0
 19 18  2  0  0  0  0
 20 15  2  0  0  0  0
 21 26  1  0  0  0  0
 22 23  1  0  0  0  0
 22 21  2  0  0  0  0
 23 24  2  0  0  0  0
 24 61  1  0  0  0  0
 24 25  1  0  0  0  0
 25 62  1  0  0  0  0
 26 25  2  0  0  0  0
 26  2  1  0  0  0  0
 27 43  1  0  0  0  0
 28 63  1  0  0  0  0
 28 27  2  0  0  0  0
 29 28  1  0  0  0  0
 30 29  2  0  0  0  0
 30 31  1  0  0  0  0
 31 32  2  0  0  0  0
 32 27  1  0  0  0  0
 32  2  1  0  0  0  0
 33 34  1  0  0  0  0
 34 68  1  0  0  0  0
 34 35  2  0  0  0  0
 35 69  1  0  0  0  0
 36 35  1  0  0  0  0
 36 70  1  0  0  0  0
 37 36  2  0  0  0  0
 38 33  2  0  0  0  0
 38 37  1  0  0  0  0
 39  9  1  0  0  0  0
 40 39  1  0  0  0  0
 40 73  1  0  0  0  0
 41 40  1  0  0  0  0
 41 42  1  0  0  0  0
 42 78  1  0  0  0  0
 43 42  1  0  0  0  0
 43 79  1  0  0  0  0
 45  4  1  0  0  0  0
 46  5  1  0  0  0  0
 47  6  1  0  0  0  0
 49 10  1  0  0  0  0
 56 18  1  0  0  0  0
 57 19  1  0  0  0  0
 58 21  1  0  0  0  0
 59 22  1  0  0  0  0
 60 23  1  0  0  0  0
 64 29  1  0  0  0  0
 65 30  1  0  0  0  0
 66 31  1  0  0  0  0
 67 33  1  0  0  0  0
 71 37  1  0  0  0  0
 72 39  1  0  0  0  0
 74 40  1  0  0  0  0
 75 41  1  0  0  0  0
 76 41  1  0  0  0  0
 77 42  1  0  0  0  0
M  END
