1,28
 OpenBabel05122313063D

 53 57  0  0  0  0  0  0  0  0999 V2000
    1.5468   -0.1329    0.0643 P   0  0  0  0  0  0  0  0  0  0  0  0
    0.0002   -0.7907    4.1319 S   0  0  0  0  0  0  0  0  0  0  0  0
    0.7201   -0.3402    1.6934 C   0  0  0  0  0  0  0  0  0  0  0  0
    1.2508   -0.5698    2.9495 C   0  0  0  0  0  0  0  0  0  0  0  0
    2.3072   -0.6518    3.2353 H   0  0  0  0  0  0  0  0  0  0  0  0
    2.0628    1.6373    0.0523 C   0  0  0  0  0  0  0  0  0  0  0  0
    2.7366    2.1115   -1.0931 C   0  0  0  0  0  0  0  0  0  0  0  0
    2.9610    1.4219   -1.9220 H   0  0  0  0  0  0  0  0  0  0  0  0
    3.1147    3.4570   -1.1815 C   0  0  0  0  0  0  0  0  0  0  0  0
    3.6393    3.8177   -2.0791 H   0  0  0  0  0  0  0  0  0  0  0  0
    2.8142    4.3452   -0.1346 C   0  0  0  0  0  0  0  0  0  0  0  0
    3.1029    5.4044   -0.2104 H   0  0  0  0  0  0  0  0  0  0  0  0
    2.1429    3.8786    1.0049 C   0  0  0  0  0  0  0  0  0  0  0  0
    1.9046    4.5696    1.8280 H   0  0  0  0  0  0  0  0  0  0  0  0
    1.7715    2.5277    1.1024 C   0  0  0  0  0  0  0  0  0  0  0  0
    1.2554    2.1618    2.0018 H   0  0  0  0  0  0  0  0  0  0  0  0
    3.1636   -0.9920    0.3149 C   0  0  0  0  0  0  0  0  0  0  0  0
    3.3456   -2.3067   -0.1557 C   0  0  0  0  0  0  0  0  0  0  0  0
    2.5414   -2.8100   -0.7087 H   0  0  0  0  0  0  0  0  0  0  0  0
    4.5557   -2.9776    0.0772 C   0  0  0  0  0  0  0  0  0  0  0  0
    4.6881   -4.0035   -0.2983 H   0  0  0  0  0  0  0  0  0  0  0  0
    5.5934   -2.3425    0.7764 C   0  0  0  0  0  0  0  0  0  0  0  0
    6.5434   -2.8694    0.9530 H   0  0  0  0  0  0  0  0  0  0  0  0
    5.4206   -1.0285    1.2409 C   0  0  0  0  0  0  0  0  0  0  0  0
    6.2346   -0.5213    1.7811 H   0  0  0  0  0  0  0  0  0  0  0  0
    4.2136   -0.3528    1.0088 C   0  0  0  0  0  0  0  0  0  0  0  0
    4.0887    0.6839    1.3574 H   0  0  0  0  0  0  0  0  0  0  0  0
   -1.5468   -0.1328    0.0645 P   0  0  0  0  0  0  0  0  0  0  0  0
   -0.7200   -0.3402    1.6935 C   0  0  0  0  0  0  0  0  0  0  0  0
   -1.2506   -0.5698    2.9496 C   0  0  0  0  0  0  0  0  0  0  0  0
   -2.3070   -0.6518    3.2356 H   0  0  0  0  0  0  0  0  0  0  0  0
   -2.0626    1.6374    0.0525 C   0  0  0  0  0  0  0  0  0  0  0  0
   -2.7373    2.1115   -1.0925 C   0  0  0  0  0  0  0  0  0  0  0  0
   -2.9626    1.4217   -1.9210 H   0  0  0  0  0  0  0  0  0  0  0  0
   -3.1152    3.4571   -1.1808 C   0  0  0  0  0  0  0  0  0  0  0  0
   -3.6404    3.8176   -2.0781 H   0  0  0  0  0  0  0  0  0  0  0  0
   -2.8136    4.3454   -0.1344 C   0  0  0  0  0  0  0  0  0  0  0  0
   -3.1021    5.4047   -0.2103 H   0  0  0  0  0  0  0  0  0  0  0  0
   -2.1414    3.8790    1.0046 C   0  0  0  0  0  0  0  0  0  0  0  0
   -1.9022    4.5701    1.8273 H   0  0  0  0  0  0  0  0  0  0  0  0
   -1.7702    2.5280    1.1021 C   0  0  0  0  0  0  0  0  0  0  0  0
   -1.2535    2.1622    2.0012 H   0  0  0  0  0  0  0  0  0  0  0  0
   -3.1637   -0.9918    0.3151 C   0  0  0  0  0  0  0  0  0  0  0  0
   -3.3462   -2.3062   -0.1563 C   0  0  0  0  0  0  0  0  0  0  0  0
   -2.5424   -2.8093   -0.7098 H   0  0  0  0  0  0  0  0  0  0  0  0
   -4.5564   -2.9768    0.0767 C   0  0  0  0  0  0  0  0  0  0  0  0
   -4.6893   -4.0024   -0.2995 H   0  0  0  0  0  0  0  0  0  0  0  0
   -5.5937   -2.3419    0.7767 C   0  0  0  0  0  0  0  0  0  0  0  0
   -6.5438   -2.8686    0.9533 H   0  0  0  0  0  0  0  0  0  0  0  0
   -5.4204   -1.0282    1.2419 C   0  0  0  0  0  0  0  0  0  0  0  0
   -6.2340   -0.5211    1.7828 H   0  0  0  0  0  0  0  0  0  0  0  0
   -4.2132   -0.3527    1.0098 C   0  0  0  0  0  0  0  0  0  0  0  0
   -4.0880    0.6837    1.3590 H   0  0  0  0  0  0  0  0  0  0  0  0
  1 17  1  0  0  0  0
  1  3  1  0  0  0  0
  3 29  1  0  0  0  0
  3  4  2  0  0  0  0
  4  5  1  0  0  0  0
  4  2  1  0  0  0  0
  6  1  1  0  0  0  0
  6 15  1  0  0  0  0
  7  6  2  0  0  0  0
  8  7  1  0  0  0  0
  9  7  1  0  0  0  0
  9 11  2  0  0  0  0
 10  9  1  0  0  0  0
 11 13  1  0  0  0  0
 12 11  1  0  0  0  0
 13 15  2  0  0  0  0
 13 14  1  0  0  0  0
 15 16  1  0  0  0  0
 17 26  1  0  0  0  0
 18 20  1  0  0  0  0
 18 17  2  0  0  0  0
 19 18  1  0  0  0  0
 20 22  2  0  0  0  0
 21 20  1  0  0  0  0
 22 23  1  0  0  0  0
 22 24  1  0  0  0  0
 24 25  1  0  0  0  0
 26 24  2  0  0  0  0
 26 27  1  0  0  0  0
 28 43  1  0  0  0  0
 28 29  1  0  0  0  0
 29 30  2  0  0  0  0
 30 31  1  0  0  0  0
 30  2  1  0  0  0  0
 32 28  1  0  0  0  0
 32 41  1  0  0  0  0
 33 32  2  0  0  0  0
 34 33  1  0  0  0  0
 35 33  1  0  0  0  0
 35 37  2  0  0  0  0
 36 35  1  0  0  0  0
 37 39  1  0  0  0  0
 38 37  1  0  0  0  0
 39 41  2  0  0  0  0
 39 40  1  0  0  0  0
 41 42  1  0  0  0  0
 43 52  1  0  0  0  0
 44 46  1  0  0  0  0
 44 43  2  0  0  0  0
 45 44  1  0  0  0  0
 46 48  2  0  0  0  0
 47 46  1  0  0  0  0
 48 49  1  0  0  0  0
 48 50  1  0  0  0  0
 50 51  1  0  0  0  0
 52 50  2  0  0  0  0
 52 53  1  0  0  0  0
M  END
