1,2
 OpenBabel05122313063D

 80 89  0  0  0  0  0  0  0  0999 V2000
    1.5130   -0.1088   -0.3184 P   0  0  0  0  0  0  0  0  0  0  0  0
   -1.4522   -0.0950   -0.1753 P   0  0  0  0  0  0  0  0  0  0  0  0
    0.6960    1.3726   -0.7263 N   0  0  0  0  0  0  0  0  0  0  0  0
   -0.5679    1.3641   -0.0922 N   0  0  0  0  0  0  0  0  0  0  0  0
    2.2828    0.1814    1.1143 O   0  0  0  0  0  0  0  0  0  0  0  0
    2.7291   -0.0167   -1.4309 O   0  0  0  0  0  0  0  0  0  0  0  0
   -2.3791    0.1173    1.1825 O   0  0  0  0  0  0  0  0  0  0  0  0
   -2.6115   -0.0377   -1.3785 O   0  0  0  0  0  0  0  0  0  0  0  0
    3.1783    1.2538    1.1690 C   0  0  0  0  0  0  0  0  0  0  0  0
    2.7859    2.3825    1.9283 C   0  0  0  0  0  0  0  0  0  0  0  0
    1.8193    2.3487    2.4503 H   0  0  0  0  0  0  0  0  0  0  0  0
    3.6284    3.4758    2.0092 C   0  0  0  0  0  0  0  0  0  0  0  0
    3.3446    4.3540    2.6090 H   0  0  0  0  0  0  0  0  0  0  0  0
    4.8625    3.4959    1.2955 C   0  0  0  0  0  0  0  0  0  0  0  0
    5.7111    4.6417    1.3157 C   0  0  0  0  0  0  0  0  0  0  0  0
    5.4063    5.5092    1.9215 H   0  0  0  0  0  0  0  0  0  0  0  0
    6.8861    4.6729    0.5814 C   0  0  0  0  0  0  0  0  0  0  0  0
    7.5297    5.5652    0.6032 H   0  0  0  0  0  0  0  0  0  0  0  0
    7.2509    3.5553   -0.2144 C   0  0  0  0  0  0  0  0  0  0  0  0
    8.1709    3.5911   -0.8172 H   0  0  0  0  0  0  0  0  0  0  0  0
    6.4560    2.4189   -0.2441 C   0  0  0  0  0  0  0  0  0  0  0  0
    6.7454    1.5635   -0.8692 H   0  0  0  0  0  0  0  0  0  0  0  0
    5.2528    2.3418    0.5194 C   0  0  0  0  0  0  0  0  0  0  0  0
    4.4067    1.1723    0.5083 C   0  0  0  0  0  0  0  0  0  0  0  0
    4.7964   -0.0832   -0.1891 C   0  0  0  0  0  0  0  0  0  0  0  0
    6.0216   -0.7826    0.1157 C   0  0  0  0  0  0  0  0  0  0  0  0
    6.8893   -0.3841    1.1758 C   0  0  0  0  0  0  0  0  0  0  0  0
    6.6137    0.4786    1.7971 H   0  0  0  0  0  0  0  0  0  0  0  0
    8.0612   -1.0778    1.4409 C   0  0  0  0  0  0  0  0  0  0  0  0
    8.7090   -0.7541    2.2694 H   0  0  0  0  0  0  0  0  0  0  0  0
    8.4255   -2.2060    0.6607 C   0  0  0  0  0  0  0  0  0  0  0  0
    9.3597   -2.7454    0.8775 H   0  0  0  0  0  0  0  0  0  0  0  0
    7.5911   -2.6369   -0.3587 C   0  0  0  0  0  0  0  0  0  0  0  0
    7.8487   -3.5260   -0.9549 H   0  0  0  0  0  0  0  0  0  0  0  0
    6.3727   -1.9560   -0.6495 C   0  0  0  0  0  0  0  0  0  0  0  0
    5.4833   -2.4307   -1.6576 C   0  0  0  0  0  0  0  0  0  0  0  0
    5.7550   -3.3330   -2.2258 H   0  0  0  0  0  0  0  0  0  0  0  0
    4.2748   -1.8024   -1.8900 C   0  0  0  0  0  0  0  0  0  0  0  0
    3.5451   -2.1853   -2.6148 H   0  0  0  0  0  0  0  0  0  0  0  0
    3.9512   -0.6417   -1.1498 C   0  0  0  0  0  0  0  0  0  0  0  0
    0.6621    1.7925   -2.1345 C   0  0  0  0  0  0  0  0  0  0  0  0
    1.6988    1.8642   -2.5078 H   0  0  0  0  0  0  0  0  0  0  0  0
    0.1997    2.7979   -2.1870 H   0  0  0  0  0  0  0  0  0  0  0  0
    0.0844    1.0913   -2.7788 H   0  0  0  0  0  0  0  0  0  0  0  0
   -0.9982    2.6229    0.4974 C   0  0  0  0  0  0  0  0  0  0  0  0
   -1.9363    2.4484    1.0543 H   0  0  0  0  0  0  0  0  0  0  0  0
   -1.1886    3.3981   -0.2759 H   0  0  0  0  0  0  0  0  0  0  0  0
   -0.2197    2.9912    1.1961 H   0  0  0  0  0  0  0  0  0  0  0  0
   -3.5947   -0.5667    1.2868 C   0  0  0  0  0  0  0  0  0  0  0  0
   -3.6543   -1.6567    2.1861 C   0  0  0  0  0  0  0  0  0  0  0  0
   -2.7423   -1.9445    2.7253 H   0  0  0  0  0  0  0  0  0  0  0  0
   -4.8483   -2.3348    2.3405 C   0  0  0  0  0  0  0  0  0  0  0  0
   -4.9159   -3.1836    3.0375 H   0  0  0  0  0  0  0  0  0  0  0  0
   -5.9959   -1.9803    1.5724 C   0  0  0  0  0  0  0  0  0  0  0  0
   -7.2149   -2.7112    1.6843 C   0  0  0  0  0  0  0  0  0  0  0  0
   -7.2627   -3.5415    2.4058 H   0  0  0  0  0  0  0  0  0  0  0  0
   -8.3102   -2.4008    0.8938 C   0  0  0  0  0  0  0  0  0  0  0  0
   -9.2425   -2.9777    0.9873 H   0  0  0  0  0  0  0  0  0  0  0  0
   -8.2202   -1.3487   -0.0547 C   0  0  0  0  0  0  0  0  0  0  0  0
   -9.0804   -1.1220   -0.7026 H   0  0  0  0  0  0  0  0  0  0  0  0
   -7.0532   -0.6092   -0.1809 C   0  0  0  0  0  0  0  0  0  0  0  0
   -6.9933    0.1923   -0.9295 H   0  0  0  0  0  0  0  0  0  0  0  0
   -5.9167   -0.8825    0.6372 C   0  0  0  0  0  0  0  0  0  0  0  0
   -4.6882   -0.1340    0.5350 C   0  0  0  0  0  0  0  0  0  0  0  0
   -4.5347    1.0308   -0.3765 C   0  0  0  0  0  0  0  0  0  0  0  0
   -5.3787    2.1976   -0.2991 C   0  0  0  0  0  0  0  0  0  0  0  0
   -6.3523    2.3665    0.7309 C   0  0  0  0  0  0  0  0  0  0  0  0
   -6.4600    1.5838    1.4940 H   0  0  0  0  0  0  0  0  0  0  0  0
   -7.1489    3.5008    0.7829 C   0  0  0  0  0  0  0  0  0  0  0  0
   -7.8889    3.6091    1.5902 H   0  0  0  0  0  0  0  0  0  0  0  0
   -7.0151    4.5245   -0.1919 C   0  0  0  0  0  0  0  0  0  0  0  0
   -7.6591    5.4154   -0.1443 H   0  0  0  0  0  0  0  0  0  0  0  0
   -6.0627    4.4044   -1.1915 C   0  0  0  0  0  0  0  0  0  0  0  0
   -5.9362    5.1997   -1.9426 H   0  0  0  0  0  0  0  0  0  0  0  0
   -5.2167    3.2589   -1.2660 C   0  0  0  0  0  0  0  0  0  0  0  0
   -4.2022    3.1500   -2.2619 C   0  0  0  0  0  0  0  0  0  0  0  0
   -4.0949    3.9561   -3.0038 H   0  0  0  0  0  0  0  0  0  0  0  0
   -3.3499    2.0608   -2.2849 C   0  0  0  0  0  0  0  0  0  0  0  0
   -2.5465    1.9649   -3.0288 H   0  0  0  0  0  0  0  0  0  0  0  0
   -3.5151    1.0217   -1.3344 C   0  0  0  0  0  0  0  0  0  0  0  0
  1  5  1  0  0  0  0
  2  4  1  0  0  0  0
  2  7  1  0  0  0  0
  3  1  1  0  0  0  0
  3  4  1  0  0  0  0
  4 45  1  0  0  0  0
  5  9  1  0  0  0  0
  6 40  1  0  0  0  0
  6  1  1  0  0  0  0
  7 49  1  0  0  0  0
  8 80  1  0  0  0  0
  8  2  1  0  0  0  0
  9 10  1  0  0  0  0
 10 12  2  0  0  0  0
 10 11  1  0  0  0  0
 12 13  1  0  0  0  0
 14 15  1  0  0  0  0
 14 12  1  0  0  0  0
 15 16  1  0  0  0  0
 17 18  1  0  0  0  0
 17 15  2  0  0  0  0
 19 17  1  0  0  0  0
 20 19  1  0  0  0  0
 21 19  2  0  0  0  0
 21 23  1  0  0  0  0
 22 21  1  0  0  0  0
 23 14  2  0  0  0  0
 24 23  1  0  0  0  0
 24  9  2  0  0  0  0
 25 26  1  0  0  0  0
 25 24  1  0  0  0  0
 26 27  1  0  0  0  0
 27 29  2  0  0  0  0
 27 28  1  0  0  0  0
 29 30  1  0  0  0  0
 31 32  1  0  0  0  0
 31 29  1  0  0  0  0
 33 31  2  0  0  0  0
 34 33  1  0  0  0  0
 35 33  1  0  0  0  0
 35 26  2  0  0  0  0
 36 35  1  0  0  0  0
 37 36  1  0  0  0  0
 38 36  2  0  0  0  0
 38 40  1  0  0  0  0
 39 38  1  0  0  0  0
 40 25  2  0  0  0  0
 41  3  1  0  0  0  0
 42 41  1  0  0  0  0
 43 41  1  0  0  0  0
 44 41  1  0  0  0  0
 45 46  1  0  0  0  0
 45 48  1  0  0  0  0
 47 45  1  0  0  0  0
 49 50  1  0  0  0  0
 50 52  2  0  0  0  0
 50 51  1  0  0  0  0
 52 53  1  0  0  0  0
 54 55  1  0  0  0  0
 54 52  1  0  0  0  0
 55 56  1  0  0  0  0
 57 58  1  0  0  0  0
 57 55  2  0  0  0  0
 59 57  1  0  0  0  0
 60 59  1  0  0  0  0
 61 59  2  0  0  0  0
 61 63  1  0  0  0  0
 62 61  1  0  0  0  0
 63 54  2  0  0  0  0
 64 63  1  0  0  0  0
 64 49  2  0  0  0  0
 65 66  1  0  0  0  0
 65 64  1  0  0  0  0
 66 67  1  0  0  0  0
 67 69  2  0  0  0  0
 67 68  1  0  0  0  0
 69 70  1  0  0  0  0
 71 72  1  0  0  0  0
 71 69  1  0  0  0  0
 73 71  2  0  0  0  0
 74 73  1  0  0  0  0
 75 73  1  0  0  0  0
 75 66  2  0  0  0  0
 76 75  1  0  0  0  0
 77 76  1  0  0  0  0
 78 76  2  0  0  0  0
 78 80  1  0  0  0  0
 79 78  1  0  0  0  0
 80 65  2  0  0  0  0
M  END
