1,2
 OpenBabel05122313063D

 61 64  0  0  0  0  0  0  0  0999 V2000
    1.7164   -0.0665    0.1491 P   0  0  0  0  0  0  0  0  0  0  0  0
   -1.7025   -0.0379    0.2229 P   0  0  0  0  0  0  0  0  0  0  0  0
    2.7014    1.3458   -0.5107 C   0  0  0  0  0  0  0  0  0  0  0  0
    2.7867    1.5230   -1.9078 C   0  0  0  0  0  0  0  0  0  0  0  0
    2.2791    0.8036   -2.5711 H   0  0  0  0  0  0  0  0  0  0  0  0
    3.5389    2.5823   -2.4363 C   0  0  0  0  0  0  0  0  0  0  0  0
    3.5981    2.7090   -3.5279 H   0  0  0  0  0  0  0  0  0  0  0  0
    4.2118    3.4723   -1.5850 C   0  0  0  0  0  0  0  0  0  0  0  0
    4.7984    4.3040   -2.0041 H   0  0  0  0  0  0  0  0  0  0  0  0
    4.1349    3.2973   -0.1945 C   0  0  0  0  0  0  0  0  0  0  0  0
    4.6611    3.9880    0.4818 H   0  0  0  0  0  0  0  0  0  0  0  0
    3.3839    2.2407    0.3426 C   0  0  0  0  0  0  0  0  0  0  0  0
    3.3352    2.1299    1.4355 H   0  0  0  0  0  0  0  0  0  0  0  0
    2.9144   -1.4177    0.4883 C   0  0  0  0  0  0  0  0  0  0  0  0
    2.4344   -2.7424    0.5223 C   0  0  0  0  0  0  0  0  0  0  0  0
    1.3868   -2.9476    0.2512 H   0  0  0  0  0  0  0  0  0  0  0  0
    3.3001   -3.7909    0.8615 C   0  0  0  0  0  0  0  0  0  0  0  0
    2.9230   -4.8245    0.8783 H   0  0  0  0  0  0  0  0  0  0  0  0
    4.6481   -3.5259    1.1544 C   0  0  0  0  0  0  0  0  0  0  0  0
    5.3291   -4.3522    1.4093 H   0  0  0  0  0  0  0  0  0  0  0  0
    5.1296   -2.2087    1.1073 C   0  0  0  0  0  0  0  0  0  0  0  0
    6.1882   -1.9986    1.3234 H   0  0  0  0  0  0  0  0  0  0  0  0
    4.2661   -1.1527    0.7762 C   0  0  0  0  0  0  0  0  0  0  0  0
    4.6512   -0.1231    0.7273 H   0  0  0  0  0  0  0  0  0  0  0  0
   -2.7001    1.3677   -0.4181 C   0  0  0  0  0  0  0  0  0  0  0  0
   -2.4517    1.8701   -1.7105 C   0  0  0  0  0  0  0  0  0  0  0  0
   -1.7041    1.3723   -2.3459 H   0  0  0  0  0  0  0  0  0  0  0  0
   -3.1805    2.9703   -2.1864 C   0  0  0  0  0  0  0  0  0  0  0  0
   -2.9789    3.3570   -3.1966 H   0  0  0  0  0  0  0  0  0  0  0  0
   -4.1655    3.5682   -1.3852 C   0  0  0  0  0  0  0  0  0  0  0  0
   -4.7368    4.4299   -1.7630 H   0  0  0  0  0  0  0  0  0  0  0  0
   -4.4276    3.0606   -0.1022 C   0  0  0  0  0  0  0  0  0  0  0  0
   -5.2066    3.5178    0.5265 H   0  0  0  0  0  0  0  0  0  0  0  0
   -3.6968    1.9658    0.3819 C   0  0  0  0  0  0  0  0  0  0  0  0
   -3.9198    1.5712    1.3853 H   0  0  0  0  0  0  0  0  0  0  0  0
   -2.8792   -1.3956    0.5958 C   0  0  0  0  0  0  0  0  0  0  0  0
   -2.3942   -2.5170    1.2997 C   0  0  0  0  0  0  0  0  0  0  0  0
   -1.3382   -2.5594    1.6123 H   0  0  0  0  0  0  0  0  0  0  0  0
   -3.2428   -3.5978    1.5735 C   0  0  0  0  0  0  0  0  0  0  0  0
   -2.8564   -4.4709    2.1207 H   0  0  0  0  0  0  0  0  0  0  0  0
   -4.5770   -3.5715    1.1356 C   0  0  0  0  0  0  0  0  0  0  0  0
   -5.2425   -4.4224    1.3457 H   0  0  0  0  0  0  0  0  0  0  0  0
   -5.0544   -2.4661    0.4150 C   0  0  0  0  0  0  0  0  0  0  0  0
   -6.0934   -2.4505    0.0525 H   0  0  0  0  0  0  0  0  0  0  0  0
   -4.2092   -1.3812    0.1377 C   0  0  0  0  0  0  0  0  0  0  0  0
   -4.5781   -0.5286   -0.4496 H   0  0  0  0  0  0  0  0  0  0  0  0
    1.2831    0.4172    1.8852 C   0  0  0  0  0  0  0  0  0  0  0  0
    1.1270   -0.5464    2.4123 H   0  0  0  0  0  0  0  0  0  0  0  0
    2.1704    0.8720    2.3661 H   0  0  0  0  0  0  0  0  0  0  0  0
    0.0504    1.3235    2.0978 C   0  0  0  0  0  0  0  0  0  0  0  0
   -1.2509    0.5050    1.9509 C   0  0  0  0  0  0  0  0  0  0  0  0
   -2.1094    1.0829    2.3416 H   0  0  0  0  0  0  0  0  0  0  0  0
   -1.1842   -0.4181    2.5610 H   0  0  0  0  0  0  0  0  0  0  0  0
    0.0377    2.5663    1.1747 C   0  0  0  0  0  0  0  0  0  0  0  0
    0.9352    3.1929    1.3370 H   0  0  0  0  0  0  0  0  0  0  0  0
   -0.8666    3.1766    1.3610 H   0  0  0  0  0  0  0  0  0  0  0  0
    0.0291    2.2608    0.1091 H   0  0  0  0  0  0  0  0  0  0  0  0
    0.1516    1.8761    3.5354 C   0  0  0  0  0  0  0  0  0  0  0  0
    1.1732    1.9368    4.1927 O   0  0  0  0  0  0  0  0  0  0  0  0
   -1.0310    2.3597    3.9872 O   0  0  0  0  0  0  0  0  0  0  0  0
   -0.8420    2.7332    4.8758 H   0  0  0  0  0  0  0  0  0  0  0  0
  1 14  1  0  0  0  0
  1 47  1  0  0  0  0
  2 36  1  0  0  0  0
  2 51  1  0  0  0  0
  3  1  1  0  0  0  0
  3 12  1  0  0  0  0
  4  3  2  0  0  0  0
  5  4  1  0  0  0  0
  6  4  1  0  0  0  0
  6  8  2  0  0  0  0
  7  6  1  0  0  0  0
  8 10  1  0  0  0  0
  9  8  1  0  0  0  0
 10 12  2  0  0  0  0
 10 11  1  0  0  0  0
 12 13  1  0  0  0  0
 14 15  2  0  0  0  0
 14 23  1  0  0  0  0
 15 17  1  0  0  0  0
 16 15  1  0  0  0  0
 17 18  1  0  0  0  0
 17 19  2  0  0  0  0
 19 20  1  0  0  0  0
 21 19  1  0  0  0  0
 21 22  1  0  0  0  0
 23 21  2  0  0  0  0
 24 23  1  0  0  0  0
 25  2  1  0  0  0  0
 25 34  1  0  0  0  0
 26 25  2  0  0  0  0
 27 26  1  0  0  0  0
 28 26  1  0  0  0  0
 28 30  2  0  0  0  0
 29 28  1  0  0  0  0
 30 32  1  0  0  0  0
 31 30  1  0  0  0  0
 32 34  2  0  0  0  0
 32 33  1  0  0  0  0
 34 35  1  0  0  0  0
 36 37  1  0  0  0  0
 37 39  2  0  0  0  0
 37 38  1  0  0  0  0
 39 40  1  0  0  0  0
 41 42  1  0  0  0  0
 41 39  1  0  0  0  0
 43 41  2  0  0  0  0
 44 43  1  0  0  0  0
 45 43  1  0  0  0  0
 45 36  2  0  0  0  0
 46 45  1  0  0  0  0
 47 50  1  0  0  0  0
 47 49  1  0  0  0  0
 47 48  1  0  0  0  0
 50 58  1  0  0  0  0
 51 50  1  0  0  0  0
 51 52  1  0  0  0  0
 51 53  1  0  0  0  0
 54 55  1  0  0  0  0
 54 56  1  0  0  0  0
 54 50  1  0  0  0  0
 57 54  1  0  0  0  0
 58 60  1  0  0  0  0
 58 59  2  0  0  0  0
 60 61  1  0  0  0  0
M  END
