1,2
 OpenBabel05122313063D

 64 69  0  0  0  0  0  0  0  0999 V2000
   -0.7130   -1.5999    0.0429 P   0  0  0  0  0  0  0  0  0  0  0  0
   -0.7140    1.5994   -0.0435 P   0  0  0  0  0  0  0  0  0  0  0  0
    2.7155   -2.3000    0.2344 O   0  0  0  0  0  0  0  0  0  0  0  0
    3.1183    0.0009   -0.0011 N   0  0  0  0  0  0  0  0  0  0  0  0
    4.5444    0.0014   -0.0010 C   0  0  0  0  0  0  0  0  0  0  0  0
   -0.6020   -2.6774   -1.4331 C   0  0  0  0  0  0  0  0  0  0  0  0
   -0.6021    2.6765    1.4327 C   0  0  0  0  0  0  0  0  0  0  0  0
    0.1057   -2.2800    2.6425 C   0  0  0  0  0  0  0  0  0  0  0  0
    0.6581   -1.3274    2.6426 H   0  0  0  0  0  0  0  0  0  0  0  0
   -0.6156   -2.6851    1.5022 C   0  0  0  0  0  0  0  0  0  0  0  0
   -0.6189    2.6853   -1.5024 C   0  0  0  0  0  0  0  0  0  0  0  0
    0.4047   -3.6619   -1.5299 C   0  0  0  0  0  0  0  0  0  0  0  0
    1.1331   -3.7902   -0.7154 H   0  0  0  0  0  0  0  0  0  0  0  0
   -1.5330    2.4992    2.4757 C   0  0  0  0  0  0  0  0  0  0  0  0
   -2.3374    1.7565    2.3646 H   0  0  0  0  0  0  0  0  0  0  0  0
   -1.4489    3.3065    3.6198 C   0  0  0  0  0  0  0  0  0  0  0  0
   -2.1801    3.1745    4.4313 H   0  0  0  0  0  0  0  0  0  0  0  0
    0.1047    2.2836   -2.6424 C   0  0  0  0  0  0  0  0  0  0  0  0
    0.6605    1.3330   -2.6428 H   0  0  0  0  0  0  0  0  0  0  0  0
    0.1138   -3.0906    3.7859 C   0  0  0  0  0  0  0  0  0  0  0  0
    0.6843   -2.7772    4.6730 H   0  0  0  0  0  0  0  0  0  0  0  0
    0.4035    3.6623    1.5284 C   0  0  0  0  0  0  0  0  0  0  0  0
    1.1305    3.7916    0.7129 H   0  0  0  0  0  0  0  0  0  0  0  0
   -1.4511   -3.3091   -3.6189 C   0  0  0  0  0  0  0  0  0  0  0  0
   -2.1836   -3.1781   -4.4294 H   0  0  0  0  0  0  0  0  0  0  0  0
   -0.4467    4.2839    3.7225 C   0  0  0  0  0  0  0  0  0  0  0  0
   -0.3861    4.9166    4.6212 H   0  0  0  0  0  0  0  0  0  0  0  0
   -1.5345   -2.5015   -2.4748 C   0  0  0  0  0  0  0  0  0  0  0  0
   -2.3396   -1.7597   -2.3628 H   0  0  0  0  0  0  0  0  0  0  0  0
    0.4759    4.4619    2.6774 C   0  0  0  0  0  0  0  0  0  0  0  0
    1.2588    5.2315    2.7554 H   0  0  0  0  0  0  0  0  0  0  0  0
   -1.3519   -3.8868    1.5168 C   0  0  0  0  0  0  0  0  0  0  0  0
   -1.9443   -4.1760    0.6370 H   0  0  0  0  0  0  0  0  0  0  0  0
   -0.6062   -4.2961    3.7973 C   0  0  0  0  0  0  0  0  0  0  0  0
   -0.6000   -4.9306    4.6964 H   0  0  0  0  0  0  0  0  0  0  0  0
   -1.3398   -4.6889    2.6660 C   0  0  0  0  0  0  0  0  0  0  0  0
   -1.9147   -5.6270    2.6789 H   0  0  0  0  0  0  0  0  0  0  0  0
   -0.4478   -4.2852   -3.7227 C   0  0  0  0  0  0  0  0  0  0  0  0
   -0.3878   -4.9182   -4.6213 H   0  0  0  0  0  0  0  0  0  0  0  0
    0.8822   -0.6767    0.0488 C   0  0  0  0  0  0  0  0  0  0  0  0
    2.7140    2.3015   -0.2367 O   0  0  0  0  0  0  0  0  0  0  0  0
    2.3108   -1.1595    0.1088 C   0  0  0  0  0  0  0  0  0  0  0  0
    2.3101    1.1608   -0.1110 C   0  0  0  0  0  0  0  0  0  0  0  0
    0.8817    0.6771   -0.0510 C   0  0  0  0  0  0  0  0  0  0  0  0
    5.2452   -1.0026   -0.6963 C   0  0  0  0  0  0  0  0  0  0  0  0
    4.6939   -1.7863   -1.2311 H   0  0  0  0  0  0  0  0  0  0  0  0
    0.1108    3.0951   -3.7851 C   0  0  0  0  0  0  0  0  0  0  0  0
    0.6831    2.7844   -4.6720 H   0  0  0  0  0  0  0  0  0  0  0  0
    5.2445    1.0058    0.6944 C   0  0  0  0  0  0  0  0  0  0  0  0
    4.6926    1.7892    1.2291 H   0  0  0  0  0  0  0  0  0  0  0  0
   -1.3492    4.6875   -2.6652 C   0  0  0  0  0  0  0  0  0  0  0  0
   -1.9274    5.6235   -2.6779 H   0  0  0  0  0  0  0  0  0  0  0  0
   -0.6133    4.2981   -3.7963 C   0  0  0  0  0  0  0  0  0  0  0  0
   -0.6087    4.9333   -4.6949 H   0  0  0  0  0  0  0  0  0  0  0  0
   -1.3595    3.8844   -1.5167 C   0  0  0  0  0  0  0  0  0  0  0  0
   -1.9537    4.1707   -0.6371 H   0  0  0  0  0  0  0  0  0  0  0  0
    7.3514    0.0023   -0.0008 C   0  0  0  0  0  0  0  0  0  0  0  0
    8.4516    0.0027   -0.0007 H   0  0  0  0  0  0  0  0  0  0  0  0
    6.6457    1.0043    0.6832 C   0  0  0  0  0  0  0  0  0  0  0  0
    7.1899    1.7943    1.2221 H   0  0  0  0  0  0  0  0  0  0  0  0
    6.6465   -1.0001   -0.6848 C   0  0  0  0  0  0  0  0  0  0  0  0
    7.1912   -1.7898   -1.2237 H   0  0  0  0  0  0  0  0  0  0  0  0
    0.4765   -4.4618   -2.6788 C   0  0  0  0  0  0  0  0  0  0  0  0
    1.2601   -5.2305   -2.7577 H   0  0  0  0  0  0  0  0  0  0  0  0
  1 40  1  0  0  0  0
  1 10  1  0  0  0  0
  2  7  1  0  0  0  0
  4  5  1  0  0  0  0
  4 42  1  0  0  0  0
  5 49  1  0  0  0  0
  6  1  1  0  0  0  0
  7 22  2  0  0  0  0
  7 14  1  0  0  0  0
  8  9  1  0  0  0  0
  8 20  1  0  0  0  0
 10 32  1  0  0  0  0
 10  8  2  0  0  0  0
 11  2  1  0  0  0  0
 12  6  1  0  0  0  0
 12 13  1  0  0  0  0
 14 16  2  0  0  0  0
 15 14  1  0  0  0  0
 16 26  1  0  0  0  0
 16 17  1  0  0  0  0
 18 11  2  0  0  0  0
 19 18  1  0  0  0  0
 20 34  2  0  0  0  0
 20 21  1  0  0  0  0
 22 30  1  0  0  0  0
 23 22  1  0  0  0  0
 24 28  1  0  0  0  0
 25 24  1  0  0  0  0
 26 27  1  0  0  0  0
 28 29  1  0  0  0  0
 28  6  2  0  0  0  0
 30 31  1  0  0  0  0
 30 26  2  0  0  0  0
 32 36  2  0  0  0  0
 33 32  1  0  0  0  0
 34 35  1  0  0  0  0
 36 37  1  0  0  0  0
 36 34  1  0  0  0  0
 38 24  2  0  0  0  0
 38 63  1  0  0  0  0
 39 38  1  0  0  0  0
 40 42  1  0  0  0  0
 41 43  2  0  0  0  0
 42  3  2  0  0  0  0
 43 44  1  0  0  0  0
 43  4  1  0  0  0  0
 44  2  1  0  0  0  0
 44 40  2  0  0  0  0
 45 61  1  0  0  0  0
 45  5  2  0  0  0  0
 46 45  1  0  0  0  0
 47 18  1  0  0  0  0
 48 47  1  0  0  0  0
 49 50  1  0  0  0  0
 51 55  2  0  0  0  0
 52 51  1  0  0  0  0
 53 47  2  0  0  0  0
 53 51  1  0  0  0  0
 54 53  1  0  0  0  0
 55 11  1  0  0  0  0
 55 56  1  0  0  0  0
 57 58  1  0  0  0  0
 57 59  1  0  0  0  0
 59 49  2  0  0  0  0
 59 60  1  0  0  0  0
 61 57  2  0  0  0  0
 62 61  1  0  0  0  0
 63 12  2  0  0  0  0
 64 63  1  0  0  0  0
M  END
