1,2
 OpenBabel05122313063D

 51 54  0  0  0  0  0  0  0  0999 V2000
    1.3333    0.0711   -0.3689 P   0  0  0  0  0  0  0  0  0  0  0  0
   -1.3169   -0.1568   -0.3817 P   0  0  0  0  0  0  0  0  0  0  0  0
    0.0153   -0.0647   -1.4984 N   0  0  0  0  0  0  0  0  0  0  0  0
   -0.0133    0.2214   -2.9230 C   0  0  0  0  0  0  0  0  0  0  0  0
    2.5050   -1.2944   -0.6459 C   0  0  0  0  0  0  0  0  0  0  0  0
    2.6368   -1.9477   -1.8884 C   0  0  0  0  0  0  0  0  0  0  0  0
    3.5554   -2.9992   -2.0263 C   0  0  0  0  0  0  0  0  0  0  0  0
    4.3413   -3.3952   -0.9315 C   0  0  0  0  0  0  0  0  0  0  0  0
    4.2038   -2.7465    0.3067 C   0  0  0  0  0  0  0  0  0  0  0  0
    3.2829   -1.6999    0.4598 C   0  0  0  0  0  0  0  0  0  0  0  0
    2.2047    1.6055   -0.8266 C   0  0  0  0  0  0  0  0  0  0  0  0
    1.5238    2.8229   -0.6094 C   0  0  0  0  0  0  0  0  0  0  0  0
    2.1311    4.0329   -0.9644 C   0  0  0  0  0  0  0  0  0  0  0  0
    3.4206    4.0358   -1.5256 C   0  0  0  0  0  0  0  0  0  0  0  0
    4.1024    2.8268   -1.7319 C   0  0  0  0  0  0  0  0  0  0  0  0
    3.4980    1.6082   -1.3837 C   0  0  0  0  0  0  0  0  0  0  0  0
   -2.4656    1.2091   -0.7493 C   0  0  0  0  0  0  0  0  0  0  0  0
   -3.2507    1.2112   -1.9229 C   0  0  0  0  0  0  0  0  0  0  0  0
   -4.0720    2.3114   -2.2087 C   0  0  0  0  0  0  0  0  0  0  0  0
   -4.1237    3.3992   -1.3206 C   0  0  0  0  0  0  0  0  0  0  0  0
   -3.3603    3.3869   -0.1421 C   0  0  0  0  0  0  0  0  0  0  0  0
   -2.5281    2.2956    0.1480 C   0  0  0  0  0  0  0  0  0  0  0  0
   -2.2145   -1.6884   -0.7711 C   0  0  0  0  0  0  0  0  0  0  0  0
   -1.5408   -2.7541   -1.4005 C   0  0  0  0  0  0  0  0  0  0  0  0
   -2.2091   -3.9672   -1.6177 C   0  0  0  0  0  0  0  0  0  0  0  0
   -3.5388   -4.1245   -1.1931 C   0  0  0  0  0  0  0  0  0  0  0  0
   -4.2012   -3.0693   -0.5442 C   0  0  0  0  0  0  0  0  0  0  0  0
   -3.5437   -1.8501   -0.3291 C   0  0  0  0  0  0  0  0  0  0  0  0
   -0.2835   -0.6747   -3.5231 H   0  0  0  0  0  0  0  0  0  0  0  0
    0.9864    0.5753   -3.2455 H   0  0  0  0  0  0  0  0  0  0  0  0
   -0.7378    1.0315   -3.1533 H   0  0  0  0  0  0  0  0  0  0  0  0
    2.0229   -1.6420   -2.7485 H   0  0  0  0  0  0  0  0  0  0  0  0
    3.6567   -3.5132   -2.9942 H   0  0  0  0  0  0  0  0  0  0  0  0
    5.0599   -4.2214   -1.0433 H   0  0  0  0  0  0  0  0  0  0  0  0
    4.8088   -3.0665    1.1684 H   0  0  0  0  0  0  0  0  0  0  0  0
    3.1379   -1.2025    1.4361 H   0  0  0  0  0  0  0  0  0  0  0  0
    0.5231    2.8078   -0.1487 H   0  0  0  0  0  0  0  0  0  0  0  0
    1.6014    4.9817   -0.7915 H   0  0  0  0  0  0  0  0  0  0  0  0
    3.8995    4.9892   -1.7957 H   0  0  0  0  0  0  0  0  0  0  0  0
    5.1145    2.8300   -2.1638 H   0  0  0  0  0  0  0  0  0  0  0  0
    4.0324    0.6586   -1.5379 H   0  0  0  0  0  0  0  0  0  0  0  0
   -3.2317    0.3451   -2.6026 H   0  0  0  0  0  0  0  0  0  0  0  0
   -4.6817    2.3166   -3.1249 H   0  0  0  0  0  0  0  0  0  0  0  0
   -4.7753    4.2577   -1.5443 H   0  0  0  0  0  0  0  0  0  0  0  0
   -3.4197    4.2286    0.5641 H   0  0  0  0  0  0  0  0  0  0  0  0
   -1.9479    2.2511    1.0841 H   0  0  0  0  0  0  0  0  0  0  0  0
   -0.4900   -2.6284   -1.7037 H   0  0  0  0  0  0  0  0  0  0  0  0
   -1.6856   -4.7981   -2.1143 H   0  0  0  0  0  0  0  0  0  0  0  0
   -4.0595   -5.0795   -1.3604 H   0  0  0  0  0  0  0  0  0  0  0  0
   -5.2372   -3.1983   -0.1967 H   0  0  0  0  0  0  0  0  0  0  0  0
   -4.0530   -1.0274    0.1954 H   0  0  0  0  0  0  0  0  0  0  0  0
  3  2  1  0  0  0  0
  3  1  1  0  0  0  0
  4  3  1  0  0  0  0
  5  1  1  0  0  0  0
  5 10  1  0  0  0  0
  6  5  2  0  0  0  0
  7  6  1  0  0  0  0
  7  8  2  0  0  0  0
  8  9  1  0  0  0  0
  9 10  2  0  0  0  0
  9 35  1  0  0  0  0
 10 36  1  0  0  0  0
 11 12  1  0  0  0  0
 11  1  1  0  0  0  0
 12 37  1  0  0  0  0
 13 38  1  0  0  0  0
 13 12  2  0  0  0  0
 14 13  1  0  0  0  0
 15 14  2  0  0  0  0
 15 16  1  0  0  0  0
 16 11  2  0  0  0  0
 17  2  1  0  0  0  0
 17 22  1  0  0  0  0
 18 17  2  0  0  0  0
 19 18  1  0  0  0  0
 19 20  2  0  0  0  0
 20 21  1  0  0  0  0
 21 22  2  0  0  0  0
 21 45  1  0  0  0  0
 22 46  1  0  0  0  0
 23  2  1  0  0  0  0
 23 28  1  0  0  0  0
 24 23  2  0  0  0  0
 25 24  1  0  0  0  0
 25 26  2  0  0  0  0
 26 27  1  0  0  0  0
 27 28  2  0  0  0  0
 27 50  1  0  0  0  0
 28 51  1  0  0  0  0
 29  4  1  0  0  0  0
 30  4  1  0  0  0  0
 31  4  1  0  0  0  0
 32  6  1  0  0  0  0
 33  7  1  0  0  0  0
 34  8  1  0  0  0  0
 39 14  1  0  0  0  0
 40 15  1  0  0  0  0
 41 16  1  0  0  0  0
 42 18  1  0  0  0  0
 43 19  1  0  0  0  0
 44 20  1  0  0  0  0
 47 24  1  0  0  0  0
 48 25  1  0  0  0  0
 49 26  1  0  0  0  0
M  END
