1,8
 OpenBabel05122313063D

 68 69  0  0  0  0  0  0  0  0999 V2000
    2.2659   -0.4879    0.3081 P   0  0  0  0  0  0  0  0  0  0  0  0
    0.5946    2.3096    0.7460 C   0  0  0  0  0  0  0  0  0  0  0  0
    0.5449    3.2462    1.3396 H   0  0  0  0  0  0  0  0  0  0  0  0
    0.5668    1.4708    1.4662 H   0  0  0  0  0  0  0  0  0  0  0  0
   -0.6489    2.2017   -0.1757 C   0  0  0  0  0  0  0  0  0  0  0  0
   -0.6712    3.0921   -0.8410 H   0  0  0  0  0  0  0  0  0  0  0  0
   -0.4787    1.3349   -0.8439 H   0  0  0  0  0  0  0  0  0  0  0  0
   -2.2878   -0.6040   -0.4489 P   0  0  0  0  0  0  0  0  0  0  0  0
    3.2658    3.6708   -1.6042 C   0  0  0  0  0  0  0  0  0  0  0  0
    3.5216    4.6525   -2.0310 H   0  0  0  0  0  0  0  0  0  0  0  0
    2.2192    3.5563   -0.6812 C   0  0  0  0  0  0  0  0  0  0  0  0
    1.6462    4.4543   -0.3984 H   0  0  0  0  0  0  0  0  0  0  0  0
    1.8509    2.3224   -0.1044 C   0  0  0  0  0  0  0  0  0  0  0  0
    2.6050    1.1637   -0.4604 C   0  0  0  0  0  0  0  0  0  0  0  0
    3.9679    2.5216   -1.9888 C   0  0  0  0  0  0  0  0  0  0  0  0
    4.7783    2.5804   -2.7308 H   0  0  0  0  0  0  0  0  0  0  0  0
    3.6370    1.2865   -1.4165 C   0  0  0  0  0  0  0  0  0  0  0  0
    4.1998    0.3992   -1.7323 H   0  0  0  0  0  0  0  0  0  0  0  0
   -3.7243    3.2018    1.8548 C   0  0  0  0  0  0  0  0  0  0  0  0
   -4.0580    4.0904    2.4120 H   0  0  0  0  0  0  0  0  0  0  0  0
   -2.4701    3.1951    1.2318 C   0  0  0  0  0  0  0  0  0  0  0  0
   -1.8310    4.0905    1.2953 H   0  0  0  0  0  0  0  0  0  0  0  0
   -1.9959    2.0806    0.5100 C   0  0  0  0  0  0  0  0  0  0  0  0
   -2.8344    0.9290    0.4294 C   0  0  0  0  0  0  0  0  0  0  0  0
   -4.5532    2.0767    1.7518 C   0  0  0  0  0  0  0  0  0  0  0  0
   -5.5468    2.0669    2.2245 H   0  0  0  0  0  0  0  0  0  0  0  0
   -4.1067    0.9549    1.0407 C   0  0  0  0  0  0  0  0  0  0  0  0
   -4.7651    0.0775    0.9705 H   0  0  0  0  0  0  0  0  0  0  0  0
    3.3712   -1.7403   -0.5457 C   0  0  0  0  0  0  0  0  0  0  0  0
    3.2131   -1.4752   -1.6135 H   0  0  0  0  0  0  0  0  0  0  0  0
    2.8068   -0.2713    2.0953 C   0  0  0  0  0  0  0  0  0  0  0  0
    1.9398    0.2875    2.5085 H   0  0  0  0  0  0  0  0  0  0  0  0
    4.8652   -1.6854   -0.2022 C   0  0  0  0  0  0  0  0  0  0  0  0
    5.4242   -2.3589   -0.8852 H   0  0  0  0  0  0  0  0  0  0  0  0
    5.0571   -2.0382    0.8302 H   0  0  0  0  0  0  0  0  0  0  0  0
    5.3020   -0.6730   -0.2969 H   0  0  0  0  0  0  0  0  0  0  0  0
    2.8418   -1.6144    2.8334 C   0  0  0  0  0  0  0  0  0  0  0  0
    2.9652   -1.4313    3.9209 H   0  0  0  0  0  0  0  0  0  0  0  0
    3.6877   -2.2522    2.5083 H   0  0  0  0  0  0  0  0  0  0  0  0
    1.8926   -2.1676    2.6955 H   0  0  0  0  0  0  0  0  0  0  0  0
    4.0755    0.5640    2.2943 C   0  0  0  0  0  0  0  0  0  0  0  0
    4.2111    0.7664    3.3776 H   0  0  0  0  0  0  0  0  0  0  0  0
    4.0176    1.5398    1.7741 H   0  0  0  0  0  0  0  0  0  0  0  0
    4.9857    0.0420    1.9411 H   0  0  0  0  0  0  0  0  0  0  0  0
   -3.3729   -2.0267    0.1140 C   0  0  0  0  0  0  0  0  0  0  0  0
   -4.4191   -1.7299   -0.1155 H   0  0  0  0  0  0  0  0  0  0  0  0
   -2.8219   -0.3358   -2.2399 C   0  0  0  0  0  0  0  0  0  0  0  0
   -2.3815   -1.2144   -2.7586 H   0  0  0  0  0  0  0  0  0  0  0  0
   -3.2594   -2.3442    1.6073 C   0  0  0  0  0  0  0  0  0  0  0  0
   -3.9759   -3.1537    1.8597 H   0  0  0  0  0  0  0  0  0  0  0  0
   -3.4769   -1.4700    2.2491 H   0  0  0  0  0  0  0  0  0  0  0  0
   -2.2370   -2.6804    1.8631 H   0  0  0  0  0  0  0  0  0  0  0  0
   -3.0049   -3.2534   -0.7362 C   0  0  0  0  0  0  0  0  0  0  0  0
   -3.6074   -4.1266   -0.4121 H   0  0  0  0  0  0  0  0  0  0  0  0
   -1.9328   -3.5086   -0.6068 H   0  0  0  0  0  0  0  0  0  0  0  0
   -3.1861   -3.1021   -1.8181 H   0  0  0  0  0  0  0  0  0  0  0  0
   -4.3462   -0.3245   -2.4028 C   0  0  0  0  0  0  0  0  0  0  0  0
   -4.6016   -0.1310   -3.4654 H   0  0  0  0  0  0  0  0  0  0  0  0
   -4.8110    0.4834   -1.7997 H   0  0  0  0  0  0  0  0  0  0  0  0
   -4.8224   -1.2840   -2.1231 H   0  0  0  0  0  0  0  0  0  0  0  0
   -2.1938    0.9206   -2.8512 C   0  0  0  0  0  0  0  0  0  0  0  0
   -2.5065    0.9994   -3.9130 H   0  0  0  0  0  0  0  0  0  0  0  0
   -1.0894    0.8670   -2.8318 H   0  0  0  0  0  0  0  0  0  0  0  0
   -2.5342    1.8411   -2.3348 H   0  0  0  0  0  0  0  0  0  0  0  0
    2.7938   -3.1524   -0.3556 C   0  0  0  0  0  0  0  0  0  0  0  0
    3.3938   -3.8770   -0.9446 H   0  0  0  0  0  0  0  0  0  0  0  0
    1.7481   -3.1981   -0.7157 H   0  0  0  0  0  0  0  0  0  0  0  0
    2.8187   -3.4764    0.7030 H   0  0  0  0  0  0  0  0  0  0  0  0
  1 31  1  0  0  0  0
  2  3  1  0  0  0  0
  2  4  1  0  0  0  0
  5 23  1  0  0  0  0
  5  2  1  0  0  0  0
  6  5  1  0  0  0  0
  7  5  1  0  0  0  0
  8 45  1  0  0  0  0
  8 24  1  0  0  0  0
  9 11  1  0  0  0  0
 10  9  1  0  0  0  0
 11 12  1  0  0  0  0
 11 13  2  0  0  0  0
 13  2  1  0  0  0  0
 14 13  1  0  0  0  0
 14  1  1  0  0  0  0
 15  9  2  0  0  0  0
 15 17  1  0  0  0  0
 16 15  1  0  0  0  0
 17 14  2  0  0  0  0
 18 17  1  0  0  0  0
 19 20  1  0  0  0  0
 21 22  1  0  0  0  0
 21 19  2  0  0  0  0
 23 21  1  0  0  0  0
 24 23  2  0  0  0  0
 24 27  1  0  0  0  0
 25 19  1  0  0  0  0
 25 26  1  0  0  0  0
 27 25  2  0  0  0  0
 28 27  1  0  0  0  0
 29 65  1  0  0  0  0
 29 33  1  0  0  0  0
 29  1  1  0  0  0  0
 30 29  1  0  0  0  0
 31 41  1  0  0  0  0
 31 32  1  0  0  0  0
 31 37  1  0  0  0  0
 33 35  1  0  0  0  0
 34 33  1  0  0  0  0
 36 33  1  0  0  0  0
 37 38  1  0  0  0  0
 39 37  1  0  0  0  0
 40 37  1  0  0  0  0
 41 42  1  0  0  0  0
 43 41  1  0  0  0  0
 44 41  1  0  0  0  0
 45 49  1  0  0  0  0
 46 45  1  0  0  0  0
 47  8  1  0  0  0  0
 48 47  1  0  0  0  0
 49 50  1  0  0  0  0
 49 52  1  0  0  0  0
 49 51  1  0  0  0  0
 53 55  1  0  0  0  0
 53 54  1  0  0  0  0
 53 45  1  0  0  0  0
 56 53  1  0  0  0  0
 57 47  1  0  0  0  0
 57 60  1  0  0  0  0
 57 59  1  0  0  0  0
 58 57  1  0  0  0  0
 61 63  1  0  0  0  0
 61 64  1  0  0  0  0
 61 47  1  0  0  0  0
 62 61  1  0  0  0  0
 65 68  1  0  0  0  0
 66 65  1  0  0  0  0
 67 65  1  0  0  0  0
M  END
