1,2
 OpenBabel05122313063D

 42 41  0  0  0  0  0  0  0  0999 V2000
    1.7451   -1.3929    0.2082 P   0  0  0  0  0  0  0  0  0  0  0  0
    0.9625    2.0524   -0.0568 P   0  0  0  0  0  0  0  0  0  0  0  0
    2.7310    2.1330   -0.6661 C   0  0  0  0  0  0  0  0  0  0  0  0
    3.0823    1.0440   -1.6934 C   0  0  0  0  0  0  0  0  0  0  0  0
    3.9593   -0.0740   -1.1138 C   0  0  0  0  0  0  0  0  0  0  0  0
    3.4658   -0.6688    0.2090 C   0  0  0  0  0  0  0  0  0  0  0  0
    1.9266   -2.7148   -1.1074 C   0  0  0  0  0  0  0  0  0  0  0  0
    1.3248   -2.3116   -2.4545 C   0  0  0  0  0  0  0  0  0  0  0  0
    1.8112   -2.2872    1.8483 C   0  0  0  0  0  0  0  0  0  0  0  0
    2.7311   -3.5031    1.9559 C   0  0  0  0  0  0  0  0  0  0  0  0
    0.1589    3.1282   -1.3538 C   0  0  0  0  0  0  0  0  0  0  0  0
    0.4782    4.6213   -1.3155 C   0  0  0  0  0  0  0  0  0  0  0  0
    1.1195    3.1027    1.4783 C   0  0  0  0  0  0  0  0  0  0  0  0
    1.6094    2.2775    2.6705 C   0  0  0  0  0  0  0  0  0  0  0  0
    2.8705    3.1497   -1.0875 H   0  0  0  0  0  0  0  0  0  0  0  0
    3.4016    2.0820    0.2163 H   0  0  0  0  0  0  0  0  0  0  0  0
    2.1461    0.6048   -2.1049 H   0  0  0  0  0  0  0  0  0  0  0  0
    3.6087    1.4922   -2.5610 H   0  0  0  0  0  0  0  0  0  0  0  0
    4.0731   -0.8808   -1.8690 H   0  0  0  0  0  0  0  0  0  0  0  0
    4.9849    0.3233   -0.9462 H   0  0  0  0  0  0  0  0  0  0  0  0
    3.4694    0.0961    1.0140 H   0  0  0  0  0  0  0  0  0  0  0  0
    4.1633   -1.4679    0.5380 H   0  0  0  0  0  0  0  0  0  0  0  0
    3.0053   -2.9654   -1.1944 H   0  0  0  0  0  0  0  0  0  0  0  0
    1.4233   -3.6278   -0.7352 H   0  0  0  0  0  0  0  0  0  0  0  0
    1.4101   -3.1410   -3.1856 H   0  0  0  0  0  0  0  0  0  0  0  0
    1.8327   -1.4285   -2.8911 H   0  0  0  0  0  0  0  0  0  0  0  0
    0.2517   -2.0592   -2.3382 H   0  0  0  0  0  0  0  0  0  0  0  0
    2.1005   -1.4966    2.5740 H   0  0  0  0  0  0  0  0  0  0  0  0
    0.7647   -2.5509    2.0992 H   0  0  0  0  0  0  0  0  0  0  0  0
    2.7267   -3.9047    2.9897 H   0  0  0  0  0  0  0  0  0  0  0  0
    3.7843   -3.2640    1.7029 H   0  0  0  0  0  0  0  0  0  0  0  0
    2.4051   -4.3235    1.2855 H   0  0  0  0  0  0  0  0  0  0  0  0
    0.4758    2.6692   -2.3155 H   0  0  0  0  0  0  0  0  0  0  0  0
   -0.9308    2.9493   -1.2781 H   0  0  0  0  0  0  0  0  0  0  0  0
    0.0208    5.1388   -2.1832 H   0  0  0  0  0  0  0  0  0  0  0  0
    1.5681    4.8296   -1.3504 H   0  0  0  0  0  0  0  0  0  0  0  0
    0.0755    5.0992   -0.4001 H   0  0  0  0  0  0  0  0  0  0  0  0
    1.8006    3.9523    1.2597 H   0  0  0  0  0  0  0  0  0  0  0  0
    0.1264    3.5403    1.7021 H   0  0  0  0  0  0  0  0  0  0  0  0
    1.6930    2.9032    3.5819 H   0  0  0  0  0  0  0  0  0  0  0  0
    2.6101    1.8342    2.4840 H   0  0  0  0  0  0  0  0  0  0  0  0
    0.9091    1.4440    2.8827 H   0  0  0  0  0  0  0  0  0  0  0  0
  1  6  1  0  0  0  0
  1  9  1  0  0  0  0
  2 13  1  0  0  0  0
  3  2  1  0  0  0  0
  3 16  1  0  0  0  0
  4  5  1  0  0  0  0
  4  3  1  0  0  0  0
  5 20  1  0  0  0  0
  5  6  1  0  0  0  0
  6 22  1  0  0  0  0
  6 21  1  0  0  0  0
  7 24  1  0  0  0  0
  7  1  1  0  0  0  0
  8 27  1  0  0  0  0
  8  7  1  0  0  0  0
  9 10  1  0  0  0  0
  9 29  1  0  0  0  0
  9 28  1  0  0  0  0
 10 30  1  0  0  0  0
 11 12  1  0  0  0  0
 11 34  1  0  0  0  0
 11  2  1  0  0  0  0
 12 37  1  0  0  0  0
 13 39  1  0  0  0  0
 13 14  1  0  0  0  0
 14 42  1  0  0  0  0
 14 40  1  0  0  0  0
 15  3  1  0  0  0  0
 17  4  1  0  0  0  0
 18  4  1  0  0  0  0
 19  5  1  0  0  0  0
 23  7  1  0  0  0  0
 25  8  1  0  0  0  0
 26  8  1  0  0  0  0
 31 10  1  0  0  0  0
 32 10  1  0  0  0  0
 33 11  1  0  0  0  0
 35 12  1  0  0  0  0
 36 12  1  0  0  0  0
 38 13  1  0  0  0  0
 41 14  1  0  0  0  0
M  END
