1,2
 OpenBabel05122313063D

 65 70  0  0  1  0  0  0  0  0999 V2000
    1.6766    0.0108    0.2605 P   0  0  0  0  0  0  0  0  0  0  0  0
   -1.5702    0.0619    0.0695 P   0  0  0  0  0  0  0  0  0  0  0  0
    1.5092   -0.7532    1.7354 O   0  0  0  0  0  0  0  0  0  0  0  0
   -1.1866   -0.0554    1.6854 O   0  0  0  0  0  0  0  0  0  0  0  0
   -0.1416   -2.4455    3.6853 C   0  0  2  0  0  0  0  0  0  0  0  0
   -0.4330   -3.1762    4.4638 H   0  0  0  0  0  0  0  0  0  0  0  0
    1.3613   -2.5194    3.3517 C   0  0  0  0  0  0  0  0  0  0  0  0
    1.9880   -1.8399    3.9636 H   0  0  0  0  0  0  0  0  0  0  0  0
    1.7372   -3.5513    3.5091 H   0  0  0  0  0  0  0  0  0  0  0  0
    1.4778   -2.1923    1.8543 C   0  0  1  0  0  0  0  0  0  0  0  0
    2.4028   -2.6095    1.3989 H   0  0  0  0  0  0  0  0  0  0  0  0
    0.1990   -2.7956    1.2568 C   0  0  0  0  0  0  0  0  0  0  0  0
   -0.0277   -2.3964    0.2451 H   0  0  0  0  0  0  0  0  0  0  0  0
    0.3584   -3.8876    1.1360 H   0  0  0  0  0  0  0  0  0  0  0  0
   -0.8916   -2.5701    2.3084 C   0  0  2  0  0  0  0  0  0  0  0  0
   -1.6851   -3.3390    2.2449 H   0  0  0  0  0  0  0  0  0  0  0  0
   -1.5072   -1.1473    2.5460 C   0  0  1  0  0  0  0  0  0  0  0  0
   -2.6111   -1.2061    2.6550 H   0  0  0  0  0  0  0  0  0  0  0  0
   -0.7480   -1.0290    3.8857 C   0  0  0  0  0  0  0  0  0  0  0  0
   -1.3963   -0.9076    4.7750 H   0  0  0  0  0  0  0  0  0  0  0  0
   -0.0030   -0.2122    3.8647 H   0  0  0  0  0  0  0  0  0  0  0  0
    3.4416   -0.2998   -0.1013 C   0  0  0  0  0  0  0  0  0  0  0  0
    4.4330    0.6049    0.3273 C   0  0  0  0  0  0  0  0  0  0  0  0
    4.1442    1.5559    0.7992 H   0  0  0  0  0  0  0  0  0  0  0  0
    5.7892    0.2954    0.1442 C   0  0  0  0  0  0  0  0  0  0  0  0
    6.5601    1.0099    0.4705 H   0  0  0  0  0  0  0  0  0  0  0  0
    6.1599   -0.9187   -0.4546 C   0  0  0  0  0  0  0  0  0  0  0  0
    7.2246   -1.1587   -0.5982 H   0  0  0  0  0  0  0  0  0  0  0  0
    5.1731   -1.8222   -0.8809 C   0  0  0  0  0  0  0  0  0  0  0  0
    5.4609   -2.7676   -1.3650 H   0  0  0  0  0  0  0  0  0  0  0  0
    3.8155   -1.5136   -0.7172 C   0  0  0  0  0  0  0  0  0  0  0  0
    3.0413   -2.1942   -1.0988 H   0  0  0  0  0  0  0  0  0  0  0  0
    1.5514    1.7411    0.8248 C   0  0  0  0  0  0  0  0  0  0  0  0
    1.6504    2.0928    2.1846 C   0  0  0  0  0  0  0  0  0  0  0  0
    1.8388    1.3097    2.9321 H   0  0  0  0  0  0  0  0  0  0  0  0
    1.4930    3.4334    2.5675 C   0  0  0  0  0  0  0  0  0  0  0  0
    1.5628    3.7085    3.6310 H   0  0  0  0  0  0  0  0  0  0  0  0
    1.2434    4.4202    1.6000 C   0  0  0  0  0  0  0  0  0  0  0  0
    1.1124    5.4693    1.9061 H   0  0  0  0  0  0  0  0  0  0  0  0
    1.1494    4.0688    0.2437 C   0  0  0  0  0  0  0  0  0  0  0  0
    0.9381    4.8366   -0.5150 H   0  0  0  0  0  0  0  0  0  0  0  0
    1.2971    2.7313   -0.1470 C   0  0  0  0  0  0  0  0  0  0  0  0
    1.1943    2.4423   -1.2052 H   0  0  0  0  0  0  0  0  0  0  0  0
   -2.0432    1.8273    0.0054 C   0  0  0  0  0  0  0  0  0  0  0  0
   -2.3027    2.4151   -1.2512 C   0  0  0  0  0  0  0  0  0  0  0  0
   -2.2525    1.7932   -2.1605 H   0  0  0  0  0  0  0  0  0  0  0  0
   -2.6061    3.7813   -1.3237 C   0  0  0  0  0  0  0  0  0  0  0  0
   -2.8109    4.2393   -2.3032 H   0  0  0  0  0  0  0  0  0  0  0  0
   -2.6396    4.5646   -0.1571 C   0  0  0  0  0  0  0  0  0  0  0  0
   -2.8695    5.6392   -0.2219 H   0  0  0  0  0  0  0  0  0  0  0  0
   -2.3735    3.9775    1.0893 C   0  0  0  0  0  0  0  0  0  0  0  0
   -2.3871    4.5899    2.0038 H   0  0  0  0  0  0  0  0  0  0  0  0
   -2.0759    2.6091    1.1764 C   0  0  0  0  0  0  0  0  0  0  0  0
   -1.8419    2.1441    2.1438 H   0  0  0  0  0  0  0  0  0  0  0  0
   -3.1079   -0.9163   -0.0665 C   0  0  0  0  0  0  0  0  0  0  0  0
   -3.0797   -2.2129   -0.6170 C   0  0  0  0  0  0  0  0  0  0  0  0
   -2.1576   -2.5809   -1.0901 H   0  0  0  0  0  0  0  0  0  0  0  0
   -4.2368   -3.0035   -0.5914 C   0  0  0  0  0  0  0  0  0  0  0  0
   -4.2166   -4.0123   -1.0304 H   0  0  0  0  0  0  0  0  0  0  0  0
   -5.4216   -2.5044   -0.0249 C   0  0  0  0  0  0  0  0  0  0  0  0
   -6.3300   -3.1259   -0.0140 H   0  0  0  0  0  0  0  0  0  0  0  0
   -5.4521   -1.2095    0.5176 C   0  0  0  0  0  0  0  0  0  0  0  0
   -6.3824   -0.8134    0.9523 H   0  0  0  0  0  0  0  0  0  0  0  0
   -4.2970   -0.4136    0.4995 C   0  0  0  0  0  0  0  0  0  0  0  0
   -4.3186    0.6050    0.9173 H   0  0  0  0  0  0  0  0  0  0  0  0
  1 33  1  0  0  0  0
  1  3  1  0  0  0  0
  2  4  1  0  0  0  0
  3 10  1  0  0  0  0
  4 17  1  0  0  0  0
  5 19  1  0  0  0  0
  5  6  1  1  0  0  0
  7  9  1  0  0  0  0
  7  5  1  0  0  0  0
  7  8  1  0  0  0  0
 10 11  1  6  0  0  0
 10  7  1  0  0  0  0
 12 10  1  0  0  0  0
 12 15  1  0  0  0  0
 13 12  1  0  0  0  0
 14 12  1  0  0  0  0
 15 16  1  1  0  0  0
 15 17  1  0  0  0  0
 15  5  1  0  0  0  0
 17 18  1  1  0  0  0
 17 19  1  0  0  0  0
 19 20  1  0  0  0  0
 21 19  1  0  0  0  0
 22  1  1  0  0  0  0
 22 23  1  0  0  0  0
 23 24  1  0  0  0  0
 25 23  2  0  0  0  0
 25 26  1  0  0  0  0
 27 25  1  0  0  0  0
 28 27  1  0  0  0  0
 29 31  1  0  0  0  0
 29 27  2  0  0  0  0
 30 29  1  0  0  0  0
 31 22  2  0  0  0  0
 32 31  1  0  0  0  0
 33 34  1  0  0  0  0
 34 36  2  0  0  0  0
 34 35  1  0  0  0  0
 36 37  1  0  0  0  0
 38 39  1  0  0  0  0
 38 36  1  0  0  0  0
 40 38  2  0  0  0  0
 41 40  1  0  0  0  0
 42 40  1  0  0  0  0
 42 33  2  0  0  0  0
 43 42  1  0  0  0  0
 44  2  1  0  0  0  0
 44 53  1  0  0  0  0
 45 44  2  0  0  0  0
 46 45  1  0  0  0  0
 47 45  1  0  0  0  0
 47 49  2  0  0  0  0
 48 47  1  0  0  0  0
 49 51  1  0  0  0  0
 50 49  1  0  0  0  0
 51 53  2  0  0  0  0
 51 52  1  0  0  0  0
 53 54  1  0  0  0  0
 55  2  1  0  0  0  0
 55 64  1  0  0  0  0
 56 58  1  0  0  0  0
 56 55  2  0  0  0  0
 57 56  1  0  0  0  0
 58 60  2  0  0  0  0
 59 58  1  0  0  0  0
 60 61  1  0  0  0  0
 60 62  1  0  0  0  0
 62 63  1  0  0  0  0
 64 62  2  0  0  0  0
 64 65  1  0  0  0  0
M  END
