1,2
 OpenBabel05122313063D

 66 72  0  0  1  0  0  0  0  0999 V2000
    1.7251    0.0678    0.0992 P   0  0  0  0  0  0  0  0  0  0  0  0
   -1.8006   -0.0309    0.1115 P   0  0  0  0  0  0  0  0  0  0  0  0
    1.2868    0.3172    1.8990 C   0  0  2  0  0  0  0  0  0  0  0  0
   -0.0150    1.2166    2.0402 C   0  0  1  0  0  0  0  0  0  0  0  0
   -1.3370    0.5348    1.7897 C   0  0  0  0  0  0  0  0  0  0  0  0
   -2.0469    0.3995    2.9351 C   0  0  0  0  0  0  0  0  0  0  0  0
   -1.3664    1.0311    4.1238 C   0  0  0  0  0  0  0  0  0  0  0  0
   -0.0260    1.5789    3.5666 C   0  0  1  0  0  0  0  0  0  0  0  0
    1.3012    0.9145    4.0860 C   0  0  2  0  0  0  0  0  0  0  0  0
    2.2172    1.1123    2.8540 C   0  0  0  0  0  0  0  0  0  0  0  0
    1.0816   -0.5862    4.0279 C   0  0  0  0  0  0  0  0  0  0  0  0
    1.0402   -0.9422    2.7246 C   0  0  0  0  0  0  0  0  0  0  0  0
    2.1202    1.8129   -0.3780 C   0  0  0  0  0  0  0  0  0  0  0  0
    1.1106    2.6136   -0.9486 C   0  0  0  0  0  0  0  0  0  0  0  0
    1.3502    3.9655   -1.2381 C   0  0  0  0  0  0  0  0  0  0  0  0
    2.6073    4.5289   -0.9718 C   0  0  0  0  0  0  0  0  0  0  0  0
    3.6213    3.7367   -0.4079 C   0  0  0  0  0  0  0  0  0  0  0  0
    3.3802    2.3878   -0.1072 C   0  0  0  0  0  0  0  0  0  0  0  0
    3.3795   -0.7411    0.0872 C   0  0  0  0  0  0  0  0  0  0  0  0
    3.8654   -1.5180    1.1576 C   0  0  0  0  0  0  0  0  0  0  0  0
    5.0889   -2.1976    1.0387 C   0  0  0  0  0  0  0  0  0  0  0  0
    5.8367   -2.1102   -0.1444 C   0  0  0  0  0  0  0  0  0  0  0  0
    5.3539   -1.3422   -1.2171 C   0  0  0  0  0  0  0  0  0  0  0  0
    4.1323   -0.6670   -1.1056 C   0  0  0  0  0  0  0  0  0  0  0  0
   -3.3778   -0.9370    0.4409 C   0  0  0  0  0  0  0  0  0  0  0  0
   -3.3381   -2.3301    0.6474 C   0  0  0  0  0  0  0  0  0  0  0  0
   -4.5139   -3.0336    0.9469 C   0  0  0  0  0  0  0  0  0  0  0  0
   -5.7397   -2.3548    1.0337 C   0  0  0  0  0  0  0  0  0  0  0  0
   -5.7856   -0.9675    0.8239 C   0  0  0  0  0  0  0  0  0  0  0  0
   -4.6106   -0.2588    0.5303 C   0  0  0  0  0  0  0  0  0  0  0  0
   -2.4053    1.5375   -0.6668 C   0  0  0  0  0  0  0  0  0  0  0  0
   -2.7661    1.5001   -2.0303 C   0  0  0  0  0  0  0  0  0  0  0  0
   -3.1867    2.6659   -2.6836 C   0  0  0  0  0  0  0  0  0  0  0  0
   -3.2400    3.8855   -1.9870 C   0  0  0  0  0  0  0  0  0  0  0  0
   -2.8927    3.9275   -0.6283 C   0  0  0  0  0  0  0  0  0  0  0  0
   -2.4866    2.7569    0.0337 C   0  0  0  0  0  0  0  0  0  0  0  0
    0.1209    2.1125    1.3992 H   0  0  0  0  0  0  0  0  0  0  0  0
   -3.0258   -0.1003    3.0017 H   0  0  0  0  0  0  0  0  0  0  0  0
   -2.0018    1.8379    4.5508 H   0  0  0  0  0  0  0  0  0  0  0  0
   -1.2238    0.2967    4.9467 H   0  0  0  0  0  0  0  0  0  0  0  0
    0.0448    2.6756    3.7049 H   0  0  0  0  0  0  0  0  0  0  0  0
    1.6636    1.3238    5.0478 H   0  0  0  0  0  0  0  0  0  0  0  0
    2.3377    2.1724    2.5534 H   0  0  0  0  0  0  0  0  0  0  0  0
    3.2126    0.6424    2.9733 H   0  0  0  0  0  0  0  0  0  0  0  0
    0.8615   -1.2346    4.8876 H   0  0  0  0  0  0  0  0  0  0  0  0
    0.7660   -1.9219    2.3171 H   0  0  0  0  0  0  0  0  0  0  0  0
    0.1251    2.1783   -1.1662 H   0  0  0  0  0  0  0  0  0  0  0  0
    0.5466    4.5729   -1.6814 H   0  0  0  0  0  0  0  0  0  0  0  0
    2.8009    5.5865   -1.2078 H   0  0  0  0  0  0  0  0  0  0  0  0
    4.6104    4.1724   -0.1994 H   0  0  0  0  0  0  0  0  0  0  0  0
    4.1786    1.7738    0.3355 H   0  0  0  0  0  0  0  0  0  0  0  0
    3.2868   -1.6031    2.0888 H   0  0  0  0  0  0  0  0  0  0  0  0
    5.4564   -2.8020    1.8819 H   0  0  0  0  0  0  0  0  0  0  0  0
    6.7935   -2.6462   -0.2350 H   0  0  0  0  0  0  0  0  0  0  0  0
    5.9280   -1.2764   -2.1536 H   0  0  0  0  0  0  0  0  0  0  0  0
    3.7527   -0.0792   -1.9558 H   0  0  0  0  0  0  0  0  0  0  0  0
   -2.3822   -2.8666    0.5681 H   0  0  0  0  0  0  0  0  0  0  0  0
   -4.4710   -4.1221    1.1032 H   0  0  0  0  0  0  0  0  0  0  0  0
   -6.6632   -2.9097    1.2591 H   0  0  0  0  0  0  0  0  0  0  0  0
   -6.7447   -0.4306    0.8853 H   0  0  0  0  0  0  0  0  0  0  0  0
   -4.6519    0.8280    0.3638 H   0  0  0  0  0  0  0  0  0  0  0  0
   -2.7095    0.5493   -2.5819 H   0  0  0  0  0  0  0  0  0  0  0  0
   -3.4645    2.6233   -3.7474 H   0  0  0  0  0  0  0  0  0  0  0  0
   -3.5566    4.8035   -2.5051 H   0  0  0  0  0  0  0  0  0  0  0  0
   -2.9406    4.8777   -0.0744 H   0  0  0  0  0  0  0  0  0  0  0  0
   -2.2344    2.7896    1.1039 H   0  0  0  0  0  0  0  0  0  0  0  0
  2 25  1  0  0  0  0
  2  5  1  0  0  0  0
  3  1  1  6  0  0  0
  3  4  1  0  0  0  0
  3 12  1  0  0  0  0
  3 10  1  0  0  0  0
  4 37  1  6  0  0  0
  4  8  1  0  0  0  0
  5  4  1  0  0  0  0
  5  6  2  0  0  0  0
  6 38  1  0  0  0  0
  6  7  1  0  0  0  0
  7 39  1  0  0  0  0
  7 40  1  0  0  0  0
  8 41  1  1  0  0  0
  8  9  1  0  0  0  0
  8  7  1  0  0  0  0
  9 42  1  1  0  0  0
 10 44  1  0  0  0  0
 10  9  1  0  0  0  0
 11  9  1  0  0  0  0
 11 45  1  0  0  0  0
 12 11  2  0  0  0  0
 13 18  1  0  0  0  0
 13  1  1  0  0  0  0
 14 13  2  0  0  0  0
 15 16  2  0  0  0  0
 15 14  1  0  0  0  0
 16 17  1  0  0  0  0
 17 50  1  0  0  0  0
 17 18  2  0  0  0  0
 18 51  1  0  0  0  0
 19  1  1  0  0  0  0
 19 20  1  0  0  0  0
 20 52  1  0  0  0  0
 21 20  2  0  0  0  0
 21 53  1  0  0  0  0
 22 21  1  0  0  0  0
 23 24  1  0  0  0  0
 23 22  2  0  0  0  0
 24 19  2  0  0  0  0
 25 30  2  0  0  0  0
 25 26  1  0  0  0  0
 26 27  2  0  0  0  0
 27 28  1  0  0  0  0
 27 58  1  0  0  0  0
 28 59  1  0  0  0  0
 29 60  1  0  0  0  0
 29 28  2  0  0  0  0
 30 29  1  0  0  0  0
 31 36  1  0  0  0  0
 31  2  1  0  0  0  0
 32 31  2  0  0  0  0
 33 32  1  0  0  0  0
 33 34  2  0  0  0  0
 34 35  1  0  0  0  0
 35 65  1  0  0  0  0
 35 36  2  0  0  0  0
 36 66  1  0  0  0  0
 43 10  1  0  0  0  0
 46 12  1  0  0  0  0
 47 14  1  0  0  0  0
 48 15  1  0  0  0  0
 49 16  1  0  0  0  0
 54 22  1  0  0  0  0
 55 23  1  0  0  0  0
 56 24  1  0  0  0  0
 57 26  1  0  0  0  0
 61 30  1  0  0  0  0
 62 32  1  0  0  0  0
 63 33  1  0  0  0  0
 64 34  1  0  0  0  0
M  END
