1,2
 OpenBabel05122313063D

 52 52  0  0  0  0  0  0  0  0999 V2000
   -1.5245    0.1111   -0.0183 P   0  0  0  0  0  0  0  0  0  0  0  0
    1.5243    0.1118   -0.0181 P   0  0  0  0  0  0  0  0  0  0  0  0
   -0.7087    1.7742   -0.1179 C   0  0  0  0  0  0  0  0  0  0  0  0
   -1.4039    2.9920   -0.2641 C   0  0  0  0  0  0  0  0  0  0  0  0
   -0.7028    4.2004   -0.3890 C   0  0  0  0  0  0  0  0  0  0  0  0
    0.7007    4.2006   -0.3898 C   0  0  0  0  0  0  0  0  0  0  0  0
    1.4023    2.9925   -0.2654 C   0  0  0  0  0  0  0  0  0  0  0  0
    0.7077    1.7744   -0.1186 C   0  0  0  0  0  0  0  0  0  0  0  0
   -2.6842    0.1446   -1.5015 C   0  0  0  0  0  0  0  0  0  0  0  0
   -3.8840   -0.7992   -1.3798 C   0  0  0  0  0  0  0  0  0  0  0  0
   -1.8599   -0.1459   -2.7591 C   0  0  0  0  0  0  0  0  0  0  0  0
   -2.6362    0.1058    1.4890 C   0  0  0  0  0  0  0  0  0  0  0  0
   -3.6107    1.2803    1.5877 C   0  0  0  0  0  0  0  0  0  0  0  0
   -1.8047   -0.0746    2.7592 C   0  0  0  0  0  0  0  0  0  0  0  0
    2.6852    0.1446   -1.5005 C   0  0  0  0  0  0  0  0  0  0  0  0
    3.8884   -0.7943   -1.3747 C   0  0  0  0  0  0  0  0  0  0  0  0
    1.8630   -0.1534   -2.7577 C   0  0  0  0  0  0  0  0  0  0  0  0
    2.6344    0.1079    1.4903 C   0  0  0  0  0  0  0  0  0  0  0  0
    1.8018   -0.0738    2.7596 C   0  0  0  0  0  0  0  0  0  0  0  0
    3.6068    1.2840    1.5902 C   0  0  0  0  0  0  0  0  0  0  0  0
   -2.5026    3.0029   -0.2970 H   0  0  0  0  0  0  0  0  0  0  0  0
   -1.2559    5.1452   -0.5008 H   0  0  0  0  0  0  0  0  0  0  0  0
    1.2534    5.1457   -0.5021 H   0  0  0  0  0  0  0  0  0  0  0  0
    2.5010    3.0038   -0.2994 H   0  0  0  0  0  0  0  0  0  0  0  0
   -3.0482    1.1953   -1.5423 H   0  0  0  0  0  0  0  0  0  0  0  0
   -4.4935   -0.7319   -2.3050 H   0  0  0  0  0  0  0  0  0  0  0  0
   -4.5435   -0.5425   -0.5280 H   0  0  0  0  0  0  0  0  0  0  0  0
   -3.5438   -1.8446   -1.2473 H   0  0  0  0  0  0  0  0  0  0  0  0
   -2.5051   -0.1039   -3.6607 H   0  0  0  0  0  0  0  0  0  0  0  0
   -1.4132   -1.1587   -2.6939 H   0  0  0  0  0  0  0  0  0  0  0  0
   -1.0399    0.5860   -2.8943 H   0  0  0  0  0  0  0  0  0  0  0  0
   -3.1885   -0.8427    1.3132 H   0  0  0  0  0  0  0  0  0  0  0  0
   -3.0848    2.2256    1.8309 H   0  0  0  0  0  0  0  0  0  0  0  0
   -4.3352    1.0903    2.4070 H   0  0  0  0  0  0  0  0  0  0  0  0
   -4.1976    1.4367    0.6605 H   0  0  0  0  0  0  0  0  0  0  0  0
   -1.1827   -0.9871    2.6860 H   0  0  0  0  0  0  0  0  0  0  0  0
   -2.4731   -0.1794    3.6388 H   0  0  0  0  0  0  0  0  0  0  0  0
   -1.1416    0.7956    2.9415 H   0  0  0  0  0  0  0  0  0  0  0  0
    3.0453    1.1966   -1.5447 H   0  0  0  0  0  0  0  0  0  0  0  0
    3.5519   -1.8405   -1.2393 H   0  0  0  0  0  0  0  0  0  0  0  0
    4.5464   -0.5323   -0.5234 H   0  0  0  0  0  0  0  0  0  0  0  0
    4.4983   -0.7278   -2.2997 H   0  0  0  0  0  0  0  0  0  0  0  0
    1.4206   -1.1679   -2.6893 H   0  0  0  0  0  0  0  0  0  0  0  0
    2.5086   -0.1116   -3.6590 H   0  0  0  0  0  0  0  0  0  0  0  0
    1.0399    0.5744   -2.8959 H   0  0  0  0  0  0  0  0  0  0  0  0
    3.1884   -0.8397    1.3151 H   0  0  0  0  0  0  0  0  0  0  0  0
    1.1371    0.7954    2.9412 H   0  0  0  0  0  0  0  0  0  0  0  0
    2.4693   -0.1775    3.6400 H   0  0  0  0  0  0  0  0  0  0  0  0
    1.1813   -0.9873    2.6858 H   0  0  0  0  0  0  0  0  0  0  0  0
    4.1944    1.4414    0.6635 H   0  0  0  0  0  0  0  0  0  0  0  0
    4.3308    1.0952    2.4102 H   0  0  0  0  0  0  0  0  0  0  0  0
    3.0791    2.2284    1.8327 H   0  0  0  0  0  0  0  0  0  0  0  0
  1 12  1  0  0  0  0
  2 18  1  0  0  0  0
  3  1  1  0  0  0  0
  4  3  2  0  0  0  0
  5  4  1  0  0  0  0
  6  5  2  0  0  0  0
  6  7  1  0  0  0  0
  7  8  2  0  0  0  0
  8  3  1  0  0  0  0
  8  2  1  0  0  0  0
  9 10  1  0  0  0  0
  9  1  1  0  0  0  0
 10 28  1  0  0  0  0
 10 27  1  0  0  0  0
 11 30  1  0  0  0  0
 11  9  1  0  0  0  0
 12 13  1  0  0  0  0
 12 14  1  0  0  0  0
 13 33  1  0  0  0  0
 13 34  1  0  0  0  0
 14 38  1  0  0  0  0
 14 37  1  0  0  0  0
 15 16  1  0  0  0  0
 15  2  1  0  0  0  0
 16 40  1  0  0  0  0
 16 41  1  0  0  0  0
 17 43  1  0  0  0  0
 17 15  1  0  0  0  0
 18 20  1  0  0  0  0
 18 19  1  0  0  0  0
 19 47  1  0  0  0  0
 19 48  1  0  0  0  0
 20 52  1  0  0  0  0
 20 51  1  0  0  0  0
 21  4  1  0  0  0  0
 22  5  1  0  0  0  0
 23  6  1  0  0  0  0
 24  7  1  0  0  0  0
 25  9  1  0  0  0  0
 26 10  1  0  0  0  0
 29 11  1  0  0  0  0
 31 11  1  0  0  0  0
 32 12  1  0  0  0  0
 35 13  1  0  0  0  0
 36 14  1  0  0  0  0
 39 15  1  0  0  0  0
 42 16  1  0  0  0  0
 44 17  1  0  0  0  0
 45 17  1  0  0  0  0
 46 18  1  0  0  0  0
 49 19  1  0  0  0  0
 50 20  1  0  0  0  0
M  END
