1,2
 OpenBabel05122313063D

 74 80  0  0  0  0  0  0  0  0999 V2000
    1.8094   -0.3885    0.0263 P   0  0  0  0  0  0  0  0  0  0  0  0
   -1.6766   -0.7256   -0.0619 P   0  0  0  0  0  0  0  0  0  0  0  0
   -0.5257    4.6777    0.5074 Si  0  0  0  0  0  0  0  0  0  0  0  0
   -0.2194    1.6534    0.6509 O   0  0  0  0  0  0  0  0  0  0  0  0
    2.0714    1.4393    0.0504 C   0  0  0  0  0  0  0  0  0  0  0  0
    3.2826    2.0327   -0.3482 C   0  0  0  0  0  0  0  0  0  0  0  0
    3.3942    3.4263   -0.4653 C   0  0  0  0  0  0  0  0  0  0  0  0
    2.2874    4.2427   -0.1992 C   0  0  0  0  0  0  0  0  0  0  0  0
    1.0482    3.6898    0.1870 C   0  0  0  0  0  0  0  0  0  0  0  0
    0.9629    2.2873    0.2923 C   0  0  0  0  0  0  0  0  0  0  0  0
   -2.3285    0.9879   -0.2027 C   0  0  0  0  0  0  0  0  0  0  0  0
   -1.4518    2.0440    0.1412 C   0  0  0  0  0  0  0  0  0  0  0  0
   -1.8097    3.3975   -0.0057 C   0  0  0  0  0  0  0  0  0  0  0  0
   -3.0817    3.6778   -0.5506 C   0  0  0  0  0  0  0  0  0  0  0  0
   -3.9582    2.6490   -0.9220 C   0  0  0  0  0  0  0  0  0  0  0  0
   -3.5816    1.3075   -0.7500 C   0  0  0  0  0  0  0  0  0  0  0  0
   -0.6947    5.0712    2.3488 C   0  0  0  0  0  0  0  0  0  0  0  0
   -0.6107    6.2380   -0.5433 C   0  0  0  0  0  0  0  0  0  0  0  0
    1.7109   -0.8965    1.8001 C   0  0  0  0  0  0  0  0  0  0  0  0
    1.4053   -0.0034    2.8430 C   0  0  0  0  0  0  0  0  0  0  0  0
    1.4541   -0.4377    4.1768 C   0  0  0  0  0  0  0  0  0  0  0  0
    1.8122   -1.7588    4.4811 C   0  0  0  0  0  0  0  0  0  0  0  0
    2.1030   -2.6581    3.4428 C   0  0  0  0  0  0  0  0  0  0  0  0
    2.0459   -2.2328    2.1103 C   0  0  0  0  0  0  0  0  0  0  0  0
    3.4444   -1.1550   -0.3514 C   0  0  0  0  0  0  0  0  0  0  0  0
    3.5809   -2.1150   -1.3712 C   0  0  0  0  0  0  0  0  0  0  0  0
    4.8110   -2.7652   -1.5587 C   0  0  0  0  0  0  0  0  0  0  0  0
    5.9095   -2.4569   -0.7423 C   0  0  0  0  0  0  0  0  0  0  0  0
    5.7743   -1.5054    0.2823 C   0  0  0  0  0  0  0  0  0  0  0  0
    4.5436   -0.8667    0.4874 C   0  0  0  0  0  0  0  0  0  0  0  0
   -1.6084   -0.9997    1.7617 C   0  0  0  0  0  0  0  0  0  0  0  0
   -1.2258   -2.2763    2.2184 C   0  0  0  0  0  0  0  0  0  0  0  0
   -1.3174   -2.5945    3.5786 C   0  0  0  0  0  0  0  0  0  0  0  0
   -1.7917   -1.6426    4.4963 C   0  0  0  0  0  0  0  0  0  0  0  0
   -2.1640   -0.3676    4.0478 C   0  0  0  0  0  0  0  0  0  0  0  0
   -2.0725   -0.0437    2.6850 C   0  0  0  0  0  0  0  0  0  0  0  0
   -3.0580   -1.8840   -0.4374 C   0  0  0  0  0  0  0  0  0  0  0  0
   -4.2565   -1.7944    0.3024 C   0  0  0  0  0  0  0  0  0  0  0  0
   -5.2882   -2.7186    0.0849 C   0  0  0  0  0  0  0  0  0  0  0  0
   -5.1196   -3.7521   -0.8510 C   0  0  0  0  0  0  0  0  0  0  0  0
   -3.9185   -3.8566   -1.5694 C   0  0  0  0  0  0  0  0  0  0  0  0
   -2.8892   -2.9240   -1.3709 C   0  0  0  0  0  0  0  0  0  0  0  0
    4.1380    1.3925   -0.6043 H   0  0  0  0  0  0  0  0  0  0  0  0
    4.3484    3.8707   -0.7845 H   0  0  0  0  0  0  0  0  0  0  0  0
    2.3826    5.3353   -0.3060 H   0  0  0  0  0  0  0  0  0  0  0  0
   -3.3879    4.7264   -0.6948 H   0  0  0  0  0  0  0  0  0  0  0  0
   -4.9384    2.8877   -1.3603 H   0  0  0  0  0  0  0  0  0  0  0  0
   -4.2514    0.4971   -1.0708 H   0  0  0  0  0  0  0  0  0  0  0  0
    0.1217    5.7404    2.6896 H   0  0  0  0  0  0  0  0  0  0  0  0
   -0.6469    4.1378    2.9451 H   0  0  0  0  0  0  0  0  0  0  0  0
   -1.6637    5.5672    2.5618 H   0  0  0  0  0  0  0  0  0  0  0  0
    0.1953    6.9481   -0.2665 H   0  0  0  0  0  0  0  0  0  0  0  0
   -1.5771    6.7623   -0.3957 H   0  0  0  0  0  0  0  0  0  0  0  0
   -0.5070    5.9941   -1.6192 H   0  0  0  0  0  0  0  0  0  0  0  0
    1.1357    1.0371    2.6195 H   0  0  0  0  0  0  0  0  0  0  0  0
    1.2115    0.2689    4.9846 H   0  0  0  0  0  0  0  0  0  0  0  0
    1.8590   -2.0905    5.5294 H   0  0  0  0  0  0  0  0  0  0  0  0
    2.3798   -3.6986    3.6715 H   0  0  0  0  0  0  0  0  0  0  0  0
    2.2909   -2.9376    1.3013 H   0  0  0  0  0  0  0  0  0  0  0  0
    2.7270   -2.3296   -2.0281 H   0  0  0  0  0  0  0  0  0  0  0  0
    4.9092   -3.5150   -2.3581 H   0  0  0  0  0  0  0  0  0  0  0  0
    6.8740   -2.9638   -0.8991 H   0  0  0  0  0  0  0  0  0  0  0  0
    6.6283   -1.2667    0.9341 H   0  0  0  0  0  0  0  0  0  0  0  0
    4.4325   -0.1521    1.3172 H   0  0  0  0  0  0  0  0  0  0  0  0
   -0.8677   -3.0282    1.4981 H   0  0  0  0  0  0  0  0  0  0  0  0
   -1.0130   -3.5930    3.9257 H   0  0  0  0  0  0  0  0  0  0  0  0
   -1.8666   -1.8968    5.5645 H   0  0  0  0  0  0  0  0  0  0  0  0
   -2.5348    0.3839    4.7616 H   0  0  0  0  0  0  0  0  0  0  0  0
   -2.3842    0.9523    2.3392 H   0  0  0  0  0  0  0  0  0  0  0  0
   -4.3790   -1.0080    1.0628 H   0  0  0  0  0  0  0  0  0  0  0  0
   -6.2241   -2.6367    0.6582 H   0  0  0  0  0  0  0  0  0  0  0  0
   -5.9270   -4.4818   -1.0166 H   0  0  0  0  0  0  0  0  0  0  0  0
   -3.7806   -4.6672   -2.3008 H   0  0  0  0  0  0  0  0  0  0  0  0
   -1.9597   -2.9787   -1.9545 H   0  0  0  0  0  0  0  0  0  0  0  0
  1  5  1  0  0  0  0
  1 19  1  0  0  0  0
  2 31  1  0  0  0  0
  3 17  1  0  0  0  0
  5 10  1  0  0  0  0
  6  5  2  0  0  0  0
  7  6  1  0  0  0  0
  7  8  2  0  0  0  0
  8  9  1  0  0  0  0
  9 10  2  0  0  0  0
  9  3  1  0  0  0  0
 10  4  1  0  0  0  0
 11  2  1  0  0  0  0
 11 12  1  0  0  0  0
 12  4  1  0  0  0  0
 13 12  2  0  0  0  0
 13  3  1  0  0  0  0
 14 13  1  0  0  0  0
 15 16  1  0  0  0  0
 15 14  2  0  0  0  0
 16 11  2  0  0  0  0
 17 51  1  0  0  0  0
 17 49  1  0  0  0  0
 17 50  1  0  0  0  0
 18 53  1  0  0  0  0
 18 52  1  0  0  0  0
 18  3  1  0  0  0  0
 19 24  2  0  0  0  0
 19 20  1  0  0  0  0
 20 21  2  0  0  0  0
 21 22  1  0  0  0  0
 21 56  1  0  0  0  0
 22 57  1  0  0  0  0
 23 58  1  0  0  0  0
 23 22  2  0  0  0  0
 24 23  1  0  0  0  0
 25  1  1  0  0  0  0
 25 30  1  0  0  0  0
 26 25  2  0  0  0  0
 27 26  1  0  0  0  0
 27 28  2  0  0  0  0
 28 29  1  0  0  0  0
 29 30  2  0  0  0  0
 29 63  1  0  0  0  0
 30 64  1  0  0  0  0
 31 32  2  0  0  0  0
 31 36  1  0  0  0  0
 32 33  1  0  0  0  0
 33 66  1  0  0  0  0
 33 34  2  0  0  0  0
 34 67  1  0  0  0  0
 35 34  1  0  0  0  0
 35 68  1  0  0  0  0
 36 35  2  0  0  0  0
 37  2  1  0  0  0  0
 37 38  1  0  0  0  0
 38 70  1  0  0  0  0
 39 38  2  0  0  0  0
 39 71  1  0  0  0  0
 40 39  1  0  0  0  0
 41 42  1  0  0  0  0
 41 40  2  0  0  0  0
 42 37  2  0  0  0  0
 43  6  1  0  0  0  0
 44  7  1  0  0  0  0
 45  8  1  0  0  0  0
 46 14  1  0  0  0  0
 47 15  1  0  0  0  0
 48 16  1  0  0  0  0
 54 18  1  0  0  0  0
 55 20  1  0  0  0  0
 59 24  1  0  0  0  0
 60 26  1  0  0  0  0
 61 27  1  0  0  0  0
 62 28  1  0  0  0  0
 65 32  1  0  0  0  0
 69 36  1  0  0  0  0
 72 40  1  0  0  0  0
 73 41  1  0  0  0  0
 74 42  1  0  0  0  0
M  END
