1,2
 OpenBabel05122313063D

 72 77  0  0  1  0  0  0  0  0999 V2000
    1.7058   -0.3233    0.3571 P   0  0  0  0  0  0  0  0  0  0  0  0
   -1.4214   -0.2345   -0.3981 P   0  0  0  0  0  0  0  0  0  0  0  0
    3.3495    0.5058    0.4132 C   0  0  0  0  0  0  0  0  0  0  0  0
    3.7508    1.3021   -0.6764 C   0  0  0  0  0  0  0  0  0  0  0  0
    4.9493    2.0278   -0.6144 C   0  0  0  0  0  0  0  0  0  0  0  0
    5.7604    1.9535    0.5285 C   0  0  0  0  0  0  0  0  0  0  0  0
    5.3723    1.1472    1.6111 C   0  0  0  0  0  0  0  0  0  0  0  0
    4.1711    0.4256    1.5563 C   0  0  0  0  0  0  0  0  0  0  0  0
    1.9596   -1.7508    1.5070 C   0  0  0  0  0  0  0  0  0  0  0  0
    2.7020   -2.8394    0.9985 C   0  0  0  0  0  0  0  0  0  0  0  0
    2.9142   -3.9836    1.7772 C   0  0  0  0  0  0  0  0  0  0  0  0
    2.3770   -4.0663    3.0730 C   0  0  0  0  0  0  0  0  0  0  0  0
    1.6407   -2.9904    3.5887 C   0  0  0  0  0  0  0  0  0  0  0  0
    1.4388   -1.8349    2.8141 C   0  0  0  0  0  0  0  0  0  0  0  0
    0.6200    0.8883    1.3614 C   0  0  1  0  0  0  0  0  0  0  0  0
    0.9070    2.3010    0.9094 C   0  0  0  0  0  0  0  0  0  0  0  0
    0.3509    2.8551   -0.2596 C   0  0  0  0  0  0  0  0  0  0  0  0
    0.7189    4.1350   -0.6977 C   0  0  0  0  0  0  0  0  0  0  0  0
    1.6535    4.8886    0.0287 C   0  0  0  0  0  0  0  0  0  0  0  0
    2.2073    4.3545    1.2031 C   0  0  0  0  0  0  0  0  0  0  0  0
    1.8353    3.0751    1.6371 C   0  0  0  0  0  0  0  0  0  0  0  0
   -2.6275    1.0200   -1.0159 C   0  0  0  0  0  0  0  0  0  0  0  0
   -3.7659    1.4012   -0.2698 C   0  0  0  0  0  0  0  0  0  0  0  0
   -4.6479    2.3668   -0.7748 C   0  0  0  0  0  0  0  0  0  0  0  0
   -4.4142    2.9557   -2.0282 C   0  0  0  0  0  0  0  0  0  0  0  0
   -3.2997    2.5645   -2.7854 C   0  0  0  0  0  0  0  0  0  0  0  0
   -2.4140    1.5993   -2.2829 C   0  0  0  0  0  0  0  0  0  0  0  0
   -2.5249   -1.6471    0.0656 C   0  0  0  0  0  0  0  0  0  0  0  0
   -2.0503   -2.6498    0.9397 C   0  0  0  0  0  0  0  0  0  0  0  0
   -2.8322   -3.7766    1.2262 C   0  0  0  0  0  0  0  0  0  0  0  0
   -4.0942   -3.9310    0.6304 C   0  0  0  0  0  0  0  0  0  0  0  0
   -4.5615   -2.9544   -0.2611 C   0  0  0  0  0  0  0  0  0  0  0  0
   -3.7840   -1.8204   -0.5439 C   0  0  0  0  0  0  0  0  0  0  0  0
   -0.8203    0.3311    1.3459 C   0  0  1  0  0  0  0  0  0  0  0  0
   -1.8454    1.0487    2.1917 C   0  0  0  0  0  0  0  0  0  0  0  0
   -2.0355    2.4477    2.1660 C   0  0  0  0  0  0  0  0  0  0  0  0
   -3.0440    3.0468    2.9348 C   0  0  0  0  0  0  0  0  0  0  0  0
   -3.8920    2.2660    3.7350 C   0  0  0  0  0  0  0  0  0  0  0  0
   -3.7123    0.8740    3.7733 C   0  0  0  0  0  0  0  0  0  0  0  0
   -2.6955    0.2756    3.0161 C   0  0  0  0  0  0  0  0  0  0  0  0
    3.1165    1.3608   -1.5713 H   0  0  0  0  0  0  0  0  0  0  0  0
    5.2503    2.6529   -1.4684 H   0  0  0  0  0  0  0  0  0  0  0  0
    6.7031    2.5199    0.5739 H   0  0  0  0  0  0  0  0  0  0  0  0
    6.0105    1.0780    2.5053 H   0  0  0  0  0  0  0  0  0  0  0  0
    3.8702   -0.2058    2.4064 H   0  0  0  0  0  0  0  0  0  0  0  0
    3.1071   -2.7884   -0.0242 H   0  0  0  0  0  0  0  0  0  0  0  0
    3.4943   -4.8223    1.3639 H   0  0  0  0  0  0  0  0  0  0  0  0
    2.5328   -4.9710    3.6798 H   0  0  0  0  0  0  0  0  0  0  0  0
    1.2201   -3.0432    4.6044 H   0  0  0  0  0  0  0  0  0  0  0  0
    0.8710   -1.0004    3.2518 H   0  0  0  0  0  0  0  0  0  0  0  0
    0.9827    0.8086    2.4075 H   0  0  0  0  0  0  0  0  0  0  0  0
   -0.3884    2.2875   -0.8359 H   0  0  0  0  0  0  0  0  0  0  0  0
    0.2725    4.5370   -1.6194 H   0  0  0  0  0  0  0  0  0  0  0  0
    1.9475    5.8910   -0.3175 H   0  0  0  0  0  0  0  0  0  0  0  0
    2.9386    4.9356    1.7850 H   0  0  0  0  0  0  0  0  0  0  0  0
    2.2850    2.6575    2.5512 H   0  0  0  0  0  0  0  0  0  0  0  0
   -3.9754    0.9347    0.7023 H   0  0  0  0  0  0  0  0  0  0  0  0
   -5.5264    2.6596   -0.1801 H   0  0  0  0  0  0  0  0  0  0  0  0
   -5.1094    3.7140   -2.4196 H   0  0  0  0  0  0  0  0  0  0  0  0
   -3.1175    3.0060   -3.7767 H   0  0  0  0  0  0  0  0  0  0  0  0
   -1.5466    1.2827   -2.8788 H   0  0  0  0  0  0  0  0  0  0  0  0
   -1.0467   -2.5767    1.3880 H   0  0  0  0  0  0  0  0  0  0  0  0
   -2.4423   -4.5460    1.9097 H   0  0  0  0  0  0  0  0  0  0  0  0
   -4.7061   -4.8185    0.8516 H   0  0  0  0  0  0  0  0  0  0  0  0
   -5.5423   -3.0725   -0.7464 H   0  0  0  0  0  0  0  0  0  0  0  0
   -4.1615   -1.0662   -1.2489 H   0  0  0  0  0  0  0  0  0  0  0  0
   -0.7223   -0.6805    1.7881 H   0  0  0  0  0  0  0  0  0  0  0  0
   -1.4020    3.0763    1.5284 H   0  0  0  0  0  0  0  0  0  0  0  0
   -3.1730    4.1392    2.8966 H   0  0  0  0  0  0  0  0  0  0  0  0
   -4.6873    2.7398    4.3302 H   0  0  0  0  0  0  0  0  0  0  0  0
   -4.3648    0.2476    4.4005 H   0  0  0  0  0  0  0  0  0  0  0  0
   -2.5655   -0.8172    3.0462 H   0  0  0  0  0  0  0  0  0  0  0  0
  1  3  1  0  0  0  0
  1 15  1  0  0  0  0
  1  9  1  0  0  0  0
  2 28  1  0  0  0  0
  2 34  1  0  0  0  0
  3  8  1  0  0  0  0
  4  5  1  0  0  0  0
  4  3  2  0  0  0  0
  5  6  2  0  0  0  0
  6 43  1  0  0  0  0
  6  7  1  0  0  0  0
  7 44  1  0  0  0  0
  8  7  2  0  0  0  0
  8 45  1  0  0  0  0
  9 14  1  0  0  0  0
 10  9  2  0  0  0  0
 10 11  1  0  0  0  0
 11 12  2  0  0  0  0
 12 13  1  0  0  0  0
 12 48  1  0  0  0  0
 13 49  1  0  0  0  0
 14 50  1  0  0  0  0
 14 13  2  0  0  0  0
 15 51  1  1  0  0  0
 16 15  1  0  0  0  0
 16 21  1  0  0  0  0
 17 16  2  0  0  0  0
 18 17  1  0  0  0  0
 18 19  2  0  0  0  0
 19 20  1  0  0  0  0
 20 21  2  0  0  0  0
 20 55  1  0  0  0  0
 21 56  1  0  0  0  0
 22  2  1  0  0  0  0
 22 23  1  0  0  0  0
 23 57  1  0  0  0  0
 24 23  2  0  0  0  0
 24 58  1  0  0  0  0
 25 24  1  0  0  0  0
 26 27  1  0  0  0  0
 26 25  2  0  0  0  0
 27 22  2  0  0  0  0
 28 29  1  0  0  0  0
 29 30  2  0  0  0  0
 29 62  1  0  0  0  0
 30 63  1  0  0  0  0
 31 64  1  0  0  0  0
 31 30  1  0  0  0  0
 32 31  2  0  0  0  0
 33 32  1  0  0  0  0
 33 28  2  0  0  0  0
 34 15  1  0  0  0  0
 34 67  1  1  0  0  0
 34 35  1  0  0  0  0
 35 40  1  0  0  0  0
 36 35  2  0  0  0  0
 36 37  1  0  0  0  0
 37 38  2  0  0  0  0
 38 39  1  0  0  0  0
 38 70  1  0  0  0  0
 39 71  1  0  0  0  0
 40 72  1  0  0  0  0
 40 39  2  0  0  0  0
 41  4  1  0  0  0  0
 42  5  1  0  0  0  0
 46 10  1  0  0  0  0
 47 11  1  0  0  0  0
 52 17  1  0  0  0  0
 53 18  1  0  0  0  0
 54 19  1  0  0  0  0
 59 25  1  0  0  0  0
 60 26  1  0  0  0  0
 61 27  1  0  0  0  0
 65 32  1  0  0  0  0
 66 33  1  0  0  0  0
 68 36  1  0  0  0  0
 69 37  1  0  0  0  0
M  END
