1,2
 OpenBabel05122313063D

 64 68  0  0  0  0  0  0  0  0999 V2000
   -1.3062   -0.2532   -0.2251 P   0  0  0  0  0  0  0  0  0  0  0  0
    1.3778   -0.2714   -0.2678 P   0  0  0  0  0  0  0  0  0  0  0  0
    0.0535    0.4954    0.5948 N   0  0  0  0  0  0  0  0  0  0  0  0
    0.1181    1.2248    1.8216 C   0  0  0  0  0  0  0  0  0  0  0  0
    0.2779    0.5054    3.0279 C   0  0  0  0  0  0  0  0  0  0  0  0
    0.3221   -0.5910    2.9833 H   0  0  0  0  0  0  0  0  0  0  0  0
    0.3768    1.1743    4.2523 C   0  0  0  0  0  0  0  0  0  0  0  0
    0.5020    0.6008    5.1828 H   0  0  0  0  0  0  0  0  0  0  0  0
    0.3171    2.5771    4.2789 C   0  0  0  0  0  0  0  0  0  0  0  0
    0.3973    3.1175    5.2344 H   0  0  0  0  0  0  0  0  0  0  0  0
    0.1627    3.2912    3.0840 C   0  0  0  0  0  0  0  0  0  0  0  0
    0.1284    4.3921    3.1118 H   0  0  0  0  0  0  0  0  0  0  0  0
    0.0629    2.6443    1.8335 C   0  0  0  0  0  0  0  0  0  0  0  0
   -0.0830    3.4677    0.5740 C   0  0  0  0  0  0  0  0  0  0  0  0
    0.0076    2.8029   -0.3053 H   0  0  0  0  0  0  0  0  0  0  0  0
    0.7743    4.1730    0.5171 H   0  0  0  0  0  0  0  0  0  0  0  0
   -1.3970    4.2560    0.5048 C   0  0  0  0  0  0  0  0  0  0  0  0
   -2.2717    3.5766    0.5200 H   0  0  0  0  0  0  0  0  0  0  0  0
   -1.4504    4.8489   -0.4295 H   0  0  0  0  0  0  0  0  0  0  0  0
   -1.4987    4.9576    1.3578 H   0  0  0  0  0  0  0  0  0  0  0  0
   -2.3867    1.0600   -0.8790 C   0  0  0  0  0  0  0  0  0  0  0  0
   -3.6866    1.3057   -0.3954 C   0  0  0  0  0  0  0  0  0  0  0  0
   -4.0905    0.7079    0.4342 H   0  0  0  0  0  0  0  0  0  0  0  0
   -4.4731    2.3061   -0.9884 C   0  0  0  0  0  0  0  0  0  0  0  0
   -5.4892    2.4949   -0.6107 H   0  0  0  0  0  0  0  0  0  0  0  0
   -3.9700    3.0553   -2.0627 C   0  0  0  0  0  0  0  0  0  0  0  0
   -4.5918    3.8350   -2.5279 H   0  0  0  0  0  0  0  0  0  0  0  0
   -2.6794    2.7986   -2.5577 C   0  0  0  0  0  0  0  0  0  0  0  0
   -2.2915    3.3701   -3.4141 H   0  0  0  0  0  0  0  0  0  0  0  0
   -1.8922    1.7981   -1.9767 C   0  0  0  0  0  0  0  0  0  0  0  0
   -0.8946    1.5635   -2.3822 H   0  0  0  0  0  0  0  0  0  0  0  0
   -2.2575   -1.1942    1.0094 C   0  0  0  0  0  0  0  0  0  0  0  0
   -2.5175   -2.5539    0.7334 C   0  0  0  0  0  0  0  0  0  0  0  0
   -2.1990   -2.9754   -0.2359 H   0  0  0  0  0  0  0  0  0  0  0  0
   -3.2018   -3.3327    1.6787 C   0  0  0  0  0  0  0  0  0  0  0  0
   -3.4097   -4.3911    1.4609 H   0  0  0  0  0  0  0  0  0  0  0  0
   -3.6203   -2.7660    2.8934 C   0  0  0  0  0  0  0  0  0  0  0  0
   -4.1524   -3.3826    3.6339 H   0  0  0  0  0  0  0  0  0  0  0  0
   -3.3671   -1.4109    3.1647 C   0  0  0  0  0  0  0  0  0  0  0  0
   -3.6979   -0.9654    4.1151 H   0  0  0  0  0  0  0  0  0  0  0  0
   -2.6905   -0.6190    2.2256 C   0  0  0  0  0  0  0  0  0  0  0  0
   -2.4955    0.4408    2.4446 H   0  0  0  0  0  0  0  0  0  0  0  0
    2.5038    1.0432   -0.8268 C   0  0  0  0  0  0  0  0  0  0  0  0
    2.8635    1.0586   -2.1910 C   0  0  0  0  0  0  0  0  0  0  0  0
    2.5029    0.2501   -2.8513 H   0  0  0  0  0  0  0  0  0  0  0  0
    3.6920    2.0832   -2.6739 C   0  0  0  0  0  0  0  0  0  0  0  0
    3.9769    2.0940   -3.7368 H   0  0  0  0  0  0  0  0  0  0  0  0
    4.1538    3.0878   -1.8091 C   0  0  0  0  0  0  0  0  0  0  0  0
    4.7991    3.8920   -2.1945 H   0  0  0  0  0  0  0  0  0  0  0  0
    3.7982    3.0680   -0.4494 C   0  0  0  0  0  0  0  0  0  0  0  0
    4.1633    3.8537    0.2295 H   0  0  0  0  0  0  0  0  0  0  0  0
    2.9777    2.0462    0.0485 C   0  0  0  0  0  0  0  0  0  0  0  0
    2.7000    2.0357    1.1130 H   0  0  0  0  0  0  0  0  0  0  0  0
    2.2688   -1.2917    0.9557 C   0  0  0  0  0  0  0  0  0  0  0  0
    1.5954   -2.4377    1.4348 C   0  0  0  0  0  0  0  0  0  0  0  0
    0.5955   -2.6850    1.0426 H   0  0  0  0  0  0  0  0  0  0  0  0
    2.2032   -3.2573    2.3925 C   0  0  0  0  0  0  0  0  0  0  0  0
    1.6750   -4.1491    2.7617 H   0  0  0  0  0  0  0  0  0  0  0  0
    3.4916   -2.9507    2.8656 C   0  0  0  0  0  0  0  0  0  0  0  0
    3.9719   -3.6007    3.6126 H   0  0  0  0  0  0  0  0  0  0  0  0
    4.1718   -1.8273    2.3728 C   0  0  0  0  0  0  0  0  0  0  0  0
    5.1861   -1.5946    2.7306 H   0  0  0  0  0  0  0  0  0  0  0  0
    3.5658   -0.9969    1.4163 C   0  0  0  0  0  0  0  0  0  0  0  0
    4.1070   -0.1240    1.0238 H   0  0  0  0  0  0  0  0  0  0  0  0
  1  3  1  0  0  0  0
  1 32  1  0  0  0  0
  2  3  1  0  0  0  0
  2 54  1  0  0  0  0
  3  4  1  0  0  0  0
  4 13  2  0  0  0  0
  4  5  1  0  0  0  0
  5  7  2  0  0  0  0
  6  5  1  0  0  0  0
  7  9  1  0  0  0  0
  7  8  1  0  0  0  0
  9 10  1  0  0  0  0
 11 12  1  0  0  0  0
 11  9  2  0  0  0  0
 13 11  1  0  0  0  0
 14 13  1  0  0  0  0
 15 14  1  0  0  0  0
 16 14  1  0  0  0  0
 17 18  1  0  0  0  0
 17 14  1  0  0  0  0
 17 20  1  0  0  0  0
 19 17  1  0  0  0  0
 21 22  1  0  0  0  0
 21  1  1  0  0  0  0
 22 23  1  0  0  0  0
 24 25  1  0  0  0  0
 24 22  2  0  0  0  0
 26 24  1  0  0  0  0
 27 26  1  0  0  0  0
 28 26  2  0  0  0  0
 28 30  1  0  0  0  0
 29 28  1  0  0  0  0
 30 21  2  0  0  0  0
 31 30  1  0  0  0  0
 32 41  1  0  0  0  0
 33 32  2  0  0  0  0
 33 35  1  0  0  0  0
 34 33  1  0  0  0  0
 35 37  2  0  0  0  0
 36 35  1  0  0  0  0
 37 39  1  0  0  0  0
 37 38  1  0  0  0  0
 39 40  1  0  0  0  0
 41 42  1  0  0  0  0
 41 39  2  0  0  0  0
 43  2  1  0  0  0  0
 43 52  1  0  0  0  0
 44 43  2  0  0  0  0
 45 44  1  0  0  0  0
 46 44  1  0  0  0  0
 46 48  2  0  0  0  0
 47 46  1  0  0  0  0
 48 50  1  0  0  0  0
 49 48  1  0  0  0  0
 50 52  2  0  0  0  0
 50 51  1  0  0  0  0
 52 53  1  0  0  0  0
 54 63  2  0  0  0  0
 54 55  1  0  0  0  0
 55 57  2  0  0  0  0
 56 55  1  0  0  0  0
 57 58  1  0  0  0  0
 57 59  1  0  0  0  0
 59 60  1  0  0  0  0
 61 62  1  0  0  0  0
 61 59  2  0  0  0  0
 63 61  1  0  0  0  0
 64 63  1  0  0  0  0
M  END
