1,2
 OpenBabel05122313063D

 64 68  0  0  0  0  0  0  0  0999 V2000
    0.9964   -1.0057   -0.1348 P   0  0  0  0  0  0  0  0  0  0  0  0
   -1.3872    0.2269   -0.0638 P   0  0  0  0  0  0  0  0  0  0  0  0
    0.2277    0.3921    0.5942 N   0  0  0  0  0  0  0  0  0  0  0  0
    0.8677    1.4624    1.2883 C   0  0  0  0  0  0  0  0  0  0  0  0
    1.0572    1.3519    2.6821 C   0  0  0  0  0  0  0  0  0  0  0  0
    0.7056    0.4444    3.1924 H   0  0  0  0  0  0  0  0  0  0  0  0
    1.6986    2.3754    3.3867 C   0  0  0  0  0  0  0  0  0  0  0  0
    1.8472    2.2903    4.4735 H   0  0  0  0  0  0  0  0  0  0  0  0
    2.1495    3.5102    2.6969 C   0  0  0  0  0  0  0  0  0  0  0  0
    2.6476    4.3231    3.2482 H   0  0  0  0  0  0  0  0  0  0  0  0
    1.9930    3.6296    1.3038 C   0  0  0  0  0  0  0  0  0  0  0  0
    1.3568    2.5890    0.5721 C   0  0  0  0  0  0  0  0  0  0  0  0
    2.5126    4.8449    0.5809 C   0  0  0  0  0  0  0  0  0  0  0  0
    1.7066    5.3570    0.0146 H   0  0  0  0  0  0  0  0  0  0  0  0
    3.2880    4.5707   -0.1656 H   0  0  0  0  0  0  0  0  0  0  0  0
    2.9576    5.5754    1.2828 H   0  0  0  0  0  0  0  0  0  0  0  0
    1.2581    2.6933   -0.9250 C   0  0  0  0  0  0  0  0  0  0  0  0
    0.8015    1.7979   -1.3771 H   0  0  0  0  0  0  0  0  0  0  0  0
    2.2662    2.8187   -1.3723 H   0  0  0  0  0  0  0  0  0  0  0  0
    0.6524    3.5712   -1.2315 H   0  0  0  0  0  0  0  0  0  0  0  0
    1.4830   -2.0874    1.2489 C   0  0  0  0  0  0  0  0  0  0  0  0
    0.5610   -2.2954    2.2973 C   0  0  0  0  0  0  0  0  0  0  0  0
   -0.4050   -1.7669    2.2924 H   0  0  0  0  0  0  0  0  0  0  0  0
    0.8747   -3.1796    3.3368 C   0  0  0  0  0  0  0  0  0  0  0  0
    0.1551   -3.3362    4.1544 H   0  0  0  0  0  0  0  0  0  0  0  0
    2.0980   -3.8723    3.3287 C   0  0  0  0  0  0  0  0  0  0  0  0
    2.3401   -4.5704    4.1443 H   0  0  0  0  0  0  0  0  0  0  0  0
    3.0055   -3.6826    2.2754 C   0  0  0  0  0  0  0  0  0  0  0  0
    3.9587   -4.2322    2.2614 H   0  0  0  0  0  0  0  0  0  0  0  0
    2.7016   -2.7939    1.2324 C   0  0  0  0  0  0  0  0  0  0  0  0
    3.4103   -2.6506    0.4034 H   0  0  0  0  0  0  0  0  0  0  0  0
    2.5366   -0.4289   -0.9117 C   0  0  0  0  0  0  0  0  0  0  0  0
    2.6762   -0.5391   -2.3103 C   0  0  0  0  0  0  0  0  0  0  0  0
    1.9050   -1.0788   -2.8856 H   0  0  0  0  0  0  0  0  0  0  0  0
    3.8087    0.0060   -2.9338 C   0  0  0  0  0  0  0  0  0  0  0  0
    3.9245   -0.0843   -4.0243 H   0  0  0  0  0  0  0  0  0  0  0  0
    4.7894    0.6613   -2.1714 C   0  0  0  0  0  0  0  0  0  0  0  0
    5.6721    1.0939   -2.6669 H   0  0  0  0  0  0  0  0  0  0  0  0
    4.6563    0.7544   -0.7750 C   0  0  0  0  0  0  0  0  0  0  0  0
    5.4313    1.2573   -0.1769 H   0  0  0  0  0  0  0  0  0  0  0  0
    3.5357    0.2035   -0.1382 C   0  0  0  0  0  0  0  0  0  0  0  0
    3.4344    0.2718    0.9552 H   0  0  0  0  0  0  0  0  0  0  0  0
   -2.5471   -0.1149    1.3039 C   0  0  0  0  0  0  0  0  0  0  0  0
   -3.6386   -0.9584    1.0039 C   0  0  0  0  0  0  0  0  0  0  0  0
   -3.7383   -1.3717   -0.0155 H   0  0  0  0  0  0  0  0  0  0  0  0
   -4.5727   -1.2611    2.0055 C   0  0  0  0  0  0  0  0  0  0  0  0
   -5.4225   -1.9201    1.7721 H   0  0  0  0  0  0  0  0  0  0  0  0
   -4.4190   -0.7385    3.2998 C   0  0  0  0  0  0  0  0  0  0  0  0
   -5.1509   -0.9855    4.0840 H   0  0  0  0  0  0  0  0  0  0  0  0
   -3.3295    0.0970    3.5971 C   0  0  0  0  0  0  0  0  0  0  0  0
   -3.2074    0.5066    4.6115 H   0  0  0  0  0  0  0  0  0  0  0  0
   -2.3924    0.4145    2.6025 C   0  0  0  0  0  0  0  0  0  0  0  0
   -1.5401    1.0665    2.8421 H   0  0  0  0  0  0  0  0  0  0  0  0
   -1.8893    1.8394   -0.7470 C   0  0  0  0  0  0  0  0  0  0  0  0
   -2.1487    1.9366   -2.1290 C   0  0  0  0  0  0  0  0  0  0  0  0
   -2.1307    1.0231   -2.7462 H   0  0  0  0  0  0  0  0  0  0  0  0
   -2.4633    3.1864   -2.6836 C   0  0  0  0  0  0  0  0  0  0  0  0
   -2.6726    3.2651   -3.7611 H   0  0  0  0  0  0  0  0  0  0  0  0
   -2.5142    4.3294   -1.8695 C   0  0  0  0  0  0  0  0  0  0  0  0
   -2.7552    5.3086   -2.3110 H   0  0  0  0  0  0  0  0  0  0  0  0
   -2.2757    4.2250   -0.4880 C   0  0  0  0  0  0  0  0  0  0  0  0
   -2.3312    5.1182    0.1526 H   0  0  0  0  0  0  0  0  0  0  0  0
   -1.9740    2.9797    0.0800 C   0  0  0  0  0  0  0  0  0  0  0  0
   -1.7980    2.9011    1.1630 H   0  0  0  0  0  0  0  0  0  0  0  0
  1  3  1  0  0  0  0
  1 21  1  0  0  0  0
  2  3  1  0  0  0  0
  2 43  1  0  0  0  0
  3  4  1  0  0  0  0
  4  5  1  0  0  0  0
  5  6  1  0  0  0  0
  5  7  2  0  0  0  0
  7  8  1  0  0  0  0
  9 10  1  0  0  0  0
  9  7  1  0  0  0  0
 11  9  2  0  0  0  0
 12  4  2  0  0  0  0
 12 11  1  0  0  0  0
 13 16  1  0  0  0  0
 13 11  1  0  0  0  0
 14 13  1  0  0  0  0
 15 13  1  0  0  0  0
 17 12  1  0  0  0  0
 18 17  1  0  0  0  0
 19 17  1  0  0  0  0
 20 17  1  0  0  0  0
 21 22  1  0  0  0  0
 22 24  2  0  0  0  0
 23 22  1  0  0  0  0
 24 25  1  0  0  0  0
 26 24  1  0  0  0  0
 26 27  1  0  0  0  0
 28 26  2  0  0  0  0
 29 28  1  0  0  0  0
 30 21  2  0  0  0  0
 30 28  1  0  0  0  0
 31 30  1  0  0  0  0
 32 41  1  0  0  0  0
 32  1  1  0  0  0  0
 33 32  2  0  0  0  0
 34 33  1  0  0  0  0
 35 33  1  0  0  0  0
 35 37  2  0  0  0  0
 36 35  1  0  0  0  0
 37 39  1  0  0  0  0
 38 37  1  0  0  0  0
 39 40  1  0  0  0  0
 39 41  2  0  0  0  0
 41 42  1  0  0  0  0
 43 52  1  0  0  0  0
 44 43  2  0  0  0  0
 44 46  1  0  0  0  0
 45 44  1  0  0  0  0
 46 48  2  0  0  0  0
 47 46  1  0  0  0  0
 48 50  1  0  0  0  0
 48 49  1  0  0  0  0
 50 51  1  0  0  0  0
 52 53  1  0  0  0  0
 52 50  2  0  0  0  0
 54  2  1  0  0  0  0
 54 63  1  0  0  0  0
 55 54  2  0  0  0  0
 56 55  1  0  0  0  0
 57 55  1  0  0  0  0
 57 59  2  0  0  0  0
 58 57  1  0  0  0  0
 59 61  1  0  0  0  0
 60 59  1  0  0  0  0
 61 63  2  0  0  0  0
 61 62  1  0  0  0  0
 63 64  1  0  0  0  0
M  END
