2,3
 OpenBabel05122313063D

 65 69  0  0  0  0  0  0  0  0999 V2000
    1.1552    0.1947    4.3121 S   0  0  0  0  0  0  0  0  0  0  0  0
   -1.1179    0.3378    0.5335 P   0  0  0  0  0  0  0  0  0  0  0  0
    1.8319   -0.2645   -0.0037 P   0  0  0  0  0  0  0  0  0  0  0  0
   -0.2727    0.4779    3.3649 C   0  0  0  0  0  0  0  0  0  0  0  0
   -1.2245    0.6925    3.8646 H   0  0  0  0  0  0  0  0  0  0  0  0
   -0.0249    0.3108    2.0143 C   0  0  0  0  0  0  0  0  0  0  0  0
    1.3502   -0.0281    1.7493 C   0  0  0  0  0  0  0  0  0  0  0  0
    2.1098   -0.1283    2.8995 C   0  0  0  0  0  0  0  0  0  0  0  0
    3.1765   -0.3716    2.9862 H   0  0  0  0  0  0  0  0  0  0  0  0
   -1.2171    2.1334    0.0981 C   0  0  0  0  0  0  0  0  0  0  0  0
   -1.7324    3.1693    0.9241 C   0  0  0  0  0  0  0  0  0  0  0  0
   -1.6457    4.4938    0.4437 C   0  0  0  0  0  0  0  0  0  0  0  0
   -2.0518    5.3050    1.0690 H   0  0  0  0  0  0  0  0  0  0  0  0
   -1.0532    4.8026   -0.7880 C   0  0  0  0  0  0  0  0  0  0  0  0
   -1.0006    5.8502   -1.1220 H   0  0  0  0  0  0  0  0  0  0  0  0
   -0.5240    3.7774   -1.5840 C   0  0  0  0  0  0  0  0  0  0  0  0
   -0.0364    3.9996   -2.5441 H   0  0  0  0  0  0  0  0  0  0  0  0
   -0.6121    2.4554   -1.1368 C   0  0  0  0  0  0  0  0  0  0  0  0
   -0.1817    1.6364   -1.7359 H   0  0  0  0  0  0  0  0  0  0  0  0
   -2.3094    2.9369    2.2965 C   0  0  0  0  0  0  0  0  0  0  0  0
   -1.5003    2.9424    3.0574 H   0  0  0  0  0  0  0  0  0  0  0  0
   -2.8368    1.9688    2.3798 H   0  0  0  0  0  0  0  0  0  0  0  0
   -3.0198    3.7421    2.5667 H   0  0  0  0  0  0  0  0  0  0  0  0
   -2.7780   -0.2257    1.0745 C   0  0  0  0  0  0  0  0  0  0  0  0
   -2.9607   -1.4088    1.8408 C   0  0  0  0  0  0  0  0  0  0  0  0
   -4.2833   -1.8485    2.0605 C   0  0  0  0  0  0  0  0  0  0  0  0
   -4.4389   -2.7651    2.6515 H   0  0  0  0  0  0  0  0  0  0  0  0
   -5.3885   -1.1734    1.5291 C   0  0  0  0  0  0  0  0  0  0  0  0
   -6.4041   -1.5575    1.7087 H   0  0  0  0  0  0  0  0  0  0  0  0
   -5.1931   -0.0237    0.7498 C   0  0  0  0  0  0  0  0  0  0  0  0
   -6.0482    0.5021    0.3003 H   0  0  0  0  0  0  0  0  0  0  0  0
   -3.8943    0.4429    0.5266 C   0  0  0  0  0  0  0  0  0  0  0  0
   -3.7351    1.3297   -0.1041 H   0  0  0  0  0  0  0  0  0  0  0  0
   -1.8266   -2.2285    2.4081 C   0  0  0  0  0  0  0  0  0  0  0  0
   -0.9027   -2.1439    1.8051 H   0  0  0  0  0  0  0  0  0  0  0  0
   -2.1096   -3.2978    2.4514 H   0  0  0  0  0  0  0  0  0  0  0  0
   -1.5600   -1.9087    3.4369 H   0  0  0  0  0  0  0  0  0  0  0  0
    2.4690    1.4067   -0.4739 C   0  0  0  0  0  0  0  0  0  0  0  0
    2.9744    1.6312   -1.7863 C   0  0  0  0  0  0  0  0  0  0  0  0
    3.2977    2.9556   -2.1484 C   0  0  0  0  0  0  0  0  0  0  0  0
    3.6858    3.1396   -3.1628 H   0  0  0  0  0  0  0  0  0  0  0  0
    3.1384    4.0285   -1.2604 C   0  0  0  0  0  0  0  0  0  0  0  0
    3.3921    5.0500   -1.5824 H   0  0  0  0  0  0  0  0  0  0  0  0
    2.6567    3.7930    0.0345 C   0  0  0  0  0  0  0  0  0  0  0  0
    2.5236    4.6237    0.7434 H   0  0  0  0  0  0  0  0  0  0  0  0
    2.3257    2.4883    0.4210 C   0  0  0  0  0  0  0  0  0  0  0  0
    1.9322    2.3100    1.4315 H   0  0  0  0  0  0  0  0  0  0  0  0
    3.2060    0.5087   -2.7599 C   0  0  0  0  0  0  0  0  0  0  0  0
    4.1514   -0.0259   -2.5248 H   0  0  0  0  0  0  0  0  0  0  0  0
    3.2873    0.8908   -3.7957 H   0  0  0  0  0  0  0  0  0  0  0  0
    2.4006   -0.2581   -2.7377 H   0  0  0  0  0  0  0  0  0  0  0  0
    3.3270   -1.3294    0.1461 C   0  0  0  0  0  0  0  0  0  0  0  0
    3.1764   -2.7317    0.3255 C   0  0  0  0  0  0  0  0  0  0  0  0
    4.3463   -3.5066    0.4543 C   0  0  0  0  0  0  0  0  0  0  0  0
    4.2435   -4.5951    0.5876 H   0  0  0  0  0  0  0  0  0  0  0  0
    5.6236   -2.9294    0.4146 C   0  0  0  0  0  0  0  0  0  0  0  0
    6.5158   -3.5664    0.5133 H   0  0  0  0  0  0  0  0  0  0  0  0
    5.7592   -1.5433    0.2519 C   0  0  0  0  0  0  0  0  0  0  0  0
    6.7557   -1.0770    0.2265 H   0  0  0  0  0  0  0  0  0  0  0  0
    4.6111   -0.7496    0.1185 C   0  0  0  0  0  0  0  0  0  0  0  0
    4.7090    0.3396   -0.0076 H   0  0  0  0  0  0  0  0  0  0  0  0
    1.8209   -3.3799    0.3853 C   0  0  0  0  0  0  0  0  0  0  0  0
    1.2235   -2.9901    1.2368 H   0  0  0  0  0  0  0  0  0  0  0  0
    1.9040   -4.4770    0.5037 H   0  0  0  0  0  0  0  0  0  0  0  0
    1.2549   -3.1604   -0.5458 H   0  0  0  0  0  0  0  0  0  0  0  0
  2 24  1  0  0  0  0
  2  6  1  0  0  0  0
  3 52  1  0  0  0  0
  3  7  1  0  0  0  0
  4  5  1  0  0  0  0
  4  1  1  0  0  0  0
  6  4  2  0  0  0  0
  7  6  1  0  0  0  0
  7  8  2  0  0  0  0
  8  9  1  0  0  0  0
  8  1  1  0  0  0  0
 10  2  1  0  0  0  0
 10 11  1  0  0  0  0
 11 20  1  0  0  0  0
 12 11  2  0  0  0  0
 12 13  1  0  0  0  0
 14 12  1  0  0  0  0
 15 14  1  0  0  0  0
 16 18  1  0  0  0  0
 16 14  2  0  0  0  0
 17 16  1  0  0  0  0
 18 10  2  0  0  0  0
 19 18  1  0  0  0  0
 20 22  1  0  0  0  0
 20 23  1  0  0  0  0
 20 21  1  0  0  0  0
 24 25  1  0  0  0  0
 25 26  2  0  0  0  0
 25 34  1  0  0  0  0
 26 27  1  0  0  0  0
 28 29  1  0  0  0  0
 28 26  1  0  0  0  0
 30 28  2  0  0  0  0
 31 30  1  0  0  0  0
 32 30  1  0  0  0  0
 32 24  2  0  0  0  0
 33 32  1  0  0  0  0
 34 36  1  0  0  0  0
 34 37  1  0  0  0  0
 35 34  1  0  0  0  0
 38  3  1  0  0  0  0
 38 46  1  0  0  0  0
 39 38  2  0  0  0  0
 40 39  1  0  0  0  0
 40 42  2  0  0  0  0
 41 40  1  0  0  0  0
 42 44  1  0  0  0  0
 43 42  1  0  0  0  0
 44 46  2  0  0  0  0
 44 45  1  0  0  0  0
 46 47  1  0  0  0  0
 48 51  1  0  0  0  0
 48 49  1  0  0  0  0
 48 39  1  0  0  0  0
 50 48  1  0  0  0  0
 52 53  1  0  0  0  0
 53 62  1  0  0  0  0
 53 54  2  0  0  0  0
 54 55  1  0  0  0  0
 56 54  1  0  0  0  0
 56 57  1  0  0  0  0
 58 56  2  0  0  0  0
 59 58  1  0  0  0  0
 60 52  2  0  0  0  0
 60 58  1  0  0  0  0
 61 60  1  0  0  0  0
 62 64  1  0  0  0  0
 62 63  1  0  0  0  0
 65 62  1  0  0  0  0
M  END
