1,2
 OpenBabel05122313063D

 73 76  0  0  0  0  0  0  0  0999 V2000
    1.9919    0.2555    0.2226 P   0  0  0  0  0  0  0  0  0  0  0  0
   -1.5577   -0.6105   -0.0787 P   0  0  0  0  0  0  0  0  0  0  0  0
   -0.0898    3.5096    1.1498 O   0  0  0  0  0  0  0  0  0  0  0  0
   -2.7423    4.1933    0.3229 O   0  0  0  0  0  0  0  0  0  0  0  0
   -4.3949    1.9999    1.2505 O   0  0  0  0  0  0  0  0  0  0  0  0
    1.2879    1.5614    1.3471 C   0  0  0  0  0  0  0  0  0  0  0  0
    1.0111    2.8399    0.5646 C   0  0  0  0  0  0  0  0  0  0  0  0
   -0.4313    4.6932    0.4547 C   0  0  0  0  0  0  0  0  0  0  0  0
   -1.8258    5.1189    0.8592 C   0  0  0  0  0  0  0  0  0  0  0  0
   -4.0671    4.3391    0.7778 C   0  0  0  0  0  0  0  0  0  0  0  0
   -4.8360    3.0751    0.4393 C   0  0  0  0  0  0  0  0  0  0  0  0
   -3.9239    0.8462    0.5799 C   0  0  0  0  0  0  0  0  0  0  0  0
   -2.5029    0.9933   -0.0042 C   0  0  0  0  0  0  0  0  0  0  0  0
    3.5160    1.1488   -0.3438 C   0  0  0  0  0  0  0  0  0  0  0  0
    4.6405    1.2672    0.5002 C   0  0  0  0  0  0  0  0  0  0  0  0
    5.7540    2.0166    0.0939 C   0  0  0  0  0  0  0  0  0  0  0  0
    5.7546    2.6602   -1.1547 C   0  0  0  0  0  0  0  0  0  0  0  0
    4.6375    2.5497   -1.9963 C   0  0  0  0  0  0  0  0  0  0  0  0
    3.5246    1.7945   -1.5955 C   0  0  0  0  0  0  0  0  0  0  0  0
    2.6889   -0.9872    1.3868 C   0  0  0  0  0  0  0  0  0  0  0  0
    2.3295   -1.0496    2.7458 C   0  0  0  0  0  0  0  0  0  0  0  0
    2.8561   -2.0591    3.5690 C   0  0  0  0  0  0  0  0  0  0  0  0
    3.7425   -3.0100    3.0448 C   0  0  0  0  0  0  0  0  0  0  0  0
    4.1001   -2.9552    1.6860 C   0  0  0  0  0  0  0  0  0  0  0  0
    3.5747   -1.9538    0.8612 C   0  0  0  0  0  0  0  0  0  0  0  0
   -2.9197   -1.7605   -0.6001 C   0  0  0  0  0  0  0  0  0  0  0  0
   -3.4476   -2.7843    0.2087 C   0  0  0  0  0  0  0  0  0  0  0  0
   -4.4860   -3.6005   -0.2703 C   0  0  0  0  0  0  0  0  0  0  0  0
   -5.0153   -3.3965   -1.5525 C   0  0  0  0  0  0  0  0  0  0  0  0
   -4.5025   -2.3668   -2.3590 C   0  0  0  0  0  0  0  0  0  0  0  0
   -3.4604   -1.5581   -1.8883 C   0  0  0  0  0  0  0  0  0  0  0  0
   -1.3168   -1.0240    1.7102 C   0  0  0  0  0  0  0  0  0  0  0  0
   -0.7795   -2.2863    2.0461 C   0  0  0  0  0  0  0  0  0  0  0  0
   -0.5693   -2.6418    3.3856 C   0  0  0  0  0  0  0  0  0  0  0  0
   -0.8655   -1.7326    4.4132 C   0  0  0  0  0  0  0  0  0  0  0  0
   -1.3757   -0.4663    4.0899 C   0  0  0  0  0  0  0  0  0  0  0  0
   -1.6094   -0.1141    2.7501 C   0  0  0  0  0  0  0  0  0  0  0  0
    1.9731    1.7400    2.1998 H   0  0  0  0  0  0  0  0  0  0  0  0
    0.3338    1.1708    1.7512 H   0  0  0  0  0  0  0  0  0  0  0  0
    1.9187    3.4906    0.5487 H   0  0  0  0  0  0  0  0  0  0  0  0
    0.7773    2.6026   -0.5010 H   0  0  0  0  0  0  0  0  0  0  0  0
   -0.4164    4.5192   -0.6486 H   0  0  0  0  0  0  0  0  0  0  0  0
    0.2950    5.5146    0.6755 H   0  0  0  0  0  0  0  0  0  0  0  0
   -1.8959    5.1492    1.9748 H   0  0  0  0  0  0  0  0  0  0  0  0
   -2.0203    6.1555    0.4843 H   0  0  0  0  0  0  0  0  0  0  0  0
   -4.5674    5.2260    0.3109 H   0  0  0  0  0  0  0  0  0  0  0  0
   -4.0938    4.4877    1.8853 H   0  0  0  0  0  0  0  0  0  0  0  0
   -5.9220    3.2560    0.6202 H   0  0  0  0  0  0  0  0  0  0  0  0
   -4.7101    2.8518   -0.6444 H   0  0  0  0  0  0  0  0  0  0  0  0
   -4.6295    0.5288   -0.2221 H   0  0  0  0  0  0  0  0  0  0  0  0
   -3.9427    0.0403    1.3414 H   0  0  0  0  0  0  0  0  0  0  0  0
   -2.5140    1.4014   -1.0344 H   0  0  0  0  0  0  0  0  0  0  0  0
   -1.9129    1.7274    0.5844 H   0  0  0  0  0  0  0  0  0  0  0  0
    4.6475    0.7620    1.4782 H   0  0  0  0  0  0  0  0  0  0  0  0
    6.6292    2.0962    0.7568 H   0  0  0  0  0  0  0  0  0  0  0  0
    6.6310    3.2447   -1.4737 H   0  0  0  0  0  0  0  0  0  0  0  0
    4.6325    3.0458   -2.9786 H   0  0  0  0  0  0  0  0  0  0  0  0
    2.6550    1.6992   -2.2617 H   0  0  0  0  0  0  0  0  0  0  0  0
    1.6196   -0.3271    3.1728 H   0  0  0  0  0  0  0  0  0  0  0  0
    2.5599   -2.1013    4.6282 H   0  0  0  0  0  0  0  0  0  0  0  0
    4.1534   -3.7996    3.6921 H   0  0  0  0  0  0  0  0  0  0  0  0
    4.7896   -3.7022    1.2647 H   0  0  0  0  0  0  0  0  0  0  0  0
    3.8502   -1.9185   -0.2048 H   0  0  0  0  0  0  0  0  0  0  0  0
   -3.0561   -2.9462    1.2230 H   0  0  0  0  0  0  0  0  0  0  0  0
   -4.8853   -4.4006    0.3716 H   0  0  0  0  0  0  0  0  0  0  0  0
   -5.8272   -4.0389   -1.9254 H   0  0  0  0  0  0  0  0  0  0  0  0
   -4.9087   -2.1974   -3.3676 H   0  0  0  0  0  0  0  0  0  0  0  0
   -3.0587   -0.7615   -2.5327 H   0  0  0  0  0  0  0  0  0  0  0  0
   -0.5156   -3.0026    1.2561 H   0  0  0  0  0  0  0  0  0  0  0  0
   -0.1498   -3.6308    3.6227 H   0  0  0  0  0  0  0  0  0  0  0  0
   -0.6925   -2.0081    5.4647 H   0  0  0  0  0  0  0  0  0  0  0  0
   -1.6072    0.2577    4.8858 H   0  0  0  0  0  0  0  0  0  0  0  0
   -2.0256    0.8796    2.5310 H   0  0  0  0  0  0  0  0  0  0  0  0
  1  6  1  0  0  0  0
  1 20  1  0  0  0  0
  2 13  1  0  0  0  0
  2 32  1  0  0  0  0
  4 10  1  0  0  0  0
  4  9  1  0  0  0  0
  6 39  1  0  0  0  0
  6 38  1  0  0  0  0
  7  3  1  0  0  0  0
  7  6  1  0  0  0  0
  8 43  1  0  0  0  0
  8  9  1  0  0  0  0
  8  3  1  0  0  0  0
  9 44  1  0  0  0  0
 10 47  1  0  0  0  0
 11 48  1  0  0  0  0
 11 10  1  0  0  0  0
 11  5  1  0  0  0  0
 12  5  1  0  0  0  0
 12 51  1  0  0  0  0
 13 12  1  0  0  0  0
 13 53  1  0  0  0  0
 14  1  1  0  0  0  0
 14 15  1  0  0  0  0
 15 54  1  0  0  0  0
 16 15  2  0  0  0  0
 16 55  1  0  0  0  0
 17 16  1  0  0  0  0
 18 19  1  0  0  0  0
 18 17  2  0  0  0  0
 19 14  2  0  0  0  0
 20 21  1  0  0  0  0
 21 59  1  0  0  0  0
 21 22  2  0  0  0  0
 22 60  1  0  0  0  0
 23 22  1  0  0  0  0
 23 61  1  0  0  0  0
 24 23  2  0  0  0  0
 25 20  2  0  0  0  0
 25 24  1  0  0  0  0
 26  2  1  0  0  0  0
 26 27  1  0  0  0  0
 27 64  1  0  0  0  0
 28 27  2  0  0  0  0
 28 65  1  0  0  0  0
 29 28  1  0  0  0  0
 30 31  1  0  0  0  0
 30 29  2  0  0  0  0
 31 26  2  0  0  0  0
 32 33  2  0  0  0  0
 32 37  1  0  0  0  0
 33 34  1  0  0  0  0
 34 70  1  0  0  0  0
 34 35  2  0  0  0  0
 35 71  1  0  0  0  0
 36 35  1  0  0  0  0
 36 72  1  0  0  0  0
 37 36  2  0  0  0  0
 40  7  1  0  0  0  0
 41  7  1  0  0  0  0
 42  8  1  0  0  0  0
 45  9  1  0  0  0  0
 46 10  1  0  0  0  0
 49 11  1  0  0  0  0
 50 12  1  0  0  0  0
 52 13  1  0  0  0  0
 56 17  1  0  0  0  0
 57 18  1  0  0  0  0
 58 19  1  0  0  0  0
 62 24  1  0  0  0  0
 63 25  1  0  0  0  0
 66 29  1  0  0  0  0
 67 30  1  0  0  0  0
 68 31  1  0  0  0  0
 69 33  1  0  0  0  0
 73 37  1  0  0  0  0
M  END
