1,2
 OpenBabel05122313063D

 70 71  0  0  0  0  0  0  0  0999 V2000
   -1.8024   -0.7507   -0.4474 P   0  0  0  0  0  0  0  0  0  0  0  0
    2.0556   -0.5591    0.3870 P   0  0  0  0  0  0  0  0  0  0  0  0
    0.9577    2.0612    0.2222 C   0  0  0  0  0  0  0  0  0  0  0  0
    0.9774    3.4135   -0.1942 C   0  0  0  0  0  0  0  0  0  0  0  0
    0.0694    4.0229   -0.0983 H   0  0  0  0  0  0  0  0  0  0  0  0
    3.3160    3.2269   -0.8993 C   0  0  0  0  0  0  0  0  0  0  0  0
   -0.1516    1.4550    0.7931 N   0  0  0  0  0  0  0  0  0  0  0  0
   -3.3292    3.3774    1.1503 C   0  0  0  0  0  0  0  0  0  0  0  0
   -3.6692    4.3601    1.5144 H   0  0  0  0  0  0  0  0  0  0  0  0
   -3.8015    1.1914    0.2519 C   0  0  0  0  0  0  0  0  0  0  0  0
   -4.5392    0.4604   -0.1120 H   0  0  0  0  0  0  0  0  0  0  0  0
   -1.4964    1.8206    0.7257 C   0  0  0  0  0  0  0  0  0  0  0  0
    2.7521   -0.6318    2.1452 C   0  0  0  0  0  0  0  0  0  0  0  0
    2.7176   -1.7184    2.3816 H   0  0  0  0  0  0  0  0  0  0  0  0
   -1.9665    3.0724    1.1836 C   0  0  0  0  0  0  0  0  0  0  0  0
   -1.2508    3.7906    1.6068 H   0  0  0  0  0  0  0  0  0  0  0  0
    1.8151    0.0993    3.1136 C   0  0  0  0  0  0  0  0  0  0  0  0
    2.1666   -0.0403    4.1568 H   0  0  0  0  0  0  0  0  0  0  0  0
    0.7763   -0.2778    3.0539 H   0  0  0  0  0  0  0  0  0  0  0  0
    1.7969    1.1886    2.9059 H   0  0  0  0  0  0  0  0  0  0  0  0
    2.1269    1.2604    0.0211 C   0  0  0  0  0  0  0  0  0  0  0  0
    3.4487   -1.2588   -0.6651 C   0  0  0  0  0  0  0  0  0  0  0  0
    4.3512   -0.6551   -0.4316 H   0  0  0  0  0  0  0  0  0  0  0  0
   -4.2776    2.4416    0.6873 C   0  0  0  0  0  0  0  0  0  0  0  0
    3.2744    1.8729   -0.5215 C   0  0  0  0  0  0  0  0  0  0  0  0
    4.1844    1.2729   -0.6729 H   0  0  0  0  0  0  0  0  0  0  0  0
   -3.2836   -1.8876   -0.2271 C   0  0  0  0  0  0  0  0  0  0  0  0
   -4.1447   -1.3868   -0.7200 H   0  0  0  0  0  0  0  0  0  0  0  0
    2.1325    3.9765   -0.7404 C   0  0  0  0  0  0  0  0  0  0  0  0
    2.1133    5.0329   -1.0534 H   0  0  0  0  0  0  0  0  0  0  0  0
   -2.4318    0.8583    0.2435 C   0  0  0  0  0  0  0  0  0  0  0  0
   -5.7484    2.7744    0.6626 C   0  0  0  0  0  0  0  0  0  0  0  0
   -6.3518    1.9263    0.2846 H   0  0  0  0  0  0  0  0  0  0  0  0
   -5.9561    3.6516    0.0142 H   0  0  0  0  0  0  0  0  0  0  0  0
   -6.1238    3.0298    1.6759 H   0  0  0  0  0  0  0  0  0  0  0  0
   -3.6032   -2.0789    1.2600 C   0  0  0  0  0  0  0  0  0  0  0  0
   -4.5026   -2.7191    1.3746 H   0  0  0  0  0  0  0  0  0  0  0  0
   -3.8005   -1.1184    1.7748 H   0  0  0  0  0  0  0  0  0  0  0  0
   -2.7661   -2.5795    1.7851 H   0  0  0  0  0  0  0  0  0  0  0  0
    3.1357   -1.1161   -2.1585 C   0  0  0  0  0  0  0  0  0  0  0  0
    3.9996   -1.4666   -2.7609 H   0  0  0  0  0  0  0  0  0  0  0  0
    2.9266   -0.0658   -2.4417 H   0  0  0  0  0  0  0  0  0  0  0  0
    2.2592   -1.7282   -2.4456 H   0  0  0  0  0  0  0  0  0  0  0  0
   -3.0438   -3.2301   -0.9255 C   0  0  0  0  0  0  0  0  0  0  0  0
   -3.9476   -3.8680   -0.8374 H   0  0  0  0  0  0  0  0  0  0  0  0
   -2.1976   -3.7680   -0.4547 H   0  0  0  0  0  0  0  0  0  0  0  0
   -2.8151   -3.1190   -2.0040 H   0  0  0  0  0  0  0  0  0  0  0  0
   -3.0898    0.0846   -2.9052 C   0  0  0  0  0  0  0  0  0  0  0  0
   -2.9725    0.2364   -3.9989 H   0  0  0  0  0  0  0  0  0  0  0  0
   -3.4176    1.0505   -2.4697 H   0  0  0  0  0  0  0  0  0  0  0  0
   -3.9051   -0.6528   -2.7624 H   0  0  0  0  0  0  0  0  0  0  0  0
   -1.7649   -0.3754   -2.2982 C   0  0  0  0  0  0  0  0  0  0  0  0
   -1.4828   -1.3620   -2.7287 H   0  0  0  0  0  0  0  0  0  0  0  0
    4.5748    3.8547   -1.4433 C   0  0  0  0  0  0  0  0  0  0  0  0
    5.3204    3.0877   -1.7318 H   0  0  0  0  0  0  0  0  0  0  0  0
    5.0577    4.5184   -0.6935 H   0  0  0  0  0  0  0  0  0  0  0  0
    4.3670    4.4792   -2.3364 H   0  0  0  0  0  0  0  0  0  0  0  0
    3.7374   -2.7127   -0.2726 C   0  0  0  0  0  0  0  0  0  0  0  0
    4.5534   -3.1185   -0.9059 H   0  0  0  0  0  0  0  0  0  0  0  0
    2.8463   -3.3544   -0.4173 H   0  0  0  0  0  0  0  0  0  0  0  0
    4.0556   -2.8097    0.7843 H   0  0  0  0  0  0  0  0  0  0  0  0
    4.1886   -0.1209    2.2757 C   0  0  0  0  0  0  0  0  0  0  0  0
    4.5197   -0.1897    3.3332 H   0  0  0  0  0  0  0  0  0  0  0  0
    4.2620    0.9444    1.9744 H   0  0  0  0  0  0  0  0  0  0  0  0
    4.9102   -0.7023    1.6687 H   0  0  0  0  0  0  0  0  0  0  0  0
   -0.6257    0.6095   -2.5811 C   0  0  0  0  0  0  0  0  0  0  0  0
   -0.4749    0.7244   -3.6743 H   0  0  0  0  0  0  0  0  0  0  0  0
    0.3247    0.2591   -2.1326 H   0  0  0  0  0  0  0  0  0  0  0  0
   -0.8470    1.6144   -2.1659 H   0  0  0  0  0  0  0  0  0  0  0  0
   -0.0510    0.4178    0.7984 H   0  0  0  0  0  0  0  0  0  0  0  0
  1 27  1  0  0  0  0
  1 31  1  0  0  0  0
  2 13  1  0  0  0  0
  3  7  1  0  0  0  0
  4  5  1  0  0  0  0
  4  3  2  0  0  0  0
  6 29  2  0  0  0  0
  6 25  1  0  0  0  0
  7 70  1  0  0  0  0
  8 15  1  0  0  0  0
  8  9  1  0  0  0  0
 10 24  1  0  0  0  0
 11 10  1  0  0  0  0
 12  7  1  0  0  0  0
 12 15  2  0  0  0  0
 13 62  1  0  0  0  0
 13 14  1  0  0  0  0
 13 17  1  0  0  0  0
 15 16  1  0  0  0  0
 17 18  1  0  0  0  0
 19 17  1  0  0  0  0
 20 17  1  0  0  0  0
 21  3  1  0  0  0  0
 21  2  1  0  0  0  0
 22 23  1  0  0  0  0
 22 58  1  0  0  0  0
 22  2  1  0  0  0  0
 24  8  2  0  0  0  0
 25 21  2  0  0  0  0
 26 25  1  0  0  0  0
 27 36  1  0  0  0  0
 28 27  1  0  0  0  0
 29  4  1  0  0  0  0
 30 29  1  0  0  0  0
 31 10  2  0  0  0  0
 31 12  1  0  0  0  0
 32 24  1  0  0  0  0
 32 35  1  0  0  0  0
 33 32  1  0  0  0  0
 34 32  1  0  0  0  0
 36 37  1  0  0  0  0
 36 38  1  0  0  0  0
 36 39  1  0  0  0  0
 40 22  1  0  0  0  0
 41 40  1  0  0  0  0
 42 40  1  0  0  0  0
 43 40  1  0  0  0  0
 44 45  1  0  0  0  0
 44 46  1  0  0  0  0
 44 27  1  0  0  0  0
 47 44  1  0  0  0  0
 48 51  1  0  0  0  0
 48 50  1  0  0  0  0
 48 52  1  0  0  0  0
 49 48  1  0  0  0  0
 52  1  1  0  0  0  0
 53 52  1  0  0  0  0
 54  6  1  0  0  0  0
 54 56  1  0  0  0  0
 55 54  1  0  0  0  0
 57 54  1  0  0  0  0
 58 61  1  0  0  0  0
 59 58  1  0  0  0  0
 60 58  1  0  0  0  0
 62 63  1  0  0  0  0
 64 62  1  0  0  0  0
 65 62  1  0  0  0  0
 66 52  1  0  0  0  0
 66 69  1  0  0  0  0
 66 68  1  0  0  0  0
 67 66  1  0  0  0  0
M  END
