1,2
 OpenBabel05122313063D

 63 68  0  0  1  0  0  0  0  0999 V2000
    1.5596    0.1838   -0.1616 P   0  0  1  0  0  0  0  0  0  0  0  0
   -1.4108    0.6990    0.1236 P   0  0  0  0  0  0  0  0  0  0  0  0
    4.1186    1.0988   -0.7024 O   0  0  0  0  0  0  0  0  0  0  0  0
    5.2010   -0.8179    0.1668 O   0  0  0  0  0  0  0  0  0  0  0  0
    3.1357   -1.7645    0.8008 O   0  0  0  0  0  0  0  0  0  0  0  0
    1.0987    1.9101    0.3086 C   0  0  0  0  0  0  0  0  0  0  0  0
   -0.2818    2.1082    0.5476 C   0  0  0  0  0  0  0  0  0  0  0  0
   -0.7636    3.3683    0.9483 C   0  0  0  0  0  0  0  0  0  0  0  0
   -1.8409    3.5110    1.1244 H   0  0  0  0  0  0  0  0  0  0  0  0
    0.1236    4.4428    1.0966 C   0  0  0  0  0  0  0  0  0  0  0  0
   -0.2542    5.4285    1.4077 H   0  0  0  0  0  0  0  0  0  0  0  0
    1.4896    4.2647    0.8167 C   0  0  0  0  0  0  0  0  0  0  0  0
    2.1831    5.1155    0.8989 H   0  0  0  0  0  0  0  0  0  0  0  0
    1.9786    3.0099    0.4263 C   0  0  0  0  0  0  0  0  0  0  0  0
    3.0409    2.8752    0.1805 H   0  0  0  0  0  0  0  0  0  0  0  0
    3.0652    0.3310   -1.3161 C   0  0  1  0  0  0  0  0  0  0  0  0
    4.7465    0.4991    0.4476 C   0  0  2  0  0  0  0  0  0  0  0  0
    4.1243   -1.6758   -0.2361 C   0  0  1  0  0  0  0  0  0  0  0  0
    2.6068   -0.5278    1.2789 C   0  0  1  0  0  0  0  0  0  0  0  0
    3.5409   -1.1057   -1.5367 C   0  0  0  0  0  0  0  0  0  0  0  0
    2.7006   -1.7447   -1.8814 H   0  0  0  0  0  0  0  0  0  0  0  0
    4.3477   -1.0957   -2.2988 H   0  0  0  0  0  0  0  0  0  0  0  0
    3.7592    0.4165    1.6252 C   0  0  0  0  0  0  0  0  0  0  0  0
    3.3875    1.4200    1.9070 H   0  0  0  0  0  0  0  0  0  0  0  0
    4.3017   -0.0067    2.4964 H   0  0  0  0  0  0  0  0  0  0  0  0
    2.6781    1.0341   -2.6059 C   0  0  0  0  0  0  0  0  0  0  0  0
    1.8872    0.4517   -3.1184 H   0  0  0  0  0  0  0  0  0  0  0  0
    2.3026    2.0579   -2.4106 H   0  0  0  0  0  0  0  0  0  0  0  0
    3.5629    1.1026   -3.2709 H   0  0  0  0  0  0  0  0  0  0  0  0
    5.9695    1.3458    0.7424 C   0  0  0  0  0  0  0  0  0  0  0  0
    5.6702    2.3815    0.9916 H   0  0  0  0  0  0  0  0  0  0  0  0
    6.5296    0.9120    1.5915 H   0  0  0  0  0  0  0  0  0  0  0  0
    6.6200    1.3597   -0.1521 H   0  0  0  0  0  0  0  0  0  0  0  0
    4.6692   -3.0787   -0.3963 C   0  0  0  0  0  0  0  0  0  0  0  0
    3.8348   -3.7485   -0.6770 H   0  0  0  0  0  0  0  0  0  0  0  0
    5.4494   -3.1010   -1.1794 H   0  0  0  0  0  0  0  0  0  0  0  0
    5.1033   -3.4124    0.5649 H   0  0  0  0  0  0  0  0  0  0  0  0
    1.7127   -0.8486    2.4623 C   0  0  0  0  0  0  0  0  0  0  0  0
    1.2380    0.0733    2.8523 H   0  0  0  0  0  0  0  0  0  0  0  0
    0.9206   -1.5552    2.1533 H   0  0  0  0  0  0  0  0  0  0  0  0
    2.3137   -1.3136    3.2702 H   0  0  0  0  0  0  0  0  0  0  0  0
   -2.4805    0.5022    1.5972 C   0  0  0  0  0  0  0  0  0  0  0  0
   -3.7298   -0.1467    1.4785 C   0  0  0  0  0  0  0  0  0  0  0  0
   -4.1016   -0.4587    0.4917 H   0  0  0  0  0  0  0  0  0  0  0  0
   -4.4916   -0.4120    2.6254 C   0  0  0  0  0  0  0  0  0  0  0  0
   -5.4601   -0.9236    2.5211 H   0  0  0  0  0  0  0  0  0  0  0  0
   -4.0168   -0.0462    3.8949 C   0  0  0  0  0  0  0  0  0  0  0  0
   -4.6161   -0.2631    4.7921 H   0  0  0  0  0  0  0  0  0  0  0  0
   -2.7732    0.5943    4.0178 C   0  0  0  0  0  0  0  0  0  0  0  0
   -2.3940    0.8822    5.0100 H   0  0  0  0  0  0  0  0  0  0  0  0
   -2.0067    0.8665    2.8754 C   0  0  0  0  0  0  0  0  0  0  0  0
   -1.0315    1.3661    2.9773 H   0  0  0  0  0  0  0  0  0  0  0  0
   -2.4453    1.5145   -1.1637 C   0  0  0  0  0  0  0  0  0  0  0  0
   -1.9145    1.5388   -2.4702 C   0  0  0  0  0  0  0  0  0  0  0  0
   -0.9582    1.0282   -2.6712 H   0  0  0  0  0  0  0  0  0  0  0  0
   -2.6024    2.1955   -3.4986 C   0  0  0  0  0  0  0  0  0  0  0  0
   -2.1832    2.2081   -4.5161 H   0  0  0  0  0  0  0  0  0  0  0  0
   -3.8297    2.8256   -3.2320 C   0  0  0  0  0  0  0  0  0  0  0  0
   -4.3751    3.3345   -4.0413 H   0  0  0  0  0  0  0  0  0  0  0  0
   -4.3611    2.8017   -1.9335 C   0  0  0  0  0  0  0  0  0  0  0  0
   -5.3234    3.2924   -1.7220 H   0  0  0  0  0  0  0  0  0  0  0  0
   -3.6716    2.1507   -0.8977 C   0  0  0  0  0  0  0  0  0  0  0  0
   -4.0943    2.1336    0.1177 H   0  0  0  0  0  0  0  0  0  0  0  0
  1  6  1  1  0  0  0
  1 19  1  0  0  0  0
  2  7  1  0  0  0  0
  2 42  1  0  0  0  0
  3 17  1  0  0  0  0
  4 17  1  0  0  0  0
  5 19  1  0  0  0  0
  6 14  2  0  0  0  0
  6  7  1  0  0  0  0
  7  8  2  0  0  0  0
  8 10  1  0  0  0  0
  8  9  1  0  0  0  0
 10 11  1  0  0  0  0
 12 13  1  0  0  0  0
 12 10  2  0  0  0  0
 14 12  1  0  0  0  0
 15 14  1  0  0  0  0
 16 26  1  6  0  0  0
 16  3  1  0  0  0  0
 16  1  1  0  0  0  0
 17 30  1  1  0  0  0
 17 23  1  0  0  0  0
 18 34  1  6  0  0  0
 18  4  1  0  0  0  0
 18  5  1  0  0  0  0
 19 23  1  0  0  0  0
 19 38  1  1  0  0  0
 20 16  1  0  0  0  0
 20 18  1  0  0  0  0
 21 20  1  0  0  0  0
 22 20  1  0  0  0  0
 23 24  1  0  0  0  0
 23 25  1  0  0  0  0
 26 28  1  0  0  0  0
 27 26  1  0  0  0  0
 29 26  1  0  0  0  0
 30 31  1  0  0  0  0
 30 32  1  0  0  0  0
 33 30  1  0  0  0  0
 34 37  1  0  0  0  0
 35 34  1  0  0  0  0
 36 34  1  0  0  0  0
 38 39  1  0  0  0  0
 38 41  1  0  0  0  0
 40 38  1  0  0  0  0
 42 51  1  0  0  0  0
 43 42  2  0  0  0  0
 43 45  1  0  0  0  0
 44 43  1  0  0  0  0
 45 47  2  0  0  0  0
 46 45  1  0  0  0  0
 47 49  1  0  0  0  0
 47 48  1  0  0  0  0
 49 50  1  0  0  0  0
 51 52  1  0  0  0  0
 51 49  2  0  0  0  0
 53 62  1  0  0  0  0
 53  2  1  0  0  0  0
 54 53  2  0  0  0  0
 55 54  1  0  0  0  0
 56 58  2  0  0  0  0
 56 54  1  0  0  0  0
 57 56  1  0  0  0  0
 58 60  1  0  0  0  0
 59 58  1  0  0  0  0
 60 61  1  0  0  0  0
 60 62  2  0  0  0  0
 62 63  1  0  0  0  0
M  END
