1,2
 OpenBabel05122313063D

 67 71  0  0  0  0  0  0  0  0999 V2000
   -1.2993   -0.2292   -0.0082 P   0  0  0  0  0  0  0  0  0  0  0  0
    1.3720   -0.2608   -0.0312 P   0  0  0  0  0  0  0  0  0  0  0  0
    0.0505    0.8609    0.2963 N   0  0  0  0  0  0  0  0  0  0  0  0
    0.1025    2.0620    1.0739 C   0  0  0  0  0  0  0  0  0  0  0  0
   -2.2218   -0.4207    1.5483 C   0  0  0  0  0  0  0  0  0  0  0  0
    2.2324   -0.5543    1.5542 C   0  0  0  0  0  0  0  0  0  0  0  0
    2.5535    0.5680   -1.1356 C   0  0  0  0  0  0  0  0  0  0  0  0
   -2.4238    0.5294   -1.2218 C   0  0  0  0  0  0  0  0  0  0  0  0
    0.3498    1.9550    2.4622 C   0  0  0  0  0  0  0  0  0  0  0  0
    0.4629    0.9555    2.9015 H   0  0  0  0  0  0  0  0  0  0  0  0
    3.4394    0.0764    1.9121 C   0  0  0  0  0  0  0  0  0  0  0  0
    3.9451    0.7480    1.2036 H   0  0  0  0  0  0  0  0  0  0  0  0
    0.4411    3.0955    3.2665 C   0  0  0  0  0  0  0  0  0  0  0  0
    0.6370    2.9918    4.3441 H   0  0  0  0  0  0  0  0  0  0  0  0
   -0.0744    3.3402    0.4752 C   0  0  0  0  0  0  0  0  0  0  0  0
   -2.4400   -1.7311    2.0246 C   0  0  0  0  0  0  0  0  0  0  0  0
   -2.1043   -2.5879    1.4158 H   0  0  0  0  0  0  0  0  0  0  0  0
    1.6112   -1.4468    2.4562 C   0  0  0  0  0  0  0  0  0  0  0  0
    0.6857   -1.9617    2.1516 H   0  0  0  0  0  0  0  0  0  0  0  0
    0.0139    4.4711    1.3148 C   0  0  0  0  0  0  0  0  0  0  0  0
   -0.1228    5.4702    0.8728 H   0  0  0  0  0  0  0  0  0  0  0  0
    0.2721    4.3625    2.6872 C   0  0  0  0  0  0  0  0  0  0  0  0
    0.3374    5.2701    3.3064 H   0  0  0  0  0  0  0  0  0  0  0  0
   -2.6782    0.6919    2.2901 C   0  0  0  0  0  0  0  0  0  0  0  0
   -2.5182    1.7152    1.9198 H   0  0  0  0  0  0  0  0  0  0  0  0
    4.0029   -0.1604    3.1757 C   0  0  0  0  0  0  0  0  0  0  0  0
    4.9462    0.3343    3.4522 H   0  0  0  0  0  0  0  0  0  0  0  0
    2.1765   -1.6744    3.7166 C   0  0  0  0  0  0  0  0  0  0  0  0
    1.6889   -2.3709    4.4150 H   0  0  0  0  0  0  0  0  0  0  0  0
    3.3708   -1.0276    4.0798 C   0  0  0  0  0  0  0  0  0  0  0  0
    3.8177   -1.2124    5.0685 H   0  0  0  0  0  0  0  0  0  0  0  0
   -3.1065   -1.9217    3.2443 C   0  0  0  0  0  0  0  0  0  0  0  0
   -3.2836   -2.9435    3.6122 H   0  0  0  0  0  0  0  0  0  0  0  0
   -0.3896    3.5178   -1.0020 C   0  0  0  0  0  0  0  0  0  0  0  0
   -3.5462   -0.8162    3.9902 C   0  0  0  0  0  0  0  0  0  0  0  0
   -4.0631   -0.9707    4.9497 H   0  0  0  0  0  0  0  0  0  0  0  0
    4.3995    1.7448   -2.8891 C   0  0  0  0  0  0  0  0  0  0  0  0
    5.1230    2.2076   -3.5775 H   0  0  0  0  0  0  0  0  0  0  0  0
    3.0407   -0.1680   -2.2364 C   0  0  0  0  0  0  0  0  0  0  0  0
    2.7011   -1.2086   -2.3850 H   0  0  0  0  0  0  0  0  0  0  0  0
    2.9924    1.8910   -0.9097 C   0  0  0  0  0  0  0  0  0  0  0  0
    2.6101    2.4660   -0.0529 H   0  0  0  0  0  0  0  0  0  0  0  0
   -1.9212    0.7109   -2.5287 C   0  0  0  0  0  0  0  0  0  0  0  0
   -0.8857    0.4105   -2.7559 H   0  0  0  0  0  0  0  0  0  0  0  0
   -3.3347    0.4880    3.5124 C   0  0  0  0  0  0  0  0  0  0  0  0
   -3.6824    1.3543    4.0952 H   0  0  0  0  0  0  0  0  0  0  0  0
    3.9652    0.4278   -3.1078 C   0  0  0  0  0  0  0  0  0  0  0  0
    4.3475   -0.1453   -3.9659 H   0  0  0  0  0  0  0  0  0  0  0  0
    3.9143    2.4747   -1.7908 C   0  0  0  0  0  0  0  0  0  0  0  0
    4.2555    3.5070   -1.6189 H   0  0  0  0  0  0  0  0  0  0  0  0
   -3.7678    0.8367   -0.9351 C   0  0  0  0  0  0  0  0  0  0  0  0
   -4.1719    0.6622    0.0724 H   0  0  0  0  0  0  0  0  0  0  0  0
    0.5716    4.4870   -1.7084 C   0  0  0  0  0  0  0  0  0  0  0  0
    0.3348    4.5345   -2.7907 H   0  0  0  0  0  0  0  0  0  0  0  0
    1.6262    4.1676   -1.6095 H   0  0  0  0  0  0  0  0  0  0  0  0
    0.4843    5.5183   -1.3081 H   0  0  0  0  0  0  0  0  0  0  0  0
   -2.7479    1.2384   -3.5269 C   0  0  0  0  0  0  0  0  0  0  0  0
   -2.3537    1.3793   -4.5444 H   0  0  0  0  0  0  0  0  0  0  0  0
   -4.0842    1.5646   -3.2349 C   0  0  0  0  0  0  0  0  0  0  0  0
   -4.7357    1.9691   -4.0242 H   0  0  0  0  0  0  0  0  0  0  0  0
   -1.8470    3.9757   -1.1890 C   0  0  0  0  0  0  0  0  0  0  0  0
   -2.1068    4.0213   -2.2657 H   0  0  0  0  0  0  0  0  0  0  0  0
   -2.0032    4.9860   -0.7563 H   0  0  0  0  0  0  0  0  0  0  0  0
   -2.5594    3.2827   -0.7024 H   0  0  0  0  0  0  0  0  0  0  0  0
   -4.5938    1.3558   -1.9446 C   0  0  0  0  0  0  0  0  0  0  0  0
   -5.6445    1.5931   -1.7202 H   0  0  0  0  0  0  0  0  0  0  0  0
   -0.2781    2.5212   -1.4739 H   0  0  0  0  0  0  0  0  0  0  0  0
  1  3  1  0  0  0  0
  1  5  1  0  0  0  0
  2  3  1  0  0  0  0
  2  6  1  0  0  0  0
  3  4  1  0  0  0  0
  4  9  1  0  0  0  0
  5 16  2  0  0  0  0
  5 24  1  0  0  0  0
  6 11  2  0  0  0  0
  6 18  1  0  0  0  0
  7 41  1  0  0  0  0
  7  2  1  0  0  0  0
  8 51  1  0  0  0  0
  8  1  1  0  0  0  0
  9 10  1  0  0  0  0
  9 13  2  0  0  0  0
 11 26  1  0  0  0  0
 12 11  1  0  0  0  0
 13 14  1  0  0  0  0
 15  4  2  0  0  0  0
 15 20  1  0  0  0  0
 16 32  1  0  0  0  0
 17 16  1  0  0  0  0
 18 28  2  0  0  0  0
 19 18  1  0  0  0  0
 20 22  2  0  0  0  0
 21 20  1  0  0  0  0
 22 13  1  0  0  0  0
 22 23  1  0  0  0  0
 24 45  2  0  0  0  0
 25 24  1  0  0  0  0
 26 27  1  0  0  0  0
 26 30  2  0  0  0  0
 28 30  1  0  0  0  0
 28 29  1  0  0  0  0
 30 31  1  0  0  0  0
 32 33  1  0  0  0  0
 32 35  2  0  0  0  0
 34 15  1  0  0  0  0
 35 36  1  0  0  0  0
 37 49  1  0  0  0  0
 38 37  1  0  0  0  0
 39  7  2  0  0  0  0
 40 39  1  0  0  0  0
 41 42  1  0  0  0  0
 43  8  2  0  0  0  0
 44 43  1  0  0  0  0
 45 35  1  0  0  0  0
 45 46  1  0  0  0  0
 47 37  2  0  0  0  0
 47 39  1  0  0  0  0
 48 47  1  0  0  0  0
 49 50  1  0  0  0  0
 49 41  2  0  0  0  0
 51 52  1  0  0  0  0
 53 55  1  0  0  0  0
 53 56  1  0  0  0  0
 53 34  1  0  0  0  0
 54 53  1  0  0  0  0
 57 59  2  0  0  0  0
 57 43  1  0  0  0  0
 58 57  1  0  0  0  0
 59 65  1  0  0  0  0
 60 59  1  0  0  0  0
 61 34  1  0  0  0  0
 61 63  1  0  0  0  0
 61 64  1  0  0  0  0
 62 61  1  0  0  0  0
 65 66  1  0  0  0  0
 65 51  2  0  0  0  0
 67 34  1  0  0  0  0
M  END
