1,2
 OpenBabel05122313063D

 53 53  0  0  0  0  0  0  0  0999 V2000
   -2.3138    0.0785    0.4327 P   0  0  0  0  0  0  0  0  0  0  0  0
    2.1860   -0.4116    0.5649 P   0  0  0  0  0  0  0  0  0  0  0  0
   -2.5627   -1.5535    0.9285 O   0  0  0  0  0  0  0  0  0  0  0  0
    2.0334   -2.1003    0.8939 O   0  0  0  0  0  0  0  0  0  0  0  0
   -0.2691   -1.8678    0.9485 N   0  0  0  0  0  4  0  0  0  0  0  0
   -1.4957   -2.3946    1.0108 C   0  0  0  0  0  0  0  0  0  0  0  0
   -1.7217   -3.7737    1.1612 C   0  0  0  0  0  0  0  0  0  0  0  0
   -2.7464   -4.1633    1.2121 H   0  0  0  0  0  0  0  0  0  0  0  0
   -0.5902   -4.6003    1.2257 C   0  0  0  0  0  0  0  0  0  0  0  0
   -0.7179   -5.6877    1.3367 H   0  0  0  0  0  0  0  0  0  0  0  0
    0.7007   -4.0613    1.1344 C   0  0  0  0  0  3  0  0  0  0  0  0
    1.6068   -4.6796    1.1647 H   0  0  0  0  0  0  0  0  0  0  0  0
    0.8029   -2.6659    0.9882 C   0  0  0  0  0  0  0  0  0  0  0  0
   -3.6771    0.2865   -0.8154 C   0  0  0  0  0  0  0  0  0  0  0  0
   -4.6208    0.4061   -0.2404 H   0  0  0  0  0  0  0  0  0  0  0  0
   -3.7934   -0.9402   -1.7271 C   0  0  0  0  0  0  0  0  0  0  0  0
   -4.5899   -0.7632   -2.4788 H   0  0  0  0  0  0  0  0  0  0  0  0
   -4.0525   -1.8514   -1.1552 H   0  0  0  0  0  0  0  0  0  0  0  0
   -2.8446   -1.1251   -2.2716 H   0  0  0  0  0  0  0  0  0  0  0  0
   -3.3837    1.5776   -1.5981 C   0  0  0  0  0  0  0  0  0  0  0  0
   -2.4499    1.4772   -2.1881 H   0  0  0  0  0  0  0  0  0  0  0  0
   -3.2680    2.4633   -0.9412 H   0  0  0  0  0  0  0  0  0  0  0  0
   -4.2159    1.7821   -2.3022 H   0  0  0  0  0  0  0  0  0  0  0  0
   -2.8908    0.9779    1.9557 C   0  0  0  0  0  0  0  0  0  0  0  0
   -3.0094    2.0217    1.5847 H   0  0  0  0  0  0  0  0  0  0  0  0
   -1.7723    0.9620    3.0042 C   0  0  0  0  0  0  0  0  0  0  0  0
   -1.5400   -0.0728    3.3303 H   0  0  0  0  0  0  0  0  0  0  0  0
   -2.0799    1.5374    3.9009 H   0  0  0  0  0  0  0  0  0  0  0  0
   -0.8507    1.4263    2.6000 H   0  0  0  0  0  0  0  0  0  0  0  0
   -4.2206    0.4574    2.5097 C   0  0  0  0  0  0  0  0  0  0  0  0
   -5.0491    0.5284    1.7777 H   0  0  0  0  0  0  0  0  0  0  0  0
   -4.5137    1.0502    3.4003 H   0  0  0  0  0  0  0  0  0  0  0  0
   -4.1287   -0.6027    2.8197 H   0  0  0  0  0  0  0  0  0  0  0  0
    3.5150   -0.5144   -0.7261 C   0  0  0  0  0  0  0  0  0  0  0  0
    3.0187   -1.2003   -1.4502 H   0  0  0  0  0  0  0  0  0  0  0  0
    4.8224   -1.1411   -0.2392 C   0  0  0  0  0  0  0  0  0  0  0  0
    5.4965   -1.3208   -1.1021 H   0  0  0  0  0  0  0  0  0  0  0  0
    4.6481   -2.1135    0.2624 H   0  0  0  0  0  0  0  0  0  0  0  0
    5.3628   -0.4749    0.4645 H   0  0  0  0  0  0  0  0  0  0  0  0
    3.6898    0.8402   -1.4287 C   0  0  0  0  0  0  0  0  0  0  0  0
    4.1732    1.5941   -0.7770 H   0  0  0  0  0  0  0  0  0  0  0  0
    2.7173    1.2501   -1.7671 H   0  0  0  0  0  0  0  0  0  0  0  0
    4.3301    0.7082   -2.3244 H   0  0  0  0  0  0  0  0  0  0  0  0
    2.9713    0.1025    2.1732 C   0  0  0  0  0  0  0  0  0  0  0  0
    3.8100   -0.6106    2.3301 H   0  0  0  0  0  0  0  0  0  0  0  0
    1.9536   -0.0620    3.3085 C   0  0  0  0  0  0  0  0  0  0  0  0
    1.0938    0.6230    3.1724 H   0  0  0  0  0  0  0  0  0  0  0  0
    2.4311    0.1843    4.2792 H   0  0  0  0  0  0  0  0  0  0  0  0
    1.5654   -1.0972    3.3767 H   0  0  0  0  0  0  0  0  0  0  0  0
    3.5108    1.5369    2.0892 C   0  0  0  0  0  0  0  0  0  0  0  0
    2.7149    2.2513    1.7918 H   0  0  0  0  0  0  0  0  0  0  0  0
    4.3453    1.6324    1.3681 H   0  0  0  0  0  0  0  0  0  0  0  0
    3.8935    1.8451    3.0839 H   0  0  0  0  0  0  0  0  0  0  0  0
  1  3  1  0  0  0  0
  1 24  1  0  0  0  0
  2  4  1  0  0  0  0
  2 44  1  0  0  0  0
  3  6  1  0  0  0  0
  4 13  1  0  0  0  0
  5 13  2  0  0  0  0
  5  6  2  0  0  0  0
  6  7  1  0  0  0  0
  7  8  1  0  0  0  0
  7  9  2  0  0  0  0
  9 10  1  0  0  0  0
 11 12  1  0  0  0  0
 11  9  1  0  0  0  0
 13 11  1  0  0  0  0
 14 15  1  0  0  0  0
 14  1  1  0  0  0  0
 16 18  1  0  0  0  0
 16 14  1  0  0  0  0
 17 16  1  0  0  0  0
 19 16  1  0  0  0  0
 20 22  1  0  0  0  0
 20 14  1  0  0  0  0
 21 20  1  0  0  0  0
 23 20  1  0  0  0  0
 24 30  1  0  0  0  0
 24 26  1  0  0  0  0
 25 24  1  0  0  0  0
 26 27  1  0  0  0  0
 26 28  1  0  0  0  0
 29 26  1  0  0  0  0
 30 33  1  0  0  0  0
 30 32  1  0  0  0  0
 31 30  1  0  0  0  0
 34 36  1  0  0  0  0
 34  2  1  0  0  0  0
 35 34  1  0  0  0  0
 36 38  1  0  0  0  0
 36 39  1  0  0  0  0
 37 36  1  0  0  0  0
 40 41  1  0  0  0  0
 40 34  1  0  0  0  0
 42 40  1  0  0  0  0
 43 40  1  0  0  0  0
 44 45  1  0  0  0  0
 44 46  1  0  0  0  0
 46 49  1  0  0  0  0
 46 48  1  0  0  0  0
 47 46  1  0  0  0  0
 50 44  1  0  0  0  0
 50 53  1  0  0  0  0
 51 50  1  0  0  0  0
 52 50  1  0  0  0  0
M  END
