1,2
 OpenBabel05122313063D

 44 45  0  0  0  0  0  0  0  0999 V2000
    0.8042   -0.0353    0.7570 P   0  0  0  0  0  0  0  0  0  0  0  0
   -2.1654    0.2350    1.1070 P   0  0  0  0  0  0  0  0  0  0  0  0
    0.2120   -0.0239    2.5300 C   0  0  0  0  0  0  0  0  0  0  0  0
   -1.1179    0.7268    2.5774 C   0  0  0  0  0  0  0  0  0  0  0  0
    2.0728   -1.3420    0.6770 C   0  0  0  0  0  0  0  0  0  0  0  0
    3.3198   -1.1095    0.0635 C   0  0  0  0  0  0  0  0  0  0  0  0
    4.2442   -2.1584   -0.0550 C   0  0  0  0  0  0  0  0  0  0  0  0
    3.9332   -3.4352    0.4327 C   0  0  0  0  0  0  0  0  0  0  0  0
    2.6825   -3.6745    1.0287 C   0  0  0  0  0  0  0  0  0  0  0  0
    1.7503   -2.6364    1.1418 C   0  0  0  0  0  0  0  0  0  0  0  0
    1.6742    1.5624    0.5517 C   0  0  0  0  0  0  0  0  0  0  0  0
    1.3109    2.4092   -0.5135 C   0  0  0  0  0  0  0  0  0  0  0  0
    1.9489    3.6490   -0.6694 C   0  0  0  0  0  0  0  0  0  0  0  0
    2.9473    4.0459    0.2328 C   0  0  0  0  0  0  0  0  0  0  0  0
    3.3165    3.1997    1.2927 C   0  0  0  0  0  0  0  0  0  0  0  0
    2.6843    1.9593    1.4537 C   0  0  0  0  0  0  0  0  0  0  0  0
   -3.2813    1.6743    0.8178 C   0  0  0  0  0  0  0  0  0  0  0  0
   -2.5906    2.8080    0.0591 C   0  0  0  0  0  0  0  0  0  0  0  0
   -3.2761   -1.1274    1.6674 C   0  0  0  0  0  0  0  0  0  0  0  0
   -2.5587   -2.4676    1.8307 C   0  0  0  0  0  0  0  0  0  0  0  0
    0.9835    0.4230    3.1889 H   0  0  0  0  0  0  0  0  0  0  0  0
    0.0912   -1.0832    2.8329 H   0  0  0  0  0  0  0  0  0  0  0  0
   -1.6725    0.5550    3.5229 H   0  0  0  0  0  0  0  0  0  0  0  0
   -0.9479    1.8202    2.4833 H   0  0  0  0  0  0  0  0  0  0  0  0
    3.5620   -0.1189   -0.3455 H   0  0  0  0  0  0  0  0  0  0  0  0
    5.2085   -1.9723   -0.5503 H   0  0  0  0  0  0  0  0  0  0  0  0
    4.6610   -4.2549    0.3356 H   0  0  0  0  0  0  0  0  0  0  0  0
    2.4275   -4.6799    1.3959 H   0  0  0  0  0  0  0  0  0  0  0  0
    0.7600   -2.8427    1.5777 H   0  0  0  0  0  0  0  0  0  0  0  0
    0.5423    2.0746   -1.2262 H   0  0  0  0  0  0  0  0  0  0  0  0
    1.6678    4.3029   -1.5082 H   0  0  0  0  0  0  0  0  0  0  0  0
    3.4484    5.0176    0.1071 H   0  0  0  0  0  0  0  0  0  0  0  0
    4.1066    3.5059    1.9949 H   0  0  0  0  0  0  0  0  0  0  0  0
    2.9916    1.2922    2.2745 H   0  0  0  0  0  0  0  0  0  0  0  0
   -3.6606    2.0006    1.8105 H   0  0  0  0  0  0  0  0  0  0  0  0
   -4.1489    1.2842    0.2429 H   0  0  0  0  0  0  0  0  0  0  0  0
   -3.2804    3.6650   -0.0727 H   0  0  0  0  0  0  0  0  0  0  0  0
   -1.6870    3.1815    0.5844 H   0  0  0  0  0  0  0  0  0  0  0  0
   -2.2788    2.4608   -0.9458 H   0  0  0  0  0  0  0  0  0  0  0  0
   -4.0687   -1.1951    0.8902 H   0  0  0  0  0  0  0  0  0  0  0  0
   -3.7677   -0.7956    2.6073 H   0  0  0  0  0  0  0  0  0  0  0  0
   -3.2822   -3.2720    2.0694 H   0  0  0  0  0  0  0  0  0  0  0  0
   -2.0405   -2.7438    0.8900 H   0  0  0  0  0  0  0  0  0  0  0  0
   -1.8074   -2.4463    2.6468 H   0  0  0  0  0  0  0  0  0  0  0  0
  1  3  1  0  0  0  0
  2 19  1  0  0  0  0
  2  4  1  0  0  0  0
  3  4  1  0  0  0  0
  3 22  1  0  0  0  0
  3 21  1  0  0  0  0
  4 23  1  0  0  0  0
  5  1  1  0  0  0  0
  5 10  1  0  0  0  0
  6  5  2  0  0  0  0
  7  6  1  0  0  0  0
  7  8  2  0  0  0  0
  8  9  1  0  0  0  0
  9 10  2  0  0  0  0
  9 28  1  0  0  0  0
 10 29  1  0  0  0  0
 11  1  1  0  0  0  0
 11 16  1  0  0  0  0
 12 11  2  0  0  0  0
 13 12  1  0  0  0  0
 13 14  2  0  0  0  0
 14 15  1  0  0  0  0
 15 16  2  0  0  0  0
 15 33  1  0  0  0  0
 16 34  1  0  0  0  0
 17  2  1  0  0  0  0
 17 35  1  0  0  0  0
 18 38  1  0  0  0  0
 18 17  1  0  0  0  0
 19 20  1  0  0  0  0
 19 41  1  0  0  0  0
 20 42  1  0  0  0  0
 20 44  1  0  0  0  0
 24  4  1  0  0  0  0
 25  6  1  0  0  0  0
 26  7  1  0  0  0  0
 27  8  1  0  0  0  0
 30 12  1  0  0  0  0
 31 13  1  0  0  0  0
 32 14  1  0  0  0  0
 36 17  1  0  0  0  0
 37 18  1  0  0  0  0
 39 18  1  0  0  0  0
 40 19  1  0  0  0  0
 43 20  1  0  0  0  0
M  END
