1,2
 OpenBabel05122313063D

 61 66  0  0  1  0  0  0  0  0999 V2000
   -1.5638    0.0734    0.1866 P   0  0  0  0  0  0  0  0  0  0  0  0
    1.5408   -0.0432    0.2727 P   0  0  0  0  0  0  0  0  0  0  0  0
   -0.5973   -1.8478    1.9254 O   0  0  0  0  0  0  0  0  0  0  0  0
   -0.8009   -0.4225    1.8293 C   0  0  1  0  0  0  0  0  0  0  0  0
    0.6593    0.0923    1.9532 C   0  0  1  0  0  0  0  0  0  0  0  0
    0.6891    1.1636    2.2302 H   0  0  0  0  0  0  0  0  0  0  0  0
    1.2026   -0.8526    3.0625 C   0  0  0  0  0  0  0  0  0  0  0  0
    2.1182   -1.3853    2.7442 H   0  0  0  0  0  0  0  0  0  0  0  0
    1.4313   -0.3066    3.9986 H   0  0  0  0  0  0  0  0  0  0  0  0
    0.0158   -1.8332    3.2376 C   0  0  1  0  0  0  0  0  0  0  0  0
    0.2953   -2.8663    3.5132 H   0  0  0  0  0  0  0  0  0  0  0  0
   -1.0745   -1.1692    4.0982 C   0  0  0  0  0  0  0  0  0  0  0  0
   -0.6774   -0.7562    5.0456 H   0  0  0  0  0  0  0  0  0  0  0  0
   -1.8677   -1.9003    4.3475 H   0  0  0  0  0  0  0  0  0  0  0  0
   -1.5965   -0.0806    3.1192 C   0  0  0  0  0  0  0  0  0  0  0  0
   -2.6839   -0.1792    2.9407 H   0  0  0  0  0  0  0  0  0  0  0  0
   -1.4038    0.9557    3.4540 H   0  0  0  0  0  0  0  0  0  0  0  0
   -1.9665    1.8393    0.5159 C   0  0  0  0  0  0  0  0  0  0  0  0
   -1.0369    2.8240    0.1228 C   0  0  0  0  0  0  0  0  0  0  0  0
   -0.1387    2.5225   -0.4396 H   0  0  0  0  0  0  0  0  0  0  0  0
   -1.2709    4.1734    0.4258 C   0  0  0  0  0  0  0  0  0  0  0  0
   -0.5399    4.9343    0.1136 H   0  0  0  0  0  0  0  0  0  0  0  0
   -2.4383    4.5494    1.1084 C   0  0  0  0  0  0  0  0  0  0  0  0
   -2.6255    5.6095    1.3383 H   0  0  0  0  0  0  0  0  0  0  0  0
   -3.3764    3.5736    1.4846 C   0  0  0  0  0  0  0  0  0  0  0  0
   -4.2996    3.8673    2.0067 H   0  0  0  0  0  0  0  0  0  0  0  0
   -3.1443    2.2221    1.1910 C   0  0  0  0  0  0  0  0  0  0  0  0
   -3.8877    1.4624    1.4753 H   0  0  0  0  0  0  0  0  0  0  0  0
   -3.1722   -0.7732    0.0483 C   0  0  0  0  0  0  0  0  0  0  0  0
   -4.1209   -0.2431   -0.8541 C   0  0  0  0  0  0  0  0  0  0  0  0
   -3.8830    0.6602   -1.4332 H   0  0  0  0  0  0  0  0  0  0  0  0
   -5.3521   -0.8890   -1.0265 C   0  0  0  0  0  0  0  0  0  0  0  0
   -6.0870   -0.4750   -1.7330 H   0  0  0  0  0  0  0  0  0  0  0  0
   -5.6409   -2.0653   -0.3154 C   0  0  0  0  0  0  0  0  0  0  0  0
   -6.6087   -2.5702   -0.4569 H   0  0  0  0  0  0  0  0  0  0  0  0
   -4.6896   -2.6033    0.5647 C   0  0  0  0  0  0  0  0  0  0  0  0
   -4.9065   -3.5328    1.1126 H   0  0  0  0  0  0  0  0  0  0  0  0
   -3.4519   -1.9670    0.7448 C   0  0  0  0  0  0  0  0  0  0  0  0
   -2.6923   -2.3984    1.4114 H   0  0  0  0  0  0  0  0  0  0  0  0
    2.6288    1.4375    0.2689 C   0  0  0  0  0  0  0  0  0  0  0  0
    3.2068    1.9162    1.4653 C   0  0  0  0  0  0  0  0  0  0  0  0
    3.0283    1.3973    2.4198 H   0  0  0  0  0  0  0  0  0  0  0  0
    4.0229    3.0571    1.4471 C   0  0  0  0  0  0  0  0  0  0  0  0
    4.4697    3.4241    2.3836 H   0  0  0  0  0  0  0  0  0  0  0  0
    4.2665    3.7271    0.2373 C   0  0  0  0  0  0  0  0  0  0  0  0
    4.9035    4.6248    0.2247 H   0  0  0  0  0  0  0  0  0  0  0  0
    3.6993    3.2486   -0.9542 C   0  0  0  0  0  0  0  0  0  0  0  0
    3.8923    3.7670   -1.9056 H   0  0  0  0  0  0  0  0  0  0  0  0
    2.8829    2.1072   -0.9459 C   0  0  0  0  0  0  0  0  0  0  0  0
    2.4517    1.7074   -1.8792 H   0  0  0  0  0  0  0  0  0  0  0  0
    2.6579   -1.4918    0.3664 C   0  0  0  0  0  0  0  0  0  0  0  0
    2.0832   -2.7643    0.1641 C   0  0  0  0  0  0  0  0  0  0  0  0
    1.0071   -2.8415   -0.0524 H   0  0  0  0  0  0  0  0  0  0  0  0
    2.8868   -3.9093    0.2323 C   0  0  0  0  0  0  0  0  0  0  0  0
    2.4369   -4.9003    0.0692 H   0  0  0  0  0  0  0  0  0  0  0  0
    4.2641   -3.7925    0.4864 C   0  0  0  0  0  0  0  0  0  0  0  0
    4.8948   -4.6935    0.5274 H   0  0  0  0  0  0  0  0  0  0  0  0
    4.8381   -2.5256    0.6721 C   0  0  0  0  0  0  0  0  0  0  0  0
    5.9191   -2.4297    0.8553 H   0  0  0  0  0  0  0  0  0  0  0  0
    4.0387   -1.3729    0.6129 C   0  0  0  0  0  0  0  0  0  0  0  0
    4.4932   -0.3800    0.7450 H   0  0  0  0  0  0  0  0  0  0  0  0
  1 18  1  0  0  0  0
  2 51  1  0  0  0  0
  2  5  1  0  0  0  0
  3 10  1  0  0  0  0
  4  1  1  6  0  0  0
  4  3  1  0  0  0  0
  4  5  1  0  0  0  0
  4 15  1  0  0  0  0
  5  6  1  1  0  0  0
  5  7  1  0  0  0  0
  7 10  1  0  0  0  0
  7  9  1  0  0  0  0
  8  7  1  0  0  0  0
 10 11  1  1  0  0  0
 10 12  1  0  0  0  0
 12 14  1  0  0  0  0
 12 13  1  0  0  0  0
 15 17  1  0  0  0  0
 15 12  1  0  0  0  0
 16 15  1  0  0  0  0
 18 27  1  0  0  0  0
 19 21  1  0  0  0  0
 19 18  2  0  0  0  0
 20 19  1  0  0  0  0
 21 23  2  0  0  0  0
 22 21  1  0  0  0  0
 23 24  1  0  0  0  0
 23 25  1  0  0  0  0
 25 26  1  0  0  0  0
 27 28  1  0  0  0  0
 27 25  2  0  0  0  0
 29  1  1  0  0  0  0
 29 38  1  0  0  0  0
 30 29  2  0  0  0  0
 31 30  1  0  0  0  0
 32 30  1  0  0  0  0
 32 34  2  0  0  0  0
 33 32  1  0  0  0  0
 34 36  1  0  0  0  0
 35 34  1  0  0  0  0
 36 38  2  0  0  0  0
 36 37  1  0  0  0  0
 38 39  1  0  0  0  0
 40  2  1  0  0  0  0
 40 41  1  0  0  0  0
 41 42  1  0  0  0  0
 43 41  2  0  0  0  0
 43 44  1  0  0  0  0
 45 43  1  0  0  0  0
 46 45  1  0  0  0  0
 47 49  1  0  0  0  0
 47 45  2  0  0  0  0
 48 47  1  0  0  0  0
 49 40  2  0  0  0  0
 50 49  1  0  0  0  0
 51 60  1  0  0  0  0
 52 54  1  0  0  0  0
 52 51  2  0  0  0  0
 53 52  1  0  0  0  0
 54 56  2  0  0  0  0
 55 54  1  0  0  0  0
 56 57  1  0  0  0  0
 56 58  1  0  0  0  0
 58 59  1  0  0  0  0
 60 58  2  0  0  0  0
 60 61  1  0  0  0  0
M  END
