2
 OpenBabel05122313063D

 70 75  0  0  1  0  0  0  0  0999 V2000
   -1.1745    0.2116    1.3041 P   0  0  2  0  0  0  0  0  0  0  0  0
    0.0541   -1.0438   -1.5368 P   0  0  1  0  0  0  0  0  0  0  0  0
    0.3198    0.5468    1.9479 O   0  0  0  0  0  0  0  0  0  0  0  0
    1.4738   -0.3251   -1.9388 O   0  0  0  0  0  0  0  0  0  0  0  0
   -1.9781    1.1607    2.3542 O   0  0  0  0  0  0  0  0  0  0  0  0
   -1.5873   -1.2942    1.8510 O   0  0  0  0  0  0  0  0  0  0  0  0
   -0.1778   -1.9289   -2.8803 O   0  0  0  0  0  0  0  0  0  0  0  0
    0.5302   -2.1842   -0.4537 O   0  0  0  0  0  0  0  0  0  0  0  0
    1.4608   -0.2143    1.7357 C   0  0  0  0  0  0  0  0  0  0  0  0
    1.7041   -1.2872    2.6332 C   0  0  0  0  0  0  0  0  0  0  0  0
    0.9830   -1.4692    3.4420 H   0  0  0  0  0  0  0  0  0  0  0  0
    2.8280   -2.0762    2.4786 C   0  0  0  0  0  0  0  0  0  0  0  0
    3.0180   -2.9135    3.1677 H   0  0  0  0  0  0  0  0  0  0  0  0
    3.7563   -1.8218    1.4284 C   0  0  0  0  0  0  0  0  0  0  0  0
    4.9142   -2.6315    1.2414 C   0  0  0  0  0  0  0  0  0  0  0  0
    5.0799   -3.4785    1.9255 H   0  0  0  0  0  0  0  0  0  0  0  0
    5.8156   -2.3604    0.2236 C   0  0  0  0  0  0  0  0  0  0  0  0
    6.7051   -2.9940    0.0884 H   0  0  0  0  0  0  0  0  0  0  0  0
    5.5938   -1.2580   -0.6434 C   0  0  0  0  0  0  0  0  0  0  0  0
    6.3152   -1.0415   -1.4457 H   0  0  0  0  0  0  0  0  0  0  0  0
    4.4764   -0.4509   -0.4878 C   0  0  0  0  0  0  0  0  0  0  0  0
    4.3111    0.4013   -1.1618 H   0  0  0  0  0  0  0  0  0  0  0  0
    3.5228   -0.7093    0.5399 C   0  0  0  0  0  0  0  0  0  0  0  0
    2.3468    0.1032    0.7068 C   0  0  0  0  0  0  0  0  0  0  0  0
    2.0803    1.2441   -0.2125 C   0  0  0  0  0  0  0  0  0  0  0  0
    1.6640    0.9999   -1.5198 C   0  0  0  0  0  0  0  0  0  0  0  0
    1.3955    2.0362   -2.4458 C   0  0  0  0  0  0  0  0  0  0  0  0
    1.0161    1.7678   -3.4406 H   0  0  0  0  0  0  0  0  0  0  0  0
    1.5568    3.3511   -2.0481 C   0  0  0  0  0  0  0  0  0  0  0  0
    1.3321    4.1696   -2.7486 H   0  0  0  0  0  0  0  0  0  0  0  0
    1.9846    3.6720   -0.7267 C   0  0  0  0  0  0  0  0  0  0  0  0
    2.1466    5.0223   -0.2994 C   0  0  0  0  0  0  0  0  0  0  0  0
    1.9294    5.8292   -1.0164 H   0  0  0  0  0  0  0  0  0  0  0  0
    2.5643    5.3174    0.9891 C   0  0  0  0  0  0  0  0  0  0  0  0
    2.6820    6.3647    1.3056 H   0  0  0  0  0  0  0  0  0  0  0  0
    2.8415    4.2674    1.9043 C   0  0  0  0  0  0  0  0  0  0  0  0
    3.1763    4.5078    2.9248 H   0  0  0  0  0  0  0  0  0  0  0  0
    2.6924    2.9424    1.5225 C   0  0  0  0  0  0  0  0  0  0  0  0
    2.9084    2.1321    2.2336 H   0  0  0  0  0  0  0  0  0  0  0  0
    2.2570    2.6060    0.2076 C   0  0  0  0  0  0  0  0  0  0  0  0
   -3.3521    0.7096    2.6032 C   0  0  1  0  0  0  0  0  0  0  0  0
   -3.8096    0.5007    1.6124 H   0  0  0  0  0  0  0  0  0  0  0  0
   -3.3048   -0.5761    3.4551 C   0  0  0  0  0  0  0  0  0  0  0  0
   -4.1742   -1.2133    3.1897 H   0  0  0  0  0  0  0  0  0  0  0  0
   -3.3920   -0.3330    4.5352 H   0  0  0  0  0  0  0  0  0  0  0  0
   -1.9956   -1.3585    3.2546 C   0  0  1  0  0  0  0  0  0  0  0  0
   -1.1989   -0.8630    3.8521 H   0  0  0  0  0  0  0  0  0  0  0  0
   -4.0857    1.8715    3.2371 C   0  0  0  0  0  0  0  0  0  0  0  0
   -5.1289    1.5793    3.4710 H   0  0  0  0  0  0  0  0  0  0  0  0
   -4.1034    2.7226    2.5304 H   0  0  0  0  0  0  0  0  0  0  0  0
   -3.5852    2.1849    4.1756 H   0  0  0  0  0  0  0  0  0  0  0  0
   -2.0874   -2.8246    3.6300 C   0  0  0  0  0  0  0  0  0  0  0  0
   -2.4080   -2.9285    4.6857 H   0  0  0  0  0  0  0  0  0  0  0  0
   -1.1082   -3.3274    3.5091 H   0  0  0  0  0  0  0  0  0  0  0  0
   -2.8284   -3.3414    2.9877 H   0  0  0  0  0  0  0  0  0  0  0  0
   -1.0001   -3.1326   -2.7887 C   0  0  1  0  0  0  0  0  0  0  0  0
   -0.8510   -3.6104   -3.7781 H   0  0  0  0  0  0  0  0  0  0  0  0
   -0.4211   -4.0526   -1.7029 C   0  0  0  0  0  0  0  0  0  0  0  0
    0.5894   -4.3909   -2.0141 H   0  0  0  0  0  0  0  0  0  0  0  0
   -1.0615   -4.9544   -1.6122 H   0  0  0  0  0  0  0  0  0  0  0  0
   -0.3027   -3.3804   -0.3329 C   0  0  1  0  0  0  0  0  0  0  0  0
   -1.3012   -3.0550    0.0357 H   0  0  0  0  0  0  0  0  0  0  0  0
   -2.4753   -2.7842   -2.6227 C   0  0  0  0  0  0  0  0  0  0  0  0
   -2.7684   -2.0223   -3.3695 H   0  0  0  0  0  0  0  0  0  0  0  0
   -2.6945   -2.3510   -1.6252 H   0  0  0  0  0  0  0  0  0  0  0  0
   -3.0949   -3.6936   -2.7551 H   0  0  0  0  0  0  0  0  0  0  0  0
    0.3562   -4.2544    0.7168 C   0  0  0  0  0  0  0  0  0  0  0  0
   -0.2499   -5.1648    0.8943 H   0  0  0  0  0  0  0  0  0  0  0  0
    0.4522   -3.6935    1.6647 H   0  0  0  0  0  0  0  0  0  0  0  0
    1.3714   -4.5558    0.3896 H   0  0  0  0  0  0  0  0  0  0  0  0
  1  6  1  0  0  0  0
  1  3  1  1  0  0  0
  1  5  1  0  0  0  0
  2  4  1  6  0  0  0
  2  8  1  0  0  0  0
  4 26  1  0  0  0  0
  5 41  1  0  0  0  0
  6 46  1  0  0  0  0
  7 56  1  0  0  0  0
  7  2  1  0  0  0  0
  8 61  1  0  0  0  0
  9  3  1  0  0  0  0
  9 10  1  0  0  0  0
 10 11  1  0  0  0  0
 12 10  2  0  0  0  0
 12 13  1  0  0  0  0
 14 12  1  0  0  0  0
 15 14  1  0  0  0  0
 15 16  1  0  0  0  0
 17 15  2  0  0  0  0
 18 17  1  0  0  0  0
 19 21  2  0  0  0  0
 19 17  1  0  0  0  0
 20 19  1  0  0  0  0
 21 23  1  0  0  0  0
 22 21  1  0  0  0  0
 23 24  1  0  0  0  0
 23 14  2  0  0  0  0
 24  9  2  0  0  0  0
 25 40  1  0  0  0  0
 25 24  1  0  0  0  0
 26 25  2  0  0  0  0
 27 29  2  0  0  0  0
 27 26  1  0  0  0  0
 28 27  1  0  0  0  0
 29 31  1  0  0  0  0
 30 29  1  0  0  0  0
 31 32  2  0  0  0  0
 31 40  1  0  0  0  0
 32 34  1  0  0  0  0
 33 32  1  0  0  0  0
 34 35  1  0  0  0  0
 34 36  2  0  0  0  0
 36 37  1  0  0  0  0
 38 36  1  0  0  0  0
 38 39  1  0  0  0  0
 40 38  2  0  0  0  0
 41 42  1  6  0  0  0
 41 48  1  0  0  0  0
 41 43  1  0  0  0  0
 43 45  1  0  0  0  0
 44 43  1  0  0  0  0
 46 43  1  0  0  0  0
 46 52  1  0  0  0  0
 46 47  1  1  0  0  0
 48 49  1  0  0  0  0
 48 51  1  0  0  0  0
 50 48  1  0  0  0  0
 52 53  1  0  0  0  0
 54 52  1  0  0  0  0
 55 52  1  0  0  0  0
 56 57  1  6  0  0  0
 56 63  1  0  0  0  0
 56 58  1  0  0  0  0
 58 60  1  0  0  0  0
 58 61  1  0  0  0  0
 59 58  1  0  0  0  0
 61 62  1  1  0  0  0
 61 67  1  0  0  0  0
 63 65  1  0  0  0  0
 64 63  1  0  0  0  0
 66 63  1  0  0  0  0
 67 68  1  0  0  0  0
 67 69  1  0  0  0  0
 70 67  1  0  0  0  0
M  END
