1,2
 OpenBabel05122313063D

 67 70  0  0  0  0  0  0  0  0999 V2000
   -1.1528   -0.0887   -0.0428 P   0  0  0  0  0  0  0  0  0  0  0  0
    1.4764    0.1654   -0.3167 P   0  0  0  0  0  0  0  0  0  0  0  0
    0.0312    0.2239   -1.2853 N   0  0  0  0  0  0  0  0  0  0  0  0
   -3.0736    0.6259   -2.2904 O   0  0  0  0  0  0  0  0  0  0  0  0
   -3.4624   -1.2471    1.2412 O   0  0  0  0  0  0  0  0  0  0  0  0
    0.4448    2.9730   -0.3298 O   0  0  0  0  0  0  0  0  0  0  0  0
    3.9735   -0.9665    0.7202 O   0  0  0  0  0  0  0  0  0  0  0  0
   -0.1150    0.8549   -2.5893 C   0  0  0  0  0  0  0  0  0  0  0  0
   -0.6412    1.8295   -2.5127 H   0  0  0  0  0  0  0  0  0  0  0  0
   -0.6704    0.2089   -3.2993 H   0  0  0  0  0  0  0  0  0  0  0  0
    0.8945    1.0504   -3.0029 H   0  0  0  0  0  0  0  0  0  0  0  0
   -2.4447    1.2243   -0.0944 C   0  0  0  0  0  0  0  0  0  0  0  0
   -3.2976    1.4228   -1.2131 C   0  0  0  0  0  0  0  0  0  0  0  0
   -4.3155    2.3970   -1.1612 C   0  0  0  0  0  0  0  0  0  0  0  0
   -4.9711    2.5652   -2.0261 H   0  0  0  0  0  0  0  0  0  0  0  0
   -4.4992    3.1543    0.0066 C   0  0  0  0  0  0  0  0  0  0  0  0
   -5.2997    3.9096    0.0350 H   0  0  0  0  0  0  0  0  0  0  0  0
   -3.6847    2.9460    1.1282 C   0  0  0  0  0  0  0  0  0  0  0  0
   -3.8403    3.5261    2.0494 H   0  0  0  0  0  0  0  0  0  0  0  0
   -2.6672    1.9805    1.0679 C   0  0  0  0  0  0  0  0  0  0  0  0
   -2.0301    1.7897    1.9429 H   0  0  0  0  0  0  0  0  0  0  0  0
   -3.9637    0.6708   -3.3883 C   0  0  0  0  0  0  0  0  0  0  0  0
   -5.0093    0.4542   -3.0772 H   0  0  0  0  0  0  0  0  0  0  0  0
   -3.6269   -0.1152   -4.0893 H   0  0  0  0  0  0  0  0  0  0  0  0
   -3.9374    1.6563   -3.9051 H   0  0  0  0  0  0  0  0  0  0  0  0
   -2.0659   -1.5787   -0.6115 C   0  0  0  0  0  0  0  0  0  0  0  0
   -3.1498   -2.0360    0.1805 C   0  0  0  0  0  0  0  0  0  0  0  0
   -3.8135   -3.2327   -0.1502 C   0  0  0  0  0  0  0  0  0  0  0  0
   -4.6531   -3.5923    0.4597 H   0  0  0  0  0  0  0  0  0  0  0  0
   -3.3884   -3.9750   -1.2648 C   0  0  0  0  0  0  0  0  0  0  0  0
   -3.9089   -4.9120   -1.5154 H   0  0  0  0  0  0  0  0  0  0  0  0
   -2.3063   -3.5409   -2.0429 C   0  0  0  0  0  0  0  0  0  0  0  0
   -1.9641   -4.1352   -2.9029 H   0  0  0  0  0  0  0  0  0  0  0  0
   -1.6477   -2.3469   -1.7061 C   0  0  0  0  0  0  0  0  0  0  0  0
   -0.7791   -2.0072   -2.2866 H   0  0  0  0  0  0  0  0  0  0  0  0
   -4.4089   -1.6958    2.1937 C   0  0  0  0  0  0  0  0  0  0  0  0
   -5.4292   -1.7665    1.7550 H   0  0  0  0  0  0  0  0  0  0  0  0
   -4.4040   -0.9466    3.0052 H   0  0  0  0  0  0  0  0  0  0  0  0
   -4.1214   -2.6828    2.6168 H   0  0  0  0  0  0  0  0  0  0  0  0
    2.4048    1.7038   -0.7247 C   0  0  0  0  0  0  0  0  0  0  0  0
    1.7747    2.9756   -0.6034 C   0  0  0  0  0  0  0  0  0  0  0  0
    2.5240    4.1544   -0.7935 C   0  0  0  0  0  0  0  0  0  0  0  0
    2.0466    5.1367   -0.6859 H   0  0  0  0  0  0  0  0  0  0  0  0
    3.8846    4.0779   -1.1255 C   0  0  0  0  0  0  0  0  0  0  0  0
    4.4555    5.0080   -1.2696 H   0  0  0  0  0  0  0  0  0  0  0  0
    4.5094    2.8337   -1.2800 C   0  0  0  0  0  0  0  0  0  0  0  0
    5.5727    2.7708   -1.5536 H   0  0  0  0  0  0  0  0  0  0  0  0
    3.7661    1.6611   -1.0798 C   0  0  0  0  0  0  0  0  0  0  0  0
    4.2548    0.6852   -1.2002 H   0  0  0  0  0  0  0  0  0  0  0  0
   -0.2065    4.2078   -0.0759 C   0  0  0  0  0  0  0  0  0  0  0  0
    0.2398    4.7211    0.8024 H   0  0  0  0  0  0  0  0  0  0  0  0
   -1.2587    3.9568    0.1462 H   0  0  0  0  0  0  0  0  0  0  0  0
   -0.1668    4.8788   -0.9622 H   0  0  0  0  0  0  0  0  0  0  0  0
    2.5005   -1.1557   -1.0987 C   0  0  0  0  0  0  0  0  0  0  0  0
    3.6333   -1.6522   -0.4005 C   0  0  0  0  0  0  0  0  0  0  0  0
    4.3353   -2.7714   -0.8893 C   0  0  0  0  0  0  0  0  0  0  0  0
    5.2055   -3.1634   -0.3466 H   0  0  0  0  0  0  0  0  0  0  0  0
    3.9175   -3.3892   -2.0783 C   0  0  0  0  0  0  0  0  0  0  0  0
    4.4712   -4.2641   -2.4519 H   0  0  0  0  0  0  0  0  0  0  0  0
    2.8085   -2.9035   -2.7835 C   0  0  0  0  0  0  0  0  0  0  0  0
    2.4815   -3.3895   -3.7142 H   0  0  0  0  0  0  0  0  0  0  0  0
    2.1058   -1.7948   -2.2849 C   0  0  0  0  0  0  0  0  0  0  0  0
    1.2228   -1.4229   -2.8224 H   0  0  0  0  0  0  0  0  0  0  0  0
    5.0270   -1.4478    1.5396 C   0  0  0  0  0  0  0  0  0  0  0  0
    4.8340   -2.4897    1.8747 H   0  0  0  0  0  0  0  0  0  0  0  0
    5.0483   -0.7896    2.4253 H   0  0  0  0  0  0  0  0  0  0  0  0
    6.0043   -1.4060    1.0097 H   0  0  0  0  0  0  0  0  0  0  0  0
  3  2  1  0  0  0  0
  3  1  1  0  0  0  0
  4 13  1  0  0  0  0
  5 36  1  0  0  0  0
  6 50  1  0  0  0  0
  7 64  1  0  0  0  0
  8  9  1  0  0  0  0
  8  3  1  0  0  0  0
 10  8  1  0  0  0  0
 11  8  1  0  0  0  0
 12  1  1  0  0  0  0
 12 20  1  0  0  0  0
 13 14  1  0  0  0  0
 13 12  2  0  0  0  0
 14 16  2  0  0  0  0
 15 14  1  0  0  0  0
 16 17  1  0  0  0  0
 16 18  1  0  0  0  0
 18 19  1  0  0  0  0
 20 18  2  0  0  0  0
 20 21  1  0  0  0  0
 22 23  1  0  0  0  0
 22  4  1  0  0  0  0
 24 22  1  0  0  0  0
 25 22  1  0  0  0  0
 26  1  1  0  0  0  0
 26 27  1  0  0  0  0
 27  5  1  0  0  0  0
 28 27  2  0  0  0  0
 28 29  1  0  0  0  0
 30 28  1  0  0  0  0
 31 30  1  0  0  0  0
 32 34  1  0  0  0  0
 32 30  2  0  0  0  0
 33 32  1  0  0  0  0
 34 26  2  0  0  0  0
 35 34  1  0  0  0  0
 36 39  1  0  0  0  0
 36 38  1  0  0  0  0
 37 36  1  0  0  0  0
 40 41  1  0  0  0  0
 40  2  1  0  0  0  0
 41  6  1  0  0  0  0
 42 43  1  0  0  0  0
 42 41  2  0  0  0  0
 44 42  1  0  0  0  0
 45 44  1  0  0  0  0
 46 44  2  0  0  0  0
 46 48  1  0  0  0  0
 47 46  1  0  0  0  0
 48 40  2  0  0  0  0
 49 48  1  0  0  0  0
 50 52  1  0  0  0  0
 50 51  1  0  0  0  0
 53 50  1  0  0  0  0
 54 55  1  0  0  0  0
 54  2  1  0  0  0  0
 55  7  1  0  0  0  0
 56 55  2  0  0  0  0
 56 57  1  0  0  0  0
 58 56  1  0  0  0  0
 59 58  1  0  0  0  0
 60 62  1  0  0  0  0
 60 58  2  0  0  0  0
 61 60  1  0  0  0  0
 62 54  2  0  0  0  0
 63 62  1  0  0  0  0
 64 65  1  0  0  0  0
 64 66  1  0  0  0  0
 67 64  1  0  0  0  0
M  END
