1,2
 OpenBabel05122313063D

 60 63  0  0  0  0  0  0  0  0999 V2000
   -1.3195    0.0996   -0.1107 P   0  0  0  0  0  0  0  0  0  0  0  0
    1.3254    0.0647   -0.1232 P   0  0  0  0  0  0  0  0  0  0  0  0
   -2.4488   -1.3203   -0.3423 C   0  0  0  0  0  0  0  0  0  0  0  0
   -2.1673   -2.5029    0.3730 C   0  0  0  0  0  0  0  0  0  0  0  0
   -2.9808   -3.6317    0.2067 C   0  0  0  0  0  0  0  0  0  0  0  0
   -2.7591   -4.5503    0.7701 H   0  0  0  0  0  0  0  0  0  0  0  0
   -4.0891   -3.5811   -0.6544 C   0  0  0  0  0  0  0  0  0  0  0  0
   -4.7304   -4.4669   -0.7787 H   0  0  0  0  0  0  0  0  0  0  0  0
   -4.3962   -2.3924   -1.3368 C   0  0  0  0  0  0  0  0  0  0  0  0
   -5.2794   -2.3424   -1.9912 H   0  0  0  0  0  0  0  0  0  0  0  0
   -3.5825   -1.2615   -1.1791 C   0  0  0  0  0  0  0  0  0  0  0  0
   -3.8416   -0.3244   -1.6945 H   0  0  0  0  0  0  0  0  0  0  0  0
   -2.3368    1.5917   -0.3196 C   0  0  0  0  0  0  0  0  0  0  0  0
   -3.5209    1.6702    0.4481 C   0  0  0  0  0  0  0  0  0  0  0  0
   -3.8164    0.8248    1.0882 H   0  0  0  0  0  0  0  0  0  0  0  0
   -4.2821    2.8463    0.4272 C   0  0  0  0  0  0  0  0  0  0  0  0
   -5.2022    2.9067    1.0276 H   0  0  0  0  0  0  0  0  0  0  0  0
   -3.8668    3.9473   -0.3403 C   0  0  0  0  0  0  0  0  0  0  0  0
   -2.6731    3.8790   -1.0763 C   0  0  0  0  0  0  0  0  0  0  0  0
   -1.9027    2.7077   -1.0588 C   0  0  0  0  0  0  0  0  0  0  0  0
    2.4054   -1.3875   -0.3812 C   0  0  0  0  0  0  0  0  0  0  0  0
    1.9859   -2.6186    0.1644 C   0  0  0  0  0  0  0  0  0  0  0  0
    1.0501   -2.6613    0.7417 H   0  0  0  0  0  0  0  0  0  0  0  0
    2.7701   -3.7658   -0.0109 C   0  0  0  0  0  0  0  0  0  0  0  0
    2.4396   -4.7230    0.4190 H   0  0  0  0  0  0  0  0  0  0  0  0
    3.9852   -3.6880   -0.7118 C   0  0  0  0  0  0  0  0  0  0  0  0
    4.4194   -2.4582   -1.2318 C   0  0  0  0  0  0  0  0  0  0  0  0
    3.6344   -1.3075   -1.0670 C   0  0  0  0  0  0  0  0  0  0  0  0
    3.9848   -0.3413   -1.4602 H   0  0  0  0  0  0  0  0  0  0  0  0
    2.3788    1.5350   -0.3143 C   0  0  0  0  0  0  0  0  0  0  0  0
    2.0619    2.6113   -1.1633 C   0  0  0  0  0  0  0  0  0  0  0  0
    2.8663    3.7603   -1.1689 C   0  0  0  0  0  0  0  0  0  0  0  0
    3.9780    3.8448   -0.3161 C   0  0  0  0  0  0  0  0  0  0  0  0
    4.2747    2.7849    0.5574 C   0  0  0  0  0  0  0  0  0  0  0  0
    3.4773    1.6330    0.5707 C   0  0  0  0  0  0  0  0  0  0  0  0
    0.0008    0.0977   -1.2790 N   0  0  0  0  0  0  0  0  0  0  0  0
   -0.0139   -0.3436   -2.7165 C   0  0  0  0  0  0  0  0  0  0  0  0
   -0.1205   -1.8802   -2.7977 C   0  0  0  0  0  0  0  0  0  0  0  0
   -1.0504   -2.2447   -2.3228 H   0  0  0  0  0  0  0  0  0  0  0  0
   -0.1267   -2.2053   -3.8574 H   0  0  0  0  0  0  0  0  0  0  0  0
    0.7387   -2.3640   -2.2955 H   0  0  0  0  0  0  0  0  0  0  0  0
    1.2786    0.1121   -3.4109 C   0  0  0  0  0  0  0  0  0  0  0  0
    1.2718   -0.2533   -4.4566 H   0  0  0  0  0  0  0  0  0  0  0  0
    1.3687    1.2138   -3.4355 H   0  0  0  0  0  0  0  0  0  0  0  0
    2.1791   -0.3056   -2.9243 H   0  0  0  0  0  0  0  0  0  0  0  0
   -1.2092    0.3028   -3.4323 C   0  0  0  0  0  0  0  0  0  0  0  0
   -2.1698    0.0389   -2.9532 H   0  0  0  0  0  0  0  0  0  0  0  0
   -1.1233    1.4054   -3.4555 H   0  0  0  0  0  0  0  0  0  0  0  0
   -1.2504   -0.0627   -4.4773 H   0  0  0  0  0  0  0  0  0  0  0  0
   -1.3307   -2.5122    1.0886 H   0  0  0  0  0  0  0  0  0  0  0  0
   -4.4684    4.8687   -0.3517 H   0  0  0  0  0  0  0  0  0  0  0  0
   -2.3337    4.7467   -1.6618 H   0  0  0  0  0  0  0  0  0  0  0  0
   -0.9540    2.6584   -1.6099 H   0  0  0  0  0  0  0  0  0  0  0  0
    4.6050   -4.5883   -0.8398 H   0  0  0  0  0  0  0  0  0  0  0  0
    5.3794   -2.3914   -1.7655 H   0  0  0  0  0  0  0  0  0  0  0  0
    1.1788    2.5511   -1.8139 H   0  0  0  0  0  0  0  0  0  0  0  0
    2.6180    4.5969   -1.8394 H   0  0  0  0  0  0  0  0  0  0  0  0
    4.6066    4.7481   -0.3195 H   0  0  0  0  0  0  0  0  0  0  0  0
    5.1271    2.8607    1.2491 H   0  0  0  0  0  0  0  0  0  0  0  0
    3.6667    0.8268    1.2977 H   0  0  0  0  0  0  0  0  0  0  0  0
  3  1  1  0  0  0  0
  3  4  1  0  0  0  0
  4 50  1  0  0  0  0
  5  4  2  0  0  0  0
  5  6  1  0  0  0  0
  7  5  1  0  0  0  0
  8  7  1  0  0  0  0
  9 11  1  0  0  0  0
  9  7  2  0  0  0  0
 10  9  1  0  0  0  0
 11  3  2  0  0  0  0
 12 11  1  0  0  0  0
 13  1  1  0  0  0  0
 13 14  1  0  0  0  0
 14 15  1  0  0  0  0
 16 14  2  0  0  0  0
 16 17  1  0  0  0  0
 18 16  1  0  0  0  0
 19 20  1  0  0  0  0
 19 18  2  0  0  0  0
 20 13  2  0  0  0  0
 21  2  1  0  0  0  0
 21 22  1  0  0  0  0
 22 23  1  0  0  0  0
 24 22  2  0  0  0  0
 24 25  1  0  0  0  0
 26 24  1  0  0  0  0
 27 28  1  0  0  0  0
 27 26  2  0  0  0  0
 28 21  2  0  0  0  0
 29 28  1  0  0  0  0
 30  2  1  0  0  0  0
 30 35  1  0  0  0  0
 31 30  2  0  0  0  0
 32 31  1  0  0  0  0
 32 33  2  0  0  0  0
 33 34  1  0  0  0  0
 34 35  2  0  0  0  0
 34 59  1  0  0  0  0
 35 60  1  0  0  0  0
 36  2  1  0  0  0  0
 36  1  1  0  0  0  0
 37 36  1  0  0  0  0
 38 37  1  0  0  0  0
 38 39  1  0  0  0  0
 38 41  1  0  0  0  0
 40 38  1  0  0  0  0
 42 45  1  0  0  0  0
 42 37  1  0  0  0  0
 43 42  1  0  0  0  0
 44 42  1  0  0  0  0
 46 47  1  0  0  0  0
 46 37  1  0  0  0  0
 48 46  1  0  0  0  0
 49 46  1  0  0  0  0
 51 18  1  0  0  0  0
 52 19  1  0  0  0  0
 53 20  1  0  0  0  0
 54 26  1  0  0  0  0
 55 27  1  0  0  0  0
 56 31  1  0  0  0  0
 57 32  1  0  0  0  0
 58 33  1  0  0  0  0
M  END
