1,5
 OpenBabel05122313063D

 57 57  0  0  0  0  0  0  0  0999 V2000
    0.5865    1.4906   -0.4643 P   0  0  0  0  0  2  0  0  0  0  0  0
   -1.5926    1.4938   -1.1484 P   0  0  2  0  0  0  0  0  0  0  0  0
   -2.4615    1.6904    0.9344 P   0  0  2  0  0  0  0  0  0  0  0  0
   -2.9813   -0.5105    0.9126 P   0  0  1  0  0  0  0  0  0  0  0  0
   -1.4860   -0.6977   -0.7392 P   0  0  1  0  0  0  0  0  0  0  0  0
    1.3600    1.9439   -2.1775 C   0  0  0  0  0  0  0  0  0  0  0  0
    0.9103    1.0278   -3.3199 C   0  0  0  0  0  0  0  0  0  0  0  0
   -0.1869    1.0867   -3.4794 H   0  0  0  0  0  0  0  0  0  0  0  0
    1.1693   -0.0284   -3.1037 H   0  0  0  0  0  0  0  0  0  0  0  0
    1.4009    1.3251   -4.2737 H   0  0  0  0  0  0  0  0  0  0  0  0
    2.8852    1.8634   -2.0208 C   0  0  0  0  0  0  0  0  0  0  0  0
    3.3792    2.2284   -2.9477 H   0  0  0  0  0  0  0  0  0  0  0  0
    3.2152    0.8190   -1.8547 H   0  0  0  0  0  0  0  0  0  0  0  0
    3.2515    2.4771   -1.1739 H   0  0  0  0  0  0  0  0  0  0  0  0
    0.9474    3.3994   -2.4528 C   0  0  0  0  0  0  0  0  0  0  0  0
    1.4117    3.7552   -3.3987 H   0  0  0  0  0  0  0  0  0  0  0  0
    1.2742    4.0749   -1.6360 H   0  0  0  0  0  0  0  0  0  0  0  0
   -0.1529    3.4985   -2.5619 H   0  0  0  0  0  0  0  0  0  0  0  0
   -4.1732    2.4888    0.5864 C   0  0  0  0  0  0  0  0  0  0  0  0
   -4.9479    1.8551   -0.5722 C   0  0  0  0  0  0  0  0  0  0  0  0
   -5.9114    2.3892   -0.7241 H   0  0  0  0  0  0  0  0  0  0  0  0
   -5.1770    0.7898   -0.3679 H   0  0  0  0  0  0  0  0  0  0  0  0
   -4.3755    1.9111   -1.5209 H   0  0  0  0  0  0  0  0  0  0  0  0
   -3.8632    3.9640    0.2825 C   0  0  0  0  0  0  0  0  0  0  0  0
   -3.2597    4.0649   -0.6440 H   0  0  0  0  0  0  0  0  0  0  0  0
   -3.3050    4.4457    1.1114 H   0  0  0  0  0  0  0  0  0  0  0  0
   -4.8079    4.5294    0.1304 H   0  0  0  0  0  0  0  0  0  0  0  0
   -4.9652    2.3547    1.8966 C   0  0  0  0  0  0  0  0  0  0  0  0
   -5.9455    2.8704    1.8047 H   0  0  0  0  0  0  0  0  0  0  0  0
   -4.4229    2.8045    2.7539 H   0  0  0  0  0  0  0  0  0  0  0  0
   -5.1712    1.2901    2.1356 H   0  0  0  0  0  0  0  0  0  0  0  0
   -2.1874   -1.1837    2.5207 C   0  0  0  0  0  0  0  0  0  0  0  0
   -0.8339   -0.5641    2.8797 C   0  0  0  0  0  0  0  0  0  0  0  0
   -0.9070    0.5346    3.0070 H   0  0  0  0  0  0  0  0  0  0  0  0
   -0.0801   -0.7650    2.0850 H   0  0  0  0  0  0  0  0  0  0  0  0
   -0.4643   -1.0047    3.8312 H   0  0  0  0  0  0  0  0  0  0  0  0
   -3.2271   -0.8437    3.6058 C   0  0  0  0  0  0  0  0  0  0  0  0
   -2.8828   -1.2382    4.5858 H   0  0  0  0  0  0  0  0  0  0  0  0
   -4.2181   -1.2915    3.3860 H   0  0  0  0  0  0  0  0  0  0  0  0
   -3.3567    0.2534    3.7168 H   0  0  0  0  0  0  0  0  0  0  0  0
   -2.0561   -2.7051    2.3457 C   0  0  0  0  0  0  0  0  0  0  0  0
   -1.2889   -2.9682    1.5880 H   0  0  0  0  0  0  0  0  0  0  0  0
   -3.0205   -3.1721    2.0572 H   0  0  0  0  0  0  0  0  0  0  0  0
   -1.7391   -3.1590    3.3095 H   0  0  0  0  0  0  0  0  0  0  0  0
   -2.2786   -1.8097   -2.0563 C   0  0  0  0  0  0  0  0  0  0  0  0
   -1.2514   -2.0104   -3.1795 C   0  0  0  0  0  0  0  0  0  0  0  0
   -0.3145   -2.4527   -2.7857 H   0  0  0  0  0  0  0  0  0  0  0  0
   -1.0085   -1.0573   -3.6880 H   0  0  0  0  0  0  0  0  0  0  0  0
   -1.6741   -2.7018   -3.9392 H   0  0  0  0  0  0  0  0  0  0  0  0
   -3.5580   -1.1458   -2.5772 C   0  0  0  0  0  0  0  0  0  0  0  0
   -4.0233   -1.7939   -3.3504 H   0  0  0  0  0  0  0  0  0  0  0  0
   -3.3477   -0.1584   -3.0371 H   0  0  0  0  0  0  0  0  0  0  0  0
   -4.2983   -1.0003   -1.7651 H   0  0  0  0  0  0  0  0  0  0  0  0
   -2.5873   -3.1462   -1.3619 C   0  0  0  0  0  0  0  0  0  0  0  0
   -3.0506   -3.8362   -2.0993 H   0  0  0  0  0  0  0  0  0  0  0  0
   -3.3086   -3.0138   -0.5289 H   0  0  0  0  0  0  0  0  0  0  0  0
   -1.6628   -3.6155   -0.9693 H   0  0  0  0  0  0  0  0  0  0  0  0
  2  5  1  0  0  0  0
  2  1  1  1  0  0  0
  2  3  1  0  0  0  0
  3 19  1  6  0  0  0
  4  3  1  0  0  0  0
  4 32  1  1  0  0  0
  5 45  1  6  0  0  0
  5  4  1  0  0  0  0
  6 11  1  0  0  0  0
  6  1  1  0  0  0  0
  7  9  1  0  0  0  0
  7  6  1  0  0  0  0
  8  7  1  0  0  0  0
 10  7  1  0  0  0  0
 11 13  1  0  0  0  0
 11 14  1  0  0  0  0
 12 11  1  0  0  0  0
 15  6  1  0  0  0  0
 15 17  1  0  0  0  0
 16 15  1  0  0  0  0
 18 15  1  0  0  0  0
 19 28  1  0  0  0  0
 20 22  1  0  0  0  0
 20 19  1  0  0  0  0
 21 20  1  0  0  0  0
 23 20  1  0  0  0  0
 24 19  1  0  0  0  0
 24 26  1  0  0  0  0
 25 24  1  0  0  0  0
 27 24  1  0  0  0  0
 28 31  1  0  0  0  0
 28 30  1  0  0  0  0
 29 28  1  0  0  0  0
 32 33  1  0  0  0  0
 32 37  1  0  0  0  0
 33 34  1  0  0  0  0
 33 36  1  0  0  0  0
 35 33  1  0  0  0  0
 37 40  1  0  0  0  0
 37 38  1  0  0  0  0
 39 37  1  0  0  0  0
 41 32  1  0  0  0  0
 41 44  1  0  0  0  0
 42 41  1  0  0  0  0
 43 41  1  0  0  0  0
 45 54  1  0  0  0  0
 46 47  1  0  0  0  0
 46 45  1  0  0  0  0
 48 46  1  0  0  0  0
 49 46  1  0  0  0  0
 50 45  1  0  0  0  0
 50 53  1  0  0  0  0
 51 50  1  0  0  0  0
 52 50  1  0  0  0  0
 54 57  1  0  0  0  0
 54 56  1  0  0  0  0
 55 54  1  0  0  0  0
M  END
