1,2
 OpenBabel05122313063D

 44 45  0  0  1  0  0  0  0  0999 V2000
    0.8757    1.6983   -0.9273 P   0  0  1  0  0  0  0  0  0  0  0  0
   -2.0524    1.2538    0.1125 P   0  0  2  0  0  0  0  0  0  0  0  0
   -0.3809    3.0237   -1.2978 C   0  0  0  0  0  0  0  0  0  0  0  0
    0.1264    4.0105   -1.3358 H   0  0  0  0  0  0  0  0  0  0  0  0
   -0.7490    2.8041   -2.3225 H   0  0  0  0  0  0  0  0  0  0  0  0
    2.0634    1.7656   -2.3832 C   0  0  2  0  0  0  0  0  0  0  0  0
    1.7625    2.6995   -2.9091 H   0  0  0  0  0  0  0  0  0  0  0  0
    1.9997    0.5997   -3.3636 C   0  0  0  0  0  0  0  0  0  0  0  0
    2.6648    0.7934   -4.2291 H   0  0  0  0  0  0  0  0  0  0  0  0
    0.9752    0.4424   -3.7551 H   0  0  0  0  0  0  0  0  0  0  0  0
    2.3335   -0.3418   -2.8862 H   0  0  0  0  0  0  0  0  0  0  0  0
   -1.5256    3.0023   -0.2870 C   0  0  0  0  0  0  0  0  0  0  0  0
   -2.3994    3.5877   -0.6389 H   0  0  0  0  0  0  0  0  0  0  0  0
   -1.2059    3.4478    0.6763 H   0  0  0  0  0  0  0  0  0  0  0  0
    2.0983    2.3752    0.3223 C   0  0  1  0  0  0  0  0  0  0  0  0
    2.4790    1.4572    0.8140 H   0  0  0  0  0  0  0  0  0  0  0  0
    3.2336    2.9560   -0.5413 C   0  0  0  0  0  0  0  0  0  0  0  0
    2.9572    3.9706   -0.9051 H   0  0  0  0  0  0  0  0  0  0  0  0
    4.1555    3.0744    0.0644 H   0  0  0  0  0  0  0  0  0  0  0  0
    3.4375    2.0078   -1.7277 C   0  0  0  0  0  0  0  0  0  0  0  0
    3.8460    1.0382   -1.3660 H   0  0  0  0  0  0  0  0  0  0  0  0
    4.1597    2.4051   -2.4697 H   0  0  0  0  0  0  0  0  0  0  0  0
    1.5317    3.2991    1.3949 C   0  0  0  0  0  0  0  0  0  0  0  0
    2.3401    3.5992    2.0919 H   0  0  0  0  0  0  0  0  0  0  0  0
    0.7521    2.7949    2.0003 H   0  0  0  0  0  0  0  0  0  0  0  0
    1.1051    4.2295    0.9672 H   0  0  0  0  0  0  0  0  0  0  0  0
   -3.6366    0.8761   -0.8056 C   0  0  1  0  0  0  0  0  0  0  0  0
   -3.6034   -0.2331   -0.8812 H   0  0  0  0  0  0  0  0  0  0  0  0
   -4.7414    1.2574    0.1999 C   0  0  0  0  0  0  0  0  0  0  0  0
   -4.9115    2.3574    0.1755 H   0  0  0  0  0  0  0  0  0  0  0  0
   -5.7023    0.7801   -0.0817 H   0  0  0  0  0  0  0  0  0  0  0  0
   -4.2669    0.8237    1.5930 C   0  0  0  0  0  0  0  0  0  0  0  0
   -4.2260   -0.2850    1.6484 H   0  0  0  0  0  0  0  0  0  0  0  0
   -4.9488    1.1699    2.3962 H   0  0  0  0  0  0  0  0  0  0  0  0
   -2.8491    1.3928    1.8076 C   0  0  1  0  0  0  0  0  0  0  0  0
   -2.9379    2.4926    1.9564 H   0  0  0  0  0  0  0  0  0  0  0  0
   -2.0509    0.7899    2.9603 C   0  0  0  0  0  0  0  0  0  0  0  0
   -2.5788    0.9611    3.9202 H   0  0  0  0  0  0  0  0  0  0  0  0
   -1.0426    1.2451    3.0426 H   0  0  0  0  0  0  0  0  0  0  0  0
   -1.9231   -0.3020    2.8231 H   0  0  0  0  0  0  0  0  0  0  0  0
   -3.7475    1.4789   -2.2019 C   0  0  0  0  0  0  0  0  0  0  0  0
   -4.6979    1.1630   -2.6775 H   0  0  0  0  0  0  0  0  0  0  0  0
   -2.9213    1.1428   -2.8609 H   0  0  0  0  0  0  0  0  0  0  0  0
   -3.7487    2.5882   -2.1810 H   0  0  0  0  0  0  0  0  0  0  0  0
  1  3  1  6  0  0  0
  1 15  1  0  0  0  0
  2 12  1  6  0  0  0
  2 35  1  0  0  0  0
  3 12  1  0  0  0  0
  4  3  1  0  0  0  0
  5  3  1  0  0  0  0
  6  7  1  6  0  0  0
  6 20  1  0  0  0  0
  6  1  1  0  0  0  0
  8 11  1  0  0  0  0
  8  6  1  0  0  0  0
  9  8  1  0  0  0  0
 10  8  1  0  0  0  0
 12 14  1  0  0  0  0
 13 12  1  0  0  0  0
 15 16  1  1  0  0  0
 15 23  1  0  0  0  0
 17 19  1  0  0  0  0
 17 15  1  0  0  0  0
 18 17  1  0  0  0  0
 20 21  1  0  0  0  0
 20 17  1  0  0  0  0
 22 20  1  0  0  0  0
 23 25  1  0  0  0  0
 23 24  1  0  0  0  0
 26 23  1  0  0  0  0
 27 28  1  6  0  0  0
 27  2  1  0  0  0  0
 27 29  1  0  0  0  0
 29 32  1  0  0  0  0
 30 29  1  0  0  0  0
 31 29  1  0  0  0  0
 32 33  1  0  0  0  0
 32 35  1  0  0  0  0
 32 34  1  0  0  0  0
 35 36  1  1  0  0  0
 35 37  1  0  0  0  0
 37 39  1  0  0  0  0
 37 38  1  0  0  0  0
 40 37  1  0  0  0  0
 41 44  1  0  0  0  0
 41 27  1  0  0  0  0
 42 41  1  0  0  0  0
 43 41  1  0  0  0  0
M  END
