1,2
 OpenBabel05122313063D

 53 54  0  0  0  0  0  0  0  0999 V2000
   -1.7567   -0.0703   -0.2904 P   0  0  0  0  0  0  0  0  0  0  0  0
    0.9248    0.0480    0.0461 P   0  0  0  0  0  0  0  0  0  0  0  0
   -0.2511   -0.0100   -1.4158 C   0  0  0  0  0  0  0  0  0  0  0  0
   -0.1304   -0.8490   -2.1303 H   0  0  0  0  0  0  0  0  0  0  0  0
   -0.2013    0.9423   -1.9793 H   0  0  0  0  0  0  0  0  0  0  0  0
   -2.8975    1.2980   -0.9821 C   0  0  0  0  0  0  0  0  0  0  0  0
   -4.2696    1.2149   -0.2925 C   0  0  0  0  0  0  0  0  0  0  0  0
   -4.1696    1.1716    0.8101 H   0  0  0  0  0  0  0  0  0  0  0  0
   -4.8527    0.3355   -0.6296 H   0  0  0  0  0  0  0  0  0  0  0  0
   -4.8634    2.1197   -0.5441 H   0  0  0  0  0  0  0  0  0  0  0  0
   -2.2063    2.6106   -0.5586 C   0  0  0  0  0  0  0  0  0  0  0  0
   -1.2066    2.7315   -1.0243 H   0  0  0  0  0  0  0  0  0  0  0  0
   -2.0741    2.6565    0.5400 H   0  0  0  0  0  0  0  0  0  0  0  0
   -2.8275    3.4744   -0.8791 H   0  0  0  0  0  0  0  0  0  0  0  0
   -3.0592    1.2759   -2.5089 C   0  0  0  0  0  0  0  0  0  0  0  0
   -2.0835    1.3054   -3.0342 H   0  0  0  0  0  0  0  0  0  0  0  0
   -3.6292    2.1748   -2.8298 H   0  0  0  0  0  0  0  0  0  0  0  0
   -3.6134    0.3887   -2.8659 H   0  0  0  0  0  0  0  0  0  0  0  0
   -2.4763   -1.8221   -0.5343 C   0  0  0  0  0  0  0  0  0  0  0  0
   -3.5180   -2.0604    0.5742 C   0  0  0  0  0  0  0  0  0  0  0  0
   -3.0768   -1.8716    1.5725 H   0  0  0  0  0  0  0  0  0  0  0  0
   -3.8585   -3.1172    0.5383 H   0  0  0  0  0  0  0  0  0  0  0  0
   -4.4111   -1.4170    0.4670 H   0  0  0  0  0  0  0  0  0  0  0  0
   -1.2981   -2.7856   -0.2895 C   0  0  0  0  0  0  0  0  0  0  0  0
   -0.5337   -2.7464   -1.0896 H   0  0  0  0  0  0  0  0  0  0  0  0
   -1.6827   -3.8269   -0.2498 H   0  0  0  0  0  0  0  0  0  0  0  0
   -0.7923   -2.5700    0.6744 H   0  0  0  0  0  0  0  0  0  0  0  0
   -3.0778   -2.0763   -1.9209 C   0  0  0  0  0  0  0  0  0  0  0  0
   -2.3681   -1.8288   -2.7367 H   0  0  0  0  0  0  0  0  0  0  0  0
   -4.0087   -1.4990   -2.0834 H   0  0  0  0  0  0  0  0  0  0  0  0
   -3.3372   -3.1526   -2.0225 H   0  0  0  0  0  0  0  0  0  0  0  0
    2.0710    1.4498   -0.3077 C   0  0  0  0  0  0  0  0  0  0  0  0
    3.2134    1.3525   -1.1268 C   0  0  0  0  0  0  0  0  0  0  0  0
    3.4976    0.3829   -1.5634 H   0  0  0  0  0  0  0  0  0  0  0  0
    3.9975    2.4888   -1.3764 C   0  0  0  0  0  0  0  0  0  0  0  0
    4.8896    2.4070   -2.0164 H   0  0  0  0  0  0  0  0  0  0  0  0
    3.6518    3.7256   -0.8063 C   0  0  0  0  0  0  0  0  0  0  0  0
    4.2718    4.6139   -1.0017 H   0  0  0  0  0  0  0  0  0  0  0  0
    2.5239    3.8235    0.0239 C   0  0  0  0  0  0  0  0  0  0  0  0
    2.2596    4.7866    0.4868 H   0  0  0  0  0  0  0  0  0  0  0  0
    1.7387    2.6889    0.2785 C   0  0  0  0  0  0  0  0  0  0  0  0
    0.8663    2.7409    0.9505 H   0  0  0  0  0  0  0  0  0  0  0  0
    1.9932   -1.4436   -0.0960 C   0  0  0  0  0  0  0  0  0  0  0  0
    2.4493   -2.0229    1.1066 C   0  0  0  0  0  0  0  0  0  0  0  0
    2.1558   -1.5701    2.0665 H   0  0  0  0  0  0  0  0  0  0  0  0
    3.2571   -3.1692    1.0769 C   0  0  0  0  0  0  0  0  0  0  0  0
    3.6086   -3.6136    2.0205 H   0  0  0  0  0  0  0  0  0  0  0  0
    3.6057   -3.7557   -0.1507 C   0  0  0  0  0  0  0  0  0  0  0  0
    4.2321   -4.6604   -0.1722 H   0  0  0  0  0  0  0  0  0  0  0  0
    3.1471   -3.1902   -1.3513 C   0  0  0  0  0  0  0  0  0  0  0  0
    3.4145   -3.6494   -2.3155 H   0  0  0  0  0  0  0  0  0  0  0  0
    2.3450   -2.0385   -1.3250 C   0  0  0  0  0  0  0  0  0  0  0  0
    1.9887   -1.6041   -2.2725 H   0  0  0  0  0  0  0  0  0  0  0  0
  3  1  1  0  0  0  0
  3  2  1  0  0  0  0
  4  3  1  0  0  0  0
  5  3  1  0  0  0  0
  6 11  1  0  0  0  0
  6  7  1  0  0  0  0
  6  1  1  0  0  0  0
  7  8  1  0  0  0  0
  9  7  1  0  0  0  0
 10  7  1  0  0  0  0
 11 13  1  0  0  0  0
 12 11  1  0  0  0  0
 14 11  1  0  0  0  0
 15  6  1  0  0  0  0
 16 15  1  0  0  0  0
 17 15  1  0  0  0  0
 18 15  1  0  0  0  0
 19  1  1  0  0  0  0
 19 24  1  0  0  0  0
 19 20  1  0  0  0  0
 20 21  1  0  0  0  0
 22 20  1  0  0  0  0
 23 20  1  0  0  0  0
 24 26  1  0  0  0  0
 24 27  1  0  0  0  0
 25 24  1  0  0  0  0
 28 19  1  0  0  0  0
 29 28  1  0  0  0  0
 30 28  1  0  0  0  0
 31 28  1  0  0  0  0
 32  2  1  0  0  0  0
 32 41  1  0  0  0  0
 33 32  2  0  0  0  0
 34 33  1  0  0  0  0
 35 33  1  0  0  0  0
 35 37  2  0  0  0  0
 36 35  1  0  0  0  0
 37 39  1  0  0  0  0
 38 37  1  0  0  0  0
 39 41  2  0  0  0  0
 39 40  1  0  0  0  0
 41 42  1  0  0  0  0
 43  2  1  0  0  0  0
 43 44  1  0  0  0  0
 44 45  1  0  0  0  0
 46 44  2  0  0  0  0
 46 47  1  0  0  0  0
 48 46  1  0  0  0  0
 49 48  1  0  0  0  0
 50 52  1  0  0  0  0
 50 48  2  0  0  0  0
 51 50  1  0  0  0  0
 52 43  2  0  0  0  0
 53 52  1  0  0  0  0
M  END
