1,2
 OpenBabel05122313063D

 70 76  0  0  0  0  0  0  0  0999 V2000
    1.5539    0.5970   -0.0491 P   0  0  0  0  0  0  0  0  0  0  0  0
   -1.7342   -0.1065   -0.0012 P   0  0  0  0  0  0  0  0  0  0  0  0
    1.4516    0.1657    1.7287 C   0  0  0  0  0  0  0  0  0  0  0  0
    1.4264    0.1854    3.8913 C   0  0  0  0  0  0  0  0  0  0  0  0
    1.0807   -1.1071    3.5196 C   0  0  0  0  0  0  0  0  0  0  0  0
    1.0320   -2.2902    1.3127 C   0  0  0  0  0  0  0  0  0  0  0  0
    2.2159   -2.7880    0.7446 C   0  0  0  0  0  0  0  0  0  0  0  0
    2.1789   -3.9191   -0.0789 C   0  0  0  0  0  0  0  0  0  0  0  0
    0.9637   -4.5753   -0.3152 C   0  0  0  0  0  0  0  0  0  0  0  0
   -0.2192   -4.0919    0.2559 C   0  0  0  0  0  0  0  0  0  0  0  0
   -0.1954   -2.9457    1.0651 C   0  0  0  0  0  0  0  0  0  0  0  0
   -2.1163   -3.1136    2.6217 C   0  0  0  0  0  0  0  0  0  0  0  0
   -3.2705   -2.3729    2.8305 C   0  0  0  0  0  0  0  0  0  0  0  0
   -2.1899   -1.3614    1.2500 C   0  0  0  0  0  0  0  0  0  0  0  0
   -3.2069    0.2094   -1.0546 C   0  0  0  0  0  0  0  0  0  0  0  0
   -4.4965    0.2439   -0.4897 C   0  0  0  0  0  0  0  0  0  0  0  0
   -5.5894    0.6121   -1.2888 C   0  0  0  0  0  0  0  0  0  0  0  0
   -5.3987    0.9663   -2.6341 C   0  0  0  0  0  0  0  0  0  0  0  0
   -4.1092    0.9431   -3.1891 C   0  0  0  0  0  0  0  0  0  0  0  0
   -3.0120    0.5582   -2.4054 C   0  0  0  0  0  0  0  0  0  0  0  0
   -1.7250    1.4257    1.0251 C   0  0  0  0  0  0  0  0  0  0  0  0
   -1.4305    1.3910    2.3999 C   0  0  0  0  0  0  0  0  0  0  0  0
   -1.4091    2.5783    3.1456 C   0  0  0  0  0  0  0  0  0  0  0  0
   -1.6872    3.8054    2.5275 C   0  0  0  0  0  0  0  0  0  0  0  0
   -1.9888    3.8440    1.1560 C   0  0  0  0  0  0  0  0  0  0  0  0
   -2.0081    2.6621    0.4065 C   0  0  0  0  0  0  0  0  0  0  0  0
    1.1844    2.3850   -0.2218 C   0  0  0  0  0  0  0  0  0  0  0  0
    0.6615    2.7955   -1.4659 C   0  0  0  0  0  0  0  0  0  0  0  0
    0.4577    4.1588   -1.7226 C   0  0  0  0  0  0  0  0  0  0  0  0
    0.7607    5.1103   -0.7360 C   0  0  0  0  0  0  0  0  0  0  0  0
    1.2696    4.6964    0.5058 C   0  0  0  0  0  0  0  0  0  0  0  0
    1.4949    3.3373    0.7680 C   0  0  0  0  0  0  0  0  0  0  0  0
    3.3607    0.5453   -0.3878 C   0  0  0  0  0  0  0  0  0  0  0  0
    3.8064    0.8133   -1.6986 C   0  0  0  0  0  0  0  0  0  0  0  0
    5.1788    0.8177   -1.9797 C   0  0  0  0  0  0  0  0  0  0  0  0
    6.1119    0.5455   -0.9655 C   0  0  0  0  0  0  0  0  0  0  0  0
    5.6696    0.2805    0.3390 C   0  0  0  0  0  0  0  0  0  0  0  0
    4.2961    0.2828    0.6315 C   0  0  0  0  0  0  0  0  0  0  0  0
    1.6593    0.9539    2.7794 N   0  0  0  0  0  0  0  0  0  0  0  0
    1.1017   -1.1197    2.1373 N   0  0  0  0  0  0  0  0  0  0  0  0
   -1.4209   -2.4618    1.6187 N   0  0  0  0  0  0  0  0  0  0  0  0
   -3.2962   -1.2958    1.9863 N   0  0  0  0  0  0  0  0  0  0  0  0
    1.5167    0.5940    4.9055 H   0  0  0  0  0  0  0  0  0  0  0  0
    0.8489   -2.0110    4.0917 H   0  0  0  0  0  0  0  0  0  0  0  0
    3.1593   -2.2563    0.9296 H   0  0  0  0  0  0  0  0  0  0  0  0
    3.1049   -4.2753   -0.5508 H   0  0  0  0  0  0  0  0  0  0  0  0
    0.9263   -5.4506   -0.9789 H   0  0  0  0  0  0  0  0  0  0  0  0
   -1.1878   -4.5619    0.0420 H   0  0  0  0  0  0  0  0  0  0  0  0
   -1.7187   -4.0242    3.0815 H   0  0  0  0  0  0  0  0  0  0  0  0
   -4.0758   -2.5648    3.5504 H   0  0  0  0  0  0  0  0  0  0  0  0
   -4.6307   -0.0310    0.5676 H   0  0  0  0  0  0  0  0  0  0  0  0
   -6.5997    0.6254   -0.8520 H   0  0  0  0  0  0  0  0  0  0  0  0
   -6.2598    1.2587   -3.2545 H   0  0  0  0  0  0  0  0  0  0  0  0
   -3.9549    1.2110   -4.2452 H   0  0  0  0  0  0  0  0  0  0  0  0
   -2.0047    0.5038   -2.8442 H   0  0  0  0  0  0  0  0  0  0  0  0
   -1.2311    0.4335    2.9014 H   0  0  0  0  0  0  0  0  0  0  0  0
   -1.1725    2.5380    4.2194 H   0  0  0  0  0  0  0  0  0  0  0  0
   -1.6716    4.7358    3.1152 H   0  0  0  0  0  0  0  0  0  0  0  0
   -2.2080    4.8025    0.6629 H   0  0  0  0  0  0  0  0  0  0  0  0
   -2.2529    2.6981   -0.6646 H   0  0  0  0  0  0  0  0  0  0  0  0
    0.4041    2.0376   -2.2239 H   0  0  0  0  0  0  0  0  0  0  0  0
    0.0511    4.4761   -2.6948 H   0  0  0  0  0  0  0  0  0  0  0  0
    0.5947    6.1803   -0.9342 H   0  0  0  0  0  0  0  0  0  0  0  0
    1.4951    5.4412    1.2842 H   0  0  0  0  0  0  0  0  0  0  0  0
    1.8783    2.9996    1.7418 H   0  0  0  0  0  0  0  0  0  0  0  0
    3.0783    1.0018   -2.4992 H   0  0  0  0  0  0  0  0  0  0  0  0
    5.5210    1.0239   -3.0049 H   0  0  0  0  0  0  0  0  0  0  0  0
    7.1886    0.5432   -1.1934 H   0  0  0  0  0  0  0  0  0  0  0  0
    6.3958    0.0777    1.1407 H   0  0  0  0  0  0  0  0  0  0  0  0
    3.9575    0.1067    1.6631 H   0  0  0  0  0  0  0  0  0  0  0  0
  1  3  1  0  0  0  0
  2 21  1  0  0  0  0
  2 14  1  0  0  0  0
  3 40  1  0  0  0  0
  3 39  2  0  0  0  0
  4 43  1  0  0  0  0
  5  4  2  0  0  0  0
  5 44  1  0  0  0  0
  6 40  1  0  0  0  0
  7 45  1  0  0  0  0
  7  6  2  0  0  0  0
  8  7  1  0  0  0  0
  9  8  2  0  0  0  0
  9 10  1  0  0  0  0
 10 11  2  0  0  0  0
 11  6  1  0  0  0  0
 11 41  1  0  0  0  0
 12 13  2  0  0  0  0
 12 49  1  0  0  0  0
 13 50  1  0  0  0  0
 14 41  1  0  0  0  0
 14 42  2  0  0  0  0
 15 16  1  0  0  0  0
 15  2  1  0  0  0  0
 16 51  1  0  0  0  0
 17 52  1  0  0  0  0
 17 16  2  0  0  0  0
 18 17  1  0  0  0  0
 19 18  2  0  0  0  0
 19 20  1  0  0  0  0
 20 15  2  0  0  0  0
 21 22  1  0  0  0  0
 22 56  1  0  0  0  0
 22 23  2  0  0  0  0
 23 57  1  0  0  0  0
 24 58  1  0  0  0  0
 24 23  1  0  0  0  0
 25 24  2  0  0  0  0
 26 21  2  0  0  0  0
 26 25  1  0  0  0  0
 27  1  1  0  0  0  0
 27 32  1  0  0  0  0
 28 27  2  0  0  0  0
 29 28  1  0  0  0  0
 29 30  2  0  0  0  0
 30 31  1  0  0  0  0
 31 32  2  0  0  0  0
 31 64  1  0  0  0  0
 32 65  1  0  0  0  0
 33  1  1  0  0  0  0
 33 38  1  0  0  0  0
 34 33  2  0  0  0  0
 35 34  1  0  0  0  0
 35 36  2  0  0  0  0
 36 37  1  0  0  0  0
 37 38  2  0  0  0  0
 37 69  1  0  0  0  0
 38 70  1  0  0  0  0
 39  4  1  0  0  0  0
 40  5  1  0  0  0  0
 41 12  1  0  0  0  0
 42 13  1  0  0  0  0
 46  8  1  0  0  0  0
 47  9  1  0  0  0  0
 48 10  1  0  0  0  0
 53 18  1  0  0  0  0
 54 19  1  0  0  0  0
 55 20  1  0  0  0  0
 59 25  1  0  0  0  0
 60 26  1  0  0  0  0
 61 28  1  0  0  0  0
 62 29  1  0  0  0  0
 63 30  1  0  0  0  0
 66 34  1  0  0  0  0
 67 35  1  0  0  0  0
 68 36  1  0  0  0  0
M  END
