1,2
 OpenBabel05122313063D

 76 82  0  0  0  0  0  0  0  0999 V2000
    1.7870    0.2868    0.0945 P   0  0  0  0  0  0  0  0  0  0  0  0
   -1.8617    0.1977    0.0638 P   0  0  0  0  0  0  0  0  0  0  0  0
    1.8675   -0.6999    1.6733 C   0  0  0  0  0  0  0  0  0  0  0  0
    1.5711   -2.0871    1.6463 C   0  0  0  0  0  0  0  0  0  0  0  0
    1.9250   -2.8847    2.7520 C   0  0  0  0  0  0  0  0  0  0  0  0
    2.5171   -2.3293    3.8940 C   0  0  0  0  0  0  0  0  0  0  0  0
    2.7585   -0.9505    3.9418 C   0  0  0  0  0  0  0  0  0  0  0  0
    2.4502   -0.1478    2.8337 C   0  0  0  0  0  0  0  0  0  0  0  0
    0.8306   -2.7363    0.5226 C   0  0  0  0  0  0  0  0  0  0  0  0
   -0.5906   -2.7265    0.5605 C   0  0  0  0  0  0  0  0  0  0  0  0
   -1.3050   -3.4390   -0.4208 C   0  0  0  0  0  0  0  0  0  0  0  0
   -0.6282   -4.1124   -1.4486 C   0  0  0  0  0  0  0  0  0  0  0  0
    0.7729   -4.1069   -1.4921 C   0  0  0  0  0  0  0  0  0  0  0  0
    1.4993   -3.4358   -0.4981 C   0  0  0  0  0  0  0  0  0  0  0  0
   -1.6954   -0.6897    1.6808 C   0  0  0  0  0  0  0  0  0  0  0  0
   -1.2456   -2.0373    1.7206 C   0  0  0  0  0  0  0  0  0  0  0  0
   -1.3180   -2.7334    2.9440 C   0  0  0  0  0  0  0  0  0  0  0  0
   -1.7717   -2.1141    4.1165 C   0  0  0  0  0  0  0  0  0  0  0  0
   -2.1527   -0.7664    4.0843 C   0  0  0  0  0  0  0  0  0  0  0  0
   -2.1261   -0.0658    2.8700 C   0  0  0  0  0  0  0  0  0  0  0  0
    2.5074    1.9001    0.6112 C   0  0  0  0  0  0  0  0  0  0  0  0
    3.7314    2.3765    0.1103 C   0  0  0  0  0  0  0  0  0  0  0  0
    4.1957    3.6451    0.4912 C   0  0  0  0  0  0  0  0  0  0  0  0
    3.4436    4.4445    1.3653 C   0  0  0  0  0  0  0  0  0  0  0  0
    2.2149    3.9752    1.8586 C   0  0  0  0  0  0  0  0  0  0  0  0
    1.7445    2.7112    1.4778 C   0  0  0  0  0  0  0  0  0  0  0  0
    3.1051   -0.6138   -0.8344 C   0  0  0  0  0  0  0  0  0  0  0  0
    4.3057   -0.9514   -0.1755 C   0  0  0  0  0  0  0  0  0  0  0  0
    5.2877   -1.7008   -0.8404 C   0  0  0  0  0  0  0  0  0  0  0  0
    5.0712   -2.1289   -2.1605 C   0  0  0  0  0  0  0  0  0  0  0  0
    3.8734   -1.7992   -2.8145 C   0  0  0  0  0  0  0  0  0  0  0  0
    2.8919   -1.0431   -2.1579 C   0  0  0  0  0  0  0  0  0  0  0  0
   -2.7851    1.7302    0.5302 C   0  0  0  0  0  0  0  0  0  0  0  0
   -4.1795    1.7486    0.7241 C   0  0  0  0  0  0  0  0  0  0  0  0
   -4.8192    2.9317    1.1249 C   0  0  0  0  0  0  0  0  0  0  0  0
   -4.0753    4.1027    1.3374 C   0  0  0  0  0  0  0  0  0  0  0  0
   -2.6867    4.0921    1.1311 C   0  0  0  0  0  0  0  0  0  0  0  0
   -2.0453    2.9151    0.7215 C   0  0  0  0  0  0  0  0  0  0  0  0
   -3.1026   -0.8943   -0.7642 C   0  0  0  0  0  0  0  0  0  0  0  0
   -3.0299   -1.1628   -2.1440 C   0  0  0  0  0  0  0  0  0  0  0  0
   -3.9477   -2.0436   -2.7351 C   0  0  0  0  0  0  0  0  0  0  0  0
   -4.9463   -2.6571   -1.9625 C   0  0  0  0  0  0  0  0  0  0  0  0
   -5.0262   -2.3878   -0.5865 C   0  0  0  0  0  0  0  0  0  0  0  0
   -4.1044   -1.5165    0.0134 C   0  0  0  0  0  0  0  0  0  0  0  0
    1.7088   -3.9630    2.7087 H   0  0  0  0  0  0  0  0  0  0  0  0
    2.7808   -2.9729    4.7468 H   0  0  0  0  0  0  0  0  0  0  0  0
    3.2104   -0.4927    4.8346 H   0  0  0  0  0  0  0  0  0  0  0  0
    2.6954    0.9219    2.8655 H   0  0  0  0  0  0  0  0  0  0  0  0
   -2.4013   -3.4723   -0.3747 H   0  0  0  0  0  0  0  0  0  0  0  0
   -1.2064   -4.6504   -2.2147 H   0  0  0  0  0  0  0  0  0  0  0  0
    1.3074   -4.6354   -2.2958 H   0  0  0  0  0  0  0  0  0  0  0  0
    2.5987   -3.4460   -0.5098 H   0  0  0  0  0  0  0  0  0  0  0  0
   -0.9883   -3.7826    2.9682 H   0  0  0  0  0  0  0  0  0  0  0  0
   -1.8122   -2.6832    5.0575 H   0  0  0  0  0  0  0  0  0  0  0  0
   -2.4901   -0.2585    5.0003 H   0  0  0  0  0  0  0  0  0  0  0  0
   -2.4648    0.9794    2.8398 H   0  0  0  0  0  0  0  0  0  0  0  0
    4.3100    1.7640   -0.5951 H   0  0  0  0  0  0  0  0  0  0  0  0
    5.1509    4.0155    0.0892 H   0  0  0  0  0  0  0  0  0  0  0  0
    3.8104    5.4406    1.6561 H   0  0  0  0  0  0  0  0  0  0  0  0
    1.6137    4.5999    2.5368 H   0  0  0  0  0  0  0  0  0  0  0  0
    0.7772    2.3482    1.8589 H   0  0  0  0  0  0  0  0  0  0  0  0
    4.4711   -0.6396    0.8670 H   0  0  0  0  0  0  0  0  0  0  0  0
    6.2238   -1.9560   -0.3209 H   0  0  0  0  0  0  0  0  0  0  0  0
    5.8392   -2.7226   -2.6798 H   0  0  0  0  0  0  0  0  0  0  0  0
    3.6967   -2.1338   -3.8479 H   0  0  0  0  0  0  0  0  0  0  0  0
    1.9554   -0.7778   -2.6666 H   0  0  0  0  0  0  0  0  0  0  0  0
   -4.7768    0.8435    0.5466 H   0  0  0  0  0  0  0  0  0  0  0  0
   -5.9110    2.9377    1.2636 H   0  0  0  0  0  0  0  0  0  0  0  0
   -4.5813    5.0294    1.6484 H   0  0  0  0  0  0  0  0  0  0  0  0
   -2.0972    5.0111    1.2689 H   0  0  0  0  0  0  0  0  0  0  0  0
   -0.9659    2.9164    0.5058 H   0  0  0  0  0  0  0  0  0  0  0  0
   -2.2575   -0.6675   -2.7486 H   0  0  0  0  0  0  0  0  0  0  0  0
   -3.8771   -2.2522   -3.8134 H   0  0  0  0  0  0  0  0  0  0  0  0
   -5.6628   -3.3488   -2.4314 H   0  0  0  0  0  0  0  0  0  0  0  0
   -5.8026   -2.8673    0.0288 H   0  0  0  0  0  0  0  0  0  0  0  0
   -4.1473   -1.3497    1.0999 H   0  0  0  0  0  0  0  0  0  0  0  0
  1 21  1  0  0  0  0
  1  3  1  0  0  0  0
  2 33  1  0  0  0  0
  2 15  1  0  0  0  0
  3  8  1  0  0  0  0
  4  3  2  0  0  0  0
  4  5  1  0  0  0  0
  5  6  2  0  0  0  0
  6  7  1  0  0  0  0
  6 46  1  0  0  0  0
  7 47  1  0  0  0  0
  8 48  1  0  0  0  0
  8  7  2  0  0  0  0
  9 10  1  0  0  0  0
  9  4  1  0  0  0  0
 10 16  1  0  0  0  0
 11 49  1  0  0  0  0
 11 10  2  0  0  0  0
 12 11  1  0  0  0  0
 13 12  2  0  0  0  0
 13 14  1  0  0  0  0
 14  9  2  0  0  0  0
 15 16  2  0  0  0  0
 15 20  1  0  0  0  0
 16 17  1  0  0  0  0
 17 53  1  0  0  0  0
 17 18  2  0  0  0  0
 18 54  1  0  0  0  0
 19 18  1  0  0  0  0
 19 55  1  0  0  0  0
 20 19  2  0  0  0  0
 21 26  1  0  0  0  0
 22 23  1  0  0  0  0
 22 21  2  0  0  0  0
 23 24  2  0  0  0  0
 24 59  1  0  0  0  0
 24 25  1  0  0  0  0
 25 60  1  0  0  0  0
 26 25  2  0  0  0  0
 26 61  1  0  0  0  0
 27 28  1  0  0  0  0
 27  1  1  0  0  0  0
 28 62  1  0  0  0  0
 29 63  1  0  0  0  0
 29 28  2  0  0  0  0
 30 29  1  0  0  0  0
 31 30  2  0  0  0  0
 31 32  1  0  0  0  0
 32 27  2  0  0  0  0
 33 38  2  0  0  0  0
 33 34  1  0  0  0  0
 34 35  2  0  0  0  0
 35 68  1  0  0  0  0
 35 36  1  0  0  0  0
 36 69  1  0  0  0  0
 37 70  1  0  0  0  0
 37 36  2  0  0  0  0
 38 37  1  0  0  0  0
 39 44  1  0  0  0  0
 39  2  1  0  0  0  0
 40 39  2  0  0  0  0
 41 40  1  0  0  0  0
 41 42  2  0  0  0  0
 42 43  1  0  0  0  0
 43 44  2  0  0  0  0
 43 75  1  0  0  0  0
 44 76  1  0  0  0  0
 45  5  1  0  0  0  0
 50 12  1  0  0  0  0
 51 13  1  0  0  0  0
 52 14  1  0  0  0  0
 56 20  1  0  0  0  0
 57 22  1  0  0  0  0
 58 23  1  0  0  0  0
 64 30  1  0  0  0  0
 65 31  1  0  0  0  0
 66 32  1  0  0  0  0
 67 34  1  0  0  0  0
 71 38  1  0  0  0  0
 72 40  1  0  0  0  0
 73 41  1  0  0  0  0
 74 42  1  0  0  0  0
M  END
