1,2
 OpenBabel05122313063D

 58 61  0  0  1  0  0  0  0  0999 V2000
    1.6348    0.2404   -0.6624 P   0  0  0  0  0  0  0  0  0  0  0  0
   -1.4261   -0.0759   -0.8188 P   0  0  0  0  0  0  0  0  0  0  0  0
   -0.5249    0.4817   -2.3739 C   0  0  1  0  0  0  0  0  0  0  0  0
   -0.4214    1.5741   -2.1894 H   0  0  0  0  0  0  0  0  0  0  0  0
    0.9104   -0.0972   -2.3658 C   0  0  2  0  0  0  0  0  0  0  0  0
    1.5176    0.4633   -3.1103 H   0  0  0  0  0  0  0  0  0  0  0  0
   -1.2960    0.2767   -3.6786 C   0  0  0  0  0  0  0  0  0  0  0  0
   -0.7174    0.6716   -4.5393 H   0  0  0  0  0  0  0  0  0  0  0  0
   -2.2656    0.8124   -3.6500 H   0  0  0  0  0  0  0  0  0  0  0  0
   -1.5085   -0.7926   -3.8701 H   0  0  0  0  0  0  0  0  0  0  0  0
    1.0058   -1.5937   -2.6821 C   0  0  0  0  0  0  0  0  0  0  0  0
    0.5204   -1.8195   -3.6517 H   0  0  0  0  0  0  0  0  0  0  0  0
    0.5125   -2.2108   -1.9051 H   0  0  0  0  0  0  0  0  0  0  0  0
    2.0621   -1.9164   -2.7479 H   0  0  0  0  0  0  0  0  0  0  0  0
    4.3784   -0.0202   -1.2718 C   0  0  0  0  0  0  0  0  0  0  0  0
    4.3033    0.9831   -1.7190 H   0  0  0  0  0  0  0  0  0  0  0  0
    5.5959   -0.7144   -1.3069 C   0  0  0  0  0  0  0  0  0  0  0  0
    6.4722   -0.2566   -1.7906 H   0  0  0  0  0  0  0  0  0  0  0  0
    5.6983   -1.9860   -0.7175 C   0  0  0  0  0  0  0  0  0  0  0  0
    6.6573   -2.5259   -0.7415 H   0  0  0  0  0  0  0  0  0  0  0  0
    4.5831   -2.5609   -0.0882 C   0  0  0  0  0  0  0  0  0  0  0  0
    4.6644   -3.5492    0.3891 H   0  0  0  0  0  0  0  0  0  0  0  0
    3.3580   -1.8767   -0.0480 C   0  0  0  0  0  0  0  0  0  0  0  0
    2.4905   -2.3098    0.4798 H   0  0  0  0  0  0  0  0  0  0  0  0
    3.2561   -0.6056   -0.6489 C   0  0  0  0  0  0  0  0  0  0  0  0
    2.1053    2.8734   -1.7154 C   0  0  0  0  0  0  0  0  0  0  0  0
    1.9478    2.4729   -2.7286 H   0  0  0  0  0  0  0  0  0  0  0  0
    2.3900    4.2393   -1.5532 C   0  0  0  0  0  0  0  0  0  0  0  0
    2.4467    4.8934   -2.4366 H   0  0  0  0  0  0  0  0  0  0  0  0
    2.6031    4.7665   -0.2706 C   0  0  0  0  0  0  0  0  0  0  0  0
    2.8243    5.8374   -0.1463 H   0  0  0  0  0  0  0  0  0  0  0  0
    2.5294    3.9274    0.8545 C   0  0  0  0  0  0  0  0  0  0  0  0
    2.6918    4.3386    1.8621 H   0  0  0  0  0  0  0  0  0  0  0  0
    2.2357    2.5659    0.7025 C   0  0  0  0  0  0  0  0  0  0  0  0
    2.1590    1.9040    1.5814 H   0  0  0  0  0  0  0  0  0  0  0  0
    2.0252    2.0307   -0.5889 C   0  0  0  0  0  0  0  0  0  0  0  0
   -3.8444    0.6895    0.3047 C   0  0  0  0  0  0  0  0  0  0  0  0
   -3.8334   -0.3137    0.7539 H   0  0  0  0  0  0  0  0  0  0  0  0
   -4.8522    1.5973    0.6553 C   0  0  0  0  0  0  0  0  0  0  0  0
   -5.6274    1.2840    1.3694 H   0  0  0  0  0  0  0  0  0  0  0  0
   -4.8514    2.8966    0.1244 C   0  0  0  0  0  0  0  0  0  0  0  0
   -5.6444    3.6072    0.4028 H   0  0  0  0  0  0  0  0  0  0  0  0
   -3.8287    3.2948   -0.7516 C   0  0  0  0  0  0  0  0  0  0  0  0
   -3.8202    4.3142   -1.1664 H   0  0  0  0  0  0  0  0  0  0  0  0
   -2.8030    2.4006   -1.0907 C   0  0  0  0  0  0  0  0  0  0  0  0
   -1.9944    2.7413   -1.7542 H   0  0  0  0  0  0  0  0  0  0  0  0
   -2.8097    1.0883   -0.5709 C   0  0  0  0  0  0  0  0  0  0  0  0
   -1.6754   -2.8265   -0.4138 C   0  0  0  0  0  0  0  0  0  0  0  0
   -0.8330   -2.6969    0.2877 H   0  0  0  0  0  0  0  0  0  0  0  0
   -2.2473   -4.0920   -0.6110 C   0  0  0  0  0  0  0  0  0  0  0  0
   -1.8409   -4.9586   -0.0685 H   0  0  0  0  0  0  0  0  0  0  0  0
   -3.3403   -4.2472   -1.4782 C   0  0  0  0  0  0  0  0  0  0  0  0
   -3.7892   -5.2414   -1.6257 H   0  0  0  0  0  0  0  0  0  0  0  0
   -3.8759   -3.1320   -2.1440 C   0  0  0  0  0  0  0  0  0  0  0  0
   -4.7443   -3.2498   -2.8098 H   0  0  0  0  0  0  0  0  0  0  0  0
   -3.3137   -1.8620   -1.9510 C   0  0  0  0  0  0  0  0  0  0  0  0
   -3.7548   -0.9848   -2.4477 H   0  0  0  0  0  0  0  0  0  0  0  0
   -2.2009   -1.7093   -1.0976 C   0  0  0  0  0  0  0  0  0  0  0  0
  1 25  1  0  0  0  0
  1 36  1  0  0  0  0
  2 47  1  0  0  0  0
  3  5  1  0  0  0  0
  3  4  1  1  0  0  0
  3  2  1  0  0  0  0
  5  6  1  6  0  0  0
  5  1  1  0  0  0  0
  7  9  1  0  0  0  0
  7  3  1  0  0  0  0
  8  7  1  0  0  0  0
 10  7  1  0  0  0  0
 11  5  1  0  0  0  0
 11 13  1  0  0  0  0
 12 11  1  0  0  0  0
 14 11  1  0  0  0  0
 15 25  1  0  0  0  0
 16 15  1  0  0  0  0
 17 15  2  0  0  0  0
 17 19  1  0  0  0  0
 18 17  1  0  0  0  0
 19 21  2  0  0  0  0
 20 19  1  0  0  0  0
 21 23  1  0  0  0  0
 21 22  1  0  0  0  0
 23 24  1  0  0  0  0
 25 23  2  0  0  0  0
 26 28  2  0  0  0  0
 26 36  1  0  0  0  0
 27 26  1  0  0  0  0
 28 30  1  0  0  0  0
 29 28  1  0  0  0  0
 30 31  1  0  0  0  0
 30 32  2  0  0  0  0
 32 33  1  0  0  0  0
 34 32  1  0  0  0  0
 34 35  1  0  0  0  0
 36 34  2  0  0  0  0
 37 39  1  0  0  0  0
 37 38  1  0  0  0  0
 39 40  1  0  0  0  0
 41 42  1  0  0  0  0
 41 39  2  0  0  0  0
 43 41  1  0  0  0  0
 44 43  1  0  0  0  0
 45 43  2  0  0  0  0
 45 47  1  0  0  0  0
 46 45  1  0  0  0  0
 47 37  2  0  0  0  0
 48 49  1  0  0  0  0
 50 48  1  0  0  0  0
 50 51  1  0  0  0  0
 52 50  2  0  0  0  0
 53 52  1  0  0  0  0
 54 56  2  0  0  0  0
 54 52  1  0  0  0  0
 55 54  1  0  0  0  0
 56 58  1  0  0  0  0
 57 56  1  0  0  0  0
 58  2  1  0  0  0  0
 58 48  2  0  0  0  0
M  END
