1,2
 OpenBabel05122313063D

 80 87  0  0  1  0  0  0  0  0999 V2000
   -0.8807    1.7518   -0.0276 P   0  0  0  0  0  0  0  0  0  0  0  0
   -0.8823   -1.7511   -0.0271 P   0  0  0  0  0  0  0  0  0  0  0  0
    0.6650    1.4720    0.9734 C   0  0  0  0  0  0  0  0  0  0  0  0
    0.9869    2.4866    1.2860 H   0  0  0  0  0  0  0  0  0  0  0  0
    0.4146    0.9419    1.9107 H   0  0  0  0  0  0  0  0  0  0  0  0
    1.7928    0.7869    0.1894 C   0  0  1  0  0  0  0  0  0  0  0  0
    1.7371    1.1266   -0.8641 H   0  0  0  0  0  0  0  0  0  0  0  0
    3.1860    1.2925    0.7304 C   0  0  1  0  0  0  0  0  0  0  0  0
    3.2096    2.3993    0.7306 H   0  0  0  0  0  0  0  0  0  0  0  0
    3.3429    0.7066    2.1179 C   0  0  0  0  0  0  0  0  0  0  0  0
    3.4254    1.4114    3.3250 C   0  0  0  0  0  0  0  0  0  0  0  0
    3.4223    2.5129    3.3221 H   0  0  0  0  0  0  0  0  0  0  0  0
    3.5156    0.7021    4.5370 C   0  0  0  0  0  0  0  0  0  0  0  0
    3.5886    1.2512    5.4880 H   0  0  0  0  0  0  0  0  0  0  0  0
    3.5150   -0.7019    4.5376 C   0  0  0  0  0  0  0  0  0  0  0  0
    3.5876   -1.2502    5.4891 H   0  0  0  0  0  0  0  0  0  0  0  0
    3.4242   -1.4121    3.3262 C   0  0  0  0  0  0  0  0  0  0  0  0
    3.4203   -2.5137    3.3242 H   0  0  0  0  0  0  0  0  0  0  0  0
    3.3424   -0.7083    2.1185 C   0  0  0  0  0  0  0  0  0  0  0  0
    3.1851   -1.2952    0.7315 C   0  0  2  0  0  0  0  0  0  0  0  0
    3.2079   -2.4020    0.7326 H   0  0  0  0  0  0  0  0  0  0  0  0
    4.2487   -0.7079   -0.1691 C   0  0  0  0  0  0  0  0  0  0  0  0
    5.1459   -1.4152   -0.9785 C   0  0  0  0  0  0  0  0  0  0  0  0
    5.1381   -2.5166   -0.9814 H   0  0  0  0  0  0  0  0  0  0  0  0
    6.0536   -0.7056   -1.7854 C   0  0  0  0  0  0  0  0  0  0  0  0
    6.7662   -1.2544   -2.4196 H   0  0  0  0  0  0  0  0  0  0  0  0
    6.0540    0.6988   -1.7860 C   0  0  0  0  0  0  0  0  0  0  0  0
    6.7670    1.2466   -2.4207 H   0  0  0  0  0  0  0  0  0  0  0  0
    5.1468    1.4097   -0.9797 C   0  0  0  0  0  0  0  0  0  0  0  0
    5.1397    2.5110   -0.9837 H   0  0  0  0  0  0  0  0  0  0  0  0
    4.2492    0.7037   -0.1697 C   0  0  0  0  0  0  0  0  0  0  0  0
    1.7923   -0.7891    0.1898 C   0  0  1  0  0  0  0  0  0  0  0  0
    1.7368   -1.1293   -0.8636 H   0  0  0  0  0  0  0  0  0  0  0  0
    0.6638   -1.4731    0.9737 C   0  0  0  0  0  0  0  0  0  0  0  0
    0.4142   -0.9429    1.9112 H   0  0  0  0  0  0  0  0  0  0  0  0
    0.9846   -2.4882    1.2860 H   0  0  0  0  0  0  0  0  0  0  0  0
   -1.9099   -2.7445    1.1212 C   0  0  0  0  0  0  0  0  0  0  0  0
   -2.0423   -2.3369    2.4647 C   0  0  0  0  0  0  0  0  0  0  0  0
   -1.5076   -1.4485    2.8343 H   0  0  0  0  0  0  0  0  0  0  0  0
   -2.8710   -3.0509    3.3421 C   0  0  0  0  0  0  0  0  0  0  0  0
   -2.9679   -2.7240    4.3884 H   0  0  0  0  0  0  0  0  0  0  0  0
   -3.5787   -4.1727    2.8831 C   0  0  0  0  0  0  0  0  0  0  0  0
   -4.2309   -4.7321    3.5708 H   0  0  0  0  0  0  0  0  0  0  0  0
   -3.4617   -4.5718    1.5421 C   0  0  0  0  0  0  0  0  0  0  0  0
   -4.0267   -5.4414    1.1737 H   0  0  0  0  0  0  0  0  0  0  0  0
   -2.6381   -3.8600    0.6587 C   0  0  0  0  0  0  0  0  0  0  0  0
   -2.5722   -4.1505   -0.3988 H   0  0  0  0  0  0  0  0  0  0  0  0
   -0.2203   -2.9147   -1.2869 C   0  0  0  0  0  0  0  0  0  0  0  0
   -0.1568   -2.5257   -2.6387 C   0  0  0  0  0  0  0  0  0  0  0  0
   -0.6085   -1.5705   -2.9449 H   0  0  0  0  0  0  0  0  0  0  0  0
    0.4521   -3.3665   -3.5820 C   0  0  0  0  0  0  0  0  0  0  0  0
    0.4971   -3.0570   -4.6369 H   0  0  0  0  0  0  0  0  0  0  0  0
    0.9889   -4.6016   -3.1858 C   0  0  0  0  0  0  0  0  0  0  0  0
    1.4593   -5.2625   -3.9297 H   0  0  0  0  0  0  0  0  0  0  0  0
    0.9183   -4.9975   -1.8403 C   0  0  0  0  0  0  0  0  0  0  0  0
    1.3284   -5.9696   -1.5269 H   0  0  0  0  0  0  0  0  0  0  0  0
    0.3202   -4.1556   -0.8910 C   0  0  0  0  0  0  0  0  0  0  0  0
    0.2605   -4.4757    0.1613 H   0  0  0  0  0  0  0  0  0  0  0  0
   -1.9072    2.7466    1.1203 C   0  0  0  0  0  0  0  0  0  0  0  0
   -2.6337    3.8632    0.6576 C   0  0  0  0  0  0  0  0  0  0  0  0
   -2.5670    4.1537   -0.3999 H   0  0  0  0  0  0  0  0  0  0  0  0
   -3.4566    4.5761    1.5407 C   0  0  0  0  0  0  0  0  0  0  0  0
   -4.0202    5.4465    1.1722 H   0  0  0  0  0  0  0  0  0  0  0  0
   -3.5746    4.1772    2.8817 C   0  0  0  0  0  0  0  0  0  0  0  0
   -4.2262    4.7374    3.5691 H   0  0  0  0  0  0  0  0  0  0  0  0
   -2.8686    3.0543    3.3409 C   0  0  0  0  0  0  0  0  0  0  0  0
   -2.9663    2.7276    4.3872 H   0  0  0  0  0  0  0  0  0  0  0  0
   -2.0406    2.3391    2.4637 C   0  0  0  0  0  0  0  0  0  0  0  0
   -1.5074    1.4499    2.8335 H   0  0  0  0  0  0  0  0  0  0  0  0
   -0.2172    2.9142   -1.2876 C   0  0  0  0  0  0  0  0  0  0  0  0
   -0.1550    2.5255   -2.6396 C   0  0  0  0  0  0  0  0  0  0  0  0
   -0.6085    1.5712   -2.9458 H   0  0  0  0  0  0  0  0  0  0  0  0
    0.4549    3.3656   -3.5829 C   0  0  0  0  0  0  0  0  0  0  0  0
    0.4989    3.0562   -4.6379 H   0  0  0  0  0  0  0  0  0  0  0  0
    0.9940    4.5996   -3.1867 C   0  0  0  0  0  0  0  0  0  0  0  0
    1.4652    5.2599   -3.9306 H   0  0  0  0  0  0  0  0  0  0  0  0
    0.9246    4.9953   -1.8410 C   0  0  0  0  0  0  0  0  0  0  0  0
    1.3366    5.9667   -1.5275 H   0  0  0  0  0  0  0  0  0  0  0  0
    0.3256    4.1541   -0.8916 C   0  0  0  0  0  0  0  0  0  0  0  0
    0.2669    4.4742    0.1607 H   0  0  0  0  0  0  0  0  0  0  0  0
  1  3  1  0  0  0  0
  1 59  1  0  0  0  0
  2 34  1  0  0  0  0
  2 37  1  0  0  0  0
  3  4  1  0  0  0  0
  3  5  1  0  0  0  0
  6  7  1  6  0  0  0
  6 32  1  0  0  0  0
  6  8  1  0  0  0  0
  6  3  1  0  0  0  0
  8  9  1  1  0  0  0
  8 10  1  0  0  0  0
 10 19  2  0  0  0  0
 10 11  1  0  0  0  0
 11 13  2  0  0  0  0
 12 11  1  0  0  0  0
 13 15  1  0  0  0  0
 13 14  1  0  0  0  0
 15 16  1  0  0  0  0
 17 15  2  0  0  0  0
 18 17  1  0  0  0  0
 19 17  1  0  0  0  0
 20 21  1  1  0  0  0
 20 19  1  0  0  0  0
 22 20  1  0  0  0  0
 23 22  2  0  0  0  0
 24 23  1  0  0  0  0
 25 23  1  0  0  0  0
 26 25  1  0  0  0  0
 27 25  2  0  0  0  0
 27 29  1  0  0  0  0
 28 27  1  0  0  0  0
 29 31  2  0  0  0  0
 30 29  1  0  0  0  0
 31 22  1  0  0  0  0
 31  8  1  0  0  0  0
 32 33  1  6  0  0  0
 32 20  1  0  0  0  0
 32 34  1  0  0  0  0
 34 36  1  0  0  0  0
 34 35  1  0  0  0  0
 37 38  1  0  0  0  0
 38 39  1  0  0  0  0
 38 40  2  0  0  0  0
 40 41  1  0  0  0  0
 42 40  1  0  0  0  0
 42 43  1  0  0  0  0
 44 42  2  0  0  0  0
 45 44  1  0  0  0  0
 46 37  2  0  0  0  0
 46 44  1  0  0  0  0
 47 46  1  0  0  0  0
 48 57  1  0  0  0  0
 48  2  1  0  0  0  0
 49 48  2  0  0  0  0
 50 49  1  0  0  0  0
 51 53  2  0  0  0  0
 51 49  1  0  0  0  0
 52 51  1  0  0  0  0
 53 55  1  0  0  0  0
 54 53  1  0  0  0  0
 55 56  1  0  0  0  0
 55 57  2  0  0  0  0
 57 58  1  0  0  0  0
 59 68  1  0  0  0  0
 60 59  2  0  0  0  0
 60 62  1  0  0  0  0
 61 60  1  0  0  0  0
 62 64  2  0  0  0  0
 63 62  1  0  0  0  0
 64 66  1  0  0  0  0
 64 65  1  0  0  0  0
 66 67  1  0  0  0  0
 68 69  1  0  0  0  0
 68 66  2  0  0  0  0
 70 79  1  0  0  0  0
 70  1  1  0  0  0  0
 71 70  2  0  0  0  0
 72 71  1  0  0  0  0
 73 75  2  0  0  0  0
 73 71  1  0  0  0  0
 74 73  1  0  0  0  0
 75 77  1  0  0  0  0
 76 75  1  0  0  0  0
 77 78  1  0  0  0  0
 77 79  2  0  0  0  0
 79 80  1  0  0  0  0
M  END
