1,2
 OpenBabel05122313063D

 71 76  0  0  1  0  0  0  0  0999 V2000
   -1.5783   -0.1615   -0.0224 P   0  0  0  0  0  0  0  0  0  0  0  0
    1.7831   -0.2286    0.0187 P   0  0  0  0  0  0  0  0  0  0  0  0
    0.5367    1.3976    3.0413 F   0  0  0  0  0  0  0  0  0  0  0  0
    3.5363    0.1345   -0.3868 C   0  0  0  0  0  0  0  0  0  0  0  0
   -1.1320    0.5907    1.4724 N   0  0  0  0  0  0  0  0  0  0  0  0
    1.2122    1.5094    0.7001 N   0  3  2  0  0  0  0  0  0  0  0  0
    0.7972    1.8009   -0.2061 H   0  0  0  0  0  0  0  0  0  0  0  0
    4.6128   -0.4174    0.3414 C   0  0  0  0  0  0  0  0  0  0  0  0
    4.4233   -1.0582    1.2133 H   0  0  0  0  0  0  0  0  0  0  0  0
   -2.2478   -1.7887    0.5069 C   0  0  0  0  0  0  0  0  0  0  0  0
   -3.0838    0.7904   -0.5296 C   0  0  0  0  0  0  0  0  0  0  0  0
   -3.0549   -2.5205   -0.3914 C   0  0  0  0  0  0  0  0  0  0  0  0
   -3.3525   -2.0791   -1.3556 H   0  0  0  0  0  0  0  0  0  0  0  0
    3.8078    0.9210   -1.5322 C   0  0  0  0  0  0  0  0  0  0  0  0
    2.9803    1.3267   -2.1323 H   0  0  0  0  0  0  0  0  0  0  0  0
   -0.5781    3.0787    1.7199 N   0  3  1  0  0  0  0  0  0  0  0  0
   -1.0177    3.2051    0.7901 H   0  0  0  0  0  0  0  0  0  0  0  0
   -4.3855    0.4484   -0.1099 C   0  0  0  0  0  0  0  0  0  0  0  0
   -4.5586   -0.4816    0.4516 H   0  0  0  0  0  0  0  0  0  0  0  0
   -3.4667   -3.8199   -0.0670 C   0  0  0  0  0  0  0  0  0  0  0  0
   -4.0943   -4.3842   -0.7726 H   0  0  0  0  0  0  0  0  0  0  0  0
    5.9340   -0.1704   -0.0618 C   0  0  0  0  0  0  0  0  0  0  0  0
    6.7652   -0.6158    0.5049 H   0  0  0  0  0  0  0  0  0  0  0  0
    1.8662   -1.2457    1.5322 C   0  0  0  0  0  0  0  0  0  0  0  0
    2.5338   -1.6575    3.8399 C   0  0  0  0  0  0  0  0  0  0  0  0
    2.9808   -1.2977    4.7785 H   0  0  0  0  0  0  0  0  0  0  0  0
    5.1291    1.1780   -1.9172 C   0  0  0  0  0  0  0  0  0  0  0  0
    5.3266    1.7931   -2.8075 H   0  0  0  0  0  0  0  0  0  0  0  0
    2.4523   -0.7979    2.7379 C   0  0  0  0  0  0  0  0  0  0  0  0
    2.8458    0.2233    2.8255 H   0  0  0  0  0  0  0  0  0  0  0  0
    6.1953    0.6312   -1.1830 C   0  0  0  0  0  0  0  0  0  0  0  0
    7.2331    0.8204   -1.4957 H   0  0  0  0  0  0  0  0  0  0  0  0
   -1.8515   -2.3772    1.7230 C   0  0  0  0  0  0  0  0  0  0  0  0
   -1.2034   -1.8196    2.4139 H   0  0  0  0  0  0  0  0  0  0  0  0
    2.2457    2.5281    1.0647 C   0  0  0  0  0  0  0  0  0  0  0  0
    2.5864    2.3170    2.0959 H   0  0  0  0  0  0  0  0  0  0  0  0
    3.1120    2.4223    0.3864 H   0  0  0  0  0  0  0  0  0  0  0  0
    2.0536   -2.9756    3.7463 C   0  0  0  0  0  0  0  0  0  0  0  0
    2.1275   -3.6495    4.6129 H   0  0  0  0  0  0  0  0  0  0  0  0
   -2.2666   -3.6801    2.0415 C   0  0  0  0  0  0  0  0  0  0  0  0
   -1.9521   -4.1325    2.9942 H   0  0  0  0  0  0  0  0  0  0  0  0
   -5.2665    2.4798   -1.1252 C   0  0  0  0  0  0  0  0  0  0  0  0
   -6.1189    3.1342   -1.3610 H   0  0  0  0  0  0  0  0  0  0  0  0
   -3.0745   -4.4022    1.1504 C   0  0  0  0  0  0  0  0  0  0  0  0
   -3.3978   -5.4234    1.4013 H   0  0  0  0  0  0  0  0  0  0  0  0
    1.4850   -3.4301    2.5481 C   0  0  0  0  0  0  0  0  0  0  0  0
    1.1069   -4.4596    2.4649 H   0  0  0  0  0  0  0  0  0  0  0  0
   -5.4692    1.2902   -0.4084 C   0  0  0  0  0  0  0  0  0  0  0  0
   -6.4814    1.0108   -0.0793 H   0  0  0  0  0  0  0  0  0  0  0  0
   -2.8918    1.9793   -1.2666 C   0  0  0  0  0  0  0  0  0  0  0  0
   -1.8882    2.2359   -1.6383 H   0  0  0  0  0  0  0  0  0  0  0  0
    1.3834   -2.5671    1.4466 C   0  0  0  0  0  0  0  0  0  0  0  0
    0.9216   -2.9240    0.5175 H   0  0  0  0  0  0  0  0  0  0  0  0
   -3.9744    2.8220   -1.5580 C   0  0  0  0  0  0  0  0  0  0  0  0
   -3.8123    3.7397   -2.1433 H   0  0  0  0  0  0  0  0  0  0  0  0
    1.6367    3.9237    0.9536 C   0  0  0  0  0  0  0  0  0  0  0  0
    1.3172    4.1063   -0.0976 H   0  0  0  0  0  0  0  0  0  0  0  0
    2.4145    4.6823    1.1723 H   0  0  0  0  0  0  0  0  0  0  0  0
   -2.7577    2.1663    2.5309 C   0  0  0  0  0  0  0  0  0  0  0  0
   -3.4949    2.2633    3.3540 H   0  0  0  0  0  0  0  0  0  0  0  0
   -3.3060    2.3751    1.5889 H   0  0  0  0  0  0  0  0  0  0  0  0
   -1.6703    3.2096    2.7455 C   0  0  0  0  0  0  0  0  0  0  0  0
   -2.0715    4.2428    2.6957 H   0  0  0  0  0  0  0  0  0  0  0  0
   -1.1794    3.0796    3.7301 H   0  0  0  0  0  0  0  0  0  0  0  0
    0.4725    4.1228    1.9142 C   0  0  0  0  0  0  0  0  0  0  0  0
    0.8160    4.0243    2.9627 H   0  0  0  0  0  0  0  0  0  0  0  0
    0.0113    5.1254    1.8021 H   0  0  0  0  0  0  0  0  0  0  0  0
   -2.1903    0.7431    2.5004 C   0  0  0  0  0  0  0  0  0  0  0  0
   -3.0035    0.0169    2.3128 H   0  0  0  0  0  0  0  0  0  0  0  0
   -1.7601    0.4828    3.4909 H   0  0  0  0  0  0  0  0  0  0  0  0
    0.0126    1.5013    1.7508 B   0  0  2  0  0  0  0  0  0  0  0  0
  1 10  1  0  0  0  0
  1  5  1  0  0  0  0
  2  6  1  0  0  0  0
  2 24  1  0  0  0  0
  4  2  1  0  0  0  0
  4  8  1  0  0  0  0
  5 71  1  0  0  0  0
  5 68  1  0  0  0  0
  6  7  1  6  0  0  0
  6 35  1  0  0  0  0
  6 71  1  0  0  0  0
  8  9  1  0  0  0  0
 10 33  1  0  0  0  0
 11 18  1  0  0  0  0
 11  1  1  0  0  0  0
 12 20  1  0  0  0  0
 12 10  2  0  0  0  0
 13 12  1  0  0  0  0
 14  4  2  0  0  0  0
 15 14  1  0  0  0  0
 16 17  1  6  0  0  0
 16 71  1  0  0  0  0
 16 65  1  0  0  0  0
 16 62  1  0  0  0  0
 18 19  1  0  0  0  0
 20 44  2  0  0  0  0
 21 20  1  0  0  0  0
 22  8  2  0  0  0  0
 22 23  1  0  0  0  0
 24 29  1  0  0  0  0
 25 26  1  0  0  0  0
 27 14  1  0  0  0  0
 27 31  2  0  0  0  0
 28 27  1  0  0  0  0
 29 30  1  0  0  0  0
 29 25  2  0  0  0  0
 31 22  1  0  0  0  0
 32 31  1  0  0  0  0
 33 40  2  0  0  0  0
 33 34  1  0  0  0  0
 35 36  1  0  0  0  0
 37 35  1  0  0  0  0
 38 25  1  0  0  0  0
 38 39  1  0  0  0  0
 40 41  1  0  0  0  0
 42 48  1  0  0  0  0
 43 42  1  0  0  0  0
 44 45  1  0  0  0  0
 44 40  1  0  0  0  0
 46 38  2  0  0  0  0
 47 46  1  0  0  0  0
 48 18  2  0  0  0  0
 48 49  1  0  0  0  0
 50 11  2  0  0  0  0
 51 50  1  0  0  0  0
 52 24  2  0  0  0  0
 52 46  1  0  0  0  0
 53 52  1  0  0  0  0
 54 50  1  0  0  0  0
 54 42  2  0  0  0  0
 55 54  1  0  0  0  0
 56 35  1  0  0  0  0
 56 58  1  0  0  0  0
 56 65  1  0  0  0  0
 57 56  1  0  0  0  0
 59 62  1  0  0  0  0
 59 60  1  0  0  0  0
 61 59  1  0  0  0  0
 62 64  1  0  0  0  0
 63 62  1  0  0  0  0
 65 66  1  0  0  0  0
 67 65  1  0  0  0  0
 68 59  1  0  0  0  0
 68 70  1  0  0  0  0
 69 68  1  0  0  0  0
 71  3  1  1  0  0  0
M  CHG  2   6   1  16   1
M  END
