1,2
 OpenBabel05122313063D

 68 73  0  0  0  0  0  0  0  0999 V2000
   -1.5608    0.0730   -0.0044 P   0  0  0  0  0  0  0  0  0  0  0  0
    1.6834   -0.0422    0.0483 P   0  0  0  0  0  0  0  0  0  0  0  0
   -1.0819   -0.8162    1.4076 N   0  0  0  0  0  0  0  0  0  0  0  0
   -0.1850   -3.0005    2.2032 N   0  0  0  0  0  0  0  0  0  0  0  0
    1.3148   -1.5647    0.8278 N   0  0  0  0  0  0  0  0  0  0  0  0
    1.6487    0.7297    2.8005 C   0  0  0  0  0  0  0  0  0  0  0  0
    1.5633   -0.3443    3.0226 H   0  0  0  0  0  0  0  0  0  0  0  0
   -1.5830    2.1737    1.9040 C   0  0  0  0  0  0  0  0  0  0  0  0
   -0.9342    1.5282    2.5126 H   0  0  0  0  0  0  0  0  0  0  0  0
    1.6586    1.6722    3.8411 C   0  0  0  0  0  0  0  0  0  0  0  0
    1.5832    1.3328    4.8857 H   0  0  0  0  0  0  0  0  0  0  0  0
   -3.1706   -0.7260   -0.4680 C   0  0  0  0  0  0  0  0  0  0  0  0
    1.7342    1.1524    1.4606 C   0  0  0  0  0  0  0  0  0  0  0  0
   -4.4184   -0.3117    0.0417 C   0  0  0  0  0  0  0  0  0  0  0  0
   -4.4816    0.5752    0.6899 H   0  0  0  0  0  0  0  0  0  0  0  0
    2.2549   -3.3983    2.1662 C   0  0  0  0  0  0  0  0  0  0  0  0
    2.5521   -2.6785    2.9591 H   0  0  0  0  0  0  0  0  0  0  0  0
    3.0024   -4.2176    2.1706 H   0  0  0  0  0  0  0  0  0  0  0  0
   -2.0869    1.6995    0.6787 C   0  0  0  0  0  0  0  0  0  0  0  0
   -2.1081   -1.0197    2.4476 C   0  0  0  0  0  0  0  0  0  0  0  0
   -2.9456   -0.3133    2.2929 H   0  0  0  0  0  0  0  0  0  0  0  0
   -1.6716   -0.7704    3.4417 H   0  0  0  0  0  0  0  0  0  0  0  0
    1.7636    3.0423    3.5512 C   0  0  0  0  0  0  0  0  0  0  0  0
    1.7670    3.7810    4.3673 H   0  0  0  0  0  0  0  0  0  0  0  0
   -5.5876   -1.0190   -0.2804 C   0  0  0  0  0  0  0  0  0  0  0  0
   -6.5554   -0.6828    0.1222 H   0  0  0  0  0  0  0  0  0  0  0  0
    3.4819   -0.2048   -0.3545 C   0  0  0  0  0  0  0  0  0  0  0  0
    4.4897    0.2534    0.5191 C   0  0  0  0  0  0  0  0  0  0  0  0
    4.2159    0.7179    1.4777 H   0  0  0  0  0  0  0  0  0  0  0  0
    2.2707   -2.6810    0.8209 C   0  0  0  0  0  0  0  0  0  0  0  0
    3.2881   -2.3031    0.6134 H   0  0  0  0  0  0  0  0  0  0  0  0
    2.0235   -3.3958    0.0016 H   0  0  0  0  0  0  0  0  0  0  0  0
    1.8443    2.5273    1.1752 C   0  0  0  0  0  0  0  0  0  0  0  0
    1.9094    2.8673    0.1317 H   0  0  0  0  0  0  0  0  0  0  0  0
    5.8421    0.1206    0.1677 C   0  0  0  0  0  0  0  0  0  0  0  0
    6.6211    0.4883    0.8530 H   0  0  0  0  0  0  0  0  0  0  0  0
   -1.4559   -3.4019    2.7924 C   0  0  0  0  0  0  0  0  0  0  0  0
   -1.3392   -3.4418    3.9041 H   0  0  0  0  0  0  0  0  0  0  0  0
   -1.7006   -4.4446    2.4800 H   0  0  0  0  0  0  0  0  0  0  0  0
   -5.5244   -2.1470   -1.1126 C   0  0  0  0  0  0  0  0  0  0  0  0
   -6.4425   -2.6985   -1.3665 H   0  0  0  0  0  0  0  0  0  0  0  0
    0.8735   -3.9664    2.4611 C   0  0  0  0  0  0  0  0  0  0  0  0
    0.7031   -4.8862    1.8492 H   0  0  0  0  0  0  0  0  0  0  0  0
    0.8177   -4.2972    3.5249 H   0  0  0  0  0  0  0  0  0  0  0  0
   -2.6026   -2.4634    2.4327 C   0  0  0  0  0  0  0  0  0  0  0  0
   -2.9985   -2.6886    1.4214 H   0  0  0  0  0  0  0  0  0  0  0  0
   -3.4366   -2.6049    3.1501 H   0  0  0  0  0  0  0  0  0  0  0  0
    6.2005   -0.4747   -1.0518 C   0  0  0  0  0  0  0  0  0  0  0  0
    7.2616   -0.5741   -1.3265 H   0  0  0  0  0  0  0  0  0  0  0  0
    1.8633    3.4666    2.2160 C   0  0  0  0  0  0  0  0  0  0  0  0
    1.9425    4.5383    1.9796 H   0  0  0  0  0  0  0  0  0  0  0  0
    3.8495   -0.7960   -1.5813 C   0  0  0  0  0  0  0  0  0  0  0  0
    3.0678   -1.1491   -2.2690 H   0  0  0  0  0  0  0  0  0  0  0  0
   -1.8827    3.4762    2.3334 C   0  0  0  0  0  0  0  0  0  0  0  0
   -1.4725    3.8370    3.2888 H   0  0  0  0  0  0  0  0  0  0  0  0
   -3.1845    3.8471    0.3171 C   0  0  0  0  0  0  0  0  0  0  0  0
   -3.8045    4.5028   -0.3128 H   0  0  0  0  0  0  0  0  0  0  0  0
   -2.8845    2.5497   -0.1178 C   0  0  0  0  0  0  0  0  0  0  0  0
   -3.2564    2.1987   -1.0934 H   0  0  0  0  0  0  0  0  0  0  0  0
   -3.1184   -1.8556   -1.3114 C   0  0  0  0  0  0  0  0  0  0  0  0
   -2.1520   -2.1799   -1.7234 H   0  0  0  0  0  0  0  0  0  0  0  0
    5.2010   -0.9366   -1.9238 C   0  0  0  0  0  0  0  0  0  0  0  0
    5.4734   -1.3998   -2.8841 H   0  0  0  0  0  0  0  0  0  0  0  0
   -4.2859   -2.5634   -1.6282 C   0  0  0  0  0  0  0  0  0  0  0  0
   -4.2283   -3.4407   -2.2901 H   0  0  0  0  0  0  0  0  0  0  0  0
   -2.6857    4.3136    1.5454 C   0  0  0  0  0  0  0  0  0  0  0  0
   -2.9170    5.3357    1.8817 H   0  0  0  0  0  0  0  0  0  0  0  0
    0.0128   -1.7994    1.4381 B   0  0  0  0  0  0  0  0  0  0  0  0
  1 19  1  0  0  0  0
  1  3  1  0  0  0  0
  2  5  1  0  0  0  0
  2 13  1  0  0  0  0
  3 68  1  0  0  0  0
  3 20  1  0  0  0  0
  4 42  1  0  0  0  0
  4 37  1  0  0  0  0
  5 68  1  0  0  0  0
  6  7  1  0  0  0  0
  6 10  1  0  0  0  0
  8 54  1  0  0  0  0
  8  9  1  0  0  0  0
 10 11  1  0  0  0  0
 12  1  1  0  0  0  0
 12 14  1  0  0  0  0
 13  6  2  0  0  0  0
 14 15  1  0  0  0  0
 16 18  1  0  0  0  0
 16 42  1  0  0  0  0
 16 17  1  0  0  0  0
 19  8  2  0  0  0  0
 20 22  1  0  0  0  0
 21 20  1  0  0  0  0
 23 10  2  0  0  0  0
 23 24  1  0  0  0  0
 25 14  2  0  0  0  0
 25 26  1  0  0  0  0
 27  2  1  0  0  0  0
 27 28  1  0  0  0  0
 28 29  1  0  0  0  0
 30  5  1  0  0  0  0
 30 16  1  0  0  0  0
 31 30  1  0  0  0  0
 32 30  1  0  0  0  0
 33 13  1  0  0  0  0
 33 50  2  0  0  0  0
 34 33  1  0  0  0  0
 35 28  2  0  0  0  0
 35 36  1  0  0  0  0
 37 38  1  0  0  0  0
 39 37  1  0  0  0  0
 40 25  1  0  0  0  0
 41 40  1  0  0  0  0
 42 44  1  0  0  0  0
 43 42  1  0  0  0  0
 45 20  1  0  0  0  0
 45 37  1  0  0  0  0
 45 47  1  0  0  0  0
 46 45  1  0  0  0  0
 48 35  1  0  0  0  0
 49 48  1  0  0  0  0
 50 23  1  0  0  0  0
 51 50  1  0  0  0  0
 52 27  2  0  0  0  0
 53 52  1  0  0  0  0
 54 55  1  0  0  0  0
 56 66  1  0  0  0  0
 57 56  1  0  0  0  0
 58 56  2  0  0  0  0
 58 19  1  0  0  0  0
 59 58  1  0  0  0  0
 60 12  2  0  0  0  0
 61 60  1  0  0  0  0
 62 52  1  0  0  0  0
 62 48  2  0  0  0  0
 63 62  1  0  0  0  0
 64 60  1  0  0  0  0
 64 40  2  0  0  0  0
 65 64  1  0  0  0  0
 66 67  1  0  0  0  0
 66 54  2  0  0  0  0
 68  4  1  0  0  0  0
M  END
