1,39
 OpenBabel05122313063D

 61 65  0  0  0  0  0  0  0  0999 V2000
    1.8091   -0.0176    0.2248 P   0  0  0  0  0  0  0  0  0  0  0  0
    2.4773    1.6892    0.0593 C   0  0  0  0  0  0  0  0  0  0  0  0
    2.3652    2.6705    1.0642 C   0  0  0  0  0  0  0  0  0  0  0  0
    1.8815    2.4435    2.0246 H   0  0  0  0  0  0  0  0  0  0  0  0
    2.8536    3.9688    0.8428 C   0  0  0  0  0  0  0  0  0  0  0  0
    2.7499    4.7286    1.6323 H   0  0  0  0  0  0  0  0  0  0  0  0
    3.4611    4.2971   -0.3775 C   0  0  0  0  0  0  0  0  0  0  0  0
    3.8409    5.3156   -0.5493 H   0  0  0  0  0  0  0  0  0  0  0  0
    3.5792    3.3218   -1.3830 C   0  0  0  0  0  0  0  0  0  0  0  0
    4.0494    3.5734   -2.3456 H   0  0  0  0  0  0  0  0  0  0  0  0
    3.0874    2.0284   -1.1684 C   0  0  0  0  0  0  0  0  0  0  0  0
    3.1673    1.2698   -1.9628 H   0  0  0  0  0  0  0  0  0  0  0  0
    3.3446   -1.0251    0.4515 C   0  0  0  0  0  0  0  0  0  0  0  0
    3.3074   -2.4066    0.1758 C   0  0  0  0  0  0  0  0  0  0  0  0
    2.3950   -2.8513   -0.2458 H   0  0  0  0  0  0  0  0  0  0  0  0
    4.4337   -3.2077    0.4208 C   0  0  0  0  0  0  0  0  0  0  0  0
    4.3936   -4.2846    0.1974 H   0  0  0  0  0  0  0  0  0  0  0  0
    5.6088   -2.6356    0.9317 C   0  0  0  0  0  0  0  0  0  0  0  0
    6.4949   -3.2628    1.1131 H   0  0  0  0  0  0  0  0  0  0  0  0
    5.6546   -1.2577    1.2009 C   0  0  0  0  0  0  0  0  0  0  0  0
    6.5767   -0.8021    1.5933 H   0  0  0  0  0  0  0  0  0  0  0  0
    4.5289   -0.4550    0.9657 C   0  0  0  0  0  0  0  0  0  0  0  0
    4.5726    0.6253    1.1730 H   0  0  0  0  0  0  0  0  0  0  0  0
    1.1391   -0.0721    1.9862 C   0  0  0  0  0  0  0  0  0  0  0  0
    1.9617    0.1388    2.7034 H   0  0  0  0  0  0  0  0  0  0  0  0
    0.3906    0.7380    2.0857 H   0  0  0  0  0  0  0  0  0  0  0  0
    0.5332   -1.3466    2.2661 N   0  0  0  0  0  0  0  0  0  0  0  0
    1.1558   -2.0410    2.6784 H   0  0  0  0  0  0  0  0  0  0  0  0
   -0.8185   -1.5862    2.4743 C   0  0  0  0  0  0  0  0  0  0  0  0
   -1.8789   -0.9194    1.7811 C   0  0  0  0  0  0  0  0  0  0  0  0
   -3.2086   -1.1806    2.1900 C   0  0  0  0  0  0  0  0  0  0  0  0
   -4.0273   -0.6463    1.6879 H   0  0  0  0  0  0  0  0  0  0  0  0
   -3.5220   -2.1260    3.1717 C   0  0  0  0  0  0  0  0  0  0  0  0
   -4.5706   -2.3075    3.4481 H   0  0  0  0  0  0  0  0  0  0  0  0
   -2.4807   -2.8542    3.7705 C   0  0  0  0  0  0  0  0  0  0  0  0
   -2.6987   -3.6277    4.5225 H   0  0  0  0  0  0  0  0  0  0  0  0
   -1.1571   -2.5767    3.4336 C   0  0  0  0  0  0  0  0  0  0  0  0
   -0.3376   -3.1144    3.9371 H   0  0  0  0  0  0  0  0  0  0  0  0
   -1.6145    0.1175    0.2576 P   0  0  0  0  0  0  0  0  0  0  0  0
   -1.4422    1.8396    0.9351 C   0  0  0  0  0  0  0  0  0  0  0  0
   -1.8828    2.1610    2.2369 C   0  0  0  0  0  0  0  0  0  0  0  0
   -2.3237    1.3775    2.8717 H   0  0  0  0  0  0  0  0  0  0  0  0
   -1.7531    3.4702    2.7244 C   0  0  0  0  0  0  0  0  0  0  0  0
   -2.0957    3.7084    3.7431 H   0  0  0  0  0  0  0  0  0  0  0  0
   -1.1928    4.4734    1.9158 C   0  0  0  0  0  0  0  0  0  0  0  0
   -1.0914    5.4997    2.3006 H   0  0  0  0  0  0  0  0  0  0  0  0
   -0.7595    4.1606    0.6185 C   0  0  0  0  0  0  0  0  0  0  0  0
   -0.3081    4.9350   -0.0194 H   0  0  0  0  0  0  0  0  0  0  0  0
   -0.8769    2.8493    0.1326 C   0  0  0  0  0  0  0  0  0  0  0  0
   -0.5152    2.6087   -0.8752 H   0  0  0  0  0  0  0  0  0  0  0  0
   -3.3108    0.1765   -0.4791 C   0  0  0  0  0  0  0  0  0  0  0  0
   -3.8667   -1.0277   -0.9635 C   0  0  0  0  0  0  0  0  0  0  0  0
   -3.3122   -1.9711   -0.8459 H   0  0  0  0  0  0  0  0  0  0  0  0
   -5.1179   -1.0272   -1.5902 C   0  0  0  0  0  0  0  0  0  0  0  0
   -5.5385   -1.9728   -1.9640 H   0  0  0  0  0  0  0  0  0  0  0  0
   -5.8253    0.1763   -1.7544 C   0  0  0  0  0  0  0  0  0  0  0  0
   -6.8042    0.1772   -2.2573 H   0  0  0  0  0  0  0  0  0  0  0  0
   -5.2763    1.3755   -1.2790 C   0  0  0  0  0  0  0  0  0  0  0  0
   -5.8235    2.3223   -1.4041 H   0  0  0  0  0  0  0  0  0  0  0  0
   -4.0258    1.3785   -0.6377 C   0  0  0  0  0  0  0  0  0  0  0  0
   -3.6074    2.3234   -0.2623 H   0  0  0  0  0  0  0  0  0  0  0  0
  1 13  1  0  0  0  0
  1 24  1  0  0  0  0
  2  1  1  0  0  0  0
  2  3  1  0  0  0  0
  3  4  1  0  0  0  0
  5  3  2  0  0  0  0
  5  6  1  0  0  0  0
  7  5  1  0  0  0  0
  8  7  1  0  0  0  0
  9 11  1  0  0  0  0
  9  7  2  0  0  0  0
 10  9  1  0  0  0  0
 11  2  2  0  0  0  0
 12 11  1  0  0  0  0
 13 22  1  0  0  0  0
 14 16  1  0  0  0  0
 14 13  2  0  0  0  0
 15 14  1  0  0  0  0
 16 18  2  0  0  0  0
 17 16  1  0  0  0  0
 18 19  1  0  0  0  0
 18 20  1  0  0  0  0
 20 21  1  0  0  0  0
 22 23  1  0  0  0  0
 22 20  2  0  0  0  0
 24 26  1  0  0  0  0
 24 27  1  0  0  0  0
 24 25  1  0  0  0  0
 27 29  1  0  0  0  0
 27 28  1  0  0  0  0
 29 37  1  0  0  0  0
 30 31  1  0  0  0  0
 30 29  2  0  0  0  0
 31 33  2  0  0  0  0
 32 31  1  0  0  0  0
 33 34  1  0  0  0  0
 33 35  1  0  0  0  0
 35 36  1  0  0  0  0
 37 35  2  0  0  0  0
 37 38  1  0  0  0  0
 39 40  1  0  0  0  0
 39 30  1  0  0  0  0
 40 41  1  0  0  0  0
 41 43  2  0  0  0  0
 41 42  1  0  0  0  0
 43 44  1  0  0  0  0
 45 46  1  0  0  0  0
 45 43  1  0  0  0  0
 47 45  2  0  0  0  0
 48 47  1  0  0  0  0
 49 47  1  0  0  0  0
 49 40  2  0  0  0  0
 50 49  1  0  0  0  0
 51 39  1  0  0  0  0
 52 53  1  0  0  0  0
 52 51  2  0  0  0  0
 54 52  1  0  0  0  0
 55 54  1  0  0  0  0
 56 54  2  0  0  0  0
 56 58  1  0  0  0  0
 57 56  1  0  0  0  0
 58 60  2  0  0  0  0
 59 58  1  0  0  0  0
 60 51  1  0  0  0  0
 60 61  1  0  0  0  0
M  END
