1,2
 OpenBabel05122313063D

 65 69  0  0  0  0  0  0  0  0999 V2000
    2.8111    1.0066    0.2701 P   0  0  0  0  0  0  0  0  0  0  0  0
    0.2428    0.1951    0.0917 P   0  0  0  0  0  0  0  0  0  0  0  0
   -4.0409    1.8113    0.1593 C   0  0  0  0  0  0  0  0  0  0  0  0
   -0.7842    0.5854   -1.1599 O   0  0  0  0  0  0  0  0  0  0  0  0
   -2.9629    0.9042   -0.1489 C   0  0  0  0  0  0  0  0  0  0  0  0
    3.1790    0.0309    2.7997 C   0  0  0  0  0  0  0  0  0  0  0  0
    3.6964    0.0602    3.7816 H   0  0  0  0  0  0  0  0  0  0  0  0
    3.2932   -0.9822    2.3675 H   0  0  0  0  0  0  0  0  0  0  0  0
    2.0991    0.2027    2.9858 H   0  0  0  0  0  0  0  0  0  0  0  0
   -0.8236   -0.0913    1.3407 O   0  0  0  0  0  0  0  0  0  0  0  0
    2.3975    1.9318   -2.2781 C   0  0  0  0  0  0  0  0  0  0  0  0
    1.4472    2.4207   -1.9862 H   0  0  0  0  0  0  0  0  0  0  0  0
    2.1747    0.8796   -2.5473 H   0  0  0  0  0  0  0  0  0  0  0  0
    2.7716    2.4502   -3.1853 H   0  0  0  0  0  0  0  0  0  0  0  0
    3.4805    2.0203   -1.1832 C   0  0  0  0  0  0  0  0  0  0  0  0
    3.8066    1.0997    1.8806 C   0  0  0  0  0  0  0  0  0  0  0  0
    1.1064    1.7128    0.6793 C   0  0  0  0  0  0  0  0  0  0  0  0
    0.9534    1.8414    1.7692 H   0  0  0  0  0  0  0  0  0  0  0  0
    0.8225    2.6527    0.1659 H   0  0  0  0  0  0  0  0  0  0  0  0
   -4.0280    3.1483   -0.3882 C   0  0  0  0  0  0  0  0  0  0  0  0
   -1.8844    1.3993   -0.8912 C   0  0  0  0  0  0  0  0  0  0  0  0
   -6.1477    3.6390    0.7322 C   0  0  0  0  0  0  0  0  0  0  0  0
   -6.9716    4.3333    0.9553 H   0  0  0  0  0  0  0  0  0  0  0  0
   -6.0794   -2.0346   -1.1700 C   0  0  0  0  0  0  0  0  0  0  0  0
   -6.9037   -1.7536   -1.8428 H   0  0  0  0  0  0  0  0  0  0  0  0
   -5.0888   -1.1093   -0.8756 C   0  0  0  0  0  0  0  0  0  0  0  0
   -5.1298   -0.1053   -1.3193 H   0  0  0  0  0  0  0  0  0  0  0  0
    3.7128    2.4853    2.5381 C   0  0  0  0  0  0  0  0  0  0  0  0
    4.2584    2.4575    3.5049 H   0  0  0  0  0  0  0  0  0  0  0  0
    2.6678    2.7790    2.7633 H   0  0  0  0  0  0  0  0  0  0  0  0
    4.1712    3.2811    1.9223 H   0  0  0  0  0  0  0  0  0  0  0  0
    3.7349    3.4858   -0.8033 C   0  0  0  0  0  0  0  0  0  0  0  0
    3.9957    4.0577   -1.7188 H   0  0  0  0  0  0  0  0  0  0  0  0
    4.5822    3.5914   -0.0988 H   0  0  0  0  0  0  0  0  0  0  0  0
    2.8435    3.9701   -0.3541 H   0  0  0  0  0  0  0  0  0  0  0  0
   -1.8640    2.7116   -1.4275 C   0  0  0  0  0  0  0  0  0  0  0  0
   -1.0029    3.0145   -2.0407 H   0  0  0  0  0  0  0  0  0  0  0  0
   -1.8712   -0.9766    1.0641 C   0  0  0  0  0  0  0  0  0  0  0  0
    5.2693    0.7182    1.5932 C   0  0  0  0  0  0  0  0  0  0  0  0
    5.8091    1.5194    1.0520 H   0  0  0  0  0  0  0  0  0  0  0  0
    5.3300   -0.2227    1.0082 H   0  0  0  0  0  0  0  0  0  0  0  0
    5.7917    0.5618    2.5602 H   0  0  0  0  0  0  0  0  0  0  0  0
   -5.1061    4.0337   -0.0921 C   0  0  0  0  0  0  0  0  0  0  0  0
   -5.0883    5.0455   -0.5264 H   0  0  0  0  0  0  0  0  0  0  0  0
   -4.0020   -1.4439   -0.0137 C   0  0  0  0  0  0  0  0  0  0  0  0
   -5.1162    1.4484    1.0250 C   0  0  0  0  0  0  0  0  0  0  0  0
   -5.1185    0.4485    1.4794 H   0  0  0  0  0  0  0  0  0  0  0  0
   -2.9540   -0.5099    0.3147 C   0  0  0  0  0  0  0  0  0  0  0  0
   -6.1420    2.3392    1.3039 C   0  0  0  0  0  0  0  0  0  0  0  0
   -6.9567    2.0362    1.9788 H   0  0  0  0  0  0  0  0  0  0  0  0
   -3.9345   -2.7879    0.5116 C   0  0  0  0  0  0  0  0  0  0  0  0
   -4.9764   -3.7094    0.1976 C   0  0  0  0  0  0  0  0  0  0  0  0
   -4.9149   -4.7286    0.6096 H   0  0  0  0  0  0  0  0  0  0  0  0
   -2.9300    3.5628   -1.1965 C   0  0  0  0  0  0  0  0  0  0  0  0
   -2.9339    4.5776   -1.6226 H   0  0  0  0  0  0  0  0  0  0  0  0
   -1.7825   -2.2983    1.5593 C   0  0  0  0  0  0  0  0  0  0  0  0
   -0.8847   -2.5947    2.1174 H   0  0  0  0  0  0  0  0  0  0  0  0
   -6.0332   -3.3426   -0.6204 C   0  0  0  0  0  0  0  0  0  0  0  0
   -6.8268   -4.0667   -0.8585 H   0  0  0  0  0  0  0  0  0  0  0  0
   -2.8160   -3.1800    1.3038 C   0  0  0  0  0  0  0  0  0  0  0  0
   -2.7670   -4.2126    1.6809 H   0  0  0  0  0  0  0  0  0  0  0  0
    4.7628    1.3452   -1.7059 C   0  0  0  0  0  0  0  0  0  0  0  0
    5.0234    1.7910   -2.6886 H   0  0  0  0  0  0  0  0  0  0  0  0
    4.6283    0.2520   -1.8360 H   0  0  0  0  0  0  0  0  0  0  0  0
    5.6225    1.5022   -1.0291 H   0  0  0  0  0  0  0  0  0  0  0  0
  1 17  1  0  0  0  0
  1 16  1  0  0  0  0
  2 17  1  0  0  0  0
  2 10  1  0  0  0  0
  3 46  1  0  0  0  0
  4 21  1  0  0  0  0
  4  2  1  0  0  0  0
  5  3  1  0  0  0  0
  5 48  1  0  0  0  0
  6  9  1  0  0  0  0
  6  7  1  0  0  0  0
  8  6  1  0  0  0  0
 11 12  1  0  0  0  0
 11 15  1  0  0  0  0
 13 11  1  0  0  0  0
 14 11  1  0  0  0  0
 15 32  1  0  0  0  0
 15  1  1  0  0  0  0
 16 28  1  0  0  0  0
 16  6  1  0  0  0  0
 17 18  1  0  0  0  0
 19 17  1  0  0  0  0
 20 43  1  0  0  0  0
 20  3  2  0  0  0  0
 21  5  2  0  0  0  0
 22 23  1  0  0  0  0
 22 49  1  0  0  0  0
 24 26  2  0  0  0  0
 24 58  1  0  0  0  0
 25 24  1  0  0  0  0
 26 45  1  0  0  0  0
 27 26  1  0  0  0  0
 28 30  1  0  0  0  0
 28 29  1  0  0  0  0
 31 28  1  0  0  0  0
 32 35  1  0  0  0  0
 32 34  1  0  0  0  0
 33 32  1  0  0  0  0
 36 54  2  0  0  0  0
 36 21  1  0  0  0  0
 37 36  1  0  0  0  0
 38 10  1  0  0  0  0
 38 56  1  0  0  0  0
 39 16  1  0  0  0  0
 39 42  1  0  0  0  0
 40 39  1  0  0  0  0
 41 39  1  0  0  0  0
 43 22  2  0  0  0  0
 44 43  1  0  0  0  0
 45 48  1  0  0  0  0
 45 51  2  0  0  0  0
 46 49  2  0  0  0  0
 46 47  1  0  0  0  0
 48 38  2  0  0  0  0
 49 50  1  0  0  0  0
 51 60  1  0  0  0  0
 52 51  1  0  0  0  0
 52 53  1  0  0  0  0
 54 20  1  0  0  0  0
 55 54  1  0  0  0  0
 56 57  1  0  0  0  0
 58 52  2  0  0  0  0
 59 58  1  0  0  0  0
 60 56  2  0  0  0  0
 60 61  1  0  0  0  0
 62 15  1  0  0  0  0
 62 65  1  0  0  0  0
 63 62  1  0  0  0  0
 64 62  1  0  0  0  0
M  END
