1,2
 OpenBabel05122313063D

 74 78  0  0  0  0  0  0  0  0999 V2000
   -1.9780   -1.5067    0.3017 P   0  0  0  0  0  0  0  0  0  0  0  0
   -1.0286    1.7062    0.3002 P   0  0  0  0  0  0  0  0  0  0  0  0
   -0.7105   -1.3926    1.6846 C   0  0  0  0  0  0  0  0  0  0  0  0
   -1.2950   -1.2171    2.6251 H   0  0  0  0  0  0  0  0  0  0  0  0
   -0.2580   -2.4012    1.7654 H   0  0  0  0  0  0  0  0  0  0  0  0
   -0.1111    0.9463    1.7478 C   0  0  0  0  0  0  0  0  0  0  0  0
    0.7600    1.6031    1.9348 H   0  0  0  0  0  0  0  0  0  0  0  0
   -0.7643    1.0061    2.6546 H   0  0  0  0  0  0  0  0  0  0  0  0
    0.3375   -0.4082    1.4762 N   0  0  0  0  0  0  0  0  0  0  0  0
    1.6005   -0.7516    2.1454 C   0  0  0  0  0  0  0  0  0  0  0  0
    1.7474   -1.8441    2.0107 H   0  0  0  0  0  0  0  0  0  0  0  0
    1.5374   -0.5777    3.2512 H   0  0  0  0  0  0  0  0  0  0  0  0
    2.8292   -0.0245    1.5885 C   0  0  0  0  0  0  0  0  0  0  0  0
    2.7558    1.0722    1.7478 H   0  0  0  0  0  0  0  0  0  0  0  0
    3.7048   -0.3522    2.1877 H   0  0  0  0  0  0  0  0  0  0  0  0
    3.0785   -0.2974    0.1076 C   0  0  0  0  0  0  0  0  0  0  0  0
    2.2955    0.1587   -0.5283 H   0  0  0  0  0  0  0  0  0  0  0  0
    3.0845   -1.3833   -0.1180 H   0  0  0  0  0  0  0  0  0  0  0  0
    4.7455    0.4895   -0.5730 Se  0  0  0  0  0  0  0  0  0  0  0  0
    6.0325   -0.5734    0.3846 C   0  0  0  0  0  0  0  0  0  0  0  0
    7.3270   -0.0323    0.5381 C   0  0  0  0  0  0  0  0  0  0  0  0
    7.5471    0.9769    0.1558 H   0  0  0  0  0  0  0  0  0  0  0  0
    8.3297   -0.7691    1.1832 C   0  0  0  0  0  0  0  0  0  0  0  0
    9.3350   -0.3339    1.2927 H   0  0  0  0  0  0  0  0  0  0  0  0
    8.0538   -2.0456    1.7003 C   0  0  0  0  0  0  0  0  0  0  0  0
    8.8392   -2.6184    2.2154 H   0  0  0  0  0  0  0  0  0  0  0  0
    6.7653   -2.5823    1.5552 C   0  0  0  0  0  0  0  0  0  0  0  0
    6.5364   -3.5834    1.9523 H   0  0  0  0  0  0  0  0  0  0  0  0
    5.7596   -1.8583    0.8957 C   0  0  0  0  0  0  0  0  0  0  0  0
    4.7643   -2.3102    0.7737 H   0  0  0  0  0  0  0  0  0  0  0  0
   -1.1521   -2.5432   -0.9589 C   0  0  0  0  0  0  0  0  0  0  0  0
   -1.8831   -3.4841   -1.7120 C   0  0  0  0  0  0  0  0  0  0  0  0
   -2.9557   -3.6250   -1.5163 H   0  0  0  0  0  0  0  0  0  0  0  0
   -1.2402   -4.2087   -2.7262 C   0  0  0  0  0  0  0  0  0  0  0  0
   -1.8123   -4.9434   -3.3127 H   0  0  0  0  0  0  0  0  0  0  0  0
    0.1193   -3.9910   -3.0052 C   0  0  0  0  0  0  0  0  0  0  0  0
    0.6144   -4.5592   -3.8074 H   0  0  0  0  0  0  0  0  0  0  0  0
    0.8410   -3.0369   -2.2697 C   0  0  0  0  0  0  0  0  0  0  0  0
    1.9020   -2.8471   -2.4951 H   0  0  0  0  0  0  0  0  0  0  0  0
    0.2075   -2.3090   -1.2525 C   0  0  0  0  0  0  0  0  0  0  0  0
    0.7571   -1.5410   -0.6904 H   0  0  0  0  0  0  0  0  0  0  0  0
   -3.2355   -2.5545    1.1191 C   0  0  0  0  0  0  0  0  0  0  0  0
   -2.9158   -3.8742    1.5008 C   0  0  0  0  0  0  0  0  0  0  0  0
   -1.9403   -4.3086    1.2309 H   0  0  0  0  0  0  0  0  0  0  0  0
   -3.8520   -4.6459    2.2052 C   0  0  0  0  0  0  0  0  0  0  0  0
   -3.6027   -5.6781    2.4944 H   0  0  0  0  0  0  0  0  0  0  0  0
   -5.1048   -4.1030    2.5332 C   0  0  0  0  0  0  0  0  0  0  0  0
   -5.8397   -4.7108    3.0827 H   0  0  0  0  0  0  0  0  0  0  0  0
   -5.4242   -2.7901    2.1512 C   0  0  0  0  0  0  0  0  0  0  0  0
   -6.4109   -2.3683    2.3948 H   0  0  0  0  0  0  0  0  0  0  0  0
   -4.4959   -2.0146    1.4414 C   0  0  0  0  0  0  0  0  0  0  0  0
   -4.7504   -1.0002    1.1003 H   0  0  0  0  0  0  0  0  0  0  0  0
    0.3462    2.0570   -0.8601 C   0  0  0  0  0  0  0  0  0  0  0  0
    0.3616    1.4150   -2.1143 C   0  0  0  0  0  0  0  0  0  0  0  0
   -0.4936    0.7877   -2.4097 H   0  0  0  0  0  0  0  0  0  0  0  0
    1.4581    1.5846   -2.9734 C   0  0  0  0  0  0  0  0  0  0  0  0
    1.4679    1.0739   -3.9478 H   0  0  0  0  0  0  0  0  0  0  0  0
    2.5333    2.4036   -2.5937 C   0  0  0  0  0  0  0  0  0  0  0  0
    3.3931    2.5330   -3.2679 H   0  0  0  0  0  0  0  0  0  0  0  0
    2.5129    3.0594   -1.3501 C   0  0  0  0  0  0  0  0  0  0  0  0
    3.3533    3.7026   -1.0504 H   0  0  0  0  0  0  0  0  0  0  0  0
    1.4244    2.8849   -0.4831 C   0  0  0  0  0  0  0  0  0  0  0  0
    1.4151    3.4027    0.4890 H   0  0  0  0  0  0  0  0  0  0  0  0
   -1.5782    3.3018    1.0057 C   0  0  0  0  0  0  0  0  0  0  0  0
   -2.2962    3.3028    2.2200 C   0  0  0  0  0  0  0  0  0  0  0  0
   -2.5141    2.3571    2.7400 H   0  0  0  0  0  0  0  0  0  0  0  0
   -2.7677    4.5081    2.7593 C   0  0  0  0  0  0  0  0  0  0  0  0
   -3.3274    4.4993    3.7067 H   0  0  0  0  0  0  0  0  0  0  0  0
   -2.5387    5.7176    2.0848 C   0  0  0  0  0  0  0  0  0  0  0  0
   -2.9131    6.6628    2.5060 H   0  0  0  0  0  0  0  0  0  0  0  0
   -1.8473    5.7163    0.8630 C   0  0  0  0  0  0  0  0  0  0  0  0
   -1.6858    6.6591    0.3190 H   0  0  0  0  0  0  0  0  0  0  0  0
   -1.3735    4.5149    0.3180 C   0  0  0  0  0  0  0  0  0  0  0  0
   -0.8594    4.5129   -0.6531 H   0  0  0  0  0  0  0  0  0  0  0  0
  1 42  1  0  0  0  0
  1  3  1  0  0  0  0
  2 64  1  0  0  0  0
  2  6  1  0  0  0  0
  3  5  1  0  0  0  0
  3  4  1  0  0  0  0
  6  7  1  0  0  0  0
  6  8  1  0  0  0  0
  9  3  1  0  0  0  0
  9  6  1  0  0  0  0
  9 10  1  0  0  0  0
 10 12  1  0  0  0  0
 11 10  1  0  0  0  0
 13 14  1  0  0  0  0
 13 10  1  0  0  0  0
 13 15  1  0  0  0  0
 16 13  1  0  0  0  0
 17 16  1  0  0  0  0
 18 16  1  0  0  0  0
 19 16  1  0  0  0  0
 19 20  1  0  0  0  0
 20 21  2  0  0  0  0
 20 29  1  0  0  0  0
 21 23  1  0  0  0  0
 22 21  1  0  0  0  0
 23 24  1  0  0  0  0
 23 25  2  0  0  0  0
 25 26  1  0  0  0  0
 27 25  1  0  0  0  0
 27 28  1  0  0  0  0
 29 27  2  0  0  0  0
 30 29  1  0  0  0  0
 31  1  1  0  0  0  0
 32 33  1  0  0  0  0
 32 31  2  0  0  0  0
 34 32  1  0  0  0  0
 35 34  1  0  0  0  0
 36 34  2  0  0  0  0
 36 38  1  0  0  0  0
 37 36  1  0  0  0  0
 38 40  2  0  0  0  0
 39 38  1  0  0  0  0
 40 31  1  0  0  0  0
 40 41  1  0  0  0  0
 42 51  2  0  0  0  0
 42 43  1  0  0  0  0
 43 45  2  0  0  0  0
 44 43  1  0  0  0  0
 45 46  1  0  0  0  0
 45 47  1  0  0  0  0
 47 48  1  0  0  0  0
 49 50  1  0  0  0  0
 49 47  2  0  0  0  0
 51 49  1  0  0  0  0
 52 51  1  0  0  0  0
 53 62  1  0  0  0  0
 53  2  1  0  0  0  0
 54 53  2  0  0  0  0
 55 54  1  0  0  0  0
 56 58  2  0  0  0  0
 56 54  1  0  0  0  0
 57 56  1  0  0  0  0
 58 60  1  0  0  0  0
 59 58  1  0  0  0  0
 60 61  1  0  0  0  0
 60 62  2  0  0  0  0
 62 63  1  0  0  0  0
 64 65  1  0  0  0  0
 65 66  1  0  0  0  0
 65 67  2  0  0  0  0
 67 68  1  0  0  0  0
 69 70  1  0  0  0  0
 69 67  1  0  0  0  0
 71 69  2  0  0  0  0
 72 71  1  0  0  0  0
 73 71  1  0  0  0  0
 73 64  2  0  0  0  0
 74 73  1  0  0  0  0
M  END
