1,2
 OpenBabel05122313063D

 63 67  0  0  0  0  0  0  0  0999 V2000
   -1.4815   -0.3760    0.0196 P   0  0  0  0  0  0  0  0  0  0  0  0
    1.7209    0.1765   -0.1572 P   0  0  0  0  0  0  0  0  0  0  0  0
   -1.1355    0.2758   -1.5659 N   0  0  0  0  0  0  0  0  0  0  0  0
    1.4646    1.5328   -1.2060 N   0  0  0  0  0  0  0  0  0  0  0  0
   -0.9717    1.6960   -1.6355 C   0  0  0  0  0  0  0  0  0  0  0  0
    0.3014    2.2856   -1.4345 C   0  0  0  0  0  0  0  0  0  0  0  0
    0.4217    3.6907   -1.5384 C   0  0  0  0  0  0  0  0  0  0  0  0
   -0.6620    4.5199   -1.8634 C   0  0  0  0  0  0  0  0  0  0  0  0
   -1.9205    3.9155   -2.0680 C   0  0  0  0  0  0  0  0  0  0  0  0
   -2.0657    2.5320   -1.9380 C   0  0  0  0  0  0  0  0  0  0  0  0
   -0.4954    6.0145   -1.9745 C   0  0  0  0  0  0  0  0  0  0  0  0
   -1.8318   -2.1203   -0.3938 C   0  0  0  0  0  0  0  0  0  0  0  0
   -1.4076   -2.6844   -1.6138 C   0  0  0  0  0  0  0  0  0  0  0  0
   -1.6581   -4.0392   -1.8805 C   0  0  0  0  0  0  0  0  0  0  0  0
   -2.3194   -4.8351   -0.9335 C   0  0  0  0  0  0  0  0  0  0  0  0
   -2.7253   -4.2762    0.2908 C   0  0  0  0  0  0  0  0  0  0  0  0
   -2.4812   -2.9252    0.5683 C   0  0  0  0  0  0  0  0  0  0  0  0
   -3.0893    0.3856    0.4529 C   0  0  0  0  0  0  0  0  0  0  0  0
   -4.2769   -0.0599   -0.1614 C   0  0  0  0  0  0  0  0  0  0  0  0
   -5.4732    0.6469    0.0353 C   0  0  0  0  0  0  0  0  0  0  0  0
   -5.4846    1.8011    0.8354 C   0  0  0  0  0  0  0  0  0  0  0  0
   -4.3002    2.2450    1.4461 C   0  0  0  0  0  0  0  0  0  0  0  0
   -3.1035    1.5391    1.2610 C   0  0  0  0  0  0  0  0  0  0  0  0
    3.4686    0.5375    0.2677 C   0  0  0  0  0  0  0  0  0  0  0  0
    3.7274    1.6107    1.1481 C   0  0  0  0  0  0  0  0  0  0  0  0
    5.0494    1.9745    1.4313 C   0  0  0  0  0  0  0  0  0  0  0  0
    6.1169    1.2620    0.8578 C   0  0  0  0  0  0  0  0  0  0  0  0
    5.8602    0.1866   -0.0049 C   0  0  0  0  0  0  0  0  0  0  0  0
    4.5370   -0.1775   -0.3042 C   0  0  0  0  0  0  0  0  0  0  0  0
    1.8161   -1.3014   -1.2353 C   0  0  0  0  0  0  0  0  0  0  0  0
    1.8273   -1.1972   -2.6376 C   0  0  0  0  0  0  0  0  0  0  0  0
    1.9008   -2.3601   -3.4199 C   0  0  0  0  0  0  0  0  0  0  0  0
    1.9697   -3.6213   -2.8037 C   0  0  0  0  0  0  0  0  0  0  0  0
    1.9570   -3.7226   -1.4027 C   0  0  0  0  0  0  0  0  0  0  0  0
    1.8731   -2.5659   -0.6146 C   0  0  0  0  0  0  0  0  0  0  0  0
   -1.8430   -0.0415   -2.2422 H   0  0  0  0  0  0  0  0  0  0  0  0
    2.3214    2.0861   -1.2976 H   0  0  0  0  0  0  0  0  0  0  0  0
    1.4137    4.1409   -1.3689 H   0  0  0  0  0  0  0  0  0  0  0  0
   -2.7956    4.5359   -2.3149 H   0  0  0  0  0  0  0  0  0  0  0  0
   -3.0545    2.0665   -2.0708 H   0  0  0  0  0  0  0  0  0  0  0  0
   -1.1193    6.5436   -1.2240 H   0  0  0  0  0  0  0  0  0  0  0  0
    0.5557    6.3246   -1.8182 H   0  0  0  0  0  0  0  0  0  0  0  0
   -0.8147    6.3817   -2.9719 H   0  0  0  0  0  0  0  0  0  0  0  0
   -0.8549   -2.0763   -2.3442 H   0  0  0  0  0  0  0  0  0  0  0  0
   -1.3185   -4.4739   -2.8327 H   0  0  0  0  0  0  0  0  0  0  0  0
   -2.5115   -5.8982   -1.1443 H   0  0  0  0  0  0  0  0  0  0  0  0
   -3.2305   -4.9007    1.0430 H   0  0  0  0  0  0  0  0  0  0  0  0
   -2.7591   -2.4857    1.5391 H   0  0  0  0  0  0  0  0  0  0  0  0
   -4.2692   -0.9665   -0.7868 H   0  0  0  0  0  0  0  0  0  0  0  0
   -6.4023    0.2904   -0.4350 H   0  0  0  0  0  0  0  0  0  0  0  0
   -6.4241    2.3536    0.9893 H   0  0  0  0  0  0  0  0  0  0  0  0
   -4.3089    3.1442    2.0801 H   0  0  0  0  0  0  0  0  0  0  0  0
   -2.1762    1.8650    1.7547 H   0  0  0  0  0  0  0  0  0  0  0  0
    2.8906    2.1370    1.6300 H   0  0  0  0  0  0  0  0  0  0  0  0
    5.2486    2.8066    2.1232 H   0  0  0  0  0  0  0  0  0  0  0  0
    7.1547    1.5438    1.0922 H   0  0  0  0  0  0  0  0  0  0  0  0
    6.6936   -0.3763   -0.4517 H   0  0  0  0  0  0  0  0  0  0  0  0
    4.3374   -1.0200   -0.9822 H   0  0  0  0  0  0  0  0  0  0  0  0
    1.7618   -0.2018   -3.1020 H   0  0  0  0  0  0  0  0  0  0  0  0
    1.9045   -2.2816   -4.5179 H   0  0  0  0  0  0  0  0  0  0  0  0
    2.0261   -4.5316   -3.4200 H   0  0  0  0  0  0  0  0  0  0  0  0
    1.9960   -4.7097   -0.9185 H   0  0  0  0  0  0  0  0  0  0  0  0
    1.8404   -2.6373    0.4850 H   0  0  0  0  0  0  0  0  0  0  0  0
  1 18  1  0  0  0  0
  2 24  1  0  0  0  0
  3  1  1  0  0  0  0
  4  2  1  0  0  0  0
  5  3  1  0  0  0  0
  5  6  1  0  0  0  0
  6  4  1  0  0  0  0
  7  6  2  0  0  0  0
  7 38  1  0  0  0  0
  8  7  1  0  0  0  0
  9 10  1  0  0  0  0
  9  8  2  0  0  0  0
 10  5  2  0  0  0  0
 11  8  1  0  0  0  0
 11 42  1  0  0  0  0
 11 41  1  0  0  0  0
 12  1  1  0  0  0  0
 12 17  1  0  0  0  0
 13 12  2  0  0  0  0
 14 13  1  0  0  0  0
 14 15  2  0  0  0  0
 15 16  1  0  0  0  0
 16 17  2  0  0  0  0
 16 47  1  0  0  0  0
 17 48  1  0  0  0  0
 18 23  1  0  0  0  0
 19 20  1  0  0  0  0
 19 18  2  0  0  0  0
 20 21  2  0  0  0  0
 21 51  1  0  0  0  0
 21 22  1  0  0  0  0
 22 52  1  0  0  0  0
 23 22  2  0  0  0  0
 23 53  1  0  0  0  0
 24 25  1  0  0  0  0
 25 26  2  0  0  0  0
 25 54  1  0  0  0  0
 26 55  1  0  0  0  0
 27 56  1  0  0  0  0
 27 26  1  0  0  0  0
 28 27  2  0  0  0  0
 29 28  1  0  0  0  0
 29 24  2  0  0  0  0
 30 35  1  0  0  0  0
 30  2  1  0  0  0  0
 31 30  2  0  0  0  0
 32 33  2  0  0  0  0
 32 31  1  0  0  0  0
 33 34  1  0  0  0  0
 34 62  1  0  0  0  0
 34 35  2  0  0  0  0
 35 63  1  0  0  0  0
 36  3  1  0  0  0  0
 37  4  1  0  0  0  0
 39  9  1  0  0  0  0
 40 10  1  0  0  0  0
 43 11  1  0  0  0  0
 44 13  1  0  0  0  0
 45 14  1  0  0  0  0
 46 15  1  0  0  0  0
 49 19  1  0  0  0  0
 50 20  1  0  0  0  0
 57 28  1  0  0  0  0
 58 29  1  0  0  0  0
 59 31  1  0  0  0  0
 60 32  1  0  0  0  0
 61 33  1  0  0  0  0
M  END
