1,2
 OpenBabel05122313063D

 58 61  0  0  1  0  0  0  0  0999 V2000
   -0.6537   -1.3563    0.2900 P   0  0  2  0  0  0  0  0  0  0  0  0
    0.6538    1.3566    0.2888 P   0  0  1  0  0  0  0  0  0  0  0  0
   -2.4917   -1.6783    0.1327 C   0  0  0  0  0  0  0  0  0  0  0  0
   -2.6812   -2.7309   -0.1718 H   0  0  0  0  0  0  0  0  0  0  0  0
   -3.0067   -1.5173    1.1004 H   0  0  0  0  0  0  0  0  0  0  0  0
   -2.9565   -0.7120   -0.9343 C   0  0  0  0  0  0  0  0  0  0  0  0
   -4.3012   -0.3637   -1.1507 C   0  0  0  0  0  0  0  0  0  0  0  0
   -5.0869   -0.7806   -0.5020 H   0  0  0  0  0  0  0  0  0  0  0  0
   -4.6410    0.5112   -2.1930 C   0  0  0  0  0  0  0  0  0  0  0  0
   -5.6938    0.7841   -2.3582 H   0  0  0  0  0  0  0  0  0  0  0  0
   -3.6397    1.0338   -3.0291 C   0  0  0  0  0  0  0  0  0  0  0  0
   -3.9082    1.7101   -3.8542 H   0  0  0  0  0  0  0  0  0  0  0  0
   -2.2954    0.6974   -2.8111 C   0  0  0  0  0  0  0  0  0  0  0  0
   -1.5167    1.1131   -3.4699 H   0  0  0  0  0  0  0  0  0  0  0  0
   -1.9445   -0.1644   -1.7561 C   0  0  0  0  0  0  0  0  0  0  0  0
   -0.5160   -0.5693   -1.4295 C   0  0  1  0  0  0  0  0  0  0  0  0
   -0.1910   -1.3531   -2.1453 H   0  0  0  0  0  0  0  0  0  0  0  0
    0.5148    0.5688   -1.4302 C   0  0  2  0  0  0  0  0  0  0  0  0
    0.1893    1.3523   -2.1462 H   0  0  0  0  0  0  0  0  0  0  0  0
    1.9431    0.1637   -1.7576 C   0  0  0  0  0  0  0  0  0  0  0  0
    2.2931   -0.6988   -2.8123 C   0  0  0  0  0  0  0  0  0  0  0  0
    1.5140   -1.1147   -3.4704 H   0  0  0  0  0  0  0  0  0  0  0  0
    3.6373   -1.0355   -3.0310 C   0  0  0  0  0  0  0  0  0  0  0  0
    3.9052   -1.7122   -3.8559 H   0  0  0  0  0  0  0  0  0  0  0  0
    4.6392   -0.5125   -2.1958 C   0  0  0  0  0  0  0  0  0  0  0  0
    5.6919   -0.7856   -2.3615 H   0  0  0  0  0  0  0  0  0  0  0  0
    4.3001    0.3631   -1.1538 C   0  0  0  0  0  0  0  0  0  0  0  0
    5.0863    0.7803   -0.5059 H   0  0  0  0  0  0  0  0  0  0  0  0
    2.9556    0.7117   -0.9368 C   0  0  0  0  0  0  0  0  0  0  0  0
    2.4916    1.6788    0.1297 C   0  0  0  0  0  0  0  0  0  0  0  0
    2.6805    2.7312   -0.1761 H   0  0  0  0  0  0  0  0  0  0  0  0
    3.0075    1.5192    1.0971 H   0  0  0  0  0  0  0  0  0  0  0  0
    0.1904   -3.0615    0.2068 C   0  0  0  0  0  0  0  0  0  0  0  0
   -0.2073   -3.8256   -1.0655 C   0  0  0  0  0  0  0  0  0  0  0  0
    0.1501   -3.3224   -1.9851 H   0  0  0  0  0  0  0  0  0  0  0  0
   -1.3016   -3.9783   -1.1558 H   0  0  0  0  0  0  0  0  0  0  0  0
    0.2622   -4.8313   -1.0469 H   0  0  0  0  0  0  0  0  0  0  0  0
   -0.2411   -3.8619    1.4492 C   0  0  0  0  0  0  0  0  0  0  0  0
    0.1788   -4.8878    1.3951 H   0  0  0  0  0  0  0  0  0  0  0  0
   -1.3433   -3.9686    1.5319 H   0  0  0  0  0  0  0  0  0  0  0  0
    0.1598   -3.4067    2.3773 H   0  0  0  0  0  0  0  0  0  0  0  0
    1.7108   -2.8325    0.2431 C   0  0  0  0  0  0  0  0  0  0  0  0
    2.2356   -3.8103    0.2754 H   0  0  0  0  0  0  0  0  0  0  0  0
    2.0025   -2.2441    1.1374 H   0  0  0  0  0  0  0  0  0  0  0  0
    2.0696   -2.2856   -0.6501 H   0  0  0  0  0  0  0  0  0  0  0  0
   -0.1907    3.0616    0.2057 C   0  0  0  0  0  0  0  0  0  0  0  0
    0.2056    3.8252   -1.0672 C   0  0  0  0  0  0  0  0  0  0  0  0
   -0.2640    4.8309   -1.0485 H   0  0  0  0  0  0  0  0  0  0  0  0
   -0.1526    3.3216   -1.9862 H   0  0  0  0  0  0  0  0  0  0  0  0
    1.2997    3.9782   -1.1587 H   0  0  0  0  0  0  0  0  0  0  0  0
    0.2419    3.8625    1.4475 C   0  0  0  0  0  0  0  0  0  0  0  0
   -0.1784    4.8883    1.3934 H   0  0  0  0  0  0  0  0  0  0  0  0
    1.3441    3.9696    1.5291 H   0  0  0  0  0  0  0  0  0  0  0  0
   -0.1580    3.4076    2.3762 H   0  0  0  0  0  0  0  0  0  0  0  0
   -1.7110    2.8322    0.2436 C   0  0  0  0  0  0  0  0  0  0  0  0
   -2.0017    2.2440    1.1383 H   0  0  0  0  0  0  0  0  0  0  0  0
   -2.0705    2.2850   -0.6491 H   0  0  0  0  0  0  0  0  0  0  0  0
   -2.2360    3.8099    0.2762 H   0  0  0  0  0  0  0  0  0  0  0  0
  1 33  1  6  0  0  0
  2 46  1  6  0  0  0
  3  1  1  0  0  0  0
  3  5  1  0  0  0  0
  4  3  1  0  0  0  0
  6  3  1  0  0  0  0
  7  6  1  0  0  0  0
  7  8  1  0  0  0  0
  9  7  2  0  0  0  0
 10  9  1  0  0  0  0
 11 13  2  0  0  0  0
 11  9  1  0  0  0  0
 12 11  1  0  0  0  0
 13 15  1  0  0  0  0
 14 13  1  0  0  0  0
 15 16  1  0  0  0  0
 15  6  2  0  0  0  0
 16 17  1  6  0  0  0
 16  1  1  0  0  0  0
 18 19  1  6  0  0  0
 18 16  1  0  0  0  0
 18  2  1  0  0  0  0
 20 18  1  0  0  0  0
 20 29  1  0  0  0  0
 21 20  2  0  0  0  0
 22 21  1  0  0  0  0
 23 21  1  0  0  0  0
 23 25  2  0  0  0  0
 24 23  1  0  0  0  0
 25 27  1  0  0  0  0
 26 25  1  0  0  0  0
 27 29  2  0  0  0  0
 27 28  1  0  0  0  0
 29 30  1  0  0  0  0
 30  2  1  0  0  0  0
 30 32  1  0  0  0  0
 31 30  1  0  0  0  0
 33 42  1  0  0  0  0
 33 38  1  0  0  0  0
 34 37  1  0  0  0  0
 34 33  1  0  0  0  0
 35 34  1  0  0  0  0
 36 34  1  0  0  0  0
 38 40  1  0  0  0  0
 38 41  1  0  0  0  0
 39 38  1  0  0  0  0
 42 43  1  0  0  0  0
 42 44  1  0  0  0  0
 45 42  1  0  0  0  0
 46 55  1  0  0  0  0
 46 51  1  0  0  0  0
 47 48  1  0  0  0  0
 47 46  1  0  0  0  0
 49 47  1  0  0  0  0
 50 47  1  0  0  0  0
 51 53  1  0  0  0  0
 51 54  1  0  0  0  0
 52 51  1  0  0  0  0
 55 58  1  0  0  0  0
 55 56  1  0  0  0  0
 57 55  1  0  0  0  0
M  END
