1
 OpenBabel05122313063D

 62 65  0  0  0  0  0  0  0  0999 V2000
    1.8379   -0.3469    0.4364 P   0  0  0  0  0  0  0  0  0  0  0  0
   -1.4851   -0.8916    0.4390 P   0  0  0  0  0  0  0  0  0  0  0  0
   -1.2723    0.5022    1.3949 O   0  0  0  0  0  0  0  0  0  0  0  0
    1.3906    1.1381    1.1114 O   0  0  0  0  0  0  0  0  0  0  0  0
    2.2450   -1.1086    1.8354 O   0  0  0  0  0  0  0  0  0  0  0  0
    3.3198    0.0622   -0.1851 O   0  0  0  0  0  0  0  0  0  0  0  0
   -2.9395   -0.6311   -0.2959 O   0  0  0  0  0  0  0  0  0  0  0  0
   -1.8559   -1.9145    1.6679 O   0  0  0  0  0  0  0  0  0  0  0  0
    3.2788   -0.5449    2.6669 C   0  0  0  0  0  0  0  0  0  0  0  0
    4.5994   -0.3524    1.8954 C   0  0  0  0  0  0  0  0  0  0  0  0
    4.3270    0.5873    0.7042 C   0  0  0  0  0  0  0  0  0  0  0  0
   -4.1473   -0.5258    0.4829 C   0  0  0  0  0  0  0  0  0  0  0  0
   -4.3120   -1.6923    1.4756 C   0  0  0  0  0  0  0  0  0  0  0  0
   -3.0798   -1.7130    2.4017 C   0  0  0  0  0  0  0  0  0  0  0  0
   -0.9066    1.6826    0.7561 C   0  0  0  0  0  0  0  0  0  0  0  0
    0.4196    2.0005    0.6416 C   0  0  0  0  0  0  0  0  0  0  0  0
    0.9548    3.2724    0.1050 C   0  0  0  0  0  0  0  0  0  0  0  0
    2.0667    3.2388   -0.7675 C   0  0  0  0  0  0  0  0  0  0  0  0
    2.5906    4.4262   -1.2955 C   0  0  0  0  0  0  0  0  0  0  0  0
    2.0241    5.6642   -0.9517 C   0  0  0  0  0  0  0  0  0  0  0  0
    0.9315    5.7076   -0.0696 C   0  0  0  0  0  0  0  0  0  0  0  0
    0.4014    4.5234    0.4575 C   0  0  0  0  0  0  0  0  0  0  0  0
   -2.0395    2.5231    0.3011 C   0  0  0  0  0  0  0  0  0  0  0  0
   -2.0997    3.0581   -1.0039 C   0  0  0  0  0  0  0  0  0  0  0  0
   -3.1993    3.8302   -1.4008 C   0  0  0  0  0  0  0  0  0  0  0  0
   -4.2541    4.0798   -0.5073 C   0  0  0  0  0  0  0  0  0  0  0  0
   -4.2060    3.5469    0.7912 C   0  0  0  0  0  0  0  0  0  0  0  0
   -3.1100    2.7700    1.1912 C   0  0  0  0  0  0  0  0  0  0  0  0
    5.1217   -1.7080    1.3935 C   0  0  0  0  0  0  0  0  0  0  0  0
    5.6177    0.3193    2.8252 C   0  0  0  0  0  0  0  0  0  0  0  0
   -4.4311   -3.0252    0.7194 C   0  0  0  0  0  0  0  0  0  0  0  0
   -5.5603   -1.4324    2.3285 C   0  0  0  0  0  0  0  0  0  0  0  0
    3.4145   -1.2610    3.5024 H   0  0  0  0  0  0  0  0  0  0  0  0
    2.9251    0.4226    3.0861 H   0  0  0  0  0  0  0  0  0  0  0  0
    4.0095    1.5916    1.0634 H   0  0  0  0  0  0  0  0  0  0  0  0
    5.2395    0.7090    0.0860 H   0  0  0  0  0  0  0  0  0  0  0  0
   -4.9766   -0.5174   -0.2530 H   0  0  0  0  0  0  0  0  0  0  0  0
   -4.1532    0.4491    1.0167 H   0  0  0  0  0  0  0  0  0  0  0  0
   -3.0103   -0.7662    2.9818 H   0  0  0  0  0  0  0  0  0  0  0  0
   -3.1417   -2.5576    3.1172 H   0  0  0  0  0  0  0  0  0  0  0  0
    2.5088    2.2697   -1.0429 H   0  0  0  0  0  0  0  0  0  0  0  0
    3.4471    4.3831   -1.9854 H   0  0  0  0  0  0  0  0  0  0  0  0
    2.4378    6.5962   -1.3658 H   0  0  0  0  0  0  0  0  0  0  0  0
    0.4920    6.6750    0.2170 H   0  0  0  0  0  0  0  0  0  0  0  0
   -0.4474    4.5614    1.1550 H   0  0  0  0  0  0  0  0  0  0  0  0
   -1.2852    2.8510   -1.7113 H   0  0  0  0  0  0  0  0  0  0  0  0
   -3.2367    4.2332   -2.4242 H   0  0  0  0  0  0  0  0  0  0  0  0
   -5.1157    4.6869   -0.8242 H   0  0  0  0  0  0  0  0  0  0  0  0
   -5.0267    3.7412    1.4988 H   0  0  0  0  0  0  0  0  0  0  0  0
   -3.0622    2.3578    2.2106 H   0  0  0  0  0  0  0  0  0  0  0  0
    6.0679   -1.5797    0.8297 H   0  0  0  0  0  0  0  0  0  0  0  0
    4.3885   -2.1971    0.7242 H   0  0  0  0  0  0  0  0  0  0  0  0
    5.3185   -2.3916    2.2441 H   0  0  0  0  0  0  0  0  0  0  0  0
    6.5790    0.4902    2.2989 H   0  0  0  0  0  0  0  0  0  0  0  0
    5.8287   -0.3205    3.7063 H   0  0  0  0  0  0  0  0  0  0  0  0
    5.2522    1.2997    3.1947 H   0  0  0  0  0  0  0  0  0  0  0  0
   -3.5429   -3.2119    0.0860 H   0  0  0  0  0  0  0  0  0  0  0  0
   -5.3233   -3.0219    0.0612 H   0  0  0  0  0  0  0  0  0  0  0  0
   -4.5297   -3.8723    1.4282 H   0  0  0  0  0  0  0  0  0  0  0  0
   -6.4675   -1.3812    1.6927 H   0  0  0  0  0  0  0  0  0  0  0  0
   -5.4833   -0.4775    2.8886 H   0  0  0  0  0  0  0  0  0  0  0  0
   -5.7129   -2.2485    3.0639 H   0  0  0  0  0  0  0  0  0  0  0  0
  1  4  1  0  0  0  0
  1  5  1  0  0  0  0
  2  3  1  0  0  0  0
  2  8  1  0  0  0  0
  5  9  1  0  0  0  0
  6  1  1  0  0  0  0
  6 11  1  0  0  0  0
  7  2  1  0  0  0  0
  7 12  1  0  0  0  0
  8 14  1  0  0  0  0
  9 34  1  0  0  0  0
  9 33  1  0  0  0  0
 10  9  1  0  0  0  0
 10 30  1  0  0  0  0
 11 35  1  0  0  0  0
 11 10  1  0  0  0  0
 12 38  1  0  0  0  0
 12 13  1  0  0  0  0
 13 32  1  0  0  0  0
 13 14  1  0  0  0  0
 14 39  1  0  0  0  0
 14 40  1  0  0  0  0
 15  3  1  0  0  0  0
 16 15  2  0  0  0  0
 16  4  1  0  0  0  0
 17 22  1  0  0  0  0
 17 16  1  0  0  0  0
 18 17  2  0  0  0  0
 19 20  2  0  0  0  0
 19 18  1  0  0  0  0
 20 21  1  0  0  0  0
 21 44  1  0  0  0  0
 21 22  2  0  0  0  0
 22 45  1  0  0  0  0
 23 15  1  0  0  0  0
 23 28  1  0  0  0  0
 24 23  2  0  0  0  0
 25 24  1  0  0  0  0
 25 26  2  0  0  0  0
 26 27  1  0  0  0  0
 27 28  2  0  0  0  0
 27 49  1  0  0  0  0
 28 50  1  0  0  0  0
 29 10  1  0  0  0  0
 29 53  1  0  0  0  0
 30 56  1  0  0  0  0
 30 55  1  0  0  0  0
 31 59  1  0  0  0  0
 31 13  1  0  0  0  0
 32 61  1  0  0  0  0
 32 62  1  0  0  0  0
 36 11  1  0  0  0  0
 37 12  1  0  0  0  0
 41 18  1  0  0  0  0
 42 19  1  0  0  0  0
 43 20  1  0  0  0  0
 46 24  1  0  0  0  0
 47 25  1  0  0  0  0
 48 26  1  0  0  0  0
 51 29  1  0  0  0  0
 52 29  1  0  0  0  0
 54 30  1  0  0  0  0
 57 31  1  0  0  0  0
 58 31  1  0  0  0  0
 60 32  1  0  0  0  0
M  END
