1,2
 OpenBabel05122313063D

 51 55  0  0  0  0  0  0  0  0999 V2000
    1.5135   -0.1623   -0.4155 P   0  0  0  0  0  0  0  0  0  0  0  0
   -1.6083    0.0358   -0.4887 P   0  0  0  0  0  0  0  0  0  0  0  0
    3.0142   -1.1345   -0.8342 C   0  0  0  0  0  0  0  0  0  0  0  0
    3.0972   -2.5105   -1.0829 C   0  0  0  0  0  0  0  0  0  0  0  0
    4.3522   -3.0790   -1.3590 C   0  0  0  0  0  0  0  0  0  0  0  0
    5.5072   -2.2761   -1.3734 C   0  0  0  0  0  0  0  0  0  0  0  0
    5.4260   -0.8994   -1.1166 C   0  0  0  0  0  0  0  0  0  0  0  0
    4.1752   -0.3138   -0.8474 C   0  0  0  0  0  0  0  0  0  0  0  0
    3.8960    1.1050   -0.5558 C   0  0  0  0  0  0  0  0  0  0  0  0
    4.8210    2.1633   -0.4867 C   0  0  0  0  0  0  0  0  0  0  0  0
    4.3721    3.4595   -0.1920 C   0  0  0  0  0  0  0  0  0  0  0  0
    3.0080    3.7123    0.0416 C   0  0  0  0  0  0  0  0  0  0  0  0
    2.0735    2.6647   -0.0159 C   0  0  0  0  0  0  0  0  0  0  0  0
    2.5210    1.3726   -0.3183 C   0  0  0  0  0  0  0  0  0  0  0  0
    0.6606    0.0146   -2.0376 C   0  0  0  0  0  0  0  0  0  0  0  0
   -0.6895    0.0768   -2.1149 C   0  0  0  0  0  0  0  0  0  0  0  0
   -1.4530    0.2220   -3.3986 C   0  0  0  0  0  0  0  0  0  0  0  0
   -3.2122   -0.7749   -0.9122 C   0  0  0  0  0  0  0  0  0  0  0  0
   -4.2619   -0.0678   -1.5366 C   0  0  0  0  0  0  0  0  0  0  0  0
   -5.4549   -0.7252   -1.8699 C   0  0  0  0  0  0  0  0  0  0  0  0
   -5.6120   -2.0911   -1.5830 C   0  0  0  0  0  0  0  0  0  0  0  0
   -4.5740   -2.7972   -0.9556 C   0  0  0  0  0  0  0  0  0  0  0  0
   -3.3805   -2.1420   -0.6166 C   0  0  0  0  0  0  0  0  0  0  0  0
   -2.0995    1.8024   -0.2746 C   0  0  0  0  0  0  0  0  0  0  0  0
   -3.0219    2.1057    0.7501 C   0  0  0  0  0  0  0  0  0  0  0  0
   -3.3441    3.4381    1.0376 C   0  0  0  0  0  0  0  0  0  0  0  0
   -2.7459    4.4831    0.3126 C   0  0  0  0  0  0  0  0  0  0  0  0
   -1.8245    4.1874   -0.7024 C   0  0  0  0  0  0  0  0  0  0  0  0
   -1.5009    2.8521   -0.9974 C   0  0  0  0  0  0  0  0  0  0  0  0
    2.1966   -3.1408   -1.0528 H   0  0  0  0  0  0  0  0  0  0  0  0
    4.4311   -4.1586   -1.5555 H   0  0  0  0  0  0  0  0  0  0  0  0
    6.4864   -2.7327   -1.5826 H   0  0  0  0  0  0  0  0  0  0  0  0
    6.3378   -0.2832   -1.1245 H   0  0  0  0  0  0  0  0  0  0  0  0
    5.8918    1.9778   -0.6605 H   0  0  0  0  0  0  0  0  0  0  0  0
    5.0972    4.2855   -0.1369 H   0  0  0  0  0  0  0  0  0  0  0  0
    2.6706    4.7319    0.2810 H   0  0  0  0  0  0  0  0  0  0  0  0
    1.0091    2.8566    0.1842 H   0  0  0  0  0  0  0  0  0  0  0  0
    1.2892    0.0922   -2.9429 H   0  0  0  0  0  0  0  0  0  0  0  0
   -2.0938    1.1288   -3.3830 H   0  0  0  0  0  0  0  0  0  0  0  0
   -2.1406   -0.6370   -3.5427 H   0  0  0  0  0  0  0  0  0  0  0  0
   -0.7739    0.2847   -4.2711 H   0  0  0  0  0  0  0  0  0  0  0  0
   -4.1503    1.0058   -1.7504 H   0  0  0  0  0  0  0  0  0  0  0  0
   -6.2699   -0.1647   -2.3528 H   0  0  0  0  0  0  0  0  0  0  0  0
   -6.5510   -2.6039   -1.8413 H   0  0  0  0  0  0  0  0  0  0  0  0
   -4.6950   -3.8645   -0.7169 H   0  0  0  0  0  0  0  0  0  0  0  0
   -2.5756   -2.6908   -0.1079 H   0  0  0  0  0  0  0  0  0  0  0  0
   -3.4781    1.2907    1.3341 H   0  0  0  0  0  0  0  0  0  0  0  0
   -4.0608    3.6632    1.8417 H   0  0  0  0  0  0  0  0  0  0  0  0
   -2.9956    5.5293    0.5447 H   0  0  0  0  0  0  0  0  0  0  0  0
   -1.3487    5.0004   -1.2719 H   0  0  0  0  0  0  0  0  0  0  0  0
   -0.7648    2.6308   -1.7846 H   0  0  0  0  0  0  0  0  0  0  0  0
  1 14  1  0  0  0  0
  2 24  1  0  0  0  0
  3  1  1  0  0  0  0
  4 30  1  0  0  0  0
  4  3  2  0  0  0  0
  5  4  1  0  0  0  0
  6  5  2  0  0  0  0
  6  7  1  0  0  0  0
  7  8  2  0  0  0  0
  8  3  1  0  0  0  0
  8  9  1  0  0  0  0
  9 10  2  0  0  0  0
  9 14  1  0  0  0  0
 10 11  1  0  0  0  0
 11 35  1  0  0  0  0
 11 12  2  0  0  0  0
 12 36  1  0  0  0  0
 13 12  1  0  0  0  0
 13 37  1  0  0  0  0
 14 13  2  0  0  0  0
 15  1  1  0  0  0  0
 16 15  2  0  0  0  0
 16  2  1  0  0  0  0
 17 39  1  0  0  0  0
 17 16  1  0  0  0  0
 18 23  1  0  0  0  0
 18  2  1  0  0  0  0
 19 18  2  0  0  0  0
 20 21  2  0  0  0  0
 20 19  1  0  0  0  0
 21 22  1  0  0  0  0
 22 45  1  0  0  0  0
 22 23  2  0  0  0  0
 23 46  1  0  0  0  0
 24 25  1  0  0  0  0
 25 26  2  0  0  0  0
 25 47  1  0  0  0  0
 26 48  1  0  0  0  0
 27 49  1  0  0  0  0
 27 26  1  0  0  0  0
 28 27  2  0  0  0  0
 29 28  1  0  0  0  0
 29 24  2  0  0  0  0
 31  5  1  0  0  0  0
 32  6  1  0  0  0  0
 33  7  1  0  0  0  0
 34 10  1  0  0  0  0
 38 15  1  0  0  0  0
 40 17  1  0  0  0  0
 41 17  1  0  0  0  0
 42 19  1  0  0  0  0
 43 20  1  0  0  0  0
 44 21  1  0  0  0  0
 50 28  1  0  0  0  0
 51 29  1  0  0  0  0
M  END
