1,2
 OpenBabel05122313063D

 51 55  0  0  0  0  0  0  0  0999 V2000
   -1.4960   -0.0979   -0.6273 P   0  0  0  0  0  0  0  0  0  0  0  0
    1.8109    0.0891   -0.5676 P   0  0  0  0  0  0  0  0  0  0  0  0
   -3.1123   -0.9447   -0.8455 C   0  0  0  0  0  0  0  0  0  0  0  0
   -3.3265   -2.2650   -1.2581 C   0  0  0  0  0  0  0  0  0  0  0  0
   -4.6420   -2.7540   -1.3192 C   0  0  0  0  0  0  0  0  0  0  0  0
   -5.7222   -1.9278   -0.9582 C   0  0  0  0  0  0  0  0  0  0  0  0
   -5.5062   -0.6082   -0.5342 C   0  0  0  0  0  0  0  0  0  0  0  0
   -4.1944   -0.1015   -0.4760 C   0  0  0  0  0  0  0  0  0  0  0  0
   -3.7694    1.2445   -0.0472 C   0  0  0  0  0  0  0  0  0  0  0  0
   -4.5897    2.3036    0.3841 C   0  0  0  0  0  0  0  0  0  0  0  0
   -4.0078    3.5223    0.7645 C   0  0  0  0  0  0  0  0  0  0  0  0
   -2.6123    3.6955    0.7254 C   0  0  0  0  0  0  0  0  0  0  0  0
   -1.7794    2.6456    0.3046 C   0  0  0  0  0  0  0  0  0  0  0  0
   -2.3609    1.4320   -0.0826 C   0  0  0  0  0  0  0  0  0  0  0  0
   -1.0691    0.3149   -2.3605 C   0  0  0  0  0  0  0  0  0  0  0  0
    0.1465    0.2726   -2.9487 C   0  0  0  0  0  0  0  0  0  0  0  0
    1.4938   -0.1113   -2.3980 C   0  0  0  0  0  0  0  0  0  0  0  0
    1.8614    1.9161   -0.3283 C   0  0  0  0  0  0  0  0  0  0  0  0
    1.5673    2.8478   -1.3434 C   0  0  0  0  0  0  0  0  0  0  0  0
    1.5502    4.2237   -1.0594 C   0  0  0  0  0  0  0  0  0  0  0  0
    1.8370    4.6820    0.2349 C   0  0  0  0  0  0  0  0  0  0  0  0
    2.1484    3.7590    1.2483 C   0  0  0  0  0  0  0  0  0  0  0  0
    2.1565    2.3862    0.9703 C   0  0  0  0  0  0  0  0  0  0  0  0
    3.6008   -0.3769   -0.5395 C   0  0  0  0  0  0  0  0  0  0  0  0
    4.6250    0.5732   -0.7284 C   0  0  0  0  0  0  0  0  0  0  0  0
    5.9682    0.1671   -0.7403 C   0  0  0  0  0  0  0  0  0  0  0  0
    6.2985   -1.1871   -0.5730 C   0  0  0  0  0  0  0  0  0  0  0  0
    5.2810   -2.1372   -0.3911 C   0  0  0  0  0  0  0  0  0  0  0  0
    3.9378   -1.7347   -0.3685 C   0  0  0  0  0  0  0  0  0  0  0  0
   -2.4756   -2.9124   -1.5195 H   0  0  0  0  0  0  0  0  0  0  0  0
   -4.8264   -3.7901   -1.6404 H   0  0  0  0  0  0  0  0  0  0  0  0
   -6.7484   -2.3231   -1.0007 H   0  0  0  0  0  0  0  0  0  0  0  0
   -6.3595    0.0238   -0.2450 H   0  0  0  0  0  0  0  0  0  0  0  0
   -5.6823    2.1784    0.4256 H   0  0  0  0  0  0  0  0  0  0  0  0
   -4.6512    4.3486    1.1027 H   0  0  0  0  0  0  0  0  0  0  0  0
   -2.1664    4.6530    1.0336 H   0  0  0  0  0  0  0  0  0  0  0  0
   -0.6881    2.7745    0.2861 H   0  0  0  0  0  0  0  0  0  0  0  0
   -1.9324    0.6342   -2.9698 H   0  0  0  0  0  0  0  0  0  0  0  0
    0.1735    0.5548   -4.0182 H   0  0  0  0  0  0  0  0  0  0  0  0
    2.2932    0.4267   -2.9490 H   0  0  0  0  0  0  0  0  0  0  0  0
    1.6831   -1.1920   -2.5862 H   0  0  0  0  0  0  0  0  0  0  0  0
    1.3241    2.5086   -2.3598 H   0  0  0  0  0  0  0  0  0  0  0  0
    1.3050    4.9401   -1.8580 H   0  0  0  0  0  0  0  0  0  0  0  0
    1.8182    5.7599    0.4562 H   0  0  0  0  0  0  0  0  0  0  0  0
    2.3761    4.1094    2.2662 H   0  0  0  0  0  0  0  0  0  0  0  0
    2.3862    1.6656    1.7700 H   0  0  0  0  0  0  0  0  0  0  0  0
    4.3722    1.6364   -0.8586 H   0  0  0  0  0  0  0  0  0  0  0  0
    6.7626    0.9163   -0.8795 H   0  0  0  0  0  0  0  0  0  0  0  0
    7.3530   -1.5024   -0.5791 H   0  0  0  0  0  0  0  0  0  0  0  0
    5.5330   -3.1996   -0.2536 H   0  0  0  0  0  0  0  0  0  0  0  0
    3.1416   -2.4771   -0.2086 H   0  0  0  0  0  0  0  0  0  0  0  0
  1 14  1  0  0  0  0
  2 24  1  0  0  0  0
  2 18  1  0  0  0  0
  3  1  1  0  0  0  0
  3  8  1  0  0  0  0
  4  3  2  0  0  0  0
  5  4  1  0  0  0  0
  5  6  2  0  0  0  0
  6  7  1  0  0  0  0
  7  8  2  0  0  0  0
  7 33  1  0  0  0  0
  8  9  1  0  0  0  0
  9 10  1  0  0  0  0
 10 34  1  0  0  0  0
 10 11  2  0  0  0  0
 11 35  1  0  0  0  0
 12 11  1  0  0  0  0
 12 36  1  0  0  0  0
 13 12  2  0  0  0  0
 14  9  2  0  0  0  0
 14 13  1  0  0  0  0
 15  1  1  0  0  0  0
 16 17  1  0  0  0  0
 16 15  2  0  0  0  0
 17  2  1  0  0  0  0
 18 23  1  0  0  0  0
 19 20  1  0  0  0  0
 19 18  2  0  0  0  0
 20 21  2  0  0  0  0
 21 44  1  0  0  0  0
 21 22  1  0  0  0  0
 22 45  1  0  0  0  0
 23 22  2  0  0  0  0
 23 46  1  0  0  0  0
 24 29  1  0  0  0  0
 25 24  2  0  0  0  0
 26 25  1  0  0  0  0
 26 27  2  0  0  0  0
 27 28  1  0  0  0  0
 28 29  2  0  0  0  0
 28 50  1  0  0  0  0
 29 51  1  0  0  0  0
 30  4  1  0  0  0  0
 31  5  1  0  0  0  0
 32  6  1  0  0  0  0
 37 13  1  0  0  0  0
 38 15  1  0  0  0  0
 39 16  1  0  0  0  0
 40 17  1  0  0  0  0
 41 17  1  0  0  0  0
 42 19  1  0  0  0  0
 43 20  1  0  0  0  0
 47 25  1  0  0  0  0
 48 26  1  0  0  0  0
 49 27  1  0  0  0  0
M  END
