1,42
 OpenBabel05122313063D

 79 82  0  0  0  0  0  0  0  0999 V2000
   -1.6047    0.0742    0.4133 P   0  0  0  0  0  0  0  0  0  0  0  0
    0.0317   -0.3480    2.7310 C   0  0  0  0  0  0  0  0  0  0  0  0
    0.0521   -0.2971    3.8412 H   0  0  0  0  0  0  0  0  0  0  0  0
    0.0443   -1.4265    2.4715 H   0  0  0  0  0  0  0  0  0  0  0  0
   -1.2631    0.2987    2.2352 C   0  0  0  0  0  0  0  0  0  0  0  0
   -1.2365    1.3888    2.4391 H   0  0  0  0  0  0  0  0  0  0  0  0
   -2.1414   -0.1068    2.7790 H   0  0  0  0  0  0  0  0  0  0  0  0
   -2.6256    1.6041   -0.0193 C   0  0  0  0  0  0  0  0  0  0  0  0
   -2.7105    1.5176   -1.1256 H   0  0  0  0  0  0  0  0  0  0  0  0
   -4.0379    1.6848    0.5861 C   0  0  0  0  0  0  0  0  0  0  0  0
   -3.9654    1.7367    1.6964 H   0  0  0  0  0  0  0  0  0  0  0  0
   -4.6300    0.7787    0.3485 H   0  0  0  0  0  0  0  0  0  0  0  0
   -4.7856    2.9232    0.0623 C   0  0  0  0  0  0  0  0  0  0  0  0
   -4.9567    2.7953   -1.0301 H   0  0  0  0  0  0  0  0  0  0  0  0
   -5.7908    2.9818    0.5309 H   0  0  0  0  0  0  0  0  0  0  0  0
   -4.0033    4.2202    0.2985 C   0  0  0  0  0  0  0  0  0  0  0  0
   -4.5480    5.0840   -0.1373 H   0  0  0  0  0  0  0  0  0  0  0  0
   -3.9379    4.4124    1.3937 H   0  0  0  0  0  0  0  0  0  0  0  0
   -2.5860    4.1247   -0.2780 C   0  0  0  0  0  0  0  0  0  0  0  0
   -2.0092    5.0465   -0.0533 H   0  0  0  0  0  0  0  0  0  0  0  0
   -2.6324    4.0458   -1.3868 H   0  0  0  0  0  0  0  0  0  0  0  0
   -1.8474    2.8979    0.2699 C   0  0  0  0  0  0  0  0  0  0  0  0
   -1.7218    3.0219    1.3696 H   0  0  0  0  0  0  0  0  0  0  0  0
   -0.8360    2.8247   -0.1679 H   0  0  0  0  0  0  0  0  0  0  0  0
   -2.9009   -1.2897    0.4424 C   0  0  0  0  0  0  0  0  0  0  0  0
   -3.7183   -0.8790    1.0792 H   0  0  0  0  0  0  0  0  0  0  0  0
   -2.3969   -2.5810    1.1102 C   0  0  0  0  0  0  0  0  0  0  0  0
   -1.5015   -2.9405    0.5624 H   0  0  0  0  0  0  0  0  0  0  0  0
   -2.0813   -2.3777    2.1550 H   0  0  0  0  0  0  0  0  0  0  0  0
   -3.4763   -3.6736    1.0998 C   0  0  0  0  0  0  0  0  0  0  0  0
   -3.0706   -4.6031    1.5520 H   0  0  0  0  0  0  0  0  0  0  0  0
   -4.3309   -3.3593    1.7419 H   0  0  0  0  0  0  0  0  0  0  0  0
   -3.9868   -3.9425   -0.3206 C   0  0  0  0  0  0  0  0  0  0  0  0
   -4.7694   -4.7301   -0.3107 H   0  0  0  0  0  0  0  0  0  0  0  0
   -3.1482   -4.3316   -0.9396 H   0  0  0  0  0  0  0  0  0  0  0  0
   -4.5249   -2.6567   -0.9589 C   0  0  0  0  0  0  0  0  0  0  0  0
   -5.4165   -2.3093   -0.3883 H   0  0  0  0  0  0  0  0  0  0  0  0
   -4.8724   -2.8495   -1.9955 H   0  0  0  0  0  0  0  0  0  0  0  0
   -3.4599   -1.5517   -0.9671 C   0  0  0  0  0  0  0  0  0  0  0  0
   -3.8803   -0.6182   -1.3976 H   0  0  0  0  0  0  0  0  0  0  0  0
   -2.6188   -1.8561   -1.6253 H   0  0  0  0  0  0  0  0  0  0  0  0
    1.6076    0.0629    0.3685 P   0  0  0  0  0  0  0  0  0  0  0  0
    1.2844    0.3455    2.1858 C   0  0  0  0  0  0  0  0  0  0  0  0
    1.2058    1.4410    2.3466 H   0  0  0  0  0  0  0  0  0  0  0  0
    2.1910    0.0063    2.7286 H   0  0  0  0  0  0  0  0  0  0  0  0
    2.6919    1.5432   -0.1041 C   0  0  0  0  0  0  0  0  0  0  0  0
    2.8663    1.3737   -1.1907 H   0  0  0  0  0  0  0  0  0  0  0  0
    4.0523    1.6098    0.6171 C   0  0  0  0  0  0  0  0  0  0  0  0
    3.8848    1.6994    1.7144 H   0  0  0  0  0  0  0  0  0  0  0  0
    4.6321    0.6788    0.4603 H   0  0  0  0  0  0  0  0  0  0  0  0
    4.8899    2.8057    0.1363 C   0  0  0  0  0  0  0  0  0  0  0  0
    5.1543    2.6490   -0.9336 H   0  0  0  0  0  0  0  0  0  0  0  0
    5.8497    2.8375    0.6940 H   0  0  0  0  0  0  0  0  0  0  0  0
    4.1341    4.1302    0.2773 C   0  0  0  0  0  0  0  0  0  0  0  0
    4.7485    4.9711   -0.1076 H   0  0  0  0  0  0  0  0  0  0  0  0
    3.9585    4.3388    1.3572 H   0  0  0  0  0  0  0  0  0  0  0  0
    2.7883    4.0631   -0.4506 C   0  0  0  0  0  0  0  0  0  0  0  0
    2.2202    5.0076   -0.3167 H   0  0  0  0  0  0  0  0  0  0  0  0
    2.9638    3.9576   -1.5445 H   0  0  0  0  0  0  0  0  0  0  0  0
    1.9390    2.8779    0.0277 C   0  0  0  0  0  0  0  0  0  0  0  0
    1.6505    3.0471    1.0896 H   0  0  0  0  0  0  0  0  0  0  0  0
    1.0094    2.8253   -0.5686 H   0  0  0  0  0  0  0  0  0  0  0  0
    2.8705   -1.3364    0.4325 C   0  0  0  0  0  0  0  0  0  0  0  0
    3.6942   -0.9372    1.0674 H   0  0  0  0  0  0  0  0  0  0  0  0
    2.3328   -2.6016    1.1244 C   0  0  0  0  0  0  0  0  0  0  0  0
    1.4226   -2.9437    0.5904 H   0  0  0  0  0  0  0  0  0  0  0  0
    2.0342   -2.3701    2.1679 H   0  0  0  0  0  0  0  0  0  0  0  0
    3.3772   -3.7277    1.1284 C   0  0  0  0  0  0  0  0  0  0  0  0
    2.9427   -4.6363    1.5959 H   0  0  0  0  0  0  0  0  0  0  0  0
    4.2430   -3.4313    1.7640 H   0  0  0  0  0  0  0  0  0  0  0  0
    3.8760   -4.0343   -0.2881 C   0  0  0  0  0  0  0  0  0  0  0  0
    4.6300   -4.8490   -0.2683 H   0  0  0  0  0  0  0  0  0  0  0  0
    3.0236   -4.4004   -0.9021 H   0  0  0  0  0  0  0  0  0  0  0  0
    4.4597   -2.7761   -0.9406 C   0  0  0  0  0  0  0  0  0  0  0  0
    5.3604   -2.4523   -0.3704 H   0  0  0  0  0  0  0  0  0  0  0  0
    4.8046   -2.9934   -1.9732 H   0  0  0  0  0  0  0  0  0  0  0  0
    3.4334   -1.6352   -0.9684 C   0  0  0  0  0  0  0  0  0  0  0  0
    3.8927   -0.7222   -1.4029 H   0  0  0  0  0  0  0  0  0  0  0  0
    2.5889   -1.9163   -1.6324 H   0  0  0  0  0  0  0  0  0  0  0  0
  1 25  1  0  0  0  0
  1  5  1  0  0  0  0
  2  3  1  0  0  0  0
  4  2  1  0  0  0  0
  5  6  1  0  0  0  0
  5  2  1  0  0  0  0
  5  7  1  0  0  0  0
  8 22  1  0  0  0  0
  8  1  1  0  0  0  0
  8 10  1  0  0  0  0
  9  8  1  0  0  0  0
 10 11  1  0  0  0  0
 12 10  1  0  0  0  0
 13 16  1  0  0  0  0
 13 15  1  0  0  0  0
 13 10  1  0  0  0  0
 14 13  1  0  0  0  0
 16 18  1  0  0  0  0
 17 16  1  0  0  0  0
 19 20  1  0  0  0  0
 19 22  1  0  0  0  0
 19 16  1  0  0  0  0
 21 19  1  0  0  0  0
 22 23  1  0  0  0  0
 24 22  1  0  0  0  0
 25 26  1  0  0  0  0
 25 27  1  0  0  0  0
 27 29  1  0  0  0  0
 28 27  1  0  0  0  0
 30 27  1  0  0  0  0
 30 31  1  0  0  0  0
 30 32  1  0  0  0  0
 33 34  1  0  0  0  0
 33 30  1  0  0  0  0
 35 33  1  0  0  0  0
 36 37  1  0  0  0  0
 36 33  1  0  0  0  0
 38 36  1  0  0  0  0
 39 36  1  0  0  0  0
 39 25  1  0  0  0  0
 40 39  1  0  0  0  0
 41 39  1  0  0  0  0
 42 63  1  0  0  0  0
 42 43  1  0  0  0  0
 43 44  1  0  0  0  0
 43 45  1  0  0  0  0
 43  2  1  0  0  0  0
 46 60  1  0  0  0  0
 46 42  1  0  0  0  0
 46 48  1  0  0  0  0
 47 46  1  0  0  0  0
 48 49  1  0  0  0  0
 50 48  1  0  0  0  0
 51 54  1  0  0  0  0
 51 48  1  0  0  0  0
 51 53  1  0  0  0  0
 52 51  1  0  0  0  0
 54 56  1  0  0  0  0
 55 54  1  0  0  0  0
 57 58  1  0  0  0  0
 57 60  1  0  0  0  0
 57 54  1  0  0  0  0
 59 57  1  0  0  0  0
 60 61  1  0  0  0  0
 62 60  1  0  0  0  0
 63 64  1  0  0  0  0
 63 65  1  0  0  0  0
 65 68  1  0  0  0  0
 65 67  1  0  0  0  0
 66 65  1  0  0  0  0
 68 69  1  0  0  0  0
 68 70  1  0  0  0  0
 71 72  1  0  0  0  0
 71 68  1  0  0  0  0
 73 71  1  0  0  0  0
 74 75  1  0  0  0  0
 74 71  1  0  0  0  0
 76 74  1  0  0  0  0
 77 74  1  0  0  0  0
 77 63  1  0  0  0  0
 78 77  1  0  0  0  0
 79 77  1  0  0  0  0
M  END
