2,3
 OpenBabel05122313063D

 73 75  0  0  0  0  0  0  0  0999 V2000
   -0.7364   -0.4045    2.6939 Cl  0  0  0  0  0  0  0  0  0  0  0  0
   -0.4686    0.1163   -0.3673 P   0  0  0  0  0  0  0  0  0  0  0  0
    1.9276   -0.1465    0.9233 P   0  0  0  0  0  0  0  0  0  0  0  0
    0.1156   -0.1890    1.2027 C   0  0  0  0  0  0  0  0  0  0  0  0
   -2.3047    0.0750   -0.3097 C   0  0  0  0  0  0  0  0  0  0  0  0
   -2.9785   -1.1835   -0.4405 C   0  0  0  0  0  0  0  0  0  0  0  0
   -4.3225   -1.2354   -0.0362 C   0  0  0  0  0  0  0  0  0  0  0  0
   -5.0254   -0.1195    0.4483 C   0  0  0  0  0  0  0  0  0  0  0  0
   -4.3649    1.1159    0.4323 C   0  0  0  0  0  0  0  0  0  0  0  0
   -3.0189    1.2622    0.0428 C   0  0  0  0  0  0  0  0  0  0  0  0
   -2.3375   -2.4490   -1.0748 C   0  0  0  0  0  0  0  0  0  0  0  0
   -1.7367   -2.0767   -2.4500 C   0  0  0  0  0  0  0  0  0  0  0  0
   -1.2585   -3.0805   -0.1638 C   0  0  0  0  0  0  0  0  0  0  0  0
   -3.3917   -3.5464   -1.3350 C   0  0  0  0  0  0  0  0  0  0  0  0
   -6.4777   -0.2809    0.9269 C   0  0  0  0  0  0  0  0  0  0  0  0
   -6.5055   -1.2872    2.1003 C   0  0  0  0  0  0  0  0  0  0  0  0
   -7.3435   -0.8175   -0.2359 C   0  0  0  0  0  0  0  0  0  0  0  0
   -7.0821    1.0485    1.4105 C   0  0  0  0  0  0  0  0  0  0  0  0
   -2.4249    2.6935   -0.0688 C   0  0  0  0  0  0  0  0  0  0  0  0
   -3.5038    3.7747    0.1541 C   0  0  0  0  0  0  0  0  0  0  0  0
   -1.3144    2.9601    0.9753 C   0  0  0  0  0  0  0  0  0  0  0  0
   -1.8838    2.8925   -1.5042 C   0  0  0  0  0  0  0  0  0  0  0  0
    2.5797   -1.8161    1.3246 C   0  0  0  0  0  0  0  0  0  0  0  0
    3.8688   -2.1286    0.8437 C   0  0  0  0  0  0  0  0  0  0  0  0
    4.4177   -3.3959    1.0793 C   0  0  0  0  0  0  0  0  0  0  0  0
    3.6805   -4.3638    1.7822 C   0  0  0  0  0  0  0  0  0  0  0  0
    2.3940   -4.0592    2.2513 C   0  0  0  0  0  0  0  0  0  0  0  0
    1.8410   -2.7876    2.0283 C   0  0  0  0  0  0  0  0  0  0  0  0
    2.6119    0.9420    2.2328 C   0  0  0  0  0  0  0  0  0  0  0  0
    3.0643    2.2311    1.8925 C   0  0  0  0  0  0  0  0  0  0  0  0
    3.5438    3.0917    2.8920 C   0  0  0  0  0  0  0  0  0  0  0  0
    3.5741    2.6676    4.2294 C   0  0  0  0  0  0  0  0  0  0  0  0
    3.1294    1.3786    4.5697 C   0  0  0  0  0  0  0  0  0  0  0  0
    2.6514    0.5132    3.5763 C   0  0  0  0  0  0  0  0  0  0  0  0
   -4.8525   -2.1925   -0.1034 H   0  0  0  0  0  0  0  0  0  0  0  0
   -4.9184    2.0099    0.7332 H   0  0  0  0  0  0  0  0  0  0  0  0
   -2.5225   -1.6972   -3.1332 H   0  0  0  0  0  0  0  0  0  0  0  0
   -0.9511   -1.2981   -2.3812 H   0  0  0  0  0  0  0  0  0  0  0  0
   -1.2647   -2.9655   -2.9156 H   0  0  0  0  0  0  0  0  0  0  0  0
   -0.3542   -2.4540   -0.0707 H   0  0  0  0  0  0  0  0  0  0  0  0
   -0.9336   -4.0528   -0.5863 H   0  0  0  0  0  0  0  0  0  0  0  0
   -1.6560   -3.2588    0.8556 H   0  0  0  0  0  0  0  0  0  0  0  0
   -2.9074   -4.3875   -1.8691 H   0  0  0  0  0  0  0  0  0  0  0  0
   -3.8154   -3.9563   -0.3962 H   0  0  0  0  0  0  0  0  0  0  0  0
   -4.2258   -3.1835   -1.9682 H   0  0  0  0  0  0  0  0  0  0  0  0
   -7.3321   -0.1162   -1.0946 H   0  0  0  0  0  0  0  0  0  0  0  0
   -6.9852   -1.8014   -0.5984 H   0  0  0  0  0  0  0  0  0  0  0  0
   -8.3957   -0.9436    0.0928 H   0  0  0  0  0  0  0  0  0  0  0  0
   -6.1136   -2.2793    1.8002 H   0  0  0  0  0  0  0  0  0  0  0  0
   -7.5445   -1.4298    2.4628 H   0  0  0  0  0  0  0  0  0  0  0  0
   -5.8905   -0.9237    2.9482 H   0  0  0  0  0  0  0  0  0  0  0  0
   -8.1204    0.8826    1.7613 H   0  0  0  0  0  0  0  0  0  0  0  0
   -6.5086    1.4788    2.2562 H   0  0  0  0  0  0  0  0  0  0  0  0
   -7.1223    1.8039    0.6001 H   0  0  0  0  0  0  0  0  0  0  0  0
   -4.3549    3.6692   -0.5477 H   0  0  0  0  0  0  0  0  0  0  0  0
   -3.8989    3.7687    1.1899 H   0  0  0  0  0  0  0  0  0  0  0  0
   -3.0512    4.7710   -0.0183 H   0  0  0  0  0  0  0  0  0  0  0  0
   -1.6579    2.7054    1.9975 H   0  0  0  0  0  0  0  0  0  0  0  0
   -1.0365    4.0334    0.9568 H   0  0  0  0  0  0  0  0  0  0  0  0
   -0.3897    2.3894    0.7773 H   0  0  0  0  0  0  0  0  0  0  0  0
   -1.4355    3.9009   -1.6102 H   0  0  0  0  0  0  0  0  0  0  0  0
   -1.0962    2.1601   -1.7710 H   0  0  0  0  0  0  0  0  0  0  0  0
   -2.6993    2.7898   -2.2477 H   0  0  0  0  0  0  0  0  0  0  0  0
    4.4340   -1.3804    0.2654 H   0  0  0  0  0  0  0  0  0  0  0  0
    5.4227   -3.6339    0.6995 H   0  0  0  0  0  0  0  0  0  0  0  0
    4.1088   -5.3624    1.9568 H   0  0  0  0  0  0  0  0  0  0  0  0
    1.8101   -4.8172    2.7953 H   0  0  0  0  0  0  0  0  0  0  0  0
    0.8323   -2.5555    2.3980 H   0  0  0  0  0  0  0  0  0  0  0  0
    3.0430    2.5535    0.8417 H   0  0  0  0  0  0  0  0  0  0  0  0
    3.8994    4.0970    2.6207 H   0  0  0  0  0  0  0  0  0  0  0  0
    3.9524    3.3425    5.0123 H   0  0  0  0  0  0  0  0  0  0  0  0
    3.1590    1.0433    5.6176 H   0  0  0  0  0  0  0  0  0  0  0  0
    2.3142   -0.4999    3.8423 H   0  0  0  0  0  0  0  0  0  0  0  0
  2  5  1  0  0  0  0
  2  4  2  0  0  0  0
  3  4  1  0  0  0  0
  3 23  1  0  0  0  0
  3 29  1  0  0  0  0
  4  1  1  0  0  0  0
  5 10  1  0  0  0  0
  6  5  2  0  0  0  0
  6  7  1  0  0  0  0
  7  8  2  0  0  0  0
  8 15  1  0  0  0  0
  9  8  1  0  0  0  0
  9 36  1  0  0  0  0
 10  9  2  0  0  0  0
 11  6  1  0  0  0  0
 11 13  1  0  0  0  0
 12 38  1  0  0  0  0
 12 11  1  0  0  0  0
 13 40  1  0  0  0  0
 13 42  1  0  0  0  0
 14 11  1  0  0  0  0
 14 44  1  0  0  0  0
 15 18  1  0  0  0  0
 15 16  1  0  0  0  0
 16 50  1  0  0  0  0
 16 51  1  0  0  0  0
 17 48  1  0  0  0  0
 17 15  1  0  0  0  0
 18 52  1  0  0  0  0
 18 53  1  0  0  0  0
 19 10  1  0  0  0  0
 19 20  1  0  0  0  0
 19 21  1  0  0  0  0
 20 56  1  0  0  0  0
 21 58  1  0  0  0  0
 22 19  1  0  0  0  0
 23 28  1  0  0  0  0
 24 25  1  0  0  0  0
 24 23  2  0  0  0  0
 25 26  2  0  0  0  0
 26 66  1  0  0  0  0
 26 27  1  0  0  0  0
 27 67  1  0  0  0  0
 28 27  2  0  0  0  0
 28 68  1  0  0  0  0
 29 34  1  0  0  0  0
 30 29  2  0  0  0  0
 30 31  1  0  0  0  0
 31 32  2  0  0  0  0
 32 33  1  0  0  0  0
 32 71  1  0  0  0  0
 33 72  1  0  0  0  0
 34 73  1  0  0  0  0
 34 33  2  0  0  0  0
 35  7  1  0  0  0  0
 37 12  1  0  0  0  0
 39 12  1  0  0  0  0
 41 13  1  0  0  0  0
 43 14  1  0  0  0  0
 45 14  1  0  0  0  0
 46 17  1  0  0  0  0
 47 17  1  0  0  0  0
 49 16  1  0  0  0  0
 54 18  1  0  0  0  0
 55 20  1  0  0  0  0
 57 20  1  0  0  0  0
 59 21  1  0  0  0  0
 60 21  1  0  0  0  0
 61 22  1  0  0  0  0
 62 22  1  0  0  0  0
 63 22  1  0  0  0  0
 64 24  1  0  0  0  0
 65 25  1  0  0  0  0
 69 30  1  0  0  0  0
 70 31  1  0  0  0  0
M  END
