1,2
 OpenBabel05122313063D

 53 56  0  0  0  0  0  0  0  0999 V2000
    1.0923   -0.3394    0.6541 P   0  0  0  0  0  0  0  0  0  0  0  0
   -1.2834    0.4548   -0.6092 P   0  0  0  0  0  0  0  0  0  0  0  0
    1.7870   -0.6913    2.6477 S   0  0  0  0  0  0  0  0  0  0  0  0
    2.7218    0.5557   -0.4112 S   0  0  0  0  0  0  0  0  0  0  0  0
   -0.5655    1.2199   -2.4588 S   0  0  0  0  0  0  0  0  0  0  0  0
   -3.1379    1.5020   -0.2948 S   0  0  0  0  0  0  0  0  0  0  0  0
   -0.0909    1.1831    0.7321 C   0  0  0  0  0  0  0  0  0  0  0  0
    0.4464    2.4086    0.5449 F   0  0  0  0  0  0  0  0  0  0  0  0
   -0.7515    1.2070    1.9294 F   0  0  0  0  0  0  0  0  0  0  0  0
    2.7596    0.7823    2.9550 C   0  0  0  0  0  0  0  0  0  0  0  0
    4.1565    0.7321    2.7824 C   0  0  0  0  0  0  0  0  0  0  0  0
    4.6276   -0.2033    2.4482 H   0  0  0  0  0  0  0  0  0  0  0  0
    4.9274    1.8767    3.0340 C   0  0  0  0  0  0  0  0  0  0  0  0
    6.0189    1.8378    2.8999 H   0  0  0  0  0  0  0  0  0  0  0  0
    4.3084    3.0670    3.4469 C   0  0  0  0  0  0  0  0  0  0  0  0
    4.9157    3.9642    3.6402 H   0  0  0  0  0  0  0  0  0  0  0  0
    2.9141    3.1145    3.6117 C   0  0  0  0  0  0  0  0  0  0  0  0
    2.4269    4.0476    3.9329 H   0  0  0  0  0  0  0  0  0  0  0  0
    2.1345    1.9748    3.3698 C   0  0  0  0  0  0  0  0  0  0  0  0
    1.0427    2.0016    3.4907 H   0  0  0  0  0  0  0  0  0  0  0  0
    3.1940   -0.8420   -1.4225 C   0  0  0  0  0  0  0  0  0  0  0  0
    3.4309   -2.1116   -0.8597 C   0  0  0  0  0  0  0  0  0  0  0  0
    3.3236   -2.2623    0.2249 H   0  0  0  0  0  0  0  0  0  0  0  0
    3.7873   -3.1806   -1.6933 C   0  0  0  0  0  0  0  0  0  0  0  0
    3.9410   -4.1777   -1.2544 H   0  0  0  0  0  0  0  0  0  0  0  0
    3.9449   -2.9795   -3.0742 C   0  0  0  0  0  0  0  0  0  0  0  0
    4.2266   -3.8210   -3.7245 H   0  0  0  0  0  0  0  0  0  0  0  0
    3.7331   -1.7059   -3.6252 C   0  0  0  0  0  0  0  0  0  0  0  0
    3.8427   -1.5470   -4.7084 H   0  0  0  0  0  0  0  0  0  0  0  0
    3.3429   -0.6363   -2.8065 C   0  0  0  0  0  0  0  0  0  0  0  0
    3.1266    0.3523   -3.2371 H   0  0  0  0  0  0  0  0  0  0  0  0
   -0.8288    2.9953   -2.3841 C   0  0  0  0  0  0  0  0  0  0  0  0
   -2.0846    3.5307   -2.7315 C   0  0  0  0  0  0  0  0  0  0  0  0
   -2.9058    2.8529   -3.0058 H   0  0  0  0  0  0  0  0  0  0  0  0
   -2.2704    4.9210   -2.7198 C   0  0  0  0  0  0  0  0  0  0  0  0
   -3.2531    5.3407   -2.9830 H   0  0  0  0  0  0  0  0  0  0  0  0
   -1.2057    5.7722   -2.3835 C   0  0  0  0  0  0  0  0  0  0  0  0
   -1.3538    6.8627   -2.3804 H   0  0  0  0  0  0  0  0  0  0  0  0
    0.0499    5.2337   -2.0567 C   0  0  0  0  0  0  0  0  0  0  0  0
    0.8865    5.9003   -1.7978 H   0  0  0  0  0  0  0  0  0  0  0  0
    0.2441    3.8453   -2.0534 C   0  0  0  0  0  0  0  0  0  0  0  0
    1.2175    3.4096   -1.7870 H   0  0  0  0  0  0  0  0  0  0  0  0
   -3.9149    0.3358    0.8256 C   0  0  0  0  0  0  0  0  0  0  0  0
   -3.9162    0.6024    2.2078 C   0  0  0  0  0  0  0  0  0  0  0  0
   -3.3969    1.4939    2.5866 H   0  0  0  0  0  0  0  0  0  0  0  0
   -4.5600   -0.2854    3.0809 C   0  0  0  0  0  0  0  0  0  0  0  0
   -4.5560   -0.0834    4.1625 H   0  0  0  0  0  0  0  0  0  0  0  0
   -5.1861   -1.4387    2.5815 C   0  0  0  0  0  0  0  0  0  0  0  0
   -5.6755   -2.1410    3.2728 H   0  0  0  0  0  0  0  0  0  0  0  0
   -5.1787   -1.7026    1.2024 C   0  0  0  0  0  0  0  0  0  0  0  0
   -5.6581   -2.6102    0.8061 H   0  0  0  0  0  0  0  0  0  0  0  0
   -4.5532   -0.8120    0.3187 C   0  0  0  0  0  0  0  0  0  0  0  0
   -4.5479   -1.0058   -0.7629 H   0  0  0  0  0  0  0  0  0  0  0  0
  1  7  1  0  0  0  0
  1  3  1  0  0  0  0
  2  6  1  0  0  0  0
  2  7  1  0  0  0  0
  3 10  1  0  0  0  0
  4  1  1  0  0  0  0
  5 32  1  0  0  0  0
  5  2  1  0  0  0  0
  6 43  1  0  0  0  0
  7  9  1  0  0  0  0
  8  7  1  0  0  0  0
 10 19  1  0  0  0  0
 11 10  2  0  0  0  0
 11 13  1  0  0  0  0
 12 11  1  0  0  0  0
 13 15  2  0  0  0  0
 14 13  1  0  0  0  0
 15 17  1  0  0  0  0
 15 16  1  0  0  0  0
 17 18  1  0  0  0  0
 19 20  1  0  0  0  0
 19 17  2  0  0  0  0
 21 22  1  0  0  0  0
 21  4  1  0  0  0  0
 22 23  1  0  0  0  0
 24 25  1  0  0  0  0
 24 22  2  0  0  0  0
 26 24  1  0  0  0  0
 27 26  1  0  0  0  0
 28 26  2  0  0  0  0
 28 30  1  0  0  0  0
 29 28  1  0  0  0  0
 30 21  2  0  0  0  0
 31 30  1  0  0  0  0
 32 41  1  0  0  0  0
 33 35  1  0  0  0  0
 33 32  2  0  0  0  0
 34 33  1  0  0  0  0
 35 37  2  0  0  0  0
 36 35  1  0  0  0  0
 37 38  1  0  0  0  0
 37 39  1  0  0  0  0
 39 41  2  0  0  0  0
 39 40  1  0  0  0  0
 41 42  1  0  0  0  0
 43 44  1  0  0  0  0
 44 45  1  0  0  0  0
 44 46  2  0  0  0  0
 46 47  1  0  0  0  0
 48 46  1  0  0  0  0
 48 49  1  0  0  0  0
 50 48  2  0  0  0  0
 51 50  1  0  0  0  0
 52 43  2  0  0  0  0
 52 50  1  0  0  0  0
 53 52  1  0  0  0  0
M  END
