1,2
 OpenBabel05122313063D

 82 88  0  0  0  0  0  0  0  0999 V2000
    2.1601    0.8611   -0.0380 P   0  0  0  0  0  0  0  0  0  0  0  0
   -2.3975    0.2871   -0.1061 P   0  0  0  0  0  0  0  0  0  0  0  0
    1.6917   -2.3958   -1.7515 C   0  0  0  0  0  0  0  0  0  0  0  0
    0.5345   -2.6886   -0.9999 C   0  0  0  0  0  0  0  0  0  0  0  0
    0.6113   -2.8132    0.0912 H   0  0  0  0  0  0  0  0  0  0  0  0
    3.1753    0.2153   -1.4767 C   0  0  0  0  0  0  0  0  0  0  0  0
    2.4589    0.1572   -2.3204 H   0  0  0  0  0  0  0  0  0  0  0  0
    3.9564    0.9692   -1.6998 H   0  0  0  0  0  0  0  0  0  0  0  0
    5.0980   -1.1308   -0.5718 C   0  0  0  0  0  0  0  0  0  0  0  0
    5.6762   -0.1943   -0.5473 H   0  0  0  0  0  0  0  0  0  0  0  0
   -2.9238    1.9515   -0.6792 C   0  0  0  0  0  0  0  0  0  0  0  0
   -4.1687    2.1835   -1.2978 C   0  0  0  0  0  0  0  0  0  0  0  0
   -4.8699    1.3536   -1.4733 H   0  0  0  0  0  0  0  0  0  0  0  0
   -3.1029   -2.3305   -0.8270 C   0  0  0  0  0  0  0  0  0  0  0  0
   -4.3947    0.8504    1.8449 C   0  0  0  0  0  0  0  0  0  0  0  0
   -4.6220    1.7597    1.2699 H   0  0  0  0  0  0  0  0  0  0  0  0
   -0.8132   -2.6324   -3.0207 C   0  0  0  0  0  0  0  0  0  0  0  0
   -1.7892   -2.7450   -3.5168 H   0  0  0  0  0  0  0  0  0  0  0  0
   -0.7263   -2.8034   -1.6237 C   0  0  0  0  0  0  0  0  0  0  0  0
   -3.0670   -1.1650    2.1858 C   0  0  0  0  0  0  0  0  0  0  0  0
   -2.2456   -1.8278    1.8816 H   0  0  0  0  0  0  0  0  0  0  0  0
   -3.0935   -0.9228   -1.3628 C   0  0  0  0  0  0  0  0  0  0  0  0
   -4.1208   -0.5974   -1.6174 H   0  0  0  0  0  0  0  0  0  0  0  0
   -2.4376   -0.7770   -2.2433 H   0  0  0  0  0  0  0  0  0  0  0  0
    3.7906   -1.1089   -1.0996 C   0  0  0  0  0  0  0  0  0  0  0  0
    1.5746   -2.2205   -3.1454 C   0  0  0  0  0  0  0  0  0  0  0  0
    2.4768   -2.0022   -3.7369 H   0  0  0  0  0  0  0  0  0  0  0  0
    3.0367   -2.3141   -1.1131 C   0  0  0  0  0  0  0  0  0  0  0  0
   -4.2586   -2.7952   -0.1653 C   0  0  0  0  0  0  0  0  0  0  0  0
   -5.1503   -2.1497   -0.1413 H   0  0  0  0  0  0  0  0  0  0  0  0
   -1.9458   -3.1591   -0.8460 C   0  0  0  0  0  0  0  0  0  0  0  0
   -4.2830   -4.0318    0.4919 C   0  0  0  0  0  0  0  0  0  0  0  0
   -5.1999   -4.3648    1.0006 H   0  0  0  0  0  0  0  0  0  0  0  0
   -1.9739   -4.3867   -0.1503 C   0  0  0  0  0  0  0  0  0  0  0  0
   -1.0728   -5.0186   -0.1676 H   0  0  0  0  0  0  0  0  0  0  0  0
   -2.0488    3.0360   -0.4607 C   0  0  0  0  0  0  0  0  0  0  0  0
   -1.0665    2.8553    0.0029 H   0  0  0  0  0  0  0  0  0  0  0  0
    3.2027   -0.6181    2.0965 C   0  0  0  0  0  0  0  0  0  0  0  0
    2.4039   -1.3344    1.8616 H   0  0  0  0  0  0  0  0  0  0  0  0
    2.0372    2.6781   -0.2246 C   0  0  0  0  0  0  0  0  0  0  0  0
   -3.8070   -1.4522    3.3403 C   0  0  0  0  0  0  0  0  0  0  0  0
   -3.5672   -2.3524    3.9257 H   0  0  0  0  0  0  0  0  0  0  0  0
    3.5994   -3.4797   -0.5510 C   0  0  0  0  0  0  0  0  0  0  0  0
    3.0057   -4.4066   -0.5637 H   0  0  0  0  0  0  0  0  0  0  0  0
   -5.1256    0.5607    3.0075 C   0  0  0  0  0  0  0  0  0  0  0  0
   -5.9239    1.2454    3.3323 H   0  0  0  0  0  0  0  0  0  0  0  0
   -4.5300    3.4805   -1.6945 C   0  0  0  0  0  0  0  0  0  0  0  0
   -5.5020    3.6504   -2.1822 H   0  0  0  0  0  0  0  0  0  0  0  0
    4.2865    1.5304    1.7028 C   0  0  0  0  0  0  0  0  0  0  0  0
    4.3457    2.4839    1.1561 H   0  0  0  0  0  0  0  0  0  0  0  0
   -3.6542    4.5551   -1.4730 C   0  0  0  0  0  0  0  0  0  0  0  0
   -3.9383    5.5703   -1.7898 H   0  0  0  0  0  0  0  0  0  0  0  0
    0.3298   -2.3424   -3.7743 C   0  0  0  0  0  0  0  0  0  0  0  0
    0.2504   -2.2136   -4.8641 H   0  0  0  0  0  0  0  0  0  0  0  0
    3.2748    0.5998    1.3913 C   0  0  0  0  0  0  0  0  0  0  0  0
   -2.4147    4.3302   -0.8531 C   0  0  0  0  0  0  0  0  0  0  0  0
   -1.7141    5.1619   -0.6832 H   0  0  0  0  0  0  0  0  0  0  0  0
   -3.1257   -4.8230    0.5188 C   0  0  0  0  0  0  0  0  0  0  0  0
   -3.1225   -5.7892    1.0457 H   0  0  0  0  0  0  0  0  0  0  0  0
    1.3687    4.7965    0.7809 C   0  0  0  0  0  0  0  0  0  0  0  0
    1.0398    5.3687    1.6617 H   0  0  0  0  0  0  0  0  0  0  0  0
   -4.8370   -0.5926    3.7535 C   0  0  0  0  0  0  0  0  0  0  0  0
   -5.4108   -0.8171    4.6657 H   0  0  0  0  0  0  0  0  0  0  0  0
    4.1436   -0.9049    3.0947 C   0  0  0  0  0  0  0  0  0  0  0  0
    4.0846   -1.8601    3.6375 H   0  0  0  0  0  0  0  0  0  0  0  0
   -3.3690   -0.0179    1.4192 C   0  0  0  0  0  0  0  0  0  0  0  0
    1.6129    3.4219    0.9000 C   0  0  0  0  0  0  0  0  0  0  0  0
    1.4550    2.9108    1.8629 H   0  0  0  0  0  0  0  0  0  0  0  0
    2.1898    3.3213   -1.4681 C   0  0  0  0  0  0  0  0  0  0  0  0
    2.4753    2.7467   -2.3602 H   0  0  0  0  0  0  0  0  0  0  0  0
    4.8932   -3.4789   -0.0127 C   0  0  0  0  0  0  0  0  0  0  0  0
    5.3111   -4.4023    0.4164 H   0  0  0  0  0  0  0  0  0  0  0  0
    5.1522    0.0216    3.4028 C   0  0  0  0  0  0  0  0  0  0  0  0
    5.8870   -0.2047    4.1906 H   0  0  0  0  0  0  0  0  0  0  0  0
    1.5316    5.4378   -0.4597 C   0  0  0  0  0  0  0  0  0  0  0  0
    1.3352    6.5169   -0.5531 H   0  0  0  0  0  0  0  0  0  0  0  0
    5.6541   -2.3008   -0.0407 C   0  0  0  0  0  0  0  0  0  0  0  0
    6.6749   -2.2855    0.3694 H   0  0  0  0  0  0  0  0  0  0  0  0
    5.2207    1.2405    2.7089 C   0  0  0  0  0  0  0  0  0  0  0  0
    6.0076    1.9714    2.9501 H   0  0  0  0  0  0  0  0  0  0  0  0
    1.9395    4.6980   -1.5802 C   0  0  0  0  0  0  0  0  0  0  0  0
    2.0565    5.1931   -2.5560 H   0  0  0  0  0  0  0  0  0  0  0  0
  1 55  1  0  0  0  0
  2 66  1  0  0  0  0
  3 28  1  0  0  0  0
  3  4  1  0  0  0  0
  4  5  1  0  0  0  0
  6 25  1  0  0  0  0
  6  1  1  0  0  0  0
  7  6  1  0  0  0  0
  8  6  1  0  0  0  0
  9 10  1  0  0  0  0
  9 77  1  0  0  0  0
 11 36  1  0  0  0  0
 11  2  1  0  0  0  0
 12 11  2  0  0  0  0
 13 12  1  0  0  0  0
 14 29  1  0  0  0  0
 15 45  1  0  0  0  0
 16 15  1  0  0  0  0
 17 19  1  0  0  0  0
 18 17  1  0  0  0  0
 19  4  2  0  0  0  0
 19 31  1  0  0  0  0
 20 41  2  0  0  0  0
 21 20  1  0  0  0  0
 22 14  1  0  0  0  0
 22  2  1  0  0  0  0
 23 22  1  0  0  0  0
 24 22  1  0  0  0  0
 25  9  2  0  0  0  0
 26  3  2  0  0  0  0
 27 26  1  0  0  0  0
 28 25  1  0  0  0  0
 28 43  2  0  0  0  0
 29 30  1  0  0  0  0
 29 32  2  0  0  0  0
 31 14  2  0  0  0  0
 31 34  1  0  0  0  0
 32 58  1  0  0  0  0
 32 33  1  0  0  0  0
 34 58  2  0  0  0  0
 35 34  1  0  0  0  0
 36 37  1  0  0  0  0
 38 64  1  0  0  0  0
 39 38  1  0  0  0  0
 40  1  1  0  0  0  0
 40 67  1  0  0  0  0
 41 62  1  0  0  0  0
 41 42  1  0  0  0  0
 43 71  1  0  0  0  0
 44 43  1  0  0  0  0
 45 46  1  0  0  0  0
 45 62  2  0  0  0  0
 47 51  2  0  0  0  0
 47 12  1  0  0  0  0
 48 47  1  0  0  0  0
 49 79  2  0  0  0  0
 50 49  1  0  0  0  0
 51 56  1  0  0  0  0
 52 51  1  0  0  0  0
 53 26  1  0  0  0  0
 53 17  2  0  0  0  0
 54 53  1  0  0  0  0
 55 49  1  0  0  0  0
 55 38  2  0  0  0  0
 56 57  1  0  0  0  0
 56 36  2  0  0  0  0
 58 59  1  0  0  0  0
 60 67  2  0  0  0  0
 60 61  1  0  0  0  0
 62 63  1  0  0  0  0
 64 73  2  0  0  0  0
 64 65  1  0  0  0  0
 66 15  2  0  0  0  0
 66 20  1  0  0  0  0
 67 68  1  0  0  0  0
 69 40  2  0  0  0  0
 70 69  1  0  0  0  0
 71 72  1  0  0  0  0
 73 74  1  0  0  0  0
 75 60  1  0  0  0  0
 76 75  1  0  0  0  0
 77 71  2  0  0  0  0
 77 78  1  0  0  0  0
 79 80  1  0  0  0  0
 79 73  1  0  0  0  0
 81 69  1  0  0  0  0
 81 75  2  0  0  0  0
 82 81  1  0  0  0  0
M  END
