55,56
 OpenBabel05122313063D

 56 59  0  0  1  0  0  0  0  0999 V2000
    2.9070   -0.1863    1.4232 C   0  0  0  0  0  0  0  0  0  0  0  0
    2.7505   -0.3201    2.8193 C   0  0  0  0  0  0  0  0  0  0  0  0
    1.8428    0.0458    3.3221 H   0  0  0  0  0  0  0  0  0  0  0  0
    3.7435   -0.9465    3.5868 C   0  0  0  0  0  0  0  0  0  0  0  0
    3.6095   -1.0439    4.6746 H   0  0  0  0  0  0  0  0  0  0  0  0
    4.8959   -1.4548    2.9678 C   0  0  0  0  0  0  0  0  0  0  0  0
    5.6727   -1.9491    3.5704 H   0  0  0  0  0  0  0  0  0  0  0  0
    5.0485   -1.3420    1.5771 C   0  0  0  0  0  0  0  0  0  0  0  0
    5.9413   -1.7540    1.0834 H   0  0  0  0  0  0  0  0  0  0  0  0
    4.0599   -0.7183    0.8035 C   0  0  0  0  0  0  0  0  0  0  0  0
    4.1721   -0.6566   -0.2879 H   0  0  0  0  0  0  0  0  0  0  0  0
    2.3974    1.4611   -0.9518 C   0  0  0  0  0  0  0  0  0  0  0  0
    3.6390    2.1075   -0.7782 C   0  0  0  0  0  0  0  0  0  0  0  0
    4.1984    1.9931    0.1623 H   0  0  0  0  0  0  0  0  0  0  0  0
    4.1659    2.8977   -1.8087 C   0  0  0  0  0  0  0  0  0  0  0  0
    5.1317    3.4050   -1.6665 H   0  0  0  0  0  0  0  0  0  0  0  0
    3.4607    3.0491   -3.0126 C   0  0  0  0  0  0  0  0  0  0  0  0
    3.8759    3.6750   -3.8169 H   0  0  0  0  0  0  0  0  0  0  0  0
    2.2327    2.3939   -3.1958 C   0  0  0  0  0  0  0  0  0  0  0  0
    1.6877    2.4934   -4.1464 H   0  0  0  0  0  0  0  0  0  0  0  0
    1.7043    1.5945   -2.1730 C   0  0  0  0  0  0  0  0  0  0  0  0
    0.7611    1.0421   -2.3185 H   0  0  0  0  0  0  0  0  0  0  0  0
    1.8509    4.0853    0.9040 C   0  0  0  0  0  0  0  0  0  0  0  0
    1.7422    3.0231    1.9047 C   0  0  0  0  0  0  0  0  0  0  0  0
    1.3550    3.4907    2.8360 H   0  0  0  0  0  0  0  0  0  0  0  0
    2.7547    2.6383    2.1512 H   0  0  0  0  0  0  0  0  0  0  0  0
    0.8057    1.8612    1.4975 C   0  0  1  0  0  0  0  0  0  0  0  0
    0.5560    1.3053    2.4263 H   0  0  0  0  0  0  0  0  0  0  0  0
   -0.5006    2.3255    0.8543 C   0  0  0  0  0  0  0  0  0  0  0  0
   -0.2941    2.8683   -0.0915 H   0  0  0  0  0  0  0  0  0  0  0  0
   -1.0588    3.0185    1.5170 H   0  0  0  0  0  0  0  0  0  0  0  0
   -2.3387    0.4571    2.0743 C   0  0  0  0  0  0  0  0  0  0  0  0
   -2.0933   -0.7899    2.6818 C   0  0  0  0  0  0  0  0  0  0  0  0
   -1.4986   -1.5435    2.1411 H   0  0  0  0  0  0  0  0  0  0  0  0
   -2.6274   -1.0673    3.9500 C   0  0  0  0  0  0  0  0  0  0  0  0
   -2.4362   -2.0446    4.4180 H   0  0  0  0  0  0  0  0  0  0  0  0
   -3.4106   -0.1083    4.6104 C   0  0  0  0  0  0  0  0  0  0  0  0
   -3.8330   -0.3301    5.6023 H   0  0  0  0  0  0  0  0  0  0  0  0
   -3.6639    1.1338    4.0032 C   0  0  0  0  0  0  0  0  0  0  0  0
   -4.2853    1.8836    4.5160 H   0  0  0  0  0  0  0  0  0  0  0  0
   -3.1299    1.4190    2.7387 C   0  0  0  0  0  0  0  0  0  0  0  0
   -3.3427    2.3883    2.2604 H   0  0  0  0  0  0  0  0  0  0  0  0
   -2.8725    1.5078   -0.6193 C   0  0  0  0  0  0  0  0  0  0  0  0
   -2.5276    2.3541   -1.6938 C   0  0  0  0  0  0  0  0  0  0  0  0
   -1.4801    2.6473   -1.8635 H   0  0  0  0  0  0  0  0  0  0  0  0
   -3.5190    2.8153   -2.5710 C   0  0  0  0  0  0  0  0  0  0  0  0
   -3.2423    3.4774   -3.4051 H   0  0  0  0  0  0  0  0  0  0  0  0
   -4.8561    2.4273   -2.3894 C   0  0  0  0  0  0  0  0  0  0  0  0
   -5.6325    2.7876   -3.0809 H   0  0  0  0  0  0  0  0  0  0  0  0
   -5.1988    1.5702   -1.3320 C   0  0  0  0  0  0  0  0  0  0  0  0
   -6.2429    1.2511   -1.1953 H   0  0  0  0  0  0  0  0  0  0  0  0
   -4.2128    1.1037   -0.4513 C   0  0  0  0  0  0  0  0  0  0  0  0
   -4.4802    0.4152    0.3630 H   0  0  0  0  0  0  0  0  0  0  0  0
    1.8910    4.9525    0.1178 N   0  0  0  0  0  0  0  0  0  0  0  0
    1.5772    0.5270    0.3900 P   0  0  0  0  0  0  0  0  0  0  0  0
   -1.5587    0.8384    0.4589 P   0  0  0  0  0  0  0  0  0  0  0  0
  1  2  1  0  0  0  0
  2  3  1  0  0  0  0
  2  4  2  0  0  0  0
  4  5  1  0  0  0  0
  6  7  1  0  0  0  0
  6  4  1  0  0  0  0
  8  6  2  0  0  0  0
  9  8  1  0  0  0  0
 10  1  2  0  0  0  0
 10  8  1  0  0  0  0
 11 10  1  0  0  0  0
 12 13  1  0  0  0  0
 12 55  1  0  0  0  0
 13 14  1  0  0  0  0
 15 16  1  0  0  0  0
 15 13  2  0  0  0  0
 17 15  1  0  0  0  0
 18 17  1  0  0  0  0
 19 17  2  0  0  0  0
 19 21  1  0  0  0  0
 20 19  1  0  0  0  0
 21 12  2  0  0  0  0
 22 21  1  0  0  0  0
 23 24  1  0  0  0  0
 24 26  1  0  0  0  0
 24 25  1  0  0  0  0
 27 24  1  0  0  0  0
 27 28  1  1  0  0  0
 29 27  1  0  0  0  0
 29 31  1  0  0  0  0
 30 29  1  0  0  0  0
 32 33  2  0  0  0  0
 32 41  1  0  0  0  0
 33 35  1  0  0  0  0
 34 33  1  0  0  0  0
 35 36  1  0  0  0  0
 35 37  2  0  0  0  0
 37 38  1  0  0  0  0
 39 40  1  0  0  0  0
 39 37  1  0  0  0  0
 41 39  2  0  0  0  0
 42 41  1  0  0  0  0
 43 52  1  0  0  0  0
 43 56  1  0  0  0  0
 44 43  2  0  0  0  0
 45 44  1  0  0  0  0
 46 48  2  0  0  0  0
 46 44  1  0  0  0  0
 47 46  1  0  0  0  0
 48 50  1  0  0  0  0
 49 48  1  0  0  0  0
 50 51  1  0  0  0  0
 50 52  2  0  0  0  0
 52 53  1  0  0  0  0
 54 23  3  0  0  0  0
 55  1  1  0  0  0  0
 55 27  1  0  0  0  0
 56 29  1  0  0  0  0
 56 32  1  0  0  0  0
M  END
