1,2
 OpenBabel05122313063D

 63 66  0  0  0  0  0  0  0  0999 V2000
    1.0586    1.4109   -0.2453 P   0  0  0  0  0  0  0  0  0  0  0  0
    0.4989   -1.5905   -0.2558 P   0  0  0  0  0  0  0  0  0  0  0  0
    3.0570   -0.4779   -0.6511 N   0  0  0  0  0  0  0  0  0  0  0  0
    0.7650   -1.8884    1.5406 C   0  0  0  0  0  0  0  0  0  0  0  0
    1.3448    4.2324    0.0750 C   0  0  0  0  0  0  0  0  0  0  0  0
    1.6054    4.0245    1.1232 H   0  0  0  0  0  0  0  0  0  0  0  0
    2.2139   -1.5987   -1.0150 C   0  0  0  0  0  0  0  0  0  0  0  0
    2.7034   -2.5415   -0.6950 H   0  0  0  0  0  0  0  0  0  0  0  0
    2.0194   -1.6889   -2.1157 H   0  0  0  0  0  0  0  0  0  0  0  0
    1.0314    3.1697   -0.7949 C   0  0  0  0  0  0  0  0  0  0  0  0
    2.6109    0.8184   -1.1158 C   0  0  0  0  0  0  0  0  0  0  0  0
    2.3692    0.8607   -2.2091 H   0  0  0  0  0  0  0  0  0  0  0  0
    3.4098    1.5657   -0.9370 H   0  0  0  0  0  0  0  0  0  0  0  0
    1.5636    1.4809    1.5239 C   0  0  0  0  0  0  0  0  0  0  0  0
   -0.0700   -3.2263   -0.8943 C   0  0  0  0  0  0  0  0  0  0  0  0
   -0.3729   -2.1180    2.3442 C   0  0  0  0  0  0  0  0  0  0  0  0
   -1.3711   -2.1266    1.8766 H   0  0  0  0  0  0  0  0  0  0  0  0
    0.1311   -4.4157   -0.1650 C   0  0  0  0  0  0  0  0  0  0  0  0
    0.5914   -4.3755    0.8337 H   0  0  0  0  0  0  0  0  0  0  0  0
    0.6713    3.4478   -2.1313 C   0  0  0  0  0  0  0  0  0  0  0  0
    0.3874    2.6305   -2.8105 H   0  0  0  0  0  0  0  0  0  0  0  0
    0.6557    4.7711   -2.5939 C   0  0  0  0  0  0  0  0  0  0  0  0
    0.3763    4.9782   -3.6380 H   0  0  0  0  0  0  0  0  0  0  0  0
    0.5644    1.3070    2.5026 C   0  0  0  0  0  0  0  0  0  0  0  0
   -0.4777    1.1525    2.1805 H   0  0  0  0  0  0  0  0  0  0  0  0
   -0.6705   -3.2858   -2.1691 C   0  0  0  0  0  0  0  0  0  0  0  0
   -0.8438   -2.3622   -2.7396 H   0  0  0  0  0  0  0  0  0  0  0  0
    0.8985    1.3204    3.8641 C   0  0  0  0  0  0  0  0  0  0  0  0
    0.1106    1.1759    4.6182 H   0  0  0  0  0  0  0  0  0  0  0  0
    0.9755    5.8274   -1.7256 C   0  0  0  0  0  0  0  0  0  0  0  0
    0.9507    6.8664   -2.0882 H   0  0  0  0  0  0  0  0  0  0  0  0
    4.4901   -0.7229   -0.8081 C   0  0  0  0  0  0  0  0  0  0  0  0
    5.0313    0.1095   -0.3042 H   0  0  0  0  0  0  0  0  0  0  0  0
    4.7407   -1.6419   -0.2310 H   0  0  0  0  0  0  0  0  0  0  0  0
   -0.2646   -5.6484   -0.7053 C   0  0  0  0  0  0  0  0  0  0  0  0
   -0.1099   -6.5718   -0.1263 H   0  0  0  0  0  0  0  0  0  0  0  0
   -1.0569   -4.5222   -2.7070 C   0  0  0  0  0  0  0  0  0  0  0  0
   -1.5273   -4.5583   -3.7012 H   0  0  0  0  0  0  0  0  0  0  0  0
   -0.8585   -5.7040   -1.9762 C   0  0  0  0  0  0  0  0  0  0  0  0
   -1.1720   -6.6719   -2.3965 H   0  0  0  0  0  0  0  0  0  0  0  0
    5.0072   -0.8703   -2.2480 C   0  0  0  0  0  0  0  0  0  0  0  0
    4.7555    0.0468   -2.8239 H   0  0  0  0  0  0  0  0  0  0  0  0
    4.4691   -1.7043   -2.7484 H   0  0  0  0  0  0  0  0  0  0  0  0
    2.2329    1.4978    4.2604 C   0  0  0  0  0  0  0  0  0  0  0  0
    2.4966    1.4968    5.3291 H   0  0  0  0  0  0  0  0  0  0  0  0
    1.0390   -2.2575    4.3203 C   0  0  0  0  0  0  0  0  0  0  0  0
    1.1466   -2.3968    5.4068 H   0  0  0  0  0  0  0  0  0  0  0  0
   -0.2320   -2.3142    3.7244 C   0  0  0  0  0  0  0  0  0  0  0  0
   -1.1247   -2.5007    4.3409 H   0  0  0  0  0  0  0  0  0  0  0  0
    2.0377   -1.8254    2.1426 C   0  0  0  0  0  0  0  0  0  0  0  0
    2.9213   -1.5881    1.5351 H   0  0  0  0  0  0  0  0  0  0  0  0
    2.1693   -2.0072    3.5277 C   0  0  0  0  0  0  0  0  0  0  0  0
    3.1653   -1.9402    3.9909 H   0  0  0  0  0  0  0  0  0  0  0  0
    3.2339    1.6689    3.2905 C   0  0  0  0  0  0  0  0  0  0  0  0
    4.2822    1.8077    3.5966 H   0  0  0  0  0  0  0  0  0  0  0  0
    2.9025    1.6605    1.9277 C   0  0  0  0  0  0  0  0  0  0  0  0
    3.6981    1.7972    1.1810 H   0  0  0  0  0  0  0  0  0  0  0  0
    1.3143    5.5557   -0.3913 C   0  0  0  0  0  0  0  0  0  0  0  0
    1.5531    6.3806    0.2974 H   0  0  0  0  0  0  0  0  0  0  0  0
    6.5143   -1.1193   -2.2993 C   0  0  0  0  0  0  0  0  0  0  0  0
    6.8778   -1.2234   -3.3408 H   0  0  0  0  0  0  0  0  0  0  0  0
    6.7892   -2.0477   -1.7559 H   0  0  0  0  0  0  0  0  0  0  0  0
    7.0780   -0.2852   -1.8310 H   0  0  0  0  0  0  0  0  0  0  0  0
  1 14  1  0  0  0  0
  2  4  1  0  0  0  0
  4 50  2  0  0  0  0
  4 16  1  0  0  0  0
  5  6  1  0  0  0  0
  7  8  1  0  0  0  0
  7  3  1  0  0  0  0
  7  2  1  0  0  0  0
  9  7  1  0  0  0  0
 10  1  1  0  0  0  0
 10  5  2  0  0  0  0
 11 13  1  0  0  0  0
 11  3  1  0  0  0  0
 11  1  1  0  0  0  0
 12 11  1  0  0  0  0
 14 56  2  0  0  0  0
 14 24  1  0  0  0  0
 15  2  1  0  0  0  0
 15 18  1  0  0  0  0
 16 48  2  0  0  0  0
 17 16  1  0  0  0  0
 18 19  1  0  0  0  0
 20 10  1  0  0  0  0
 21 20  1  0  0  0  0
 22 20  2  0  0  0  0
 22 30  1  0  0  0  0
 23 22  1  0  0  0  0
 24 28  2  0  0  0  0
 25 24  1  0  0  0  0
 26 15  2  0  0  0  0
 27 26  1  0  0  0  0
 28 44  1  0  0  0  0
 28 29  1  0  0  0  0
 30 58  2  0  0  0  0
 31 30  1  0  0  0  0
 32  3  1  0  0  0  0
 32 33  1  0  0  0  0
 32 34  1  0  0  0  0
 35 18  2  0  0  0  0
 35 36  1  0  0  0  0
 37 26  1  0  0  0  0
 37 39  2  0  0  0  0
 38 37  1  0  0  0  0
 39 35  1  0  0  0  0
 40 39  1  0  0  0  0
 41 32  1  0  0  0  0
 42 41  1  0  0  0  0
 43 41  1  0  0  0  0
 44 45  1  0  0  0  0
 46 47  1  0  0  0  0
 48 46  1  0  0  0  0
 48 49  1  0  0  0  0
 50 52  1  0  0  0  0
 51 50  1  0  0  0  0
 52 53  1  0  0  0  0
 52 46  2  0  0  0  0
 54 55  1  0  0  0  0
 54 44  2  0  0  0  0
 56 54  1  0  0  0  0
 57 56  1  0  0  0  0
 58  5  1  0  0  0  0
 58 59  1  0  0  0  0
 60 41  1  0  0  0  0
 60 63  1  0  0  0  0
 60 62  1  0  0  0  0
 61 60  1  0  0  0  0
M  END
