1,4
 OpenBabel05122313063D

 64 68  0  0  0  0  0  0  0  0999 V2000
    0.2871   -1.1445   -0.0482 P   0  0  0  0  0  0  0  0  0  0  0  0
    0.3613    0.6168    0.0434 N   0  0  0  0  0  0  0  0  0  0  0  0
    1.1593   -1.8320    1.3867 C   0  0  0  0  0  0  0  0  0  0  0  0
   -1.3642    0.9601    0.0566 P   0  0  0  0  0  0  0  0  0  0  0  0
    1.6039   -1.0263    2.4536 C   0  0  0  0  0  0  0  0  0  0  0  0
    1.5026    0.0672    2.4025 H   0  0  0  0  0  0  0  0  0  0  0  0
    2.1758   -1.6283    3.5839 C   0  0  0  0  0  0  0  0  0  0  0  0
    2.5321   -0.9988    4.4131 H   0  0  0  0  0  0  0  0  0  0  0  0
    2.2924   -3.0254    3.6572 C   0  0  0  0  0  0  0  0  0  0  0  0
    2.7419   -3.4933    4.5461 H   0  0  0  0  0  0  0  0  0  0  0  0
    1.8226   -3.8278    2.6041 C   0  0  0  0  0  0  0  0  0  0  0  0
    1.8903   -4.9239    2.6712 H   0  0  0  0  0  0  0  0  0  0  0  0
    1.2497   -3.2391    1.4689 C   0  0  0  0  0  0  0  0  0  0  0  0
    0.8333   -3.8649    0.6643 H   0  0  0  0  0  0  0  0  0  0  0  0
    1.1696   -1.6617   -1.5556 C   0  0  0  0  0  0  0  0  0  0  0  0
    2.4905   -2.1536   -1.5452 C   0  0  0  0  0  0  0  0  0  0  0  0
    3.0391   -2.2693   -0.5981 H   0  0  0  0  0  0  0  0  0  0  0  0
    3.1138   -2.4923   -2.7547 C   0  0  0  0  0  0  0  0  0  0  0  0
    4.1477   -2.8681   -2.7446 H   0  0  0  0  0  0  0  0  0  0  0  0
    2.4237   -2.3457   -3.9687 C   0  0  0  0  0  0  0  0  0  0  0  0
    2.9161   -2.6153   -4.9154 H   0  0  0  0  0  0  0  0  0  0  0  0
    1.1034   -1.8647   -3.9780 C   0  0  0  0  0  0  0  0  0  0  0  0
    0.5571   -1.7640   -4.9277 H   0  0  0  0  0  0  0  0  0  0  0  0
    0.4710   -1.5271   -2.7745 C   0  0  0  0  0  0  0  0  0  0  0  0
   -0.5725   -1.1731   -2.7630 H   0  0  0  0  0  0  0  0  0  0  0  0
    1.4781    1.4761    0.0845 C   0  0  0  0  0  0  0  0  0  0  0  0
    2.7798    0.9442    0.0264 C   0  0  0  0  0  0  0  0  0  0  0  0
    2.9577   -0.1342   -0.0458 H   0  0  0  0  0  0  0  0  0  0  0  0
    3.9040    1.7842    0.0576 C   0  0  0  0  0  0  0  0  0  0  0  0
    3.7486    3.1806    0.1567 C   0  0  0  0  0  0  0  0  0  0  0  0
    4.6340    3.8292    0.1809 H   0  0  0  0  0  0  0  0  0  0  0  0
    2.4533    3.7115    0.2220 C   0  0  0  0  0  0  0  0  0  0  0  0
    2.3088    4.7994    0.3021 H   0  0  0  0  0  0  0  0  0  0  0  0
    1.3257    2.8789    0.1852 C   0  0  0  0  0  0  0  0  0  0  0  0
    0.3227    3.3209    0.2378 H   0  0  0  0  0  0  0  0  0  0  0  0
    5.2364    1.1119   -0.0252 C   0  0  0  0  0  0  0  0  0  0  0  0
    5.3989   -0.0943   -0.1239 O   0  0  0  0  0  0  0  0  0  0  0  0
    6.2617    1.9980    0.0202 O   0  0  0  0  0  0  0  0  0  0  0  0
    7.5695    1.4220   -0.0576 C   0  0  0  0  0  0  0  0  0  0  0  0
    7.7412    0.7176    0.7813 H   0  0  0  0  0  0  0  0  0  0  0  0
    8.2804    2.2656   -0.0055 H   0  0  0  0  0  0  0  0  0  0  0  0
    7.6992    0.8640   -1.0070 H   0  0  0  0  0  0  0  0  0  0  0  0
   -1.7683    1.9935   -1.3799 C   0  0  0  0  0  0  0  0  0  0  0  0
   -0.8174    2.3167   -2.3682 C   0  0  0  0  0  0  0  0  0  0  0  0
    0.2308    2.0057   -2.2534 H   0  0  0  0  0  0  0  0  0  0  0  0
   -1.2189    3.0306   -3.5072 C   0  0  0  0  0  0  0  0  0  0  0  0
   -0.4757    3.2879   -4.2768 H   0  0  0  0  0  0  0  0  0  0  0  0
   -2.5612    3.4099   -3.6668 C   0  0  0  0  0  0  0  0  0  0  0  0
   -2.8714    3.9689   -4.5627 H   0  0  0  0  0  0  0  0  0  0  0  0
   -3.5129    3.0593   -2.6943 C   0  0  0  0  0  0  0  0  0  0  0  0
   -4.5706    3.3290   -2.8329 H   0  0  0  0  0  0  0  0  0  0  0  0
   -3.1261    2.3446   -1.5527 C   0  0  0  0  0  0  0  0  0  0  0  0
   -3.8767    2.0109   -0.8184 H   0  0  0  0  0  0  0  0  0  0  0  0
   -1.7149    1.9150    1.5689 C   0  0  0  0  0  0  0  0  0  0  0  0
   -2.0345    3.2868    1.5604 C   0  0  0  0  0  0  0  0  0  0  0  0
   -2.1014    3.8326    0.6067 H   0  0  0  0  0  0  0  0  0  0  0  0
   -2.2779    3.9511    2.7719 C   0  0  0  0  0  0  0  0  0  0  0  0
   -2.5321    5.0217    2.7657 H   0  0  0  0  0  0  0  0  0  0  0  0
   -2.2004    3.2518    3.9868 C   0  0  0  0  0  0  0  0  0  0  0  0
   -2.3945    3.7759    4.9349 H   0  0  0  0  0  0  0  0  0  0  0  0
   -1.8892    1.8813    3.9943 C   0  0  0  0  0  0  0  0  0  0  0  0
   -1.8447    1.3290    4.9447 H   0  0  0  0  0  0  0  0  0  0  0  0
   -1.6549    1.2081    2.7887 C   0  0  0  0  0  0  0  0  0  0  0  0
   -1.4432    0.1266    2.7775 H   0  0  0  0  0  0  0  0  0  0  0  0
  1  2  1  0  0  0  0
  1  3  1  0  0  0  0
  2  4  1  0  0  0  0
  2 26  1  0  0  0  0
  3 13  2  0  0  0  0
  3  5  1  0  0  0  0
  4 54  1  0  0  0  0
  5  7  2  0  0  0  0
  6  5  1  0  0  0  0
  7  9  1  0  0  0  0
  7  8  1  0  0  0  0
  9 10  1  0  0  0  0
 11 12  1  0  0  0  0
 11  9  2  0  0  0  0
 13 11  1  0  0  0  0
 14 13  1  0  0  0  0
 15 16  1  0  0  0  0
 15  1  1  0  0  0  0
 16 17  1  0  0  0  0
 18 19  1  0  0  0  0
 18 16  2  0  0  0  0
 20 18  1  0  0  0  0
 21 20  1  0  0  0  0
 22 20  2  0  0  0  0
 22 24  1  0  0  0  0
 23 22  1  0  0  0  0
 24 25  1  0  0  0  0
 24 15  2  0  0  0  0
 26 34  1  0  0  0  0
 27 29  1  0  0  0  0
 27 26  2  0  0  0  0
 28 27  1  0  0  0  0
 29 30  2  0  0  0  0
 30 31  1  0  0  0  0
 30 32  1  0  0  0  0
 32 33  1  0  0  0  0
 34 32  2  0  0  0  0
 34 35  1  0  0  0  0
 36 38  1  0  0  0  0
 36 29  1  0  0  0  0
 37 36  2  0  0  0  0
 39 41  1  0  0  0  0
 39 38  1  0  0  0  0
 39 40  1  0  0  0  0
 42 39  1  0  0  0  0
 43  4  1  0  0  0  0
 44 45  1  0  0  0  0
 44 43  2  0  0  0  0
 46 44  1  0  0  0  0
 47 46  1  0  0  0  0
 48 46  2  0  0  0  0
 48 50  1  0  0  0  0
 49 48  1  0  0  0  0
 50 52  2  0  0  0  0
 51 50  1  0  0  0  0
 52 43  1  0  0  0  0
 52 53  1  0  0  0  0
 54 63  1  0  0  0  0
 55 54  2  0  0  0  0
 55 57  1  0  0  0  0
 56 55  1  0  0  0  0
 57 59  2  0  0  0  0
 58 57  1  0  0  0  0
 59 61  1  0  0  0  0
 59 60  1  0  0  0  0
 61 62  1  0  0  0  0
 63 61  2  0  0  0  0
 64 63  1  0  0  0  0
M  END
