1,2
 OpenBabel05122313063D

 73 79  0  0  1  0  0  0  0  0999 V2000
    1.7300    0.0098    0.3802 P   0  0  1  0  0  0  0  0  0  0  0  0
   -1.5805    0.2947   -0.0003 P   0  0  2  0  0  0  0  0  0  0  0  0
    4.1096   -1.3626    0.4369 O   0  0  0  0  0  0  0  0  0  0  0  0
    3.5555    1.8536   -0.4883 O   0  0  0  0  0  0  0  0  0  0  0  0
    5.4175    0.4016   -0.4238 O   0  0  0  0  0  0  0  0  0  0  0  0
   -3.9001    1.3495   -1.1483 O   0  0  0  0  0  0  0  0  0  0  0  0
   -3.5937   -0.9752    1.2837 O   0  0  0  0  0  0  0  0  0  0  0  0
   -5.3874    0.0536    0.1516 O   0  0  0  0  0  0  0  0  0  0  0  0
    1.0461    1.3531    1.4817 C   0  0  0  0  0  0  0  0  0  0  0  0
    0.4404    0.7949    2.2225 H   0  0  0  0  0  0  0  0  0  0  0  0
    1.8584    1.8648    2.0253 H   0  0  0  0  0  0  0  0  0  0  0  0
    0.2390    2.3704    0.7248 C   0  0  0  0  0  0  0  0  0  0  0  0
   -0.9489    2.0474    0.0086 C   0  0  0  0  0  0  0  0  0  0  0  0
   -1.5783    3.0775   -0.7318 C   0  0  0  0  0  0  0  0  0  0  0  0
   -2.5113    2.8570   -1.2644 H   0  0  0  0  0  0  0  0  0  0  0  0
   -1.0573    4.3774   -0.7755 C   0  0  0  0  0  0  0  0  0  0  0  0
   -1.5755    5.1484   -1.3657 H   0  0  0  0  0  0  0  0  0  0  0  0
    0.1095    4.6902   -0.0648 C   0  0  0  0  0  0  0  0  0  0  0  0
    0.5284    5.7074   -0.0895 H   0  0  0  0  0  0  0  0  0  0  0  0
    0.7424    3.6878    0.6769 C   0  0  0  0  0  0  0  0  0  0  0  0
    1.6725    3.9133    1.2205 H   0  0  0  0  0  0  0  0  0  0  0  0
    2.6838    0.8497   -1.0337 C   0  0  1  0  0  0  0  0  0  0  0  0
    3.5016   -0.2819   -1.6801 C   0  0  0  0  0  0  0  0  0  0  0  0
    2.8391   -1.1292   -1.9456 H   0  0  0  0  0  0  0  0  0  0  0  0
    3.9647    0.1100   -2.6090 H   0  0  0  0  0  0  0  0  0  0  0  0
    4.6290   -0.7470   -0.7484 C   0  0  2  0  0  0  0  0  0  0  0  0
    3.3312   -0.5190    1.2986 C   0  0  1  0  0  0  0  0  0  0  0  0
    4.1857    0.7226    1.6012 C   0  0  0  0  0  0  0  0  0  0  0  0
    3.6616    1.4588    2.2375 H   0  0  0  0  0  0  0  0  0  0  0  0
    5.0820    0.3799    2.1586 H   0  0  0  0  0  0  0  0  0  0  0  0
    4.6633    1.3756    0.2904 C   0  0  2  0  0  0  0  0  0  0  0  0
    1.7840    1.5260   -2.0571 C   0  0  0  0  0  0  0  0  0  0  0  0
    1.2820    2.4131   -1.6337 H   0  0  0  0  0  0  0  0  0  0  0  0
    1.0144    0.8121   -2.4109 H   0  0  0  0  0  0  0  0  0  0  0  0
    2.4008    1.8502   -2.9200 H   0  0  0  0  0  0  0  0  0  0  0  0
    5.5525   -1.7692   -1.3791 C   0  0  0  0  0  0  0  0  0  0  0  0
    6.0369   -1.3385   -2.2749 H   0  0  0  0  0  0  0  0  0  0  0  0
    4.9777   -2.6698   -1.6650 H   0  0  0  0  0  0  0  0  0  0  0  0
    6.3303   -2.0518   -0.6453 H   0  0  0  0  0  0  0  0  0  0  0  0
    2.9899   -1.3316    2.5365 C   0  0  0  0  0  0  0  0  0  0  0  0
    2.3653   -2.2048    2.2686 H   0  0  0  0  0  0  0  0  0  0  0  0
    2.4338   -0.7111    3.2669 H   0  0  0  0  0  0  0  0  0  0  0  0
    3.9256   -1.6872    3.0139 H   0  0  0  0  0  0  0  0  0  0  0  0
    5.5665    2.5736    0.5095 C   0  0  0  0  0  0  0  0  0  0  0  0
    5.8954    2.9572   -0.4743 H   0  0  0  0  0  0  0  0  0  0  0  0
    6.4538    2.2783    1.0996 H   0  0  0  0  0  0  0  0  0  0  0  0
    5.0158    3.3710    1.0431 H   0  0  0  0  0  0  0  0  0  0  0  0
   -2.9600    0.2738   -1.3384 C   0  0  2  0  0  0  0  0  0  0  0  0
   -3.7137   -1.0434   -1.1693 C   0  0  0  0  0  0  0  0  0  0  0  0
   -4.4556   -1.1125   -1.9919 H   0  0  0  0  0  0  0  0  0  0  0  0
   -3.0250   -1.9107   -1.2151 H   0  0  0  0  0  0  0  0  0  0  0  0
   -4.4803   -1.0577    0.1575 C   0  0  1  0  0  0  0  0  0  0  0  0
   -2.8619    0.2384    1.4324 C   0  0  2  0  0  0  0  0  0  0  0  0
   -3.8132    1.4340    1.3087 C   0  0  0  0  0  0  0  0  0  0  0  0
   -3.2572    2.3909    1.2942 H   0  0  0  0  0  0  0  0  0  0  0  0
   -4.4863    1.4350    2.1914 H   0  0  0  0  0  0  0  0  0  0  0  0
   -4.6929    1.2894    0.0530 C   0  0  1  0  0  0  0  0  0  0  0  0
   -2.3566    0.4104   -2.7285 C   0  0  0  0  0  0  0  0  0  0  0  0
   -3.1681    0.3928   -3.4842 H   0  0  0  0  0  0  0  0  0  0  0  0
   -1.6755   -0.4438   -2.9113 H   0  0  0  0  0  0  0  0  0  0  0  0
   -1.7850    1.3506   -2.8468 H   0  0  0  0  0  0  0  0  0  0  0  0
   -5.2863   -2.3221    0.3634 C   0  0  0  0  0  0  0  0  0  0  0  0
   -4.5934   -3.1839    0.3858 H   0  0  0  0  0  0  0  0  0  0  0  0
   -6.0145   -2.4473   -0.4593 H   0  0  0  0  0  0  0  0  0  0  0  0
   -5.8279   -2.2556    1.3257 H   0  0  0  0  0  0  0  0  0  0  0  0
   -2.1660    0.1617    2.7809 C   0  0  0  0  0  0  0  0  0  0  0  0
   -2.9253    0.0026    3.5735 H   0  0  0  0  0  0  0  0  0  0  0  0
   -1.6262    1.1054    2.9940 H   0  0  0  0  0  0  0  0  0  0  0  0
   -1.4553   -0.6885    2.7943 H   0  0  0  0  0  0  0  0  0  0  0  0
   -5.7313    2.3861   -0.0824 C   0  0  0  0  0  0  0  0  0  0  0  0
   -6.3149    2.2145   -1.0063 H   0  0  0  0  0  0  0  0  0  0  0  0
   -5.2387    3.3752   -0.1395 H   0  0  0  0  0  0  0  0  0  0  0  0
   -6.4148    2.3649    0.7866 H   0  0  0  0  0  0  0  0  0  0  0  0
  1 27  1  0  0  0  0
  1  9  1  1  0  0  0
  2 13  1  1  0  0  0
  2 53  1  0  0  0  0
  3 27  1  0  0  0  0
  4 31  1  0  0  0  0
  5 31  1  0  0  0  0
  6 57  1  0  0  0  0
  7 53  1  0  0  0  0
  8 52  1  0  0  0  0
  9 11  1  0  0  0  0
  9 10  1  0  0  0  0
 12  9  1  0  0  0  0
 13 12  2  0  0  0  0
 14 13  1  0  0  0  0
 15 14  1  0  0  0  0
 16 14  2  0  0  0  0
 16 18  1  0  0  0  0
 17 16  1  0  0  0  0
 18 20  2  0  0  0  0
 19 18  1  0  0  0  0
 20 12  1  0  0  0  0
 20 21  1  0  0  0  0
 22 32  1  6  0  0  0
 22  4  1  0  0  0  0
 22  1  1  0  0  0  0
 23 22  1  0  0  0  0
 23 26  1  0  0  0  0
 24 23  1  0  0  0  0
 25 23  1  0  0  0  0
 26 36  1  6  0  0  0
 26  5  1  0  0  0  0
 26  3  1  0  0  0  0
 27 28  1  0  0  0  0
 27 40  1  1  0  0  0
 28 30  1  0  0  0  0
 28 29  1  0  0  0  0
 31 44  1  1  0  0  0
 31 28  1  0  0  0  0
 32 33  1  0  0  0  0
 34 32  1  0  0  0  0
 35 32  1  0  0  0  0
 36 39  1  0  0  0  0
 37 36  1  0  0  0  0
 38 36  1  0  0  0  0
 40 43  1  0  0  0  0
 40 42  1  0  0  0  0
 41 40  1  0  0  0  0
 44 47  1  0  0  0  0
 44 46  1  0  0  0  0
 45 44  1  0  0  0  0
 48 58  1  6  0  0  0
 48 49  1  0  0  0  0
 48  6  1  0  0  0  0
 48  2  1  0  0  0  0
 49 52  1  0  0  0  0
 50 49  1  0  0  0  0
 51 49  1  0  0  0  0
 52 62  1  1  0  0  0
 52  7  1  0  0  0  0
 53 66  1  1  0  0  0
 54 53  1  0  0  0  0
 54 56  1  0  0  0  0
 55 54  1  0  0  0  0
 57 70  1  6  0  0  0
 57  8  1  0  0  0  0
 57 54  1  0  0  0  0
 59 58  1  0  0  0  0
 60 58  1  0  0  0  0
 61 58  1  0  0  0  0
 62 63  1  0  0  0  0
 62 65  1  0  0  0  0
 64 62  1  0  0  0  0
 66 69  1  0  0  0  0
 66 68  1  0  0  0  0
 66 67  1  0  0  0  0
 70 73  1  0  0  0  0
 71 70  1  0  0  0  0
 72 70  1  0  0  0  0
M  END
