1,3
 OpenBabel05122313063D

 80 85  0  0  1  0  0  0  0  0999 V2000
   -2.1448    1.1282   -0.3724 P   0  0  0  0  0  0  0  0  0  0  0  0
    2.9948    0.9078    0.2907 P   0  0  0  0  0  0  0  0  0  0  0  0
   -1.0357   -1.6852   -0.0871 P   0  0  0  0  0  0  0  0  0  0  0  0
   -4.8600    1.1805    0.3758 C   0  0  0  0  0  0  0  0  0  0  0  0
   -4.9606    0.3439   -0.3321 H   0  0  0  0  0  0  0  0  0  0  0  0
   -5.9729    1.6432    1.0971 C   0  0  0  0  0  0  0  0  0  0  0  0
   -6.9539    1.1652    0.9531 H   0  0  0  0  0  0  0  0  0  0  0  0
   -5.8342    2.7116    1.9960 C   0  0  0  0  0  0  0  0  0  0  0  0
   -6.7059    3.0728    2.5629 H   0  0  0  0  0  0  0  0  0  0  0  0
   -4.5810    3.3245    2.1682 C   0  0  0  0  0  0  0  0  0  0  0  0
   -4.4702    4.1665    2.8686 H   0  0  0  0  0  0  0  0  0  0  0  0
   -3.4703    2.8683    1.4449 C   0  0  0  0  0  0  0  0  0  0  0  0
   -2.4938    3.3618    1.5704 H   0  0  0  0  0  0  0  0  0  0  0  0
   -3.6020    1.7871    0.5475 C   0  0  0  0  0  0  0  0  0  0  0  0
   -2.3697    3.6066   -1.7259 C   0  0  0  0  0  0  0  0  0  0  0  0
   -3.4550    3.4950   -1.5791 H   0  0  0  0  0  0  0  0  0  0  0  0
   -1.8708    4.7142   -2.4274 C   0  0  0  0  0  0  0  0  0  0  0  0
   -2.5701    5.4639   -2.8285 H   0  0  0  0  0  0  0  0  0  0  0  0
   -0.4879    4.8692   -2.6163 C   0  0  0  0  0  0  0  0  0  0  0  0
   -0.0987    5.7395   -3.1661 H   0  0  0  0  0  0  0  0  0  0  0  0
    0.3939    3.9038   -2.1048 C   0  0  0  0  0  0  0  0  0  0  0  0
    1.4804    4.0080   -2.2506 H   0  0  0  0  0  0  0  0  0  0  0  0
   -0.1005    2.7921   -1.4068 C   0  0  0  0  0  0  0  0  0  0  0  0
    0.6189    2.0483   -1.0276 H   0  0  0  0  0  0  0  0  0  0  0  0
   -1.4885    2.6393   -1.1995 C   0  0  0  0  0  0  0  0  0  0  0  0
    4.7350   -0.5170   -1.3437 C   0  0  0  0  0  0  0  0  0  0  0  0
    4.5089    0.2940   -2.0548 H   0  0  0  0  0  0  0  0  0  0  0  0
    5.6035   -1.5524   -1.7165 C   0  0  0  0  0  0  0  0  0  0  0  0
    6.0665   -1.5452   -2.7151 H   0  0  0  0  0  0  0  0  0  0  0  0
    5.8688   -2.6039   -0.8228 C   0  0  0  0  0  0  0  0  0  0  0  0
    6.5383   -3.4257   -1.1186 H   0  0  0  0  0  0  0  0  0  0  0  0
    5.2685   -2.6059    0.4454 C   0  0  0  0  0  0  0  0  0  0  0  0
    5.4665   -3.4298    1.1479 H   0  0  0  0  0  0  0  0  0  0  0  0
    4.4145   -1.5584    0.8258 C   0  0  0  0  0  0  0  0  0  0  0  0
    3.9636   -1.5738    1.8290 H   0  0  0  0  0  0  0  0  0  0  0  0
    4.1371   -0.4996   -0.0633 C   0  0  0  0  0  0  0  0  0  0  0  0
    3.6370    3.5186    1.0276 C   0  0  0  0  0  0  0  0  0  0  0  0
    2.6156    3.7328    0.6706 H   0  0  0  0  0  0  0  0  0  0  0  0
    4.4320    4.5554    1.5374 C   0  0  0  0  0  0  0  0  0  0  0  0
    4.0284    5.5782    1.5921 H   0  0  0  0  0  0  0  0  0  0  0  0
    5.7452    4.2916    1.9600 C   0  0  0  0  0  0  0  0  0  0  0  0
    6.3741    5.1067    2.3495 H   0  0  0  0  0  0  0  0  0  0  0  0
    6.2563    2.9867    1.8746 C   0  0  0  0  0  0  0  0  0  0  0  0
    7.2871    2.7765    2.1993 H   0  0  0  0  0  0  0  0  0  0  0  0
    5.4581    1.9441    1.3785 C   0  0  0  0  0  0  0  0  0  0  0  0
    5.8634    0.9224    1.3157 H   0  0  0  0  0  0  0  0  0  0  0  0
    4.1380    2.2000    0.9554 C   0  0  0  0  0  0  0  0  0  0  0  0
   -3.1314   -2.0633    1.7138 C   0  0  0  0  0  0  0  0  0  0  0  0
   -3.6833   -1.4558    0.9796 H   0  0  0  0  0  0  0  0  0  0  0  0
   -3.7420   -2.4893    2.9032 C   0  0  0  0  0  0  0  0  0  0  0  0
   -4.7864   -2.2102    3.1103 H   0  0  0  0  0  0  0  0  0  0  0  0
   -3.0236   -3.2730    3.8191 C   0  0  0  0  0  0  0  0  0  0  0  0
   -3.5021   -3.6132    4.7503 H   0  0  0  0  0  0  0  0  0  0  0  0
   -1.6926   -3.6292    3.5423 C   0  0  0  0  0  0  0  0  0  0  0  0
   -1.1282   -4.2492    4.2558 H   0  0  0  0  0  0  0  0  0  0  0  0
   -1.0775   -3.1974    2.3579 C   0  0  0  0  0  0  0  0  0  0  0  0
   -0.0374   -3.4859    2.1453 H   0  0  0  0  0  0  0  0  0  0  0  0
   -1.7939   -2.4062    1.4334 C   0  0  0  0  0  0  0  0  0  0  0  0
   -0.1158   -4.3217   -0.5586 C   0  0  0  0  0  0  0  0  0  0  0  0
   -1.0557   -4.6523   -0.0910 H   0  0  0  0  0  0  0  0  0  0  0  0
    0.7826   -5.2730   -1.0634 C   0  0  0  0  0  0  0  0  0  0  0  0
    0.5399   -6.3440   -0.9864 H   0  0  0  0  0  0  0  0  0  0  0  0
    1.9848   -4.8637   -1.6628 C   0  0  0  0  0  0  0  0  0  0  0  0
    2.6926   -5.6119   -2.0508 H   0  0  0  0  0  0  0  0  0  0  0  0
    2.2757   -3.4948   -1.7720 C   0  0  0  0  0  0  0  0  0  0  0  0
    3.2133   -3.1580   -2.2384 H   0  0  0  0  0  0  0  0  0  0  0  0
    1.3752   -2.5411   -1.2775 C   0  0  0  0  0  0  0  0  0  0  0  0
    1.6167   -1.4744   -1.3945 H   0  0  0  0  0  0  0  0  0  0  0  0
    0.1783   -2.9437   -0.6454 C   0  0  0  0  0  0  0  0  0  0  0  0
   -0.8944    0.8372    1.0058 C   0  0  0  0  0  0  0  0  0  0  0  0
   -1.4740    0.5592    1.9120 H   0  0  0  0  0  0  0  0  0  0  0  0
   -0.3428    1.7727    1.2294 H   0  0  0  0  0  0  0  0  0  0  0  0
    0.0476   -0.3043    0.6081 C   0  0  1  0  0  0  0  0  0  0  0  0
    0.6052    0.0172   -0.3003 H   0  0  0  0  0  0  0  0  0  0  0  0
    1.0725   -0.6844    1.6813 C   0  0  0  0  0  0  0  0  0  0  0  0
    1.5616   -1.6377    1.3888 H   0  0  0  0  0  0  0  0  0  0  0  0
    0.5534   -0.8794    2.6441 H   0  0  0  0  0  0  0  0  0  0  0  0
    2.1522    0.3918    1.8888 C   0  0  0  0  0  0  0  0  0  0  0  0
    1.7081    1.3303    2.2827 H   0  0  0  0  0  0  0  0  0  0  0  0
    2.9040    0.0724    2.6411 H   0  0  0  0  0  0  0  0  0  0  0  0
  1 14  1  0  0  0  0
  1 70  1  0  0  0  0
  2 47  1  0  0  0  0
  2 78  1  0  0  0  0
  3 73  1  0  0  0  0
  3 58  1  0  0  0  0
  4 14  2  0  0  0  0
  4  6  1  0  0  0  0
  5  4  1  0  0  0  0
  6  8  2  0  0  0  0
  7  6  1  0  0  0  0
  8 10  1  0  0  0  0
  8  9  1  0  0  0  0
 10 11  1  0  0  0  0
 12 13  1  0  0  0  0
 12 10  2  0  0  0  0
 14 12  1  0  0  0  0
 15 16  1  0  0  0  0
 15 25  1  0  0  0  0
 17 15  2  0  0  0  0
 18 17  1  0  0  0  0
 19 17  1  0  0  0  0
 19 21  2  0  0  0  0
 20 19  1  0  0  0  0
 21 23  1  0  0  0  0
 22 21  1  0  0  0  0
 23 25  2  0  0  0  0
 23 24  1  0  0  0  0
 25  1  1  0  0  0  0
 26 36  1  0  0  0  0
 27 26  1  0  0  0  0
 28 26  2  0  0  0  0
 28 30  1  0  0  0  0
 29 28  1  0  0  0  0
 30 32  2  0  0  0  0
 31 30  1  0  0  0  0
 32 34  1  0  0  0  0
 32 33  1  0  0  0  0
 34 35  1  0  0  0  0
 36  2  1  0  0  0  0
 36 34  2  0  0  0  0
 37 39  1  0  0  0  0
 38 37  1  0  0  0  0
 39 40  1  0  0  0  0
 39 41  2  0  0  0  0
 41 42  1  0  0  0  0
 43 41  1  0  0  0  0
 43 44  1  0  0  0  0
 45 43  2  0  0  0  0
 46 45  1  0  0  0  0
 47 37  2  0  0  0  0
 47 45  1  0  0  0  0
 48 50  1  0  0  0  0
 49 48  1  0  0  0  0
 50 51  1  0  0  0  0
 50 52  2  0  0  0  0
 52 53  1  0  0  0  0
 54 52  1  0  0  0  0
 54 55  1  0  0  0  0
 56 54  2  0  0  0  0
 57 56  1  0  0  0  0
 58 48  2  0  0  0  0
 58 56  1  0  0  0  0
 59 60  1  0  0  0  0
 61 62  1  0  0  0  0
 61 59  2  0  0  0  0
 63 61  1  0  0  0  0
 64 63  1  0  0  0  0
 65 63  2  0  0  0  0
 65 67  1  0  0  0  0
 66 65  1  0  0  0  0
 67 69  2  0  0  0  0
 68 67  1  0  0  0  0
 69 59  1  0  0  0  0
 69  3  1  0  0  0  0
 70 72  1  0  0  0  0
 70 71  1  0  0  0  0
 73 74  1  6  0  0  0
 73 70  1  0  0  0  0
 73 75  1  0  0  0  0
 75 78  1  0  0  0  0
 75 77  1  0  0  0  0
 76 75  1  0  0  0  0
 78 79  1  0  0  0  0
 78 80  1  0  0  0  0
M  END
