1,2
 OpenBabel05122313063D

 62 67  0  0  0  0  0  0  0  0999 V2000
   -0.7608    1.3567   -0.0348 P   0  0  0  0  0  0  0  0  0  0  0  0
   -0.7609   -1.3566   -0.0348 P   0  0  0  0  0  0  0  0  0  0  0  0
    1.9055    0.0000    2.9222 O   0  0  0  0  0  0  0  0  0  0  0  0
    2.0314   -0.0001   -1.7233 O   0  0  0  0  0  0  0  0  0  0  0  0
    0.2476    0.0000    0.5304 N   0  0  0  0  0  0  0  0  0  0  0  0
    1.6100    0.0000    0.5912 N   0  0  0  0  0  0  0  0  0  0  0  0
    2.3651   -0.0000    1.7922 C   0  0  0  0  0  0  0  0  0  0  0  0
    2.4433   -0.0001   -0.5844 C   0  0  0  0  0  0  0  0  0  0  0  0
    3.8349   -0.0001   -0.0567 C   0  0  0  0  0  0  0  0  0  0  0  0
    5.0480   -0.0002   -0.7462 C   0  0  0  0  0  0  0  0  0  0  0  0
    5.0660   -0.0002   -1.8458 H   0  0  0  0  0  0  0  0  0  0  0  0
    6.2302   -0.0003    0.0191 C   0  0  0  0  0  0  0  0  0  0  0  0
    7.2063   -0.0003   -0.4889 H   0  0  0  0  0  0  0  0  0  0  0  0
    6.1854   -0.0002    1.4272 C   0  0  0  0  0  0  0  0  0  0  0  0
    7.1270   -0.0003    1.9965 H   0  0  0  0  0  0  0  0  0  0  0  0
    4.9569   -0.0001    2.1159 C   0  0  0  0  0  0  0  0  0  0  0  0
    4.9075   -0.0001    3.2146 H   0  0  0  0  0  0  0  0  0  0  0  0
    3.7894   -0.0001    1.3505 C   0  0  0  0  0  0  0  0  0  0  0  0
   -1.2962    2.2782    1.4366 C   0  0  0  0  0  0  0  0  0  0  0  0
   -2.3414    3.2070    1.2359 C   0  0  0  0  0  0  0  0  0  0  0  0
   -2.7971    3.3077    0.2360 H   0  0  0  0  0  0  0  0  0  0  0  0
   -2.8076    3.9580    2.3228 C   0  0  0  0  0  0  0  0  0  0  0  0
   -3.6253    4.6792    2.1738 H   0  0  0  0  0  0  0  0  0  0  0  0
   -2.2454    3.7802    3.5987 C   0  0  0  0  0  0  0  0  0  0  0  0
   -2.6187    4.3700    4.4499 H   0  0  0  0  0  0  0  0  0  0  0  0
   -1.2201    2.8413    3.7934 C   0  0  0  0  0  0  0  0  0  0  0  0
   -0.7897    2.6921    4.7953 H   0  0  0  0  0  0  0  0  0  0  0  0
   -0.7422    2.0789    2.7156 C   0  0  0  0  0  0  0  0  0  0  0  0
    0.0491    1.3298    2.8723 H   0  0  0  0  0  0  0  0  0  0  0  0
    0.3433    2.4649   -0.9547 C   0  0  0  0  0  0  0  0  0  0  0  0
    0.2104    2.5681   -2.3528 C   0  0  0  0  0  0  0  0  0  0  0  0
   -0.6300    2.0610   -2.8522 H   0  0  0  0  0  0  0  0  0  0  0  0
    1.1327    3.3406   -3.0720 C   0  0  0  0  0  0  0  0  0  0  0  0
    1.0310    3.4317   -4.1637 H   0  0  0  0  0  0  0  0  0  0  0  0
    2.1817    3.9939   -2.4048 C   0  0  0  0  0  0  0  0  0  0  0  0
    2.9076    4.5919   -2.9768 H   0  0  0  0  0  0  0  0  0  0  0  0
    2.3005    3.9027   -1.0074 C   0  0  0  0  0  0  0  0  0  0  0  0
    3.1121    4.4311   -0.4846 H   0  0  0  0  0  0  0  0  0  0  0  0
    1.3730    3.1490   -0.2744 C   0  0  0  0  0  0  0  0  0  0  0  0
    1.4438    3.0977    0.8236 H   0  0  0  0  0  0  0  0  0  0  0  0
    0.3431   -2.4649   -0.9548 C   0  0  0  0  0  0  0  0  0  0  0  0
    0.2098   -2.5682   -2.3527 C   0  0  0  0  0  0  0  0  0  0  0  0
   -0.6306   -2.0610   -2.8521 H   0  0  0  0  0  0  0  0  0  0  0  0
    1.1319   -3.3410   -3.0721 C   0  0  0  0  0  0  0  0  0  0  0  0
    1.0299   -3.4323   -4.1637 H   0  0  0  0  0  0  0  0  0  0  0  0
    2.1809   -3.9944   -2.4049 C   0  0  0  0  0  0  0  0  0  0  0  0
    2.9065   -4.5927   -2.9771 H   0  0  0  0  0  0  0  0  0  0  0  0
    2.2999   -3.9030   -1.0076 C   0  0  0  0  0  0  0  0  0  0  0  0
    3.1115   -4.4315   -0.4849 H   0  0  0  0  0  0  0  0  0  0  0  0
    1.3728   -3.1491   -0.2745 C   0  0  0  0  0  0  0  0  0  0  0  0
    1.4437   -3.0977    0.8235 H   0  0  0  0  0  0  0  0  0  0  0  0
   -1.2963   -2.2781    1.4367 C   0  0  0  0  0  0  0  0  0  0  0  0
   -0.7421   -2.0791    2.7157 C   0  0  0  0  0  0  0  0  0  0  0  0
    0.0494   -1.3303    2.8723 H   0  0  0  0  0  0  0  0  0  0  0  0
   -1.2200   -2.8416    3.7933 C   0  0  0  0  0  0  0  0  0  0  0  0
   -0.7894   -2.6926    4.7952 H   0  0  0  0  0  0  0  0  0  0  0  0
   -2.2455   -3.7803    3.5987 C   0  0  0  0  0  0  0  0  0  0  0  0
   -2.6188   -4.3701    4.4498 H   0  0  0  0  0  0  0  0  0  0  0  0
   -2.8079   -3.9578    2.3227 C   0  0  0  0  0  0  0  0  0  0  0  0
   -3.6257   -4.6788    2.1738 H   0  0  0  0  0  0  0  0  0  0  0  0
   -2.3416   -3.2066    1.2360 C   0  0  0  0  0  0  0  0  0  0  0  0
   -2.7975   -3.3072    0.2360 H   0  0  0  0  0  0  0  0  0  0  0  0
  1  5  1  0  0  0  0
  1 19  1  0  0  0  0
  2  5  1  0  0  0  0
  2 52  1  0  0  0  0
  4  8  2  0  0  0  0
  5  6  1  0  0  0  0
  6  7  1  0  0  0  0
  7  3  2  0  0  0  0
  8  9  1  0  0  0  0
  8  6  1  0  0  0  0
  9 18  1  0  0  0  0
 10  9  2  0  0  0  0
 10 12  1  0  0  0  0
 11 10  1  0  0  0  0
 12 14  2  0  0  0  0
 13 12  1  0  0  0  0
 14 15  1  0  0  0  0
 14 16  1  0  0  0  0
 16 17  1  0  0  0  0
 18  7  1  0  0  0  0
 18 16  2  0  0  0  0
 19 28  1  0  0  0  0
 20 19  2  0  0  0  0
 20 22  1  0  0  0  0
 21 20  1  0  0  0  0
 22 24  2  0  0  0  0
 23 22  1  0  0  0  0
 24 26  1  0  0  0  0
 24 25  1  0  0  0  0
 26 27  1  0  0  0  0
 28 29  1  0  0  0  0
 28 26  2  0  0  0  0
 30 39  1  0  0  0  0
 30  1  1  0  0  0  0
 31 30  2  0  0  0  0
 32 31  1  0  0  0  0
 33 35  2  0  0  0  0
 33 31  1  0  0  0  0
 34 33  1  0  0  0  0
 35 37  1  0  0  0  0
 36 35  1  0  0  0  0
 37 38  1  0  0  0  0
 37 39  2  0  0  0  0
 39 40  1  0  0  0  0
 41 50  1  0  0  0  0
 41  2  1  0  0  0  0
 42 41  2  0  0  0  0
 43 42  1  0  0  0  0
 44 46  2  0  0  0  0
 44 42  1  0  0  0  0
 45 44  1  0  0  0  0
 46 48  1  0  0  0  0
 47 46  1  0  0  0  0
 48 49  1  0  0  0  0
 48 50  2  0  0  0  0
 50 51  1  0  0  0  0
 52 53  1  0  0  0  0
 53 54  1  0  0  0  0
 53 55  2  0  0  0  0
 55 56  1  0  0  0  0
 57 55  1  0  0  0  0
 57 58  1  0  0  0  0
 59 57  2  0  0  0  0
 60 59  1  0  0  0  0
 61 52  2  0  0  0  0
 61 59  1  0  0  0  0
 62 61  1  0  0  0  0
M  END
