1,2
 OpenBabel05122313063D

 63 66  0  0  0  0  0  0  0  0999 V2000
    0.4190   -1.2171    0.3522 P   0  0  0  0  0  0  0  0  0  0  0  0
    0.1731    1.3744    0.1900 P   0  0  0  0  0  0  0  0  0  0  0  0
    1.4136    0.1964    0.5127 N   0  0  0  0  0  0  0  0  0  0  0  0
    1.2343   -2.3414   -0.8316 C   0  0  0  0  0  0  0  0  0  0  0  0
    0.8119   -2.2680   -2.1758 C   0  0  0  0  0  0  0  0  0  0  0  0
   -0.0535   -1.6341   -2.4289 H   0  0  0  0  0  0  0  0  0  0  0  0
    1.4734   -3.0197   -3.1571 C   0  0  0  0  0  0  0  0  0  0  0  0
    1.1380   -2.9672   -4.2037 H   0  0  0  0  0  0  0  0  0  0  0  0
    2.5504   -3.8478   -2.8005 C   0  0  0  0  0  0  0  0  0  0  0  0
    3.0669   -4.4396   -3.5714 H   0  0  0  0  0  0  0  0  0  0  0  0
    2.9614   -3.9352   -1.4597 C   0  0  0  0  0  0  0  0  0  0  0  0
    3.7993   -4.5916   -1.1804 H   0  0  0  0  0  0  0  0  0  0  0  0
    2.3047   -3.1865   -0.4727 C   0  0  0  0  0  0  0  0  0  0  0  0
    2.6219   -3.2614    0.5785 H   0  0  0  0  0  0  0  0  0  0  0  0
    0.4330   -2.0615    1.9667 C   0  0  0  0  0  0  0  0  0  0  0  0
    0.1472   -3.4406    2.0536 C   0  0  0  0  0  0  0  0  0  0  0  0
    0.0030   -4.0339    1.1380 H   0  0  0  0  0  0  0  0  0  0  0  0
    0.0323   -4.0532    3.3095 C   0  0  0  0  0  0  0  0  0  0  0  0
   -0.1925   -5.1285    3.3716 H   0  0  0  0  0  0  0  0  0  0  0  0
    0.1953   -3.2978    4.4819 C   0  0  0  0  0  0  0  0  0  0  0  0
    0.1042   -3.7822    5.4657 H   0  0  0  0  0  0  0  0  0  0  0  0
    0.4629   -1.9215    4.3981 C   0  0  0  0  0  0  0  0  0  0  0  0
    0.5791   -1.3237    5.3147 H   0  0  0  0  0  0  0  0  0  0  0  0
    0.5737   -1.3004    3.1467 C   0  0  0  0  0  0  0  0  0  0  0  0
    0.7559   -0.2169    3.0841 H   0  0  0  0  0  0  0  0  0  0  0  0
    0.0796    2.4312    1.6738 C   0  0  0  0  0  0  0  0  0  0  0  0
   -1.0177    2.2430    2.5398 C   0  0  0  0  0  0  0  0  0  0  0  0
   -1.8198    1.5484    2.2410 H   0  0  0  0  0  0  0  0  0  0  0  0
   -1.0840    2.9548    3.7464 C   0  0  0  0  0  0  0  0  0  0  0  0
   -1.9470    2.8156    4.4147 H   0  0  0  0  0  0  0  0  0  0  0  0
   -0.0569    3.8467    4.0945 C   0  0  0  0  0  0  0  0  0  0  0  0
   -0.1113    4.4047    5.0417 H   0  0  0  0  0  0  0  0  0  0  0  0
    1.0371    4.0374    3.2332 C   0  0  0  0  0  0  0  0  0  0  0  0
    1.8380    4.7414    3.5053 H   0  0  0  0  0  0  0  0  0  0  0  0
    1.1083    3.3349    2.0213 C   0  0  0  0  0  0  0  0  0  0  0  0
    1.9568    3.4983    1.3389 H   0  0  0  0  0  0  0  0  0  0  0  0
    0.7360    2.4367   -1.1807 C   0  0  0  0  0  0  0  0  0  0  0  0
    0.4180    3.8091   -1.2250 C   0  0  0  0  0  0  0  0  0  0  0  0
   -0.0911    4.2869   -0.3748 H   0  0  0  0  0  0  0  0  0  0  0  0
    0.7464    4.5662   -2.3604 C   0  0  0  0  0  0  0  0  0  0  0  0
    0.4984    5.6378   -2.3898 H   0  0  0  0  0  0  0  0  0  0  0  0
    1.3821    3.9597   -3.4542 C   0  0  0  0  0  0  0  0  0  0  0  0
    1.6367    4.5561   -4.3432 H   0  0  0  0  0  0  0  0  0  0  0  0
    1.6822    2.5866   -3.4193 C   0  0  0  0  0  0  0  0  0  0  0  0
    2.1694    2.1049   -4.2804 H   0  0  0  0  0  0  0  0  0  0  0  0
    1.3526    1.8239   -2.2923 C   0  0  0  0  0  0  0  0  0  0  0  0
    1.5739    0.7458   -2.2674 H   0  0  0  0  0  0  0  0  0  0  0  0
    2.7379    0.3667    1.1125 C   0  0  0  0  0  0  0  0  0  0  0  0
    3.0539   -0.6258    1.4976 H   0  0  0  0  0  0  0  0  0  0  0  0
    2.6436    1.0220    2.0077 H   0  0  0  0  0  0  0  0  0  0  0  0
    3.7908    0.9416    0.1594 C   0  0  0  0  0  0  0  0  0  0  0  0
    4.6727    1.2502    0.7642 H   0  0  0  0  0  0  0  0  0  0  0  0
    3.3871    1.8747   -0.2881 H   0  0  0  0  0  0  0  0  0  0  0  0
    4.2521   -0.0130   -0.9577 C   0  0  0  0  0  0  0  0  0  0  0  0
    3.3414   -0.4880   -1.3887 H   0  0  0  0  0  0  0  0  0  0  0  0
    5.1518   -1.1288   -0.4116 C   0  0  0  0  0  0  0  0  0  0  0  0
    6.1068   -0.7098   -0.0286 H   0  0  0  0  0  0  0  0  0  0  0  0
    5.3969   -1.8674   -1.2010 H   0  0  0  0  0  0  0  0  0  0  0  0
    4.6746   -1.6878    0.4183 H   0  0  0  0  0  0  0  0  0  0  0  0
    4.9620    0.7580   -2.0764 C   0  0  0  0  0  0  0  0  0  0  0  0
    4.3041    1.5355   -2.5145 H   0  0  0  0  0  0  0  0  0  0  0  0
    5.2823    0.0798   -2.8933 H   0  0  0  0  0  0  0  0  0  0  0  0
    5.8711    1.2667   -1.6901 H   0  0  0  0  0  0  0  0  0  0  0  0
  1  3  1  0  0  0  0
  1 15  1  0  0  0  0
  2  3  1  0  0  0  0
  2 26  1  0  0  0  0
  3 48  1  0  0  0  0
  4 13  1  0  0  0  0
  4  1  1  0  0  0  0
  5  4  2  0  0  0  0
  6  5  1  0  0  0  0
  7  9  2  0  0  0  0
  7  5  1  0  0  0  0
  8  7  1  0  0  0  0
  9 11  1  0  0  0  0
 10  9  1  0  0  0  0
 11 12  1  0  0  0  0
 11 13  2  0  0  0  0
 13 14  1  0  0  0  0
 15 16  2  0  0  0  0
 15 24  1  0  0  0  0
 16 18  1  0  0  0  0
 17 16  1  0  0  0  0
 18 19  1  0  0  0  0
 18 20  2  0  0  0  0
 20 21  1  0  0  0  0
 22 20  1  0  0  0  0
 22 23  1  0  0  0  0
 24 22  2  0  0  0  0
 25 24  1  0  0  0  0
 26 35  2  0  0  0  0
 26 27  1  0  0  0  0
 27 29  2  0  0  0  0
 28 27  1  0  0  0  0
 29 31  1  0  0  0  0
 29 30  1  0  0  0  0
 31 32  1  0  0  0  0
 33 34  1  0  0  0  0
 33 31  2  0  0  0  0
 35 33  1  0  0  0  0
 36 35  1  0  0  0  0
 37  2  1  0  0  0  0
 38 37  1  0  0  0  0
 38 39  1  0  0  0  0
 40 38  2  0  0  0  0
 41 40  1  0  0  0  0
 42 44  2  0  0  0  0
 42 40  1  0  0  0  0
 43 42  1  0  0  0  0
 44 46  1  0  0  0  0
 45 44  1  0  0  0  0
 46 47  1  0  0  0  0
 46 37  2  0  0  0  0
 48 49  1  0  0  0  0
 48 50  1  0  0  0  0
 51 52  1  0  0  0  0
 51 48  1  0  0  0  0
 53 51  1  0  0  0  0
 54 56  1  0  0  0  0
 54 51  1  0  0  0  0
 55 54  1  0  0  0  0
 56 57  1  0  0  0  0
 56 59  1  0  0  0  0
 58 56  1  0  0  0  0
 60 63  1  0  0  0  0
 60 54  1  0  0  0  0
 61 60  1  0  0  0  0
 62 60  1  0  0  0  0
M  END
