2,3
 OpenBabel05122313063D

 63 68  0  0  0  0  0  0  0  0999 V2000
   -6.1008    0.2534   -0.4331 S   0  0  0  0  0  0  0  0  0  0  0  0
   -0.2060   -1.5131    0.1867 P   0  0  0  0  0  0  0  0  0  0  0  0
    1.2207    1.3840    0.2075 P   0  0  0  0  0  0  0  0  0  0  0  0
   -1.4317    3.5273   -0.3389 O   0  0  0  0  0  0  0  0  0  0  0  0
   -3.5156   -0.7340   -0.0662 O   0  0  0  0  0  0  0  0  0  0  0  0
   -1.1933    0.0171   -0.0561 C   0  0  0  0  0  0  0  0  0  0  0  0
   -0.5821    1.2370   -0.1300 C   0  0  0  0  0  0  0  0  0  0  0  0
   -1.6314    2.3197   -0.2829 C   0  0  0  0  0  0  0  0  0  0  0  0
   -2.9424    1.6188   -0.3313 C   0  0  0  0  0  0  0  0  0  0  0  0
   -2.6927    0.1741   -0.1562 C   0  0  0  0  0  0  0  0  0  0  0  0
   -1.0712   -2.8497   -0.7322 C   0  0  0  0  0  0  0  0  0  0  0  0
   -0.6298   -3.1892   -2.0264 C   0  0  0  0  0  0  0  0  0  0  0  0
    0.1943   -2.6241   -2.4891 H   0  0  0  0  0  0  0  0  0  0  0  0
   -1.2657   -4.2245   -2.7284 C   0  0  0  0  0  0  0  0  0  0  0  0
   -0.9174   -4.4861   -3.7388 H   0  0  0  0  0  0  0  0  0  0  0  0
   -2.3341   -4.9219   -2.1449 C   0  0  0  0  0  0  0  0  0  0  0  0
   -2.8274   -5.7369   -2.6965 H   0  0  0  0  0  0  0  0  0  0  0  0
   -2.7750   -4.5800   -0.8554 C   0  0  0  0  0  0  0  0  0  0  0  0
   -3.6156   -5.1221   -0.3962 H   0  0  0  0  0  0  0  0  0  0  0  0
   -2.1497   -3.5455   -0.1476 C   0  0  0  0  0  0  0  0  0  0  0  0
   -2.5020   -3.2729    0.8569 H   0  0  0  0  0  0  0  0  0  0  0  0
   -0.5066   -1.9194    1.9555 C   0  0  0  0  0  0  0  0  0  0  0  0
    0.0913   -3.0940    2.4595 C   0  0  0  0  0  0  0  0  0  0  0  0
    0.6580   -3.7545    1.7847 H   0  0  0  0  0  0  0  0  0  0  0  0
   -0.0253   -3.4146    3.8177 C   0  0  0  0  0  0  0  0  0  0  0  0
    0.4470   -4.3305    4.2031 H   0  0  0  0  0  0  0  0  0  0  0  0
   -0.7304   -2.5635    4.6858 C   0  0  0  0  0  0  0  0  0  0  0  0
   -0.8150   -2.8138    5.7541 H   0  0  0  0  0  0  0  0  0  0  0  0
   -1.3210   -1.3924    4.1889 C   0  0  0  0  0  0  0  0  0  0  0  0
   -1.8699   -0.7183    4.8636 H   0  0  0  0  0  0  0  0  0  0  0  0
   -1.2124   -1.0691    2.8270 C   0  0  0  0  0  0  0  0  0  0  0  0
   -1.6691   -0.1419    2.4527 H   0  0  0  0  0  0  0  0  0  0  0  0
    1.0970    2.0664    1.9229 C   0  0  0  0  0  0  0  0  0  0  0  0
    1.3016    1.2251    3.0330 C   0  0  0  0  0  0  0  0  0  0  0  0
    1.5913    0.1770    2.8890 H   0  0  0  0  0  0  0  0  0  0  0  0
    1.1374    1.7277    4.3334 C   0  0  0  0  0  0  0  0  0  0  0  0
    1.3026    1.0622    5.1939 H   0  0  0  0  0  0  0  0  0  0  0  0
    0.7682    3.0667    4.5300 C   0  0  0  0  0  0  0  0  0  0  0  0
    0.6427    3.4600    5.5505 H   0  0  0  0  0  0  0  0  0  0  0  0
    0.5579    3.9065    3.4225 C   0  0  0  0  0  0  0  0  0  0  0  0
    0.2630    4.9562    3.5726 H   0  0  0  0  0  0  0  0  0  0  0  0
    0.7172    3.4125    2.1210 C   0  0  0  0  0  0  0  0  0  0  0  0
    0.5301    4.0615    1.2528 H   0  0  0  0  0  0  0  0  0  0  0  0
    1.8921    2.7847   -0.7571 C   0  0  0  0  0  0  0  0  0  0  0  0
    1.3176    3.2355   -1.9598 C   0  0  0  0  0  0  0  0  0  0  0  0
    0.3910    2.7824   -2.3338 H   0  0  0  0  0  0  0  0  0  0  0  0
    1.9423    4.2597   -2.6862 C   0  0  0  0  0  0  0  0  0  0  0  0
    1.4876    4.6120   -3.6241 H   0  0  0  0  0  0  0  0  0  0  0  0
    3.1404    4.8277   -2.2267 C   0  0  0  0  0  0  0  0  0  0  0  0
    3.6276    5.6283   -2.8036 H   0  0  0  0  0  0  0  0  0  0  0  0
    3.7201    4.3703   -1.0324 C   0  0  0  0  0  0  0  0  0  0  0  0
    4.6631    4.8064   -0.6702 H   0  0  0  0  0  0  0  0  0  0  0  0
    3.1002    3.3500   -0.2984 C   0  0  0  0  0  0  0  0  0  0  0  0
    3.5580    2.9932    0.6376 H   0  0  0  0  0  0  0  0  0  0  0  0
   -4.1185    2.3105   -0.4846 C   0  0  0  0  0  0  0  0  0  0  0  0
   -3.9750    3.4044   -0.5770 H   0  0  0  0  0  0  0  0  0  0  0  0
   -5.4845    1.9008   -0.5508 C   0  0  0  0  0  0  0  0  0  0  0  0
   -6.5480    2.8051   -0.7314 C   0  0  0  0  0  0  0  0  0  0  0  0
   -6.3748    3.8860   -0.8291 H   0  0  0  0  0  0  0  0  0  0  0  0
   -7.8160    2.1869   -0.7746 C   0  0  0  0  0  0  0  0  0  0  0  0
   -8.7663    2.7207   -0.9088 H   0  0  0  0  0  0  0  0  0  0  0  0
   -7.7203    0.8075   -0.6262 C   0  0  0  0  0  0  0  0  0  0  0  0
   -8.5427    0.0798   -0.6201 H   0  0  0  0  0  0  0  0  0  0  0  0
  2 22  1  0  0  0  0
  3 33  1  0  0  0  0
  4  8  2  0  0  0  0
  6  2  1  0  0  0  0
  7  6  2  0  0  0  0
  7  3  1  0  0  0  0
  8  7  1  0  0  0  0
  9  8  1  0  0  0  0
  9 10  1  0  0  0  0
 10  5  2  0  0  0  0
 10  6  1  0  0  0  0
 11 20  1  0  0  0  0
 11  2  1  0  0  0  0
 12 11  2  0  0  0  0
 13 12  1  0  0  0  0
 14 16  2  0  0  0  0
 14 12  1  0  0  0  0
 15 14  1  0  0  0  0
 16 18  1  0  0  0  0
 17 16  1  0  0  0  0
 18 19  1  0  0  0  0
 18 20  2  0  0  0  0
 20 21  1  0  0  0  0
 22 23  2  0  0  0  0
 22 31  1  0  0  0  0
 23 25  1  0  0  0  0
 24 23  1  0  0  0  0
 25 26  1  0  0  0  0
 25 27  2  0  0  0  0
 27 28  1  0  0  0  0
 29 27  1  0  0  0  0
 29 30  1  0  0  0  0
 31 29  2  0  0  0  0
 32 31  1  0  0  0  0
 33 42  2  0  0  0  0
 33 34  1  0  0  0  0
 34 36  2  0  0  0  0
 35 34  1  0  0  0  0
 36 38  1  0  0  0  0
 36 37  1  0  0  0  0
 38 39  1  0  0  0  0
 40 41  1  0  0  0  0
 40 38  2  0  0  0  0
 42 40  1  0  0  0  0
 43 42  1  0  0  0  0
 44 53  1  0  0  0  0
 44  3  1  0  0  0  0
 45 44  2  0  0  0  0
 46 45  1  0  0  0  0
 47 49  2  0  0  0  0
 47 45  1  0  0  0  0
 48 47  1  0  0  0  0
 49 51  1  0  0  0  0
 50 49  1  0  0  0  0
 51 52  1  0  0  0  0
 51 53  2  0  0  0  0
 53 54  1  0  0  0  0
 55  9  2  0  0  0  0
 56 55  1  0  0  0  0
 57 55  1  0  0  0  0
 57  1  1  0  0  0  0
 58 57  2  0  0  0  0
 59 58  1  0  0  0  0
 60 58  1  0  0  0  0
 60 62  2  0  0  0  0
 61 60  1  0  0  0  0
 62 63  1  0  0  0  0
 62  1  1  0  0  0  0
M  END
