1,23
 OpenBabel05122313063D

 44 45  0  0  0  0  0  0  0  0999 V2000
   -1.6411    0.3037   -0.6868 P   0  0  0  0  0  0  0  0  0  0  0  0
   -1.1645    2.3831    0.1632 Si  0  0  0  0  0  0  0  0  0  0  0  0
   -3.4507    0.1767   -0.3688 C   0  0  0  0  0  0  0  0  0  0  0  0
   -3.9024   -0.4663    0.8019 C   0  0  0  0  0  0  0  0  0  0  0  0
   -5.2742   -0.5225    1.0912 C   0  0  0  0  0  0  0  0  0  0  0  0
   -6.2070    0.0508    0.2127 C   0  0  0  0  0  0  0  0  0  0  0  0
   -5.7633    0.6838   -0.9600 C   0  0  0  0  0  0  0  0  0  0  0  0
   -4.3925    0.7508   -1.2494 C   0  0  0  0  0  0  0  0  0  0  0  0
   -2.1443    3.7292   -0.7393 C   0  0  0  0  0  0  0  0  0  0  0  0
   -1.6205    2.2963    1.9985 C   0  0  0  0  0  0  0  0  0  0  0  0
   -1.6844    0.6313   -2.0840 H   0  0  0  0  0  0  0  0  0  0  0  0
   -3.1766   -0.9345    1.4828 H   0  0  0  0  0  0  0  0  0  0  0  0
   -5.6156   -1.0297    2.0063 H   0  0  0  0  0  0  0  0  0  0  0  0
   -7.2829   -0.0026    0.4374 H   0  0  0  0  0  0  0  0  0  0  0  0
   -6.4903    1.1258   -1.6584 H   0  0  0  0  0  0  0  0  0  0  0  0
   -4.0506    1.2463   -2.1716 H   0  0  0  0  0  0  0  0  0  0  0  0
   -3.2317    3.5232   -0.6582 H   0  0  0  0  0  0  0  0  0  0  0  0
   -1.8748    3.7684   -1.8137 H   0  0  0  0  0  0  0  0  0  0  0  0
   -1.9459    4.7262   -0.2947 H   0  0  0  0  0  0  0  0  0  0  0  0
   -2.7138    2.1426    2.1095 H   0  0  0  0  0  0  0  0  0  0  0  0
   -1.3460    3.2374    2.5174 H   0  0  0  0  0  0  0  0  0  0  0  0
   -1.1060    1.4548    2.5033 H   0  0  0  0  0  0  0  0  0  0  0  0
    1.6411    0.3037    0.6868 P   0  0  0  0  0  0  0  0  0  0  0  0
    1.1645    2.3831   -0.1632 Si  0  0  0  0  0  0  0  0  0  0  0  0
    3.4507    0.1767    0.3688 C   0  0  0  0  0  0  0  0  0  0  0  0
    1.6844    0.6313    2.0840 H   0  0  0  0  0  0  0  0  0  0  0  0
    2.1442    3.7292    0.7394 C   0  0  0  0  0  0  0  0  0  0  0  0
    1.6205    2.2964   -1.9985 C   0  0  0  0  0  0  0  0  0  0  0  0
    3.9023   -0.4663   -0.8019 C   0  0  0  0  0  0  0  0  0  0  0  0
    4.3925    0.7508    1.2494 C   0  0  0  0  0  0  0  0  0  0  0  0
    3.2316    3.5232    0.6582 H   0  0  0  0  0  0  0  0  0  0  0  0
    1.8747    3.7685    1.8137 H   0  0  0  0  0  0  0  0  0  0  0  0
    1.9459    4.7262    0.2948 H   0  0  0  0  0  0  0  0  0  0  0  0
    2.7138    2.1427   -2.1094 H   0  0  0  0  0  0  0  0  0  0  0  0
    1.3460    3.2374   -2.5174 H   0  0  0  0  0  0  0  0  0  0  0  0
    1.1060    1.4548   -2.5033 H   0  0  0  0  0  0  0  0  0  0  0  0
    5.2742   -0.5225   -1.0912 C   0  0  0  0  0  0  0  0  0  0  0  0
    3.1766   -0.9344   -1.4828 H   0  0  0  0  0  0  0  0  0  0  0  0
    5.7633    0.6838    0.9599 C   0  0  0  0  0  0  0  0  0  0  0  0
    4.0506    1.2463    2.1716 H   0  0  0  0  0  0  0  0  0  0  0  0
    6.2069    0.0508   -0.2128 C   0  0  0  0  0  0  0  0  0  0  0  0
    5.6155   -1.0296   -2.0063 H   0  0  0  0  0  0  0  0  0  0  0  0
    6.4903    1.1258    1.6584 H   0  0  0  0  0  0  0  0  0  0  0  0
    7.2829   -0.0026   -0.4374 H   0  0  0  0  0  0  0  0  0  0  0  0
  1  3  1  0  0  0  0
  1  2  1  0  0  0  0
  2 10  1  0  0  0  0
  3  4  1  0  0  0  0
  4  5  2  0  0  0  0
  4 12  1  0  0  0  0
  5 13  1  0  0  0  0
  6 14  1  0  0  0  0
  6  5  1  0  0  0  0
  7  6  2  0  0  0  0
  8  7  1  0  0  0  0
  8  3  2  0  0  0  0
  9 17  1  0  0  0  0
  9 19  1  0  0  0  0
  9  2  1  0  0  0  0
 10 20  1  0  0  0  0
 10 22  1  0  0  0  0
 10 21  1  0  0  0  0
 11  1  1  0  0  0  0
 15  7  1  0  0  0  0
 16  8  1  0  0  0  0
 18  9  1  0  0  0  0
 23 26  1  0  0  0  0
 24  2  1  0  0  0  0
 24 23  1  0  0  0  0
 24 27  1  0  0  0  0
 25 23  1  0  0  0  0
 25 30  1  0  0  0  0
 27 32  1  0  0  0  0
 28 24  1  0  0  0  0
 29 25  2  0  0  0  0
 30 40  1  0  0  0  0
 31 27  1  0  0  0  0
 33 27  1  0  0  0  0
 34 28  1  0  0  0  0
 35 28  1  0  0  0  0
 36 28  1  0  0  0  0
 37 29  1  0  0  0  0
 37 41  2  0  0  0  0
 38 29  1  0  0  0  0
 39 30  2  0  0  0  0
 39 43  1  0  0  0  0
 41 39  1  0  0  0  0
 42 37  1  0  0  0  0
 44 41  1  0  0  0  0
M  END
