1,3
 OpenBabel05122313063D

 69 69  0  0  0  0  0  0  0  0999 V2000
   -1.3519   -1.7271   -0.0041 P   0  0  0  0  0  0  0  0  0  0  0  0
    2.4496   -1.3965    0.2900 P   0  0  0  0  0  4  0  0  0  0  0  0
   -0.0939    1.7348    0.8254 P   0  0  0  0  0  0  0  0  0  0  0  0
    3.0213   -3.1093    1.0775 S   0  0  0  0  0  1  0  0  0  0  0  0
    0.1851   -2.3329   -0.5320 N   0  0  0  0  0  0  0  0  0  0  0  0
    1.2581   -1.5527   -0.9680 N   0  0  0  0  0  0  0  0  0  0  0  0
    1.6282   -0.3560    1.4349 N   0  0  0  0  0  0  0  0  0  0  0  0
    1.4641    0.9505    0.9664 N   0  0  0  0  0  0  0  0  0  0  0  0
   -1.3229   -2.1982    1.8316 C   0  0  0  0  0  0  0  0  0  0  0  0
   -2.6680   -2.0463    2.5506 C   0  0  0  0  0  0  0  0  0  0  0  0
   -0.7014   -3.5684    2.1261 C   0  0  0  0  0  0  0  0  0  0  0  0
   -2.4423   -3.0540   -0.7956 C   0  0  0  0  0  0  0  0  0  0  0  0
   -2.1575   -3.1581   -2.2980 C   0  0  0  0  0  0  0  0  0  0  0  0
   -3.9355   -2.8361   -0.5208 C   0  0  0  0  0  0  0  0  0  0  0  0
    1.7709   -2.0487   -2.2534 C   0  0  0  0  0  0  0  0  0  0  0  0
    3.8001   -0.3971   -0.4210 C   0  0  0  0  0  0  0  0  0  0  0  0
    3.5453    0.6439   -1.3391 C   0  0  0  0  0  0  0  0  0  0  0  0
    4.6018    1.4460   -1.7945 C   0  0  0  0  0  0  0  0  0  0  0  0
    5.9095    1.2213   -1.3332 C   0  0  0  0  0  0  0  0  0  0  0  0
    6.1642    0.1828   -0.4226 C   0  0  0  0  0  0  0  0  0  0  0  0
    5.1145   -0.6291    0.0316 C   0  0  0  0  0  0  0  0  0  0  0  0
    2.0634   -0.4546    2.8279 C   0  0  0  0  0  0  0  0  0  0  0  0
    0.5555    3.4036    0.2061 C   0  0  0  0  0  0  0  0  0  0  0  0
    1.5925    4.0717    1.1215 C   0  0  0  0  0  0  0  0  0  0  0  0
    1.0554    3.3771   -1.2398 C   0  0  0  0  0  0  0  0  0  0  0  0
   -0.6339    2.2439    2.5786 C   0  0  0  0  0  0  0  0  0  0  0  0
   -1.6067    3.4310    2.5251 C   0  0  0  0  0  0  0  0  0  0  0  0
   -1.2638    1.0884    3.3577 C   0  0  0  0  0  0  0  0  0  0  0  0
    0.4774   -3.2580   -0.1756 H   0  0  0  0  0  0  0  0  0  0  0  0
    2.2485    1.5684    1.2257 H   0  0  0  0  0  0  0  0  0  0  0  0
   -0.6252   -1.4205    2.2052 H   0  0  0  0  0  0  0  0  0  0  0  0
   -3.2416   -1.1584    2.2303 H   0  0  0  0  0  0  0  0  0  0  0  0
   -2.5003   -1.9601    3.6442 H   0  0  0  0  0  0  0  0  0  0  0  0
   -3.3080   -2.9373    2.3937 H   0  0  0  0  0  0  0  0  0  0  0  0
    0.3542   -3.6400    1.7954 H   0  0  0  0  0  0  0  0  0  0  0  0
   -1.2836   -4.3980    1.6725 H   0  0  0  0  0  0  0  0  0  0  0  0
   -0.7018   -3.7428    3.2227 H   0  0  0  0  0  0  0  0  0  0  0  0
   -2.1256   -4.0060   -0.3121 H   0  0  0  0  0  0  0  0  0  0  0  0
   -1.0914   -3.3745   -2.4970 H   0  0  0  0  0  0  0  0  0  0  0  0
   -2.4224   -2.2208   -2.8257 H   0  0  0  0  0  0  0  0  0  0  0  0
   -2.7677   -3.9727   -2.7402 H   0  0  0  0  0  0  0  0  0  0  0  0
   -4.2864   -1.8727   -0.9371 H   0  0  0  0  0  0  0  0  0  0  0  0
   -4.1842   -2.8484    0.5552 H   0  0  0  0  0  0  0  0  0  0  0  0
   -4.5238   -3.6409   -1.0084 H   0  0  0  0  0  0  0  0  0  0  0  0
    2.1004   -3.1103   -2.1824 H   0  0  0  0  0  0  0  0  0  0  0  0
    2.6262   -1.4344   -2.5881 H   0  0  0  0  0  0  0  0  0  0  0  0
    0.9627   -1.9602   -3.0025 H   0  0  0  0  0  0  0  0  0  0  0  0
    2.5239    0.8094   -1.7070 H   0  0  0  0  0  0  0  0  0  0  0  0
    4.3998    2.2510   -2.5175 H   0  0  0  0  0  0  0  0  0  0  0  0
    6.7357    1.8534   -1.6927 H   0  0  0  0  0  0  0  0  0  0  0  0
    7.1896   -0.0028   -0.0687 H   0  0  0  0  0  0  0  0  0  0  0  0
    5.2968   -1.4608    0.7305 H   0  0  0  0  0  0  0  0  0  0  0  0
    1.2643   -0.0822    3.4975 H   0  0  0  0  0  0  0  0  0  0  0  0
    2.9884    0.1412    3.0187 H   0  0  0  0  0  0  0  0  0  0  0  0
    2.2748   -1.5140    3.0638 H   0  0  0  0  0  0  0  0  0  0  0  0
   -0.3724    4.0128    0.2245 H   0  0  0  0  0  0  0  0  0  0  0  0
    1.2675    4.1503    2.1767 H   0  0  0  0  0  0  0  0  0  0  0  0
    1.7936    5.1018    0.7613 H   0  0  0  0  0  0  0  0  0  0  0  0
    2.5695    3.5433    1.0984 H   0  0  0  0  0  0  0  0  0  0  0  0
    0.3092    2.9533   -1.9339 H   0  0  0  0  0  0  0  0  0  0  0  0
    1.9900    2.7928   -1.3313 H   0  0  0  0  0  0  0  0  0  0  0  0
    1.2741    4.4125   -1.5734 H   0  0  0  0  0  0  0  0  0  0  0  0
    0.3042    2.5508    3.0912 H   0  0  0  0  0  0  0  0  0  0  0  0
   -1.1294    4.3701    2.1865 H   0  0  0  0  0  0  0  0  0  0  0  0
   -2.0283    3.6188    3.5344 H   0  0  0  0  0  0  0  0  0  0  0  0
   -2.4603    3.2173    1.8490 H   0  0  0  0  0  0  0  0  0  0  0  0
   -1.4761    1.4066    4.3995 H   0  0  0  0  0  0  0  0  0  0  0  0
   -0.6160    0.1939    3.4074 H   0  0  0  0  0  0  0  0  0  0  0  0
   -2.2215    0.7777    2.9023 H   0  0  0  0  0  0  0  0  0  0  0  0
  1  9  1  0  0  0  0
  2  4  1  0  0  0  0
  2  7  1  0  0  0  0
  3  8  1  0  0  0  0
  3 26  1  0  0  0  0
  5 29  1  0  0  0  0
  5  1  1  0  0  0  0
  6  5  1  0  0  0  0
  6  2  1  0  0  0  0
  7 22  1  0  0  0  0
  8 30  1  0  0  0  0
  8  7  1  0  0  0  0
  9 11  1  0  0  0  0
  9 31  1  0  0  0  0
  9 10  1  0  0  0  0
 10 33  1  0  0  0  0
 11 37  1  0  0  0  0
 12 14  1  0  0  0  0
 12 38  1  0  0  0  0
 12  1  1  0  0  0  0
 13 12  1  0  0  0  0
 14 43  1  0  0  0  0
 15 45  1  0  0  0  0
 15  6  1  0  0  0  0
 16 21  1  0  0  0  0
 16  2  1  0  0  0  0
 17 16  2  0  0  0  0
 18 17  1  0  0  0  0
 18 19  2  0  0  0  0
 19 20  1  0  0  0  0
 20 51  1  0  0  0  0
 20 21  2  0  0  0  0
 21 52  1  0  0  0  0
 22 54  1  0  0  0  0
 22 55  1  0  0  0  0
 22 53  1  0  0  0  0
 23 56  1  0  0  0  0
 23  3  1  0  0  0  0
 23 24  1  0  0  0  0
 24 57  1  0  0  0  0
 25 23  1  0  0  0  0
 26 63  1  0  0  0  0
 26 28  1  0  0  0  0
 27 26  1  0  0  0  0
 27 65  1  0  0  0  0
 28 68  1  0  0  0  0
 28 67  1  0  0  0  0
 32 10  1  0  0  0  0
 34 10  1  0  0  0  0
 35 11  1  0  0  0  0
 36 11  1  0  0  0  0
 39 13  1  0  0  0  0
 40 13  1  0  0  0  0
 41 13  1  0  0  0  0
 42 14  1  0  0  0  0
 44 14  1  0  0  0  0
 46 15  1  0  0  0  0
 47 15  1  0  0  0  0
 48 17  1  0  0  0  0
 49 18  1  0  0  0  0
 50 19  1  0  0  0  0
 58 24  1  0  0  0  0
 59 24  1  0  0  0  0
 60 25  1  0  0  0  0
 61 25  1  0  0  0  0
 62 25  1  0  0  0  0
 64 27  1  0  0  0  0
 66 27  1  0  0  0  0
 69 28  1  0  0  0  0
M  END
