1,2
 OpenBabel05122313063D

 71 75  0  0  0  0  0  0  0  0999 V2000
   -0.7263   -1.3503   -0.0338 P   0  0  0  0  0  0  0  0  0  0  0  0
   -0.6832    1.4185   -0.2329 P   0  0  0  0  0  0  0  0  0  0  0  0
    4.1727   -0.3203   -0.2617 Si  0  0  0  0  0  0  0  0  0  0  0  0
    2.5694   -0.1977    0.3860 O   0  0  0  0  0  0  0  0  0  0  0  0
   -0.1523    0.0867    0.7632 N   0  0  0  0  0  0  0  0  0  0  0  0
    2.1577    0.0953    1.6282 C   0  0  0  0  0  0  0  0  0  0  0  0
    0.7541    0.2284    1.8575 C   0  0  0  0  0  0  0  0  0  0  0  0
    0.2875    0.5991    3.1341 C   0  0  0  0  0  0  0  0  0  0  0  0
   -0.7922    0.7476    3.2698 H   0  0  0  0  0  0  0  0  0  0  0  0
    1.1726    0.8109    4.1998 C   0  0  0  0  0  0  0  0  0  0  0  0
    0.7879    1.1017    5.1879 H   0  0  0  0  0  0  0  0  0  0  0  0
    2.5501    0.6490    3.9847 C   0  0  0  0  0  0  0  0  0  0  0  0
    3.2619    0.8053    4.8096 H   0  0  0  0  0  0  0  0  0  0  0  0
    3.0354    0.2973    2.7192 C   0  0  0  0  0  0  0  0  0  0  0  0
    4.1171    0.1883    2.5632 H   0  0  0  0  0  0  0  0  0  0  0  0
   -1.9510   -2.1609    1.0695 C   0  0  0  0  0  0  0  0  0  0  0  0
   -2.9340   -2.9542    0.4409 C   0  0  0  0  0  0  0  0  0  0  0  0
   -2.9597   -3.0215   -0.6581 H   0  0  0  0  0  0  0  0  0  0  0  0
   -3.8866   -3.6316    1.2142 C   0  0  0  0  0  0  0  0  0  0  0  0
   -4.6531   -4.2448    0.7166 H   0  0  0  0  0  0  0  0  0  0  0  0
   -3.8756   -3.5142    2.6136 C   0  0  0  0  0  0  0  0  0  0  0  0
   -4.6302   -4.0408    3.2174 H   0  0  0  0  0  0  0  0  0  0  0  0
   -2.9032   -2.7199    3.2407 C   0  0  0  0  0  0  0  0  0  0  0  0
   -2.8895   -2.6243    4.3372 H   0  0  0  0  0  0  0  0  0  0  0  0
   -1.9397   -2.0458    2.4737 C   0  0  0  0  0  0  0  0  0  0  0  0
   -1.1778   -1.4337    2.9753 H   0  0  0  0  0  0  0  0  0  0  0  0
    0.6063   -2.6115   -0.0494 C   0  0  0  0  0  0  0  0  0  0  0  0
    1.1955   -3.0601    1.1516 C   0  0  0  0  0  0  0  0  0  0  0  0
    0.8885   -2.6328    2.1173 H   0  0  0  0  0  0  0  0  0  0  0  0
    2.1756   -4.0609    1.1188 C   0  0  0  0  0  0  0  0  0  0  0  0
    2.6384   -4.4010    2.0576 H   0  0  0  0  0  0  0  0  0  0  0  0
    2.5569   -4.6350   -0.1063 C   0  0  0  0  0  0  0  0  0  0  0  0
    3.3207   -5.4274   -0.1283 H   0  0  0  0  0  0  0  0  0  0  0  0
    1.9529   -4.2070   -1.2986 C   0  0  0  0  0  0  0  0  0  0  0  0
    2.2378   -4.6640   -2.2583 H   0  0  0  0  0  0  0  0  0  0  0  0
    0.9791   -3.1963   -1.2755 C   0  0  0  0  0  0  0  0  0  0  0  0
    0.5038   -2.8562   -2.2067 H   0  0  0  0  0  0  0  0  0  0  0  0
   -1.8294    2.3859    0.8204 C   0  0  0  0  0  0  0  0  0  0  0  0
   -2.7140    1.7188    1.6943 C   0  0  0  0  0  0  0  0  0  0  0  0
   -2.6732    0.6237    1.7855 H   0  0  0  0  0  0  0  0  0  0  0  0
   -3.6508    2.4485    2.4380 C   0  0  0  0  0  0  0  0  0  0  0  0
   -4.3314    1.9193    3.1221 H   0  0  0  0  0  0  0  0  0  0  0  0
   -3.7307    3.8441    2.3000 C   0  0  0  0  0  0  0  0  0  0  0  0
   -4.4711    4.4144    2.8812 H   0  0  0  0  0  0  0  0  0  0  0  0
   -2.8698    4.5089    1.4131 C   0  0  0  0  0  0  0  0  0  0  0  0
   -2.9333    5.6012    1.2949 H   0  0  0  0  0  0  0  0  0  0  0  0
   -1.9216    3.7854    0.6744 C   0  0  0  0  0  0  0  0  0  0  0  0
   -1.2481    4.3125   -0.0175 H   0  0  0  0  0  0  0  0  0  0  0  0
    0.7256    2.5740   -0.4421 C   0  0  0  0  0  0  0  0  0  0  0  0
    1.1498    2.9233   -1.7402 C   0  0  0  0  0  0  0  0  0  0  0  0
    0.6487    2.4819   -2.6130 H   0  0  0  0  0  0  0  0  0  0  0  0
    2.2019    3.8366   -1.9094 C   0  0  0  0  0  0  0  0  0  0  0  0
    2.5234    4.1113   -2.9254 H   0  0  0  0  0  0  0  0  0  0  0  0
    2.8381    4.3983   -0.7910 C   0  0  0  0  0  0  0  0  0  0  0  0
    3.6658    5.1111   -0.9276 H   0  0  0  0  0  0  0  0  0  0  0  0
    2.4111    4.0585    0.5036 C   0  0  0  0  0  0  0  0  0  0  0  0
    2.9012    4.5024    1.3833 H   0  0  0  0  0  0  0  0  0  0  0  0
    1.3516    3.1585    0.6821 C   0  0  0  0  0  0  0  0  0  0  0  0
    1.0034    2.9217    1.6976 H   0  0  0  0  0  0  0  0  0  0  0  0
    3.9376   -0.7566   -2.0622 C   0  0  0  0  0  0  0  0  0  0  0  0
    3.3565   -1.6938   -2.1667 H   0  0  0  0  0  0  0  0  0  0  0  0
    4.9283   -0.8988   -2.5415 H   0  0  0  0  0  0  0  0  0  0  0  0
    3.3911    0.0409   -2.6011 H   0  0  0  0  0  0  0  0  0  0  0  0
    5.1002   -1.7033    0.6221 C   0  0  0  0  0  0  0  0  0  0  0  0
    5.3102   -1.4932    1.6890 H   0  0  0  0  0  0  0  0  0  0  0  0
    6.0719   -1.8762    0.1141 H   0  0  0  0  0  0  0  0  0  0  0  0
    4.5123   -2.6415    0.5643 H   0  0  0  0  0  0  0  0  0  0  0  0
    5.0157    1.3522   -0.0754 C   0  0  0  0  0  0  0  0  0  0  0  0
    4.4059    2.1369   -0.5667 H   0  0  0  0  0  0  0  0  0  0  0  0
    6.0104    1.3283   -0.5672 H   0  0  0  0  0  0  0  0  0  0  0  0
    5.1651    1.6509    0.9808 H   0  0  0  0  0  0  0  0  0  0  0  0
  1  5  1  0  0  0  0
  1 16  1  0  0  0  0
  2  5  1  0  0  0  0
  2 38  1  0  0  0  0
  3 68  1  0  0  0  0
  3  4  1  0  0  0  0
  3 64  1  0  0  0  0
  4  6  1  0  0  0  0
  5  7  1  0  0  0  0
  6  7  2  0  0  0  0
  6 14  1  0  0  0  0
  7  8  1  0  0  0  0
  8  9  1  0  0  0  0
  8 10  2  0  0  0  0
 10 11  1  0  0  0  0
 12 10  1  0  0  0  0
 12 13  1  0  0  0  0
 14 12  2  0  0  0  0
 15 14  1  0  0  0  0
 16 25  1  0  0  0  0
 17 16  2  0  0  0  0
 17 19  1  0  0  0  0
 18 17  1  0  0  0  0
 19 21  2  0  0  0  0
 20 19  1  0  0  0  0
 21 22  1  0  0  0  0
 21 23  1  0  0  0  0
 23 24  1  0  0  0  0
 25 26  1  0  0  0  0
 25 23  2  0  0  0  0
 27  1  1  0  0  0  0
 27 28  1  0  0  0  0
 28 29  1  0  0  0  0
 30 28  2  0  0  0  0
 30 31  1  0  0  0  0
 32 30  1  0  0  0  0
 33 32  1  0  0  0  0
 34 36  1  0  0  0  0
 34 32  2  0  0  0  0
 35 34  1  0  0  0  0
 36 27  2  0  0  0  0
 37 36  1  0  0  0  0
 38 39  1  0  0  0  0
 39 40  1  0  0  0  0
 39 41  2  0  0  0  0
 41 42  1  0  0  0  0
 43 41  1  0  0  0  0
 43 44  1  0  0  0  0
 45 43  2  0  0  0  0
 46 45  1  0  0  0  0
 47 38  2  0  0  0  0
 47 45  1  0  0  0  0
 48 47  1  0  0  0  0
 49  2  1  0  0  0  0
 49 58  1  0  0  0  0
 50 49  2  0  0  0  0
 51 50  1  0  0  0  0
 52 50  1  0  0  0  0
 52 54  2  0  0  0  0
 53 52  1  0  0  0  0
 54 56  1  0  0  0  0
 55 54  1  0  0  0  0
 56 58  2  0  0  0  0
 56 57  1  0  0  0  0
 58 59  1  0  0  0  0
 60  3  1  0  0  0  0
 61 60  1  0  0  0  0
 62 60  1  0  0  0  0
 63 60  1  0  0  0  0
 64 65  1  0  0  0  0
 66 64  1  0  0  0  0
 67 64  1  0  0  0  0
 68 71  1  0  0  0  0
 69 68  1  0  0  0  0
 70 68  1  0  0  0  0
M  END
