1,2
 OpenBabel05122313063D

 49 48  0  0  0  0  0  0  0  0999 V2000
   -1.4431   -0.0639    0.2925 P   0  0  0  0  0  0  0  0  0  0  0  0
    1.2666    0.5912    0.1699 P   0  0  0  0  0  0  0  0  0  0  0  0
   -2.2873    1.2398   -0.2791 O   0  0  0  0  0  0  0  0  0  0  0  0
   -2.4604   -0.8375    1.3223 O   0  0  0  0  0  0  0  0  0  0  0  0
    1.3815    2.0006   -0.6616 O   0  0  0  0  0  0  0  0  0  0  0  0
    2.5904    0.6357    1.1553 O   0  0  0  0  0  0  0  0  0  0  0  0
   -0.5084    2.1752    1.7430 F   0  0  0  0  0  0  0  0  0  0  0  0
    0.0433    0.1990    2.5558 F   0  0  0  0  0  0  0  0  0  0  0  0
   -0.1927    0.8936    1.3916 C   0  0  0  0  0  0  0  0  0  0  0  0
   -2.7379    1.2679   -1.6677 C   0  0  0  0  0  0  0  0  0  0  0  0
   -2.3307    0.3633   -2.1736 H   0  0  0  0  0  0  0  0  0  0  0  0
   -4.2591    1.2138   -1.6880 C   0  0  0  0  0  0  0  0  0  0  0  0
   -4.6284    0.2778   -1.2253 H   0  0  0  0  0  0  0  0  0  0  0  0
   -4.6305    1.2519   -2.7315 H   0  0  0  0  0  0  0  0  0  0  0  0
   -4.6874    2.0747   -1.1354 H   0  0  0  0  0  0  0  0  0  0  0  0
   -2.1505    2.5126   -2.3144 C   0  0  0  0  0  0  0  0  0  0  0  0
   -2.5243    3.4263   -1.8087 H   0  0  0  0  0  0  0  0  0  0  0  0
   -2.4314    2.5621   -3.3850 H   0  0  0  0  0  0  0  0  0  0  0  0
   -1.0465    2.4983   -2.2426 H   0  0  0  0  0  0  0  0  0  0  0  0
   -3.1179   -0.1334    2.4273 C   0  0  0  0  0  0  0  0  0  0  0  0
   -2.6641    0.8784    2.5169 H   0  0  0  0  0  0  0  0  0  0  0  0
   -2.8427   -0.9345    3.6906 C   0  0  0  0  0  0  0  0  0  0  0  0
   -3.2617   -1.9565    3.5963 H   0  0  0  0  0  0  0  0  0  0  0  0
   -3.3085   -0.4433    4.5683 H   0  0  0  0  0  0  0  0  0  0  0  0
   -1.7535   -1.0140    3.8646 H   0  0  0  0  0  0  0  0  0  0  0  0
   -4.5967    0.0085    2.0965 C   0  0  0  0  0  0  0  0  0  0  0  0
   -4.7367    0.6177    1.1840 H   0  0  0  0  0  0  0  0  0  0  0  0
   -5.1325    0.5024    2.9318 H   0  0  0  0  0  0  0  0  0  0  0  0
   -5.0510   -0.9893    1.9316 H   0  0  0  0  0  0  0  0  0  0  0  0
    1.7662    3.2578   -0.0075 C   0  0  0  0  0  0  0  0  0  0  0  0
    1.7367    3.1031    1.0919 H   0  0  0  0  0  0  0  0  0  0  0  0
    0.7342    4.3019   -0.4041 C   0  0  0  0  0  0  0  0  0  0  0  0
    0.7295    4.4450   -1.5035 H   0  0  0  0  0  0  0  0  0  0  0  0
    0.9680    5.2742    0.0738 H   0  0  0  0  0  0  0  0  0  0  0  0
   -0.2753    3.9835   -0.0829 H   0  0  0  0  0  0  0  0  0  0  0  0
    3.1880    3.5912   -0.4348 C   0  0  0  0  0  0  0  0  0  0  0  0
    3.8842    2.7932   -0.1134 H   0  0  0  0  0  0  0  0  0  0  0  0
    3.5146    4.5473    0.0216 H   0  0  0  0  0  0  0  0  0  0  0  0
    3.2461    3.6912   -1.5374 H   0  0  0  0  0  0  0  0  0  0  0  0
    3.4049   -0.5531    1.3855 C   0  0  0  0  0  0  0  0  0  0  0  0
    2.9737   -1.3799    0.7782 H   0  0  0  0  0  0  0  0  0  0  0  0
    3.3088   -0.9076    2.8616 C   0  0  0  0  0  0  0  0  0  0  0  0
    3.7039   -0.0811    3.4866 H   0  0  0  0  0  0  0  0  0  0  0  0
    3.8947   -1.8229    3.0781 H   0  0  0  0  0  0  0  0  0  0  0  0
    2.2552   -1.0888    3.1467 H   0  0  0  0  0  0  0  0  0  0  0  0
    4.8155   -0.2551    0.8996 C   0  0  0  0  0  0  0  0  0  0  0  0
    4.8147   -0.0183   -0.1826 H   0  0  0  0  0  0  0  0  0  0  0  0
    5.4718   -1.1336    1.0597 H   0  0  0  0  0  0  0  0  0  0  0  0
    5.2446    0.6064    1.4508 H   0  0  0  0  0  0  0  0  0  0  0  0
  1  4  1  0  0  0  0
  1  9  1  0  0  0  0
  2  6  1  0  0  0  0
  2  9  1  0  0  0  0
  3  1  1  0  0  0  0
  4 20  1  0  0  0  0
  5 30  1  0  0  0  0
  5  2  1  0  0  0  0
  6 40  1  0  0  0  0
  9  7  1  0  0  0  0
  9  8  1  0  0  0  0
 10  3  1  0  0  0  0
 11 10  1  0  0  0  0
 12 10  1  0  0  0  0
 12 13  1  0  0  0  0
 12 15  1  0  0  0  0
 14 12  1  0  0  0  0
 16 19  1  0  0  0  0
 16 17  1  0  0  0  0
 16 10  1  0  0  0  0
 18 16  1  0  0  0  0
 20 21  1  0  0  0  0
 20 22  1  0  0  0  0
 22 25  1  0  0  0  0
 22 24  1  0  0  0  0
 23 22  1  0  0  0  0
 26 20  1  0  0  0  0
 26 28  1  0  0  0  0
 27 26  1  0  0  0  0
 29 26  1  0  0  0  0
 30 31  1  0  0  0  0
 32 35  1  0  0  0  0
 32 30  1  0  0  0  0
 32 34  1  0  0  0  0
 33 32  1  0  0  0  0
 36 37  1  0  0  0  0
 36 30  1  0  0  0  0
 36 38  1  0  0  0  0
 39 36  1  0  0  0  0
 40 42  1  0  0  0  0
 41 40  1  0  0  0  0
 42 44  1  0  0  0  0
 42 45  1  0  0  0  0
 42 43  1  0  0  0  0
 46 48  1  0  0  0  0
 46 40  1  0  0  0  0
 46 49  1  0  0  0  0
 47 46  1  0  0  0  0
M  END
