1,2
 OpenBabel05122313063D

 64 69  0  0  0  0  0  0  0  0999 V2000
    0.2509    2.0089   -0.2084 P   0  0  0  0  0  0  0  0  0  0  0  0
    1.0954   -1.1744    0.2244 P   0  0  0  0  0  0  0  0  0  0  0  0
   -1.1125    4.1232   -1.1806 F   0  0  0  0  0  0  0  0  0  0  0  0
    0.6522    3.6235   -2.3703 F   0  0  0  0  0  0  0  0  0  0  0  0
    0.8741    4.6651   -0.4769 F   0  0  0  0  0  0  0  0  0  0  0  0
   -0.1762    1.7484    2.4735 F   0  0  0  0  0  0  0  0  0  0  0  0
    0.1723    3.7841    1.8275 F   0  0  0  0  0  0  0  0  0  0  0  0
   -1.7635    2.8547    1.4488 F   0  0  0  0  0  0  0  0  0  0  0  0
   -1.0984    1.0816   -1.0668 C   0  0  0  0  0  0  0  0  0  0  0  0
   -1.2608    1.3149   -2.4683 C   0  0  0  0  0  0  0  0  0  0  0  0
   -0.7066    2.1170   -2.9668 H   0  0  0  0  0  0  0  0  0  0  0  0
   -2.0927    0.5149   -3.2268 C   0  0  0  0  0  0  0  0  0  0  0  0
   -2.1932    0.7015   -4.3069 H   0  0  0  0  0  0  0  0  0  0  0  0
   -2.8248   -0.5522   -2.6393 C   0  0  0  0  0  0  0  0  0  0  0  0
   -3.6881   -1.3824   -3.4109 C   0  0  0  0  0  0  0  0  0  0  0  0
   -3.7835   -1.1823   -4.4892 H   0  0  0  0  0  0  0  0  0  0  0  0
   -4.3961   -2.4159   -2.8179 C   0  0  0  0  0  0  0  0  0  0  0  0
   -5.0640   -3.0479   -3.4223 H   0  0  0  0  0  0  0  0  0  0  0  0
   -4.2593   -2.6591   -1.4262 C   0  0  0  0  0  0  0  0  0  0  0  0
   -4.8231   -3.4796   -0.9574 H   0  0  0  0  0  0  0  0  0  0  0  0
   -3.4163   -1.8761   -0.6520 C   0  0  0  0  0  0  0  0  0  0  0  0
   -3.3126   -2.0840    0.4211 H   0  0  0  0  0  0  0  0  0  0  0  0
   -2.6750   -0.8005   -1.2288 C   0  0  0  0  0  0  0  0  0  0  0  0
   -1.7700    0.0123   -0.4544 C   0  0  0  0  0  0  0  0  0  0  0  0
   -1.5439   -0.3599    0.9751 C   0  0  0  0  0  0  0  0  0  0  0  0
   -2.5865   -0.1110    1.9346 C   0  0  0  0  0  0  0  0  0  0  0  0
   -3.7957    0.5620    1.5830 C   0  0  0  0  0  0  0  0  0  0  0  0
   -3.9316    0.9098    0.5496 H   0  0  0  0  0  0  0  0  0  0  0  0
   -4.7815    0.7944    2.5289 C   0  0  0  0  0  0  0  0  0  0  0  0
   -5.7030    1.3208    2.2386 H   0  0  0  0  0  0  0  0  0  0  0  0
   -4.6094    0.3652    3.8726 C   0  0  0  0  0  0  0  0  0  0  0  0
   -5.4007    0.5557    4.6132 H   0  0  0  0  0  0  0  0  0  0  0  0
   -3.4448   -0.2845    4.2489 C   0  0  0  0  0  0  0  0  0  0  0  0
   -3.2969   -0.6148    5.2886 H   0  0  0  0  0  0  0  0  0  0  0  0
   -2.4101   -0.5350    3.3006 C   0  0  0  0  0  0  0  0  0  0  0  0
   -1.2030   -1.1937    3.6619 C   0  0  0  0  0  0  0  0  0  0  0  0
   -1.0686   -1.5278    4.7024 H   0  0  0  0  0  0  0  0  0  0  0  0
   -0.2032   -1.4132    2.7316 C   0  0  0  0  0  0  0  0  0  0  0  0
    0.7218   -1.9185    3.0397 H   0  0  0  0  0  0  0  0  0  0  0  0
   -0.3548   -0.9962    1.3760 C   0  0  0  0  0  0  0  0  0  0  0  0
    0.4611   -2.0938   -1.2246 C   0  0  0  0  0  0  0  0  0  0  0  0
   -0.4835   -3.1295   -1.0691 C   0  0  0  0  0  0  0  0  0  0  0  0
   -0.8629   -3.3843   -0.0679 H   0  0  0  0  0  0  0  0  0  0  0  0
   -0.9655   -3.8117   -2.1944 C   0  0  0  0  0  0  0  0  0  0  0  0
   -1.7127   -4.6092   -2.0698 H   0  0  0  0  0  0  0  0  0  0  0  0
   -0.5164   -3.4570   -3.4765 C   0  0  0  0  0  0  0  0  0  0  0  0
   -0.9072   -3.9848   -4.3597 H   0  0  0  0  0  0  0  0  0  0  0  0
    0.4285   -2.4303   -3.6316 C   0  0  0  0  0  0  0  0  0  0  0  0
    0.7864   -2.1542   -4.6348 H   0  0  0  0  0  0  0  0  0  0  0  0
    0.9247   -1.7496   -2.5103 C   0  0  0  0  0  0  0  0  0  0  0  0
    1.6845   -0.9601   -2.6178 H   0  0  0  0  0  0  0  0  0  0  0  0
    2.2206   -2.2952    1.1438 C   0  0  0  0  0  0  0  0  0  0  0  0
    3.1087   -1.7217    2.0785 C   0  0  0  0  0  0  0  0  0  0  0  0
    3.1562   -0.6272    2.1880 H   0  0  0  0  0  0  0  0  0  0  0  0
    3.9437   -2.5436    2.8451 C   0  0  0  0  0  0  0  0  0  0  0  0
    4.6370   -2.0901    3.5691 H   0  0  0  0  0  0  0  0  0  0  0  0
    3.9128   -3.9381    2.6724 C   0  0  0  0  0  0  0  0  0  0  0  0
    4.5790   -4.5814    3.2669 H   0  0  0  0  0  0  0  0  0  0  0  0
    3.0435   -4.5070    1.7303 C   0  0  0  0  0  0  0  0  0  0  0  0
    3.0275   -5.5970    1.5797 H   0  0  0  0  0  0  0  0  0  0  0  0
    2.1946   -3.6898    0.9663 C   0  0  0  0  0  0  0  0  0  0  0  0
    1.5264   -4.1418    0.2194 H   0  0  0  0  0  0  0  0  0  0  0  0
    0.1827    3.7233   -1.1119 C   0  0  0  0  0  0  0  0  0  0  0  0
   -0.4362    2.6332    1.4949 C   0  0  0  0  0  0  0  0  0  0  0  0
  1 64  1  0  0  0  0
  2 52  1  0  0  0  0
  2 40  1  0  0  0  0
  3 63  1  0  0  0  0
  4 63  1  0  0  0  0
  8 64  1  0  0  0  0
  9 24  1  0  0  0  0
  9  1  1  0  0  0  0
 10  9  2  0  0  0  0
 11 10  1  0  0  0  0
 12 14  2  0  0  0  0
 12 10  1  0  0  0  0
 13 12  1  0  0  0  0
 14 23  1  0  0  0  0
 15 17  2  0  0  0  0
 15 14  1  0  0  0  0
 16 15  1  0  0  0  0
 17 19  1  0  0  0  0
 18 17  1  0  0  0  0
 19 20  1  0  0  0  0
 19 21  2  0  0  0  0
 21 22  1  0  0  0  0
 23 21  1  0  0  0  0
 23 24  2  0  0  0  0
 24 25  1  0  0  0  0
 25 40  2  0  0  0  0
 25 26  1  0  0  0  0
 26 35  1  0  0  0  0
 27 26  2  0  0  0  0
 27 29  1  0  0  0  0
 28 27  1  0  0  0  0
 29 31  2  0  0  0  0
 30 29  1  0  0  0  0
 31 33  1  0  0  0  0
 31 32  1  0  0  0  0
 33 34  1  0  0  0  0
 35 36  1  0  0  0  0
 35 33  2  0  0  0  0
 36 37  1  0  0  0  0
 38 39  1  0  0  0  0
 38 36  2  0  0  0  0
 40 38  1  0  0  0  0
 41 42  1  0  0  0  0
 41  2  1  0  0  0  0
 42 43  1  0  0  0  0
 44 45  1  0  0  0  0
 44 42  2  0  0  0  0
 46 44  1  0  0  0  0
 47 46  1  0  0  0  0
 48 46  2  0  0  0  0
 48 50  1  0  0  0  0
 49 48  1  0  0  0  0
 50 41  2  0  0  0  0
 51 50  1  0  0  0  0
 52 53  1  0  0  0  0
 53 54  1  0  0  0  0
 53 55  2  0  0  0  0
 55 56  1  0  0  0  0
 57 55  1  0  0  0  0
 57 58  1  0  0  0  0
 59 57  2  0  0  0  0
 60 59  1  0  0  0  0
 61 52  2  0  0  0  0
 61 59  1  0  0  0  0
 62 61  1  0  0  0  0
 63  5  1  0  0  0  0
 63  1  1  0  0  0  0
 64  7  1  0  0  0  0
 64  6  1  0  0  0  0
M  END
