1,2
 OpenBabel05122313063D

 80 87  0  0  1  0  0  0  0  0999 V2000
   -1.5268    0.0266   -0.2598 P   0  0  1  0  0  0  0  0  0  0  0  0
    1.5268    0.0266    0.2599 P   0  0  1  0  0  0  0  0  0  0  0  0
   -0.7280    1.6377    0.2258 C   0  0  0  0  0  0  0  0  0  0  0  0
   -1.3165    2.4731   -0.1998 H   0  0  0  0  0  0  0  0  0  0  0  0
   -0.8101    1.6872    1.3329 H   0  0  0  0  0  0  0  0  0  0  0  0
    0.7279    1.6378   -0.2257 C   0  0  0  0  0  0  0  0  0  0  0  0
    1.3163    2.4732    0.2000 H   0  0  0  0  0  0  0  0  0  0  0  0
    0.8100    1.6873   -1.3328 H   0  0  0  0  0  0  0  0  0  0  0  0
   -2.9276   -0.0262    0.6157 O   0  0  0  0  0  0  0  0  0  0  0  0
   -2.2568    0.2437   -1.7951 N   0  0  2  0  0  0  0  0  0  0  0  0
   -4.0672    0.4747   -0.1601 C   0  0  0  0  0  0  0  0  0  0  0  0
   -3.7323    0.1589   -1.6487 C   0  0  2  0  0  0  0  0  0  0  0  0
   -4.2221    0.9301   -2.2819 H   0  0  0  0  0  0  0  0  0  0  0  0
   -4.0712   -1.2324   -2.1958 C   0  0  0  0  0  0  0  0  0  0  0  0
   -5.1400   -1.3382   -2.4623 H   0  0  0  0  0  0  0  0  0  0  0  0
   -3.8084   -1.9998   -1.4406 H   0  0  0  0  0  0  0  0  0  0  0  0
   -3.1183   -1.3436   -3.3930 C   0  0  0  0  0  0  0  0  0  0  0  0
   -2.9112   -2.3955   -3.6667 H   0  0  0  0  0  0  0  0  0  0  0  0
   -3.5472   -0.8379   -4.2832 H   0  0  0  0  0  0  0  0  0  0  0  0
   -1.8337   -0.6146   -2.9308 C   0  0  0  0  0  0  0  0  0  0  0  0
   -1.0620   -1.3346   -2.5847 H   0  0  0  0  0  0  0  0  0  0  0  0
   -1.3899    0.0053   -3.7371 H   0  0  0  0  0  0  0  0  0  0  0  0
   -5.3060   -0.2879    0.2889 C   0  0  0  0  0  0  0  0  0  0  0  0
   -5.1855   -1.5613    0.8764 C   0  0  0  0  0  0  0  0  0  0  0  0
   -4.1849   -1.9885    1.0397 H   0  0  0  0  0  0  0  0  0  0  0  0
   -6.3381   -2.2815    1.2250 C   0  0  0  0  0  0  0  0  0  0  0  0
   -6.2348   -3.2759    1.6852 H   0  0  0  0  0  0  0  0  0  0  0  0
   -7.6128   -1.7453    0.9841 C   0  0  0  0  0  0  0  0  0  0  0  0
   -8.5138   -2.3146    1.2588 H   0  0  0  0  0  0  0  0  0  0  0  0
   -7.7338   -0.4783    0.3914 C   0  0  0  0  0  0  0  0  0  0  0  0
   -8.7291   -0.0493    0.2001 H   0  0  0  0  0  0  0  0  0  0  0  0
   -6.5849    0.2498    0.0487 C   0  0  0  0  0  0  0  0  0  0  0  0
   -6.6810    1.2495   -0.4020 H   0  0  0  0  0  0  0  0  0  0  0  0
   -4.1622    1.9746    0.1450 C   0  0  0  0  0  0  0  0  0  0  0  0
   -3.8689    2.9829   -0.7918 C   0  0  0  0  0  0  0  0  0  0  0  0
   -3.5923    2.7198   -1.8225 H   0  0  0  0  0  0  0  0  0  0  0  0
   -3.8958    4.3373   -0.4168 C   0  0  0  0  0  0  0  0  0  0  0  0
   -3.6651    5.1122   -1.1636 H   0  0  0  0  0  0  0  0  0  0  0  0
   -4.2115    4.6997    0.9000 C   0  0  0  0  0  0  0  0  0  0  0  0
   -4.2341    5.7606    1.1921 H   0  0  0  0  0  0  0  0  0  0  0  0
   -4.4997    3.6992    1.8440 C   0  0  0  0  0  0  0  0  0  0  0  0
   -4.7478    3.9733    2.8807 H   0  0  0  0  0  0  0  0  0  0  0  0
   -4.4758    2.3508    1.4682 C   0  0  0  0  0  0  0  0  0  0  0  0
   -4.6988    1.5658    2.2061 H   0  0  0  0  0  0  0  0  0  0  0  0
    2.9274   -0.0261   -0.6157 O   0  0  0  0  0  0  0  0  0  0  0  0
    2.2568    0.2437    1.7951 N   0  0  2  0  0  0  0  0  0  0  0  0
    4.0671    0.4747    0.1600 C   0  0  0  0  0  0  0  0  0  0  0  0
    3.7323    0.1590    1.6487 C   0  0  2  0  0  0  0  0  0  0  0  0
    4.2221    0.9304    2.2818 H   0  0  0  0  0  0  0  0  0  0  0  0
    4.0714   -1.2322    2.1960 C   0  0  0  0  0  0  0  0  0  0  0  0
    3.8086   -1.9998    1.4408 H   0  0  0  0  0  0  0  0  0  0  0  0
    5.1402   -1.3379    2.4624 H   0  0  0  0  0  0  0  0  0  0  0  0
    3.1185   -1.3432    3.3932 C   0  0  0  0  0  0  0  0  0  0  0  0
    2.9118   -2.3951    3.6673 H   0  0  0  0  0  0  0  0  0  0  0  0
    3.5475   -0.8371    4.2832 H   0  0  0  0  0  0  0  0  0  0  0  0
    1.8338   -0.6147    2.9309 C   0  0  0  0  0  0  0  0  0  0  0  0
    1.0624   -1.3350    2.5846 H   0  0  0  0  0  0  0  0  0  0  0  0
    1.3896    0.0051    3.7370 H   0  0  0  0  0  0  0  0  0  0  0  0
    5.3058   -0.2880   -0.2889 C   0  0  0  0  0  0  0  0  0  0  0  0
    6.5848    0.2497   -0.0489 C   0  0  0  0  0  0  0  0  0  0  0  0
    6.6810    1.2495    0.4017 H   0  0  0  0  0  0  0  0  0  0  0  0
    7.7336   -0.4785   -0.3916 C   0  0  0  0  0  0  0  0  0  0  0  0
    8.7290   -0.0495   -0.2004 H   0  0  0  0  0  0  0  0  0  0  0  0
    7.6125   -1.7455   -0.9841 C   0  0  0  0  0  0  0  0  0  0  0  0
    8.5135   -2.3149   -1.2589 H   0  0  0  0  0  0  0  0  0  0  0  0
    6.3378   -2.2817   -1.2249 C   0  0  0  0  0  0  0  0  0  0  0  0
    6.2344   -3.2762   -1.6850 H   0  0  0  0  0  0  0  0  0  0  0  0
    5.1853   -1.5614   -0.8764 C   0  0  0  0  0  0  0  0  0  0  0  0
    4.1847   -1.9886   -1.0395 H   0  0  0  0  0  0  0  0  0  0  0  0
    4.1622    1.9746   -0.1451 C   0  0  0  0  0  0  0  0  0  0  0  0
    3.8688    2.9829    0.7916 C   0  0  0  0  0  0  0  0  0  0  0  0
    3.5921    2.7199    1.8223 H   0  0  0  0  0  0  0  0  0  0  0  0
    3.8958    4.3373    0.4167 C   0  0  0  0  0  0  0  0  0  0  0  0
    3.6650    5.1123    1.1634 H   0  0  0  0  0  0  0  0  0  0  0  0
    4.2117    4.6998   -0.9001 C   0  0  0  0  0  0  0  0  0  0  0  0
    4.2344    5.7606   -1.1922 H   0  0  0  0  0  0  0  0  0  0  0  0
    4.5000    3.6992   -1.8440 C   0  0  0  0  0  0  0  0  0  0  0  0
    4.7482    3.9733   -2.8807 H   0  0  0  0  0  0  0  0  0  0  0  0
    4.4760    2.3508   -1.4682 C   0  0  0  0  0  0  0  0  0  0  0  0
    4.6991    1.5658   -2.2061 H   0  0  0  0  0  0  0  0  0  0  0  0
  1  3  1  1  0  0  0
  1  9  1  0  0  0  0
  2  6  1  6  0  0  0
  2 46  1  0  0  0  0
  3  5  1  0  0  0  0
  4  3  1  0  0  0  0
  6  7  1  0  0  0  0
  6  3  1  0  0  0  0
  8  6  1  0  0  0  0
 10 20  1  6  0  0  0
 10 12  1  0  0  0  0
 10  1  1  0  0  0  0
 11 34  1  0  0  0  0
 11 23  1  0  0  0  0
 11  9  1  0  0  0  0
 12 13  1  6  0  0  0
 12 11  1  0  0  0  0
 14 12  1  0  0  0  0
 14 16  1  0  0  0  0
 15 14  1  0  0  0  0
 17 20  1  0  0  0  0
 17 14  1  0  0  0  0
 18 17  1  0  0  0  0
 19 17  1  0  0  0  0
 20 21  1  0  0  0  0
 22 20  1  0  0  0  0
 23 24  1  0  0  0  0
 24 25  1  0  0  0  0
 24 26  2  0  0  0  0
 26 27  1  0  0  0  0
 28 26  1  0  0  0  0
 28 29  1  0  0  0  0
 30 28  2  0  0  0  0
 31 30  1  0  0  0  0
 32 23  2  0  0  0  0
 32 30  1  0  0  0  0
 33 32  1  0  0  0  0
 34 43  1  0  0  0  0
 35 37  1  0  0  0  0
 35 34  2  0  0  0  0
 36 35  1  0  0  0  0
 37 39  2  0  0  0  0
 38 37  1  0  0  0  0
 39 40  1  0  0  0  0
 39 41  1  0  0  0  0
 41 42  1  0  0  0  0
 43 41  2  0  0  0  0
 43 44  1  0  0  0  0
 45 47  1  0  0  0  0
 45  2  1  0  0  0  0
 46 56  1  1  0  0  0
 47 48  1  0  0  0  0
 48 46  1  0  0  0  0
 48 50  1  0  0  0  0
 48 49  1  1  0  0  0
 50 52  1  0  0  0  0
 50 53  1  0  0  0  0
 51 50  1  0  0  0  0
 53 54  1  0  0  0  0
 53 55  1  0  0  0  0
 56 53  1  0  0  0  0
 56 58  1  0  0  0  0
 57 56  1  0  0  0  0
 59 60  1  0  0  0  0
 59 47  1  0  0  0  0
 60 61  1  0  0  0  0
 62 63  1  0  0  0  0
 62 60  2  0  0  0  0
 64 62  1  0  0  0  0
 65 64  1  0  0  0  0
 66 64  2  0  0  0  0
 66 68  1  0  0  0  0
 67 66  1  0  0  0  0
 68 59  2  0  0  0  0
 69 68  1  0  0  0  0
 70 47  1  0  0  0  0
 70 71  1  0  0  0  0
 71 72  1  0  0  0  0
 73 71  2  0  0  0  0
 73 74  1  0  0  0  0
 75 73  1  0  0  0  0
 76 75  1  0  0  0  0
 77 79  1  0  0  0  0
 77 75  2  0  0  0  0
 78 77  1  0  0  0  0
 79 70  2  0  0  0  0
 80 79  1  0  0  0  0
M  END
