1,2
 OpenBabel05122313063D

 51 53  0  0  1  0  0  0  0  0999 V2000
    0.0221    1.7054   -1.1759 P   0  0  1  0  0  0  0  0  0  0  0  0
    2.3182   -0.2212   -0.2506 P   0  0  0  0  0  0  0  0  0  0  0  0
   -2.0294    0.9597   -3.0329 C   0  0  0  0  0  0  0  0  0  0  0  0
   -2.1300   -0.0328   -2.5531 H   0  0  0  0  0  0  0  0  0  0  0  0
   -2.3000    0.8619   -4.1027 H   0  0  0  0  0  0  0  0  0  0  0  0
   -2.7720    1.6259   -2.5528 H   0  0  0  0  0  0  0  0  0  0  0  0
   -0.6047    1.4998   -2.9041 C   0  0  0  0  0  0  0  0  0  0  0  0
   -0.4879    2.4752   -3.4208 H   0  0  0  0  0  0  0  0  0  0  0  0
    0.1196    0.8070   -3.3839 H   0  0  0  0  0  0  0  0  0  0  0  0
    1.8160    2.2561   -1.3807 C   0  0  2  0  0  0  0  0  0  0  0  0
    2.0457    2.6843   -0.3790 H   0  0  0  0  0  0  0  0  0  0  0  0
    2.0184    3.3421   -2.4390 C   0  0  0  0  0  0  0  0  0  0  0  0
    3.0543    3.7338   -2.3898 H   0  0  0  0  0  0  0  0  0  0  0  0
    1.3312    4.1969   -2.2792 H   0  0  0  0  0  0  0  0  0  0  0  0
    1.8611    2.9520   -3.4644 H   0  0  0  0  0  0  0  0  0  0  0  0
    2.6944    1.0202   -1.5864 C   0  0  0  0  0  0  0  0  0  0  0  0
    3.7724    1.2814   -1.5667 H   0  0  0  0  0  0  0  0  0  0  0  0
    2.4945    0.5376   -2.5666 H   0  0  0  0  0  0  0  0  0  0  0  0
   -0.7463    3.2051   -0.4703 C   0  0  0  0  0  0  0  0  0  0  0  0
   -1.5269    4.0998   -1.2296 C   0  0  0  0  0  0  0  0  0  0  0  0
   -1.7339    3.9042   -2.2917 H   0  0  0  0  0  0  0  0  0  0  0  0
   -2.0583    5.2509   -0.6267 C   0  0  0  0  0  0  0  0  0  0  0  0
   -2.6711    5.9434   -1.2228 H   0  0  0  0  0  0  0  0  0  0  0  0
   -1.8110    5.5173    0.7286 C   0  0  0  0  0  0  0  0  0  0  0  0
   -2.2316    6.4194    1.1972 H   0  0  0  0  0  0  0  0  0  0  0  0
   -1.0305    4.6295    1.4884 C   0  0  0  0  0  0  0  0  0  0  0  0
   -0.8390    4.8340    2.5522 H   0  0  0  0  0  0  0  0  0  0  0  0
   -0.5037    3.4755    0.8947 C   0  0  0  0  0  0  0  0  0  0  0  0
    0.0888    2.7661    1.4951 H   0  0  0  0  0  0  0  0  0  0  0  0
    3.2296   -1.7233   -0.7666 C   0  0  0  0  0  0  0  0  0  0  0  0
    2.8905   -2.3027   -2.0101 C   0  0  0  0  0  0  0  0  0  0  0  0
    2.1432   -1.8217   -2.6620 H   0  0  0  0  0  0  0  0  0  0  0  0
    3.4888   -3.5026   -2.4179 C   0  0  0  0  0  0  0  0  0  0  0  0
    3.2241   -3.9422   -3.3911 H   0  0  0  0  0  0  0  0  0  0  0  0
    4.4194   -4.1442   -1.5831 C   0  0  0  0  0  0  0  0  0  0  0  0
    4.8864   -5.0879   -1.9020 H   0  0  0  0  0  0  0  0  0  0  0  0
    4.7492   -3.5803   -0.3412 C   0  0  0  0  0  0  0  0  0  0  0  0
    5.4756   -4.0809    0.3164 H   0  0  0  0  0  0  0  0  0  0  0  0
    4.1579   -2.3752    0.0701 C   0  0  0  0  0  0  0  0  0  0  0  0
    4.4197   -1.9443    1.0478 H   0  0  0  0  0  0  0  0  0  0  0  0
    3.1865    0.4605    1.2116 C   0  0  0  0  0  0  0  0  0  0  0  0
    4.5691    0.7473    1.1936 C   0  0  0  0  0  0  0  0  0  0  0  0
    5.1728    0.5225    0.3003 H   0  0  0  0  0  0  0  0  0  0  0  0
    5.1826    1.3125    2.3203 C   0  0  0  0  0  0  0  0  0  0  0  0
    6.2606    1.5322    2.3028 H   0  0  0  0  0  0  0  0  0  0  0  0
    4.4246    1.5989    3.4690 C   0  0  0  0  0  0  0  0  0  0  0  0
    4.9110    2.0429    4.3504 H   0  0  0  0  0  0  0  0  0  0  0  0
    3.0492    1.3215    3.4917 C   0  0  0  0  0  0  0  0  0  0  0  0
    2.4537    1.5486    4.3885 H   0  0  0  0  0  0  0  0  0  0  0  0
    2.4312    0.7543    2.3661 C   0  0  0  0  0  0  0  0  0  0  0  0
    1.3487    0.5442    2.3666 H   0  0  0  0  0  0  0  0  0  0  0  0
  1  7  1  6  0  0  0
  1 19  1  0  0  0  0
  2 41  1  0  0  0  0
  3  7  1  0  0  0  0
  3  4  1  0  0  0  0
  3  6  1  0  0  0  0
  5  3  1  0  0  0  0
  8  7  1  0  0  0  0
  9  7  1  0  0  0  0
 10  1  1  0  0  0  0
 10 11  1  1  0  0  0
 12 13  1  0  0  0  0
 12 14  1  0  0  0  0
 12 10  1  0  0  0  0
 15 12  1  0  0  0  0
 16 17  1  0  0  0  0
 16 10  1  0  0  0  0
 16  2  1  0  0  0  0
 18 16  1  0  0  0  0
 19 28  1  0  0  0  0
 20 22  1  0  0  0  0
 20 19  2  0  0  0  0
 21 20  1  0  0  0  0
 22 24  2  0  0  0  0
 23 22  1  0  0  0  0
 24 25  1  0  0  0  0
 24 26  1  0  0  0  0
 26 27  1  0  0  0  0
 28 26  2  0  0  0  0
 28 29  1  0  0  0  0
 30  2  1  0  0  0  0
 30 39  1  0  0  0  0
 31 30  2  0  0  0  0
 32 31  1  0  0  0  0
 33 31  1  0  0  0  0
 33 35  2  0  0  0  0
 34 33  1  0  0  0  0
 35 37  1  0  0  0  0
 36 35  1  0  0  0  0
 37 39  2  0  0  0  0
 37 38  1  0  0  0  0
 39 40  1  0  0  0  0
 41 50  1  0  0  0  0
 42 41  2  0  0  0  0
 42 44  1  0  0  0  0
 43 42  1  0  0  0  0
 44 46  2  0  0  0  0
 45 44  1  0  0  0  0
 46 48  1  0  0  0  0
 46 47  1  0  0  0  0
 48 49  1  0  0  0  0
 50 51  1  0  0  0  0
 50 48  2  0  0  0  0
M  END
