1,2
 OpenBabel05122313063D

 54 58  0  0  1  0  0  0  0  0999 V2000
   -1.5517    0.1240   -0.3877 P   0  0  1  0  0  0  0  0  0  0  0  0
    1.4496    0.2357    0.0953 P   0  0  0  0  0  0  0  0  0  0  0  0
   -1.5125    1.4381   -1.7397 C   0  0  2  0  0  0  0  0  0  0  0  0
    0.0085    1.7919   -1.7096 C   0  0  0  0  0  0  0  0  0  0  0  0
    0.4238    1.7753   -0.1991 C   0  0  1  0  0  0  0  0  0  0  0  0
   -0.9132    1.6118    0.5987 C   0  0  1  0  0  0  0  0  0  0  0  0
   -1.8859    2.7134    0.2240 C   0  0  0  0  0  0  0  0  0  0  0  0
   -2.2402    2.6089   -1.0889 C   0  0  0  0  0  0  0  0  0  0  0  0
   -2.3005    3.7387    1.2290 C   0  0  0  0  0  0  0  0  0  0  0  0
   -3.0932    3.5272   -1.9037 C   0  0  0  0  0  0  0  0  0  0  0  0
   -3.2506   -0.2742    0.1174 C   0  0  0  0  0  0  0  0  0  0  0  0
   -3.3947   -1.2096    1.1643 C   0  0  0  0  0  0  0  0  0  0  0  0
   -4.6723   -1.5402    1.6339 C   0  0  0  0  0  0  0  0  0  0  0  0
   -5.8105   -0.9626    1.0479 C   0  0  0  0  0  0  0  0  0  0  0  0
   -5.6702   -0.0540   -0.0125 C   0  0  0  0  0  0  0  0  0  0  0  0
   -4.3936    0.2929   -0.4793 C   0  0  0  0  0  0  0  0  0  0  0  0
    2.9538    0.4871   -0.9180 C   0  0  0  0  0  0  0  0  0  0  0  0
    3.8878    1.4812   -0.5603 C   0  0  0  0  0  0  0  0  0  0  0  0
    5.0038    1.7167   -1.3756 C   0  0  0  0  0  0  0  0  0  0  0  0
    5.1929    0.9599   -2.5442 C   0  0  0  0  0  0  0  0  0  0  0  0
    4.2691   -0.0374   -2.8934 C   0  0  0  0  0  0  0  0  0  0  0  0
    3.1500   -0.2812   -2.0825 C   0  0  0  0  0  0  0  0  0  0  0  0
    1.9979    0.2969    1.8418 C   0  0  0  0  0  0  0  0  0  0  0  0
    2.4308   -0.9114    2.4300 C   0  0  0  0  0  0  0  0  0  0  0  0
    2.8783   -0.9151    3.7585 C   0  0  0  0  0  0  0  0  0  0  0  0
    2.8892    0.2725    4.5089 C   0  0  0  0  0  0  0  0  0  0  0  0
    2.4520    1.4729    3.9277 C   0  0  0  0  0  0  0  0  0  0  0  0
    2.0080    1.4890    2.5963 C   0  0  0  0  0  0  0  0  0  0  0  0
   -1.8803    1.1284   -2.7344 H   0  0  0  0  0  0  0  0  0  0  0  0
    0.6013    1.0737   -2.3115 H   0  0  0  0  0  0  0  0  0  0  0  0
    0.1617    2.7963   -2.1503 H   0  0  0  0  0  0  0  0  0  0  0  0
    0.9715    2.6919    0.0950 H   0  0  0  0  0  0  0  0  0  0  0  0
   -0.7718    1.4410    1.6816 H   0  0  0  0  0  0  0  0  0  0  0  0
   -2.7928    3.2558    2.1008 H   0  0  0  0  0  0  0  0  0  0  0  0
   -3.0048    4.4814    0.8084 H   0  0  0  0  0  0  0  0  0  0  0  0
   -1.4227    4.2903    1.6310 H   0  0  0  0  0  0  0  0  0  0  0  0
   -3.9156    2.9761   -2.4098 H   0  0  0  0  0  0  0  0  0  0  0  0
   -2.5021    4.0079   -2.7138 H   0  0  0  0  0  0  0  0  0  0  0  0
   -3.5473    4.3308   -1.2933 H   0  0  0  0  0  0  0  0  0  0  0  0
   -2.5031   -1.6966    1.5870 H   0  0  0  0  0  0  0  0  0  0  0  0
   -4.7796   -2.2705    2.4498 H   0  0  0  0  0  0  0  0  0  0  0  0
   -6.8138   -1.2340    1.4101 H   0  0  0  0  0  0  0  0  0  0  0  0
   -6.5610    0.3860   -0.4858 H   0  0  0  0  0  0  0  0  0  0  0  0
   -4.2930    0.9976   -1.3154 H   0  0  0  0  0  0  0  0  0  0  0  0
    3.7517    2.0631    0.3648 H   0  0  0  0  0  0  0  0  0  0  0  0
    5.7338    2.4904   -1.0930 H   0  0  0  0  0  0  0  0  0  0  0  0
    6.0724    1.1430   -3.1802 H   0  0  0  0  0  0  0  0  0  0  0  0
    4.4244   -0.6427   -3.7991 H   0  0  0  0  0  0  0  0  0  0  0  0
    2.4424   -1.0894   -2.3220 H   0  0  0  0  0  0  0  0  0  0  0  0
    2.4060   -1.8383    1.8300 H   0  0  0  0  0  0  0  0  0  0  0  0
    3.2156   -1.8589    4.2131 H   0  0  0  0  0  0  0  0  0  0  0  0
    3.2360    0.2624    5.5534 H   0  0  0  0  0  0  0  0  0  0  0  0
    2.4555    2.4050    4.5131 H   0  0  0  0  0  0  0  0  0  0  0  0
    1.6675    2.4374    2.1538 H   0  0  0  0  0  0  0  0  0  0  0  0
  1 11  1  1  0  0  0
  1  6  1  0  0  0  0
  2 23  1  0  0  0  0
  3 29  1  6  0  0  0
  3  4  1  0  0  0  0
  3  8  1  0  0  0  0
  3  1  1  0  0  0  0
  4  5  1  0  0  0  0
  5 32  1  1  0  0  0
  5  2  1  0  0  0  0
  5  6  1  0  0  0  0
  6 33  1  1  0  0  0
  7  6  1  0  0  0  0
  7  9  1  0  0  0  0
  8  7  2  0  0  0  0
  9 36  1  0  0  0  0
  9 34  1  0  0  0  0
 10 39  1  0  0  0  0
 10  8  1  0  0  0  0
 11 12  1  0  0  0  0
 12 40  1  0  0  0  0
 12 13  2  0  0  0  0
 13 41  1  0  0  0  0
 14 42  1  0  0  0  0
 14 13  1  0  0  0  0
 15 14  2  0  0  0  0
 16 15  1  0  0  0  0
 16 11  2  0  0  0  0
 17 18  1  0  0  0  0
 17  2  1  0  0  0  0
 18 45  1  0  0  0  0
 19 46  1  0  0  0  0
 19 18  2  0  0  0  0
 20 19  1  0  0  0  0
 21 20  2  0  0  0  0
 21 22  1  0  0  0  0
 22 17  2  0  0  0  0
 23 24  2  0  0  0  0
 23 28  1  0  0  0  0
 24 25  1  0  0  0  0
 25 51  1  0  0  0  0
 25 26  2  0  0  0  0
 26 52  1  0  0  0  0
 27 26  1  0  0  0  0
 27 53  1  0  0  0  0
 28 27  2  0  0  0  0
 30  4  1  0  0  0  0
 31  4  1  0  0  0  0
 35  9  1  0  0  0  0
 37 10  1  0  0  0  0
 38 10  1  0  0  0  0
 43 15  1  0  0  0  0
 44 16  1  0  0  0  0
 47 20  1  0  0  0  0
 48 21  1  0  0  0  0
 49 22  1  0  0  0  0
 50 24  1  0  0  0  0
 54 28  1  0  0  0  0
M  END
