1,2
 OpenBabel05122313063D

 58 62  0  0  0  0  0  0  0  0999 V2000
    1.2618   -0.4516    0.2904 P   0  0  0  0  0  0  0  0  0  0  0  0
   -1.3790   -0.2899    0.0775 P   0  0  0  0  0  0  0  0  0  0  0  0
    0.5795    1.2657   -3.1174 N   0  0  0  0  0  0  0  0  0  0  0  0
    2.6160   -1.3566   -0.5546 C   0  0  0  0  0  0  0  0  0  0  0  0
    3.3941   -2.2394    0.2222 C   0  0  0  0  0  0  0  0  0  0  0  0
    3.1693   -2.3676    1.2929 H   0  0  0  0  0  0  0  0  0  0  0  0
    4.4392   -2.9602   -0.3710 C   0  0  0  0  0  0  0  0  0  0  0  0
    5.0429   -3.6488    0.2393 H   0  0  0  0  0  0  0  0  0  0  0  0
    4.7049   -2.8150   -1.7430 C   0  0  0  0  0  0  0  0  0  0  0  0
    5.5204   -3.3886   -2.2092 H   0  0  0  0  0  0  0  0  0  0  0  0
    3.9231   -1.9470   -2.5208 C   0  0  0  0  0  0  0  0  0  0  0  0
    4.1236   -1.8380   -3.5976 H   0  0  0  0  0  0  0  0  0  0  0  0
    2.8780   -1.2150   -1.9333 C   0  0  0  0  0  0  0  0  0  0  0  0
    2.2678   -0.5399   -2.5557 H   0  0  0  0  0  0  0  0  0  0  0  0
    2.0818    1.0884    0.8802 C   0  0  0  0  0  0  0  0  0  0  0  0
    3.1433    1.6778    0.1631 C   0  0  0  0  0  0  0  0  0  0  0  0
    3.5539    1.1747   -0.7252 H   0  0  0  0  0  0  0  0  0  0  0  0
    3.6734    2.9071    0.5799 C   0  0  0  0  0  0  0  0  0  0  0  0
    4.5000    3.3642    0.0149 H   0  0  0  0  0  0  0  0  0  0  0  0
    3.1522    3.5531    1.7134 C   0  0  0  0  0  0  0  0  0  0  0  0
    3.5718    4.5174    2.0389 H   0  0  0  0  0  0  0  0  0  0  0  0
    2.1042    2.9620    2.4370 C   0  0  0  0  0  0  0  0  0  0  0  0
    1.7006    3.4583    3.3326 H   0  0  0  0  0  0  0  0  0  0  0  0
    1.5719    1.7318    2.0236 C   0  0  0  0  0  0  0  0  0  0  0  0
    0.7503    1.2536    2.5773 H   0  0  0  0  0  0  0  0  0  0  0  0
   -2.1510    1.3184    0.5244 C   0  0  0  0  0  0  0  0  0  0  0  0
   -2.0810    1.7388    1.8652 C   0  0  0  0  0  0  0  0  0  0  0  0
   -1.6120    1.0638    2.5999 H   0  0  0  0  0  0  0  0  0  0  0  0
   -2.5974    2.9887    2.2415 C   0  0  0  0  0  0  0  0  0  0  0  0
   -2.5438    3.3098    3.2928 H   0  0  0  0  0  0  0  0  0  0  0  0
   -3.1831    3.8239    1.2771 C   0  0  0  0  0  0  0  0  0  0  0  0
   -3.5859    4.8055    1.5703 H   0  0  0  0  0  0  0  0  0  0  0  0
   -3.2616    3.4059   -0.0629 C   0  0  0  0  0  0  0  0  0  0  0  0
   -3.7216    4.0600   -0.8192 H   0  0  0  0  0  0  0  0  0  0  0  0
   -2.7491    2.1573   -0.4412 C   0  0  0  0  0  0  0  0  0  0  0  0
   -2.8093    1.8333   -1.4914 H   0  0  0  0  0  0  0  0  0  0  0  0
   -2.6565   -1.1094   -0.9673 C   0  0  0  0  0  0  0  0  0  0  0  0
   -2.2579   -2.1642   -1.8158 C   0  0  0  0  0  0  0  0  0  0  0  0
   -1.1967   -2.4496   -1.8860 H   0  0  0  0  0  0  0  0  0  0  0  0
   -3.2106   -2.8789   -2.5531 C   0  0  0  0  0  0  0  0  0  0  0  0
   -2.8849   -3.6929   -3.2181 H   0  0  0  0  0  0  0  0  0  0  0  0
   -4.5756   -2.5693   -2.4305 C   0  0  0  0  0  0  0  0  0  0  0  0
   -5.3239   -3.1369   -3.0041 H   0  0  0  0  0  0  0  0  0  0  0  0
   -4.9814   -1.5445   -1.5632 C   0  0  0  0  0  0  0  0  0  0  0  0
   -6.0502   -1.3076   -1.4487 H   0  0  0  0  0  0  0  0  0  0  0  0
   -4.0287   -0.8160   -0.8333 C   0  0  0  0  0  0  0  0  0  0  0  0
   -4.3578   -0.0171   -0.1529 H   0  0  0  0  0  0  0  0  0  0  0  0
    0.0780    0.1078   -1.0691 C   0  0  0  0  0  0  0  0  0  0  0  0
    0.0832   -0.7062   -1.8218 H   0  0  0  0  0  0  0  0  0  0  0  0
    0.2913    1.3963   -1.8027 C   0  0  0  0  0  0  0  0  0  0  0  0
    0.2544    2.6574   -1.1674 C   0  0  0  0  0  0  0  0  0  0  0  0
    0.0440    2.7350   -0.0935 H   0  0  0  0  0  0  0  0  0  0  0  0
    0.5040    3.8055   -1.9284 C   0  0  0  0  0  0  0  0  0  0  0  0
    0.4817    4.7974   -1.4522 H   0  0  0  0  0  0  0  0  0  0  0  0
    0.7869    3.6686   -3.2944 C   0  0  0  0  0  0  0  0  0  0  0  0
    0.9894    4.5435   -3.9298 H   0  0  0  0  0  0  0  0  0  0  0  0
    0.8173    2.3729   -3.8352 C   0  0  0  0  0  0  0  0  0  0  0  0
    1.0497    2.2195   -4.9042 H   0  0  0  0  0  0  0  0  0  0  0  0
  1 15  1  0  0  0  0
  2 26  1  0  0  0  0
  3 50  1  0  0  0  0
  4  5  1  0  0  0  0
  4  1  1  0  0  0  0
  5  6  1  0  0  0  0
  7  5  2  0  0  0  0
  7  8  1  0  0  0  0
  9  7  1  0  0  0  0
 10  9  1  0  0  0  0
 11 13  1  0  0  0  0
 11  9  2  0  0  0  0
 12 11  1  0  0  0  0
 13  4  2  0  0  0  0
 14 13  1  0  0  0  0
 15 24  1  0  0  0  0
 16 18  1  0  0  0  0
 16 15  2  0  0  0  0
 17 16  1  0  0  0  0
 18 20  2  0  0  0  0
 19 18  1  0  0  0  0
 20 21  1  0  0  0  0
 20 22  1  0  0  0  0
 22 23  1  0  0  0  0
 24 22  2  0  0  0  0
 24 25  1  0  0  0  0
 26 27  1  0  0  0  0
 27 29  2  0  0  0  0
 27 28  1  0  0  0  0
 29 30  1  0  0  0  0
 31 32  1  0  0  0  0
 31 29  1  0  0  0  0
 33 31  2  0  0  0  0
 34 33  1  0  0  0  0
 35 33  1  0  0  0  0
 35 26  2  0  0  0  0
 36 35  1  0  0  0  0
 37 46  1  0  0  0  0
 37  2  1  0  0  0  0
 38 37  2  0  0  0  0
 39 38  1  0  0  0  0
 40 42  2  0  0  0  0
 40 38  1  0  0  0  0
 41 40  1  0  0  0  0
 42 44  1  0  0  0  0
 43 42  1  0  0  0  0
 44 45  1  0  0  0  0
 44 46  2  0  0  0  0
 46 47  1  0  0  0  0
 48  2  1  0  0  0  0
 48  1  1  0  0  0  0
 49 48  1  0  0  0  0
 50 51  2  0  0  0  0
 50 48  1  0  0  0  0
 51 52  1  0  0  0  0
 53 54  1  0  0  0  0
 53 51  1  0  0  0  0
 55 53  2  0  0  0  0
 56 55  1  0  0  0  0
 57 55  1  0  0  0  0
 57  3  2  0  0  0  0
 58 57  1  0  0  0  0
M  END
