1,2
 OpenBabel05122313063D

 39 38  0  0  0  0  0  0  0  0999 V2000
    1.7794   -1.4854   -0.1531 P   0  0  1  0  0  0  0  0  0  0  0  0
    1.9530    1.2522    0.1806 P   0  0  1  0  0  0  0  0  0  0  0  0
    2.3289    2.0865    1.8405 C   0  0  0  0  0  0  0  0  0  0  0  0
    3.8087    2.4812    1.9434 C   0  0  0  0  0  0  0  0  0  0  0  0
    1.9497    1.0807    2.9411 C   0  0  0  0  0  0  0  0  0  0  0  0
    1.4305    3.3290    1.9477 C   0  0  0  0  0  0  0  0  0  0  0  0
    2.5721    2.4204   -1.1060 C   0  0  0  0  0  0  0  0  0  0  0  0
    3.1254   -0.2058    0.0805 C   0  0  0  0  0  0  0  0  0  0  0  0
    2.0918   -2.2467   -1.8602 C   0  0  0  0  0  0  0  0  0  0  0  0
    0.9629   -3.2566   -2.1234 C   0  0  0  0  0  0  0  0  0  0  0  0
    2.0078   -1.1057   -2.8890 C   0  0  0  0  0  0  0  0  0  0  0  0
    3.4623   -2.9354   -1.9204 C   0  0  0  0  0  0  0  0  0  0  0  0
    2.2092   -2.8099    1.0589 C   0  0  0  0  0  0  0  0  0  0  0  0
    4.4880    1.6141    1.8162 H   0  0  0  0  0  0  0  0  0  0  0  0
    4.0080    2.9064    2.9494 H   0  0  0  0  0  0  0  0  0  0  0  0
    4.0900    3.2549    1.2020 H   0  0  0  0  0  0  0  0  0  0  0  0
    0.9021    0.7359    2.8144 H   0  0  0  0  0  0  0  0  0  0  0  0
    2.0495    1.5587    3.9376 H   0  0  0  0  0  0  0  0  0  0  0  0
    2.6067    0.1875    2.9388 H   0  0  0  0  0  0  0  0  0  0  0  0
    1.6474    4.0771    1.1588 H   0  0  0  0  0  0  0  0  0  0  0  0
    1.5979    3.8257    2.9259 H   0  0  0  0  0  0  0  0  0  0  0  0
    0.3612    3.0528    1.8878 H   0  0  0  0  0  0  0  0  0  0  0  0
    2.4219    1.9569   -2.0995 H   0  0  0  0  0  0  0  0  0  0  0  0
    3.6479    2.6434   -0.9658 H   0  0  0  0  0  0  0  0  0  0  0  0
    1.9944    3.3633   -1.0738 H   0  0  0  0  0  0  0  0  0  0  0  0
    3.8571   -0.1435   -0.7502 H   0  0  0  0  0  0  0  0  0  0  0  0
    3.6923   -0.3658    1.0198 H   0  0  0  0  0  0  0  0  0  0  0  0
   -0.0220   -2.7527   -2.1337 H   0  0  0  0  0  0  0  0  0  0  0  0
    0.9361   -4.0683   -1.3681 H   0  0  0  0  0  0  0  0  0  0  0  0
    1.1132   -3.7343   -3.1137 H   0  0  0  0  0  0  0  0  0  0  0  0
    2.0348   -1.5247   -3.9161 H   0  0  0  0  0  0  0  0  0  0  0  0
    2.8586   -0.4007   -2.8015 H   0  0  0  0  0  0  0  0  0  0  0  0
    1.0654   -0.5307   -2.7658 H   0  0  0  0  0  0  0  0  0  0  0  0
    3.6526   -3.2899   -2.9552 H   0  0  0  0  0  0  0  0  0  0  0  0
    3.5168   -3.8212   -1.2575 H   0  0  0  0  0  0  0  0  0  0  0  0
    4.2916   -2.2489   -1.6536 H   0  0  0  0  0  0  0  0  0  0  0  0
    2.0483   -2.4134    2.0800 H   0  0  0  0  0  0  0  0  0  0  0  0
    3.2654   -3.1252    0.9518 H   0  0  0  0  0  0  0  0  0  0  0  0
    1.5502   -3.6877    0.9197 H   0  0  0  0  0  0  0  0  0  0  0  0
  1  9  1  6  0  0  0
  1  8  1  0  0  0  0
  1 13  1  0  0  0  0
  2  7  1  6  0  0  0
  2  3  1  0  0  0  0
  3  4  1  0  0  0  0
  3  6  1  0  0  0  0
  3  5  1  0  0  0  0
  4 15  1  0  0  0  0
  5 18  1  0  0  0  0
  6 21  1  0  0  0  0
  7 25  1  0  0  0  0
  7 24  1  0  0  0  0
  8  2  1  0  0  0  0
  8 27  1  0  0  0  0
 10  9  1  0  0  0  0
 10 29  1  0  0  0  0
 11 32  1  0  0  0  0
 11 33  1  0  0  0  0
 11  9  1  0  0  0  0
 12  9  1  0  0  0  0
 12 36  1  0  0  0  0
 12 35  1  0  0  0  0
 13 37  1  0  0  0  0
 14  4  1  0  0  0  0
 16  4  1  0  0  0  0
 17  5  1  0  0  0  0
 19  5  1  0  0  0  0
 20  6  1  0  0  0  0
 22  6  1  0  0  0  0
 23  7  1  0  0  0  0
 26  8  1  0  0  0  0
 28 10  1  0  0  0  0
 30 10  1  0  0  0  0
 31 11  1  0  0  0  0
 34 12  1  0  0  0  0
 38 13  1  0  0  0  0
 39 13  1  0  0  0  0
M  END
