2,3
 OpenBabel05122313063D

 61 65  0  0  0  0  0  0  0  0999 V2000
   -0.3164    0.2634    0.9996 N   0  0  0  0  0  0  0  0  0  0  0  0
    1.1581    0.8343    0.2819 P   0  0  0  0  0  0  0  0  0  0  0  0
   -0.6642   -1.0858   -0.0609 P   0  0  0  0  0  0  0  0  0  0  0  0
   -1.0361    0.7825    2.1661 C   0  0  0  0  0  0  0  0  0  0  0  0
   -0.3653    1.5219    2.6518 H   0  0  0  0  0  0  0  0  0  0  0  0
   -1.1836   -0.0342    2.9060 H   0  0  0  0  0  0  0  0  0  0  0  0
   -2.3682    1.4271    1.8305 C   0  0  0  0  0  0  0  0  0  0  0  0
   -3.5760    0.7522    2.0861 C   0  0  0  0  0  0  0  0  0  0  0  0
   -3.5546   -0.2320    2.5805 H   0  0  0  0  0  0  0  0  0  0  0  0
   -4.8067    1.3117    1.7105 C   0  0  0  0  0  0  0  0  0  0  0  0
   -5.7399    0.7620    1.9044 H   0  0  0  0  0  0  0  0  0  0  0  0
   -4.8434    2.5664    1.0844 C   0  0  0  0  0  0  0  0  0  0  0  0
   -5.8069    3.0073    0.7870 H   0  0  0  0  0  0  0  0  0  0  0  0
   -3.6450    3.2577    0.8417 C   0  0  0  0  0  0  0  0  0  0  0  0
   -3.6650    4.2464    0.3583 H   0  0  0  0  0  0  0  0  0  0  0  0
   -2.4170    2.6915    1.2095 C   0  0  0  0  0  0  0  0  0  0  0  0
   -1.4824    3.2333    1.0032 H   0  0  0  0  0  0  0  0  0  0  0  0
    2.4589    0.7158    1.5454 C   0  0  0  0  0  0  0  0  0  0  0  0
    3.6862    1.3787    1.3323 C   0  0  0  0  0  0  0  0  0  0  0  0
    3.8235    2.0082    0.4400 H   0  0  0  0  0  0  0  0  0  0  0  0
    4.7358    1.2026    2.2442 C   0  0  0  0  0  0  0  0  0  0  0  0
    5.6947    1.7154    2.0762 H   0  0  0  0  0  0  0  0  0  0  0  0
    4.5698    0.3662    3.3609 C   0  0  0  0  0  0  0  0  0  0  0  0
    5.3970    0.2317    4.0742 H   0  0  0  0  0  0  0  0  0  0  0  0
    3.3554   -0.3104    3.5595 C   0  0  0  0  0  0  0  0  0  0  0  0
    3.2297   -0.9787    4.4247 H   0  0  0  0  0  0  0  0  0  0  0  0
    2.3014   -0.1453    2.6495 C   0  0  0  0  0  0  0  0  0  0  0  0
    1.3582   -0.6969    2.7821 H   0  0  0  0  0  0  0  0  0  0  0  0
    0.9561    2.6073   -0.0864 C   0  0  0  0  0  0  0  0  0  0  0  0
    1.1510    3.6025    0.8942 C   0  0  0  0  0  0  0  0  0  0  0  0
    1.5323    3.3294    1.8902 H   0  0  0  0  0  0  0  0  0  0  0  0
    0.8600    4.9417    0.5941 C   0  0  0  0  0  0  0  0  0  0  0  0
    1.0075    5.7187    1.3592 H   0  0  0  0  0  0  0  0  0  0  0  0
    0.3837    5.2890   -0.6815 C   0  0  0  0  0  0  0  0  0  0  0  0
    0.1581    6.3408   -0.9143 H   0  0  0  0  0  0  0  0  0  0  0  0
    0.2124    4.3007   -1.6655 C   0  0  0  0  0  0  0  0  0  0  0  0
   -0.1382    4.5769   -2.6712 H   0  0  0  0  0  0  0  0  0  0  0  0
    0.5021    2.9603   -1.3740 C   0  0  0  0  0  0  0  0  0  0  0  0
    0.3981    2.1729   -2.1380 H   0  0  0  0  0  0  0  0  0  0  0  0
   -0.6461   -2.6018    0.9518 C   0  0  0  0  0  0  0  0  0  0  0  0
    0.3268   -3.5778    0.6497 C   0  0  0  0  0  0  0  0  0  0  0  0
    0.9796   -3.4319   -0.2269 H   0  0  0  0  0  0  0  0  0  0  0  0
    0.4270   -4.7274    1.4477 C   0  0  0  0  0  0  0  0  0  0  0  0
    1.1812   -5.4912    1.2058 H   0  0  0  0  0  0  0  0  0  0  0  0
   -0.4292   -4.9038    2.5461 C   0  0  0  0  0  0  0  0  0  0  0  0
   -0.3425   -5.8048    3.1726 H   0  0  0  0  0  0  0  0  0  0  0  0
   -1.4059   -3.9378    2.8425 C   0  0  0  0  0  0  0  0  0  0  0  0
   -2.0855   -4.0819    3.6961 H   0  0  0  0  0  0  0  0  0  0  0  0
   -1.5220   -2.7909    2.0443 C   0  0  0  0  0  0  0  0  0  0  0  0
   -2.3068   -2.0512    2.2608 H   0  0  0  0  0  0  0  0  0  0  0  0
   -2.3608   -0.8592   -0.6791 C   0  0  0  0  0  0  0  0  0  0  0  0
   -3.3199   -1.8893   -0.6487 C   0  0  0  0  0  0  0  0  0  0  0  0
   -3.0659   -2.8693   -0.2196 H   0  0  0  0  0  0  0  0  0  0  0  0
   -4.6021   -1.6609   -1.1730 C   0  0  0  0  0  0  0  0  0  0  0  0
   -5.3514   -2.4665   -1.1486 H   0  0  0  0  0  0  0  0  0  0  0  0
   -4.9256   -0.4139   -1.7273 C   0  0  0  0  0  0  0  0  0  0  0  0
   -5.9334   -0.2368   -2.1324 H   0  0  0  0  0  0  0  0  0  0  0  0
   -3.9598    0.6068   -1.7770 C   0  0  0  0  0  0  0  0  0  0  0  0
   -4.2085    1.5839   -2.2166 H   0  0  0  0  0  0  0  0  0  0  0  0
   -2.6775    0.3836   -1.2664 C   0  0  0  0  0  0  0  0  0  0  0  0
   -1.9148    1.1752   -1.3086 H   0  0  0  0  0  0  0  0  0  0  0  0
  1  4  1  0  0  0  0
  2  1  1  0  0  0  0
  2 18  1  0  0  0  0
  3 40  1  0  0  0  0
  3  1  1  0  0  0  0
  4  5  1  0  0  0  0
  4  6  1  0  0  0  0
  7  8  1  0  0  0  0
  7  4  1  0  0  0  0
  8  9  1  0  0  0  0
 10 11  1  0  0  0  0
 10  8  2  0  0  0  0
 12 10  1  0  0  0  0
 13 12  1  0  0  0  0
 14 12  2  0  0  0  0
 14 16  1  0  0  0  0
 15 14  1  0  0  0  0
 16  7  2  0  0  0  0
 17 16  1  0  0  0  0
 18 27  1  0  0  0  0
 19 18  2  0  0  0  0
 19 21  1  0  0  0  0
 20 19  1  0  0  0  0
 21 23  2  0  0  0  0
 22 21  1  0  0  0  0
 23 25  1  0  0  0  0
 23 24  1  0  0  0  0
 25 26  1  0  0  0  0
 27 28  1  0  0  0  0
 27 25  2  0  0  0  0
 29  2  1  0  0  0  0
 29 30  1  0  0  0  0
 30 31  1  0  0  0  0
 32 30  2  0  0  0  0
 32 33  1  0  0  0  0
 34 32  1  0  0  0  0
 35 34  1  0  0  0  0
 36 38  1  0  0  0  0
 36 34  2  0  0  0  0
 37 36  1  0  0  0  0
 38 29  2  0  0  0  0
 39 38  1  0  0  0  0
 40 49  1  0  0  0  0
 41 40  2  0  0  0  0
 41 43  1  0  0  0  0
 42 41  1  0  0  0  0
 43 45  2  0  0  0  0
 44 43  1  0  0  0  0
 45 47  1  0  0  0  0
 45 46  1  0  0  0  0
 47 48  1  0  0  0  0
 49 50  1  0  0  0  0
 49 47  2  0  0  0  0
 51 52  1  0  0  0  0
 51  3  1  0  0  0  0
 52 53  1  0  0  0  0
 54 55  1  0  0  0  0
 54 52  2  0  0  0  0
 56 54  1  0  0  0  0
 57 56  1  0  0  0  0
 58 56  2  0  0  0  0
 58 60  1  0  0  0  0
 59 58  1  0  0  0  0
 60 51  2  0  0  0  0
 61 60  1  0  0  0  0
M  END
