1,2
 OpenBabel05122313063D

 66 73  0  0  0  0  0  0  0  0999 V2000
    1.4455   -1.0225   -0.3453 P   0  0  0  0  0  0  0  0  0  0  0  0
   -0.0999    1.8587    0.1937 P   0  0  0  0  0  0  0  0  0  0  0  0
    3.2032   -1.3477   -2.4095 O   0  0  0  0  0  0  0  0  0  0  0  0
    0.6827   -3.2286    1.1177 O   0  0  0  0  0  0  0  0  0  0  0  0
   -1.9016    3.6217    1.1734 O   0  0  0  0  0  0  0  0  0  0  0  0
   -2.3035    2.2080   -1.4344 O   0  0  0  0  0  0  0  0  0  0  0  0
   -1.3671   -0.9258   -0.6966 C   0  0  0  0  0  0  0  0  0  0  0  0
   -0.1328   -1.2420   -1.2814 C   0  0  0  0  0  0  0  0  0  0  0  0
   -0.0588   -1.5682   -2.6661 C   0  0  0  0  0  0  0  0  0  0  0  0
    0.9145   -1.8043   -3.1167 H   0  0  0  0  0  0  0  0  0  0  0  0
   -1.1978   -1.5755   -3.4511 C   0  0  0  0  0  0  0  0  0  0  0  0
   -1.1294   -1.8276   -4.5207 H   0  0  0  0  0  0  0  0  0  0  0  0
   -2.4686   -1.2483   -2.9013 C   0  0  0  0  0  0  0  0  0  0  0  0
   -3.6497   -1.2175   -3.6986 C   0  0  0  0  0  0  0  0  0  0  0  0
   -3.5692   -1.4655   -4.7683 H   0  0  0  0  0  0  0  0  0  0  0  0
   -4.8736   -0.8783   -3.1426 C   0  0  0  0  0  0  0  0  0  0  0  0
   -5.7783   -0.8577   -3.7691 H   0  0  0  0  0  0  0  0  0  0  0  0
   -4.9634   -0.5543   -1.7619 C   0  0  0  0  0  0  0  0  0  0  0  0
   -5.9368   -0.2798   -1.3281 H   0  0  0  0  0  0  0  0  0  0  0  0
   -3.8335   -0.5770   -0.9588 C   0  0  0  0  0  0  0  0  0  0  0  0
   -3.9041   -0.3100    0.1047 H   0  0  0  0  0  0  0  0  0  0  0  0
   -2.5590   -0.9238   -1.4996 C   0  0  0  0  0  0  0  0  0  0  0  0
   -1.4518   -0.5974    0.7598 C   0  0  0  0  0  0  0  0  0  0  0  0
   -0.9920    0.6300    1.2511 C   0  0  0  0  0  0  0  0  0  0  0  0
   -1.0085    0.8951    2.6523 C   0  0  0  0  0  0  0  0  0  0  0  0
   -0.6165    1.8546    3.0217 H   0  0  0  0  0  0  0  0  0  0  0  0
   -1.4961   -0.0429    3.5424 C   0  0  0  0  0  0  0  0  0  0  0  0
   -1.5007    0.1699    4.6226 H   0  0  0  0  0  0  0  0  0  0  0  0
   -1.9992   -1.2940    3.0847 C   0  0  0  0  0  0  0  0  0  0  0  0
   -2.5102   -2.2730    3.9854 C   0  0  0  0  0  0  0  0  0  0  0  0
   -2.5175   -2.0433    5.0622 H   0  0  0  0  0  0  0  0  0  0  0  0
   -2.9895   -3.4878    3.5194 C   0  0  0  0  0  0  0  0  0  0  0  0
   -3.3854   -4.2336    4.2253 H   0  0  0  0  0  0  0  0  0  0  0  0
   -2.9674   -3.7727    2.1284 C   0  0  0  0  0  0  0  0  0  0  0  0
   -3.3439   -4.7402    1.7630 H   0  0  0  0  0  0  0  0  0  0  0  0
   -2.4709   -2.8431    1.2265 C   0  0  0  0  0  0  0  0  0  0  0  0
   -2.4419   -3.0776    0.1537 H   0  0  0  0  0  0  0  0  0  0  0  0
   -1.9801   -1.5790    1.6718 C   0  0  0  0  0  0  0  0  0  0  0  0
    2.6492   -1.9617   -1.3175 C   0  0  0  0  0  0  0  0  0  0  0  0
    3.1932   -3.2199   -1.1547 C   0  0  0  0  0  0  0  0  0  0  0  0
    2.9391   -3.9320   -0.3634 H   0  0  0  0  0  0  0  0  0  0  0  0
    4.1495   -3.3780   -2.2097 C   0  0  0  0  0  0  0  0  0  0  0  0
    4.7911   -4.2453   -2.3993 H   0  0  0  0  0  0  0  0  0  0  0  0
    4.1151   -2.2098   -2.9366 C   0  0  0  0  0  0  0  0  0  0  0  0
    4.6553   -1.8498   -3.8178 H   0  0  0  0  0  0  0  0  0  0  0  0
    1.2794   -1.9901    1.1633 C   0  0  0  0  0  0  0  0  0  0  0  0
    1.6659   -1.6970    2.4566 C   0  0  0  0  0  0  0  0  0  0  0  0
    2.1873   -0.7847    2.7660 H   0  0  0  0  0  0  0  0  0  0  0  0
    1.2704   -2.8191    3.2527 C   0  0  0  0  0  0  0  0  0  0  0  0
    1.4029   -2.9470    4.3322 H   0  0  0  0  0  0  0  0  0  0  0  0
    0.6777   -3.7138    2.3897 C   0  0  0  0  0  0  0  0  0  0  0  0
    0.2065   -4.6927    2.5231 H   0  0  0  0  0  0  0  0  0  0  0  0
   -0.5468    3.4062    1.0251 C   0  0  0  0  0  0  0  0  0  0  0  0
    0.1593    4.4401    1.6086 C   0  0  0  0  0  0  0  0  0  0  0  0
    1.2535    4.5103    1.6157 H   0  0  0  0  0  0  0  0  0  0  0  0
   -0.8199    5.3403    2.1411 C   0  0  0  0  0  0  0  0  0  0  0  0
   -0.6336    6.2798    2.6729 H   0  0  0  0  0  0  0  0  0  0  0  0
   -2.0482    4.7931    1.8456 C   0  0  0  0  0  0  0  0  0  0  0  0
   -3.0806    5.1056    2.0352 H   0  0  0  0  0  0  0  0  0  0  0  0
   -0.9516    1.9693   -1.3938 C   0  0  0  0  0  0  0  0  0  0  0  0
   -0.4439    1.9192   -2.6790 C   0  0  0  0  0  0  0  0  0  0  0  0
    0.6061    1.7466   -2.9405 H   0  0  0  0  0  0  0  0  0  0  0  0
   -1.5558    2.1279   -3.5560 C   0  0  0  0  0  0  0  0  0  0  0  0
   -1.5443    2.1469   -4.6509 H   0  0  0  0  0  0  0  0  0  0  0  0
   -2.6563    2.2934   -2.7445 C   0  0  0  0  0  0  0  0  0  0  0  0
   -3.7205    2.4585   -2.9407 H   0  0  0  0  0  0  0  0  0  0  0  0
  1 46  1  0  0  0  0
  2 53  1  0  0  0  0
  2 24  1  0  0  0  0
  3 39  1  0  0  0  0
  4 46  1  0  0  0  0
  4 51  1  0  0  0  0
  5 58  1  0  0  0  0
  6 60  1  0  0  0  0
  7 23  1  0  0  0  0
  8  7  1  0  0  0  0
  8  1  1  0  0  0  0
  9  8  2  0  0  0  0
 10  9  1  0  0  0  0
 11 13  2  0  0  0  0
 11  9  1  0  0  0  0
 12 11  1  0  0  0  0
 13 22  1  0  0  0  0
 14 16  2  0  0  0  0
 14 13  1  0  0  0  0
 15 14  1  0  0  0  0
 16 18  1  0  0  0  0
 17 16  1  0  0  0  0
 18 19  1  0  0  0  0
 18 20  2  0  0  0  0
 20 21  1  0  0  0  0
 22 20  1  0  0  0  0
 22  7  2  0  0  0  0
 23 24  2  0  0  0  0
 23 38  1  0  0  0  0
 24 25  1  0  0  0  0
 25 26  1  0  0  0  0
 25 27  2  0  0  0  0
 27 28  1  0  0  0  0
 29 27  1  0  0  0  0
 29 30  1  0  0  0  0
 30 31  1  0  0  0  0
 32 30  2  0  0  0  0
 32 33  1  0  0  0  0
 34 32  1  0  0  0  0
 35 34  1  0  0  0  0
 36 38  1  0  0  0  0
 36 34  2  0  0  0  0
 37 36  1  0  0  0  0
 38 29  2  0  0  0  0
 39 40  2  0  0  0  0
 39  1  1  0  0  0  0
 40 41  1  0  0  0  0
 42 40  1  0  0  0  0
 43 42  1  0  0  0  0
 44  3  1  0  0  0  0
 44 42  2  0  0  0  0
 45 44  1  0  0  0  0
 46 47  2  0  0  0  0
 47 48  1  0  0  0  0
 47 49  1  0  0  0  0
 49 50  1  0  0  0  0
 51 52  1  0  0  0  0
 51 49  2  0  0  0  0
 53  5  1  0  0  0  0
 53 54  2  0  0  0  0
 54 55  1  0  0  0  0
 54 56  1  0  0  0  0
 56 57  1  0  0  0  0
 58 59  1  0  0  0  0
 58 56  2  0  0  0  0
 60  2  1  0  0  0  0
 61 60  2  0  0  0  0
 62 61  1  0  0  0  0
 63 65  2  0  0  0  0
 63 61  1  0  0  0  0
 64 63  1  0  0  0  0
 65  6  1  0  0  0  0
 66 65  1  0  0  0  0
M  END
