2,3
 OpenBabel05122313063D

 35 36  0  0  0  0  0  0  0  0999 V2000
   -1.8518    0.9793    2.2807 Cl  0  0  0  0  0  0  0  0  0  0  0  0
   -1.9459   -2.1481    0.1491 P   0  0  0  0  0  0  0  0  0  0  0  0
   -1.2674    0.7476   -0.8798 P   0  0  1  0  0  0  0  0  0  0  0  0
   -2.0565   -3.6804   -0.8733 C   0  0  0  0  0  0  0  0  0  0  0  0
   -2.5593   -2.6897    1.8020 C   0  0  0  0  0  0  0  0  0  0  0  0
   -3.3274   -1.1177   -0.5042 C   0  0  0  0  0  0  0  0  0  0  0  0
   -4.6598   -1.5724   -0.5557 C   0  0  0  0  0  0  0  0  0  0  0  0
   -5.6715   -0.7363   -1.0481 C   0  0  0  0  0  0  0  0  0  0  0  0
   -5.3625    0.5623   -1.4884 C   0  0  0  0  0  0  0  0  0  0  0  0
   -4.0405    1.0244   -1.4391 C   0  0  0  0  0  0  0  0  0  0  0  0
   -3.0208    0.1831   -0.9541 C   0  0  0  0  0  0  0  0  0  0  0  0
   -0.8224    1.1174   -2.6198 C   0  0  0  0  0  0  0  0  0  0  0  0
   -1.4130    2.3767   -0.0484 C   0  0  0  0  0  0  0  0  0  0  0  0
   -1.6712    2.4435    1.3399 C   0  0  0  0  0  0  0  0  0  0  0  0
   -1.7875    3.6722    2.0043 C   0  0  0  0  0  0  0  0  0  0  0  0
   -1.6440    4.8636    1.2793 C   0  0  0  0  0  0  0  0  0  0  0  0
   -1.3865    4.8249   -0.0993 C   0  0  0  0  0  0  0  0  0  0  0  0
   -1.2710    3.5913   -0.7544 C   0  0  0  0  0  0  0  0  0  0  0  0
   -1.7484   -3.4463   -1.9104 H   0  0  0  0  0  0  0  0  0  0  0  0
   -3.0898   -4.0796   -0.8826 H   0  0  0  0  0  0  0  0  0  0  0  0
   -1.3799   -4.4554   -0.4662 H   0  0  0  0  0  0  0  0  0  0  0  0
   -2.7021   -1.7956    2.4378 H   0  0  0  0  0  0  0  0  0  0  0  0
   -3.5197   -3.2361    1.7196 H   0  0  0  0  0  0  0  0  0  0  0  0
   -1.8123   -3.3525    2.2811 H   0  0  0  0  0  0  0  0  0  0  0  0
   -4.9194   -2.5840   -0.2062 H   0  0  0  0  0  0  0  0  0  0  0  0
   -6.7102   -1.0969   -1.0835 H   0  0  0  0  0  0  0  0  0  0  0  0
   -6.1590    1.2200   -1.8669 H   0  0  0  0  0  0  0  0  0  0  0  0
   -3.8049    2.0492   -1.7663 H   0  0  0  0  0  0  0  0  0  0  0  0
   -0.8047    0.1527   -3.1617 H   0  0  0  0  0  0  0  0  0  0  0  0
   -1.5510    1.7934   -3.1070 H   0  0  0  0  0  0  0  0  0  0  0  0
    0.1950    1.5536   -2.6452 H   0  0  0  0  0  0  0  0  0  0  0  0
   -1.9871    3.6849    3.0848 H   0  0  0  0  0  0  0  0  0  0  0  0
   -1.7328    5.8278    1.8013 H   0  0  0  0  0  0  0  0  0  0  0  0
   -1.2713    5.7581   -0.6692 H   0  0  0  0  0  0  0  0  0  0  0  0
   -1.0555    3.5770   -1.8320 H   0  0  0  0  0  0  0  0  0  0  0  0
  2  5  1  0  0  0  0
  3 12  1  6  0  0  0
  3 13  1  0  0  0  0
  4 21  1  0  0  0  0
  4  2  1  0  0  0  0
  5 24  1  0  0  0  0
  5 22  1  0  0  0  0
  6  2  1  0  0  0  0
  7  6  1  0  0  0  0
  7 25  1  0  0  0  0
  8  7  2  0  0  0  0
  9 10  2  0  0  0  0
  9  8  1  0  0  0  0
 10 11  1  0  0  0  0
 11  3  1  0  0  0  0
 11  6  2  0  0  0  0
 13 14  1  0  0  0  0
 14 15  2  0  0  0  0
 14  1  1  0  0  0  0
 15 32  1  0  0  0  0
 16 33  1  0  0  0  0
 16 15  1  0  0  0  0
 17 16  2  0  0  0  0
 18 17  1  0  0  0  0
 18 13  2  0  0  0  0
 19  4  1  0  0  0  0
 20  4  1  0  0  0  0
 23  5  1  0  0  0  0
 26  8  1  0  0  0  0
 27  9  1  0  0  0  0
 28 10  1  0  0  0  0
 29 12  1  0  0  0  0
 30 12  1  0  0  0  0
 31 12  1  0  0  0  0
 34 17  1  0  0  0  0
 35 18  1  0  0  0  0
M  END
