1,2
 OpenBabel05122313063D

 58 61  0  0  1  0  0  0  0  0999 V2000
   -1.9332    0.0271   -0.3394 P   0  0  0  0  0  0  0  0  0  0  0  0
    1.1541   -0.0416   -1.0036 P   0  0  0  0  0  0  0  0  0  0  0  0
   -2.5164   -0.3724   -3.1188 C   0  0  0  0  0  0  0  0  0  0  0  0
   -3.5196    0.0337   -2.8852 H   0  0  0  0  0  0  0  0  0  0  0  0
   -2.5839   -1.4765   -3.0481 H   0  0  0  0  0  0  0  0  0  0  0  0
   -2.2843   -0.1069   -4.1698 H   0  0  0  0  0  0  0  0  0  0  0  0
   -1.4510    0.1690   -2.1604 C   0  0  2  0  0  0  0  0  0  0  0  0
   -1.3408    1.2655   -2.3126 H   0  0  0  0  0  0  0  0  0  0  0  0
   -0.0709   -0.4954   -2.3747 C   0  0  1  0  0  0  0  0  0  0  0  0
   -0.1978   -1.5841   -2.1706 H   0  0  0  0  0  0  0  0  0  0  0  0
    0.4909   -0.3304   -3.7883 C   0  0  0  0  0  0  0  0  0  0  0  0
    1.4651   -0.8454   -3.8916 H   0  0  0  0  0  0  0  0  0  0  0  0
    0.6393    0.7359   -4.0502 H   0  0  0  0  0  0  0  0  0  0  0  0
   -0.1930   -0.7758   -4.5380 H   0  0  0  0  0  0  0  0  0  0  0  0
   -2.8410   -1.5663   -0.2428 C   0  0  0  0  0  0  0  0  0  0  0  0
   -4.2297   -1.6705   -0.4596 C   0  0  0  0  0  0  0  0  0  0  0  0
   -4.8239   -0.7641   -0.6513 H   0  0  0  0  0  0  0  0  0  0  0  0
   -4.8547   -2.9256   -0.4159 C   0  0  0  0  0  0  0  0  0  0  0  0
   -5.9405   -3.0004   -0.5805 H   0  0  0  0  0  0  0  0  0  0  0  0
   -4.1006   -4.0823   -0.1585 C   0  0  0  0  0  0  0  0  0  0  0  0
   -4.5952   -5.0649   -0.1218 H   0  0  0  0  0  0  0  0  0  0  0  0
   -2.7186   -3.9819    0.0681 C   0  0  0  0  0  0  0  0  0  0  0  0
   -2.1272   -4.8833    0.2890 H   0  0  0  0  0  0  0  0  0  0  0  0
   -2.0911   -2.7282    0.0347 C   0  0  0  0  0  0  0  0  0  0  0  0
   -1.0153   -2.6295    0.2496 H   0  0  0  0  0  0  0  0  0  0  0  0
   -3.2218    1.3050   -0.0784 C   0  0  0  0  0  0  0  0  0  0  0  0
   -3.6340    2.2274   -1.0621 C   0  0  0  0  0  0  0  0  0  0  0  0
   -3.2030    2.2047   -2.0733 H   0  0  0  0  0  0  0  0  0  0  0  0
   -4.6069    3.1944   -0.7623 C   0  0  0  0  0  0  0  0  0  0  0  0
   -4.9218    3.9078   -1.5391 H   0  0  0  0  0  0  0  0  0  0  0  0
   -5.1745    3.2503    0.5193 C   0  0  0  0  0  0  0  0  0  0  0  0
   -5.9374    4.0089    0.7519 H   0  0  0  0  0  0  0  0  0  0  0  0
   -4.7568    2.3426    1.5067 C   0  0  0  0  0  0  0  0  0  0  0  0
   -5.1828    2.3934    2.5202 H   0  0  0  0  0  0  0  0  0  0  0  0
   -3.7840    1.3768    1.2170 C   0  0  0  0  0  0  0  0  0  0  0  0
   -3.4163    0.6976    2.0034 H   0  0  0  0  0  0  0  0  0  0  0  0
    2.0592    1.4745   -1.4959 C   0  0  0  0  0  0  0  0  0  0  0  0
    3.4102    1.6383   -1.1203 C   0  0  0  0  0  0  0  0  0  0  0  0
    3.9418    0.8234   -0.6091 H   0  0  0  0  0  0  0  0  0  0  0  0
    4.0719    2.8490   -1.3734 C   0  0  0  0  0  0  0  0  0  0  0  0
    5.1236    2.9637   -1.0703 H   0  0  0  0  0  0  0  0  0  0  0  0
    3.3959    3.9107   -1.9935 C   0  0  0  0  0  0  0  0  0  0  0  0
    3.9175    4.8597   -2.1892 H   0  0  0  0  0  0  0  0  0  0  0  0
    2.0456    3.7626   -2.3499 C   0  0  0  0  0  0  0  0  0  0  0  0
    1.5031    4.5955   -2.8221 H   0  0  0  0  0  0  0  0  0  0  0  0
    1.3788    2.5563   -2.0951 C   0  0  0  0  0  0  0  0  0  0  0  0
    0.3132    2.4679   -2.3515 H   0  0  0  0  0  0  0  0  0  0  0  0
    2.3746   -1.4090   -1.1353 C   0  0  0  0  0  0  0  0  0  0  0  0
    3.3887   -1.4383   -2.1164 C   0  0  0  0  0  0  0  0  0  0  0  0
    3.5283   -0.5830   -2.7942 H   0  0  0  0  0  0  0  0  0  0  0  0
    4.2385   -2.5503   -2.2168 C   0  0  0  0  0  0  0  0  0  0  0  0
    5.0310   -2.5630   -2.9804 H   0  0  0  0  0  0  0  0  0  0  0  0
    4.0827   -3.6394   -1.3442 C   0  0  0  0  0  0  0  0  0  0  0  0
    4.7546   -4.5076   -1.4225 H   0  0  0  0  0  0  0  0  0  0  0  0
    3.0765   -3.6142   -0.3659 C   0  0  0  0  0  0  0  0  0  0  0  0
    2.9587   -4.4588    0.3295 H   0  0  0  0  0  0  0  0  0  0  0  0
    2.2280   -2.5032   -0.2592 C   0  0  0  0  0  0  0  0  0  0  0  0
    1.4521   -2.4570    0.5204 H   0  0  0  0  0  0  0  0  0  0  0  0
  1 15  1  0  0  0  0
  1 26  1  0  0  0  0
  3  5  1  0  0  0  0
  3  4  1  0  0  0  0
  3  7  1  0  0  0  0
  6  3  1  0  0  0  0
  7  8  1  6  0  0  0
  7  1  1  0  0  0  0
  9 10  1  1  0  0  0
  9  7  1  0  0  0  0
  9  2  1  0  0  0  0
 11  9  1  0  0  0  0
 12 11  1  0  0  0  0
 13 11  1  0  0  0  0
 14 11  1  0  0  0  0
 15 24  1  0  0  0  0
 16 18  1  0  0  0  0
 16 15  2  0  0  0  0
 17 16  1  0  0  0  0
 18 20  2  0  0  0  0
 19 18  1  0  0  0  0
 20 21  1  0  0  0  0
 20 22  1  0  0  0  0
 22 23  1  0  0  0  0
 24 22  2  0  0  0  0
 24 25  1  0  0  0  0
 26 35  1  0  0  0  0
 27 29  1  0  0  0  0
 27 26  2  0  0  0  0
 28 27  1  0  0  0  0
 29 31  2  0  0  0  0
 30 29  1  0  0  0  0
 31 32  1  0  0  0  0
 31 33  1  0  0  0  0
 33 34  1  0  0  0  0
 35 33  2  0  0  0  0
 35 36  1  0  0  0  0
 37 38  1  0  0  0  0
 37  2  1  0  0  0  0
 38 39  1  0  0  0  0
 40 38  2  0  0  0  0
 40 41  1  0  0  0  0
 42 40  1  0  0  0  0
 43 42  1  0  0  0  0
 44 46  1  0  0  0  0
 44 42  2  0  0  0  0
 45 44  1  0  0  0  0
 46 37  2  0  0  0  0
 47 46  1  0  0  0  0
 48  2  1  0  0  0  0
 48 57  1  0  0  0  0
 49 48  2  0  0  0  0
 50 49  1  0  0  0  0
 51 49  1  0  0  0  0
 51 53  2  0  0  0  0
 52 51  1  0  0  0  0
 53 55  1  0  0  0  0
 54 53  1  0  0  0  0
 55 57  2  0  0  0  0
 55 56  1  0  0  0  0
 57 58  1  0  0  0  0
M  END
