1,2
 OpenBabel05122313063D

 48 51  0  0  0  0  0  0  0  0999 V2000
   -2.1992    0.4846   -0.8326 P   0  0  2  0  0  0  0  0  0  0  0  0
    0.4493    1.5899    0.6231 P   0  0  2  0  0  0  0  0  0  0  0  0
   -2.7196    2.1393   -0.2011 C   0  0  0  0  0  0  0  0  0  0  0  0
   -4.0937    2.3715   -0.1096 C   0  0  0  0  0  0  0  0  0  0  0  0
   -4.7922    1.5238   -0.1868 H   0  0  0  0  0  0  0  0  0  0  0  0
   -4.6199    3.6767    0.0281 C   0  0  0  0  0  0  0  0  0  0  0  0
   -5.7062    3.8228    0.1158 H   0  0  0  0  0  0  0  0  0  0  0  0
   -3.7610    4.7610   -0.0194 C   0  0  0  0  0  0  0  0  0  0  0  0
   -4.1542    5.7886    0.0062 H   0  0  0  0  0  0  0  0  0  0  0  0
   -1.4904    5.7103   -0.1839 C   0  0  0  0  0  0  0  0  0  0  0  0
   -1.9441    6.7128   -0.2015 H   0  0  0  0  0  0  0  0  0  0  0  0
   -0.1175    5.5564   -0.2365 C   0  0  0  0  0  0  0  0  0  0  0  0
    0.5444    6.4304   -0.3202 H   0  0  0  0  0  0  0  0  0  0  0  0
    0.4425    4.2626   -0.1074 C   0  0  0  0  0  0  0  0  0  0  0  0
    1.5354    4.1661   -0.0293 H   0  0  0  0  0  0  0  0  0  0  0  0
   -0.3560    3.1213   -0.0192 C   0  0  0  0  0  0  0  0  0  0  0  0
   -1.7916    3.2376   -0.1101 C   0  0  0  0  0  0  0  0  0  0  0  0
   -2.3511    4.5768   -0.1044 C   0  0  0  0  0  0  0  0  0  0  0  0
   -2.5929    0.7304   -2.6165 C   0  0  0  0  0  0  0  0  0  0  0  0
   -3.6347    1.0732   -2.7551 H   0  0  0  0  0  0  0  0  0  0  0  0
   -2.4141   -0.1874   -3.2016 H   0  0  0  0  0  0  0  0  0  0  0  0
   -1.8972    1.5215   -2.9601 H   0  0  0  0  0  0  0  0  0  0  0  0
    0.1060    1.7872    2.4172 C   0  0  0  0  0  0  0  0  0  0  0  0
    0.5042    2.7456    2.7953 H   0  0  0  0  0  0  0  0  0  0  0  0
    0.5149    0.9395    2.9958 H   0  0  0  0  0  0  0  0  0  0  0  0
   -0.9971    1.7757    2.5034 H   0  0  0  0  0  0  0  0  0  0  0  0
    2.2329    1.8717    0.2872 C   0  0  0  0  0  0  0  0  0  0  0  0
    3.2349    2.0663    1.2542 C   0  0  0  0  0  0  0  0  0  0  0  0
    4.5982    2.0576    0.9135 C   0  0  0  0  0  0  0  0  0  0  0  0
    4.9785    1.8706   -0.4269 C   0  0  0  0  0  0  0  0  0  0  0  0
    3.9963    1.6886   -1.4199 C   0  0  0  0  0  0  0  0  0  0  0  0
    2.6470    1.7065   -1.0500 C   0  0  0  0  0  0  0  0  0  0  0  0
    2.9264    2.2186    2.5499 F   0  0  0  0  0  0  0  0  0  0  0  0
    5.5257    2.2236    1.8511 F   0  0  0  0  0  0  0  0  0  0  0  0
    6.2618    1.8635   -0.7576 F   0  0  0  0  0  0  0  0  0  0  0  0
    4.3515    1.5090   -2.6890 F   0  0  0  0  0  0  0  0  0  0  0  0
    1.7247    1.5272   -2.0132 F   0  0  0  0  0  0  0  0  0  0  0  0
   -3.4662   -0.6411   -0.1079 C   0  0  0  0  0  0  0  0  0  0  0  0
   -4.3803   -1.4378   -0.8228 C   0  0  0  0  0  0  0  0  0  0  0  0
   -5.2260   -2.3588   -0.1791 C   0  0  0  0  0  0  0  0  0  0  0  0
   -5.1775   -2.4854    1.2207 C   0  0  0  0  0  0  0  0  0  0  0  0
   -4.2751   -1.7018    1.9665 C   0  0  0  0  0  0  0  0  0  0  0  0
   -3.4420   -0.7977    1.2944 C   0  0  0  0  0  0  0  0  0  0  0  0
   -4.4571   -1.3709   -2.1620 F   0  0  0  0  0  0  0  0  0  0  0  0
   -6.0723   -3.1006   -0.8855 F   0  0  0  0  0  0  0  0  0  0  0  0
   -5.9743   -3.3453    1.8377 F   0  0  0  0  0  0  0  0  0  0  0  0
   -4.2201   -1.8231    3.2884 F   0  0  0  0  0  0  0  0  0  0  0  0
   -2.5780   -0.0750    2.0273 F   0  0  0  0  0  0  0  0  0  0  0  0
  1 19  1  6  0  0  0
  1  3  1  0  0  0  0
  1 38  1  0  0  0  0
  2 23  1  1  0  0  0
  3 17  2  0  0  0  0
  3  4  1  0  0  0  0
  4  6  2  0  0  0  0
  5  4  1  0  0  0  0
  6  7  1  0  0  0  0
  8  9  1  0  0  0  0
  8  6  1  0  0  0  0
 10 18  1  0  0  0  0
 11 10  1  0  0  0  0
 12 10  2  0  0  0  0
 12 14  1  0  0  0  0
 13 12  1  0  0  0  0
 14 15  1  0  0  0  0
 14 16  2  0  0  0  0
 16  2  1  0  0  0  0
 17 18  1  0  0  0  0
 17 16  1  0  0  0  0
 18  8  2  0  0  0  0
 20 19  1  0  0  0  0
 21 19  1  0  0  0  0
 22 19  1  0  0  0  0
 23 26  1  0  0  0  0
 23 24  1  0  0  0  0
 23 25  1  0  0  0  0
 27  2  1  0  0  0  0
 27 28  1  0  0  0  0
 28 33  1  0  0  0  0
 29 28  2  0  0  0  0
 29 34  1  0  0  0  0
 30 29  1  0  0  0  0
 31 32  1  0  0  0  0
 31 30  2  0  0  0  0
 32 27  2  0  0  0  0
 35 30  1  0  0  0  0
 36 31  1  0  0  0  0
 37 32  1  0  0  0  0
 38 43  1  0  0  0  0
 39 40  1  0  0  0  0
 39 38  2  0  0  0  0
 40 41  2  0  0  0  0
 41 46  1  0  0  0  0
 41 42  1  0  0  0  0
 42 47  1  0  0  0  0
 43 42  2  0  0  0  0
 43 48  1  0  0  0  0
 44 39  1  0  0  0  0
 45 40  1  0  0  0  0
M  END
