1,2
 OpenBabel05122313063D

 63 68  0  0  1  0  0  0  0  0999 V2000
   -1.5214    0.0943   -0.0194 P   0  0  0  0  0  0  0  0  0  0  0  0
    1.5555    0.1190   -0.1276 P   0  0  0  0  0  0  0  0  0  0  0  0
   -3.1018   -0.7917    0.3744 C   0  0  0  0  0  0  0  0  0  0  0  0
   -3.0666   -2.0329    1.0417 C   0  0  0  0  0  0  0  0  0  0  0  0
   -2.0996   -2.4503    1.3638 H   0  0  0  0  0  0  0  0  0  0  0  0
   -4.2581   -2.7364    1.2779 C   0  0  0  0  0  0  0  0  0  0  0  0
   -4.2193   -3.7050    1.7994 H   0  0  0  0  0  0  0  0  0  0  0  0
   -5.4890   -2.2105    0.8575 C   0  0  0  0  0  0  0  0  0  0  0  0
   -6.4217   -2.7631    1.0486 H   0  0  0  0  0  0  0  0  0  0  0  0
   -5.5285   -0.9713    0.1972 C   0  0  0  0  0  0  0  0  0  0  0  0
   -6.4909   -0.5494   -0.1309 H   0  0  0  0  0  0  0  0  0  0  0  0
   -4.3430   -0.2612   -0.0408 C   0  0  0  0  0  0  0  0  0  0  0  0
   -4.3837    0.7136   -0.5495 H   0  0  0  0  0  0  0  0  0  0  0  0
   -2.1207    1.8406   -0.1768 C   0  0  0  0  0  0  0  0  0  0  0  0
   -2.3670    2.5461    1.0218 C   0  0  0  0  0  0  0  0  0  0  0  0
   -2.1754    2.0558    1.9877 H   0  0  0  0  0  0  0  0  0  0  0  0
   -2.8081    3.8755    0.9853 C   0  0  0  0  0  0  0  0  0  0  0  0
   -2.9908    4.4123    1.9285 H   0  0  0  0  0  0  0  0  0  0  0  0
   -3.0049    4.5234   -0.2458 C   0  0  0  0  0  0  0  0  0  0  0  0
   -3.3423    5.5707   -0.2729 H   0  0  0  0  0  0  0  0  0  0  0  0
   -2.7711    3.8277   -1.4411 C   0  0  0  0  0  0  0  0  0  0  0  0
   -2.9290    4.3243   -2.4106 H   0  0  0  0  0  0  0  0  0  0  0  0
   -2.3364    2.4927   -1.4086 C   0  0  0  0  0  0  0  0  0  0  0  0
   -2.1721    1.9676   -2.3596 H   0  0  0  0  0  0  0  0  0  0  0  0
   -0.0003    0.3148   -2.4039 C   0  0  0  0  0  0  0  0  0  0  0  0
   -0.0326    0.2465   -3.5117 H   0  0  0  0  0  0  0  0  0  0  0  0
    0.0563    1.3869   -2.1340 H   0  0  0  0  0  0  0  0  0  0  0  0
   -1.2237   -0.4313   -1.8212 C   0  0  1  0  0  0  0  0  0  0  0  0
   -2.1699   -0.2566   -2.3715 H   0  0  0  0  0  0  0  0  0  0  0  0
   -0.7648   -1.8693   -1.8518 C   0  0  0  0  0  0  0  0  0  0  0  0
   -1.5230   -3.0451   -1.8192 C   0  0  0  0  0  0  0  0  0  0  0  0
   -2.6217   -3.0023   -1.7833 H   0  0  0  0  0  0  0  0  0  0  0  0
   -0.8527   -4.2811   -1.8370 C   0  0  0  0  0  0  0  0  0  0  0  0
   -1.4332   -5.2159   -1.8200 H   0  0  0  0  0  0  0  0  0  0  0  0
    0.5501   -4.3324   -1.8761 C   0  0  0  0  0  0  0  0  0  0  0  0
    1.0602   -5.3074   -1.8865 H   0  0  0  0  0  0  0  0  0  0  0  0
    1.3121   -3.1511   -1.8931 C   0  0  0  0  0  0  0  0  0  0  0  0
    2.4101   -3.2042   -1.9031 H   0  0  0  0  0  0  0  0  0  0  0  0
    0.6496   -1.9183   -1.8845 C   0  0  0  0  0  0  0  0  0  0  0  0
    1.2002   -0.5097   -1.8815 C   0  0  2  0  0  0  0  0  0  0  0  0
    2.1158   -0.3669   -2.4895 H   0  0  0  0  0  0  0  0  0  0  0  0
    2.0105    1.8773   -0.4810 C   0  0  0  0  0  0  0  0  0  0  0  0
    1.1912    2.9242   -0.0191 C   0  0  0  0  0  0  0  0  0  0  0  0
    0.3323    2.6910    0.6231 H   0  0  0  0  0  0  0  0  0  0  0  0
    1.4906    4.2529   -0.3578 C   0  0  0  0  0  0  0  0  0  0  0  0
    0.8404    5.0623    0.0076 H   0  0  0  0  0  0  0  0  0  0  0  0
    2.6102    4.5446   -1.1513 C   0  0  0  0  0  0  0  0  0  0  0  0
    2.8446    5.5873   -1.4153 H   0  0  0  0  0  0  0  0  0  0  0  0
    3.4409    3.5033   -1.5998 C   0  0  0  0  0  0  0  0  0  0  0  0
    4.3292    3.7286   -2.2097 H   0  0  0  0  0  0  0  0  0  0  0  0
    3.1452    2.1742   -1.2654 C   0  0  0  0  0  0  0  0  0  0  0  0
    3.8113    1.3655   -1.6047 H   0  0  0  0  0  0  0  0  0  0  0  0
    3.1681   -0.6033    0.3836 C   0  0  0  0  0  0  0  0  0  0  0  0
    4.0487   -1.2724   -0.4878 C   0  0  0  0  0  0  0  0  0  0  0  0
    3.7976   -1.3976   -1.5510 H   0  0  0  0  0  0  0  0  0  0  0  0
    5.2647   -1.7841   -0.0067 C   0  0  0  0  0  0  0  0  0  0  0  0
    5.9458   -2.3081   -0.6946 H   0  0  0  0  0  0  0  0  0  0  0  0
    5.6094   -1.6289    1.3443 C   0  0  0  0  0  0  0  0  0  0  0  0
    6.5613   -2.0339    1.7200 H   0  0  0  0  0  0  0  0  0  0  0  0
    4.7366   -0.9563    2.2158 C   0  0  0  0  0  0  0  0  0  0  0  0
    5.0025   -0.8303    3.2762 H   0  0  0  0  0  0  0  0  0  0  0  0
    3.5204   -0.4476    1.7418 C   0  0  0  0  0  0  0  0  0  0  0  0
    2.8324    0.0792    2.4236 H   0  0  0  0  0  0  0  0  0  0  0  0
  1  3  1  0  0  0  0
  2 53  1  0  0  0  0
  3  4  1  0  0  0  0
  4  6  2  0  0  0  0
  4  5  1  0  0  0  0
  6  7  1  0  0  0  0
  8  9  1  0  0  0  0
  8  6  1  0  0  0  0
 10  8  2  0  0  0  0
 11 10  1  0  0  0  0
 12 10  1  0  0  0  0
 12  3  2  0  0  0  0
 13 12  1  0  0  0  0
 14  1  1  0  0  0  0
 14 15  1  0  0  0  0
 15 16  1  0  0  0  0
 17 15  2  0  0  0  0
 17 18  1  0  0  0  0
 19 17  1  0  0  0  0
 20 19  1  0  0  0  0
 21 23  1  0  0  0  0
 21 19  2  0  0  0  0
 22 21  1  0  0  0  0
 23 14  2  0  0  0  0
 24 23  1  0  0  0  0
 25 27  1  0  0  0  0
 25 40  1  0  0  0  0
 25 28  1  0  0  0  0
 26 25  1  0  0  0  0
 28 29  1  6  0  0  0
 28  1  1  0  0  0  0
 30 28  1  0  0  0  0
 30 31  1  0  0  0  0
 31 32  1  0  0  0  0
 33 34  1  0  0  0  0
 33 31  2  0  0  0  0
 35 33  1  0  0  0  0
 36 35  1  0  0  0  0
 37 39  1  0  0  0  0
 37 35  2  0  0  0  0
 38 37  1  0  0  0  0
 39 40  1  0  0  0  0
 39 30  2  0  0  0  0
 40 41  1  6  0  0  0
 40  2  1  0  0  0  0
 42  2  1  0  0  0  0
 42 43  1  0  0  0  0
 43 44  1  0  0  0  0
 45 43  2  0  0  0  0
 45 46  1  0  0  0  0
 47 45  1  0  0  0  0
 48 47  1  0  0  0  0
 49 51  1  0  0  0  0
 49 47  2  0  0  0  0
 50 49  1  0  0  0  0
 51 42  2  0  0  0  0
 52 51  1  0  0  0  0
 53 62  1  0  0  0  0
 54 56  1  0  0  0  0
 54 53  2  0  0  0  0
 55 54  1  0  0  0  0
 56 58  2  0  0  0  0
 57 56  1  0  0  0  0
 58 59  1  0  0  0  0
 58 60  1  0  0  0  0
 60 61  1  0  0  0  0
 62 60  2  0  0  0  0
 62 63  1  0  0  0  0
M  END
