1,2
 OpenBabel05122313063D

 70 74  0  0  0  0  0  0  0  0999 V2000
   -1.0769   -1.7672   -0.2071 P   0  0  0  0  0  0  0  0  0  0  0  0
   -1.1638    1.6737   -0.3620 P   0  0  0  0  0  0  0  0  0  0  0  0
    0.2766   -0.1602   -2.0259 N   0  0  0  0  0  0  0  0  0  0  0  0
    4.5703    2.8149   -0.4451 O   0  0  0  0  0  0  0  0  0  0  0  0
    4.5253    1.3601    1.2938 O   0  0  0  0  0  0  0  0  0  0  0  0
    4.9501    2.1396    1.7140 H   0  0  0  0  0  0  0  0  0  0  0  0
    6.5505    0.0906   -0.3090 O   0  0  0  0  0  0  0  0  0  0  0  0
    6.2249   -2.1026   -0.7568 O   0  0  0  0  0  0  0  0  0  0  0  0
    7.1750   -2.0728   -0.5141 H   0  0  0  0  0  0  0  0  0  0  0  0
    0.4875   -2.4768    0.4278 C   0  0  0  0  0  0  0  0  0  0  0  0
    1.3249   -1.6377    1.1904 C   0  0  0  0  0  0  0  0  0  0  0  0
    0.9677   -0.6376    1.4798 H   0  0  0  0  0  0  0  0  0  0  0  0
    2.6109   -2.0628    1.5483 C   0  0  0  0  0  0  0  0  0  0  0  0
    3.2723   -1.3792    2.1012 H   0  0  0  0  0  0  0  0  0  0  0  0
    3.0553   -3.3411    1.1745 C   0  0  0  0  0  0  0  0  0  0  0  0
    4.0715   -3.6689    1.4405 H   0  0  0  0  0  0  0  0  0  0  0  0
    2.2109   -4.1936    0.4444 C   0  0  0  0  0  0  0  0  0  0  0  0
    2.5560   -5.1988    0.1583 H   0  0  0  0  0  0  0  0  0  0  0  0
    0.9322   -3.7631    0.0606 C   0  0  0  0  0  0  0  0  0  0  0  0
    0.2838   -4.4266   -0.5320 H   0  0  0  0  0  0  0  0  0  0  0  0
   -2.2576   -3.1442   -0.4457 C   0  0  0  0  0  0  0  0  0  0  0  0
   -2.3042   -4.2071    0.4829 C   0  0  0  0  0  0  0  0  0  0  0  0
   -1.6173   -4.2102    1.3400 H   0  0  0  0  0  0  0  0  0  0  0  0
   -3.2439   -5.2343    0.3246 C   0  0  0  0  0  0  0  0  0  0  0  0
   -3.2736   -6.0572    1.0545 H   0  0  0  0  0  0  0  0  0  0  0  0
   -4.1532   -5.2079   -0.7452 C   0  0  0  0  0  0  0  0  0  0  0  0
   -4.8927   -6.0145   -0.8614 H   0  0  0  0  0  0  0  0  0  0  0  0
   -4.1255   -4.1431   -1.6581 C   0  0  0  0  0  0  0  0  0  0  0  0
   -4.8445   -4.1071   -2.4903 H   0  0  0  0  0  0  0  0  0  0  0  0
   -3.1849   -3.1132   -1.5082 C   0  0  0  0  0  0  0  0  0  0  0  0
   -3.1974   -2.2761   -2.2219 H   0  0  0  0  0  0  0  0  0  0  0  0
    0.1003    2.8059    0.3310 C   0  0  0  0  0  0  0  0  0  0  0  0
    0.5966    3.8725   -0.4512 C   0  0  0  0  0  0  0  0  0  0  0  0
    0.1525    4.0970   -1.4340 H   0  0  0  0  0  0  0  0  0  0  0  0
    1.6636    4.6509    0.0177 C   0  0  0  0  0  0  0  0  0  0  0  0
    2.0573    5.4702   -0.6014 H   0  0  0  0  0  0  0  0  0  0  0  0
    2.2408    4.3713    1.2669 C   0  0  0  0  0  0  0  0  0  0  0  0
    3.0924    4.9715    1.6201 H   0  0  0  0  0  0  0  0  0  0  0  0
    1.7374    3.3245    2.0541 C   0  0  0  0  0  0  0  0  0  0  0  0
    2.1789    3.1076    3.0382 H   0  0  0  0  0  0  0  0  0  0  0  0
    0.6658    2.5445    1.5942 C   0  0  0  0  0  0  0  0  0  0  0  0
    0.2438    1.7421    2.2173 H   0  0  0  0  0  0  0  0  0  0  0  0
   -2.5517    2.7167   -0.9426 C   0  0  0  0  0  0  0  0  0  0  0  0
   -2.7450    4.0236   -0.4541 C   0  0  0  0  0  0  0  0  0  0  0  0
   -2.0332    4.4488    0.2672 H   0  0  0  0  0  0  0  0  0  0  0  0
   -3.8567    4.7688   -0.8729 C   0  0  0  0  0  0  0  0  0  0  0  0
   -4.0022    5.7887   -0.4863 H   0  0  0  0  0  0  0  0  0  0  0  0
   -4.7871    4.2153   -1.7663 C   0  0  0  0  0  0  0  0  0  0  0  0
   -5.6598    4.8031   -2.0886 H   0  0  0  0  0  0  0  0  0  0  0  0
   -4.6128    2.9026   -2.2332 C   0  0  0  0  0  0  0  0  0  0  0  0
   -5.3513    2.4541   -2.9147 H   0  0  0  0  0  0  0  0  0  0  0  0
   -3.5044    2.1528   -1.8170 C   0  0  0  0  0  0  0  0  0  0  0  0
   -3.4004    1.1088   -2.1535 H   0  0  0  0  0  0  0  0  0  0  0  0
   -0.3827    1.1254   -2.0155 C   0  0  0  0  0  0  0  0  0  0  0  0
   -1.2165    1.1015   -2.7474 H   0  0  0  0  0  0  0  0  0  0  0  0
    0.3183    1.9148   -2.3488 H   0  0  0  0  0  0  0  0  0  0  0  0
   -0.6010   -1.3117   -1.9836 C   0  0  0  0  0  0  0  0  0  0  0  0
   -0.1514   -2.1991   -2.4688 H   0  0  0  0  0  0  0  0  0  0  0  0
   -1.5289   -1.0726   -2.5394 H   0  0  0  0  0  0  0  0  0  0  0  0
    1.6407   -0.2947   -1.7515 C   0  0  0  0  0  0  0  0  0  0  0  0
    2.3826    0.7588   -1.1638 C   0  0  0  0  0  0  0  0  0  0  0  0
    1.9004    1.7080   -0.9065 H   0  0  0  0  0  0  0  0  0  0  0  0
    3.7167    0.5794   -0.7843 C   0  0  0  0  0  0  0  0  0  0  0  0
    4.3837   -0.6395   -1.0475 C   0  0  0  0  0  0  0  0  0  0  0  0
    3.6639   -1.6620   -1.7016 C   0  0  0  0  0  0  0  0  0  0  0  0
    4.1765   -2.6051   -1.9334 H   0  0  0  0  0  0  0  0  0  0  0  0
    2.3260   -1.5032   -2.0440 C   0  0  0  0  0  0  0  0  0  0  0  0
    1.8048   -2.3376   -2.5291 H   0  0  0  0  0  0  0  0  0  0  0  0
    4.3492    1.7039   -0.0067 C   0  0  0  0  0  0  0  0  0  0  0  0
    5.8036   -0.8082   -0.6667 C   0  0  0  0  0  0  0  0  0  0  0  0
  1 10  1  0  0  0  0
  2 32  1  0  0  0  0
  3 54  1  0  0  0  0
  3 57  1  0  0  0  0
  3 60  1  0  0  0  0
  4 69  2  0  0  0  0
  5  6  1  0  0  0  0
  8 70  1  0  0  0  0
  8  9  1  0  0  0  0
 10 11  1  0  0  0  0
 11 12  1  0  0  0  0
 11 13  2  0  0  0  0
 13 14  1  0  0  0  0
 15 16  1  0  0  0  0
 15 13  1  0  0  0  0
 17 15  2  0  0  0  0
 18 17  1  0  0  0  0
 19 10  2  0  0  0  0
 19 17  1  0  0  0  0
 20 19  1  0  0  0  0
 21  1  1  0  0  0  0
 21 22  1  0  0  0  0
 22 23  1  0  0  0  0
 24 22  2  0  0  0  0
 24 25  1  0  0  0  0
 26 24  1  0  0  0  0
 27 26  1  0  0  0  0
 28 30  1  0  0  0  0
 28 26  2  0  0  0  0
 29 28  1  0  0  0  0
 30 21  2  0  0  0  0
 31 30  1  0  0  0  0
 32 41  1  0  0  0  0
 33 35  1  0  0  0  0
 33 32  2  0  0  0  0
 34 33  1  0  0  0  0
 35 37  2  0  0  0  0
 36 35  1  0  0  0  0
 37 38  1  0  0  0  0
 37 39  1  0  0  0  0
 39 40  1  0  0  0  0
 41 39  2  0  0  0  0
 41 42  1  0  0  0  0
 43 44  1  0  0  0  0
 43  2  1  0  0  0  0
 44 45  1  0  0  0  0
 46 47  1  0  0  0  0
 46 44  2  0  0  0  0
 48 46  1  0  0  0  0
 49 48  1  0  0  0  0
 50 52  1  0  0  0  0
 50 48  2  0  0  0  0
 51 50  1  0  0  0  0
 52 43  2  0  0  0  0
 53 52  1  0  0  0  0
 54  2  1  0  0  0  0
 55 54  1  0  0  0  0
 56 54  1  0  0  0  0
 57  1  1  0  0  0  0
 58 57  1  0  0  0  0
 59 57  1  0  0  0  0
 60 61  1  0  0  0  0
 61 62  1  0  0  0  0
 61 63  2  0  0  0  0
 63 69  1  0  0  0  0
 64 63  1  0  0  0  0
 64 70  1  0  0  0  0
 65 64  2  0  0  0  0
 66 65  1  0  0  0  0
 67 60  2  0  0  0  0
 67 65  1  0  0  0  0
 68 67  1  0  0  0  0
 69  5  1  0  0  0  0
 70  7  2  0  0  0  0
M  END
