1,2
 OpenBabel05122313063D

 69 74  0  0  0  0  0  0  0  0999 V2000
   -1.7045    0.4356    0.0747 P   0  0  0  0  0  0  0  0  0  0  0  0
    1.8741    0.1137   -0.0634 P   0  0  0  0  0  0  0  0  0  0  0  0
   -2.1586    2.2059   -0.1839 C   0  0  0  0  0  0  0  0  0  0  0  0
   -3.5130    2.5916   -0.1078 C   0  0  0  0  0  0  0  0  0  0  0  0
   -3.9002    3.9183   -0.3409 C   0  0  0  0  0  0  0  0  0  0  0  0
   -2.9301    4.8745   -0.6721 C   0  0  0  0  0  0  0  0  0  0  0  0
   -1.5821    4.4980   -0.7521 C   0  0  0  0  0  0  0  0  0  0  0  0
   -1.1682    3.1740   -0.5053 C   0  0  0  0  0  0  0  0  0  0  0  0
    0.3018    2.8254   -0.5588 C   0  0  0  0  0  0  0  0  0  0  0  0
    0.9153    2.6203    0.8203 C   0  0  0  0  0  0  0  0  0  0  0  0
    0.7574    3.6417    1.7784 C   0  0  0  0  0  0  0  0  0  0  0  0
    1.3046    3.5405    3.0629 C   0  0  0  0  0  0  0  0  0  0  0  0
    2.0343    2.3962    3.4145 C   0  0  0  0  0  0  0  0  0  0  0  0
    2.2099    1.3701    2.4773 C   0  0  0  0  0  0  0  0  0  0  0  0
    1.6522    1.4612    1.1844 C   0  0  0  0  0  0  0  0  0  0  0  0
   -1.4517    0.2581    1.8872 C   0  0  0  0  0  0  0  0  0  0  0  0
   -1.5714    1.3240    2.7963 C   0  0  0  0  0  0  0  0  0  0  0  0
   -1.3177    1.1149    4.1616 C   0  0  0  0  0  0  0  0  0  0  0  0
   -0.9746   -0.1620    4.6305 C   0  0  0  0  0  0  0  0  0  0  0  0
   -0.8766   -1.2349    3.7271 C   0  0  0  0  0  0  0  0  0  0  0  0
   -1.0969   -1.0254    2.3587 C   0  0  0  0  0  0  0  0  0  0  0  0
   -3.2960   -0.4590   -0.2060 C   0  0  0  0  0  0  0  0  0  0  0  0
   -3.7328   -0.6225   -1.5388 C   0  0  0  0  0  0  0  0  0  0  0  0
   -4.9171   -1.3233   -1.8039 C   0  0  0  0  0  0  0  0  0  0  0  0
   -5.6707   -1.8737   -0.7526 C   0  0  0  0  0  0  0  0  0  0  0  0
   -5.2379   -1.7105    0.5719 C   0  0  0  0  0  0  0  0  0  0  0  0
   -4.0570   -1.0020    0.8484 C   0  0  0  0  0  0  0  0  0  0  0  0
    3.0636    0.9054   -1.2355 C   0  0  0  0  0  0  0  0  0  0  0  0
    4.2355    1.5232   -0.7485 C   0  0  0  0  0  0  0  0  0  0  0  0
    5.1273    2.1362   -1.6389 C   0  0  0  0  0  0  0  0  0  0  0  0
    4.8495    2.1473   -3.0172 C   0  0  0  0  0  0  0  0  0  0  0  0
    3.6763    1.5488   -3.5008 C   0  0  0  0  0  0  0  0  0  0  0  0
    2.7808    0.9274   -2.6148 C   0  0  0  0  0  0  0  0  0  0  0  0
    2.8669   -1.1827    0.7742 C   0  0  0  0  0  0  0  0  0  0  0  0
    2.3418   -1.8067    1.9285 C   0  0  0  0  0  0  0  0  0  0  0  0
    3.0034   -2.8949    2.5116 C   0  0  0  0  0  0  0  0  0  0  0  0
    4.1790   -3.4015    1.9321 C   0  0  0  0  0  0  0  0  0  0  0  0
    4.6932   -2.8026    0.7715 C   0  0  0  0  0  0  0  0  0  0  0  0
    4.0479   -1.6955    0.1971 C   0  0  0  0  0  0  0  0  0  0  0  0
   -4.2761    1.8355    0.1285 H   0  0  0  0  0  0  0  0  0  0  0  0
   -4.9620    4.1989   -0.2742 H   0  0  0  0  0  0  0  0  0  0  0  0
   -3.2221    5.9162   -0.8747 H   0  0  0  0  0  0  0  0  0  0  0  0
   -0.8202    5.2465   -1.0215 H   0  0  0  0  0  0  0  0  0  0  0  0
    0.4245    1.9185   -1.1890 H   0  0  0  0  0  0  0  0  0  0  0  0
    0.8532    3.6385   -1.0744 H   0  0  0  0  0  0  0  0  0  0  0  0
    0.1780    4.5364    1.5014 H   0  0  0  0  0  0  0  0  0  0  0  0
    1.1609    4.3555    3.7884 H   0  0  0  0  0  0  0  0  0  0  0  0
    2.4732    2.2982    4.4188 H   0  0  0  0  0  0  0  0  0  0  0  0
    2.7959    0.4840    2.7570 H   0  0  0  0  0  0  0  0  0  0  0  0
   -1.8515    2.3233    2.4326 H   0  0  0  0  0  0  0  0  0  0  0  0
   -1.3905    1.9599    4.8629 H   0  0  0  0  0  0  0  0  0  0  0  0
   -0.7836   -0.3238    5.7023 H   0  0  0  0  0  0  0  0  0  0  0  0
   -0.6156   -2.2419    4.0880 H   0  0  0  0  0  0  0  0  0  0  0  0
   -0.9948   -1.8615    1.6467 H   0  0  0  0  0  0  0  0  0  0  0  0
   -3.1162   -0.2267   -2.3652 H   0  0  0  0  0  0  0  0  0  0  0  0
   -5.2475   -1.4496   -2.8464 H   0  0  0  0  0  0  0  0  0  0  0  0
   -6.5958   -2.4307   -0.9666 H   0  0  0  0  0  0  0  0  0  0  0  0
   -5.8226   -2.1358    1.4021 H   0  0  0  0  0  0  0  0  0  0  0  0
   -3.7287   -0.8767    1.8900 H   0  0  0  0  0  0  0  0  0  0  0  0
    4.4464    1.5255    0.3324 H   0  0  0  0  0  0  0  0  0  0  0  0
    6.0418    2.6140   -1.2552 H   0  0  0  0  0  0  0  0  0  0  0  0
    5.5489    2.6337   -3.7145 H   0  0  0  0  0  0  0  0  0  0  0  0
    3.4461    1.5682   -4.5768 H   0  0  0  0  0  0  0  0  0  0  0  0
    1.8409    0.4834   -2.9857 H   0  0  0  0  0  0  0  0  0  0  0  0
    1.4004   -1.4434    2.3637 H   0  0  0  0  0  0  0  0  0  0  0  0
    2.5859   -3.3620    3.4168 H   0  0  0  0  0  0  0  0  0  0  0  0
    4.6908   -4.2658    2.3817 H   0  0  0  0  0  0  0  0  0  0  0  0
    5.6098   -3.1967    0.3068 H   0  0  0  0  0  0  0  0  0  0  0  0
    4.4643   -1.2286   -0.7075 H   0  0  0  0  0  0  0  0  0  0  0  0
  1 16  1  0  0  0  0
  2 34  1  0  0  0  0
  2 15  1  0  0  0  0
  3  4  1  0  0  0  0
  3  1  1  0  0  0  0
  4 40  1  0  0  0  0
  5 41  1  0  0  0  0
  5  4  2  0  0  0  0
  6  5  1  0  0  0  0
  7  6  2  0  0  0  0
  7  8  1  0  0  0  0
  8  3  2  0  0  0  0
  9  8  1  0  0  0  0
  9 10  1  0  0  0  0
 10 15  2  0  0  0  0
 10 11  1  0  0  0  0
 11 12  2  0  0  0  0
 12 13  1  0  0  0  0
 12 47  1  0  0  0  0
 13 48  1  0  0  0  0
 14 49  1  0  0  0  0
 14 13  2  0  0  0  0
 15 14  1  0  0  0  0
 16 21  2  0  0  0  0
 16 17  1  0  0  0  0
 17 18  2  0  0  0  0
 18 19  1  0  0  0  0
 18 51  1  0  0  0  0
 19 52  1  0  0  0  0
 20 53  1  0  0  0  0
 20 19  2  0  0  0  0
 21 20  1  0  0  0  0
 22  1  1  0  0  0  0
 22 27  1  0  0  0  0
 23 22  2  0  0  0  0
 24 23  1  0  0  0  0
 24 25  2  0  0  0  0
 25 26  1  0  0  0  0
 26 27  2  0  0  0  0
 26 58  1  0  0  0  0
 27 59  1  0  0  0  0
 28 29  1  0  0  0  0
 28  2  1  0  0  0  0
 29 60  1  0  0  0  0
 30 61  1  0  0  0  0
 30 29  2  0  0  0  0
 31 30  1  0  0  0  0
 32 31  2  0  0  0  0
 32 33  1  0  0  0  0
 33 28  2  0  0  0  0
 34 35  1  0  0  0  0
 35 65  1  0  0  0  0
 35 36  2  0  0  0  0
 36 66  1  0  0  0  0
 37 67  1  0  0  0  0
 37 36  1  0  0  0  0
 38 37  2  0  0  0  0
 39 38  1  0  0  0  0
 39 34  2  0  0  0  0
 42  6  1  0  0  0  0
 43  7  1  0  0  0  0
 44  9  1  0  0  0  0
 45  9  1  0  0  0  0
 46 11  1  0  0  0  0
 50 17  1  0  0  0  0
 54 21  1  0  0  0  0
 55 23  1  0  0  0  0
 56 24  1  0  0  0  0
 57 25  1  0  0  0  0
 62 31  1  0  0  0  0
 63 32  1  0  0  0  0
 64 33  1  0  0  0  0
 68 38  1  0  0  0  0
 69 39  1  0  0  0  0
M  END
