1,27
 OpenBabel05122313063D

 50 53  0  0  0  0  0  0  0  0999 V2000
   -1.2530   -0.1555   -0.8176 P   0  0  1  0  0  0  0  0  0  0  0  0
   -0.4056   -1.7758   -0.5994 C   0  0  0  0  0  0  0  0  0  0  0  0
   -0.4753   -2.5109   -1.7542 C   0  0  0  0  0  0  0  0  0  0  0  0
   -1.2483   -1.8237   -2.8351 C   0  0  0  0  0  0  0  0  0  0  0  0
   -1.6979   -0.5693   -2.5215 C   0  0  0  0  0  0  0  0  0  0  0  0
    0.2291   -3.8132   -1.9856 C   0  0  0  0  0  0  0  0  0  0  0  0
   -1.4517   -2.4865   -4.1658 C   0  0  0  0  0  0  0  0  0  0  0  0
   -2.7938   -0.3228    0.1766 C   0  0  0  0  0  0  0  0  0  0  0  0
   -3.6011   -1.4706    0.0496 C   0  0  0  0  0  0  0  0  0  0  0  0
   -4.7389   -1.6133    0.8550 C   0  0  0  0  0  0  0  0  0  0  0  0
   -5.0732   -0.6136    1.7856 C   0  0  0  0  0  0  0  0  0  0  0  0
   -4.2692    0.5296    1.9078 C   0  0  0  0  0  0  0  0  0  0  0  0
   -3.1264    0.6792    1.1061 C   0  0  0  0  0  0  0  0  0  0  0  0
   -2.2796    0.0887   -3.1794 H   0  0  0  0  0  0  0  0  0  0  0  0
    0.8992   -3.7585   -2.8693 H   0  0  0  0  0  0  0  0  0  0  0  0
   -0.4897   -4.6363   -2.1869 H   0  0  0  0  0  0  0  0  0  0  0  0
    0.8392   -4.0945   -1.1066 H   0  0  0  0  0  0  0  0  0  0  0  0
   -2.0459   -1.8522   -4.8492 H   0  0  0  0  0  0  0  0  0  0  0  0
   -1.9702   -3.4622   -4.0537 H   0  0  0  0  0  0  0  0  0  0  0  0
   -0.4785   -2.7035   -4.6553 H   0  0  0  0  0  0  0  0  0  0  0  0
   -3.3338   -2.2500   -0.6810 H   0  0  0  0  0  0  0  0  0  0  0  0
   -5.3709   -2.5092    0.7557 H   0  0  0  0  0  0  0  0  0  0  0  0
   -5.9686   -0.7274    2.4157 H   0  0  0  0  0  0  0  0  0  0  0  0
   -4.5314    1.3167    2.6309 H   0  0  0  0  0  0  0  0  0  0  0  0
   -2.4990    1.5814    1.1764 H   0  0  0  0  0  0  0  0  0  0  0  0
    0.4057   -1.7758    0.5994 C   0  0  0  0  0  0  0  0  0  0  0  0
    1.2530   -0.1554    0.8176 P   0  0  1  0  0  0  0  0  0  0  0  0
    1.6980   -0.5693    2.5215 C   0  0  0  0  0  0  0  0  0  0  0  0
    1.2485   -1.8237    2.8351 C   0  0  0  0  0  0  0  0  0  0  0  0
    0.4754   -2.5109    1.7542 C   0  0  0  0  0  0  0  0  0  0  0  0
   -0.2288   -3.8133    1.9856 C   0  0  0  0  0  0  0  0  0  0  0  0
   -0.8989   -3.7587    2.8693 H   0  0  0  0  0  0  0  0  0  0  0  0
    0.4901   -4.6364    2.1868 H   0  0  0  0  0  0  0  0  0  0  0  0
   -0.8390   -4.0946    1.1066 H   0  0  0  0  0  0  0  0  0  0  0  0
    1.4520   -2.4866    4.1658 C   0  0  0  0  0  0  0  0  0  0  0  0
    2.0461   -1.8522    4.8492 H   0  0  0  0  0  0  0  0  0  0  0  0
    1.9705   -3.4622    4.0536 H   0  0  0  0  0  0  0  0  0  0  0  0
    0.4787   -2.7036    4.6553 H   0  0  0  0  0  0  0  0  0  0  0  0
    2.2796    0.0888    3.1794 H   0  0  0  0  0  0  0  0  0  0  0  0
    2.7938   -0.3227   -0.1767 C   0  0  0  0  0  0  0  0  0  0  0  0
    3.6012   -1.4704   -0.0496 C   0  0  0  0  0  0  0  0  0  0  0  0
    4.7389   -1.6130   -0.8551 C   0  0  0  0  0  0  0  0  0  0  0  0
    5.0731   -0.6133   -1.7858 C   0  0  0  0  0  0  0  0  0  0  0  0
    4.2690    0.5298   -1.9080 C   0  0  0  0  0  0  0  0  0  0  0  0
    3.1262    0.6793   -1.1062 C   0  0  0  0  0  0  0  0  0  0  0  0
    2.4988    1.5814   -1.1765 H   0  0  0  0  0  0  0  0  0  0  0  0
    4.5311    1.3169   -2.6311 H   0  0  0  0  0  0  0  0  0  0  0  0
    5.9685   -0.7270   -2.4159 H   0  0  0  0  0  0  0  0  0  0  0  0
    5.3710   -2.5088   -0.7558 H   0  0  0  0  0  0  0  0  0  0  0  0
    3.3340   -2.2498    0.6811 H   0  0  0  0  0  0  0  0  0  0  0  0
  1  2  1  0  0  0  0
  1  8  1  1  0  0  0
  2 26  1  0  0  0  0
  3  2  2  0  0  0  0
  4  5  2  0  0  0  0
  4  3  1  0  0  0  0
  5  1  1  0  0  0  0
  6  3  1  0  0  0  0
  6 17  1  0  0  0  0
  7 19  1  0  0  0  0
  7  4  1  0  0  0  0
  8 13  1  0  0  0  0
  9  8  2  0  0  0  0
  9 10  1  0  0  0  0
 10 11  2  0  0  0  0
 11 12  1  0  0  0  0
 11 23  1  0  0  0  0
 12 24  1  0  0  0  0
 13 25  1  0  0  0  0
 13 12  2  0  0  0  0
 14  5  1  0  0  0  0
 15  6  1  0  0  0  0
 16  6  1  0  0  0  0
 18  7  1  0  0  0  0
 20  7  1  0  0  0  0
 21  9  1  0  0  0  0
 22 10  1  0  0  0  0
 26 27  1  0  0  0  0
 26 30  2  0  0  0  0
 27 40  1  6  0  0  0
 27 28  1  0  0  0  0
 28 29  2  0  0  0  0
 28 39  1  0  0  0  0
 29 35  1  0  0  0  0
 30 31  1  0  0  0  0
 30 29  1  0  0  0  0
 31 33  1  0  0  0  0
 31 32  1  0  0  0  0
 34 31  1  0  0  0  0
 35 38  1  0  0  0  0
 35 36  1  0  0  0  0
 37 35  1  0  0  0  0
 40 41  1  0  0  0  0
 41 50  1  0  0  0  0
 42 49  1  0  0  0  0
 42 41  2  0  0  0  0
 43 42  1  0  0  0  0
 44 43  2  0  0  0  0
 44 45  1  0  0  0  0
 45 40  2  0  0  0  0
 46 45  1  0  0  0  0
 47 44  1  0  0  0  0
 48 43  1  0  0  0  0
M  END
