1,2
 OpenBabel05122313063D

 62 66  0  0  0  0  0  0  0  0999 V2000
    0.3813   -1.7195    0.8835 P   0  0  0  0  0  0  0  0  0  0  0  0
   -1.5446    0.2264    0.9093 P   0  0  0  0  0  0  0  0  0  0  0  0
   -3.8737   -2.0006    2.0864 S   0  0  0  0  0  0  0  0  0  0  0  0
   -1.1946   -1.3649    1.5697 C   0  0  0  0  0  3  0  0  0  0  0  0
   -2.0818   -2.2596    2.3850 C   0  0  0  0  0  0  0  0  0  0  0  0
    1.7189   -2.0442    2.0848 C   0  0  0  0  0  0  0  0  0  0  0  0
    2.9449   -2.5893    1.6486 C   0  0  0  0  0  0  0  0  0  0  0  0
    4.0391   -2.6300    2.5232 C   0  0  0  0  0  0  0  0  0  0  0  0
    3.9092   -2.1498    3.8370 C   0  0  0  0  0  0  0  0  0  0  0  0
    2.6843   -1.6223    4.2767 C   0  0  0  0  0  0  0  0  0  0  0  0
    1.5928   -1.5577    3.3996 C   0  0  0  0  0  0  0  0  0  0  0  0
    0.4314   -3.1469   -0.2648 C   0  0  0  0  0  0  0  0  0  0  0  0
    0.3952   -2.9362   -1.6577 C   0  0  0  0  0  0  0  0  0  0  0  0
    0.3138   -4.0310   -2.5310 C   0  0  0  0  0  0  0  0  0  0  0  0
    0.2552   -5.3380   -2.0204 C   0  0  0  0  0  0  0  0  0  0  0  0
    0.2975   -5.5529   -0.6326 C   0  0  0  0  0  0  0  0  0  0  0  0
    0.3949   -4.4632    0.2452 C   0  0  0  0  0  0  0  0  0  0  0  0
   -2.9114    0.3816   -0.3007 C   0  0  0  0  0  0  0  0  0  0  0  0
   -2.7274   -0.1954   -1.5724 C   0  0  0  0  0  0  0  0  0  0  0  0
   -3.7379   -0.1060   -2.5381 C   0  0  0  0  0  0  0  0  0  0  0  0
   -4.9365    0.5601   -2.2395 C   0  0  0  0  0  0  0  0  0  0  0  0
   -5.1299    1.1217   -0.9673 C   0  0  0  0  0  0  0  0  0  0  0  0
   -4.1234    1.0312    0.0050 C   0  0  0  0  0  0  0  0  0  0  0  0
   -1.7794    1.5602    2.1339 C   0  0  0  0  0  0  0  0  0  0  0  0
   -1.5518    1.2986    3.4982 C   0  0  0  0  0  0  0  0  0  0  0  0
   -1.5709    2.3484    4.4280 C   0  0  0  0  0  0  0  0  0  0  0  0
   -1.7936    3.6658    3.9967 C   0  0  0  0  0  0  0  0  0  0  0  0
   -2.0143    3.9319    2.6350 C   0  0  0  0  0  0  0  0  0  0  0  0
   -2.0193    2.8839    1.7051 C   0  0  0  0  0  0  0  0  0  0  0  0
   -4.1248   -2.6084    0.4377 C   0  0  0  0  0  0  0  0  0  0  0  0
   -5.3797   -2.3344   -0.1495 C   0  0  0  0  0  0  0  0  0  0  0  0
   -5.6705   -2.8003   -1.4369 C   0  0  0  0  0  0  0  0  0  0  0  0
   -4.7176   -3.5347   -2.1630 C   0  0  0  0  0  0  0  0  0  0  0  0
   -3.4701   -3.8032   -1.5811 C   0  0  0  0  0  0  0  0  0  0  0  0
   -3.1695   -3.3475   -0.2882 C   0  0  0  0  0  0  0  0  0  0  0  0
   -2.0123   -2.0888    3.4836 H   0  0  0  0  0  0  0  0  0  0  0  0
   -1.8365   -3.3338    2.2302 H   0  0  0  0  0  0  0  0  0  0  0  0
    3.0483   -2.9556    0.6157 H   0  0  0  0  0  0  0  0  0  0  0  0
    5.0028   -3.0310    2.1749 H   0  0  0  0  0  0  0  0  0  0  0  0
    4.7715   -2.1802    4.5200 H   0  0  0  0  0  0  0  0  0  0  0  0
    2.5842   -1.2436    5.3052 H   0  0  0  0  0  0  0  0  0  0  0  0
    0.6395   -1.1054    3.7142 H   0  0  0  0  0  0  0  0  0  0  0  0
    0.4542   -1.9140   -2.0620 H   0  0  0  0  0  0  0  0  0  0  0  0
    0.3007   -3.8594   -3.6179 H   0  0  0  0  0  0  0  0  0  0  0  0
    0.1857   -6.1952   -2.7071 H   0  0  0  0  0  0  0  0  0  0  0  0
    0.2606   -6.5769   -0.2311 H   0  0  0  0  0  0  0  0  0  0  0  0
    0.4519   -4.6351    1.3316 H   0  0  0  0  0  0  0  0  0  0  0  0
   -1.7863   -0.7166   -1.8037 H   0  0  0  0  0  0  0  0  0  0  0  0
   -3.5867   -0.5597   -3.5283 H   0  0  0  0  0  0  0  0  0  0  0  0
   -5.7285    0.6344   -3.0000 H   0  0  0  0  0  0  0  0  0  0  0  0
   -6.0744    1.6332   -0.7268 H   0  0  0  0  0  0  0  0  0  0  0  0
   -4.2821    1.4588    1.0056 H   0  0  0  0  0  0  0  0  0  0  0  0
   -1.3469    0.2668    3.8216 H   0  0  0  0  0  0  0  0  0  0  0  0
   -1.3990    2.1382    5.4944 H   0  0  0  0  0  0  0  0  0  0  0  0
   -1.7887    4.4914    4.7241 H   0  0  0  0  0  0  0  0  0  0  0  0
   -2.1713    4.9655    2.2915 H   0  0  0  0  0  0  0  0  0  0  0  0
   -2.1836    3.0962    0.6382 H   0  0  0  0  0  0  0  0  0  0  0  0
   -6.1234   -1.7427    0.4056 H   0  0  0  0  0  0  0  0  0  0  0  0
   -6.6515   -2.5750   -1.8823 H   0  0  0  0  0  0  0  0  0  0  0  0
   -4.9475   -3.8930   -3.1775 H   0  0  0  0  0  0  0  0  0  0  0  0
   -2.7062   -4.3720   -2.1325 H   0  0  0  0  0  0  0  0  0  0  0  0
   -2.1843   -3.5678    0.1383 H   0  0  0  0  0  0  0  0  0  0  0  0
  1  4  1  0  0  0  0
  1  6  1  0  0  0  0
  2  4  1  0  0  0  0
  2 24  1  0  0  0  0
  3  5  1  0  0  0  0
  4  5  1  0  0  0  0
  5 36  1  0  0  0  0
  6 11  1  0  0  0  0
  7  6  2  0  0  0  0
  7  8  1  0  0  0  0
  8  9  2  0  0  0  0
  9 10  1  0  0  0  0
  9 40  1  0  0  0  0
 10 41  1  0  0  0  0
 11 42  1  0  0  0  0
 11 10  2  0  0  0  0
 12 17  1  0  0  0  0
 12  1  1  0  0  0  0
 13 12  2  0  0  0  0
 14 15  2  0  0  0  0
 14 13  1  0  0  0  0
 15 16  1  0  0  0  0
 16 46  1  0  0  0  0
 16 17  2  0  0  0  0
 17 47  1  0  0  0  0
 18 23  1  0  0  0  0
 18  2  1  0  0  0  0
 19 18  2  0  0  0  0
 20 21  2  0  0  0  0
 20 19  1  0  0  0  0
 21 22  1  0  0  0  0
 22 51  1  0  0  0  0
 22 23  2  0  0  0  0
 23 52  1  0  0  0  0
 24 25  1  0  0  0  0
 25 53  1  0  0  0  0
 25 26  2  0  0  0  0
 26 54  1  0  0  0  0
 27 26  1  0  0  0  0
 27 55  1  0  0  0  0
 28 27  2  0  0  0  0
 29 24  2  0  0  0  0
 29 28  1  0  0  0  0
 30  3  1  0  0  0  0
 31 58  1  0  0  0  0
 31 30  1  0  0  0  0
 32 31  2  0  0  0  0
 33 34  2  0  0  0  0
 33 32  1  0  0  0  0
 34 35  1  0  0  0  0
 35 62  1  0  0  0  0
 35 30  2  0  0  0  0
 37  5  1  0  0  0  0
 38  7  1  0  0  0  0
 39  8  1  0  0  0  0
 43 13  1  0  0  0  0
 44 14  1  0  0  0  0
 45 15  1  0  0  0  0
 48 19  1  0  0  0  0
 49 20  1  0  0  0  0
 50 21  1  0  0  0  0
 56 28  1  0  0  0  0
 57 29  1  0  0  0  0
 59 32  1  0  0  0  0
 60 33  1  0  0  0  0
 61 34  1  0  0  0  0
M  END
