1,2
 OpenBabel05122313063D

 69 72  0  0  0  0  0  0  0  0999 V2000
   -1.6797    0.0532    0.0404 P   0  0  0  0  0  0  0  0  0  0  0  0
    1.6813    0.1253    0.1544 P   0  0  0  0  0  0  0  0  0  0  0  0
   -0.0701   -2.7097    3.4497 N   0  0  0  0  0  0  0  0  0  0  0  0
   -1.3156   -0.6460    1.7344 C   0  0  0  0  0  0  0  0  0  0  0  0
    1.2667   -0.6981    1.7710 C   0  0  0  0  0  0  0  0  0  0  0  0
   -0.0654   -1.2891    3.7767 C   0  0  0  0  0  0  0  0  0  0  0  0
   -0.0274   -0.3337    2.5330 C   0  0  0  0  0  0  0  0  0  0  0  0
    0.0063    1.1015    3.0772 C   0  0  0  0  0  0  0  0  0  0  0  0
   -2.3112    2.6349   -0.8318 C   0  0  0  0  0  0  0  0  0  0  0  0
   -2.7622    3.9577   -0.7155 C   0  0  0  0  0  0  0  0  0  0  0  0
   -3.1697    4.4543    0.5333 C   0  0  0  0  0  0  0  0  0  0  0  0
   -3.1464    3.6132    1.6568 C   0  0  0  0  0  0  0  0  0  0  0  0
   -2.7055    2.2861    1.5373 C   0  0  0  0  0  0  0  0  0  0  0  0
   -2.2630    1.7894    0.2953 C   0  0  0  0  0  0  0  0  0  0  0  0
   -4.5306   -0.1541   -0.2580 C   0  0  0  0  0  0  0  0  0  0  0  0
   -5.7193   -0.8630   -0.4967 C   0  0  0  0  0  0  0  0  0  0  0  0
   -5.6863   -2.2464   -0.7229 C   0  0  0  0  0  0  0  0  0  0  0  0
   -4.4544   -2.9209   -0.7175 C   0  0  0  0  0  0  0  0  0  0  0  0
   -3.2649   -2.2154   -0.4917 C   0  0  0  0  0  0  0  0  0  0  0  0
   -3.2917   -0.8246   -0.2515 C   0  0  0  0  0  0  0  0  0  0  0  0
    1.2052    2.9093    0.2546 C   0  0  0  0  0  0  0  0  0  0  0  0
    1.4265    4.2202    0.7044 C   0  0  0  0  0  0  0  0  0  0  0  0
    2.5090    4.4978    1.5526 C   0  0  0  0  0  0  0  0  0  0  0  0
    3.3729    3.4612    1.9467 C   0  0  0  0  0  0  0  0  0  0  0  0
    3.1495    2.1507    1.5018 C   0  0  0  0  0  0  0  0  0  0  0  0
    2.0573    1.8645    0.6559 C   0  0  0  0  0  0  0  0  0  0  0  0
    4.2195    0.1977   -1.0279 C   0  0  0  0  0  0  0  0  0  0  0  0
    5.4636   -0.3180   -1.4120 C   0  0  0  0  0  0  0  0  0  0  0  0
    5.8722   -1.5852   -0.9640 C   0  0  0  0  0  0  0  0  0  0  0  0
    5.0255   -2.3337   -0.1336 C   0  0  0  0  0  0  0  0  0  0  0  0
    3.7779   -1.8196    0.2554 C   0  0  0  0  0  0  0  0  0  0  0  0
    3.3672   -0.5449   -0.1827 C   0  0  0  0  0  0  0  0  0  0  0  0
   -1.2867   -3.4154    3.8132 C   0  0  0  0  0  0  0  0  0  0  0  0
    1.1254   -3.4308    3.8486 C   0  0  0  0  0  0  0  0  0  0  0  0
   -2.2026   -0.4506    2.3743 H   0  0  0  0  0  0  0  0  0  0  0  0
   -1.3143   -1.7389    1.5355 H   0  0  0  0  0  0  0  0  0  0  0  0
    2.1349   -0.5450    2.4476 H   0  0  0  0  0  0  0  0  0  0  0  0
    1.2097   -1.7814    1.5365 H   0  0  0  0  0  0  0  0  0  0  0  0
    0.8090   -1.0387    4.4200 H   0  0  0  0  0  0  0  0  0  0  0  0
   -0.9661   -1.0254    4.3763 H   0  0  0  0  0  0  0  0  0  0  0  0
   -0.0771    1.8619    2.2816 H   0  0  0  0  0  0  0  0  0  0  0  0
   -0.8263    1.2660    3.7921 H   0  0  0  0  0  0  0  0  0  0  0  0
    0.9566    1.2923    3.6162 H   0  0  0  0  0  0  0  0  0  0  0  0
   -1.9884    2.2453   -1.8086 H   0  0  0  0  0  0  0  0  0  0  0  0
   -2.7897    4.6035   -1.6062 H   0  0  0  0  0  0  0  0  0  0  0  0
   -3.5126    5.4956    0.6299 H   0  0  0  0  0  0  0  0  0  0  0  0
   -3.4762    3.9912    2.6366 H   0  0  0  0  0  0  0  0  0  0  0  0
   -2.7113    1.6382    2.4242 H   0  0  0  0  0  0  0  0  0  0  0  0
   -4.5719    0.9302   -0.0813 H   0  0  0  0  0  0  0  0  0  0  0  0
   -6.6791   -0.3240   -0.5062 H   0  0  0  0  0  0  0  0  0  0  0  0
   -6.6190   -2.7993   -0.9115 H   0  0  0  0  0  0  0  0  0  0  0  0
   -4.4154   -4.0048   -0.9045 H   0  0  0  0  0  0  0  0  0  0  0  0
   -2.3058   -2.7530   -0.5194 H   0  0  0  0  0  0  0  0  0  0  0  0
    0.3493    2.6899   -0.3973 H   0  0  0  0  0  0  0  0  0  0  0  0
    0.7447    5.0240    0.3880 H   0  0  0  0  0  0  0  0  0  0  0  0
    2.6859    5.5255    1.9051 H   0  0  0  0  0  0  0  0  0  0  0  0
    4.2284    3.6766    2.6052 H   0  0  0  0  0  0  0  0  0  0  0  0
    3.8339    1.3435    1.8070 H   0  0  0  0  0  0  0  0  0  0  0  0
    3.8989    1.1859   -1.3932 H   0  0  0  0  0  0  0  0  0  0  0  0
    6.1167    0.2718   -2.0729 H   0  0  0  0  0  0  0  0  0  0  0  0
    6.8477   -1.9920   -1.2701 H   0  0  0  0  0  0  0  0  0  0  0  0
    5.3334   -3.3315    0.2145 H   0  0  0  0  0  0  0  0  0  0  0  0
    3.1224   -2.4316    0.8915 H   0  0  0  0  0  0  0  0  0  0  0  0
   -1.2724   -4.4372    3.3816 H   0  0  0  0  0  0  0  0  0  0  0  0
   -1.4289   -3.5177    4.9223 H   0  0  0  0  0  0  0  0  0  0  0  0
   -2.1753   -2.8970    3.4028 H   0  0  0  0  0  0  0  0  0  0  0  0
    1.1160   -4.4495    3.4093 H   0  0  0  0  0  0  0  0  0  0  0  0
    1.2298   -3.5419    4.9612 H   0  0  0  0  0  0  0  0  0  0  0  0
    2.0333   -2.9173    3.4754 H   0  0  0  0  0  0  0  0  0  0  0  0
  1 14  1  0  0  0  0
  1  4  1  0  0  0  0
  2 26  1  0  0  0  0
  2  5  1  0  0  0  0
  3  6  1  0  0  0  0
  3 33  1  0  0  0  0
  3 34  1  0  0  0  0
  4 35  1  0  0  0  0
  4  7  1  0  0  0  0
  5 37  1  0  0  0  0
  5  7  1  0  0  0  0
  6 40  1  0  0  0  0
  6 39  1  0  0  0  0
  7  8  1  0  0  0  0
  7  6  1  0  0  0  0
  8 43  1  0  0  0  0
  8 42  1  0  0  0  0
  9 10  2  0  0  0  0
  9 14  1  0  0  0  0
 10 11  1  0  0  0  0
 11 46  1  0  0  0  0
 11 12  2  0  0  0  0
 12 47  1  0  0  0  0
 13 12  1  0  0  0  0
 13 48  1  0  0  0  0
 14 13  2  0  0  0  0
 15 20  1  0  0  0  0
 15 49  1  0  0  0  0
 16 15  2  0  0  0  0
 17 18  2  0  0  0  0
 17 16  1  0  0  0  0
 18 19  1  0  0  0  0
 19 20  2  0  0  0  0
 20  1  1  0  0  0  0
 21 26  2  0  0  0  0
 21 22  1  0  0  0  0
 22 23  2  0  0  0  0
 23 56  1  0  0  0  0
 23 24  1  0  0  0  0
 24 57  1  0  0  0  0
 25 58  1  0  0  0  0
 25 24  2  0  0  0  0
 26 25  1  0  0  0  0
 27 32  1  0  0  0  0
 28 27  2  0  0  0  0
 28 29  1  0  0  0  0
 29 30  2  0  0  0  0
 30 62  1  0  0  0  0
 30 31  1  0  0  0  0
 31 63  1  0  0  0  0
 32  2  1  0  0  0  0
 32 31  2  0  0  0  0
 33 65  1  0  0  0  0
 34 68  1  0  0  0  0
 36  4  1  0  0  0  0
 38  5  1  0  0  0  0
 41  8  1  0  0  0  0
 44  9  1  0  0  0  0
 45 10  1  0  0  0  0
 50 16  1  0  0  0  0
 51 17  1  0  0  0  0
 52 18  1  0  0  0  0
 53 19  1  0  0  0  0
 54 21  1  0  0  0  0
 55 22  1  0  0  0  0
 59 27  1  0  0  0  0
 60 28  1  0  0  0  0
 61 29  1  0  0  0  0
 64 33  1  0  0  0  0
 66 33  1  0  0  0  0
 67 34  1  0  0  0  0
 69 34  1  0  0  0  0
M  END
