1,2
 OpenBabel05122313063D

 57 61  0  0  1  0  0  0  0  0999 V2000
    1.5254    0.0531   -0.3361 P   0  0  1  0  0  0  0  0  0  0  0  0
   -1.4436   -0.2440    0.0313 P   0  0  0  0  0  0  0  0  0  0  0  0
    4.1203    1.0934   -0.3230 C   0  0  0  0  0  0  0  0  0  0  0  0
    5.4353    1.1952    0.1523 C   0  0  0  0  0  0  0  0  0  0  0  0
    5.8637    0.4022    1.2290 C   0  0  0  0  0  0  0  0  0  0  0  0
    4.9728   -0.4955    1.8383 C   0  0  0  0  0  0  0  0  0  0  0  0
    3.6576   -0.6094    1.3649 C   0  0  0  0  0  0  0  0  0  0  0  0
    3.2324    0.1753    0.2747 C   0  0  0  0  0  0  0  0  0  0  0  0
    1.5684   -0.6228   -2.0969 C   0  0  1  0  0  0  0  0  0  0  0  0
    2.3448   -1.9155   -1.9036 C   0  0  0  0  0  0  0  0  0  0  0  0
    1.9235   -2.5470   -0.7711 C   0  0  0  0  0  0  0  0  0  0  0  0
    0.8914   -1.7000   -0.0448 C   0  0  2  0  0  0  0  0  0  0  0  0
   -0.4208   -1.5277   -0.8858 C   0  0  2  0  0  0  0  0  0  0  0  0
    0.0618   -1.0251   -2.3067 C   0  0  1  0  0  0  0  0  0  0  0  0
    3.3541   -2.3612   -2.9097 C   0  0  0  0  0  0  0  0  0  0  0  0
    2.3459   -3.8709   -0.2212 C   0  0  0  0  0  0  0  0  0  0  0  0
   -0.7596    0.0428   -3.0307 C   0  0  0  0  0  0  0  0  0  0  0  0
   -1.8827   -2.3906    1.8771 C   0  0  0  0  0  0  0  0  0  0  0  0
   -2.2232   -2.8916    3.1427 C   0  0  0  0  0  0  0  0  0  0  0  0
   -2.5272   -2.0082    4.1909 C   0  0  0  0  0  0  0  0  0  0  0  0
   -2.4883   -0.6215    3.9727 C   0  0  0  0  0  0  0  0  0  0  0  0
   -2.1410   -0.1106    2.7137 C   0  0  0  0  0  0  0  0  0  0  0  0
   -1.8385   -0.9979    1.6586 C   0  0  0  0  0  0  0  0  0  0  0  0
   -3.7767   -1.3588   -1.0707 C   0  0  0  0  0  0  0  0  0  0  0  0
   -5.0011   -1.3175   -1.7521 C   0  0  0  0  0  0  0  0  0  0  0  0
   -5.5228   -0.0866   -2.1846 C   0  0  0  0  0  0  0  0  0  0  0  0
   -4.8213    1.1013   -1.9269 C   0  0  0  0  0  0  0  0  0  0  0  0
   -3.5925    1.0696   -1.2498 C   0  0  0  0  0  0  0  0  0  0  0  0
   -3.0643   -0.1654   -0.8284 C   0  0  0  0  0  0  0  0  0  0  0  0
    3.7701    1.7457   -1.1353 H   0  0  0  0  0  0  0  0  0  0  0  0
    6.1270    1.9123   -0.3148 H   0  0  0  0  0  0  0  0  0  0  0  0
    6.8952    0.4917    1.6023 H   0  0  0  0  0  0  0  0  0  0  0  0
    5.3014   -1.1101    2.6899 H   0  0  0  0  0  0  0  0  0  0  0  0
    2.9607   -1.3079    1.8519 H   0  0  0  0  0  0  0  0  0  0  0  0
    1.9554    0.0634   -2.8713 H   0  0  0  0  0  0  0  0  0  0  0  0
    0.6999   -1.9843    1.0059 H   0  0  0  0  0  0  0  0  0  0  0  0
   -0.9777   -2.4816   -0.9680 H   0  0  0  0  0  0  0  0  0  0  0  0
    0.0798   -1.9252   -2.9563 H   0  0  0  0  0  0  0  0  0  0  0  0
    3.7975   -3.3429   -2.6563 H   0  0  0  0  0  0  0  0  0  0  0  0
    4.1802   -1.6206   -2.9811 H   0  0  0  0  0  0  0  0  0  0  0  0
    2.9100   -2.4362   -3.9261 H   0  0  0  0  0  0  0  0  0  0  0  0
    3.0880   -4.3765   -0.8679 H   0  0  0  0  0  0  0  0  0  0  0  0
    1.4774   -4.5541   -0.0988 H   0  0  0  0  0  0  0  0  0  0  0  0
    2.7986   -3.7556    0.7879 H   0  0  0  0  0  0  0  0  0  0  0  0
   -1.7988   -0.2903   -3.2126 H   0  0  0  0  0  0  0  0  0  0  0  0
   -0.2946    0.2569   -4.0139 H   0  0  0  0  0  0  0  0  0  0  0  0
   -0.7974    0.9971   -2.4655 H   0  0  0  0  0  0  0  0  0  0  0  0
   -1.6471   -3.0956    1.0651 H   0  0  0  0  0  0  0  0  0  0  0  0
   -2.2514   -3.9792    3.3099 H   0  0  0  0  0  0  0  0  0  0  0  0
   -2.7931   -2.4039    5.1829 H   0  0  0  0  0  0  0  0  0  0  0  0
   -2.7240    0.0741    4.7922 H   0  0  0  0  0  0  0  0  0  0  0  0
   -2.1038    0.9778    2.5295 H   0  0  0  0  0  0  0  0  0  0  0  0
   -3.3841   -2.3262   -0.7212 H   0  0  0  0  0  0  0  0  0  0  0  0
   -5.5529   -2.2507   -1.9416 H   0  0  0  0  0  0  0  0  0  0  0  0
   -6.4850   -0.0553   -2.7182 H   0  0  0  0  0  0  0  0  0  0  0  0
   -5.2334    2.0684   -2.2527 H   0  0  0  0  0  0  0  0  0  0  0  0
   -3.0453    1.9971   -1.0148 H   0  0  0  0  0  0  0  0  0  0  0  0
  1 12  1  0  0  0  0
  1  8  1  1  0  0  0
  2 23  1  0  0  0  0
  3  4  2  0  0  0  0
  3  8  1  0  0  0  0
  4  5  1  0  0  0  0
  5 32  1  0  0  0  0
  5  6  2  0  0  0  0
  6 33  1  0  0  0  0
  7  6  1  0  0  0  0
  7 34  1  0  0  0  0
  8  7  2  0  0  0  0
  9 35  1  6  0  0  0
  9 10  1  0  0  0  0
  9  1  1  0  0  0  0
 10 11  2  0  0  0  0
 11 16  1  0  0  0  0
 11 12  1  0  0  0  0
 12 36  1  1  0  0  0
 13 37  1  6  0  0  0
 13 12  1  0  0  0  0
 13  2  1  0  0  0  0
 14 38  1  6  0  0  0
 14  9  1  0  0  0  0
 14 13  1  0  0  0  0
 15 39  1  0  0  0  0
 15 10  1  0  0  0  0
 16 43  1  0  0  0  0
 16 44  1  0  0  0  0
 17 47  1  0  0  0  0
 17 14  1  0  0  0  0
 18 19  1  0  0  0  0
 19 49  1  0  0  0  0
 19 20  2  0  0  0  0
 20 50  1  0  0  0  0
 21 20  1  0  0  0  0
 21 51  1  0  0  0  0
 22 21  2  0  0  0  0
 23 18  2  0  0  0  0
 23 22  1  0  0  0  0
 24 29  1  0  0  0  0
 24 53  1  0  0  0  0
 25 24  2  0  0  0  0
 26 27  2  0  0  0  0
 26 25  1  0  0  0  0
 27 28  1  0  0  0  0
 28 57  1  0  0  0  0
 28 29  2  0  0  0  0
 29  2  1  0  0  0  0
 30  3  1  0  0  0  0
 31  4  1  0  0  0  0
 40 15  1  0  0  0  0
 41 15  1  0  0  0  0
 42 16  1  0  0  0  0
 45 17  1  0  0  0  0
 46 17  1  0  0  0  0
 48 18  1  0  0  0  0
 52 22  1  0  0  0  0
 54 25  1  0  0  0  0
 55 26  1  0  0  0  0
 56 27  1  0  0  0  0
M  END
