1,2
 OpenBabel05122313063D

 72 76  0  0  0  0  0  0  0  0999 V2000
   -1.1620    0.9874   -0.3460 P   0  0  0  0  0  0  0  0  0  0  0  0
    1.8283   -0.0562    0.3547 P   0  0  0  0  0  0  0  0  0  0  0  0
    0.1380   -3.3165    0.5275 O   0  0  0  0  0  0  0  0  0  0  0  0
   -2.5565   -2.2733    2.6505 N   0  0  0  0  0  0  0  0  0  0  0  0
   -3.0321   -3.2705    1.8745 N   0  0  0  0  0  0  0  0  0  0  0  0
   -1.7883    0.0582   -2.9259 C   0  0  0  0  0  0  0  0  0  0  0  0
   -0.9133    0.6552   -3.2257 H   0  0  0  0  0  0  0  0  0  0  0  0
   -2.5218   -0.6684   -3.8747 C   0  0  0  0  0  0  0  0  0  0  0  0
   -2.2004   -0.6608   -4.9273 H   0  0  0  0  0  0  0  0  0  0  0  0
   -3.6555   -1.4005   -3.4885 C   0  0  0  0  0  0  0  0  0  0  0  0
   -4.2261   -1.9735   -4.2353 H   0  0  0  0  0  0  0  0  0  0  0  0
   -4.0583   -1.4002   -2.1445 C   0  0  0  0  0  0  0  0  0  0  0  0
   -4.9427   -1.9734   -1.8275 H   0  0  0  0  0  0  0  0  0  0  0  0
   -3.3287   -0.6760   -1.1895 C   0  0  0  0  0  0  0  0  0  0  0  0
   -3.6627   -0.7112   -0.1423 H   0  0  0  0  0  0  0  0  0  0  0  0
   -2.1869    0.0621   -1.5727 C   0  0  0  0  0  0  0  0  0  0  0  0
   -3.4943    2.5911    0.0172 C   0  0  0  0  0  0  0  0  0  0  0  0
   -4.0722    1.7626   -0.4188 H   0  0  0  0  0  0  0  0  0  0  0  0
   -4.1572    3.7443    0.4683 C   0  0  0  0  0  0  0  0  0  0  0  0
   -5.2531    3.8084    0.3879 H   0  0  0  0  0  0  0  0  0  0  0  0
   -3.4267    4.8122    1.0108 C   0  0  0  0  0  0  0  0  0  0  0  0
   -3.9488    5.7158    1.3605 H   0  0  0  0  0  0  0  0  0  0  0  0
   -2.0261    4.7327    1.0925 C   0  0  0  0  0  0  0  0  0  0  0  0
   -1.4469    5.5759    1.4984 H   0  0  0  0  0  0  0  0  0  0  0  0
   -1.3591    3.5893    0.6344 C   0  0  0  0  0  0  0  0  0  0  0  0
   -0.2593    3.5356    0.6503 H   0  0  0  0  0  0  0  0  0  0  0  0
   -2.0934    2.5087    0.1051 C   0  0  0  0  0  0  0  0  0  0  0  0
    2.8832    1.6172    2.3416 C   0  0  0  0  0  0  0  0  0  0  0  0
    1.8316    1.8594    2.5656 H   0  0  0  0  0  0  0  0  0  0  0  0
    3.9029    2.2537    3.0634 C   0  0  0  0  0  0  0  0  0  0  0  0
    3.6445    2.9712    3.8568 H   0  0  0  0  0  0  0  0  0  0  0  0
    5.2478    1.9830    2.7657 C   0  0  0  0  0  0  0  0  0  0  0  0
    6.0492    2.4827    3.3306 H   0  0  0  0  0  0  0  0  0  0  0  0
    5.5663    1.0844    1.7354 C   0  0  0  0  0  0  0  0  0  0  0  0
    6.6189    0.8825    1.4852 H   0  0  0  0  0  0  0  0  0  0  0  0
    4.5493    0.4506    1.0073 C   0  0  0  0  0  0  0  0  0  0  0  0
    4.8018   -0.2295    0.1818 H   0  0  0  0  0  0  0  0  0  0  0  0
    3.1993    0.6982    1.3205 C   0  0  0  0  0  0  0  0  0  0  0  0
    2.4207   -1.5669   -1.9414 C   0  0  0  0  0  0  0  0  0  0  0  0
    1.9393   -0.7360   -2.4775 H   0  0  0  0  0  0  0  0  0  0  0  0
    2.9365   -2.6691   -2.6393 C   0  0  0  0  0  0  0  0  0  0  0  0
    2.8287   -2.7178   -3.7334 H   0  0  0  0  0  0  0  0  0  0  0  0
    3.5964   -3.6969   -1.9478 C   0  0  0  0  0  0  0  0  0  0  0  0
    4.0056   -4.5585   -2.4973 H   0  0  0  0  0  0  0  0  0  0  0  0
    3.7382   -3.6224   -0.5523 C   0  0  0  0  0  0  0  0  0  0  0  0
    4.2585   -4.4231   -0.0051 H   0  0  0  0  0  0  0  0  0  0  0  0
    3.2167   -2.5263    0.1494 C   0  0  0  0  0  0  0  0  0  0  0  0
    3.3366   -2.4778    1.2426 H   0  0  0  0  0  0  0  0  0  0  0  0
    2.5564   -1.4913   -0.5418 C   0  0  0  0  0  0  0  0  0  0  0  0
    0.8727   -0.8616    1.7478 C   0  0  0  0  0  0  0  0  0  0  0  0
    1.4427   -1.7648    2.0421 H   0  0  0  0  0  0  0  0  0  0  0  0
    0.9063   -0.1579    2.6039 H   0  0  0  0  0  0  0  0  0  0  0  0
   -1.4185    0.0383    1.2301 C   0  0  0  0  0  0  0  0  0  0  0  0
   -1.1847    0.7649    2.0367 H   0  0  0  0  0  0  0  0  0  0  0  0
   -2.5034   -0.1670    1.3177 H   0  0  0  0  0  0  0  0  0  0  0  0
   -0.5899   -1.2395    1.4437 C   0  0  0  0  0  0  0  0  0  0  0  0
   -1.1315   -1.9957    2.6957 C   0  0  0  0  0  0  0  0  0  0  0  0
   -0.5964   -2.9610    2.7737 H   0  0  0  0  0  0  0  0  0  0  0  0
   -0.9378   -1.3975    3.6079 H   0  0  0  0  0  0  0  0  0  0  0  0
   -4.3671   -3.1770    1.9682 C   0  0  0  0  0  0  0  0  0  0  0  0
   -4.9996   -3.8964    1.4324 H   0  0  0  0  0  0  0  0  0  0  0  0
   -4.7612   -2.1045    2.8100 C   0  0  0  0  0  0  0  0  0  0  0  0
   -5.7731   -1.7935    3.0893 H   0  0  0  0  0  0  0  0  0  0  0  0
   -3.5590   -1.5413    3.2312 C   0  0  0  0  0  0  0  0  0  0  0  0
   -3.3402   -0.6982    3.8961 H   0  0  0  0  0  0  0  0  0  0  0  0
   -0.6449   -2.1842    0.2310 C   0  0  0  0  0  0  0  0  0  0  0  0
   -1.6973   -2.4753    0.0154 H   0  0  0  0  0  0  0  0  0  0  0  0
   -0.2546   -1.6569   -0.6765 H   0  0  0  0  0  0  0  0  0  0  0  0
    0.0838   -4.2984   -0.4846 C   0  0  0  0  0  0  0  0  0  0  0  0
   -0.9526   -4.6885   -0.6171 H   0  0  0  0  0  0  0  0  0  0  0  0
    0.7476   -5.1292   -0.1778 H   0  0  0  0  0  0  0  0  0  0  0  0
    0.4452   -3.9000   -1.4612 H   0  0  0  0  0  0  0  0  0  0  0  0
  1 27  1  0  0  0  0
  1 53  1  0  0  0  0
  2 38  1  0  0  0  0
  2 50  1  0  0  0  0
  4 57  1  0  0  0  0
  4 64  1  0  0  0  0
  5 60  2  0  0  0  0
  5  4  1  0  0  0  0
  6 16  1  0  0  0  0
  7  6  1  0  0  0  0
  8 10  1  0  0  0  0
  8  6  2  0  0  0  0
  9  8  1  0  0  0  0
 10 12  2  0  0  0  0
 11 10  1  0  0  0  0
 12 13  1  0  0  0  0
 12 14  1  0  0  0  0
 14 15  1  0  0  0  0
 16 14  2  0  0  0  0
 16  1  1  0  0  0  0
 17 27  2  0  0  0  0
 17 19  1  0  0  0  0
 18 17  1  0  0  0  0
 19 21  2  0  0  0  0
 20 19  1  0  0  0  0
 21 23  1  0  0  0  0
 21 22  1  0  0  0  0
 23 24  1  0  0  0  0
 25 26  1  0  0  0  0
 25 23  2  0  0  0  0
 27 25  1  0  0  0  0
 28 29  1  0  0  0  0
 28 30  1  0  0  0  0
 30 31  1  0  0  0  0
 32 30  2  0  0  0  0
 32 33  1  0  0  0  0
 34 32  1  0  0  0  0
 35 34  1  0  0  0  0
 36 38  1  0  0  0  0
 36 34  2  0  0  0  0
 37 36  1  0  0  0  0
 38 28  2  0  0  0  0
 39 49  1  0  0  0  0
 40 39  1  0  0  0  0
 41 43  1  0  0  0  0
 41 39  2  0  0  0  0
 42 41  1  0  0  0  0
 43 45  2  0  0  0  0
 44 43  1  0  0  0  0
 45 46  1  0  0  0  0
 45 47  1  0  0  0  0
 47 48  1  0  0  0  0
 49 47  2  0  0  0  0
 49  2  1  0  0  0  0
 50 51  1  0  0  0  0
 50 52  1  0  0  0  0
 53 55  1  0  0  0  0
 53 56  1  0  0  0  0
 53 54  1  0  0  0  0
 56 50  1  0  0  0  0
 56 57  1  0  0  0  0
 57 58  1  0  0  0  0
 57 59  1  0  0  0  0
 60 62  1  0  0  0  0
 61 60  1  0  0  0  0
 62 63  1  0  0  0  0
 62 64  2  0  0  0  0
 64 65  1  0  0  0  0
 66  3  1  0  0  0  0
 66 56  1  0  0  0  0
 67 66  1  0  0  0  0
 68 66  1  0  0  0  0
 69 71  1  0  0  0  0
 69  3  1  0  0  0  0
 70 69  1  0  0  0  0
 72 69  1  0  0  0  0
M  END
