1,2
 OpenBabel05122313063D

 70 75  0  0  1  0  0  0  0  0999 V2000
    1.6963    0.0256    0.4917 P   0  0  0  0  0  0  0  0  0  0  0  0
   -1.6363    0.3174    0.1121 P   0  0  0  0  0  0  0  0  0  0  0  0
   -0.3884   -2.7148    0.3768 O   0  0  0  0  0  0  0  0  0  0  0  0
    0.6866   -2.9507    1.3001 C   0  0  0  0  0  0  0  0  0  0  0  0
    0.5388   -1.8677    2.3996 C   0  0  1  0  0  0  0  0  0  0  0  0
    1.5609   -0.7337    2.2110 C   0  0  0  0  0  0  0  0  0  0  0  0
   -1.5126   -2.5016    1.2449 C   0  0  0  0  0  0  0  0  0  0  0  0
   -1.0235   -1.4857    2.3087 C   0  0  2  0  0  0  0  0  0  0  0  0
   -1.3714   -0.0189    1.9411 C   0  0  0  0  0  0  0  0  0  0  0  0
    0.7103   -2.4735    3.8199 C   0  0  0  0  0  0  0  0  0  0  0  0
   -0.6817   -2.9502    4.2444 C   0  0  0  0  0  0  0  0  0  0  0  0
   -1.5844   -1.8360    3.7095 C   0  0  0  0  0  0  0  0  0  0  0  0
    1.6567    1.8583    0.8287 C   0  0  0  0  0  0  0  0  0  0  0  0
    1.8230    2.4396    2.1010 C   0  0  0  0  0  0  0  0  0  0  0  0
    1.8637    3.8356    2.2506 C   0  0  0  0  0  0  0  0  0  0  0  0
    1.7532    4.6680    1.1282 C   0  0  0  0  0  0  0  0  0  0  0  0
    1.5982    4.0966   -0.1444 C   0  0  0  0  0  0  0  0  0  0  0  0
    1.5465    2.7048   -0.2952 C   0  0  0  0  0  0  0  0  0  0  0  0
    3.5131   -0.1012    0.1160 C   0  0  0  0  0  0  0  0  0  0  0  0
    4.5026   -0.0555    1.1196 C   0  0  0  0  0  0  0  0  0  0  0  0
    5.8624   -0.0921    0.7781 C   0  0  0  0  0  0  0  0  0  0  0  0
    6.2488   -0.1559   -0.5705 C   0  0  0  0  0  0  0  0  0  0  0  0
    5.2692   -0.1744   -1.5745 C   0  0  0  0  0  0  0  0  0  0  0  0
    3.9081   -0.1472   -1.2348 C   0  0  0  0  0  0  0  0  0  0  0  0
   -1.6449    2.1583   -0.0054 C   0  0  0  0  0  0  0  0  0  0  0  0
   -1.7263    2.6968   -1.3070 C   0  0  0  0  0  0  0  0  0  0  0  0
   -1.8000    4.0831   -1.4942 C   0  0  0  0  0  0  0  0  0  0  0  0
   -1.7818    4.9468   -0.3868 C   0  0  0  0  0  0  0  0  0  0  0  0
   -1.6880    4.4164    0.9084 C   0  0  0  0  0  0  0  0  0  0  0  0
   -1.6255    3.0276    1.1020 C   0  0  0  0  0  0  0  0  0  0  0  0
   -3.4742    0.0278   -0.0467 C   0  0  0  0  0  0  0  0  0  0  0  0
   -4.3825    0.7072    0.7928 C   0  0  0  0  0  0  0  0  0  0  0  0
   -5.7618    0.4927    0.6681 C   0  0  0  0  0  0  0  0  0  0  0  0
   -6.2517   -0.3962   -0.3043 C   0  0  0  0  0  0  0  0  0  0  0  0
   -5.3554   -1.0618   -1.1527 C   0  0  0  0  0  0  0  0  0  0  0  0
   -3.9719   -0.8503   -1.0265 C   0  0  0  0  0  0  0  0  0  0  0  0
    0.5623   -3.9722    1.7249 H   0  0  0  0  0  0  0  0  0  0  0  0
    1.6357   -2.9088    0.7342 H   0  0  0  0  0  0  0  0  0  0  0  0
    2.5579   -1.1455    2.4665 H   0  0  0  0  0  0  0  0  0  0  0  0
    1.3642    0.0604    2.9564 H   0  0  0  0  0  0  0  0  0  0  0  0
   -2.3675   -2.1698    0.6304 H   0  0  0  0  0  0  0  0  0  0  0  0
   -1.7777   -3.4738    1.7175 H   0  0  0  0  0  0  0  0  0  0  0  0
   -0.5701    0.6682    2.2789 H   0  0  0  0  0  0  0  0  0  0  0  0
   -2.2891    0.2837    2.4861 H   0  0  0  0  0  0  0  0  0  0  0  0
    1.4859   -3.2669    3.8393 H   0  0  0  0  0  0  0  0  0  0  0  0
    1.0524   -1.6766    4.5144 H   0  0  0  0  0  0  0  0  0  0  0  0
   -0.9280   -3.9208    3.7633 H   0  0  0  0  0  0  0  0  0  0  0  0
   -0.7759   -3.1041    5.3376 H   0  0  0  0  0  0  0  0  0  0  0  0
   -1.4994   -0.9430    4.3655 H   0  0  0  0  0  0  0  0  0  0  0  0
   -2.6617   -2.1004    3.6658 H   0  0  0  0  0  0  0  0  0  0  0  0
    1.9391    1.8159    2.9997 H   0  0  0  0  0  0  0  0  0  0  0  0
    1.9908    4.2710    3.2537 H   0  0  0  0  0  0  0  0  0  0  0  0
    1.7845    5.7619    1.2450 H   0  0  0  0  0  0  0  0  0  0  0  0
    1.5008    4.7381   -1.0325 H   0  0  0  0  0  0  0  0  0  0  0  0
    1.4101    2.2750   -1.2969 H   0  0  0  0  0  0  0  0  0  0  0  0
    4.2221    0.0267    2.1812 H   0  0  0  0  0  0  0  0  0  0  0  0
    6.6251   -0.0632    1.5714 H   0  0  0  0  0  0  0  0  0  0  0  0
    7.3161   -0.1856   -0.8376 H   0  0  0  0  0  0  0  0  0  0  0  0
    5.5617   -0.2172   -2.6345 H   0  0  0  0  0  0  0  0  0  0  0  0
    3.1385   -0.1610   -2.0204 H   0  0  0  0  0  0  0  0  0  0  0  0
   -1.7151    2.0220   -2.1763 H   0  0  0  0  0  0  0  0  0  0  0  0
   -1.8614    4.4906   -2.5145 H   0  0  0  0  0  0  0  0  0  0  0  0
   -1.8307    6.0364   -0.5343 H   0  0  0  0  0  0  0  0  0  0  0  0
   -1.6566    5.0877    1.7799 H   0  0  0  0  0  0  0  0  0  0  0  0
   -1.5471    2.6340    2.1254 H   0  0  0  0  0  0  0  0  0  0  0  0
   -4.0132    1.4309    1.5368 H   0  0  0  0  0  0  0  0  0  0  0  0
   -6.4603    1.0301    1.3278 H   0  0  0  0  0  0  0  0  0  0  0  0
   -7.3353   -0.5616   -0.4041 H   0  0  0  0  0  0  0  0  0  0  0  0
   -5.7294   -1.7501   -1.9258 H   0  0  0  0  0  0  0  0  0  0  0  0
   -3.2740   -1.3665   -1.6998 H   0  0  0  0  0  0  0  0  0  0  0  0
  1 13  1  0  0  0  0
  1  6  1  0  0  0  0
  2  9  1  0  0  0  0
  3  7  1  0  0  0  0
  3  4  1  0  0  0  0
  4 37  1  0  0  0  0
  4  5  1  0  0  0  0
  5  6  1  6  0  0  0
  5 10  1  0  0  0  0
  6 39  1  0  0  0  0
  6 40  1  0  0  0  0
  7 42  1  0  0  0  0
  7  8  1  0  0  0  0
  8  9  1  6  0  0  0
  8  5  1  0  0  0  0
  8 12  1  0  0  0  0
  9 43  1  0  0  0  0
  9 44  1  0  0  0  0
 10 45  1  0  0  0  0
 10 11  1  0  0  0  0
 10 46  1  0  0  0  0
 11 48  1  0  0  0  0
 12 11  1  0  0  0  0
 12 49  1  0  0  0  0
 13 14  1  0  0  0  0
 14 15  2  0  0  0  0
 14 51  1  0  0  0  0
 15 52  1  0  0  0  0
 16 53  1  0  0  0  0
 16 15  1  0  0  0  0
 17 16  2  0  0  0  0
 18 17  1  0  0  0  0
 18 13  2  0  0  0  0
 19  1  1  0  0  0  0
 19 20  1  0  0  0  0
 20 56  1  0  0  0  0
 21 20  2  0  0  0  0
 21 57  1  0  0  0  0
 22 21  1  0  0  0  0
 23 24  1  0  0  0  0
 23 22  2  0  0  0  0
 24 19  2  0  0  0  0
 25  2  1  0  0  0  0
 25 30  1  0  0  0  0
 26 25  2  0  0  0  0
 27 26  1  0  0  0  0
 27 28  2  0  0  0  0
 28 29  1  0  0  0  0
 29 30  2  0  0  0  0
 29 64  1  0  0  0  0
 30 65  1  0  0  0  0
 31  2  1  0  0  0  0
 31 32  1  0  0  0  0
 32 66  1  0  0  0  0
 33 32  2  0  0  0  0
 33 67  1  0  0  0  0
 34 33  1  0  0  0  0
 35 36  1  0  0  0  0
 35 34  2  0  0  0  0
 36 31  2  0  0  0  0
 38  4  1  0  0  0  0
 41  7  1  0  0  0  0
 47 11  1  0  0  0  0
 50 12  1  0  0  0  0
 54 17  1  0  0  0  0
 55 18  1  0  0  0  0
 58 22  1  0  0  0  0
 59 23  1  0  0  0  0
 60 24  1  0  0  0  0
 61 26  1  0  0  0  0
 62 27  1  0  0  0  0
 63 28  1  0  0  0  0
 68 34  1  0  0  0  0
 69 35  1  0  0  0  0
 70 36  1  0  0  0  0
M  END
