1,2
 OpenBabel05122313063D

 59 63  0  0  1  0  0  0  0  0999 V2000
   -0.8280    1.5088    0.1872 P   0  0  0  0  0  0  0  0  0  0  0  0
    2.0808    0.2929    0.4238 P   0  0  0  0  0  0  0  0  0  0  0  0
    0.5638    2.5946    0.7898 C   0  0  2  0  0  0  0  0  0  0  0  0
    1.0598    2.9565   -0.1395 H   0  0  0  0  0  0  0  0  0  0  0  0
    1.5767    1.7020    1.5401 C   0  0  2  0  0  0  0  0  0  0  0  0
    1.0400    1.2030    2.3802 H   0  0  0  0  0  0  0  0  0  0  0  0
    2.5725    2.7188    2.1005 C   0  0  0  0  0  0  0  0  0  0  0  0
    3.2224    2.2989    2.8930 H   0  0  0  0  0  0  0  0  0  0  0  0
    3.2288    3.0793    1.2816 H   0  0  0  0  0  0  0  0  0  0  0  0
    1.6556    3.8664    2.5977 C   0  0  0  0  0  0  0  0  0  0  0  0
    1.4300    3.7365    3.6751 H   0  0  0  0  0  0  0  0  0  0  0  0
    2.1495    4.8527    2.4949 H   0  0  0  0  0  0  0  0  0  0  0  0
    0.3405    3.7701    1.7614 C   0  0  0  0  0  0  0  0  0  0  0  0
    0.1089    4.7093    1.2218 H   0  0  0  0  0  0  0  0  0  0  0  0
   -0.5269    3.5576    2.4181 H   0  0  0  0  0  0  0  0  0  0  0  0
   -1.6379    2.3920   -1.1929 C   0  0  0  0  0  0  0  0  0  0  0  0
   -2.5396    1.6435   -1.9837 C   0  0  0  0  0  0  0  0  0  0  0  0
   -2.7195    0.5825   -1.7488 H   0  0  0  0  0  0  0  0  0  0  0  0
   -3.1839    2.2497   -3.0706 C   0  0  0  0  0  0  0  0  0  0  0  0
   -3.8857    1.6609   -3.6805 H   0  0  0  0  0  0  0  0  0  0  0  0
   -2.9291    3.5949   -3.3870 C   0  0  0  0  0  0  0  0  0  0  0  0
   -3.4338    4.0653   -4.2446 H   0  0  0  0  0  0  0  0  0  0  0  0
   -2.0257    4.3373   -2.6109 C   0  0  0  0  0  0  0  0  0  0  0  0
   -1.8213    5.3907   -2.8563 H   0  0  0  0  0  0  0  0  0  0  0  0
   -1.3819    3.7405   -1.5151 C   0  0  0  0  0  0  0  0  0  0  0  0
   -0.6814    4.3348   -0.9100 H   0  0  0  0  0  0  0  0  0  0  0  0
   -2.0597    1.4881    1.5414 C   0  0  0  0  0  0  0  0  0  0  0  0
   -2.0071    0.4254    2.4663 C   0  0  0  0  0  0  0  0  0  0  0  0
   -1.2825   -0.3909    2.3191 H   0  0  0  0  0  0  0  0  0  0  0  0
   -2.9307    0.3695    3.5202 C   0  0  0  0  0  0  0  0  0  0  0  0
   -2.9012   -0.4790    4.2198 H   0  0  0  0  0  0  0  0  0  0  0  0
   -3.9071    1.3680    3.6549 C   0  0  0  0  0  0  0  0  0  0  0  0
   -4.6394    1.3155    4.4750 H   0  0  0  0  0  0  0  0  0  0  0  0
   -3.9660    2.4248    2.7299 C   0  0  0  0  0  0  0  0  0  0  0  0
   -4.7409    3.2005    2.8266 H   0  0  0  0  0  0  0  0  0  0  0  0
   -3.0473    2.4866    1.6727 C   0  0  0  0  0  0  0  0  0  0  0  0
   -3.1054    3.3029    0.9361 H   0  0  0  0  0  0  0  0  0  0  0  0
    3.0282    1.1241   -0.9097 C   0  0  0  0  0  0  0  0  0  0  0  0
    2.3935    1.3125   -2.1554 C   0  0  0  0  0  0  0  0  0  0  0  0
    1.3885    0.8851   -2.3081 H   0  0  0  0  0  0  0  0  0  0  0  0
    3.0411    2.0230   -3.1764 C   0  0  0  0  0  0  0  0  0  0  0  0
    2.5388    2.1630   -4.1453 H   0  0  0  0  0  0  0  0  0  0  0  0
    4.3277    2.5433   -2.9642 C   0  0  0  0  0  0  0  0  0  0  0  0
    4.8387    3.0945   -3.7682 H   0  0  0  0  0  0  0  0  0  0  0  0
    4.9663    2.3554   -1.7275 C   0  0  0  0  0  0  0  0  0  0  0  0
    5.9767    2.7587   -1.5609 H   0  0  0  0  0  0  0  0  0  0  0  0
    4.3203    1.6520   -0.6995 C   0  0  0  0  0  0  0  0  0  0  0  0
    4.8289    1.5035    0.2649 H   0  0  0  0  0  0  0  0  0  0  0  0
    3.2672   -0.7114    1.3880 C   0  0  0  0  0  0  0  0  0  0  0  0
    2.9460   -1.0360    2.7231 C   0  0  0  0  0  0  0  0  0  0  0  0
    2.0237   -0.6479    3.1815 H   0  0  0  0  0  0  0  0  0  0  0  0
    3.7847   -1.8777    3.4662 C   0  0  0  0  0  0  0  0  0  0  0  0
    3.5247   -2.1252    4.5063 H   0  0  0  0  0  0  0  0  0  0  0  0
    4.9442   -2.4124    2.8816 C   0  0  0  0  0  0  0  0  0  0  0  0
    5.5989   -3.0777    3.4645 H   0  0  0  0  0  0  0  0  0  0  0  0
    5.2585   -2.1068    1.5487 C   0  0  0  0  0  0  0  0  0  0  0  0
    6.1581   -2.5343    1.0806 H   0  0  0  0  0  0  0  0  0  0  0  0
    4.4238   -1.2627    0.8007 C   0  0  0  0  0  0  0  0  0  0  0  0
    4.6682   -1.0412   -0.2478 H   0  0  0  0  0  0  0  0  0  0  0  0
  1  3  1  0  0  0  0
  1 27  1  0  0  0  0
  2 49  1  0  0  0  0
  2  5  1  0  0  0  0
  3  4  1  6  0  0  0
  3  5  1  0  0  0  0
  3 13  1  0  0  0  0
  5  7  1  0  0  0  0
  5  6  1  1  0  0  0
  7 10  1  0  0  0  0
  7  8  1  0  0  0  0
  9  7  1  0  0  0  0
 10 11  1  0  0  0  0
 12 10  1  0  0  0  0
 13 15  1  0  0  0  0
 13 10  1  0  0  0  0
 14 13  1  0  0  0  0
 16  1  1  0  0  0  0
 17 18  1  0  0  0  0
 17 16  2  0  0  0  0
 19 17  1  0  0  0  0
 20 19  1  0  0  0  0
 21 19  2  0  0  0  0
 21 23  1  0  0  0  0
 22 21  1  0  0  0  0
 23 25  2  0  0  0  0
 24 23  1  0  0  0  0
 25 16  1  0  0  0  0
 25 26  1  0  0  0  0
 27 36  2  0  0  0  0
 27 28  1  0  0  0  0
 28 30  2  0  0  0  0
 29 28  1  0  0  0  0
 30 32  1  0  0  0  0
 30 31  1  0  0  0  0
 32 33  1  0  0  0  0
 34 35  1  0  0  0  0
 34 32  2  0  0  0  0
 36 34  1  0  0  0  0
 37 36  1  0  0  0  0
 38 47  1  0  0  0  0
 38  2  1  0  0  0  0
 39 38  2  0  0  0  0
 40 39  1  0  0  0  0
 41 43  2  0  0  0  0
 41 39  1  0  0  0  0
 42 41  1  0  0  0  0
 43 45  1  0  0  0  0
 44 43  1  0  0  0  0
 45 46  1  0  0  0  0
 45 47  2  0  0  0  0
 47 48  1  0  0  0  0
 49 50  1  0  0  0  0
 50 51  1  0  0  0  0
 50 52  2  0  0  0  0
 52 53  1  0  0  0  0
 54 55  1  0  0  0  0
 54 52  1  0  0  0  0
 56 54  2  0  0  0  0
 57 56  1  0  0  0  0
 58 49  2  0  0  0  0
 58 56  1  0  0  0  0
 59 58  1  0  0  0  0
M  END
