1,7
 OpenBabel05122313063D

 64 67  0  0  0  0  0  0  0  0999 V2000
    1.6156    0.0882    0.2866 P   0  0  0  0  0  0  0  0  0  0  0  0
    3.3892   -0.3380    0.1697 C   0  0  0  0  0  0  0  0  0  0  0  0
    1.2258   -0.3275    1.9504 N   0  0  0  0  0  0  0  0  0  0  0  0
    3.7745   -1.6084   -0.3066 C   0  0  0  0  0  0  0  0  0  0  0  0
    3.0119   -2.3067   -0.6786 H   0  0  0  0  0  0  0  0  0  0  0  0
   -1.0076    0.5799    1.7666 N   0  0  0  0  0  0  0  0  0  0  0  0
   -1.5132   -0.0689    0.2050 P   0  0  0  0  0  0  0  0  0  0  0  0
    5.1331   -1.9520   -0.3420 C   0  0  0  0  0  0  0  0  0  0  0  0
    5.4313   -2.9420   -0.7180 H   0  0  0  0  0  0  0  0  0  0  0  0
    6.1078   -1.0339    0.0800 C   0  0  0  0  0  0  0  0  0  0  0  0
    7.1735   -1.3068    0.0430 H   0  0  0  0  0  0  0  0  0  0  0  0
    5.7256    0.2377    0.5371 C   0  0  0  0  0  0  0  0  0  0  0  0
    6.4878    0.9639    0.8575 H   0  0  0  0  0  0  0  0  0  0  0  0
    4.3691    0.5899    0.5806 C   0  0  0  0  0  0  0  0  0  0  0  0
    4.0720    1.5883    0.9337 H   0  0  0  0  0  0  0  0  0  0  0  0
    1.5693    1.9190    0.2568 C   0  0  0  0  0  0  0  0  0  0  0  0
    1.4802    2.5321   -1.0098 C   0  0  0  0  0  0  0  0  0  0  0  0
    1.4359    1.9049   -1.9150 H   0  0  0  0  0  0  0  0  0  0  0  0
    1.4233    3.9300   -1.1022 C   0  0  0  0  0  0  0  0  0  0  0  0
    1.3492    4.4070   -2.0908 H   0  0  0  0  0  0  0  0  0  0  0  0
    1.4375    4.7149    0.0628 C   0  0  0  0  0  0  0  0  0  0  0  0
    1.3779    5.8114   -0.0115 H   0  0  0  0  0  0  0  0  0  0  0  0
    1.5229    4.1018    1.3243 C   0  0  0  0  0  0  0  0  0  0  0  0
    1.5303    4.7154    2.2380 H   0  0  0  0  0  0  0  0  0  0  0  0
    1.5956    2.7038    1.4250 C   0  0  0  0  0  0  0  0  0  0  0  0
    1.6563    2.2189    2.4107 H   0  0  0  0  0  0  0  0  0  0  0  0
   -0.0064   -0.0421    2.5551 C   0  0  0  0  0  0  0  0  0  0  0  0
   -0.1919   -0.2644    3.7483 O   0  0  0  0  0  0  0  0  0  0  0  0
   -2.7987   -1.2912    0.6472 C   0  0  0  0  0  0  0  0  0  0  0  0
   -2.3853   -2.6306    0.8041 C   0  0  0  0  0  0  0  0  0  0  0  0
   -1.3482   -2.9068    0.5579 H   0  0  0  0  0  0  0  0  0  0  0  0
   -3.2990   -3.5972    1.2420 C   0  0  0  0  0  0  0  0  0  0  0  0
   -2.9741   -4.6422    1.3564 H   0  0  0  0  0  0  0  0  0  0  0  0
   -4.6292   -3.2371    1.5156 C   0  0  0  0  0  0  0  0  0  0  0  0
   -5.3477   -4.0000    1.8517 H   0  0  0  0  0  0  0  0  0  0  0  0
   -5.0451   -1.9070    1.3507 C   0  0  0  0  0  0  0  0  0  0  0  0
   -6.0889   -1.6246    1.5552 H   0  0  0  0  0  0  0  0  0  0  0  0
   -4.1332   -0.9313    0.9196 C   0  0  0  0  0  0  0  0  0  0  0  0
   -4.4682    0.1072    0.7797 H   0  0  0  0  0  0  0  0  0  0  0  0
   -2.3326    1.3691   -0.5691 C   0  0  0  0  0  0  0  0  0  0  0  0
   -1.8811    2.6763   -0.2951 C   0  0  0  0  0  0  0  0  0  0  0  0
   -1.0898    2.8391    0.4497 H   0  0  0  0  0  0  0  0  0  0  0  0
   -2.4355    3.7651   -0.9817 C   0  0  0  0  0  0  0  0  0  0  0  0
   -2.0757    4.7819   -0.7629 H   0  0  0  0  0  0  0  0  0  0  0  0
   -3.4342    3.5567   -1.9462 C   0  0  0  0  0  0  0  0  0  0  0  0
   -3.8680    4.4131   -2.4846 H   0  0  0  0  0  0  0  0  0  0  0  0
   -3.8703    2.2528   -2.2323 C   0  0  0  0  0  0  0  0  0  0  0  0
   -4.6396    2.0833   -3.0005 H   0  0  0  0  0  0  0  0  0  0  0  0
   -3.3199    1.1558   -1.5544 C   0  0  0  0  0  0  0  0  0  0  0  0
   -3.6199    0.1299   -1.8125 H   0  0  0  0  0  0  0  0  0  0  0  0
    2.0658   -1.2932    2.6924 C   0  0  0  0  0  0  0  0  0  0  0  0
    1.9351   -1.0547    3.7644 H   0  0  0  0  0  0  0  0  0  0  0  0
    3.1227   -1.1070    2.4300 H   0  0  0  0  0  0  0  0  0  0  0  0
   -2.0928    1.1699    2.5952 C   0  0  0  0  0  0  0  0  0  0  0  0
   -2.4837    0.3948    3.2853 H   0  0  0  0  0  0  0  0  0  0  0  0
   -2.9106    1.4529    1.9073 H   0  0  0  0  0  0  0  0  0  0  0  0
    1.6695   -2.7400    2.4097 C   0  0  0  0  0  0  0  0  0  0  0  0
    2.3163   -3.4387    2.9774 H   0  0  0  0  0  0  0  0  0  0  0  0
    1.7631   -2.9814    1.3317 H   0  0  0  0  0  0  0  0  0  0  0  0
    0.6190   -2.9209    2.7136 H   0  0  0  0  0  0  0  0  0  0  0  0
   -1.6321    2.3980    3.3734 C   0  0  0  0  0  0  0  0  0  0  0  0
   -2.4822    2.8096    3.9534 H   0  0  0  0  0  0  0  0  0  0  0  0
   -1.2601    3.1920    2.6960 H   0  0  0  0  0  0  0  0  0  0  0  0
   -0.8312    2.1335    4.0896 H   0  0  0  0  0  0  0  0  0  0  0  0
  1  3  1  0  0  0  0
  2  1  1  0  0  0  0
  2 14  1  0  0  0  0
  3 27  1  0  0  0  0
  3 51  1  0  0  0  0
  4  2  2  0  0  0  0
  5  4  1  0  0  0  0
  6 27  1  0  0  0  0
  6 54  1  0  0  0  0
  7 29  1  0  0  0  0
  7  6  1  0  0  0  0
  8  4  1  0  0  0  0
  8 10  2  0  0  0  0
  9  8  1  0  0  0  0
 10 12  1  0  0  0  0
 11 10  1  0  0  0  0
 12 14  2  0  0  0  0
 12 13  1  0  0  0  0
 14 15  1  0  0  0  0
 16  1  1  0  0  0  0
 16 25  1  0  0  0  0
 17 16  2  0  0  0  0
 18 17  1  0  0  0  0
 19 17  1  0  0  0  0
 19 21  2  0  0  0  0
 20 19  1  0  0  0  0
 21 23  1  0  0  0  0
 22 21  1  0  0  0  0
 23 25  2  0  0  0  0
 23 24  1  0  0  0  0
 25 26  1  0  0  0  0
 27 28  2  0  0  0  0
 29 30  2  0  0  0  0
 29 38  1  0  0  0  0
 30 32  1  0  0  0  0
 31 30  1  0  0  0  0
 32 33  1  0  0  0  0
 32 34  2  0  0  0  0
 34 35  1  0  0  0  0
 36 34  1  0  0  0  0
 36 37  1  0  0  0  0
 38 36  2  0  0  0  0
 39 38  1  0  0  0  0
 40 41  1  0  0  0  0
 40  7  1  0  0  0  0
 41 42  1  0  0  0  0
 43 44  1  0  0  0  0
 43 41  2  0  0  0  0
 45 43  1  0  0  0  0
 46 45  1  0  0  0  0
 47 45  2  0  0  0  0
 47 49  1  0  0  0  0
 48 47  1  0  0  0  0
 49 40  2  0  0  0  0
 50 49  1  0  0  0  0
 51 52  1  0  0  0  0
 53 51  1  0  0  0  0
 54 55  1  0  0  0  0
 54 61  1  0  0  0  0
 56 54  1  0  0  0  0
 57 51  1  0  0  0  0
 57 60  1  0  0  0  0
 57 58  1  0  0  0  0
 59 57  1  0  0  0  0
 61 62  1  0  0  0  0
 61 64  1  0  0  0  0
 63 61  1  0  0  0  0
M  END
