1,43
 OpenBabel05122313063D

 79 83  0  0  1  0  0  0  0  0999 V2000
   -1.5669   -0.0271    0.4277 P   0  0  0  0  0  0  0  0  0  0  0  0
   -2.3336    1.4689    0.6413 N   0  0  0  0  0  0  0  0  0  0  0  0
   -2.8614   -1.1485    0.4239 N   0  0  0  0  0  0  0  0  0  0  0  0
   -0.6327   -0.4393    1.9839 C   0  0  2  0  0  0  0  0  0  0  0  0
   -0.2948   -1.4964    1.8902 H   0  0  0  0  0  0  0  0  0  0  0  0
   -1.2318   -0.1863    3.3737 C   0  0  0  0  0  0  0  0  0  0  0  0
   -1.8301    0.7455    3.3455 H   0  0  0  0  0  0  0  0  0  0  0  0
   -1.9110   -0.9988    3.6992 H   0  0  0  0  0  0  0  0  0  0  0  0
    0.0001   -0.0014    4.3082 C   0  0  0  0  0  0  0  0  0  0  0  0
    0.1415   -0.8772    4.9722 H   0  0  0  0  0  0  0  0  0  0  0  0
   -0.1413    0.8743    4.9725 H   0  0  0  0  0  0  0  0  0  0  0  0
   -3.5306    1.6689    1.4618 C   0  0  0  0  0  0  0  0  0  0  0  0
   -3.2806    2.3449    2.3166 H   0  0  0  0  0  0  0  0  0  0  0  0
   -3.8347    0.6917    1.8848 H   0  0  0  0  0  0  0  0  0  0  0  0
   -4.6773    2.2922    0.6534 C   0  0  0  0  0  0  0  0  0  0  0  0
   -5.5261    2.5092    1.3358 H   0  0  0  0  0  0  0  0  0  0  0  0
   -5.0423    1.5503   -0.0877 H   0  0  0  0  0  0  0  0  0  0  0  0
   -4.2199    3.5616   -0.0764 C   0  0  0  0  0  0  0  0  0  0  0  0
   -5.0400    3.9615   -0.7082 H   0  0  0  0  0  0  0  0  0  0  0  0
   -3.9906    4.3513    0.6758 H   0  0  0  0  0  0  0  0  0  0  0  0
   -2.9671    3.2857   -0.9165 C   0  0  0  0  0  0  0  0  0  0  0  0
   -3.1864    2.5751   -1.7422 H   0  0  0  0  0  0  0  0  0  0  0  0
   -2.5908    4.2197   -1.3835 H   0  0  0  0  0  0  0  0  0  0  0  0
   -1.8618    2.6697   -0.0579 C   0  0  0  0  0  0  0  0  0  0  0  0
   -0.9909    2.3832   -0.6836 H   0  0  0  0  0  0  0  0  0  0  0  0
   -1.5066    3.4117    0.6993 H   0  0  0  0  0  0  0  0  0  0  0  0
   -2.6731   -2.5312    0.8765 C   0  0  0  0  0  0  0  0  0  0  0  0
   -1.9197   -2.5650    1.6842 H   0  0  0  0  0  0  0  0  0  0  0  0
   -2.2844   -3.1630    0.0396 H   0  0  0  0  0  0  0  0  0  0  0  0
   -4.0003   -3.1067    1.3852 C   0  0  0  0  0  0  0  0  0  0  0  0
   -4.3044   -2.5397    2.2925 H   0  0  0  0  0  0  0  0  0  0  0  0
   -3.8451   -4.1614    1.6956 H   0  0  0  0  0  0  0  0  0  0  0  0
   -5.0968   -3.0042    0.3193 C   0  0  0  0  0  0  0  0  0  0  0  0
   -4.8406   -3.6756   -0.5305 H   0  0  0  0  0  0  0  0  0  0  0  0
   -6.0681   -3.3602    0.7211 H   0  0  0  0  0  0  0  0  0  0  0  0
   -5.2076   -1.5658   -0.1992 C   0  0  0  0  0  0  0  0  0  0  0  0
   -5.5899   -0.9017    0.6074 H   0  0  0  0  0  0  0  0  0  0  0  0
   -5.9292   -1.5033   -1.0400 H   0  0  0  0  0  0  0  0  0  0  0  0
   -3.8451   -1.0553   -0.6701 C   0  0  0  0  0  0  0  0  0  0  0  0
   -3.4901   -1.6409   -1.5497 H   0  0  0  0  0  0  0  0  0  0  0  0
   -3.8902   -0.0076   -1.0186 H   0  0  0  0  0  0  0  0  0  0  0  0
    0.6329    0.4378    1.9842 C   0  0  2  0  0  0  0  0  0  0  0  0
    1.5670    0.0268    0.4276 P   0  0  0  0  0  0  0  0  0  0  0  0
    2.3336   -1.4695    0.6399 N   0  0  0  0  0  0  0  0  0  0  0  0
    3.5301   -1.6705    1.4608 C   0  0  0  0  0  0  0  0  0  0  0  0
    3.2795   -2.3471    2.3149 H   0  0  0  0  0  0  0  0  0  0  0  0
    3.8344   -0.6937    1.8846 H   0  0  0  0  0  0  0  0  0  0  0  0
    4.6769   -2.2937    0.6524 C   0  0  0  0  0  0  0  0  0  0  0  0
    5.5253   -2.5116    1.3352 H   0  0  0  0  0  0  0  0  0  0  0  0
    5.0427   -1.5513   -0.0878 H   0  0  0  0  0  0  0  0  0  0  0  0
    4.2195   -3.5623   -0.0786 C   0  0  0  0  0  0  0  0  0  0  0  0
    5.0397   -3.9620   -0.7103 H   0  0  0  0  0  0  0  0  0  0  0  0
    3.9895   -4.3525    0.6729 H   0  0  0  0  0  0  0  0  0  0  0  0
    2.9671   -3.2853   -0.9190 C   0  0  0  0  0  0  0  0  0  0  0  0
    3.1871   -2.5741   -1.7441 H   0  0  0  0  0  0  0  0  0  0  0  0
    2.5908   -4.2188   -1.3870 H   0  0  0  0  0  0  0  0  0  0  0  0
    1.8617   -2.6697   -0.0605 C   0  0  0  0  0  0  0  0  0  0  0  0
    0.9911   -2.3823   -0.6863 H   0  0  0  0  0  0  0  0  0  0  0  0
    1.5059   -3.4122    0.6960 H   0  0  0  0  0  0  0  0  0  0  0  0
    2.8616    1.1480    0.4247 N   0  0  0  0  0  0  0  0  0  0  0  0
    2.6731    2.5306    0.8775 C   0  0  0  0  0  0  0  0  0  0  0  0
    1.9193    2.5642    1.6849 H   0  0  0  0  0  0  0  0  0  0  0  0
    2.2846    3.1626    0.0406 H   0  0  0  0  0  0  0  0  0  0  0  0
    3.9999    3.1062    1.3868 C   0  0  0  0  0  0  0  0  0  0  0  0
    4.3038    2.5389    2.2941 H   0  0  0  0  0  0  0  0  0  0  0  0
    3.8446    4.1607    1.6974 H   0  0  0  0  0  0  0  0  0  0  0  0
    5.0969    3.0039    0.3213 C   0  0  0  0  0  0  0  0  0  0  0  0
    4.8410    3.6755   -0.5285 H   0  0  0  0  0  0  0  0  0  0  0  0
    6.0680    3.3599    0.7236 H   0  0  0  0  0  0  0  0  0  0  0  0
    5.2079    1.5657   -0.1976 C   0  0  0  0  0  0  0  0  0  0  0  0
    5.5900    0.9014    0.6090 H   0  0  0  0  0  0  0  0  0  0  0  0
    5.9299    1.5035   -1.0381 H   0  0  0  0  0  0  0  0  0  0  0  0
    3.8456    1.0553   -0.6691 C   0  0  0  0  0  0  0  0  0  0  0  0
    3.4909    1.6411   -1.5487 H   0  0  0  0  0  0  0  0  0  0  0  0
    3.8910    0.0077   -1.0178 H   0  0  0  0  0  0  0  0  0  0  0  0
    0.2950    1.4949    1.8911 H   0  0  0  0  0  0  0  0  0  0  0  0
    1.2320    0.1839    3.3738 C   0  0  0  0  0  0  0  0  0  0  0  0
    1.8301   -0.7479    3.3451 H   0  0  0  0  0  0  0  0  0  0  0  0
    1.9112    0.9961    3.6997 H   0  0  0  0  0  0  0  0  0  0  0  0
  1  2  1  0  0  0  0
  1  4  1  0  0  0  0
  2 12  1  0  0  0  0
  3  1  1  0  0  0  0
  3 27  1  0  0  0  0
  4  5  1  6  0  0  0
  4 42  1  0  0  0  0
  4  6  1  0  0  0  0
  6  8  1  0  0  0  0
  6  9  1  0  0  0  0
  7  6  1  0  0  0  0
  9 10  1  0  0  0  0
  9 11  1  0  0  0  0
 12 14  1  0  0  0  0
 12 13  1  0  0  0  0
 15 16  1  0  0  0  0
 15 12  1  0  0  0  0
 17 15  1  0  0  0  0
 18 15  1  0  0  0  0
 18 20  1  0  0  0  0
 19 18  1  0  0  0  0
 21 18  1  0  0  0  0
 21 24  1  0  0  0  0
 22 21  1  0  0  0  0
 23 21  1  0  0  0  0
 24  2  1  0  0  0  0
 24 26  1  0  0  0  0
 25 24  1  0  0  0  0
 27 30  1  0  0  0  0
 27 28  1  0  0  0  0
 29 27  1  0  0  0  0
 30 32  1  0  0  0  0
 30 31  1  0  0  0  0
 33 35  1  0  0  0  0
 33 30  1  0  0  0  0
 34 33  1  0  0  0  0
 36 33  1  0  0  0  0
 36 37  1  0  0  0  0
 38 36  1  0  0  0  0
 39 36  1  0  0  0  0
 39  3  1  0  0  0  0
 40 39  1  0  0  0  0
 41 39  1  0  0  0  0
 42 76  1  6  0  0  0
 42 77  1  0  0  0  0
 43 44  1  0  0  0  0
 43 42  1  0  0  0  0
 44 45  1  0  0  0  0
 45 47  1  0  0  0  0
 45 46  1  0  0  0  0
 48 49  1  0  0  0  0
 48 45  1  0  0  0  0
 50 48  1  0  0  0  0
 51 48  1  0  0  0  0
 51 53  1  0  0  0  0
 52 51  1  0  0  0  0
 54 51  1  0  0  0  0
 54 57  1  0  0  0  0
 55 54  1  0  0  0  0
 56 54  1  0  0  0  0
 57 44  1  0  0  0  0
 57 59  1  0  0  0  0
 58 57  1  0  0  0  0
 60 43  1  0  0  0  0
 60 61  1  0  0  0  0
 61 64  1  0  0  0  0
 61 62  1  0  0  0  0
 63 61  1  0  0  0  0
 64 66  1  0  0  0  0
 64 65  1  0  0  0  0
 67 69  1  0  0  0  0
 67 64  1  0  0  0  0
 68 67  1  0  0  0  0
 70 67  1  0  0  0  0
 70 71  1  0  0  0  0
 72 70  1  0  0  0  0
 73 70  1  0  0  0  0
 73 60  1  0  0  0  0
 74 73  1  0  0  0  0
 75 73  1  0  0  0  0
 77 79  1  0  0  0  0
 77  9  1  0  0  0  0
 78 77  1  0  0  0  0
M  END
