1,2
 OpenBabel05122313063D

 52 55  0  0  0  0  0  0  0  0999 V2000
   -1.6057   -0.2227    0.4209 P   0  0  0  0  0  0  0  0  0  0  0  0
    1.5867   -0.1978    0.4365 P   0  0  0  0  0  0  0  0  0  0  0  0
   -0.0360   -0.3592    4.0538 O   0  0  0  0  0  0  0  0  0  0  0  0
   -1.2274   -0.3640    2.1103 N   0  0  0  0  0  0  0  0  0  0  0  0
    1.1598   -0.1652    2.1225 N   0  0  0  0  0  0  0  0  0  0  0  0
   -0.0352   -0.3007    2.8307 C   0  0  0  0  0  0  0  0  0  0  0  0
   -3.2491   -1.0144    0.4370 C   0  0  0  0  0  0  0  0  0  0  0  0
   -3.3419   -2.4034    0.2160 C   0  0  0  0  0  0  0  0  0  0  0  0
   -4.5874   -3.0360    0.3144 C   0  0  0  0  0  0  0  0  0  0  0  0
   -5.7378   -2.2888    0.6206 C   0  0  0  0  0  0  0  0  0  0  0  0
   -5.6449   -0.9044    0.8292 C   0  0  0  0  0  0  0  0  0  0  0  0
   -4.4004   -0.2614    0.7373 C   0  0  0  0  0  0  0  0  0  0  0  0
   -1.8679    1.5702    0.1493 C   0  0  0  0  0  0  0  0  0  0  0  0
   -1.8943    2.4807    1.2234 C   0  0  0  0  0  0  0  0  0  0  0  0
   -2.0277    3.8543    0.9687 C   0  0  0  0  0  0  0  0  0  0  0  0
   -2.1289    4.3179   -0.3520 C   0  0  0  0  0  0  0  0  0  0  0  0
   -2.1042    3.4074   -1.4222 C   0  0  0  0  0  0  0  0  0  0  0  0
   -1.9713    2.0336   -1.1800 C   0  0  0  0  0  0  0  0  0  0  0  0
    1.8971    1.5562    0.0078 C   0  0  0  0  0  0  0  0  0  0  0  0
    1.6231    2.5934    0.9186 C   0  0  0  0  0  0  0  0  0  0  0  0
    1.7805    3.9299    0.5200 C   0  0  0  0  0  0  0  0  0  0  0  0
    2.2144    4.2304   -0.7798 C   0  0  0  0  0  0  0  0  0  0  0  0
    2.4887    3.1926   -1.6875 C   0  0  0  0  0  0  0  0  0  0  0  0
    2.3239    1.8553   -1.3049 C   0  0  0  0  0  0  0  0  0  0  0  0
    3.2170   -1.0073    0.5552 C   0  0  0  0  0  0  0  0  0  0  0  0
    4.3592   -0.2529    0.8871 C   0  0  0  0  0  0  0  0  0  0  0  0
    5.5905   -0.9019    1.0690 C   0  0  0  0  0  0  0  0  0  0  0  0
    5.6800   -2.2940    0.9164 C   0  0  0  0  0  0  0  0  0  0  0  0
    4.5398   -3.0425    0.5775 C   0  0  0  0  0  0  0  0  0  0  0  0
    3.3071   -2.4041    0.3916 C   0  0  0  0  0  0  0  0  0  0  0  0
   -2.0198   -0.5219    2.7413 H   0  0  0  0  0  0  0  0  0  0  0  0
    1.9508   -0.1736    2.7761 H   0  0  0  0  0  0  0  0  0  0  0  0
   -2.4424   -2.9732   -0.0592 H   0  0  0  0  0  0  0  0  0  0  0  0
   -4.6633   -4.1189    0.1353 H   0  0  0  0  0  0  0  0  0  0  0  0
   -6.7157   -2.7895    0.6875 H   0  0  0  0  0  0  0  0  0  0  0  0
   -6.5467   -0.3167    1.0580 H   0  0  0  0  0  0  0  0  0  0  0  0
   -4.3263    0.8268    0.8860 H   0  0  0  0  0  0  0  0  0  0  0  0
   -1.7979    2.1155    2.2570 H   0  0  0  0  0  0  0  0  0  0  0  0
   -2.0449    4.5656    1.8084 H   0  0  0  0  0  0  0  0  0  0  0  0
   -2.2232    5.3965   -0.5498 H   0  0  0  0  0  0  0  0  0  0  0  0
   -2.1790    3.7701   -2.4583 H   0  0  0  0  0  0  0  0  0  0  0  0
   -1.9374    1.3082   -2.0104 H   0  0  0  0  0  0  0  0  0  0  0  0
    1.2761    2.3545    1.9345 H   0  0  0  0  0  0  0  0  0  0  0  0
    1.5558    4.7396    1.2305 H   0  0  0  0  0  0  0  0  0  0  0  0
    2.3334    5.2794   -1.0909 H   0  0  0  0  0  0  0  0  0  0  0  0
    2.8208    3.4263   -2.7103 H   0  0  0  0  0  0  0  0  0  0  0  0
    2.4947    1.0330   -2.0198 H   0  0  0  0  0  0  0  0  0  0  0  0
    4.2886    0.8411    0.9896 H   0  0  0  0  0  0  0  0  0  0  0  0
    6.4850   -0.3137    1.3237 H   0  0  0  0  0  0  0  0  0  0  0  0
    6.6478   -2.7998    1.0535 H   0  0  0  0  0  0  0  0  0  0  0  0
    4.6142   -4.1319    0.4427 H   0  0  0  0  0  0  0  0  0  0  0  0
    2.4167   -2.9756    0.0916 H   0  0  0  0  0  0  0  0  0  0  0  0
  1  7  1  0  0  0  0
  1  4  1  0  0  0  0
  2 25  1  0  0  0  0
  2  5  1  0  0  0  0
  4 31  1  0  0  0  0
  4  6  1  0  0  0  0
  5 32  1  0  0  0  0
  5  6  1  0  0  0  0
  6  3  2  0  0  0  0
  7 12  1  0  0  0  0
  8  9  1  0  0  0  0
  8  7  2  0  0  0  0
  9 10  2  0  0  0  0
 10 35  1  0  0  0  0
 10 11  1  0  0  0  0
 11 36  1  0  0  0  0
 12 11  2  0  0  0  0
 12 37  1  0  0  0  0
 13  1  1  0  0  0  0
 13 14  1  0  0  0  0
 14 38  1  0  0  0  0
 15 14  2  0  0  0  0
 15 39  1  0  0  0  0
 16 15  1  0  0  0  0
 17 18  1  0  0  0  0
 17 16  2  0  0  0  0
 18 13  2  0  0  0  0
 19  2  1  0  0  0  0
 19 20  1  0  0  0  0
 20 43  1  0  0  0  0
 21 20  2  0  0  0  0
 21 44  1  0  0  0  0
 22 21  1  0  0  0  0
 23 24  1  0  0  0  0
 23 22  2  0  0  0  0
 24 19  2  0  0  0  0
 25 26  1  0  0  0  0
 26 48  1  0  0  0  0
 26 27  2  0  0  0  0
 27 49  1  0  0  0  0
 28 50  1  0  0  0  0
 28 27  1  0  0  0  0
 29 28  2  0  0  0  0
 30 25  2  0  0  0  0
 30 29  1  0  0  0  0
 33  8  1  0  0  0  0
 34  9  1  0  0  0  0
 40 16  1  0  0  0  0
 41 17  1  0  0  0  0
 42 18  1  0  0  0  0
 45 22  1  0  0  0  0
 46 23  1  0  0  0  0
 47 24  1  0  0  0  0
 51 29  1  0  0  0  0
 52 30  1  0  0  0  0
M  END
