3,4
 OpenBabel05122313063D

 72 79  0  0  0  0  0  0  0  0999 V2000
    2.8163    0.5185   -1.8739 S   0  0  0  0  0  0  0  0  0  0  0  0
   -2.5493    1.4225    1.6181 S   0  0  0  0  0  0  0  0  0  0  0  0
    1.5175   -0.7570    0.6691 P   0  0  0  0  0  0  0  0  0  0  0  0
   -1.6222   -0.6727   -0.4664 P   0  0  0  0  0  0  0  0  0  0  0  0
    1.3016    0.1788    2.2298 C   0  0  0  0  0  0  0  0  0  0  0  0
    2.0226    1.3624    2.4915 C   0  0  0  0  0  0  0  0  0  0  0  0
    1.7968    2.0694    3.6799 C   0  0  0  0  0  0  0  0  0  0  0  0
    0.8473    1.6060    4.6055 C   0  0  0  0  0  0  0  0  0  0  0  0
    0.1313    0.4267    4.3478 C   0  0  0  0  0  0  0  0  0  0  0  0
    0.3579   -0.2910    3.1641 C   0  0  0  0  0  0  0  0  0  0  0  0
    3.2344   -1.4062    0.6302 C   0  0  0  0  0  0  0  0  0  0  0  0
    3.5838   -2.2685   -0.4311 C   0  0  0  0  0  0  0  0  0  0  0  0
    4.9006   -2.7303   -0.5484 C   0  0  0  0  0  0  0  0  0  0  0  0
    5.8657   -2.3623    0.4036 C   0  0  0  0  0  0  0  0  0  0  0  0
    5.5103   -1.5305    1.4754 C   0  0  0  0  0  0  0  0  0  0  0  0
    4.1968   -1.0480    1.5909 C   0  0  0  0  0  0  0  0  0  0  0  0
   -3.3737   -1.0313   -0.0466 C   0  0  0  0  0  0  0  0  0  0  0  0
   -3.6547   -1.7201    1.1505 C   0  0  0  0  0  0  0  0  0  0  0  0
   -4.9851   -1.9167    1.5430 C   0  0  0  0  0  0  0  0  0  0  0  0
   -6.0352   -1.4447    0.7382 C   0  0  0  0  0  0  0  0  0  0  0  0
   -5.7540   -0.7717   -0.4609 C   0  0  0  0  0  0  0  0  0  0  0  0
   -4.4241   -0.5593   -0.8550 C   0  0  0  0  0  0  0  0  0  0  0  0
   -1.5474   -0.3061   -2.2609 C   0  0  0  0  0  0  0  0  0  0  0  0
   -1.7955    0.9811   -2.7766 C   0  0  0  0  0  0  0  0  0  0  0  0
   -1.6881    1.2143   -4.1553 C   0  0  0  0  0  0  0  0  0  0  0  0
   -1.3438    0.1647   -5.0211 C   0  0  0  0  0  0  0  0  0  0  0  0
   -1.1156   -1.1232   -4.5085 C   0  0  0  0  0  0  0  0  0  0  0  0
   -1.2126   -1.3654   -3.1310 C   0  0  0  0  0  0  0  0  0  0  0  0
    1.6103    0.5676   -0.6008 C   0  0  0  0  0  0  0  0  0  0  0  0
    0.7383    1.6413   -0.7297 C   0  0  0  0  0  0  0  0  0  0  0  0
    1.0475    2.4720   -1.8707 C   0  0  0  0  0  0  0  0  0  0  0  0
    0.3949    3.6422   -2.3262 C   0  0  0  0  0  0  0  0  0  0  0  0
    0.8452    4.2689   -3.4888 C   0  0  0  0  0  0  0  0  0  0  0  0
    1.9429    3.7475   -4.2147 C   0  0  0  0  0  0  0  0  0  0  0  0
    2.6078    2.5947   -3.7849 C   0  0  0  0  0  0  0  0  0  0  0  0
    2.1557    1.9634   -2.6120 C   0  0  0  0  0  0  0  0  0  0  0  0
   -1.4254    0.9544    0.3544 C   0  0  0  0  0  0  0  0  0  0  0  0
   -0.3873    1.8632    0.1968 C   0  0  0  0  0  0  0  0  0  0  0  0
   -0.4954    2.9877    1.0979 C   0  0  0  0  0  0  0  0  0  0  0  0
    0.3684    4.0987    1.2434 C   0  0  0  0  0  0  0  0  0  0  0  0
    0.0993    5.0498    2.2283 C   0  0  0  0  0  0  0  0  0  0  0  0
   -1.0216    4.9130    3.0815 C   0  0  0  0  0  0  0  0  0  0  0  0
   -1.8927    3.8259    2.9572 C   0  0  0  0  0  0  0  0  0  0  0  0
   -1.6245    2.8683    1.9625 C   0  0  0  0  0  0  0  0  0  0  0  0
    2.7379    1.7458    1.7480 H   0  0  0  0  0  0  0  0  0  0  0  0
    2.3482    3.0013    3.8737 H   0  0  0  0  0  0  0  0  0  0  0  0
    0.6602    2.1733    5.5296 H   0  0  0  0  0  0  0  0  0  0  0  0
   -0.6169    0.0641    5.0684 H   0  0  0  0  0  0  0  0  0  0  0  0
   -0.2040   -1.2129    2.9448 H   0  0  0  0  0  0  0  0  0  0  0  0
    2.8162   -2.5984   -1.1466 H   0  0  0  0  0  0  0  0  0  0  0  0
    5.1681   -3.4024   -1.3774 H   0  0  0  0  0  0  0  0  0  0  0  0
    6.8963   -2.7385    0.3165 H   0  0  0  0  0  0  0  0  0  0  0  0
    6.2582   -1.2550    2.2343 H   0  0  0  0  0  0  0  0  0  0  0  0
    3.9227   -0.4041    2.4386 H   0  0  0  0  0  0  0  0  0  0  0  0
   -2.8280   -2.1194    1.7570 H   0  0  0  0  0  0  0  0  0  0  0  0
   -5.2027   -2.4586    2.4754 H   0  0  0  0  0  0  0  0  0  0  0  0
   -7.0795   -1.6114    1.0433 H   0  0  0  0  0  0  0  0  0  0  0  0
   -6.5751   -0.4107   -1.0986 H   0  0  0  0  0  0  0  0  0  0  0  0
   -4.2034   -0.0344   -1.7965 H   0  0  0  0  0  0  0  0  0  0  0  0
   -2.0530    1.8059   -2.0962 H   0  0  0  0  0  0  0  0  0  0  0  0
   -1.8599    2.2269   -4.5503 H   0  0  0  0  0  0  0  0  0  0  0  0
   -1.2513    0.3520   -6.1018 H   0  0  0  0  0  0  0  0  0  0  0  0
   -0.8524   -1.9495   -5.1860 H   0  0  0  0  0  0  0  0  0  0  0  0
   -1.0482   -2.3732   -2.7151 H   0  0  0  0  0  0  0  0  0  0  0  0
   -0.4607    4.0418   -1.7612 H   0  0  0  0  0  0  0  0  0  0  0  0
    0.3416    5.1787   -3.8484 H   0  0  0  0  0  0  0  0  0  0  0  0
    2.2800    4.2553   -5.1307 H   0  0  0  0  0  0  0  0  0  0  0  0
    3.4595    2.1895   -4.3506 H   0  0  0  0  0  0  0  0  0  0  0  0
    1.2451    4.1941    0.5856 H   0  0  0  0  0  0  0  0  0  0  0  0
    0.7678    5.9155    2.3478 H   0  0  0  0  0  0  0  0  0  0  0  0
   -1.2131    5.6725    3.8543 H   0  0  0  0  0  0  0  0  0  0  0  0
   -2.7619    3.7189    3.6225 H   0  0  0  0  0  0  0  0  0  0  0  0
  1 29  1  0  0  0  0
  2 44  1  0  0  0  0
  3  5  1  0  0  0  0
  4 17  1  0  0  0  0
  4 37  1  0  0  0  0
  5  6  2  0  0  0  0
  5 10  1  0  0  0  0
  6  7  1  0  0  0  0
  7 46  1  0  0  0  0
  7  8  2  0  0  0  0
  8 47  1  0  0  0  0
  9  8  1  0  0  0  0
  9 48  1  0  0  0  0
 10  9  2  0  0  0  0
 11  3  1  0  0  0  0
 11 16  1  0  0  0  0
 12 11  2  0  0  0  0
 13 12  1  0  0  0  0
 13 14  2  0  0  0  0
 14 15  1  0  0  0  0
 15 16  2  0  0  0  0
 15 53  1  0  0  0  0
 16 54  1  0  0  0  0
 17 18  1  0  0  0  0
 18 19  2  0  0  0  0
 18 55  1  0  0  0  0
 19 56  1  0  0  0  0
 20 57  1  0  0  0  0
 20 19  1  0  0  0  0
 21 20  2  0  0  0  0
 22 21  1  0  0  0  0
 22 17  2  0  0  0  0
 23  4  1  0  0  0  0
 24 23  1  0  0  0  0
 24 60  1  0  0  0  0
 25 24  2  0  0  0  0
 26 27  2  0  0  0  0
 26 25  1  0  0  0  0
 27 28  1  0  0  0  0
 28 64  1  0  0  0  0
 28 23  2  0  0  0  0
 29  3  1  0  0  0  0
 30 29  2  0  0  0  0
 30 38  1  0  0  0  0
 31 30  1  0  0  0  0
 32 31  1  0  0  0  0
 32 65  1  0  0  0  0
 33 32  2  0  0  0  0
 34 35  2  0  0  0  0
 34 33  1  0  0  0  0
 35 36  1  0  0  0  0
 36  1  1  0  0  0  0
 36 31  2  0  0  0  0
 37  2  1  0  0  0  0
 38 37  2  0  0  0  0
 38 39  1  0  0  0  0
 39 40  2  0  0  0  0
 39 44  1  0  0  0  0
 40 41  1  0  0  0  0
 41 70  1  0  0  0  0
 41 42  2  0  0  0  0
 42 71  1  0  0  0  0
 43 42  1  0  0  0  0
 43 72  1  0  0  0  0
 44 43  2  0  0  0  0
 45  6  1  0  0  0  0
 49 10  1  0  0  0  0
 50 12  1  0  0  0  0
 51 13  1  0  0  0  0
 52 14  1  0  0  0  0
 58 21  1  0  0  0  0
 59 22  1  0  0  0  0
 61 25  1  0  0  0  0
 62 26  1  0  0  0  0
 63 27  1  0  0  0  0
 66 33  1  0  0  0  0
 67 34  1  0  0  0  0
 68 35  1  0  0  0  0
 69 40  1  0  0  0  0
M  END
