1,2
 OpenBabel05122313063D

 72 79  0  0  0  0  0  0  0  0999 V2000
   -1.5871   -0.6926   -0.4468 P   0  0  0  0  0  0  0  0  0  0  0  0
    1.5782   -0.5901    0.6830 P   0  0  0  0  0  0  0  0  0  0  0  0
   -2.3415    1.4218    1.1706 O   0  0  0  0  0  0  0  0  0  0  0  0
    2.6209    0.7104   -1.5562 O   0  0  0  0  0  0  0  0  0  0  0  0
   -1.5848   -0.4271   -2.2666 C   0  0  0  0  0  0  0  0  0  0  0  0
   -1.7779    0.8412   -2.8505 C   0  0  0  0  0  0  0  0  0  0  0  0
   -1.7353    0.9844   -4.2453 C   0  0  0  0  0  0  0  0  0  0  0  0
   -1.5110   -0.1344   -5.0620 C   0  0  0  0  0  0  0  0  0  0  0  0
   -1.3337   -1.4009   -4.4812 C   0  0  0  0  0  0  0  0  0  0  0  0
   -1.3645   -1.5541   -3.0881 C   0  0  0  0  0  0  0  0  0  0  0  0
   -3.3089   -1.0697    0.0558 C   0  0  0  0  0  0  0  0  0  0  0  0
   -3.5338   -1.7437    1.2709 C   0  0  0  0  0  0  0  0  0  0  0  0
   -4.8459   -1.9586    1.7120 C   0  0  0  0  0  0  0  0  0  0  0  0
   -5.9321   -1.5146    0.9395 C   0  0  0  0  0  0  0  0  0  0  0  0
   -5.7053   -0.8522   -0.2768 C   0  0  0  0  0  0  0  0  0  0  0  0
   -4.3937   -0.6242   -0.7206 C   0  0  0  0  0  0  0  0  0  0  0  0
    3.3390   -1.0746    0.8090 C   0  0  0  0  0  0  0  0  0  0  0  0
    3.9227   -1.7524   -0.2814 C   0  0  0  0  0  0  0  0  0  0  0  0
    5.2698   -2.1272   -0.2250 C   0  0  0  0  0  0  0  0  0  0  0  0
    6.0331   -1.8534    0.9227 C   0  0  0  0  0  0  0  0  0  0  0  0
    5.4447   -1.2026    2.0163 C   0  0  0  0  0  0  0  0  0  0  0  0
    4.0973   -0.8108    1.9637 C   0  0  0  0  0  0  0  0  0  0  0  0
    1.1695    0.3818    2.1863 C   0  0  0  0  0  0  0  0  0  0  0  0
    1.7964    1.6145    2.4625 C   0  0  0  0  0  0  0  0  0  0  0  0
    1.4125    2.3574    3.5868 C   0  0  0  0  0  0  0  0  0  0  0  0
    0.4021    1.8785    4.4370 C   0  0  0  0  0  0  0  0  0  0  0  0
   -0.2140    0.6457    4.1709 C   0  0  0  0  0  0  0  0  0  0  0  0
    0.1702   -0.1059    3.0505 C   0  0  0  0  0  0  0  0  0  0  0  0
   -1.4256    1.0048    0.2312 C   0  0  0  0  0  0  0  0  0  0  0  0
   -0.4550    1.9673    0.0112 C   0  0  0  0  0  0  0  0  0  0  0  0
   -0.7988    3.0848    0.8619 C   0  0  0  0  0  0  0  0  0  0  0  0
   -0.2308    4.3461    1.1367 C   0  0  0  0  0  0  0  0  0  0  0  0
   -0.8475    5.1480    2.1032 C   0  0  0  0  0  0  0  0  0  0  0  0
   -2.0067    4.7137    2.7923 C   0  0  0  0  0  0  0  0  0  0  0  0
   -2.5896    3.4644    2.5338 C   0  0  0  0  0  0  0  0  0  0  0  0
   -1.9617    2.6774    1.5651 C   0  0  0  0  0  0  0  0  0  0  0  0
    1.6308    0.7200   -0.6036 C   0  0  0  0  0  0  0  0  0  0  0  0
    0.7366    1.7570   -0.8095 C   0  0  0  0  0  0  0  0  0  0  0  0
    1.2169    2.4733   -1.9703 C   0  0  0  0  0  0  0  0  0  0  0  0
    0.7863    3.5974   -2.7056 C   0  0  0  0  0  0  0  0  0  0  0  0
    1.5327    3.9756   -3.8276 C   0  0  0  0  0  0  0  0  0  0  0  0
    2.6867    3.2560   -4.2229 C   0  0  0  0  0  0  0  0  0  0  0  0
    3.1322    2.1338   -3.5088 C   0  0  0  0  0  0  0  0  0  0  0  0
    2.3757    1.7710   -2.3920 C   0  0  0  0  0  0  0  0  0  0  0  0
   -1.9473    1.7226   -2.2156 H   0  0  0  0  0  0  0  0  0  0  0  0
   -1.8691    1.9809   -4.6927 H   0  0  0  0  0  0  0  0  0  0  0  0
   -1.4716   -0.0183   -6.1558 H   0  0  0  0  0  0  0  0  0  0  0  0
   -1.1610   -2.2823   -5.1171 H   0  0  0  0  0  0  0  0  0  0  0  0
   -1.2294   -2.5443   -2.6216 H   0  0  0  0  0  0  0  0  0  0  0  0
   -2.6797   -2.1233    1.8509 H   0  0  0  0  0  0  0  0  0  0  0  0
   -5.0216   -2.4923    2.6581 H   0  0  0  0  0  0  0  0  0  0  0  0
   -6.9619   -1.6955    1.2834 H   0  0  0  0  0  0  0  0  0  0  0  0
   -6.5544   -0.5128   -0.8891 H   0  0  0  0  0  0  0  0  0  0  0  0
   -4.2148   -0.1086   -1.6763 H   0  0  0  0  0  0  0  0  0  0  0  0
    3.3176   -1.9992   -1.1653 H   0  0  0  0  0  0  0  0  0  0  0  0
    5.7228   -2.6551   -1.0775 H   0  0  0  0  0  0  0  0  0  0  0  0
    7.0891   -2.1606    0.9674 H   0  0  0  0  0  0  0  0  0  0  0  0
    6.0338   -0.9999    2.9234 H   0  0  0  0  0  0  0  0  0  0  0  0
    3.6381   -0.3093    2.8275 H   0  0  0  0  0  0  0  0  0  0  0  0
    2.5673    2.0047    1.7805 H   0  0  0  0  0  0  0  0  0  0  0  0
    1.8906    3.3272    3.7893 H   0  0  0  0  0  0  0  0  0  0  0  0
    0.0899    2.4739    5.3080 H   0  0  0  0  0  0  0  0  0  0  0  0
   -1.0063    0.2675    4.8340 H   0  0  0  0  0  0  0  0  0  0  0  0
   -0.3144   -1.0692    2.8234 H   0  0  0  0  0  0  0  0  0  0  0  0
    0.6755    4.6783    0.6089 H   0  0  0  0  0  0  0  0  0  0  0  0
   -0.4250    6.1364    2.3385 H   0  0  0  0  0  0  0  0  0  0  0  0
   -2.4622    5.3718    3.5471 H   0  0  0  0  0  0  0  0  0  0  0  0
   -3.4857    3.1112    3.0624 H   0  0  0  0  0  0  0  0  0  0  0  0
   -0.1118    4.1555   -2.4013 H   0  0  0  0  0  0  0  0  0  0  0  0
    1.2190    4.8491   -4.4185 H   0  0  0  0  0  0  0  0  0  0  0  0
    3.2470    3.5828   -5.1114 H   0  0  0  0  0  0  0  0  0  0  0  0
    4.0229    1.5629   -3.8050 H   0  0  0  0  0  0  0  0  0  0  0  0
  1 11  1  0  0  0  0
  1 29  1  0  0  0  0
  2 17  1  0  0  0  0
  2 23  1  0  0  0  0
  3 36  1  0  0  0  0
  4 37  1  0  0  0  0
  5  1  1  0  0  0  0
  6  5  1  0  0  0  0
  6 45  1  0  0  0  0
  7  6  2  0  0  0  0
  8  9  2  0  0  0  0
  8  7  1  0  0  0  0
  9 10  1  0  0  0  0
 10 49  1  0  0  0  0
 10  5  2  0  0  0  0
 11 12  1  0  0  0  0
 12 13  2  0  0  0  0
 12 50  1  0  0  0  0
 13 51  1  0  0  0  0
 14 52  1  0  0  0  0
 14 13  1  0  0  0  0
 15 14  2  0  0  0  0
 16 15  1  0  0  0  0
 16 11  2  0  0  0  0
 17 22  1  0  0  0  0
 18 19  1  0  0  0  0
 18 17  2  0  0  0  0
 19 20  2  0  0  0  0
 20 57  1  0  0  0  0
 20 21  1  0  0  0  0
 21 58  1  0  0  0  0
 22 21  2  0  0  0  0
 22 59  1  0  0  0  0
 23 24  2  0  0  0  0
 23 28  1  0  0  0  0
 24 25  1  0  0  0  0
 25 61  1  0  0  0  0
 25 26  2  0  0  0  0
 26 62  1  0  0  0  0
 27 26  1  0  0  0  0
 27 63  1  0  0  0  0
 28 27  2  0  0  0  0
 29  3  1  0  0  0  0
 30 29  2  0  0  0  0
 30 31  1  0  0  0  0
 31 32  2  0  0  0  0
 31 36  1  0  0  0  0
 32 33  1  0  0  0  0
 33 66  1  0  0  0  0
 33 34  2  0  0  0  0
 34 67  1  0  0  0  0
 35 34  1  0  0  0  0
 35 68  1  0  0  0  0
 36 35  2  0  0  0  0
 37  2  1  0  0  0  0
 38 37  2  0  0  0  0
 38 30  1  0  0  0  0
 39 38  1  0  0  0  0
 40 69  1  0  0  0  0
 40 39  2  0  0  0  0
 41 40  1  0  0  0  0
 42 41  2  0  0  0  0
 42 43  1  0  0  0  0
 43 44  2  0  0  0  0
 44 39  1  0  0  0  0
 44  4  1  0  0  0  0
 46  7  1  0  0  0  0
 47  8  1  0  0  0  0
 48  9  1  0  0  0  0
 53 15  1  0  0  0  0
 54 16  1  0  0  0  0
 55 18  1  0  0  0  0
 56 19  1  0  0  0  0
 60 24  1  0  0  0  0
 64 28  1  0  0  0  0
 65 32  1  0  0  0  0
 70 41  1  0  0  0  0
 71 42  1  0  0  0  0
 72 43  1  0  0  0  0
M  END
