1,36
 OpenBabel05122313063D

 67 72  0  0  1  0  0  0  0  0999 V2000
    1.7575   -0.0380    0.2223 P   0  0  0  0  0  0  0  0  0  0  0  0
    2.9248    0.9594   -0.7901 C   0  0  0  0  0  0  0  0  0  0  0  0
    4.1834    1.3255   -0.2700 C   0  0  0  0  0  0  0  0  0  0  0  0
    4.5091    0.9463    0.7115 H   0  0  0  0  0  0  0  0  0  0  0  0
    5.0359    2.1577   -1.0104 C   0  0  0  0  0  0  0  0  0  0  0  0
    6.0212    2.4314   -0.6034 H   0  0  0  0  0  0  0  0  0  0  0  0
    4.6338    2.6355   -2.2683 C   0  0  0  0  0  0  0  0  0  0  0  0
    5.3039    3.2878   -2.8488 H   0  0  0  0  0  0  0  0  0  0  0  0
    3.3802    2.2747   -2.7869 C   0  0  0  0  0  0  0  0  0  0  0  0
    3.0654    2.6398   -3.7761 H   0  0  0  0  0  0  0  0  0  0  0  0
    2.5279    1.4352   -2.0547 C   0  0  0  0  0  0  0  0  0  0  0  0
    1.5549    1.1226   -2.4620 H   0  0  0  0  0  0  0  0  0  0  0  0
    2.7504   -1.3797    0.9852 C   0  0  0  0  0  0  0  0  0  0  0  0
    3.8568   -1.9358    0.3112 C   0  0  0  0  0  0  0  0  0  0  0  0
    4.1442   -1.5449   -0.6745 H   0  0  0  0  0  0  0  0  0  0  0  0
    4.5634   -3.0011    0.8869 C   0  0  0  0  0  0  0  0  0  0  0  0
    5.4256   -3.4299    0.3541 H   0  0  0  0  0  0  0  0  0  0  0  0
    4.1681   -3.5289    2.1263 C   0  0  0  0  0  0  0  0  0  0  0  0
    4.7235   -4.3683    2.5716 H   0  0  0  0  0  0  0  0  0  0  0  0
    3.0539   -2.9924    2.7902 C   0  0  0  0  0  0  0  0  0  0  0  0
    2.7288   -3.4110    3.7546 H   0  0  0  0  0  0  0  0  0  0  0  0
    2.3450   -1.9249    2.2207 C   0  0  0  0  0  0  0  0  0  0  0  0
    1.4598   -1.5285    2.7414 H   0  0  0  0  0  0  0  0  0  0  0  0
    1.4964    1.1251    1.6484 C   0  0  0  0  0  0  0  0  0  0  0  0
    0.9791    0.5921    2.4687 H   0  0  0  0  0  0  0  0  0  0  0  0
    2.5175    1.3452    2.0242 H   0  0  0  0  0  0  0  0  0  0  0  0
    0.7881    2.4264    1.2690 C   0  0  2  0  0  0  0  0  0  0  0  0
    1.1414    2.7337    0.2631 H   0  0  0  0  0  0  0  0  0  0  0  0
    1.1250    3.6069    2.2588 C   0  0  2  0  0  0  0  0  0  0  0  0
    2.1699    3.9595    2.1678 H   0  0  0  0  0  0  0  0  0  0  0  0
    0.6768    3.1626    3.6425 C   0  0  0  0  0  0  0  0  0  0  0  0
    1.3417    2.8069    4.4425 H   0  0  0  0  0  0  0  0  0  0  0  0
    0.0008    4.6010    1.9004 C   0  0  0  0  0  0  0  0  0  0  0  0
    0.0009    5.4999    2.5475 H   0  0  0  0  0  0  0  0  0  0  0  0
    0.0010    4.9041    0.8329 H   0  0  0  0  0  0  0  0  0  0  0  0
   -1.7574   -0.0376    0.2223 P   0  0  0  0  0  0  0  0  0  0  0  0
   -2.9245    0.9599   -0.7903 C   0  0  0  0  0  0  0  0  0  0  0  0
   -4.1833    1.3258   -0.2707 C   0  0  0  0  0  0  0  0  0  0  0  0
   -4.5094    0.9463    0.7106 H   0  0  0  0  0  0  0  0  0  0  0  0
   -5.0356    2.1580   -1.0112 C   0  0  0  0  0  0  0  0  0  0  0  0
   -6.0212    2.4314   -0.6046 H   0  0  0  0  0  0  0  0  0  0  0  0
   -4.6330    2.6362   -2.2689 C   0  0  0  0  0  0  0  0  0  0  0  0
   -5.3030    3.2885   -2.8495 H   0  0  0  0  0  0  0  0  0  0  0  0
   -3.3792    2.2756   -2.7870 C   0  0  0  0  0  0  0  0  0  0  0  0
   -3.0641    2.6409   -3.7760 H   0  0  0  0  0  0  0  0  0  0  0  0
   -2.5271    1.4361   -2.0546 C   0  0  0  0  0  0  0  0  0  0  0  0
   -1.5539    1.1236   -2.4616 H   0  0  0  0  0  0  0  0  0  0  0  0
   -2.7509   -1.3789    0.9853 C   0  0  0  0  0  0  0  0  0  0  0  0
   -3.8560   -1.9359    0.3099 C   0  0  0  0  0  0  0  0  0  0  0  0
   -4.1417   -1.5461   -0.6767 H   0  0  0  0  0  0  0  0  0  0  0  0
   -4.5633   -3.0009    0.8855 C   0  0  0  0  0  0  0  0  0  0  0  0
   -5.4244   -3.4304    0.3516 H   0  0  0  0  0  0  0  0  0  0  0  0
   -4.1700   -3.5273    2.1260 C   0  0  0  0  0  0  0  0  0  0  0  0
   -4.7260   -4.3663    2.5712 H   0  0  0  0  0  0  0  0  0  0  0  0
   -3.0572   -2.9897    2.7914 C   0  0  0  0  0  0  0  0  0  0  0  0
   -2.7337   -3.4072    3.7569 H   0  0  0  0  0  0  0  0  0  0  0  0
   -2.3477   -1.9225    2.2221 C   0  0  0  0  0  0  0  0  0  0  0  0
   -1.4637   -1.5252    2.7442 H   0  0  0  0  0  0  0  0  0  0  0  0
   -1.4961    1.1257    1.6482 C   0  0  0  0  0  0  0  0  0  0  0  0
   -0.9790    0.5926    2.4686 H   0  0  0  0  0  0  0  0  0  0  0  0
   -2.5172    1.3462    2.0239 H   0  0  0  0  0  0  0  0  0  0  0  0
   -0.7873    2.4267    1.2688 C   0  0  1  0  0  0  0  0  0  0  0  0
   -1.1402    2.7340    0.2628 H   0  0  0  0  0  0  0  0  0  0  0  0
   -1.1239    3.6073    2.2585 C   0  0  1  0  0  0  0  0  0  0  0  0
   -2.1687    3.9603    2.1673 H   0  0  0  0  0  0  0  0  0  0  0  0
   -0.6762    3.1628    3.6424 C   0  0  0  0  0  0  0  0  0  0  0  0
   -1.3414    2.8073    4.4422 H   0  0  0  0  0  0  0  0  0  0  0  0
  1 13  1  0  0  0  0
  1 24  1  0  0  0  0
  2  3  1  0  0  0  0
  2  1  1  0  0  0  0
  3  4  1  0  0  0  0
  5  6  1  0  0  0  0
  5  3  2  0  0  0  0
  7  5  1  0  0  0  0
  8  7  1  0  0  0  0
  9  7  2  0  0  0  0
  9 11  1  0  0  0  0
 10  9  1  0  0  0  0
 11  2  2  0  0  0  0
 12 11  1  0  0  0  0
 13 22  1  0  0  0  0
 14 16  1  0  0  0  0
 14 13  2  0  0  0  0
 15 14  1  0  0  0  0
 16 18  2  0  0  0  0
 17 16  1  0  0  0  0
 18 19  1  0  0  0  0
 18 20  1  0  0  0  0
 20 21  1  0  0  0  0
 22 23  1  0  0  0  0
 22 20  2  0  0  0  0
 24 26  1  0  0  0  0
 24 25  1  0  0  0  0
 27 28  1  6  0  0  0
 27 24  1  0  0  0  0
 27 29  1  0  0  0  0
 29 30  1  6  0  0  0
 29 31  1  0  0  0  0
 31 32  1  0  0  0  0
 33 64  1  0  0  0  0
 33 29  1  0  0  0  0
 33 34  1  0  0  0  0
 35 33  1  0  0  0  0
 36 48  1  0  0  0  0
 36 59  1  0  0  0  0
 37 38  1  0  0  0  0
 37 36  1  0  0  0  0
 38 39  1  0  0  0  0
 40 41  1  0  0  0  0
 40 38  2  0  0  0  0
 42 40  1  0  0  0  0
 43 42  1  0  0  0  0
 44 42  2  0  0  0  0
 44 46  1  0  0  0  0
 45 44  1  0  0  0  0
 46 37  2  0  0  0  0
 47 46  1  0  0  0  0
 48 57  1  0  0  0  0
 49 51  1  0  0  0  0
 49 48  2  0  0  0  0
 50 49  1  0  0  0  0
 51 53  2  0  0  0  0
 52 51  1  0  0  0  0
 53 54  1  0  0  0  0
 53 55  1  0  0  0  0
 55 56  1  0  0  0  0
 57 58  1  0  0  0  0
 57 55  2  0  0  0  0
 59 61  1  0  0  0  0
 59 60  1  0  0  0  0
 62 63  1  6  0  0  0
 62 27  1  0  0  0  0
 62 59  1  0  0  0  0
 62 64  1  0  0  0  0
 64 65  1  6  0  0  0
 64 66  1  0  0  0  0
 66 31  2  0  0  0  0
 66 67  1  0  0  0  0
M  END
