1,32
 OpenBabel05122313063D

 62 67  0  0  0  0  0  0  0  0999 V2000
   -1.6517   -0.5108    0.1161 P   0  0  0  0  0  0  0  0  0  0  0  0
   -2.9799    1.2334   -1.5643 O   0  0  0  0  0  0  0  0  0  0  0  0
    1.0849    3.7766    1.0661 O   0  0  0  0  0  0  0  0  0  0  0  0
   -3.2540   -1.7268    1.9732 O   0  0  0  0  0  0  0  0  0  0  0  0
   -2.1243    0.1592   -1.4904 C   0  0  0  0  0  0  0  0  0  0  0  0
   -1.7792   -0.2588   -2.7610 C   0  0  0  0  0  0  0  0  0  0  0  0
   -1.1131   -1.0977   -2.9911 H   0  0  0  0  0  0  0  0  0  0  0  0
   -2.4579    0.6166   -3.6674 C   0  0  0  0  0  0  0  0  0  0  0  0
   -2.4229    0.5955   -4.7619 H   0  0  0  0  0  0  0  0  0  0  0  0
   -3.1695    1.5002   -2.8854 C   0  0  0  0  0  0  0  0  0  0  0  0
   -3.8421    2.3347   -3.1101 H   0  0  0  0  0  0  0  0  0  0  0  0
   -1.1846    0.9277    1.1725 C   0  0  0  0  0  0  0  0  0  0  0  0
   -0.2581    1.8829    0.7003 C   0  0  0  0  0  0  0  0  0  0  0  0
    0.1924    2.8975    1.5894 C   0  0  0  0  0  0  0  0  0  0  0  0
   -0.2689    2.9398    2.9182 C   0  0  0  0  0  0  0  0  0  0  0  0
    0.0816    3.7178    3.6084 H   0  0  0  0  0  0  0  0  0  0  0  0
   -1.1764    1.9700    3.3657 C   0  0  0  0  0  0  0  0  0  0  0  0
   -1.5300    2.0007    4.4074 H   0  0  0  0  0  0  0  0  0  0  0  0
   -1.6360    0.9652    2.5079 C   0  0  0  0  0  0  0  0  0  0  0  0
   -2.3352    0.2042    2.8768 H   0  0  0  0  0  0  0  0  0  0  0  0
    1.5840    4.8097    1.8906 C   0  0  0  0  0  0  0  0  0  0  0  0
    0.7736    5.4841    2.2477 H   0  0  0  0  0  0  0  0  0  0  0  0
    2.2899    5.3908    1.2691 H   0  0  0  0  0  0  0  0  0  0  0  0
    2.1269    4.4057    2.7747 H   0  0  0  0  0  0  0  0  0  0  0  0
   -3.2440   -1.0738    0.7689 C   0  0  0  0  0  0  0  0  0  0  0  0
   -4.5264   -2.1549    2.1909 C   0  0  0  0  0  0  0  0  0  0  0  0
   -4.6899   -2.7049    3.1229 H   0  0  0  0  0  0  0  0  0  0  0  0
   -5.3447   -1.7817    1.1497 C   0  0  0  0  0  0  0  0  0  0  0  0
   -6.4149   -1.9940    1.0525 H   0  0  0  0  0  0  0  0  0  0  0  0
   -4.5120   -1.0772    0.2215 C   0  0  0  0  0  0  0  0  0  0  0  0
   -4.8008   -0.6361   -0.7372 H   0  0  0  0  0  0  0  0  0  0  0  0
    1.6504   -0.5139   -0.1173 P   0  0  0  0  0  0  0  0  0  0  0  0
    2.9832    1.2263    1.5635 O   0  0  0  0  0  0  0  0  0  0  0  0
   -1.0777    3.7801   -1.0620 O   0  0  0  0  0  0  0  0  0  0  0  0
    3.2469   -1.7343   -1.9762 O   0  0  0  0  0  0  0  0  0  0  0  0
    2.1258    0.1536    1.4895 C   0  0  0  0  0  0  0  0  0  0  0  0
    1.7810   -0.2649    2.7600 C   0  0  0  0  0  0  0  0  0  0  0  0
    1.1137   -1.1029    2.9898 H   0  0  0  0  0  0  0  0  0  0  0  0
    2.4619    0.6087    3.6665 C   0  0  0  0  0  0  0  0  0  0  0  0
    2.4277    0.5867    4.7610 H   0  0  0  0  0  0  0  0  0  0  0  0
    3.1743    1.4917    2.8847 C   0  0  0  0  0  0  0  0  0  0  0  0
    3.8485    2.3249    3.1095 H   0  0  0  0  0  0  0  0  0  0  0  0
    1.1862    0.9269   -1.1719 C   0  0  0  0  0  0  0  0  0  0  0  0
    0.2616    1.8833   -0.6985 C   0  0  0  0  0  0  0  0  0  0  0  0
   -0.1867    2.9000   -1.5863 C   0  0  0  0  0  0  0  0  0  0  0  0
    0.2749    2.9433   -2.9149 C   0  0  0  0  0  0  0  0  0  0  0  0
   -0.0739    3.7230   -3.6041 H   0  0  0  0  0  0  0  0  0  0  0  0
    1.1807    1.9723   -3.3635 C   0  0  0  0  0  0  0  0  0  0  0  0
    1.5346    2.0039   -4.4051 H   0  0  0  0  0  0  0  0  0  0  0  0
    1.6380    0.9655   -2.5071 C   0  0  0  0  0  0  0  0  0  0  0  0
    2.3358    0.2035   -2.8769 H   0  0  0  0  0  0  0  0  0  0  0  0
   -1.5748    4.8151   -1.8853 C   0  0  0  0  0  0  0  0  0  0  0  0
   -0.7632    5.4886   -2.2413 H   0  0  0  0  0  0  0  0  0  0  0  0
   -2.2799    5.3966   -1.2631 H   0  0  0  0  0  0  0  0  0  0  0  0
   -2.1183    4.4132   -2.7699 H   0  0  0  0  0  0  0  0  0  0  0  0
    3.2406   -1.0800   -0.7726 C   0  0  0  0  0  0  0  0  0  0  0  0
    4.5184   -2.1638   -2.1965 C   0  0  0  0  0  0  0  0  0  0  0  0
    4.6791   -2.7151   -3.1283 H   0  0  0  0  0  0  0  0  0  0  0  0
    5.3397   -1.7902   -1.1578 C   0  0  0  0  0  0  0  0  0  0  0  0
    6.4099   -2.0032   -1.0630 H   0  0  0  0  0  0  0  0  0  0  0  0
    4.5099   -1.0839   -0.2282 C   0  0  0  0  0  0  0  0  0  0  0  0
    4.8014   -0.6419    0.7292 H   0  0  0  0  0  0  0  0  0  0  0  0
  1 25  1  0  0  0  0
  1 12  1  0  0  0  0
  2  5  1  0  0  0  0
  3 14  1  0  0  0  0
  3 21  1  0  0  0  0
  4 26  1  0  0  0  0
  5  1  1  0  0  0  0
  6  5  2  0  0  0  0
  7  6  1  0  0  0  0
  8 10  2  0  0  0  0
  8  6  1  0  0  0  0
  9  8  1  0  0  0  0
 10  2  1  0  0  0  0
 11 10  1  0  0  0  0
 12 19  1  0  0  0  0
 13 12  2  0  0  0  0
 13 14  1  0  0  0  0
 14 15  2  0  0  0  0
 15 17  1  0  0  0  0
 15 16  1  0  0  0  0
 17 18  1  0  0  0  0
 19 20  1  0  0  0  0
 19 17  2  0  0  0  0
 21 22  1  0  0  0  0
 21 24  1  0  0  0  0
 23 21  1  0  0  0  0
 25  4  1  0  0  0  0
 26 27  1  0  0  0  0
 28 26  2  0  0  0  0
 29 28  1  0  0  0  0
 30 25  2  0  0  0  0
 30 28  1  0  0  0  0
 31 30  1  0  0  0  0
 32 36  1  0  0  0  0
 33 41  1  0  0  0  0
 35 56  1  0  0  0  0
 36 33  1  0  0  0  0
 36 37  2  0  0  0  0
 37 38  1  0  0  0  0
 37 39  1  0  0  0  0
 39 40  1  0  0  0  0
 41 42  1  0  0  0  0
 41 39  2  0  0  0  0
 43 44  1  0  0  0  0
 43 32  1  0  0  0  0
 44 13  1  0  0  0  0
 45 34  1  0  0  0  0
 45 44  2  0  0  0  0
 46 45  1  0  0  0  0
 47 46  1  0  0  0  0
 48 46  2  0  0  0  0
 48 50  1  0  0  0  0
 49 48  1  0  0  0  0
 50 43  2  0  0  0  0
 51 50  1  0  0  0  0
 52 54  1  0  0  0  0
 52 34  1  0  0  0  0
 53 52  1  0  0  0  0
 55 52  1  0  0  0  0
 56 61  2  0  0  0  0
 56 32  1  0  0  0  0
 57 35  1  0  0  0  0
 57 59  2  0  0  0  0
 58 57  1  0  0  0  0
 59 60  1  0  0  0  0
 59 61  1  0  0  0  0
 61 62  1  0  0  0  0
M  END
