1,2
 OpenBabel05122313063D

 44 43  0  0  0  0  0  0  0  0999 V2000
   -1.2945   -0.5309    0.2113 P   0  0  0  0  0  0  0  0  0  0  0  0
    1.3020   -0.3830    0.1812 P   0  0  0  0  0  0  0  0  0  0  0  0
    0.0698   -1.5704    0.4882 N   0  0  0  0  0  0  0  0  0  0  0  0
    0.1337   -2.5417    0.8119 H   0  0  0  0  0  0  0  0  0  0  0  0
   -2.2805   -0.5166    1.7927 C   0  0  0  0  0  0  0  0  0  0  0  0
   -2.3392   -1.5854    2.1035 H   0  0  0  0  0  0  0  0  0  0  0  0
   -1.4932    0.2779    2.8408 C   0  0  0  0  0  0  0  0  0  0  0  0
   -1.3660    1.3273    2.5052 H   0  0  0  0  0  0  0  0  0  0  0  0
   -0.4880   -0.1549    3.0130 H   0  0  0  0  0  0  0  0  0  0  0  0
   -2.0331    0.2797    3.8096 H   0  0  0  0  0  0  0  0  0  0  0  0
   -3.6913    0.0481    1.5856 C   0  0  0  0  0  0  0  0  0  0  0  0
   -4.2083    0.1269    2.5639 H   0  0  0  0  0  0  0  0  0  0  0  0
   -4.3123   -0.5953    0.9316 H   0  0  0  0  0  0  0  0  0  0  0  0
   -3.6361    1.0568    1.1284 H   0  0  0  0  0  0  0  0  0  0  0  0
   -2.3581   -1.3065   -1.0948 C   0  0  0  0  0  0  0  0  0  0  0  0
   -3.2460   -0.6385   -1.1056 H   0  0  0  0  0  0  0  0  0  0  0  0
   -1.6626   -1.1967   -2.4536 C   0  0  0  0  0  0  0  0  0  0  0  0
   -0.7269   -1.7922   -2.4749 H   0  0  0  0  0  0  0  0  0  0  0  0
   -1.4141   -0.1400   -2.6745 H   0  0  0  0  0  0  0  0  0  0  0  0
   -2.3251   -1.5798   -3.2566 H   0  0  0  0  0  0  0  0  0  0  0  0
   -2.7612   -2.7379   -0.7319 C   0  0  0  0  0  0  0  0  0  0  0  0
   -3.4081   -3.1667   -1.5250 H   0  0  0  0  0  0  0  0  0  0  0  0
   -3.3224   -2.7962    0.2222 H   0  0  0  0  0  0  0  0  0  0  0  0
   -1.8688   -3.3941   -0.6501 H   0  0  0  0  0  0  0  0  0  0  0  0
    2.3133   -0.2391    1.7400 C   0  0  0  0  0  0  0  0  0  0  0  0
    1.5594    0.1545    2.4564 H   0  0  0  0  0  0  0  0  0  0  0  0
    3.4158    0.8138    1.5747 C   0  0  0  0  0  0  0  0  0  0  0  0
    3.8641    1.0473    2.5621 H   0  0  0  0  0  0  0  0  0  0  0  0
    3.0140    1.7451    1.1251 H   0  0  0  0  0  0  0  0  0  0  0  0
    4.2338    0.4443    0.9216 H   0  0  0  0  0  0  0  0  0  0  0  0
    2.8323   -1.5871    2.2476 C   0  0  0  0  0  0  0  0  0  0  0  0
    3.5969   -2.0132    1.5662 H   0  0  0  0  0  0  0  0  0  0  0  0
    2.0203   -2.3327    2.3720 H   0  0  0  0  0  0  0  0  0  0  0  0
    3.3149   -1.4577    3.2387 H   0  0  0  0  0  0  0  0  0  0  0  0
    2.4596   -1.0421   -1.1370 C   0  0  0  0  0  0  0  0  0  0  0  0
    3.4677   -0.7534   -0.7664 H   0  0  0  0  0  0  0  0  0  0  0  0
    2.3821   -2.5680   -1.2539 C   0  0  0  0  0  0  0  0  0  0  0  0
    1.3719   -2.8900   -1.5784 H   0  0  0  0  0  0  0  0  0  0  0  0
    2.6166   -3.0861   -0.3024 H   0  0  0  0  0  0  0  0  0  0  0  0
    3.1066   -2.9233   -2.0156 H   0  0  0  0  0  0  0  0  0  0  0  0
    2.2097   -0.3286   -2.4709 C   0  0  0  0  0  0  0  0  0  0  0  0
    2.9703   -0.6400   -3.2168 H   0  0  0  0  0  0  0  0  0  0  0  0
    2.2471    0.7716   -2.3451 H   0  0  0  0  0  0  0  0  0  0  0  0
    1.2108   -0.5840   -2.8779 H   0  0  0  0  0  0  0  0  0  0  0  0
  1  3  1  0  0  0  0
  1  5  1  0  0  0  0
  2  3  1  0  0  0  0
  2 25  1  0  0  0  0
  3  4  1  0  0  0  0
  5  6  1  0  0  0  0
  5  7  1  0  0  0  0
  7  9  1  0  0  0  0
  7 10  1  0  0  0  0
  8  7  1  0  0  0  0
 11  5  1  0  0  0  0
 11 12  1  0  0  0  0
 13 11  1  0  0  0  0
 14 11  1  0  0  0  0
 15 21  1  0  0  0  0
 15  1  1  0  0  0  0
 16 15  1  0  0  0  0
 17 15  1  0  0  0  0
 18 17  1  0  0  0  0
 19 17  1  0  0  0  0
 20 17  1  0  0  0  0
 21 24  1  0  0  0  0
 21 23  1  0  0  0  0
 22 21  1  0  0  0  0
 25 31  1  0  0  0  0
 25 26  1  0  0  0  0
 27 25  1  0  0  0  0
 27 28  1  0  0  0  0
 29 27  1  0  0  0  0
 30 27  1  0  0  0  0
 31 33  1  0  0  0  0
 31 34  1  0  0  0  0
 32 31  1  0  0  0  0
 35 36  1  0  0  0  0
 35  2  1  0  0  0  0
 37 35  1  0  0  0  0
 37 39  1  0  0  0  0
 38 37  1  0  0  0  0
 40 37  1  0  0  0  0
 41 43  1  0  0  0  0
 41 35  1  0  0  0  0
 42 41  1  0  0  0  0
 44 41  1  0  0  0  0
M  END
