1,2
 OpenBabel05122313063D

 62 65  0  0  0  0  0  0  0  0999 V2000
   -1.0375   -1.0229   -0.1521 P   0  0  2  0  0  0  0  0  0  0  0  0
    0.5858    1.0663   -0.0124 P   0  0  0  0  0  0  0  0  0  0  0  0
   -0.1795    0.0459   -1.2170 N   0  0  0  0  0  0  0  0  0  0  0  0
   -0.6916   -2.6080   -0.7356 N   0  0  0  0  0  0  0  0  0  0  0  0
   -2.8320   -0.8652   -0.4311 C   0  0  0  0  0  0  0  0  0  0  0  0
   -3.4510   -1.2977   -1.6232 C   0  0  0  0  0  0  0  0  0  0  0  0
   -2.8577   -1.8166   -2.3915 H   0  0  0  0  0  0  0  0  0  0  0  0
   -4.8210   -1.0753   -1.8145 C   0  0  0  0  0  0  0  0  0  0  0  0
   -5.3054   -1.4085   -2.7449 H   0  0  0  0  0  0  0  0  0  0  0  0
   -5.5760   -0.4314   -0.8181 C   0  0  0  0  0  0  0  0  0  0  0  0
   -6.6522   -0.2599   -0.9718 H   0  0  0  0  0  0  0  0  0  0  0  0
   -4.9642   -0.0210    0.3767 C   0  0  0  0  0  0  0  0  0  0  0  0
   -5.5595    0.4625    1.1657 H   0  0  0  0  0  0  0  0  0  0  0  0
   -3.5923   -0.2384    0.5758 C   0  0  0  0  0  0  0  0  0  0  0  0
   -3.1008    0.0475    1.5202 H   0  0  0  0  0  0  0  0  0  0  0  0
    1.3055   -3.1066   -2.0745 C   0  0  0  0  0  0  0  0  0  0  0  0
    0.6717   -3.0248   -2.9700 H   0  0  0  0  0  0  0  0  0  0  0  0
    2.6725   -3.4130   -2.1743 C   0  0  0  0  0  0  0  0  0  0  0  0
    3.1264   -3.5744   -3.1640 H   0  0  0  0  0  0  0  0  0  0  0  0
    3.4562   -3.5118   -1.0126 C   0  0  0  0  0  0  0  0  0  0  0  0
    4.5282   -3.7485   -1.0904 H   0  0  0  0  0  0  0  0  0  0  0  0
    2.8722   -3.3047    0.2481 C   0  0  0  0  0  0  0  0  0  0  0  0
    3.4847   -3.3676    1.1598 H   0  0  0  0  0  0  0  0  0  0  0  0
    1.5053   -3.0079    0.3561 C   0  0  0  0  0  0  0  0  0  0  0  0
    1.0390   -2.8391    1.3410 H   0  0  0  0  0  0  0  0  0  0  0  0
    0.7212   -2.9058   -0.8114 C   0  0  0  0  0  0  0  0  0  0  0  0
   -0.4447    0.2545   -2.6581 C   0  0  0  0  0  0  0  0  0  0  0  0
    0.8425    0.5157   -3.4421 C   0  0  0  0  0  0  0  0  0  0  0  0
    1.3524    1.4315   -3.0807 H   0  0  0  0  0  0  0  0  0  0  0  0
    0.6046    0.6662   -4.5139 H   0  0  0  0  0  0  0  0  0  0  0  0
    1.5510   -0.3291   -3.3562 H   0  0  0  0  0  0  0  0  0  0  0  0
   -1.5000    1.3400   -2.9158 C   0  0  0  0  0  0  0  0  0  0  0  0
   -2.3987    1.1844   -2.2897 H   0  0  0  0  0  0  0  0  0  0  0  0
   -1.8122    1.3195   -3.9795 H   0  0  0  0  0  0  0  0  0  0  0  0
   -1.0997    2.3488   -2.6982 H   0  0  0  0  0  0  0  0  0  0  0  0
    2.3866    1.0951   -0.2383 C   0  0  0  0  0  0  0  0  0  0  0  0
    3.0523    0.0503   -0.9065 C   0  0  0  0  0  0  0  0  0  0  0  0
    2.4747   -0.7518   -1.3845 H   0  0  0  0  0  0  0  0  0  0  0  0
    4.4531    0.0249   -0.9376 C   0  0  0  0  0  0  0  0  0  0  0  0
    4.9654   -0.7936   -1.4649 H   0  0  0  0  0  0  0  0  0  0  0  0
    5.1927    1.0244   -0.2855 C   0  0  0  0  0  0  0  0  0  0  0  0
    6.2928    0.9995   -0.3079 H   0  0  0  0  0  0  0  0  0  0  0  0
    4.5282    2.0445    0.4152 C   0  0  0  0  0  0  0  0  0  0  0  0
    5.1044    2.8130    0.9519 H   0  0  0  0  0  0  0  0  0  0  0  0
    3.1277    2.0814    0.4503 C   0  0  0  0  0  0  0  0  0  0  0  0
    2.6097    2.8565    1.0339 H   0  0  0  0  0  0  0  0  0  0  0  0
   -0.0150    2.7724   -0.2466 C   0  0  0  0  0  0  0  0  0  0  0  0
    0.6618    3.7151   -1.0471 C   0  0  0  0  0  0  0  0  0  0  0  0
    1.6304    3.4587   -1.5023 H   0  0  0  0  0  0  0  0  0  0  0  0
    0.0966    4.9808   -1.2609 C   0  0  0  0  0  0  0  0  0  0  0  0
    0.6247    5.7165   -1.8862 H   0  0  0  0  0  0  0  0  0  0  0  0
   -1.1388    5.3084   -0.6779 C   0  0  0  0  0  0  0  0  0  0  0  0
   -1.5787    6.3030   -0.8469 H   0  0  0  0  0  0  0  0  0  0  0  0
   -1.8069    4.3742    0.1311 C   0  0  0  0  0  0  0  0  0  0  0  0
   -2.7666    4.6359    0.6011 H   0  0  0  0  0  0  0  0  0  0  0  0
   -1.2454    3.1098    0.3532 C   0  0  0  0  0  0  0  0  0  0  0  0
   -1.7507    2.3717    0.9959 H   0  0  0  0  0  0  0  0  0  0  0  0
   -1.4972   -3.7053   -0.1602 C   0  0  0  0  0  0  0  0  0  0  0  0
   -1.2981   -4.6239   -0.7464 H   0  0  0  0  0  0  0  0  0  0  0  0
   -2.5731   -3.4622   -0.2418 H   0  0  0  0  0  0  0  0  0  0  0  0
   -1.2639   -3.8830    0.9113 H   0  0  0  0  0  0  0  0  0  0  0  0
   -0.8537   -0.7221   -2.9993 H   0  0  0  0  0  0  0  0  0  0  0  0
  1  3  1  6  0  0  0
  3  2  1  0  0  0  0
  4 58  1  0  0  0  0
  4  1  1  0  0  0  0
  5  1  1  0  0  0  0
  5 14  1  0  0  0  0
  6  5  2  0  0  0  0
  7  6  1  0  0  0  0
  8  6  1  0  0  0  0
  8 10  2  0  0  0  0
  9  8  1  0  0  0  0
 10 12  1  0  0  0  0
 11 10  1  0  0  0  0
 12 14  2  0  0  0  0
 12 13  1  0  0  0  0
 14 15  1  0  0  0  0
 16 26  1  0  0  0  0
 17 16  1  0  0  0  0
 18 16  2  0  0  0  0
 18 20  1  0  0  0  0
 19 18  1  0  0  0  0
 20 22  2  0  0  0  0
 21 20  1  0  0  0  0
 22 24  1  0  0  0  0
 22 23  1  0  0  0  0
 24 25  1  0  0  0  0
 26  4  1  0  0  0  0
 26 24  2  0  0  0  0
 27  3  1  0  0  0  0
 28 31  1  0  0  0  0
 28 29  1  0  0  0  0
 28 27  1  0  0  0  0
 30 28  1  0  0  0  0
 32 35  1  0  0  0  0
 32 27  1  0  0  0  0
 32 33  1  0  0  0  0
 34 32  1  0  0  0  0
 36  2  1  0  0  0  0
 36 45  1  0  0  0  0
 37 36  2  0  0  0  0
 38 37  1  0  0  0  0
 39 37  1  0  0  0  0
 39 41  2  0  0  0  0
 40 39  1  0  0  0  0
 41 43  1  0  0  0  0
 42 41  1  0  0  0  0
 43 45  2  0  0  0  0
 43 44  1  0  0  0  0
 45 46  1  0  0  0  0
 47  2  1  0  0  0  0
 47 56  1  0  0  0  0
 48 47  2  0  0  0  0
 49 48  1  0  0  0  0
 50 48  1  0  0  0  0
 50 52  2  0  0  0  0
 51 50  1  0  0  0  0
 52 54  1  0  0  0  0
 53 52  1  0  0  0  0
 54 56  2  0  0  0  0
 54 55  1  0  0  0  0
 56 57  1  0  0  0  0
 58 61  1  0  0  0  0
 59 58  1  0  0  0  0
 60 58  1  0  0  0  0
 62 27  1  0  0  0  0
M  END
