1,2
 OpenBabel05122313063D

 79 80  0  0  0  0  0  0  0  0999 V2000
   -2.3356   -0.5536   -0.0203 P   0  0  0  0  0  0  0  0  0  0  0  0
    2.3356   -0.5535   -0.0203 P   0  0  0  0  0  0  0  0  0  0  0  0
   -0.0000    1.5771    0.6879 Si  0  0  0  0  0  3  0  0  0  0  0  0
   -2.6762    1.2608   -0.3478 C   0  0  0  0  0  0  0  0  0  0  0  0
   -3.9207    1.7248   -0.8276 C   0  0  0  0  0  0  0  0  0  0  0  0
   -4.1391    3.0873   -1.0778 C   0  0  0  0  0  0  0  0  0  0  0  0
   -3.1209    4.0164   -0.8207 C   0  0  0  0  0  0  0  0  0  0  0  0
   -1.8951    3.5689   -0.3085 C   0  0  0  0  0  0  0  0  0  0  0  0
   -1.6402    2.1994   -0.0813 C   0  0  0  0  0  0  0  0  0  0  0  0
    1.6402    2.1994   -0.0813 C   0  0  0  0  0  0  0  0  0  0  0  0
    1.8951    3.5689   -0.3084 C   0  0  0  0  0  0  0  0  0  0  0  0
    3.1208    4.0165   -0.8207 C   0  0  0  0  0  0  0  0  0  0  0  0
    4.1390    3.0874   -1.0779 C   0  0  0  0  0  0  0  0  0  0  0  0
    3.9206    1.7249   -0.8277 C   0  0  0  0  0  0  0  0  0  0  0  0
    2.6761    1.2608   -0.3478 C   0  0  0  0  0  0  0  0  0  0  0  0
   -0.0000    2.4398    2.3955 C   0  0  0  0  0  0  0  0  0  0  0  0
   -3.3847   -0.9287    1.5511 C   0  0  0  0  0  0  0  0  0  0  0  0
   -2.6901   -0.2105    2.7210 C   0  0  0  0  0  0  0  0  0  0  0  0
   -3.3508   -2.4451    1.8031 C   0  0  0  0  0  0  0  0  0  0  0  0
   -4.8336   -0.4168    1.4870 C   0  0  0  0  0  0  0  0  0  0  0  0
   -3.0361   -1.5223   -1.5460 C   0  0  0  0  0  0  0  0  0  0  0  0
   -4.5696   -1.6233   -1.6392 C   0  0  0  0  0  0  0  0  0  0  0  0
   -2.4913   -0.8020   -2.7944 C   0  0  0  0  0  0  0  0  0  0  0  0
   -2.4880   -2.9630   -1.5231 C   0  0  0  0  0  0  0  0  0  0  0  0
    3.3847   -0.9286    1.5511 C   0  0  0  0  0  0  0  0  0  0  0  0
    2.6901   -0.2104    2.7210 C   0  0  0  0  0  0  0  0  0  0  0  0
    4.8336   -0.4167    1.4870 C   0  0  0  0  0  0  0  0  0  0  0  0
    3.3509   -2.4450    1.8030 C   0  0  0  0  0  0  0  0  0  0  0  0
    3.0361   -1.5224   -1.5459 C   0  0  0  0  0  0  0  0  0  0  0  0
    4.5697   -1.6234   -1.6389 C   0  0  0  0  0  0  0  0  0  0  0  0
    2.4880   -2.9630   -1.5229 C   0  0  0  0  0  0  0  0  0  0  0  0
    2.4915   -0.8021   -2.7944 C   0  0  0  0  0  0  0  0  0  0  0  0
   -4.7403    1.0217   -1.0194 H   0  0  0  0  0  0  0  0  0  0  0  0
   -5.1120    3.4207   -1.4703 H   0  0  0  0  0  0  0  0  0  0  0  0
   -3.2853    5.0883   -1.0115 H   0  0  0  0  0  0  0  0  0  0  0  0
   -1.1125    4.3113   -0.0833 H   0  0  0  0  0  0  0  0  0  0  0  0
    1.1125    4.3113   -0.0831 H   0  0  0  0  0  0  0  0  0  0  0  0
    3.2853    5.0883   -1.0114 H   0  0  0  0  0  0  0  0  0  0  0  0
    5.1119    3.4208   -1.4704 H   0  0  0  0  0  0  0  0  0  0  0  0
    4.7402    1.0217   -1.0196 H   0  0  0  0  0  0  0  0  0  0  0  0
   -0.8980    2.1731    2.9869 H   0  0  0  0  0  0  0  0  0  0  0  0
    0.8979    2.1730    2.9869 H   0  0  0  0  0  0  0  0  0  0  0  0
    0.0000    3.5419    2.2567 H   0  0  0  0  0  0  0  0  0  0  0  0
   -3.2789   -0.3827    3.6468 H   0  0  0  0  0  0  0  0  0  0  0  0
   -1.6635   -0.5882    2.8810 H   0  0  0  0  0  0  0  0  0  0  0  0
   -2.6394    0.8841    2.5536 H   0  0  0  0  0  0  0  0  0  0  0  0
   -2.3130   -2.8330    1.7627 H   0  0  0  0  0  0  0  0  0  0  0  0
   -3.7593   -2.6565    2.8142 H   0  0  0  0  0  0  0  0  0  0  0  0
   -3.9688   -3.0057    1.0747 H   0  0  0  0  0  0  0  0  0  0  0  0
   -5.3436   -0.6881    2.4361 H   0  0  0  0  0  0  0  0  0  0  0  0
   -4.8741    0.6857    1.3967 H   0  0  0  0  0  0  0  0  0  0  0  0
   -5.4211   -0.8576    0.6628 H   0  0  0  0  0  0  0  0  0  0  0  0
   -4.8224   -2.1603   -2.5781 H   0  0  0  0  0  0  0  0  0  0  0  0
   -5.0032   -2.2100   -0.8072 H   0  0  0  0  0  0  0  0  0  0  0  0
   -5.0818   -0.6451   -1.6864 H   0  0  0  0  0  0  0  0  0  0  0  0
   -2.9103    0.2169   -2.9058 H   0  0  0  0  0  0  0  0  0  0  0  0
   -1.3879   -0.7196   -2.7587 H   0  0  0  0  0  0  0  0  0  0  0  0
   -2.7670   -1.3876   -3.6969 H   0  0  0  0  0  0  0  0  0  0  0  0
   -2.8622   -3.5440   -0.6598 H   0  0  0  0  0  0  0  0  0  0  0  0
   -2.8198   -3.4797   -2.4485 H   0  0  0  0  0  0  0  0  0  0  0  0
   -1.3833   -2.9761   -1.4874 H   0  0  0  0  0  0  0  0  0  0  0  0
    3.2788   -0.3825    3.6468 H   0  0  0  0  0  0  0  0  0  0  0  0
    2.6392    0.8842    2.5535 H   0  0  0  0  0  0  0  0  0  0  0  0
    1.6634   -0.5881    2.8810 H   0  0  0  0  0  0  0  0  0  0  0  0
    5.3436   -0.6880    2.4360 H   0  0  0  0  0  0  0  0  0  0  0  0
    5.4210   -0.8574    0.6627 H   0  0  0  0  0  0  0  0  0  0  0  0
    4.8740    0.6859    1.3967 H   0  0  0  0  0  0  0  0  0  0  0  0
    2.3130   -2.8329    1.7627 H   0  0  0  0  0  0  0  0  0  0  0  0
    3.9689   -3.0056    1.0747 H   0  0  0  0  0  0  0  0  0  0  0  0
    3.7593   -2.6564    2.8142 H   0  0  0  0  0  0  0  0  0  0  0  0
    5.0032   -2.2100   -0.8068 H   0  0  0  0  0  0  0  0  0  0  0  0
    4.8226   -2.1605   -2.5778 H   0  0  0  0  0  0  0  0  0  0  0  0
    5.0818   -0.6453   -1.6862 H   0  0  0  0  0  0  0  0  0  0  0  0
    2.8199   -3.4799   -2.4482 H   0  0  0  0  0  0  0  0  0  0  0  0
    2.8622   -3.5440   -0.6595 H   0  0  0  0  0  0  0  0  0  0  0  0
    1.3834   -2.9761   -1.4872 H   0  0  0  0  0  0  0  0  0  0  0  0
    2.7673   -1.3878   -3.6969 H   0  0  0  0  0  0  0  0  0  0  0  0
    1.3881   -0.7198   -2.7588 H   0  0  0  0  0  0  0  0  0  0  0  0
    2.9104    0.2168   -2.9058 H   0  0  0  0  0  0  0  0  0  0  0  0
  1 17  1  0  0  0  0
  2 25  1  0  0  0  0
  3 16  1  0  0  0  0
  4  9  1  0  0  0  0
  4  1  1  0  0  0  0
  5  4  2  0  0  0  0
  6  5  1  0  0  0  0
  6  7  2  0  0  0  0
  7  8  1  0  0  0  0
  8 36  1  0  0  0  0
  8  9  2  0  0  0  0
  9  3  1  0  0  0  0
 10  3  1  0  0  0  0
 11 37  1  0  0  0  0
 11 10  1  0  0  0  0
 12 11  2  0  0  0  0
 13 14  2  0  0  0  0
 13 12  1  0  0  0  0
 14 15  1  0  0  0  0
 15 10  2  0  0  0  0
 15  2  1  0  0  0  0
 16 41  1  0  0  0  0
 16 42  1  0  0  0  0
 17 19  1  0  0  0  0
 17 18  1  0  0  0  0
 18 45  1  0  0  0  0
 18 44  1  0  0  0  0
 19 48  1  0  0  0  0
 20 17  1  0  0  0  0
 20 50  1  0  0  0  0
 21 24  1  0  0  0  0
 21  1  1  0  0  0  0
 22 21  1  0  0  0  0
 22 54  1  0  0  0  0
 23 57  1  0  0  0  0
 23 21  1  0  0  0  0
 24 61  1  0  0  0  0
 24 59  1  0  0  0  0
 25 28  1  0  0  0  0
 25 26  1  0  0  0  0
 26 64  1  0  0  0  0
 26 62  1  0  0  0  0
 27 25  1  0  0  0  0
 27 65  1  0  0  0  0
 28 70  1  0  0  0  0
 29 31  1  0  0  0  0
 29  2  1  0  0  0  0
 30 29  1  0  0  0  0
 30 71  1  0  0  0  0
 31 76  1  0  0  0  0
 31 75  1  0  0  0  0
 32 78  1  0  0  0  0
 32 29  1  0  0  0  0
 33  5  1  0  0  0  0
 34  6  1  0  0  0  0
 35  7  1  0  0  0  0
 38 12  1  0  0  0  0
 39 13  1  0  0  0  0
 40 14  1  0  0  0  0
 43 16  1  0  0  0  0
 46 18  1  0  0  0  0
 47 19  1  0  0  0  0
 49 19  1  0  0  0  0
 51 20  1  0  0  0  0
 52 20  1  0  0  0  0
 53 22  1  0  0  0  0
 55 22  1  0  0  0  0
 56 23  1  0  0  0  0
 58 23  1  0  0  0  0
 60 24  1  0  0  0  0
 63 26  1  0  0  0  0
 66 27  1  0  0  0  0
 67 27  1  0  0  0  0
 68 28  1  0  0  0  0
 69 28  1  0  0  0  0
 72 30  1  0  0  0  0
 73 30  1  0  0  0  0
 74 31  1  0  0  0  0
 77 32  1  0  0  0  0
 79 32  1  0  0  0  0
M  END
