2
 OpenBabel05122313063D

 63 67  0  0  1  0  0  0  0  0999 V2000
   -1.4265    0.1851    0.1984 P   0  0  2  0  0  0  0  0  0  0  0  0
    1.4822    0.1546    0.1896 P   0  0  1  0  0  0  0  0  0  0  0  0
   -1.2684   -0.0194    2.0861 C   0  0  2  0  0  0  0  0  0  0  0  0
   -1.3528    1.0128    2.4897 H   0  0  0  0  0  0  0  0  0  0  0  0
    0.0827   -0.6518    2.4741 C   0  0  0  0  0  0  0  0  0  0  0  0
    0.0964   -1.6910    2.0797 H   0  0  0  0  0  0  0  0  0  0  0  0
    0.0906   -0.7370    3.5838 H   0  0  0  0  0  0  0  0  0  0  0  0
    1.3846    0.0503    2.0533 C   0  0  2  0  0  0  0  0  0  0  0  0
    2.2241   -0.6379    2.2988 H   0  0  0  0  0  0  0  0  0  0  0  0
   -0.6582    1.8175   -0.1910 C   0  0  0  0  0  0  0  0  0  0  0  0
   -1.6508    2.7729   -0.3320 C   0  0  0  0  0  0  0  0  0  0  0  0
   -3.0144    2.2186   -0.2734 C   0  0  0  0  0  0  0  0  0  0  0  0
   -3.1170    0.8557   -0.0210 C   0  0  0  0  0  0  0  0  0  0  0  0
    0.7704    1.7572   -0.3380 C   0  0  0  0  0  0  0  0  0  0  0  0
    1.7549    2.4674   -1.0129 C   0  0  0  0  0  0  0  0  0  0  0  0
    3.1050    1.8852   -0.8780 C   0  0  0  0  0  0  0  0  0  0  0  0
    3.1739    0.6694   -0.2097 C   0  0  0  0  0  0  0  0  0  0  0  0
   -2.4094   -0.8909    2.6262 C   0  0  0  0  0  0  0  0  0  0  0  0
   -2.4423   -1.8725    2.1104 H   0  0  0  0  0  0  0  0  0  0  0  0
   -3.3995   -0.4149    2.5127 H   0  0  0  0  0  0  0  0  0  0  0  0
   -2.2429   -1.0841    3.7061 H   0  0  0  0  0  0  0  0  0  0  0  0
   -1.4388    4.2517   -0.4954 C   0  0  0  0  0  0  0  0  0  0  0  0
   -0.4057    4.5432   -0.2382 H   0  0  0  0  0  0  0  0  0  0  0  0
   -2.1252    4.8168    0.1684 H   0  0  0  0  0  0  0  0  0  0  0  0
   -1.6480    4.6028   -1.5291 H   0  0  0  0  0  0  0  0  0  0  0  0
   -4.1902    3.1156   -0.5485 C   0  0  0  0  0  0  0  0  0  0  0  0
   -5.0953    2.5347   -0.8020 H   0  0  0  0  0  0  0  0  0  0  0  0
   -3.9689    3.8015   -1.3908 H   0  0  0  0  0  0  0  0  0  0  0  0
   -4.4353    3.7577    0.3252 H   0  0  0  0  0  0  0  0  0  0  0  0
   -4.3337    0.0577    0.1700 C   0  0  0  0  0  0  0  0  0  0  0  0
   -5.4558    0.5766    0.8682 C   0  0  0  0  0  0  0  0  0  0  0  0
   -5.4146    1.5895    1.2933 H   0  0  0  0  0  0  0  0  0  0  0  0
   -6.5988   -0.2070    1.0707 C   0  0  0  0  0  0  0  0  0  0  0  0
   -7.4542    0.2115    1.6230 H   0  0  0  0  0  0  0  0  0  0  0  0
   -6.6480   -1.5254    0.5878 C   0  0  0  0  0  0  0  0  0  0  0  0
   -7.5463   -2.1404    0.7501 H   0  0  0  0  0  0  0  0  0  0  0  0
   -5.5376   -2.0552   -0.0890 C   0  0  0  0  0  0  0  0  0  0  0  0
   -5.5571   -3.0899   -0.4640 H   0  0  0  0  0  0  0  0  0  0  0  0
   -4.3895   -1.2797   -0.2925 C   0  0  0  0  0  0  0  0  0  0  0  0
   -3.5215   -1.7138   -0.8225 H   0  0  0  0  0  0  0  0  0  0  0  0
    1.5181    3.6464   -1.9111 C   0  0  0  0  0  0  0  0  0  0  0  0
    0.4597    3.7121   -2.2152 H   0  0  0  0  0  0  0  0  0  0  0  0
    2.1277    3.5654   -2.8331 H   0  0  0  0  0  0  0  0  0  0  0  0
    1.8010    4.6089   -1.4317 H   0  0  0  0  0  0  0  0  0  0  0  0
    4.2920    2.5752   -1.4866 C   0  0  0  0  0  0  0  0  0  0  0  0
    5.1988    1.9461   -1.4438 H   0  0  0  0  0  0  0  0  0  0  0  0
    4.5110    3.5403   -0.9813 H   0  0  0  0  0  0  0  0  0  0  0  0
    4.0947    2.8184   -2.5511 H   0  0  0  0  0  0  0  0  0  0  0  0
    4.3431   -0.0690    0.2746 C   0  0  0  0  0  0  0  0  0  0  0  0
    5.4624    0.6125    0.8197 C   0  0  0  0  0  0  0  0  0  0  0  0
    5.4577    1.7112    0.8722 H   0  0  0  0  0  0  0  0  0  0  0  0
    6.5544   -0.0997    1.3308 C   0  0  0  0  0  0  0  0  0  0  0  0
    7.4106    0.4473    1.7545 H   0  0  0  0  0  0  0  0  0  0  0  0
    6.5515   -1.5046    1.3185 C   0  0  0  0  0  0  0  0  0  0  0  0
    7.4102   -2.0624    1.7221 H   0  0  0  0  0  0  0  0  0  0  0  0
    5.4419   -2.1906    0.7983 C   0  0  0  0  0  0  0  0  0  0  0  0
    5.4292   -3.2912    0.7839 H   0  0  0  0  0  0  0  0  0  0  0  0
    4.3442   -1.4869    0.2865 C   0  0  0  0  0  0  0  0  0  0  0  0
    3.4887   -2.0295   -0.1561 H   0  0  0  0  0  0  0  0  0  0  0  0
    1.6342    1.4057    2.7186 C   0  0  0  0  0  0  0  0  0  0  0  0
    0.8287    2.1306    2.4869 H   0  0  0  0  0  0  0  0  0  0  0  0
    2.5926    1.8476    2.3809 H   0  0  0  0  0  0  0  0  0  0  0  0
    1.6840    1.2870    3.8208 H   0  0  0  0  0  0  0  0  0  0  0  0
  1 10  1  1  0  0  0
  1  3  1  0  0  0  0
  2 14  1  1  0  0  0
  2  8  1  0  0  0  0
  3  5  1  0  0  0  0
  3  4  1  1  0  0  0
  3 18  1  0  0  0  0
  5  7  1  0  0  0  0
  6  5  1  0  0  0  0
  8  9  1  1  0  0  0
  8  5  1  0  0  0  0
  8 60  1  0  0  0  0
 11 12  1  0  0  0  0
 11 10  2  0  0  0  0
 12 13  2  0  0  0  0
 13 30  1  0  0  0  0
 13  1  1  0  0  0  0
 14 10  1  0  0  0  0
 15 16  1  0  0  0  0
 15 14  2  0  0  0  0
 16 17  2  0  0  0  0
 17  2  1  0  0  0  0
 17 49  1  0  0  0  0
 18 21  1  0  0  0  0
 19 18  1  0  0  0  0
 20 18  1  0  0  0  0
 22 11  1  0  0  0  0
 22 23  1  0  0  0  0
 22 24  1  0  0  0  0
 25 22  1  0  0  0  0
 26 12  1  0  0  0  0
 26 29  1  0  0  0  0
 27 26  1  0  0  0  0
 28 26  1  0  0  0  0
 30 31  1  0  0  0  0
 31 33  2  0  0  0  0
 31 32  1  0  0  0  0
 33 34  1  0  0  0  0
 35 36  1  0  0  0  0
 35 33  1  0  0  0  0
 37 35  2  0  0  0  0
 38 37  1  0  0  0  0
 39 37  1  0  0  0  0
 39 30  2  0  0  0  0
 40 39  1  0  0  0  0
 41 44  1  0  0  0  0
 41 15  1  0  0  0  0
 42 41  1  0  0  0  0
 43 41  1  0  0  0  0
 45 46  1  0  0  0  0
 45 47  1  0  0  0  0
 45 16  1  0  0  0  0
 48 45  1  0  0  0  0
 49 58  2  0  0  0  0
 49 50  1  0  0  0  0
 50 51  1  0  0  0  0
 50 52  2  0  0  0  0
 52 53  1  0  0  0  0
 54 52  1  0  0  0  0
 54 55  1  0  0  0  0
 56 54  2  0  0  0  0
 57 56  1  0  0  0  0
 58 56  1  0  0  0  0
 59 58  1  0  0  0  0
 60 63  1  0  0  0  0
 61 60  1  0  0  0  0
 62 60  1  0  0  0  0
M  END
