1,2
 OpenBabel05122313063D

 22 21  0  0  0  0  0  0  0  0999 V2000
    0.5977   -2.3066    1.1383 P   0  0  0  0  0  1  0  0  0  0  0  0
    2.3888   -1.7512    0.0846 P   0  0  0  0  0  0  0  0  0  0  0  0
    3.1555   -3.1506   -0.9254 C   0  0  0  0  0  0  0  0  0  0  0  0
    3.7823   -3.7457   -0.2234 H   0  0  0  0  0  0  0  0  0  0  0  0
    4.0488   -2.5308   -2.0101 C   0  0  0  0  0  0  0  0  0  0  0  0
    4.5651   -3.3206   -2.5994 H   0  0  0  0  0  0  0  0  0  0  0  0
    4.8298   -1.8682   -1.5829 H   0  0  0  0  0  0  0  0  0  0  0  0
    3.4334   -1.9218   -2.7037 H   0  0  0  0  0  0  0  0  0  0  0  0
    2.0821   -4.0601   -1.5248 C   0  0  0  0  0  0  0  0  0  0  0  0
    1.4225   -3.4867   -2.2078 H   0  0  0  0  0  0  0  0  0  0  0  0
    1.4389   -4.5000   -0.7375 H   0  0  0  0  0  0  0  0  0  0  0  0
    2.5543   -4.8816   -2.1065 H   0  0  0  0  0  0  0  0  0  0  0  0
    3.7765   -1.2718    1.2789 C   0  0  0  0  0  0  0  0  0  0  0  0
    4.6701   -1.1186    0.6314 H   0  0  0  0  0  0  0  0  0  0  0  0
    3.4235    0.0461    1.9716 C   0  0  0  0  0  0  0  0  0  0  0  0
    2.4716   -0.0582    2.5324 H   0  0  0  0  0  0  0  0  0  0  0  0
    3.2887    0.8755    1.2523 H   0  0  0  0  0  0  0  0  0  0  0  0
    4.2164    0.3339    2.6950 H   0  0  0  0  0  0  0  0  0  0  0  0
    4.0608   -2.3826    2.2940 C   0  0  0  0  0  0  0  0  0  0  0  0
    4.8739   -2.0842    2.9918 H   0  0  0  0  0  0  0  0  0  0  0  0
    4.3649   -3.3326    1.8088 H   0  0  0  0  0  0  0  0  0  0  0  0
    3.1476   -2.5864    2.8922 H   0  0  0  0  0  0  0  0  0  0  0  0
  2  1  1  0  0  0  0
  2 13  1  0  0  0  0
  3  4  1  0  0  0  0
  3  2  1  0  0  0  0
  5  7  1  0  0  0  0
  5  3  1  0  0  0  0
  6  5  1  0  0  0  0
  8  5  1  0  0  0  0
  9  3  1  0  0  0  0
  9 11  1  0  0  0  0
 10  9  1  0  0  0  0
 12  9  1  0  0  0  0
 13 15  1  0  0  0  0
 13 19  1  0  0  0  0
 14 13  1  0  0  0  0
 15 16  1  0  0  0  0
 15 18  1  0  0  0  0
 17 15  1  0  0  0  0
 19 22  1  0  0  0  0
 19 20  1  0  0  0  0
 21 19  1  0  0  0  0
M  END
