2,3
 OpenBabel05122313063D

 60 60  0  0  0  0  0  0  0  0999 V2000
    3.7140   -1.2328   -1.0726 S   0  0  0  0  0  0  0  0  0  0  0  0
   -1.4869   -1.3257    0.3217 P   0  0  0  0  0  0  0  0  0  0  0  0
    0.2176    1.4347    0.2570 P   0  0  0  0  0  0  0  0  0  0  0  0
    1.2251   -1.0963    0.9259 N   0  0  0  0  0  0  0  0  0  0  0  0
   -0.0071   -1.7016    1.4011 C   0  0  0  0  0  0  0  0  0  0  0  0
   -0.2534   -1.3936    2.4522 H   0  0  0  0  0  0  0  0  0  0  0  0
    0.1088   -2.8035    1.4135 H   0  0  0  0  0  0  0  0  0  0  0  0
    1.2969    0.3100    1.2889 C   0  0  0  0  0  0  0  0  0  0  0  0
    2.3407    0.6598    1.1599 H   0  0  0  0  0  0  0  0  0  0  0  0
    1.0285    0.4657    2.3680 H   0  0  0  0  0  0  0  0  0  0  0  0
   -1.4908   -2.7236   -0.9258 C   0  0  0  0  0  0  0  0  0  0  0  0
   -2.5196   -2.6371   -1.3335 H   0  0  0  0  0  0  0  0  0  0  0  0
   -0.5114   -2.4215   -2.0626 C   0  0  0  0  0  0  0  0  0  0  0  0
   -0.7702   -1.4585   -2.5416 H   0  0  0  0  0  0  0  0  0  0  0  0
   -0.5628   -3.2184   -2.8334 H   0  0  0  0  0  0  0  0  0  0  0  0
    0.5349   -2.3654   -1.6974 H   0  0  0  0  0  0  0  0  0  0  0  0
   -1.2765   -4.1125   -0.3199 C   0  0  0  0  0  0  0  0  0  0  0  0
   -0.2220   -4.2726   -0.0115 H   0  0  0  0  0  0  0  0  0  0  0  0
   -1.5040   -4.8883   -1.0803 H   0  0  0  0  0  0  0  0  0  0  0  0
   -1.9242   -4.3111    0.5576 H   0  0  0  0  0  0  0  0  0  0  0  0
   -2.8567   -1.6979    1.5621 C   0  0  0  0  0  0  0  0  0  0  0  0
   -2.3994   -2.4294    2.2674 H   0  0  0  0  0  0  0  0  0  0  0  0
   -4.1234   -2.3117    0.9603 C   0  0  0  0  0  0  0  0  0  0  0  0
   -4.5570   -1.6333    0.2002 H   0  0  0  0  0  0  0  0  0  0  0  0
   -4.8702   -2.4717    1.7659 H   0  0  0  0  0  0  0  0  0  0  0  0
   -3.9364   -3.2922    0.4808 H   0  0  0  0  0  0  0  0  0  0  0  0
   -3.1692   -0.3998    2.3182 C   0  0  0  0  0  0  0  0  0  0  0  0
   -2.2660    0.0524    2.7744 H   0  0  0  0  0  0  0  0  0  0  0  0
   -3.9007   -0.5917    3.1306 H   0  0  0  0  0  0  0  0  0  0  0  0
   -3.6046    0.3448    1.6211 H   0  0  0  0  0  0  0  0  0  0  0  0
    1.3554    1.8743   -1.1871 C   0  0  0  0  0  0  0  0  0  0  0  0
    2.3770    1.6360   -0.8163 H   0  0  0  0  0  0  0  0  0  0  0  0
    1.2951    3.3453   -1.6096 C   0  0  0  0  0  0  0  0  0  0  0  0
    0.2645    3.6187   -1.9095 H   0  0  0  0  0  0  0  0  0  0  0  0
    1.9675    3.4983   -2.4795 H   0  0  0  0  0  0  0  0  0  0  0  0
    1.6236    4.0380   -0.8107 H   0  0  0  0  0  0  0  0  0  0  0  0
    1.0280    0.9468   -2.3625 C   0  0  0  0  0  0  0  0  0  0  0  0
    1.1018   -0.1175   -2.0748 H   0  0  0  0  0  0  0  0  0  0  0  0
    1.7369    1.1258   -3.1980 H   0  0  0  0  0  0  0  0  0  0  0  0
   -0.0013    1.1430   -2.7265 H   0  0  0  0  0  0  0  0  0  0  0  0
    0.1295    2.9423    1.3624 C   0  0  0  0  0  0  0  0  0  0  0  0
   -0.2168    3.7208    0.6527 H   0  0  0  0  0  0  0  0  0  0  0  0
    1.4783    3.3396    1.9723 C   0  0  0  0  0  0  0  0  0  0  0  0
    1.8084    2.6249    2.7535 H   0  0  0  0  0  0  0  0  0  0  0  0
    1.3893    4.3326    2.4602 H   0  0  0  0  0  0  0  0  0  0  0  0
    2.2862    3.4136    1.2172 H   0  0  0  0  0  0  0  0  0  0  0  0
   -0.9697    2.7613    2.4131 C   0  0  0  0  0  0  0  0  0  0  0  0
   -1.9389    2.5559    1.9198 H   0  0  0  0  0  0  0  0  0  0  0  0
   -1.0749    3.6853    3.0189 H   0  0  0  0  0  0  0  0  0  0  0  0
   -0.7437    1.9310    3.1158 H   0  0  0  0  0  0  0  0  0  0  0  0
    2.4186   -1.8380    1.3510 C   0  0  0  0  0  0  0  0  0  0  0  0
    2.2357   -2.9094    1.1163 H   0  0  0  0  0  0  0  0  0  0  0  0
    2.5877   -1.7794    2.4586 H   0  0  0  0  0  0  0  0  0  0  0  0
    3.6639   -1.3624    0.6675 C   0  0  0  0  0  0  0  0  0  0  0  0
    4.8744   -0.9827    1.2225 C   0  0  0  0  0  0  0  0  0  0  0  0
    5.0538   -0.9829    2.3070 H   0  0  0  0  0  0  0  0  0  0  0  0
    5.8453   -0.5982    0.2456 C   0  0  0  0  0  0  0  0  0  0  0  0
    6.8635   -0.2629    0.4854 H   0  0  0  0  0  0  0  0  0  0  0  0
    5.3571   -0.6830   -1.0435 C   0  0  0  0  0  0  0  0  0  0  0  0
    5.8681   -0.4412   -1.9834 H   0  0  0  0  0  0  0  0  0  0  0  0
  1 59  1  0  0  0  0
  1 54  1  0  0  0  0
  2  5  1  0  0  0  0
  2 21  1  0  0  0  0
  3  8  1  0  0  0  0
  3 41  1  0  0  0  0
  4  8  1  0  0  0  0
  4 51  1  0  0  0  0
  4  5  1  0  0  0  0
  5  7  1  0  0  0  0
  5  6  1  0  0  0  0
  8 10  1  0  0  0  0
  9  8  1  0  0  0  0
 11 17  1  0  0  0  0
 11  2  1  0  0  0  0
 12 11  1  0  0  0  0
 13 16  1  0  0  0  0
 13 11  1  0  0  0  0
 14 13  1  0  0  0  0
 15 13  1  0  0  0  0
 17 18  1  0  0  0  0
 17 20  1  0  0  0  0
 19 17  1  0  0  0  0
 21 22  1  0  0  0  0
 21 27  1  0  0  0  0
 23 21  1  0  0  0  0
 23 25  1  0  0  0  0
 24 23  1  0  0  0  0
 26 23  1  0  0  0  0
 27 28  1  0  0  0  0
 27 29  1  0  0  0  0
 30 27  1  0  0  0  0
 31 32  1  0  0  0  0
 31  3  1  0  0  0  0
 33 31  1  0  0  0  0
 33 36  1  0  0  0  0
 34 33  1  0  0  0  0
 35 33  1  0  0  0  0
 37 38  1  0  0  0  0
 37 31  1  0  0  0  0
 39 37  1  0  0  0  0
 40 37  1  0  0  0  0
 41 43  1  0  0  0  0
 41 47  1  0  0  0  0
 42 41  1  0  0  0  0
 43 45  1  0  0  0  0
 43 44  1  0  0  0  0
 46 43  1  0  0  0  0
 47 49  1  0  0  0  0
 47 50  1  0  0  0  0
 48 47  1  0  0  0  0
 51 53  1  0  0  0  0
 52 51  1  0  0  0  0
 54 55  2  0  0  0  0
 54 51  1  0  0  0  0
 55 56  1  0  0  0  0
 57 58  1  0  0  0  0
 57 55  1  0  0  0  0
 59 57  2  0  0  0  0
 60 59  1  0  0  0  0
M  END
