1,2
 OpenBabel05122313063D

 59 62  0  0  0  0  0  0  0  0999 V2000
    1.4269    0.0074    0.2950 P   0  0  0  0  0  0  0  0  0  0  0  0
   -1.3858    0.0102    0.0855 P   0  0  0  0  0  0  0  0  0  0  0  0
   -0.0793    0.2928    1.4876 C   0  0  0  0  0  0  0  0  0  0  0  0
   -0.1805   -0.8818    2.4687 C   0  0  0  0  0  0  0  0  0  0  0  0
   -1.1140   -0.8048    3.0587 H   0  0  0  0  0  0  0  0  0  0  0  0
    0.6719   -0.8744    3.1754 H   0  0  0  0  0  0  0  0  0  0  0  0
   -0.1821   -1.8626    1.9554 H   0  0  0  0  0  0  0  0  0  0  0  0
   -0.0834    1.6484    2.2306 C   0  0  0  0  0  0  0  0  0  0  0  0
    0.7444    1.6149    2.9719 H   0  0  0  0  0  0  0  0  0  0  0  0
    0.1589    2.4633    1.5200 H   0  0  0  0  0  0  0  0  0  0  0  0
   -1.3557    2.0054    2.9471 C   0  0  0  0  0  0  0  0  0  0  0  0
   -2.1818    2.3620    2.3067 H   0  0  0  0  0  0  0  0  0  0  0  0
   -1.5337    1.9437    4.2790 C   0  0  0  0  0  0  0  0  0  0  0  0
   -0.7290    1.6025    4.9522 H   0  0  0  0  0  0  0  0  0  0  0  0
   -2.4864    2.2365    4.7472 H   0  0  0  0  0  0  0  0  0  0  0  0
    2.6954   -0.9371    1.2510 C   0  0  0  0  0  0  0  0  0  0  0  0
    3.2497   -2.0803    0.6422 C   0  0  0  0  0  0  0  0  0  0  0  0
    2.8987   -2.3817   -0.3555 H   0  0  0  0  0  0  0  0  0  0  0  0
    4.2412   -2.8268    1.2980 C   0  0  0  0  0  0  0  0  0  0  0  0
    4.6656   -3.7150    0.8066 H   0  0  0  0  0  0  0  0  0  0  0  0
    4.6834   -2.4446    2.5727 C   0  0  0  0  0  0  0  0  0  0  0  0
    5.4569   -3.0326    3.0896 H   0  0  0  0  0  0  0  0  0  0  0  0
    4.1343   -1.3083    3.1899 C   0  0  0  0  0  0  0  0  0  0  0  0
    4.4745   -1.0042    4.1915 H   0  0  0  0  0  0  0  0  0  0  0  0
    3.1504   -0.5568    2.5327 C   0  0  0  0  0  0  0  0  0  0  0  0
    2.7336    0.3288    3.0341 H   0  0  0  0  0  0  0  0  0  0  0  0
    2.2983    1.6201    0.0033 C   0  0  0  0  0  0  0  0  0  0  0  0
    2.5355    1.9758   -1.3406 C   0  0  0  0  0  0  0  0  0  0  0  0
    2.1848    1.3027   -2.1361 H   0  0  0  0  0  0  0  0  0  0  0  0
    3.2146    3.1606   -1.6633 C   0  0  0  0  0  0  0  0  0  0  0  0
    3.3872    3.4164   -2.7195 H   0  0  0  0  0  0  0  0  0  0  0  0
    3.6696    4.0091   -0.6438 C   0  0  0  0  0  0  0  0  0  0  0  0
    4.1974    4.9422   -0.8928 H   0  0  0  0  0  0  0  0  0  0  0  0
    3.4587    3.6558    0.6991 C   0  0  0  0  0  0  0  0  0  0  0  0
    3.8244    4.3089    1.5060 H   0  0  0  0  0  0  0  0  0  0  0  0
    2.7871    2.4685    1.0220 C   0  0  0  0  0  0  0  0  0  0  0  0
    2.6535    2.2106    2.0801 H   0  0  0  0  0  0  0  0  0  0  0  0
   -2.0781    1.6731   -0.3073 C   0  0  0  0  0  0  0  0  0  0  0  0
   -1.1940    2.6974   -0.7123 C   0  0  0  0  0  0  0  0  0  0  0  0
   -0.1130    2.5038   -0.7781 H   0  0  0  0  0  0  0  0  0  0  0  0
   -1.6826    3.9655   -1.0525 C   0  0  0  0  0  0  0  0  0  0  0  0
   -0.9768    4.7519   -1.3595 H   0  0  0  0  0  0  0  0  0  0  0  0
   -3.0626    4.2234   -1.0190 C   0  0  0  0  0  0  0  0  0  0  0  0
   -3.4466    5.2173   -1.2944 H   0  0  0  0  0  0  0  0  0  0  0  0
   -3.9498    3.2020   -0.6479 C   0  0  0  0  0  0  0  0  0  0  0  0
   -5.0344    3.3894   -0.6356 H   0  0  0  0  0  0  0  0  0  0  0  0
   -3.4641    1.9337   -0.2922 C   0  0  0  0  0  0  0  0  0  0  0  0
   -4.1699    1.1416   -0.0043 H   0  0  0  0  0  0  0  0  0  0  0  0
   -2.8079   -0.9179    0.8058 C   0  0  0  0  0  0  0  0  0  0  0  0
   -3.5109   -0.5052    1.9595 C   0  0  0  0  0  0  0  0  0  0  0  0
   -3.2151    0.4105    2.4893 H   0  0  0  0  0  0  0  0  0  0  0  0
   -4.5825   -1.2669    2.4457 C   0  0  0  0  0  0  0  0  0  0  0  0
   -5.1172   -0.9379    3.3499 H   0  0  0  0  0  0  0  0  0  0  0  0
   -4.9711   -2.4446    1.7853 C   0  0  0  0  0  0  0  0  0  0  0  0
   -5.8129   -3.0405    2.1698 H   0  0  0  0  0  0  0  0  0  0  0  0
   -4.2815   -2.8586    0.6365 C   0  0  0  0  0  0  0  0  0  0  0  0
   -4.5783   -3.7788    0.1114 H   0  0  0  0  0  0  0  0  0  0  0  0
   -3.2036   -2.1017    0.1513 C   0  0  0  0  0  0  0  0  0  0  0  0
   -2.6591   -2.4267   -0.7465 H   0  0  0  0  0  0  0  0  0  0  0  0
  1 16  1  0  0  0  0
  1  3  1  0  0  0  0
  2 49  1  0  0  0  0
  2  3  1  0  0  0  0
  3  8  1  0  0  0  0
  3  4  1  0  0  0  0
  4  5  1  0  0  0  0
  4  6  1  0  0  0  0
  7  4  1  0  0  0  0
  8 11  1  0  0  0  0
  8  9  1  0  0  0  0
 10  8  1  0  0  0  0
 11 13  2  0  0  0  0
 12 11  1  0  0  0  0
 13 15  1  0  0  0  0
 13 14  1  0  0  0  0
 16 25  1  0  0  0  0
 17 16  2  0  0  0  0
 17 19  1  0  0  0  0
 18 17  1  0  0  0  0
 19 21  2  0  0  0  0
 20 19  1  0  0  0  0
 21 22  1  0  0  0  0
 21 23  1  0  0  0  0
 23 24  1  0  0  0  0
 25 26  1  0  0  0  0
 25 23  2  0  0  0  0
 27  1  1  0  0  0  0
 27 36  1  0  0  0  0
 28 27  2  0  0  0  0
 29 28  1  0  0  0  0
 30 28  1  0  0  0  0
 30 32  2  0  0  0  0
 31 30  1  0  0  0  0
 32 34  1  0  0  0  0
 33 32  1  0  0  0  0
 34 36  2  0  0  0  0
 34 35  1  0  0  0  0
 36 37  1  0  0  0  0
 38 47  1  0  0  0  0
 38  2  1  0  0  0  0
 39 38  2  0  0  0  0
 40 39  1  0  0  0  0
 41 43  2  0  0  0  0
 41 39  1  0  0  0  0
 42 41  1  0  0  0  0
 43 45  1  0  0  0  0
 44 43  1  0  0  0  0
 45 46  1  0  0  0  0
 45 47  2  0  0  0  0
 47 48  1  0  0  0  0
 49 50  1  0  0  0  0
 50 52  2  0  0  0  0
 50 51  1  0  0  0  0
 52 53  1  0  0  0  0
 54 55  1  0  0  0  0
 54 52  1  0  0  0  0
 56 54  2  0  0  0  0
 57 56  1  0  0  0  0
 58 56  1  0  0  0  0
 58 49  2  0  0  0  0
 59 58  1  0  0  0  0
M  END
