1,2
 OpenBabel05122313063D

 58 61  0  0  0  0  0  0  0  0999 V2000
   -1.4121   -0.0252   -0.3136 P   0  0  0  0  0  0  0  0  0  0  0  0
    1.4083    0.0392   -0.2519 P   0  0  0  0  0  0  0  0  0  0  0  0
    0.0259    0.1018   -1.6141 C   0  0  0  0  0  0  0  0  0  0  0  0
    0.1095   -1.2114   -2.4052 C   0  0  0  0  0  0  0  0  0  0  0  0
    1.0458   -1.2517   -2.9946 H   0  0  0  0  0  0  0  0  0  0  0  0
   -0.7427   -1.3027   -3.1058 H   0  0  0  0  0  0  0  0  0  0  0  0
    0.0984   -2.1018   -1.7472 H   0  0  0  0  0  0  0  0  0  0  0  0
   -0.0453    1.3314   -2.5338 C   0  0  0  0  0  0  0  0  0  0  0  0
   -0.9423    1.1939   -3.1779 H   0  0  0  0  0  0  0  0  0  0  0  0
   -0.2506    2.2395   -1.9347 H   0  0  0  0  0  0  0  0  0  0  0  0
    1.1609    1.6031   -3.4336 C   0  0  0  0  0  0  0  0  0  0  0  0
    0.9410    2.4511   -4.1122 H   0  0  0  0  0  0  0  0  0  0  0  0
    1.4246    0.7326   -4.0664 H   0  0  0  0  0  0  0  0  0  0  0  0
    2.0492    1.8889   -2.8362 H   0  0  0  0  0  0  0  0  0  0  0  0
   -2.2998    1.6033   -0.2317 C   0  0  0  0  0  0  0  0  0  0  0  0
   -2.3989    2.2156    1.0342 C   0  0  0  0  0  0  0  0  0  0  0  0
   -1.9449    1.7149    1.9012 H   0  0  0  0  0  0  0  0  0  0  0  0
   -3.0723    3.4368    1.1930 C   0  0  0  0  0  0  0  0  0  0  0  0
   -3.1360    3.8954    2.1913 H   0  0  0  0  0  0  0  0  0  0  0  0
   -3.6620    4.0622    0.0853 C   0  0  0  0  0  0  0  0  0  0  0  0
   -4.1881    5.0216    0.2048 H   0  0  0  0  0  0  0  0  0  0  0  0
   -3.5902    3.4506   -1.1773 C   0  0  0  0  0  0  0  0  0  0  0  0
   -4.0636    3.9270   -2.0494 H   0  0  0  0  0  0  0  0  0  0  0  0
   -2.9224    2.2285   -1.3349 C   0  0  0  0  0  0  0  0  0  0  0  0
   -2.8992    1.7633   -2.3286 H   0  0  0  0  0  0  0  0  0  0  0  0
   -2.7110   -1.1181   -1.0448 C   0  0  0  0  0  0  0  0  0  0  0  0
   -3.2666   -2.1090   -0.2109 C   0  0  0  0  0  0  0  0  0  0  0  0
   -2.8939   -2.2174    0.8181 H   0  0  0  0  0  0  0  0  0  0  0  0
   -4.2858   -2.9498   -0.6842 C   0  0  0  0  0  0  0  0  0  0  0  0
   -4.7099   -3.7161   -0.0182 H   0  0  0  0  0  0  0  0  0  0  0  0
   -4.7554   -2.8171   -1.9991 C   0  0  0  0  0  0  0  0  0  0  0  0
   -5.5502   -3.4804   -2.3726 H   0  0  0  0  0  0  0  0  0  0  0  0
   -4.2052   -1.8358   -2.8400 C   0  0  0  0  0  0  0  0  0  0  0  0
   -4.5656   -1.7285   -3.8744 H   0  0  0  0  0  0  0  0  0  0  0  0
   -3.1935   -0.9891   -2.3658 C   0  0  0  0  0  0  0  0  0  0  0  0
   -2.7746   -0.2296   -3.0421 H   0  0  0  0  0  0  0  0  0  0  0  0
    2.0955    1.7444   -0.1183 C   0  0  0  0  0  0  0  0  0  0  0  0
    1.2122    2.8119    0.1556 C   0  0  0  0  0  0  0  0  0  0  0  0
    0.1338    2.6254    0.2646 H   0  0  0  0  0  0  0  0  0  0  0  0
    1.6988    4.1153    0.3186 C   0  0  0  0  0  0  0  0  0  0  0  0
    0.9925    4.9332    0.5266 H   0  0  0  0  0  0  0  0  0  0  0  0
    3.0771    4.3708    0.2367 C   0  0  0  0  0  0  0  0  0  0  0  0
    3.4599    5.3935    0.3729 H   0  0  0  0  0  0  0  0  0  0  0  0
    3.9645    3.3107   -0.0014 C   0  0  0  0  0  0  0  0  0  0  0  0
    5.0484    3.4968   -0.0471 H   0  0  0  0  0  0  0  0  0  0  0  0
    3.4806    2.0048   -0.1787 C   0  0  0  0  0  0  0  0  0  0  0  0
    4.1888    1.1835   -0.3574 H   0  0  0  0  0  0  0  0  0  0  0  0
    2.8065   -0.9708   -0.9116 C   0  0  0  0  0  0  0  0  0  0  0  0
    3.5182   -0.6532   -2.0901 C   0  0  0  0  0  0  0  0  0  0  0  0
    3.2618    0.2466   -2.6643 H   0  0  0  0  0  0  0  0  0  0  0  0
    4.5596   -1.4790   -2.5355 C   0  0  0  0  0  0  0  0  0  0  0  0
    5.1034   -1.2200   -3.4568 H   0  0  0  0  0  0  0  0  0  0  0  0
    4.9084   -2.6307   -1.8103 C   0  0  0  0  0  0  0  0  0  0  0  0
    5.7261   -3.2778   -2.1625 H   0  0  0  0  0  0  0  0  0  0  0  0
    4.2122   -2.9505   -0.6359 C   0  0  0  0  0  0  0  0  0  0  0  0
    4.4803   -3.8473   -0.0576 H   0  0  0  0  0  0  0  0  0  0  0  0
    3.1668   -2.1265   -0.1901 C   0  0  0  0  0  0  0  0  0  0  0  0
    2.6206   -2.3749    0.7309 H   0  0  0  0  0  0  0  0  0  0  0  0
  1 15  1  0  0  0  0
  2 37  1  0  0  0  0
  3  1  1  0  0  0  0
  3  2  1  0  0  0  0
  4  7  1  0  0  0  0
  4  3  1  0  0  0  0
  5  4  1  0  0  0  0
  6  4  1  0  0  0  0
  8 10  1  0  0  0  0
  8  3  1  0  0  0  0
  9  8  1  0  0  0  0
 11 14  1  0  0  0  0
 11  8  1  0  0  0  0
 12 11  1  0  0  0  0
 13 11  1  0  0  0  0
 15 16  1  0  0  0  0
 16 18  2  0  0  0  0
 16 17  1  0  0  0  0
 18 19  1  0  0  0  0
 20 21  1  0  0  0  0
 20 18  1  0  0  0  0
 22 20  2  0  0  0  0
 23 22  1  0  0  0  0
 24 22  1  0  0  0  0
 24 15  2  0  0  0  0
 25 24  1  0  0  0  0
 26  1  1  0  0  0  0
 26 27  1  0  0  0  0
 27 28  1  0  0  0  0
 29 27  2  0  0  0  0
 29 30  1  0  0  0  0
 31 29  1  0  0  0  0
 32 31  1  0  0  0  0
 33 35  1  0  0  0  0
 33 31  2  0  0  0  0
 34 33  1  0  0  0  0
 35 26  2  0  0  0  0
 36 35  1  0  0  0  0
 37 38  1  0  0  0  0
 38 39  1  0  0  0  0
 38 40  2  0  0  0  0
 40 41  1  0  0  0  0
 42 40  1  0  0  0  0
 42 43  1  0  0  0  0
 44 42  2  0  0  0  0
 45 44  1  0  0  0  0
 46 37  2  0  0  0  0
 46 44  1  0  0  0  0
 47 46  1  0  0  0  0
 48  2  1  0  0  0  0
 48 57  1  0  0  0  0
 49 48  2  0  0  0  0
 50 49  1  0  0  0  0
 51 49  1  0  0  0  0
 51 53  2  0  0  0  0
 52 51  1  0  0  0  0
 53 55  1  0  0  0  0
 54 53  1  0  0  0  0
 55 57  2  0  0  0  0
 55 56  1  0  0  0  0
 57 58  1  0  0  0  0
M  END
