1,2
 OpenBabel05122313063D

 35 36  0  0  0  0  0  0  0  0999 V2000
   -1.7027    0.7829   -0.1282 P   0  0  0  0  0  0  0  0  0  0  0  0
    1.7027    0.7829   -0.1282 P   0  0  0  0  0  0  0  0  0  0  0  0
   -3.1188    0.4378   -1.2951 C   0  0  0  0  0  0  0  0  0  0  0  0
   -3.2575    1.3281   -1.9437 H   0  0  0  0  0  0  0  0  0  0  0  0
   -2.8612   -0.4324   -1.9260 H   0  0  0  0  0  0  0  0  0  0  0  0
   -4.3397    0.1792   -0.3907 C   0  0  0  0  0  0  0  0  0  0  0  0
   -5.2904    0.3782   -0.9262 H   0  0  0  0  0  0  0  0  0  0  0  0
   -4.3270   -0.8908   -0.0989 H   0  0  0  0  0  0  0  0  0  0  0  0
   -4.1941    1.0452    0.8727 C   0  0  0  0  0  0  0  0  0  0  0  0
   -4.9501    0.7837    1.6414 H   0  0  0  0  0  0  0  0  0  0  0  0
   -4.3517    2.1184    0.6227 H   0  0  0  0  0  0  0  0  0  0  0  0
   -2.7665    0.8237    1.3969 C   0  0  0  0  0  0  0  0  0  0  0  0
   -2.6591   -0.1793    1.8556 H   0  0  0  0  0  0  0  0  0  0  0  0
   -2.4091    1.5866    2.1168 H   0  0  0  0  0  0  0  0  0  0  0  0
   -1.2839    2.5619   -0.4522 C   0  0  0  0  0  0  0  0  0  0  0  0
   -1.2053    2.6812   -1.5542 H   0  0  0  0  0  0  0  0  0  0  0  0
   -2.1625    3.1596   -0.1293 H   0  0  0  0  0  0  0  0  0  0  0  0
   -0.0000    3.0655    0.2225 C   0  0  0  0  0  0  0  0  0  0  0  0
    0.0000    2.7967    1.3025 H   0  0  0  0  0  0  0  0  0  0  0  0
   -0.0000    4.1756    0.1908 H   0  0  0  0  0  0  0  0  0  0  0  0
    1.2839    2.5619   -0.4522 C   0  0  0  0  0  0  0  0  0  0  0  0
    2.1625    3.1596   -0.1293 H   0  0  0  0  0  0  0  0  0  0  0  0
    1.2052    2.6811   -1.5542 H   0  0  0  0  0  0  0  0  0  0  0  0
    2.7664    0.8237    1.3970 C   0  0  0  0  0  0  0  0  0  0  0  0
    2.4090    1.5867    2.1168 H   0  0  0  0  0  0  0  0  0  0  0  0
    2.6591   -0.1793    1.8557 H   0  0  0  0  0  0  0  0  0  0  0  0
    4.1940    1.0452    0.8727 C   0  0  0  0  0  0  0  0  0  0  0  0
    4.3517    2.1185    0.6228 H   0  0  0  0  0  0  0  0  0  0  0  0
    4.9500    0.7838    1.6415 H   0  0  0  0  0  0  0  0  0  0  0  0
    4.3398    0.1792   -0.3906 C   0  0  0  0  0  0  0  0  0  0  0  0
    4.3270   -0.8908   -0.0988 H   0  0  0  0  0  0  0  0  0  0  0  0
    5.2904    0.3782   -0.9260 H   0  0  0  0  0  0  0  0  0  0  0  0
    3.1188    0.4378   -1.2950 C   0  0  0  0  0  0  0  0  0  0  0  0
    2.8613   -0.4324   -1.9260 H   0  0  0  0  0  0  0  0  0  0  0  0
    3.2575    1.3281   -1.9437 H   0  0  0  0  0  0  0  0  0  0  0  0
  1 12  1  0  0  0  0
  2 24  1  0  0  0  0
  3  6  1  0  0  0  0
  3  1  1  0  0  0  0
  4  3  1  0  0  0  0
  5  3  1  0  0  0  0
  6  8  1  0  0  0  0
  6  9  1  0  0  0  0
  7  6  1  0  0  0  0
  9 12  1  0  0  0  0
  9 10  1  0  0  0  0
 11  9  1  0  0  0  0
 12 13  1  0  0  0  0
 12 14  1  0  0  0  0
 15 17  1  0  0  0  0
 15  1  1  0  0  0  0
 15 18  1  0  0  0  0
 16 15  1  0  0  0  0
 18 19  1  0  0  0  0
 20 18  1  0  0  0  0
 21 22  1  0  0  0  0
 21  2  1  0  0  0  0
 21 18  1  0  0  0  0
 23 21  1  0  0  0  0
 24 26  1  0  0  0  0
 24 25  1  0  0  0  0
 27 24  1  0  0  0  0
 27 29  1  0  0  0  0
 28 27  1  0  0  0  0
 30 31  1  0  0  0  0
 30 27  1  0  0  0  0
 32 30  1  0  0  0  0
 33 30  1  0  0  0  0
 33  2  1  0  0  0  0
 34 33  1  0  0  0  0
 35 33  1  0  0  0  0
M  END
