1,2
 OpenBabel05122313063D

 62 66  0  0  1  0  0  0  0  0999 V2000
    1.5902    0.0679    0.3498 P   0  0  0  0  0  0  0  0  0  0  0  0
   -1.6353   -0.0319    0.2601 P   0  0  0  0  0  0  0  0  0  0  0  0
    1.5216   -0.7543    1.8429 N   0  0  0  0  0  0  0  0  0  0  0  0
    0.3995   -1.6529    2.1648 C   0  0  1  0  0  0  0  0  0  0  0  0
    0.9736   -2.6335    3.2163 C   0  0  0  0  0  0  0  0  0  0  0  0
    2.4974   -2.4623    3.1126 C   0  0  0  0  0  0  0  0  0  0  0  0
    2.6421   -0.9783    2.7621 C   0  0  0  0  0  0  0  0  0  0  0  0
    1.2924    1.8519    0.6714 C   0  0  0  0  0  0  0  0  0  0  0  0
    1.2738    2.3728    1.9774 C   0  0  0  0  0  0  0  0  0  0  0  0
    0.9914    3.7315    2.1852 C   0  0  0  0  0  0  0  0  0  0  0  0
    0.7243    4.5706    1.0915 C   0  0  0  0  0  0  0  0  0  0  0  0
    0.7354    4.0507   -0.2132 C   0  0  0  0  0  0  0  0  0  0  0  0
    1.0139    2.6936   -0.4258 C   0  0  0  0  0  0  0  0  0  0  0  0
    3.3588   -0.0327   -0.1060 C   0  0  0  0  0  0  0  0  0  0  0  0
    3.8897   -1.3008   -0.4286 C   0  0  0  0  0  0  0  0  0  0  0  0
    5.2514   -1.4307   -0.7273 C   0  0  0  0  0  0  0  0  0  0  0  0
    6.0865   -0.3000   -0.7247 C   0  0  0  0  0  0  0  0  0  0  0  0
    5.5579    0.9625   -0.4180 C   0  0  0  0  0  0  0  0  0  0  0  0
    4.1953    1.0989   -0.1064 C   0  0  0  0  0  0  0  0  0  0  0  0
   -2.2841    1.6400   -0.0748 C   0  0  0  0  0  0  0  0  0  0  0  0
   -2.4047    2.5982    0.9510 C   0  0  0  0  0  0  0  0  0  0  0  0
   -2.8481    3.8925    0.6409 C   0  0  0  0  0  0  0  0  0  0  0  0
   -3.1729    4.2310   -0.6817 C   0  0  0  0  0  0  0  0  0  0  0  0
   -3.0536    3.2716   -1.7016 C   0  0  0  0  0  0  0  0  0  0  0  0
   -2.6055    1.9769   -1.4071 C   0  0  0  0  0  0  0  0  0  0  0  0
   -3.0601   -1.1653    0.4322 C   0  0  0  0  0  0  0  0  0  0  0  0
   -4.2405   -0.6986    1.0452 C   0  0  0  0  0  0  0  0  0  0  0  0
   -5.2955   -1.5884    1.2942 C   0  0  0  0  0  0  0  0  0  0  0  0
   -5.1720   -2.9420    0.9393 C   0  0  0  0  0  0  0  0  0  0  0  0
   -3.9939   -3.4071    0.3326 C   0  0  0  0  0  0  0  0  0  0  0  0
   -2.9368   -2.5225    0.0746 C   0  0  0  0  0  0  0  0  0  0  0  0
   -0.8190   -0.8873    2.6939 C   0  0  0  0  0  0  0  0  0  0  0  0
   -1.2078    0.2055    1.8647 O   0  0  0  0  0  0  0  0  0  0  0  0
    0.1014   -2.1912    1.2361 H   0  0  0  0  0  0  0  0  0  0  0  0
    0.6360   -3.6729    3.0417 H   0  0  0  0  0  0  0  0  0  0  0  0
    0.6287   -2.3411    4.2319 H   0  0  0  0  0  0  0  0  0  0  0  0
    3.0323   -2.7483    4.0395 H   0  0  0  0  0  0  0  0  0  0  0  0
    2.9011   -3.0728    2.2784 H   0  0  0  0  0  0  0  0  0  0  0  0
    3.6058   -0.7275    2.2790 H   0  0  0  0  0  0  0  0  0  0  0  0
    2.5520   -0.3444    3.6773 H   0  0  0  0  0  0  0  0  0  0  0  0
    1.4606    1.7039    2.8304 H   0  0  0  0  0  0  0  0  0  0  0  0
    0.9723    4.1361    3.2088 H   0  0  0  0  0  0  0  0  0  0  0  0
    0.4924    5.6337    1.2576 H   0  0  0  0  0  0  0  0  0  0  0  0
    0.5043    4.7006   -1.0703 H   0  0  0  0  0  0  0  0  0  0  0  0
    0.9923    2.2717   -1.4436 H   0  0  0  0  0  0  0  0  0  0  0  0
    3.2275   -2.1778   -0.4604 H   0  0  0  0  0  0  0  0  0  0  0  0
    5.6612   -2.4195   -0.9825 H   0  0  0  0  0  0  0  0  0  0  0  0
    7.1545   -0.4049   -0.9694 H   0  0  0  0  0  0  0  0  0  0  0  0
    6.2082    1.8503   -0.4189 H   0  0  0  0  0  0  0  0  0  0  0  0
    3.7822    2.0883    0.1388 H   0  0  0  0  0  0  0  0  0  0  0  0
   -2.1262    2.3305    1.9791 H   0  0  0  0  0  0  0  0  0  0  0  0
   -2.9309    4.6442    1.4407 H   0  0  0  0  0  0  0  0  0  0  0  0
   -3.5174    5.2490   -0.9206 H   0  0  0  0  0  0  0  0  0  0  0  0
   -3.3048    3.5344   -2.7403 H   0  0  0  0  0  0  0  0  0  0  0  0
   -2.4910    1.2185   -2.1996 H   0  0  0  0  0  0  0  0  0  0  0  0
   -4.3349    0.3638    1.3182 H   0  0  0  0  0  0  0  0  0  0  0  0
   -6.2212   -1.2218    1.7631 H   0  0  0  0  0  0  0  0  0  0  0  0
   -6.0029   -3.6379    1.1319 H   0  0  0  0  0  0  0  0  0  0  0  0
   -3.9004   -4.4653    0.0457 H   0  0  0  0  0  0  0  0  0  0  0  0
   -2.0221   -2.8670   -0.4306 H   0  0  0  0  0  0  0  0  0  0  0  0
   -0.5752   -0.4268    3.6740 H   0  0  0  0  0  0  0  0  0  0  0  0
   -1.6709   -1.5911    2.8415 H   0  0  0  0  0  0  0  0  0  0  0  0
  1  8  1  0  0  0  0
  1  3  1  0  0  0  0
  2 26  1  0  0  0  0
  2 33  1  0  0  0  0
  3  4  1  0  0  0  0
  3  7  1  0  0  0  0
  4 34  1  6  0  0  0
  4 32  1  0  0  0  0
  4  5  1  0  0  0  0
  5 36  1  0  0  0  0
  6  5  1  0  0  0  0
  6 37  1  0  0  0  0
  7  6  1  0  0  0  0
  7 40  1  0  0  0  0
  8  9  1  0  0  0  0
  9 10  2  0  0  0  0
  9 41  1  0  0  0  0
 10 42  1  0  0  0  0
 11 43  1  0  0  0  0
 11 10  1  0  0  0  0
 12 11  2  0  0  0  0
 13 12  1  0  0  0  0
 13  8  2  0  0  0  0
 14  1  1  0  0  0  0
 15 14  2  0  0  0  0
 16 17  2  0  0  0  0
 16 15  1  0  0  0  0
 17 18  1  0  0  0  0
 18 19  2  0  0  0  0
 19 14  1  0  0  0  0
 19 50  1  0  0  0  0
 20  2  1  0  0  0  0
 20 21  1  0  0  0  0
 21 51  1  0  0  0  0
 22 21  2  0  0  0  0
 22 52  1  0  0  0  0
 23 22  1  0  0  0  0
 24 25  1  0  0  0  0
 24 23  2  0  0  0  0
 25 20  2  0  0  0  0
 26 27  1  0  0  0  0
 27 28  2  0  0  0  0
 27 56  1  0  0  0  0
 28 57  1  0  0  0  0
 29 58  1  0  0  0  0
 29 28  1  0  0  0  0
 30 29  2  0  0  0  0
 31 30  1  0  0  0  0
 31 26  2  0  0  0  0
 32 62  1  0  0  0  0
 32 61  1  0  0  0  0
 33 32  1  0  0  0  0
 35  5  1  0  0  0  0
 38  6  1  0  0  0  0
 39  7  1  0  0  0  0
 44 12  1  0  0  0  0
 45 13  1  0  0  0  0
 46 15  1  0  0  0  0
 47 16  1  0  0  0  0
 48 17  1  0  0  0  0
 49 18  1  0  0  0  0
 53 23  1  0  0  0  0
 54 24  1  0  0  0  0
 55 25  1  0  0  0  0
 59 30  1  0  0  0  0
 60 31  1  0  0  0  0
M  END
