1,2
 OpenBabel05122313063D

 66 70  0  0  0  0  0  0  0  0999 V2000
   -1.5854   -0.3331   -0.0030 P   0  0  0  0  0  0  0  0  0  0  0  0
    1.6063   -0.2771   -0.0047 P   0  0  0  0  0  0  0  0  0  0  0  0
   -0.0527    3.4182    0.0137 N   0  0  0  0  0  0  0  0  0  0  0  0
   -1.1654    2.5992   -0.0216 C   0  0  0  0  0  0  0  0  0  0  0  0
   -0.7340    1.2749   -0.0140 C   0  0  0  0  0  0  0  0  0  0  0  0
    0.7001    1.2996    0.0226 C   0  0  0  0  0  0  0  0  0  0  0  0
    1.0872    2.6388    0.0418 C   0  0  0  0  0  0  0  0  0  0  0  0
   -0.1218    4.9098    0.0211 C   0  0  0  0  0  0  0  0  0  0  0  0
   -0.8338    5.3697   -1.2639 C   0  0  0  0  0  0  0  0  0  0  0  0
   -0.9021    5.3536    1.2719 C   0  0  0  0  0  0  0  0  0  0  0  0
    1.2945    5.4966    0.0633 C   0  0  0  0  0  0  0  0  0  0  0  0
   -2.7547   -0.2941   -1.4126 C   0  0  0  0  0  0  0  0  0  0  0  0
   -3.9113    0.5102   -1.3634 C   0  0  0  0  0  0  0  0  0  0  0  0
   -4.7583    0.5837   -2.4788 C   0  0  0  0  0  0  0  0  0  0  0  0
   -4.4564   -0.1477   -3.6398 C   0  0  0  0  0  0  0  0  0  0  0  0
   -3.3110   -0.9585   -3.6827 C   0  0  0  0  0  0  0  0  0  0  0  0
   -2.4594   -1.0377   -2.5707 C   0  0  0  0  0  0  0  0  0  0  0  0
   -2.6379   -0.3213    1.4964 C   0  0  0  0  0  0  0  0  0  0  0  0
   -2.3825    0.5672    2.5597 C   0  0  0  0  0  0  0  0  0  0  0  0
   -3.1681    0.5131    3.7212 C   0  0  0  0  0  0  0  0  0  0  0  0
   -4.2046   -0.4274    3.8275 C   0  0  0  0  0  0  0  0  0  0  0  0
   -4.4491   -1.3231    2.7729 C   0  0  0  0  0  0  0  0  0  0  0  0
   -3.6681   -1.2797    1.6104 C   0  0  0  0  0  0  0  0  0  0  0  0
    2.6861   -0.1985   -1.4820 C   0  0  0  0  0  0  0  0  0  0  0  0
    3.7740   -1.0924   -1.5803 C   0  0  0  0  0  0  0  0  0  0  0  0
    4.5745   -1.0868   -2.7305 C   0  0  0  0  0  0  0  0  0  0  0  0
    4.2925   -0.2062   -3.7883 C   0  0  0  0  0  0  0  0  0  0  0  0
    3.1996    0.6700   -3.6977 C   0  0  0  0  0  0  0  0  0  0  0  0
    2.3942    0.6746   -2.5487 C   0  0  0  0  0  0  0  0  0  0  0  0
    2.7473   -0.2337    1.4281 C   0  0  0  0  0  0  0  0  0  0  0  0
    2.4708   -1.0346    2.5521 C   0  0  0  0  0  0  0  0  0  0  0  0
    3.2994   -0.9565    3.6816 C   0  0  0  0  0  0  0  0  0  0  0  0
    4.4036   -0.0896    3.6899 C   0  0  0  0  0  0  0  0  0  0  0  0
    4.6874    0.6999    2.5627 C   0  0  0  0  0  0  0  0  0  0  0  0
    3.8632    0.6279    1.4305 C   0  0  0  0  0  0  0  0  0  0  0  0
   -2.1793    3.0102   -0.0486 H   0  0  0  0  0  0  0  0  0  0  0  0
    2.0871    3.0776    0.0702 H   0  0  0  0  0  0  0  0  0  0  0  0
   -0.8864    6.4758   -1.2942 H   0  0  0  0  0  0  0  0  0  0  0  0
   -0.2852    5.0203   -2.1608 H   0  0  0  0  0  0  0  0  0  0  0  0
   -1.8684    4.9791   -1.3201 H   0  0  0  0  0  0  0  0  0  0  0  0
   -0.9562    6.4593    1.3139 H   0  0  0  0  0  0  0  0  0  0  0  0
   -0.4024    4.9923    2.1923 H   0  0  0  0  0  0  0  0  0  0  0  0
   -1.9385    4.9636    1.2662 H   0  0  0  0  0  0  0  0  0  0  0  0
    1.8398    5.1893    0.9772 H   0  0  0  0  0  0  0  0  0  0  0  0
    1.2242    6.6010    0.0692 H   0  0  0  0  0  0  0  0  0  0  0  0
    1.8881    5.2022   -0.8243 H   0  0  0  0  0  0  0  0  0  0  0  0
   -4.1595    1.0639   -0.4441 H   0  0  0  0  0  0  0  0  0  0  0  0
   -5.6641    1.2078   -2.4384 H   0  0  0  0  0  0  0  0  0  0  0  0
   -5.1258   -0.0938   -4.5120 H   0  0  0  0  0  0  0  0  0  0  0  0
   -3.0830   -1.5459   -4.5848 H   0  0  0  0  0  0  0  0  0  0  0  0
   -1.5769   -1.6952   -2.5790 H   0  0  0  0  0  0  0  0  0  0  0  0
   -1.5657    1.2999    2.4774 H   0  0  0  0  0  0  0  0  0  0  0  0
   -2.9660    1.2097    4.5492 H   0  0  0  0  0  0  0  0  0  0  0  0
   -4.8199   -0.4683    4.7392 H   0  0  0  0  0  0  0  0  0  0  0  0
   -5.2512   -2.0717    2.8591 H   0  0  0  0  0  0  0  0  0  0  0  0
   -3.8241   -2.0054    0.7983 H   0  0  0  0  0  0  0  0  0  0  0  0
    3.9628   -1.8073   -0.7660 H   0  0  0  0  0  0  0  0  0  0  0  0
    5.4218   -1.7852   -2.8045 H   0  0  0  0  0  0  0  0  0  0  0  0
    4.9232   -0.2086   -4.6904 H   0  0  0  0  0  0  0  0  0  0  0  0
    2.9688    1.3543   -4.5284 H   0  0  0  0  0  0  0  0  0  0  0  0
    1.5332    1.3562   -2.4782 H   0  0  0  0  0  0  0  0  0  0  0  0
    1.6220   -1.7344    2.5198 H   0  0  0  0  0  0  0  0  0  0  0  0
    3.0860   -1.5884    4.5568 H   0  0  0  0  0  0  0  0  0  0  0  0
    5.0551   -0.0362    4.5755 H   0  0  0  0  0  0  0  0  0  0  0  0
    5.5614    1.3690    2.5622 H   0  0  0  0  0  0  0  0  0  0  0  0
    4.0985    1.2286    0.5377 H   0  0  0  0  0  0  0  0  0  0  0  0
  1 18  1  0  0  0  0
  2  6  1  0  0  0  0
  2 30  1  0  0  0  0
  3  8  1  0  0  0  0
  3  7  1  0  0  0  0
  4  5  2  0  0  0  0
  4  3  1  0  0  0  0
  5  1  1  0  0  0  0
  5  6  1  0  0  0  0
  6  7  2  0  0  0  0
  7 37  1  0  0  0  0
  8 11  1  0  0  0  0
  8 10  1  0  0  0  0
  9  8  1  0  0  0  0
 10 41  1  0  0  0  0
 10 42  1  0  0  0  0
 11 45  1  0  0  0  0
 11 44  1  0  0  0  0
 12 13  1  0  0  0  0
 12  1  1  0  0  0  0
 13 47  1  0  0  0  0
 14 48  1  0  0  0  0
 14 13  2  0  0  0  0
 15 14  1  0  0  0  0
 16 15  2  0  0  0  0
 16 17  1  0  0  0  0
 17 12  2  0  0  0  0
 18 23  2  0  0  0  0
 18 19  1  0  0  0  0
 19 20  2  0  0  0  0
 20 21  1  0  0  0  0
 20 53  1  0  0  0  0
 21 54  1  0  0  0  0
 22 55  1  0  0  0  0
 22 21  2  0  0  0  0
 23 22  1  0  0  0  0
 24  2  1  0  0  0  0
 25 24  1  0  0  0  0
 25 57  1  0  0  0  0
 26 25  2  0  0  0  0
 27 28  2  0  0  0  0
 27 26  1  0  0  0  0
 28 29  1  0  0  0  0
 29 61  1  0  0  0  0
 29 24  2  0  0  0  0
 30 35  2  0  0  0  0
 30 31  1  0  0  0  0
 31 32  2  0  0  0  0
 32 33  1  0  0  0  0
 32 63  1  0  0  0  0
 33 64  1  0  0  0  0
 34 33  2  0  0  0  0
 35 34  1  0  0  0  0
 36  4  1  0  0  0  0
 38  9  1  0  0  0  0
 39  9  1  0  0  0  0
 40  9  1  0  0  0  0
 43 10  1  0  0  0  0
 46 11  1  0  0  0  0
 49 15  1  0  0  0  0
 50 16  1  0  0  0  0
 51 17  1  0  0  0  0
 52 19  1  0  0  0  0
 56 23  1  0  0  0  0
 58 26  1  0  0  0  0
 59 27  1  0  0  0  0
 60 28  1  0  0  0  0
 62 31  1  0  0  0  0
 65 34  1  0  0  0  0
 66 35  1  0  0  0  0
M  END
