1,2
 OpenBabel05122313063D

 55 57  0  0  0  0  0  0  0  0999 V2000
    1.5337   -0.3902   -0.6893 P   0  0  1  0  0  0  0  0  0  0  0  0
   -1.7892    0.1610   -0.6624 P   0  0  2  0  0  0  0  0  0  0  0  0
    2.1331    1.1753   -0.6635 O   0  0  0  0  0  0  0  0  0  0  0  0
    2.8622    4.0321   -0.3456 O   0  0  0  0  0  0  0  0  0  0  0  0
   -0.0002    3.8280    0.5215 O   0  0  0  0  0  0  0  0  0  0  0  0
   -1.8400    1.8432   -0.6397 O   0  0  0  0  0  0  0  0  0  0  0  0
    2.4627    1.7779    0.5933 C   0  0  0  0  0  0  0  0  0  0  0  0
    3.4197    2.9357    0.3496 C   0  0  0  0  0  0  0  0  0  0  0  0
    2.1320    4.9611    0.4331 C   0  0  0  0  0  0  0  0  0  0  0  0
    0.6507    5.0066    0.0967 C   0  0  0  0  0  0  0  0  0  0  0  0
   -1.4072    3.9182    0.4627 C   0  0  0  0  0  0  0  0  0  0  0  0
   -2.0193    2.5398    0.5908 C   0  0  0  0  0  0  0  0  0  0  0  0
   -1.4226    0.0304   -2.4722 C   0  0  0  0  0  0  0  0  0  0  0  0
   -0.0331    0.5223   -2.8913 C   0  0  0  0  0  0  0  0  0  0  0  0
    1.1279   -0.3952   -2.4943 C   0  0  0  0  0  0  0  0  0  0  0  0
    3.0908   -1.3864   -0.7101 C   0  0  0  0  0  0  0  0  0  0  0  0
    4.3229   -0.7638   -0.9971 C   0  0  0  0  0  0  0  0  0  0  0  0
    5.5025   -1.5213   -1.0429 C   0  0  0  0  0  0  0  0  0  0  0  0
    5.4602   -2.9065   -0.8170 C   0  0  0  0  0  0  0  0  0  0  0  0
    4.2337   -3.5326   -0.5442 C   0  0  0  0  0  0  0  0  0  0  0  0
    3.0540   -2.7760   -0.4834 C   0  0  0  0  0  0  0  0  0  0  0  0
   -3.5870   -0.2659   -0.6797 C   0  0  0  0  0  0  0  0  0  0  0  0
   -4.5341    0.7169   -1.0364 C   0  0  0  0  0  0  0  0  0  0  0  0
   -5.8988    0.3972   -1.0850 C   0  0  0  0  0  0  0  0  0  0  0  0
   -6.3278   -0.9073   -0.7908 C   0  0  0  0  0  0  0  0  0  0  0  0
   -5.3877   -1.8912   -0.4467 C   0  0  0  0  0  0  0  0  0  0  0  0
   -4.0228   -1.5720   -0.3845 C   0  0  0  0  0  0  0  0  0  0  0  0
    1.5399    2.1487    1.0827 H   0  0  0  0  0  0  0  0  0  0  0  0
    2.9577    1.0425    1.2689 H   0  0  0  0  0  0  0  0  0  0  0  0
    4.2756    2.5803   -0.2630 H   0  0  0  0  0  0  0  0  0  0  0  0
    3.8288    3.2540    1.3400 H   0  0  0  0  0  0  0  0  0  0  0  0
    2.2480    4.7575    1.5232 H   0  0  0  0  0  0  0  0  0  0  0  0
    2.5442    5.9794    0.2402 H   0  0  0  0  0  0  0  0  0  0  0  0
    0.5216    5.1530   -1.0041 H   0  0  0  0  0  0  0  0  0  0  0  0
    0.2156    5.9055    0.6034 H   0  0  0  0  0  0  0  0  0  0  0  0
   -1.7996    4.5719    1.2825 H   0  0  0  0  0  0  0  0  0  0  0  0
   -1.7391    4.3663   -0.5057 H   0  0  0  0  0  0  0  0  0  0  0  0
   -3.1054    2.6345    0.8206 H   0  0  0  0  0  0  0  0  0  0  0  0
   -1.5411    1.9898    1.4290 H   0  0  0  0  0  0  0  0  0  0  0  0
   -2.2153    0.6177   -2.9797 H   0  0  0  0  0  0  0  0  0  0  0  0
   -1.5795   -1.0358   -2.7427 H   0  0  0  0  0  0  0  0  0  0  0  0
    0.1436    1.5403   -2.4845 H   0  0  0  0  0  0  0  0  0  0  0  0
   -0.0262    0.6259   -3.9973 H   0  0  0  0  0  0  0  0  0  0  0  0
    0.9293   -1.4533   -2.7687 H   0  0  0  0  0  0  0  0  0  0  0  0
    2.0616   -0.0891   -3.0092 H   0  0  0  0  0  0  0  0  0  0  0  0
    4.3460    0.3197   -1.1873 H   0  0  0  0  0  0  0  0  0  0  0  0
    6.4618   -1.0261   -1.2587 H   0  0  0  0  0  0  0  0  0  0  0  0
    6.3866   -3.4998   -0.8520 H   0  0  0  0  0  0  0  0  0  0  0  0
    4.1938   -4.6179   -0.3664 H   0  0  0  0  0  0  0  0  0  0  0  0
    2.0984   -3.2707   -0.2566 H   0  0  0  0  0  0  0  0  0  0  0  0
   -4.1901    1.7341   -1.2785 H   0  0  0  0  0  0  0  0  0  0  0  0
   -6.6327    1.1717   -1.3562 H   0  0  0  0  0  0  0  0  0  0  0  0
   -7.3990   -1.1572   -0.8282 H   0  0  0  0  0  0  0  0  0  0  0  0
   -5.7178   -2.9151   -0.2153 H   0  0  0  0  0  0  0  0  0  0  0  0
   -3.2924   -2.3445   -0.1039 H   0  0  0  0  0  0  0  0  0  0  0  0
  1 16  1  6  0  0  0
  1  3  1  0  0  0  0
  2 22  1  6  0  0  0
  2  6  1  0  0  0  0
  3  7  1  0  0  0  0
  4  8  1  0  0  0  0
  4  9  1  0  0  0  0
  6 12  1  0  0  0  0
  7 28  1  0  0  0  0
  7 29  1  0  0  0  0
  8  7  1  0  0  0  0
  8 31  1  0  0  0  0
  9 32  1  0  0  0  0
 10  9  1  0  0  0  0
 10  5  1  0  0  0  0
 10 35  1  0  0  0  0
 11  5  1  0  0  0  0
 11 12  1  0  0  0  0
 11 36  1  0  0  0  0
 12 38  1  0  0  0  0
 12 39  1  0  0  0  0
 13  2  1  0  0  0  0
 14 15  1  0  0  0  0
 14 42  1  0  0  0  0
 14 13  1  0  0  0  0
 15  1  1  0  0  0  0
 16 21  1  0  0  0  0
 17 16  2  0  0  0  0
 18 17  1  0  0  0  0
 18 19  2  0  0  0  0
 19 20  1  0  0  0  0
 20 21  2  0  0  0  0
 20 49  1  0  0  0  0
 21 50  1  0  0  0  0
 22 27  1  0  0  0  0
 23 22  2  0  0  0  0
 24 23  1  0  0  0  0
 24 25  2  0  0  0  0
 25 26  1  0  0  0  0
 26 27  2  0  0  0  0
 26 54  1  0  0  0  0
 27 55  1  0  0  0  0
 30  8  1  0  0  0  0
 33  9  1  0  0  0  0
 34 10  1  0  0  0  0
 37 11  1  0  0  0  0
 40 13  1  0  0  0  0
 41 13  1  0  0  0  0
 43 14  1  0  0  0  0
 44 15  1  0  0  0  0
 45 15  1  0  0  0  0
 46 17  1  0  0  0  0
 47 18  1  0  0  0  0
 48 19  1  0  0  0  0
 51 23  1  0  0  0  0
 52 24  1  0  0  0  0
 53 25  1  0  0  0  0
M  END
