1,2
 OpenBabel05122313063D

 40 40  0  0  0  0  0  0  0  0999 V2000
    0.0105    1.7162    0.5575 P   0  0  0  0  0  0  0  0  0  0  0  0
   -0.6016   -1.7356    0.5174 P   0  0  0  0  0  0  0  0  0  0  0  0
    1.9379   -0.3854    1.5599 Si  0  0  0  0  0  0  0  0  0  0  0  0
    0.8988    2.5715   -0.5376 O   0  0  0  0  0  0  0  0  0  0  0  0
    1.9489    3.4517   -0.1199 C   0  0  0  0  0  0  0  0  0  0  0  0
   -0.5000    2.8803    1.6232 O   0  0  0  0  0  0  0  0  0  0  0  0
   -1.5623    3.7529    1.2355 C   0  0  0  0  0  0  0  0  0  0  0  0
    1.1420    1.1174    1.5953 O   0  0  0  0  0  0  0  0  0  0  0  0
   -0.0319   -2.9850   -0.4346 O   0  0  0  0  0  0  0  0  0  0  0  0
   -0.8617   -3.4919   -1.4825 C   0  0  0  0  0  0  0  0  0  0  0  0
   -1.5996   -2.5129    1.5694 O   0  0  0  0  0  0  0  0  0  0  0  0
   -1.1351   -3.6317    2.3351 C   0  0  0  0  0  0  0  0  0  0  0  0
    0.7759   -1.6120    1.4135 O   0  0  0  0  0  0  0  0  0  0  0  0
    3.0956   -0.4240    0.0944 C   0  0  0  0  0  0  0  0  0  0  0  0
    2.8604   -1.2571   -1.0215 C   0  0  0  0  0  0  0  0  0  0  0  0
    3.7102   -1.2117   -2.1374 C   0  0  0  0  0  0  0  0  0  0  0  0
    4.8142   -0.3459   -2.1491 C   0  0  0  0  0  0  0  0  0  0  0  0
    5.0733    0.4751   -1.0390 C   0  0  0  0  0  0  0  0  0  0  0  0
    4.2193    0.4359    0.0725 C   0  0  0  0  0  0  0  0  0  0  0  0
    2.7532   -0.5816    3.2179 C   0  0  0  0  0  0  0  0  0  0  0  0
    2.0267    4.2535   -0.8791 H   0  0  0  0  0  0  0  0  0  0  0  0
    2.9109    2.9011   -0.0733 H   0  0  0  0  0  0  0  0  0  0  0  0
    1.7313    3.9015    0.8708 H   0  0  0  0  0  0  0  0  0  0  0  0
   -1.6690    4.5012    2.0438 H   0  0  0  0  0  0  0  0  0  0  0  0
   -2.5216    3.2051    1.1253 H   0  0  0  0  0  0  0  0  0  0  0  0
   -1.3391    4.2787    0.2825 H   0  0  0  0  0  0  0  0  0  0  0  0
   -0.3481   -4.3831   -1.8910 H   0  0  0  0  0  0  0  0  0  0  0  0
   -0.9936   -2.7462   -2.2941 H   0  0  0  0  0  0  0  0  0  0  0  0
   -1.8624   -3.7926   -1.1063 H   0  0  0  0  0  0  0  0  0  0  0  0
   -2.0284   -4.1083    2.7804 H   0  0  0  0  0  0  0  0  0  0  0  0
   -0.4511   -3.2971    3.1419 H   0  0  0  0  0  0  0  0  0  0  0  0
   -0.6018   -4.3632    1.6933 H   0  0  0  0  0  0  0  0  0  0  0  0
    2.0021   -1.9462   -1.0196 H   0  0  0  0  0  0  0  0  0  0  0  0
    3.5044   -1.8552   -3.0061 H   0  0  0  0  0  0  0  0  0  0  0  0
    5.4787   -0.3107   -3.0261 H   0  0  0  0  0  0  0  0  0  0  0  0
    5.9434    1.1496   -1.0420 H   0  0  0  0  0  0  0  0  0  0  0  0
    4.4346    1.0877    0.9358 H   0  0  0  0  0  0  0  0  0  0  0  0
    3.2318   -1.5781    3.2947 H   0  0  0  0  0  0  0  0  0  0  0  0
    2.0058   -0.4787    4.0292 H   0  0  0  0  0  0  0  0  0  0  0  0
    3.5346    0.1906    3.3646 H   0  0  0  0  0  0  0  0  0  0  0  0
  1  8  1  0  0  0  0
  1  6  1  0  0  0  0
  2 13  1  0  0  0  0
  2 11  1  0  0  0  0
  3  8  1  0  0  0  0
  3 20  1  0  0  0  0
  4  5  1  0  0  0  0
  4  1  1  0  0  0  0
  5 22  1  0  0  0  0
  5 23  1  0  0  0  0
  7  6  1  0  0  0  0
  7 24  1  0  0  0  0
  9  2  1  0  0  0  0
 10 29  1  0  0  0  0
 10  9  1  0  0  0  0
 11 12  1  0  0  0  0
 12 30  1  0  0  0  0
 12 31  1  0  0  0  0
 13  3  1  0  0  0  0
 14  3  1  0  0  0  0
 15 33  1  0  0  0  0
 15 14  2  0  0  0  0
 16 15  1  0  0  0  0
 17 16  2  0  0  0  0
 17 18  1  0  0  0  0
 18 19  2  0  0  0  0
 19 14  1  0  0  0  0
 19 37  1  0  0  0  0
 20 38  1  0  0  0  0
 20 40  1  0  0  0  0
 20 39  1  0  0  0  0
 21  5  1  0  0  0  0
 25  7  1  0  0  0  0
 26  7  1  0  0  0  0
 27 10  1  0  0  0  0
 28 10  1  0  0  0  0
 32 12  1  0  0  0  0
 34 16  1  0  0  0  0
 35 17  1  0  0  0  0
 36 18  1  0  0  0  0
M  END
