63,64
 OpenBabel05122313063D

 64 67  0  0  1  0  0  0  0  0999 V2000
    0.9666   -2.0047   -1.0715 C   0  0  0  0  0  0  0  0  0  0  0  0
    0.4352   -3.1412   -0.4191 C   0  0  0  0  0  0  0  0  0  0  0  0
    0.3059   -3.1228    0.6765 H   0  0  0  0  0  0  0  0  0  0  0  0
    0.0644   -4.2682   -1.1641 C   0  0  0  0  0  0  0  0  0  0  0  0
   -0.3547   -5.1443   -0.6469 H   0  0  0  0  0  0  0  0  0  0  0  0
    0.2090   -4.2735   -2.5620 C   0  0  0  0  0  0  0  0  0  0  0  0
   -0.0968   -5.1549   -3.1460 H   0  0  0  0  0  0  0  0  0  0  0  0
    0.7461   -3.1522   -3.2126 C   0  0  0  0  0  0  0  0  0  0  0  0
    0.8695   -3.1522   -4.3062 H   0  0  0  0  0  0  0  0  0  0  0  0
    1.1314   -2.0224   -2.4706 C   0  0  0  0  0  0  0  0  0  0  0  0
    1.5554   -1.1562   -2.9999 H   0  0  0  0  0  0  0  0  0  0  0  0
    2.9971   -0.9722    0.7123 C   0  0  0  0  0  0  0  0  0  0  0  0
    3.8986   -1.7686   -0.0212 C   0  0  0  0  0  0  0  0  0  0  0  0
    3.5865   -2.2226   -0.9738 H   0  0  0  0  0  0  0  0  0  0  0  0
    5.1950   -1.9921    0.4689 C   0  0  0  0  0  0  0  0  0  0  0  0
    5.8938   -2.6195   -0.1050 H   0  0  0  0  0  0  0  0  0  0  0  0
    5.5937   -1.4230    1.6881 C   0  0  0  0  0  0  0  0  0  0  0  0
    6.6090   -1.6028    2.0734 H   0  0  0  0  0  0  0  0  0  0  0  0
    4.6932   -0.6332    2.4221 C   0  0  0  0  0  0  0  0  0  0  0  0
    4.9977   -0.1986    3.3860 H   0  0  0  0  0  0  0  0  0  0  0  0
    3.3948   -0.4105    1.9433 C   0  0  0  0  0  0  0  0  0  0  0  0
    2.6738    0.1739    2.5318 H   0  0  0  0  0  0  0  0  0  0  0  0
    1.7156    0.8884   -1.1220 C   0  0  2  0  0  0  0  0  0  0  0  0
    2.1334    0.4475   -2.0523 H   0  0  0  0  0  0  0  0  0  0  0  0
    2.8071    1.7962   -0.5435 C   0  0  0  0  0  0  0  0  0  0  0  0
    3.6850    1.2045   -0.2084 H   0  0  0  0  0  0  0  0  0  0  0  0
    2.4581    2.3512    0.3512 H   0  0  0  0  0  0  0  0  0  0  0  0
    3.3325    2.7720   -1.5798 C   0  0  0  0  0  0  0  0  0  0  0  0
    4.5166    4.7860   -1.8836 C   0  0  0  0  0  0  0  0  0  0  0  0
    4.9415    5.5813   -1.2462 H   0  0  0  0  0  0  0  0  0  0  0  0
    3.7579    5.2060   -2.5741 H   0  0  0  0  0  0  0  0  0  0  0  0
    5.3122    4.3098   -2.4913 H   0  0  0  0  0  0  0  0  0  0  0  0
    0.4723    1.7257   -1.4881 C   0  0  0  0  0  0  0  0  0  0  0  0
    0.2569    2.4280   -0.6516 H   0  0  0  0  0  0  0  0  0  0  0  0
    0.7568    2.3564   -2.3544 H   0  0  0  0  0  0  0  0  0  0  0  0
   -0.8005    0.9408   -1.8268 C   0  0  0  0  0  0  0  0  0  0  0  0
   -0.5735    0.0071   -2.3772 H   0  0  0  0  0  0  0  0  0  0  0  0
   -1.4806    1.5371   -2.4668 H   0  0  0  0  0  0  0  0  0  0  0  0
   -2.5489    2.1239    0.1024 C   0  0  0  0  0  0  0  0  0  0  0  0
   -2.1969    2.8416    1.2615 C   0  0  0  0  0  0  0  0  0  0  0  0
   -1.5019    2.3880    1.9835 H   0  0  0  0  0  0  0  0  0  0  0  0
   -2.7660    4.1013    1.5024 C   0  0  0  0  0  0  0  0  0  0  0  0
   -2.4902    4.6571    2.4112 H   0  0  0  0  0  0  0  0  0  0  0  0
   -3.6940    4.6425    0.5990 C   0  0  0  0  0  0  0  0  0  0  0  0
   -4.1448    5.6272    0.7956 H   0  0  0  0  0  0  0  0  0  0  0  0
   -4.0550    3.9235   -0.5525 C   0  0  0  0  0  0  0  0  0  0  0  0
   -4.7894    4.3406   -1.2582 H   0  0  0  0  0  0  0  0  0  0  0  0
   -3.4821    2.6686   -0.8044 C   0  0  0  0  0  0  0  0  0  0  0  0
   -3.7755    2.1043   -1.7038 H   0  0  0  0  0  0  0  0  0  0  0  0
   -3.0350   -0.6361   -0.8098 C   0  0  0  0  0  0  0  0  0  0  0  0
   -4.3315   -0.5574   -0.2601 C   0  0  0  0  0  0  0  0  0  0  0  0
   -4.5674    0.2324    0.4667 H   0  0  0  0  0  0  0  0  0  0  0  0
   -5.3015   -1.5022   -0.6224 C   0  0  0  0  0  0  0  0  0  0  0  0
   -6.3116   -1.4345   -0.1909 H   0  0  0  0  0  0  0  0  0  0  0  0
   -4.9850   -2.5377   -1.5165 C   0  0  0  0  0  0  0  0  0  0  0  0
   -5.7489   -3.2805   -1.7925 H   0  0  0  0  0  0  0  0  0  0  0  0
   -3.6891   -2.6306   -2.0475 C   0  0  0  0  0  0  0  0  0  0  0  0
   -3.4264   -3.4478   -2.7363 H   0  0  0  0  0  0  0  0  0  0  0  0
   -2.7141   -1.6866   -1.6951 C   0  0  0  0  0  0  0  0  0  0  0  0
   -1.6975   -1.7908   -2.1014 H   0  0  0  0  0  0  0  0  0  0  0  0
    3.2768    2.6152   -2.7873 O   0  0  0  0  0  0  0  0  0  0  0  0
    3.9201    3.8363   -0.9892 O   0  0  0  0  0  0  0  0  0  0  0  0
   -1.7294    0.5262   -0.2708 P   0  0  0  0  0  0  0  0  0  0  0  0
    1.3463   -0.5673    0.0204 P   0  0  0  0  0  0  0  0  0  0  0  0
  1  2  1  0  0  0  0
  1 64  1  0  0  0  0
  2  3  1  0  0  0  0
  4  5  1  0  0  0  0
  4  2  2  0  0  0  0
  6  4  1  0  0  0  0
  7  6  1  0  0  0  0
  8  6  2  0  0  0  0
  8 10  1  0  0  0  0
  9  8  1  0  0  0  0
 10  1  2  0  0  0  0
 11 10  1  0  0  0  0
 12 21  1  0  0  0  0
 13 15  1  0  0  0  0
 13 12  2  0  0  0  0
 14 13  1  0  0  0  0
 15 17  2  0  0  0  0
 16 15  1  0  0  0  0
 17 18  1  0  0  0  0
 17 19  1  0  0  0  0
 19 20  1  0  0  0  0
 21 19  2  0  0  0  0
 21 22  1  0  0  0  0
 23 24  1  6  0  0  0
 23 25  1  0  0  0  0
 23 64  1  0  0  0  0
 25 26  1  0  0  0  0
 25 27  1  0  0  0  0
 28 62  1  0  0  0  0
 28 25  1  0  0  0  0
 29 30  1  0  0  0  0
 29 62  1  0  0  0  0
 31 29  1  0  0  0  0
 32 29  1  0  0  0  0
 33 23  1  0  0  0  0
 33 34  1  0  0  0  0
 35 33  1  0  0  0  0
 36 33  1  0  0  0  0
 36 63  1  0  0  0  0
 37 36  1  0  0  0  0
 38 36  1  0  0  0  0
 39 40  1  0  0  0  0
 40 42  2  0  0  0  0
 40 41  1  0  0  0  0
 42 43  1  0  0  0  0
 44 45  1  0  0  0  0
 44 42  1  0  0  0  0
 46 44  2  0  0  0  0
 47 46  1  0  0  0  0
 48 46  1  0  0  0  0
 48 39  2  0  0  0  0
 49 48  1  0  0  0  0
 50 63  1  0  0  0  0
 50 51  1  0  0  0  0
 51 52  1  0  0  0  0
 53 51  2  0  0  0  0
 53 54  1  0  0  0  0
 55 53  1  0  0  0  0
 56 55  1  0  0  0  0
 57 59  1  0  0  0  0
 57 55  2  0  0  0  0
 58 57  1  0  0  0  0
 59 50  2  0  0  0  0
 60 59  1  0  0  0  0
 61 28  2  0  0  0  0
 63 39  1  0  0  0  0
 64 12  1  0  0  0  0
M  END
