1,2
 OpenBabel05122313063D

 32 32  0  0  0  0  0  0  0  0999 V2000
    1.5304    1.0778   -0.2463 P   0  0  0  0  0  2  0  0  0  0  0  0
    2.0312   -1.6925   -0.0110 P   0  0  0  0  0  2  0  0  0  0  0  0
    1.6156    2.6744   -1.2324 C   0  0  0  0  0  0  0  0  0  0  0  0
    2.8853   -2.2010   -1.6224 C   0  0  0  0  0  0  0  0  0  0  0  0
    3.1540    0.7826    0.4849 C   0  0  0  0  0  0  0  0  0  0  0  0
    3.3576   -0.6123    0.6834 C   0  0  0  0  0  0  0  0  0  0  0  0
    4.5368   -1.0559    1.3015 C   0  0  0  0  0  0  0  0  0  0  0  0
    5.4966   -0.1222    1.7321 C   0  0  0  0  0  0  0  0  0  0  0  0
    5.2855    1.2562    1.5458 C   0  0  0  0  0  0  0  0  0  0  0  0
    4.1158    1.7164    0.9227 C   0  0  0  0  0  0  0  0  0  0  0  0
    0.2796    2.9641   -1.9236 C   0  0  0  0  0  0  0  0  0  0  0  0
    2.7608    2.5892   -2.2560 C   0  0  0  0  0  0  0  0  0  0  0  0
    2.0994   -3.3402   -2.2814 C   0  0  0  0  0  0  0  0  0  0  0  0
    3.1994   -1.0545   -2.5839 C   0  0  0  0  0  0  0  0  0  0  0  0
    4.7060   -2.1332    1.4547 H   0  0  0  0  0  0  0  0  0  0  0  0
    6.4164   -0.4728    2.2242 H   0  0  0  0  0  0  0  0  0  0  0  0
    6.0408    1.9783    1.8912 H   0  0  0  0  0  0  0  0  0  0  0  0
    3.9544    2.7961    0.7796 H   0  0  0  0  0  0  0  0  0  0  0  0
    1.8495    3.4844   -0.5031 H   0  0  0  0  0  0  0  0  0  0  0  0
    3.8473   -2.6095   -1.2286 H   0  0  0  0  0  0  0  0  0  0  0  0
   -0.5201    3.2209   -1.2037 H   0  0  0  0  0  0  0  0  0  0  0  0
   -0.0595    2.0823   -2.5050 H   0  0  0  0  0  0  0  0  0  0  0  0
    0.3929    3.8239   -2.6158 H   0  0  0  0  0  0  0  0  0  0  0  0
    3.7338    2.3469   -1.7870 H   0  0  0  0  0  0  0  0  0  0  0  0
    2.8631    3.5647   -2.7760 H   0  0  0  0  0  0  0  0  0  0  0  0
    2.5468    1.8163   -3.0196 H   0  0  0  0  0  0  0  0  0  0  0  0
    1.9243   -4.1761   -1.5746 H   0  0  0  0  0  0  0  0  0  0  0  0
    2.6591   -3.7385   -3.1539 H   0  0  0  0  0  0  0  0  0  0  0  0
    1.1144   -2.9767   -2.6355 H   0  0  0  0  0  0  0  0  0  0  0  0
    3.8290   -0.2780   -2.1070 H   0  0  0  0  0  0  0  0  0  0  0  0
    2.2511   -0.5908   -2.9273 H   0  0  0  0  0  0  0  0  0  0  0  0
    3.7451   -1.4333   -3.4749 H   0  0  0  0  0  0  0  0  0  0  0  0
  1  5  1  0  0  0  0
  2  6  1  0  0  0  0
  3 19  1  0  0  0  0
  3  1  1  0  0  0  0
  4 20  1  0  0  0  0
  4  2  1  0  0  0  0
  5  6  2  0  0  0  0
  5 10  1  0  0  0  0
  6  7  1  0  0  0  0
  7 15  1  0  0  0  0
  7  8  2  0  0  0  0
  8 16  1  0  0  0  0
  9  8  1  0  0  0  0
  9 17  1  0  0  0  0
 10  9  2  0  0  0  0
 11  3  1  0  0  0  0
 11 21  1  0  0  0  0
 12 24  1  0  0  0  0
 12  3  1  0  0  0  0
 13  4  1  0  0  0  0
 13 27  1  0  0  0  0
 14 30  1  0  0  0  0
 14  4  1  0  0  0  0
 18 10  1  0  0  0  0
 22 11  1  0  0  0  0
 23 11  1  0  0  0  0
 25 12  1  0  0  0  0
 26 12  1  0  0  0  0
 28 13  1  0  0  0  0
 29 13  1  0  0  0  0
 31 14  1  0  0  0  0
 32 14  1  0  0  0  0
M  END
