1,2
 OpenBabel05122313063D

 65 64  0  0  0  0  0  0  0  0999 V2000
    2.1356    1.0593   -0.0276 P   0  0  0  0  0  0  0  0  0  0  0  0
   -0.3779    0.0963   -1.0390 P   0  0  0  0  0  0  0  0  0  0  0  0
   -3.5993    0.2123   -0.8027 P   0  0  0  0  0  0  0  0  0  0  0  0
    0.7791    1.5730   -1.2165 C   0  0  0  0  0  0  0  0  0  0  0  0
    1.1963    1.5401   -2.2440 H   0  0  0  0  0  0  0  0  0  0  0  0
    0.3243    2.5748   -1.0653 H   0  0  0  0  0  0  0  0  0  0  0  0
   -1.9063    0.8116   -0.2385 C   0  0  0  0  0  0  0  0  0  0  0  0
   -1.8910    1.8936   -0.4800 H   0  0  0  0  0  0  0  0  0  0  0  0
   -1.7872    0.7199    0.8587 H   0  0  0  0  0  0  0  0  0  0  0  0
   -0.9162   -0.2290   -2.7731 C   0  0  0  0  0  0  0  0  0  0  0  0
   -0.0248   -0.5080   -3.3676 H   0  0  0  0  0  0  0  0  0  0  0  0
   -1.4214    0.6502   -3.2198 H   0  0  0  0  0  0  0  0  0  0  0  0
   -1.6260   -1.0782   -2.7763 H   0  0  0  0  0  0  0  0  0  0  0  0
    1.9375    2.1733    1.5279 C   0  0  0  0  0  0  0  0  0  0  0  0
    2.7045    1.4899    2.6762 C   0  0  0  0  0  0  0  0  0  0  0  0
    2.3613    0.4474    2.8221 H   0  0  0  0  0  0  0  0  0  0  0  0
    2.5267    2.0474    3.6200 H   0  0  0  0  0  0  0  0  0  0  0  0
    3.7959    1.4650    2.5019 H   0  0  0  0  0  0  0  0  0  0  0  0
    0.4438    2.2146    1.8917 C   0  0  0  0  0  0  0  0  0  0  0  0
    0.3281    2.7400    2.8630 H   0  0  0  0  0  0  0  0  0  0  0  0
    0.0150    1.2040    2.0123 H   0  0  0  0  0  0  0  0  0  0  0  0
   -0.1566    2.7698    1.1448 H   0  0  0  0  0  0  0  0  0  0  0  0
    2.4176    3.6208    1.3450 C   0  0  0  0  0  0  0  0  0  0  0  0
    1.9101    4.1262    0.4987 H   0  0  0  0  0  0  0  0  0  0  0  0
    3.5106    3.6937    1.1942 H   0  0  0  0  0  0  0  0  0  0  0  0
    2.1762    4.1968    2.2638 H   0  0  0  0  0  0  0  0  0  0  0  0
    3.7705    1.5150   -0.9345 C   0  0  0  0  0  0  0  0  0  0  0  0
    3.7361    2.9043   -1.5949 C   0  0  0  0  0  0  0  0  0  0  0  0
    3.6593    3.7323   -0.8701 H   0  0  0  0  0  0  0  0  0  0  0  0
    2.9003    2.9997   -2.3169 H   0  0  0  0  0  0  0  0  0  0  0  0
    4.6759    3.0523   -2.1686 H   0  0  0  0  0  0  0  0  0  0  0  0
    4.9449    1.3988    0.0530 C   0  0  0  0  0  0  0  0  0  0  0  0
    4.9470    0.4182    0.5706 H   0  0  0  0  0  0  0  0  0  0  0  0
    4.9427    2.1997    0.8166 H   0  0  0  0  0  0  0  0  0  0  0  0
    5.9002    1.4816   -0.5073 H   0  0  0  0  0  0  0  0  0  0  0  0
    3.9717    0.4614   -2.0365 C   0  0  0  0  0  0  0  0  0  0  0  0
    4.0979   -0.5513   -1.6122 H   0  0  0  0  0  0  0  0  0  0  0  0
    4.8882    0.7137   -2.6105 H   0  0  0  0  0  0  0  0  0  0  0  0
    3.1309    0.4278   -2.7577 H   0  0  0  0  0  0  0  0  0  0  0  0
   -3.9343   -1.2315    0.4131 C   0  0  0  0  0  0  0  0  0  0  0  0
   -3.9400   -0.8860    1.9070 C   0  0  0  0  0  0  0  0  0  0  0  0
   -3.0028   -0.3896    2.2309 H   0  0  0  0  0  0  0  0  0  0  0  0
   -4.0247   -1.8199    2.5038 H   0  0  0  0  0  0  0  0  0  0  0  0
   -4.7964   -0.2409    2.1848 H   0  0  0  0  0  0  0  0  0  0  0  0
   -5.2679   -1.8898    0.0092 C   0  0  0  0  0  0  0  0  0  0  0  0
   -5.2957   -2.1080   -1.0779 H   0  0  0  0  0  0  0  0  0  0  0  0
   -6.1468   -1.2653    0.2554 H   0  0  0  0  0  0  0  0  0  0  0  0
   -5.3818   -2.8530    0.5509 H   0  0  0  0  0  0  0  0  0  0  0  0
   -2.8024   -2.2339    0.1243 C   0  0  0  0  0  0  0  0  0  0  0  0
   -2.7518   -2.5046   -0.9508 H   0  0  0  0  0  0  0  0  0  0  0  0
   -2.9725   -3.1727    0.6924 H   0  0  0  0  0  0  0  0  0  0  0  0
   -1.8090   -1.8501    0.4258 H   0  0  0  0  0  0  0  0  0  0  0  0
   -4.6163    1.7715   -0.2902 C   0  0  0  0  0  0  0  0  0  0  0  0
   -6.1064    1.3937   -0.2526 C   0  0  0  0  0  0  0  0  0  0  0  0
   -6.4114    0.8259   -1.1555 H   0  0  0  0  0  0  0  0  0  0  0  0
   -6.7243    2.3164   -0.2100 H   0  0  0  0  0  0  0  0  0  0  0  0
   -6.3582    0.7883    0.6396 H   0  0  0  0  0  0  0  0  0  0  0  0
   -4.2194    2.4480    1.0313 C   0  0  0  0  0  0  0  0  0  0  0  0
   -3.1729    2.8122    1.0228 H   0  0  0  0  0  0  0  0  0  0  0  0
   -4.3374    1.7780    1.9024 H   0  0  0  0  0  0  0  0  0  0  0  0
   -4.8673    3.3355    1.2022 H   0  0  0  0  0  0  0  0  0  0  0  0
   -4.3931    2.7595   -1.4540 C   0  0  0  0  0  0  0  0  0  0  0  0
   -3.3279    3.0559   -1.5567 H   0  0  0  0  0  0  0  0  0  0  0  0
   -4.9742    3.6902   -1.2761 H   0  0  0  0  0  0  0  0  0  0  0  0
   -4.7179    2.3275   -2.4217 H   0  0  0  0  0  0  0  0  0  0  0  0
  1 14  1  0  0  0  0
  2  7  1  0  0  0  0
  3 53  1  0  0  0  0
  3  7  1  0  0  0  0
  3 40  1  0  0  0  0
  4  6  1  0  0  0  0
  4  2  1  0  0  0  0
  4  1  1  0  0  0  0
  5  4  1  0  0  0  0
  7  9  1  0  0  0  0
  8  7  1  0  0  0  0
 10  2  1  0  0  0  0
 11 10  1  0  0  0  0
 12 10  1  0  0  0  0
 13 10  1  0  0  0  0
 14 19  1  0  0  0  0
 14 15  1  0  0  0  0
 15 16  1  0  0  0  0
 15 17  1  0  0  0  0
 18 15  1  0  0  0  0
 19 21  1  0  0  0  0
 19 20  1  0  0  0  0
 22 19  1  0  0  0  0
 23 14  1  0  0  0  0
 23 26  1  0  0  0  0
 24 23  1  0  0  0  0
 25 23  1  0  0  0  0
 27  1  1  0  0  0  0
 27 32  1  0  0  0  0
 28 27  1  0  0  0  0
 28 29  1  0  0  0  0
 30 28  1  0  0  0  0
 31 28  1  0  0  0  0
 32 33  1  0  0  0  0
 32 34  1  0  0  0  0
 35 32  1  0  0  0  0
 36 37  1  0  0  0  0
 36 27  1  0  0  0  0
 38 36  1  0  0  0  0
 39 36  1  0  0  0  0
 40 41  1  0  0  0  0
 41 44  1  0  0  0  0
 41 42  1  0  0  0  0
 41 43  1  0  0  0  0
 45 47  1  0  0  0  0
 45 40  1  0  0  0  0
 45 48  1  0  0  0  0
 46 45  1  0  0  0  0
 49 40  1  0  0  0  0
 49 52  1  0  0  0  0
 49 51  1  0  0  0  0
 50 49  1  0  0  0  0
 53 54  1  0  0  0  0
 53 58  1  0  0  0  0
 54 56  1  0  0  0  0
 54 57  1  0  0  0  0
 55 54  1  0  0  0  0
 58 61  1  0  0  0  0
 58 60  1  0  0  0  0
 59 58  1  0  0  0  0
 62 64  1  0  0  0  0
 62 53  1  0  0  0  0
 63 62  1  0  0  0  0
 65 62  1  0  0  0  0
M  END
