1,2
 OpenBabel05122313063D

 64 70  0  0  0  0  0  0  0  0999 V2000
    1.8030    0.0589   -0.1219 P   0  0  0  0  0  0  0  0  0  0  0  0
   -1.7100    0.0370   -0.0574 P   0  0  0  0  0  0  0  0  0  0  0  0
    1.6553    0.4881    1.6637 C   0  0  0  0  0  0  0  0  0  0  0  0
    3.2002    3.6481   -1.8060 C   0  0  0  0  0  0  0  0  0  0  0  0
    4.1645    4.0843   -2.1082 H   0  0  0  0  0  0  0  0  0  0  0  0
   -2.9673    2.6058   -0.4469 C   0  0  0  0  0  0  0  0  0  0  0  0
   -3.9093    2.1141   -0.1631 H   0  0  0  0  0  0  0  0  0  0  0  0
   -0.6294    2.5453   -0.8220 C   0  0  0  0  0  0  0  0  0  0  0  0
    1.9661    1.6999   -0.9244 C   0  0  0  0  0  0  0  0  0  0  0  0
   -1.7506    1.8419   -0.4323 C   0  0  0  0  0  0  0  0  0  0  0  0
    3.1847    2.3297   -1.3335 C   0  0  0  0  0  0  0  0  0  0  0  0
    4.1277    1.7683   -1.2658 H   0  0  0  0  0  0  0  0  0  0  0  0
    2.0242    4.4555   -1.8925 C   0  0  0  0  0  0  0  0  0  0  0  0
    2.0814    5.4961   -2.2434 H   0  0  0  0  0  0  0  0  0  0  0  0
    0.8366    2.4832   -1.0549 C   0  0  0  0  0  0  0  0  0  0  0  0
    0.8473    3.8423   -1.5009 C   0  0  0  0  0  0  0  0  0  0  0  0
   -1.8174    4.6508   -1.2570 C   0  0  0  0  0  0  0  0  0  0  0  0
   -1.8747    5.7023   -1.5740 H   0  0  0  0  0  0  0  0  0  0  0  0
   -0.6476    3.9172   -1.2467 C   0  0  0  0  0  0  0  0  0  0  0  0
   -2.9891    3.9491   -0.8307 C   0  0  0  0  0  0  0  0  0  0  0  0
   -3.9518    4.4825   -0.8191 H   0  0  0  0  0  0  0  0  0  0  0  0
   -1.9783   -0.0644    1.7569 C   0  0  0  0  0  0  0  0  0  0  0  0
    1.9050    1.7808    2.1625 C   0  0  0  0  0  0  0  0  0  0  0  0
    2.1979    2.5902    1.4776 H   0  0  0  0  0  0  0  0  0  0  0  0
    1.4147    1.0057    4.4168 C   0  0  0  0  0  0  0  0  0  0  0  0
    1.3130    1.2105    5.4935 H   0  0  0  0  0  0  0  0  0  0  0  0
    1.7785    2.0366    3.5373 C   0  0  0  0  0  0  0  0  0  0  0  0
    1.9683    3.0503    3.9218 H   0  0  0  0  0  0  0  0  0  0  0  0
    1.2798   -0.5453    2.5496 C   0  0  0  0  0  0  0  0  0  0  0  0
    1.0620   -1.5485    2.1500 H   0  0  0  0  0  0  0  0  0  0  0  0
    1.1695   -0.2856    3.9214 C   0  0  0  0  0  0  0  0  0  0  0  0
    0.8690   -1.0937    4.6043 H   0  0  0  0  0  0  0  0  0  0  0  0
   -2.1516   -1.3465    2.3248 C   0  0  0  0  0  0  0  0  0  0  0  0
   -2.1407   -2.2327    1.6678 H   0  0  0  0  0  0  0  0  0  0  0  0
   -1.9557    1.0751    2.5824 C   0  0  0  0  0  0  0  0  0  0  0  0
   -1.8019    2.0721    2.1444 H   0  0  0  0  0  0  0  0  0  0  0  0
   -2.3116   -0.3348    4.5335 C   0  0  0  0  0  0  0  0  0  0  0  0
   -2.4426   -0.4401    5.6214 H   0  0  0  0  0  0  0  0  0  0  0  0
   -2.1179    0.9351    3.9698 C   0  0  0  0  0  0  0  0  0  0  0  0
   -2.0892    1.8277    4.6128 H   0  0  0  0  0  0  0  0  0  0  0  0
   -2.3282   -1.4731    3.7090 C   0  0  0  0  0  0  0  0  0  0  0  0
   -2.4724   -2.4722    4.1480 H   0  0  0  0  0  0  0  0  0  0  0  0
    3.5072   -0.5993   -0.2989 C   0  0  0  0  0  0  0  0  0  0  0  0
    4.3796   -0.6918    0.7996 C   0  0  0  0  0  0  0  0  0  0  0  0
    4.0304   -0.4216    1.8066 H   0  0  0  0  0  0  0  0  0  0  0  0
    3.9601   -0.9518   -1.5886 C   0  0  0  0  0  0  0  0  0  0  0  0
    3.2709   -0.9049   -2.4440 H   0  0  0  0  0  0  0  0  0  0  0  0
   -3.3198   -0.4256   -0.8225 C   0  0  0  0  0  0  0  0  0  0  0  0
   -4.4913   -0.5929   -0.0641 C   0  0  0  0  0  0  0  0  0  0  0  0
   -4.4524   -0.5350    1.0336 H   0  0  0  0  0  0  0  0  0  0  0  0
    5.2819   -1.3756   -1.7719 C   0  0  0  0  0  0  0  0  0  0  0  0
    5.6296   -1.6514   -2.7788 H   0  0  0  0  0  0  0  0  0  0  0  0
   -3.3729   -0.5081   -2.2288 C   0  0  0  0  0  0  0  0  0  0  0  0
   -2.4483   -0.4002   -2.8165 H   0  0  0  0  0  0  0  0  0  0  0  0
    6.1536   -1.4696   -0.6730 C   0  0  0  0  0  0  0  0  0  0  0  0
    7.1888   -1.8135   -0.8195 H   0  0  0  0  0  0  0  0  0  0  0  0
    5.7008   -1.1312    0.6099 C   0  0  0  0  0  0  0  0  0  0  0  0
    6.3777   -1.2064    1.4743 H   0  0  0  0  0  0  0  0  0  0  0  0
   -5.7120   -0.8463   -0.7124 C   0  0  0  0  0  0  0  0  0  0  0  0
   -6.6257   -0.9860   -0.1148 H   0  0  0  0  0  0  0  0  0  0  0  0
   -4.5932   -0.7539   -2.8680 C   0  0  0  0  0  0  0  0  0  0  0  0
   -4.6284   -0.8258   -3.9655 H   0  0  0  0  0  0  0  0  0  0  0  0
   -5.7658   -0.9249   -2.1113 C   0  0  0  0  0  0  0  0  0  0  0  0
   -6.7229   -1.1263   -2.6160 H   0  0  0  0  0  0  0  0  0  0  0  0
  1  3  1  0  0  0  0
  2 22  1  0  0  0  0
  3 23  2  0  0  0  0
  3 29  1  0  0  0  0
  4 11  1  0  0  0  0
  5  4  1  0  0  0  0
  6 10  1  0  0  0  0
  6  7  1  0  0  0  0
  8 10  2  0  0  0  0
  9  1  1  0  0  0  0
 10  2  1  0  0  0  0
 11 12  1  0  0  0  0
 11  9  2  0  0  0  0
 13  4  2  0  0  0  0
 13 16  1  0  0  0  0
 14 13  1  0  0  0  0
 15  9  1  0  0  0  0
 15  8  1  0  0  0  0
 16 19  1  0  0  0  0
 16 15  2  0  0  0  0
 17 19  2  0  0  0  0
 17 20  1  0  0  0  0
 18 17  1  0  0  0  0
 19  8  1  0  0  0  0
 20 21  1  0  0  0  0
 20  6  2  0  0  0  0
 22 33  2  0  0  0  0
 22 35  1  0  0  0  0
 23 27  1  0  0  0  0
 24 23  1  0  0  0  0
 25 26  1  0  0  0  0
 27 28  1  0  0  0  0
 27 25  2  0  0  0  0
 29 31  2  0  0  0  0
 30 29  1  0  0  0  0
 31 25  1  0  0  0  0
 31 32  1  0  0  0  0
 33 41  1  0  0  0  0
 34 33  1  0  0  0  0
 35 39  2  0  0  0  0
 36 35  1  0  0  0  0
 37 38  1  0  0  0  0
 39 37  1  0  0  0  0
 39 40  1  0  0  0  0
 41 42  1  0  0  0  0
 41 37  2  0  0  0  0
 43  1  1  0  0  0  0
 43 44  1  0  0  0  0
 44 45  1  0  0  0  0
 46 43  2  0  0  0  0
 47 46  1  0  0  0  0
 48 49  1  0  0  0  0
 48  2  1  0  0  0  0
 49 50  1  0  0  0  0
 51 46  1  0  0  0  0
 51 55  2  0  0  0  0
 52 51  1  0  0  0  0
 53 48  2  0  0  0  0
 54 53  1  0  0  0  0
 55 57  1  0  0  0  0
 56 55  1  0  0  0  0
 57 44  2  0  0  0  0
 57 58  1  0  0  0  0
 59 60  1  0  0  0  0
 59 49  2  0  0  0  0
 61 53  1  0  0  0  0
 61 63  2  0  0  0  0
 62 61  1  0  0  0  0
 63 59  1  0  0  0  0
 64 63  1  0  0  0  0
M  END
