1,2
 OpenBabel05122313063D

 58 61  0  0  0  0  0  0  0  0999 V2000
   -1.5790    0.0227    0.3159 P   0  0  0  0  0  0  0  0  0  0  0  0
    1.6308   -0.0296    0.5947 P   0  0  0  0  0  0  0  0  0  0  0  0
   -1.2188    0.5955    1.8539 O   0  0  0  0  0  0  0  0  0  0  0  0
    1.4562   -0.5483    2.2139 N   0  0  0  0  0  0  0  0  0  0  0  0
   -0.9378   -0.3072    2.9244 C   0  0  0  0  0  0  0  0  0  0  0  0
   -1.8392   -0.9140    3.1724 H   0  0  0  0  0  0  0  0  0  0  0  0
   -0.7143    0.3456    3.7936 H   0  0  0  0  0  0  0  0  0  0  0  0
    0.2410   -1.2377    2.6228 C   0  0  0  0  0  0  0  0  0  0  0  0
    0.4601   -1.8440    3.5282 H   0  0  0  0  0  0  0  0  0  0  0  0
   -0.0490   -1.9524    1.8218 H   0  0  0  0  0  0  0  0  0  0  0  0
    2.4168   -0.2185    3.2559 C   0  0  0  0  0  0  0  0  0  0  0  0
    1.9869    0.4505    4.0365 H   0  0  0  0  0  0  0  0  0  0  0  0
    3.2948    0.2928    2.8177 H   0  0  0  0  0  0  0  0  0  0  0  0
    2.7846   -1.1399    3.7608 H   0  0  0  0  0  0  0  0  0  0  0  0
   -3.0805   -0.9683    0.6465 C   0  0  0  0  0  0  0  0  0  0  0  0
   -4.2532   -0.3162    1.0792 C   0  0  0  0  0  0  0  0  0  0  0  0
   -4.2888    0.7837    1.1165 H   0  0  0  0  0  0  0  0  0  0  0  0
   -5.3752   -1.0716    1.4490 C   0  0  0  0  0  0  0  0  0  0  0  0
   -6.2940   -0.5620    1.7767 H   0  0  0  0  0  0  0  0  0  0  0  0
   -5.3272   -2.4746    1.3938 C   0  0  0  0  0  0  0  0  0  0  0  0
   -6.2105   -3.0657    1.6804 H   0  0  0  0  0  0  0  0  0  0  0  0
   -4.1575   -3.1236    0.9666 C   0  0  0  0  0  0  0  0  0  0  0  0
   -4.1224   -4.2222    0.9141 H   0  0  0  0  0  0  0  0  0  0  0  0
   -3.0329   -2.3752    0.5897 C   0  0  0  0  0  0  0  0  0  0  0  0
   -2.1226   -2.8710    0.2208 H   0  0  0  0  0  0  0  0  0  0  0  0
   -2.1063    1.6043   -0.4234 C   0  0  0  0  0  0  0  0  0  0  0  0
   -2.3236    1.6469   -1.8172 C   0  0  0  0  0  0  0  0  0  0  0  0
   -2.2011    0.7264   -2.4124 H   0  0  0  0  0  0  0  0  0  0  0  0
   -2.6819    2.8592   -2.4218 C   0  0  0  0  0  0  0  0  0  0  0  0
   -2.8520    2.8929   -3.5086 H   0  0  0  0  0  0  0  0  0  0  0  0
   -2.8149    4.0258   -1.6496 C   0  0  0  0  0  0  0  0  0  0  0  0
   -3.0888    4.9770   -2.1315 H   0  0  0  0  0  0  0  0  0  0  0  0
   -2.5940    3.9791   -0.2645 C   0  0  0  0  0  0  0  0  0  0  0  0
   -2.6880    4.8930    0.3417 H   0  0  0  0  0  0  0  0  0  0  0  0
   -2.2409    2.7709    0.3547 C   0  0  0  0  0  0  0  0  0  0  0  0
   -2.0428    2.7286    1.4342 H   0  0  0  0  0  0  0  0  0  0  0  0
    1.4035    1.7944    0.4841 C   0  0  0  0  0  0  0  0  0  0  0  0
    1.2443    2.3560   -0.8012 C   0  0  0  0  0  0  0  0  0  0  0  0
    1.2685    1.7009   -1.6871 H   0  0  0  0  0  0  0  0  0  0  0  0
    1.0246    3.7327   -0.9448 C   0  0  0  0  0  0  0  0  0  0  0  0
    0.8877    4.1605   -1.9490 H   0  0  0  0  0  0  0  0  0  0  0  0
    0.9511    4.5553    0.1908 C   0  0  0  0  0  0  0  0  0  0  0  0
    0.7649    5.6341    0.0779 H   0  0  0  0  0  0  0  0  0  0  0  0
    1.0966    3.9980    1.4709 C   0  0  0  0  0  0  0  0  0  0  0  0
    1.0269    4.6389    2.3631 H   0  0  0  0  0  0  0  0  0  0  0  0
    1.3213    2.6207    1.6195 C   0  0  0  0  0  0  0  0  0  0  0  0
    1.4128    2.1869    2.6248 H   0  0  0  0  0  0  0  0  0  0  0  0
    3.4148   -0.2846    0.2832 C   0  0  0  0  0  0  0  0  0  0  0  0
    4.2825    0.7723   -0.0490 C   0  0  0  0  0  0  0  0  0  0  0  0
    3.8933    1.7966   -0.1428 H   0  0  0  0  0  0  0  0  0  0  0  0
    5.6474    0.5171   -0.2589 C   0  0  0  0  0  0  0  0  0  0  0  0
    6.3230    1.3463   -0.5183 H   0  0  0  0  0  0  0  0  0  0  0  0
    6.1463   -0.7880   -0.1371 C   0  0  0  0  0  0  0  0  0  0  0  0
    7.2161   -0.9860   -0.3038 H   0  0  0  0  0  0  0  0  0  0  0  0
    5.2796   -1.8445    0.1924 C   0  0  0  0  0  0  0  0  0  0  0  0
    5.6670   -2.8711    0.2757 H   0  0  0  0  0  0  0  0  0  0  0  0
    3.9168   -1.5989    0.3958 C   0  0  0  0  0  0  0  0  0  0  0  0
    3.2314   -2.4251    0.6331 H   0  0  0  0  0  0  0  0  0  0  0  0
  1 15  1  0  0  0  0
  1  3  1  0  0  0  0
  2  4  1  0  0  0  0
  3  5  1  0  0  0  0
  4  8  1  0  0  0  0
  4 11  1  0  0  0  0
  5  6  1  0  0  0  0
  5  7  1  0  0  0  0
  8  5  1  0  0  0  0
  8  9  1  0  0  0  0
 10  8  1  0  0  0  0
 11 14  1  0  0  0  0
 11 12  1  0  0  0  0
 13 11  1  0  0  0  0
 15 16  1  0  0  0  0
 16 17  1  0  0  0  0
 16 18  2  0  0  0  0
 18 19  1  0  0  0  0
 20 18  1  0  0  0  0
 20 21  1  0  0  0  0
 22 20  2  0  0  0  0
 23 22  1  0  0  0  0
 24 15  2  0  0  0  0
 24 22  1  0  0  0  0
 25 24  1  0  0  0  0
 26  1  1  0  0  0  0
 26 35  1  0  0  0  0
 27 26  2  0  0  0  0
 28 27  1  0  0  0  0
 29 27  1  0  0  0  0
 29 31  2  0  0  0  0
 30 29  1  0  0  0  0
 31 33  1  0  0  0  0
 32 31  1  0  0  0  0
 33 34  1  0  0  0  0
 33 35  2  0  0  0  0
 35 36  1  0  0  0  0
 37  2  1  0  0  0  0
 37 46  1  0  0  0  0
 38 37  2  0  0  0  0
 39 38  1  0  0  0  0
 40 38  1  0  0  0  0
 40 42  2  0  0  0  0
 41 40  1  0  0  0  0
 42 44  1  0  0  0  0
 43 42  1  0  0  0  0
 44 46  2  0  0  0  0
 44 45  1  0  0  0  0
 46 47  1  0  0  0  0
 48 57  1  0  0  0  0
 48  2  1  0  0  0  0
 49 48  2  0  0  0  0
 50 49  1  0  0  0  0
 51 53  2  0  0  0  0
 51 49  1  0  0  0  0
 52 51  1  0  0  0  0
 53 55  1  0  0  0  0
 54 53  1  0  0  0  0
 55 56  1  0  0  0  0
 55 57  2  0  0  0  0
 57 58  1  0  0  0  0
M  END
