1,11
 OpenBabel05122313063D

 65 66  0  0  0  0  0  0  0  0999 V2000
   -1.2562   -0.8223   -0.3368 P   0  0  1  0  0  0  0  0  0  0  0  0
   -1.0455   -0.7294   -2.1827 C   0  0  0  0  0  0  0  0  0  0  0  0
   -1.4885   -1.6434   -2.6233 H   0  0  0  0  0  0  0  0  0  0  0  0
   -1.6898    0.1147   -2.5067 H   0  0  0  0  0  0  0  0  0  0  0  0
    0.3830   -0.5132   -2.6844 C   0  0  0  0  0  0  0  0  0  0  0  0
    1.0875   -1.2365   -2.2200 H   0  0  0  0  0  0  0  0  0  0  0  0
    0.4056   -0.7329   -3.7729 H   0  0  0  0  0  0  0  0  0  0  0  0
    0.8789    0.9204   -2.4792 C   0  0  0  0  0  0  0  0  0  0  0  0
    0.0825    1.6431   -2.7557 H   0  0  0  0  0  0  0  0  0  0  0  0
    1.7318    1.1329   -3.1508 H   0  0  0  0  0  0  0  0  0  0  0  0
    1.3910    1.3509   -0.7494 P   0  0  1  0  0  0  0  0  0  0  0  0
   -3.0914   -0.6375   -0.2747 C   0  0  0  0  0  0  0  0  0  0  0  0
   -3.6782    0.4398    0.4177 C   0  0  0  0  0  0  0  0  0  0  0  0
   -3.0407    1.1172    1.0028 H   0  0  0  0  0  0  0  0  0  0  0  0
   -5.0663    0.6268    0.3871 C   0  0  0  0  0  0  0  0  0  0  0  0
   -5.5168    1.4738    0.9244 H   0  0  0  0  0  0  0  0  0  0  0  0
   -5.8843   -0.2641   -0.3276 C   0  0  0  0  0  0  0  0  0  0  0  0
   -5.3080   -1.3380   -1.0259 C   0  0  0  0  0  0  0  0  0  0  0  0
   -5.9481   -2.0274   -1.5943 H   0  0  0  0  0  0  0  0  0  0  0  0
   -3.9192   -1.5179   -1.0043 C   0  0  0  0  0  0  0  0  0  0  0  0
   -3.4880   -2.3583   -1.5678 H   0  0  0  0  0  0  0  0  0  0  0  0
   -7.3852   -0.0899   -0.3046 C   0  0  0  0  0  0  0  0  0  0  0  0
   -7.9276   -0.6507    0.8039 F   0  0  0  0  0  0  0  0  0  0  0  0
   -7.9756   -0.6708   -1.3773 F   0  0  0  0  0  0  0  0  0  0  0  0
   -7.7343    1.2185   -0.3014 F   0  0  0  0  0  0  0  0  0  0  0  0
   -0.8057   -2.6298    0.1626 C   0  0  0  0  0  0  0  0  0  0  0  0
   -0.7831   -3.5709   -1.0529 C   0  0  0  0  0  0  0  0  0  0  0  0
   -0.5317   -4.5921   -0.6973 H   0  0  0  0  0  0  0  0  0  0  0  0
   -0.0175   -3.2913   -1.8031 H   0  0  0  0  0  0  0  0  0  0  0  0
   -1.7653   -3.6426   -1.5614 H   0  0  0  0  0  0  0  0  0  0  0  0
   -1.8234   -3.1393    1.1975 C   0  0  0  0  0  0  0  0  0  0  0  0
   -1.4776   -4.1240    1.5770 H   0  0  0  0  0  0  0  0  0  0  0  0
   -2.8300   -3.2793    0.7587 H   0  0  0  0  0  0  0  0  0  0  0  0
   -1.9052   -2.4389    2.0505 H   0  0  0  0  0  0  0  0  0  0  0  0
    0.5982   -2.5780    0.7962 C   0  0  0  0  0  0  0  0  0  0  0  0
    0.9061   -3.6074    1.0774 H   0  0  0  0  0  0  0  0  0  0  0  0
    0.5991   -1.9512    1.7094 H   0  0  0  0  0  0  0  0  0  0  0  0
    1.3626   -2.1754    0.1011 H   0  0  0  0  0  0  0  0  0  0  0  0
    2.9807    0.4340   -0.5413 C   0  0  0  0  0  0  0  0  0  0  0  0
    3.3846    0.0761    0.7638 C   0  0  0  0  0  0  0  0  0  0  0  0
    2.7550    0.3649    1.6215 H   0  0  0  0  0  0  0  0  0  0  0  0
    4.5822   -0.6197    0.9687 C   0  0  0  0  0  0  0  0  0  0  0  0
    4.8853   -0.9010    1.9874 H   0  0  0  0  0  0  0  0  0  0  0  0
    5.3913   -0.9709   -0.1251 C   0  0  0  0  0  0  0  0  0  0  0  0
    4.9983   -0.6204   -1.4272 C   0  0  0  0  0  0  0  0  0  0  0  0
    5.6269   -0.9047   -2.2833 H   0  0  0  0  0  0  0  0  0  0  0  0
    3.8015    0.0783   -1.6328 C   0  0  0  0  0  0  0  0  0  0  0  0
    3.5153    0.3341   -2.6628 H   0  0  0  0  0  0  0  0  0  0  0  0
    6.7068   -1.6803    0.0997 C   0  0  0  0  0  0  0  0  0  0  0  0
    6.6701   -2.4670    1.1996 F   0  0  0  0  0  0  0  0  0  0  0  0
    7.7173   -0.7927    0.2736 F   0  0  0  0  0  0  0  0  0  0  0  0
    7.0397   -2.4616   -0.9567 F   0  0  0  0  0  0  0  0  0  0  0  0
    1.8592    3.2087   -0.8942 C   0  0  0  0  0  0  0  0  0  0  0  0
    0.5946    4.0044   -0.5301 C   0  0  0  0  0  0  0  0  0  0  0  0
    0.7955    5.0894   -0.6545 H   0  0  0  0  0  0  0  0  0  0  0  0
    0.3044    3.8142    0.5214 H   0  0  0  0  0  0  0  0  0  0  0  0
   -0.2635    3.7458   -1.1856 H   0  0  0  0  0  0  0  0  0  0  0  0
    2.3165    3.5470   -2.3239 C   0  0  0  0  0  0  0  0  0  0  0  0
    2.6603    4.6025   -2.3335 H   0  0  0  0  0  0  0  0  0  0  0  0
    1.5077    3.4629   -3.0752 H   0  0  0  0  0  0  0  0  0  0  0  0
    3.1766    2.9264   -2.6488 H   0  0  0  0  0  0  0  0  0  0  0  0
    3.0105    3.5275    0.0745 C   0  0  0  0  0  0  0  0  0  0  0  0
    3.2044    4.6204    0.0388 H   0  0  0  0  0  0  0  0  0  0  0  0
    3.9445    3.0083   -0.2185 H   0  0  0  0  0  0  0  0  0  0  0  0
    2.7517    3.2499    1.1130 H   0  0  0  0  0  0  0  0  0  0  0  0
  1  2  1  6  0  0  0
  1 12  1  0  0  0  0
  1 26  1  0  0  0  0
  3  2  1  0  0  0  0
  4  2  1  0  0  0  0
  5  8  1  0  0  0  0
  5  6  1  0  0  0  0
  5  2  1  0  0  0  0
  7  5  1  0  0  0  0
  9  8  1  0  0  0  0
 10  8  1  0  0  0  0
 11  8  1  6  0  0  0
 11 39  1  0  0  0  0
 12 13  1  0  0  0  0
 13 14  1  0  0  0  0
 15 13  2  0  0  0  0
 15 16  1  0  0  0  0
 17 22  1  0  0  0  0
 17 15  1  0  0  0  0
 18 20  1  0  0  0  0
 18 17  2  0  0  0  0
 19 18  1  0  0  0  0
 20 12  2  0  0  0  0
 21 20  1  0  0  0  0
 22 25  1  0  0  0  0
 22 23  1  0  0  0  0
 24 22  1  0  0  0  0
 26 35  1  0  0  0  0
 26 31  1  0  0  0  0
 27 28  1  0  0  0  0
 27 26  1  0  0  0  0
 29 27  1  0  0  0  0
 30 27  1  0  0  0  0
 31 32  1  0  0  0  0
 31 34  1  0  0  0  0
 33 31  1  0  0  0  0
 35 36  1  0  0  0  0
 35 37  1  0  0  0  0
 38 35  1  0  0  0  0
 39 40  1  0  0  0  0
 40 42  2  0  0  0  0
 40 41  1  0  0  0  0
 42 43  1  0  0  0  0
 44 49  1  0  0  0  0
 44 42  1  0  0  0  0
 45 44  2  0  0  0  0
 46 45  1  0  0  0  0
 47 45  1  0  0  0  0
 47 39  2  0  0  0  0
 48 47  1  0  0  0  0
 49 51  1  0  0  0  0
 49 50  1  0  0  0  0
 52 49  1  0  0  0  0
 53 11  1  0  0  0  0
 53 54  1  0  0  0  0
 53 62  1  0  0  0  0
 54 56  1  0  0  0  0
 55 54  1  0  0  0  0
 57 54  1  0  0  0  0
 58 53  1  0  0  0  0
 59 58  1  0  0  0  0
 60 58  1  0  0  0  0
 61 58  1  0  0  0  0
 62 65  1  0  0  0  0
 63 62  1  0  0  0  0
 64 62  1  0  0  0  0
M  END
