1,13
 OpenBabel05122313063D

 55 56  0  0  0  0  0  0  0  0999 V2000
   -1.2111    0.0284    0.4973 P   0  0  0  0  0  0  0  0  0  0  0  0
   -0.9532    0.1676    2.3476 C   0  0  0  0  0  0  0  0  0  0  0  0
   -1.9222   -0.0250    2.8511 H   0  0  0  0  0  0  0  0  0  0  0  0
   -0.2726   -0.6668    2.6090 H   0  0  0  0  0  0  0  0  0  0  0  0
   -0.3509    1.4984    2.8089 C   0  0  0  0  0  0  0  0  0  0  0  0
   -1.1037    2.3100    2.7115 H   0  0  0  0  0  0  0  0  0  0  0  0
   -0.1107    1.4196    3.8921 H   0  0  0  0  0  0  0  0  0  0  0  0
    0.9034    1.9046    2.0224 C   0  0  0  0  0  0  0  0  0  0  0  0
    0.6035    2.1586    0.9834 H   0  0  0  0  0  0  0  0  0  0  0  0
    1.3289    2.8392    2.4499 H   0  0  0  0  0  0  0  0  0  0  0  0
    1.9175    0.8587    1.9638 N   0  0  0  0  0  0  0  0  0  0  0  0
    2.6354    0.9015    2.6919 H   0  0  0  0  0  0  0  0  0  0  0  0
    2.3234    0.0538    0.4962 P   0  0  0  0  0  0  0  0  0  0  0  0
   -2.2415    1.5232    0.1661 C   0  0  0  0  0  0  0  0  0  0  0  0
   -3.4201    1.7955    0.8928 C   0  0  0  0  0  0  0  0  0  0  0  0
   -3.7823    1.0759    1.6439 H   0  0  0  0  0  0  0  0  0  0  0  0
   -4.1411    2.9743    0.6541 C   0  0  0  0  0  0  0  0  0  0  0  0
   -5.0612    3.1785    1.2230 H   0  0  0  0  0  0  0  0  0  0  0  0
   -3.6907    3.8925   -0.3101 C   0  0  0  0  0  0  0  0  0  0  0  0
   -4.2584    4.8171   -0.4961 H   0  0  0  0  0  0  0  0  0  0  0  0
   -2.5192    3.6277   -1.0359 C   0  0  0  0  0  0  0  0  0  0  0  0
   -2.1655    4.3425   -1.7945 H   0  0  0  0  0  0  0  0  0  0  0  0
   -1.7969    2.4472   -0.7998 C   0  0  0  0  0  0  0  0  0  0  0  0
   -0.8770    2.2148   -1.3627 H   0  0  0  0  0  0  0  0  0  0  0  0
   -2.4070   -1.3714    0.4246 C   0  0  0  0  0  0  0  0  0  0  0  0
   -3.6001   -1.3047   -0.3227 C   0  0  0  0  0  0  0  0  0  0  0  0
   -3.8786   -0.3689   -0.8285 H   0  0  0  0  0  0  0  0  0  0  0  0
   -4.4357   -2.4279   -0.4260 C   0  0  0  0  0  0  0  0  0  0  0  0
   -5.3633   -2.3616   -1.0149 H   0  0  0  0  0  0  0  0  0  0  0  0
   -4.0924   -3.6286    0.2133 C   0  0  0  0  0  0  0  0  0  0  0  0
   -4.7497   -4.5075    0.1308 H   0  0  0  0  0  0  0  0  0  0  0  0
   -2.9016   -3.7047    0.9541 C   0  0  0  0  0  0  0  0  0  0  0  0
   -2.6202   -4.6445    1.4535 H   0  0  0  0  0  0  0  0  0  0  0  0
   -2.0616   -2.5871    1.0540 C   0  0  0  0  0  0  0  0  0  0  0  0
   -1.1205   -2.6669    1.6192 H   0  0  0  0  0  0  0  0  0  0  0  0
    3.7862    1.0244   -0.1893 C   0  0  0  0  0  0  0  0  0  0  0  0
    4.1428    0.4232   -1.0527 H   0  0  0  0  0  0  0  0  0  0  0  0
    4.9277    1.2065    0.8123 C   0  0  0  0  0  0  0  0  0  0  0  0
    5.3871    0.2451    1.1181 H   0  0  0  0  0  0  0  0  0  0  0  0
    4.5738    1.7263    1.7287 H   0  0  0  0  0  0  0  0  0  0  0  0
    5.7339    1.8339    0.3775 H   0  0  0  0  0  0  0  0  0  0  0  0
    3.2641    2.3643   -0.7223 C   0  0  0  0  0  0  0  0  0  0  0  0
    2.4229    2.2106   -1.4280 H   0  0  0  0  0  0  0  0  0  0  0  0
    4.0693    2.9184   -1.2482 H   0  0  0  0  0  0  0  0  0  0  0  0
    2.9027    3.0105    0.1052 H   0  0  0  0  0  0  0  0  0  0  0  0
    3.1014   -1.5095    1.1789 C   0  0  0  0  0  0  0  0  0  0  0  0
    3.8501   -1.1844    1.9373 H   0  0  0  0  0  0  0  0  0  0  0  0
    2.0330   -2.3606    1.8737 C   0  0  0  0  0  0  0  0  0  0  0  0
    1.5426   -1.8016    2.6944 H   0  0  0  0  0  0  0  0  0  0  0  0
    2.4855   -3.2785    2.3032 H   0  0  0  0  0  0  0  0  0  0  0  0
    1.2526   -2.6667    1.1461 H   0  0  0  0  0  0  0  0  0  0  0  0
    3.8146   -2.2988    0.0753 C   0  0  0  0  0  0  0  0  0  0  0  0
    4.6417   -1.7283   -0.3914 H   0  0  0  0  0  0  0  0  0  0  0  0
    3.1023   -2.5805   -0.7264 H   0  0  0  0  0  0  0  0  0  0  0  0
    4.2468   -3.2320    0.4926 H   0  0  0  0  0  0  0  0  0  0  0  0
  1  2  1  0  0  0  0
  2  4  1  0  0  0  0
  2  5  1  0  0  0  0
  2  3  1  0  0  0  0
  5  7  1  0  0  0  0
  6  5  1  0  0  0  0
  8 10  1  0  0  0  0
  8  5  1  0  0  0  0
  9  8  1  0  0  0  0
 11  8  1  0  0  0  0
 11 12  1  0  0  0  0
 13 46  1  0  0  0  0
 13 11  1  0  0  0  0
 14  1  1  0  0  0  0
 14 15  1  0  0  0  0
 15 16  1  0  0  0  0
 17 15  2  0  0  0  0
 17 18  1  0  0  0  0
 19 17  1  0  0  0  0
 20 19  1  0  0  0  0
 21 23  1  0  0  0  0
 21 19  2  0  0  0  0
 22 21  1  0  0  0  0
 23 14  2  0  0  0  0
 24 23  1  0  0  0  0
 25  1  1  0  0  0  0
 25 34  1  0  0  0  0
 26 25  2  0  0  0  0
 27 26  1  0  0  0  0
 28 26  1  0  0  0  0
 28 30  2  0  0  0  0
 29 28  1  0  0  0  0
 30 32  1  0  0  0  0
 31 30  1  0  0  0  0
 32 34  2  0  0  0  0
 32 33  1  0  0  0  0
 34 35  1  0  0  0  0
 36 13  1  0  0  0  0
 36 38  1  0  0  0  0
 37 36  1  0  0  0  0
 38 39  1  0  0  0  0
 38 40  1  0  0  0  0
 41 38  1  0  0  0  0
 42 36  1  0  0  0  0
 42 45  1  0  0  0  0
 43 42  1  0  0  0  0
 44 42  1  0  0  0  0
 46 48  1  0  0  0  0
 46 47  1  0  0  0  0
 48 50  1  0  0  0  0
 48 49  1  0  0  0  0
 51 48  1  0  0  0  0
 52 55  1  0  0  0  0
 52 46  1  0  0  0  0
 53 52  1  0  0  0  0
 54 52  1  0  0  0  0
M  END
