1,16
 OpenBabel05122313063D

 42 44  0  0  0  0  0  0  0  0999 V2000
    1.3303   -0.5941   -0.3654 P   0  0  2  0  0  0  0  0  0  0  0  0
    2.8561   -1.2566    0.3758 C   0  0  0  0  0  0  0  0  0  0  0  0
    3.5293   -0.4994    1.3552 C   0  0  0  0  0  0  0  0  0  0  0  0
    3.1263    0.4871    1.6469 H   0  0  0  0  0  0  0  0  0  0  0  0
    4.7059   -1.0102    1.9260 C   0  0  0  0  0  0  0  0  0  0  0  0
    5.2364   -0.4215    2.6895 H   0  0  0  0  0  0  0  0  0  0  0  0
    5.2021   -2.2622    1.5311 C   0  0  0  0  0  0  0  0  0  0  0  0
    6.1229   -2.6581    1.9863 H   0  0  0  0  0  0  0  0  0  0  0  0
    4.5254   -3.0159    0.5562 C   0  0  0  0  0  0  0  0  0  0  0  0
    4.9129   -3.9993    0.2494 H   0  0  0  0  0  0  0  0  0  0  0  0
    3.3530   -2.5150   -0.0253 C   0  0  0  0  0  0  0  0  0  0  0  0
    2.8227   -3.1089   -0.7874 H   0  0  0  0  0  0  0  0  0  0  0  0
   -0.0001   -1.9066   -0.3447 C   0  0  0  0  0  0  0  0  0  0  0  0
   -0.0001   -2.3967    0.6488 H   0  0  0  0  0  0  0  0  0  0  0  0
   -0.0002   -2.6632   -1.1565 H   0  0  0  0  0  0  0  0  0  0  0  0
   -1.3304   -0.5939   -0.3654 P   0  0  2  0  0  0  0  0  0  0  0  0
   -2.8563   -1.2564    0.3757 C   0  0  0  0  0  0  0  0  0  0  0  0
   -3.5294   -0.4993    1.3552 C   0  0  0  0  0  0  0  0  0  0  0  0
   -3.1264    0.4872    1.6470 H   0  0  0  0  0  0  0  0  0  0  0  0
   -4.7061   -1.0102    1.9260 C   0  0  0  0  0  0  0  0  0  0  0  0
   -5.2365   -0.4214    2.6896 H   0  0  0  0  0  0  0  0  0  0  0  0
   -5.2023   -2.2621    1.5311 C   0  0  0  0  0  0  0  0  0  0  0  0
   -6.1231   -2.6579    1.9862 H   0  0  0  0  0  0  0  0  0  0  0  0
   -4.5256   -3.0157    0.5560 C   0  0  0  0  0  0  0  0  0  0  0  0
   -4.9132   -3.9990    0.2491 H   0  0  0  0  0  0  0  0  0  0  0  0
   -3.3532   -2.5148   -0.0255 C   0  0  0  0  0  0  0  0  0  0  0  0
   -2.8230   -3.1085   -0.7877 H   0  0  0  0  0  0  0  0  0  0  0  0
    1.5866   -0.3450   -2.1650 C   0  0  0  0  0  0  0  0  0  0  0  0
    1.9306   -1.2934   -2.6316 H   0  0  0  0  0  0  0  0  0  0  0  0
    2.3926    0.4093   -2.2863 H   0  0  0  0  0  0  0  0  0  0  0  0
   -1.5867   -0.3447   -2.1650 C   0  0  0  0  0  0  0  0  0  0  0  0
   -2.3924    0.4099   -2.2862 H   0  0  0  0  0  0  0  0  0  0  0  0
   -1.9310   -1.2929   -2.6317 H   0  0  0  0  0  0  0  0  0  0  0  0
    0.0000    0.3505   -3.0173 Si  0  0  0  0  0  0  0  0  0  0  0  0
    0.0003    2.2243   -2.9124 C   0  0  0  0  0  0  0  0  0  0  0  0
    0.8981    2.6451   -3.4093 H   0  0  0  0  0  0  0  0  0  0  0  0
    0.0013    2.5523   -1.8522 H   0  0  0  0  0  0  0  0  0  0  0  0
   -0.8985    2.6452   -3.4076 H   0  0  0  0  0  0  0  0  0  0  0  0
    0.0000   -0.2493   -4.8091 C   0  0  0  0  0  0  0  0  0  0  0  0
   -0.0002   -1.3570   -4.8703 H   0  0  0  0  0  0  0  0  0  0  0  0
    0.8959    0.1231   -5.3472 H   0  0  0  0  0  0  0  0  0  0  0  0
   -0.8956    0.1235   -5.3472 H   0  0  0  0  0  0  0  0  0  0  0  0
  1 13  1  0  0  0  0
  1  2  1  1  0  0  0
  2  3  1  0  0  0  0
  3  4  1  0  0  0  0
  3  5  2  0  0  0  0
  5  6  1  0  0  0  0
  7  5  1  0  0  0  0
  7  8  1  0  0  0  0
  9  7  2  0  0  0  0
 10  9  1  0  0  0  0
 11  2  2  0  0  0  0
 11  9  1  0  0  0  0
 12 11  1  0  0  0  0
 13 14  1  0  0  0  0
 15 13  1  0  0  0  0
 16 13  1  0  0  0  0
 16 17  1  1  0  0  0
 17 18  1  0  0  0  0
 18 19  1  0  0  0  0
 18 20  2  0  0  0  0
 20 21  1  0  0  0  0
 22 20  1  0  0  0  0
 22 23  1  0  0  0  0
 24 22  2  0  0  0  0
 25 24  1  0  0  0  0
 26 17  2  0  0  0  0
 26 24  1  0  0  0  0
 27 26  1  0  0  0  0
 28  1  1  0  0  0  0
 29 28  1  0  0  0  0
 30 28  1  0  0  0  0
 31 16  1  0  0  0  0
 32 31  1  0  0  0  0
 33 31  1  0  0  0  0
 34 35  1  0  0  0  0
 34 31  1  0  0  0  0
 34 28  1  0  0  0  0
 35 37  1  0  0  0  0
 36 35  1  0  0  0  0
 38 35  1  0  0  0  0
 39 34  1  0  0  0  0
 40 39  1  0  0  0  0
 41 39  1  0  0  0  0
 42 39  1  0  0  0  0
M  END
