1,18
 OpenBabel05122313063D

 46 46  0  0  0  0  0  0  0  0999 V2000
   -1.3254   -0.2413   -0.3967 P   0  0  2  0  0  0  0  0  0  0  0  0
   -2.9571    0.1053   -1.3009 C   0  0  0  0  0  0  0  0  0  0  0  0
   -4.0617    0.1412   -0.2302 C   0  0  0  0  0  0  0  0  0  0  0  0
   -4.2052   -0.8440    0.2564 H   0  0  0  0  0  0  0  0  0  0  0  0
   -5.0262    0.4236   -0.7027 H   0  0  0  0  0  0  0  0  0  0  0  0
   -3.8406    0.8910    0.5561 H   0  0  0  0  0  0  0  0  0  0  0  0
   -3.2310   -0.9838   -2.3472 C   0  0  0  0  0  0  0  0  0  0  0  0
   -3.2943   -1.9961   -1.8991 H   0  0  0  0  0  0  0  0  0  0  0  0
   -2.4498   -1.0028   -3.1341 H   0  0  0  0  0  0  0  0  0  0  0  0
   -4.2029   -0.7864   -2.8476 H   0  0  0  0  0  0  0  0  0  0  0  0
   -2.8467    1.4796   -1.9765 C   0  0  0  0  0  0  0  0  0  0  0  0
   -2.7030    2.2869   -1.2338 H   0  0  0  0  0  0  0  0  0  0  0  0
   -3.7825    1.6916   -2.5356 H   0  0  0  0  0  0  0  0  0  0  0  0
   -2.0085    1.5299   -2.6998 H   0  0  0  0  0  0  0  0  0  0  0  0
   -0.0000   -0.6319   -1.6636 C   0  0  0  0  0  0  0  0  0  0  0  0
   -0.0000   -1.6178   -2.1725 H   0  0  0  0  0  0  0  0  0  0  0  0
   -0.0000    0.1823   -2.4158 H   0  0  0  0  0  0  0  0  0  0  0  0
    1.3254   -0.2414   -0.3967 P   0  0  2  0  0  0  0  0  0  0  0  0
    2.9571    0.1052   -1.3009 C   0  0  0  0  0  0  0  0  0  0  0  0
    2.8466    1.4793   -1.9769 C   0  0  0  0  0  0  0  0  0  0  0  0
    2.0084    1.5293   -2.7003 H   0  0  0  0  0  0  0  0  0  0  0  0
    3.7823    1.6912   -2.5360 H   0  0  0  0  0  0  0  0  0  0  0  0
    2.7027    2.2868   -1.2345 H   0  0  0  0  0  0  0  0  0  0  0  0
    3.2311   -0.9841   -2.3469 C   0  0  0  0  0  0  0  0  0  0  0  0
    3.2946   -1.9963   -1.8985 H   0  0  0  0  0  0  0  0  0  0  0  0
    4.2031   -0.7867   -2.8473 H   0  0  0  0  0  0  0  0  0  0  0  0
    2.4500   -1.0034   -3.1338 H   0  0  0  0  0  0  0  0  0  0  0  0
    4.0617    0.1416   -0.2302 C   0  0  0  0  0  0  0  0  0  0  0  0
    4.2052   -0.8435    0.2567 H   0  0  0  0  0  0  0  0  0  0  0  0
    3.8404    0.8916    0.5559 H   0  0  0  0  0  0  0  0  0  0  0  0
    5.0261    0.4240   -0.7027 H   0  0  0  0  0  0  0  0  0  0  0  0
    1.5863   -1.8638    0.4510 C   0  0  0  0  0  0  0  0  0  0  0  0
    2.0155   -1.6377    1.4480 H   0  0  0  0  0  0  0  0  0  0  0  0
    2.3227   -2.4877   -0.0992 H   0  0  0  0  0  0  0  0  0  0  0  0
   -1.5864   -1.8638    0.4510 C   0  0  0  0  0  0  0  0  0  0  0  0
   -2.3228   -2.4876   -0.0991 H   0  0  0  0  0  0  0  0  0  0  0  0
   -2.0155   -1.6377    1.4480 H   0  0  0  0  0  0  0  0  0  0  0  0
   -0.0000   -2.9152    0.6700 Si  0  0  0  0  0  0  0  0  0  0  0  0
   -0.0001   -4.2457   -0.6776 C   0  0  0  0  0  0  0  0  0  0  0  0
   -0.0001   -3.8080   -1.6967 H   0  0  0  0  0  0  0  0  0  0  0  0
   -0.8958   -4.8947   -0.5893 H   0  0  0  0  0  0  0  0  0  0  0  0
    0.8956   -4.8947   -0.5893 H   0  0  0  0  0  0  0  0  0  0  0  0
   -0.0000   -3.7130    2.3763 C   0  0  0  0  0  0  0  0  0  0  0  0
    0.0000   -2.9304    3.1611 H   0  0  0  0  0  0  0  0  0  0  0  0
    0.8971   -4.3501    2.5167 H   0  0  0  0  0  0  0  0  0  0  0  0
   -0.8972   -4.3501    2.5167 H   0  0  0  0  0  0  0  0  0  0  0  0
  1  2  1  6  0  0  0
  1 35  1  0  0  0  0
  2  3  1  0  0  0  0
  3  4  1  0  0  0  0
  3  6  1  0  0  0  0
  5  3  1  0  0  0  0
  7  8  1  0  0  0  0
  7  2  1  0  0  0  0
  9  7  1  0  0  0  0
 10  7  1  0  0  0  0
 11  2  1  0  0  0  0
 11 12  1  0  0  0  0
 13 11  1  0  0  0  0
 14 11  1  0  0  0  0
 15 18  1  0  0  0  0
 15  1  1  0  0  0  0
 16 15  1  0  0  0  0
 17 15  1  0  0  0  0
 18 19  1  6  0  0  0
 18 32  1  0  0  0  0
 19 28  1  0  0  0  0
 20 19  1  0  0  0  0
 20 23  1  0  0  0  0
 21 20  1  0  0  0  0
 22 20  1  0  0  0  0
 24 25  1  0  0  0  0
 24 19  1  0  0  0  0
 26 24  1  0  0  0  0
 27 24  1  0  0  0  0
 28 29  1  0  0  0  0
 28 30  1  0  0  0  0
 31 28  1  0  0  0  0
 32 38  1  0  0  0  0
 32 33  1  0  0  0  0
 34 32  1  0  0  0  0
 35 38  1  0  0  0  0
 35 37  1  0  0  0  0
 36 35  1  0  0  0  0
 38 43  1  0  0  0  0
 39 42  1  0  0  0  0
 39 41  1  0  0  0  0
 39 38  1  0  0  0  0
 40 39  1  0  0  0  0
 43 45  1  0  0  0  0
 43 46  1  0  0  0  0
 43 44  1  0  0  0  0
M  END
