1,2
 OpenBabel05122313063D

 50 51  0  0  1  0  0  0  0  0999 V2000
    0.8270    1.4834   -0.2842 P   0  0  2  0  0  0  0  0  0  0  0  0
    0.8283   -1.4829    0.2844 P   0  0  2  0  0  0  0  0  0  0  0  0
    2.5704    0.7092   -0.2941 C   0  0  2  0  0  0  0  0  0  0  0  0
    3.2326    1.3592    0.3165 H   0  0  0  0  0  0  0  0  0  0  0  0
    3.0142    0.8039   -1.7672 C   0  0  0  0  0  0  0  0  0  0  0  0
    4.1137    0.6785   -1.8616 H   0  0  0  0  0  0  0  0  0  0  0  0
    2.5460   -0.0272   -2.3369 H   0  0  0  0  0  0  0  0  0  0  0  0
    2.5284    2.1399   -2.3412 C   0  0  0  0  0  0  0  0  0  0  0  0
    2.6892    2.1963   -3.4382 H   0  0  0  0  0  0  0  0  0  0  0  0
    3.1108    2.9708   -1.8902 H   0  0  0  0  0  0  0  0  0  0  0  0
    1.0416    2.2772   -1.9761 C   0  0  0  0  0  0  0  0  0  0  0  0
    0.4009    1.6946   -2.6670 H   0  0  0  0  0  0  0  0  0  0  0  0
    0.6715    3.3211   -1.9855 H   0  0  0  0  0  0  0  0  0  0  0  0
    2.5712   -0.7076    0.2916 C   0  0  1  0  0  0  0  0  0  0  0  0
    3.2328   -1.3572   -0.3200 H   0  0  0  0  0  0  0  0  0  0  0  0
    3.0175   -0.8020    1.7641 C   0  0  0  0  0  0  0  0  0  0  0  0
    4.1171   -0.6763    1.8566 H   0  0  0  0  0  0  0  0  0  0  0  0
    2.5500    0.0290    2.3344 H   0  0  0  0  0  0  0  0  0  0  0  0
    2.5329   -2.1380    2.3391 C   0  0  0  0  0  0  0  0  0  0  0  0
    2.6955   -2.1942    3.4358 H   0  0  0  0  0  0  0  0  0  0  0  0
    3.1150   -2.9689    1.8874 H   0  0  0  0  0  0  0  0  0  0  0  0
    1.0456   -2.2759    1.9763 C   0  0  0  0  0  0  0  0  0  0  0  0
    0.4059   -1.6932    2.6679 H   0  0  0  0  0  0  0  0  0  0  0  0
    0.6758   -3.3199    1.9867 H   0  0  0  0  0  0  0  0  0  0  0  0
    0.8736    2.9636    0.9267 C   0  0  0  0  0  0  0  0  0  0  0  0
    2.0917    3.8733    0.7138 C   0  0  0  0  0  0  0  0  0  0  0  0
    2.1064    4.3225   -0.2995 H   0  0  0  0  0  0  0  0  0  0  0  0
    3.0533    3.3452    0.8743 H   0  0  0  0  0  0  0  0  0  0  0  0
    2.0559    4.7128    1.4415 H   0  0  0  0  0  0  0  0  0  0  0  0
   -0.4196    3.7681    0.7055 C   0  0  0  0  0  0  0  0  0  0  0  0
   -0.4849    4.5773    1.4643 H   0  0  0  0  0  0  0  0  0  0  0  0
   -1.3156    3.1230    0.7832 H   0  0  0  0  0  0  0  0  0  0  0  0
   -0.4418    4.2474   -0.2944 H   0  0  0  0  0  0  0  0  0  0  0  0
    0.8766    2.3876    2.3511 C   0  0  0  0  0  0  0  0  0  0  0  0
    0.7634    3.2071    3.0927 H   0  0  0  0  0  0  0  0  0  0  0  0
    1.8265    1.8630    2.5807 H   0  0  0  0  0  0  0  0  0  0  0  0
    0.0444    1.6657    2.4838 H   0  0  0  0  0  0  0  0  0  0  0  0
    0.8742   -2.9636   -0.9260 C   0  0  0  0  0  0  0  0  0  0  0  0
    0.8741   -2.3880   -2.3506 C   0  0  0  0  0  0  0  0  0  0  0  0
    1.8229   -1.8622   -2.5819 H   0  0  0  0  0  0  0  0  0  0  0  0
    0.0407   -1.6672   -2.4821 H   0  0  0  0  0  0  0  0  0  0  0  0
    0.7608   -3.2079   -3.0918 H   0  0  0  0  0  0  0  0  0  0  0  0
   -0.4177   -3.7694   -0.7021 C   0  0  0  0  0  0  0  0  0  0  0  0
   -0.4839   -4.5784   -1.4610 H   0  0  0  0  0  0  0  0  0  0  0  0
   -1.3145   -3.1251   -0.7776 H   0  0  0  0  0  0  0  0  0  0  0  0
   -0.4371   -4.2490    0.2977 H   0  0  0  0  0  0  0  0  0  0  0  0
    2.0937   -3.8719   -0.7151 C   0  0  0  0  0  0  0  0  0  0  0  0
    2.1107   -4.3207    0.2983 H   0  0  0  0  0  0  0  0  0  0  0  0
    3.0545   -3.3430   -0.8776 H   0  0  0  0  0  0  0  0  0  0  0  0
    2.0573   -4.7118   -1.4423 H   0  0  0  0  0  0  0  0  0  0  0  0
  1 25  1  1  0  0  0
  2 38  1  6  0  0  0
  2 14  1  0  0  0  0
  2 22  1  0  0  0  0
  3  1  1  0  0  0  0
  3 14  1  0  0  0  0
  3  4  1  1  0  0  0
  5  3  1  0  0  0  0
  6  5  1  0  0  0  0
  7  5  1  0  0  0  0
  8 11  1  0  0  0  0
  8 10  1  0  0  0  0
  8  5  1  0  0  0  0
  9  8  1  0  0  0  0
 11  1  1  0  0  0  0
 12 11  1  0  0  0  0
 13 11  1  0  0  0  0
 14 15  1  6  0  0  0
 14 16  1  0  0  0  0
 16 17  1  0  0  0  0
 16 18  1  0  0  0  0
 16 19  1  0  0  0  0
 19 20  1  0  0  0  0
 21 19  1  0  0  0  0
 22 24  1  0  0  0  0
 22 19  1  0  0  0  0
 22 23  1  0  0  0  0
 25 34  1  0  0  0  0
 26 28  1  0  0  0  0
 26 25  1  0  0  0  0
 26 29  1  0  0  0  0
 27 26  1  0  0  0  0
 30 32  1  0  0  0  0
 30 25  1  0  0  0  0
 30 31  1  0  0  0  0
 33 30  1  0  0  0  0
 34 37  1  0  0  0  0
 34 36  1  0  0  0  0
 34 35  1  0  0  0  0
 38 47  1  0  0  0  0
 38 43  1  0  0  0  0
 39 38  1  0  0  0  0
 40 39  1  0  0  0  0
 41 39  1  0  0  0  0
 42 39  1  0  0  0  0
 43 46  1  0  0  0  0
 44 43  1  0  0  0  0
 45 43  1  0  0  0  0
 47 48  1  0  0  0  0
 49 47  1  0  0  0  0
 50 47  1  0  0  0  0
M  END
