1,2
 OpenBabel05122313063D

 66 69  0  0  0  0  0  0  0  0999 V2000
   -1.6174    0.0456    0.1113 P   0  0  0  0  0  0  0  0  0  0  0  0
    1.6171   -0.0456    0.1111 P   0  0  0  0  0  0  0  0  0  0  0  0
   -1.1497    1.1037    1.5689 C   0  0  0  0  0  0  0  0  0  0  0  0
   -1.6830    2.5111    1.5190 C   0  0  0  0  0  0  0  0  0  0  0  0
   -0.3109    0.6752    2.5582 C   0  0  0  0  0  0  0  0  0  0  0  0
    0.0048    1.5461    3.7623 C   0  0  0  0  0  0  0  0  0  0  0  0
    0.3108   -0.6786    2.5572 C   0  0  0  0  0  0  0  0  0  0  0  0
   -0.0048   -1.5512    3.7600 C   0  0  0  0  0  0  0  0  0  0  0  0
    1.1493   -1.1058    1.5671 C   0  0  0  0  0  0  0  0  0  0  0  0
    1.6821   -2.5133    1.5151 C   0  0  0  0  0  0  0  0  0  0  0  0
    3.1787   -0.8476   -0.4537 C   0  0  0  0  0  0  0  0  0  0  0  0
    3.1084   -1.8784   -1.4133 C   0  0  0  0  0  0  0  0  0  0  0  0
    4.2691   -2.5655   -1.7911 C   0  0  0  0  0  0  0  0  0  0  0  0
    5.5099   -2.2203   -1.2304 C   0  0  0  0  0  0  0  0  0  0  0  0
    5.5860   -1.1824   -0.2898 C   0  0  0  0  0  0  0  0  0  0  0  0
    4.4242   -0.4968    0.1003 C   0  0  0  0  0  0  0  0  0  0  0  0
    2.1474    1.5920    0.7419 C   0  0  0  0  0  0  0  0  0  0  0  0
    2.7210    1.7696    2.0163 C   0  0  0  0  0  0  0  0  0  0  0  0
    3.1667    3.0396    2.4136 C   0  0  0  0  0  0  0  0  0  0  0  0
    3.0431    4.1334    1.5411 C   0  0  0  0  0  0  0  0  0  0  0  0
    2.4830    3.9539    0.2656 C   0  0  0  0  0  0  0  0  0  0  0  0
    2.0388    2.6868   -0.1406 C   0  0  0  0  0  0  0  0  0  0  0  0
   -3.1795    0.8476   -0.4518 C   0  0  0  0  0  0  0  0  0  0  0  0
   -3.1098    1.8805   -1.4092 C   0  0  0  0  0  0  0  0  0  0  0  0
   -4.2709    2.5677   -1.7856 C   0  0  0  0  0  0  0  0  0  0  0  0
   -5.5115    2.2203   -1.2261 C   0  0  0  0  0  0  0  0  0  0  0  0
   -5.5872    1.1802   -0.2879 C   0  0  0  0  0  0  0  0  0  0  0  0
   -4.4250    0.4946    0.1010 C   0  0  0  0  0  0  0  0  0  0  0  0
   -2.1464   -1.5935    0.7394 C   0  0  0  0  0  0  0  0  0  0  0  0
   -2.0361   -2.6870   -0.1443 C   0  0  0  0  0  0  0  0  0  0  0  0
   -2.4795   -3.9550    0.2598 C   0  0  0  0  0  0  0  0  0  0  0  0
   -3.0405   -4.1367    1.5347 C   0  0  0  0  0  0  0  0  0  0  0  0
   -3.1657   -3.0441    2.4084 C   0  0  0  0  0  0  0  0  0  0  0  0
   -2.7209   -1.7732    2.0132 C   0  0  0  0  0  0  0  0  0  0  0  0
   -1.2568    3.1404    2.3203 H   0  0  0  0  0  0  0  0  0  0  0  0
   -2.7892    2.5425    1.5913 H   0  0  0  0  0  0  0  0  0  0  0  0
   -1.4265    2.9850    0.5476 H   0  0  0  0  0  0  0  0  0  0  0  0
    0.4971    2.4901    3.4552 H   0  0  0  0  0  0  0  0  0  0  0  0
    0.6940    1.0324    4.4586 H   0  0  0  0  0  0  0  0  0  0  0  0
   -0.9107    1.8162    4.3287 H   0  0  0  0  0  0  0  0  0  0  0  0
   -0.4977   -2.4945    3.4517 H   0  0  0  0  0  0  0  0  0  0  0  0
   -0.6934   -1.0383    4.4574 H   0  0  0  0  0  0  0  0  0  0  0  0
    0.9108   -1.8227    4.3257 H   0  0  0  0  0  0  0  0  0  0  0  0
    1.2549   -3.1440    2.3147 H   0  0  0  0  0  0  0  0  0  0  0  0
    2.7882   -2.5454    1.5883 H   0  0  0  0  0  0  0  0  0  0  0  0
    1.4263   -2.9854    0.5426 H   0  0  0  0  0  0  0  0  0  0  0  0
    2.1436   -2.1211   -1.8824 H   0  0  0  0  0  0  0  0  0  0  0  0
    4.2050   -3.3649   -2.5445 H   0  0  0  0  0  0  0  0  0  0  0  0
    6.4220   -2.7541   -1.5379 H   0  0  0  0  0  0  0  0  0  0  0  0
    6.5572   -0.8955    0.1414 H   0  0  0  0  0  0  0  0  0  0  0  0
    4.4961    0.3231    0.8296 H   0  0  0  0  0  0  0  0  0  0  0  0
    2.8040    0.9138    2.7035 H   0  0  0  0  0  0  0  0  0  0  0  0
    3.6104    3.1757    3.4118 H   0  0  0  0  0  0  0  0  0  0  0  0
    3.3901    5.1295    1.8559 H   0  0  0  0  0  0  0  0  0  0  0  0
    2.3954    4.8067   -0.4244 H   0  0  0  0  0  0  0  0  0  0  0  0
    1.6278    2.5227   -1.1506 H   0  0  0  0  0  0  0  0  0  0  0  0
   -2.1450    2.1249   -1.8776 H   0  0  0  0  0  0  0  0  0  0  0  0
   -4.2072    3.3688   -2.5373 H   0  0  0  0  0  0  0  0  0  0  0  0
   -6.4240    2.7542   -1.5326 H   0  0  0  0  0  0  0  0  0  0  0  0
   -6.5582    0.8915    0.1424 H   0  0  0  0  0  0  0  0  0  0  0  0
   -4.4965   -0.3270    0.8284 H   0  0  0  0  0  0  0  0  0  0  0  0
   -1.6244   -2.5212   -1.1537 H   0  0  0  0  0  0  0  0  0  0  0  0
   -2.3904   -4.8069   -0.4312 H   0  0  0  0  0  0  0  0  0  0  0  0
   -3.3869   -5.1335    1.8478 H   0  0  0  0  0  0  0  0  0  0  0  0
   -3.6102   -3.1819    3.4061 H   0  0  0  0  0  0  0  0  0  0  0  0
   -2.8051   -0.9185    2.7015 H   0  0  0  0  0  0  0  0  0  0  0  0
  1 29  1  0  0  0  0
  1  3  1  0  0  0  0
  2 17  1  0  0  0  0
  2  9  1  0  0  0  0
  3  5  2  0  0  0  0
  4  3  1  0  0  0  0
  4 36  1  0  0  0  0
  4 35  1  0  0  0  0
  5  6  1  0  0  0  0
  6 40  1  0  0  0  0
  6 39  1  0  0  0  0
  7  5  1  0  0  0  0
  7  8  1  0  0  0  0
  8 43  1  0  0  0  0
  8 42  1  0  0  0  0
  9  7  2  0  0  0  0
 10  9  1  0  0  0  0
 10 45  1  0  0  0  0
 10 44  1  0  0  0  0
 11 16  1  0  0  0  0
 11  2  1  0  0  0  0
 12 11  2  0  0  0  0
 13 12  1  0  0  0  0
 13 14  2  0  0  0  0
 14 15  1  0  0  0  0
 15 16  2  0  0  0  0
 15 50  1  0  0  0  0
 16 51  1  0  0  0  0
 17 18  1  0  0  0  0
 18 19  2  0  0  0  0
 18 52  1  0  0  0  0
 19 53  1  0  0  0  0
 20 54  1  0  0  0  0
 20 19  1  0  0  0  0
 21 20  2  0  0  0  0
 22 21  1  0  0  0  0
 22 17  2  0  0  0  0
 23 28  1  0  0  0  0
 23  1  1  0  0  0  0
 24 23  2  0  0  0  0
 25 24  1  0  0  0  0
 25 26  2  0  0  0  0
 26 27  1  0  0  0  0
 27 28  2  0  0  0  0
 27 60  1  0  0  0  0
 28 61  1  0  0  0  0
 29 34  1  0  0  0  0
 30 31  1  0  0  0  0
 30 29  2  0  0  0  0
 31 32  2  0  0  0  0
 32 64  1  0  0  0  0
 32 33  1  0  0  0  0
 33 65  1  0  0  0  0
 34 33  2  0  0  0  0
 34 66  1  0  0  0  0
 37  4  1  0  0  0  0
 38  6  1  0  0  0  0
 41  8  1  0  0  0  0
 46 10  1  0  0  0  0
 47 12  1  0  0  0  0
 48 13  1  0  0  0  0
 49 14  1  0  0  0  0
 55 21  1  0  0  0  0
 56 22  1  0  0  0  0
 57 24  1  0  0  0  0
 58 25  1  0  0  0  0
 59 26  1  0  0  0  0
 62 30  1  0  0  0  0
 63 31  1  0  0  0  0
M  END
