1,2
 OpenBabel05122313063D

 47 48  0  0  0  0  0  0  0  0999 V2000
   -0.7842    0.0142   -0.2171 P   0  0  0  0  0  0  0  0  0  0  0  0
    1.7957    0.0890   -0.7414 P   0  0  0  0  0  0  0  0  0  0  0  0
    0.2383    0.1537   -1.7799 C   0  0  0  0  0  0  0  0  0  0  0  0
    0.1203   -0.6779   -2.5024 H   0  0  0  0  0  0  0  0  0  0  0  0
    0.1029    1.1230   -2.2995 H   0  0  0  0  0  0  0  0  0  0  0  0
   -1.9683    1.4123   -0.2357 C   0  0  0  0  0  0  0  0  0  0  0  0
   -2.5537    1.8646   -1.4363 C   0  0  0  0  0  0  0  0  0  0  0  0
   -2.3022    1.3872   -2.3967 H   0  0  0  0  0  0  0  0  0  0  0  0
   -3.4644    2.9305   -1.4109 C   0  0  0  0  0  0  0  0  0  0  0  0
   -3.9198    3.2835   -2.3487 H   0  0  0  0  0  0  0  0  0  0  0  0
   -3.7925    3.5453   -0.1909 C   0  0  0  0  0  0  0  0  0  0  0  0
   -4.5057    4.3835   -0.1739 H   0  0  0  0  0  0  0  0  0  0  0  0
   -3.2088    3.0936    1.0033 C   0  0  0  0  0  0  0  0  0  0  0  0
   -3.4626    3.5763    1.9593 H   0  0  0  0  0  0  0  0  0  0  0  0
   -2.2934    2.0303    0.9883 C   0  0  0  0  0  0  0  0  0  0  0  0
   -1.8231    1.6590    1.9157 H   0  0  0  0  0  0  0  0  0  0  0  0
   -1.7755   -1.5196   -0.3753 C   0  0  0  0  0  0  0  0  0  0  0  0
   -2.3892   -1.8791   -1.5928 C   0  0  0  0  0  0  0  0  0  0  0  0
   -2.2934   -1.2331   -2.4799 H   0  0  0  0  0  0  0  0  0  0  0  0
   -3.1298   -3.0667   -1.6766 C   0  0  0  0  0  0  0  0  0  0  0  0
   -3.6072   -3.3482   -2.6276 H   0  0  0  0  0  0  0  0  0  0  0  0
   -3.2617   -3.8937   -0.5481 C   0  0  0  0  0  0  0  0  0  0  0  0
   -3.8422   -4.8264   -0.6172 H   0  0  0  0  0  0  0  0  0  0  0  0
   -2.6540   -3.5316    0.6644 C   0  0  0  0  0  0  0  0  0  0  0  0
   -2.7577   -4.1779    1.5491 H   0  0  0  0  0  0  0  0  0  0  0  0
   -1.9058   -2.3479    0.7570 C   0  0  0  0  0  0  0  0  0  0  0  0
   -1.4262   -2.0389    1.7019 H   0  0  0  0  0  0  0  0  0  0  0  0
    2.7043   -1.4453   -1.2889 C   0  0  0  0  0  0  0  0  0  0  0  0
    2.6656   -1.4218   -2.4020 H   0  0  0  0  0  0  0  0  0  0  0  0
    1.9284   -2.6627   -0.7678 C   0  0  0  0  0  0  0  0  0  0  0  0
    2.4049   -3.5992   -1.1239 H   0  0  0  0  0  0  0  0  0  0  0  0
    0.8703   -2.6752   -1.0999 H   0  0  0  0  0  0  0  0  0  0  0  0
    1.9327   -2.6665    0.3410 H   0  0  0  0  0  0  0  0  0  0  0  0
    4.1604   -1.4467   -0.8121 C   0  0  0  0  0  0  0  0  0  0  0  0
    4.2048   -1.3265    0.2891 H   0  0  0  0  0  0  0  0  0  0  0  0
    4.7544   -0.6316   -1.2712 H   0  0  0  0  0  0  0  0  0  0  0  0
    4.6406   -2.4082   -1.0883 H   0  0  0  0  0  0  0  0  0  0  0  0
    2.8118    1.5902   -1.1380 C   0  0  0  0  0  0  0  0  0  0  0  0
    3.7241    1.4175   -0.5268 H   0  0  0  0  0  0  0  0  0  0  0  0
    3.1624    1.6927   -2.6232 C   0  0  0  0  0  0  0  0  0  0  0  0
    2.2539    1.8117   -3.2500 H   0  0  0  0  0  0  0  0  0  0  0  0
    3.7167    0.8059   -2.9906 H   0  0  0  0  0  0  0  0  0  0  0  0
    3.8010    2.5825   -2.8025 H   0  0  0  0  0  0  0  0  0  0  0  0
    2.0994    2.8272   -0.5793 C   0  0  0  0  0  0  0  0  0  0  0  0
    2.7164    3.7331   -0.7505 H   0  0  0  0  0  0  0  0  0  0  0  0
    1.9356    2.7132    0.5103 H   0  0  0  0  0  0  0  0  0  0  0  0
    1.1147    2.9978   -1.0638 H   0  0  0  0  0  0  0  0  0  0  0  0
  3  2  1  0  0  0  0
  3  1  1  0  0  0  0
  4  3  1  0  0  0  0
  5  3  1  0  0  0  0
  6  1  1  0  0  0  0
  6 15  1  0  0  0  0
  7  9  1  0  0  0  0
  7  6  2  0  0  0  0
  8  7  1  0  0  0  0
  9 11  2  0  0  0  0
 10  9  1  0  0  0  0
 11 12  1  0  0  0  0
 11 13  1  0  0  0  0
 13 14  1  0  0  0  0
 15 13  2  0  0  0  0
 15 16  1  0  0  0  0
 17  1  1  0  0  0  0
 17 26  1  0  0  0  0
 18 17  2  0  0  0  0
 19 18  1  0  0  0  0
 20 18  1  0  0  0  0
 20 22  2  0  0  0  0
 21 20  1  0  0  0  0
 22 24  1  0  0  0  0
 23 22  1  0  0  0  0
 24 26  2  0  0  0  0
 24 25  1  0  0  0  0
 26 27  1  0  0  0  0
 28 34  1  0  0  0  0
 28 30  1  0  0  0  0
 28  2  1  0  0  0  0
 29 28  1  0  0  0  0
 30 33  1  0  0  0  0
 31 30  1  0  0  0  0
 32 30  1  0  0  0  0
 34 35  1  0  0  0  0
 36 34  1  0  0  0  0
 37 34  1  0  0  0  0
 38  2  1  0  0  0  0
 38 44  1  0  0  0  0
 38 39  1  0  0  0  0
 40 38  1  0  0  0  0
 41 40  1  0  0  0  0
 42 40  1  0  0  0  0
 43 40  1  0  0  0  0
 44 46  1  0  0  0  0
 45 44  1  0  0  0  0
 47 44  1  0  0  0  0
M  END
