1,2
 OpenBabel05122313063D

 64 68  0  0  1  0  0  0  0  0999 V2000
   -1.6763    0.3833    0.2412 P   0  0  0  0  0  0  0  0  0  0  0  0
    1.3414   -0.6569   -0.0513 P   0  0  0  0  0  0  0  0  0  0  0  0
   -1.2189    1.3106    1.5609 O   0  0  0  0  0  0  0  0  0  0  0  0
    1.3741    0.9711    0.3552 O   0  0  0  0  0  0  0  0  0  0  0  0
   -1.2518    1.3921   -1.2225 C   0  0  0  0  0  0  0  0  0  0  0  0
   -1.0065    2.7740   -1.1156 C   0  0  0  0  0  0  0  0  0  0  0  0
   -1.0686    3.2672   -0.1357 H   0  0  0  0  0  0  0  0  0  0  0  0
   -0.6520    3.5054   -2.2579 C   0  0  0  0  0  0  0  0  0  0  0  0
   -0.4430    4.5824   -2.1700 H   0  0  0  0  0  0  0  0  0  0  0  0
   -0.5566    2.8659   -3.5055 C   0  0  0  0  0  0  0  0  0  0  0  0
   -0.2735    3.4435   -4.3988 H   0  0  0  0  0  0  0  0  0  0  0  0
   -0.8100    1.4893   -3.6128 C   0  0  0  0  0  0  0  0  0  0  0  0
   -0.7194    0.9819   -4.5846 H   0  0  0  0  0  0  0  0  0  0  0  0
   -1.1496    0.7475   -2.4721 C   0  0  0  0  0  0  0  0  0  0  0  0
   -1.3140   -0.3399   -2.5407 H   0  0  0  0  0  0  0  0  0  0  0  0
   -3.4825    0.5110    0.4100 C   0  0  0  0  0  0  0  0  0  0  0  0
   -4.0809    0.0025    1.5818 C   0  0  0  0  0  0  0  0  0  0  0  0
   -3.4594   -0.4738    2.3535 H   0  0  0  0  0  0  0  0  0  0  0  0
   -5.4671    0.0946    1.7501 C   0  0  0  0  0  0  0  0  0  0  0  0
   -5.9331   -0.3037    2.6637 H   0  0  0  0  0  0  0  0  0  0  0  0
   -6.2627    0.6763    0.7479 C   0  0  0  0  0  0  0  0  0  0  0  0
   -7.3536    0.7388    0.8801 H   0  0  0  0  0  0  0  0  0  0  0  0
   -5.6692    1.1709   -0.4228 C   0  0  0  0  0  0  0  0  0  0  0  0
   -6.2904    1.6246   -1.2096 H   0  0  0  0  0  0  0  0  0  0  0  0
   -4.2784    1.0919   -0.5946 C   0  0  0  0  0  0  0  0  0  0  0  0
   -3.8124    1.4832   -1.5107 H   0  0  0  0  0  0  0  0  0  0  0  0
    2.7141   -1.3141    0.9610 C   0  0  0  0  0  0  0  0  0  0  0  0
    4.0260   -0.8625    0.7068 C   0  0  0  0  0  0  0  0  0  0  0  0
    4.2246   -0.2099   -0.1578 H   0  0  0  0  0  0  0  0  0  0  0  0
    5.0747   -1.2587    1.5488 C   0  0  0  0  0  0  0  0  0  0  0  0
    6.0998   -0.9136    1.3459 H   0  0  0  0  0  0  0  0  0  0  0  0
    4.8168   -2.1007    2.6437 C   0  0  0  0  0  0  0  0  0  0  0  0
    5.6422   -2.4140    3.3011 H   0  0  0  0  0  0  0  0  0  0  0  0
    3.5104   -2.5495    2.8960 C   0  0  0  0  0  0  0  0  0  0  0  0
    3.3101   -3.2170    3.7475 H   0  0  0  0  0  0  0  0  0  0  0  0
    2.4558   -2.1605    2.0571 C   0  0  0  0  0  0  0  0  0  0  0  0
    1.4335   -2.5311    2.2248 H   0  0  0  0  0  0  0  0  0  0  0  0
    1.9464   -0.4878   -1.7639 C   0  0  0  0  0  0  0  0  0  0  0  0
    2.3652    0.7588   -2.2706 C   0  0  0  0  0  0  0  0  0  0  0  0
    2.3382    1.6469   -1.6242 H   0  0  0  0  0  0  0  0  0  0  0  0
    2.7743    0.8582   -3.6086 C   0  0  0  0  0  0  0  0  0  0  0  0
    3.0913    1.8338   -4.0076 H   0  0  0  0  0  0  0  0  0  0  0  0
    2.7658   -0.2744   -4.4375 C   0  0  0  0  0  0  0  0  0  0  0  0
    3.0841   -0.1903   -5.4880 H   0  0  0  0  0  0  0  0  0  0  0  0
    2.3442   -1.5146   -3.9284 C   0  0  0  0  0  0  0  0  0  0  0  0
    2.3310   -2.4033   -4.5773 H   0  0  0  0  0  0  0  0  0  0  0  0
    1.9294   -1.6284   -2.5945 C   0  0  0  0  0  0  0  0  0  0  0  0
    1.5788   -2.5910   -2.1859 H   0  0  0  0  0  0  0  0  0  0  0  0
    1.4664    2.9241    1.6738 C   0  0  0  0  0  0  0  0  0  0  0  0
    2.7064    3.3947    1.1955 C   0  0  0  0  0  0  0  0  0  0  0  0
    3.4721    2.6667    0.8850 H   0  0  0  0  0  0  0  0  0  0  0  0
    2.9661    4.7684    1.1087 C   0  0  0  0  0  0  0  0  0  0  0  0
    3.9398    5.1196    0.7346 H   0  0  0  0  0  0  0  0  0  0  0  0
    1.9866    5.6952    1.5032 C   0  0  0  0  0  0  0  0  0  0  0  0
    2.1881    6.7751    1.4373 H   0  0  0  0  0  0  0  0  0  0  0  0
    0.7518    5.2362    1.9845 C   0  0  0  0  0  0  0  0  0  0  0  0
   -0.0216    5.9553    2.2944 H   0  0  0  0  0  0  0  0  0  0  0  0
    0.4907    3.8585    2.0674 C   0  0  0  0  0  0  0  0  0  0  0  0
   -0.4915    3.5154    2.4222 H   0  0  0  0  0  0  0  0  0  0  0  0
   -0.0734    0.9498    2.3325 C   0  0  0  0  0  0  0  0  0  0  0  0
   -0.0426   -0.1555    2.4629 H   0  0  0  0  0  0  0  0  0  0  0  0
   -0.2026    1.4065    3.3341 H   0  0  0  0  0  0  0  0  0  0  0  0
    1.2436    1.4221    1.7171 C   0  0  1  0  0  0  0  0  0  0  0  0
    2.0602    0.9626    2.3256 H   0  0  0  0  0  0  0  0  0  0  0  0
  1 16  1  0  0  0  0
  1  3  1  0  0  0  0
  2  4  1  0  0  0  0
  2 27  1  0  0  0  0
  3 60  1  0  0  0  0
  4 63  1  0  0  0  0
  5  6  1  0  0  0  0
  5  1  1  0  0  0  0
  6  7  1  0  0  0  0
  8  9  1  0  0  0  0
  8  6  2  0  0  0  0
 10  8  1  0  0  0  0
 11 10  1  0  0  0  0
 12 10  2  0  0  0  0
 12 14  1  0  0  0  0
 13 12  1  0  0  0  0
 14  5  2  0  0  0  0
 15 14  1  0  0  0  0
 16 17  1  0  0  0  0
 17 19  2  0  0  0  0
 17 18  1  0  0  0  0
 19 20  1  0  0  0  0
 21 22  1  0  0  0  0
 21 19  1  0  0  0  0
 23 21  2  0  0  0  0
 24 23  1  0  0  0  0
 25 23  1  0  0  0  0
 25 16  2  0  0  0  0
 26 25  1  0  0  0  0
 27 36  1  0  0  0  0
 28 27  2  0  0  0  0
 28 30  1  0  0  0  0
 29 28  1  0  0  0  0
 30 32  2  0  0  0  0
 31 30  1  0  0  0  0
 32 34  1  0  0  0  0
 32 33  1  0  0  0  0
 34 35  1  0  0  0  0
 36 37  1  0  0  0  0
 36 34  2  0  0  0  0
 38  2  1  0  0  0  0
 39 38  1  0  0  0  0
 39 40  1  0  0  0  0
 41 39  2  0  0  0  0
 42 41  1  0  0  0  0
 43 45  2  0  0  0  0
 43 41  1  0  0  0  0
 44 43  1  0  0  0  0
 45 47  1  0  0  0  0
 46 45  1  0  0  0  0
 47 48  1  0  0  0  0
 47 38  2  0  0  0  0
 49 63  1  0  0  0  0
 49 58  1  0  0  0  0
 50 49  2  0  0  0  0
 51 50  1  0  0  0  0
 52 50  1  0  0  0  0
 52 54  2  0  0  0  0
 53 52  1  0  0  0  0
 54 56  1  0  0  0  0
 55 54  1  0  0  0  0
 56 58  2  0  0  0  0
 56 57  1  0  0  0  0
 58 59  1  0  0  0  0
 60 61  1  0  0  0  0
 60 62  1  0  0  0  0
 63 64  1  1  0  0  0
 63 60  1  0  0  0  0
M  END
