60,61
 OpenBabel05122313063D

 61 64  0  0  1  0  0  0  0  0999 V2000
   -2.1323   -1.0769    1.4542 C   0  0  0  0  0  0  0  0  0  0  0  0
   -1.3298   -1.9027    2.2683 C   0  0  0  0  0  0  0  0  0  0  0  0
   -0.3227   -2.1847    1.9210 H   0  0  0  0  0  0  0  0  0  0  0  0
   -1.8243   -2.3765    3.4921 C   0  0  0  0  0  0  0  0  0  0  0  0
   -1.1947   -3.0254    4.1192 H   0  0  0  0  0  0  0  0  0  0  0  0
   -3.1232   -2.0400    3.9047 C   0  0  0  0  0  0  0  0  0  0  0  0
   -3.5138   -2.4213    4.8604 H   0  0  0  0  0  0  0  0  0  0  0  0
   -3.9301   -1.2279    3.0911 C   0  0  0  0  0  0  0  0  0  0  0  0
   -4.9529   -0.9721    3.4069 H   0  0  0  0  0  0  0  0  0  0  0  0
   -3.4391   -0.7455    1.8690 C   0  0  0  0  0  0  0  0  0  0  0  0
   -4.0799   -0.1219    1.2276 H   0  0  0  0  0  0  0  0  0  0  0  0
   -2.7959   -0.1445   -1.2384 C   0  0  0  0  0  0  0  0  0  0  0  0
   -3.7263   -1.1909   -1.4274 C   0  0  0  0  0  0  0  0  0  0  0  0
   -3.6025   -2.1325   -0.8742 H   0  0  0  0  0  0  0  0  0  0  0  0
   -4.7737   -1.0366   -2.3451 C   0  0  0  0  0  0  0  0  0  0  0  0
   -5.4916   -1.8579   -2.4896 H   0  0  0  0  0  0  0  0  0  0  0  0
   -4.9001    0.1492   -3.0868 C   0  0  0  0  0  0  0  0  0  0  0  0
   -5.7229    0.2637   -3.8086 H   0  0  0  0  0  0  0  0  0  0  0  0
   -3.9680    1.1837   -2.9146 C   0  0  0  0  0  0  0  0  0  0  0  0
   -4.0531    2.1106   -3.5015 H   0  0  0  0  0  0  0  0  0  0  0  0
   -2.9159    1.0381   -1.9979 C   0  0  0  0  0  0  0  0  0  0  0  0
   -2.1850    1.8533   -1.8923 H   0  0  0  0  0  0  0  0  0  0  0  0
   -0.8123    1.3186    0.3869 C   0  0  1  0  0  0  0  0  0  0  0  0
   -0.6282    1.8197   -0.5879 H   0  0  0  0  0  0  0  0  0  0  0  0
   -1.8215    2.1495    1.1750 C   0  0  0  0  0  0  0  0  0  0  0  0
   -2.8246    2.1196    0.6970 H   0  0  0  0  0  0  0  0  0  0  0  0
   -1.9725    1.7500    2.1992 H   0  0  0  0  0  0  0  0  0  0  0  0
   -1.4172    3.6104    1.2696 C   0  0  0  0  0  0  0  0  0  0  0  0
   -1.9867    5.6935    2.2149 C   0  0  0  0  0  0  0  0  0  0  0  0
   -0.9746    5.8540    2.6373 H   0  0  0  0  0  0  0  0  0  0  0  0
   -2.7584    6.0874    2.8992 H   0  0  0  0  0  0  0  0  0  0  0  0
   -2.0396    6.2065    1.2338 H   0  0  0  0  0  0  0  0  0  0  0  0
    0.5417    1.1575    1.0877 C   0  0  0  0  0  0  0  0  0  0  0  0
    0.4332    0.5984    2.0416 H   0  0  0  0  0  0  0  0  0  0  0  0
    0.9989    2.1393    1.3208 H   0  0  0  0  0  0  0  0  0  0  0  0
    2.3187    1.2541   -1.2611 C   0  0  0  0  0  0  0  0  0  0  0  0
    2.0373    2.6367   -1.2859 C   0  0  0  0  0  0  0  0  0  0  0  0
    1.3914    3.1081   -0.5292 H   0  0  0  0  0  0  0  0  0  0  0  0
    2.5733    3.4339   -2.3110 C   0  0  0  0  0  0  0  0  0  0  0  0
    2.3494    4.5114   -2.3295 H   0  0  0  0  0  0  0  0  0  0  0  0
    3.3844    2.8631   -3.3032 C   0  0  0  0  0  0  0  0  0  0  0  0
    3.8018    3.4938   -4.1030 H   0  0  0  0  0  0  0  0  0  0  0  0
    3.6537    1.4838   -3.2815 C   0  0  0  0  0  0  0  0  0  0  0  0
    4.2783    1.0298   -4.0657 H   0  0  0  0  0  0  0  0  0  0  0  0
    3.1194    0.6747   -2.2707 C   0  0  0  0  0  0  0  0  0  0  0  0
    3.2955   -0.4148   -2.2580 H   0  0  0  0  0  0  0  0  0  0  0  0
    3.0768   -0.2412    1.1357 C   0  0  0  0  0  0  0  0  0  0  0  0
    3.2135   -1.5265    1.6949 C   0  0  0  0  0  0  0  0  0  0  0  0
    2.5340   -2.3306    1.3743 H   0  0  0  0  0  0  0  0  0  0  0  0
    4.2467   -1.7769    2.6103 C   0  0  0  0  0  0  0  0  0  0  0  0
    4.3594   -2.7837    3.0400 H   0  0  0  0  0  0  0  0  0  0  0  0
    5.1437   -0.7557    2.9620 C   0  0  0  0  0  0  0  0  0  0  0  0
    5.9571   -0.9593    3.6751 H   0  0  0  0  0  0  0  0  0  0  0  0
    5.0138    0.5225    2.3941 C   0  0  0  0  0  0  0  0  0  0  0  0
    5.7237    1.3208    2.6590 H   0  0  0  0  0  0  0  0  0  0  0  0
    3.9833    0.7824    1.4791 C   0  0  0  0  0  0  0  0  0  0  0  0
    3.8899    1.7794    1.0202 H   0  0  0  0  0  0  0  0  0  0  0  0
   -2.2614    4.2917    2.0720 O   0  0  0  0  0  0  0  0  0  0  0  0
   -0.4717    4.1265    0.6963 O   0  0  0  0  0  0  0  0  0  0  0  0
   -1.4017   -0.4072   -0.0884 P   0  0  0  0  0  0  0  0  0  0  0  0
    1.6685    0.1277    0.0273 P   0  0  0  0  0  0  0  0  0  0  0  0
  1 10  2  0  0  0  0
  1  2  1  0  0  0  0
  2  4  2  0  0  0  0
  3  2  1  0  0  0  0
  4  6  1  0  0  0  0
  4  5  1  0  0  0  0
  6  7  1  0  0  0  0
  8  9  1  0  0  0  0
  8  6  2  0  0  0  0
 10  8  1  0  0  0  0
 11 10  1  0  0  0  0
 12 60  1  0  0  0  0
 13 12  1  0  0  0  0
 13 14  1  0  0  0  0
 15 13  2  0  0  0  0
 16 15  1  0  0  0  0
 17 19  2  0  0  0  0
 17 15  1  0  0  0  0
 18 17  1  0  0  0  0
 19 21  1  0  0  0  0
 20 19  1  0  0  0  0
 21 22  1  0  0  0  0
 21 12  2  0  0  0  0
 23 24  1  6  0  0  0
 23 33  1  0  0  0  0
 23 25  1  0  0  0  0
 25 28  1  0  0  0  0
 25 27  1  0  0  0  0
 26 25  1  0  0  0  0
 28 58  1  0  0  0  0
 29 30  1  0  0  0  0
 29 31  1  0  0  0  0
 32 29  1  0  0  0  0
 33 35  1  0  0  0  0
 33 34  1  0  0  0  0
 36 61  1  0  0  0  0
 37 36  1  0  0  0  0
 37 38  1  0  0  0  0
 39 37  2  0  0  0  0
 40 39  1  0  0  0  0
 41 43  2  0  0  0  0
 41 39  1  0  0  0  0
 42 41  1  0  0  0  0
 43 45  1  0  0  0  0
 44 43  1  0  0  0  0
 45 46  1  0  0  0  0
 45 36  2  0  0  0  0
 47 56  2  0  0  0  0
 47 48  1  0  0  0  0
 48 50  2  0  0  0  0
 49 48  1  0  0  0  0
 50 52  1  0  0  0  0
 50 51  1  0  0  0  0
 52 53  1  0  0  0  0
 54 55  1  0  0  0  0
 54 52  2  0  0  0  0
 56 54  1  0  0  0  0
 57 56  1  0  0  0  0
 58 29  1  0  0  0  0
 59 28  2  0  0  0  0
 60 23  1  0  0  0  0
 60  1  1  0  0  0  0
 61 33  1  0  0  0  0
 61 47  1  0  0  0  0
M  END
