1,2
 OpenBabel05122313063D

 57 62  0  0  1  0  0  0  0  0999 V2000
    1.5567    0.2319   -0.3247 P   0  0  2  0  0  0  0  0  0  0  0  0
   -1.4568    0.0651    0.2083 P   0  0  0  0  0  0  0  0  0  0  0  0
    3.3051   -0.1313    0.0090 C   0  0  0  0  0  0  0  0  0  0  0  0
    3.5780   -1.1295    0.9677 C   0  0  0  0  0  0  0  0  0  0  0  0
    2.7463   -1.6738    1.4397 H   0  0  0  0  0  0  0  0  0  0  0  0
    4.9047   -1.4417    1.2905 C   0  0  0  0  0  0  0  0  0  0  0  0
    5.1137   -2.2209    2.0386 H   0  0  0  0  0  0  0  0  0  0  0  0
    5.9621   -0.7811    0.6438 C   0  0  0  0  0  0  0  0  0  0  0  0
    7.0036   -1.0374    0.8903 H   0  0  0  0  0  0  0  0  0  0  0  0
    5.6916    0.1939   -0.3288 C   0  0  0  0  0  0  0  0  0  0  0  0
    6.5182    0.7021   -0.8479 H   0  0  0  0  0  0  0  0  0  0  0  0
    4.3655    0.5224   -0.6469 C   0  0  0  0  0  0  0  0  0  0  0  0
    4.1623    1.2814   -1.4149 H   0  0  0  0  0  0  0  0  0  0  0  0
    1.4318    1.8054   -1.3772 C   0  0  2  0  0  0  0  0  0  0  0  0
    1.7963    1.7412   -2.4181 H   0  0  0  0  0  0  0  0  0  0  0  0
    2.1095    2.8381   -0.4863 C   0  0  0  0  0  0  0  0  0  0  0  0
    2.8855    3.9632   -1.0898 C   0  0  0  0  0  0  0  0  0  0  0  0
    3.3242    4.6295   -0.3231 H   0  0  0  0  0  0  0  0  0  0  0  0
    2.2254    4.5724   -1.7439 H   0  0  0  0  0  0  0  0  0  0  0  0
    3.7117    3.5903   -1.7329 H   0  0  0  0  0  0  0  0  0  0  0  0
    2.1572    3.4435    2.0174 C   0  0  0  0  0  0  0  0  0  0  0  0
    2.8419    4.2753    1.7652 H   0  0  0  0  0  0  0  0  0  0  0  0
    2.6525    2.8095    2.7840 H   0  0  0  0  0  0  0  0  0  0  0  0
    1.2531    3.8763    2.4980 H   0  0  0  0  0  0  0  0  0  0  0  0
    1.7823    2.6317    0.8216 C   0  0  0  0  0  0  0  0  0  0  0  0
    0.8765    1.4260    0.9595 C   0  0  1  0  0  0  0  0  0  0  0  0
    0.7553    1.0203    1.9807 H   0  0  0  0  0  0  0  0  0  0  0  0
   -0.4984    1.7035    0.2263 C   0  0  2  0  0  0  0  0  0  0  0  0
   -1.1677    2.9733    0.6616 C   0  0  0  0  0  0  0  0  0  0  0  0
   -1.5947    3.1538    1.6546 H   0  0  0  0  0  0  0  0  0  0  0  0
   -1.0430    3.8754   -0.3386 C   0  0  0  0  0  0  0  0  0  0  0  0
   -1.3589    4.9273   -0.3776 H   0  0  0  0  0  0  0  0  0  0  0  0
   -0.0994    2.0343   -1.2661 C   0  0  1  0  0  0  0  0  0  0  0  0
   -0.6524    1.4294   -2.0137 H   0  0  0  0  0  0  0  0  0  0  0  0
   -2.0472   -0.1550    1.9269 C   0  0  0  0  0  0  0  0  0  0  0  0
   -1.2968   -0.9970    2.7741 C   0  0  0  0  0  0  0  0  0  0  0  0
   -0.4367   -1.5447    2.3567 H   0  0  0  0  0  0  0  0  0  0  0  0
   -1.6676   -1.1492    4.1178 C   0  0  0  0  0  0  0  0  0  0  0  0
   -1.0832   -1.8136    4.7720 H   0  0  0  0  0  0  0  0  0  0  0  0
   -2.7906   -0.4729    4.6200 C   0  0  0  0  0  0  0  0  0  0  0  0
   -3.0852   -0.6000    5.6728 H   0  0  0  0  0  0  0  0  0  0  0  0
   -3.5494    0.3523    3.7739 C   0  0  0  0  0  0  0  0  0  0  0  0
   -4.4406    0.8694    4.1608 H   0  0  0  0  0  0  0  0  0  0  0  0
   -3.1835    0.5115    2.4292 C   0  0  0  0  0  0  0  0  0  0  0  0
   -3.7966    1.1388    1.7661 H   0  0  0  0  0  0  0  0  0  0  0  0
   -2.9116    0.3363   -0.8774 C   0  0  0  0  0  0  0  0  0  0  0  0
   -3.2699   -0.6855   -1.7832 C   0  0  0  0  0  0  0  0  0  0  0  0
   -2.6942   -1.6252   -1.7938 H   0  0  0  0  0  0  0  0  0  0  0  0
   -4.3723   -0.5112   -2.6328 C   0  0  0  0  0  0  0  0  0  0  0  0
   -4.6449   -1.3160   -3.3321 H   0  0  0  0  0  0  0  0  0  0  0  0
   -5.1213    0.6747   -2.5935 C   0  0  0  0  0  0  0  0  0  0  0  0
   -5.9836    0.8071   -3.2650 H   0  0  0  0  0  0  0  0  0  0  0  0
   -4.7664    1.6942   -1.6963 C   0  0  0  0  0  0  0  0  0  0  0  0
   -5.3457    2.6296   -1.6631 H   0  0  0  0  0  0  0  0  0  0  0  0
   -3.6678    1.5300   -0.8401 C   0  0  0  0  0  0  0  0  0  0  0  0
   -3.3836    2.3453   -0.1610 H   0  0  0  0  0  0  0  0  0  0  0  0
   -0.4584    3.4219   -1.4816 O   0  0  0  0  0  0  0  0  0  0  0  0
  1  3  1  1  0  0  0
  1 26  1  0  0  0  0
  2 35  1  0  0  0  0
  3  4  1  0  0  0  0
  4  6  2  0  0  0  0
  4  5  1  0  0  0  0
  6  7  1  0  0  0  0
  8  9  1  0  0  0  0
  8  6  1  0  0  0  0
 10  8  2  0  0  0  0
 11 10  1  0  0  0  0
 12 10  1  0  0  0  0
 12  3  2  0  0  0  0
 13 12  1  0  0  0  0
 14 15  1  6  0  0  0
 14 33  1  0  0  0  0
 14 16  1  0  0  0  0
 14  1  1  0  0  0  0
 16 25  2  0  0  0  0
 17 16  1  0  0  0  0
 17 18  1  0  0  0  0
 19 17  1  0  0  0  0
 20 17  1  0  0  0  0
 21 24  1  0  0  0  0
 21 23  1  0  0  0  0
 22 21  1  0  0  0  0
 25 26  1  0  0  0  0
 25 21  1  0  0  0  0
 26 27  1  1  0  0  0
 28  2  1  1  0  0  0
 28 29  1  0  0  0  0
 28 26  1  0  0  0  0
 29 30  1  0  0  0  0
 31 29  2  0  0  0  0
 32 31  1  0  0  0  0
 33 34  1  6  0  0  0
 33 28  1  0  0  0  0
 35 44  2  0  0  0  0
 35 36  1  0  0  0  0
 36 38  2  0  0  0  0
 37 36  1  0  0  0  0
 38 40  1  0  0  0  0
 38 39  1  0  0  0  0
 40 41  1  0  0  0  0
 42 43  1  0  0  0  0
 42 40  2  0  0  0  0
 44 42  1  0  0  0  0
 45 44  1  0  0  0  0
 46 55  1  0  0  0  0
 46  2  1  0  0  0  0
 47 46  2  0  0  0  0
 48 47  1  0  0  0  0
 49 51  2  0  0  0  0
 49 47  1  0  0  0  0
 50 49  1  0  0  0  0
 51 53  1  0  0  0  0
 52 51  1  0  0  0  0
 53 54  1  0  0  0  0
 53 55  2  0  0  0  0
 55 56  1  0  0  0  0
 57 33  1  0  0  0  0
 57 31  1  0  0  0  0
M  END
