1,2
q = 0.0, confidence = 0.998

 55 55  0  0  0  0  0  0  0  0999 V2000
    1.8209   -0.0458    0.0126 P   0  0  0  0  0  0  0  0  0  0  0  0
   -1.2636   -0.5986    0.0313 P   0  0  0  0  0  0  0  0  0  0  0  0
    1.2166   -1.7540   -0.2642 C   0  0  0  0  0  0  0  0  0  0  0  0
   -0.1607   -1.9739   -0.2859 N   0  0  0  0  0  0  0  0  0  0  0  0
   -0.3277   -3.3396   -0.4522 C   0  0  0  0  0  0  0  0  0  0  0  0
   -1.3127   -3.8099   -0.5030 H   0  0  0  0  0  0  0  0  0  0  0  0
    0.9517   -3.8748   -0.5309 C   0  0  0  0  0  0  0  0  0  0  0  0
    1.2305   -4.9278   -0.6680 H   0  0  0  0  0  0  0  0  0  0  0  0
    1.8981   -2.8841   -0.4112 N   0  0  0  0  0  0  0  0  0  0  0  0
    3.0798   -0.3011    1.3847 C   0  0  0  0  0  0  0  0  0  0  0  0
    3.6980   -1.1462    1.0114 H   0  0  0  0  0  0  0  0  0  0  0  0
    2.3994   -0.7380    2.6820 C   0  0  0  0  0  0  0  0  0  0  0  0
    1.8202   -1.6714    2.5480 H   0  0  0  0  0  0  0  0  0  0  0  0
    1.7155    0.0497    3.0601 H   0  0  0  0  0  0  0  0  0  0  0  0
    3.1637   -0.9253    3.4644 H   0  0  0  0  0  0  0  0  0  0  0  0
    3.9575    0.9367    1.5963 C   0  0  0  0  0  0  0  0  0  0  0  0
    4.4909    1.2502    0.6777 H   0  0  0  0  0  0  0  0  0  0  0  0
    4.7262    0.7197    2.3668 H   0  0  0  0  0  0  0  0  0  0  0  0
    3.3595    1.7982    1.9536 H   0  0  0  0  0  0  0  0  0  0  0  0
    2.8947    0.3257   -1.4864 C   0  0  0  0  0  0  0  0  0  0  0  0
    3.2950    1.3375   -1.2544 H   0  0  0  0  0  0  0  0  0  0  0  0
    2.0207    0.4411   -2.7367 C   0  0  0  0  0  0  0  0  0  0  0  0
    1.2034    1.1744   -2.5936 H   0  0  0  0  0  0  0  0  0  0  0  0
    1.5685   -0.5377   -2.9995 H   0  0  0  0  0  0  0  0  0  0  0  0
    2.6336    0.7676   -3.6019 H   0  0  0  0  0  0  0  0  0  0  0  0
    4.0534   -0.6590   -1.6750 C   0  0  0  0  0  0  0  0  0  0  0  0
    4.7923   -0.6053   -0.8519 H   0  0  0  0  0  0  0  0  0  0  0  0
    4.5919   -0.4243   -2.6168 H   0  0  0  0  0  0  0  0  0  0  0  0
    3.6864   -1.7037   -1.7309 H   0  0  0  0  0  0  0  0  0  0  0  0
   -2.1921   -1.1329    1.6080 C   0  0  0  0  0  0  0  0  0  0  0  0
   -1.0989   -1.5652    2.5997 C   0  0  0  0  0  0  0  0  0  0  0  0
   -0.3575   -0.7573    2.7461 H   0  0  0  0  0  0  0  0  0  0  0  0
   -0.5645   -2.4789    2.2720 H   0  0  0  0  0  0  0  0  0  0  0  0
   -1.5682   -1.7783    3.5829 H   0  0  0  0  0  0  0  0  0  0  0  0
   -2.8816    0.1326    2.1623 C   0  0  0  0  0  0  0  0  0  0  0  0
   -3.7604    0.4319    1.5638 H   0  0  0  0  0  0  0  0  0  0  0  0
   -2.1946    1.0012    2.1850 H   0  0  0  0  0  0  0  0  0  0  0  0
   -3.2295   -0.0785    3.1953 H   0  0  0  0  0  0  0  0  0  0  0  0
   -3.2121   -2.2655    1.4321 C   0  0  0  0  0  0  0  0  0  0  0  0
   -4.0414   -1.9863    0.7551 H   0  0  0  0  0  0  0  0  0  0  0  0
   -3.6611   -2.4964    2.4217 H   0  0  0  0  0  0  0  0  0  0  0  0
   -2.7477   -3.2002    1.0617 H   0  0  0  0  0  0  0  0  0  0  0  0
   -2.4120   -0.5540   -1.4857 C   0  0  0  0  0  0  0  0  0  0  0  0
   -2.8680   -1.9275   -1.9989 C   0  0  0  0  0  0  0  0  0  0  0  0
   -2.0190   -2.5314   -2.3739 H   0  0  0  0  0  0  0  0  0  0  0  0
   -3.5600   -1.7692   -2.8533 H   0  0  0  0  0  0  0  0  0  0  0  0
   -3.4151   -2.5159   -1.2393 H   0  0  0  0  0  0  0  0  0  0  0  0
   -3.6176    0.3363   -1.1250 C   0  0  0  0  0  0  0  0  0  0  0  0
   -4.3270   -0.1744   -0.4453 H   0  0  0  0  0  0  0  0  0  0  0  0
   -4.1696    0.5724   -2.0591 H   0  0  0  0  0  0  0  0  0  0  0  0
   -3.2865    1.2909   -0.6660 H   0  0  0  0  0  0  0  0  0  0  0  0
   -1.5920    0.1465   -2.5842 C   0  0  0  0  0  0  0  0  0  0  0  0
   -0.6774   -0.4230   -2.8384 H   0  0  0  0  0  0  0  0  0  0  0  0
   -1.3028    1.1683   -2.2695 H   0  0  0  0  0  0  0  0  0  0  0  0
   -2.2095    0.2250   -3.5039 H   0  0  0  0  0  0  0  0  0  0  0  0
  1 10  1  0  0  0  0
  2 30  1  0  0  0  0
  3  1  1  0  0  0  0
  4  3  1  0  0  0  0
  4  2  1  0  0  0  0
  5  4  1  0  0  0  0
  6  5  1  0  0  0  0
  7  5  2  0  0  0  0
  7  9  1  0  0  0  0
  8  7  1  0  0  0  0
  9  3  2  0  0  0  0
 10 16  1  0  0  0  0
 10 12  1  0  0  0  0
 11 10  1  0  0  0  0
 12 14  1  0  0  0  0
 12 15  1  0  0  0  0
 13 12  1  0  0  0  0
 16 19  1  0  0  0  0
 16 18  1  0  0  0  0
 17 16  1  0  0  0  0
 20 21  1  0  0  0  0
 20  1  1  0  0  0  0
 22 23  1  0  0  0  0
 22 20  1  0  0  0  0
 24 22  1  0  0  0  0
 25 22  1  0  0  0  0
 26 20  1  0  0  0  0
 26 27  1  0  0  0  0
 28 26  1  0  0  0  0
 29 26  1  0  0  0  0
 30 35  1  0  0  0  0
 30 31  1  0  0  0  0
 31 32  1  0  0  0  0
 31 34  1  0  0  0  0
 33 31  1  0  0  0  0
 35 37  1  0  0  0  0
 35 38  1  0  0  0  0
 36 35  1  0  0  0  0
 39 30  1  0  0  0  0
 39 41  1  0  0  0  0
 40 39  1  0  0  0  0
 42 39  1  0  0  0  0
 43 48  1  0  0  0  0
 43  2  1  0  0  0  0
 44 43  1  0  0  0  0
 44 47  1  0  0  0  0
 45 44  1  0  0  0  0
 46 44  1  0  0  0  0
 48 51  1  0  0  0  0
 48 49  1  0  0  0  0
 50 48  1  0  0  0  0
 52 54  1  0  0  0  0
 52 43  1  0  0  0  0
 53 52  1  0  0  0  0
 55 52  1  0  0  0  0
M  END
