1,2
 OpenBabel05122313063D

 64 65  0  0  0  0  0  0  0  0999 V2000
    1.8656   -0.6039   -0.2895 P   0  0  0  0  0  0  0  0  0  0  0  0
   -2.0477   -0.3155    0.2203 P   0  0  0  0  0  0  0  0  0  0  0  0
    0.1528    1.6923    0.6424 N   0  0  0  0  0  0  0  0  0  0  0  0
    0.0368    0.6571    0.6935 H   0  0  0  0  0  0  0  0  0  0  0  0
    3.3033   -1.7418    0.1246 C   0  0  0  0  0  0  0  0  0  0  0  0
    4.2122   -1.2799   -0.3180 H   0  0  0  0  0  0  0  0  0  0  0  0
    3.4879   -1.8519    1.6425 C   0  0  0  0  0  0  0  0  0  0  0  0
    3.6558   -0.8666    2.1196 H   0  0  0  0  0  0  0  0  0  0  0  0
    4.3627   -2.4954    1.8715 H   0  0  0  0  0  0  0  0  0  0  0  0
    2.5996   -2.3119    2.1183 H   0  0  0  0  0  0  0  0  0  0  0  0
    3.1035   -3.1193   -0.5164 C   0  0  0  0  0  0  0  0  0  0  0  0
    2.9729   -3.0672   -1.6155 H   0  0  0  0  0  0  0  0  0  0  0  0
    2.2105   -3.6200   -0.0933 H   0  0  0  0  0  0  0  0  0  0  0  0
    3.9854   -3.7612   -0.3127 H   0  0  0  0  0  0  0  0  0  0  0  0
    1.9926   -0.3379   -2.1551 C   0  0  0  0  0  0  0  0  0  0  0  0
    1.7324   -1.3452   -2.5497 H   0  0  0  0  0  0  0  0  0  0  0  0
    3.3726    0.0701   -2.6694 C   0  0  0  0  0  0  0  0  0  0  0  0
    4.1594   -0.6681   -2.4150 H   0  0  0  0  0  0  0  0  0  0  0  0
    3.6786    1.0554   -2.2623 H   0  0  0  0  0  0  0  0  0  0  0  0
    3.3527    0.1602   -3.7758 H   0  0  0  0  0  0  0  0  0  0  0  0
    0.8977    0.6398   -2.5947 C   0  0  0  0  0  0  0  0  0  0  0  0
   -0.0930    0.3284   -2.2087 H   0  0  0  0  0  0  0  0  0  0  0  0
    0.8423    0.6864   -3.7018 H   0  0  0  0  0  0  0  0  0  0  0  0
    1.0997    1.6669   -2.2266 H   0  0  0  0  0  0  0  0  0  0  0  0
    2.4598    1.0370    0.3581 C   0  0  0  0  0  0  0  0  0  0  0  0
    3.8278    1.3536    0.4778 C   0  0  0  0  0  0  0  0  0  0  0  0
    4.5866    0.5965    0.2326 H   0  0  0  0  0  0  0  0  0  0  0  0
    4.2563    2.6265    0.8825 C   0  0  0  0  0  0  0  0  0  0  0  0
    5.3315    2.8476    0.9530 H   0  0  0  0  0  0  0  0  0  0  0  0
    3.3043    3.6089    1.1966 C   0  0  0  0  0  0  0  0  0  0  0  0
    3.6274    4.6068    1.5301 H   0  0  0  0  0  0  0  0  0  0  0  0
    1.9382    3.3183    1.1142 C   0  0  0  0  0  0  0  0  0  0  0  0
    1.1934    4.0654    1.4207 H   0  0  0  0  0  0  0  0  0  0  0  0
    1.5005    2.0433    0.6889 C   0  0  0  0  0  0  0  0  0  0  0  0
   -0.9043    2.2826   -0.0308 C   0  0  0  0  0  0  0  0  0  0  0  0
   -0.8714    3.6120   -0.5162 C   0  0  0  0  0  0  0  0  0  0  0  0
    0.0375    4.2133   -0.3863 H   0  0  0  0  0  0  0  0  0  0  0  0
   -1.9797    4.1593   -1.1692 C   0  0  0  0  0  0  0  0  0  0  0  0
   -1.9299    5.1970   -1.5334 H   0  0  0  0  0  0  0  0  0  0  0  0
   -3.1439    3.3990   -1.3605 C   0  0  0  0  0  0  0  0  0  0  0  0
   -4.0229    3.8315   -1.8601 H   0  0  0  0  0  0  0  0  0  0  0  0
   -3.1690    2.0695   -0.9161 C   0  0  0  0  0  0  0  0  0  0  0  0
   -4.0760    1.4744   -1.0958 H   0  0  0  0  0  0  0  0  0  0  0  0
   -2.0687    1.4784   -0.2636 C   0  0  0  0  0  0  0  0  0  0  0  0
   -2.8607   -0.2688    1.9285 C   0  0  0  0  0  0  0  0  0  0  0  0
   -2.8597   -1.3394    2.2312 H   0  0  0  0  0  0  0  0  0  0  0  0
   -4.2938    0.2667    1.9310 C   0  0  0  0  0  0  0  0  0  0  0  0
   -4.9830   -0.3422    1.3133 H   0  0  0  0  0  0  0  0  0  0  0  0
   -4.3299    1.3123    1.5618 H   0  0  0  0  0  0  0  0  0  0  0  0
   -4.6954    0.2670    2.9661 H   0  0  0  0  0  0  0  0  0  0  0  0
   -1.9764    0.5074    2.9112 C   0  0  0  0  0  0  0  0  0  0  0  0
   -0.9423    0.1139    2.9414 H   0  0  0  0  0  0  0  0  0  0  0  0
   -2.3966    0.4349    3.9357 H   0  0  0  0  0  0  0  0  0  0  0  0
   -1.9274    1.5821    2.6417 H   0  0  0  0  0  0  0  0  0  0  0  0
   -3.3760   -1.0654   -0.8791 C   0  0  0  0  0  0  0  0  0  0  0  0
   -4.2840   -0.4405   -0.7429 H   0  0  0  0  0  0  0  0  0  0  0  0
   -3.7071   -2.4901   -0.4192 C   0  0  0  0  0  0  0  0  0  0  0  0
   -4.0958   -2.5197    0.6181 H   0  0  0  0  0  0  0  0  0  0  0  0
   -2.8151   -3.1452   -0.4645 H   0  0  0  0  0  0  0  0  0  0  0  0
   -4.4838   -2.9280   -1.0799 H   0  0  0  0  0  0  0  0  0  0  0  0
   -2.9622   -1.0174   -2.3539 C   0  0  0  0  0  0  0  0  0  0  0  0
   -2.7194    0.0110   -2.6859 H   0  0  0  0  0  0  0  0  0  0  0  0
   -3.7891   -1.3951   -2.9908 H   0  0  0  0  0  0  0  0  0  0  0  0
   -2.0777   -1.6552   -2.5440 H   0  0  0  0  0  0  0  0  0  0  0  0
  1  5  1  0  0  0  0
  1 25  1  0  0  0  0
  2 45  1  0  0  0  0
  3 34  1  0  0  0  0
  3  4  1  0  0  0  0
  5  7  1  0  0  0  0
  6  5  1  0  0  0  0
  7  9  1  0  0  0  0
  7 10  1  0  0  0  0
  7  8  1  0  0  0  0
 11 14  1  0  0  0  0
 11 13  1  0  0  0  0
 11  5  1  0  0  0  0
 12 11  1  0  0  0  0
 15  1  1  0  0  0  0
 16 15  1  0  0  0  0
 17 18  1  0  0  0  0
 17 19  1  0  0  0  0
 17 15  1  0  0  0  0
 20 17  1  0  0  0  0
 21 24  1  0  0  0  0
 21 22  1  0  0  0  0
 21 15  1  0  0  0  0
 23 21  1  0  0  0  0
 25 26  2  0  0  0  0
 25 34  1  0  0  0  0
 26 28  1  0  0  0  0
 27 26  1  0  0  0  0
 28 29  1  0  0  0  0
 28 30  2  0  0  0  0
 30 31  1  0  0  0  0
 32 30  1  0  0  0  0
 32 33  1  0  0  0  0
 34 32  2  0  0  0  0
 35  3  1  0  0  0  0
 36 37  1  0  0  0  0
 36 35  2  0  0  0  0
 38 36  1  0  0  0  0
 39 38  1  0  0  0  0
 40 38  2  0  0  0  0
 40 42  1  0  0  0  0
 41 40  1  0  0  0  0
 42 44  2  0  0  0  0
 43 42  1  0  0  0  0
 44 35  1  0  0  0  0
 44  2  1  0  0  0  0
 45 47  1  0  0  0  0
 45 46  1  0  0  0  0
 45 51  1  0  0  0  0
 47 50  1  0  0  0  0
 48 47  1  0  0  0  0
 49 47  1  0  0  0  0
 51 52  1  0  0  0  0
 51 53  1  0  0  0  0
 54 51  1  0  0  0  0
 55 56  1  0  0  0  0
 55 57  1  0  0  0  0
 55  2  1  0  0  0  0
 57 58  1  0  0  0  0
 59 57  1  0  0  0  0
 60 57  1  0  0  0  0
 61 55  1  0  0  0  0
 62 61  1  0  0  0  0
 63 61  1  0  0  0  0
 64 61  1  0  0  0  0
M  END
