1,2
 OpenBabel05122313063D

 74 78  0  0  0  0  0  0  0  0999 V2000
    1.8128    0.0580    0.2571 P   0  0  0  0  0  0  0  0  0  0  0  0
   -1.7144    0.2011    0.4096 P   0  0  0  0  0  0  0  0  0  0  0  0
    2.8807    1.5362    0.4702 C   0  0  0  0  0  0  0  0  0  0  0  0
    3.9237    1.8076   -0.4413 C   0  0  0  0  0  0  0  0  0  0  0  0
    4.1089    1.1146   -1.2731 H   0  0  0  0  0  0  0  0  0  0  0  0
    4.6925    2.9711   -0.2992 C   0  0  0  0  0  0  0  0  0  0  0  0
    5.5032    3.1736   -1.0153 H   0  0  0  0  0  0  0  0  0  0  0  0
    4.4251    3.8795    0.7375 C   0  0  0  0  0  0  0  0  0  0  0  0
    5.0283    4.7944    0.8400 H   0  0  0  0  0  0  0  0  0  0  0  0
    3.3810    3.6207    1.6385 C   0  0  0  0  0  0  0  0  0  0  0  0
    3.1592    4.3303    2.4499 H   0  0  0  0  0  0  0  0  0  0  0  0
    2.6119    2.4552    1.5057 C   0  0  0  0  0  0  0  0  0  0  0  0
    1.7907    2.2756    2.2149 H   0  0  0  0  0  0  0  0  0  0  0  0
    2.8882   -1.3008   -0.3408 C   0  0  0  0  0  0  0  0  0  0  0  0
    2.3440   -2.2774   -1.1964 C   0  0  0  0  0  0  0  0  0  0  0  0
    1.3234   -2.1448   -1.5859 H   0  0  0  0  0  0  0  0  0  0  0  0
    3.1056   -3.4001   -1.5497 C   0  0  0  0  0  0  0  0  0  0  0  0
    2.6753   -4.1601   -2.2188 H   0  0  0  0  0  0  0  0  0  0  0  0
    4.4133   -3.5492   -1.0606 C   0  0  0  0  0  0  0  0  0  0  0  0
    5.0118   -4.4279   -1.3458 H   0  0  0  0  0  0  0  0  0  0  0  0
    4.9608   -2.5728   -0.2126 C   0  0  0  0  0  0  0  0  0  0  0  0
    5.9884   -2.6820    0.1664 H   0  0  0  0  0  0  0  0  0  0  0  0
    4.1995   -1.4520    0.1526 C   0  0  0  0  0  0  0  0  0  0  0  0
    4.6325   -0.6893    0.8187 H   0  0  0  0  0  0  0  0  0  0  0  0
    1.5622   -0.5043    2.0301 C   0  0  0  0  0  0  0  0  0  0  0  0
    2.5749   -0.6082    2.4678 H   0  0  0  0  0  0  0  0  0  0  0  0
    1.0481    0.3110    2.5746 H   0  0  0  0  0  0  0  0  0  0  0  0
    0.7993   -1.7990    2.1063 C   0  0  0  0  0  0  0  0  0  0  0  0
    1.5013   -3.0219    2.1193 C   0  0  0  0  0  0  0  0  0  0  0  0
    2.6008   -3.0047    2.0728 H   0  0  0  0  0  0  0  0  0  0  0  0
    0.8264   -4.2473    2.1846 C   0  0  0  0  0  0  0  0  0  0  0  0
    1.3969   -5.1880    2.1884 H   0  0  0  0  0  0  0  0  0  0  0  0
   -0.5743   -4.2640    2.2559 C   0  0  0  0  0  0  0  0  0  0  0  0
   -1.1181   -5.2180    2.3248 H   0  0  0  0  0  0  0  0  0  0  0  0
   -1.2822   -3.0551    2.2437 C   0  0  0  0  0  0  0  0  0  0  0  0
   -2.3810   -3.0684    2.3104 H   0  0  0  0  0  0  0  0  0  0  0  0
   -0.6189   -1.8145    2.1494 C   0  0  0  0  0  0  0  0  0  0  0  0
   -1.4139   -0.5369    2.1077 C   0  0  0  0  0  0  0  0  0  0  0  0
   -0.9228    0.2660    2.6939 H   0  0  0  0  0  0  0  0  0  0  0  0
   -2.4156   -0.6845    2.5581 H   0  0  0  0  0  0  0  0  0  0  0  0
   -3.1113   -0.7903   -0.3171 C   0  0  0  0  0  0  0  0  0  0  0  0
   -3.4321   -0.1203   -1.1453 H   0  0  0  0  0  0  0  0  0  0  0  0
   -2.6090   -2.0867   -0.9821 C   0  0  0  0  0  0  0  0  0  0  0  0
   -2.1733   -2.7667   -0.2195 H   0  0  0  0  0  0  0  0  0  0  0  0
   -1.7989   -1.8321   -1.6955 H   0  0  0  0  0  0  0  0  0  0  0  0
   -3.7592   -2.7898   -1.7147 C   0  0  0  0  0  0  0  0  0  0  0  0
   -4.0804   -2.1495   -2.5661 H   0  0  0  0  0  0  0  0  0  0  0  0
   -3.3986   -3.7416   -2.1576 H   0  0  0  0  0  0  0  0  0  0  0  0
   -4.9557   -3.0452   -0.7894 C   0  0  0  0  0  0  0  0  0  0  0  0
   -4.6575   -3.7663    0.0059 H   0  0  0  0  0  0  0  0  0  0  0  0
   -5.7859   -3.5250   -1.3489 H   0  0  0  0  0  0  0  0  0  0  0  0
   -5.4390   -1.7465   -0.1318 C   0  0  0  0  0  0  0  0  0  0  0  0
   -6.2835   -1.9468    0.5608 H   0  0  0  0  0  0  0  0  0  0  0  0
   -5.8296   -1.0608   -0.9162 H   0  0  0  0  0  0  0  0  0  0  0  0
   -4.2998   -1.0424    0.6226 C   0  0  0  0  0  0  0  0  0  0  0  0
   -4.6637   -0.0917    1.0673 H   0  0  0  0  0  0  0  0  0  0  0  0
   -3.9863   -1.6893    1.4715 H   0  0  0  0  0  0  0  0  0  0  0  0
   -2.4112    1.8635    0.9283 C   0  0  0  0  0  0  0  0  0  0  0  0
   -2.9827    1.6635    1.8653 H   0  0  0  0  0  0  0  0  0  0  0  0
   -3.3593    2.5046   -0.0986 C   0  0  0  0  0  0  0  0  0  0  0  0
   -4.2304    1.8436   -0.2856 H   0  0  0  0  0  0  0  0  0  0  0  0
   -2.8266    2.5935   -1.0691 H   0  0  0  0  0  0  0  0  0  0  0  0
   -3.8432    3.8809    0.3801 C   0  0  0  0  0  0  0  0  0  0  0  0
   -4.5026    4.3295   -0.3918 H   0  0  0  0  0  0  0  0  0  0  0  0
   -4.4689    3.7588    1.2939 H   0  0  0  0  0  0  0  0  0  0  0  0
   -2.6709    4.8173    0.6950 C   0  0  0  0  0  0  0  0  0  0  0  0
   -3.0416    5.7991    1.0569 H   0  0  0  0  0  0  0  0  0  0  0  0
   -2.1033    5.0173   -0.2406 H   0  0  0  0  0  0  0  0  0  0  0  0
   -1.7290    4.1867    1.7269 C   0  0  0  0  0  0  0  0  0  0  0  0
   -2.2636    4.0792    2.6980 H   0  0  0  0  0  0  0  0  0  0  0  0
   -0.8568    4.8464    1.9187 H   0  0  0  0  0  0  0  0  0  0  0  0
   -1.2393    2.8104    1.2599 C   0  0  0  0  0  0  0  0  0  0  0  0
   -0.6124    2.9231    0.3471 H   0  0  0  0  0  0  0  0  0  0  0  0
   -0.5798    2.3596    2.0326 H   0  0  0  0  0  0  0  0  0  0  0  0
  1  3  1  0  0  0  0
  1 25  1  0  0  0  0
  2 58  1  0  0  0  0
  2 38  1  0  0  0  0
  3 12  1  0  0  0  0
  4  6  1  0  0  0  0
  4  3  2  0  0  0  0
  5  4  1  0  0  0  0
  6  8  2  0  0  0  0
  7  6  1  0  0  0  0
  8  9  1  0  0  0  0
  8 10  1  0  0  0  0
 10 11  1  0  0  0  0
 12 10  2  0  0  0  0
 12 13  1  0  0  0  0
 14 23  1  0  0  0  0
 14  1  1  0  0  0  0
 15 14  2  0  0  0  0
 16 15  1  0  0  0  0
 17 15  1  0  0  0  0
 17 19  2  0  0  0  0
 18 17  1  0  0  0  0
 19 21  1  0  0  0  0
 20 19  1  0  0  0  0
 21 23  2  0  0  0  0
 21 22  1  0  0  0  0
 23 24  1  0  0  0  0
 25 28  1  0  0  0  0
 25 26  1  0  0  0  0
 25 27  1  0  0  0  0
 28 29  2  0  0  0  0
 28 37  1  0  0  0  0
 29 31  1  0  0  0  0
 30 29  1  0  0  0  0
 31 32  1  0  0  0  0
 31 33  2  0  0  0  0
 33 34  1  0  0  0  0
 35 33  1  0  0  0  0
 35 36  1  0  0  0  0
 37 35  2  0  0  0  0
 38 37  1  0  0  0  0
 38 40  1  0  0  0  0
 38 39  1  0  0  0  0
 41  2  1  0  0  0  0
 41 55  1  0  0  0  0
 42 41  1  0  0  0  0
 43 41  1  0  0  0  0
 43 44  1  0  0  0  0
 45 43  1  0  0  0  0
 46 43  1  0  0  0  0
 46 49  1  0  0  0  0
 47 46  1  0  0  0  0
 48 46  1  0  0  0  0
 49 52  1  0  0  0  0
 49 50  1  0  0  0  0
 51 49  1  0  0  0  0
 52 53  1  0  0  0  0
 52 55  1  0  0  0  0
 54 52  1  0  0  0  0
 55 56  1  0  0  0  0
 55 57  1  0  0  0  0
 58 72  1  0  0  0  0
 58 59  1  0  0  0  0
 60 63  1  0  0  0  0
 60 58  1  0  0  0  0
 61 60  1  0  0  0  0
 62 60  1  0  0  0  0
 63 66  1  0  0  0  0
 63 65  1  0  0  0  0
 64 63  1  0  0  0  0
 66 67  1  0  0  0  0
 66 69  1  0  0  0  0
 68 66  1  0  0  0  0
 69 71  1  0  0  0  0
 69 70  1  0  0  0  0
 72 69  1  0  0  0  0
 72 74  1  0  0  0  0
 73 72  1  0  0  0  0
M  END
