1,2
 OpenBabel05122313063D

 33 34  0  0  0  0  0  0  0  0999 V2000
    1.7560    1.9519   -0.8007 P   0  0  2  0  0  4  0  0  0  0  0  0
   -1.4330    1.7985   -0.8310 P   0  0  1  0  0  0  0  0  0  0  0  0
    2.9917    1.7452   -1.7328 O   0  0  0  0  0  0  0  0  0  0  0  0
   -2.2664    1.7068   -2.3009 O   0  0  0  0  0  0  0  0  0  0  0  0
    0.7746    3.4416   -1.3704 C   0  0  0  0  0  0  0  0  0  0  0  0
   -0.6404    3.4775   -0.7802 C   0  0  0  0  0  0  0  0  0  0  0  0
    2.3039    2.3090    0.9046 C   0  0  0  0  0  0  0  0  0  0  0  0
    3.6740    2.5567    1.1208 C   0  0  0  0  0  0  0  0  0  0  0  0
    4.1412    2.7856    2.4238 C   0  0  0  0  0  0  0  0  0  0  0  0
    3.2493    2.7623    3.5087 C   0  0  0  0  0  0  0  0  0  0  0  0
    1.8845    2.5019    3.2958 C   0  0  0  0  0  0  0  0  0  0  0  0
    1.4108    2.2682    1.9968 C   0  0  0  0  0  0  0  0  0  0  0  0
   -2.8193    1.7438    0.3213 C   0  0  0  0  0  0  0  0  0  0  0  0
   -4.0259    2.4288    0.0616 C   0  0  0  0  0  0  0  0  0  0  0  0
   -5.0744    2.3456    0.9872 C   0  0  0  0  0  0  0  0  0  0  0  0
   -4.9225    1.5890    2.1626 C   0  0  0  0  0  0  0  0  0  0  0  0
   -3.7232    0.9051    2.4174 C   0  0  0  0  0  0  0  0  0  0  0  0
   -2.6697    0.9756    1.4956 C   0  0  0  0  0  0  0  0  0  0  0  0
   -1.6639    1.9044   -3.0488 H   0  0  0  0  0  0  0  0  0  0  0  0
    0.7647    3.3617   -2.4782 H   0  0  0  0  0  0  0  0  0  0  0  0
    1.3427    4.3591   -1.1149 H   0  0  0  0  0  0  0  0  0  0  0  0
   -0.6164    3.7469    0.2978 H   0  0  0  0  0  0  0  0  0  0  0  0
   -1.3005    4.2160   -1.2816 H   0  0  0  0  0  0  0  0  0  0  0  0
    4.3596    2.5536    0.2594 H   0  0  0  0  0  0  0  0  0  0  0  0
    5.2107    2.9806    2.5938 H   0  0  0  0  0  0  0  0  0  0  0  0
    3.6204    2.9411    4.5290 H   0  0  0  0  0  0  0  0  0  0  0  0
    1.1884    2.4733    4.1475 H   0  0  0  0  0  0  0  0  0  0  0  0
    0.3470    2.0277    1.8378 H   0  0  0  0  0  0  0  0  0  0  0  0
   -4.1479    3.0065   -0.8667 H   0  0  0  0  0  0  0  0  0  0  0  0
   -6.0195    2.8730    0.7896 H   0  0  0  0  0  0  0  0  0  0  0  0
   -5.7521    1.5275    2.8828 H   0  0  0  0  0  0  0  0  0  0  0  0
   -3.6110    0.2987    3.3279 H   0  0  0  0  0  0  0  0  0  0  0  0
   -1.7379    0.4152    1.6721 H   0  0  0  0  0  0  0  0  0  0  0  0
  1  3  2  6  0  0  0
  1  7  1  0  0  0  0
  2  4  1  6  0  0  0
  2  6  1  0  0  0  0
  2 13  1  0  0  0  0
  5 21  1  0  0  0  0
  5  1  1  0  0  0  0
  5  6  1  0  0  0  0
  6 22  1  0  0  0  0
  7  8  2  0  0  0  0
  7 12  1  0  0  0  0
  8  9  1  0  0  0  0
  9 25  1  0  0  0  0
  9 10  2  0  0  0  0
 10 26  1  0  0  0  0
 11 10  1  0  0  0  0
 11 27  1  0  0  0  0
 12 11  2  0  0  0  0
 13 18  1  0  0  0  0
 14 13  2  0  0  0  0
 14 15  1  0  0  0  0
 15 16  2  0  0  0  0
 16 17  1  0  0  0  0
 16 31  1  0  0  0  0
 17 32  1  0  0  0  0
 18 33  1  0  0  0  0
 18 17  2  0  0  0  0
 19  4  1  0  0  0  0
 20  5  1  0  0  0  0
 23  6  1  0  0  0  0
 24  8  1  0  0  0  0
 28 12  1  0  0  0  0
 29 14  1  0  0  0  0
 30 15  1  0  0  0  0
M  END
