1,2
 OpenBabel05122313063D

 63 66  0  0  0  0  0  0  0  0999 V2000
   -1.5420    0.3869    0.4440 P   0  0  0  0  0  0  0  0  0  0  0  0
    1.7275    0.4468    0.3462 P   0  0  0  0  0  0  0  0  0  0  0  0
   -3.0843   -0.5497    0.7579 C   0  0  0  0  0  0  0  0  0  0  0  0
   -3.2376   -1.2859    1.9503 C   0  0  0  0  0  0  0  0  0  0  0  0
   -2.4364   -1.2880    2.7029 H   0  0  0  0  0  0  0  0  0  0  0  0
   -4.3805   -2.0764    2.1424 C   0  0  0  0  0  0  0  0  0  0  0  0
   -4.4936   -2.6471    3.0767 H   0  0  0  0  0  0  0  0  0  0  0  0
   -5.3648   -2.1546    1.1444 C   0  0  0  0  0  0  0  0  0  0  0  0
   -6.2580   -2.7797    1.2973 H   0  0  0  0  0  0  0  0  0  0  0  0
   -5.1995   -1.4440   -0.0556 C   0  0  0  0  0  0  0  0  0  0  0  0
   -5.9573   -1.5166   -0.8507 H   0  0  0  0  0  0  0  0  0  0  0  0
   -4.0631   -0.6478   -0.2530 C   0  0  0  0  0  0  0  0  0  0  0  0
   -3.9205   -0.1153   -1.2042 H   0  0  0  0  0  0  0  0  0  0  0  0
   -2.0914    1.8720   -0.4965 C   0  0  0  0  0  0  0  0  0  0  0  0
   -3.3150    2.4964   -0.1723 C   0  0  0  0  0  0  0  0  0  0  0  0
   -3.9932    2.0323    0.5601 H   0  0  0  0  0  0  0  0  0  0  0  0
   -3.6747    3.7077   -0.7803 C   0  0  0  0  0  0  0  0  0  0  0  0
   -4.6338    4.1828   -0.5233 H   0  0  0  0  0  0  0  0  0  0  0  0
   -2.8132    4.3143   -1.7096 C   0  0  0  0  0  0  0  0  0  0  0  0
   -3.0960    5.2665   -2.1839 H   0  0  0  0  0  0  0  0  0  0  0  0
   -1.5940    3.6996   -2.0320 C   0  0  0  0  0  0  0  0  0  0  0  0
   -0.9085    4.1642   -2.7568 H   0  0  0  0  0  0  0  0  0  0  0  0
   -1.2386    2.4825   -1.4316 C   0  0  0  0  0  0  0  0  0  0  0  0
   -0.2835    2.0101   -1.6841 H   0  0  0  0  0  0  0  0  0  0  0  0
    2.1792    1.7339   -0.8851 C   0  0  0  0  0  0  0  0  0  0  0  0
    1.9373    3.1079   -0.6908 C   0  0  0  0  0  0  0  0  0  0  0  0
    1.4601    3.4564    0.2340 H   0  0  0  0  0  0  0  0  0  0  0  0
    2.2656    4.0326   -1.6948 C   0  0  0  0  0  0  0  0  0  0  0  0
    2.0699    5.1033   -1.5313 H   0  0  0  0  0  0  0  0  0  0  0  0
    2.8320    3.5954   -2.9022 C   0  0  0  0  0  0  0  0  0  0  0  0
    3.0859    4.3221   -3.6887 H   0  0  0  0  0  0  0  0  0  0  0  0
    3.0718    2.2259   -3.1048 C   0  0  0  0  0  0  0  0  0  0  0  0
    3.5141    1.8757   -4.0496 H   0  0  0  0  0  0  0  0  0  0  0  0
    2.7443    1.2991   -2.1054 C   0  0  0  0  0  0  0  0  0  0  0  0
    2.9372    0.2260   -2.2624 H   0  0  0  0  0  0  0  0  0  0  0  0
    3.3699   -0.2850    0.7699 C   0  0  0  0  0  0  0  0  0  0  0  0
    4.5633    0.4188    0.4987 C   0  0  0  0  0  0  0  0  0  0  0  0
    4.5299    1.3907   -0.0149 H   0  0  0  0  0  0  0  0  0  0  0  0
    5.8029   -0.1189    0.8770 C   0  0  0  0  0  0  0  0  0  0  0  0
    6.7267    0.4379    0.6570 H   0  0  0  0  0  0  0  0  0  0  0  0
    5.8635   -1.3594    1.5305 C   0  0  0  0  0  0  0  0  0  0  0  0
    6.8371   -1.7823    1.8225 H   0  0  0  0  0  0  0  0  0  0  0  0
    4.6771   -2.0546    1.8133 C   0  0  0  0  0  0  0  0  0  0  0  0
    4.7153   -3.0240    2.3339 H   0  0  0  0  0  0  0  0  0  0  0  0
    3.4332   -1.5263    1.4375 C   0  0  0  0  0  0  0  0  0  0  0  0
    2.4979   -2.0585    1.6724 H   0  0  0  0  0  0  0  0  0  0  0  0
    0.0594    2.0750    1.8757 N   0  0  0  0  0  0  0  0  0  0  0  0
   -1.0954    1.2123    2.0678 C   0  0  0  0  0  0  0  0  0  0  0  0
   -1.9765    1.8068    2.3748 H   0  0  0  0  0  0  0  0  0  0  0  0
   -0.9182    0.4024    2.8106 H   0  0  0  0  0  0  0  0  0  0  0  0
    1.3287    1.3746    1.9247 C   0  0  0  0  0  0  0  0  0  0  0  0
    1.3896    0.5902    2.7170 H   0  0  0  0  0  0  0  0  0  0  0  0
    2.1547    2.0962    2.0855 H   0  0  0  0  0  0  0  0  0  0  0  0
    0.0289    3.3671    2.5930 C   0  0  0  0  0  0  0  0  0  0  0  0
    1.0009    3.8495    2.3448 H   0  0  0  0  0  0  0  0  0  0  0  0
   -0.0364    3.2140    4.1216 C   0  0  0  0  0  0  0  0  0  0  0  0
   -0.9991    2.7609    4.4366 H   0  0  0  0  0  0  0  0  0  0  0  0
    0.0487    4.1987    4.6241 H   0  0  0  0  0  0  0  0  0  0  0  0
    0.7824    2.5679    4.4978 H   0  0  0  0  0  0  0  0  0  0  0  0
   -1.0739    4.2809    2.0525 C   0  0  0  0  0  0  0  0  0  0  0  0
   -1.0109    4.3708    0.9504 H   0  0  0  0  0  0  0  0  0  0  0  0
   -0.9876    5.2901    2.5024 H   0  0  0  0  0  0  0  0  0  0  0  0
   -2.0864    3.9010    2.2982 H   0  0  0  0  0  0  0  0  0  0  0  0
  1  3  1  0  0  0  0
  1 48  1  0  0  0  0
  2 36  1  0  0  0  0
  2 51  1  0  0  0  0
  3  4  1  0  0  0  0
  4  6  2  0  0  0  0
  4  5  1  0  0  0  0
  6  7  1  0  0  0  0
  8  9  1  0  0  0  0
  8  6  1  0  0  0  0
 10  8  2  0  0  0  0
 11 10  1  0  0  0  0
 12 10  1  0  0  0  0
 12  3  2  0  0  0  0
 13 12  1  0  0  0  0
 14 15  1  0  0  0  0
 14  1  1  0  0  0  0
 15 16  1  0  0  0  0
 17 18  1  0  0  0  0
 17 15  2  0  0  0  0
 19 17  1  0  0  0  0
 20 19  1  0  0  0  0
 21 19  2  0  0  0  0
 21 23  1  0  0  0  0
 22 21  1  0  0  0  0
 23 14  2  0  0  0  0
 24 23  1  0  0  0  0
 25 26  1  0  0  0  0
 25  2  1  0  0  0  0
 26 27  1  0  0  0  0
 28 29  1  0  0  0  0
 28 26  2  0  0  0  0
 30 28  1  0  0  0  0
 31 30  1  0  0  0  0
 32 30  2  0  0  0  0
 32 34  1  0  0  0  0
 33 32  1  0  0  0  0
 34 25  2  0  0  0  0
 35 34  1  0  0  0  0
 36 45  1  0  0  0  0
 37 36  2  0  0  0  0
 37 39  1  0  0  0  0
 38 37  1  0  0  0  0
 39 41  2  0  0  0  0
 40 39  1  0  0  0  0
 41 43  1  0  0  0  0
 41 42  1  0  0  0  0
 43 44  1  0  0  0  0
 45 46  1  0  0  0  0
 45 43  2  0  0  0  0
 47 51  1  0  0  0  0
 47 48  1  0  0  0  0
 47 54  1  0  0  0  0
 48 49  1  0  0  0  0
 48 50  1  0  0  0  0
 51 53  1  0  0  0  0
 51 52  1  0  0  0  0
 54 56  1  0  0  0  0
 55 54  1  0  0  0  0
 56 57  1  0  0  0  0
 56 59  1  0  0  0  0
 56 58  1  0  0  0  0
 60 63  1  0  0  0  0
 60 62  1  0  0  0  0
 60 54  1  0  0  0  0
 61 60  1  0  0  0  0
M  END
