1,2
 OpenBabel05122313063D

 62 66  0  0  0  0  0  0  0  0999 V2000
   -0.5715    1.3964   -0.0078 P   0  0  0  0  0  0  0  0  0  0  0  0
   -1.0950   -1.1337    0.0239 P   0  0  0  0  0  0  0  0  0  0  0  0
    0.3365   -0.1108   -0.0290 N   0  0  0  0  0  0  0  0  0  0  0  0
    1.7177   -0.3962   -0.0626 C   0  0  0  0  0  0  0  0  0  0  0  0
    2.6745    0.6001    0.2224 C   0  0  0  0  0  0  0  0  0  0  0  0
    2.3459    1.6102    0.4966 H   0  0  0  0  0  0  0  0  0  0  0  0
    4.0468    0.3204    0.1830 C   0  0  0  0  0  0  0  0  0  0  0  0
    4.7510    1.1314    0.4122 H   0  0  0  0  0  0  0  0  0  0  0  0
    4.5097   -0.9729   -0.1317 C   0  0  0  0  0  0  0  0  0  0  0  0
    3.5519   -1.9740   -0.4124 C   0  0  0  0  0  0  0  0  0  0  0  0
    3.8854   -2.9920   -0.6665 H   0  0  0  0  0  0  0  0  0  0  0  0
    2.1853   -1.6918   -0.3846 C   0  0  0  0  0  0  0  0  0  0  0  0
    1.4701   -2.4854   -0.6333 H   0  0  0  0  0  0  0  0  0  0  0  0
    7.0909    0.0798    0.1991 C   0  0  0  0  0  0  0  0  0  0  0  0
    6.8859    0.8783   -0.5419 H   0  0  0  0  0  0  0  0  0  0  0  0
    8.1672   -0.1738    0.1605 H   0  0  0  0  0  0  0  0  0  0  0  0
    6.8455    0.4377    1.2190 H   0  0  0  0  0  0  0  0  0  0  0  0
   -0.1075    2.3647   -1.4784 C   0  0  0  0  0  0  0  0  0  0  0  0
    1.0221    3.2051   -1.5353 C   0  0  0  0  0  0  0  0  0  0  0  0
    1.6439    3.3621   -0.6418 H   0  0  0  0  0  0  0  0  0  0  0  0
    1.3406    3.8611   -2.7336 C   0  0  0  0  0  0  0  0  0  0  0  0
    2.2231    4.5169   -2.7792 H   0  0  0  0  0  0  0  0  0  0  0  0
    0.5324    3.6861   -3.8686 C   0  0  0  0  0  0  0  0  0  0  0  0
    0.7846    4.2051   -4.8060 H   0  0  0  0  0  0  0  0  0  0  0  0
   -0.6066    2.8660   -3.8056 C   0  0  0  0  0  0  0  0  0  0  0  0
   -1.2545    2.7491   -4.6871 H   0  0  0  0  0  0  0  0  0  0  0  0
   -0.9327    2.2093   -2.6121 C   0  0  0  0  0  0  0  0  0  0  0  0
   -1.8460    1.6005   -2.5252 H   0  0  0  0  0  0  0  0  0  0  0  0
   -0.0761    2.3277    1.4701 C   0  0  0  0  0  0  0  0  0  0  0  0
    0.4976    1.6650    2.5745 C   0  0  0  0  0  0  0  0  0  0  0  0
    0.7391    0.5934    2.5072 H   0  0  0  0  0  0  0  0  0  0  0  0
    0.7574    2.3773    3.7533 C   0  0  0  0  0  0  0  0  0  0  0  0
    1.2141    1.8616    4.6116 H   0  0  0  0  0  0  0  0  0  0  0  0
    0.4305    3.7408    3.8400 C   0  0  0  0  0  0  0  0  0  0  0  0
    0.6331    4.2965    4.7681 H   0  0  0  0  0  0  0  0  0  0  0  0
   -0.1669    4.3925    2.7485 C   0  0  0  0  0  0  0  0  0  0  0  0
   -0.4419    5.4554    2.8228 H   0  0  0  0  0  0  0  0  0  0  0  0
   -0.4285    3.6908    1.5635 C   0  0  0  0  0  0  0  0  0  0  0  0
   -0.9325    4.1838    0.7191 H   0  0  0  0  0  0  0  0  0  0  0  0
   -0.9702   -2.2141    1.4839 C   0  0  0  0  0  0  0  0  0  0  0  0
   -1.5978   -1.7483    2.6585 C   0  0  0  0  0  0  0  0  0  0  0  0
   -2.1974   -0.8260    2.6107 H   0  0  0  0  0  0  0  0  0  0  0  0
   -1.4893   -2.4854    3.8447 C   0  0  0  0  0  0  0  0  0  0  0  0
   -1.9847   -2.1246    4.7584 H   0  0  0  0  0  0  0  0  0  0  0  0
   -0.7674   -3.6907    3.8602 C   0  0  0  0  0  0  0  0  0  0  0  0
   -0.6868   -4.2709    4.7921 H   0  0  0  0  0  0  0  0  0  0  0  0
   -0.1634   -4.1676    2.6855 C   0  0  0  0  0  0  0  0  0  0  0  0
    0.3881   -5.1199    2.6948 H   0  0  0  0  0  0  0  0  0  0  0  0
   -0.2656   -3.4343    1.4941 C   0  0  0  0  0  0  0  0  0  0  0  0
    0.1892   -3.8219    0.5708 H   0  0  0  0  0  0  0  0  0  0  0  0
   -1.0940   -2.1768   -1.4619 C   0  0  0  0  0  0  0  0  0  0  0  0
   -0.3593   -1.7976   -2.6041 C   0  0  0  0  0  0  0  0  0  0  0  0
    0.2972   -0.9151   -2.5667 H   0  0  0  0  0  0  0  0  0  0  0  0
   -0.4692   -2.5498   -3.7816 C   0  0  0  0  0  0  0  0  0  0  0  0
    0.1126   -2.2596   -4.6694 H   0  0  0  0  0  0  0  0  0  0  0  0
   -1.3220   -3.6652   -3.8288 C   0  0  0  0  0  0  0  0  0  0  0  0
   -1.4077   -4.2524   -4.7557 H   0  0  0  0  0  0  0  0  0  0  0  0
   -2.0747   -4.0246   -2.6986 C   0  0  0  0  0  0  0  0  0  0  0  0
   -2.7578   -4.8862   -2.7411 H   0  0  0  0  0  0  0  0  0  0  0  0
   -1.9702   -3.2816   -1.5146 C   0  0  0  0  0  0  0  0  0  0  0  0
   -2.5862   -3.5324   -0.6383 H   0  0  0  0  0  0  0  0  0  0  0  0
    6.2138   -1.4535   -0.2054 S   0  0  0  0  0  0  0  0  0  0  0  0
  1 29  1  0  0  0  0
  2 40  1  0  0  0  0
  3  1  1  0  0  0  0
  3  2  1  0  0  0  0
  4  3  1  0  0  0  0
  4  5  1  0  0  0  0
  5  6  1  0  0  0  0
  7  5  2  0  0  0  0
  7  8  1  0  0  0  0
  9  7  1  0  0  0  0
 10 12  1  0  0  0  0
 10  9  2  0  0  0  0
 11 10  1  0  0  0  0
 12  4  2  0  0  0  0
 13 12  1  0  0  0  0
 14 17  1  0  0  0  0
 15 14  1  0  0  0  0
 16 14  1  0  0  0  0
 18  1  1  0  0  0  0
 19 18  1  0  0  0  0
 19 20  1  0  0  0  0
 21 19  2  0  0  0  0
 22 21  1  0  0  0  0
 23 25  2  0  0  0  0
 23 21  1  0  0  0  0
 24 23  1  0  0  0  0
 25 27  1  0  0  0  0
 26 25  1  0  0  0  0
 27 28  1  0  0  0  0
 27 18  2  0  0  0  0
 29 38  2  0  0  0  0
 29 30  1  0  0  0  0
 30 32  2  0  0  0  0
 31 30  1  0  0  0  0
 32 34  1  0  0  0  0
 32 33  1  0  0  0  0
 34 35  1  0  0  0  0
 36 37  1  0  0  0  0
 36 34  2  0  0  0  0
 38 36  1  0  0  0  0
 39 38  1  0  0  0  0
 40 49  2  0  0  0  0
 40 41  1  0  0  0  0
 41 43  2  0  0  0  0
 42 41  1  0  0  0  0
 43 45  1  0  0  0  0
 43 44  1  0  0  0  0
 45 46  1  0  0  0  0
 47 48  1  0  0  0  0
 47 45  2  0  0  0  0
 49 47  1  0  0  0  0
 50 49  1  0  0  0  0
 51  2  1  0  0  0  0
 52 53  1  0  0  0  0
 52 51  2  0  0  0  0
 54 52  1  0  0  0  0
 55 54  1  0  0  0  0
 56 54  2  0  0  0  0
 56 58  1  0  0  0  0
 57 56  1  0  0  0  0
 58 60  2  0  0  0  0
 59 58  1  0  0  0  0
 60 51  1  0  0  0  0
 60 61  1  0  0  0  0
 62  9  1  0  0  0  0
 62 14  1  0  0  0  0
M  END
