1,12
q = 0.0, confidence = 0.946

 67 69  0  0  1  0  0  0  0  0999 V2000
   -0.4733   -1.6557   -0.7096 P   0  0  2  0  0  0  0  0  0  0  0  0
   -1.4354   -2.7783    1.6589 C   0  0  0  0  0  0  0  0  0  0  0  0
   -1.5219   -3.7471    2.6698 C   0  0  0  0  0  0  0  0  0  0  0  0
   -0.7850   -4.9372    2.5683 C   0  0  0  0  0  0  0  0  0  0  0  0
    0.0326   -5.1639    1.4491 C   0  0  0  0  0  0  0  0  0  0  0  0
    0.1244   -4.1973    0.4369 C   0  0  0  0  0  0  0  0  0  0  0  0
   -0.6017   -2.9908    0.5410 C   0  0  0  0  0  0  0  0  0  0  0  0
   -0.6224   -2.5214   -2.3439 C   0  0  0  0  0  0  0  0  0  0  0  0
    0.0156   -1.7981   -3.5421 C   0  0  0  0  0  0  0  0  0  0  0  0
   -0.4084   -0.4094   -3.7271 C   0  0  0  0  0  0  0  0  0  0  0  0
   -0.7125    0.7119   -3.8713 N   0  0  0  0  0  0  0  0  0  0  0  0
    0.1190    1.1531    0.7026 P   0  0  2  0  0  0  0  0  0  0  0  0
    0.4165    2.7685   -1.5435 C   0  0  0  0  0  0  0  0  0  0  0  0
    0.9951    3.7944   -2.3051 C   0  0  0  0  0  0  0  0  0  0  0  0
    1.9818    4.6190   -1.7437 C   0  0  0  0  0  0  0  0  0  0  0  0
    2.3962    4.4170   -0.4162 C   0  0  0  0  0  0  0  0  0  0  0  0
    1.8328    3.3851    0.3478 C   0  0  0  0  0  0  0  0  0  0  0  0
    0.8408    2.5536   -0.2173 C   0  0  0  0  0  0  0  0  0  0  0  0
    0.0786    1.6765    2.4794 C   0  0  0  0  0  0  0  0  0  0  0  0
   -0.7774    0.7241    3.3339 C   0  0  0  0  0  0  0  0  0  0  0  0
   -0.6921    1.0336    4.7597 C   0  0  0  0  0  0  0  0  0  0  0  0
   -0.5988    1.2870    5.8994 N   0  0  0  0  0  0  0  0  0  0  0  0
    2.5232   -1.9131   -0.5666 C   0  0  0  0  0  0  0  0  0  0  0  0
    1.2782   -1.0220   -0.6112 C   0  0  2  0  0  0  0  0  0  0  0  0
    1.4223   -0.1929    0.6796 C   0  0  1  0  0  0  0  0  0  0  0  0
    2.9222    0.1325    0.7169 C   0  0  0  0  0  0  0  0  0  0  0  0
    3.5168   -1.0171    0.0236 N   0  0  0  0  0  0  0  0  0  0  0  0
    4.8473   -1.1344   -0.3017 C   0  0  0  0  0  0  0  0  0  0  0  0
    5.2951   -2.0356   -1.0023 O   0  0  0  0  0  0  0  0  0  0  0  0
    5.5416   -0.1136    0.2649 O   0  0  0  0  0  0  0  0  0  0  0  0
    6.9947    0.0139    0.0586 C   0  0  0  0  0  0  0  0  0  0  0  0
    7.3375    1.2756    0.8530 C   0  0  0  0  0  0  0  0  0  0  0  0
    7.2911    0.2077   -1.4322 C   0  0  0  0  0  0  0  0  0  0  0  0
    7.7102   -1.2111    0.6371 C   0  0  0  0  0  0  0  0  0  0  0  0
   -2.0369   -1.8561    1.7072 H   0  0  0  0  0  0  0  0  0  0  0  0
   -2.1800   -3.5741    3.5344 H   0  0  0  0  0  0  0  0  0  0  0  0
   -0.8558   -5.6985    3.3598 H   0  0  0  0  0  0  0  0  0  0  0  0
    0.6017   -6.1014    1.3605 H   0  0  0  0  0  0  0  0  0  0  0  0
    0.7621   -4.3976   -0.4378 H   0  0  0  0  0  0  0  0  0  0  0  0
   -1.7184   -2.6385   -2.4836 H   0  0  0  0  0  0  0  0  0  0  0  0
   -0.1761   -3.5316   -2.2549 H   0  0  0  0  0  0  0  0  0  0  0  0
   -0.2285   -2.3572   -4.4704 H   0  0  0  0  0  0  0  0  0  0  0  0
    1.1242   -1.8044   -3.4635 H   0  0  0  0  0  0  0  0  0  0  0  0
   -0.3731    2.1402   -1.9828 H   0  0  0  0  0  0  0  0  0  0  0  0
    0.6580    3.9469   -3.3411 H   0  0  0  0  0  0  0  0  0  0  0  0
    2.4278    5.4300   -2.3394 H   0  0  0  0  0  0  0  0  0  0  0  0
    3.1629    5.0685    0.0295 H   0  0  0  0  0  0  0  0  0  0  0  0
    2.1666    3.2394    1.3864 H   0  0  0  0  0  0  0  0  0  0  0  0
   -0.3557    2.6956    2.4964 H   0  0  0  0  0  0  0  0  0  0  0  0
    1.1198    1.7290    2.8592 H   0  0  0  0  0  0  0  0  0  0  0  0
   -0.4744   -0.3361    3.1914 H   0  0  0  0  0  0  0  0  0  0  0  0
   -1.8364    0.7999    2.9989 H   0  0  0  0  0  0  0  0  0  0  0  0
    2.8741   -2.2649   -1.5572 H   0  0  0  0  0  0  0  0  0  0  0  0
    2.3577   -2.8080    0.0739 H   0  0  0  0  0  0  0  0  0  0  0  0
    1.3630   -0.3217   -1.4744 H   0  0  0  0  0  0  0  0  0  0  0  0
    1.1650   -0.8508    1.5415 H   0  0  0  0  0  0  0  0  0  0  0  0
    3.3136    0.2320    1.7501 H   0  0  0  0  0  0  0  0  0  0  0  0
    3.1544    1.0772    0.1794 H   0  0  0  0  0  0  0  0  0  0  0  0
    8.4212    1.4910    0.7786 H   0  0  0  0  0  0  0  0  0  0  0  0
    7.0777    1.1461    1.9222 H   0  0  0  0  0  0  0  0  0  0  0  0
    6.7779    2.1474    0.4601 H   0  0  0  0  0  0  0  0  0  0  0  0
    8.3718    0.4061   -1.5759 H   0  0  0  0  0  0  0  0  0  0  0  0
    6.7264    1.0759   -1.8273 H   0  0  0  0  0  0  0  0  0  0  0  0
    7.0137   -0.6941   -2.0075 H   0  0  0  0  0  0  0  0  0  0  0  0
    8.8072   -1.0677    0.5740 H   0  0  0  0  0  0  0  0  0  0  0  0
    7.4361   -2.1249    0.0792 H   0  0  0  0  0  0  0  0  0  0  0  0
    7.4416   -1.3458    1.7039 H   0  0  0  0  0  0  0  0  0  0  0  0
  1  8  1  6  0  0  0
  1 24  1  0  0  0  0
  1  7  1  0  0  0  0
  2 35  1  0  0  0  0
  2  3  1  0  0  0  0
  3 36  1  0  0  0  0
  4  3  2  0  0  0  0
  4 37  1  0  0  0  0
  5  4  1  0  0  0  0
  6  7  1  0  0  0  0
  6  5  2  0  0  0  0
  7  2  2  0  0  0  0
  8 41  1  0  0  0  0
  9 43  1  0  0  0  0
  9  8  1  0  0  0  0
 10  9  1  0  0  0  0
 11 10  3  0  0  0  0
 12 19  1  1  0  0  0
 13 18  1  0  0  0  0
 14 15  1  0  0  0  0
 14 13  2  0  0  0  0
 15 16  2  0  0  0  0
 16 47  1  0  0  0  0
 16 17  1  0  0  0  0
 17 48  1  0  0  0  0
 18 17  2  0  0  0  0
 18 12  1  0  0  0  0
 19 49  1  0  0  0  0
 19 50  1  0  0  0  0
 19 20  1  0  0  0  0
 20 21  1  0  0  0  0
 21 22  3  0  0  0  0
 23 27  1  0  0  0  0
 23 54  1  0  0  0  0
 24 55  1  6  0  0  0
 24 23  1  0  0  0  0
 24 25  1  0  0  0  0
 25 12  1  0  0  0  0
 25 26  1  0  0  0  0
 25 56  1  1  0  0  0
 26 57  1  0  0  0  0
 27 26  1  0  0  0  0
 28 27  1  0  0  0  0
 28 30  1  0  0  0  0
 29 28  2  0  0  0  0
 31 30  1  0  0  0  0
 31 34  1  0  0  0  0
 31 32  1  0  0  0  0
 32 60  1  0  0  0  0
 33 31  1  0  0  0  0
 34 67  1  0  0  0  0
 38  5  1  0  0  0  0
 39  6  1  0  0  0  0
 40  8  1  0  0  0  0
 42  9  1  0  0  0  0
 44 13  1  0  0  0  0
 45 14  1  0  0  0  0
 46 15  1  0  0  0  0
 51 20  1  0  0  0  0
 52 20  1  0  0  0  0
 53 23  1  0  0  0  0
 58 26  1  0  0  0  0
 59 32  1  0  0  0  0
 61 32  1  0  0  0  0
 62 33  1  0  0  0  0
 63 33  1  0  0  0  0
 64 33  1  0  0  0  0
 65 34  1  0  0  0  0
 66 34  1  0  0  0  0
M  END
