1,2
q = 0.0, confidence = 0.996

 58 61  0  0  0  0  0  0  0  0999 V2000
   -1.3472   -0.1518    0.0463 P   0  0  0  0  0  0  0  0  0  0  0  0
    1.4672    0.1430    0.1532 P   0  0  0  0  0  0  0  0  0  0  0  0
   -0.0174    0.3242    1.3176 C   0  0  0  0  0  0  0  0  0  0  0  0
    0.0859   -0.5877    1.9460 H   0  0  0  0  0  0  0  0  0  0  0  0
   -0.1769    1.5528    2.2112 C   0  0  0  0  0  0  0  0  0  0  0  0
    0.8293    1.9304    2.4965 H   0  0  0  0  0  0  0  0  0  0  0  0
   -0.6329    2.3840    1.6333 H   0  0  0  0  0  0  0  0  0  0  0  0
   -0.9934    1.2773    3.4804 C   0  0  0  0  0  0  0  0  0  0  0  0
   -1.9398    0.7593    3.2107 H   0  0  0  0  0  0  0  0  0  0  0  0
   -0.4376    0.5490    4.1116 H   0  0  0  0  0  0  0  0  0  0  0  0
   -1.2986    2.5433    4.2792 C   0  0  0  0  0  0  0  0  0  0  0  0
   -1.8621    2.3183    5.2066 H   0  0  0  0  0  0  0  0  0  0  0  0
   -1.9037    3.2565    3.6811 H   0  0  0  0  0  0  0  0  0  0  0  0
   -0.3664    3.0701    4.5715 H   0  0  0  0  0  0  0  0  0  0  0  0
   -2.5686   -1.2095    0.9365 C   0  0  0  0  0  0  0  0  0  0  0  0
   -2.1600   -2.1208    1.9318 C   0  0  0  0  0  0  0  0  0  0  0  0
   -1.1074   -2.1724    2.2473 H   0  0  0  0  0  0  0  0  0  0  0  0
   -3.0882   -2.9887    2.5252 C   0  0  0  0  0  0  0  0  0  0  0  0
   -2.7532   -3.6912    3.3032 H   0  0  0  0  0  0  0  0  0  0  0  0
   -4.4327   -2.9684    2.1232 C   0  0  0  0  0  0  0  0  0  0  0  0
   -5.1590   -3.6524    2.5874 H   0  0  0  0  0  0  0  0  0  0  0  0
   -4.8435   -2.0773    1.1196 C   0  0  0  0  0  0  0  0  0  0  0  0
   -5.8937   -2.0606    0.7907 H   0  0  0  0  0  0  0  0  0  0  0  0
   -3.9196   -1.2041    0.5276 C   0  0  0  0  0  0  0  0  0  0  0  0
   -4.2519   -0.5108   -0.2596 H   0  0  0  0  0  0  0  0  0  0  0  0
   -2.3343    1.3683   -0.3004 C   0  0  0  0  0  0  0  0  0  0  0  0
   -3.0944    2.0141    0.7004 C   0  0  0  0  0  0  0  0  0  0  0  0
   -3.1445    1.5899    1.7135 H   0  0  0  0  0  0  0  0  0  0  0  0
   -3.8055    3.1847    0.4032 C   0  0  0  0  0  0  0  0  0  0  0  0
   -4.3902    3.6822    1.1920 H   0  0  0  0  0  0  0  0  0  0  0  0
   -3.7775    3.7178   -0.8970 C   0  0  0  0  0  0  0  0  0  0  0  0
   -4.3376    4.6368   -1.1274 H   0  0  0  0  0  0  0  0  0  0  0  0
   -3.0466    3.0678   -1.9025 C   0  0  0  0  0  0  0  0  0  0  0  0
   -3.0345    3.4676   -2.9276 H   0  0  0  0  0  0  0  0  0  0  0  0
   -2.3305    1.8969   -1.6057 C   0  0  0  0  0  0  0  0  0  0  0  0
   -1.7635    1.3767   -2.3908 H   0  0  0  0  0  0  0  0  0  0  0  0
    2.0584    1.8618   -0.1382 C   0  0  0  0  0  0  0  0  0  0  0  0
    1.1503    2.8118   -0.6532 C   0  0  0  0  0  0  0  0  0  0  0  0
    0.1040    2.5309   -0.8443 H   0  0  0  0  0  0  0  0  0  0  0  0
    1.5734    4.1173   -0.9330 C   0  0  0  0  0  0  0  0  0  0  0  0
    0.8512    4.8476   -1.3284 H   0  0  0  0  0  0  0  0  0  0  0  0
    2.9122    4.4866   -0.7214 C   0  0  0  0  0  0  0  0  0  0  0  0
    3.2457    5.5104   -0.9489 H   0  0  0  0  0  0  0  0  0  0  0  0
    3.8237    3.5421   -0.2269 C   0  0  0  0  0  0  0  0  0  0  0  0
    4.8764    3.8210   -0.0668 H   0  0  0  0  0  0  0  0  0  0  0  0
    3.4017    2.2353    0.0668 C   0  0  0  0  0  0  0  0  0  0  0  0
    4.1236    1.5020    0.4553 H   0  0  0  0  0  0  0  0  0  0  0  0
    2.7805   -0.6094    1.2012 C   0  0  0  0  0  0  0  0  0  0  0  0
    3.4566   -1.7444    0.7127 C   0  0  0  0  0  0  0  0  0  0  0  0
    3.2021   -2.1347   -0.2840 H   0  0  0  0  0  0  0  0  0  0  0  0
    4.4401   -2.3727    1.4931 C   0  0  0  0  0  0  0  0  0  0  0  0
    4.9630   -3.2577    1.1005 H   0  0  0  0  0  0  0  0  0  0  0  0
    4.7480   -1.8781    2.7692 C   0  0  0  0  0  0  0  0  0  0  0  0
    5.5146   -2.3748    3.3833 H   0  0  0  0  0  0  0  0  0  0  0  0
    4.0769   -0.7465    3.2637 C   0  0  0  0  0  0  0  0  0  0  0  0
    4.3178   -0.3546    4.2636 H   0  0  0  0  0  0  0  0  0  0  0  0
    3.1016   -0.1105    2.4831 C   0  0  0  0  0  0  0  0  0  0  0  0
    2.5934    0.7845    2.8724 H   0  0  0  0  0  0  0  0  0  0  0  0
  1 15  1  0  0  0  0
  1  3  1  0  0  0  0
  2 48  1  0  0  0  0
  2  3  1  0  0  0  0
  3  4  1  0  0  0  0
  3  5  1  0  0  0  0
  5  6  1  0  0  0  0
  5  8  1  0  0  0  0
  7  5  1  0  0  0  0
  8 10  1  0  0  0  0
  8 11  1  0  0  0  0
  9  8  1  0  0  0  0
 11 14  1  0  0  0  0
 11 12  1  0  0  0  0
 13 11  1  0  0  0  0
 15 16  1  0  0  0  0
 16 17  1  0  0  0  0
 16 18  2  0  0  0  0
 18 19  1  0  0  0  0
 20 18  1  0  0  0  0
 20 21  1  0  0  0  0
 22 20  2  0  0  0  0
 23 22  1  0  0  0  0
 24 15  2  0  0  0  0
 24 22  1  0  0  0  0
 25 24  1  0  0  0  0
 26  1  1  0  0  0  0
 26 27  1  0  0  0  0
 27 28  1  0  0  0  0
 29 27  2  0  0  0  0
 29 30  1  0  0  0  0
 31 29  1  0  0  0  0
 32 31  1  0  0  0  0
 33 35  1  0  0  0  0
 33 31  2  0  0  0  0
 34 33  1  0  0  0  0
 35 26  2  0  0  0  0
 36 35  1  0  0  0  0
 37 46  1  0  0  0  0
 37  2  1  0  0  0  0
 38 37  2  0  0  0  0
 39 38  1  0  0  0  0
 40 42  2  0  0  0  0
 40 38  1  0  0  0  0
 41 40  1  0  0  0  0
 42 44  1  0  0  0  0
 43 42  1  0  0  0  0
 44 45  1  0  0  0  0
 44 46  2  0  0  0  0
 46 47  1  0  0  0  0
 48 57  1  0  0  0  0
 49 48  2  0  0  0  0
 49 51  1  0  0  0  0
 50 49  1  0  0  0  0
 51 53  2  0  0  0  0
 52 51  1  0  0  0  0
 53 55  1  0  0  0  0
 53 54  1  0  0  0  0
 55 56  1  0  0  0  0
 57 58  1  0  0  0  0
 57 55  2  0  0  0  0
M  END
