1,2
q = 0.0, confidence = 1.0

 55 58  0  0  0  0  0  0  0  0999 V2000
   -1.2879    0.5577   -0.1965 P   0  0  1  0  0  0  0  0  0  0  0  0
    1.2286   -0.6870   -0.4091 P   0  0  2  0  0  0  0  0  0  0  0  0
   -0.1272   -0.0581   -1.5422 C   0  0  0  0  0  0  0  0  0  0  0  0
    0.1550    0.6847   -2.3153 H   0  0  0  0  0  0  0  0  0  0  0  0
   -0.6099   -0.9307   -2.0269 H   0  0  0  0  0  0  0  0  0  0  0  0
   -1.2034    2.3923   -0.3180 C   0  0  0  0  0  0  0  0  0  0  0  0
   -2.3627    3.1792   -0.1635 C   0  0  0  0  0  0  0  0  0  0  0  0
   -3.3438    2.6948   -0.0465 H   0  0  0  0  0  0  0  0  0  0  0  0
   -2.2692    4.5795   -0.1626 C   0  0  0  0  0  0  0  0  0  0  0  0
   -3.1808    5.1847   -0.0421 H   0  0  0  0  0  0  0  0  0  0  0  0
   -1.0227    5.2060   -0.3144 C   0  0  0  0  0  0  0  0  0  0  0  0
   -0.9525    6.3043   -0.3134 H   0  0  0  0  0  0  0  0  0  0  0  0
    0.1354    4.4254   -0.4605 C   0  0  0  0  0  0  0  0  0  0  0  0
    1.1191    4.9062   -0.5715 H   0  0  0  0  0  0  0  0  0  0  0  0
    0.0496    3.0264   -0.4558 C   0  0  0  0  0  0  0  0  0  0  0  0
    0.9704    2.4309   -0.5494 H   0  0  0  0  0  0  0  0  0  0  0  0
   -2.9772    0.1591   -0.7857 C   0  0  0  0  0  0  0  0  0  0  0  0
   -3.4249    0.5434   -2.0684 C   0  0  0  0  0  0  0  0  0  0  0  0
   -2.7636    1.1219   -2.7328 H   0  0  0  0  0  0  0  0  0  0  0  0
   -4.7122    0.2026   -2.4955 C   0  0  0  0  0  0  0  0  0  0  0  0
   -5.0495    0.5069   -3.4993 H   0  0  0  0  0  0  0  0  0  0  0  0
   -5.5919   -0.5220   -1.6593 C   0  0  0  0  0  0  0  0  0  0  0  0
   -5.1369   -0.8908   -0.3788 C   0  0  0  0  0  0  0  0  0  0  0  0
   -5.8060   -1.4508    0.2930 H   0  0  0  0  0  0  0  0  0  0  0  0
   -3.8442   -0.5604    0.0559 C   0  0  0  0  0  0  0  0  0  0  0  0
   -3.5001   -0.8605    1.0574 H   0  0  0  0  0  0  0  0  0  0  0  0
   -6.9693   -0.8990   -2.1405 C   0  0  0  0  0  0  0  0  0  0  0  0
   -7.4851   -0.0367   -2.6098 H   0  0  0  0  0  0  0  0  0  0  0  0
   -7.6034   -1.2740   -1.3145 H   0  0  0  0  0  0  0  0  0  0  0  0
   -6.9150   -1.6981   -2.9102 H   0  0  0  0  0  0  0  0  0  0  0  0
    2.6543    0.4529   -0.6538 C   0  0  0  0  0  0  0  0  0  0  0  0
    3.4382    0.7796    0.4683 C   0  0  0  0  0  0  0  0  0  0  0  0
    3.1733    0.3608    1.4513 H   0  0  0  0  0  0  0  0  0  0  0  0
    4.5380    1.6401    0.3394 C   0  0  0  0  0  0  0  0  0  0  0  0
    5.1367    1.8882    1.2297 H   0  0  0  0  0  0  0  0  0  0  0  0
    4.8816    2.2034   -0.9047 C   0  0  0  0  0  0  0  0  0  0  0  0
    4.0908    1.8665   -2.0258 C   0  0  0  0  0  0  0  0  0  0  0  0
    4.3391    2.2936   -3.0107 H   0  0  0  0  0  0  0  0  0  0  0  0
    2.9979    1.0008   -1.9076 C   0  0  0  0  0  0  0  0  0  0  0  0
    2.4053    0.7588   -2.8034 H   0  0  0  0  0  0  0  0  0  0  0  0
    1.8180   -2.2573   -1.1698 C   0  0  0  0  0  0  0  0  0  0  0  0
    1.9280   -2.4248   -2.5654 C   0  0  0  0  0  0  0  0  0  0  0  0
    1.6465   -1.6073   -3.2475 H   0  0  0  0  0  0  0  0  0  0  0  0
    2.3913   -3.6379   -3.0944 C   0  0  0  0  0  0  0  0  0  0  0  0
    2.4693   -3.7650   -4.1849 H   0  0  0  0  0  0  0  0  0  0  0  0
    2.7531   -4.6884   -2.2345 C   0  0  0  0  0  0  0  0  0  0  0  0
    3.1150   -5.6404   -2.6517 H   0  0  0  0  0  0  0  0  0  0  0  0
    2.6458   -4.5254   -0.8448 C   0  0  0  0  0  0  0  0  0  0  0  0
    2.9211   -5.3482   -0.1680 H   0  0  0  0  0  0  0  0  0  0  0  0
    2.1749   -3.3157   -0.3116 C   0  0  0  0  0  0  0  0  0  0  0  0
    2.0719   -3.1893    0.7771 H   0  0  0  0  0  0  0  0  0  0  0  0
    6.0553    3.1377   -1.0483 C   0  0  0  0  0  0  0  0  0  0  0  0
    6.5499    3.3260   -0.0764 H   0  0  0  0  0  0  0  0  0  0  0  0
    5.7419    4.1163   -1.4678 H   0  0  0  0  0  0  0  0  0  0  0  0
    6.8153    2.7214   -1.7422 H   0  0  0  0  0  0  0  0  0  0  0  0
  1  3  1  6  0  0  0
  2  3  1  6  0  0  0
  4  3  1  0  0  0  0
  5  3  1  0  0  0  0
  6  1  1  0  0  0  0
  6  7  1  0  0  0  0
  7  9  2  0  0  0  0
  7  8  1  0  0  0  0
  9 10  1  0  0  0  0
 11 12  1  0  0  0  0
 11  9  1  0  0  0  0
 13 15  1  0  0  0  0
 13 11  2  0  0  0  0
 14 13  1  0  0  0  0
 15  6  2  0  0  0  0
 16 15  1  0  0  0  0
 17  1  1  0  0  0  0
 17 25  1  0  0  0  0
 18 17  2  0  0  0  0
 19 18  1  0  0  0  0
 20 18  1  0  0  0  0
 20 22  2  0  0  0  0
 21 20  1  0  0  0  0
 22 23  1  0  0  0  0
 23 25  2  0  0  0  0
 23 24  1  0  0  0  0
 25 26  1  0  0  0  0
 27 22  1  0  0  0  0
 27 29  1  0  0  0  0
 28 27  1  0  0  0  0
 30 27  1  0  0  0  0
 31  2  1  0  0  0  0
 31 32  1  0  0  0  0
 32 33  1  0  0  0  0
 34 32  2  0  0  0  0
 34 35  1  0  0  0  0
 36 34  1  0  0  0  0
 37 39  1  0  0  0  0
 37 36  2  0  0  0  0
 38 37  1  0  0  0  0
 39 31  2  0  0  0  0
 40 39  1  0  0  0  0
 41  2  1  0  0  0  0
 41 50  1  0  0  0  0
 42 41  2  0  0  0  0
 43 42  1  0  0  0  0
 44 42  1  0  0  0  0
 44 46  2  0  0  0  0
 45 44  1  0  0  0  0
 46 48  1  0  0  0  0
 47 46  1  0  0  0  0
 48 50  2  0  0  0  0
 48 49  1  0  0  0  0
 50 51  1  0  0  0  0
 52 36  1  0  0  0  0
 52 53  1  0  0  0  0
 54 52  1  0  0  0  0
 55 52  1  0  0  0  0
M  END
