1,2
q = 0.0, confidence = 0.99

 75 80  0  0  0  0  0  0  0  0999 V2000
    1.8916    0.3952    0.3386 P   0  0  0  0  0  0  0  0  0  0  0  0
   -1.5929   -0.1915    0.2717 P   0  0  0  0  0  0  0  0  0  0  0  0
    0.0939    1.6051   -1.5346 O   0  0  0  0  0  0  0  0  0  0  0  0
    2.8970   -2.2024   -1.1487 O   0  0  0  0  0  0  0  0  0  0  0  0
   -4.4267    0.2200   -0.9334 O   0  0  0  0  0  0  0  0  0  0  0  0
    2.7386    1.9988   -0.0230 C   0  0  0  0  0  0  0  0  0  0  0  0
    2.9531    2.8691    1.0649 C   0  0  0  0  0  0  0  0  0  0  0  0
    3.6136    4.0906    0.8766 C   0  0  0  0  0  0  0  0  0  0  0  0
    4.0566    4.4624   -0.4037 C   0  0  0  0  0  0  0  0  0  0  0  0
    3.8411    3.6022   -1.4914 C   0  0  0  0  0  0  0  0  0  0  0  0
    3.1884    2.3733   -1.3030 C   0  0  0  0  0  0  0  0  0  0  0  0
    3.3214   -0.5808    1.0018 C   0  0  0  0  0  0  0  0  0  0  0  0
    4.6481   -0.3289    0.5988 C   0  0  0  0  0  0  0  0  0  0  0  0
    5.7008   -1.0997    1.1113 C   0  0  0  0  0  0  0  0  0  0  0  0
    5.4421   -2.1265    2.0352 C   0  0  0  0  0  0  0  0  0  0  0  0
    4.1243   -2.3688    2.4538 C   0  0  0  0  0  0  0  0  0  0  0  0
    3.0710   -1.5936    1.9457 C   0  0  0  0  0  0  0  0  0  0  0  0
    1.5468   -0.2719   -1.3541 C   0  0  0  0  0  0  0  0  0  0  0  0
    0.5608    0.4229   -2.0870 C   0  0  0  0  0  0  0  0  0  0  0  0
    0.0701   -0.0282   -3.3228 C   0  0  0  0  0  0  0  0  0  0  0  0
    0.5616   -1.2312   -3.8366 C   0  0  0  0  0  0  0  0  0  0  0  0
    1.5220   -1.9713   -3.1351 C   0  0  0  0  0  0  0  0  0  0  0  0
    2.0093   -1.5034   -1.8972 C   0  0  0  0  0  0  0  0  0  0  0  0
   -1.2603    1.8481   -1.6549 C   0  0  0  0  0  0  0  0  0  0  0  0
   -2.1903    0.9639   -1.0546 C   0  0  0  0  0  0  0  0  0  0  0  0
   -3.5666    1.1861   -1.3437 C   0  0  0  0  0  0  0  0  0  0  0  0
   -3.9824    2.3390   -2.0419 C   0  0  0  0  0  0  0  0  0  0  0  0
   -3.0254    3.2411   -2.5277 C   0  0  0  0  0  0  0  0  0  0  0  0
   -1.6572    2.9889   -2.3651 C   0  0  0  0  0  0  0  0  0  0  0  0
   -3.0814   -0.3960    1.3456 C   0  0  0  0  0  0  0  0  0  0  0  0
   -3.5493    0.7374    2.0441 C   0  0  0  0  0  0  0  0  0  0  0  0
   -4.6443    0.6309    2.9114 C   0  0  0  0  0  0  0  0  0  0  0  0
   -5.2656   -0.6134    3.1179 C   0  0  0  0  0  0  0  0  0  0  0  0
   -4.7847   -1.7474    2.4457 C   0  0  0  0  0  0  0  0  0  0  0  0
   -3.7007   -1.6411    1.5588 C   0  0  0  0  0  0  0  0  0  0  0  0
   -1.4183   -1.8376   -0.5379 C   0  0  0  0  0  0  0  0  0  0  0  0
   -2.2076   -2.2437   -1.6323 C   0  0  0  0  0  0  0  0  0  0  0  0
   -2.0344   -3.5208   -2.1863 C   0  0  0  0  0  0  0  0  0  0  0  0
   -1.0826   -4.4032   -1.6480 C   0  0  0  0  0  0  0  0  0  0  0  0
   -0.2953   -4.0023   -0.5569 C   0  0  0  0  0  0  0  0  0  0  0  0
   -0.4552   -2.7200   -0.0115 C   0  0  0  0  0  0  0  0  0  0  0  0
    3.3827   -3.4462   -1.6101 C   0  0  0  0  0  0  0  0  0  0  0  0
   -5.8097    0.5079   -0.8230 C   0  0  0  0  0  0  0  0  0  0  0  0
    2.5916    2.5823    2.0650 H   0  0  0  0  0  0  0  0  0  0  0  0
    3.7748    4.7614    1.7343 H   0  0  0  0  0  0  0  0  0  0  0  0
    4.5669    5.4261   -0.5537 H   0  0  0  0  0  0  0  0  0  0  0  0
    4.1839    3.8883   -2.4978 H   0  0  0  0  0  0  0  0  0  0  0  0
    3.0261    1.6999   -2.1582 H   0  0  0  0  0  0  0  0  0  0  0  0
    4.8573    0.4718   -0.1260 H   0  0  0  0  0  0  0  0  0  0  0  0
    6.7336   -0.8950    0.7891 H   0  0  0  0  0  0  0  0  0  0  0  0
    6.2709   -2.7276    2.4399 H   0  0  0  0  0  0  0  0  0  0  0  0
    3.9138   -3.1580    3.1919 H   0  0  0  0  0  0  0  0  0  0  0  0
    2.0418   -1.7703    2.2909 H   0  0  0  0  0  0  0  0  0  0  0  0
   -0.6938    0.5564   -3.8527 H   0  0  0  0  0  0  0  0  0  0  0  0
    0.1850   -1.6088   -4.7989 H   0  0  0  0  0  0  0  0  0  0  0  0
    1.8767   -2.9254   -3.5438 H   0  0  0  0  0  0  0  0  0  0  0  0
   -5.0492    2.5193   -2.2288 H   0  0  0  0  0  0  0  0  0  0  0  0
   -3.3552    4.1372   -3.0745 H   0  0  0  0  0  0  0  0  0  0  0  0
   -0.8836    3.6459   -2.7847 H   0  0  0  0  0  0  0  0  0  0  0  0
   -3.0535    1.7101    1.9025 H   0  0  0  0  0  0  0  0  0  0  0  0
   -5.0060    1.5243    3.4435 H   0  0  0  0  0  0  0  0  0  0  0  0
   -6.1166   -0.6991    3.8106 H   0  0  0  0  0  0  0  0  0  0  0  0
   -5.2580   -2.7280    2.6092 H   0  0  0  0  0  0  0  0  0  0  0  0
   -3.3414   -2.5312    1.0220 H   0  0  0  0  0  0  0  0  0  0  0  0
   -2.9667   -1.5589   -2.0378 H   0  0  0  0  0  0  0  0  0  0  0  0
   -2.6508   -3.8319   -3.0437 H   0  0  0  0  0  0  0  0  0  0  0  0
   -0.9536   -5.4061   -2.0835 H   0  0  0  0  0  0  0  0  0  0  0  0
    0.4549   -4.6864   -0.1311 H   0  0  0  0  0  0  0  0  0  0  0  0
    0.1770   -2.3769    0.8223 H   0  0  0  0  0  0  0  0  0  0  0  0
    4.0721   -3.8098   -0.8256 H   0  0  0  0  0  0  0  0  0  0  0  0
    2.5610   -4.1834   -1.7494 H   0  0  0  0  0  0  0  0  0  0  0  0
    3.9407   -3.3438   -2.5677 H   0  0  0  0  0  0  0  0  0  0  0  0
   -6.2591   -0.3559   -0.2990 H   0  0  0  0  0  0  0  0  0  0  0  0
   -5.9839    1.4257   -0.2213 H   0  0  0  0  0  0  0  0  0  0  0  0
   -6.2907    0.6241   -1.8197 H   0  0  0  0  0  0  0  0  0  0  0  0
  1 12  1  0  0  0  0
  2 30  1  0  0  0  0
  5 43  1  0  0  0  0
  6  1  1  0  0  0  0
  6  7  1  0  0  0  0
  7 44  1  0  0  0  0
  8  7  2  0  0  0  0
  8 45  1  0  0  0  0
  9  8  1  0  0  0  0
 10 11  1  0  0  0  0
 10  9  2  0  0  0  0
 11  6  2  0  0  0  0
 12 17  1  0  0  0  0
 13 12  2  0  0  0  0
 13 14  1  0  0  0  0
 14 15  2  0  0  0  0
 15 51  1  0  0  0  0
 15 16  1  0  0  0  0
 16 52  1  0  0  0  0
 17 53  1  0  0  0  0
 17 16  2  0  0  0  0
 18  1  1  0  0  0  0
 19  3  1  0  0  0  0
 19 18  2  0  0  0  0
 20 19  1  0  0  0  0
 21 20  2  0  0  0  0
 21 22  1  0  0  0  0
 22 23  2  0  0  0  0
 23 18  1  0  0  0  0
 23  4  1  0  0  0  0
 24  3  1  0  0  0  0
 24 25  1  0  0  0  0
 25  2  1  0  0  0  0
 26 25  2  0  0  0  0
 26  5  1  0  0  0  0
 27 26  1  0  0  0  0
 28 29  1  0  0  0  0
 28 27  2  0  0  0  0
 29 24  2  0  0  0  0
 30 35  2  0  0  0  0
 30 31  1  0  0  0  0
 31 32  2  0  0  0  0
 32 33  1  0  0  0  0
 32 61  1  0  0  0  0
 33 62  1  0  0  0  0
 34 63  1  0  0  0  0
 34 33  2  0  0  0  0
 35 34  1  0  0  0  0
 36 41  1  0  0  0  0
 36  2  1  0  0  0  0
 37 36  2  0  0  0  0
 38 39  2  0  0  0  0
 38 37  1  0  0  0  0
 39 40  1  0  0  0  0
 40 68  1  0  0  0  0
 40 41  2  0  0  0  0
 41 69  1  0  0  0  0
 42  4  1  0  0  0  0
 42 70  1  0  0  0  0
 43 73  1  0  0  0  0
 43 74  1  0  0  0  0
 46  9  1  0  0  0  0
 47 10  1  0  0  0  0
 48 11  1  0  0  0  0
 49 13  1  0  0  0  0
 50 14  1  0  0  0  0
 54 20  1  0  0  0  0
 55 21  1  0  0  0  0
 56 22  1  0  0  0  0
 57 27  1  0  0  0  0
 58 28  1  0  0  0  0
 59 29  1  0  0  0  0
 60 31  1  0  0  0  0
 64 35  1  0  0  0  0
 65 37  1  0  0  0  0
 66 38  1  0  0  0  0
 67 39  1  0  0  0  0
 71 42  1  0  0  0  0
 72 42  1  0  0  0  0
 75 43  1  0  0  0  0
M  END
