1,2
q = 0.0, confidence = 0.986

 72 77  0  0  0  0  0  0  0  0999 V2000
    1.6059   -0.4145   -0.2001 P   0  0  0  0  0  0  0  0  0  0  0  0
   -1.6060    0.4147   -0.1999 P   0  0  0  0  0  0  0  0  0  0  0  0
   -3.3046    0.0664   -0.8179 C   0  0  0  0  0  0  0  0  0  0  0  0
   -1.3747   -2.5436    3.4120 C   0  0  0  0  0  0  0  0  0  0  0  0
   -1.3237   -3.2440    4.2603 H   0  0  0  0  0  0  0  0  0  0  0  0
    0.5000    0.5517    2.2761 C   0  0  0  0  0  0  0  0  0  0  0  0
   -1.4839   -0.7186    1.2640 C   0  0  0  0  0  0  0  0  0  0  0  0
   -3.4908   -0.9492   -1.7788 C   0  0  0  0  0  0  0  0  0  0  0  0
   -2.6162   -1.4514   -2.2178 H   0  0  0  0  0  0  0  0  0  0  0  0
   -2.3157   -2.7532    2.3871 C   0  0  0  0  0  0  0  0  0  0  0  0
    1.4840    0.7184    1.2642 C   0  0  0  0  0  0  0  0  0  0  0  0
    3.4897    0.9503   -1.7792 C   0  0  0  0  0  0  0  0  0  0  0  0
    2.6148    1.4524   -2.2178 H   0  0  0  0  0  0  0  0  0  0  0  0
    2.1488   -2.4190    1.7498 C   0  0  0  0  0  0  0  0  0  0  0  0
    2.4622   -1.6041    2.4203 H   0  0  0  0  0  0  0  0  0  0  0  0
    1.6765   -2.1225    0.4560 C   0  0  0  0  0  0  0  0  0  0  0  0
   -1.2731    3.1633   -0.4054 C   0  0  0  0  0  0  0  0  0  0  0  0
   -0.9398    2.9151   -1.4268 H   0  0  0  0  0  0  0  0  0  0  0  0
   -4.7854   -1.2952   -2.1882 C   0  0  0  0  0  0  0  0  0  0  0  0
   -4.9230   -2.0853   -2.9416 H   0  0  0  0  0  0  0  0  0  0  0  0
   -2.1481    2.4191    1.7502 C   0  0  0  0  0  0  0  0  0  0  0  0
   -2.4617    1.6043    2.4207 H   0  0  0  0  0  0  0  0  0  0  0  0
    0.4935    1.4589    3.3556 C   0  0  0  0  0  0  0  0  0  0  0  0
   -0.2515    1.3172    4.1532 H   0  0  0  0  0  0  0  0  0  0  0  0
   -0.4932   -1.4601    3.3550 C   0  0  0  0  0  0  0  0  0  0  0  0
    0.2519   -1.3186    4.1525 H   0  0  0  0  0  0  0  0  0  0  0  0
    1.7895   -4.7874    1.3325 C   0  0  0  0  0  0  0  0  0  0  0  0
    1.8282   -5.8317    1.6786 H   0  0  0  0  0  0  0  0  0  0  0  0
    2.3665    1.8146    1.3397 C   0  0  0  0  0  0  0  0  0  0  0  0
    3.1283    1.9447    0.5579 H   0  0  0  0  0  0  0  0  0  0  0  0
   -2.3664   -1.8151    1.3391 C   0  0  0  0  0  0  0  0  0  0  0  0
   -3.1282   -1.9450    0.5573 H   0  0  0  0  0  0  0  0  0  0  0  0
    1.3753    2.5423    3.4130 C   0  0  0  0  0  0  0  0  0  0  0  0
    1.3245    3.2423    4.2617 H   0  0  0  0  0  0  0  0  0  0  0  0
   -1.6760    2.1226    0.4564 C   0  0  0  0  0  0  0  0  0  0  0  0
    1.2738   -3.1633   -0.4059 C   0  0  0  0  0  0  0  0  0  0  0  0
    0.9404   -2.9151   -1.4272 H   0  0  0  0  0  0  0  0  0  0  0  0
    5.8976    0.6230   -1.6597 C   0  0  0  0  0  0  0  0  0  0  0  0
    6.9123    0.8888   -1.9932 H   0  0  0  0  0  0  0  0  0  0  0  0
   -1.3297    4.4924    0.0386 C   0  0  0  0  0  0  0  0  0  0  0  0
   -1.0145    5.3038   -0.6348 H   0  0  0  0  0  0  0  0  0  0  0  0
    2.2035   -3.7511    2.1850 C   0  0  0  0  0  0  0  0  0  0  0  0
    2.5662   -3.9803    3.1986 H   0  0  0  0  0  0  0  0  0  0  0  0
    4.4197   -0.7415   -0.2909 C   0  0  0  0  0  0  0  0  0  0  0  0
    4.2815   -1.5466    0.4455 H   0  0  0  0  0  0  0  0  0  0  0  0
    3.3041   -0.0656   -0.8185 C   0  0  0  0  0  0  0  0  0  0  0  0
   -3.2279   -3.9521    2.3919 C   0  0  0  0  0  0  0  0  0  0  0  0
   -3.5040   -4.2535    3.4217 H   0  0  0  0  0  0  0  0  0  0  0  0
   -2.7259   -4.8241    1.9198 H   0  0  0  0  0  0  0  0  0  0  0  0
   -4.1576   -3.7612    1.8213 H   0  0  0  0  0  0  0  0  0  0  0  0
    1.3308   -4.4924    0.0381 C   0  0  0  0  0  0  0  0  0  0  0  0
    1.0157   -5.3038   -0.6353 H   0  0  0  0  0  0  0  0  0  0  0  0
   -2.2024    3.7512    2.1855 C   0  0  0  0  0  0  0  0  0  0  0  0
   -2.5650    3.9806    3.1992 H   0  0  0  0  0  0  0  0  0  0  0  0
   -5.7135    0.3994   -0.7139 C   0  0  0  0  0  0  0  0  0  0  0  0
   -6.5808    0.9395   -0.3049 H   0  0  0  0  0  0  0  0  0  0  0  0
   -4.4198    0.7425   -0.2897 C   0  0  0  0  0  0  0  0  0  0  0  0
   -4.2812    1.5474    0.4468 H   0  0  0  0  0  0  0  0  0  0  0  0
    2.3161    2.7522    2.3882 C   0  0  0  0  0  0  0  0  0  0  0  0
   -5.8985   -0.6214   -1.6583 C   0  0  0  0  0  0  0  0  0  0  0  0
   -6.9135   -0.8868   -1.9915 H   0  0  0  0  0  0  0  0  0  0  0  0
    5.7132   -0.3980   -0.7155 C   0  0  0  0  0  0  0  0  0  0  0  0
    6.5808   -0.9380   -0.3069 H   0  0  0  0  0  0  0  0  0  0  0  0
   -1.7883    4.7875    1.3330 C   0  0  0  0  0  0  0  0  0  0  0  0
   -1.8268    5.8317    1.6792 H   0  0  0  0  0  0  0  0  0  0  0  0
    4.7840    1.2967   -2.1890 C   0  0  0  0  0  0  0  0  0  0  0  0
    4.9212    2.0870   -2.9423 H   0  0  0  0  0  0  0  0  0  0  0  0
    3.2287    3.9509    2.3928 C   0  0  0  0  0  0  0  0  0  0  0  0
    3.4891    4.2645    3.4230 H   0  0  0  0  0  0  0  0  0  0  0  0
    2.7345    4.8172    1.9023 H   0  0  0  0  0  0  0  0  0  0  0  0
    4.1668    3.7530    1.8386 H   0  0  0  0  0  0  0  0  0  0  0  0
   -0.5000   -0.5523    2.2759 C   0  0  0  0  0  0  0  0  0  0  0  0
  1 16  1  0  0  0  0
  1 11  1  0  0  0  0
  2 35  1  0  0  0  0
  2  7  1  0  0  0  0
  3 57  1  0  0  0  0
  3  2  1  0  0  0  0
  4  5  1  0  0  0  0
  6 23  1  0  0  0  0
  7 31  2  0  0  0  0
  7 72  1  0  0  0  0
  8  3  2  0  0  0  0
  9  8  1  0  0  0  0
 10 47  1  0  0  0  0
 10  4  2  0  0  0  0
 11 29  1  0  0  0  0
 11  6  2  0  0  0  0
 12 46  1  0  0  0  0
 13 12  1  0  0  0  0
 14 42  1  0  0  0  0
 14 15  1  0  0  0  0
 16 14  2  0  0  0  0
 17 40  2  0  0  0  0
 17 35  1  0  0  0  0
 18 17  1  0  0  0  0
 19  8  1  0  0  0  0
 19 60  2  0  0  0  0
 20 19  1  0  0  0  0
 21 53  1  0  0  0  0
 21 22  1  0  0  0  0
 23 33  2  0  0  0  0
 23 24  1  0  0  0  0
 25  4  1  0  0  0  0
 25 26  1  0  0  0  0
 27 28  1  0  0  0  0
 27 42  2  0  0  0  0
 29 59  2  0  0  0  0
 30 29  1  0  0  0  0
 31 10  1  0  0  0  0
 32 31  1  0  0  0  0
 33 34  1  0  0  0  0
 35 21  2  0  0  0  0
 36 51  2  0  0  0  0
 36 16  1  0  0  0  0
 37 36  1  0  0  0  0
 38 62  2  0  0  0  0
 39 38  1  0  0  0  0
 40 64  1  0  0  0  0
 41 40  1  0  0  0  0
 42 43  1  0  0  0  0
 44 45  1  0  0  0  0
 46 44  2  0  0  0  0
 46  1  1  0  0  0  0
 47 48  1  0  0  0  0
 49 47  1  0  0  0  0
 50 47  1  0  0  0  0
 51 27  1  0  0  0  0
 52 51  1  0  0  0  0
 53 54  1  0  0  0  0
 55 56  1  0  0  0  0
 55 57  2  0  0  0  0
 57 58  1  0  0  0  0
 59 68  1  0  0  0  0
 59 33  1  0  0  0  0
 60 55  1  0  0  0  0
 61 60  1  0  0  0  0
 62 63  1  0  0  0  0
 62 44  1  0  0  0  0
 64 65  1  0  0  0  0
 64 53  2  0  0  0  0
 66 12  2  0  0  0  0
 66 38  1  0  0  0  0
 67 66  1  0  0  0  0
 68 69  1  0  0  0  0
 70 68  1  0  0  0  0
 71 68  1  0  0  0  0
 72  6  1  0  0  0  0
 72 25  2  0  0  0  0
M  END
