1,2
q = 0.0, confidence = 0.986

 56 59  0  0  0  0  0  0  0  0999 V2000
   -1.6923    0.1304    0.5214 P   0  0  0  0  0  0  0  0  0  0  0  0
    1.7218    0.0611    0.3232 P   0  0  0  0  0  0  0  0  0  0  0  0
   -3.1423    1.1713    0.0512 C   0  0  0  0  0  0  0  0  0  0  0  0
   -4.4073    0.6110   -0.2094 C   0  0  0  0  0  0  0  0  0  0  0  0
   -5.4604    1.4247   -0.6553 C   0  0  0  0  0  0  0  0  0  0  0  0
   -5.2632    2.8012   -0.8420 C   0  0  0  0  0  0  0  0  0  0  0  0
   -4.0035    3.3646   -0.5825 C   0  0  0  0  0  0  0  0  0  0  0  0
   -2.9467    2.5551   -0.1436 C   0  0  0  0  0  0  0  0  0  0  0  0
   -2.4626   -1.3601    1.3000 C   0  0  0  0  0  0  0  0  0  0  0  0
   -2.6630   -1.4518    2.6917 C   0  0  0  0  0  0  0  0  0  0  0  0
   -3.2514   -2.5984    3.2468 C   0  0  0  0  0  0  0  0  0  0  0  0
   -3.6551   -3.6570    2.4178 C   0  0  0  0  0  0  0  0  0  0  0  0
   -3.4626   -3.5688    1.0298 C   0  0  0  0  0  0  0  0  0  0  0  0
   -2.8613   -2.4307    0.4727 C   0  0  0  0  0  0  0  0  0  0  0  0
   -1.0203    1.0746    1.9338 C   0  0  0  0  0  0  0  0  0  0  0  0
    0.1853    0.8361    2.5152 C   0  0  0  0  0  0  0  0  0  0  0  0
    0.7219    1.7202    3.6069 C   0  0  0  0  0  0  0  0  0  0  0  0
    1.0856   -0.2875    2.0676 C   0  0  0  0  0  0  0  0  0  0  0  0
    3.1279   -1.1116    0.1436 C   0  0  0  0  0  0  0  0  0  0  0  0
    3.2270   -2.2987    0.8954 C   0  0  0  0  0  0  0  0  0  0  0  0
    4.2658   -3.2098    0.6443 C   0  0  0  0  0  0  0  0  0  0  0  0
    5.2125   -2.9445   -0.3556 C   0  0  0  0  0  0  0  0  0  0  0  0
    5.1158   -1.7640   -1.1117 C   0  0  0  0  0  0  0  0  0  0  0  0
    4.0781   -0.8553   -0.8692 C   0  0  0  0  0  0  0  0  0  0  0  0
    2.5710    1.6742    0.6261 C   0  0  0  0  0  0  0  0  0  0  0  0
    3.8240    1.7356    1.2723 C   0  0  0  0  0  0  0  0  0  0  0  0
    4.3931    2.9775    1.5902 C   0  0  0  0  0  0  0  0  0  0  0  0
    3.7156    4.1669    1.2723 C   0  0  0  0  0  0  0  0  0  0  0  0
    2.4694    4.1104    0.6296 C   0  0  0  0  0  0  0  0  0  0  0  0
    1.9006    2.8691    0.3041 C   0  0  0  0  0  0  0  0  0  0  0  0
   -4.5749   -0.4657   -0.0607 H   0  0  0  0  0  0  0  0  0  0  0  0
   -6.4447    0.9754   -0.8565 H   0  0  0  0  0  0  0  0  0  0  0  0
   -6.0908    3.4361   -1.1928 H   0  0  0  0  0  0  0  0  0  0  0  0
   -3.8375    4.4424   -0.7311 H   0  0  0  0  0  0  0  0  0  0  0  0
   -1.9591    3.0048    0.0398 H   0  0  0  0  0  0  0  0  0  0  0  0
   -2.3486   -0.6214    3.3419 H   0  0  0  0  0  0  0  0  0  0  0  0
   -3.3972   -2.6637    4.3360 H   0  0  0  0  0  0  0  0  0  0  0  0
   -4.1162   -4.5556    2.8550 H   0  0  0  0  0  0  0  0  0  0  0  0
   -3.7708   -4.3969    0.3739 H   0  0  0  0  0  0  0  0  0  0  0  0
   -2.6941   -2.3739   -0.6132 H   0  0  0  0  0  0  0  0  0  0  0  0
   -1.6248    1.9278    2.2852 H   0  0  0  0  0  0  0  0  0  0  0  0
    1.6945    2.1599    3.2958 H   0  0  0  0  0  0  0  0  0  0  0  0
    0.9202    1.1344    4.5302 H   0  0  0  0  0  0  0  0  0  0  0  0
    0.0260    2.5443    3.8540 H   0  0  0  0  0  0  0  0  0  0  0  0
    0.5450   -1.2545    2.0089 H   0  0  0  0  0  0  0  0  0  0  0  0
    1.9522   -0.4036    2.7480 H   0  0  0  0  0  0  0  0  0  0  0  0
    2.4875   -2.5322    1.6748 H   0  0  0  0  0  0  0  0  0  0  0  0
    4.3302   -4.1360    1.2353 H   0  0  0  0  0  0  0  0  0  0  0  0
    6.0244   -3.6610   -0.5516 H   0  0  0  0  0  0  0  0  0  0  0  0
    5.8496   -1.5526   -1.9040 H   0  0  0  0  0  0  0  0  0  0  0  0
    4.0008    0.0611   -1.4741 H   0  0  0  0  0  0  0  0  0  0  0  0
    4.3582    0.8061    1.5225 H   0  0  0  0  0  0  0  0  0  0  0  0
    5.3736    3.0170    2.0888 H   0  0  0  0  0  0  0  0  0  0  0  0
    4.1648    5.1403    1.5216 H   0  0  0  0  0  0  0  0  0  0  0  0
    1.9369    5.0382    0.3711 H   0  0  0  0  0  0  0  0  0  0  0  0
    0.9279    2.8216   -0.2039 H   0  0  0  0  0  0  0  0  0  0  0  0
  1  9  1  0  0  0  0
  1 15  1  0  0  0  0
  2 25  1  0  0  0  0
  2 18  1  0  0  0  0
  3  1  1  0  0  0  0
  4 31  1  0  0  0  0
  4  3  2  0  0  0  0
  5  4  1  0  0  0  0
  6  5  2  0  0  0  0
  6  7  1  0  0  0  0
  7  8  2  0  0  0  0
  8 35  1  0  0  0  0
  8  3  1  0  0  0  0
  9 10  1  0  0  0  0
 10 11  2  0  0  0  0
 10 36  1  0  0  0  0
 11 37  1  0  0  0  0
 12 38  1  0  0  0  0
 12 11  1  0  0  0  0
 13 12  2  0  0  0  0
 14 13  1  0  0  0  0
 14  9  2  0  0  0  0
 15 41  1  0  0  0  0
 15 16  2  0  0  0  0
 16 17  1  0  0  0  0
 17 44  1  0  0  0  0
 17 43  1  0  0  0  0
 18 16  1  0  0  0  0
 18 46  1  0  0  0  0
 19  2  1  0  0  0  0
 19 20  1  0  0  0  0
 20 47  1  0  0  0  0
 21 20  2  0  0  0  0
 21 48  1  0  0  0  0
 22 21  1  0  0  0  0
 23 24  1  0  0  0  0
 23 22  2  0  0  0  0
 24 19  2  0  0  0  0
 25 26  1  0  0  0  0
 26 52  1  0  0  0  0
 26 27  2  0  0  0  0
 27 53  1  0  0  0  0
 28 54  1  0  0  0  0
 28 27  1  0  0  0  0
 29 28  2  0  0  0  0
 30 25  2  0  0  0  0
 30 29  1  0  0  0  0
 32  5  1  0  0  0  0
 33  6  1  0  0  0  0
 34  7  1  0  0  0  0
 39 13  1  0  0  0  0
 40 14  1  0  0  0  0
 42 17  1  0  0  0  0
 45 18  1  0  0  0  0
 49 22  1  0  0  0  0
 50 23  1  0  0  0  0
 51 24  1  0  0  0  0
 55 29  1  0  0  0  0
 56 30  1  0  0  0  0
M  END
