1,2
q = 0.0, confidence = 0.984

 60 64  0  0  0  0  0  0  0  0999 V2000
   -0.8173   -1.9813    0.2484 P   0  0  0  0  0  0  0  0  0  0  0  0
    1.8585   -0.3865   -0.0367 P   0  0  0  0  0  0  0  0  0  0  0  0
    0.7602   -2.9090    0.1544 C   0  0  0  0  0  0  0  0  0  0  0  0
    0.7360   -4.0121    0.2060 H   0  0  0  0  0  0  0  0  0  0  0  0
    1.9454   -2.2503    0.0865 C   0  0  0  0  0  0  0  0  0  0  0  0
    3.2485   -2.9480   -0.0376 C   0  0  0  0  0  0  0  0  0  0  0  0
    3.4371   -3.8647   -1.0969 C   0  0  0  0  0  0  0  0  0  0  0  0
    2.6139   -4.0374   -1.8066 H   0  0  0  0  0  0  0  0  0  0  0  0
    4.6640   -4.5205   -1.2654 C   0  0  0  0  0  0  0  0  0  0  0  0
    4.7962   -5.2221   -2.1029 H   0  0  0  0  0  0  0  0  0  0  0  0
    5.7216   -4.2768   -0.3753 C   0  0  0  0  0  0  0  0  0  0  0  0
    6.6856   -4.7907   -0.5077 H   0  0  0  0  0  0  0  0  0  0  0  0
    5.5431   -3.3727    0.6841 C   0  0  0  0  0  0  0  0  0  0  0  0
    6.3645   -3.1822    1.3913 H   0  0  0  0  0  0  0  0  0  0  0  0
    4.3210   -2.7067    0.8512 C   0  0  0  0  0  0  0  0  0  0  0  0
    4.1910   -2.0014    1.6834 H   0  0  0  0  0  0  0  0  0  0  0  0
   -1.9478   -2.7911   -0.9310 C   0  0  0  0  0  0  0  0  0  0  0  0
   -1.4535   -3.3138   -2.1423 C   0  0  0  0  0  0  0  0  0  0  0  0
   -0.3672   -3.3599   -2.3190 H   0  0  0  0  0  0  0  0  0  0  0  0
   -2.3457   -3.7471   -3.1327 C   0  0  0  0  0  0  0  0  0  0  0  0
   -1.9569   -4.1566   -4.0773 H   0  0  0  0  0  0  0  0  0  0  0  0
   -3.7308   -3.6402   -2.9283 C   0  0  0  0  0  0  0  0  0  0  0  0
   -4.4293   -3.9621   -3.7152 H   0  0  0  0  0  0  0  0  0  0  0  0
   -4.2253   -3.1138   -1.7244 C   0  0  0  0  0  0  0  0  0  0  0  0
   -5.3099   -3.0160   -1.5679 H   0  0  0  0  0  0  0  0  0  0  0  0
   -3.3397   -2.6980   -0.7207 C   0  0  0  0  0  0  0  0  0  0  0  0
   -3.7282   -2.2746    0.2178 H   0  0  0  0  0  0  0  0  0  0  0  0
   -1.4525   -2.3959    1.9181 C   0  0  0  0  0  0  0  0  0  0  0  0
   -1.4357   -1.3943    2.9097 C   0  0  0  0  0  0  0  0  0  0  0  0
   -1.1046   -0.3766    2.6481 H   0  0  0  0  0  0  0  0  0  0  0  0
   -1.8708   -1.6958    4.2096 C   0  0  0  0  0  0  0  0  0  0  0  0
   -1.8694   -0.9081    4.9779 H   0  0  0  0  0  0  0  0  0  0  0  0
   -2.3174   -2.9892    4.5219 C   0  0  0  0  0  0  0  0  0  0  0  0
   -2.6614   -3.2215    5.5413 H   0  0  0  0  0  0  0  0  0  0  0  0
   -2.3362   -3.9873    3.5323 C   0  0  0  0  0  0  0  0  0  0  0  0
   -2.6932   -4.9996    3.7758 H   0  0  0  0  0  0  0  0  0  0  0  0
   -1.9061   -3.6944    2.2308 C   0  0  0  0  0  0  0  0  0  0  0  0
   -1.9350   -4.4719    1.4514 H   0  0  0  0  0  0  0  0  0  0  0  0
    2.7784    0.2814    1.3919 C   0  0  0  0  0  0  0  0  0  0  0  0
    2.5174   -0.2479    2.6735 C   0  0  0  0  0  0  0  0  0  0  0  0
    1.8950   -1.1509    2.7801 H   0  0  0  0  0  0  0  0  0  0  0  0
    3.0239    0.3932    3.8106 C   0  0  0  0  0  0  0  0  0  0  0  0
    2.8202   -0.0237    4.8084 H   0  0  0  0  0  0  0  0  0  0  0  0
    3.7673    1.5785    3.6790 C   0  0  0  0  0  0  0  0  0  0  0  0
    4.1458    2.0927    4.5752 H   0  0  0  0  0  0  0  0  0  0  0  0
    4.0138    2.1145    2.4064 C   0  0  0  0  0  0  0  0  0  0  0  0
    4.5794    3.0524    2.3017 H   0  0  0  0  0  0  0  0  0  0  0  0
    3.5299    1.4656    1.2603 C   0  0  0  0  0  0  0  0  0  0  0  0
    3.7098    1.8973    0.2647 H   0  0  0  0  0  0  0  0  0  0  0  0
    2.8398   -0.0173   -1.5364 C   0  0  0  0  0  0  0  0  0  0  0  0
    4.2415   -0.1787   -1.5809 C   0  0  0  0  0  0  0  0  0  0  0  0
    4.7921   -0.5001   -0.6852 H   0  0  0  0  0  0  0  0  0  0  0  0
    4.9337    0.0738   -2.7731 C   0  0  0  0  0  0  0  0  0  0  0  0
    6.0264   -0.0528   -2.8051 H   0  0  0  0  0  0  0  0  0  0  0  0
    4.2369    0.4885   -3.9209 C   0  0  0  0  0  0  0  0  0  0  0  0
    4.7859    0.6905   -4.8533 H   0  0  0  0  0  0  0  0  0  0  0  0
    2.8439    0.6526   -3.8767 C   0  0  0  0  0  0  0  0  0  0  0  0
    2.2947    0.9901   -4.7683 H   0  0  0  0  0  0  0  0  0  0  0  0
    2.1422    0.3988   -2.6886 C   0  0  0  0  0  0  0  0  0  0  0  0
    1.0521    0.5443   -2.6425 H   0  0  0  0  0  0  0  0  0  0  0  0
  1 28  1  0  0  0  0
  2  5  1  0  0  0  0
  2 39  1  0  0  0  0
  3  4  1  0  0  0  0
  3  1  1  0  0  0  0
  5  3  2  0  0  0  0
  6  5  1  0  0  0  0
  6 15  1  0  0  0  0
  7  6  2  0  0  0  0
  8  7  1  0  0  0  0
  9  7  1  0  0  0  0
  9 11  2  0  0  0  0
 10  9  1  0  0  0  0
 11 13  1  0  0  0  0
 12 11  1  0  0  0  0
 13 15  2  0  0  0  0
 13 14  1  0  0  0  0
 15 16  1  0  0  0  0
 17 26  1  0  0  0  0
 17  1  1  0  0  0  0
 18 17  2  0  0  0  0
 19 18  1  0  0  0  0
 20 22  2  0  0  0  0
 20 18  1  0  0  0  0
 21 20  1  0  0  0  0
 22 24  1  0  0  0  0
 23 22  1  0  0  0  0
 24 25  1  0  0  0  0
 24 26  2  0  0  0  0
 26 27  1  0  0  0  0
 28 37  2  0  0  0  0
 28 29  1  0  0  0  0
 29 31  2  0  0  0  0
 30 29  1  0  0  0  0
 31 33  1  0  0  0  0
 31 32  1  0  0  0  0
 33 34  1  0  0  0  0
 35 36  1  0  0  0  0
 35 33  2  0  0  0  0
 37 35  1  0  0  0  0
 38 37  1  0  0  0  0
 39 40  1  0  0  0  0
 40 41  1  0  0  0  0
 40 42  2  0  0  0  0
 42 43  1  0  0  0  0
 44 42  1  0  0  0  0
 44 45  1  0  0  0  0
 46 44  2  0  0  0  0
 47 46  1  0  0  0  0
 48 39  2  0  0  0  0
 48 46  1  0  0  0  0
 49 48  1  0  0  0  0
 50  2  1  0  0  0  0
 51 50  1  0  0  0  0
 51 52  1  0  0  0  0
 53 51  2  0  0  0  0
 54 53  1  0  0  0  0
 55 57  2  0  0  0  0
 55 53  1  0  0  0  0
 56 55  1  0  0  0  0
 57 59  1  0  0  0  0
 58 57  1  0  0  0  0
 59 60  1  0  0  0  0
 59 50  2  0  0  0  0
M  END
