1,36
q = 0.0, confidence = 0.996

 70 71  0  0  0  0  0  0  0  0999 V2000
   -0.5502    1.6293   -0.5649 P   0  0  0  0  0  0  0  0  0  0  0  0
    0.9265    1.4044    0.2067 O   0  0  0  0  0  0  0  0  0  0  0  0
   -0.8799    3.4809    1.4617 C   0  0  0  0  0  0  0  0  0  0  0  0
   -1.3995    2.6384    1.9611 H   0  0  0  0  0  0  0  0  0  0  0  0
   -1.3241    4.4285    1.8301 H   0  0  0  0  0  0  0  0  0  0  0  0
    0.1818    3.4498    1.7799 H   0  0  0  0  0  0  0  0  0  0  0  0
    2.1763    2.0070   -0.1451 C   0  0  0  0  0  0  0  0  0  0  0  0
    2.1111    3.1162   -0.1089 H   0  0  0  0  0  0  0  0  0  0  0  0
    2.4782    1.7112   -1.1719 H   0  0  0  0  0  0  0  0  0  0  0  0
    3.1812    1.5237    0.8728 C   0  0  0  0  0  0  0  0  0  0  0  0
   -0.3002    4.5421   -0.7793 C   0  0  0  0  0  0  0  0  0  0  0  0
   -0.4116    4.4991   -1.8803 H   0  0  0  0  0  0  0  0  0  0  0  0
    0.7836    4.5783   -0.5500 H   0  0  0  0  0  0  0  0  0  0  0  0
   -0.7326    5.5089   -0.4445 H   0  0  0  0  0  0  0  0  0  0  0  0
   -1.0072    3.3845   -0.0650 C   0  0  0  0  0  0  0  0  0  0  0  0
   -2.0879    3.4269   -0.3205 H   0  0  0  0  0  0  0  0  0  0  0  0
    3.9572    0.3582    0.6568 C   0  0  0  0  0  0  0  0  0  0  0  0
   -0.1291    1.7242   -2.3855 C   0  0  0  0  0  0  0  0  0  0  0  0
    0.6218    2.5369   -2.5041 H   0  0  0  0  0  0  0  0  0  0  0  0
    3.2538    2.1752    2.1197 C   0  0  0  0  0  0  0  0  0  0  0  0
    2.6407    3.0757    2.2830 H   0  0  0  0  0  0  0  0  0  0  0  0
    4.0724    1.6921    3.1478 C   0  0  0  0  0  0  0  0  0  0  0  0
    4.1127    2.2160    4.1146 H   0  0  0  0  0  0  0  0  0  0  0  0
    4.7801   -0.1211    1.6983 C   0  0  0  0  0  0  0  0  0  0  0  0
    5.3859   -1.0231    1.5220 H   0  0  0  0  0  0  0  0  0  0  0  0
    0.4783    0.3980   -2.8574 C   0  0  0  0  0  0  0  0  0  0  0  0
    1.3718    0.1050   -2.2767 H   0  0  0  0  0  0  0  0  0  0  0  0
    0.7605    0.4685   -3.9286 H   0  0  0  0  0  0  0  0  0  0  0  0
   -0.2571   -0.4239   -2.7430 H   0  0  0  0  0  0  0  0  0  0  0  0
    4.8359    0.5334    2.9364 C   0  0  0  0  0  0  0  0  0  0  0  0
    5.4834    0.1414    3.7354 H   0  0  0  0  0  0  0  0  0  0  0  0
   -1.3860    2.0767   -3.1926 C   0  0  0  0  0  0  0  0  0  0  0  0
   -1.8290    3.0502   -2.9027 H   0  0  0  0  0  0  0  0  0  0  0  0
   -2.1643    1.2988   -3.0544 H   0  0  0  0  0  0  0  0  0  0  0  0
   -1.1397    2.1274   -4.2737 H   0  0  0  0  0  0  0  0  0  0  0  0
   -0.5511   -1.6295    0.5648 P   0  0  0  0  0  0  0  0  0  0  0  0
    0.9255   -1.4057   -0.2072 O   0  0  0  0  0  0  0  0  0  0  0  0
   -0.8826   -3.4808   -1.4617 C   0  0  0  0  0  0  0  0  0  0  0  0
   -1.4022   -2.6382   -1.9609 H   0  0  0  0  0  0  0  0  0  0  0  0
   -1.3273   -4.4283   -1.8299 H   0  0  0  0  0  0  0  0  0  0  0  0
    0.1790   -3.4501   -1.7804 H   0  0  0  0  0  0  0  0  0  0  0  0
    2.1756   -2.0072    0.1455 C   0  0  0  0  0  0  0  0  0  0  0  0
    2.1110   -3.1166    0.1103 H   0  0  0  0  0  0  0  0  0  0  0  0
    2.4771   -1.7103    1.1721 H   0  0  0  0  0  0  0  0  0  0  0  0
    3.1805   -1.5243   -0.8726 C   0  0  0  0  0  0  0  0  0  0  0  0
   -0.3020   -4.5422    0.7789 C   0  0  0  0  0  0  0  0  0  0  0  0
   -0.4128   -4.4993    1.8799 H   0  0  0  0  0  0  0  0  0  0  0  0
    0.7817   -4.5785    0.5489 H   0  0  0  0  0  0  0  0  0  0  0  0
   -0.7347   -5.5089    0.4443 H   0  0  0  0  0  0  0  0  0  0  0  0
   -1.0092   -3.3844    0.0650 C   0  0  0  0  0  0  0  0  0  0  0  0
   -2.0897   -3.4265    0.3211 H   0  0  0  0  0  0  0  0  0  0  0  0
    3.9569   -0.3591   -0.6568 C   0  0  0  0  0  0  0  0  0  0  0  0
   -0.1299   -1.7244    2.3853 C   0  0  0  0  0  0  0  0  0  0  0  0
    0.6210   -2.5371    2.5039 H   0  0  0  0  0  0  0  0  0  0  0  0
    3.2526   -2.1759   -2.1195 C   0  0  0  0  0  0  0  0  0  0  0  0
    2.6392   -3.0762   -2.2826 H   0  0  0  0  0  0  0  0  0  0  0  0
    4.0711   -1.6931   -3.1478 C   0  0  0  0  0  0  0  0  0  0  0  0
    4.1110   -2.2171   -4.1146 H   0  0  0  0  0  0  0  0  0  0  0  0
    4.7797    0.1199   -1.6986 C   0  0  0  0  0  0  0  0  0  0  0  0
    5.3859    1.0217   -1.5225 H   0  0  0  0  0  0  0  0  0  0  0  0
    0.4775   -0.3983    2.8573 C   0  0  0  0  0  0  0  0  0  0  0  0
    1.3710   -0.1051    2.2766 H   0  0  0  0  0  0  0  0  0  0  0  0
    0.7598   -0.4688    3.9285 H   0  0  0  0  0  0  0  0  0  0  0  0
   -0.2580    0.4236    2.7430 H   0  0  0  0  0  0  0  0  0  0  0  0
    4.8350   -0.5347   -2.9366 C   0  0  0  0  0  0  0  0  0  0  0  0
    5.4825   -0.1429   -3.7358 H   0  0  0  0  0  0  0  0  0  0  0  0
   -1.3867   -2.0769    3.1926 C   0  0  0  0  0  0  0  0  0  0  0  0
   -1.8299   -3.0503    2.9026 H   0  0  0  0  0  0  0  0  0  0  0  0
   -2.1650   -1.2990    3.0544 H   0  0  0  0  0  0  0  0  0  0  0  0
   -1.1403   -2.1277    4.2736 H   0  0  0  0  0  0  0  0  0  0  0  0
  1 15  1  0  0  0  0
  1  2  1  0  0  0  0
  3  6  1  0  0  0  0
  3  5  1  0  0  0  0
  3  4  1  0  0  0  0
  7  8  1  0  0  0  0
  7  2  1  0  0  0  0
  7 10  1  0  0  0  0
  9  7  1  0  0  0  0
 10 20  1  0  0  0  0
 11 13  1  0  0  0  0
 11 14  1  0  0  0  0
 11 15  1  0  0  0  0
 12 11  1  0  0  0  0
 15  3  1  0  0  0  0
 16 15  1  0  0  0  0
 17 10  2  0  0  0  0
 17 24  1  0  0  0  0
 18  1  1  0  0  0  0
 19 18  1  0  0  0  0
 20 21  1  0  0  0  0
 20 22  2  0  0  0  0
 22 23  1  0  0  0  0
 24 30  2  0  0  0  0
 25 24  1  0  0  0  0
 26 29  1  0  0  0  0
 26 18  1  0  0  0  0
 26 27  1  0  0  0  0
 28 26  1  0  0  0  0
 30 22  1  0  0  0  0
 30 31  1  0  0  0  0
 32 34  1  0  0  0  0
 32 33  1  0  0  0  0
 32 18  1  0  0  0  0
 35 32  1  0  0  0  0
 36 53  1  0  0  0  0
 37 42  1  0  0  0  0
 37 36  1  0  0  0  0
 38 50  1  0  0  0  0
 39 38  1  0  0  0  0
 40 38  1  0  0  0  0
 41 38  1  0  0  0  0
 42 44  1  0  0  0  0
 43 42  1  0  0  0  0
 45 52  1  0  0  0  0
 45 42  1  0  0  0  0
 46 47  1  0  0  0  0
 48 46  1  0  0  0  0
 49 46  1  0  0  0  0
 50 51  1  0  0  0  0
 50 36  1  0  0  0  0
 50 46  1  0  0  0  0
 52 17  1  0  0  0  0
 53 54  1  0  0  0  0
 53 61  1  0  0  0  0
 53 67  1  0  0  0  0
 55 45  2  0  0  0  0
 56 55  1  0  0  0  0
 57 65  2  0  0  0  0
 57 55  1  0  0  0  0
 58 57  1  0  0  0  0
 59 60  1  0  0  0  0
 59 52  2  0  0  0  0
 61 63  1  0  0  0  0
 62 61  1  0  0  0  0
 64 61  1  0  0  0  0
 65 59  1  0  0  0  0
 66 65  1  0  0  0  0
 67 70  1  0  0  0  0
 68 67  1  0  0  0  0
 69 67  1  0  0  0  0
M  END
