13,21
q = 0.0, confidence = 0.994

 28 28  0  0  0  0  0  0  0  0999 V2000
   -2.8494    0.0000   -0.3506 Si  0  0  0  0  0  0  0  0  0  0  0  0
   -3.5480    0.0002   -2.0986 C   0  0  0  0  0  0  0  0  0  0  0  0
   -4.1768   -0.8969   -2.2727 H   0  0  0  0  0  0  0  0  0  0  0  0
   -2.7245    0.0004   -2.8400 H   0  0  0  0  0  0  0  0  0  0  0  0
   -4.1769    0.8974   -2.2725 H   0  0  0  0  0  0  0  0  0  0  0  0
   -4.2511   -0.0001    0.9220 C   0  0  0  0  0  0  0  0  0  0  0  0
   -4.8941    0.8958    0.8000 H   0  0  0  0  0  0  0  0  0  0  0  0
   -3.8659   -0.0003    1.9623 H   0  0  0  0  0  0  0  0  0  0  0  0
   -4.8942   -0.8960    0.7997 H   0  0  0  0  0  0  0  0  0  0  0  0
   -1.8174   -1.5992   -0.0628 C   0  0  0  0  0  0  0  0  0  0  0  0
   -2.4423   -2.3043    0.5274 H   0  0  0  0  0  0  0  0  0  0  0  0
   -1.5995   -2.0775   -1.0401 H   0  0  0  0  0  0  0  0  0  0  0  0
   -0.1970   -1.3172    0.7752 P   0  0  2  0  0  0  0  0  0  0  0  0
    0.1681   -2.8816    1.6749 C   0  0  0  0  0  0  0  0  0  0  0  0
   -0.6798   -3.2008    2.3132 H   0  0  0  0  0  0  0  0  0  0  0  0
    1.0731   -2.7282    2.2947 H   0  0  0  0  0  0  0  0  0  0  0  0
    0.3889   -3.6707    0.9288 H   0  0  0  0  0  0  0  0  0  0  0  0
   -0.6155   -0.0003    2.0402 C   0  0  0  0  0  0  0  0  0  0  0  0
   -1.6146   -0.0003    2.5254 H   0  0  0  0  0  0  0  0  0  0  0  0
    0.1806   -0.0004    2.8118 H   0  0  0  0  0  0  0  0  0  0  0  0
   -0.1970    1.3170    0.7756 P   0  0  2  0  0  0  0  0  0  0  0  0
    0.1681    2.8812    1.6757 C   0  0  0  0  0  0  0  0  0  0  0  0
    0.3888    3.6705    0.9297 H   0  0  0  0  0  0  0  0  0  0  0  0
    1.0731    2.7276    2.2954 H   0  0  0  0  0  0  0  0  0  0  0  0
   -0.6799    3.2002    2.3141 H   0  0  0  0  0  0  0  0  0  0  0  0
   -1.8174    1.5992   -0.0624 C   0  0  0  0  0  0  0  0  0  0  0  0
   -1.5995    2.0778   -1.0396 H   0  0  0  0  0  0  0  0  0  0  0  0
   -2.4423    2.3042    0.5279 H   0  0  0  0  0  0  0  0  0  0  0  0
  1 10  1  0  0  0  0
  1 26  1  0  0  0  0
  1  6  1  0  0  0  0
  2  1  1  0  0  0  0
  3  2  1  0  0  0  0
  4  2  1  0  0  0  0
  5  2  1  0  0  0  0
  6  8  1  0  0  0  0
  7  6  1  0  0  0  0
  9  6  1  0  0  0  0
 10 11  1  0  0  0  0
 10 13  1  0  0  0  0
 12 10  1  0  0  0  0
 13 14  1  1  0  0  0
 13 18  1  0  0  0  0
 14 16  1  0  0  0  0
 14 15  1  0  0  0  0
 17 14  1  0  0  0  0
 18 19  1  0  0  0  0
 18 20  1  0  0  0  0
 21 22  1  1  0  0  0
 21 18  1  0  0  0  0
 22 24  1  0  0  0  0
 22 25  1  0  0  0  0
 23 22  1  0  0  0  0
 26 28  1  0  0  0  0
 26 21  1  0  0  0  0
 27 26  1  0  0  0  0
M  END
