1,33
q = 0.0, confidence = 0.994

 64 67  0  0  0  0  0  0  0  0999 V2000
   -1.4999   -0.0829    1.2243 P   0  0  0  0  0  0  0  0  0  0  0  0
   -2.4603   -1.4357    1.3250 O   0  0  0  0  0  0  0  0  0  0  0  0
   -5.1524   -0.5748    1.3395 O   0  0  0  0  0  0  0  0  0  0  0  0
   -3.8116   -3.1025   -1.6021 O   0  0  0  0  0  0  0  0  0  0  0  0
   -2.7302    1.0476    1.2241 O   0  0  0  0  0  0  0  0  0  0  0  0
   -0.5315    2.6090    1.7699 O   0  0  0  0  0  0  0  0  0  0  0  0
   -3.4986    4.0225   -0.6589 O   0  0  0  0  0  0  0  0  0  0  0  0
   -0.7423   -0.1922    2.9016 C   0  0  0  0  0  0  0  0  0  0  0  0
   -3.3572   -1.8140    0.3436 C   0  0  0  0  0  0  0  0  0  0  0  0
   -4.7443   -1.3204    0.4406 C   0  0  0  0  0  0  0  0  0  0  0  0
   -5.5774   -1.8009   -0.6693 C   0  0  0  0  0  0  0  0  0  0  0  0
   -5.0826   -2.6405   -1.6148 C   0  0  0  0  0  0  0  0  0  0  0  0
   -2.9454   -2.6895   -0.6333 C   0  0  0  0  0  0  0  0  0  0  0  0
   -1.5856   -3.2708   -0.7693 C   0  0  0  0  0  0  0  0  0  0  0  0
   -2.6015    2.2947    0.6849 C   0  0  0  0  0  0  0  0  0  0  0  0
   -1.4471    3.0943    1.0699 C   0  0  0  0  0  0  0  0  0  0  0  0
   -1.4723    4.4458    0.5300 C   0  0  0  0  0  0  0  0  0  0  0  0
   -2.4818    4.8334   -0.2992 C   0  0  0  0  0  0  0  0  0  0  0  0
   -3.5701    2.7471   -0.1812 C   0  0  0  0  0  0  0  0  0  0  0  0
   -4.7119    1.9471   -0.6906 C   0  0  0  0  0  0  0  0  0  0  0  0
   -1.3367    0.4635    3.5655 H   0  0  0  0  0  0  0  0  0  0  0  0
   -0.8868   -1.2496    3.1904 H   0  0  0  0  0  0  0  0  0  0  0  0
   -6.6238   -1.4681   -0.7164 H   0  0  0  0  0  0  0  0  0  0  0  0
   -5.6451   -3.0410   -2.4703 H   0  0  0  0  0  0  0  0  0  0  0  0
   -1.0375   -3.1647    0.1836 H   0  0  0  0  0  0  0  0  0  0  0  0
   -1.0205   -2.7278   -1.5565 H   0  0  0  0  0  0  0  0  0  0  0  0
   -1.6561   -4.3369   -1.0618 H   0  0  0  0  0  0  0  0  0  0  0  0
   -0.6674    5.1475    0.7873 H   0  0  0  0  0  0  0  0  0  0  0  0
   -2.5772    5.8261   -0.7612 H   0  0  0  0  0  0  0  0  0  0  0  0
   -4.3162    1.1752   -1.3873 H   0  0  0  0  0  0  0  0  0  0  0  0
   -5.4290    2.5953   -1.2255 H   0  0  0  0  0  0  0  0  0  0  0  0
   -5.2107    1.4043    0.1375 H   0  0  0  0  0  0  0  0  0  0  0  0
    1.4999    0.0829    1.2243 P   0  0  0  0  0  0  0  0  0  0  0  0
    2.4602    1.4358    1.3250 O   0  0  0  0  0  0  0  0  0  0  0  0
    5.1522    0.5749    1.3396 O   0  0  0  0  0  0  0  0  0  0  0  0
    3.8115    3.1024   -1.6022 O   0  0  0  0  0  0  0  0  0  0  0  0
    2.7302   -1.0475    1.2241 O   0  0  0  0  0  0  0  0  0  0  0  0
    0.5315   -2.6089    1.7697 O   0  0  0  0  0  0  0  0  0  0  0  0
    3.4989   -4.0224   -0.6587 O   0  0  0  0  0  0  0  0  0  0  0  0
    0.7422    0.1922    2.9016 C   0  0  0  0  0  0  0  0  0  0  0  0
    3.3571    1.8140    0.3435 C   0  0  0  0  0  0  0  0  0  0  0  0
    4.7441    1.3203    0.4405 C   0  0  0  0  0  0  0  0  0  0  0  0
    5.5773    1.8008   -0.6693 C   0  0  0  0  0  0  0  0  0  0  0  0
    5.0825    2.6404   -1.6148 C   0  0  0  0  0  0  0  0  0  0  0  0
    2.9453    2.6895   -0.6333 C   0  0  0  0  0  0  0  0  0  0  0  0
    1.5855    3.2709   -0.7693 C   0  0  0  0  0  0  0  0  0  0  0  0
    2.6016   -2.2945    0.6849 C   0  0  0  0  0  0  0  0  0  0  0  0
    1.4472   -3.0942    1.0698 C   0  0  0  0  0  0  0  0  0  0  0  0
    1.4725   -4.4457    0.5300 C   0  0  0  0  0  0  0  0  0  0  0  0
    2.4821   -4.8333   -0.2992 C   0  0  0  0  0  0  0  0  0  0  0  0
    3.5703   -2.7469   -0.1810 C   0  0  0  0  0  0  0  0  0  0  0  0
    4.7120   -1.9469   -0.6905 C   0  0  0  0  0  0  0  0  0  0  0  0
    1.3365   -0.4634    3.5656 H   0  0  0  0  0  0  0  0  0  0  0  0
    0.8867    1.2496    3.1904 H   0  0  0  0  0  0  0  0  0  0  0  0
    6.6236    1.4680   -0.7165 H   0  0  0  0  0  0  0  0  0  0  0  0
    5.6450    3.0409   -2.4704 H   0  0  0  0  0  0  0  0  0  0  0  0
    1.0375    3.1648    0.1836 H   0  0  0  0  0  0  0  0  0  0  0  0
    1.0204    2.7280   -1.5565 H   0  0  0  0  0  0  0  0  0  0  0  0
    1.6561    4.3370   -1.0618 H   0  0  0  0  0  0  0  0  0  0  0  0
    0.6676   -5.1474    0.7872 H   0  0  0  0  0  0  0  0  0  0  0  0
    2.5776   -5.8260   -0.7611 H   0  0  0  0  0  0  0  0  0  0  0  0
    4.3164   -1.1751   -1.3873 H   0  0  0  0  0  0  0  0  0  0  0  0
    5.4293   -2.5951   -1.2251 H   0  0  0  0  0  0  0  0  0  0  0  0
    5.2108   -1.4040    0.1377 H   0  0  0  0  0  0  0  0  0  0  0  0
  1  2  1  0  0  0  0
  1  8  1  0  0  0  0
  4 13  1  0  0  0  0
  5  1  1  0  0  0  0
  7 18  1  0  0  0  0
  7 19  1  0  0  0  0
  8 40  1  0  0  0  0
  8 22  1  0  0  0  0
  8 21  1  0  0  0  0
  9 10  1  0  0  0  0
  9  2  1  0  0  0  0
 10  3  2  0  0  0  0
 11 10  1  0  0  0  0
 12  4  1  0  0  0  0
 12 11  2  0  0  0  0
 13  9  2  0  0  0  0
 14 13  1  0  0  0  0
 14 25  1  0  0  0  0
 15 16  1  0  0  0  0
 15  5  1  0  0  0  0
 16  6  2  0  0  0  0
 17 28  1  0  0  0  0
 17 16  1  0  0  0  0
 18 17  2  0  0  0  0
 19 15  2  0  0  0  0
 20 19  1  0  0  0  0
 20 32  1  0  0  0  0
 23 11  1  0  0  0  0
 24 12  1  0  0  0  0
 26 14  1  0  0  0  0
 27 14  1  0  0  0  0
 29 18  1  0  0  0  0
 30 20  1  0  0  0  0
 31 20  1  0  0  0  0
 33 34  1  0  0  0  0
 33 40  1  0  0  0  0
 36 45  1  0  0  0  0
 37 33  1  0  0  0  0
 39 50  1  0  0  0  0
 39 51  1  0  0  0  0
 40 54  1  0  0  0  0
 40 53  1  0  0  0  0
 41 42  1  0  0  0  0
 41 34  1  0  0  0  0
 42 35  2  0  0  0  0
 43 42  1  0  0  0  0
 44 36  1  0  0  0  0
 44 43  2  0  0  0  0
 45 41  2  0  0  0  0
 46 45  1  0  0  0  0
 46 57  1  0  0  0  0
 47 48  1  0  0  0  0
 47 37  1  0  0  0  0
 48 38  2  0  0  0  0
 49 60  1  0  0  0  0
 49 48  1  0  0  0  0
 50 49  2  0  0  0  0
 51 47  2  0  0  0  0
 52 51  1  0  0  0  0
 52 64  1  0  0  0  0
 55 43  1  0  0  0  0
 56 44  1  0  0  0  0
 58 46  1  0  0  0  0
 59 46  1  0  0  0  0
 61 50  1  0  0  0  0
 62 52  1  0  0  0  0
 63 52  1  0  0  0  0
M  END
