1
q = 0.0, confidence = 0.986

 69 74  0  0  1  0  0  0  0  0999 V2000
   -0.7161   -0.7275   -1.1236 P   0  0  2  0  0  0  0  0  0  0  0  0
    0.7160   -0.7276    1.1238 P   0  0  2  0  0  0  0  0  0  0  0  0
   -2.4573   -1.3462   -1.6123 C   0  0  2  0  0  0  0  0  0  0  0  0
   -2.5201   -2.3513   -1.1437 H   0  0  0  0  0  0  0  0  0  0  0  0
   -2.3874   -1.5335   -3.1479 C   0  0  0  0  0  0  0  0  0  0  0  0
   -2.5802   -0.5548   -3.6375 H   0  0  0  0  0  0  0  0  0  0  0  0
   -3.1857   -2.2243   -3.4887 H   0  0  0  0  0  0  0  0  0  0  0  0
   -0.9829   -2.0270   -3.5081 C   0  0  0  0  0  0  0  0  0  0  0  0
   -0.8342   -3.0500   -3.0987 H   0  0  0  0  0  0  0  0  0  0  0  0
   -0.8280   -2.0908   -4.6056 H   0  0  0  0  0  0  0  0  0  0  0  0
   -0.0043   -1.0460   -2.8566 C   0  0  2  0  0  0  0  0  0  0  0  0
   -0.1284   -0.0498   -3.3363 H   0  0  0  0  0  0  0  0  0  0  0  0
    0.0001   -2.0397   -0.0000 C   0  0  0  0  0  0  0  0  0  0  0  0
   -0.7650   -2.6738    0.4946 H   0  0  0  0  0  0  0  0  0  0  0  0
    0.7653   -2.6735   -0.4948 H   0  0  0  0  0  0  0  0  0  0  0  0
    2.4571   -1.3464    1.6129 C   0  0  2  0  0  0  0  0  0  0  0  0
    2.5198   -2.3517    1.1446 H   0  0  0  0  0  0  0  0  0  0  0  0
    2.3870   -1.5332    3.1485 C   0  0  0  0  0  0  0  0  0  0  0  0
    2.5796   -0.5543    3.6379 H   0  0  0  0  0  0  0  0  0  0  0  0
    3.1853   -2.2238    3.4897 H   0  0  0  0  0  0  0  0  0  0  0  0
    0.9825   -2.0267    3.5086 C   0  0  0  0  0  0  0  0  0  0  0  0
    0.8339   -3.0498    3.0995 H   0  0  0  0  0  0  0  0  0  0  0  0
    0.8274   -2.0902    4.6062 H   0  0  0  0  0  0  0  0  0  0  0  0
    0.0039   -1.0460    2.8568 C   0  0  2  0  0  0  0  0  0  0  0  0
    0.1277   -0.0497    3.3362 H   0  0  0  0  0  0  0  0  0  0  0  0
   -3.6441   -0.5311   -1.1609 C   0  0  0  0  0  0  0  0  0  0  0  0
   -3.6210    0.8786   -1.1625 C   0  0  0  0  0  0  0  0  0  0  0  0
   -2.6966    1.4159   -1.4281 H   0  0  0  0  0  0  0  0  0  0  0  0
   -4.7626    1.6063   -0.7927 C   0  0  0  0  0  0  0  0  0  0  0  0
   -4.7224    2.7069   -0.7843 H   0  0  0  0  0  0  0  0  0  0  0  0
   -5.9470    0.9431   -0.4317 C   0  0  0  0  0  0  0  0  0  0  0  0
   -6.8404    1.5182   -0.1439 H   0  0  0  0  0  0  0  0  0  0  0  0
   -5.9815   -0.4604   -0.4385 C   0  0  0  0  0  0  0  0  0  0  0  0
   -6.9022   -0.9930   -0.1542 H   0  0  0  0  0  0  0  0  0  0  0  0
   -4.8363   -1.1880   -0.7943 C   0  0  0  0  0  0  0  0  0  0  0  0
   -4.8611   -2.2894   -0.7780 H   0  0  0  0  0  0  0  0  0  0  0  0
    1.4627   -1.3776   -2.8058 C   0  0  0  0  0  0  0  0  0  0  0  0
    2.3791   -0.3671   -2.4333 C   0  0  0  0  0  0  0  0  0  0  0  0
    1.9960    0.6394   -2.1987 H   0  0  0  0  0  0  0  0  0  0  0  0
    3.7462   -0.6431   -2.3206 C   0  0  0  0  0  0  0  0  0  0  0  0
    4.4383    0.1523   -2.0069 H   0  0  0  0  0  0  0  0  0  0  0  0
    4.2293   -1.9368   -2.5803 C   0  0  0  0  0  0  0  0  0  0  0  0
    5.3042   -2.1532   -2.4852 H   0  0  0  0  0  0  0  0  0  0  0  0
    3.3325   -2.9486   -2.9515 C   0  0  0  0  0  0  0  0  0  0  0  0
    3.7009   -3.9646   -3.1625 H   0  0  0  0  0  0  0  0  0  0  0  0
    1.9582   -2.6722   -3.0604 C   0  0  0  0  0  0  0  0  0  0  0  0
    1.2699   -3.4769   -3.3592 H   0  0  0  0  0  0  0  0  0  0  0  0
    3.6440   -0.5316    1.1612 C   0  0  0  0  0  0  0  0  0  0  0  0
    3.6213    0.8781    1.1630 C   0  0  0  0  0  0  0  0  0  0  0  0
    2.6970    1.4156    1.4287 H   0  0  0  0  0  0  0  0  0  0  0  0
    4.7629    1.6056    0.7931 C   0  0  0  0  0  0  0  0  0  0  0  0
    4.7230    2.7062    0.7847 H   0  0  0  0  0  0  0  0  0  0  0  0
    5.9471    0.9421    0.4317 C   0  0  0  0  0  0  0  0  0  0  0  0
    6.8406    1.5170    0.1437 H   0  0  0  0  0  0  0  0  0  0  0  0
    5.9813   -0.4615    0.4383 C   0  0  0  0  0  0  0  0  0  0  0  0
    6.9018   -0.9942    0.1538 H   0  0  0  0  0  0  0  0  0  0  0  0
    4.8359   -1.1888    0.7943 C   0  0  0  0  0  0  0  0  0  0  0  0
    4.8605   -2.2902    0.7779 H   0  0  0  0  0  0  0  0  0  0  0  0
   -1.4630   -1.3777    2.8056 C   0  0  0  0  0  0  0  0  0  0  0  0
   -2.3795   -0.3672    2.4335 C   0  0  0  0  0  0  0  0  0  0  0  0
   -1.9966    0.6396    2.1995 H   0  0  0  0  0  0  0  0  0  0  0  0
   -3.7466   -0.6433    2.3204 C   0  0  0  0  0  0  0  0  0  0  0  0
   -4.4387    0.1523    2.0070 H   0  0  0  0  0  0  0  0  0  0  0  0
   -4.2296   -1.9372    2.5793 C   0  0  0  0  0  0  0  0  0  0  0  0
   -5.3044   -2.1536    2.4839 H   0  0  0  0  0  0  0  0  0  0  0  0
   -3.3327   -2.9491    2.9502 C   0  0  0  0  0  0  0  0  0  0  0  0
   -3.7010   -3.9652    3.1606 H   0  0  0  0  0  0  0  0  0  0  0  0
   -1.9584   -2.6726    3.0594 C   0  0  0  0  0  0  0  0  0  0  0  0
   -1.2701   -3.4773    3.3579 H   0  0  0  0  0  0  0  0  0  0  0  0
  1 13  1  1  0  0  0
  2 13  1  6  0  0  0
  2 16  1  0  0  0  0
  2 24  1  0  0  0  0
  3 26  1  0  0  0  0
  3  4  1  1  0  0  0
  3  1  1  0  0  0  0
  5  3  1  0  0  0  0
  6  5  1  0  0  0  0
  7  5  1  0  0  0  0
  8  5  1  0  0  0  0
  8  9  1  0  0  0  0
  8 11  1  0  0  0  0
 10  8  1  0  0  0  0
 11 12  1  6  0  0  0
 11 37  1  0  0  0  0
 11  1  1  0  0  0  0
 13 14  1  0  0  0  0
 15 13  1  0  0  0  0
 16 17  1  6  0  0  0
 16 18  1  0  0  0  0
 18 20  1  0  0  0  0
 18 21  1  0  0  0  0
 18 19  1  0  0  0  0
 21 23  1  0  0  0  0
 22 21  1  0  0  0  0
 24 25  1  1  0  0  0
 24 21  1  0  0  0  0
 26 35  1  0  0  0  0
 27 26  2  0  0  0  0
 27 29  1  0  0  0  0
 28 27  1  0  0  0  0
 29 30  1  0  0  0  0
 29 31  2  0  0  0  0
 31 32  1  0  0  0  0
 33 31  1  0  0  0  0
 33 34  1  0  0  0  0
 35 36  1  0  0  0  0
 35 33  2  0  0  0  0
 37 38  1  0  0  0  0
 38 40  2  0  0  0  0
 38 39  1  0  0  0  0
 40 41  1  0  0  0  0
 42 43  1  0  0  0  0
 42 40  1  0  0  0  0
 44 42  2  0  0  0  0
 45 44  1  0  0  0  0
 46 44  1  0  0  0  0
 46 37  2  0  0  0  0
 47 46  1  0  0  0  0
 48 49  1  0  0  0  0
 48 16  1  0  0  0  0
 49 50  1  0  0  0  0
 51 49  2  0  0  0  0
 52 51  1  0  0  0  0
 53 55  2  0  0  0  0
 53 51  1  0  0  0  0
 54 53  1  0  0  0  0
 55 57  1  0  0  0  0
 56 55  1  0  0  0  0
 57 48  2  0  0  0  0
 58 57  1  0  0  0  0
 59 24  1  0  0  0  0
 59 68  1  0  0  0  0
 60 59  2  0  0  0  0
 61 60  1  0  0  0  0
 62 60  1  0  0  0  0
 62 64  2  0  0  0  0
 63 62  1  0  0  0  0
 64 66  1  0  0  0  0
 65 64  1  0  0  0  0
 66 68  2  0  0  0  0
 66 67  1  0  0  0  0
 68 69  1  0  0  0  0
M  END
