1
q = 0.0, confidence = 0.996

 40 41  0  0  0  0  0  0  0  0999 V2000
   -1.2949   -0.7544    0.1665 P   0  0  2  0  0  4  0  0  0  0  0  0
    0.0000   -1.7790   -0.7176 C   0  0  0  0  0  0  0  0  0  0  0  0
   -0.0000   -1.5404   -1.7987 H   0  0  0  0  0  0  0  0  0  0  0  0
    0.0000   -2.8771   -0.5513 H   0  0  0  0  0  0  0  0  0  0  0  0
    1.2950   -0.7544    0.1665 P   0  0  2  0  0  4  0  0  0  0  0  0
   -1.3042   -1.7133    1.7713 C   0  0  0  0  0  0  0  0  0  0  0  0
   -2.1631   -1.3692    2.3824 H   0  0  0  0  0  0  0  0  0  0  0  0
   -1.4785   -2.7828    1.5269 H   0  0  0  0  0  0  0  0  0  0  0  0
    0.0000   -1.5279    2.5666 C   0  0  0  0  0  0  0  0  0  0  0  0
    0.0001   -0.5169    3.0126 H   0  0  0  0  0  0  0  0  0  0  0  0
    0.0000   -2.2378    3.4213 H   0  0  0  0  0  0  0  0  0  0  0  0
    1.3042   -1.7135    1.7713 C   0  0  0  0  0  0  0  0  0  0  0  0
    1.4783   -2.7830    1.5267 H   0  0  0  0  0  0  0  0  0  0  0  0
    2.1631   -1.3695    2.3823 H   0  0  0  0  0  0  0  0  0  0  0  0
   -3.0014   -1.0416   -0.6010 C   0  0  0  0  0  0  0  0  0  0  0  0
   -4.0230   -0.3075    0.2856 C   0  0  0  0  0  0  0  0  0  0  0  0
   -3.7787    0.7691    0.3821 H   0  0  0  0  0  0  0  0  0  0  0  0
   -4.0877   -0.7450    1.3023 H   0  0  0  0  0  0  0  0  0  0  0  0
   -5.0320   -0.3848   -0.1718 H   0  0  0  0  0  0  0  0  0  0  0  0
   -2.9819   -0.4101   -2.0018 C   0  0  0  0  0  0  0  0  0  0  0  0
   -2.2129   -0.8648   -2.6578 H   0  0  0  0  0  0  0  0  0  0  0  0
   -2.7898    0.6787   -1.9551 H   0  0  0  0  0  0  0  0  0  0  0  0
   -3.9689   -0.5625   -2.4872 H   0  0  0  0  0  0  0  0  0  0  0  0
   -3.3181   -2.5410   -0.6906 C   0  0  0  0  0  0  0  0  0  0  0  0
   -4.3040   -2.6843   -1.1822 H   0  0  0  0  0  0  0  0  0  0  0  0
   -3.3763   -3.0200    0.3070 H   0  0  0  0  0  0  0  0  0  0  0  0
   -2.5642   -3.0853   -1.2953 H   0  0  0  0  0  0  0  0  0  0  0  0
    3.0015   -1.0415   -0.6009 C   0  0  0  0  0  0  0  0  0  0  0  0
    3.3184   -2.5408   -0.6904 C   0  0  0  0  0  0  0  0  0  0  0  0
    4.3043   -2.6840   -1.1820 H   0  0  0  0  0  0  0  0  0  0  0  0
    2.5645   -3.0853   -1.2950 H   0  0  0  0  0  0  0  0  0  0  0  0
    3.3767   -3.0197    0.3073 H   0  0  0  0  0  0  0  0  0  0  0  0
    4.0230   -0.3072    0.2858 C   0  0  0  0  0  0  0  0  0  0  0  0
    5.0320   -0.3846   -0.1715 H   0  0  0  0  0  0  0  0  0  0  0  0
    4.0875   -0.7446    1.3025 H   0  0  0  0  0  0  0  0  0  0  0  0
    3.7787    0.7694    0.3821 H   0  0  0  0  0  0  0  0  0  0  0  0
    2.9821   -0.4100   -2.0017 C   0  0  0  0  0  0  0  0  0  0  0  0
    2.7898    0.6788   -1.9551 H   0  0  0  0  0  0  0  0  0  0  0  0
    2.2131   -0.8648   -2.6577 H   0  0  0  0  0  0  0  0  0  0  0  0
    3.9691   -0.5623   -2.4870 H   0  0  0  0  0  0  0  0  0  0  0  0
  1 15  1  6  0  0  0
  1  5  1  0  0  0  0
  1  6  1  0  0  0  0
  2  4  1  0  0  0  0
  2  1  1  0  0  0  0
  2  5  1  0  0  0  0
  3  2  1  0  0  0  0
  5 28  1  6  0  0  0
  5 12  1  0  0  0  0
  6  7  1  0  0  0  0
  6  9  1  0  0  0  0
  8  6  1  0  0  0  0
  9 10  1  0  0  0  0
  9 11  1  0  0  0  0
 12 14  1  0  0  0  0
 12  9  1  0  0  0  0
 13 12  1  0  0  0  0
 15 16  1  0  0  0  0
 16 17  1  0  0  0  0
 16 18  1  0  0  0  0
 19 16  1  0  0  0  0
 20 22  1  0  0  0  0
 20 15  1  0  0  0  0
 21 20  1  0  0  0  0
 23 20  1  0  0  0  0
 24 15  1  0  0  0  0
 24 26  1  0  0  0  0
 25 24  1  0  0  0  0
 27 24  1  0  0  0  0
 28 33  1  0  0  0  0
 29 28  1  0  0  0  0
 29 32  1  0  0  0  0
 30 29  1  0  0  0  0
 31 29  1  0  0  0  0
 33 36  1  0  0  0  0
 33 35  1  0  0  0  0
 34 33  1  0  0  0  0
 37 38  1  0  0  0  0
 37 28  1  0  0  0  0
 39 37  1  0  0  0  0
 40 37  1  0  0  0  0
M  END
