1,2
q = 0.0, confidence = 0.99

 63 68  0  0  0  0  0  0  0  0999 V2000
   -1.6424    0.1028   -0.1176 P   0  0  0  0  0  0  0  0  0  0  0  0
    1.7031   -0.2297    0.0420 P   0  0  0  0  0  0  0  0  0  0  0  0
   -0.9568   -1.3053    2.3104 N   0  0  0  0  0  0  0  0  0  0  0  0
   -2.1794    0.5490    2.5957 N   0  0  0  0  0  0  0  0  0  0  0  0
    1.2592   -2.2443    1.9941 N   0  0  0  0  0  0  0  0  0  0  0  0
    3.3640   -1.4852    1.9376 N   0  0  0  0  0  0  0  0  0  0  0  0
   -1.4855    1.9073   -0.3819 C   0  0  0  0  0  0  0  0  0  0  0  0
   -1.9358    2.8698    0.5423 C   0  0  0  0  0  0  0  0  0  0  0  0
   -2.3318    2.5357    1.5130 H   0  0  0  0  0  0  0  0  0  0  0  0
   -1.8546    4.2303    0.2108 C   0  0  0  0  0  0  0  0  0  0  0  0
   -2.1930    4.9849    0.9371 H   0  0  0  0  0  0  0  0  0  0  0  0
   -1.3492    4.6322   -1.0362 C   0  0  0  0  0  0  0  0  0  0  0  0
   -1.2960    5.7021   -1.2899 H   0  0  0  0  0  0  0  0  0  0  0  0
   -0.9092    3.6701   -1.9594 C   0  0  0  0  0  0  0  0  0  0  0  0
   -0.5099    3.9796   -2.9371 H   0  0  0  0  0  0  0  0  0  0  0  0
   -0.9696    2.3079   -1.6329 C   0  0  0  0  0  0  0  0  0  0  0  0
   -0.6129    1.5445   -2.3434 H   0  0  0  0  0  0  0  0  0  0  0  0
   -3.4092   -0.2554   -0.4575 C   0  0  0  0  0  0  0  0  0  0  0  0
   -4.2398    0.6866   -1.0892 C   0  0  0  0  0  0  0  0  0  0  0  0
   -3.8404    1.6674   -1.3844 H   0  0  0  0  0  0  0  0  0  0  0  0
   -5.5851    0.3720   -1.3396 C   0  0  0  0  0  0  0  0  0  0  0  0
   -6.2324    1.1124   -1.8333 H   0  0  0  0  0  0  0  0  0  0  0  0
   -6.1011   -0.8758   -0.9622 C   0  0  0  0  0  0  0  0  0  0  0  0
   -7.1561   -1.1189   -1.1597 H   0  0  0  0  0  0  0  0  0  0  0  0
   -5.2679   -1.8192   -0.3368 C   0  0  0  0  0  0  0  0  0  0  0  0
   -5.6653   -2.8041   -0.0495 H   0  0  0  0  0  0  0  0  0  0  0  0
   -3.9244   -1.5154   -0.0917 C   0  0  0  0  0  0  0  0  0  0  0  0
   -3.2693   -2.2653    0.3760 H   0  0  0  0  0  0  0  0  0  0  0  0
   -1.5650   -0.2101    1.6937 C   0  0  0  0  0  0  0  0  0  0  0  0
   -1.1961   -1.1783    3.6666 C   0  0  0  0  0  0  0  0  0  0  0  0
   -0.8165   -1.9130    4.3845 H   0  0  0  0  0  0  0  0  0  0  0  0
   -1.9497   -0.0253    3.8179 C   0  0  0  0  0  0  0  0  0  0  0  0
   -2.3440    0.4088    4.7450 H   0  0  0  0  0  0  0  0  0  0  0  0
    1.4851    1.3475    0.9753 C   0  0  0  0  0  0  0  0  0  0  0  0
    1.1210    1.3594    2.3356 C   0  0  0  0  0  0  0  0  0  0  0  0
    1.0049    0.4187    2.8924 H   0  0  0  0  0  0  0  0  0  0  0  0
    0.9205    2.5778    3.0010 C   0  0  0  0  0  0  0  0  0  0  0  0
    0.6325    2.5728    4.0629 H   0  0  0  0  0  0  0  0  0  0  0  0
    1.0900    3.7906    2.3181 C   0  0  0  0  0  0  0  0  0  0  0  0
    0.9336    4.7457    2.8421 H   0  0  0  0  0  0  0  0  0  0  0  0
    1.4638    3.7837    0.9641 C   0  0  0  0  0  0  0  0  0  0  0  0
    1.5999    4.7311    0.4221 H   0  0  0  0  0  0  0  0  0  0  0  0
    1.6588    2.5703    0.2934 C   0  0  0  0  0  0  0  0  0  0  0  0
    1.9554    2.5705   -0.7655 H   0  0  0  0  0  0  0  0  0  0  0  0
    3.1852    0.1396   -0.9654 C   0  0  0  0  0  0  0  0  0  0  0  0
    3.0201    0.3351   -2.3509 C   0  0  0  0  0  0  0  0  0  0  0  0
    2.0450    0.1344   -2.8194 H   0  0  0  0  0  0  0  0  0  0  0  0
    4.1088    0.7568   -3.1273 C   0  0  0  0  0  0  0  0  0  0  0  0
    3.9790    0.9053   -4.2098 H   0  0  0  0  0  0  0  0  0  0  0  0
    5.3609    0.9686   -2.5283 C   0  0  0  0  0  0  0  0  0  0  0  0
    6.2166    1.2900   -3.1417 H   0  0  0  0  0  0  0  0  0  0  0  0
    5.5234    0.7632   -1.1488 C   0  0  0  0  0  0  0  0  0  0  0  0
    6.5067    0.9187   -0.6794 H   0  0  0  0  0  0  0  0  0  0  0  0
    4.4375    0.3596   -0.3580 C   0  0  0  0  0  0  0  0  0  0  0  0
    4.5576    0.1786    0.7195 H   0  0  0  0  0  0  0  0  0  0  0  0
    2.1659   -1.3914    1.3747 C   0  0  0  0  0  0  0  0  0  0  0  0
    1.9554   -2.9058    2.9907 C   0  0  0  0  0  0  0  0  0  0  0  0
    1.4715   -3.6554    3.6260 H   0  0  0  0  0  0  0  0  0  0  0  0
    3.2537   -2.4260    2.9297 C   0  0  0  0  0  0  0  0  0  0  0  0
    4.1112   -2.7166    3.5488 H   0  0  0  0  0  0  0  0  0  0  0  0
   -0.1624   -2.3889    1.7378 C   0  0  0  0  0  0  0  0  0  0  0  0
   -0.3375   -2.4196    0.6364 H   0  0  0  0  0  0  0  0  0  0  0  0
   -0.4940   -3.3482    2.1760 H   0  0  0  0  0  0  0  0  0  0  0  0
  1 29  1  0  0  0  0
  2 34  1  0  0  0  0
  2 56  1  0  0  0  0
  3 30  1  0  0  0  0
  4 32  1  0  0  0  0
  5 57  1  0  0  0  0
  6 59  1  0  0  0  0
  7  1  1  0  0  0  0
  7  8  1  0  0  0  0
  8  9  1  0  0  0  0
 10  8  2  0  0  0  0
 10 11  1  0  0  0  0
 12 10  1  0  0  0  0
 13 12  1  0  0  0  0
 14 16  1  0  0  0  0
 14 12  2  0  0  0  0
 15 14  1  0  0  0  0
 16  7  2  0  0  0  0
 17 16  1  0  0  0  0
 18  1  1  0  0  0  0
 18 27  1  0  0  0  0
 19 18  2  0  0  0  0
 20 19  1  0  0  0  0
 21 19  1  0  0  0  0
 21 23  2  0  0  0  0
 22 21  1  0  0  0  0
 23 25  1  0  0  0  0
 24 23  1  0  0  0  0
 25 27  2  0  0  0  0
 25 26  1  0  0  0  0
 27 28  1  0  0  0  0
 29  3  1  0  0  0  0
 29  4  2  0  0  0  0
 30 32  2  0  0  0  0
 30 31  1  0  0  0  0
 32 33  1  0  0  0  0
 34 35  1  0  0  0  0
 35 36  1  0  0  0  0
 35 37  2  0  0  0  0
 37 38  1  0  0  0  0
 39 40  1  0  0  0  0
 39 37  1  0  0  0  0
 41 39  2  0  0  0  0
 42 41  1  0  0  0  0
 43 41  1  0  0  0  0
 43 34  2  0  0  0  0
 44 43  1  0  0  0  0
 45 54  1  0  0  0  0
 45  2  1  0  0  0  0
 46 45  2  0  0  0  0
 47 46  1  0  0  0  0
 48 50  2  0  0  0  0
 48 46  1  0  0  0  0
 49 48  1  0  0  0  0
 50 52  1  0  0  0  0
 51 50  1  0  0  0  0
 52 53  1  0  0  0  0
 52 54  2  0  0  0  0
 54 55  1  0  0  0  0
 56  6  2  0  0  0  0
 56  5  1  0  0  0  0
 57 58  1  0  0  0  0
 59 57  2  0  0  0  0
 59 60  1  0  0  0  0
 61  5  1  0  0  0  0
 61 63  1  0  0  0  0
 61  3  1  0  0  0  0
 62 61  1  0  0  0  0
M  END
