1,2
q = 0.0, confidence = 0.996

 68 73  0  0  0  0  0  0  0  0999 V2000
   -1.0139   -1.1151   -0.2646 P   0  0  0  0  0  0  0  0  0  0  0  0
   -0.0006    1.3612   -0.3543 P   0  0  0  0  0  0  0  0  0  0  0  0
    0.2117   -0.1305    0.5720 N   0  0  0  0  0  0  0  0  0  0  0  0
   -2.1127   -1.8473    0.9863 C   0  0  0  0  0  0  0  0  0  0  0  0
   -3.5036   -1.7025    0.7970 C   0  0  0  0  0  0  0  0  0  0  0  0
   -3.8740   -1.1895   -0.1087 H   0  0  0  0  0  0  0  0  0  0  0  0
   -4.3879   -2.2441    1.7425 C   0  0  0  0  0  0  0  0  0  0  0  0
   -5.4726   -2.1357    1.5927 H   0  0  0  0  0  0  0  0  0  0  0  0
   -3.8945   -2.9195    2.8698 C   0  0  0  0  0  0  0  0  0  0  0  0
   -4.5932   -3.3370    3.6110 H   0  0  0  0  0  0  0  0  0  0  0  0
   -2.5095   -3.0688    3.0541 C   0  0  0  0  0  0  0  0  0  0  0  0
   -2.1216   -3.5988    3.9370 H   0  0  0  0  0  0  0  0  0  0  0  0
   -1.6147   -2.5385    2.1147 C   0  0  0  0  0  0  0  0  0  0  0  0
   -0.5320   -2.6534    2.2707 H   0  0  0  0  0  0  0  0  0  0  0  0
   -0.1352   -2.4914   -1.0845 C   0  0  0  0  0  0  0  0  0  0  0  0
   -0.2180   -3.8344   -0.6662 C   0  0  0  0  0  0  0  0  0  0  0  0
   -0.8423   -4.1085    0.1964 H   0  0  0  0  0  0  0  0  0  0  0  0
    0.4914   -4.8266   -1.3610 C   0  0  0  0  0  0  0  0  0  0  0  0
    0.4241   -5.8747   -1.0323 H   0  0  0  0  0  0  0  0  0  0  0  0
    1.2721   -4.4867   -2.4773 C   0  0  0  0  0  0  0  0  0  0  0  0
    1.8205   -5.2694   -3.0233 H   0  0  0  0  0  0  0  0  0  0  0  0
    1.3338   -3.1516   -2.9120 C   0  0  0  0  0  0  0  0  0  0  0  0
    1.9252   -2.8842   -3.8003 H   0  0  0  0  0  0  0  0  0  0  0  0
    0.6263   -2.1574   -2.2256 C   0  0  0  0  0  0  0  0  0  0  0  0
    0.6432   -1.1153   -2.5823 H   0  0  0  0  0  0  0  0  0  0  0  0
    0.5624   -0.1585    1.9612 C   0  0  0  0  0  0  0  0  0  0  0  0
   -0.4026    0.2783    2.8976 C   0  0  0  0  0  0  0  0  0  0  0  0
   -1.3941    0.5726    2.5262 H   0  0  0  0  0  0  0  0  0  0  0  0
   -0.1079    0.3604    4.2616 C   0  0  0  0  0  0  0  0  0  0  0  0
   -0.8775    0.7045    4.9681 H   0  0  0  0  0  0  0  0  0  0  0  0
    1.1764    0.0175    4.7116 C   0  0  0  0  0  0  0  0  0  0  0  0
    1.4276    0.0827    5.7810 H   0  0  0  0  0  0  0  0  0  0  0  0
    2.1408   -0.4164    3.7942 C   0  0  0  0  0  0  0  0  0  0  0  0
    3.1441   -0.7026    4.1445 H   0  0  0  0  0  0  0  0  0  0  0  0
    1.8586   -0.5280    2.4130 C   0  0  0  0  0  0  0  0  0  0  0  0
    2.9315   -1.0114    1.5061 C   0  0  0  0  0  0  0  0  0  0  0  0
    2.7471   -2.1509    0.6962 C   0  0  0  0  0  0  0  0  0  0  0  0
    1.7934   -2.6936    0.7280 H   0  0  0  0  0  0  0  0  0  0  0  0
    3.7735   -2.6050   -0.1447 C   0  0  0  0  0  0  0  0  0  0  0  0
    3.6031   -3.4928   -0.7713 H   0  0  0  0  0  0  0  0  0  0  0  0
    5.0040   -1.9295   -0.1840 C   0  0  0  0  0  0  0  0  0  0  0  0
    5.8085   -2.2838   -0.8463 H   0  0  0  0  0  0  0  0  0  0  0  0
    5.2051   -0.8036    0.6309 C   0  0  0  0  0  0  0  0  0  0  0  0
    6.1654   -0.2667    0.6046 H   0  0  0  0  0  0  0  0  0  0  0  0
    4.1787   -0.3507    1.4715 C   0  0  0  0  0  0  0  0  0  0  0  0
    4.3305    0.5442    2.0941 H   0  0  0  0  0  0  0  0  0  0  0  0
    1.5792    1.7896   -1.1435 C   0  0  0  0  0  0  0  0  0  0  0  0
    2.5874    0.8327   -1.3635 C   0  0  0  0  0  0  0  0  0  0  0  0
    2.4747   -0.1850   -0.9669 H   0  0  0  0  0  0  0  0  0  0  0  0
    3.7377    1.1916   -2.0818 C   0  0  0  0  0  0  0  0  0  0  0  0
    4.5300    0.4440   -2.2357 H   0  0  0  0  0  0  0  0  0  0  0  0
    3.8744    2.4912   -2.5942 C   0  0  0  0  0  0  0  0  0  0  0  0
    4.7766    2.7677   -3.1608 H   0  0  0  0  0  0  0  0  0  0  0  0
    2.8555    3.4382   -2.3928 C   0  0  0  0  0  0  0  0  0  0  0  0
    2.9537    4.4529   -2.8070 H   0  0  0  0  0  0  0  0  0  0  0  0
    1.7051    3.0939   -1.6713 C   0  0  0  0  0  0  0  0  0  0  0  0
    0.8917    3.8226   -1.5367 H   0  0  0  0  0  0  0  0  0  0  0  0
   -0.3376    2.7107    0.8191 C   0  0  0  0  0  0  0  0  0  0  0  0
    0.6596    3.1159    1.7324 C   0  0  0  0  0  0  0  0  0  0  0  0
    1.6604    2.6589    1.6973 H   0  0  0  0  0  0  0  0  0  0  0  0
    0.3662    4.0971    2.6882 C   0  0  0  0  0  0  0  0  0  0  0  0
    1.1386    4.4078    3.4077 H   0  0  0  0  0  0  0  0  0  0  0  0
   -0.9115    4.6816    2.7251 C   0  0  0  0  0  0  0  0  0  0  0  0
   -1.1380    5.4547    3.4754 H   0  0  0  0  0  0  0  0  0  0  0  0
   -1.8945    4.2941    1.8003 C   0  0  0  0  0  0  0  0  0  0  0  0
   -2.8869    4.7692    1.8160 H   0  0  0  0  0  0  0  0  0  0  0  0
   -1.6145    3.3063    0.8437 C   0  0  0  0  0  0  0  0  0  0  0  0
   -2.3570    3.0189    0.0821 H   0  0  0  0  0  0  0  0  0  0  0  0
  1  3  1  0  0  0  0
  1  4  1  0  0  0  0
  2  3  1  0  0  0  0
  2 58  1  0  0  0  0
  3 26  1  0  0  0  0
  4 13  1  0  0  0  0
  5  4  2  0  0  0  0
  5  7  1  0  0  0  0
  6  5  1  0  0  0  0
  7  9  2  0  0  0  0
  8  7  1  0  0  0  0
  9 11  1  0  0  0  0
  9 10  1  0  0  0  0
 11 12  1  0  0  0  0
 13 14  1  0  0  0  0
 13 11  2  0  0  0  0
 15 16  1  0  0  0  0
 15  1  1  0  0  0  0
 16 17  1  0  0  0  0
 18 19  1  0  0  0  0
 18 16  2  0  0  0  0
 20 18  1  0  0  0  0
 21 20  1  0  0  0  0
 22 20  2  0  0  0  0
 22 24  1  0  0  0  0
 23 22  1  0  0  0  0
 24 15  2  0  0  0  0
 25 24  1  0  0  0  0
 26 35  2  0  0  0  0
 26 27  1  0  0  0  0
 27 29  2  0  0  0  0
 28 27  1  0  0  0  0
 29 31  1  0  0  0  0
 29 30  1  0  0  0  0
 31 32  1  0  0  0  0
 33 34  1  0  0  0  0
 33 31  2  0  0  0  0
 35 33  1  0  0  0  0
 36 35  1  0  0  0  0
 37 38  1  0  0  0  0
 37 36  2  0  0  0  0
 39 37  1  0  0  0  0
 40 39  1  0  0  0  0
 41 39  2  0  0  0  0
 41 43  1  0  0  0  0
 42 41  1  0  0  0  0
 43 45  2  0  0  0  0
 44 43  1  0  0  0  0
 45 36  1  0  0  0  0
 45 46  1  0  0  0  0
 47  2  1  0  0  0  0
 48 47  1  0  0  0  0
 48 49  1  0  0  0  0
 50 48  2  0  0  0  0
 51 50  1  0  0  0  0
 52 54  2  0  0  0  0
 52 50  1  0  0  0  0
 53 52  1  0  0  0  0
 54 56  1  0  0  0  0
 55 54  1  0  0  0  0
 56 57  1  0  0  0  0
 56 47  2  0  0  0  0
 58 67  2  0  0  0  0
 58 59  1  0  0  0  0
 59 61  2  0  0  0  0
 60 59  1  0  0  0  0
 61 63  1  0  0  0  0
 61 62  1  0  0  0  0
 63 64  1  0  0  0  0
 65 66  1  0  0  0  0
 65 63  2  0  0  0  0
 67 65  1  0  0  0  0
 68 67  1  0  0  0  0
M  END
