1,2
q = 0.0, confidence = 1.0

 34 36  0  0  0  0  0  0  0  0999 V2000
   -2.3243    0.4702    0.2653 P   0  0  0  0  0  0  0  0  0  0  0  0
    0.6722    0.2226    0.1509 P   0  0  0  0  0  0  0  0  0  0  0  0
   -0.0020    1.5477    1.0498 O   0  0  0  0  0  0  0  0  0  0  0  0
   -3.9616    0.9560    0.4887 C   0  0  0  0  0  0  0  0  0  0  0  0
   -4.2809    2.1215    1.2005 C   0  0  0  0  0  0  0  0  0  0  0  0
   -5.3475    2.3748    1.3104 H   0  0  0  0  0  0  0  0  0  0  0  0
   -3.3314    2.9819    1.7812 C   0  0  0  0  0  0  0  0  0  0  0  0
   -1.9384    2.7893    1.7257 C   0  0  0  0  0  0  0  0  0  0  0  0
   -1.2674    3.5144    2.2127 H   0  0  0  0  0  0  0  0  0  0  0  0
   -1.3545    1.6983    1.0707 C   0  0  0  0  0  0  0  0  0  0  0  0
    1.8260   -0.4527    1.3774 C   0  0  0  0  0  0  0  0  0  0  0  0
    2.9691    0.2796    1.7599 C   0  0  0  0  0  0  0  0  0  0  0  0
    3.8172   -0.2320    2.7511 C   0  0  0  0  0  0  0  0  0  0  0  0
    3.5334   -1.4715    3.3490 C   0  0  0  0  0  0  0  0  0  0  0  0
    4.2066   -1.8736    4.1214 H   0  0  0  0  0  0  0  0  0  0  0  0
    2.4017   -2.2043    2.9567 C   0  0  0  0  0  0  0  0  0  0  0  0
    1.5433   -1.7000    1.9701 C   0  0  0  0  0  0  0  0  0  0  0  0
    1.6582    1.1470   -1.0713 C   0  0  0  0  0  0  0  0  0  0  0  0
    1.8649    2.5367   -0.9430 C   0  0  0  0  0  0  0  0  0  0  0  0
    2.6440    3.2097   -1.8957 C   0  0  0  0  0  0  0  0  0  0  0  0
    3.2105    2.5059   -2.9702 C   0  0  0  0  0  0  0  0  0  0  0  0
    2.9940    1.1240   -3.0984 C   0  0  0  0  0  0  0  0  0  0  0  0
    2.2170    0.4373   -2.1556 C   0  0  0  0  0  0  0  0  0  0  0  0
   -4.7378    0.3084    0.0535 H   0  0  0  0  0  0  0  0  0  0  0  0
   -3.6998    3.8687    2.3184 H   0  0  0  0  0  0  0  0  0  0  0  0
    3.1980    1.2421    1.2777 H   0  0  0  0  0  0  0  0  0  0  0  0
    4.7099    0.3362    3.0527 H   0  0  0  0  0  0  0  0  0  0  0  0
    2.1883   -3.1812    3.4152 H   0  0  0  0  0  0  0  0  0  0  0  0
    0.6709   -2.2790    1.6325 H   0  0  0  0  0  0  0  0  0  0  0  0
    1.4117    3.0838   -0.1044 H   0  0  0  0  0  0  0  0  0  0  0  0
    2.8056    4.2939   -1.7977 H   0  0  0  0  0  0  0  0  0  0  0  0
    3.8185    3.0395   -3.7165 H   0  0  0  0  0  0  0  0  0  0  0  0
    3.4271    0.5726   -3.9463 H   0  0  0  0  0  0  0  0  0  0  0  0
    2.0231   -0.6440   -2.2528 H   0  0  0  0  0  0  0  0  0  0  0  0
  1  4  2  0  0  0  0
  1 10  1  0  0  0  0
  2  3  1  0  0  0  0
  2 11  1  0  0  0  0
  3 10  1  0  0  0  0
  4  5  1  0  0  0  0
  5  6  1  0  0  0  0
  5  7  2  0  0  0  0
  7 25  1  0  0  0  0
  8  7  1  0  0  0  0
  8  9  1  0  0  0  0
 10  8  2  0  0  0  0
 11 12  2  0  0  0  0
 11 17  1  0  0  0  0
 12 13  1  0  0  0  0
 13 27  1  0  0  0  0
 13 14  2  0  0  0  0
 14 15  1  0  0  0  0
 16 14  1  0  0  0  0
 16 28  1  0  0  0  0
 17 16  2  0  0  0  0
 18 19  1  0  0  0  0
 18  2  1  0  0  0  0
 19 30  1  0  0  0  0
 20 31  1  0  0  0  0
 20 19  2  0  0  0  0
 21 20  1  0  0  0  0
 22 21  2  0  0  0  0
 22 23  1  0  0  0  0
 23 18  2  0  0  0  0
 24  4  1  0  0  0  0
 26 12  1  0  0  0  0
 29 17  1  0  0  0  0
 32 21  1  0  0  0  0
 33 22  1  0  0  0  0
 34 23  1  0  0  0  0
M  END
