1,2
q = 0.0, confidence = 0.996

 33 32  0  0  0  0  0  0  0  0999 V2000
    0.4524    1.3694    0.1371 P   0  0  0  0  0  0  0  0  0  0  0  0
    0.4183   -1.4071    0.1757 P   0  0  0  0  0  0  0  0  0  0  0  0
    3.8863   -0.0116   -0.8476 P   0  0  0  0  0  0  0  0  0  0  0  0
    1.4922   -0.0304    0.3822 N   0  0  0  0  0  0  0  0  0  0  0  0
    2.8622   -0.0977    0.5754 N   0  0  0  0  0  0  0  0  0  0  0  0
    1.1751    2.3041   -1.2723 C   0  0  0  0  0  0  0  0  0  0  0  0
    0.7781    2.4894    1.5615 C   0  0  0  0  0  0  0  0  0  0  0  0
    1.1418   -2.3816   -1.2055 C   0  0  0  0  0  0  0  0  0  0  0  0
    0.7544   -2.4858    1.6278 C   0  0  0  0  0  0  0  0  0  0  0  0
    3.3357    0.0768    1.9435 C   0  0  0  0  0  0  0  0  0  0  0  0
    5.0084    1.4270   -0.4543 C   0  0  0  0  0  0  0  0  0  0  0  0
    5.1020   -1.3811   -0.5057 C   0  0  0  0  0  0  0  0  0  0  0  0
    0.5528    3.2043   -1.4489 H   0  0  0  0  0  0  0  0  0  0  0  0
    1.1431    1.6658   -2.1750 H   0  0  0  0  0  0  0  0  0  0  0  0
    2.2194    2.6168   -1.0743 H   0  0  0  0  0  0  0  0  0  0  0  0
    0.4933    1.9670    2.4945 H   0  0  0  0  0  0  0  0  0  0  0  0
    0.1385    3.3882    1.4542 H   0  0  0  0  0  0  0  0  0  0  0  0
    1.8398    2.8037    1.6088 H   0  0  0  0  0  0  0  0  0  0  0  0
    0.5296   -3.2931   -1.3560 H   0  0  0  0  0  0  0  0  0  0  0  0
    2.1892   -2.6739   -0.9916 H   0  0  0  0  0  0  0  0  0  0  0  0
    1.1063   -1.7712   -2.1273 H   0  0  0  0  0  0  0  0  0  0  0  0
    0.1974   -3.4359    1.5063 H   0  0  0  0  0  0  0  0  0  0  0  0
    0.3911   -1.9791    2.5421 H   0  0  0  0  0  0  0  0  0  0  0  0
    1.8374   -2.7070    1.7154 H   0  0  0  0  0  0  0  0  0  0  0  0
    2.6458   -0.4361    2.6425 H   0  0  0  0  0  0  0  0  0  0  0  0
    3.4125    1.1431    2.2574 H   0  0  0  0  0  0  0  0  0  0  0  0
    4.3380   -0.3833    2.0604 H   0  0  0  0  0  0  0  0  0  0  0  0
    5.7891    1.4868   -1.2400 H   0  0  0  0  0  0  0  0  0  0  0  0
    5.5111    1.3379    0.5308 H   0  0  0  0  0  0  0  0  0  0  0  0
    4.4336    2.3743   -0.4803 H   0  0  0  0  0  0  0  0  0  0  0  0
    5.8903   -1.3528   -1.2856 H   0  0  0  0  0  0  0  0  0  0  0  0
    4.5868   -2.3592   -0.5786 H   0  0  0  0  0  0  0  0  0  0  0  0
    5.5933   -1.3039    0.4867 H   0  0  0  0  0  0  0  0  0  0  0  0
  1  4  1  0  0  0  0
  1  7  1  0  0  0  0
  2  4  1  0  0  0  0
  2  9  1  0  0  0  0
  3 12  1  0  0  0  0
  3 11  1  0  0  0  0
  3  5  1  0  0  0  0
  4  5  1  0  0  0  0
  5 10  1  0  0  0  0
  6 15  1  0  0  0  0
  6  1  1  0  0  0  0
  7 18  1  0  0  0  0
  7 16  1  0  0  0  0
  8 20  1  0  0  0  0
  8  2  1  0  0  0  0
  9 24  1  0  0  0  0
  9 23  1  0  0  0  0
 10 27  1  0  0  0  0
 10 26  1  0  0  0  0
 10 25  1  0  0  0  0
 11 29  1  0  0  0  0
 12 33  1  0  0  0  0
 13  6  1  0  0  0  0
 14  6  1  0  0  0  0
 17  7  1  0  0  0  0
 19  8  1  0  0  0  0
 21  8  1  0  0  0  0
 22  9  1  0  0  0  0
 28 11  1  0  0  0  0
 30 11  1  0  0  0  0
 31 12  1  0  0  0  0
 32 12  1  0  0  0  0
M  END
