1,2
q = 0.0, confidence = 0.986

 45 47  0  0  0  0  0  0  0  0999 V2000
   -2.2600   -0.0044    0.0752 P   0  0  0  0  0  0  0  0  0  0  0  0
   -0.0768    1.7867    1.4384 P   0  0  2  0  0  0  0  0  0  0  0  0
   -3.1870   -1.1083    1.2036 C   0  0  0  0  0  0  0  0  0  0  0  0
   -2.4606   -1.9383    2.0830 C   0  0  0  0  0  0  0  0  0  0  0  0
   -3.1349   -2.7538    3.0052 C   0  0  0  0  0  0  0  0  0  0  0  0
   -4.5372   -2.7441    3.0541 C   0  0  0  0  0  0  0  0  0  0  0  0
   -5.2669   -1.9126    2.1870 C   0  0  0  0  0  0  0  0  0  0  0  0
   -4.5980   -1.0933    1.2669 C   0  0  0  0  0  0  0  0  0  0  0  0
   -2.9889   -0.1633   -1.5955 C   0  0  0  0  0  0  0  0  0  0  0  0
   -2.5791    0.7712   -2.5743 C   0  0  0  0  0  0  0  0  0  0  0  0
   -3.0228    0.6476   -3.8979 C   0  0  0  0  0  0  0  0  0  0  0  0
   -3.8647   -0.4167   -4.2627 C   0  0  0  0  0  0  0  0  0  0  0  0
   -4.2611   -1.3562   -3.2989 C   0  0  0  0  0  0  0  0  0  0  0  0
   -3.8263   -1.2351   -1.9693 C   0  0  0  0  0  0  0  0  0  0  0  0
   -2.7360    1.7009    0.6733 C   0  0  0  0  0  0  0  0  0  0  0  0
   -1.8709    2.0255    1.8902 C   0  0  0  0  0  0  0  0  0  0  0  0
    0.8145    1.8534    3.0372 C   0  0  0  0  0  0  0  0  0  0  0  0
    0.3292    3.3105    0.5058 C   0  0  0  0  0  0  0  0  0  0  0  0
    0.3406    4.5725    1.1367 C   0  0  0  0  0  0  0  0  0  0  0  0
    0.5944    5.7291    0.3856 C   0  0  0  0  0  0  0  0  0  0  0  0
    0.8337    5.6354   -0.9956 C   0  0  0  0  0  0  0  0  0  0  0  0
    0.8237    4.3823   -1.6280 C   0  0  0  0  0  0  0  0  0  0  0  0
    0.5743    3.2217   -0.8807 C   0  0  0  0  0  0  0  0  0  0  0  0
   -1.3592   -1.9314    2.0451 H   0  0  0  0  0  0  0  0  0  0  0  0
   -2.5619   -3.3978    3.6888 H   0  0  0  0  0  0  0  0  0  0  0  0
   -5.0670   -3.3848    3.7748 H   0  0  0  0  0  0  0  0  0  0  0  0
   -6.3663   -1.9007    2.2302 H   0  0  0  0  0  0  0  0  0  0  0  0
   -5.1785   -0.4430    0.5938 H   0  0  0  0  0  0  0  0  0  0  0  0
   -1.9033    1.5986   -2.3032 H   0  0  0  0  0  0  0  0  0  0  0  0
   -2.7069    1.3851   -4.6508 H   0  0  0  0  0  0  0  0  0  0  0  0
   -4.2102   -0.5141   -5.3025 H   0  0  0  0  0  0  0  0  0  0  0  0
   -4.9181   -2.1925   -3.5810 H   0  0  0  0  0  0  0  0  0  0  0  0
   -4.1413   -1.9784   -1.2221 H   0  0  0  0  0  0  0  0  0  0  0  0
   -2.5436    2.4153   -0.1543 H   0  0  0  0  0  0  0  0  0  0  0  0
   -3.8193    1.7338    0.9051 H   0  0  0  0  0  0  0  0  0  0  0  0
   -2.0935    1.3358    2.7326 H   0  0  0  0  0  0  0  0  0  0  0  0
   -2.0280    3.0631    2.2497 H   0  0  0  0  0  0  0  0  0  0  0  0
    0.4815    0.9968    3.6546 H   0  0  0  0  0  0  0  0  0  0  0  0
    1.9003    1.7545    2.8516 H   0  0  0  0  0  0  0  0  0  0  0  0
    0.6080    2.7976    3.5778 H   0  0  0  0  0  0  0  0  0  0  0  0
    0.1536    4.6634    2.2183 H   0  0  0  0  0  0  0  0  0  0  0  0
    0.6070    6.7105    0.8825 H   0  0  0  0  0  0  0  0  0  0  0  0
    1.0343    6.5455   -1.5803 H   0  0  0  0  0  0  0  0  0  0  0  0
    1.0207    4.3062   -2.7077 H   0  0  0  0  0  0  0  0  0  0  0  0
    0.5912    2.2279   -1.3585 H   0  0  0  0  0  0  0  0  0  0  0  0
  1 15  1  0  0  0  0
  1  3  1  0  0  0  0
  2 16  1  1  0  0  0
  2 17  1  0  0  0  0
  3  8  2  0  0  0  0
  3  4  1  0  0  0  0
  4  5  2  0  0  0  0
  5  6  1  0  0  0  0
  5 25  1  0  0  0  0
  6 26  1  0  0  0  0
  7 27  1  0  0  0  0
  7  6  2  0  0  0  0
  8  7  1  0  0  0  0
  9  1  1  0  0  0  0
 10 29  1  0  0  0  0
 10  9  2  0  0  0  0
 11 10  1  0  0  0  0
 12 11  2  0  0  0  0
 12 13  1  0  0  0  0
 13 14  2  0  0  0  0
 14  9  1  0  0  0  0
 14 33  1  0  0  0  0
 15 35  1  0  0  0  0
 15 16  1  0  0  0  0
 16 37  1  0  0  0  0
 16 36  1  0  0  0  0
 17 40  1  0  0  0  0
 17 38  1  0  0  0  0
 18 19  1  0  0  0  0
 18  2  1  0  0  0  0
 19 41  1  0  0  0  0
 20 42  1  0  0  0  0
 20 19  2  0  0  0  0
 21 20  1  0  0  0  0
 22 21  2  0  0  0  0
 22 23  1  0  0  0  0
 23 18  2  0  0  0  0
 24  4  1  0  0  0  0
 28  8  1  0  0  0  0
 30 11  1  0  0  0  0
 31 12  1  0  0  0  0
 32 13  1  0  0  0  0
 34 15  1  0  0  0  0
 39 17  1  0  0  0  0
 43 21  1  0  0  0  0
 44 22  1  0  0  0  0
 45 23  1  0  0  0  0
M  END
