1,2
q = 0.0, confidence = 0.992

 60 63  0  0  0  0  0  0  0  0999 V2000
    1.1948    0.3645   -0.0817 P   0  0  0  0  0  0  0  0  0  0  0  0
   -1.3407   -0.2289    0.1218 P   0  0  0  0  0  0  0  0  0  0  0  0
    0.1979   -1.0298    0.2239 N   0  0  0  0  0  0  0  0  0  0  0  0
    2.3418    0.4780    1.3372 C   0  0  0  0  0  0  0  0  0  0  0  0
    3.3324   -0.4964    1.5898 C   0  0  0  0  0  0  0  0  0  0  0  0
    3.5107   -1.3066    0.8654 H   0  0  0  0  0  0  0  0  0  0  0  0
    4.1047   -0.4191    2.7585 C   0  0  0  0  0  0  0  0  0  0  0  0
    4.8745   -1.1802    2.9576 H   0  0  0  0  0  0  0  0  0  0  0  0
    3.8993    0.6319    3.6687 C   0  0  0  0  0  0  0  0  0  0  0  0
    4.5103    0.6918    4.5824 H   0  0  0  0  0  0  0  0  0  0  0  0
    2.9267    1.6114    3.4093 C   0  0  0  0  0  0  0  0  0  0  0  0
    2.7795    2.4438    4.1140 H   0  0  0  0  0  0  0  0  0  0  0  0
    2.1444    1.5368    2.2471 C   0  0  0  0  0  0  0  0  0  0  0  0
    1.3938    2.3069    2.0014 H   0  0  0  0  0  0  0  0  0  0  0  0
    2.2398   -0.0223   -1.5300 C   0  0  0  0  0  0  0  0  0  0  0  0
    3.5572    0.4661   -1.6360 C   0  0  0  0  0  0  0  0  0  0  0  0
    4.0111    1.0106   -0.7945 H   0  0  0  0  0  0  0  0  0  0  0  0
    4.2879    0.2612   -2.8169 C   0  0  0  0  0  0  0  0  0  0  0  0
    5.3176    0.6423   -2.8935 H   0  0  0  0  0  0  0  0  0  0  0  0
    3.7083   -0.4236   -3.8958 C   0  0  0  0  0  0  0  0  0  0  0  0
    4.2840   -0.5840   -4.8199 H   0  0  0  0  0  0  0  0  0  0  0  0
    2.3872   -0.8951   -3.7992 C   0  0  0  0  0  0  0  0  0  0  0  0
    1.9254   -1.4224   -4.6478 H   0  0  0  0  0  0  0  0  0  0  0  0
    1.6505   -0.6874   -2.6266 C   0  0  0  0  0  0  0  0  0  0  0  0
    0.6100   -1.0406   -2.5533 H   0  0  0  0  0  0  0  0  0  0  0  0
   -2.3210   -1.0913   -1.1619 C   0  0  0  0  0  0  0  0  0  0  0  0
   -2.6434   -0.3643   -2.3252 C   0  0  0  0  0  0  0  0  0  0  0  0
   -2.3856    0.7081   -2.3637 H   0  0  0  0  0  0  0  0  0  0  0  0
   -3.3123   -1.0019   -3.3819 C   0  0  0  0  0  0  0  0  0  0  0  0
   -3.5720   -0.4315   -4.2866 H   0  0  0  0  0  0  0  0  0  0  0  0
   -3.6510   -2.3607   -3.2837 C   0  0  0  0  0  0  0  0  0  0  0  0
   -4.1719   -2.8598   -4.1153 H   0  0  0  0  0  0  0  0  0  0  0  0
   -3.3361   -3.0855   -2.1206 C   0  0  0  0  0  0  0  0  0  0  0  0
   -3.6105   -4.1486   -2.0414 H   0  0  0  0  0  0  0  0  0  0  0  0
   -2.6772   -2.4529   -1.0570 C   0  0  0  0  0  0  0  0  0  0  0  0
   -2.4474   -3.0166   -0.1392 H   0  0  0  0  0  0  0  0  0  0  0  0
   -2.1785   -0.6053    1.7008 C   0  0  0  0  0  0  0  0  0  0  0  0
   -3.5761   -0.7739    1.7689 C   0  0  0  0  0  0  0  0  0  0  0  0
   -4.1756   -0.7630    0.8462 H   0  0  0  0  0  0  0  0  0  0  0  0
   -4.2014   -0.9507    3.0125 C   0  0  0  0  0  0  0  0  0  0  0  0
   -5.2932   -1.0806    3.0598 H   0  0  0  0  0  0  0  0  0  0  0  0
   -3.4392   -0.9607    4.1910 C   0  0  0  0  0  0  0  0  0  0  0  0
   -3.9322   -1.1021    5.1648 H   0  0  0  0  0  0  0  0  0  0  0  0
   -2.0464   -0.7826    4.1271 C   0  0  0  0  0  0  0  0  0  0  0  0
   -1.4465   -0.7818    5.0499 H   0  0  0  0  0  0  0  0  0  0  0  0
   -1.4171   -0.5964    2.8897 C   0  0  0  0  0  0  0  0  0  0  0  0
   -0.3284   -0.4361    2.8395 H   0  0  0  0  0  0  0  0  0  0  0  0
    0.5377   -2.3701    0.6844 C   0  0  0  0  0  0  0  0  0  0  0  0
    1.3237   -2.2826    1.4670 H   0  0  0  0  0  0  0  0  0  0  0  0
   -0.3537   -2.7808    1.2081 H   0  0  0  0  0  0  0  0  0  0  0  0
    0.9849   -3.3325   -0.4217 C   0  0  0  0  0  0  0  0  0  0  0  0
    1.8521   -2.8922   -0.9590 H   0  0  0  0  0  0  0  0  0  0  0  0
    0.1677   -3.4089   -1.1700 H   0  0  0  0  0  0  0  0  0  0  0  0
    1.3570   -4.7264    0.1005 C   0  0  0  0  0  0  0  0  0  0  0  0
    0.5002   -5.1464    0.6745 H   0  0  0  0  0  0  0  0  0  0  0  0
    1.4944   -5.4042   -0.7686 H   0  0  0  0  0  0  0  0  0  0  0  0
    2.6213   -4.7573    0.9651 C   0  0  0  0  0  0  0  0  0  0  0  0
    3.4928   -4.3511    0.4093 H   0  0  0  0  0  0  0  0  0  0  0  0
    2.8764   -5.7908    1.2745 H   0  0  0  0  0  0  0  0  0  0  0  0
    2.5124   -4.1575    1.8921 H   0  0  0  0  0  0  0  0  0  0  0  0
  1  3  1  0  0  0  0
  1  4  1  0  0  0  0
  2  3  1  0  0  0  0
  2 37  1  0  0  0  0
  3 48  1  0  0  0  0
  4  5  2  0  0  0  0
  4 13  1  0  0  0  0
  5  7  1  0  0  0  0
  6  5  1  0  0  0  0
  7  8  1  0  0  0  0
  7  9  2  0  0  0  0
  9 10  1  0  0  0  0
 11  9  1  0  0  0  0
 11 12  1  0  0  0  0
 13 11  2  0  0  0  0
 14 13  1  0  0  0  0
 15  1  1  0  0  0  0
 16 15  1  0  0  0  0
 16 17  1  0  0  0  0
 18 16  2  0  0  0  0
 19 18  1  0  0  0  0
 20 22  2  0  0  0  0
 20 18  1  0  0  0  0
 21 20  1  0  0  0  0
 22 24  1  0  0  0  0
 23 22  1  0  0  0  0
 24 25  1  0  0  0  0
 24 15  2  0  0  0  0
 26 35  1  0  0  0  0
 26  2  1  0  0  0  0
 27 26  2  0  0  0  0
 28 27  1  0  0  0  0
 29 31  2  0  0  0  0
 29 27  1  0  0  0  0
 30 29  1  0  0  0  0
 31 33  1  0  0  0  0
 32 31  1  0  0  0  0
 33 34  1  0  0  0  0
 33 35  2  0  0  0  0
 35 36  1  0  0  0  0
 37 38  2  0  0  0  0
 37 46  1  0  0  0  0
 38 40  1  0  0  0  0
 39 38  1  0  0  0  0
 40 41  1  0  0  0  0
 40 42  2  0  0  0  0
 42 43  1  0  0  0  0
 44 42  1  0  0  0  0
 44 45  1  0  0  0  0
 46 44  2  0  0  0  0
 47 46  1  0  0  0  0
 48 50  1  0  0  0  0
 48 49  1  0  0  0  0
 51 54  1  0  0  0  0
 51 48  1  0  0  0  0
 52 51  1  0  0  0  0
 53 51  1  0  0  0  0
 54 55  1  0  0  0  0
 54 57  1  0  0  0  0
 56 54  1  0  0  0  0
 57 59  1  0  0  0  0
 57 60  1  0  0  0  0
 58 57  1  0  0  0  0
M  END
