1,2
q = 0.0, confidence = 1.0

 32 32  0  0  0  0  0  0  0  0999 V2000
   -1.1584   -0.8188    0.4007 P   0  0  2  0  0  0  0  0  0  0  0  0
   -0.1006    1.5935    0.0859 P   0  0  0  0  0  0  0  0  0  0  0  0
   -0.7127    2.4467   -1.1926 O   0  0  0  0  0  0  0  0  0  0  0  0
    0.1907    2.9036    1.0631 O   0  0  0  0  0  0  0  0  0  0  0  0
   -1.8010   -1.5844    1.7425 O   0  0  0  0  0  0  0  0  0  0  0  0
   -1.5280    0.8554    0.6799 N   0  0  0  0  0  0  0  0  0  0  0  0
   -2.3265   -1.2266   -0.7608 N   0  0  0  0  0  0  0  0  0  0  0  0
   -2.8995    1.3758    0.6850 C   0  0  0  0  0  0  0  0  0  0  0  0
   -2.8495    2.4828    0.6948 H   0  0  0  0  0  0  0  0  0  0  0  0
   -3.3930    1.0553    1.6285 H   0  0  0  0  0  0  0  0  0  0  0  0
   -3.6738    0.8645   -0.5335 C   0  0  0  0  0  0  0  0  0  0  0  0
   -3.2110    1.2912   -1.4471 H   0  0  0  0  0  0  0  0  0  0  0  0
   -4.7234    1.2213   -0.4839 H   0  0  0  0  0  0  0  0  0  0  0  0
   -3.6782   -0.6655   -0.6404 C   0  0  0  0  0  0  0  0  0  0  0  0
   -4.2279   -1.1156    0.2229 H   0  0  0  0  0  0  0  0  0  0  0  0
   -4.2313   -0.9610   -1.5570 H   0  0  0  0  0  0  0  0  0  0  0  0
    0.2094    3.1861   -1.9985 C   0  0  0  0  0  0  0  0  0  0  0  0
    0.6126    4.0583   -1.4423 H   0  0  0  0  0  0  0  0  0  0  0  0
   -0.3478    3.5409   -2.8858 H   0  0  0  0  0  0  0  0  0  0  0  0
    1.0536    2.5446   -2.3354 H   0  0  0  0  0  0  0  0  0  0  0  0
    0.9668    2.7215    2.2476 C   0  0  0  0  0  0  0  0  0  0  0  0
    1.0827    3.7190    2.7124 H   0  0  0  0  0  0  0  0  0  0  0  0
    1.9714    2.3074    2.0175 H   0  0  0  0  0  0  0  0  0  0  0  0
    0.4604    2.0446    2.9691 H   0  0  0  0  0  0  0  0  0  0  0  0
   -2.2352   -2.5638   -1.3306 C   0  0  0  0  0  0  0  0  0  0  0  0
   -1.1691   -2.8633   -1.3936 H   0  0  0  0  0  0  0  0  0  0  0  0
   -2.6499   -2.5637   -2.3608 H   0  0  0  0  0  0  0  0  0  0  0  0
   -2.7767   -3.3315   -0.7300 H   0  0  0  0  0  0  0  0  0  0  0  0
   -1.0776   -1.5466    2.9705 C   0  0  0  0  0  0  0  0  0  0  0  0
   -0.1047   -2.0757    2.8861 H   0  0  0  0  0  0  0  0  0  0  0  0
   -1.6998   -2.0548    3.7323 H   0  0  0  0  0  0  0  0  0  0  0  0
   -0.8861   -0.5021    3.3012 H   0  0  0  0  0  0  0  0  0  0  0  0
  1  6  1  0  0  0  0
  1  5  1  1  0  0  0
  2  6  1  0  0  0  0
  2  4  1  0  0  0  0
  3  2  1  0  0  0  0
  4 21  1  0  0  0  0
  5 29  1  0  0  0  0
  6  8  1  0  0  0  0
  7 14  1  0  0  0  0
  7  1  1  0  0  0  0
  8  9  1  0  0  0  0
  8 10  1  0  0  0  0
 11 13  1  0  0  0  0
 11  8  1  0  0  0  0
 12 11  1  0  0  0  0
 14 11  1  0  0  0  0
 14 15  1  0  0  0  0
 16 14  1  0  0  0  0
 17 18  1  0  0  0  0
 17  3  1  0  0  0  0
 19 17  1  0  0  0  0
 20 17  1  0  0  0  0
 21 22  1  0  0  0  0
 21 24  1  0  0  0  0
 23 21  1  0  0  0  0
 25  7  1  0  0  0  0
 25 28  1  0  0  0  0
 26 25  1  0  0  0  0
 27 25  1  0  0  0  0
 29 32  1  0  0  0  0
 29 31  1  0  0  0  0
 30 29  1  0  0  0  0
M  END
