1,2
q = 0.0, confidence = 0.998

 76 81  0  0  0  0  0  0  0  0999 V2000
   -1.8452    0.0491   -0.2503 P   0  0  0  0  0  0  0  0  0  0  0  0
    1.6807    0.4127   -0.2367 P   0  0  0  0  0  0  0  0  0  0  0  0
    2.2864   -2.8065    1.2509 O   0  0  0  0  0  0  0  0  0  0  0  0
    0.1774   -1.9049    1.2665 N   0  0  0  0  0  0  0  0  0  0  0  0
   -3.4117    0.2467   -1.2211 C   0  0  0  0  0  0  0  0  0  0  0  0
   -3.4694   -0.3410   -2.5009 C   0  0  0  0  0  0  0  0  0  0  0  0
   -2.5872   -0.8722   -2.8884 H   0  0  0  0  0  0  0  0  0  0  0  0
   -4.6327   -0.2384   -3.2771 C   0  0  0  0  0  0  0  0  0  0  0  0
   -4.6653   -0.7039   -4.2739 H   0  0  0  0  0  0  0  0  0  0  0  0
   -5.7444    0.4693   -2.7920 C   0  0  0  0  0  0  0  0  0  0  0  0
   -6.6530    0.5599   -3.4066 H   0  0  0  0  0  0  0  0  0  0  0  0
   -5.6894    1.0693   -1.5240 C   0  0  0  0  0  0  0  0  0  0  0  0
   -6.5549    1.6313   -1.1406 H   0  0  0  0  0  0  0  0  0  0  0  0
   -4.5309    0.9575   -0.7394 C   0  0  0  0  0  0  0  0  0  0  0  0
   -4.4947    1.4299    0.2537 H   0  0  0  0  0  0  0  0  0  0  0  0
   -1.9997    1.4302    0.9628 C   0  0  0  0  0  0  0  0  0  0  0  0
   -2.0527    1.2349    2.3549 C   0  0  0  0  0  0  0  0  0  0  0  0
   -2.0703    0.2157    2.7646 H   0  0  0  0  0  0  0  0  0  0  0  0
   -2.0774    2.3363    3.2256 C   0  0  0  0  0  0  0  0  0  0  0  0
   -2.0973    2.1663    4.3128 H   0  0  0  0  0  0  0  0  0  0  0  0
   -2.0802    3.6425    2.7152 C   0  0  0  0  0  0  0  0  0  0  0  0
   -2.1040    4.5044    3.3991 H   0  0  0  0  0  0  0  0  0  0  0  0
   -2.0581    3.8455    1.3244 C   0  0  0  0  0  0  0  0  0  0  0  0
   -2.0714    4.8668    0.9137 H   0  0  0  0  0  0  0  0  0  0  0  0
   -2.0052    2.7490    0.4536 C   0  0  0  0  0  0  0  0  0  0  0  0
   -1.9730    2.9140   -0.6349 H   0  0  0  0  0  0  0  0  0  0  0  0
   -2.2331   -1.4529    0.7755 C   0  0  0  0  0  0  0  0  0  0  0  0
   -3.5724   -1.8702    0.9378 C   0  0  0  0  0  0  0  0  0  0  0  0
   -4.3769   -1.2671    0.4940 H   0  0  0  0  0  0  0  0  0  0  0  0
   -3.9030   -3.0420    1.6307 C   0  0  0  0  0  0  0  0  0  0  0  0
   -4.9581   -3.3374    1.7311 H   0  0  0  0  0  0  0  0  0  0  0  0
   -2.8868   -3.8295    2.1905 C   0  0  0  0  0  0  0  0  0  0  0  0
   -3.1297   -4.7494    2.7433 H   0  0  0  0  0  0  0  0  0  0  0  0
   -1.5540   -3.4269    2.0550 C   0  0  0  0  0  0  0  0  0  0  0  0
   -0.7476   -4.0179    2.5144 H   0  0  0  0  0  0  0  0  0  0  0  0
   -1.2094   -2.2555    1.3461 C   0  0  0  0  0  0  0  0  0  0  0  0
    1.1314   -2.8648    0.8519 C   0  0  0  0  0  0  0  0  0  0  0  0
    0.6570   -3.9253   -0.1348 C   0  0  0  0  0  0  0  0  0  0  0  0
    0.2787   -4.7918    0.4498 H   0  0  0  0  0  0  0  0  0  0  0  0
   -0.2107   -3.5481   -0.7102 H   0  0  0  0  0  0  0  0  0  0  0  0
    1.7955   -4.3759   -1.0493 C   0  0  0  0  0  0  0  0  0  0  0  0
    1.4588   -5.1914   -1.7182 H   0  0  0  0  0  0  0  0  0  0  0  0
    2.6553   -4.7302   -0.4494 H   0  0  0  0  0  0  0  0  0  0  0  0
    2.1543   -3.5390   -1.6785 H   0  0  0  0  0  0  0  0  0  0  0  0
    0.6512   -0.8448    2.1159 C   0  0  0  0  0  0  0  0  0  0  0  0
    0.3445   -0.8935    3.4873 C   0  0  0  0  0  0  0  0  0  0  0  0
   -0.2582   -1.7326    3.8646 H   0  0  0  0  0  0  0  0  0  0  0  0
    0.7981    0.1024    4.3603 C   0  0  0  0  0  0  0  0  0  0  0  0
    0.5472    0.0509    5.4305 H   0  0  0  0  0  0  0  0  0  0  0  0
    1.5828    1.1514    3.8612 C   0  0  0  0  0  0  0  0  0  0  0  0
    1.9544    1.9386    4.5343 H   0  0  0  0  0  0  0  0  0  0  0  0
    1.8930    1.2033    2.4953 C   0  0  0  0  0  0  0  0  0  0  0  0
    2.4970    2.0377    2.1120 H   0  0  0  0  0  0  0  0  0  0  0  0
    1.4269    0.2223    1.5941 C   0  0  0  0  0  0  0  0  0  0  0  0
    3.2048   -0.5480   -0.6185 C   0  0  0  0  0  0  0  0  0  0  0  0
    4.1682   -0.8716    0.3554 C   0  0  0  0  0  0  0  0  0  0  0  0
    3.9916   -0.6089    1.4081 H   0  0  0  0  0  0  0  0  0  0  0  0
    5.3326   -1.5597   -0.0135 C   0  0  0  0  0  0  0  0  0  0  0  0
    6.0739   -1.8261    0.7552 H   0  0  0  0  0  0  0  0  0  0  0  0
    5.5481   -1.9193   -1.3540 C   0  0  0  0  0  0  0  0  0  0  0  0
    6.4618   -2.4634   -1.6383 H   0  0  0  0  0  0  0  0  0  0  0  0
    4.5930   -1.5909   -2.3293 C   0  0  0  0  0  0  0  0  0  0  0  0
    4.7550   -1.8717   -3.3811 H   0  0  0  0  0  0  0  0  0  0  0  0
    3.4219   -0.9116   -1.9616 C   0  0  0  0  0  0  0  0  0  0  0  0
    2.6601   -0.6582   -2.7153 H   0  0  0  0  0  0  0  0  0  0  0  0
    2.3286    2.1460   -0.3288 C   0  0  0  0  0  0  0  0  0  0  0  0
    3.6742    2.4554   -0.6065 C   0  0  0  0  0  0  0  0  0  0  0  0
    4.4048    1.6474   -0.7562 H   0  0  0  0  0  0  0  0  0  0  0  0
    4.0873    3.7958   -0.6942 C   0  0  0  0  0  0  0  0  0  0  0  0
    5.1404    4.0247   -0.9188 H   0  0  0  0  0  0  0  0  0  0  0  0
    3.1682    4.8366   -0.4956 C   0  0  0  0  0  0  0  0  0  0  0  0
    3.4963    5.8850   -0.5640 H   0  0  0  0  0  0  0  0  0  0  0  0
    1.8251    4.5325   -0.2145 C   0  0  0  0  0  0  0  0  0  0  0  0
    1.0932    5.3399   -0.0575 H   0  0  0  0  0  0  0  0  0  0  0  0
    1.4077    3.1983   -0.1431 C   0  0  0  0  0  0  0  0  0  0  0  0
    0.3555    2.9633    0.0706 H   0  0  0  0  0  0  0  0  0  0  0  0
  1 27  1  0  0  0  0
  1 16  1  0  0  0  0
  2 54  1  0  0  0  0
  4 36  1  0  0  0  0
  4 45  1  0  0  0  0
  5 14  1  0  0  0  0
  5  1  1  0  0  0  0
  6  5  2  0  0  0  0
  7  6  1  0  0  0  0
  8 10  2  0  0  0  0
  8  6  1  0  0  0  0
  9  8  1  0  0  0  0
 10 12  1  0  0  0  0
 11 10  1  0  0  0  0
 12 13  1  0  0  0  0
 12 14  2  0  0  0  0
 14 15  1  0  0  0  0
 16 17  1  0  0  0  0
 17 18  1  0  0  0  0
 17 19  2  0  0  0  0
 19 20  1  0  0  0  0
 21 19  1  0  0  0  0
 21 22  1  0  0  0  0
 23 21  2  0  0  0  0
 24 23  1  0  0  0  0
 25 16  2  0  0  0  0
 25 23  1  0  0  0  0
 26 25  1  0  0  0  0
 27 28  2  0  0  0  0
 27 36  1  0  0  0  0
 28 30  1  0  0  0  0
 29 28  1  0  0  0  0
 30 31  1  0  0  0  0
 30 32  2  0  0  0  0
 32 33  1  0  0  0  0
 34 32  1  0  0  0  0
 34 35  1  0  0  0  0
 36 34  2  0  0  0  0
 37  3  2  0  0  0  0
 37  4  1  0  0  0  0
 38 39  1  0  0  0  0
 38 37  1  0  0  0  0
 40 38  1  0  0  0  0
 41 43  1  0  0  0  0
 41 38  1  0  0  0  0
 42 41  1  0  0  0  0
 44 41  1  0  0  0  0
 45 46  1  0  0  0  0
 46 47  1  0  0  0  0
 46 48  2  0  0  0  0
 48 49  1  0  0  0  0
 50 48  1  0  0  0  0
 50 51  1  0  0  0  0
 52 50  2  0  0  0  0
 53 52  1  0  0  0  0
 54 45  2  0  0  0  0
 54 52  1  0  0  0  0
 55  2  1  0  0  0  0
 55 56  1  0  0  0  0
 56 57  1  0  0  0  0
 58 56  2  0  0  0  0
 58 59  1  0  0  0  0
 60 58  1  0  0  0  0
 61 60  1  0  0  0  0
 62 64  1  0  0  0  0
 62 60  2  0  0  0  0
 63 62  1  0  0  0  0
 64 55  2  0  0  0  0
 65 64  1  0  0  0  0
 66  2  1  0  0  0  0
 66 75  1  0  0  0  0
 67 66  2  0  0  0  0
 68 67  1  0  0  0  0
 69 67  1  0  0  0  0
 69 71  2  0  0  0  0
 70 69  1  0  0  0  0
 71 73  1  0  0  0  0
 72 71  1  0  0  0  0
 73 75  2  0  0  0  0
 73 74  1  0  0  0  0
 75 76  1  0  0  0  0
M  END
