1,2
q = -1.0, confidence = 0.0

 51 54  0  0  0  0  0  0  0  0999 V2000
    1.4131   -0.7401    0.8815 P   0  0  0  0  0  0  0  0  0  0  0  0
   -1.4133    0.7399    0.8814 P   0  0  0  0  0  0  0  0  0  0  0  0
   -0.2538   -1.1275    4.0148 F   0  0  0  0  0  0  0  0  0  0  0  0
    0.2526    1.1247    4.0163 F   0  0  0  0  0  0  0  0  0  0  0  0
    1.2090   -0.2302    2.3881 O   0  0  0  0  0  0  0  0  0  0  0  0
   -1.2091    0.2293    2.3877 O   0  0  0  0  0  0  0  0  0  0  0  0
    1.4754   -2.5750    0.9776 C   0  0  0  0  0  0  0  0  0  0  0  0
    1.6540   -3.3717   -0.1743 C   0  0  0  0  0  0  0  0  0  0  0  0
    1.7463   -2.8996   -1.1641 H   0  0  0  0  0  0  0  0  0  0  0  0
    1.7063   -4.7686   -0.0623 C   0  0  0  0  0  0  0  0  0  0  0  0
    1.8519   -5.3821   -0.9645 H   0  0  0  0  0  0  0  0  0  0  0  0
    1.5609   -5.3804    1.1931 C   0  0  0  0  0  0  0  0  0  0  0  0
    1.5954   -6.4774    1.2788 H   0  0  0  0  0  0  0  0  0  0  0  0
    1.3606   -4.5903    2.3357 C   0  0  0  0  0  0  0  0  0  0  0  0
    1.2331   -5.0651    3.3206 H   0  0  0  0  0  0  0  0  0  0  0  0
    1.3181   -3.1912    2.2360 C   0  0  0  0  0  0  0  0  0  0  0  0
    1.1389   -2.5703    3.1258 H   0  0  0  0  0  0  0  0  0  0  0  0
    3.1678   -0.2216    0.6504 C   0  0  0  0  0  0  0  0  0  0  0  0
    4.0852   -0.9438   -0.1349 C   0  0  0  0  0  0  0  0  0  0  0  0
    3.7871   -1.8942   -0.5981 H   0  0  0  0  0  0  0  0  0  0  0  0
    5.3907   -0.4601   -0.3174 C   0  0  0  0  0  0  0  0  0  0  0  0
    6.1063   -1.0399   -0.9207 H   0  0  0  0  0  0  0  0  0  0  0  0
    5.7856    0.7488    0.2783 C   0  0  0  0  0  0  0  0  0  0  0  0
    6.8109    1.1247    0.1371 H   0  0  0  0  0  0  0  0  0  0  0  0
    4.8759    1.4635    1.0752 C   0  0  0  0  0  0  0  0  0  0  0  0
    5.1844    2.4016    1.5616 H   0  0  0  0  0  0  0  0  0  0  0  0
    3.5721    0.9819    1.2635 C   0  0  0  0  0  0  0  0  0  0  0  0
    2.8582    1.5249    1.8994 H   0  0  0  0  0  0  0  0  0  0  0  0
   -1.4749    2.5748    0.9782 C   0  0  0  0  0  0  0  0  0  0  0  0
   -1.3166    3.1905    2.2367 C   0  0  0  0  0  0  0  0  0  0  0  0
   -1.1373    2.5692    3.1262 H   0  0  0  0  0  0  0  0  0  0  0  0
   -1.3583    4.5896    2.3369 C   0  0  0  0  0  0  0  0  0  0  0  0
   -1.2300    5.0640    3.3218 H   0  0  0  0  0  0  0  0  0  0  0  0
   -1.5588    5.3801    1.1946 C   0  0  0  0  0  0  0  0  0  0  0  0
   -1.5928    6.4771    1.2806 H   0  0  0  0  0  0  0  0  0  0  0  0
   -1.7052    4.7688   -0.0609 C   0  0  0  0  0  0  0  0  0  0  0  0
   -1.8511    5.3827   -0.9629 H   0  0  0  0  0  0  0  0  0  0  0  0
   -1.6537    3.3719   -0.1734 C   0  0  0  0  0  0  0  0  0  0  0  0
   -1.7467    2.9001   -1.1633 H   0  0  0  0  0  0  0  0  0  0  0  0
   -3.1681    0.2220    0.6502 C   0  0  0  0  0  0  0  0  0  0  0  0
   -4.0852    0.9444   -0.1354 C   0  0  0  0  0  0  0  0  0  0  0  0
   -3.7866    1.8946   -0.5987 H   0  0  0  0  0  0  0  0  0  0  0  0
   -5.3908    0.4612   -0.3179 C   0  0  0  0  0  0  0  0  0  0  0  0
   -6.1060    1.0411   -0.9215 H   0  0  0  0  0  0  0  0  0  0  0  0
   -5.7863   -0.7474    0.2780 C   0  0  0  0  0  0  0  0  0  0  0  0
   -6.8117   -1.1229    0.1368 H   0  0  0  0  0  0  0  0  0  0  0  0
   -4.8769   -1.4623    1.0753 C   0  0  0  0  0  0  0  0  0  0  0  0
   -5.1859   -2.4001    1.5619 H   0  0  0  0  0  0  0  0  0  0  0  0
   -3.5730   -0.9812    1.2636 C   0  0  0  0  0  0  0  0  0  0  0  0
   -2.8594   -1.5243    1.8997 H   0  0  0  0  0  0  0  0  0  0  0  0
   -0.0004   -0.0009    3.2345 B   0  0  0  0  0  0  0  0  0  0  0  0
  1  7  1  0  0  0  0
  1  5  1  0  0  0  0
  2 29  1  0  0  0  0
  2  6  1  0  0  0  0
  5 51  1  0  0  0  0
  6 51  1  0  0  0  0
  7 16  1  0  0  0  0
  8 10  1  0  0  0  0
  8  7  2  0  0  0  0
  9  8  1  0  0  0  0
 10 12  2  0  0  0  0
 11 10  1  0  0  0  0
 12 13  1  0  0  0  0
 12 14  1  0  0  0  0
 14 15  1  0  0  0  0
 16 14  2  0  0  0  0
 16 17  1  0  0  0  0
 18  1  1  0  0  0  0
 18 27  1  0  0  0  0
 19 18  2  0  0  0  0
 20 19  1  0  0  0  0
 21 19  1  0  0  0  0
 21 23  2  0  0  0  0
 22 21  1  0  0  0  0
 23 25  1  0  0  0  0
 24 23  1  0  0  0  0
 25 27  2  0  0  0  0
 25 26  1  0  0  0  0
 27 28  1  0  0  0  0
 29 30  1  0  0  0  0
 30 32  2  0  0  0  0
 30 31  1  0  0  0  0
 32 33  1  0  0  0  0
 34 35  1  0  0  0  0
 34 32  1  0  0  0  0
 36 34  2  0  0  0  0
 37 36  1  0  0  0  0
 38 36  1  0  0  0  0
 38 29  2  0  0  0  0
 39 38  1  0  0  0  0
 40  2  1  0  0  0  0
 40 49  1  0  0  0  0
 41 40  2  0  0  0  0
 42 41  1  0  0  0  0
 43 41  1  0  0  0  0
 43 45  2  0  0  0  0
 44 43  1  0  0  0  0
 45 47  1  0  0  0  0
 46 45  1  0  0  0  0
 47 49  2  0  0  0  0
 47 48  1  0  0  0  0
 49 50  1  0  0  0  0
 51  3  1  0  0  0  0
 51  4  1  0  0  0  0
M  END
