1,2
q = 0.0, confidence = 0.99

 52 55  0  0  1  0  0  0  0  0999 V2000
    1.5766    0.5300    0.1464 P   0  0  1  0  0  0  0  0  0  0  0  0
   -1.4860    0.2691   -0.0617 P   0  0  2  0  0  0  0  0  0  0  0  0
    0.6102    2.1279    0.4655 C   0  0  1  0  0  0  0  0  0  0  0  0
    0.8958    3.0044   -0.7913 C   0  0  2  0  0  0  0  0  0  0  0  0
    2.2020    2.5318   -1.4295 C   0  0  0  0  0  0  0  0  0  0  0  0
    2.6950    1.3440   -1.0000 C   0  0  0  0  0  0  0  0  0  0  0  0
    0.9227    4.5083   -0.4723 C   0  0  0  0  0  0  0  0  0  0  0  0
    2.8254    3.3437   -2.5246 C   0  0  0  0  0  0  0  0  0  0  0  0
   -0.8657    1.8215    0.8395 C   0  0  1  0  0  0  0  0  0  0  0  0
   -1.8805    2.8946    0.4604 C   0  0  0  0  0  0  0  0  0  0  0  0
   -2.6167    2.5611   -0.7834 C   0  0  0  0  0  0  0  0  0  0  0  0
   -2.5112    1.2578   -1.1783 C   0  0  0  0  0  0  0  0  0  0  0  0
   -3.4446    3.5922   -1.4920 C   0  0  0  0  0  0  0  0  0  0  0  0
   -2.1049    4.0060    1.2003 C   0  0  0  0  0  0  0  0  0  0  0  0
   -2.6325   -0.5392    1.1233 C   0  0  0  0  0  0  0  0  0  0  0  0
   -2.3767   -1.8611    1.5360 C   0  0  0  0  0  0  0  0  0  0  0  0
   -3.2086   -2.4661    2.4898 C   0  0  0  0  0  0  0  0  0  0  0  0
   -4.2944   -1.7592    3.0302 C   0  0  0  0  0  0  0  0  0  0  0  0
   -4.5540   -0.4431    2.6134 C   0  0  0  0  0  0  0  0  0  0  0  0
   -3.7285    0.1681    1.6585 C   0  0  0  0  0  0  0  0  0  0  0  0
    2.4496    0.0781    1.6849 C   0  0  0  0  0  0  0  0  0  0  0  0
    2.2173   -1.1826    2.2671 C   0  0  0  0  0  0  0  0  0  0  0  0
    2.8565   -1.5216    3.4690 C   0  0  0  0  0  0  0  0  0  0  0  0
    3.7283   -0.6102    4.0856 C   0  0  0  0  0  0  0  0  0  0  0  0
    3.9692    0.6440    3.4988 C   0  0  0  0  0  0  0  0  0  0  0  0
    3.3333    0.9898    2.2983 C   0  0  0  0  0  0  0  0  0  0  0  0
    1.1006    2.6175    1.3344 H   0  0  0  0  0  0  0  0  0  0  0  0
    0.0925    2.8156   -1.5425 H   0  0  0  0  0  0  0  0  0  0  0  0
    3.5665    0.8262   -1.4243 H   0  0  0  0  0  0  0  0  0  0  0  0
    1.0589    5.1142   -1.3896 H   0  0  0  0  0  0  0  0  0  0  0  0
    1.7587    4.7437    0.2195 H   0  0  0  0  0  0  0  0  0  0  0  0
   -0.0203    4.8289    0.0057 H   0  0  0  0  0  0  0  0  0  0  0  0
    3.6836    2.8166   -2.9809 H   0  0  0  0  0  0  0  0  0  0  0  0
    3.1788    4.3279   -2.1516 H   0  0  0  0  0  0  0  0  0  0  0  0
    2.0821    3.5580   -3.3228 H   0  0  0  0  0  0  0  0  0  0  0  0
   -0.9108    1.6078    1.9259 H   0  0  0  0  0  0  0  0  0  0  0  0
   -3.0048    0.8154   -2.0551 H   0  0  0  0  0  0  0  0  0  0  0  0
   -3.8962    3.1853   -2.4153 H   0  0  0  0  0  0  0  0  0  0  0  0
   -2.8322    4.4797   -1.7558 H   0  0  0  0  0  0  0  0  0  0  0  0
   -4.2664    3.9558   -0.8394 H   0  0  0  0  0  0  0  0  0  0  0  0
   -1.5595    4.1833    2.1397 H   0  0  0  0  0  0  0  0  0  0  0  0
   -2.8415    4.7651    0.8971 H   0  0  0  0  0  0  0  0  0  0  0  0
   -1.5404   -2.4155    1.0828 H   0  0  0  0  0  0  0  0  0  0  0  0
   -3.0106   -3.5018    2.8044 H   0  0  0  0  0  0  0  0  0  0  0  0
   -4.9477   -2.2384    3.7752 H   0  0  0  0  0  0  0  0  0  0  0  0
   -5.4096    0.1101    3.0298 H   0  0  0  0  0  0  0  0  0  0  0  0
   -3.9402    1.1962    1.3271 H   0  0  0  0  0  0  0  0  0  0  0  0
    1.5525   -1.8965    1.7562 H   0  0  0  0  0  0  0  0  0  0  0  0
    2.6783   -2.5087    3.9214 H   0  0  0  0  0  0  0  0  0  0  0  0
    4.2312   -0.8807    5.0265 H   0  0  0  0  0  0  0  0  0  0  0  0
    4.6619    1.3535    3.9764 H   0  0  0  0  0  0  0  0  0  0  0  0
    3.5329    1.9659    1.8274 H   0  0  0  0  0  0  0  0  0  0  0  0
  1  3  1  0  0  0  0
  1 21  1  1  0  0  0
  2  9  1  0  0  0  0
  2 15  1  1  0  0  0
  3  9  1  0  0  0  0
  3 27  1  1  0  0  0
  4 28  1  6  0  0  0
  4  7  1  0  0  0  0
  4  3  1  0  0  0  0
  5  6  2  0  0  0  0
  5  4  1  0  0  0  0
  6  1  1  0  0  0  0
  7 32  1  0  0  0  0
  7 31  1  0  0  0  0
  8 34  1  0  0  0  0
  8  5  1  0  0  0  0
  9 36  1  1  0  0  0
 10  9  1  0  0  0  0
 10 14  2  0  0  0  0
 11 10  1  0  0  0  0
 12 11  2  0  0  0  0
 12  2  1  0  0  0  0
 13 40  1  0  0  0  0
 13 11  1  0  0  0  0
 14 41  1  0  0  0  0
 15 16  2  0  0  0  0
 15 20  1  0  0  0  0
 16 17  1  0  0  0  0
 17 44  1  0  0  0  0
 17 18  2  0  0  0  0
 18 45  1  0  0  0  0
 19 46  1  0  0  0  0
 19 18  1  0  0  0  0
 20 19  2  0  0  0  0
 21 22  2  0  0  0  0
 21 26  1  0  0  0  0
 22 23  1  0  0  0  0
 23 49  1  0  0  0  0
 23 24  2  0  0  0  0
 24 50  1  0  0  0  0
 25 51  1  0  0  0  0
 25 24  1  0  0  0  0
 26 25  2  0  0  0  0
 29  6  1  0  0  0  0
 30  7  1  0  0  0  0
 33  8  1  0  0  0  0
 35  8  1  0  0  0  0
 37 12  1  0  0  0  0
 38 13  1  0  0  0  0
 39 13  1  0  0  0  0
 42 14  1  0  0  0  0
 43 16  1  0  0  0  0
 47 20  1  0  0  0  0
 48 22  1  0  0  0  0
 52 26  1  0  0  0  0
M  END
