1,2,3,14
q = -1.0, confidence = 0.0

 57 58  0  0  1  0  0  0  0  0999 V2000
    1.8188    0.1876    0.1292 P   0  0  0  0  0  0  0  0  0  0  0  0
   -0.7702    1.4443   -0.3007 N   0  0  0  0  0  2  0  0  0  0  0  0
   -1.6544   -1.2186    0.3924 N   0  0  0  0  0  2  0  0  0  0  0  0
   -1.5677   -2.2483    1.2647 C   0  0  0  0  0  3  0  0  0  0  0  0
   -0.5716   -2.6986    1.3762 H   0  0  0  0  0  0  0  0  0  0  0  0
   -2.6610   -2.7205    1.9957 C   0  0  0  0  0  0  0  0  0  0  0  0
   -2.5307   -3.5669    2.6851 H   0  0  0  0  0  0  0  0  0  0  0  0
   -3.9022   -2.0867    1.8356 C   0  0  0  0  0  0  0  0  0  0  0  0
   -4.7842   -2.4194    2.4030 H   0  0  0  0  0  0  0  0  0  0  0  0
   -4.0008   -1.0272    0.9234 C   0  0  0  0  0  0  0  0  0  0  0  0
   -4.9616   -0.5214    0.7595 H   0  0  0  0  0  0  0  0  0  0  0  0
   -2.8690   -0.6276    0.1956 C   0  0  0  0  0  0  0  0  0  0  0  0
   -2.8708    0.4361   -0.9054 C   0  0  2  0  0  0  0  0  0  0  0  0
   -1.9717   -0.1740   -2.0297 C   0  0  0  0  0  3  0  0  0  0  0  0
   -1.9046    0.5424   -2.8743 H   0  0  0  0  0  0  0  0  0  0  0  0
   -2.4433   -1.1075   -2.4011 H   0  0  0  0  0  0  0  0  0  0  0  0
   -2.1146    1.6354   -0.3381 C   0  0  1  0  0  3  0  0  0  0  0  0
   -2.6772    2.8218    0.1572 C   0  0  0  0  0  0  0  0  0  0  0  0
   -3.7646    2.9717    0.1280 H   0  0  0  0  0  0  0  0  0  0  0  0
   -1.8308    3.8042    0.6899 C   0  0  0  0  0  0  0  0  0  0  0  0
   -2.2499    4.7428    1.0826 H   0  0  0  0  0  0  0  0  0  0  0  0
   -0.4447    3.5843    0.7186 C   0  0  0  0  0  0  0  0  0  0  0  0
    0.2407    4.3400    1.1280 H   0  0  0  0  0  0  0  0  0  0  0  0
    0.0707    2.3835    0.2078 C   0  0  0  0  0  0  0  0  0  0  0  0
    1.5363    2.0567    0.1500 C   0  0  0  0  0  0  0  0  0  0  0  0
    2.1080    2.5985    0.9301 H   0  0  0  0  0  0  0  0  0  0  0  0
    1.9238    2.3971   -0.8353 H   0  0  0  0  0  0  0  0  0  0  0  0
   -4.2815    0.8045   -1.3800 C   0  0  0  0  0  0  0  0  0  0  0  0
   -4.7855   -0.0917   -1.7913 H   0  0  0  0  0  0  0  0  0  0  0  0
   -4.2155    1.5574   -2.1895 H   0  0  0  0  0  0  0  0  0  0  0  0
   -4.9307    1.2226   -0.5818 H   0  0  0  0  0  0  0  0  0  0  0  0
    3.5410    0.0692   -0.7215 C   0  0  0  0  0  0  0  0  0  0  0  0
    4.1197   -1.3337   -0.4647 C   0  0  0  0  0  0  0  0  0  0  0  0
    3.3867   -2.1289   -0.7083 H   0  0  0  0  0  0  0  0  0  0  0  0
    4.4530   -1.4678    0.5825 H   0  0  0  0  0  0  0  0  0  0  0  0
    5.0079   -1.4873   -1.1139 H   0  0  0  0  0  0  0  0  0  0  0  0
    3.3210    0.2267   -2.2375 C   0  0  0  0  0  0  0  0  0  0  0  0
    4.3087    0.1835   -2.7453 H   0  0  0  0  0  0  0  0  0  0  0  0
    2.8497    1.1954   -2.4983 H   0  0  0  0  0  0  0  0  0  0  0  0
    2.6743   -0.5714   -2.6438 H   0  0  0  0  0  0  0  0  0  0  0  0
    4.5379    1.1499   -0.2653 C   0  0  0  0  0  0  0  0  0  0  0  0
    5.4991    1.0038   -0.8038 H   0  0  0  0  0  0  0  0  0  0  0  0
    4.7579    1.1134    0.8159 H   0  0  0  0  0  0  0  0  0  0  0  0
    4.1861    2.1713   -0.5117 H   0  0  0  0  0  0  0  0  0  0  0  0
    2.0128   -0.2249    2.0109 C   0  0  0  0  0  0  0  0  0  0  0  0
    2.0462   -1.7593    2.1415 C   0  0  0  0  0  0  0  0  0  0  0  0
    3.0439   -2.1782    1.9149 H   0  0  0  0  0  0  0  0  0  0  0  0
    1.3259   -2.2283    1.4421 H   0  0  0  0  0  0  0  0  0  0  0  0
    1.7824   -2.0615    3.1775 H   0  0  0  0  0  0  0  0  0  0  0  0
    0.7181    0.3036    2.6598 C   0  0  0  0  0  0  0  0  0  0  0  0
    0.6522   -0.0651    3.7057 H   0  0  0  0  0  0  0  0  0  0  0  0
   -0.1808   -0.0411    2.1135 H   0  0  0  0  0  0  0  0  0  0  0  0
    0.6915    1.4109    2.6977 H   0  0  0  0  0  0  0  0  0  0  0  0
    3.2155    0.3913    2.7367 C   0  0  0  0  0  0  0  0  0  0  0  0
    3.2599    1.4937    2.6223 H   0  0  0  0  0  0  0  0  0  0  0  0
    4.1788   -0.0340    2.3953 H   0  0  0  0  0  0  0  0  0  0  0  0
    3.1362    0.1813    3.8260 H   0  0  0  0  0  0  0  0  0  0  0  0
  1 25  1  0  0  0  0
  1 45  1  0  0  0  0
  2 24  1  0  0  0  0
  3  4  1  0  0  0  0
  4  5  1  0  0  0  0
  4  6  1  0  0  0  0
  6  7  1  0  0  0  0
  8  6  2  0  0  0  0
  8  9  1  0  0  0  0
 10  8  1  0  0  0  0
 11 10  1  0  0  0  0
 12  3  1  0  0  0  0
 12 10  2  0  0  0  0
 13 14  1  6  0  0  0
 13 12  1  0  0  0  0
 15 14  1  0  0  0  0
 16 14  1  0  0  0  0
 17 13  1  1  0  0  0
 17  2  1  0  0  0  0
 17 18  1  0  0  0  0
 18 20  2  0  0  0  0
 19 18  1  0  0  0  0
 20 22  1  0  0  0  0
 20 21  1  0  0  0  0
 22 23  1  0  0  0  0
 24 22  2  0  0  0  0
 25 24  1  0  0  0  0
 25 26  1  0  0  0  0
 27 25  1  0  0  0  0
 28 13  1  0  0  0  0
 28 31  1  0  0  0  0
 29 28  1  0  0  0  0
 30 28  1  0  0  0  0
 32 33  1  0  0  0  0
 32 41  1  0  0  0  0
 32  1  1  0  0  0  0
 33 35  1  0  0  0  0
 34 33  1  0  0  0  0
 36 33  1  0  0  0  0
 37 32  1  0  0  0  0
 38 37  1  0  0  0  0
 39 37  1  0  0  0  0
 40 37  1  0  0  0  0
 41 43  1  0  0  0  0
 42 41  1  0  0  0  0
 44 41  1  0  0  0  0
 45 46  1  0  0  0  0
 45 50  1  0  0  0  0
 45 54  1  0  0  0  0
 46 49  1  0  0  0  0
 47 46  1  0  0  0  0
 48 46  1  0  0  0  0
 50 53  1  0  0  0  0
 50 51  1  0  0  0  0
 52 50  1  0  0  0  0
 54 57  1  0  0  0  0
 55 54  1  0  0  0  0
 56 54  1  0  0  0  0
M  END
