1,2,5
q = 0.0, confidence = 1.0

 53 53  0  0  1  0  0  0  0  0999 V2000
   -2.1821   -0.1474    0.0083 P   0  0  0  0  0  0  0  0  0  0  0  0
    2.1820   -0.1476    0.0084 P   0  0  0  0  0  0  0  0  0  0  0  0
   -2.3219    1.5947    0.0398 O   0  0  0  0  0  0  0  0  0  0  0  0
    2.3220    1.5945    0.0430 O   0  0  0  0  0  0  0  0  0  0  0  0
    0.0001    1.6031    0.0657 N   0  0  0  0  0  2  0  0  0  0  0  0
   -1.1710    2.2890    0.0144 C   0  0  2  0  0  3  0  0  0  0  0  0
   -1.2147    3.6903   -0.0577 C   0  0  0  0  0  0  0  0  0  0  0  0
   -2.1883    4.1940   -0.0953 H   0  0  0  0  0  0  0  0  0  0  0  0
    1.1712    2.2890    0.0161 C   0  0  0  0  0  0  0  0  0  0  0  0
    0.0002    4.3844   -0.0901 C   0  0  0  0  0  0  0  0  0  0  0  0
    0.0003    5.4829   -0.1506 H   0  0  0  0  0  0  0  0  0  0  0  0
    1.2151    3.6903   -0.0560 C   0  0  0  0  0  0  0  0  0  0  0  0
    2.1888    4.1939   -0.0922 H   0  0  0  0  0  0  0  0  0  0  0  0
   -3.3598    0.3882    2.5258 C   0  0  0  0  0  0  0  0  0  0  0  0
   -2.3642    0.4411    3.0078 H   0  0  0  0  0  0  0  0  0  0  0  0
   -4.0871    0.0663    3.2997 H   0  0  0  0  0  0  0  0  0  0  0  0
   -3.6389    1.4046    2.1899 H   0  0  0  0  0  0  0  0  0  0  0  0
   -3.1077   -0.4582   -1.5824 C   0  0  0  0  0  0  0  0  0  0  0  0
   -2.4269    0.0020   -2.3300 H   0  0  0  0  0  0  0  0  0  0  0  0
   -3.3732   -0.6174    1.3685 C   0  0  0  0  0  0  0  0  0  0  0  0
   -4.3797   -0.6037    0.8982 H   0  0  0  0  0  0  0  0  0  0  0  0
   -4.4643    0.2483   -1.6578 C   0  0  0  0  0  0  0  0  0  0  0  0
   -5.2119   -0.2095   -0.9771 H   0  0  0  0  0  0  0  0  0  0  0  0
   -4.8688    0.1608   -2.6873 H   0  0  0  0  0  0  0  0  0  0  0  0
   -4.3821    1.3248   -1.4132 H   0  0  0  0  0  0  0  0  0  0  0  0
    3.0616   -2.0518    1.8324 C   0  0  0  0  0  0  0  0  0  0  0  0
    2.1009   -2.0930    2.3814 H   0  0  0  0  0  0  0  0  0  0  0  0
    3.8594   -2.4020    2.5192 H   0  0  0  0  0  0  0  0  0  0  0  0
    2.9971   -2.7724    0.9936 H   0  0  0  0  0  0  0  0  0  0  0  0
    3.3735   -0.6202    1.3673 C   0  0  0  0  0  0  0  0  0  0  0  0
    4.3797   -0.6070    0.8962 H   0  0  0  0  0  0  0  0  0  0  0  0
   -3.0622   -2.0488    1.8350 C   0  0  0  0  0  0  0  0  0  0  0  0
   -2.9989   -2.7703    0.9970 H   0  0  0  0  0  0  0  0  0  0  0  0
   -3.8598   -2.3975    2.5228 H   0  0  0  0  0  0  0  0  0  0  0  0
   -2.1011   -2.0902    2.3834 H   0  0  0  0  0  0  0  0  0  0  0  0
    3.1070   -0.4558   -1.5831 C   0  0  0  0  0  0  0  0  0  0  0  0
    2.4255    0.0044   -2.3300 H   0  0  0  0  0  0  0  0  0  0  0  0
    3.1945   -1.9624   -1.8627 C   0  0  0  0  0  0  0  0  0  0  0  0
    3.8634   -2.4766   -1.1416 H   0  0  0  0  0  0  0  0  0  0  0  0
    3.6171   -2.1250   -2.8753 H   0  0  0  0  0  0  0  0  0  0  0  0
    2.1953   -2.4382   -1.8401 H   0  0  0  0  0  0  0  0  0  0  0  0
   -3.1940   -1.9651   -1.8607 C   0  0  0  0  0  0  0  0  0  0  0  0
   -2.1944   -2.4401   -1.8383 H   0  0  0  0  0  0  0  0  0  0  0  0
   -3.6170   -2.1288   -2.8730 H   0  0  0  0  0  0  0  0  0  0  0  0
   -3.8621   -2.4793   -1.1389 H   0  0  0  0  0  0  0  0  0  0  0  0
    3.3621    0.3840    2.5257 C   0  0  0  0  0  0  0  0  0  0  0  0
    3.6417    1.4006    2.1908 H   0  0  0  0  0  0  0  0  0  0  0  0
    4.0898    0.0606    3.2986 H   0  0  0  0  0  0  0  0  0  0  0  0
    2.3670    0.4371    3.0088 H   0  0  0  0  0  0  0  0  0  0  0  0
    4.4630    0.2518   -1.6584 C   0  0  0  0  0  0  0  0  0  0  0  0
    4.3800    1.3282   -1.4132 H   0  0  0  0  0  0  0  0  0  0  0  0
    4.8674    0.1651   -2.6881 H   0  0  0  0  0  0  0  0  0  0  0  0
    5.2111   -0.2056   -0.9781 H   0  0  0  0  0  0  0  0  0  0  0  0
  1  3  1  0  0  0  0
  1 20  1  0  0  0  0
  2  4  1  0  0  0  0
  2 30  1  0  0  0  0
  6  3  1  1  0  0  0
  6  5  1  0  0  0  0
  7  6  1  0  0  0  0
  8  7  1  0  0  0  0
  9  4  1  0  0  0  0
  9  5  1  0  0  0  0
 10  7  2  0  0  0  0
 10 12  1  0  0  0  0
 11 10  1  0  0  0  0
 12  9  2  0  0  0  0
 13 12  1  0  0  0  0
 14 15  1  0  0  0  0
 14 16  1  0  0  0  0
 17 14  1  0  0  0  0
 18  1  1  0  0  0  0
 19 18  1  0  0  0  0
 20 32  1  0  0  0  0
 20 14  1  0  0  0  0
 21 20  1  0  0  0  0
 22 18  1  0  0  0  0
 22 25  1  0  0  0  0
 22 23  1  0  0  0  0
 24 22  1  0  0  0  0
 26 27  1  0  0  0  0
 26 28  1  0  0  0  0
 29 26  1  0  0  0  0
 30 26  1  0  0  0  0
 30 46  1  0  0  0  0
 31 30  1  0  0  0  0
 32 35  1  0  0  0  0
 32 34  1  0  0  0  0
 33 32  1  0  0  0  0
 36  2  1  0  0  0  0
 37 36  1  0  0  0  0
 38 41  1  0  0  0  0
 38 36  1  0  0  0  0
 38 39  1  0  0  0  0
 40 38  1  0  0  0  0
 42 43  1  0  0  0  0
 42 18  1  0  0  0  0
 42 45  1  0  0  0  0
 44 42  1  0  0  0  0
 46 49  1  0  0  0  0
 46 48  1  0  0  0  0
 47 46  1  0  0  0  0
 50 36  1  0  0  0  0
 50 51  1  0  0  0  0
 50 53  1  0  0  0  0
 52 50  1  0  0  0  0
M  END
