1,2,3
q = 0.0, confidence = 1.0

 59 63  0  0  1  0  0  0  0  0999 V2000
   -2.2078    0.0088    0.2131 P   0  0  0  0  0  0  0  0  0  0  0  0
    2.2076    0.0073    0.2133 P   0  0  0  0  0  0  0  0  0  0  0  0
   -0.0002    0.2167    2.0207 N   0  0  0  0  0  2  0  0  0  0  0  0
   -2.3271    0.2323    1.9299 N   0  0  0  0  0  0  0  0  0  0  0  0
   -3.2214    0.3695    2.4067 H   0  0  0  0  0  0  0  0  0  0  0  0
    2.3268    0.2281    1.9305 N   0  0  0  0  0  0  0  0  0  0  0  0
    3.2212    0.3636    2.4076 H   0  0  0  0  0  0  0  0  0  0  0  0
   -1.1827    0.2927    2.6997 C   0  0  2  0  0  3  0  0  0  0  0  0
   -1.2153    0.4424    4.0987 C   0  0  0  0  0  0  0  0  0  0  0  0
   -2.1780    0.4956    4.6240 H   0  0  0  0  0  0  0  0  0  0  0  0
   -0.0002    0.5150    4.7874 C   0  0  0  0  0  0  0  0  0  0  0  0
   -0.0003    0.6291    5.8812 H   0  0  0  0  0  0  0  0  0  0  0  0
    1.2148    0.4401    4.0990 C   0  0  0  0  0  0  0  0  0  0  0  0
    2.1775    0.4917    4.6245 H   0  0  0  0  0  0  0  0  0  0  0  0
    1.1824    0.2905    2.6999 C   0  0  0  0  0  0  0  0  0  0  0  0
   -3.1450   -1.5009   -0.1978 C   0  0  0  0  0  0  0  0  0  0  0  0
   -2.8297   -2.1885   -1.3897 C   0  0  0  0  0  0  0  0  0  0  0  0
   -2.0021   -1.8350   -2.0267 H   0  0  0  0  0  0  0  0  0  0  0  0
   -3.5685   -3.3257   -1.7487 C   0  0  0  0  0  0  0  0  0  0  0  0
   -3.3226   -3.8609   -2.6778 H   0  0  0  0  0  0  0  0  0  0  0  0
   -4.6080   -3.7837   -0.9246 C   0  0  0  0  0  0  0  0  0  0  0  0
   -5.1812   -4.6792   -1.2075 H   0  0  0  0  0  0  0  0  0  0  0  0
   -4.9145   -3.1037    0.2655 C   0  0  0  0  0  0  0  0  0  0  0  0
   -5.7244   -3.4653    0.9163 H   0  0  0  0  0  0  0  0  0  0  0  0
   -4.1891   -1.9613    0.6300 C   0  0  0  0  0  0  0  0  0  0  0  0
   -4.4401   -1.4419    1.5670 H   0  0  0  0  0  0  0  0  0  0  0  0
   -3.1810    1.3794   -0.4855 C   0  0  0  0  0  0  0  0  0  0  0  0
   -3.8109    1.2219   -1.7375 C   0  0  0  0  0  0  0  0  0  0  0  0
   -3.7799    0.2537   -2.2580 H   0  0  0  0  0  0  0  0  0  0  0  0
   -4.4854    2.3065   -2.3151 C   0  0  0  0  0  0  0  0  0  0  0  0
   -4.9776    2.1826   -3.2910 H   0  0  0  0  0  0  0  0  0  0  0  0
   -4.5378    3.5422   -1.6506 C   0  0  0  0  0  0  0  0  0  0  0  0
   -5.0725    4.3888   -2.1062 H   0  0  0  0  0  0  0  0  0  0  0  0
   -3.9085    3.6995   -0.4050 C   0  0  0  0  0  0  0  0  0  0  0  0
   -3.9494    4.6669    0.1171 H   0  0  0  0  0  0  0  0  0  0  0  0
   -3.2222    2.6248    0.1763 C   0  0  0  0  0  0  0  0  0  0  0  0
   -2.7199    2.7562    1.1470 H   0  0  0  0  0  0  0  0  0  0  0  0
    3.1446   -1.5019   -0.1999 C   0  0  0  0  0  0  0  0  0  0  0  0
    2.8272   -2.1897   -1.3910 C   0  0  0  0  0  0  0  0  0  0  0  0
    1.9980   -1.8366   -2.0263 H   0  0  0  0  0  0  0  0  0  0  0  0
    3.5661   -3.3262   -1.7518 C   0  0  0  0  0  0  0  0  0  0  0  0
    3.3185   -3.8616   -2.6803 H   0  0  0  0  0  0  0  0  0  0  0  0
    4.6079   -3.7834   -0.9302 C   0  0  0  0  0  0  0  0  0  0  0  0
    5.1813   -4.6783   -1.2144 H   0  0  0  0  0  0  0  0  0  0  0  0
    4.9169   -3.1030    0.2591 C   0  0  0  0  0  0  0  0  0  0  0  0
    5.7287   -3.4637    0.9079 H   0  0  0  0  0  0  0  0  0  0  0  0
    4.1913   -1.9612    0.6253 C   0  0  0  0  0  0  0  0  0  0  0  0
    4.4444   -1.4413    1.5615 H   0  0  0  0  0  0  0  0  0  0  0  0
    3.1815    1.3785   -0.4832 C   0  0  0  0  0  0  0  0  0  0  0  0
    3.8106    1.2227   -1.7357 C   0  0  0  0  0  0  0  0  0  0  0  0
    3.7785    0.2553   -2.2579 H   0  0  0  0  0  0  0  0  0  0  0  0
    4.4855    2.3077   -2.3120 C   0  0  0  0  0  0  0  0  0  0  0  0
    4.9772    2.1851   -3.2883 H   0  0  0  0  0  0  0  0  0  0  0  0
    4.5391    3.5423   -1.6455 C   0  0  0  0  0  0  0  0  0  0  0  0
    5.0742    4.3893   -2.0999 H   0  0  0  0  0  0  0  0  0  0  0  0
    3.9106    3.6980   -0.3992 C   0  0  0  0  0  0  0  0  0  0  0  0
    3.9524    4.6646    0.1243 H   0  0  0  0  0  0  0  0  0  0  0  0
    3.2238    2.6228    0.1806 C   0  0  0  0  0  0  0  0  0  0  0  0
    2.7221    2.7530    1.1518 H   0  0  0  0  0  0  0  0  0  0  0  0
  1  4  1  0  0  0  0
  2  6  1  0  0  0  0
  3  8  1  0  0  0  0
  3 15  1  0  0  0  0
  4  5  1  0  0  0  0
  6  7  1  0  0  0  0
  6 15  1  0  0  0  0
  8  4  1  6  0  0  0
  8  9  1  0  0  0  0
  9 10  1  0  0  0  0
  9 11  2  0  0  0  0
 11 12  1  0  0  0  0
 13 14  1  0  0  0  0
 13 11  1  0  0  0  0
 15 13  2  0  0  0  0
 16  1  1  0  0  0  0
 16 25  1  0  0  0  0
 17 16  2  0  0  0  0
 18 17  1  0  0  0  0
 19 17  1  0  0  0  0
 19 21  2  0  0  0  0
 20 19  1  0  0  0  0
 21 23  1  0  0  0  0
 22 21  1  0  0  0  0
 23 25  2  0  0  0  0
 23 24  1  0  0  0  0
 25 26  1  0  0  0  0
 27 36  1  0  0  0  0
 27  1  1  0  0  0  0
 28 27  2  0  0  0  0
 29 28  1  0  0  0  0
 30 28  1  0  0  0  0
 30 32  2  0  0  0  0
 31 30  1  0  0  0  0
 32 34  1  0  0  0  0
 33 32  1  0  0  0  0
 34 35  1  0  0  0  0
 34 36  2  0  0  0  0
 36 37  1  0  0  0  0
 38  2  1  0  0  0  0
 38 47  1  0  0  0  0
 39 38  2  0  0  0  0
 40 39  1  0  0  0  0
 41 39  1  0  0  0  0
 41 43  2  0  0  0  0
 42 41  1  0  0  0  0
 43 45  1  0  0  0  0
 44 43  1  0  0  0  0
 45 47  2  0  0  0  0
 45 46  1  0  0  0  0
 47 48  1  0  0  0  0
 49 58  1  0  0  0  0
 49  2  1  0  0  0  0
 50 49  2  0  0  0  0
 51 50  1  0  0  0  0
 52 50  1  0  0  0  0
 52 54  2  0  0  0  0
 53 52  1  0  0  0  0
 54 56  1  0  0  0  0
 55 54  1  0  0  0  0
 56 57  1  0  0  0  0
 56 58  2  0  0  0  0
 58 59  1  0  0  0  0
M  END
