1,2,5
q = 0.0, confidence = 1.0

 58 57  0  0  0  0  0  0  0  0999 V2000
    2.3045   -0.0606    0.1631 P   0  0  0  0  0  0  0  0  0  0  0  0
   -2.3169   -0.1722    0.1127 P   0  0  0  0  0  0  0  0  0  0  0  0
    3.0075    1.3333    0.8180 O   0  0  0  0  0  0  0  0  0  0  0  0
   -3.1863    1.2700    0.2285 O   0  0  0  0  0  0  0  0  0  0  0  0
   -0.0691    2.2248    0.4211 N   0  0  0  0  0  0  0  0  0  0  0  0
    0.0750    2.4356   -0.5930 H   0  0  0  0  0  0  0  0  0  0  0  0
    3.3246   -0.2371   -1.3983 C   0  0  0  0  0  0  0  0  0  0  0  0
    3.0875    0.7366   -1.8849 H   0  0  0  0  0  0  0  0  0  0  0  0
    3.0392   -1.2255    1.4245 C   0  0  0  0  0  0  0  0  0  0  0  0
    4.1299   -1.0196    1.3698 H   0  0  0  0  0  0  0  0  0  0  0  0
   -3.2381   -1.0531   -1.2592 C   0  0  0  0  0  0  0  0  0  0  0  0
   -2.6999   -2.0225   -1.3537 H   0  0  0  0  0  0  0  0  0  0  0  0
   -2.9498   -0.9754    1.6770 C   0  0  0  0  0  0  0  0  0  0  0  0
   -4.0550   -0.9692    1.5668 H   0  0  0  0  0  0  0  0  0  0  0  0
    2.4133    2.5916    0.5304 C   0  0  0  0  0  0  0  0  0  0  0  0
    2.3328    2.7622   -0.5696 H   0  0  0  0  0  0  0  0  0  0  0  0
    3.1177    3.3487    0.9314 H   0  0  0  0  0  0  0  0  0  0  0  0
    1.0492    2.8142    1.1790 C   0  0  0  0  0  0  0  0  0  0  0  0
    1.0509    2.4094    2.2127 H   0  0  0  0  0  0  0  0  0  0  0  0
    0.8931    3.9169    1.2572 H   0  0  0  0  0  0  0  0  0  0  0  0
   -2.5157    2.4827   -0.1087 C   0  0  0  0  0  0  0  0  0  0  0  0
   -3.2870    3.2746   -0.0225 H   0  0  0  0  0  0  0  0  0  0  0  0
   -2.1565    2.4661   -1.1635 H   0  0  0  0  0  0  0  0  0  0  0  0
   -1.3530    2.8349    0.8180 C   0  0  0  0  0  0  0  0  0  0  0  0
   -1.2362    3.9452    0.8166 H   0  0  0  0  0  0  0  0  0  0  0  0
   -1.5958    2.5382    1.8594 H   0  0  0  0  0  0  0  0  0  0  0  0
    2.8094   -1.3296   -2.3415 C   0  0  0  0  0  0  0  0  0  0  0  0
    3.4015   -1.3144   -3.2800 H   0  0  0  0  0  0  0  0  0  0  0  0
    1.7511   -1.1472   -2.6078 H   0  0  0  0  0  0  0  0  0  0  0  0
    2.9003   -2.3459   -1.9093 H   0  0  0  0  0  0  0  0  0  0  0  0
    4.8293   -0.3172   -1.1292 C   0  0  0  0  0  0  0  0  0  0  0  0
    5.3939   -0.1748   -2.0741 H   0  0  0  0  0  0  0  0  0  0  0  0
    5.1209   -1.3078   -0.7226 H   0  0  0  0  0  0  0  0  0  0  0  0
    5.1579    0.4637   -0.4148 H   0  0  0  0  0  0  0  0  0  0  0  0
    2.5497   -0.8730    2.8327 C   0  0  0  0  0  0  0  0  0  0  0  0
    3.0568   -1.5162    3.5815 H   0  0  0  0  0  0  0  0  0  0  0  0
    1.4560   -1.0365    2.9195 H   0  0  0  0  0  0  0  0  0  0  0  0
    2.7631    0.1844    3.0802 H   0  0  0  0  0  0  0  0  0  0  0  0
    2.7811   -2.6963    1.0852 C   0  0  0  0  0  0  0  0  0  0  0  0
    3.2823   -3.3454    1.8327 H   0  0  0  0  0  0  0  0  0  0  0  0
    3.1637   -2.9810    0.0861 H   0  0  0  0  0  0  0  0  0  0  0  0
    1.6988   -2.9303    1.1116 H   0  0  0  0  0  0  0  0  0  0  0  0
   -3.0562   -0.2659   -2.5637 C   0  0  0  0  0  0  0  0  0  0  0  0
   -3.4766   -0.8409   -3.4143 H   0  0  0  0  0  0  0  0  0  0  0  0
   -1.9907   -0.0425   -2.7728 H   0  0  0  0  0  0  0  0  0  0  0  0
   -3.6013    0.6995   -2.5118 H   0  0  0  0  0  0  0  0  0  0  0  0
   -4.7177   -1.3069   -0.9520 C   0  0  0  0  0  0  0  0  0  0  0  0
   -5.2205   -1.7268   -1.8478 H   0  0  0  0  0  0  0  0  0  0  0  0
   -5.2323   -0.3582   -0.6943 H   0  0  0  0  0  0  0  0  0  0  0  0
   -4.8715   -2.0242   -0.1222 H   0  0  0  0  0  0  0  0  0  0  0  0
   -2.4505   -2.4204    1.7800 C   0  0  0  0  0  0  0  0  0  0  0  0
   -2.8886   -2.9133    2.6723 H   0  0  0  0  0  0  0  0  0  0  0  0
   -1.3469   -2.4436    1.8834 H   0  0  0  0  0  0  0  0  0  0  0  0
   -2.7169   -3.0307    0.8940 H   0  0  0  0  0  0  0  0  0  0  0  0
   -2.5864   -0.1474    2.9119 C   0  0  0  0  0  0  0  0  0  0  0  0
   -2.9854   -0.6312    3.8274 H   0  0  0  0  0  0  0  0  0  0  0  0
   -3.0142    0.8720    2.8495 H   0  0  0  0  0  0  0  0  0  0  0  0
   -1.4850   -0.0627    3.0194 H   0  0  0  0  0  0  0  0  0  0  0  0
  1  3  1  0  0  0  0
  1  9  1  0  0  0  0
  2  4  1  0  0  0  0
  2 13  1  0  0  0  0
  5 24  1  0  0  0  0
  5 18  1  0  0  0  0
  6  5  1  0  0  0  0
  7 31  1  0  0  0  0
  7  1  1  0  0  0  0
  8  7  1  0  0  0  0
  9 35  1  0  0  0  0
 10  9  1  0  0  0  0
 11 47  1  0  0  0  0
 11  2  1  0  0  0  0
 12 11  1  0  0  0  0
 13 51  1  0  0  0  0
 13 55  1  0  0  0  0
 14 13  1  0  0  0  0
 15  3  1  0  0  0  0
 15 17  1  0  0  0  0
 15 18  1  0  0  0  0
 16 15  1  0  0  0  0
 18 20  1  0  0  0  0
 18 19  1  0  0  0  0
 21 22  1  0  0  0  0
 21  4  1  0  0  0  0
 21 24  1  0  0  0  0
 23 21  1  0  0  0  0
 24 26  1  0  0  0  0
 25 24  1  0  0  0  0
 27 30  1  0  0  0  0
 27  7  1  0  0  0  0
 28 27  1  0  0  0  0
 29 27  1  0  0  0  0
 31 33  1  0  0  0  0
 31 34  1  0  0  0  0
 32 31  1  0  0  0  0
 35 37  1  0  0  0  0
 35 38  1  0  0  0  0
 35 36  1  0  0  0  0
 39 42  1  0  0  0  0
 39  9  1  0  0  0  0
 39 40  1  0  0  0  0
 41 39  1  0  0  0  0
 43 46  1  0  0  0  0
 43 11  1  0  0  0  0
 44 43  1  0  0  0  0
 45 43  1  0  0  0  0
 47 49  1  0  0  0  0
 47 50  1  0  0  0  0
 48 47  1  0  0  0  0
 51 53  1  0  0  0  0
 51 52  1  0  0  0  0
 54 51  1  0  0  0  0
 55 58  1  0  0  0  0
 55 56  1  0  0  0  0
 57 55  1  0  0  0  0
M  END
