1,2,3
q = -1.0

 73 78  0  0  1  0  0  0  0  0999 V2000
   -0.0990   -0.4888    1.7665 N   0  0  0  0  0  2  0  0  0  0  0  0
   -2.2059    0.3207    0.1282 P   0  0  0  0  0  0  0  0  0  0  0  0
    2.0188    0.8943    0.4932 P   0  0  0  0  0  0  0  0  0  0  0  0
   -1.2425   -1.1879    2.1064 C   0  0  0  0  0  0  0  0  0  0  0  0
   -2.4874   -0.8129    1.5002 C   0  0  0  0  0  0  0  0  0  0  0  0
   -3.7137   -1.3750    1.8838 C   0  0  0  0  0  0  0  0  0  0  0  0
   -4.6409   -1.0289    1.3998 H   0  0  0  0  0  0  0  0  0  0  0  0
   -3.7490   -2.3809    2.8593 C   0  0  0  0  0  0  0  0  0  0  0  0
   -4.7036   -2.8275    3.1722 H   0  0  0  0  0  0  0  0  0  0  0  0
   -2.5295   -2.8297    3.4040 C   0  0  0  0  0  0  0  0  0  0  0  0
   -2.5345   -3.6462    4.1435 H   0  0  0  0  0  0  0  0  0  0  0  0
   -1.3010   -2.2743    3.0326 C   0  0  0  0  0  0  0  0  0  0  0  0
   -0.3820   -2.6802    3.4749 H   0  0  0  0  0  0  0  0  0  0  0  0
    1.1741   -1.1073    2.1372 C   0  0  2  0  0  0  0  0  0  0  0  0
    1.1299   -1.4154    3.2076 H   0  0  0  0  0  0  0  0  0  0  0  0
    2.2988   -0.0583    2.0456 C   0  0  0  0  0  0  0  0  0  0  0  0
    3.3030   -0.5192    2.1256 H   0  0  0  0  0  0  0  0  0  0  0  0
    2.1807    0.6822    2.8636 H   0  0  0  0  0  0  0  0  0  0  0  0
    1.5226   -2.3577    1.3201 C   0  0  0  0  0  0  0  0  0  0  0  0
    2.4989   -3.2580    1.7870 C   0  0  0  0  0  0  0  0  0  0  0  0
    2.9670   -3.0911    2.7718 H   0  0  0  0  0  0  0  0  0  0  0  0
    2.8824   -4.3638    1.0132 C   0  0  0  0  0  0  0  0  0  0  0  0
    3.6468   -5.0597    1.3923 H   0  0  0  0  0  0  0  0  0  0  0  0
    2.2883   -4.5851   -0.2402 C   0  0  0  0  0  0  0  0  0  0  0  0
    2.5905   -5.4503   -0.8499 H   0  0  0  0  0  0  0  0  0  0  0  0
    1.3040   -3.6997   -0.7059 C   0  0  0  0  0  0  0  0  0  0  0  0
    0.8282   -3.8567   -1.6861 H   0  0  0  0  0  0  0  0  0  0  0  0
    0.9223   -2.5984    0.0725 C   0  0  0  0  0  0  0  0  0  0  0  0
    0.1627   -1.8945   -0.2931 H   0  0  0  0  0  0  0  0  0  0  0  0
   -3.6175    1.4605   -0.0344 C   0  0  0  0  0  0  0  0  0  0  0  0
   -3.5205    2.7423    0.5432 C   0  0  0  0  0  0  0  0  0  0  0  0
   -2.5738    3.0522    1.0101 H   0  0  0  0  0  0  0  0  0  0  0  0
   -4.6144    3.6170    0.4859 C   0  0  0  0  0  0  0  0  0  0  0  0
   -4.5352    4.6198    0.9323 H   0  0  0  0  0  0  0  0  0  0  0  0
   -5.8023    3.2207   -0.1503 C   0  0  0  0  0  0  0  0  0  0  0  0
   -6.6582    3.9114   -0.1966 H   0  0  0  0  0  0  0  0  0  0  0  0
   -5.8957    1.9490   -0.7387 C   0  0  0  0  0  0  0  0  0  0  0  0
   -6.8227    1.6413   -1.2460 H   0  0  0  0  0  0  0  0  0  0  0  0
   -4.8040    1.0692   -0.6877 C   0  0  0  0  0  0  0  0  0  0  0  0
   -4.8674    0.0787   -1.1641 H   0  0  0  0  0  0  0  0  0  0  0  0
   -2.2040   -0.6931   -1.4047 C   0  0  0  0  0  0  0  0  0  0  0  0
   -1.9858   -0.0463   -2.6418 C   0  0  0  0  0  0  0  0  0  0  0  0
   -1.8766    1.0496   -2.6675 H   0  0  0  0  0  0  0  0  0  0  0  0
   -1.8673   -0.8039   -3.8142 C   0  0  0  0  0  0  0  0  0  0  0  0
   -1.6973   -0.2953   -4.7757 H   0  0  0  0  0  0  0  0  0  0  0  0
   -1.9525   -2.2069   -3.7637 C   0  0  0  0  0  0  0  0  0  0  0  0
   -1.8514   -2.7991   -4.6861 H   0  0  0  0  0  0  0  0  0  0  0  0
   -2.1681   -2.8500   -2.5351 C   0  0  0  0  0  0  0  0  0  0  0  0
   -2.2382   -3.9476   -2.4893 H   0  0  0  0  0  0  0  0  0  0  0  0
   -2.2968   -2.0984   -1.3557 C   0  0  0  0  0  0  0  0  0  0  0  0
   -2.4609   -2.6007   -0.3905 H   0  0  0  0  0  0  0  0  0  0  0  0
    3.1258    2.3485    0.5672 C   0  0  0  0  0  0  0  0  0  0  0  0
    3.0032    3.3271   -0.4439 C   0  0  0  0  0  0  0  0  0  0  0  0
    2.2271    3.2118   -1.2154 H   0  0  0  0  0  0  0  0  0  0  0  0
    3.8408    4.4504   -0.4359 C   0  0  0  0  0  0  0  0  0  0  0  0
    3.7358    5.2111   -1.2244 H   0  0  0  0  0  0  0  0  0  0  0  0
    4.8036    4.6110    0.5742 C   0  0  0  0  0  0  0  0  0  0  0  0
    5.4598    5.4947    0.5767 H   0  0  0  0  0  0  0  0  0  0  0  0
    4.9249    3.6433    1.5831 C   0  0  0  0  0  0  0  0  0  0  0  0
    5.6766    3.7639    2.3781 H   0  0  0  0  0  0  0  0  0  0  0  0
    4.0894    2.5156    1.5830 C   0  0  0  0  0  0  0  0  0  0  0  0
    4.1998    1.7655    2.3798 H   0  0  0  0  0  0  0  0  0  0  0  0
    2.6547   -0.0964   -0.9184 C   0  0  0  0  0  0  0  0  0  0  0  0
    3.8346   -0.8593   -0.8262 C   0  0  0  0  0  0  0  0  0  0  0  0
    4.4439   -0.8351    0.0901 H   0  0  0  0  0  0  0  0  0  0  0  0
    4.2234   -1.6766   -1.8962 C   0  0  0  0  0  0  0  0  0  0  0  0
    5.1340   -2.2889   -1.8120 H   0  0  0  0  0  0  0  0  0  0  0  0
    3.4475   -1.7238   -3.0666 C   0  0  0  0  0  0  0  0  0  0  0  0
    3.7520   -2.3744   -3.9007 H   0  0  0  0  0  0  0  0  0  0  0  0
    2.2836   -0.9462   -3.1690 C   0  0  0  0  0  0  0  0  0  0  0  0
    1.6678   -0.9822   -4.0805 H   0  0  0  0  0  0  0  0  0  0  0  0
    1.8822   -0.1366   -2.0969 C   0  0  0  0  0  0  0  0  0  0  0  0
    0.9580    0.4593   -2.1567 H   0  0  0  0  0  0  0  0  0  0  0  0
  1  4  1  0  0  0  0
  1 14  1  0  0  0  0
  2  5  1  0  0  0  0
  3 52  1  0  0  0  0
  3 16  1  0  0  0  0
  4 12  1  0  0  0  0
  5  6  1  0  0  0  0
  5  4  2  0  0  0  0
  6  8  2  0  0  0  0
  7  6  1  0  0  0  0
  8  9  1  0  0  0  0
  8 10  1  0  0  0  0
 10 11  1  0  0  0  0
 12 10  2  0  0  0  0
 12 13  1  0  0  0  0
 14 15  1  1  0  0  0
 16 17  1  0  0  0  0
 16 14  1  0  0  0  0
 16 18  1  0  0  0  0
 19 20  1  0  0  0  0
 19 14  1  0  0  0  0
 20 21  1  0  0  0  0
 22 23  1  0  0  0  0
 22 20  2  0  0  0  0
 24 22  1  0  0  0  0
 25 24  1  0  0  0  0
 26 24  2  0  0  0  0
 26 28  1  0  0  0  0
 27 26  1  0  0  0  0
 28 19  2  0  0  0  0
 29 28  1  0  0  0  0
 30  2  1  0  0  0  0
 30 31  1  0  0  0  0
 31 32  1  0  0  0  0
 33 31  2  0  0  0  0
 33 34  1  0  0  0  0
 35 33  1  0  0  0  0
 36 35  1  0  0  0  0
 37 39  1  0  0  0  0
 37 35  2  0  0  0  0
 38 37  1  0  0  0  0
 39 30  2  0  0  0  0
 40 39  1  0  0  0  0
 41 50  1  0  0  0  0
 41  2  1  0  0  0  0
 42 41  2  0  0  0  0
 43 42  1  0  0  0  0
 44 46  2  0  0  0  0
 44 42  1  0  0  0  0
 45 44  1  0  0  0  0
 46 48  1  0  0  0  0
 47 46  1  0  0  0  0
 48 49  1  0  0  0  0
 48 50  2  0  0  0  0
 50 51  1  0  0  0  0
 52 61  1  0  0  0  0
 53 55  1  0  0  0  0
 53 52  2  0  0  0  0
 54 53  1  0  0  0  0
 55 57  2  0  0  0  0
 56 55  1  0  0  0  0
 57 58  1  0  0  0  0
 57 59  1  0  0  0  0
 59 60  1  0  0  0  0
 61 59  2  0  0  0  0
 61 62  1  0  0  0  0
 63 64  1  0  0  0  0
 63  3  1  0  0  0  0
 64 65  1  0  0  0  0
 66 67  1  0  0  0  0
 66 64  2  0  0  0  0
 68 66  1  0  0  0  0
 69 68  1  0  0  0  0
 70 68  2  0  0  0  0
 70 72  1  0  0  0  0
 71 70  1  0  0  0  0
 72 63  2  0  0  0  0
 73 72  1  0  0  0  0
M  END
