1,2,3
q = 0.0, confidence = 0.994

 71 70  0  0  0  0  0  0  0  0999 V2000
   -2.2192    0.0076    0.1296 P   0  0  0  0  0  0  0  0  0  0  0  0
    2.2192    0.0076    0.1295 P   0  0  0  0  0  0  0  0  0  0  0  0
    0.0000   -0.3235    2.0813 N   0  0  0  0  0  0  0  0  0  0  0  0
    2.1388    2.7522    0.5716 C   0  0  0  0  0  0  0  0  0  0  0  0
    1.0357    2.6342    0.5695 H   0  0  0  0  0  0  0  0  0  0  0  0
    2.3599    3.7807    0.2196 H   0  0  0  0  0  0  0  0  0  0  0  0
    2.5099    2.6816    1.6130 H   0  0  0  0  0  0  0  0  0  0  0  0
   -1.2168    0.3067    2.6903 C   0  0  0  0  0  0  0  0  0  0  0  0
   -1.0685    1.4001    2.6286 H   0  0  0  0  0  0  0  0  0  0  0  0
   -1.2554    0.0383    3.7705 H   0  0  0  0  0  0  0  0  0  0  0  0
    1.2168    0.3067    2.6903 C   0  0  0  0  0  0  0  0  0  0  0  0
    1.2555    0.0382    3.7705 H   0  0  0  0  0  0  0  0  0  0  0  0
    1.0686    1.4001    2.6285 H   0  0  0  0  0  0  0  0  0  0  0  0
   -2.1385    2.7522    0.5713 C   0  0  0  0  0  0  0  0  0  0  0  0
   -2.5095    2.6819    1.6127 H   0  0  0  0  0  0  0  0  0  0  0  0
   -2.3596    3.7808    0.2192 H   0  0  0  0  0  0  0  0  0  0  0  0
   -1.0355    2.6342    0.5690 H   0  0  0  0  0  0  0  0  0  0  0  0
   -2.5000   -0.0968    1.9753 C   0  0  0  0  0  0  0  0  0  0  0  0
   -3.3451    0.5412    2.3034 H   0  0  0  0  0  0  0  0  0  0  0  0
   -2.7866   -1.1386    2.2187 H   0  0  0  0  0  0  0  0  0  0  0  0
    3.4979   -1.1726   -2.1120 C   0  0  0  0  0  0  0  0  0  0  0  0
    2.5343   -1.0408   -2.6396 H   0  0  0  0  0  0  0  0  0  0  0  0
    4.0009   -2.0689   -2.5304 H   0  0  0  0  0  0  0  0  0  0  0  0
    4.1505   -0.3048   -2.3252 H   0  0  0  0  0  0  0  0  0  0  0  0
    0.0000   -1.7846    2.3544 C   0  0  0  0  0  0  0  0  0  0  0  0
   -0.8891   -2.2565    1.9043 H   0  0  0  0  0  0  0  0  0  0  0  0
   -0.0001   -1.9707    3.4511 H   0  0  0  0  0  0  0  0  0  0  0  0
    0.8892   -2.2565    1.9045 H   0  0  0  0  0  0  0  0  0  0  0  0
    2.5000   -0.0969    1.9752 C   0  0  0  0  0  0  0  0  0  0  0  0
    2.7867   -1.1386    2.2186 H   0  0  0  0  0  0  0  0  0  0  0  0
    3.3452    0.5411    2.3033 H   0  0  0  0  0  0  0  0  0  0  0  0
   -2.8210    1.7475   -0.3776 C   0  0  0  0  0  0  0  0  0  0  0  0
   -3.2921   -1.3907   -0.6020 C   0  0  0  0  0  0  0  0  0  0  0  0
    2.4894   -2.6899   -0.3918 C   0  0  0  0  0  0  0  0  0  0  0  0
    2.3535   -2.9331    0.6824 H   0  0  0  0  0  0  0  0  0  0  0  0
    3.0525   -3.5363   -0.8366 H   0  0  0  0  0  0  0  0  0  0  0  0
    1.4979   -2.6403   -0.8827 H   0  0  0  0  0  0  0  0  0  0  0  0
   -2.4892   -2.6899   -0.3922 C   0  0  0  0  0  0  0  0  0  0  0  0
   -1.4978   -2.6401   -0.8833 H   0  0  0  0  0  0  0  0  0  0  0  0
   -3.0523   -3.5363   -0.8370 H   0  0  0  0  0  0  0  0  0  0  0  0
   -2.3530   -2.9332    0.6819 H   0  0  0  0  0  0  0  0  0  0  0  0
    3.2921   -1.3907   -0.6021 C   0  0  0  0  0  0  0  0  0  0  0  0
   -3.4983   -1.1723   -2.1119 C   0  0  0  0  0  0  0  0  0  0  0  0
   -4.1510   -0.3046   -2.3247 H   0  0  0  0  0  0  0  0  0  0  0  0
   -4.0013   -2.0686   -2.5303 H   0  0  0  0  0  0  0  0  0  0  0  0
   -2.5349   -1.0403   -2.6397 H   0  0  0  0  0  0  0  0  0  0  0  0
    2.8210    1.7475   -0.3776 C   0  0  0  0  0  0  0  0  0  0  0  0
   -4.3459    1.8908   -0.2520 C   0  0  0  0  0  0  0  0  0  0  0  0
   -4.8889    1.2772   -0.9947 H   0  0  0  0  0  0  0  0  0  0  0  0
   -4.6198    2.9500   -0.4406 H   0  0  0  0  0  0  0  0  0  0  0  0
   -4.7196    1.6336    0.7597 H   0  0  0  0  0  0  0  0  0  0  0  0
    2.3639    2.0585   -1.8141 C   0  0  0  0  0  0  0  0  0  0  0  0
    2.8076    1.3798   -2.5635 H   0  0  0  0  0  0  0  0  0  0  0  0
    2.6778    3.0926   -2.0665 H   0  0  0  0  0  0  0  0  0  0  0  0
    1.2646    1.9909   -1.9156 H   0  0  0  0  0  0  0  0  0  0  0  0
   -2.3642    2.0583   -1.8142 C   0  0  0  0  0  0  0  0  0  0  0  0
   -1.2649    1.9906   -1.9159 H   0  0  0  0  0  0  0  0  0  0  0  0
   -2.6780    3.0924   -2.0667 H   0  0  0  0  0  0  0  0  0  0  0  0
   -2.8081    1.3796   -2.5634 H   0  0  0  0  0  0  0  0  0  0  0  0
    4.3459    1.8907   -0.2523 C   0  0  0  0  0  0  0  0  0  0  0  0
    4.7198    1.6333    0.7593 H   0  0  0  0  0  0  0  0  0  0  0  0
    4.6199    2.9499   -0.4407 H   0  0  0  0  0  0  0  0  0  0  0  0
    4.8887    1.2771   -0.9952 H   0  0  0  0  0  0  0  0  0  0  0  0
    4.6530   -1.5097    0.1069 C   0  0  0  0  0  0  0  0  0  0  0  0
    5.2805   -0.6080   -0.0098 H   0  0  0  0  0  0  0  0  0  0  0  0
    5.2084   -2.3576   -0.3459 H   0  0  0  0  0  0  0  0  0  0  0  0
    4.5585   -1.7319    1.1879 H   0  0  0  0  0  0  0  0  0  0  0  0
   -4.6529   -1.5100    0.1073 C   0  0  0  0  0  0  0  0  0  0  0  0
   -4.5580   -1.7325    1.1882 H   0  0  0  0  0  0  0  0  0  0  0  0
   -5.2082   -2.3578   -0.3457 H   0  0  0  0  0  0  0  0  0  0  0  0
   -5.2804   -0.6083   -0.0090 H   0  0  0  0  0  0  0  0  0  0  0  0
  1 18  1  0  0  0  0
  2 29  1  0  0  0  0
  3 25  1  0  0  0  0
  3 11  1  0  0  0  0
  3  8  1  0  0  0  0
  4  7  1  0  0  0  0
  5  4  1  0  0  0  0
  6  4  1  0  0  0  0
  8 10  1  0  0  0  0
  9  8  1  0  0  0  0
 11 12  1  0  0  0  0
 13 11  1  0  0  0  0
 14 15  1  0  0  0  0
 16 14  1  0  0  0  0
 17 14  1  0  0  0  0
 18 20  1  0  0  0  0
 18 19  1  0  0  0  0
 18  8  1  0  0  0  0
 21 42  1  0  0  0  0
 22 21  1  0  0  0  0
 23 21  1  0  0  0  0
 24 21  1  0  0  0  0
 25 27  1  0  0  0  0
 26 25  1  0  0  0  0
 28 25  1  0  0  0  0
 29 30  1  0  0  0  0
 29 31  1  0  0  0  0
 29 11  1  0  0  0  0
 32 48  1  0  0  0  0
 32  1  1  0  0  0  0
 32 14  1  0  0  0  0
 33 38  1  0  0  0  0
 33 68  1  0  0  0  0
 33  1  1  0  0  0  0
 34 35  1  0  0  0  0
 36 34  1  0  0  0  0
 37 34  1  0  0  0  0
 38 41  1  0  0  0  0
 39 38  1  0  0  0  0
 40 38  1  0  0  0  0
 42 34  1  0  0  0  0
 42 64  1  0  0  0  0
 42  2  1  0  0  0  0
 43 33  1  0  0  0  0
 44 43  1  0  0  0  0
 45 43  1  0  0  0  0
 46 43  1  0  0  0  0
 47 60  1  0  0  0  0
 47  2  1  0  0  0  0
 47  4  1  0  0  0  0
 48 51  1  0  0  0  0
 49 48  1  0  0  0  0
 50 48  1  0  0  0  0
 52 47  1  0  0  0  0
 53 52  1  0  0  0  0
 54 52  1  0  0  0  0
 55 52  1  0  0  0  0
 56 32  1  0  0  0  0
 57 56  1  0  0  0  0
 58 56  1  0  0  0  0
 59 56  1  0  0  0  0
 60 61  1  0  0  0  0
 62 60  1  0  0  0  0
 63 60  1  0  0  0  0
 64 67  1  0  0  0  0
 65 64  1  0  0  0  0
 66 64  1  0  0  0  0
 68 69  1  0  0  0  0
 70 68  1  0  0  0  0
 71 68  1  0  0  0  0
M  END
