1,2,3
q = -1.0, confidence = 0.008

 62 62  0  0  0  0  0  0  0  0999 V2000
   -1.6535    0.6908    0.3141 P   0  0  0  0  0  0  0  0  0  0  0  0
    2.6442   -0.4827   -0.2297 P   0  0  0  0  0  0  0  0  0  0  0  0
    0.1099   -1.6959   -0.2741 N   0  0  0  0  0  2  0  0  0  0  0  0
   -2.8965   -0.5050   -0.3201 C   0  0  0  0  0  0  0  0  0  0  0  0
   -4.2214   -0.1289   -0.6375 C   0  0  0  0  0  0  0  0  0  0  0  0
   -4.5480    0.9081   -0.4752 H   0  0  0  0  0  0  0  0  0  0  0  0
   -5.1377   -1.0504   -1.1584 C   0  0  0  0  0  0  0  0  0  0  0  0
   -6.1642   -0.7328   -1.3963 H   0  0  0  0  0  0  0  0  0  0  0  0
   -4.7303   -2.3742   -1.3793 C   0  0  0  0  0  0  0  0  0  0  0  0
   -5.4302   -3.1099   -1.8037 H   0  0  0  0  0  0  0  0  0  0  0  0
   -3.4217   -2.7559   -1.0626 C   0  0  0  0  0  0  0  0  0  0  0  0
   -3.1049   -3.7970   -1.2357 H   0  0  0  0  0  0  0  0  0  0  0  0
   -2.4866   -1.8444   -0.5233 C   0  0  0  0  0  0  0  0  0  0  0  0
   -1.1492   -2.4256   -0.1065 C   0  0  0  0  0  0  0  0  0  0  0  0
   -1.2509   -2.7351    0.9657 H   0  0  0  0  0  0  0  0  0  0  0  0
   -1.0730   -3.3943   -0.6524 H   0  0  0  0  0  0  0  0  0  0  0  0
    1.1515   -2.7435   -0.3463 C   0  0  0  0  0  0  0  0  0  0  0  0
    0.8179   -3.5532   -1.0389 H   0  0  0  0  0  0  0  0  0  0  0  0
    1.2517   -3.2419    0.6497 H   0  0  0  0  0  0  0  0  0  0  0  0
    2.5099   -2.2292   -0.8107 C   0  0  0  0  0  0  0  0  0  0  0  0
    2.5419   -2.1925   -1.9177 H   0  0  0  0  0  0  0  0  0  0  0  0
    3.3453   -2.8736   -0.4674 H   0  0  0  0  0  0  0  0  0  0  0  0
   -2.0187    0.7202    2.1735 C   0  0  0  0  0  0  0  0  0  0  0  0
   -1.3008    1.4823    2.5473 H   0  0  0  0  0  0  0  0  0  0  0  0
   -3.4407    1.1316    2.5571 C   0  0  0  0  0  0  0  0  0  0  0  0
   -3.6941    2.1582    2.2269 H   0  0  0  0  0  0  0  0  0  0  0  0
   -3.5556    1.1069    3.6614 H   0  0  0  0  0  0  0  0  0  0  0  0
   -4.1922    0.4346    2.1316 H   0  0  0  0  0  0  0  0  0  0  0  0
   -1.6362   -0.6292    2.7909 C   0  0  0  0  0  0  0  0  0  0  0  0
   -2.3625   -1.4169    2.5026 H   0  0  0  0  0  0  0  0  0  0  0  0
   -1.6366   -0.5637    3.8985 H   0  0  0  0  0  0  0  0  0  0  0  0
   -0.6272   -0.9469    2.4586 H   0  0  0  0  0  0  0  0  0  0  0  0
   -2.3164    2.3558   -0.2595 C   0  0  0  0  0  0  0  0  0  0  0  0
   -3.3374    2.4234    0.1747 H   0  0  0  0  0  0  0  0  0  0  0  0
   -2.4327    2.4504   -1.7868 C   0  0  0  0  0  0  0  0  0  0  0  0
   -1.4388    2.4758   -2.2688 H   0  0  0  0  0  0  0  0  0  0  0  0
   -2.9596    3.3892   -2.0588 H   0  0  0  0  0  0  0  0  0  0  0  0
   -3.0030    1.6068   -2.2211 H   0  0  0  0  0  0  0  0  0  0  0  0
   -1.4826    3.5055    0.3197 C   0  0  0  0  0  0  0  0  0  0  0  0
   -1.4109    3.4692    1.4245 H   0  0  0  0  0  0  0  0  0  0  0  0
   -1.9436    4.4766    0.0438 H   0  0  0  0  0  0  0  0  0  0  0  0
   -0.4521    3.4981   -0.0845 H   0  0  0  0  0  0  0  0  0  0  0  0
    3.5202   -0.5777    1.4378 C   0  0  0  0  0  0  0  0  0  0  0  0
    3.4863    0.4740    1.7969 H   0  0  0  0  0  0  0  0  0  0  0  0
    2.6960   -1.4271    2.4143 C   0  0  0  0  0  0  0  0  0  0  0  0
    1.6248   -1.1452    2.3939 H   0  0  0  0  0  0  0  0  0  0  0  0
    3.0689   -1.2937    3.4505 H   0  0  0  0  0  0  0  0  0  0  0  0
    2.7718   -2.5071    2.1725 H   0  0  0  0  0  0  0  0  0  0  0  0
    4.9778   -1.0427    1.3795 C   0  0  0  0  0  0  0  0  0  0  0  0
    5.0693   -2.0505    0.9218 H   0  0  0  0  0  0  0  0  0  0  0  0
    5.3941   -1.1144    2.4063 H   0  0  0  0  0  0  0  0  0  0  0  0
    5.6274   -0.3491    0.8111 H   0  0  0  0  0  0  0  0  0  0  0  0
    3.9287    0.3194   -1.3371 C   0  0  0  0  0  0  0  0  0  0  0  0
    4.8541   -0.2782   -1.1836 H   0  0  0  0  0  0  0  0  0  0  0  0
    3.5579    0.2527   -2.8236 C   0  0  0  0  0  0  0  0  0  0  0  0
    3.4136   -0.7865   -3.1793 H   0  0  0  0  0  0  0  0  0  0  0  0
    4.3790    0.6926   -3.4274 H   0  0  0  0  0  0  0  0  0  0  0  0
    2.6383    0.8268   -3.0430 H   0  0  0  0  0  0  0  0  0  0  0  0
    4.1846    1.7624   -0.8798 C   0  0  0  0  0  0  0  0  0  0  0  0
    3.2763    2.3844   -1.0019 H   0  0  0  0  0  0  0  0  0  0  0  0
    4.9889    2.2191   -1.4932 H   0  0  0  0  0  0  0  0  0  0  0  0
    4.4989    1.8231    0.1812 H   0  0  0  0  0  0  0  0  0  0  0  0
  1 23  1  0  0  0  0
  2 43  1  0  0  0  0
  3 14  1  0  0  0  0
  4  1  1  0  0  0  0
  5  6  1  0  0  0  0
  5  4  2  0  0  0  0
  7  5  1  0  0  0  0
  8  7  1  0  0  0  0
  9  7  2  0  0  0  0
  9 11  1  0  0  0  0
 10  9  1  0  0  0  0
 11 13  2  0  0  0  0
 12 11  1  0  0  0  0
 13  4  1  0  0  0  0
 13 14  1  0  0  0  0
 14 15  1  0  0  0  0
 16 14  1  0  0  0  0
 17  3  1  0  0  0  0
 17 19  1  0  0  0  0
 18 17  1  0  0  0  0
 20 22  1  0  0  0  0
 20 17  1  0  0  0  0
 20  2  1  0  0  0  0
 21 20  1  0  0  0  0
 23 24  1  0  0  0  0
 23 25  1  0  0  0  0
 23 29  1  0  0  0  0
 25 27  1  0  0  0  0
 26 25  1  0  0  0  0
 28 25  1  0  0  0  0
 29 31  1  0  0  0  0
 30 29  1  0  0  0  0
 32 29  1  0  0  0  0
 33 34  1  0  0  0  0
 33  1  1  0  0  0  0
 33 39  1  0  0  0  0
 35 33  1  0  0  0  0
 36 35  1  0  0  0  0
 37 35  1  0  0  0  0
 38 35  1  0  0  0  0
 39 40  1  0  0  0  0
 41 39  1  0  0  0  0
 42 39  1  0  0  0  0
 43 44  1  0  0  0  0
 43 45  1  0  0  0  0
 45 47  1  0  0  0  0
 46 45  1  0  0  0  0
 48 45  1  0  0  0  0
 49 43  1  0  0  0  0
 49 51  1  0  0  0  0
 50 49  1  0  0  0  0
 52 49  1  0  0  0  0
 53 54  1  0  0  0  0
 53 59  1  0  0  0  0
 53  2  1  0  0  0  0
 55 53  1  0  0  0  0
 56 55  1  0  0  0  0
 57 55  1  0  0  0  0
 58 55  1  0  0  0  0
 59 62  1  0  0  0  0
 60 59  1  0  0  0  0
 61 59  1  0  0  0  0
M  END
