1,2,3
q = 0.0, confidence = 1.0

 69 74  0  0  0  0  0  0  0  0999 V2000
   -2.3618    0.0486   -0.1580 P   0  0  0  0  0  0  0  0  0  0  0  0
    2.2289   -0.1203   -0.1516 P   0  0  0  0  0  0  0  0  0  0  0  0
   -0.0932    1.7481    0.7292 N   0  0  0  0  0  2  0  0  0  0  0  0
   -3.3403   -1.3787    0.4122 C   0  0  0  0  0  0  0  0  0  0  0  0
   -3.2307   -1.8034    1.7545 C   0  0  0  0  0  0  0  0  0  0  0  0
   -2.6434   -1.2133    2.4744 H   0  0  0  0  0  0  0  0  0  0  0  0
   -3.8711   -2.9780    2.1717 C   0  0  0  0  0  0  0  0  0  0  0  0
   -3.7901   -3.2997    3.2207 H   0  0  0  0  0  0  0  0  0  0  0  0
   -4.6069   -3.7459    1.2538 C   0  0  0  0  0  0  0  0  0  0  0  0
   -5.1055   -4.6695    1.5835 H   0  0  0  0  0  0  0  0  0  0  0  0
   -4.7039   -3.3349   -0.0851 C   0  0  0  0  0  0  0  0  0  0  0  0
   -5.2774   -3.9351   -0.8071 H   0  0  0  0  0  0  0  0  0  0  0  0
   -4.0737   -2.1553   -0.5098 C   0  0  0  0  0  0  0  0  0  0  0  0
   -4.1566   -1.8369   -1.5598 H   0  0  0  0  0  0  0  0  0  0  0  0
   -3.2297    0.7473   -1.6064 C   0  0  0  0  0  0  0  0  0  0  0  0
   -2.4687    1.0661   -2.7493 C   0  0  0  0  0  0  0  0  0  0  0  0
   -1.3863    0.8573   -2.7502 H   0  0  0  0  0  0  0  0  0  0  0  0
   -3.0918    1.6375   -3.8693 C   0  0  0  0  0  0  0  0  0  0  0  0
   -2.4968    1.8824   -4.7617 H   0  0  0  0  0  0  0  0  0  0  0  0
   -4.4720    1.8901   -3.8509 C   0  0  0  0  0  0  0  0  0  0  0  0
   -4.9610    2.3362   -4.7299 H   0  0  0  0  0  0  0  0  0  0  0  0
   -5.2338    1.5704   -2.7135 C   0  0  0  0  0  0  0  0  0  0  0  0
   -6.3165    1.7660   -2.7020 H   0  0  0  0  0  0  0  0  0  0  0  0
   -4.6183    0.9997   -1.5916 C   0  0  0  0  0  0  0  0  0  0  0  0
   -5.2220    0.7425   -0.7082 H   0  0  0  0  0  0  0  0  0  0  0  0
   -2.4556    1.2878    1.1970 C   0  0  0  0  0  0  0  0  0  0  0  0
   -3.6276    1.5408    1.9304 C   0  0  0  0  0  0  0  0  0  0  0  0
   -4.5470    0.9853    1.6920 H   0  0  0  0  0  0  0  0  0  0  0  0
   -3.6234    2.4659    2.9843 C   0  0  0  0  0  0  0  0  0  0  0  0
   -4.5412    2.6453    3.5629 H   0  0  0  0  0  0  0  0  0  0  0  0
   -2.4341    3.1350    3.3164 C   0  0  0  0  0  0  0  0  0  0  0  0
   -2.4129    3.8339    4.1657 H   0  0  0  0  0  0  0  0  0  0  0  0
   -1.2614    2.9018    2.5874 C   0  0  0  0  0  0  0  0  0  0  0  0
   -0.3259    3.3960    2.8868 H   0  0  0  0  0  0  0  0  0  0  0  0
   -1.2635    1.9953    1.5047 C   0  0  0  0  0  0  0  0  0  0  0  0
    0.7401    2.7337    0.5301 C   0  0  0  0  0  3  0  0  0  0  0  0
    0.4380    3.7376    0.8909 H   0  0  0  0  0  0  0  0  0  0  0  0
    2.0269    2.7275   -0.1607 C   0  0  0  0  0  0  0  0  0  0  0  0
    2.5538    4.0160   -0.4342 C   0  0  0  0  0  0  0  0  0  0  0  0
    1.9809    4.8991   -0.1108 H   0  0  0  0  0  0  0  0  0  0  0  0
    3.7649    4.1904   -1.1109 C   0  0  0  0  0  0  0  0  0  0  0  0
    4.1395    5.2032   -1.3182 H   0  0  0  0  0  0  0  0  0  0  0  0
    4.4930    3.0638   -1.5167 C   0  0  0  0  0  0  0  0  0  0  0  0
    5.4497    3.1804   -2.0474 H   0  0  0  0  0  0  0  0  0  0  0  0
    4.0070    1.7756   -1.2342 C   0  0  0  0  0  0  0  0  0  0  0  0
    4.5932    0.8974   -1.5423 H   0  0  0  0  0  0  0  0  0  0  0  0
    2.7867    1.5842   -0.5633 C   0  0  0  0  0  0  0  0  0  0  0  0
    3.2686   -1.2267   -1.1667 C   0  0  0  0  0  0  0  0  0  0  0  0
    3.0766   -1.2198   -2.5668 C   0  0  0  0  0  0  0  0  0  0  0  0
    2.3568   -0.5196   -3.0206 H   0  0  0  0  0  0  0  0  0  0  0  0
    3.8105   -2.0940   -3.3792 C   0  0  0  0  0  0  0  0  0  0  0  0
    3.6628   -2.0810   -4.4693 H   0  0  0  0  0  0  0  0  0  0  0  0
    4.7248   -2.9914   -2.8013 C   0  0  0  0  0  0  0  0  0  0  0  0
    5.2939   -3.6832   -3.4400 H   0  0  0  0  0  0  0  0  0  0  0  0
    4.9092   -3.0078   -1.4103 C   0  0  0  0  0  0  0  0  0  0  0  0
    5.6242   -3.7102   -0.9565 H   0  0  0  0  0  0  0  0  0  0  0  0
    4.1858   -2.1279   -0.5898 C   0  0  0  0  0  0  0  0  0  0  0  0
    4.3345   -2.1416    0.5001 H   0  0  0  0  0  0  0  0  0  0  0  0
    2.7623   -0.3538    1.5873 C   0  0  0  0  0  0  0  0  0  0  0  0
    3.9345    0.2488    2.0890 C   0  0  0  0  0  0  0  0  0  0  0  0
    4.5475    0.8936    1.4411 H   0  0  0  0  0  0  0  0  0  0  0  0
    4.3176    0.0284    3.4201 C   0  0  0  0  0  0  0  0  0  0  0  0
    5.2321    0.4997    3.8100 H   0  0  0  0  0  0  0  0  0  0  0  0
    3.5361   -0.7897    4.2529 C   0  0  0  0  0  0  0  0  0  0  0  0
    3.8399   -0.9592    5.2969 H   0  0  0  0  0  0  0  0  0  0  0  0
    2.3672   -1.3881    3.7560 C   0  0  0  0  0  0  0  0  0  0  0  0
    1.7534   -2.0274    4.4081 H   0  0  0  0  0  0  0  0  0  0  0  0
    1.9749   -1.1703    2.4269 C   0  0  0  0  0  0  0  0  0  0  0  0
    1.0566   -1.6352    2.0331 H   0  0  0  0  0  0  0  0  0  0  0  0
  1  4  1  0  0  0  0
  1 26  1  0  0  0  0
  2 59  1  0  0  0  0
  3 35  1  0  0  0  0
  4  5  1  0  0  0  0
  5  7  2  0  0  0  0
  5  6  1  0  0  0  0
  7  8  1  0  0  0  0
  9 10  1  0  0  0  0
  9  7  1  0  0  0  0
 11  9  2  0  0  0  0
 12 11  1  0  0  0  0
 13 11  1  0  0  0  0
 13  4  2  0  0  0  0
 14 13  1  0  0  0  0
 15 24  1  0  0  0  0
 15  1  1  0  0  0  0
 16 15  2  0  0  0  0
 17 16  1  0  0  0  0
 18 20  2  0  0  0  0
 18 16  1  0  0  0  0
 19 18  1  0  0  0  0
 20 22  1  0  0  0  0
 21 20  1  0  0  0  0
 22 23  1  0  0  0  0
 22 24  2  0  0  0  0
 24 25  1  0  0  0  0
 26 35  2  0  0  0  0
 26 27  1  0  0  0  0
 27 29  2  0  0  0  0
 28 27  1  0  0  0  0
 29 31  1  0  0  0  0
 29 30  1  0  0  0  0
 31 32  1  0  0  0  0
 33 34  1  0  0  0  0
 33 31  2  0  0  0  0
 35 33  1  0  0  0  0
 36  3  1  0  0  0  0
 36 37  1  0  0  0  0
 38 36  1  0  0  0  0
 39 38  1  0  0  0  0
 39 40  1  0  0  0  0
 41 39  2  0  0  0  0
 42 41  1  0  0  0  0
 43 45  2  0  0  0  0
 43 41  1  0  0  0  0
 44 43  1  0  0  0  0
 45 47  1  0  0  0  0
 46 45  1  0  0  0  0
 47 38  2  0  0  0  0
 47  2  1  0  0  0  0
 48 57  1  0  0  0  0
 48  2  1  0  0  0  0
 49 48  2  0  0  0  0
 50 49  1  0  0  0  0
 51 53  2  0  0  0  0
 51 49  1  0  0  0  0
 52 51  1  0  0  0  0
 53 55  1  0  0  0  0
 54 53  1  0  0  0  0
 55 56  1  0  0  0  0
 55 57  2  0  0  0  0
 57 58  1  0  0  0  0
 59 60  2  0  0  0  0
 59 68  1  0  0  0  0
 60 62  1  0  0  0  0
 61 60  1  0  0  0  0
 62 63  1  0  0  0  0
 62 64  2  0  0  0  0
 64 65  1  0  0  0  0
 66 64  1  0  0  0  0
 66 67  1  0  0  0  0
 68 66  2  0  0  0  0
 69 68  1  0  0  0  0
M  END
