1,2,3
q = -1.0

 63 64  0  0  0  0  0  0  0  0999 V2000
   -2.2774   -0.5303    0.1930 P   0  0  0  0  0  0  0  0  0  0  0  0
    2.2774   -0.5301   -0.1930 P   0  0  0  0  0  0  0  0  0  0  0  0
   -0.0002    1.2754   -0.0001 N   0  0  0  0  0  2  0  0  0  0  0  0
   -3.4025   -1.4886   -0.9438 C   0  0  0  0  0  0  0  0  0  0  0  0
   -4.3753   -0.9473   -0.9439 H   0  0  0  0  0  0  0  0  0  0  0  0
   -2.8029   -1.4491   -2.3556 C   0  0  0  0  0  0  0  0  0  0  0  0
   -3.4875   -1.9442   -3.0748 H   0  0  0  0  0  0  0  0  0  0  0  0
   -1.8325   -1.9859   -2.3720 H   0  0  0  0  0  0  0  0  0  0  0  0
   -2.6323   -0.4100   -2.7022 H   0  0  0  0  0  0  0  0  0  0  0  0
   -3.6113   -2.9232   -0.4438 C   0  0  0  0  0  0  0  0  0  0  0  0
   -4.2393   -3.4823   -1.1682 H   0  0  0  0  0  0  0  0  0  0  0  0
   -4.1251   -2.9589    0.5374 H   0  0  0  0  0  0  0  0  0  0  0  0
   -2.6376   -3.4451   -0.3488 H   0  0  0  0  0  0  0  0  0  0  0  0
   -2.9413   -0.6900    1.9322 C   0  0  0  0  0  0  0  0  0  0  0  0
   -2.8395   -1.7777    2.1424 H   0  0  0  0  0  0  0  0  0  0  0  0
   -4.4065   -0.2686    2.0714 C   0  0  0  0  0  0  0  0  0  0  0  0
   -4.7537   -0.4379    3.1121 H   0  0  0  0  0  0  0  0  0  0  0  0
   -5.0791   -0.8389    1.3998 H   0  0  0  0  0  0  0  0  0  0  0  0
   -4.5318    0.8111    1.8511 H   0  0  0  0  0  0  0  0  0  0  0  0
   -2.0144    0.0831    2.8790 C   0  0  0  0  0  0  0  0  0  0  0  0
   -2.3459   -0.0448    3.9300 H   0  0  0  0  0  0  0  0  0  0  0  0
   -2.0239    1.1683    2.6472 H   0  0  0  0  0  0  0  0  0  0  0  0
   -0.9666   -0.2688    2.7945 H   0  0  0  0  0  0  0  0  0  0  0  0
   -2.4145    1.2200   -0.3038 C   0  0  0  0  0  0  0  0  0  0  0  0
   -3.6226    1.8379   -0.6737 C   0  0  0  0  0  0  0  0  0  0  0  0
   -4.5624    1.2669   -0.6168 H   0  0  0  0  0  0  0  0  0  0  0  0
   -3.6447    3.1576   -1.1447 C   0  0  0  0  0  0  0  0  0  0  0  0
   -4.5919    3.6309   -1.4405 H   0  0  0  0  0  0  0  0  0  0  0  0
   -2.4235    3.8446   -1.2695 C   0  0  0  0  0  0  0  0  0  0  0  0
   -2.4088    4.8637   -1.6869 H   0  0  0  0  0  0  0  0  0  0  0  0
   -1.2136    3.2516   -0.8988 C   0  0  0  0  0  0  0  0  0  0  0  0
   -0.2763    3.8018   -1.0532 H   0  0  0  0  0  0  0  0  0  0  0  0
   -1.1700    1.9284   -0.3710 C   0  0  0  0  0  0  0  0  0  0  0  0
    1.1695    1.9286    0.3707 C   0  0  0  0  0  0  0  0  0  0  0  0
    1.2130    3.2520    0.8982 C   0  0  0  0  0  0  0  0  0  0  0  0
    0.2756    3.8020    1.0527 H   0  0  0  0  0  0  0  0  0  0  0  0
    2.4228    3.8453    1.2685 C   0  0  0  0  0  0  0  0  0  0  0  0
    2.4080    4.8645    1.6857 H   0  0  0  0  0  0  0  0  0  0  0  0
    3.6442    3.1584    1.1435 C   0  0  0  0  0  0  0  0  0  0  0  0
    4.5914    3.6320    1.4390 H   0  0  0  0  0  0  0  0  0  0  0  0
    3.6222    1.8387    0.6727 C   0  0  0  0  0  0  0  0  0  0  0  0
    4.5621    1.2678    0.6158 H   0  0  0  0  0  0  0  0  0  0  0  0
    2.4141    1.2205    0.3033 C   0  0  0  0  0  0  0  0  0  0  0  0
    3.4014   -1.4877    0.9454 C   0  0  0  0  0  0  0  0  0  0  0  0
    4.3740   -0.9462    0.9462 H   0  0  0  0  0  0  0  0  0  0  0  0
    2.8004   -1.4475    2.3566 C   0  0  0  0  0  0  0  0  0  0  0  0
    3.4846   -1.9417    3.0768 H   0  0  0  0  0  0  0  0  0  0  0  0
    1.8303   -1.9847    2.3724 H   0  0  0  0  0  0  0  0  0  0  0  0
    2.6290   -0.4083    2.7023 H   0  0  0  0  0  0  0  0  0  0  0  0
    3.6112   -2.9225    0.4465 C   0  0  0  0  0  0  0  0  0  0  0  0
    4.2385   -3.4810    1.1720 H   0  0  0  0  0  0  0  0  0  0  0  0
    4.1260   -2.9588   -0.5341 H   0  0  0  0  0  0  0  0  0  0  0  0
    2.6377   -3.4448    0.3509 H   0  0  0  0  0  0  0  0  0  0  0  0
    2.9427   -0.6910   -1.9315 C   0  0  0  0  0  0  0  0  0  0  0  0
    2.8410   -1.7789   -2.1409 H   0  0  0  0  0  0  0  0  0  0  0  0
    2.0164    0.0813   -2.8795 C   0  0  0  0  0  0  0  0  0  0  0  0
    2.3486   -0.0473   -3.9303 H   0  0  0  0  0  0  0  0  0  0  0  0
    2.0256    1.1667   -2.6486 H   0  0  0  0  0  0  0  0  0  0  0  0
    0.9686   -0.2706   -2.7955 H   0  0  0  0  0  0  0  0  0  0  0  0
    4.4079   -0.2697   -2.0701 C   0  0  0  0  0  0  0  0  0  0  0  0
    4.7560   -0.4404   -3.1103 H   0  0  0  0  0  0  0  0  0  0  0  0
    5.0800   -0.8390   -1.3971 H   0  0  0  0  0  0  0  0  0  0  0  0
    4.5330    0.8103   -1.8511 H   0  0  0  0  0  0  0  0  0  0  0  0
  1 14  1  0  0  0  0
  2 43  1  0  0  0  0
  2 44  1  0  0  0  0
  3 34  1  0  0  0  0
  4 10  1  0  0  0  0
  4  1  1  0  0  0  0
  5  4  1  0  0  0  0
  6  4  1  0  0  0  0
  7  6  1  0  0  0  0
  8  6  1  0  0  0  0
  9  6  1  0  0  0  0
 10 13  1  0  0  0  0
 10 12  1  0  0  0  0
 11 10  1  0  0  0  0
 14 16  1  0  0  0  0
 14 15  1  0  0  0  0
 14 20  1  0  0  0  0
 16 17  1  0  0  0  0
 18 16  1  0  0  0  0
 19 16  1  0  0  0  0
 20 21  1  0  0  0  0
 22 20  1  0  0  0  0
 23 20  1  0  0  0  0
 24  1  1  0  0  0  0
 25 26  1  0  0  0  0
 25 24  2  0  0  0  0
 27 25  1  0  0  0  0
 28 27  1  0  0  0  0
 29 27  2  0  0  0  0
 29 31  1  0  0  0  0
 30 29  1  0  0  0  0
 31 33  2  0  0  0  0
 32 31  1  0  0  0  0
 33 24  1  0  0  0  0
 33  3  1  0  0  0  0
 34 35  1  0  0  0  0
 35 36  1  0  0  0  0
 35 37  2  0  0  0  0
 37 38  1  0  0  0  0
 39 37  1  0  0  0  0
 39 40  1  0  0  0  0
 41 39  2  0  0  0  0
 42 41  1  0  0  0  0
 43 34  2  0  0  0  0
 43 41  1  0  0  0  0
 44 45  1  0  0  0  0
 44 46  1  0  0  0  0
 46 48  1  0  0  0  0
 46 49  1  0  0  0  0
 46 47  1  0  0  0  0
 50 44  1  0  0  0  0
 50 51  1  0  0  0  0
 52 50  1  0  0  0  0
 53 50  1  0  0  0  0
 54  2  1  0  0  0  0
 55 54  1  0  0  0  0
 56 59  1  0  0  0  0
 56 58  1  0  0  0  0
 56 54  1  0  0  0  0
 57 56  1  0  0  0  0
 60 54  1  0  0  0  0
 60 63  1  0  0  0  0
 60 62  1  0  0  0  0
 61 60  1  0  0  0  0
M  END
