1,2,5
q = -1.0

 67 66  0  0  0  0  0  0  0  0999 V2000
    2.7402   -0.2699    0.1113 P   0  0  0  0  0  0  0  0  0  0  0  0
   -2.6896   -0.3558   -0.0843 P   0  0  0  0  0  0  0  0  0  0  0  0
    1.1505    2.2267    1.0495 Si  0  0  0  0  0  0  0  0  0  0  0  0
   -1.2463    2.2598   -0.8035 Si  0  0  0  0  0  0  0  0  0  0  0  0
    0.0348    1.3234    0.0025 N   0  0  0  0  0  2  0  0  0  0  0  0
    2.7288    1.1596    1.2680 C   0  0  0  0  0  0  0  0  0  0  0  0
   -2.7371    1.1099   -1.1890 C   0  0  0  0  0  0  0  0  0  0  0  0
    3.6093    0.2868   -1.4589 C   0  0  0  0  0  0  0  0  0  0  0  0
    3.9400   -1.5007    0.8766 C   0  0  0  0  0  0  0  0  0  0  0  0
   -3.3901    0.2302    1.5560 C   0  0  0  0  0  0  0  0  0  0  0  0
   -3.8996   -1.6539   -0.7182 C   0  0  0  0  0  0  0  0  0  0  0  0
    0.4225    2.5360    2.7650 C   0  0  0  0  0  0  0  0  0  0  0  0
    1.7115    3.8962    0.3349 C   0  0  0  0  0  0  0  0  0  0  0  0
   -1.9516    3.6330    0.3050 C   0  0  0  0  0  0  0  0  0  0  0  0
   -0.6582    3.0077   -2.4326 C   0  0  0  0  0  0  0  0  0  0  0  0
    2.7453    1.2229   -2.3093 C   0  0  0  0  0  0  0  0  0  0  0  0
    5.0038    0.8668   -1.2009 C   0  0  0  0  0  0  0  0  0  0  0  0
    3.3507   -2.1155    2.1517 C   0  0  0  0  0  0  0  0  0  0  0  0
    4.3521   -2.5869   -0.1248 C   0  0  0  0  0  0  0  0  0  0  0  0
   -4.6572    1.0791    1.4155 C   0  0  0  0  0  0  0  0  0  0  0  0
   -3.6011   -0.9467    2.5166 C   0  0  0  0  0  0  0  0  0  0  0  0
   -4.1401   -1.5455   -2.2269 C   0  0  0  0  0  0  0  0  0  0  0  0
   -3.3783   -3.0464   -0.3300 C   0  0  0  0  0  0  0  0  0  0  0  0
    2.6855    0.7195    2.2862 H   0  0  0  0  0  0  0  0  0  0  0  0
    3.6598    1.7604    1.2041 H   0  0  0  0  0  0  0  0  0  0  0  0
   -2.5882    0.7249   -2.2167 H   0  0  0  0  0  0  0  0  0  0  0  0
   -3.7016    1.6566   -1.1543 H   0  0  0  0  0  0  0  0  0  0  0  0
    3.7120   -0.6711   -2.0143 H   0  0  0  0  0  0  0  0  0  0  0  0
    4.8299   -0.8892    1.1494 H   0  0  0  0  0  0  0  0  0  0  0  0
   -2.5622    0.8570    1.9560 H   0  0  0  0  0  0  0  0  0  0  0  0
   -4.8574   -1.4564   -0.1868 H   0  0  0  0  0  0  0  0  0  0  0  0
    1.1922    2.9617    3.4422 H   0  0  0  0  0  0  0  0  0  0  0  0
   -0.4281    3.2446    2.7290 H   0  0  0  0  0  0  0  0  0  0  0  0
    0.0675    1.5777    3.1940 H   0  0  0  0  0  0  0  0  0  0  0  0
    2.2387    3.7881   -0.6336 H   0  0  0  0  0  0  0  0  0  0  0  0
    0.8745    4.6058    0.1855 H   0  0  0  0  0  0  0  0  0  0  0  0
    2.4177    4.3659    1.0515 H   0  0  0  0  0  0  0  0  0  0  0  0
   -1.2151    4.4204    0.5567 H   0  0  0  0  0  0  0  0  0  0  0  0
   -2.7915    4.1234   -0.2307 H   0  0  0  0  0  0  0  0  0  0  0  0
   -2.3487    3.2235    1.2552 H   0  0  0  0  0  0  0  0  0  0  0  0
   -0.3158    2.2006   -3.1104 H   0  0  0  0  0  0  0  0  0  0  0  0
   -1.4812    3.5587   -2.9334 H   0  0  0  0  0  0  0  0  0  0  0  0
    0.1825    3.7121   -2.2745 H   0  0  0  0  0  0  0  0  0  0  0  0
    2.5595    2.1874   -1.7988 H   0  0  0  0  0  0  0  0  0  0  0  0
    3.2675    1.4466   -3.2627 H   0  0  0  0  0  0  0  0  0  0  0  0
    1.7647    0.7725   -2.5514 H   0  0  0  0  0  0  0  0  0  0  0  0
    5.6607    0.1762   -0.6362 H   0  0  0  0  0  0  0  0  0  0  0  0
    5.5047    1.0880   -2.1664 H   0  0  0  0  0  0  0  0  0  0  0  0
    4.9470    1.8217   -0.6387 H   0  0  0  0  0  0  0  0  0  0  0  0
    3.0269   -1.3531    2.8870 H   0  0  0  0  0  0  0  0  0  0  0  0
    2.4719   -2.7457    1.9129 H   0  0  0  0  0  0  0  0  0  0  0  0
    4.1156   -2.7523    2.6426 H   0  0  0  0  0  0  0  0  0  0  0  0
    5.0050   -3.3286    0.3802 H   0  0  0  0  0  0  0  0  0  0  0  0
    3.4620   -3.1267   -0.5068 H   0  0  0  0  0  0  0  0  0  0  0  0
    4.9186   -2.1840   -0.9871 H   0  0  0  0  0  0  0  0  0  0  0  0
   -4.4920    2.0010    0.8259 H   0  0  0  0  0  0  0  0  0  0  0  0
   -5.4812    0.5084    0.9376 H   0  0  0  0  0  0  0  0  0  0  0  0
   -5.0155    1.3883    2.4197 H   0  0  0  0  0  0  0  0  0  0  0  0
   -3.8670   -0.5629    3.5230 H   0  0  0  0  0  0  0  0  0  0  0  0
   -4.4351   -1.5986    2.1844 H   0  0  0  0  0  0  0  0  0  0  0  0
   -2.6853   -1.5593    2.6227 H   0  0  0  0  0  0  0  0  0  0  0  0
   -4.8233   -2.3570   -2.5535 H   0  0  0  0  0  0  0  0  0  0  0  0
   -4.6029   -0.5807   -2.5116 H   0  0  0  0  0  0  0  0  0  0  0  0
   -3.1919   -1.6565   -2.7916 H   0  0  0  0  0  0  0  0  0  0  0  0
   -3.1797   -3.1392    0.7553 H   0  0  0  0  0  0  0  0  0  0  0  0
   -4.1193   -3.8248   -0.6076 H   0  0  0  0  0  0  0  0  0  0  0  0
   -2.4299   -3.2743   -0.8591 H   0  0  0  0  0  0  0  0  0  0  0  0
  1  9  1  0  0  0  0
  1  6  1  0  0  0  0
  2 10  1  0  0  0  0
  3  6  1  0  0  0  0
  3 12  1  0  0  0  0
  4  5  1  0  0  0  0
  4 14  1  0  0  0  0
  5  3  1  0  0  0  0
  6 24  1  0  0  0  0
  7 27  1  0  0  0  0
  7  4  1  0  0  0  0
  7  2  1  0  0  0  0
  8 17  1  0  0  0  0
  8  1  1  0  0  0  0
  9 29  1  0  0  0  0
  9 18  1  0  0  0  0
 10 30  1  0  0  0  0
 10 21  1  0  0  0  0
 11 23  1  0  0  0  0
 11 31  1  0  0  0  0
 11  2  1  0  0  0  0
 12 34  1  0  0  0  0
 12 32  1  0  0  0  0
 13  3  1  0  0  0  0
 13 37  1  0  0  0  0
 14 38  1  0  0  0  0
 14 40  1  0  0  0  0
 15 43  1  0  0  0  0
 15  4  1  0  0  0  0
 16 44  1  0  0  0  0
 16  8  1  0  0  0  0
 17 49  1  0  0  0  0
 17 47  1  0  0  0  0
 18 52  1  0  0  0  0
 18 50  1  0  0  0  0
 19 53  1  0  0  0  0
 19  9  1  0  0  0  0
 20 10  1  0  0  0  0
 20 58  1  0  0  0  0
 21 61  1  0  0  0  0
 21 59  1  0  0  0  0
 22 11  1  0  0  0  0
 23 65  1  0  0  0  0
 25  6  1  0  0  0  0
 26  7  1  0  0  0  0
 28  8  1  0  0  0  0
 33 12  1  0  0  0  0
 35 13  1  0  0  0  0
 36 13  1  0  0  0  0
 39 14  1  0  0  0  0
 41 15  1  0  0  0  0
 42 15  1  0  0  0  0
 45 16  1  0  0  0  0
 46 16  1  0  0  0  0
 48 17  1  0  0  0  0
 51 18  1  0  0  0  0
 54 19  1  0  0  0  0
 55 19  1  0  0  0  0
 56 20  1  0  0  0  0
 57 20  1  0  0  0  0
 60 21  1  0  0  0  0
 62 22  1  0  0  0  0
 63 22  1  0  0  0  0
 64 22  1  0  0  0  0
 66 23  1  0  0  0  0
 67 23  1  0  0  0  0
M  END
