1,2,5
q = -1.0

 43 42  0  0  0  0  0  0  0  0999 V2000
   -1.8518   -1.1837    1.2330 P   0  0  0  0  0  0  0  0  0  0  0  0
    2.4727    0.3033    0.7297 P   0  0  0  0  0  0  0  0  0  0  0  0
   -2.2106    1.4218   -0.2563 Si  0  0  0  0  0  0  0  0  0  0  0  0
    0.5757    2.5721    0.1135 Si  0  0  0  0  0  0  0  0  0  0  0  0
   -0.4532    1.1252   -0.0499 N   0  0  0  0  0  2  0  0  0  0  0  0
   -3.1269   -0.0978    0.4848 C   0  0  0  0  0  0  0  0  0  0  0  0
    2.4094    2.0189    0.0969 C   0  0  0  0  0  0  0  0  0  0  0  0
   -2.6139   -2.8327    1.5005 C   0  0  0  0  0  0  0  0  0  0  0  0
   -1.6131   -0.5102    2.9323 C   0  0  0  0  0  0  0  0  0  0  0  0
    4.1403   -0.3732    0.3676 C   0  0  0  0  0  0  0  0  0  0  0  0
    2.4458    0.4373    2.5670 C   0  0  0  0  0  0  0  0  0  0  0  0
   -2.8543    2.9333    0.6897 C   0  0  0  0  0  0  0  0  0  0  0  0
   -2.6622    1.6105   -2.0760 C   0  0  0  0  0  0  0  0  0  0  0  0
    0.3125    3.4809    1.7599 C   0  0  0  0  0  0  0  0  0  0  0  0
    0.3280    3.7718   -1.3247 C   0  0  0  0  0  0  0  0  0  0  0  0
   -3.5847   -0.6716   -0.3469 H   0  0  0  0  0  0  0  0  0  0  0  0
   -3.9243    0.1888    1.2019 H   0  0  0  0  0  0  0  0  0  0  0  0
    3.0750    2.7244    0.6374 H   0  0  0  0  0  0  0  0  0  0  0  0
    2.7335    1.9586   -0.9632 H   0  0  0  0  0  0  0  0  0  0  0  0
   -1.8725   -3.4868    2.0003 H   0  0  0  0  0  0  0  0  0  0  0  0
   -3.5385   -2.7709    2.1084 H   0  0  0  0  0  0  0  0  0  0  0  0
   -2.8416   -3.2644    0.5065 H   0  0  0  0  0  0  0  0  0  0  0  0
   -0.8386   -1.1085    3.4515 H   0  0  0  0  0  0  0  0  0  0  0  0
   -1.2555    0.5348    2.8481 H   0  0  0  0  0  0  0  0  0  0  0  0
   -2.5531   -0.5315    3.5202 H   0  0  0  0  0  0  0  0  0  0  0  0
    4.2520   -0.4288   -0.7324 H   0  0  0  0  0  0  0  0  0  0  0  0
    4.9417    0.2563    0.8033 H   0  0  0  0  0  0  0  0  0  0  0  0
    4.1985   -1.4006    0.7781 H   0  0  0  0  0  0  0  0  0  0  0  0
    2.5149   -0.5855    2.9864 H   0  0  0  0  0  0  0  0  0  0  0  0
    3.2825    1.0565    2.9489 H   0  0  0  0  0  0  0  0  0  0  0  0
    1.4852    0.8804    2.8925 H   0  0  0  0  0  0  0  0  0  0  0  0
   -2.6653    2.8565    1.7791 H   0  0  0  0  0  0  0  0  0  0  0  0
   -2.4344    3.8925    0.3278 H   0  0  0  0  0  0  0  0  0  0  0  0
   -3.9536    2.9767    0.5389 H   0  0  0  0  0  0  0  0  0  0  0  0
   -3.7574    1.7428   -2.1979 H   0  0  0  0  0  0  0  0  0  0  0  0
   -2.1555    2.4891   -2.5228 H   0  0  0  0  0  0  0  0  0  0  0  0
   -2.3534    0.7078   -2.6399 H   0  0  0  0  0  0  0  0  0  0  0  0
    0.2944    2.7785    2.6180 H   0  0  0  0  0  0  0  0  0  0  0  0
    1.1514    4.1891    1.9245 H   0  0  0  0  0  0  0  0  0  0  0  0
   -0.6270    4.0640    1.7823 H   0  0  0  0  0  0  0  0  0  0  0  0
   -0.6914    4.2067   -1.3437 H   0  0  0  0  0  0  0  0  0  0  0  0
    1.0513    4.6108   -1.2576 H   0  0  0  0  0  0  0  0  0  0  0  0
    0.4963    3.2440   -2.2855 H   0  0  0  0  0  0  0  0  0  0  0  0
  1  8  1  0  0  0  0
  1  9  1  0  0  0  0
  2 11  1  0  0  0  0
  3  5  1  0  0  0  0
  3  6  1  0  0  0  0
  3 12  1  0  0  0  0
  4 14  1  0  0  0  0
  5  4  1  0  0  0  0
  6 17  1  0  0  0  0
  6  1  1  0  0  0  0
  7  4  1  0  0  0  0
  7 18  1  0  0  0  0
  7  2  1  0  0  0  0
  8 20  1  0  0  0  0
  8 21  1  0  0  0  0
  9 23  1  0  0  0  0
  9 25  1  0  0  0  0
 10  2  1  0  0  0  0
 10 28  1  0  0  0  0
 10 27  1  0  0  0  0
 11 31  1  0  0  0  0
 11 30  1  0  0  0  0
 11 29  1  0  0  0  0
 12 32  1  0  0  0  0
 13  3  1  0  0  0  0
 14 40  1  0  0  0  0
 14 39  1  0  0  0  0
 14 38  1  0  0  0  0
 15 42  1  0  0  0  0
 15  4  1  0  0  0  0
 16  6  1  0  0  0  0
 19  7  1  0  0  0  0
 22  8  1  0  0  0  0
 24  9  1  0  0  0  0
 26 10  1  0  0  0  0
 33 12  1  0  0  0  0
 34 12  1  0  0  0  0
 35 13  1  0  0  0  0
 36 13  1  0  0  0  0
 37 13  1  0  0  0  0
 41 15  1  0  0  0  0
 43 15  1  0  0  0  0
M  END
