1,2,3
q = -1.0

 65 64  0  0  0  0  0  0  0  0999 V2000
    2.3500   -0.1111    0.2610 P   0  0  0  0  0  0  0  0  0  0  0  0
   -2.2894   -0.0372    0.2169 P   0  0  0  0  0  0  0  0  0  0  0  0
    0.0162   -0.4621    1.9408 N   0  0  0  0  0  2  0  0  0  0  0  0
    3.3367   -1.4350   -0.6958 C   0  0  0  0  0  0  0  0  0  0  0  0
    3.1473    1.6269    0.1259 C   0  0  0  0  0  0  0  0  0  0  0  0
   -1.1914   -0.9440    2.6088 C   0  0  0  0  0  0  0  0  0  0  0  0
   -1.1159   -0.7756    3.7087 H   0  0  0  0  0  0  0  0  0  0  0  0
   -1.3039   -2.0460    2.4745 H   0  0  0  0  0  0  0  0  0  0  0  0
   -3.1849    1.6268   -0.1083 C   0  0  0  0  0  0  0  0  0  0  0  0
   -3.2487   -1.5015   -0.5509 C   0  0  0  0  0  0  0  0  0  0  0  0
    1.1969   -0.6543    2.5978 C   0  0  0  0  0  0  0  0  0  0  0  0
    1.1276   -0.9203    3.6734 H   0  0  0  0  0  0  0  0  0  0  0  0
    4.4297    1.7672    0.9599 C   0  0  0  0  0  0  0  0  0  0  0  0
    4.2462    1.5122    2.0221 H   0  0  0  0  0  0  0  0  0  0  0  0
    4.7811    2.8213    0.9205 H   0  0  0  0  0  0  0  0  0  0  0  0
    5.2531    1.1304    0.5865 H   0  0  0  0  0  0  0  0  0  0  0  0
    2.4358   -0.5262    2.0059 C   0  0  0  0  0  0  0  0  0  0  0  0
    3.3624   -0.6550    2.5818 H   0  0  0  0  0  0  0  0  0  0  0  0
    3.0209   -1.3259   -2.1974 C   0  0  0  0  0  0  0  0  0  0  0  0
    1.9334   -1.4189   -2.3830 H   0  0  0  0  0  0  0  0  0  0  0  0
    3.5367   -2.1456   -2.7424 H   0  0  0  0  0  0  0  0  0  0  0  0
    3.3582   -0.3692   -2.6379 H   0  0  0  0  0  0  0  0  0  0  0  0
    3.4061    2.0158   -1.3367 C   0  0  0  0  0  0  0  0  0  0  0  0
    4.2353    1.4322   -1.7829 H   0  0  0  0  0  0  0  0  0  0  0  0
    3.6970    3.0875   -1.3871 H   0  0  0  0  0  0  0  0  0  0  0  0
    2.5060    1.8824   -1.9689 H   0  0  0  0  0  0  0  0  0  0  0  0
   -3.4423    1.7971   -1.6151 C   0  0  0  0  0  0  0  0  0  0  0  0
   -2.5244    1.6324   -2.2132 H   0  0  0  0  0  0  0  0  0  0  0  0
   -3.7895    2.8339   -1.8121 H   0  0  0  0  0  0  0  0  0  0  0  0
   -4.2301    1.1129   -1.9858 H   0  0  0  0  0  0  0  0  0  0  0  0
    4.8493   -1.3432   -0.4482 C   0  0  0  0  0  0  0  0  0  0  0  0
    5.2917   -0.4290   -0.8899 H   0  0  0  0  0  0  0  0  0  0  0  0
    5.3548   -2.2137   -0.9198 H   0  0  0  0  0  0  0  0  0  0  0  0
    5.0936   -1.3637    0.6331 H   0  0  0  0  0  0  0  0  0  0  0  0
   -2.4390   -0.2389    2.0708 C   0  0  0  0  0  0  0  0  0  0  0  0
   -2.4865    0.7897    2.4827 H   0  0  0  0  0  0  0  0  0  0  0  0
   -3.3741   -0.7573    2.3668 H   0  0  0  0  0  0  0  0  0  0  0  0
    2.0664    2.5537    0.7207 C   0  0  0  0  0  0  0  0  0  0  0  0
    1.1515    2.5593    0.0910 H   0  0  0  0  0  0  0  0  0  0  0  0
    2.4461    3.5971    0.7719 H   0  0  0  0  0  0  0  0  0  0  0  0
    1.7856    2.2383    1.7465 H   0  0  0  0  0  0  0  0  0  0  0  0
    2.8133   -2.7862   -0.1740 C   0  0  0  0  0  0  0  0  0  0  0  0
    3.0564   -2.9330    0.8960 H   0  0  0  0  0  0  0  0  0  0  0  0
    3.2743   -3.6095   -0.7604 H   0  0  0  0  0  0  0  0  0  0  0  0
    1.7121   -2.8553   -0.2842 H   0  0  0  0  0  0  0  0  0  0  0  0
   -4.4923    1.8082    0.6803 C   0  0  0  0  0  0  0  0  0  0  0  0
   -5.2733    1.0849    0.3835 H   0  0  0  0  0  0  0  0  0  0  0  0
   -4.8948    2.8266    0.4896 H   0  0  0  0  0  0  0  0  0  0  0  0
   -4.3393    1.7201    1.7740 H   0  0  0  0  0  0  0  0  0  0  0  0
   -2.1708    2.7004    0.3378 C   0  0  0  0  0  0  0  0  0  0  0  0
   -1.8968    2.6087    1.4085 H   0  0  0  0  0  0  0  0  0  0  0  0
   -2.6086    3.7106    0.1890 H   0  0  0  0  0  0  0  0  0  0  0  0
   -1.2372    2.6399   -0.2580 H   0  0  0  0  0  0  0  0  0  0  0  0
   -4.7709   -1.4162   -0.3734 C   0  0  0  0  0  0  0  0  0  0  0  0
   -5.0631   -1.2996    0.6901 H   0  0  0  0  0  0  0  0  0  0  0  0
   -5.2368   -2.3557   -0.7414 H   0  0  0  0  0  0  0  0  0  0  0  0
   -5.2164   -0.5834   -0.9509 H   0  0  0  0  0  0  0  0  0  0  0  0
   -2.8779   -1.5854   -2.0432 C   0  0  0  0  0  0  0  0  0  0  0  0
   -3.2231   -0.7073   -2.6198 H   0  0  0  0  0  0  0  0  0  0  0  0
   -3.3492   -2.4875   -2.4883 H   0  0  0  0  0  0  0  0  0  0  0  0
   -1.7809   -1.6658   -2.1720 H   0  0  0  0  0  0  0  0  0  0  0  0
   -2.7281   -2.7725    0.1482 C   0  0  0  0  0  0  0  0  0  0  0  0
   -1.6209   -2.8238    0.1190 H   0  0  0  0  0  0  0  0  0  0  0  0
   -3.1281   -3.6650   -0.3782 H   0  0  0  0  0  0  0  0  0  0  0  0
   -3.0570   -2.8362    1.2042 H   0  0  0  0  0  0  0  0  0  0  0  0
  1 17  1  0  0  0  0
  2 35  1  0  0  0  0
  3 11  1  0  0  0  0
  3  6  1  0  0  0  0
  4 31  1  0  0  0  0
  4 42  1  0  0  0  0
  4  1  1  0  0  0  0
  5  1  1  0  0  0  0
  5 38  1  0  0  0  0
  5 13  1  0  0  0  0
  6  7  1  0  0  0  0
  8  6  1  0  0  0  0
  9  2  1  0  0  0  0
  9 50  1  0  0  0  0
  9 46  1  0  0  0  0
 10 54  1  0  0  0  0
 10 62  1  0  0  0  0
 10  2  1  0  0  0  0
 11 12  1  0  0  0  0
 13 14  1  0  0  0  0
 15 13  1  0  0  0  0
 16 13  1  0  0  0  0
 17 18  1  0  0  0  0
 17 11  2  0  0  0  0
 19  4  1  0  0  0  0
 20 19  1  0  0  0  0
 21 19  1  0  0  0  0
 22 19  1  0  0  0  0
 23  5  1  0  0  0  0
 24 23  1  0  0  0  0
 25 23  1  0  0  0  0
 26 23  1  0  0  0  0
 27  9  1  0  0  0  0
 28 27  1  0  0  0  0
 29 27  1  0  0  0  0
 30 27  1  0  0  0  0
 31 34  1  0  0  0  0
 32 31  1  0  0  0  0
 33 31  1  0  0  0  0
 35 37  1  0  0  0  0
 35 36  1  0  0  0  0
 35  6  1  0  0  0  0
 38 40  1  0  0  0  0
 38 41  1  0  0  0  0
 39 38  1  0  0  0  0
 42 43  1  0  0  0  0
 44 42  1  0  0  0  0
 45 42  1  0  0  0  0
 46 49  1  0  0  0  0
 47 46  1  0  0  0  0
 48 46  1  0  0  0  0
 50 51  1  0  0  0  0
 52 50  1  0  0  0  0
 53 50  1  0  0  0  0
 54 55  1  0  0  0  0
 56 54  1  0  0  0  0
 57 54  1  0  0  0  0
 58 10  1  0  0  0  0
 59 58  1  0  0  0  0
 60 58  1  0  0  0  0
 61 58  1  0  0  0  0
 62 65  1  0  0  0  0
 63 62  1  0  0  0  0
 64 62  1  0  0  0  0
M  END
