1,2,3
q = -1.0, confidence = 0.004

 67 67  0  0  0  0  0  0  0  0999 V2000
    2.2632    0.0517   -0.1290 P   0  0  0  0  0  0  0  0  0  0  0  0
   -2.2518    0.0532    0.0963 P   0  0  0  0  0  0  0  0  0  0  0  0
    0.0082    1.5663   -0.5759 N   0  0  0  0  0  0  0  0  0  0  0  0
   -1.0571    2.4523   -0.4368 C   0  0  0  0  0  3  0  0  0  0  0  0
    3.5166   -1.2139   -0.8184 C   0  0  0  0  0  0  0  0  0  0  0  0
    2.7947    0.6819    1.6109 C   0  0  0  0  0  0  0  0  0  0  0  0
    1.1120    2.3023   -1.0066 C   0  0  0  0  0  0  0  0  0  0  0  0
    3.3535   -1.2636   -2.3523 C   0  0  0  0  0  0  0  0  0  0  0  0
    2.3057   -1.4242   -2.6669 H   0  0  0  0  0  0  0  0  0  0  0  0
    3.9475   -2.1191   -2.7380 H   0  0  0  0  0  0  0  0  0  0  0  0
    3.7409   -0.3502   -2.8442 H   0  0  0  0  0  0  0  0  0  0  0  0
    2.3862    1.5538   -1.2353 C   0  0  0  0  0  0  0  0  0  0  0  0
    3.2919    2.1644   -1.0496 H   0  0  0  0  0  0  0  0  0  0  0  0
    2.4541    1.1700   -2.2750 H   0  0  0  0  0  0  0  0  0  0  0  0
    3.1081   -0.5171    2.5238 C   0  0  0  0  0  0  0  0  0  0  0  0
    2.2752   -1.2465    2.5497 H   0  0  0  0  0  0  0  0  0  0  0  0
    3.2603   -0.1471    3.5602 H   0  0  0  0  0  0  0  0  0  0  0  0
    4.0312   -1.0514    2.2292 H   0  0  0  0  0  0  0  0  0  0  0  0
    1.5674    1.4171    2.1908 C   0  0  0  0  0  0  0  0  0  0  0  0
    1.2915    2.3113    1.5999 H   0  0  0  0  0  0  0  0  0  0  0  0
    1.7996    1.7391    3.2291 H   0  0  0  0  0  0  0  0  0  0  0  0
    0.6798    0.7521    2.2390 H   0  0  0  0  0  0  0  0  0  0  0  0
   -0.6341    3.7362   -0.7715 C   0  0  0  0  0  0  0  0  0  0  0  0
   -1.2419    4.6490   -0.7421 H   0  0  0  0  0  0  0  0  0  0  0  0
    4.9756   -0.8426   -0.5046 C   0  0  0  0  0  0  0  0  0  0  0  0
    5.2348    0.1699   -0.8744 H   0  0  0  0  0  0  0  0  0  0  0  0
    5.6478   -1.5629   -1.0181 H   0  0  0  0  0  0  0  0  0  0  0  0
    5.2094   -0.8911    0.5755 H   0  0  0  0  0  0  0  0  0  0  0  0
    3.1747   -2.6037   -0.2481 C   0  0  0  0  0  0  0  0  0  0  0  0
    3.1994   -2.6358    0.8564 H   0  0  0  0  0  0  0  0  0  0  0  0
    3.9149   -3.3410   -0.6254 H   0  0  0  0  0  0  0  0  0  0  0  0
    2.1716   -2.9370   -0.5740 H   0  0  0  0  0  0  0  0  0  0  0  0
    0.7534    3.6410   -1.1318 C   0  0  0  0  0  0  0  0  0  0  0  0
    1.4052    4.4615   -1.4563 H   0  0  0  0  0  0  0  0  0  0  0  0
    3.9763    1.6634    1.5783 C   0  0  0  0  0  0  0  0  0  0  0  0
    4.8967    1.2227    1.1539 H   0  0  0  0  0  0  0  0  0  0  0  0
    4.2088    1.9802    2.6179 H   0  0  0  0  0  0  0  0  0  0  0  0
    3.7291    2.5807    1.0091 H   0  0  0  0  0  0  0  0  0  0  0  0
   -3.1121   -0.4123    1.7459 C   0  0  0  0  0  0  0  0  0  0  0  0
   -3.3160   -0.4266   -1.4234 C   0  0  0  0  0  0  0  0  0  0  0  0
   -2.3478    1.9280    0.1075 C   0  0  0  0  0  0  0  0  0  0  0  0
   -3.2357    2.2928   -0.4502 H   0  0  0  0  0  0  0  0  0  0  0  0
   -2.4974    2.2413    1.1634 H   0  0  0  0  0  0  0  0  0  0  0  0
   -2.6608    0.2912   -2.6223 C   0  0  0  0  0  0  0  0  0  0  0  0
   -2.6897    1.3943   -2.5262 H   0  0  0  0  0  0  0  0  0  0  0  0
   -3.2146    0.0168   -3.5451 H   0  0  0  0  0  0  0  0  0  0  0  0
   -1.6053   -0.0078   -2.7579 H   0  0  0  0  0  0  0  0  0  0  0  0
   -2.1058   -0.0406    2.8555 C   0  0  0  0  0  0  0  0  0  0  0  0
   -1.1963   -0.6677    2.8166 H   0  0  0  0  0  0  0  0  0  0  0  0
   -2.5828   -0.2052    3.8450 H   0  0  0  0  0  0  0  0  0  0  0  0
   -1.7995    1.0244    2.8117 H   0  0  0  0  0  0  0  0  0  0  0  0
   -3.2692   -1.9474   -1.6570 C   0  0  0  0  0  0  0  0  0  0  0  0
   -2.2387   -2.3232   -1.7800 H   0  0  0  0  0  0  0  0  0  0  0  0
   -3.8194   -2.1792   -2.5939 H   0  0  0  0  0  0  0  0  0  0  0  0
   -3.7547   -2.5140   -0.8413 H   0  0  0  0  0  0  0  0  0  0  0  0
   -3.3741   -1.9268    1.7977 C   0  0  0  0  0  0  0  0  0  0  0  0
   -4.1990   -2.2270    1.1231 H   0  0  0  0  0  0  0  0  0  0  0  0
   -3.6741   -2.2103    2.8290 H   0  0  0  0  0  0  0  0  0  0  0  0
   -2.4724   -2.5152    1.5401 H   0  0  0  0  0  0  0  0  0  0  0  0
   -4.7819    0.0207   -1.3088 C   0  0  0  0  0  0  0  0  0  0  0  0
   -5.3463   -0.5855   -0.5747 H   0  0  0  0  0  0  0  0  0  0  0  0
   -5.2762   -0.1183   -2.2939 H   0  0  0  0  0  0  0  0  0  0  0  0
   -4.8874    1.0898   -1.0370 H   0  0  0  0  0  0  0  0  0  0  0  0
   -4.4215    0.3549    2.0021 C   0  0  0  0  0  0  0  0  0  0  0  0
   -4.2800    1.4533    1.9826 H   0  0  0  0  0  0  0  0  0  0  0  0
   -4.7959    0.0928    3.0149 H   0  0  0  0  0  0  0  0  0  0  0  0
   -5.2171    0.0978    1.2813 H   0  0  0  0  0  0  0  0  0  0  0  0
  1  6  1  0  0  0  0
  2 41  1  0  0  0  0
  2 39  1  0  0  0  0
  3  4  1  0  0  0  0
  4 41  1  0  0  0  0
  5 25  1  0  0  0  0
  5 29  1  0  0  0  0
  5  1  1  0  0  0  0
  6 19  1  0  0  0  0
  6 15  1  0  0  0  0
  7  3  2  0  0  0  0
  8  5  1  0  0  0  0
  9  8  1  0  0  0  0
 10  8  1  0  0  0  0
 11  8  1  0  0  0  0
 12 13  1  0  0  0  0
 12  7  1  0  0  0  0
 12  1  1  0  0  0  0
 14 12  1  0  0  0  0
 15 16  1  0  0  0  0
 15 17  1  0  0  0  0
 18 15  1  0  0  0  0
 19 22  1  0  0  0  0
 19 21  1  0  0  0  0
 20 19  1  0  0  0  0
 23 24  1  0  0  0  0
 23  4  1  0  0  0  0
 25 28  1  0  0  0  0
 26 25  1  0  0  0  0
 27 25  1  0  0  0  0
 29 30  1  0  0  0  0
 31 29  1  0  0  0  0
 32 29  1  0  0  0  0
 33  7  1  0  0  0  0
 33 23  2  0  0  0  0
 34 33  1  0  0  0  0
 35  6  1  0  0  0  0
 35 37  1  0  0  0  0
 36 35  1  0  0  0  0
 38 35  1  0  0  0  0
 39 56  1  0  0  0  0
 39 64  1  0  0  0  0
 39 48  1  0  0  0  0
 40 60  1  0  0  0  0
 40  2  1  0  0  0  0
 41 43  1  0  0  0  0
 42 41  1  0  0  0  0
 44 45  1  0  0  0  0
 44 40  1  0  0  0  0
 46 44  1  0  0  0  0
 47 44  1  0  0  0  0
 48 50  1  0  0  0  0
 49 48  1  0  0  0  0
 51 48  1  0  0  0  0
 52 40  1  0  0  0  0
 52 55  1  0  0  0  0
 53 52  1  0  0  0  0
 54 52  1  0  0  0  0
 56 58  1  0  0  0  0
 57 56  1  0  0  0  0
 59 56  1  0  0  0  0
 60 63  1  0  0  0  0
 60 61  1  0  0  0  0
 62 60  1  0  0  0  0
 64 66  1  0  0  0  0
 65 64  1  0  0  0  0
 67 64  1  0  0  0  0
M  END
