1,2,3
q = -1.0

 76 78  0  0  0  0  0  0  0  0999 V2000
    2.1560   -1.2249    0.0355 P   0  0  0  0  0  0  0  0  0  0  0  0
   -2.1557   -1.2256   -0.0355 P   0  0  0  0  0  0  0  0  0  0  0  0
   -0.0002    0.5761    0.0006 N   0  0  0  0  0  2  0  0  0  0  0  0
   -3.7361    2.6198    0.2326 C   0  0  0  0  0  0  0  0  0  0  0  0
   -1.2598    2.7205    0.0718 C   0  0  0  0  0  0  0  0  0  0  0  0
    2.4172    0.5713   -0.0749 C   0  0  0  0  0  0  0  0  0  0  0  0
   -1.1911    1.2969    0.0449 C   0  0  0  0  0  0  0  0  0  0  0  0
    3.6571    1.2189   -0.1820 C   0  0  0  0  0  0  0  0  0  0  0  0
    4.5840    0.6260   -0.2354 H   0  0  0  0  0  0  0  0  0  0  0  0
   -2.4176    0.5705    0.0746 C   0  0  0  0  0  0  0  0  0  0  0  0
    1.2587    2.7209   -0.0716 C   0  0  0  0  0  0  0  0  0  0  0  0
    1.1905    1.2973   -0.0445 C   0  0  0  0  0  0  0  0  0  0  0  0
    2.5190    3.3318   -0.1647 C   0  0  0  0  0  0  0  0  0  0  0  0
    2.5652    4.4329   -0.1923 H   0  0  0  0  0  0  0  0  0  0  0  0
    3.1854   -1.9684   -1.3358 C   0  0  0  0  0  0  0  0  0  0  0  0
    4.1974   -1.5165   -1.2344 H   0  0  0  0  0  0  0  0  0  0  0  0
   -3.6577    1.2178    0.1807 C   0  0  0  0  0  0  0  0  0  0  0  0
   -4.5845    0.6246    0.2335 H   0  0  0  0  0  0  0  0  0  0  0  0
   -2.5203    3.3310    0.1639 C   0  0  0  0  0  0  0  0  0  0  0  0
   -2.5668    4.4321    0.1917 H   0  0  0  0  0  0  0  0  0  0  0  0
   -0.0006    3.5923    0.0015 C   0  0  0  0  0  0  0  0  0  0  0  0
    3.7350    2.6209   -0.2342 C   0  0  0  0  0  0  0  0  0  0  0  0
   -0.0789    4.4877   -1.2616 C   0  0  0  0  0  0  0  0  0  0  0  0
   -0.1302    3.8653   -2.1766 H   0  0  0  0  0  0  0  0  0  0  0  0
    0.8093    5.1461   -1.3419 H   0  0  0  0  0  0  0  0  0  0  0  0
   -0.9777    5.1359   -1.2354 H   0  0  0  0  0  0  0  0  0  0  0  0
   -5.0538    3.3424    0.3587 C   0  0  0  0  0  0  0  0  0  0  0  0
   -5.1167    3.9201    1.3058 H   0  0  0  0  0  0  0  0  0  0  0  0
   -5.9070    2.6361    0.3429 H   0  0  0  0  0  0  0  0  0  0  0  0
   -5.2045    4.0689   -0.4678 H   0  0  0  0  0  0  0  0  0  0  0  0
    5.0523    3.3439   -0.3616 C   0  0  0  0  0  0  0  0  0  0  0  0
    5.2023    4.0727    0.4629 H   0  0  0  0  0  0  0  0  0  0  0  0
    5.1153    3.9191   -1.3103 H   0  0  0  0  0  0  0  0  0  0  0  0
    5.9059    2.6381   -0.3437 H   0  0  0  0  0  0  0  0  0  0  0  0
    2.9082   -1.8027    1.6522 C   0  0  0  0  0  0  0  0  0  0  0  0
    2.7016   -2.8964    1.6413 H   0  0  0  0  0  0  0  0  0  0  0  0
    2.1111   -1.1689    2.7989 C   0  0  0  0  0  0  0  0  0  0  0  0
    2.4535   -1.5644    3.7778 H   0  0  0  0  0  0  0  0  0  0  0  0
    1.0275   -1.3776    2.6877 H   0  0  0  0  0  0  0  0  0  0  0  0
    2.2408   -0.0669    2.8087 H   0  0  0  0  0  0  0  0  0  0  0  0
    0.0777    4.4828    1.2682 C   0  0  0  0  0  0  0  0  0  0  0  0
   -0.8107    5.1406    1.3512 H   0  0  0  0  0  0  0  0  0  0  0  0
    0.9765    5.1311    1.2444 H   0  0  0  0  0  0  0  0  0  0  0  0
    0.1292    3.8568    2.1807 H   0  0  0  0  0  0  0  0  0  0  0  0
   -3.1874   -1.9698    1.3335 C   0  0  0  0  0  0  0  0  0  0  0  0
   -4.1994   -1.5181    1.2305 H   0  0  0  0  0  0  0  0  0  0  0  0
    2.5814   -1.5370   -2.6775 C   0  0  0  0  0  0  0  0  0  0  0  0
    3.2007   -1.9097   -3.5197 H   0  0  0  0  0  0  0  0  0  0  0  0
    2.5132   -0.4339   -2.7588 H   0  0  0  0  0  0  0  0  0  0  0  0
    1.5571   -1.9484   -2.7904 H   0  0  0  0  0  0  0  0  0  0  0  0
    3.2979   -3.4914   -1.2098 C   0  0  0  0  0  0  0  0  0  0  0  0
    2.3012   -3.9756   -1.2279 H   0  0  0  0  0  0  0  0  0  0  0  0
    3.8074   -3.8022   -0.2761 H   0  0  0  0  0  0  0  0  0  0  0  0
    3.8858   -3.8981   -2.0590 H   0  0  0  0  0  0  0  0  0  0  0  0
    4.4137   -1.5679    1.7901 C   0  0  0  0  0  0  0  0  0  0  0  0
    4.6451   -0.4844    1.8224 H   0  0  0  0  0  0  0  0  0  0  0  0
    4.9960   -2.0216    0.9630 H   0  0  0  0  0  0  0  0  0  0  0  0
    4.7824   -2.0129    2.7383 H   0  0  0  0  0  0  0  0  0  0  0  0
   -2.9048   -1.8027   -1.6540 C   0  0  0  0  0  0  0  0  0  0  0  0
   -2.6980   -2.8963   -1.6435 H   0  0  0  0  0  0  0  0  0  0  0  0
   -2.1058   -1.1679   -2.7989 C   0  0  0  0  0  0  0  0  0  0  0  0
   -2.4460   -1.5631   -3.7786 H   0  0  0  0  0  0  0  0  0  0  0  0
   -1.0222   -1.3761   -2.6856 H   0  0  0  0  0  0  0  0  0  0  0  0
   -2.2359   -0.0660   -2.8083 H   0  0  0  0  0  0  0  0  0  0  0  0
   -3.2994   -3.4928    1.2067 C   0  0  0  0  0  0  0  0  0  0  0  0
   -2.3026   -3.9767    1.2265 H   0  0  0  0  0  0  0  0  0  0  0  0
   -3.8070   -3.8033    0.2718 H   0  0  0  0  0  0  0  0  0  0  0  0
   -3.8889   -3.8999    2.0545 H   0  0  0  0  0  0  0  0  0  0  0  0
   -2.5859   -1.5388    2.6764 C   0  0  0  0  0  0  0  0  0  0  0  0
   -3.2064   -1.9122    3.5174 H   0  0  0  0  0  0  0  0  0  0  0  0
   -2.5183   -0.4357    2.7583 H   0  0  0  0  0  0  0  0  0  0  0  0
   -1.5616   -1.9497    2.7908 H   0  0  0  0  0  0  0  0  0  0  0  0
   -4.4101   -1.5680   -1.7945 C   0  0  0  0  0  0  0  0  0  0  0  0
   -4.6416   -0.4844   -1.8259 H   0  0  0  0  0  0  0  0  0  0  0  0
   -4.9938   -2.0227   -0.9690 H   0  0  0  0  0  0  0  0  0  0  0  0
   -4.7770   -2.0119   -2.7438 H   0  0  0  0  0  0  0  0  0  0  0  0
  1 35  1  0  0  0  0
  2 10  1  0  0  0  0
  2 45  1  0  0  0  0
  3  7  1  0  0  0  0
  4 27  1  0  0  0  0
  5 19  1  0  0  0  0
  6 12  1  0  0  0  0
  6  1  1  0  0  0  0
  7  5  2  0  0  0  0
  7 10  1  0  0  0  0
  8  6  2  0  0  0  0
  9  8  1  0  0  0  0
 10 17  2  0  0  0  0
 11 12  2  0  0  0  0
 11 21  1  0  0  0  0
 12  3  1  0  0  0  0
 13 11  1  0  0  0  0
 14 13  1  0  0  0  0
 15 16  1  0  0  0  0
 15 51  1  0  0  0  0
 15  1  1  0  0  0  0
 17  4  1  0  0  0  0
 17 18  1  0  0  0  0
 19 20  1  0  0  0  0
 19  4  2  0  0  0  0
 21  5  1  0  0  0  0
 21 41  1  0  0  0  0
 22  8  1  0  0  0  0
 22 13  2  0  0  0  0
 23 26  1  0  0  0  0
 23 21  1  0  0  0  0
 24 23  1  0  0  0  0
 25 23  1  0  0  0  0
 27 28  1  0  0  0  0
 29 27  1  0  0  0  0
 30 27  1  0  0  0  0
 31 34  1  0  0  0  0
 31 22  1  0  0  0  0
 31 32  1  0  0  0  0
 33 31  1  0  0  0  0
 35 55  1  0  0  0  0
 35 37  1  0  0  0  0
 36 35  1  0  0  0  0
 37 40  1  0  0  0  0
 37 38  1  0  0  0  0
 39 37  1  0  0  0  0
 41 42  1  0  0  0  0
 41 44  1  0  0  0  0
 43 41  1  0  0  0  0
 45 69  1  0  0  0  0
 46 45  1  0  0  0  0
 47 15  1  0  0  0  0
 48 47  1  0  0  0  0
 49 47  1  0  0  0  0
 50 47  1  0  0  0  0
 51 53  1  0  0  0  0
 52 51  1  0  0  0  0
 54 51  1  0  0  0  0
 55 56  1  0  0  0  0
 55 58  1  0  0  0  0
 57 55  1  0  0  0  0
 59 60  1  0  0  0  0
 59  2  1  0  0  0  0
 61 63  1  0  0  0  0
 61 59  1  0  0  0  0
 62 61  1  0  0  0  0
 64 61  1  0  0  0  0
 65 66  1  0  0  0  0
 65 45  1  0  0  0  0
 65 68  1  0  0  0  0
 67 65  1  0  0  0  0
 69 71  1  0  0  0  0
 69 72  1  0  0  0  0
 69 70  1  0  0  0  0
 73 59  1  0  0  0  0
 73 75  1  0  0  0  0
 74 73  1  0  0  0  0
 76 73  1  0  0  0  0
M  END
