1,2,3
q = -1.0, confidence = 0.0

 54 54  0  0  1  0  0  0  0  0999 V2000
   -2.2237   -0.1088   -0.0754 P   0  0  0  0  0  0  0  0  0  0  0  0
    2.2489   -0.0541   -0.0761 P   0  0  0  0  0  0  0  0  0  0  0  0
    0.0180    1.6621   -0.1258 N   0  0  0  0  0  2  0  0  0  0  0  0
    0.0693    4.4450   -0.2257 C   0  0  0  0  0  0  0  0  0  0  0  0
    0.0839    5.5454   -0.2651 H   0  0  0  0  0  0  0  0  0  0  0  0
   -1.1698    3.7706   -0.2133 C   0  0  0  0  0  0  0  0  0  0  0  0
   -2.1270    4.3079   -0.2430 H   0  0  0  0  0  0  0  0  0  0  0  0
   -1.1412    2.3699   -0.1632 C   0  0  1  0  0  3  0  0  0  0  0  0
   -2.3142    1.6161   -0.1538 N   0  0  0  0  0  0  0  0  0  0  0  0
   -3.1932    2.1355   -0.1777 H   0  0  0  0  0  0  0  0  0  0  0  0
   -3.1836   -0.6456   -1.5977 C   0  0  0  0  0  0  0  0  0  0  0  0
   -2.5304   -0.2759   -2.4165 H   0  0  0  0  0  0  0  0  0  0  0  0
   -3.2684   -2.1733   -1.6983 C   0  0  0  0  0  0  0  0  0  0  0  0
   -3.9506   -2.5961   -0.9325 H   0  0  0  0  0  0  0  0  0  0  0  0
   -2.2786   -2.6568   -1.5799 H   0  0  0  0  0  0  0  0  0  0  0  0
   -3.6696   -2.4660   -2.6903 H   0  0  0  0  0  0  0  0  0  0  0  0
   -4.5530    0.0244   -1.7420 C   0  0  0  0  0  0  0  0  0  0  0  0
   -5.0134   -0.2630   -2.7099 H   0  0  0  0  0  0  0  0  0  0  0  0
   -4.4804    1.1306   -1.7358 H   0  0  0  0  0  0  0  0  0  0  0  0
   -5.2597   -0.2856   -0.9444 H   0  0  0  0  0  0  0  0  0  0  0  0
   -3.3472   -0.6093    1.3513 C   0  0  0  0  0  0  0  0  0  0  0  0
   -4.3653   -0.6851    0.9098 H   0  0  0  0  0  0  0  0  0  0  0  0
   -3.3779    0.4435    2.4648 C   0  0  0  0  0  0  0  0  0  0  0  0
   -4.0462    0.0995    3.2814 H   0  0  0  0  0  0  0  0  0  0  0  0
   -3.7530    1.4232    2.1120 H   0  0  0  0  0  0  0  0  0  0  0  0
   -2.3743    0.6055    2.9032 H   0  0  0  0  0  0  0  0  0  0  0  0
   -2.9456   -1.9934    1.8833 C   0  0  0  0  0  0  0  0  0  0  0  0
   -1.9760   -1.9515    2.4160 H   0  0  0  0  0  0  0  0  0  0  0  0
   -2.8491   -2.7521    1.0833 H   0  0  0  0  0  0  0  0  0  0  0  0
   -3.7082   -2.3551    2.6037 H   0  0  0  0  0  0  0  0  0  0  0  0
    1.2631    3.7424   -0.1903 C   0  0  0  0  0  0  0  0  0  0  0  0
    2.2399    4.2419   -0.2012 H   0  0  0  0  0  0  0  0  0  0  0  0
    1.2607    2.3085   -0.1385 C   0  0  0  0  0  0  0  0  0  0  0  0
    2.4019    1.6168   -0.1052 N   0  0  0  0  0  2  0  0  0  0  0  0
    3.1686   -0.6201   -1.6140 C   0  0  0  0  0  0  0  0  0  0  0  0
    2.5278   -0.2056   -2.4211 H   0  0  0  0  0  0  0  0  0  0  0  0
    3.2271   -2.1424   -1.7645 C   0  0  0  0  0  0  0  0  0  0  0  0
    3.6432   -2.4126   -2.7575 H   0  0  0  0  0  0  0  0  0  0  0  0
    2.2288   -2.6160   -1.6787 H   0  0  0  0  0  0  0  0  0  0  0  0
    3.8880   -2.6008   -1.0002 H   0  0  0  0  0  0  0  0  0  0  0  0
    4.5443    0.0456   -1.7252 C   0  0  0  0  0  0  0  0  0  0  0  0
    5.2662   -0.3740   -0.9937 H   0  0  0  0  0  0  0  0  0  0  0  0
    4.4662    1.1360   -1.5496 H   0  0  0  0  0  0  0  0  0  0  0  0
    4.9692   -0.1260   -2.7363 H   0  0  0  0  0  0  0  0  0  0  0  0
    3.3440   -0.6689    1.3287 C   0  0  0  0  0  0  0  0  0  0  0  0
    4.3467   -0.7560    0.8558 H   0  0  0  0  0  0  0  0  0  0  0  0
    3.4404    0.3697    2.4504 C   0  0  0  0  0  0  0  0  0  0  0  0
    2.4745    0.4922    2.9783 H   0  0  0  0  0  0  0  0  0  0  0  0
    3.7344    1.3582    2.0499 H   0  0  0  0  0  0  0  0  0  0  0  0
    4.1915    0.0443    3.2006 H   0  0  0  0  0  0  0  0  0  0  0  0
    2.9261   -2.0539    1.8364 C   0  0  0  0  0  0  0  0  0  0  0  0
    3.6894   -2.4450    2.5413 H   0  0  0  0  0  0  0  0  0  0  0  0
    2.8079   -2.7945    1.0221 H   0  0  0  0  0  0  0  0  0  0  0  0
    1.9651   -2.0103    2.3851 H   0  0  0  0  0  0  0  0  0  0  0  0
  1 21  1  0  0  0  0
  2 45  1  0  0  0  0
  4  6  2  0  0  0  0
  4 31  1  0  0  0  0
  5  4  1  0  0  0  0
  6  8  1  0  0  0  0
  7  6  1  0  0  0  0
  8  9  1  6  0  0  0
  8  3  1  0  0  0  0
  9  1  1  0  0  0  0
 10  9  1  0  0  0  0
 11  1  1  0  0  0  0
 12 11  1  0  0  0  0
 13 11  1  0  0  0  0
 13 15  1  0  0  0  0
 13 14  1  0  0  0  0
 16 13  1  0  0  0  0
 17 19  1  0  0  0  0
 17 11  1  0  0  0  0
 17 20  1  0  0  0  0
 18 17  1  0  0  0  0
 21 27  1  0  0  0  0
 21 23  1  0  0  0  0
 22 21  1  0  0  0  0
 23 26  1  0  0  0  0
 23 24  1  0  0  0  0
 25 23  1  0  0  0  0
 27 28  1  0  0  0  0
 27 30  1  0  0  0  0
 29 27  1  0  0  0  0
 31 33  2  0  0  0  0
 32 31  1  0  0  0  0
 33  3  1  0  0  0  0
 33 34  1  0  0  0  0
 34  2  1  0  0  0  0
 35  2  1  0  0  0  0
 36 35  1  0  0  0  0
 37 39  1  0  0  0  0
 37 35  1  0  0  0  0
 37 40  1  0  0  0  0
 38 37  1  0  0  0  0
 41 35  1  0  0  0  0
 41 43  1  0  0  0  0
 41 42  1  0  0  0  0
 44 41  1  0  0  0  0
 45 51  1  0  0  0  0
 45 47  1  0  0  0  0
 46 45  1  0  0  0  0
 47 48  1  0  0  0  0
 47 50  1  0  0  0  0
 49 47  1  0  0  0  0
 51 54  1  0  0  0  0
 51 52  1  0  0  0  0
 53 51  1  0  0  0  0
M  END
