1,2,3
q = -1.0

 59 58  0  0  0  0  0  0  0  0999 V2000
   -2.2851    0.0361    0.0580 P   0  0  0  0  0  0  0  0  0  0  0  0
    2.2851    0.0362    0.0580 P   0  0  0  0  0  0  0  0  0  0  0  0
   -0.0000   -0.6291    1.8768 N   0  0  0  0  0  0  0  0  0  0  0  0
   -3.0309    1.7522   -0.1154 C   0  0  0  0  0  0  0  0  0  0  0  0
   -4.1260    1.6218    0.0320 H   0  0  0  0  0  0  0  0  0  0  0  0
    1.2113   -0.2074    2.6192 C   0  0  0  0  0  0  0  0  0  0  0  0
    1.2537   -0.7480    3.5942 H   0  0  0  0  0  0  0  0  0  0  0  0
    1.1026    0.8741    2.8518 H   0  0  0  0  0  0  0  0  0  0  0  0
   -3.5159   -1.0351   -0.8779 C   0  0  0  0  0  0  0  0  0  0  0  0
   -3.5811   -0.5255   -1.8651 H   0  0  0  0  0  0  0  0  0  0  0  0
    2.5111   -0.4414    1.8486 C   0  0  0  0  0  0  0  0  0  0  0  0
    2.7611   -1.5202    1.8467 H   0  0  0  0  0  0  0  0  0  0  0  0
    3.3546    0.0996    2.3233 H   0  0  0  0  0  0  0  0  0  0  0  0
    3.0309    1.7522   -0.1154 C   0  0  0  0  0  0  0  0  0  0  0  0
    4.1259    1.6219    0.0324 H   0  0  0  0  0  0  0  0  0  0  0  0
   -2.5017    2.7134    0.9530 C   0  0  0  0  0  0  0  0  0  0  0  0
   -2.7712    2.3963    1.9801 H   0  0  0  0  0  0  0  0  0  0  0  0
   -2.9246    3.7276    0.7965 H   0  0  0  0  0  0  0  0  0  0  0  0
   -1.3963    2.7899    0.8912 H   0  0  0  0  0  0  0  0  0  0  0  0
    2.5014    2.7136    0.9529 C   0  0  0  0  0  0  0  0  0  0  0  0
    1.3959    2.7899    0.8907 H   0  0  0  0  0  0  0  0  0  0  0  0
    2.9242    3.7277    0.7964 H   0  0  0  0  0  0  0  0  0  0  0  0
    2.7706    2.3966    1.9800 H   0  0  0  0  0  0  0  0  0  0  0  0
    3.5159   -1.0351   -0.8778 C   0  0  0  0  0  0  0  0  0  0  0  0
    3.5813   -0.5253   -1.8649 H   0  0  0  0  0  0  0  0  0  0  0  0
    2.7682    2.2903   -1.5267 C   0  0  0  0  0  0  0  0  0  0  0  0
    3.1546    1.6184   -2.3192 H   0  0  0  0  0  0  0  0  0  0  0  0
    3.2543    3.2791   -1.6593 H   0  0  0  0  0  0  0  0  0  0  0  0
    1.6786    2.4116   -1.6920 H   0  0  0  0  0  0  0  0  0  0  0  0
   -2.9524   -2.4415   -1.1058 C   0  0  0  0  0  0  0  0  0  0  0  0
   -1.9631   -2.4044   -1.5998 H   0  0  0  0  0  0  0  0  0  0  0  0
   -3.6459   -3.0320   -1.7398 H   0  0  0  0  0  0  0  0  0  0  0  0
   -2.8198   -2.9870   -0.1494 H   0  0  0  0  0  0  0  0  0  0  0  0
    4.9119   -1.0715   -0.2448 C   0  0  0  0  0  0  0  0  0  0  0  0
    5.3436   -0.0622   -0.0916 H   0  0  0  0  0  0  0  0  0  0  0  0
    5.6131   -1.6339   -0.8962 H   0  0  0  0  0  0  0  0  0  0  0  0
    4.8953   -1.5880    0.7369 H   0  0  0  0  0  0  0  0  0  0  0  0
   -1.2114   -0.2074    2.6191 C   0  0  0  0  0  0  0  0  0  0  0  0
   -1.1027    0.8741    2.8517 H   0  0  0  0  0  0  0  0  0  0  0  0
   -1.2538   -0.7480    3.5942 H   0  0  0  0  0  0  0  0  0  0  0  0
    2.9524   -2.4414   -1.1058 C   0  0  0  0  0  0  0  0  0  0  0  0
    2.8197   -2.9870   -0.1495 H   0  0  0  0  0  0  0  0  0  0  0  0
    3.6459   -3.0319   -1.7398 H   0  0  0  0  0  0  0  0  0  0  0  0
    1.9631   -2.4042   -1.5999 H   0  0  0  0  0  0  0  0  0  0  0  0
   -2.5111   -0.4414    1.8485 C   0  0  0  0  0  0  0  0  0  0  0  0
   -3.3547    0.0995    2.3232 H   0  0  0  0  0  0  0  0  0  0  0  0
   -2.7611   -1.5203    1.8466 H   0  0  0  0  0  0  0  0  0  0  0  0
   -2.7679    2.2904   -1.5267 C   0  0  0  0  0  0  0  0  0  0  0  0
   -1.6783    2.4117   -1.6916 H   0  0  0  0  0  0  0  0  0  0  0  0
   -3.2540    3.2792   -1.6593 H   0  0  0  0  0  0  0  0  0  0  0  0
   -3.1541    1.6186   -2.3193 H   0  0  0  0  0  0  0  0  0  0  0  0
   -4.9119   -1.0714   -0.2450 C   0  0  0  0  0  0  0  0  0  0  0  0
   -4.8954   -1.5879    0.7367 H   0  0  0  0  0  0  0  0  0  0  0  0
   -5.6131   -1.6338   -0.8964 H   0  0  0  0  0  0  0  0  0  0  0  0
   -5.3436   -0.0620   -0.0919 H   0  0  0  0  0  0  0  0  0  0  0  0
   -0.0000   -2.0688    1.2795 B   0  0  0  0  0  0  0  0  0  0  0  0
    1.0213   -2.7016    1.5254 H   0  0  0  0  0  0  0  0  0  0  0  0
   -1.0213   -2.7016    1.5254 H   0  0  0  0  0  0  0  0  0  0  0  0
    0.0000   -1.9782   -0.0728 H   0  0  0  0  0  0  0  0  0  0  0  0
  1 45  1  0  0  0  0
  2 11  1  0  0  0  0
  3 38  1  0  0  0  0
  3  6  1  0  0  0  0
  4  5  1  0  0  0  0
  4  1  1  0  0  0  0
  4 16  1  0  0  0  0
  6  8  1  0  0  0  0
  6  7  1  0  0  0  0
  9 52  1  0  0  0  0
  9  1  1  0  0  0  0
 10  9  1  0  0  0  0
 11 13  1  0  0  0  0
 11  6  1  0  0  0  0
 12 11  1  0  0  0  0
 14 15  1  0  0  0  0
 14  2  1  0  0  0  0
 14 20  1  0  0  0  0
 16 17  1  0  0  0  0
 18 16  1  0  0  0  0
 19 16  1  0  0  0  0
 20 23  1  0  0  0  0
 21 20  1  0  0  0  0
 22 20  1  0  0  0  0
 24 34  1  0  0  0  0
 24  2  1  0  0  0  0
 25 24  1  0  0  0  0
 26 14  1  0  0  0  0
 27 26  1  0  0  0  0
 28 26  1  0  0  0  0
 29 26  1  0  0  0  0
 30  9  1  0  0  0  0
 30 33  1  0  0  0  0
 31 30  1  0  0  0  0
 32 30  1  0  0  0  0
 34 35  1  0  0  0  0
 34 37  1  0  0  0  0
 36 34  1  0  0  0  0
 38 39  1  0  0  0  0
 38 40  1  0  0  0  0
 41 24  1  0  0  0  0
 41 42  1  0  0  0  0
 43 41  1  0  0  0  0
 44 41  1  0  0  0  0
 45 46  1  0  0  0  0
 45 38  1  0  0  0  0
 47 45  1  0  0  0  0
 48  4  1  0  0  0  0
 49 48  1  0  0  0  0
 50 48  1  0  0  0  0
 51 48  1  0  0  0  0
 52 55  1  0  0  0  0
 52 53  1  0  0  0  0
 54 52  1  0  0  0  0
 56 58  1  0  0  0  0
 56 57  1  0  0  0  0
 56  3  1  0  0  0  0
 59 56  1  0  0  0  0
M  END
