2,4,5
q = -1.0

 70 74  0  0  1  0  0  0  0  0999 V2000
   -2.1314   -0.4796    1.6055 N   0  0  0  0  0  0  0  0  0  0  0  0
    0.0742    0.2503    1.5440 N   0  0  0  0  0  2  0  0  0  0  0  0
    2.3389    0.9603    1.3432 N   0  0  0  0  0  2  0  0  0  0  0  0
   -1.9906   -0.6450   -0.1205 P   0  0  0  0  0  0  0  0  0  0  0  0
    2.0820    0.6083   -0.2904 P   0  0  0  0  0  0  0  0  0  0  0  0
   -1.0268    0.0021    2.3103 C   0  0  1  0  0  3  0  0  0  0  0  0
   -1.0421    0.2174    3.6937 C   0  0  0  0  0  0  0  0  0  0  0  0
   -1.9436    0.0088    4.2850 H   0  0  0  0  0  0  0  0  0  0  0  0
    0.1441    0.7091    4.2850 C   0  0  0  0  0  0  0  0  0  0  0  0
    0.1651    0.8902    5.3713 H   0  0  0  0  0  0  0  0  0  0  0  0
    1.2774    0.9673    3.5274 C   0  0  0  0  0  0  0  0  0  0  0  0
    2.2044    1.3494    3.9729 H   0  0  0  0  0  0  0  0  0  0  0  0
    1.2690    0.7361    2.1123 C   0  0  0  0  0  0  0  0  0  0  0  0
    2.4351    2.1726   -1.2319 C   0  0  0  0  0  0  0  0  0  0  0  0
    3.4663    2.4694   -0.9517 H   0  0  0  0  0  0  0  0  0  0  0  0
    1.3982    3.2498   -0.8387 C   0  0  0  0  0  0  0  0  0  0  0  0
    1.8386    4.2596   -0.9852 H   0  0  0  0  0  0  0  0  0  0  0  0
    1.0943    3.1761    0.2254 H   0  0  0  0  0  0  0  0  0  0  0  0
    0.2585    3.0179   -1.8373 C   0  0  0  0  0  0  0  0  0  0  0  0
   -0.4787    3.8453   -1.8772 H   0  0  0  0  0  0  0  0  0  0  0  0
   -0.2832    2.0865   -1.5494 H   0  0  0  0  0  0  0  0  0  0  0  0
    0.9990    2.7789   -3.1613 C   0  0  0  0  0  0  0  0  0  0  0  0
    0.3768    2.2572   -3.9160 H   0  0  0  0  0  0  0  0  0  0  0  0
    1.2987    3.7533   -3.6027 H   0  0  0  0  0  0  0  0  0  0  0  0
    2.2570    1.9620   -2.7652 C   0  0  0  0  0  0  0  0  0  0  0  0
    2.1056    0.8884   -3.0037 H   0  0  0  0  0  0  0  0  0  0  0  0
    3.1572    2.2866   -3.3241 H   0  0  0  0  0  0  0  0  0  0  0  0
    3.4400   -0.5602   -0.7531 C   0  0  0  0  0  0  0  0  0  0  0  0
    3.4611   -0.5973   -1.8610 H   0  0  0  0  0  0  0  0  0  0  0  0
    4.8217   -0.1258   -0.1757 C   0  0  0  0  0  0  0  0  0  0  0  0
    5.5972   -0.2253   -0.9643 H   0  0  0  0  0  0  0  0  0  0  0  0
    4.8336    0.9255    0.1740 H   0  0  0  0  0  0  0  0  0  0  0  0
    5.0919   -1.1107    0.9724 C   0  0  0  0  0  0  0  0  0  0  0  0
    6.1663   -1.1891    1.2354 H   0  0  0  0  0  0  0  0  0  0  0  0
    4.5398   -0.7640    1.8712 H   0  0  0  0  0  0  0  0  0  0  0  0
    4.4814   -2.4239    0.4664 C   0  0  0  0  0  0  0  0  0  0  0  0
    4.3484   -3.1870    1.2601 H   0  0  0  0  0  0  0  0  0  0  0  0
    5.1366   -2.8705   -0.3139 H   0  0  0  0  0  0  0  0  0  0  0  0
    3.1496   -1.9691   -0.1534 C   0  0  0  0  0  0  0  0  0  0  0  0
    2.3806   -1.8878    0.6453 H   0  0  0  0  0  0  0  0  0  0  0  0
    2.7449   -2.6677   -0.9116 H   0  0  0  0  0  0  0  0  0  0  0  0
   -2.5026   -2.3920   -0.4767 C   0  0  0  0  0  0  0  0  0  0  0  0
   -3.5213   -2.5508   -0.0662 H   0  0  0  0  0  0  0  0  0  0  0  0
   -1.4640   -3.3628    0.1373 C   0  0  0  0  0  0  0  0  0  0  0  0
   -1.0459   -2.9936    1.0962 H   0  0  0  0  0  0  0  0  0  0  0  0
   -1.9512   -4.3400    0.3438 H   0  0  0  0  0  0  0  0  0  0  0  0
   -0.4183   -3.5088   -0.9742 C   0  0  0  0  0  0  0  0  0  0  0  0
    0.1812   -2.5710   -1.0234 H   0  0  0  0  0  0  0  0  0  0  0  0
    0.2796   -4.3556   -0.8193 H   0  0  0  0  0  0  0  0  0  0  0  0
   -1.2765   -3.6325   -2.2404 C   0  0  0  0  0  0  0  0  0  0  0  0
   -1.6763   -4.6656   -2.3246 H   0  0  0  0  0  0  0  0  0  0  0  0
   -0.7112   -3.4239   -3.1704 H   0  0  0  0  0  0  0  0  0  0  0  0
   -2.4368   -2.6298   -2.0198 C   0  0  0  0  0  0  0  0  0  0  0  0
   -3.4026   -3.0037   -2.4132 H   0  0  0  0  0  0  0  0  0  0  0  0
   -2.2211   -1.6821   -2.5578 H   0  0  0  0  0  0  0  0  0  0  0  0
   -3.3641    0.4210   -0.7661 C   0  0  0  0  0  0  0  0  0  0  0  0
   -3.3130    0.3195   -1.8691 H   0  0  0  0  0  0  0  0  0  0  0  0
   -3.1127    1.9056   -0.3487 C   0  0  0  0  0  0  0  0  0  0  0  0
   -2.1137    2.0522    0.1104 H   0  0  0  0  0  0  0  0  0  0  0  0
   -3.1433    2.5529   -1.2486 H   0  0  0  0  0  0  0  0  0  0  0  0
   -4.2676    2.2510    0.6059 C   0  0  0  0  0  0  0  0  0  0  0  0
   -4.0132    1.9175    1.6351 H   0  0  0  0  0  0  0  0  0  0  0  0
   -4.4788    3.3378    0.6551 H   0  0  0  0  0  0  0  0  0  0  0  0
   -5.4391    1.4190    0.0675 C   0  0  0  0  0  0  0  0  0  0  0  0
   -5.8282    1.8772   -0.8677 H   0  0  0  0  0  0  0  0  0  0  0  0
   -6.2913    1.3361    0.7723 H   0  0  0  0  0  0  0  0  0  0  0  0
   -4.7843    0.0626   -0.2467 C   0  0  0  0  0  0  0  0  0  0  0  0
   -5.3552   -0.5505   -0.9714 H   0  0  0  0  0  0  0  0  0  0  0  0
   -4.7279   -0.5337    0.6908 H   0  0  0  0  0  0  0  0  0  0  0  0
   -2.9726   -0.7000    2.1417 H   0  0  0  0  0  0  0  0  0  0  0  0
  1 70  1  0  0  0  0
  2 13  1  0  0  0  0
  2  6  1  0  0  0  0
  3 13  1  0  0  0  0
  4  1  1  0  0  0  0
  5  3  1  0  0  0  0
  6  1  1  6  0  0  0
  6  7  1  0  0  0  0
  7  9  2  0  0  0  0
  7  8  1  0  0  0  0
  9 10  1  0  0  0  0
 11 12  1  0  0  0  0
 11  9  1  0  0  0  0
 13 11  2  0  0  0  0
 14 15  1  0  0  0  0
 14 16  1  0  0  0  0
 14  5  1  0  0  0  0
 16 18  1  0  0  0  0
 17 16  1  0  0  0  0
 19 21  1  0  0  0  0
 19 16  1  0  0  0  0
 20 19  1  0  0  0  0
 22 25  1  0  0  0  0
 22 19  1  0  0  0  0
 23 22  1  0  0  0  0
 24 22  1  0  0  0  0
 25 14  1  0  0  0  0
 26 25  1  0  0  0  0
 27 25  1  0  0  0  0
 28  5  1  0  0  0  0
 28 30  1  0  0  0  0
 28 39  1  0  0  0  0
 29 28  1  0  0  0  0
 30 32  1  0  0  0  0
 30 33  1  0  0  0  0
 31 30  1  0  0  0  0
 33 34  1  0  0  0  0
 33 35  1  0  0  0  0
 36 33  1  0  0  0  0
 36 37  1  0  0  0  0
 38 36  1  0  0  0  0
 39 36  1  0  0  0  0
 39 40  1  0  0  0  0
 41 39  1  0  0  0  0
 42  4  1  0  0  0  0
 42 43  1  0  0  0  0
 42 44  1  0  0  0  0
 44 46  1  0  0  0  0
 44 45  1  0  0  0  0
 47 49  1  0  0  0  0
 47 44  1  0  0  0  0
 48 47  1  0  0  0  0
 50 53  1  0  0  0  0
 50 47  1  0  0  0  0
 51 50  1  0  0  0  0
 52 50  1  0  0  0  0
 53 42  1  0  0  0  0
 54 53  1  0  0  0  0
 55 53  1  0  0  0  0
 56 58  1  0  0  0  0
 56 67  1  0  0  0  0
 56  4  1  0  0  0  0
 57 56  1  0  0  0  0
 58 59  1  0  0  0  0
 58 61  1  0  0  0  0
 60 58  1  0  0  0  0
 61 63  1  0  0  0  0
 61 62  1  0  0  0  0
 64 61  1  0  0  0  0
 64 66  1  0  0  0  0
 65 64  1  0  0  0  0
 67 64  1  0  0  0  0
 67 69  1  0  0  0  0
 68 67  1  0  0  0  0
M  END
