1,2,3
q = 0.0, confidence = 0.996

 67 67  0  0  1  0  0  0  0  0999 V2000
   -2.2454   -0.2439   -0.0046 P   0  0  0  0  0  0  0  0  0  0  0  0
    2.2454   -0.2440    0.0044 P   0  0  0  0  0  0  0  0  0  0  0  0
   -0.0001   -2.0740   -0.0001 N   0  0  0  0  0  2  0  0  0  0  0  0
   -1.1767   -2.7666    0.0017 C   0  0  1  0  0  3  0  0  0  0  0  0
    3.2092    0.1544    1.6059 C   0  0  0  0  0  0  0  0  0  0  0  0
   -0.0001   -4.8748    0.0003 C   0  0  0  0  0  0  0  0  0  0  0  0
   -0.0002   -5.9750    0.0005 H   0  0  0  0  0  0  0  0  0  0  0  0
    1.1766   -2.7666   -0.0017 C   0  0  0  0  0  0  0  0  0  0  0  0
   -1.2137   -4.1773    0.0007 C   0  0  0  0  0  0  0  0  0  0  0  0
   -2.1785   -4.7029    0.0016 H   0  0  0  0  0  0  0  0  0  0  0  0
    2.3228   -2.0012   -0.0069 N   0  0  0  0  0  0  0  0  0  0  0  0
    3.2091   -2.5084    0.0010 H   0  0  0  0  0  0  0  0  0  0  0  0
   -2.3229   -2.0011    0.0065 N   0  0  0  0  0  0  0  0  0  0  0  0
   -3.2093   -2.5083   -0.0008 H   0  0  0  0  0  0  0  0  0  0  0  0
    1.2134   -4.1774   -0.0003 C   0  0  0  0  0  0  0  0  0  0  0  0
    2.1782   -4.7030   -0.0011 H   0  0  0  0  0  0  0  0  0  0  0  0
   -3.2414    0.1641    1.5743 C   0  0  0  0  0  0  0  0  0  0  0  0
   -4.5522   -0.6200    1.7321 C   0  0  0  0  0  0  0  0  0  0  0  0
   -4.9940   -0.3958    2.7268 H   0  0  0  0  0  0  0  0  0  0  0  0
   -4.3887   -1.7166    1.6969 H   0  0  0  0  0  0  0  0  0  0  0  0
   -5.3075   -0.3507    0.9705 H   0  0  0  0  0  0  0  0  0  0  0  0
    3.2971    1.6815    1.7687 C   0  0  0  0  0  0  0  0  0  0  0  0
    2.3180    2.1700    1.5952 H   0  0  0  0  0  0  0  0  0  0  0  0
    4.0339    2.1350    1.0796 H   0  0  0  0  0  0  0  0  0  0  0  0
    3.6217    1.9201    2.8042 H   0  0  0  0  0  0  0  0  0  0  0  0
    2.3068   -0.4211    2.7162 C   0  0  0  0  0  0  0  0  0  0  0  0
    2.2422   -1.5261    2.6608 H   0  0  0  0  0  0  0  0  0  0  0  0
    1.2746   -0.0217    2.6303 H   0  0  0  0  0  0  0  0  0  0  0  0
    2.7223   -0.1467    3.7091 H   0  0  0  0  0  0  0  0  0  0  0  0
   -3.5076    1.6780    1.6225 C   0  0  0  0  0  0  0  0  0  0  0  0
   -4.3149    1.9790    0.9274 H   0  0  0  0  0  0  0  0  0  0  0  0
   -2.5997    2.2664    1.3801 H   0  0  0  0  0  0  0  0  0  0  0  0
   -3.8325    1.9606    2.6466 H   0  0  0  0  0  0  0  0  0  0  0  0
   -2.2813   -0.2287    2.7153 C   0  0  0  0  0  0  0  0  0  0  0  0
   -2.7418    0.0311    3.6926 H   0  0  0  0  0  0  0  0  0  0  0  0
   -1.3105    0.2978    2.6176 H   0  0  0  0  0  0  0  0  0  0  0  0
   -2.0691   -1.3167    2.7112 H   0  0  0  0  0  0  0  0  0  0  0  0
    4.6049   -0.4767    1.6991 C   0  0  0  0  0  0  0  0  0  0  0  0
    5.0095   -0.3240    2.7228 H   0  0  0  0  0  0  0  0  0  0  0  0
    5.3232   -0.0170    0.9937 H   0  0  0  0  0  0  0  0  0  0  0  0
    4.5888   -1.5723    1.5225 H   0  0  0  0  0  0  0  0  0  0  0  0
   -3.2093    0.1547   -1.6060 C   0  0  0  0  0  0  0  0  0  0  0  0
    3.2414    0.1640   -1.5744 C   0  0  0  0  0  0  0  0  0  0  0  0
   -4.6048   -0.4767   -1.6994 C   0  0  0  0  0  0  0  0  0  0  0  0
   -5.3233   -0.0172   -0.9940 H   0  0  0  0  0  0  0  0  0  0  0  0
   -4.5886   -1.5722   -1.5230 H   0  0  0  0  0  0  0  0  0  0  0  0
   -5.0094   -0.3238   -2.7231 H   0  0  0  0  0  0  0  0  0  0  0  0
   -2.3067   -0.4203   -2.7164 C   0  0  0  0  0  0  0  0  0  0  0  0
   -2.2418   -1.5253   -2.6612 H   0  0  0  0  0  0  0  0  0  0  0  0
   -1.2746   -0.0206   -2.6304 H   0  0  0  0  0  0  0  0  0  0  0  0
   -2.7223   -0.1457   -3.7092 H   0  0  0  0  0  0  0  0  0  0  0  0
    3.5080    1.6779   -1.6223 C   0  0  0  0  0  0  0  0  0  0  0  0
    3.8333    1.9605   -2.6463 H   0  0  0  0  0  0  0  0  0  0  0  0
    4.3152    1.9786   -0.9269 H   0  0  0  0  0  0  0  0  0  0  0  0
    2.6001    2.2665   -1.3801 H   0  0  0  0  0  0  0  0  0  0  0  0
   -3.2975    1.6819   -1.7684 C   0  0  0  0  0  0  0  0  0  0  0  0
   -3.6226    1.9207   -2.8036 H   0  0  0  0  0  0  0  0  0  0  0  0
   -2.3183    2.1704   -1.5952 H   0  0  0  0  0  0  0  0  0  0  0  0
   -4.0339    2.1352   -1.0788 H   0  0  0  0  0  0  0  0  0  0  0  0
    4.5520   -0.6204   -1.7324 C   0  0  0  0  0  0  0  0  0  0  0  0
    4.3881   -1.7170   -1.6973 H   0  0  0  0  0  0  0  0  0  0  0  0
    5.3074   -0.3514   -0.9709 H   0  0  0  0  0  0  0  0  0  0  0  0
    4.9937   -0.3963   -2.7272 H   0  0  0  0  0  0  0  0  0  0  0  0
    2.2812   -0.2283   -2.7155 C   0  0  0  0  0  0  0  0  0  0  0  0
    1.3105    0.2985   -2.6176 H   0  0  0  0  0  0  0  0  0  0  0  0
    2.0686   -1.3162   -2.7115 H   0  0  0  0  0  0  0  0  0  0  0  0
    2.7417    0.0316   -3.6927 H   0  0  0  0  0  0  0  0  0  0  0  0
  1 13  1  0  0  0  0
  1 17  1  0  0  0  0
  2  5  1  0  0  0  0
  3  4  1  0  0  0  0
  4 13  1  1  0  0  0
  5 38  1  0  0  0  0
  5 22  1  0  0  0  0
  5 26  1  0  0  0  0
  6  7  1  0  0  0  0
  6  9  2  0  0  0  0
  8 15  2  0  0  0  0
  8  3  1  0  0  0  0
  9 10  1  0  0  0  0
  9  4  1  0  0  0  0
 11  8  1  0  0  0  0
 11 12  1  0  0  0  0
 11  2  1  0  0  0  0
 14 13  1  0  0  0  0
 15  6  1  0  0  0  0
 16 15  1  0  0  0  0
 17 30  1  0  0  0  0
 17 18  1  0  0  0  0
 17 34  1  0  0  0  0
 18 19  1  0  0  0  0
 20 18  1  0  0  0  0
 21 18  1  0  0  0  0
 22 25  1  0  0  0  0
 23 22  1  0  0  0  0
 24 22  1  0  0  0  0
 26 29  1  0  0  0  0
 27 26  1  0  0  0  0
 28 26  1  0  0  0  0
 30 33  1  0  0  0  0
 31 30  1  0  0  0  0
 32 30  1  0  0  0  0
 34 35  1  0  0  0  0
 36 34  1  0  0  0  0
 37 34  1  0  0  0  0
 38 39  1  0  0  0  0
 40 38  1  0  0  0  0
 41 38  1  0  0  0  0
 42  1  1  0  0  0  0
 43  2  1  0  0  0  0
 44 42  1  0  0  0  0
 44 46  1  0  0  0  0
 44 45  1  0  0  0  0
 47 44  1  0  0  0  0
 48 49  1  0  0  0  0
 48 50  1  0  0  0  0
 48 42  1  0  0  0  0
 51 48  1  0  0  0  0
 52 43  1  0  0  0  0
 52 55  1  0  0  0  0
 52 54  1  0  0  0  0
 53 52  1  0  0  0  0
 56 42  1  0  0  0  0
 56 58  1  0  0  0  0
 56 59  1  0  0  0  0
 57 56  1  0  0  0  0
 60 61  1  0  0  0  0
 60 43  1  0  0  0  0
 60 62  1  0  0  0  0
 63 60  1  0  0  0  0
 64 66  1  0  0  0  0
 64 65  1  0  0  0  0
 64 43  1  0  0  0  0
 67 64  1  0  0  0  0
M  END
