1,2,3
q = 0.0, confidence = 1.0

 70 71  0  0  0  0  0  0  0  0999 V2000
    2.3249   -0.5204   -0.4800 P   0  0  0  0  0  0  0  0  0  0  0  0
   -2.1062   -0.7565    0.4700 P   0  0  0  0  0  0  0  0  0  0  0  0
   -0.0342    1.0652   -0.6957 N   0  0  0  0  0  0  0  0  0  0  0  0
    2.3013    1.2648   -0.0045 C   0  0  0  0  0  0  0  0  0  0  0  0
    3.3765    1.9840    0.5367 C   0  0  0  0  0  0  0  0  0  0  0  0
    3.2018    3.2767    1.0806 C   0  0  0  0  0  0  0  0  0  0  0  0
    1.9034    3.8175    1.0744 C   0  0  0  0  0  0  0  0  0  0  0  0
    0.8172    3.1318    0.5025 C   0  0  0  0  0  0  0  0  0  0  0  0
    1.0210    1.8681   -0.0571 C   0  0  0  0  0  0  0  0  0  0  0  0
    4.3704    4.0350    1.6517 C   0  0  0  0  0  0  0  0  0  0  0  0
   -1.3849    1.6275   -0.7625 C   0  0  0  0  0  0  0  0  0  0  0  0
   -1.6078    2.8372   -1.4459 C   0  0  0  0  0  0  0  0  0  0  0  0
   -2.9015    3.3563   -1.5503 C   0  0  0  0  0  0  0  0  0  0  0  0
   -4.0070    2.6797   -0.9889 C   0  0  0  0  0  0  0  0  0  0  0  0
   -3.7672    1.4537   -0.3420 C   0  0  0  0  0  0  0  0  0  0  0  0
   -2.4689    0.9132   -0.2208 C   0  0  0  0  0  0  0  0  0  0  0  0
   -5.3963    3.2479   -1.1010 C   0  0  0  0  0  0  0  0  0  0  0  0
    3.7439   -1.2835    0.4706 C   0  0  0  0  0  0  0  0  0  0  0  0
    3.5514   -1.1497    1.9853 C   0  0  0  0  0  0  0  0  0  0  0  0
    3.9665   -2.7523    0.0801 C   0  0  0  0  0  0  0  0  0  0  0  0
    2.8236   -0.4677   -2.2989 C   0  0  0  0  0  0  0  0  0  0  0  0
    4.1105    0.3265   -2.5454 C   0  0  0  0  0  0  0  0  0  0  0  0
    2.8562   -1.8400   -2.9892 C   0  0  0  0  0  0  0  0  0  0  0  0
   -3.3626   -1.9268   -0.3075 C   0  0  0  0  0  0  0  0  0  0  0  0
   -2.8767   -3.3805   -0.1969 C   0  0  0  0  0  0  0  0  0  0  0  0
   -3.7381   -1.5765   -1.7524 C   0  0  0  0  0  0  0  0  0  0  0  0
   -2.5962   -0.6578    2.2899 C   0  0  0  0  0  0  0  0  0  0  0  0
   -2.3019   -1.9775    3.0180 C   0  0  0  0  0  0  0  0  0  0  0  0
   -4.0229   -0.1738    2.5660 C   0  0  0  0  0  0  0  0  0  0  0  0
    0.2623    0.9480   -1.6773 H   0  0  0  0  0  0  0  0  0  0  0  0
    4.3752    1.5226    0.5797 H   0  0  0  0  0  0  0  0  0  0  0  0
    1.7279    4.8053    1.5270 H   0  0  0  0  0  0  0  0  0  0  0  0
   -0.1813    3.5884    0.5116 H   0  0  0  0  0  0  0  0  0  0  0  0
    4.0406    4.8557    2.3165 H   0  0  0  0  0  0  0  0  0  0  0  0
    4.9788    4.4890    0.8408 H   0  0  0  0  0  0  0  0  0  0  0  0
    5.0447    3.3713    2.2283 H   0  0  0  0  0  0  0  0  0  0  0  0
   -0.7628    3.3733   -1.9039 H   0  0  0  0  0  0  0  0  0  0  0  0
   -3.0606    4.3019   -2.0909 H   0  0  0  0  0  0  0  0  0  0  0  0
   -4.6273    0.8933    0.0512 H   0  0  0  0  0  0  0  0  0  0  0  0
   -6.1616    2.5437   -0.7237 H   0  0  0  0  0  0  0  0  0  0  0  0
   -5.4855    4.1888   -0.5189 H   0  0  0  0  0  0  0  0  0  0  0  0
   -5.6443    3.4980   -2.1524 H   0  0  0  0  0  0  0  0  0  0  0  0
    4.6338   -0.6911    0.1619 H   0  0  0  0  0  0  0  0  0  0  0  0
    4.4791   -1.4750    2.4980 H   0  0  0  0  0  0  0  0  0  0  0  0
    3.3297   -0.1158    2.3102 H   0  0  0  0  0  0  0  0  0  0  0  0
    2.7350   -1.8085    2.3409 H   0  0  0  0  0  0  0  0  0  0  0  0
    3.0584   -3.3629    0.2530 H   0  0  0  0  0  0  0  0  0  0  0  0
    4.7717   -3.1750    0.7145 H   0  0  0  0  0  0  0  0  0  0  0  0
    4.2760   -2.8794   -0.9719 H   0  0  0  0  0  0  0  0  0  0  0  0
    1.9718    0.1090   -2.7321 H   0  0  0  0  0  0  0  0  0  0  0  0
    4.9925   -0.1903   -2.1152 H   0  0  0  0  0  0  0  0  0  0  0  0
    4.0655    1.3502   -2.1265 H   0  0  0  0  0  0  0  0  0  0  0  0
    4.2901    0.4160   -3.6364 H   0  0  0  0  0  0  0  0  0  0  0  0
    2.7247   -1.7093   -4.0819 H   0  0  0  0  0  0  0  0  0  0  0  0
    3.8334   -2.3373   -2.8392 H   0  0  0  0  0  0  0  0  0  0  0  0
    2.0667   -2.5298   -2.6392 H   0  0  0  0  0  0  0  0  0  0  0  0
   -4.2654   -1.8080    0.3308 H   0  0  0  0  0  0  0  0  0  0  0  0
   -2.0367   -3.5778   -0.8910 H   0  0  0  0  0  0  0  0  0  0  0  0
   -3.7022   -4.0655   -0.4776 H   0  0  0  0  0  0  0  0  0  0  0  0
   -2.5436   -3.6559    0.8206 H   0  0  0  0  0  0  0  0  0  0  0  0
   -2.8690   -1.6385   -2.4338 H   0  0  0  0  0  0  0  0  0  0  0  0
   -4.1812   -0.5688   -1.8524 H   0  0  0  0  0  0  0  0  0  0  0  0
   -4.4877   -2.3096   -2.1143 H   0  0  0  0  0  0  0  0  0  0  0  0
   -1.8975    0.1160    2.6714 H   0  0  0  0  0  0  0  0  0  0  0  0
   -2.3767   -1.8174    4.1123 H   0  0  0  0  0  0  0  0  0  0  0  0
   -3.0398   -2.7607    2.7526 H   0  0  0  0  0  0  0  0  0  0  0  0
   -1.2899   -2.3739    2.8090 H   0  0  0  0  0  0  0  0  0  0  0  0
   -4.7916   -0.8433    2.1282 H   0  0  0  0  0  0  0  0  0  0  0  0
   -4.1940   -0.1680    3.6620 H   0  0  0  0  0  0  0  0  0  0  0  0
   -4.2001    0.8557    2.2040 H   0  0  0  0  0  0  0  0  0  0  0  0
  1  4  1  0  0  0  0
  1 18  1  0  0  0  0
  2 27  1  0  0  0  0
  3  9  1  0  0  0  0
  4  5  1  0  0  0  0
  5 31  1  0  0  0  0
  5  6  2  0  0  0  0
  6 10  1  0  0  0  0
  7  6  1  0  0  0  0
  7 32  1  0  0  0  0
  8 33  1  0  0  0  0
  8  7  2  0  0  0  0
  9  4  2  0  0  0  0
  9  8  1  0  0  0  0
 10 36  1  0  0  0  0
 10 34  1  0  0  0  0
 11  3  1  0  0  0  0
 11 16  1  0  0  0  0
 12 11  2  0  0  0  0
 13 12  1  0  0  0  0
 13 14  2  0  0  0  0
 14 15  1  0  0  0  0
 15 16  2  0  0  0  0
 15 39  1  0  0  0  0
 16  2  1  0  0  0  0
 17 14  1  0  0  0  0
 17 40  1  0  0  0  0
 17 41  1  0  0  0  0
 18 19  1  0  0  0  0
 19 45  1  0  0  0  0
 19 46  1  0  0  0  0
 19 44  1  0  0  0  0
 20 47  1  0  0  0  0
 20 18  1  0  0  0  0
 20 48  1  0  0  0  0
 21  1  1  0  0  0  0
 22 21  1  0  0  0  0
 22 52  1  0  0  0  0
 22 51  1  0  0  0  0
 23 55  1  0  0  0  0
 23 56  1  0  0  0  0
 23 21  1  0  0  0  0
 24 25  1  0  0  0  0
 24 57  1  0  0  0  0
 24  2  1  0  0  0  0
 25 60  1  0  0  0  0
 26 24  1  0  0  0  0
 27 29  1  0  0  0  0
 27 64  1  0  0  0  0
 27 28  1  0  0  0  0
 28 65  1  0  0  0  0
 29 69  1  0  0  0  0
 30  3  1  0  0  0  0
 35 10  1  0  0  0  0
 37 12  1  0  0  0  0
 38 13  1  0  0  0  0
 42 17  1  0  0  0  0
 43 18  1  0  0  0  0
 49 20  1  0  0  0  0
 50 21  1  0  0  0  0
 53 22  1  0  0  0  0
 54 23  1  0  0  0  0
 58 25  1  0  0  0  0
 59 25  1  0  0  0  0
 61 26  1  0  0  0  0
 62 26  1  0  0  0  0
 63 26  1  0  0  0  0
 66 28  1  0  0  0  0
 67 28  1  0  0  0  0
 68 29  1  0  0  0  0
 70 29  1  0  0  0  0
M  END
