1,2,3
q = -1.0, confidence = 0.002

 55 55  0  0  0  0  0  0  0  0999 V2000
    2.5809   -0.2678   -0.1125 P   0  0  0  0  0  0  0  0  0  0  0  0
   -2.1460   -1.1062   -0.0847 P   0  0  0  0  0  0  0  0  0  0  0  0
    0.4030   -1.6904    1.0561 N   0  0  0  0  0  0  0  0  0  0  0  0
    2.8454   -1.9538    0.6709 C   0  0  0  0  0  0  0  0  0  0  0  0
    2.9997   -2.6484   -0.1860 H   0  0  0  0  0  0  0  0  0  0  0  0
    3.7593   -1.9945    1.3002 H   0  0  0  0  0  0  0  0  0  0  0  0
    1.6071   -2.2879    1.4396 C   0  0  0  0  0  0  0  0  0  0  0  0
    1.3653   -3.1623    2.4949 C   0  0  0  0  0  0  0  0  0  0  0  0
    2.1111   -3.7879    3.0009 H   0  0  0  0  0  0  0  0  0  0  0  0
   -0.0418   -3.1077    2.7757 C   0  0  0  0  0  0  0  0  0  0  0  0
   -0.5756   -3.6572    3.5610 H   0  0  0  0  0  0  0  0  0  0  0  0
   -0.6043   -2.2056    1.8772 C   0  0  0  0  0  3  0  0  0  0  0  0
   -2.0007   -1.7065    1.6927 C   0  0  0  0  0  0  0  0  0  0  0  0
   -2.2155   -0.8147    2.3263 H   0  0  0  0  0  0  0  0  0  0  0  0
   -2.7573   -2.4780    1.9476 H   0  0  0  0  0  0  0  0  0  0  0  0
    3.8230   -0.2965   -1.5275 C   0  0  0  0  0  0  0  0  0  0  0  0
    3.6037   -1.2919   -1.9729 H   0  0  0  0  0  0  0  0  0  0  0  0
    3.5076    0.7533   -2.5984 C   0  0  0  0  0  0  0  0  0  0  0  0
    2.4799    0.6169   -2.9865 H   0  0  0  0  0  0  0  0  0  0  0  0
    4.2092    0.6496   -3.4526 H   0  0  0  0  0  0  0  0  0  0  0  0
    3.6040    1.7894   -2.2156 H   0  0  0  0  0  0  0  0  0  0  0  0
    5.2836   -0.2662   -1.0700 C   0  0  0  0  0  0  0  0  0  0  0  0
    5.9606   -0.4533   -1.9301 H   0  0  0  0  0  0  0  0  0  0  0  0
    5.5013   -1.0364   -0.3027 H   0  0  0  0  0  0  0  0  0  0  0  0
    5.5601    0.7222   -0.6481 H   0  0  0  0  0  0  0  0  0  0  0  0
    3.2366    0.9243    1.1831 C   0  0  0  0  0  0  0  0  0  0  0  0
    4.3118    0.6694    1.3113 H   0  0  0  0  0  0  0  0  0  0  0  0
    3.1175    2.3741    0.6961 C   0  0  0  0  0  0  0  0  0  0  0  0
    2.0622    2.6407    0.4846 H   0  0  0  0  0  0  0  0  0  0  0  0
    3.7076    2.5623   -0.2223 H   0  0  0  0  0  0  0  0  0  0  0  0
    3.4874    3.0709    1.4774 H   0  0  0  0  0  0  0  0  0  0  0  0
    2.5189    0.7151    2.5228 C   0  0  0  0  0  0  0  0  0  0  0  0
    2.6487   -0.3102    2.9195 H   0  0  0  0  0  0  0  0  0  0  0  0
    1.4306    0.8904    2.4174 H   0  0  0  0  0  0  0  0  0  0  0  0
    2.9162    1.4297    3.2743 H   0  0  0  0  0  0  0  0  0  0  0  0
   -2.7957   -2.6245   -0.9767 C   0  0  0  0  0  0  0  0  0  0  0  0
   -3.7690   -2.8600   -0.4910 H   0  0  0  0  0  0  0  0  0  0  0  0
   -3.0237   -2.3304   -2.4648 C   0  0  0  0  0  0  0  0  0  0  0  0
   -3.3605   -3.2519   -2.9845 H   0  0  0  0  0  0  0  0  0  0  0  0
   -2.0814   -1.9951   -2.9433 H   0  0  0  0  0  0  0  0  0  0  0  0
   -3.7966   -1.5549   -2.6301 H   0  0  0  0  0  0  0  0  0  0  0  0
   -1.8451   -3.8138   -0.7765 C   0  0  0  0  0  0  0  0  0  0  0  0
   -1.6957   -4.0664    0.2910 H   0  0  0  0  0  0  0  0  0  0  0  0
   -0.8505   -3.5992   -1.2141 H   0  0  0  0  0  0  0  0  0  0  0  0
   -2.2618   -4.7077   -1.2866 H   0  0  0  0  0  0  0  0  0  0  0  0
   -3.5738    0.1163    0.0603 C   0  0  0  0  0  0  0  0  0  0  0  0
   -3.1873    0.7868    0.8611 H   0  0  0  0  0  0  0  0  0  0  0  0
   -3.7796    0.9746   -1.1924 C   0  0  0  0  0  0  0  0  0  0  0  0
   -2.8416    1.4597   -1.5192 H   0  0  0  0  0  0  0  0  0  0  0  0
   -4.5124    1.7810   -0.9814 H   0  0  0  0  0  0  0  0  0  0  0  0
   -4.1748    0.3822   -2.0414 H   0  0  0  0  0  0  0  0  0  0  0  0
   -4.8812   -0.5203    0.5421 C   0  0  0  0  0  0  0  0  0  0  0  0
   -5.3184   -1.1825   -0.2333 H   0  0  0  0  0  0  0  0  0  0  0  0
   -5.6340    0.2663    0.7602 H   0  0  0  0  0  0  0  0  0  0  0  0
   -4.7478   -1.1187    1.4651 H   0  0  0  0  0  0  0  0  0  0  0  0
  1  4  1  0  0  0  0
  1 26  1  0  0  0  0
  2 46  1  0  0  0  0
  2 13  1  0  0  0  0
  3  7  2  0  0  0  0
  3 12  1  0  0  0  0
  4  6  1  0  0  0  0
  4  7  1  0  0  0  0
  5  4  1  0  0  0  0
  7  8  1  0  0  0  0
  8 10  2  0  0  0  0
  8  9  1  0  0  0  0
 10 11  1  0  0  0  0
 12 10  1  0  0  0  0
 13 12  1  0  0  0  0
 13 15  1  0  0  0  0
 13 14  1  0  0  0  0
 16 22  1  0  0  0  0
 16  1  1  0  0  0  0
 17 16  1  0  0  0  0
 18 21  1  0  0  0  0
 18 16  1  0  0  0  0
 19 18  1  0  0  0  0
 20 18  1  0  0  0  0
 22 25  1  0  0  0  0
 22 24  1  0  0  0  0
 23 22  1  0  0  0  0
 26 27  1  0  0  0  0
 26 32  1  0  0  0  0
 28 26  1  0  0  0  0
 28 31  1  0  0  0  0
 29 28  1  0  0  0  0
 30 28  1  0  0  0  0
 32 33  1  0  0  0  0
 32 35  1  0  0  0  0
 34 32  1  0  0  0  0
 36 42  1  0  0  0  0
 36 37  1  0  0  0  0
 36  2  1  0  0  0  0
 38 36  1  0  0  0  0
 39 38  1  0  0  0  0
 40 38  1  0  0  0  0
 41 38  1  0  0  0  0
 42 43  1  0  0  0  0
 44 42  1  0  0  0  0
 45 42  1  0  0  0  0
 46 52  1  0  0  0  0
 46 47  1  0  0  0  0
 48 50  1  0  0  0  0
 48 46  1  0  0  0  0
 49 48  1  0  0  0  0
 51 48  1  0  0  0  0
 52 54  1  0  0  0  0
 52 55  1  0  0  0  0
 53 52  1  0  0  0  0
M  END
