1,2,3
q = -1.0

 55 55  0  0  1  0  0  0  0  0999 V2000
   -2.1576   -0.3920    0.0552 P   0  0  0  0  0  0  0  0  0  0  0  0
    2.1673   -0.3469   -0.0540 P   0  0  0  0  0  0  0  0  0  0  0  0
    0.0396    1.2984   -0.0154 N   0  0  0  0  0  2  0  0  0  0  0  0
   -1.1393    3.3741   -0.0714 N   0  0  0  0  0  0  0  0  0  0  0  0
    1.2598    3.3671    0.0333 N   0  0  0  0  0  0  0  0  0  0  0  0
   -2.2819    1.3324   -0.1010 N   0  0  0  0  0  0  0  0  0  0  0  0
    2.4131    1.3249    0.0341 N   0  0  0  0  0  2  0  0  0  0  0  0
   -1.0967    2.0454   -0.0663 C   0  0  2  0  0  3  0  0  0  0  0  0
    0.0822    3.9772   -0.0131 C   0  0  0  0  0  0  0  0  0  0  0  0
    1.2793    2.0012    0.0204 C   0  0  0  0  0  0  0  0  0  0  0  0
   -3.1036   -0.7873    1.6091 C   0  0  0  0  0  0  0  0  0  0  0  0
   -2.3601   -0.1624    2.7966 C   0  0  0  0  0  0  0  0  0  0  0  0
   -3.2632   -2.3066    1.7558 C   0  0  0  0  0  0  0  0  0  0  0  0
   -3.1110   -1.1005   -1.3711 C   0  0  0  0  0  0  0  0  0  0  0  0
   -2.3125   -0.8524   -2.6570 C   0  0  0  0  0  0  0  0  0  0  0  0
   -4.5572   -0.6059   -1.4504 C   0  0  0  0  0  0  0  0  0  0  0  0
    3.0866   -1.1017    1.3700 C   0  0  0  0  0  0  0  0  0  0  0  0
    4.5594   -0.6796    1.3748 C   0  0  0  0  0  0  0  0  0  0  0  0
    2.3554   -0.7317    2.6662 C   0  0  0  0  0  0  0  0  0  0  0  0
    3.0199   -0.8738   -1.6223 C   0  0  0  0  0  0  0  0  0  0  0  0
    2.2634   -0.2696   -2.8113 C   0  0  0  0  0  0  0  0  0  0  0  0
    3.1724   -2.3938   -1.7280 C   0  0  0  0  0  0  0  0  0  0  0  0
    0.0690    5.4808   -0.0021 C   0  0  0  0  0  0  0  0  0  0  0  0
   -4.1041   -0.3081    1.5091 H   0  0  0  0  0  0  0  0  0  0  0  0
   -2.2199    0.9295    2.6701 H   0  0  0  0  0  0  0  0  0  0  0  0
   -2.9275   -0.3292    3.7350 H   0  0  0  0  0  0  0  0  0  0  0  0
   -1.3575   -0.6221    2.9141 H   0  0  0  0  0  0  0  0  0  0  0  0
   -3.9172   -2.7387    0.9725 H   0  0  0  0  0  0  0  0  0  0  0  0
   -2.2770   -2.8116    1.6937 H   0  0  0  0  0  0  0  0  0  0  0  0
   -3.7185   -2.5449    2.7389 H   0  0  0  0  0  0  0  0  0  0  0  0
   -3.0911   -2.1917   -1.1542 H   0  0  0  0  0  0  0  0  0  0  0  0
   -1.3096   -1.3188   -2.5874 H   0  0  0  0  0  0  0  0  0  0  0  0
   -2.8405   -1.2870   -3.5303 H   0  0  0  0  0  0  0  0  0  0  0  0
   -2.1781    0.2331   -2.8435 H   0  0  0  0  0  0  0  0  0  0  0  0
   -5.1371   -0.8354   -0.5341 H   0  0  0  0  0  0  0  0  0  0  0  0
   -4.5955    0.4905   -1.6209 H   0  0  0  0  0  0  0  0  0  0  0  0
   -5.0814   -1.0847   -2.3032 H   0  0  0  0  0  0  0  0  0  0  0  0
    2.9864   -2.1969    1.2062 H   0  0  0  0  0  0  0  0  0  0  0  0
    5.1026   -1.0406    0.4786 H   0  0  0  0  0  0  0  0  0  0  0  0
    4.6432    0.4253    1.4034 H   0  0  0  0  0  0  0  0  0  0  0  0
    5.0736   -1.0937    2.2671 H   0  0  0  0  0  0  0  0  0  0  0  0
    1.3194   -1.1266    2.6581 H   0  0  0  0  0  0  0  0  0  0  0  0
    2.8825   -1.1599    3.5437 H   0  0  0  0  0  0  0  0  0  0  0  0
    2.3117    0.3693    2.7953 H   0  0  0  0  0  0  0  0  0  0  0  0
    4.0182   -0.3867   -1.5528 H   0  0  0  0  0  0  0  0  0  0  0  0
    2.1562    0.8280   -2.7052 H   0  0  0  0  0  0  0  0  0  0  0  0
    2.8067   -0.4729   -3.7571 H   0  0  0  0  0  0  0  0  0  0  0  0
    1.2488   -0.7110   -2.8984 H   0  0  0  0  0  0  0  0  0  0  0  0
    3.8155   -2.8077   -0.9261 H   0  0  0  0  0  0  0  0  0  0  0  0
    2.1858   -2.8954   -1.6619 H   0  0  0  0  0  0  0  0  0  0  0  0
    3.6383   -2.6600   -2.6996 H   0  0  0  0  0  0  0  0  0  0  0  0
   -0.5284    5.8485    0.8571 H   0  0  0  0  0  0  0  0  0  0  0  0
    1.0989    5.8730    0.0567 H   0  0  0  0  0  0  0  0  0  0  0  0
   -0.4297    5.8610   -0.9171 H   0  0  0  0  0  0  0  0  0  0  0  0
   -3.1357    1.8965   -0.0790 H   0  0  0  0  0  0  0  0  0  0  0  0
  1 11  1  0  0  0  0
  2  7  1  0  0  0  0
  2 17  1  0  0  0  0
  3 10  1  0  0  0  0
  4  8  1  0  0  0  0
  4  9  2  0  0  0  0
  6 55  1  0  0  0  0
  6  1  1  0  0  0  0
  8  6  1  1  0  0  0
  8  3  1  0  0  0  0
  9 23  1  0  0  0  0
  9  5  1  0  0  0  0
 10  5  2  0  0  0  0
 10  7  1  0  0  0  0
 11 13  1  0  0  0  0
 11 12  1  0  0  0  0
 12 27  1  0  0  0  0
 12 26  1  0  0  0  0
 13 30  1  0  0  0  0
 14 31  1  0  0  0  0
 14  1  1  0  0  0  0
 15 32  1  0  0  0  0
 15 14  1  0  0  0  0
 16 14  1  0  0  0  0
 16 35  1  0  0  0  0
 17 18  1  0  0  0  0
 17 19  1  0  0  0  0
 18 40  1  0  0  0  0
 18 41  1  0  0  0  0
 19 44  1  0  0  0  0
 19 43  1  0  0  0  0
 20 45  1  0  0  0  0
 20  2  1  0  0  0  0
 21 46  1  0  0  0  0
 21 20  1  0  0  0  0
 22 50  1  0  0  0  0
 22 20  1  0  0  0  0
 22 49  1  0  0  0  0
 23 53  1  0  0  0  0
 23 52  1  0  0  0  0
 24 11  1  0  0  0  0
 25 12  1  0  0  0  0
 28 13  1  0  0  0  0
 29 13  1  0  0  0  0
 33 15  1  0  0  0  0
 34 15  1  0  0  0  0
 36 16  1  0  0  0  0
 37 16  1  0  0  0  0
 38 17  1  0  0  0  0
 39 18  1  0  0  0  0
 42 19  1  0  0  0  0
 47 21  1  0  0  0  0
 48 21  1  0  0  0  0
 51 22  1  0  0  0  0
 54 23  1  0  0  0  0
M  END
