1,2,4
q = -1.0

 69 69  0  0  1  0  0  0  0  0999 V2000
   -2.0042   -0.3925    0.0130 P   0  0  0  0  0  0  0  0  0  0  0  0
    2.2653   -0.1591   -0.0181 P   0  0  0  0  0  0  0  0  0  0  0  0
   -2.2850    1.3394    0.0921 N   0  0  0  0  0  0  0  0  0  0  0  0
    0.0582    1.4865   -0.0017 N   0  0  0  0  0  2  0  0  0  0  0  0
    2.4416    1.5228   -0.0923 N   0  0  0  0  0  2  0  0  0  0  0  0
   -1.1370    2.1491    0.0458 C   0  0  1  0  0  3  0  0  0  0  0  0
   -1.2076    3.5503    0.0415 C   0  0  0  0  0  0  0  0  0  0  0  0
   -2.1669    4.0766    0.0816 H   0  0  0  0  0  0  0  0  0  0  0  0
    0.0099    4.2685   -0.0113 C   0  0  0  0  0  0  0  0  0  0  0  0
   -0.0210    5.3696   -0.0144 H   0  0  0  0  0  0  0  0  0  0  0  0
    1.2306    3.6174   -0.0582 C   0  0  0  0  0  0  0  0  0  0  0  0
    2.1849    4.1575   -0.0990 H   0  0  0  0  0  0  0  0  0  0  0  0
    1.2817    2.1842   -0.0524 C   0  0  0  0  0  0  0  0  0  0  0  0
   -3.5835    1.9891    0.0373 C   0  0  0  0  0  0  0  0  0  0  0  0
   -3.7478    2.6467    0.9191 H   0  0  0  0  0  0  0  0  0  0  0  0
   -4.3843    1.2328    0.0285 H   0  0  0  0  0  0  0  0  0  0  0  0
   -3.6890    2.6159   -0.8765 H   0  0  0  0  0  0  0  0  0  0  0  0
   -2.8582   -0.9865   -1.5882 C   0  0  0  0  0  0  0  0  0  0  0  0
   -2.4384    0.0471   -2.6521 C   0  0  0  0  0  0  0  0  0  0  0  0
   -2.7316   -0.3223   -3.6573 H   0  0  0  0  0  0  0  0  0  0  0  0
   -1.3396    0.2020   -2.6504 H   0  0  0  0  0  0  0  0  0  0  0  0
   -2.9186    1.0322   -2.4962 H   0  0  0  0  0  0  0  0  0  0  0  0
   -4.3869   -1.1274   -1.5470 C   0  0  0  0  0  0  0  0  0  0  0  0
   -4.9020   -0.1731   -1.3247 H   0  0  0  0  0  0  0  0  0  0  0  0
   -4.7176   -1.8846   -0.8094 H   0  0  0  0  0  0  0  0  0  0  0  0
   -4.7459   -1.4648   -2.5431 H   0  0  0  0  0  0  0  0  0  0  0  0
   -2.2259   -2.3469   -1.9483 C   0  0  0  0  0  0  0  0  0  0  0  0
   -2.5658   -2.6501   -2.9614 H   0  0  0  0  0  0  0  0  0  0  0  0
   -2.5167   -3.1473   -1.2417 H   0  0  0  0  0  0  0  0  0  0  0  0
   -1.1205   -2.2823   -1.9420 H   0  0  0  0  0  0  0  0  0  0  0  0
   -2.7754   -1.1052    1.5968 C   0  0  0  0  0  0  0  0  0  0  0  0
   -1.8095   -0.6423    2.7064 C   0  0  0  0  0  0  0  0  0  0  0  0
   -1.7334    0.4631    2.7455 H   0  0  0  0  0  0  0  0  0  0  0  0
   -0.7915   -1.0483    2.5369 H   0  0  0  0  0  0  0  0  0  0  0  0
   -2.1733   -1.0016    3.6927 H   0  0  0  0  0  0  0  0  0  0  0  0
   -4.1985   -0.6396    1.9385 C   0  0  0  0  0  0  0  0  0  0  0  0
   -4.5340   -1.1620    2.8601 H   0  0  0  0  0  0  0  0  0  0  0  0
   -4.9330   -0.8721    1.1443 H   0  0  0  0  0  0  0  0  0  0  0  0
   -4.2364    0.4455    2.1506 H   0  0  0  0  0  0  0  0  0  0  0  0
   -2.7221   -2.6389    1.4860 C   0  0  0  0  0  0  0  0  0  0  0  0
   -1.7156   -2.9803    1.1704 H   0  0  0  0  0  0  0  0  0  0  0  0
   -3.4715   -3.0349    0.7723 H   0  0  0  0  0  0  0  0  0  0  0  0
   -2.9420   -3.0849    2.4791 H   0  0  0  0  0  0  0  0  0  0  0  0
    3.1254   -0.7838   -1.5881 C   0  0  0  0  0  0  0  0  0  0  0  0
    4.4339   -0.0220   -1.8492 C   0  0  0  0  0  0  0  0  0  0  0  0
    4.7958   -0.2495   -2.8749 H   0  0  0  0  0  0  0  0  0  0  0  0
    5.2338   -0.3081   -1.1408 H   0  0  0  0  0  0  0  0  0  0  0  0
    4.2680    1.0694   -1.7602 H   0  0  0  0  0  0  0  0  0  0  0  0
    2.1149   -0.4524   -2.7059 C   0  0  0  0  0  0  0  0  0  0  0  0
    2.5417   -0.7341   -3.6925 H   0  0  0  0  0  0  0  0  0  0  0  0
    1.8816    0.6313   -2.7262 H   0  0  0  0  0  0  0  0  0  0  0  0
    1.1662   -1.0098   -2.5624 H   0  0  0  0  0  0  0  0  0  0  0  0
    3.3512   -2.2999   -1.5345 C   0  0  0  0  0  0  0  0  0  0  0  0
    2.4203   -2.8366   -1.2591 H   0  0  0  0  0  0  0  0  0  0  0  0
    4.1442   -2.5771   -0.8121 H   0  0  0  0  0  0  0  0  0  0  0  0
    3.6734   -2.6637   -2.5338 H   0  0  0  0  0  0  0  0  0  0  0  0
    3.1418   -0.6607    1.5888 C   0  0  0  0  0  0  0  0  0  0  0  0
    2.4541    0.2016    2.6663 C   0  0  0  0  0  0  0  0  0  0  0  0
    2.8597   -0.0621    3.6662 H   0  0  0  0  0  0  0  0  0  0  0  0
    1.3577    0.0309    2.6817 H   0  0  0  0  0  0  0  0  0  0  0  0
    2.6267    1.2795    2.4833 H   0  0  0  0  0  0  0  0  0  0  0  0
    4.6395   -0.3273    1.5498 C   0  0  0  0  0  0  0  0  0  0  0  0
    5.0745   -0.4460    2.5658 H   0  0  0  0  0  0  0  0  0  0  0  0
    4.8019    0.7192    1.2239 H   0  0  0  0  0  0  0  0  0  0  0  0
    5.1982   -1.0017    0.8712 H   0  0  0  0  0  0  0  0  0  0  0  0
    2.8995   -2.1460    1.8965 C   0  0  0  0  0  0  0  0  0  0  0  0
    3.4118   -2.8165    1.1809 H   0  0  0  0  0  0  0  0  0  0  0  0
    1.8169   -2.3816    1.8656 H   0  0  0  0  0  0  0  0  0  0  0  0
    3.2835   -2.3823    2.9122 H   0  0  0  0  0  0  0  0  0  0  0  0
  1  3  1  0  0  0  0
  1 31  1  0  0  0  0
  2 57  1  0  0  0  0
  4  6  1  0  0  0  0
  5 13  1  0  0  0  0
  5  2  1  0  0  0  0
  6  3  1  6  0  0  0
  7  6  1  0  0  0  0
  7  8  1  0  0  0  0
  9  7  2  0  0  0  0
 10  9  1  0  0  0  0
 11 13  2  0  0  0  0
 11  9  1  0  0  0  0
 12 11  1  0  0  0  0
 13  4  1  0  0  0  0
 14  3  1  0  0  0  0
 14 15  1  0  0  0  0
 16 14  1  0  0  0  0
 17 14  1  0  0  0  0
 18 23  1  0  0  0  0
 18  1  1  0  0  0  0
 19 21  1  0  0  0  0
 19 22  1  0  0  0  0
 19 18  1  0  0  0  0
 20 19  1  0  0  0  0
 23 24  1  0  0  0  0
 23 25  1  0  0  0  0
 26 23  1  0  0  0  0
 27 30  1  0  0  0  0
 27 18  1  0  0  0  0
 27 29  1  0  0  0  0
 28 27  1  0  0  0  0
 31 36  1  0  0  0  0
 31 32  1  0  0  0  0
 32 33  1  0  0  0  0
 32 35  1  0  0  0  0
 34 32  1  0  0  0  0
 36 39  1  0  0  0  0
 36 37  1  0  0  0  0
 38 36  1  0  0  0  0
 40 31  1  0  0  0  0
 40 43  1  0  0  0  0
 41 40  1  0  0  0  0
 42 40  1  0  0  0  0
 44 53  1  0  0  0  0
 44  2  1  0  0  0  0
 45 48  1  0  0  0  0
 45 44  1  0  0  0  0
 45 47  1  0  0  0  0
 46 45  1  0  0  0  0
 49 52  1  0  0  0  0
 49 44  1  0  0  0  0
 50 49  1  0  0  0  0
 51 49  1  0  0  0  0
 53 54  1  0  0  0  0
 53 55  1  0  0  0  0
 56 53  1  0  0  0  0
 57 66  1  0  0  0  0
 57 58  1  0  0  0  0
 58 60  1  0  0  0  0
 58 59  1  0  0  0  0
 61 58  1  0  0  0  0
 62 57  1  0  0  0  0
 62 63  1  0  0  0  0
 64 62  1  0  0  0  0
 65 62  1  0  0  0  0
 66 69  1  0  0  0  0
 67 66  1  0  0  0  0
 68 66  1  0  0  0  0
M  END
