1,2,29
q = -1.0, confidence = 0.012

 67 69  0  0  0  0  0  0  0  0999 V2000
   -2.2372   -0.9535    0.2748 P   0  0  0  0  0  0  0  0  0  0  0  0
    2.2371   -0.9536   -0.2754 P   0  0  0  0  0  0  0  0  0  0  0  0
   -1.1823    1.4840   -0.4421 C   0  0  0  0  0  0  0  0  0  0  0  0
   -2.3892    0.7015   -0.4596 C   0  0  0  0  0  0  0  0  0  0  0  0
   -3.5968    1.1828   -0.9888 C   0  0  0  0  0  0  0  0  0  0  0  0
   -3.6774    2.4715   -1.5262 C   0  0  0  0  0  0  0  0  0  0  0  0
   -2.5338    3.2767   -1.4525 C   0  0  0  0  0  0  0  0  0  0  0  0
   -1.3096    2.8337   -0.9220 C   0  0  0  0  0  0  0  0  0  0  0  0
   -0.2215    3.8526   -0.7408 C   0  0  0  0  0  0  0  0  0  0  0  0
    0.2230    3.8535    0.7390 C   0  0  0  0  0  0  0  0  0  0  0  0
    1.3098    2.8334    0.9221 C   0  0  0  0  0  0  0  0  0  0  0  0
    2.5335    3.2753    1.4546 C   0  0  0  0  0  0  0  0  0  0  0  0
    3.6763    2.4693    1.5303 C   0  0  0  0  0  0  0  0  0  0  0  0
    3.5957    1.1809    0.9922 C   0  0  0  0  0  0  0  0  0  0  0  0
    2.3886    0.7006    0.4611 C   0  0  0  0  0  0  0  0  0  0  0  0
    1.1821    1.4836    0.4424 C   0  0  0  0  0  0  0  0  0  0  0  0
   -3.4193   -2.0729   -0.6528 C   0  0  0  0  0  0  0  0  0  0  0  0
   -3.4290   -3.4619   -0.0024 C   0  0  0  0  0  0  0  0  0  0  0  0
   -3.0066   -2.1322   -2.1277 C   0  0  0  0  0  0  0  0  0  0  0  0
   -2.9519   -0.7971    2.0112 C   0  0  0  0  0  0  0  0  0  0  0  0
   -4.4262   -0.3890    2.0521 C   0  0  0  0  0  0  0  0  0  0  0  0
   -2.0599    0.1609    2.8104 C   0  0  0  0  0  0  0  0  0  0  0  0
    3.4175   -2.0745    0.6525 C   0  0  0  0  0  0  0  0  0  0  0  0
    3.0030   -2.1349    2.1269 C   0  0  0  0  0  0  0  0  0  0  0  0
    3.4273   -3.4629    0.0008 C   0  0  0  0  0  0  0  0  0  0  0  0
    2.9545   -0.7953   -2.0106 C   0  0  0  0  0  0  0  0  0  0  0  0
    4.4289   -0.3876   -2.0489 C   0  0  0  0  0  0  0  0  0  0  0  0
    2.0639    0.1638   -2.8100 C   0  0  0  0  0  0  0  0  0  0  0  0
   -0.0000    0.8641   -0.0004 N   0  0  0  0  0  2  0  0  0  0  0  0
   -4.4842    0.5314   -0.9882 H   0  0  0  0  0  0  0  0  0  0  0  0
   -4.6093    2.8483   -1.9714 H   0  0  0  0  0  0  0  0  0  0  0  0
   -2.5775    4.3148   -1.8197 H   0  0  0  0  0  0  0  0  0  0  0  0
    0.6639    3.6461   -1.3805 H   0  0  0  0  0  0  0  0  0  0  0  0
   -0.6087    4.8463   -1.0424 H   0  0  0  0  0  0  0  0  0  0  0  0
   -0.6627    3.6495    1.3789 H   0  0  0  0  0  0  0  0  0  0  0  0
    0.6116    4.8472    1.0389 H   0  0  0  0  0  0  0  0  0  0  0  0
    2.5774    4.3135    1.8217 H   0  0  0  0  0  0  0  0  0  0  0  0
    4.6078    2.8453    1.9770 H   0  0  0  0  0  0  0  0  0  0  0  0
    4.4827    0.5289    0.9926 H   0  0  0  0  0  0  0  0  0  0  0  0
   -4.4379   -1.6335   -0.5739 H   0  0  0  0  0  0  0  0  0  0  0  0
   -4.0891   -4.1506   -0.5698 H   0  0  0  0  0  0  0  0  0  0  0  0
   -2.4102   -3.9052    0.0023 H   0  0  0  0  0  0  0  0  0  0  0  0
   -3.7919   -3.4386    1.0446 H   0  0  0  0  0  0  0  0  0  0  0  0
   -3.6820   -2.8080   -2.6929 H   0  0  0  0  0  0  0  0  0  0  0  0
   -1.9676   -2.5113   -2.2269 H   0  0  0  0  0  0  0  0  0  0  0  0
   -3.0377   -1.1322   -2.6024 H   0  0  0  0  0  0  0  0  0  0  0  0
   -2.8379   -1.8200    2.4350 H   0  0  0  0  0  0  0  0  0  0  0  0
   -4.7764   -0.3186    3.1036 H   0  0  0  0  0  0  0  0  0  0  0  0
   -5.0849   -1.1143    1.5331 H   0  0  0  0  0  0  0  0  0  0  0  0
   -4.5746    0.6062    1.5851 H   0  0  0  0  0  0  0  0  0  0  0  0
   -2.3783    0.1924    3.8731 H   0  0  0  0  0  0  0  0  0  0  0  0
   -0.9957   -0.1468    2.7611 H   0  0  0  0  0  0  0  0  0  0  0  0
   -2.1266    1.1919    2.4049 H   0  0  0  0  0  0  0  0  0  0  0  0
    4.4364   -1.6355    0.5753 H   0  0  0  0  0  0  0  0  0  0  0  0
    3.6774   -2.8117    2.6923 H   0  0  0  0  0  0  0  0  0  0  0  0
    1.9636   -2.5135    2.2245 H   0  0  0  0  0  0  0  0  0  0  0  0
    3.0343   -1.1355    2.6026 H   0  0  0  0  0  0  0  0  0  0  0  0
    4.0863   -4.1524    0.5684 H   0  0  0  0  0  0  0  0  0  0  0  0
    3.7915   -3.4388   -1.0457 H   0  0  0  0  0  0  0  0  0  0  0  0
    2.4083   -3.9057   -0.0055 H   0  0  0  0  0  0  0  0  0  0  0  0
    2.8408   -1.8177   -2.4357 H   0  0  0  0  0  0  0  0  0  0  0  0
    4.7807   -0.3162   -3.0998 H   0  0  0  0  0  0  0  0  0  0  0  0
    5.0866   -1.1136   -1.5297 H   0  0  0  0  0  0  0  0  0  0  0  0
    4.5769    0.6071   -1.5806 H   0  0  0  0  0  0  0  0  0  0  0  0
    2.3839    0.1965   -3.8722 H   0  0  0  0  0  0  0  0  0  0  0  0
    0.9995   -0.1437   -2.7626 H   0  0  0  0  0  0  0  0  0  0  0  0
    2.1302    1.1944   -2.4032 H   0  0  0  0  0  0  0  0  0  0  0  0
  1 20  1  0  0  0  0
  2 15  1  0  0  0  0
  2 23  1  0  0  0  0
  3 29  1  0  0  0  0
  4  3  1  0  0  0  0
  4  1  1  0  0  0  0
  5 30  1  0  0  0  0
  5  4  2  0  0  0  0
  6  7  2  0  0  0  0
  6  5  1  0  0  0  0
  7  8  1  0  0  0  0
  8  9  1  0  0  0  0
  8  3  2  0  0  0  0
  9 10  1  0  0  0  0
 10 11  1  0  0  0  0
 10 36  1  0  0  0  0
 10 35  1  0  0  0  0
 11 12  1  0  0  0  0
 12 13  2  0  0  0  0
 12 37  1  0  0  0  0
 13 38  1  0  0  0  0
 14 39  1  0  0  0  0
 14 13  1  0  0  0  0
 15 14  2  0  0  0  0
 16 15  1  0  0  0  0
 16 11  2  0  0  0  0
 17 40  1  0  0  0  0
 17 18  1  0  0  0  0
 17  1  1  0  0  0  0
 18 42  1  0  0  0  0
 18 43  1  0  0  0  0
 19 17  1  0  0  0  0
 20 21  1  0  0  0  0
 20 47  1  0  0  0  0
 20 22  1  0  0  0  0
 21 48  1  0  0  0  0
 22 51  1  0  0  0  0
 23 24  1  0  0  0  0
 24 56  1  0  0  0  0
 24 57  1  0  0  0  0
 24 55  1  0  0  0  0
 25 58  1  0  0  0  0
 25 23  1  0  0  0  0
 26  2  1  0  0  0  0
 27 26  1  0  0  0  0
 27 64  1  0  0  0  0
 27 63  1  0  0  0  0
 28 66  1  0  0  0  0
 28 67  1  0  0  0  0
 28 26  1  0  0  0  0
 29 16  1  0  0  0  0
 31  6  1  0  0  0  0
 32  7  1  0  0  0  0
 33  9  1  0  0  0  0
 34  9  1  0  0  0  0
 41 18  1  0  0  0  0
 44 19  1  0  0  0  0
 45 19  1  0  0  0  0
 46 19  1  0  0  0  0
 49 21  1  0  0  0  0
 50 21  1  0  0  0  0
 52 22  1  0  0  0  0
 53 22  1  0  0  0  0
 54 23  1  0  0  0  0
 59 25  1  0  0  0  0
 60 25  1  0  0  0  0
 61 26  1  0  0  0  0
 62 27  1  0  0  0  0
 65 28  1  0  0  0  0
M  END
