1,2,3
q = 0.0, confidence = 1.0

 56 56  0  0  1  0  0  0  0  0999 V2000
    2.2782   -0.1793    0.0907 P   0  0  0  0  0  0  0  0  0  0  0  0
   -2.2781   -0.1794    0.0907 P   0  0  0  0  0  0  0  0  0  0  0  0
   -0.0000    1.6118   -0.5445 N   0  0  0  0  0  2  0  0  0  0  0  0
    1.1721    2.2899   -0.7033 C   0  0  2  0  0  3  0  0  0  0  0  0
    1.1400    3.6863   -0.8625 C   0  0  0  0  0  0  0  0  0  0  0  0
    2.0859    4.2486   -0.9529 H   0  0  0  0  0  0  0  0  0  0  0  0
   -0.0001    4.3904   -0.9116 N   0  0  0  0  0  0  0  0  0  0  0  0
   -1.1401    3.6862   -0.8627 C   0  0  0  0  0  0  0  0  0  0  0  0
   -2.0860    4.2485   -0.9533 H   0  0  0  0  0  0  0  0  0  0  0  0
   -1.1721    2.2898   -0.7034 C   0  0  0  0  0  0  0  0  0  0  0  0
    2.4425    1.4843   -0.7711 C   0  0  0  0  0  0  0  0  0  0  0  0
    3.3206    2.0715   -0.4353 H   0  0  0  0  0  0  0  0  0  0  0  0
    2.6097    1.2295   -1.8412 H   0  0  0  0  0  0  0  0  0  0  0  0
   -2.4426    1.4841   -0.7712 C   0  0  0  0  0  0  0  0  0  0  0  0
   -2.6096    1.2292   -1.8414 H   0  0  0  0  0  0  0  0  0  0  0  0
   -3.3207    2.0713   -0.4355 H   0  0  0  0  0  0  0  0  0  0  0  0
    3.2102    0.0675    1.6950 C   0  0  0  0  0  0  0  0  0  0  0  0
    4.2622    0.2906    1.4090 H   0  0  0  0  0  0  0  0  0  0  0  0
    3.1657   -1.2118    2.5389 C   0  0  0  0  0  0  0  0  0  0  0  0
    3.6537   -1.0412    3.5209 H   0  0  0  0  0  0  0  0  0  0  0  0
    3.6849   -2.0574    2.0478 H   0  0  0  0  0  0  0  0  0  0  0  0
    2.1151   -1.5182    2.7210 H   0  0  0  0  0  0  0  0  0  0  0  0
    2.6344    1.2642    2.4614 C   0  0  0  0  0  0  0  0  0  0  0  0
    1.5639    1.0948    2.6978 H   0  0  0  0  0  0  0  0  0  0  0  0
    2.7088    2.2131    1.8933 H   0  0  0  0  0  0  0  0  0  0  0  0
    3.1826    1.4028    3.4163 H   0  0  0  0  0  0  0  0  0  0  0  0
    3.2857   -1.3058   -1.0107 C   0  0  0  0  0  0  0  0  0  0  0  0
    2.8280   -1.0651   -1.9969 H   0  0  0  0  0  0  0  0  0  0  0  0
    4.7830   -0.9907   -1.0261 C   0  0  0  0  0  0  0  0  0  0  0  0
    5.2660   -1.2477   -0.0603 H   0  0  0  0  0  0  0  0  0  0  0  0
    4.9932    0.0782   -1.2368 H   0  0  0  0  0  0  0  0  0  0  0  0
    5.2913   -1.5877   -1.8120 H   0  0  0  0  0  0  0  0  0  0  0  0
    2.9705   -2.7822   -0.7448 C   0  0  0  0  0  0  0  0  0  0  0  0
    3.4750   -3.4115   -1.5072 H   0  0  0  0  0  0  0  0  0  0  0  0
    1.8797   -2.9557   -0.8201 H   0  0  0  0  0  0  0  0  0  0  0  0
    3.3214   -3.1198    0.2511 H   0  0  0  0  0  0  0  0  0  0  0  0
   -3.2102    0.0676    1.6949 C   0  0  0  0  0  0  0  0  0  0  0  0
   -4.2623    0.2905    1.4089 H   0  0  0  0  0  0  0  0  0  0  0  0
   -3.1656   -1.2117    2.5390 C   0  0  0  0  0  0  0  0  0  0  0  0
   -2.1149   -1.5179    2.7211 H   0  0  0  0  0  0  0  0  0  0  0  0
   -3.6848   -2.0574    2.0481 H   0  0  0  0  0  0  0  0  0  0  0  0
   -3.6535   -1.0409    3.5211 H   0  0  0  0  0  0  0  0  0  0  0  0
   -2.6346    1.2644    2.4611 C   0  0  0  0  0  0  0  0  0  0  0  0
   -3.1826    1.4030    3.4161 H   0  0  0  0  0  0  0  0  0  0  0  0
   -2.7093    2.2133    1.8930 H   0  0  0  0  0  0  0  0  0  0  0  0
   -1.5640    1.0953    2.6974 H   0  0  0  0  0  0  0  0  0  0  0  0
   -3.2856   -1.3060   -1.0106 C   0  0  0  0  0  0  0  0  0  0  0  0
   -2.8277   -1.0655   -1.9968 H   0  0  0  0  0  0  0  0  0  0  0  0
   -2.9704   -2.7824   -0.7444 C   0  0  0  0  0  0  0  0  0  0  0  0
   -3.3215   -3.1199    0.2515 H   0  0  0  0  0  0  0  0  0  0  0  0
   -1.8796   -2.9559   -0.8196 H   0  0  0  0  0  0  0  0  0  0  0  0
   -3.4750   -3.4118   -1.5068 H   0  0  0  0  0  0  0  0  0  0  0  0
   -4.7829   -0.9909   -1.0262 C   0  0  0  0  0  0  0  0  0  0  0  0
   -5.2911   -1.5880   -1.8120 H   0  0  0  0  0  0  0  0  0  0  0  0
   -4.9930    0.0780   -1.2371 H   0  0  0  0  0  0  0  0  0  0  0  0
   -5.2660   -1.2477   -0.0605 H   0  0  0  0  0  0  0  0  0  0  0  0
  1 17  1  0  0  0  0
  2 37  1  0  0  0  0
  4 11  1  6  0  0  0
  4  3  1  0  0  0  0
  5  4  1  0  0  0  0
  6  5  1  0  0  0  0
  7  8  1  0  0  0  0
  7  5  2  0  0  0  0
  8 10  2  0  0  0  0
  9  8  1  0  0  0  0
 10  3  1  0  0  0  0
 11 12  1  0  0  0  0
 11  1  1  0  0  0  0
 13 11  1  0  0  0  0
 14 10  1  0  0  0  0
 14 16  1  0  0  0  0
 14  2  1  0  0  0  0
 15 14  1  0  0  0  0
 17 23  1  0  0  0  0
 17 19  1  0  0  0  0
 18 17  1  0  0  0  0
 19 22  1  0  0  0  0
 19 20  1  0  0  0  0
 21 19  1  0  0  0  0
 23 24  1  0  0  0  0
 23 26  1  0  0  0  0
 25 23  1  0  0  0  0
 27 33  1  0  0  0  0
 27  1  1  0  0  0  0
 28 27  1  0  0  0  0
 29 27  1  0  0  0  0
 29 30  1  0  0  0  0
 31 29  1  0  0  0  0
 32 29  1  0  0  0  0
 33 36  1  0  0  0  0
 34 33  1  0  0  0  0
 35 33  1  0  0  0  0
 37 43  1  0  0  0  0
 37 39  1  0  0  0  0
 38 37  1  0  0  0  0
 39 40  1  0  0  0  0
 39 42  1  0  0  0  0
 41 39  1  0  0  0  0
 43 46  1  0  0  0  0
 43 44  1  0  0  0  0
 45 43  1  0  0  0  0
 47 49  1  0  0  0  0
 47  2  1  0  0  0  0
 48 47  1  0  0  0  0
 49 50  1  0  0  0  0
 51 49  1  0  0  0  0
 52 49  1  0  0  0  0
 53 47  1  0  0  0  0
 53 56  1  0  0  0  0
 54 53  1  0  0  0  0
 55 53  1  0  0  0  0
M  END
