1,2,4
q = -1.0, confidence = 0.016

 65 65  0  0  1  0  0  0  0  0999 V2000
   -2.2042   -0.1416    0.0338 P   0  0  0  0  0  0  0  0  0  0  0  0
    2.2572   -0.0099    0.0205 P   0  0  0  0  0  0  0  0  0  0  0  0
    2.3644    1.6721   -0.1870 N   0  0  0  0  0  2  0  0  0  0  0  0
   -0.0311    1.5712   -0.2008 N   0  0  0  0  0  2  0  0  0  0  0  0
   -2.3721    1.5532   -0.2345 O   0  0  0  0  0  0  0  0  0  0  0  0
   -1.2124    2.2623   -0.3055 C   0  0  1  0  0  3  0  0  0  0  0  0
    1.1974    2.2915   -0.2719 C   0  0  0  0  0  0  0  0  0  0  0  0
   -3.3863   -0.7840   -1.3022 C   0  0  0  0  0  0  0  0  0  0  0  0
   -1.2979    3.6389   -0.4671 C   0  0  0  0  0  0  0  0  0  0  0  0
   -2.2834    4.1144   -0.5345 H   0  0  0  0  0  0  0  0  0  0  0  0
   -2.9725   -0.2285    1.7766 C   0  0  0  0  0  0  0  0  0  0  0  0
   -0.0822    4.3652   -0.5349 C   0  0  0  0  0  0  0  0  0  0  0  0
   -0.1145    5.4581   -0.6655 H   0  0  0  0  0  0  0  0  0  0  0  0
    2.9932   -0.2518    1.7766 C   0  0  0  0  0  0  0  0  0  0  0  0
    3.4261   -0.6853   -1.3211 C   0  0  0  0  0  0  0  0  0  0  0  0
    3.2755   -2.2106   -1.4446 C   0  0  0  0  0  0  0  0  0  0  0  0
    3.5381   -2.7400   -0.5092 H   0  0  0  0  0  0  0  0  0  0  0  0
    3.9610   -2.5775   -2.2382 H   0  0  0  0  0  0  0  0  0  0  0  0
    2.2494   -2.5046   -1.7323 H   0  0  0  0  0  0  0  0  0  0  0  0
   -2.9793   -0.0891   -2.6177 C   0  0  0  0  0  0  0  0  0  0  0  0
   -3.1482    1.0032   -2.5640 H   0  0  0  0  0  0  0  0  0  0  0  0
   -3.6073   -0.4970   -3.4375 H   0  0  0  0  0  0  0  0  0  0  0  0
   -1.9242   -0.2721   -2.8885 H   0  0  0  0  0  0  0  0  0  0  0  0
   -3.1842   -2.3072   -1.4173 C   0  0  0  0  0  0  0  0  0  0  0  0
   -2.1529   -2.5677   -1.7179 H   0  0  0  0  0  0  0  0  0  0  0  0
   -3.8692   -2.6995   -2.1982 H   0  0  0  0  0  0  0  0  0  0  0  0
   -3.4171   -2.8379   -0.4739 H   0  0  0  0  0  0  0  0  0  0  0  0
    1.1338    3.7196   -0.4391 C   0  0  0  0  0  0  0  0  0  0  0  0
    2.0902    4.2546   -0.4908 H   0  0  0  0  0  0  0  0  0  0  0  0
   -3.2874   -1.6947    2.1164 C   0  0  0  0  0  0  0  0  0  0  0  0
   -4.1399   -2.0867    1.5280 H   0  0  0  0  0  0  0  0  0  0  0  0
   -3.5663   -1.7676    3.1890 H   0  0  0  0  0  0  0  0  0  0  0  0
   -2.4141   -2.3583    1.9546 H   0  0  0  0  0  0  0  0  0  0  0  0
    4.8873   -0.3057   -1.0319 C   0  0  0  0  0  0  0  0  0  0  0  0
    4.9907    0.7822   -0.8528 H   0  0  0  0  0  0  0  0  0  0  0  0
    5.5064   -0.5678   -1.9163 H   0  0  0  0  0  0  0  0  0  0  0  0
    5.3047   -0.8542   -0.1658 H   0  0  0  0  0  0  0  0  0  0  0  0
   -4.8613   -0.4616   -1.0181 C   0  0  0  0  0  0  0  0  0  0  0  0
   -5.2572   -1.0179   -0.1473 H   0  0  0  0  0  0  0  0  0  0  0  0
   -5.4636   -0.7633   -1.9010 H   0  0  0  0  0  0  0  0  0  0  0  0
   -5.0238    0.6215   -0.8565 H   0  0  0  0  0  0  0  0  0  0  0  0
    3.3991   -1.7115    2.0250 C   0  0  0  0  0  0  0  0  0  0  0  0
    2.5768   -2.4198    1.8018 H   0  0  0  0  0  0  0  0  0  0  0  0
    3.6661   -1.8376    3.0965 H   0  0  0  0  0  0  0  0  0  0  0  0
    4.2864   -2.0051    1.4313 H   0  0  0  0  0  0  0  0  0  0  0  0
   -1.8446    0.2793    2.6957 C   0  0  0  0  0  0  0  0  0  0  0  0
   -0.9431   -0.3584    2.6191 H   0  0  0  0  0  0  0  0  0  0  0  0
   -2.1857    0.2518    3.7523 H   0  0  0  0  0  0  0  0  0  0  0  0
   -1.5535    1.3231    2.4619 H   0  0  0  0  0  0  0  0  0  0  0  0
   -4.2006    0.6740    1.9719 C   0  0  0  0  0  0  0  0  0  0  0  0
   -4.0052    1.7022    1.6115 H   0  0  0  0  0  0  0  0  0  0  0  0
   -4.4293    0.7306    3.0575 H   0  0  0  0  0  0  0  0  0  0  0  0
   -5.1030    0.2909    1.4652 H   0  0  0  0  0  0  0  0  0  0  0  0
    3.0039    0.0043   -2.6335 C   0  0  0  0  0  0  0  0  0  0  0  0
    1.9611   -0.2244   -2.9180 H   0  0  0  0  0  0  0  0  0  0  0  0
    3.6595   -0.3593   -3.4532 H   0  0  0  0  0  0  0  0  0  0  0  0
    3.1167    1.1024   -2.5522 H   0  0  0  0  0  0  0  0  0  0  0  0
    1.8378    0.1229    2.7242 C   0  0  0  0  0  0  0  0  0  0  0  0
    1.4246    1.1265    2.4956 H   0  0  0  0  0  0  0  0  0  0  0  0
    2.2040    0.1426    3.7731 H   0  0  0  0  0  0  0  0  0  0  0  0
    1.0202   -0.6226    2.6756 H   0  0  0  0  0  0  0  0  0  0  0  0
    4.1648    0.7072    2.0420 C   0  0  0  0  0  0  0  0  0  0  0  0
    5.0761    0.4307    1.4831 H   0  0  0  0  0  0  0  0  0  0  0  0
    4.4143    0.6778    3.1245 H   0  0  0  0  0  0  0  0  0  0  0  0
    3.8935    1.7438    1.7648 H   0  0  0  0  0  0  0  0  0  0  0  0
  1 11  1  0  0  0  0
  2 14  1  0  0  0  0
  3  2  1  0  0  0  0
  5  1  1  0  0  0  0
  6  5  1  1  0  0  0
  6  4  1  0  0  0  0
  7  4  1  0  0  0  0
  7  3  1  0  0  0  0
  8 38  1  0  0  0  0
  8  1  1  0  0  0  0
  9  6  1  0  0  0  0
 10  9  1  0  0  0  0
 11 50  1  0  0  0  0
 11 30  1  0  0  0  0
 11 46  1  0  0  0  0
 12  9  2  0  0  0  0
 12 28  1  0  0  0  0
 13 12  1  0  0  0  0
 14 42  1  0  0  0  0
 14 62  1  0  0  0  0
 14 58  1  0  0  0  0
 15 34  1  0  0  0  0
 15  2  1  0  0  0  0
 16 15  1  0  0  0  0
 16 17  1  0  0  0  0
 18 16  1  0  0  0  0
 19 16  1  0  0  0  0
 20 21  1  0  0  0  0
 20  8  1  0  0  0  0
 22 20  1  0  0  0  0
 23 20  1  0  0  0  0
 24  8  1  0  0  0  0
 24 27  1  0  0  0  0
 25 24  1  0  0  0  0
 26 24  1  0  0  0  0
 28  7  2  0  0  0  0
 29 28  1  0  0  0  0
 30 32  1  0  0  0  0
 31 30  1  0  0  0  0
 33 30  1  0  0  0  0
 34 35  1  0  0  0  0
 34 37  1  0  0  0  0
 36 34  1  0  0  0  0
 38 41  1  0  0  0  0
 38 39  1  0  0  0  0
 40 38  1  0  0  0  0
 42 44  1  0  0  0  0
 43 42  1  0  0  0  0
 45 42  1  0  0  0  0
 46 48  1  0  0  0  0
 47 46  1  0  0  0  0
 49 46  1  0  0  0  0
 50 52  1  0  0  0  0
 51 50  1  0  0  0  0
 53 50  1  0  0  0  0
 54 57  1  0  0  0  0
 54 15  1  0  0  0  0
 55 54  1  0  0  0  0
 56 54  1  0  0  0  0
 58 60  1  0  0  0  0
 59 58  1  0  0  0  0
 61 58  1  0  0  0  0
 62 64  1  0  0  0  0
 63 62  1  0  0  0  0
 65 62  1  0  0  0  0
M  END
