1,2,3
q = -1.0, confidence = 0.006

 70 75  0  0  0  0  0  0  0  0999 V2000
   -2.3816   -0.0974   -0.0185 P   0  0  0  0  0  0  0  0  0  0  0  0
    2.2316   -0.2141   -0.0806 P   0  0  0  0  0  0  0  0  0  0  0  0
   -0.2673    1.9221    0.4121 N   0  0  0  0  0  2  0  0  0  0  0  0
    1.9783    2.7760    0.6411 N   0  0  0  0  0  0  0  0  0  0  0  0
    0.7694    2.7945    0.1785 C   0  0  0  0  0  0  0  0  0  0  0  0
   -3.3296   -0.5684   -1.5123 C   0  0  0  0  0  0  0  0  0  0  0  0
   -3.5984    0.3923   -2.5089 C   0  0  0  0  0  0  0  0  0  0  0  0
   -4.2288    0.0103   -3.7020 C   0  0  0  0  0  0  0  0  0  0  0  0
   -4.5910   -1.3298   -3.9134 C   0  0  0  0  0  0  0  0  0  0  0  0
   -4.3175   -2.2911   -2.9271 C   0  0  0  0  0  0  0  0  0  0  0  0
   -3.6862   -1.9165   -1.7320 C   0  0  0  0  0  0  0  0  0  0  0  0
   -3.1453   -1.0358    1.3609 C   0  0  0  0  0  0  0  0  0  0  0  0
   -4.5300   -1.2992    1.4146 C   0  0  0  0  0  0  0  0  0  0  0  0
   -5.0759   -1.9553    2.5274 C   0  0  0  0  0  0  0  0  0  0  0  0
   -4.2476   -2.3496    3.5913 C   0  0  0  0  0  0  0  0  0  0  0  0
   -2.8689   -2.0894    3.5405 C   0  0  0  0  0  0  0  0  0  0  0  0
   -2.3164   -1.4373    2.4285 C   0  0  0  0  0  0  0  0  0  0  0  0
   -2.7021    1.6609    0.2854 C   0  0  0  0  0  0  0  0  0  0  0  0
   -3.9978    2.2031    0.3625 C   0  0  0  0  0  0  0  0  0  0  0  0
   -4.1885    3.5687    0.6019 C   0  0  0  0  0  0  0  0  0  0  0  0
   -3.0560    4.3840    0.7947 C   0  0  0  0  0  0  0  0  0  0  0  0
   -1.7643    3.8555    0.7457 C   0  0  0  0  0  0  0  0  0  0  0  0
   -1.5381    2.4740    0.4630 C   0  0  0  0  0  0  0  0  0  0  0  0
    2.8776    0.5977    1.4194 C   0  0  0  0  0  0  0  0  0  0  0  0
    3.6094   -0.0987    2.4033 C   0  0  0  0  0  0  0  0  0  0  0  0
    3.9686    0.5211    3.6062 C   0  0  0  0  0  0  0  0  0  0  0  0
    3.5966    1.8594    3.8268 C   0  0  0  0  0  0  0  0  0  0  0  0
    2.9041    2.5731    2.8464 C   0  0  0  0  0  0  0  0  0  0  0  0
    2.5270    1.9682    1.6181 C   0  0  0  0  0  0  0  0  0  0  0  0
    3.0446   -1.8634   -0.0843 C   0  0  0  0  0  0  0  0  0  0  0  0
    4.1319   -2.1638   -0.9261 C   0  0  0  0  0  0  0  0  0  0  0  0
    4.7309   -3.4330   -0.8752 C   0  0  0  0  0  0  0  0  0  0  0  0
    4.2531   -4.4054    0.0160 C   0  0  0  0  0  0  0  0  0  0  0  0
    3.1657   -4.1106    0.8557 C   0  0  0  0  0  0  0  0  0  0  0  0
    2.5584   -2.8492    0.8013 C   0  0  0  0  0  0  0  0  0  0  0  0
    2.9739    0.6697   -1.5060 C   0  0  0  0  0  0  0  0  0  0  0  0
    4.1898    1.3705   -1.3893 C   0  0  0  0  0  0  0  0  0  0  0  0
    4.7356    2.0115   -2.5109 C   0  0  0  0  0  0  0  0  0  0  0  0
    4.0716    1.9573   -3.7476 C   0  0  0  0  0  0  0  0  0  0  0  0
    2.8552    1.2649   -3.8632 C   0  0  0  0  0  0  0  0  0  0  0  0
    2.3022    0.6254   -2.7439 C   0  0  0  0  0  0  0  0  0  0  0  0
    0.5415    3.6358   -0.5165 H   0  0  0  0  0  0  0  0  0  0  0  0
   -3.3152    1.4425   -2.3418 H   0  0  0  0  0  0  0  0  0  0  0  0
   -4.4401    0.7676   -4.4722 H   0  0  0  0  0  0  0  0  0  0  0  0
   -5.0875   -1.6264   -4.8497 H   0  0  0  0  0  0  0  0  0  0  0  0
   -4.5968   -3.3434   -3.0885 H   0  0  0  0  0  0  0  0  0  0  0  0
   -3.4740   -2.6739   -0.9626 H   0  0  0  0  0  0  0  0  0  0  0  0
   -5.1818   -1.0003    0.5795 H   0  0  0  0  0  0  0  0  0  0  0  0
   -6.1567   -2.1605    2.5640 H   0  0  0  0  0  0  0  0  0  0  0  0
   -4.6797   -2.8653    4.4625 H   0  0  0  0  0  0  0  0  0  0  0  0
   -2.2166   -2.3996    4.3709 H   0  0  0  0  0  0  0  0  0  0  0  0
   -1.2355   -1.2293    2.3676 H   0  0  0  0  0  0  0  0  0  0  0  0
   -4.8679    1.5418    0.2253 H   0  0  0  0  0  0  0  0  0  0  0  0
   -5.2023    3.9902    0.6597 H   0  0  0  0  0  0  0  0  0  0  0  0
   -3.1856    5.4555    1.0140 H   0  0  0  0  0  0  0  0  0  0  0  0
   -0.9060    4.5052    0.9680 H   0  0  0  0  0  0  0  0  0  0  0  0
    3.8940   -1.1456    2.2247 H   0  0  0  0  0  0  0  0  0  0  0  0
    4.5359   -0.0369    4.3655 H   0  0  0  0  0  0  0  0  0  0  0  0
    3.8652    2.3585    4.7709 H   0  0  0  0  0  0  0  0  0  0  0  0
    2.6425    3.6314    2.9924 H   0  0  0  0  0  0  0  0  0  0  0  0
    4.5108   -1.4034   -1.6247 H   0  0  0  0  0  0  0  0  0  0  0  0
    5.5789   -3.6609   -1.5388 H   0  0  0  0  0  0  0  0  0  0  0  0
    4.7247   -5.3991    0.0533 H   0  0  0  0  0  0  0  0  0  0  0  0
    2.7813   -4.8723    1.5509 H   0  0  0  0  0  0  0  0  0  0  0  0
    1.6926   -2.6206    1.4419 H   0  0  0  0  0  0  0  0  0  0  0  0
    4.6985    1.4211   -0.4144 H   0  0  0  0  0  0  0  0  0  0  0  0
    5.6820    2.5654   -2.4164 H   0  0  0  0  0  0  0  0  0  0  0  0
    4.5008    2.4658   -4.6245 H   0  0  0  0  0  0  0  0  0  0  0  0
    2.3284    1.2297   -4.8288 H   0  0  0  0  0  0  0  0  0  0  0  0
    1.3369    0.0984   -2.8133 H   0  0  0  0  0  0  0  0  0  0  0  0
  1 18  1  0  0  0  0
  1 12  1  0  0  0  0
  2 24  1  0  0  0  0
  3 23  1  0  0  0  0
  4 29  1  0  0  0  0
  5  3  1  0  0  0  0
  5  4  2  0  0  0  0
  6  1  1  0  0  0  0
  7 43  1  0  0  0  0
  7  6  2  0  0  0  0
  8  7  1  0  0  0  0
  9  8  2  0  0  0  0
  9 10  1  0  0  0  0
 10 11  2  0  0  0  0
 11  6  1  0  0  0  0
 11 47  1  0  0  0  0
 12 13  2  0  0  0  0
 12 17  1  0  0  0  0
 13 14  1  0  0  0  0
 14 49  1  0  0  0  0
 14 15  2  0  0  0  0
 15 50  1  0  0  0  0
 16 15  1  0  0  0  0
 16 51  1  0  0  0  0
 17 16  2  0  0  0  0
 18 19  2  0  0  0  0
 18 23  1  0  0  0  0
 19 20  1  0  0  0  0
 20 54  1  0  0  0  0
 20 21  2  0  0  0  0
 21 55  1  0  0  0  0
 22 21  1  0  0  0  0
 22 56  1  0  0  0  0
 23 22  2  0  0  0  0
 24 29  2  0  0  0  0
 24 25  1  0  0  0  0
 25 26  2  0  0  0  0
 26 27  1  0  0  0  0
 26 58  1  0  0  0  0
 27 59  1  0  0  0  0
 28 60  1  0  0  0  0
 28 27  2  0  0  0  0
 29 28  1  0  0  0  0
 30  2  1  0  0  0  0
 30 35  1  0  0  0  0
 31 32  1  0  0  0  0
 31 30  2  0  0  0  0
 32 33  2  0  0  0  0
 33 63  1  0  0  0  0
 33 34  1  0  0  0  0
 34 64  1  0  0  0  0
 35 34  2  0  0  0  0
 35 65  1  0  0  0  0
 36 37  1  0  0  0  0
 36  2  1  0  0  0  0
 37 66  1  0  0  0  0
 38 67  1  0  0  0  0
 38 37  2  0  0  0  0
 39 38  1  0  0  0  0
 40 39  2  0  0  0  0
 40 41  1  0  0  0  0
 41 36  2  0  0  0  0
 42  5  1  0  0  0  0
 44  8  1  0  0  0  0
 45  9  1  0  0  0  0
 46 10  1  0  0  0  0
 48 13  1  0  0  0  0
 52 17  1  0  0  0  0
 53 19  1  0  0  0  0
 57 25  1  0  0  0  0
 61 31  1  0  0  0  0
 62 32  1  0  0  0  0
 68 39  1  0  0  0  0
 69 40  1  0  0  0  0
 70 41  1  0  0  0  0
M  END
