1,2,3
q = 0.0, confidence = 0.996

 74 78  0  0  1  0  0  0  0  0999 V2000
   -2.3272   -0.0697    0.3537 P   0  0  0  0  0  0  0  0  0  0  0  0
    2.0770   -0.0604   -0.2041 P   0  0  0  0  0  0  0  0  0  0  0  0
    0.0626    0.6929    1.7342 N   0  0  0  0  0  2  0  0  0  0  0  0
   -2.3387    0.5897    2.0851 C   0  0  0  0  0  0  0  0  0  0  0  0
   -3.2787    1.1009    2.3663 H   0  0  0  0  0  0  0  0  0  0  0  0
   -2.1779   -0.2758    2.7596 H   0  0  0  0  0  0  0  0  0  0  0  0
   -1.1080    1.5056    2.1749 C   0  0  2  0  0  0  0  0  0  0  0  0
   -0.9572    1.7876    3.2420 H   0  0  0  0  0  0  0  0  0  0  0  0
   -1.1764    2.8209    1.3589 C   0  0  0  0  0  0  0  0  0  0  0  0
   -1.2032    2.5290    0.2848 H   0  0  0  0  0  0  0  0  0  0  0  0
   -2.4424    3.6242    1.6718 C   0  0  0  0  0  0  0  0  0  0  0  0
   -3.3668    3.0920    1.3753 H   0  0  0  0  0  0  0  0  0  0  0  0
   -2.4300    4.5855    1.1206 H   0  0  0  0  0  0  0  0  0  0  0  0
   -2.5073    3.8622    2.7553 H   0  0  0  0  0  0  0  0  0  0  0  0
    0.0854    3.6627    1.5773 C   0  0  0  0  0  0  0  0  0  0  0  0
    1.0039    3.1158    1.2926 H   0  0  0  0  0  0  0  0  0  0  0  0
    0.1812    3.9674    2.6418 H   0  0  0  0  0  0  0  0  0  0  0  0
    0.0471    4.5862    0.9662 H   0  0  0  0  0  0  0  0  0  0  0  0
    1.0087    0.5685    2.6479 C   0  0  0  0  0  3  0  0  0  0  0  0
    0.8152    1.0488    3.6255 H   0  0  0  0  0  0  0  0  0  0  0  0
    2.2782   -0.1334    2.5682 C   0  0  0  0  0  0  0  0  0  0  0  0
    2.9522   -0.3973    3.7881 C   0  0  0  0  0  0  0  0  0  0  0  0
    2.4865   -0.0727    4.7320 H   0  0  0  0  0  0  0  0  0  0  0  0
    4.1698   -1.0834    3.8118 C   0  0  0  0  0  0  0  0  0  0  0  0
    4.6610   -1.2929    4.7740 H   0  0  0  0  0  0  0  0  0  0  0  0
    4.7597   -1.5081    2.6092 C   0  0  0  0  0  0  0  0  0  0  0  0
    5.7147   -2.0544    2.6200 H   0  0  0  0  0  0  0  0  0  0  0  0
    4.1306   -1.2193    1.3869 C   0  0  0  0  0  0  0  0  0  0  0  0
    4.5983   -1.5285    0.4401 H   0  0  0  0  0  0  0  0  0  0  0  0
    2.9078   -0.5333    1.3531 C   0  0  0  0  0  0  0  0  0  0  0  0
    2.9381   -1.0365   -1.4970 C   0  0  0  0  0  0  0  0  0  0  0  0
    2.4786   -2.3446   -1.7568 C   0  0  0  0  0  0  0  0  0  0  0  0
    1.6081   -2.7319   -1.2037 H   0  0  0  0  0  0  0  0  0  0  0  0
    3.1341   -3.1358   -2.7097 C   0  0  0  0  0  0  0  0  0  0  0  0
    2.7727   -4.1560   -2.9100 H   0  0  0  0  0  0  0  0  0  0  0  0
    4.2387   -2.6283   -3.4146 C   0  0  0  0  0  0  0  0  0  0  0  0
    4.7462   -3.2512   -4.1671 H   0  0  0  0  0  0  0  0  0  0  0  0
    4.6908   -1.3239   -3.1628 C   0  0  0  0  0  0  0  0  0  0  0  0
    5.5527   -0.9203   -3.7161 H   0  0  0  0  0  0  0  0  0  0  0  0
    4.0432   -0.5266   -2.2055 C   0  0  0  0  0  0  0  0  0  0  0  0
    4.3956    0.4975   -2.0107 H   0  0  0  0  0  0  0  0  0  0  0  0
    2.6609    1.6754   -0.4641 C   0  0  0  0  0  0  0  0  0  0  0  0
    2.1195    2.4103   -1.5423 C   0  0  0  0  0  0  0  0  0  0  0  0
    1.4186    1.9164   -2.2342 H   0  0  0  0  0  0  0  0  0  0  0  0
    2.4663    3.7563   -1.7235 C   0  0  0  0  0  0  0  0  0  0  0  0
    2.0414    4.3178   -2.5697 H   0  0  0  0  0  0  0  0  0  0  0  0
    3.3449    4.3887   -0.8275 C   0  0  0  0  0  0  0  0  0  0  0  0
    3.6088    5.4482   -0.9666 H   0  0  0  0  0  0  0  0  0  0  0  0
    3.8855    3.6634    0.2450 C   0  0  0  0  0  0  0  0  0  0  0  0
    4.5775    4.1510    0.9489 H   0  0  0  0  0  0  0  0  0  0  0  0
    3.5480    2.3124    0.4277 C   0  0  0  0  0  0  0  0  0  0  0  0
    3.9770    1.7496    1.2697 H   0  0  0  0  0  0  0  0  0  0  0  0
   -3.2917   -1.6295    0.3593 C   0  0  0  0  0  0  0  0  0  0  0  0
   -3.2967   -2.3752   -0.8382 C   0  0  0  0  0  0  0  0  0  0  0  0
   -2.7172   -2.0149   -1.7035 H   0  0  0  0  0  0  0  0  0  0  0  0
   -4.0194   -3.5722   -0.9158 C   0  0  0  0  0  0  0  0  0  0  0  0
   -4.0156   -4.1512   -1.8518 H   0  0  0  0  0  0  0  0  0  0  0  0
   -4.7369   -4.0389    0.1988 C   0  0  0  0  0  0  0  0  0  0  0  0
   -5.3001   -4.9826    0.1372 H   0  0  0  0  0  0  0  0  0  0  0  0
   -4.7285   -3.3029    1.3928 C   0  0  0  0  0  0  0  0  0  0  0  0
   -5.2842   -3.6668    2.2706 H   0  0  0  0  0  0  0  0  0  0  0  0
   -4.0073   -2.1007    1.4754 C   0  0  0  0  0  0  0  0  0  0  0  0
   -4.0044   -1.5364    2.4199 H   0  0  0  0  0  0  0  0  0  0  0  0
   -3.4975    1.0619   -0.5365 C   0  0  0  0  0  0  0  0  0  0  0  0
   -3.0418    1.9565   -1.5228 C   0  0  0  0  0  0  0  0  0  0  0  0
   -1.9873    1.9232   -1.8350 H   0  0  0  0  0  0  0  0  0  0  0  0
   -3.9326    2.8593   -2.1248 C   0  0  0  0  0  0  0  0  0  0  0  0
   -3.5648    3.5516   -2.8976 H   0  0  0  0  0  0  0  0  0  0  0  0
   -5.2845    2.8756   -1.7502 C   0  0  0  0  0  0  0  0  0  0  0  0
   -5.9812    3.5849   -2.2227 H   0  0  0  0  0  0  0  0  0  0  0  0
   -5.7492    1.9752   -0.7769 C   0  0  0  0  0  0  0  0  0  0  0  0
   -6.8110    1.9738   -0.4864 H   0  0  0  0  0  0  0  0  0  0  0  0
   -4.8622    1.0700   -0.1768 C   0  0  0  0  0  0  0  0  0  0  0  0
   -5.2359    0.3560    0.5739 H   0  0  0  0  0  0  0  0  0  0  0  0
  1 53  1  0  0  0  0
  1  4  1  0  0  0  0
  2 30  1  0  0  0  0
  3  7  1  0  0  0  0
  3 19  1  0  0  0  0
  4  7  1  0  0  0  0
  4  5  1  0  0  0  0
  4  6  1  0  0  0  0
  7  8  1  1  0  0  0
  9 15  1  0  0  0  0
  9 11  1  0  0  0  0
  9  7  1  0  0  0  0
 10  9  1  0  0  0  0
 11 14  1  0  0  0  0
 12 11  1  0  0  0  0
 13 11  1  0  0  0  0
 15 17  1  0  0  0  0
 16 15  1  0  0  0  0
 18 15  1  0  0  0  0
 19 20  1  0  0  0  0
 21 19  1  0  0  0  0
 21 22  1  0  0  0  0
 22 24  2  0  0  0  0
 22 23  1  0  0  0  0
 24 25  1  0  0  0  0
 26 27  1  0  0  0  0
 26 24  1  0  0  0  0
 28 26  2  0  0  0  0
 29 28  1  0  0  0  0
 30 28  1  0  0  0  0
 30 21  2  0  0  0  0
 31  2  1  0  0  0  0
 32 31  1  0  0  0  0
 32 33  1  0  0  0  0
 34 32  2  0  0  0  0
 35 34  1  0  0  0  0
 36 38  2  0  0  0  0
 36 34  1  0  0  0  0
 37 36  1  0  0  0  0
 38 40  1  0  0  0  0
 39 38  1  0  0  0  0
 40 41  1  0  0  0  0
 40 31  2  0  0  0  0
 42  2  1  0  0  0  0
 42 51  1  0  0  0  0
 43 42  2  0  0  0  0
 44 43  1  0  0  0  0
 45 43  1  0  0  0  0
 45 47  2  0  0  0  0
 46 45  1  0  0  0  0
 47 49  1  0  0  0  0
 48 47  1  0  0  0  0
 49 51  2  0  0  0  0
 49 50  1  0  0  0  0
 51 52  1  0  0  0  0
 53 62  1  0  0  0  0
 54 53  2  0  0  0  0
 55 54  1  0  0  0  0
 56 54  1  0  0  0  0
 56 58  2  0  0  0  0
 57 56  1  0  0  0  0
 58 60  1  0  0  0  0
 59 58  1  0  0  0  0
 60 62  2  0  0  0  0
 60 61  1  0  0  0  0
 62 63  1  0  0  0  0
 64 73  1  0  0  0  0
 64  1  1  0  0  0  0
 65 64  2  0  0  0  0
 66 65  1  0  0  0  0
 67 69  2  0  0  0  0
 67 65  1  0  0  0  0
 68 67  1  0  0  0  0
 69 71  1  0  0  0  0
 70 69  1  0  0  0  0
 71 72  1  0  0  0  0
 71 73  2  0  0  0  0
 73 74  1  0  0  0  0
M  END
