1,2,6
q = -1.0, confidence = 0.01

 83 87  0  0  0  0  0  0  0  0999 V2000
   -2.1474   -0.0915    0.3559 P   0  0  0  0  0  0  0  0  0  0  0  0
    2.1738   -0.2194    0.3560 P   0  0  0  0  0  0  0  0  0  0  0  0
    5.5322   -2.2503   -1.2276 C   0  0  0  0  0  0  0  0  0  0  0  0
    5.4498   -1.9262   -2.2893 H   0  0  0  0  0  0  0  0  0  0  0  0
    6.6106   -2.2007   -0.9676 H   0  0  0  0  0  0  0  0  0  0  0  0
    0.0198   -0.2812    2.0318 N   0  0  0  0  0  0  0  0  0  0  0  0
    3.2307   -1.3604   -0.6470 C   0  0  0  0  0  0  0  0  0  0  0  0
    3.0372   -1.0246   -1.6914 H   0  0  0  0  0  0  0  0  0  0  0  0
   -3.2371   -1.3643   -0.4302 C   0  0  0  0  0  0  0  0  0  0  0  0
   -3.0604   -1.2011   -1.5177 H   0  0  0  0  0  0  0  0  0  0  0  0
    2.8063    1.5092    0.0621 C   0  0  0  0  0  0  0  0  0  0  0  0
    3.8905    1.5097    0.3228 H   0  0  0  0  0  0  0  0  0  0  0  0
    2.6386    1.9031   -1.4180 C   0  0  0  0  0  0  0  0  0  0  0  0
    1.5842    1.7185   -1.7196 H   0  0  0  0  0  0  0  0  0  0  0  0
    3.2549    1.2427   -2.0631 H   0  0  0  0  0  0  0  0  0  0  0  0
   -2.7650    1.5746   -0.2072 C   0  0  0  0  0  0  0  0  0  0  0  0
   -3.7726    1.7135    0.2503 H   0  0  0  0  0  0  0  0  0  0  0  0
    4.7355   -1.2746   -0.3475 C   0  0  0  0  0  0  0  0  0  0  0  0
    4.9095   -1.5229    0.7240 H   0  0  0  0  0  0  0  0  0  0  0  0
    5.1061   -0.2387   -0.4952 H   0  0  0  0  0  0  0  0  0  0  0  0
   -2.4452   -0.1189    2.2008 C   0  0  0  0  0  0  0  0  0  0  0  0
   -3.1069    0.7233    2.4967 H   0  0  0  0  0  0  0  0  0  0  0  0
   -2.9949   -1.0554    2.4488 H   0  0  0  0  0  0  0  0  0  0  0  0
    1.1555   -0.2745    2.8308 C   0  0  0  0  0  0  0  0  0  0  0  0
   -1.0885   -0.0690    2.8406 C   0  0  0  0  0  3  0  0  0  0  0  0
    5.0091   -3.6863   -1.0975 C   0  0  0  0  0  0  0  0  0  0  0  0
    5.5810   -4.3668   -1.7625 H   0  0  0  0  0  0  0  0  0  0  0  0
    5.1844   -4.0452   -0.0578 H   0  0  0  0  0  0  0  0  0  0  0  0
    3.0075    3.3717   -1.6658 C   0  0  0  0  0  0  0  0  0  0  0  0
    4.0971    3.5161   -1.4855 H   0  0  0  0  0  0  0  0  0  0  0  0
    2.8313    3.6250   -2.7322 H   0  0  0  0  0  0  0  0  0  0  0  0
    2.0685    2.4847    1.0007 C   0  0  0  0  0  0  0  0  0  0  0  0
    0.9765    2.3438    0.8565 H   0  0  0  0  0  0  0  0  0  0  0  0
    2.2597    2.2266    2.0619 H   0  0  0  0  0  0  0  0  0  0  0  0
    2.4742   -0.5445    2.1670 C   0  0  0  0  0  0  0  0  0  0  0  0
    2.7923   -1.6073    2.2701 H   0  0  0  0  0  0  0  0  0  0  0  0
    3.3050    0.0805    2.5576 H   0  0  0  0  0  0  0  0  0  0  0  0
    2.6981   -2.8012   -0.5325 C   0  0  0  0  0  0  0  0  0  0  0  0
    2.7545   -3.1365    0.5280 H   0  0  0  0  0  0  0  0  0  0  0  0
    1.6267   -2.8097   -0.8193 H   0  0  0  0  0  0  0  0  0  0  0  0
    3.5094   -3.7624   -1.4107 C   0  0  0  0  0  0  0  0  0  0  0  0
    3.1354   -4.7996   -1.2820 H   0  0  0  0  0  0  0  0  0  0  0  0
    3.3427   -3.4999   -2.4794 H   0  0  0  0  0  0  0  0  0  0  0  0
   -1.8111    2.6552    0.3361 C   0  0  0  0  0  0  0  0  0  0  0  0
   -1.7353    2.5966    1.4421 H   0  0  0  0  0  0  0  0  0  0  0  0
   -0.7950    2.4242   -0.0520 H   0  0  0  0  0  0  0  0  0  0  0  0
   -2.7151   -2.7737   -0.0944 C   0  0  0  0  0  0  0  0  0  0  0  0
   -2.7458   -2.9313    1.0075 H   0  0  0  0  0  0  0  0  0  0  0  0
   -1.6500   -2.8419   -0.3975 H   0  0  0  0  0  0  0  0  0  0  0  0
   -2.8846    1.6662   -1.7388 C   0  0  0  0  0  0  0  0  0  0  0  0
   -3.6296    0.9337   -2.1133 H   0  0  0  0  0  0  0  0  0  0  0  0
   -1.9102    1.3759   -2.1898 H   0  0  0  0  0  0  0  0  0  0  0  0
    2.4409    3.9461    0.7246 C   0  0  0  0  0  0  0  0  0  0  0  0
    1.8506    4.6114    1.3891 H   0  0  0  0  0  0  0  0  0  0  0  0
    3.5107    4.1125    0.9859 H   0  0  0  0  0  0  0  0  0  0  0  0
   -3.2788    3.0812   -2.1863 C   0  0  0  0  0  0  0  0  0  0  0  0
   -3.3210    3.1236   -3.2948 H   0  0  0  0  0  0  0  0  0  0  0  0
   -4.3080    3.3075   -1.8254 H   0  0  0  0  0  0  0  0  0  0  0  0
   -3.5543   -3.8551   -0.7871 C   0  0  0  0  0  0  0  0  0  0  0  0
   -3.4095   -3.7730   -1.8876 H   0  0  0  0  0  0  0  0  0  0  0  0
   -3.1878   -4.8621   -0.4977 H   0  0  0  0  0  0  0  0  0  0  0  0
    2.2205    4.3132   -0.7473 C   0  0  0  0  0  0  0  0  0  0  0  0
    2.5058    5.3697   -0.9343 H   0  0  0  0  0  0  0  0  0  0  0  0
    1.1351    4.2328   -0.9853 H   0  0  0  0  0  0  0  0  0  0  0  0
   -2.2136    4.0633   -0.1153 C   0  0  0  0  0  0  0  0  0  0  0  0
   -3.1951    4.3328    0.3362 H   0  0  0  0  0  0  0  0  0  0  0  0
   -1.4789    4.8026    0.2682 H   0  0  0  0  0  0  0  0  0  0  0  0
   -5.5584   -2.3074   -0.8161 C   0  0  0  0  0  0  0  0  0  0  0  0
   -6.6308   -2.2023   -0.5482 H   0  0  0  0  0  0  0  0  0  0  0  0
   -5.4943   -2.1629   -1.9180 H   0  0  0  0  0  0  0  0  0  0  0  0
   -2.3147    4.1426   -1.6431 C   0  0  0  0  0  0  0  0  0  0  0  0
   -1.3044    3.9761   -2.0813 H   0  0  0  0  0  0  0  0  0  0  0  0
   -2.6326    5.1572   -1.9623 H   0  0  0  0  0  0  0  0  0  0  0  0
   -0.6539    0.0857    4.1612 C   0  0  0  0  0  0  0  0  0  0  0  0
   -1.2932    0.2510    5.0371 H   0  0  0  0  0  0  0  0  0  0  0  0
    0.7694   -0.0431    4.1548 C   0  0  0  0  0  0  0  0  0  0  0  0
    1.4367    0.0057    5.0239 H   0  0  0  0  0  0  0  0  0  0  0  0
   -5.0461   -3.7090   -0.4611 C   0  0  0  0  0  0  0  0  0  0  0  0
   -5.6383   -4.4826   -0.9934 H   0  0  0  0  0  0  0  0  0  0  0  0
   -5.2023   -3.8894    0.6268 H   0  0  0  0  0  0  0  0  0  0  0  0
   -4.7347   -1.2116   -0.1220 C   0  0  0  0  0  0  0  0  0  0  0  0
   -5.0970   -0.2079   -0.4286 H   0  0  0  0  0  0  0  0  0  0  0  0
   -4.8901   -1.2809    0.9782 H   0  0  0  0  0  0  0  0  0  0  0  0
  1 21  1  0  0  0  0
  2 35  1  0  0  0  0
  3 26  1  0  0  0  0
  3  5  1  0  0  0  0
  3 18  1  0  0  0  0
  4  3  1  0  0  0  0
  6 24  2  0  0  0  0
  6 25  1  0  0  0  0
  7 38  1  0  0  0  0
  7 18  1  0  0  0  0
  7  2  1  0  0  0  0
  8  7  1  0  0  0  0
  9 81  1  0  0  0  0
  9 47  1  0  0  0  0
  9  1  1  0  0  0  0
 10  9  1  0  0  0  0
 11 12  1  0  0  0  0
 11  2  1  0  0  0  0
 11 32  1  0  0  0  0
 13 11  1  0  0  0  0
 14 13  1  0  0  0  0
 15 13  1  0  0  0  0
 16 17  1  0  0  0  0
 16 44  1  0  0  0  0
 16  1  1  0  0  0  0
 18 19  1  0  0  0  0
 20 18  1  0  0  0  0
 21 23  1  0  0  0  0
 21 22  1  0  0  0  0
 21 25  1  0  0  0  0
 24 76  1  0  0  0  0
 25 74  1  0  0  0  0
 26 28  1  0  0  0  0
 27 26  1  0  0  0  0
 29 30  1  0  0  0  0
 29 13  1  0  0  0  0
 29 62  1  0  0  0  0
 31 29  1  0  0  0  0
 32 34  1  0  0  0  0
 33 32  1  0  0  0  0
 35 36  1  0  0  0  0
 35 37  1  0  0  0  0
 35 24  1  0  0  0  0
 38 39  1  0  0  0  0
 40 38  1  0  0  0  0
 41 42  1  0  0  0  0
 41 26  1  0  0  0  0
 41 38  1  0  0  0  0
 43 41  1  0  0  0  0
 44 45  1  0  0  0  0
 46 44  1  0  0  0  0
 47 48  1  0  0  0  0
 49 47  1  0  0  0  0
 50 16  1  0  0  0  0
 51 50  1  0  0  0  0
 52 50  1  0  0  0  0
 53 55  1  0  0  0  0
 53 32  1  0  0  0  0
 53 54  1  0  0  0  0
 56 58  1  0  0  0  0
 56 50  1  0  0  0  0
 56 71  1  0  0  0  0
 57 56  1  0  0  0  0
 59 61  1  0  0  0  0
 59 78  1  0  0  0  0
 59 47  1  0  0  0  0
 60 59  1  0  0  0  0
 62 53  1  0  0  0  0
 63 62  1  0  0  0  0
 64 62  1  0  0  0  0
 65 67  1  0  0  0  0
 65 44  1  0  0  0  0
 65 66  1  0  0  0  0
 68 69  1  0  0  0  0
 68 78  1  0  0  0  0
 68 81  1  0  0  0  0
 70 68  1  0  0  0  0
 71 65  1  0  0  0  0
 72 71  1  0  0  0  0
 73 71  1  0  0  0  0
 74 75  1  0  0  0  0
 76 74  2  0  0  0  0
 76 77  1  0  0  0  0
 78 80  1  0  0  0  0
 79 78  1  0  0  0  0
 81 83  1  0  0  0  0
 82 81  1  0  0  0  0
M  END
