1,2,3
q = -1.0, confidence = 0.006

 70 72  0  0  0  0  0  0  0  0999 V2000
    2.2617   -0.9117   -0.3066 P   0  0  0  0  0  0  0  0  0  0  0  0
   -2.2557   -0.9221   -0.3017 P   0  0  0  0  0  0  0  0  0  0  0  0
   -0.0032    1.3774   -0.5754 N   0  0  0  0  0  2  0  0  0  0  0  0
    2.4562    0.3141   -1.6992 C   0  0  0  0  0  0  0  0  0  0  0  0
    3.4094    0.1436   -2.2389 H   0  0  0  0  0  0  0  0  0  0  0  0
    1.6042    0.1115   -2.3790 H   0  0  0  0  0  0  0  0  0  0  0  0
    2.3857    1.6909   -1.1224 C   0  0  0  0  0  0  0  0  0  0  0  0
    3.5339    2.5053   -1.1269 C   0  0  0  0  0  0  0  0  0  0  0  0
    4.4418    2.1280   -1.6246 H   0  0  0  0  0  0  0  0  0  0  0  0
    3.5346    3.7766   -0.5417 C   0  0  0  0  0  0  0  0  0  0  0  0
    4.4342    4.4086   -0.5724 H   0  0  0  0  0  0  0  0  0  0  0  0
    2.3643    4.2199    0.0913 C   0  0  0  0  0  0  0  0  0  0  0  0
    2.3386    5.2060    0.5829 H   0  0  0  0  0  0  0  0  0  0  0  0
    1.2156    3.4195    0.1346 C   0  0  0  0  0  0  0  0  0  0  0  0
   -0.0165    3.8486    0.8826 C   0  0  0  0  0  0  0  0  0  0  0  0
   -0.0204    4.9430    1.0591 H   0  0  0  0  0  0  0  0  0  0  0  0
   -0.0195    3.3689    1.8905 H   0  0  0  0  0  0  0  0  0  0  0  0
   -1.2395    3.4122    0.1240 C   0  0  0  0  0  0  0  0  0  0  0  0
   -2.3922    4.2065    0.0702 C   0  0  0  0  0  0  0  0  0  0  0  0
   -2.3755    5.1937    0.5599 H   0  0  0  0  0  0  0  0  0  0  0  0
   -3.5552    3.7554   -0.5706 C   0  0  0  0  0  0  0  0  0  0  0  0
   -4.4578    4.3827   -0.6100 H   0  0  0  0  0  0  0  0  0  0  0  0
   -3.5437    2.4820   -1.1511 C   0  0  0  0  0  0  0  0  0  0  0  0
   -4.4465    2.0980   -1.6532 H   0  0  0  0  0  0  0  0  0  0  0  0
   -2.3915    1.6736   -1.1360 C   0  0  0  0  0  0  0  0  0  0  0  0
   -2.4532    0.2926   -1.7041 C   0  0  0  0  0  0  0  0  0  0  0  0
   -1.5990    0.0893   -2.3809 H   0  0  0  0  0  0  0  0  0  0  0  0
   -3.4045    0.1137   -2.2444 H   0  0  0  0  0  0  0  0  0  0  0  0
    1.1781    2.1400   -0.5010 C   0  0  0  0  0  0  0  0  0  0  0  0
   -1.1900    2.1319   -0.5093 C   0  0  0  0  0  0  0  0  0  0  0  0
    2.9072   -2.5041   -1.0662 C   0  0  0  0  0  0  0  0  0  0  0  0
    3.9315   -2.2181   -1.3947 H   0  0  0  0  0  0  0  0  0  0  0  0
    3.0197   -3.6627   -0.0696 C   0  0  0  0  0  0  0  0  0  0  0  0
    2.0297   -3.9558    0.3299 H   0  0  0  0  0  0  0  0  0  0  0  0
    3.6744   -3.4228    0.7894 H   0  0  0  0  0  0  0  0  0  0  0  0
    3.4506   -4.5508   -0.5773 H   0  0  0  0  0  0  0  0  0  0  0  0
    2.1065   -2.9139   -2.3056 C   0  0  0  0  0  0  0  0  0  0  0  0
    2.5987   -3.7767   -2.8004 H   0  0  0  0  0  0  0  0  0  0  0  0
    2.0238   -2.0997   -3.0515 H   0  0  0  0  0  0  0  0  0  0  0  0
    1.0788   -3.2199   -2.0281 H   0  0  0  0  0  0  0  0  0  0  0  0
    3.5521   -0.3769    0.9479 C   0  0  0  0  0  0  0  0  0  0  0  0
    3.3018    0.7043    1.0328 H   0  0  0  0  0  0  0  0  0  0  0  0
    3.3485   -1.0129    2.3275 C   0  0  0  0  0  0  0  0  0  0  0  0
    3.6329   -2.0839    2.3445 H   0  0  0  0  0  0  0  0  0  0  0  0
    2.2961   -0.9377    2.6612 H   0  0  0  0  0  0  0  0  0  0  0  0
    3.9795   -0.4924    3.0770 H   0  0  0  0  0  0  0  0  0  0  0  0
    4.9966   -0.5014    0.4535 C   0  0  0  0  0  0  0  0  0  0  0  0
    5.6841   -0.0033    1.1682 H   0  0  0  0  0  0  0  0  0  0  0  0
    5.1485   -0.0207   -0.5329 H   0  0  0  0  0  0  0  0  0  0  0  0
    5.3174   -1.5607    0.3767 H   0  0  0  0  0  0  0  0  0  0  0  0
   -2.8981   -2.5219   -1.0483 C   0  0  0  0  0  0  0  0  0  0  0  0
   -3.9178   -2.2367   -1.3914 H   0  0  0  0  0  0  0  0  0  0  0  0
   -3.0254   -3.6684   -0.0395 C   0  0  0  0  0  0  0  0  0  0  0  0
   -3.4486   -4.5626   -0.5431 H   0  0  0  0  0  0  0  0  0  0  0  0
   -3.6935   -3.4184    0.8062 H   0  0  0  0  0  0  0  0  0  0  0  0
   -2.0417   -3.9568    0.3785 H   0  0  0  0  0  0  0  0  0  0  0  0
   -2.0848   -2.9490   -2.2736 C   0  0  0  0  0  0  0  0  0  0  0  0
   -1.0638   -3.2616   -1.9795 H   0  0  0  0  0  0  0  0  0  0  0  0
   -1.9845   -2.1417   -3.0250 H   0  0  0  0  0  0  0  0  0  0  0  0
   -2.5779   -3.8116   -2.7678 H   0  0  0  0  0  0  0  0  0  0  0  0
   -3.5466   -0.3801    0.9490 C   0  0  0  0  0  0  0  0  0  0  0  0
   -3.2986    0.7022    1.0257 H   0  0  0  0  0  0  0  0  0  0  0  0
   -4.9909   -0.5110    0.4555 C   0  0  0  0  0  0  0  0  0  0  0  0
   -5.3096   -1.5713    0.3854 H   0  0  0  0  0  0  0  0  0  0  0  0
   -5.1438   -0.0367   -0.5337 H   0  0  0  0  0  0  0  0  0  0  0  0
   -5.6795   -0.0098    1.1672 H   0  0  0  0  0  0  0  0  0  0  0  0
   -3.3412   -1.0050    2.3335 C   0  0  0  0  0  0  0  0  0  0  0  0
   -3.9734   -0.4802    3.0790 H   0  0  0  0  0  0  0  0  0  0  0  0
   -2.2889   -0.9242    2.6663 H   0  0  0  0  0  0  0  0  0  0  0  0
   -3.6224   -2.0765    2.3590 H   0  0  0  0  0  0  0  0  0  0  0  0
  1 41  1  0  0  0  0
  2 61  1  0  0  0  0
  3 30  1  0  0  0  0
  3 29  1  0  0  0  0
  4  7  1  0  0  0  0
  4  1  1  0  0  0  0
  5  4  1  0  0  0  0
  6  4  1  0  0  0  0
  7 29  1  0  0  0  0
  8  7  2  0  0  0  0
  8 10  1  0  0  0  0
  9  8  1  0  0  0  0
 10 12  2  0  0  0  0
 11 10  1  0  0  0  0
 12 14  1  0  0  0  0
 12 13  1  0  0  0  0
 14 15  1  0  0  0  0
 15 16  1  0  0  0  0
 15 17  1  0  0  0  0
 18 15  1  0  0  0  0
 19 18  1  0  0  0  0
 19 20  1  0  0  0  0
 21 19  2  0  0  0  0
 22 21  1  0  0  0  0
 23 25  2  0  0  0  0
 23 21  1  0  0  0  0
 24 23  1  0  0  0  0
 25 30  1  0  0  0  0
 26 25  1  0  0  0  0
 26  2  1  0  0  0  0
 27 26  1  0  0  0  0
 28 26  1  0  0  0  0
 29 14  2  0  0  0  0
 30 18  2  0  0  0  0
 31  1  1  0  0  0  0
 31 33  1  0  0  0  0
 32 31  1  0  0  0  0
 33 34  1  0  0  0  0
 33 35  1  0  0  0  0
 36 33  1  0  0  0  0
 37 40  1  0  0  0  0
 37 31  1  0  0  0  0
 38 37  1  0  0  0  0
 39 37  1  0  0  0  0
 41 42  1  0  0  0  0
 41 43  1  0  0  0  0
 43 44  1  0  0  0  0
 43 45  1  0  0  0  0
 43 46  1  0  0  0  0
 47 41  1  0  0  0  0
 47 48  1  0  0  0  0
 49 47  1  0  0  0  0
 50 47  1  0  0  0  0
 51  2  1  0  0  0  0
 51 53  1  0  0  0  0
 52 51  1  0  0  0  0
 53 56  1  0  0  0  0
 53 55  1  0  0  0  0
 54 53  1  0  0  0  0
 57 58  1  0  0  0  0
 57 51  1  0  0  0  0
 59 57  1  0  0  0  0
 60 57  1  0  0  0  0
 61 62  1  0  0  0  0
 61 67  1  0  0  0  0
 63 61  1  0  0  0  0
 63 66  1  0  0  0  0
 64 63  1  0  0  0  0
 65 63  1  0  0  0  0
 67 70  1  0  0  0  0
 67 69  1  0  0  0  0
 67 68  1  0  0  0  0
M  END
