1,2,3
q = -1.0, confidence = 0.008

 71 74  0  0  0  0  0  0  0  0999 V2000
   -2.5779   -1.0533   -0.3771 P   0  0  0  0  0  0  0  0  0  0  0  0
    1.8498   -0.1055    0.1380 P   0  0  0  0  0  0  0  0  0  0  0  0
   -0.7339    1.1963   -0.1251 N   0  0  0  0  0  2  0  0  0  0  0  0
    0.2949    2.0822   -0.4239 C   0  0  0  0  0  0  0  0  0  0  0  0
    2.4720   -0.2116    1.8547 C   0  0  0  0  0  0  0  0  0  0  0  0
   -2.0269    1.5816    0.2080 C   0  0  0  0  0  0  0  0  0  0  0  0
    0.1067    3.4048   -0.9208 C   0  0  0  0  0  0  0  0  0  0  0  0
   -0.9108    3.7720   -1.1079 H   0  0  0  0  0  0  0  0  0  0  0  0
   -3.0902    0.6283    0.1067 C   0  0  0  0  0  0  0  0  0  0  0  0
    3.1904   -0.7863   -0.9010 C   0  0  0  0  0  0  0  0  0  0  0  0
    1.6530    1.6421   -0.3227 C   0  0  0  0  0  0  0  0  0  0  0  0
    2.4334   -1.4775    2.4801 C   0  0  0  0  0  0  0  0  0  0  0  0
    2.0199   -2.3408    1.9322 H   0  0  0  0  0  0  0  0  0  0  0  0
    2.7325    2.4828   -0.6448 C   0  0  0  0  0  0  0  0  0  0  0  0
    3.7577    2.0825   -0.5767 H   0  0  0  0  0  0  0  0  0  0  0  0
    4.5304   -0.8134   -0.4660 C   0  0  0  0  0  0  0  0  0  0  0  0
    4.7874   -0.4578    0.5436 H   0  0  0  0  0  0  0  0  0  0  0  0
   -3.1852   -1.3740   -2.1137 C   0  0  0  0  0  0  0  0  0  0  0  0
   -2.8362   -2.4110   -2.3148 H   0  0  0  0  0  0  0  0  0  0  0  0
    2.5338    3.8010   -1.0871 C   0  0  0  0  0  0  0  0  0  0  0  0
   -2.3761    2.8598    0.7335 C   0  0  0  0  0  0  0  0  0  0  0  0
   -1.5874    3.5986    0.9251 H   0  0  0  0  0  0  0  0  0  0  0  0
   -3.4528   -2.2318    0.7721 C   0  0  0  0  0  0  0  0  0  0  0  0
   -4.5205   -1.9165    0.7838 H   0  0  0  0  0  0  0  0  0  0  0  0
   -4.4133    0.9730    0.4396 C   0  0  0  0  0  0  0  0  0  0  0  0
   -5.2048    0.2105    0.3589 H   0  0  0  0  0  0  0  0  0  0  0  0
    1.1924    4.2252   -1.2322 C   0  0  0  0  0  0  0  0  0  0  0  0
    0.9904    5.2325   -1.6323 H   0  0  0  0  0  0  0  0  0  0  0  0
   -3.6950    3.1746    1.0627 C   0  0  0  0  0  0  0  0  0  0  0  0
   -3.9086    4.1719    1.4814 H   0  0  0  0  0  0  0  0  0  0  0  0
    5.5318   -1.3042   -1.3182 C   0  0  0  0  0  0  0  0  0  0  0  0
    6.5778   -1.3248   -0.9761 H   0  0  0  0  0  0  0  0  0  0  0  0
    2.8571   -1.2703   -2.1826 C   0  0  0  0  0  0  0  0  0  0  0  0
    1.8032   -1.2759   -2.5006 H   0  0  0  0  0  0  0  0  0  0  0  0
   -4.7554    2.2530    0.9069 C   0  0  0  0  0  0  0  0  0  0  0  0
    5.2000   -1.7727   -2.5992 C   0  0  0  0  0  0  0  0  0  0  0  0
    5.9866   -2.1620   -3.2634 H   0  0  0  0  0  0  0  0  0  0  0  0
    3.8623   -1.7565   -3.0289 C   0  0  0  0  0  0  0  0  0  0  0  0
    3.5983   -2.1377   -4.0270 H   0  0  0  0  0  0  0  0  0  0  0  0
   -2.4610   -0.4158   -3.0675 C   0  0  0  0  0  0  0  0  0  0  0  0
   -2.7529   -0.6250   -4.1173 H   0  0  0  0  0  0  0  0  0  0  0  0
   -1.3603   -0.5153   -2.9817 H   0  0  0  0  0  0  0  0  0  0  0  0
   -2.7213    0.6394   -2.8438 H   0  0  0  0  0  0  0  0  0  0  0  0
   -3.3442   -3.6790    0.2768 C   0  0  0  0  0  0  0  0  0  0  0  0
   -3.8222   -4.3602    1.0112 H   0  0  0  0  0  0  0  0  0  0  0  0
   -2.2795   -3.9713    0.1704 H   0  0  0  0  0  0  0  0  0  0  0  0
   -3.8499   -3.8334   -0.6970 H   0  0  0  0  0  0  0  0  0  0  0  0
    3.6858    4.7130   -1.4233 C   0  0  0  0  0  0  0  0  0  0  0  0
    4.6527    4.1737   -1.3913 H   0  0  0  0  0  0  0  0  0  0  0  0
    3.7550    5.5639   -0.7118 H   0  0  0  0  0  0  0  0  0  0  0  0
    3.5779    5.1533   -2.4368 H   0  0  0  0  0  0  0  0  0  0  0  0
    3.3854   -0.4973    4.4944 C   0  0  0  0  0  0  0  0  0  0  0  0
    3.7435   -0.6090    5.5293 H   0  0  0  0  0  0  0  0  0  0  0  0
    2.8962   -1.6148    3.7957 C   0  0  0  0  0  0  0  0  0  0  0  0
    2.8657   -2.6010    4.2836 H   0  0  0  0  0  0  0  0  0  0  0  0
    2.9485    0.9111    2.5582 C   0  0  0  0  0  0  0  0  0  0  0  0
    2.9531    1.8991    2.0730 H   0  0  0  0  0  0  0  0  0  0  0  0
   -2.8564   -2.0556    2.1750 C   0  0  0  0  0  0  0  0  0  0  0  0
   -3.4071   -2.6834    2.9055 H   0  0  0  0  0  0  0  0  0  0  0  0
   -2.9082   -1.0022    2.5162 H   0  0  0  0  0  0  0  0  0  0  0  0
   -1.7923   -2.3684    2.1760 H   0  0  0  0  0  0  0  0  0  0  0  0
   -4.7080   -1.3015   -2.2570 C   0  0  0  0  0  0  0  0  0  0  0  0
   -5.0050   -1.5625   -3.2943 H   0  0  0  0  0  0  0  0  0  0  0  0
   -5.0771   -0.2756   -2.0541 H   0  0  0  0  0  0  0  0  0  0  0  0
   -5.2338   -1.9994   -1.5750 H   0  0  0  0  0  0  0  0  0  0  0  0
   -6.1748    2.6240    1.2526 C   0  0  0  0  0  0  0  0  0  0  0  0
   -6.5828    3.3807    0.5482 H   0  0  0  0  0  0  0  0  0  0  0  0
   -6.2482    3.0635    2.2694 H   0  0  0  0  0  0  0  0  0  0  0  0
   -6.8456    1.7432    1.2168 H   0  0  0  0  0  0  0  0  0  0  0  0
    3.4063    0.7633    3.8774 C   0  0  0  0  0  0  0  0  0  0  0  0
    3.7788    1.6413    4.4270 H   0  0  0  0  0  0  0  0  0  0  0  0
  1  9  1  0  0  0  0
  1 23  1  0  0  0  0
  2  5  1  0  0  0  0
  3  6  1  0  0  0  0
  4 11  1  0  0  0  0
  4  3  1  0  0  0  0
  5 12  2  0  0  0  0
  5 56  1  0  0  0  0
  6 21  1  0  0  0  0
  7  4  2  0  0  0  0
  8  7  1  0  0  0  0
  9  6  2  0  0  0  0
  9 25  1  0  0  0  0
 10 16  1  0  0  0  0
 10  2  1  0  0  0  0
 11  2  1  0  0  0  0
 12 54  1  0  0  0  0
 13 12  1  0  0  0  0
 14 15  1  0  0  0  0
 14 11  2  0  0  0  0
 16 17  1  0  0  0  0
 18  1  1  0  0  0  0
 19 18  1  0  0  0  0
 20 14  1  0  0  0  0
 21 22  1  0  0  0  0
 21 29  2  0  0  0  0
 23 24  1  0  0  0  0
 23 58  1  0  0  0  0
 25 35  2  0  0  0  0
 26 25  1  0  0  0  0
 27 20  2  0  0  0  0
 27  7  1  0  0  0  0
 28 27  1  0  0  0  0
 29 30  1  0  0  0  0
 31 32  1  0  0  0  0
 31 16  2  0  0  0  0
 33 10  2  0  0  0  0
 34 33  1  0  0  0  0
 35 29  1  0  0  0  0
 35 66  1  0  0  0  0
 36 31  1  0  0  0  0
 37 36  1  0  0  0  0
 38 36  2  0  0  0  0
 38 33  1  0  0  0  0
 39 38  1  0  0  0  0
 40 42  1  0  0  0  0
 40 43  1  0  0  0  0
 40 18  1  0  0  0  0
 41 40  1  0  0  0  0
 44 23  1  0  0  0  0
 44 45  1  0  0  0  0
 46 44  1  0  0  0  0
 47 44  1  0  0  0  0
 48 49  1  0  0  0  0
 48 20  1  0  0  0  0
 48 50  1  0  0  0  0
 51 48  1  0  0  0  0
 52 53  1  0  0  0  0
 54 55  1  0  0  0  0
 54 52  2  0  0  0  0
 56 70  2  0  0  0  0
 57 56  1  0  0  0  0
 58 61  1  0  0  0  0
 58 60  1  0  0  0  0
 58 59  1  0  0  0  0
 62 18  1  0  0  0  0
 62 64  1  0  0  0  0
 62 65  1  0  0  0  0
 63 62  1  0  0  0  0
 66 68  1  0  0  0  0
 67 66  1  0  0  0  0
 69 66  1  0  0  0  0
 70 71  1  0  0  0  0
 70 52  1  0  0  0  0
M  END
