1,2,3
q = -1.0

 56 56  0  0  0  0  0  0  0  0999 V2000
    2.3161   -0.0329   -0.0225 P   0  0  0  0  0  0  0  0  0  0  0  0
   -2.2804   -0.1918   -0.1742 P   0  0  0  0  0  0  0  0  0  0  0  0
   -0.0519    1.6852   -0.3713 N   0  0  0  0  0  2  0  0  0  0  0  0
    2.3501    1.7404    0.0162 C   0  0  0  0  0  0  0  0  0  0  0  0
    3.2712    2.3186    0.1777 H   0  0  0  0  0  0  0  0  0  0  0  0
    1.1415    2.4137   -0.1622 C   0  0  0  0  0  0  0  0  0  0  0  0
    1.0571    3.8562   -0.1349 C   0  0  0  0  0  0  0  0  0  0  0  0
    1.9851    4.4208    0.0339 H   0  0  0  0  0  0  0  0  0  0  0  0
   -0.1466    4.5013   -0.2978 C   0  0  0  0  0  0  0  0  0  0  0  0
   -0.1949    5.6010   -0.2629 H   0  0  0  0  0  0  0  0  0  0  0  0
   -1.3320    3.7445   -0.5187 C   0  0  0  0  0  0  0  0  0  0  0  0
   -2.3020    4.2328   -0.6817 H   0  0  0  0  0  0  0  0  0  0  0  0
   -1.2339    2.3586   -0.5615 C   0  0  0  0  0  0  0  0  0  0  0  0
   -2.4526    1.5243   -0.8793 C   0  0  0  0  0  0  0  0  0  0  0  0
   -2.5231    1.3814   -1.9810 H   0  0  0  0  0  0  0  0  0  0  0  0
   -3.3834    2.0366   -0.5610 H   0  0  0  0  0  0  0  0  0  0  0  0
    3.1714   -0.6596    1.5357 C   0  0  0  0  0  0  0  0  0  0  0  0
    4.2566   -0.4798    1.3644 H   0  0  0  0  0  0  0  0  0  0  0  0
    2.7212    0.1656    2.7458 C   0  0  0  0  0  0  0  0  0  0  0  0
    1.6283    0.0547    2.9075 H   0  0  0  0  0  0  0  0  0  0  0  0
    2.9278    1.2444    2.6128 H   0  0  0  0  0  0  0  0  0  0  0  0
    3.2367   -0.1874    3.6636 H   0  0  0  0  0  0  0  0  0  0  0  0
    2.9354   -2.1557    1.7720 C   0  0  0  0  0  0  0  0  0  0  0  0
    3.5328   -2.5046    2.6405 H   0  0  0  0  0  0  0  0  0  0  0  0
    3.2064   -2.7830    0.9026 H   0  0  0  0  0  0  0  0  0  0  0  0
    1.8674   -2.3484    1.9958 H   0  0  0  0  0  0  0  0  0  0  0  0
    3.4211   -0.5407   -1.4703 C   0  0  0  0  0  0  0  0  0  0  0  0
    2.8756   -0.0510   -2.3081 H   0  0  0  0  0  0  0  0  0  0  0  0
    3.4650   -2.0489   -1.7371 C   0  0  0  0  0  0  0  0  0  0  0  0
    3.9255   -2.2477   -2.7278 H   0  0  0  0  0  0  0  0  0  0  0  0
    2.4564   -2.5057   -1.7300 H   0  0  0  0  0  0  0  0  0  0  0  0
    4.0829   -2.5782   -0.9836 H   0  0  0  0  0  0  0  0  0  0  0  0
    4.8225    0.0724   -1.3892 C   0  0  0  0  0  0  0  0  0  0  0  0
    5.4101   -0.3626   -0.5539 H   0  0  0  0  0  0  0  0  0  0  0  0
    4.7827    1.1707   -1.2521 H   0  0  0  0  0  0  0  0  0  0  0  0
    5.3871   -0.1311   -2.3237 H   0  0  0  0  0  0  0  0  0  0  0  0
   -3.0663   -0.0566    1.5248 C   0  0  0  0  0  0  0  0  0  0  0  0
   -4.1314    0.2108    1.3471 H   0  0  0  0  0  0  0  0  0  0  0  0
   -2.4016    1.0698    2.3272 C   0  0  0  0  0  0  0  0  0  0  0  0
   -2.8757    1.1459    3.3277 H   0  0  0  0  0  0  0  0  0  0  0  0
   -2.4889    2.0578    1.8343 H   0  0  0  0  0  0  0  0  0  0  0  0
   -1.3211    0.8676    2.4720 H   0  0  0  0  0  0  0  0  0  0  0  0
   -2.9920   -1.3940    2.2706 C   0  0  0  0  0  0  0  0  0  0  0  0
   -1.9393   -1.7306    2.3659 H   0  0  0  0  0  0  0  0  0  0  0  0
   -3.5587   -2.1973    1.7615 H   0  0  0  0  0  0  0  0  0  0  0  0
   -3.4104   -1.2848    3.2927 H   0  0  0  0  0  0  0  0  0  0  0  0
   -3.4680   -1.1755   -1.2538 C   0  0  0  0  0  0  0  0  0  0  0  0
   -3.1039   -0.8943   -2.2683 H   0  0  0  0  0  0  0  0  0  0  0  0
   -4.9314   -0.7395   -1.1212 C   0  0  0  0  0  0  0  0  0  0  0  0
   -5.5516   -1.2383   -1.8950 H   0  0  0  0  0  0  0  0  0  0  0  0
   -5.0644    0.3542   -1.2432 H   0  0  0  0  0  0  0  0  0  0  0  0
   -5.3505   -1.0268   -0.1351 H   0  0  0  0  0  0  0  0  0  0  0  0
   -3.2990   -2.6922   -1.1078 C   0  0  0  0  0  0  0  0  0  0  0  0
   -3.6677   -3.0554   -0.1278 H   0  0  0  0  0  0  0  0  0  0  0  0
   -2.2428   -3.0054   -1.2058 H   0  0  0  0  0  0  0  0  0  0  0  0
   -3.8867   -3.2140   -1.8915 H   0  0  0  0  0  0  0  0  0  0  0  0
  1  4  1  0  0  0  0
  1 17  1  0  0  0  0
  2 37  1  0  0  0  0
  3  6  1  0  0  0  0
  4  5  1  0  0  0  0
  6  7  1  0  0  0  0
  6  4  2  0  0  0  0
  7  8  1  0  0  0  0
  9 10  1  0  0  0  0
  9  7  2  0  0  0  0
 11  9  1  0  0  0  0
 12 11  1  0  0  0  0
 13 11  2  0  0  0  0
 13  3  1  0  0  0  0
 14 13  1  0  0  0  0
 14 16  1  0  0  0  0
 14  2  1  0  0  0  0
 15 14  1  0  0  0  0
 17 23  1  0  0  0  0
 17 19  1  0  0  0  0
 18 17  1  0  0  0  0
 19 20  1  0  0  0  0
 19 22  1  0  0  0  0
 21 19  1  0  0  0  0
 23 26  1  0  0  0  0
 23 24  1  0  0  0  0
 25 23  1  0  0  0  0
 27 33  1  0  0  0  0
 27  1  1  0  0  0  0
 28 27  1  0  0  0  0
 29 31  1  0  0  0  0
 29 27  1  0  0  0  0
 29 32  1  0  0  0  0
 30 29  1  0  0  0  0
 33 35  1  0  0  0  0
 33 34  1  0  0  0  0
 36 33  1  0  0  0  0
 37 43  1  0  0  0  0
 37 39  1  0  0  0  0
 38 37  1  0  0  0  0
 39 42  1  0  0  0  0
 39 40  1  0  0  0  0
 41 39  1  0  0  0  0
 43 44  1  0  0  0  0
 43 46  1  0  0  0  0
 45 43  1  0  0  0  0
 47 49  1  0  0  0  0
 47 53  1  0  0  0  0
 47  2  1  0  0  0  0
 48 47  1  0  0  0  0
 49 52  1  0  0  0  0
 50 49  1  0  0  0  0
 51 49  1  0  0  0  0
 53 54  1  0  0  0  0
 55 53  1  0  0  0  0
 56 53  1  0  0  0  0
M  END
