1,2,3
q = -1.0

 65 65  0  0  0  0  0  0  0  0999 V2000
   -2.2107    0.0589   -0.0188 P   0  0  0  0  0  0  0  0  0  0  0  0
    2.2107    0.0589   -0.0189 P   0  0  0  0  0  0  0  0  0  0  0  0
    0.0000    1.6408   -0.2733 N   0  0  0  0  0  0  0  0  0  0  0  0
    1.1300    2.4337   -0.3777 C   0  0  0  0  0  0  0  0  0  0  0  0
   -1.1300    2.4337   -0.3776 C   0  0  0  0  0  3  0  0  0  0  0  0
   -2.9825   -0.2657    1.7002 C   0  0  0  0  0  0  0  0  0  0  0  0
    2.3738    1.8438   -0.2966 C   0  0  0  0  0  3  0  0  0  0  0  0
    3.3132    2.4082   -0.3604 H   0  0  0  0  0  0  0  0  0  0  0  0
   -0.6851    3.8208   -0.5640 C   0  0  0  0  0  0  0  0  0  0  0  0
   -1.3520    4.6840   -0.6822 H   0  0  0  0  0  0  0  0  0  0  0  0
    0.6851    3.8208   -0.5641 C   0  0  0  0  0  0  0  0  0  0  0  0
    1.3520    4.6840   -0.6823 H   0  0  0  0  0  0  0  0  0  0  0  0
   -3.1965   -0.7595   -1.4341 C   0  0  0  0  0  0  0  0  0  0  0  0
    3.1967   -0.7597   -1.4340 C   0  0  0  0  0  0  0  0  0  0  0  0
   -2.2814    0.7408    2.6330 C   0  0  0  0  0  0  0  0  0  0  0  0
   -1.1781    0.6461    2.5583 H   0  0  0  0  0  0  0  0  0  0  0  0
   -2.5798    0.5404    3.6840 H   0  0  0  0  0  0  0  0  0  0  0  0
   -2.5460    1.7868    2.3840 H   0  0  0  0  0  0  0  0  0  0  0  0
    2.9824   -0.2655    1.7002 C   0  0  0  0  0  0  0  0  0  0  0  0
    2.2653   -0.6257   -2.6556 C   0  0  0  0  0  0  0  0  0  0  0  0
    1.3231   -1.1890   -2.5077 H   0  0  0  0  0  0  0  0  0  0  0  0
    2.7767   -1.0234   -3.5587 H   0  0  0  0  0  0  0  0  0  0  0  0
    1.9993    0.4338   -2.8472 H   0  0  0  0  0  0  0  0  0  0  0  0
   -3.4540   -2.2465   -1.1458 C   0  0  0  0  0  0  0  0  0  0  0  0
   -2.5246   -2.7875   -0.8805 H   0  0  0  0  0  0  0  0  0  0  0  0
   -3.8727   -2.7268   -2.0562 H   0  0  0  0  0  0  0  0  0  0  0  0
   -4.1909   -2.3921   -0.3315 H   0  0  0  0  0  0  0  0  0  0  0  0
   -2.3738    1.8438   -0.2963 C   0  0  0  0  0  3  0  0  0  0  0  0
   -3.3132    2.4083   -0.3600 H   0  0  0  0  0  0  0  0  0  0  0  0
   -4.5169   -0.0307   -1.7300 C   0  0  0  0  0  0  0  0  0  0  0  0
   -5.2269   -0.0702   -0.8829 H   0  0  0  0  0  0  0  0  0  0  0  0
   -5.0109   -0.5116   -2.6018 H   0  0  0  0  0  0  0  0  0  0  0  0
   -4.3436    1.0317   -1.9912 H   0  0  0  0  0  0  0  0  0  0  0  0
   -4.4991   -0.0335    1.7318 C   0  0  0  0  0  0  0  0  0  0  0  0
   -4.7731    0.9704    1.3491 H   0  0  0  0  0  0  0  0  0  0  0  0
   -4.8610   -0.0990    2.7809 H   0  0  0  0  0  0  0  0  0  0  0  0
   -5.0520   -0.7946    1.1470 H   0  0  0  0  0  0  0  0  0  0  0  0
   -2.6388   -1.6898    2.1686 C   0  0  0  0  0  0  0  0  0  0  0  0
   -3.0793   -2.4740    1.5255 H   0  0  0  0  0  0  0  0  0  0  0  0
   -3.0313   -1.8394    3.1973 H   0  0  0  0  0  0  0  0  0  0  0  0
   -1.5435   -1.8484    2.1950 H   0  0  0  0  0  0  0  0  0  0  0  0
    3.4541   -2.2466   -1.1454 C   0  0  0  0  0  0  0  0  0  0  0  0
    4.1909   -2.3922   -0.3310 H   0  0  0  0  0  0  0  0  0  0  0  0
    3.8729   -2.7271   -2.0556 H   0  0  0  0  0  0  0  0  0  0  0  0
    2.5247   -2.7876   -0.8801 H   0  0  0  0  0  0  0  0  0  0  0  0
    4.4990   -0.0333    1.7320 C   0  0  0  0  0  0  0  0  0  0  0  0
    5.0519   -0.7944    1.1473 H   0  0  0  0  0  0  0  0  0  0  0  0
    4.8607   -0.0986    2.7811 H   0  0  0  0  0  0  0  0  0  0  0  0
    4.7730    0.9705    1.3491 H   0  0  0  0  0  0  0  0  0  0  0  0
    2.2812    0.7412    2.6328 C   0  0  0  0  0  0  0  0  0  0  0  0
    2.5459    1.7871    2.3838 H   0  0  0  0  0  0  0  0  0  0  0  0
    2.5795    0.5409    3.6839 H   0  0  0  0  0  0  0  0  0  0  0  0
    1.1779    0.6465    2.5580 H   0  0  0  0  0  0  0  0  0  0  0  0
   -2.2650   -0.6253   -2.6557 C   0  0  0  0  0  0  0  0  0  0  0  0
   -1.9991    0.4342   -2.8471 H   0  0  0  0  0  0  0  0  0  0  0  0
   -2.7763   -1.0229   -3.5589 H   0  0  0  0  0  0  0  0  0  0  0  0
   -1.3228   -1.1886   -2.5077 H   0  0  0  0  0  0  0  0  0  0  0  0
    2.6386   -1.6895    2.1688 C   0  0  0  0  0  0  0  0  0  0  0  0
    1.5433   -1.8480    2.1952 H   0  0  0  0  0  0  0  0  0  0  0  0
    3.0311   -1.8390    3.1976 H   0  0  0  0  0  0  0  0  0  0  0  0
    3.0790   -2.4738    1.5259 H   0  0  0  0  0  0  0  0  0  0  0  0
    4.5171   -0.0309   -1.7298 C   0  0  0  0  0  0  0  0  0  0  0  0
    4.3437    1.0315   -1.9912 H   0  0  0  0  0  0  0  0  0  0  0  0
    5.0112   -0.5119   -2.6015 H   0  0  0  0  0  0  0  0  0  0  0  0
    5.2269   -0.0703   -0.8826 H   0  0  0  0  0  0  0  0  0  0  0  0
  1  6  1  0  0  0  0
  2 19  1  0  0  0  0
  4  7  1  0  0  0  0
  4  3  2  0  0  0  0
  5 28  1  0  0  0  0
  5  3  1  0  0  0  0
  6 34  1  0  0  0  0
  6 38  1  0  0  0  0
  6 15  1  0  0  0  0
  7  2  1  0  0  0  0
  8  7  1  0  0  0  0
  9  5  1  0  0  0  0
 10  9  1  0  0  0  0
 11  9  2  0  0  0  0
 11  4  1  0  0  0  0
 12 11  1  0  0  0  0
 13 24  1  0  0  0  0
 13  1  1  0  0  0  0
 14 42  1  0  0  0  0
 14  2  1  0  0  0  0
 15 17  1  0  0  0  0
 16 15  1  0  0  0  0
 18 15  1  0  0  0  0
 19 46  1  0  0  0  0
 19 58  1  0  0  0  0
 19 50  1  0  0  0  0
 20 21  1  0  0  0  0
 20 14  1  0  0  0  0
 22 20  1  0  0  0  0
 23 20  1  0  0  0  0
 24 25  1  0  0  0  0
 24 27  1  0  0  0  0
 26 24  1  0  0  0  0
 28  1  1  0  0  0  0
 29 28  1  0  0  0  0
 30 13  1  0  0  0  0
 30 31  1  0  0  0  0
 32 30  1  0  0  0  0
 33 30  1  0  0  0  0
 34 36  1  0  0  0  0
 35 34  1  0  0  0  0
 37 34  1  0  0  0  0
 38 41  1  0  0  0  0
 38 40  1  0  0  0  0
 39 38  1  0  0  0  0
 42 45  1  0  0  0  0
 42 43  1  0  0  0  0
 44 42  1  0  0  0  0
 46 48  1  0  0  0  0
 47 46  1  0  0  0  0
 49 46  1  0  0  0  0
 50 52  1  0  0  0  0
 51 50  1  0  0  0  0
 53 50  1  0  0  0  0
 54 57  1  0  0  0  0
 54 13  1  0  0  0  0
 55 54  1  0  0  0  0
 56 54  1  0  0  0  0
 58 59  1  0  0  0  0
 58 60  1  0  0  0  0
 61 58  1  0  0  0  0
 62 14  1  0  0  0  0
 62 65  1  0  0  0  0
 63 62  1  0  0  0  0
 64 62  1  0  0  0  0
M  END
