1,2,27
q = -1.0

 63 64  0  0  0  0  0  0  0  0999 V2000
    2.2780   -0.5598    0.4907 P   0  0  0  0  0  0  0  0  0  0  0  0
   -2.2375   -0.4844   -0.2301 P   0  0  0  0  0  0  0  0  0  0  0  0
    1.2622    1.8517   -0.3568 C   0  0  0  0  0  0  0  0  0  0  0  0
    2.4838    1.1242   -0.1745 C   0  0  0  0  0  0  0  0  0  0  0  0
    3.7250    1.6616   -0.5629 C   0  0  0  0  0  0  0  0  0  0  0  0
    3.7765    2.9248   -1.1549 C   0  0  0  0  0  0  0  0  0  0  0  0
    2.5972    3.6445   -1.3956 C   0  0  0  0  0  0  0  0  0  0  0  0
    1.3633    3.1159   -1.0095 C   0  0  0  0  0  0  0  0  0  0  0  0
   -1.1108    1.9809    0.2545 C   0  0  0  0  0  0  0  0  0  0  0  0
   -2.3652    1.3009    0.1474 C   0  0  0  0  0  0  0  0  0  0  0  0
   -3.5810    1.9696    0.3755 C   0  0  0  0  0  0  0  0  0  0  0  0
   -3.5716    3.3196    0.7346 C   0  0  0  0  0  0  0  0  0  0  0  0
   -2.3595    4.0044    0.8969 C   0  0  0  0  0  0  0  0  0  0  0  0
   -1.1493    3.3445    0.6652 C   0  0  0  0  0  0  0  0  0  0  0  0
    2.9380   -0.5761    2.2385 C   0  0  0  0  0  0  0  0  0  0  0  0
    4.4244   -0.2250    2.3448 C   0  0  0  0  0  0  0  0  0  0  0  0
    2.0528    0.3373    3.0960 C   0  0  0  0  0  0  0  0  0  0  0  0
    3.3463   -1.6835   -0.5428 C   0  0  0  0  0  0  0  0  0  0  0  0
    3.4078   -3.0820    0.0855 C   0  0  0  0  0  0  0  0  0  0  0  0
    2.7869   -1.7062   -1.9722 C   0  0  0  0  0  0  0  0  0  0  0  0
   -3.5142   -1.3187    0.8433 C   0  0  0  0  0  0  0  0  0  0  0  0
   -3.1660   -1.0704    2.3162 C   0  0  0  0  0  0  0  0  0  0  0  0
   -3.6215   -2.8142    0.5233 C   0  0  0  0  0  0  0  0  0  0  0  0
   -2.7382   -0.7071   -2.0140 C   0  0  0  0  0  0  0  0  0  0  0  0
   -1.6766   -0.0345   -2.8922 C   0  0  0  0  0  0  0  0  0  0  0  0
   -4.1582   -0.2271   -2.3194 C   0  0  0  0  0  0  0  0  0  0  0  0
    0.0634    1.2663    0.0313 N   0  0  0  0  0  2  0  0  0  0  0  0
    4.9664    3.4409   -1.5325 F   0  0  0  0  0  0  0  0  0  0  0  0
   -4.7391    3.9603    0.9602 F   0  0  0  0  0  0  0  0  0  0  0  0
    4.6601    1.0964   -0.4384 H   0  0  0  0  0  0  0  0  0  0  0  0
    2.6574    4.6137   -1.9122 H   0  0  0  0  0  0  0  0  0  0  0  0
    0.4500    3.6749   -1.2513 H   0  0  0  0  0  0  0  0  0  0  0  0
   -4.5468    1.4486    0.3028 H   0  0  0  0  0  0  0  0  0  0  0  0
   -2.3759    5.0526    1.2294 H   0  0  0  0  0  0  0  0  0  0  0  0
   -0.2094    3.8838    0.8424 H   0  0  0  0  0  0  0  0  0  0  0  0
    2.7786   -1.6295    2.5590 H   0  0  0  0  0  0  0  0  0  0  0  0
    4.7618   -0.3149    3.3986 H   0  0  0  0  0  0  0  0  0  0  0  0
    5.0645   -0.8924    1.7335 H   0  0  0  0  0  0  0  0  0  0  0  0
    4.6106    0.8207    2.0264 H   0  0  0  0  0  0  0  0  0  0  0  0
    2.3701    0.2945    4.1582 H   0  0  0  0  0  0  0  0  0  0  0  0
    0.9868    0.0401    3.0334 H   0  0  0  0  0  0  0  0  0  0  0  0
    2.1275    1.3922    2.7597 H   0  0  0  0  0  0  0  0  0  0  0  0
    4.3656   -1.2365   -0.5562 H   0  0  0  0  0  0  0  0  0  0  0  0
    3.9549   -3.7740   -0.5874 H   0  0  0  0  0  0  0  0  0  0  0  0
    2.3865   -3.4825    0.2443 H   0  0  0  0  0  0  0  0  0  0  0  0
    3.9324   -3.0834    1.0617 H   0  0  0  0  0  0  0  0  0  0  0  0
    3.4342   -2.3308   -2.6217 H   0  0  0  0  0  0  0  0  0  0  0  0
    1.7611   -2.1297   -1.9938 H   0  0  0  0  0  0  0  0  0  0  0  0
    2.7445   -0.6889   -2.4100 H   0  0  0  0  0  0  0  0  0  0  0  0
   -4.4835   -0.8253    0.6068 H   0  0  0  0  0  0  0  0  0  0  0  0
   -3.9271   -1.5392    2.9735 H   0  0  0  0  0  0  0  0  0  0  0  0
   -3.1234    0.0104    2.5552 H   0  0  0  0  0  0  0  0  0  0  0  0
   -2.1791   -1.5153    2.5601 H   0  0  0  0  0  0  0  0  0  0  0  0
   -4.4475   -3.2644    1.1115 H   0  0  0  0  0  0  0  0  0  0  0  0
   -3.8201   -3.0114   -0.5480 H   0  0  0  0  0  0  0  0  0  0  0  0
   -2.6852   -3.3370    0.7989 H   0  0  0  0  0  0  0  0  0  0  0  0
   -2.6481   -1.8049   -2.1536 H   0  0  0  0  0  0  0  0  0  0  0  0
   -1.9105   -0.2022   -3.9636 H   0  0  0  0  0  0  0  0  0  0  0  0
   -1.6383    1.0611   -2.7181 H   0  0  0  0  0  0  0  0  0  0  0  0
   -0.6753   -0.4588   -2.6823 H   0  0  0  0  0  0  0  0  0  0  0  0
   -4.4019   -0.4316   -3.3829 H   0  0  0  0  0  0  0  0  0  0  0  0
   -4.9244   -0.7395   -1.7028 H   0  0  0  0  0  0  0  0  0  0  0  0
   -4.2597    0.8662   -2.1617 H   0  0  0  0  0  0  0  0  0  0  0  0
  1 15  1  0  0  0  0
  2 10  1  0  0  0  0
  2 21  1  0  0  0  0
  3  4  1  0  0  0  0
  3 27  1  0  0  0  0
  4  1  1  0  0  0  0
  5 30  1  0  0  0  0
  5  4  2  0  0  0  0
  6  5  1  0  0  0  0
  7  6  2  0  0  0  0
  7  8  1  0  0  0  0
  8  3  2  0  0  0  0
  9 14  1  0  0  0  0
 10  9  2  0  0  0  0
 10 11  1  0  0  0  0
 11 12  2  0  0  0  0
 12 13  1  0  0  0  0
 12 29  1  0  0  0  0
 13 34  1  0  0  0  0
 14 35  1  0  0  0  0
 14 13  2  0  0  0  0
 15 16  1  0  0  0  0
 15 36  1  0  0  0  0
 15 17  1  0  0  0  0
 16 37  1  0  0  0  0
 17 40  1  0  0  0  0
 18 19  1  0  0  0  0
 18  1  1  0  0  0  0
 19 45  1  0  0  0  0
 19 46  1  0  0  0  0
 20 18  1  0  0  0  0
 21 22  1  0  0  0  0
 22 52  1  0  0  0  0
 22 53  1  0  0  0  0
 22 51  1  0  0  0  0
 23 56  1  0  0  0  0
 23 21  1  0  0  0  0
 23 54  1  0  0  0  0
 24  2  1  0  0  0  0
 25 59  1  0  0  0  0
 25 60  1  0  0  0  0
 25 24  1  0  0  0  0
 26 63  1  0  0  0  0
 26 24  1  0  0  0  0
 26 62  1  0  0  0  0
 27  9  1  0  0  0  0
 28  6  1  0  0  0  0
 31  7  1  0  0  0  0
 32  8  1  0  0  0  0
 33 11  1  0  0  0  0
 38 16  1  0  0  0  0
 39 16  1  0  0  0  0
 41 17  1  0  0  0  0
 42 17  1  0  0  0  0
 43 18  1  0  0  0  0
 44 19  1  0  0  0  0
 47 20  1  0  0  0  0
 48 20  1  0  0  0  0
 49 20  1  0  0  0  0
 50 21  1  0  0  0  0
 55 23  1  0  0  0  0
 57 24  1  0  0  0  0
 58 25  1  0  0  0  0
 61 26  1  0  0  0  0
M  END
