1,2,3
q = -1.0

 66 65  0  0  0  0  0  0  0  0999 V2000
    2.1476    0.0105   -0.0865 P   0  0  0  0  0  0  0  0  0  0  0  0
   -2.0092   -0.0284    0.2094 P   0  0  0  0  0  0  0  0  0  0  0  0
    1.0435   -0.2231    1.1108 N   0  0  0  0  0  2  0  0  0  0  0  0
   -2.0676   -0.4514    1.8766 N   0  0  0  0  0  0  0  0  0  0  0  0
   -2.9777   -0.3941    2.3389 H   0  0  0  0  0  0  0  0  0  0  0  0
    0.8062    0.2018    2.4702 C   0  0  0  0  0  0  0  0  0  0  0  0
    0.2525    1.1673    2.5016 H   0  0  0  0  0  0  0  0  0  0  0  0
    1.7737    0.3835    2.9914 H   0  0  0  0  0  0  0  0  0  0  0  0
    0.0009   -0.8477    3.2590 C   0  0  0  0  0  0  0  0  0  0  0  0
    0.6661   -1.6871    3.5607 H   0  0  0  0  0  0  0  0  0  0  0  0
   -0.3790   -0.3797    4.1934 H   0  0  0  0  0  0  0  0  0  0  0  0
   -1.1523   -1.4444    2.4434 C   0  0  0  0  0  0  0  0  0  0  0  0
   -0.7029   -2.0396    1.6223 H   0  0  0  0  0  0  0  0  0  0  0  0
   -1.7254   -2.1611    3.0701 H   0  0  0  0  0  0  0  0  0  0  0  0
   -2.7503    1.7284    0.2390 C   0  0  0  0  0  0  0  0  0  0  0  0
   -1.8480    2.5202    1.2047 C   0  0  0  0  0  0  0  0  0  0  0  0
   -2.1406    3.5913    1.1909 H   0  0  0  0  0  0  0  0  0  0  0  0
   -0.7880    2.4446    0.8905 H   0  0  0  0  0  0  0  0  0  0  0  0
   -1.9251    2.1415    2.2414 H   0  0  0  0  0  0  0  0  0  0  0  0
   -4.2037    1.7817    0.7314 C   0  0  0  0  0  0  0  0  0  0  0  0
   -4.5248    2.8425    0.8156 H   0  0  0  0  0  0  0  0  0  0  0  0
   -4.3292    1.3285    1.7368 H   0  0  0  0  0  0  0  0  0  0  0  0
   -4.9014    1.2819    0.0322 H   0  0  0  0  0  0  0  0  0  0  0  0
   -2.6308    2.3540   -1.1631 C   0  0  0  0  0  0  0  0  0  0  0  0
   -2.8324    3.4441   -1.0924 H   0  0  0  0  0  0  0  0  0  0  0  0
   -3.3536    1.9253   -1.8803 H   0  0  0  0  0  0  0  0  0  0  0  0
   -1.6195    2.2009   -1.5900 H   0  0  0  0  0  0  0  0  0  0  0  0
   -3.1901   -1.2662   -0.6656 C   0  0  0  0  0  0  0  0  0  0  0  0
   -4.3637   -1.6739    0.2371 C   0  0  0  0  0  0  0  0  0  0  0  0
   -4.9716   -2.4461   -0.2813 H   0  0  0  0  0  0  0  0  0  0  0  0
   -5.0386   -0.8281    0.4720 H   0  0  0  0  0  0  0  0  0  0  0  0
   -4.0152   -2.1174    1.1915 H   0  0  0  0  0  0  0  0  0  0  0  0
   -3.6991   -0.7138   -2.0057 C   0  0  0  0  0  0  0  0  0  0  0  0
   -4.2135   -1.5286   -2.5602 H   0  0  0  0  0  0  0  0  0  0  0  0
   -2.8578   -0.3512   -2.6298 H   0  0  0  0  0  0  0  0  0  0  0  0
   -4.4345    0.1035   -1.8701 H   0  0  0  0  0  0  0  0  0  0  0  0
   -2.3078   -2.5014   -0.9427 C   0  0  0  0  0  0  0  0  0  0  0  0
   -2.9186   -3.2897   -1.4339 H   0  0  0  0  0  0  0  0  0  0  0  0
   -1.8948   -2.9343   -0.0086 H   0  0  0  0  0  0  0  0  0  0  0  0
   -1.4657   -2.2369   -1.6125 H   0  0  0  0  0  0  0  0  0  0  0  0
    3.2357   -1.5402   -0.1998 C   0  0  0  0  0  0  0  0  0  0  0  0
    2.2506   -2.6630   -0.5768 C   0  0  0  0  0  0  0  0  0  0  0  0
    2.8023   -3.6227   -0.6711 H   0  0  0  0  0  0  0  0  0  0  0  0
    1.7424   -2.4446   -1.5374 H   0  0  0  0  0  0  0  0  0  0  0  0
    1.4705   -2.7819    0.2003 H   0  0  0  0  0  0  0  0  0  0  0  0
    4.2935   -1.3943   -1.3027 C   0  0  0  0  0  0  0  0  0  0  0  0
    4.8230   -2.3623   -1.4314 H   0  0  0  0  0  0  0  0  0  0  0  0
    5.0592   -0.6320   -1.0581 H   0  0  0  0  0  0  0  0  0  0  0  0
    3.8340   -1.1325   -2.2771 H   0  0  0  0  0  0  0  0  0  0  0  0
    3.8764   -1.8404    1.1638 C   0  0  0  0  0  0  0  0  0  0  0  0
    4.4060   -2.8169    1.1235 H   0  0  0  0  0  0  0  0  0  0  0  0
    3.0992   -1.9077    1.9514 H   0  0  0  0  0  0  0  0  0  0  0  0
    4.6142   -1.0714    1.4642 H   0  0  0  0  0  0  0  0  0  0  0  0
    3.0959    1.6549   -0.1020 C   0  0  0  0  0  0  0  0  0  0  0  0
    3.4868    1.9401   -1.5658 C   0  0  0  0  0  0  0  0  0  0  0  0
    3.8775    2.9772   -1.6482 H   0  0  0  0  0  0  0  0  0  0  0  0
    2.6054    1.8459   -2.2330 H   0  0  0  0  0  0  0  0  0  0  0  0
    4.2744    1.2575   -1.9360 H   0  0  0  0  0  0  0  0  0  0  0  0
    4.3167    1.6720    0.8276 C   0  0  0  0  0  0  0  0  0  0  0  0
    4.7788    2.6832    0.8176 H   0  0  0  0  0  0  0  0  0  0  0  0
    5.0966    0.9525    0.5099 H   0  0  0  0  0  0  0  0  0  0  0  0
    4.0398    1.4421    1.8766 H   0  0  0  0  0  0  0  0  0  0  0  0
    2.0659    2.7071    0.3434 C   0  0  0  0  0  0  0  0  0  0  0  0
    2.5128    3.7192    0.2460 H   0  0  0  0  0  0  0  0  0  0  0  0
    1.7527    2.5705    1.3962 H   0  0  0  0  0  0  0  0  0  0  0  0
    1.1599    2.6668   -0.2948 H   0  0  0  0  0  0  0  0  0  0  0  0
  1  3  1  0  0  0  0
  2 15  1  0  0  0  0
  2  4  1  0  0  0  0
  3  6  1  0  0  0  0
  4  5  1  0  0  0  0
  4 12  1  0  0  0  0
  6  7  1  0  0  0  0
  6  8  1  0  0  0  0
  6  9  1  0  0  0  0
  9 10  1  0  0  0  0
  9 11  1  0  0  0  0
 12 14  1  0  0  0  0
 12  9  1  0  0  0  0
 13 12  1  0  0  0  0
 15 20  1  0  0  0  0
 15 16  1  0  0  0  0
 16 19  1  0  0  0  0
 17 16  1  0  0  0  0
 18 16  1  0  0  0  0
 20 21  1  0  0  0  0
 20 22  1  0  0  0  0
 23 20  1  0  0  0  0
 24 25  1  0  0  0  0
 24 15  1  0  0  0  0
 26 24  1  0  0  0  0
 27 24  1  0  0  0  0
 28  2  1  0  0  0  0
 28 29  1  0  0  0  0
 29 31  1  0  0  0  0
 29 32  1  0  0  0  0
 30 29  1  0  0  0  0
 33 36  1  0  0  0  0
 33 28  1  0  0  0  0
 34 33  1  0  0  0  0
 35 33  1  0  0  0  0
 37 28  1  0  0  0  0
 37 39  1  0  0  0  0
 38 37  1  0  0  0  0
 40 37  1  0  0  0  0
 41  1  1  0  0  0  0
 41 50  1  0  0  0  0
 42 41  1  0  0  0  0
 42 45  1  0  0  0  0
 43 42  1  0  0  0  0
 44 42  1  0  0  0  0
 46 48  1  0  0  0  0
 46 41  1  0  0  0  0
 47 46  1  0  0  0  0
 49 46  1  0  0  0  0
 50 53  1  0  0  0  0
 50 52  1  0  0  0  0
 51 50  1  0  0  0  0
 54  1  1  0  0  0  0
 54 63  1  0  0  0  0
 54 59  1  0  0  0  0
 55 54  1  0  0  0  0
 56 55  1  0  0  0  0
 57 55  1  0  0  0  0
 58 55  1  0  0  0  0
 59 62  1  0  0  0  0
 60 59  1  0  0  0  0
 61 59  1  0  0  0  0
 63 65  1  0  0  0  0
 64 63  1  0  0  0  0
 66 63  1  0  0  0  0
M  END
