1,2,3
q = -1.0

 60 64  0  0  1  0  0  0  0  0999 V2000
   -2.3104    0.2014    0.2880 P   0  0  0  0  0  0  0  0  0  0  0  0
    2.2566   -0.2579    0.2243 P   0  0  0  0  0  0  0  0  0  0  0  0
    0.0763    0.6505    1.9423 N   0  0  0  0  0  2  0  0  0  0  0  0
    1.2675    0.7183    2.6181 C   0  0  1  0  0  3  0  0  0  0  0  0
    1.4118    1.4560    3.7893 C   0  0  0  0  0  0  0  0  0  0  0  0
    0.2737    2.1217    4.3141 C   0  0  0  0  0  0  0  0  0  0  0  0
   -0.9422    2.0173    3.6719 C   0  0  0  0  0  0  0  0  0  0  0  0
   -1.0829    1.2584    2.4564 C   0  0  0  0  0  0  0  0  0  0  0  0
   -2.3069    1.1195    1.7883 C   0  0  0  0  0  3  0  0  0  0  0  0
    2.4171   -0.0897    2.0695 C   0  0  0  0  0  0  0  0  0  0  0  0
   -2.9874    1.2134   -1.0866 C   0  0  0  0  0  0  0  0  0  0  0  0
   -2.1179    2.0820   -1.7783 C   0  0  0  0  0  0  0  0  0  0  0  0
   -2.6166    2.9230   -2.7815 C   0  0  0  0  0  0  0  0  0  0  0  0
   -3.9845    2.9039   -3.1034 C   0  0  0  0  0  0  0  0  0  0  0  0
   -4.8523    2.0385   -2.4193 C   0  0  0  0  0  0  0  0  0  0  0  0
   -4.3574    1.1919   -1.4148 C   0  0  0  0  0  0  0  0  0  0  0  0
   -3.4275   -1.2485    0.3784 C   0  0  0  0  0  0  0  0  0  0  0  0
   -3.5833   -2.0783   -0.7529 C   0  0  0  0  0  0  0  0  0  0  0  0
   -4.4079   -3.2087   -0.6761 C   0  0  0  0  0  0  0  0  0  0  0  0
   -5.0762   -3.5186    0.5214 C   0  0  0  0  0  0  0  0  0  0  0  0
   -4.9105   -2.7001    1.6496 C   0  0  0  0  0  0  0  0  0  0  0  0
   -4.0825   -1.5684    1.5821 C   0  0  0  0  0  0  0  0  0  0  0  0
    3.3450   -1.6403   -0.2565 C   0  0  0  0  0  0  0  0  0  0  0  0
    4.5701   -1.8806    0.4025 C   0  0  0  0  0  0  0  0  0  0  0  0
    5.3841   -2.9483   -0.0022 C   0  0  0  0  0  0  0  0  0  0  0  0
    4.9825   -3.7748   -1.0649 C   0  0  0  0  0  0  0  0  0  0  0  0
    3.7646   -3.5356   -1.7208 C   0  0  0  0  0  0  0  0  0  0  0  0
    2.9400   -2.4728   -1.3208 C   0  0  0  0  0  0  0  0  0  0  0  0
    3.0172    1.2609   -0.4645 C   0  0  0  0  0  0  0  0  0  0  0  0
    2.3452    2.4863   -0.2561 C   0  0  0  0  0  0  0  0  0  0  0  0
    2.8905    3.6767   -0.7550 C   0  0  0  0  0  0  0  0  0  0  0  0
    4.0941    3.6539   -1.4796 C   0  0  0  0  0  0  0  0  0  0  0  0
    4.7533    2.4354   -1.7029 C   0  0  0  0  0  0  0  0  0  0  0  0
    4.2202    1.2395   -1.1965 C   0  0  0  0  0  0  0  0  0  0  0  0
    2.3856    1.4930    4.2944 H   0  0  0  0  0  0  0  0  0  0  0  0
    0.3608    2.7143    5.2377 H   0  0  0  0  0  0  0  0  0  0  0  0
   -1.8379    2.5159    4.0678 H   0  0  0  0  0  0  0  0  0  0  0  0
   -3.2032    1.6284    2.1682 H   0  0  0  0  0  0  0  0  0  0  0  0
    3.3921    0.3326    2.3804 H   0  0  0  0  0  0  0  0  0  0  0  0
    2.3534   -1.1331    2.4509 H   0  0  0  0  0  0  0  0  0  0  0  0
   -1.0451    2.0792   -1.5286 H   0  0  0  0  0  0  0  0  0  0  0  0
   -1.9306    3.5910   -3.3244 H   0  0  0  0  0  0  0  0  0  0  0  0
   -4.3737    3.5616   -3.8956 H   0  0  0  0  0  0  0  0  0  0  0  0
   -5.9236    2.0175   -2.6715 H   0  0  0  0  0  0  0  0  0  0  0  0
   -5.0378    0.5055   -0.8880 H   0  0  0  0  0  0  0  0  0  0  0  0
   -3.0352   -1.8441   -1.6789 H   0  0  0  0  0  0  0  0  0  0  0  0
   -4.5255   -3.8582   -1.5571 H   0  0  0  0  0  0  0  0  0  0  0  0
   -5.7238   -4.4072    0.5761 H   0  0  0  0  0  0  0  0  0  0  0  0
   -5.4267   -2.9451    2.5906 H   0  0  0  0  0  0  0  0  0  0  0  0
   -3.9289   -0.9244    2.4625 H   0  0  0  0  0  0  0  0  0  0  0  0
    4.8950   -1.2321    1.2307 H   0  0  0  0  0  0  0  0  0  0  0  0
    6.3375   -3.1358    0.5148 H   0  0  0  0  0  0  0  0  0  0  0  0
    5.6232   -4.6125   -1.3801 H   0  0  0  0  0  0  0  0  0  0  0  0
    3.4465   -4.1860   -2.5496 H   0  0  0  0  0  0  0  0  0  0  0  0
    1.9735   -2.2827   -1.8186 H   0  0  0  0  0  0  0  0  0  0  0  0
    1.3869    2.4990    0.2864 H   0  0  0  0  0  0  0  0  0  0  0  0
    2.3645    4.6285   -0.5856 H   0  0  0  0  0  0  0  0  0  0  0  0
    4.5149    4.5893   -1.8786 H   0  0  0  0  0  0  0  0  0  0  0  0
    5.6909    2.4118   -2.2787 H   0  0  0  0  0  0  0  0  0  0  0  0
    4.7385    0.2858   -1.3758 H   0  0  0  0  0  0  0  0  0  0  0  0
  1 17  1  0  0  0  0
  1  9  1  0  0  0  0
  2 10  1  0  0  0  0
  3  8  1  0  0  0  0
  3  4  1  0  0  0  0
  4 10  1  1  0  0  0
  4  5  1  0  0  0  0
  5 35  1  0  0  0  0
  5  6  2  0  0  0  0
  6 36  1  0  0  0  0
  7 37  1  0  0  0  0
  7  6  1  0  0  0  0
  8  7  2  0  0  0  0
  9 38  1  0  0  0  0
  9  8  1  0  0  0  0
 10 39  1  0  0  0  0
 10 40  1  0  0  0  0
 11  1  1  0  0  0  0
 12 41  1  0  0  0  0
 12 11  2  0  0  0  0
 13 12  1  0  0  0  0
 14 13  2  0  0  0  0
 14 15  1  0  0  0  0
 15 16  2  0  0  0  0
 16 11  1  0  0  0  0
 16 45  1  0  0  0  0
 17 22  1  0  0  0  0
 18 19  1  0  0  0  0
 18 17  2  0  0  0  0
 19 20  2  0  0  0  0
 20 48  1  0  0  0  0
 20 21  1  0  0  0  0
 21 49  1  0  0  0  0
 22 21  2  0  0  0  0
 22 50  1  0  0  0  0
 23  2  1  0  0  0  0
 23 24  1  0  0  0  0
 24 51  1  0  0  0  0
 25 24  2  0  0  0  0
 25 52  1  0  0  0  0
 26 25  1  0  0  0  0
 27 28  1  0  0  0  0
 27 26  2  0  0  0  0
 28 23  2  0  0  0  0
 29 30  1  0  0  0  0
 29  2  1  0  0  0  0
 30 56  1  0  0  0  0
 31 57  1  0  0  0  0
 31 30  2  0  0  0  0
 32 31  1  0  0  0  0
 33 32  2  0  0  0  0
 33 34  1  0  0  0  0
 34 29  2  0  0  0  0
 42 13  1  0  0  0  0
 43 14  1  0  0  0  0
 44 15  1  0  0  0  0
 46 18  1  0  0  0  0
 47 19  1  0  0  0  0
 53 26  1  0  0  0  0
 54 27  1  0  0  0  0
 55 28  1  0  0  0  0
 58 32  1  0  0  0  0
 59 33  1  0  0  0  0
 60 34  1  0  0  0  0
M  END
