1,2,3
q = -1.0

 71 76  0  0  0  0  0  0  0  0999 V2000
    2.3647   -0.3456    0.1841 P   0  0  0  0  0  0  0  0  0  0  0  0
   -2.3576   -0.3464   -0.0725 P   0  0  0  0  0  0  0  0  0  0  0  0
    0.0219    1.9896   -0.2296 N   0  0  0  0  0  2  0  0  0  0  0  0
   -0.9863    2.8303    0.0059 N   0  0  0  0  0  0  0  0  0  0  0  0
    1.0374    2.7356   -0.6665 N   0  0  0  0  0  0  0  0  0  0  0  0
    0.7024    4.0730   -0.7210 C   0  0  0  0  0  0  0  0  0  0  0  0
    1.4118    5.2264   -1.1055 C   0  0  0  0  0  0  0  0  0  0  0  0
    2.4527    5.1859   -1.4528 H   0  0  0  0  0  0  0  0  0  0  0  0
    0.7161    6.4330   -1.0239 C   0  0  0  0  0  0  0  0  0  0  0  0
    1.2247    7.3639   -1.3131 H   0  0  0  0  0  0  0  0  0  0  0  0
   -0.6326    6.4958   -0.5782 C   0  0  0  0  0  0  0  0  0  0  0  0
   -1.1328    7.4739   -0.5331 H   0  0  0  0  0  0  0  0  0  0  0  0
   -1.3385    5.3547   -0.1962 C   0  0  0  0  0  0  0  0  0  0  0  0
   -2.3793    5.4119    0.1490 H   0  0  0  0  0  0  0  0  0  0  0  0
   -0.6395    4.1355   -0.2771 C   0  0  0  0  0  0  0  0  0  0  0  0
   -2.2834    2.3662    0.4991 C   0  0  0  0  0  0  0  0  0  0  0  0
   -2.8941    3.2794    0.6163 H   0  0  0  0  0  0  0  0  0  0  0  0
   -2.1118    1.9316    1.5123 H   0  0  0  0  0  0  0  0  0  0  0  0
   -2.9506    1.3702   -0.4548 C   0  0  0  0  0  0  0  0  0  0  0  0
   -2.6945    1.6099   -1.5061 H   0  0  0  0  0  0  0  0  0  0  0  0
   -4.0503    1.4307   -0.3457 H   0  0  0  0  0  0  0  0  0  0  0  0
    2.3265    2.1491   -1.0324 C   0  0  0  0  0  0  0  0  0  0  0  0
    2.9500    2.9984   -1.3652 H   0  0  0  0  0  0  0  0  0  0  0  0
    2.1452    1.4846   -1.9102 H   0  0  0  0  0  0  0  0  0  0  0  0
    2.9818    1.4006    0.1324 C   0  0  0  0  0  0  0  0  0  0  0  0
    2.7227    1.8815    1.0968 H   0  0  0  0  0  0  0  0  0  0  0  0
    4.0833    1.4304    0.0321 H   0  0  0  0  0  0  0  0  0  0  0  0
    3.2718   -1.1823   -1.1873 C   0  0  0  0  0  0  0  0  0  0  0  0
    4.5784   -0.7854   -1.5410 C   0  0  0  0  0  0  0  0  0  0  0  0
    5.0669    0.0653   -1.0437 H   0  0  0  0  0  0  0  0  0  0  0  0
    5.2918   -1.4871   -2.5238 C   0  0  0  0  0  0  0  0  0  0  0  0
    6.3074   -1.1622   -2.7946 H   0  0  0  0  0  0  0  0  0  0  0  0
    4.7176   -2.6049   -3.1486 C   0  0  0  0  0  0  0  0  0  0  0  0
    5.2801   -3.1569   -3.9163 H   0  0  0  0  0  0  0  0  0  0  0  0
    3.4267   -3.0181   -2.7868 C   0  0  0  0  0  0  0  0  0  0  0  0
    2.9698   -3.8947   -3.2693 H   0  0  0  0  0  0  0  0  0  0  0  0
    2.7031   -2.3087   -1.8173 C   0  0  0  0  0  0  0  0  0  0  0  0
    1.6880   -2.6309   -1.5547 H   0  0  0  0  0  0  0  0  0  0  0  0
    3.1888   -1.0860    1.6499 C   0  0  0  0  0  0  0  0  0  0  0  0
    3.5160   -0.3237    2.7917 C   0  0  0  0  0  0  0  0  0  0  0  0
    3.2925    0.7506    2.8351 H   0  0  0  0  0  0  0  0  0  0  0  0
    4.1264   -0.9353    3.8961 C   0  0  0  0  0  0  0  0  0  0  0  0
    4.3841   -0.3286    4.7769 H   0  0  0  0  0  0  0  0  0  0  0  0
    4.3993   -2.3115    3.8830 C   0  0  0  0  0  0  0  0  0  0  0  0
    4.8724   -2.7883    4.7543 H   0  0  0  0  0  0  0  0  0  0  0  0
    4.0744   -3.0756    2.7518 C   0  0  0  0  0  0  0  0  0  0  0  0
    4.2948   -4.1531    2.7287 H   0  0  0  0  0  0  0  0  0  0  0  0
    3.4802   -2.4677    1.6368 C   0  0  0  0  0  0  0  0  0  0  0  0
    3.2663   -3.0715    0.7428 H   0  0  0  0  0  0  0  0  0  0  0  0
   -3.4232   -0.8228    1.3643 C   0  0  0  0  0  0  0  0  0  0  0  0
   -3.7867   -1.8383    3.5507 C   0  0  0  0  0  0  0  0  0  0  0  0
   -3.3736   -2.3076    4.4558 H   0  0  0  0  0  0  0  0  0  0  0  0
   -2.9152   -1.4288    2.5281 C   0  0  0  0  0  0  0  0  0  0  0  0
   -1.8337   -1.5681    2.6521 H   0  0  0  0  0  0  0  0  0  0  0  0
   -5.1691   -1.6477    3.4214 C   0  0  0  0  0  0  0  0  0  0  0  0
   -5.8493   -1.9667    4.2253 H   0  0  0  0  0  0  0  0  0  0  0  0
   -5.6860   -1.0581    2.2552 C   0  0  0  0  0  0  0  0  0  0  0  0
   -6.7713   -0.9208    2.1377 H   0  0  0  0  0  0  0  0  0  0  0  0
   -4.8211   -0.6576    1.2293 C   0  0  0  0  0  0  0  0  0  0  0  0
   -5.2485   -0.2408    0.3037 H   0  0  0  0  0  0  0  0  0  0  0  0
   -3.0972   -1.4155   -1.3685 C   0  0  0  0  0  0  0  0  0  0  0  0
   -3.5038   -0.9288   -2.6274 C   0  0  0  0  0  0  0  0  0  0  0  0
   -3.3906    0.1330   -2.8852 H   0  0  0  0  0  0  0  0  0  0  0  0
   -4.0511   -1.8045   -3.5767 C   0  0  0  0  0  0  0  0  0  0  0  0
   -4.3723   -1.4133   -4.5535 H   0  0  0  0  0  0  0  0  0  0  0  0
   -4.1797   -3.1713   -3.2875 C   0  0  0  0  0  0  0  0  0  0  0  0
   -4.6037   -3.8558   -4.0372 H   0  0  0  0  0  0  0  0  0  0  0  0
   -3.7722   -3.6617   -2.0367 C   0  0  0  0  0  0  0  0  0  0  0  0
   -3.8779   -4.7309   -1.8001 H   0  0  0  0  0  0  0  0  0  0  0  0
   -3.2410   -2.7894   -1.0771 C   0  0  0  0  0  0  0  0  0  0  0  0
   -2.9530   -3.1784   -0.0894 H   0  0  0  0  0  0  0  0  0  0  0  0
  1 39  1  0  0  0  0
  2 50  1  0  0  0  0
  3  4  1  0  0  0  0
  4 16  1  0  0  0  0
  5  3  1  0  0  0  0
  6  5  1  0  0  0  0
  6 15  1  0  0  0  0
  7  9  1  0  0  0  0
  7  6  2  0  0  0  0
  8  7  1  0  0  0  0
  9 11  2  0  0  0  0
 10  9  1  0  0  0  0
 11 12  1  0  0  0  0
 11 13  1  0  0  0  0
 13 14  1  0  0  0  0
 15 13  2  0  0  0  0
 15  4  1  0  0  0  0
 16 17  1  0  0  0  0
 16 18  1  0  0  0  0
 19 21  1  0  0  0  0
 19  2  1  0  0  0  0
 19 16  1  0  0  0  0
 20 19  1  0  0  0  0
 22  5  1  0  0  0  0
 22 25  1  0  0  0  0
 23 22  1  0  0  0  0
 24 22  1  0  0  0  0
 25  1  1  0  0  0  0
 25 26  1  0  0  0  0
 27 25  1  0  0  0  0
 28  1  1  0  0  0  0
 29 28  1  0  0  0  0
 29 30  1  0  0  0  0
 31 29  2  0  0  0  0
 32 31  1  0  0  0  0
 33 35  2  0  0  0  0
 33 31  1  0  0  0  0
 34 33  1  0  0  0  0
 35 37  1  0  0  0  0
 36 35  1  0  0  0  0
 37 38  1  0  0  0  0
 37 28  2  0  0  0  0
 39 40  1  0  0  0  0
 40 41  1  0  0  0  0
 40 42  2  0  0  0  0
 42 43  1  0  0  0  0
 44 42  1  0  0  0  0
 44 45  1  0  0  0  0
 46 44  2  0  0  0  0
 47 46  1  0  0  0  0
 48 39  2  0  0  0  0
 48 46  1  0  0  0  0
 49 48  1  0  0  0  0
 50 53  1  0  0  0  0
 51 52  1  0  0  0  0
 53 54  1  0  0  0  0
 53 51  2  0  0  0  0
 55 51  1  0  0  0  0
 55 56  1  0  0  0  0
 57 55  2  0  0  0  0
 58 57  1  0  0  0  0
 59 50  2  0  0  0  0
 59 57  1  0  0  0  0
 60 59  1  0  0  0  0
 61 70  1  0  0  0  0
 61  2  1  0  0  0  0
 62 61  2  0  0  0  0
 63 62  1  0  0  0  0
 64 66  2  0  0  0  0
 64 62  1  0  0  0  0
 65 64  1  0  0  0  0
 66 68  1  0  0  0  0
 67 66  1  0  0  0  0
 68 69  1  0  0  0  0
 68 70  2  0  0  0  0
 70 71  1  0  0  0  0
M  END
