1,2,3
q = -1.0, confidence = 0.02

 67 67  0  0  0  0  0  0  0  0999 V2000
   -2.1802   -0.2690   -0.0288 P   0  0  0  0  0  0  0  0  0  0  0  0
    2.1984   -0.2363    0.0227 P   0  0  0  0  0  0  0  0  0  0  0  0
    0.0446    1.4103   -0.0350 N   0  0  0  0  0  2  0  0  0  0  0  0
    1.2623    3.4822    0.0474 N   0  0  0  0  0  4  0  0  0  0  0  0
   -1.1289    3.4901   -0.1425 N   0  0  0  0  0  0  0  0  0  0  0  0
   -2.2682    1.4546   -0.2263 N   0  0  0  0  0  0  0  0  0  0  0  0
    1.2786    2.1156    0.0441 C   0  0  0  0  0  0  0  0  0  0  0  0
    2.4101    1.4433    0.1073 N   0  0  0  0  0  2  0  0  0  0  0  0
    0.0886    4.0939   -0.0427 C   0  0  0  0  0  0  0  0  0  0  0  0
   -1.0861    2.1607   -0.1348 C   0  0  0  0  0  0  0  0  0  0  0  0
   -3.0871   -0.9225   -1.5564 C   0  0  0  0  0  0  0  0  0  0  0  0
    0.0761    5.5975   -0.0371 C   0  0  0  0  0  0  0  0  0  0  0  0
   -0.5528    5.9682    0.7980 H   0  0  0  0  0  0  0  0  0  0  0  0
   -0.3877    5.9752   -0.9713 H   0  0  0  0  0  0  0  0  0  0  0  0
    1.1033    5.9895    0.0589 H   0  0  0  0  0  0  0  0  0  0  0  0
   -3.0772   -0.5722    1.6157 C   0  0  0  0  0  0  0  0  0  0  0  0
    3.0764   -0.7080   -1.5914 C   0  0  0  0  0  0  0  0  0  0  0  0
    3.0261   -0.8795    1.6029 C   0  0  0  0  0  0  0  0  0  0  0  0
    2.3095    0.0805   -2.6729 C   0  0  0  0  0  0  0  0  0  0  0  0
    2.3752    1.1728   -2.5033 H   0  0  0  0  0  0  0  0  0  0  0  0
    1.2381   -0.2063   -2.7001 H   0  0  0  0  0  0  0  0  0  0  0  0
    2.7496   -0.1448   -3.6672 H   0  0  0  0  0  0  0  0  0  0  0  0
    2.9698   -2.2112   -1.8876 C   0  0  0  0  0  0  0  0  0  0  0  0
    3.3537   -2.4019   -2.9125 H   0  0  0  0  0  0  0  0  0  0  0  0
    1.9230   -2.5679   -1.8299 H   0  0  0  0  0  0  0  0  0  0  0  0
    3.5715   -2.8211   -1.1886 H   0  0  0  0  0  0  0  0  0  0  0  0
   -2.0438   -0.7889   -2.6856 C   0  0  0  0  0  0  0  0  0  0  0  0
   -1.1694   -1.4416   -2.4933 H   0  0  0  0  0  0  0  0  0  0  0  0
   -1.6853    0.2554   -2.7913 H   0  0  0  0  0  0  0  0  0  0  0  0
   -2.5043   -1.0916   -3.6499 H   0  0  0  0  0  0  0  0  0  0  0  0
   -2.2950    0.2854    2.6327 C   0  0  0  0  0  0  0  0  0  0  0  0
   -2.3778    1.3688    2.4181 H   0  0  0  0  0  0  0  0  0  0  0  0
   -1.2186    0.0197    2.6442 H   0  0  0  0  0  0  0  0  0  0  0  0
   -2.7047    0.1043    3.6483 H   0  0  0  0  0  0  0  0  0  0  0  0
    1.9707   -0.6279    2.7004 C   0  0  0  0  0  0  0  0  0  0  0  0
    1.0724   -1.2570    2.5391 H   0  0  0  0  0  0  0  0  0  0  0  0
    1.6604    0.4367    2.7295 H   0  0  0  0  0  0  0  0  0  0  0  0
    2.4020   -0.8837    3.6916 H   0  0  0  0  0  0  0  0  0  0  0  0
   -3.4380   -2.4059   -1.3560 C   0  0  0  0  0  0  0  0  0  0  0  0
   -4.2672   -2.5440   -0.6347 H   0  0  0  0  0  0  0  0  0  0  0  0
   -2.5575   -2.9842   -1.0101 H   0  0  0  0  0  0  0  0  0  0  0  0
   -3.7698   -2.8314   -2.3266 H   0  0  0  0  0  0  0  0  0  0  0  0
   -4.3355   -0.0983   -1.9055 C   0  0  0  0  0  0  0  0  0  0  0  0
   -4.7821   -0.5000   -2.8397 H   0  0  0  0  0  0  0  0  0  0  0  0
   -4.0856    0.9645   -2.0956 H   0  0  0  0  0  0  0  0  0  0  0  0
   -5.1141   -0.1458   -1.1207 H   0  0  0  0  0  0  0  0  0  0  0  0
    4.5410   -0.2447   -1.5567 C   0  0  0  0  0  0  0  0  0  0  0  0
    4.9805   -0.3475   -2.5722 H   0  0  0  0  0  0  0  0  0  0  0  0
    5.1522   -0.8615   -0.8690 H   0  0  0  0  0  0  0  0  0  0  0  0
    4.6169    0.8163   -1.2477 H   0  0  0  0  0  0  0  0  0  0  0  0
   -4.5496   -0.1407    1.5881 C   0  0  0  0  0  0  0  0  0  0  0  0
   -5.1603   -0.7835    0.9247 H   0  0  0  0  0  0  0  0  0  0  0  0
   -4.6744    0.9147    1.2697 H   0  0  0  0  0  0  0  0  0  0  0  0
   -4.9752   -0.2237    2.6108 H   0  0  0  0  0  0  0  0  0  0  0  0
   -2.9444   -2.0559    2.0041 C   0  0  0  0  0  0  0  0  0  0  0  0
   -1.8976   -2.4085    1.9172 H   0  0  0  0  0  0  0  0  0  0  0  0
   -3.5733   -2.7130    1.3755 H   0  0  0  0  0  0  0  0  0  0  0  0
   -3.2758   -2.1820    3.0564 H   0  0  0  0  0  0  0  0  0  0  0  0
    3.3296   -2.3819    1.5156 C   0  0  0  0  0  0  0  0  0  0  0  0
    3.6356   -2.7469    2.5194 H   0  0  0  0  0  0  0  0  0  0  0  0
    4.1660   -2.5934    0.8212 H   0  0  0  0  0  0  0  0  0  0  0  0
    2.4404   -2.9593    1.1933 H   0  0  0  0  0  0  0  0  0  0  0  0
    4.2948   -0.0695    1.9155 C   0  0  0  0  0  0  0  0  0  0  0  0
    4.0867    1.0173    1.9053 H   0  0  0  0  0  0  0  0  0  0  0  0
    5.1056   -0.2689    1.1896 H   0  0  0  0  0  0  0  0  0  0  0  0
    4.6657   -0.3580    2.9223 H   0  0  0  0  0  0  0  0  0  0  0  0
   -3.1167    2.0260   -0.2480 H   0  0  0  0  0  0  0  0  0  0  0  0
  1 16  1  0  0  0  0
  2  8  1  0  0  0  0
  2 18  1  0  0  0  0
  3  7  1  0  0  0  0
  5 10  2  0  0  0  0
  5  9  1  0  0  0  0
  6 10  1  0  0  0  0
  6  1  1  0  0  0  0
  7  4  2  0  0  0  0
  7  8  1  0  0  0  0
  9 12  1  0  0  0  0
  9  4  2  0  0  0  0
 10  3  1  0  0  0  0
 11 39  1  0  0  0  0
 11  1  1  0  0  0  0
 12 15  1  0  0  0  0
 12 13  1  0  0  0  0
 14 12  1  0  0  0  0
 16 55  1  0  0  0  0
 16 31  1  0  0  0  0
 17 47  1  0  0  0  0
 17  2  1  0  0  0  0
 18 63  1  0  0  0  0
 18 35  1  0  0  0  0
 19 20  1  0  0  0  0
 19 17  1  0  0  0  0
 21 19  1  0  0  0  0
 22 19  1  0  0  0  0
 23 25  1  0  0  0  0
 23 17  1  0  0  0  0
 23 26  1  0  0  0  0
 24 23  1  0  0  0  0
 27 28  1  0  0  0  0
 27 11  1  0  0  0  0
 29 27  1  0  0  0  0
 30 27  1  0  0  0  0
 31 33  1  0  0  0  0
 31 34  1  0  0  0  0
 32 31  1  0  0  0  0
 35 37  1  0  0  0  0
 35 38  1  0  0  0  0
 36 35  1  0  0  0  0
 39 41  1  0  0  0  0
 39 40  1  0  0  0  0
 42 39  1  0  0  0  0
 43 11  1  0  0  0  0
 43 46  1  0  0  0  0
 44 43  1  0  0  0  0
 45 43  1  0  0  0  0
 47 50  1  0  0  0  0
 47 49  1  0  0  0  0
 48 47  1  0  0  0  0
 51 16  1  0  0  0  0
 51 54  1  0  0  0  0
 52 51  1  0  0  0  0
 53 51  1  0  0  0  0
 55 58  1  0  0  0  0
 56 55  1  0  0  0  0
 57 55  1  0  0  0  0
 59 18  1  0  0  0  0
 59 60  1  0  0  0  0
 61 59  1  0  0  0  0
 62 59  1  0  0  0  0
 63 66  1  0  0  0  0
 64 63  1  0  0  0  0
 65 63  1  0  0  0  0
 67  6  1  0  0  0  0
M  END
