1,2,4
q = -1.0

 73 73  0  0  0  0  0  0  0  0999 V2000
    1.7934   -1.0626   -0.0619 P   0  0  0  0  0  0  0  0  0  0  0  0
   -2.3895    0.2083    0.0477 P   0  0  0  0  0  0  0  0  0  0  0  0
    2.4488    0.5169   -0.2589 N   0  0  0  0  0  0  0  0  0  0  0  0
    0.1617    1.1366   -0.0906 N   0  0  0  0  0  2  0  0  0  0  0  0
   -2.0768    1.8936    0.0645 N   0  0  0  0  0  0  0  0  0  0  0  0
   -0.3840    3.4831   -0.0830 N   0  0  0  0  0  0  0  0  0  0  0  0
    1.8659    2.7816   -0.3192 N   0  0  0  0  0  0  0  0  0  0  0  0
    1.5041    1.4251   -0.2243 C   0  0  0  0  0  0  0  0  0  0  0  0
   -0.7970    2.1640   -0.0328 C   0  0  0  0  0  0  0  0  0  0  0  0
    0.8837    3.7540   -0.2200 C   0  0  0  0  0  0  0  0  0  0  0  0
    1.2976    5.1990   -0.2870 C   0  0  0  0  0  0  0  0  0  0  0  0
    2.0536    5.4547    0.4822 H   0  0  0  0  0  0  0  0  0  0  0  0
    0.3925    5.8091   -0.1282 H   0  0  0  0  0  0  0  0  0  0  0  0
    1.7295    5.4529   -1.2772 H   0  0  0  0  0  0  0  0  0  0  0  0
    3.2993    3.0948   -0.4243 C   0  0  0  0  0  0  0  0  0  0  0  0
    3.4030    4.0492   -0.9725 H   0  0  0  0  0  0  0  0  0  0  0  0
    3.7466    2.2933   -1.0413 H   0  0  0  0  0  0  0  0  0  0  0  0
    3.9982    3.1523    0.9321 C   0  0  0  0  0  0  0  0  0  0  0  0
    3.9206    2.1720    1.4411 H   0  0  0  0  0  0  0  0  0  0  0  0
    3.5599    3.9285    1.5913 H   0  0  0  0  0  0  0  0  0  0  0  0
    5.0735    3.3847    0.7973 H   0  0  0  0  0  0  0  0  0  0  0  0
    2.5920   -1.6369    1.5603 C   0  0  0  0  0  0  0  0  0  0  0  0
    2.0771   -3.0305    1.9555 C   0  0  0  0  0  0  0  0  0  0  0  0
    0.9716   -3.0854    1.9065 H   0  0  0  0  0  0  0  0  0  0  0  0
    2.3988   -3.2525    2.9954 H   0  0  0  0  0  0  0  0  0  0  0  0
    2.4823   -3.8273    1.3047 H   0  0  0  0  0  0  0  0  0  0  0  0
    4.1247   -1.6035    1.4842 C   0  0  0  0  0  0  0  0  0  0  0  0
    4.5237   -2.4087    0.8366 H   0  0  0  0  0  0  0  0  0  0  0  0
    4.5484   -1.7569    2.5001 H   0  0  0  0  0  0  0  0  0  0  0  0
    4.4875   -0.6292    1.1007 H   0  0  0  0  0  0  0  0  0  0  0  0
    2.0998   -0.6081    2.5994 C   0  0  0  0  0  0  0  0  0  0  0  0
    2.4671    0.4118    2.3720 H   0  0  0  0  0  0  0  0  0  0  0  0
    2.4755   -0.8955    3.6039 H   0  0  0  0  0  0  0  0  0  0  0  0
    0.9921   -0.5740    2.6429 H   0  0  0  0  0  0  0  0  0  0  0  0
    2.4016   -1.9790   -1.6046 C   0  0  0  0  0  0  0  0  0  0  0  0
    2.2658   -3.4984   -1.4225 C   0  0  0  0  0  0  0  0  0  0  0  0
    3.0250   -3.8996   -0.7229 H   0  0  0  0  0  0  0  0  0  0  0  0
    2.4246   -3.9965   -2.4028 H   0  0  0  0  0  0  0  0  0  0  0  0
    1.2568   -3.7727   -1.0540 H   0  0  0  0  0  0  0  0  0  0  0  0
    3.8389   -1.5856   -1.9763 C   0  0  0  0  0  0  0  0  0  0  0  0
    3.9460   -0.4864   -2.0511 H   0  0  0  0  0  0  0  0  0  0  0  0
    4.0942   -2.0337   -2.9604 H   0  0  0  0  0  0  0  0  0  0  0  0
    4.5779   -1.9530   -1.2397 H   0  0  0  0  0  0  0  0  0  0  0  0
    1.4330   -1.5091   -2.7106 C   0  0  0  0  0  0  0  0  0  0  0  0
    0.3982   -1.8450   -2.4993 H   0  0  0  0  0  0  0  0  0  0  0  0
    1.7487   -1.9388   -3.6853 H   0  0  0  0  0  0  0  0  0  0  0  0
    1.4302   -0.4043   -2.8102 H   0  0  0  0  0  0  0  0  0  0  0  0
   -3.4131   -0.0026   -1.5352 C   0  0  0  0  0  0  0  0  0  0  0  0
   -2.4757    0.5042   -2.6509 C   0  0  0  0  0  0  0  0  0  0  0  0
   -2.2411    1.5792   -2.5262 H   0  0  0  0  0  0  0  0  0  0  0  0
   -2.9734    0.3677   -3.6342 H   0  0  0  0  0  0  0  0  0  0  0  0
   -1.5219   -0.0622   -2.6672 H   0  0  0  0  0  0  0  0  0  0  0  0
   -3.7442   -1.4820   -1.7861 C   0  0  0  0  0  0  0  0  0  0  0  0
   -2.8406   -2.1198   -1.7251 H   0  0  0  0  0  0  0  0  0  0  0  0
   -4.1848   -1.5846   -2.8008 H   0  0  0  0  0  0  0  0  0  0  0  0
   -4.4813   -1.8757   -1.0617 H   0  0  0  0  0  0  0  0  0  0  0  0
   -4.6824    0.8608   -1.4963 C   0  0  0  0  0  0  0  0  0  0  0  0
   -5.4319    0.4606   -0.7855 H   0  0  0  0  0  0  0  0  0  0  0  0
   -5.1527    0.8671   -2.5032 H   0  0  0  0  0  0  0  0  0  0  0  0
   -4.4468    1.9060   -1.2149 H   0  0  0  0  0  0  0  0  0  0  0  0
   -3.3518   -0.0701    1.6562 C   0  0  0  0  0  0  0  0  0  0  0  0
   -4.0917   -1.4157    1.6289 C   0  0  0  0  0  0  0  0  0  0  0  0
   -4.9632   -1.3931    0.9456 H   0  0  0  0  0  0  0  0  0  0  0  0
   -4.4770   -1.6378    2.6471 H   0  0  0  0  0  0  0  0  0  0  0  0
   -3.4186   -2.2423    1.3249 H   0  0  0  0  0  0  0  0  0  0  0  0
   -4.3111    1.0953    1.9429 C   0  0  0  0  0  0  0  0  0  0  0  0
   -3.7860    2.0678    1.8840 H   0  0  0  0  0  0  0  0  0  0  0  0
   -4.7312    0.9740    2.9644 H   0  0  0  0  0  0  0  0  0  0  0  0
   -5.1590    1.1218    1.2330 H   0  0  0  0  0  0  0  0  0  0  0  0
   -2.2508   -0.1123    2.7371 C   0  0  0  0  0  0  0  0  0  0  0  0
   -1.5846   -0.9860    2.5907 H   0  0  0  0  0  0  0  0  0  0  0  0
   -2.7218   -0.1954    3.7399 H   0  0  0  0  0  0  0  0  0  0  0  0
   -1.6336    0.8094    2.7266 H   0  0  0  0  0  0  0  0  0  0  0  0
  1 22  1  0  0  0  0
  2  5  1  0  0  0  0
  2 61  1  0  0  0  0
  3  8  2  0  0  0  0
  3  1  1  0  0  0  0
  4  9  1  0  0  0  0
  6  9  1  0  0  0  0
  7  8  1  0  0  0  0
  7 10  1  0  0  0  0
  8  4  1  0  0  0  0
  9  5  2  0  0  0  0
 10  6  2  0  0  0  0
 11 10  1  0  0  0  0
 11 13  1  0  0  0  0
 11 12  1  0  0  0  0
 14 11  1  0  0  0  0
 15  7  1  0  0  0  0
 15 18  1  0  0  0  0
 16 15  1  0  0  0  0
 17 15  1  0  0  0  0
 18 19  1  0  0  0  0
 18 20  1  0  0  0  0
 21 18  1  0  0  0  0
 22 23  1  0  0  0  0
 22 31  1  0  0  0  0
 23 25  1  0  0  0  0
 24 23  1  0  0  0  0
 26 23  1  0  0  0  0
 27 22  1  0  0  0  0
 27 29  1  0  0  0  0
 28 27  1  0  0  0  0
 30 27  1  0  0  0  0
 31 34  1  0  0  0  0
 31 33  1  0  0  0  0
 32 31  1  0  0  0  0
 35 36  1  0  0  0  0
 35  1  1  0  0  0  0
 36 39  1  0  0  0  0
 36 37  1  0  0  0  0
 38 36  1  0  0  0  0
 40 35  1  0  0  0  0
 40 43  1  0  0  0  0
 41 40  1  0  0  0  0
 42 40  1  0  0  0  0
 44 45  1  0  0  0  0
 44 35  1  0  0  0  0
 46 44  1  0  0  0  0
 47 44  1  0  0  0  0
 48 57  1  0  0  0  0
 48  2  1  0  0  0  0
 49 50  1  0  0  0  0
 49 48  1  0  0  0  0
 51 49  1  0  0  0  0
 52 49  1  0  0  0  0
 53 54  1  0  0  0  0
 53 48  1  0  0  0  0
 53 56  1  0  0  0  0
 55 53  1  0  0  0  0
 57 60  1  0  0  0  0
 57 58  1  0  0  0  0
 59 57  1  0  0  0  0
 61 66  1  0  0  0  0
 61 70  1  0  0  0  0
 62 61  1  0  0  0  0
 62 64  1  0  0  0  0
 63 62  1  0  0  0  0
 65 62  1  0  0  0  0
 66 68  1  0  0  0  0
 67 66  1  0  0  0  0
 69 66  1  0  0  0  0
 70 72  1  0  0  0  0
 71 70  1  0  0  0  0
 73 70  1  0  0  0  0
M  END
