1,2,3
q = 0.0, confidence = 0.994

 67 73  0  0  0  0  0  0  0  0999 V2000
    0.0000    1.6775   -0.1115 N   0  0  0  0  0  2  0  0  0  0  0  0
    2.1744   -0.1168   -0.0162 P   0  0  0  0  0  0  0  0  0  0  0  0
   -2.1746   -0.1166   -0.0160 P   0  0  0  0  0  0  0  0  0  0  0  0
    2.4222    1.6847   -0.2027 C   0  0  0  0  0  0  0  0  0  0  0  0
    3.6351    2.3548   -0.3100 C   0  0  0  0  0  0  0  0  0  0  0  0
    4.5717    1.7790   -0.3555 H   0  0  0  0  0  0  0  0  0  0  0  0
    3.6671    3.7740   -0.3607 C   0  0  0  0  0  0  0  0  0  0  0  0
    4.6320    4.2958   -0.4448 H   0  0  0  0  0  0  0  0  0  0  0  0
    2.4867    4.4953   -0.3041 C   0  0  0  0  0  0  0  0  0  0  0  0
    2.5002    5.5954   -0.3417 H   0  0  0  0  0  0  0  0  0  0  0  0
    1.2163    3.8409   -0.2194 C   0  0  0  0  0  0  0  0  0  0  0  0
    1.1856    2.3972   -0.1697 C   0  0  0  0  0  0  0  0  0  0  0  0
    0.0002    4.5492   -0.2248 C   0  0  0  0  0  0  0  0  0  0  0  0
    0.0002    5.6486   -0.2738 H   0  0  0  0  0  0  0  0  0  0  0  0
   -1.2161    3.8411   -0.2187 C   0  0  0  0  0  0  0  0  0  0  0  0
   -2.4864    4.4956   -0.3027 C   0  0  0  0  0  3  0  0  0  0  0  0
   -2.4998    5.5957   -0.3402 H   0  0  0  0  0  0  0  0  0  0  0  0
   -3.6669    3.7744   -0.3588 C   0  0  0  0  0  0  0  0  0  0  0  0
   -4.6318    4.2963   -0.4424 H   0  0  0  0  0  0  0  0  0  0  0  0
   -3.6350    2.3552   -0.3083 C   0  0  0  0  0  0  0  0  0  0  0  0
   -4.5717    1.7795   -0.3536 H   0  0  0  0  0  0  0  0  0  0  0  0
   -2.4222    1.6850   -0.2018 C   0  0  0  0  0  0  0  0  0  0  0  0
   -1.1855    2.3973   -0.1692 C   0  0  0  0  0  0  0  0  0  0  0  0
    2.6000   -0.4135    1.7523 C   0  0  0  0  0  0  0  0  0  0  0  0
    2.7733   -1.7452    2.1901 C   0  0  0  0  0  0  0  0  0  0  0  0
    2.7013   -2.5705    1.4663 H   0  0  0  0  0  0  0  0  0  0  0  0
    3.0173   -2.0136    3.5431 C   0  0  0  0  0  0  0  0  0  0  0  0
    3.1554   -3.0543    3.8738 H   0  0  0  0  0  0  0  0  0  0  0  0
    3.0757   -0.9635    4.4751 C   0  0  0  0  0  0  0  0  0  0  0  0
    3.2634   -1.1787    5.5381 H   0  0  0  0  0  0  0  0  0  0  0  0
    2.8909    0.3596    4.0468 C   0  0  0  0  0  0  0  0  0  0  0  0
    2.9342    1.1870    4.7715 H   0  0  0  0  0  0  0  0  0  0  0  0
    2.6542    0.6368    2.6911 C   0  0  0  0  0  0  0  0  0  0  0  0
    2.5179    1.6774    2.3615 H   0  0  0  0  0  0  0  0  0  0  0  0
    3.5039   -0.9728   -0.9384 C   0  0  0  0  0  0  0  0  0  0  0  0
    4.8227   -1.0327   -0.4389 C   0  0  0  0  0  0  0  0  0  0  0  0
    5.0617   -0.5869    0.5391 H   0  0  0  0  0  0  0  0  0  0  0  0
    5.8221   -1.6831   -1.1770 C   0  0  0  0  0  0  0  0  0  0  0  0
    6.8500   -1.7274   -0.7856 H   0  0  0  0  0  0  0  0  0  0  0  0
    5.5080   -2.2856   -2.4065 C   0  0  0  0  0  0  0  0  0  0  0  0
    6.2926   -2.8006   -2.9820 H   0  0  0  0  0  0  0  0  0  0  0  0
    4.1927   -2.2407   -2.8951 C   0  0  0  0  0  0  0  0  0  0  0  0
    3.9424   -2.7227   -3.8524 H   0  0  0  0  0  0  0  0  0  0  0  0
    3.1871   -1.5889   -2.1655 C   0  0  0  0  0  0  0  0  0  0  0  0
    2.1524   -1.5453   -2.5397 H   0  0  0  0  0  0  0  0  0  0  0  0
   -3.5041   -0.9721   -0.9386 C   0  0  0  0  0  0  0  0  0  0  0  0
   -4.8229   -1.0320   -0.4393 C   0  0  0  0  0  0  0  0  0  0  0  0
   -5.0620   -0.5867    0.5388 H   0  0  0  0  0  0  0  0  0  0  0  0
   -5.8223   -1.6820   -1.1779 C   0  0  0  0  0  0  0  0  0  0  0  0
   -6.8503   -1.7263   -0.7866 H   0  0  0  0  0  0  0  0  0  0  0  0
   -5.5082   -2.2840   -2.4076 C   0  0  0  0  0  0  0  0  0  0  0  0
   -6.2928   -2.7986   -2.9834 H   0  0  0  0  0  0  0  0  0  0  0  0
   -4.1928   -2.2390   -2.8960 C   0  0  0  0  0  0  0  0  0  0  0  0
   -3.9425   -2.7205   -3.8535 H   0  0  0  0  0  0  0  0  0  0  0  0
   -3.1872   -1.5877   -2.1660 C   0  0  0  0  0  0  0  0  0  0  0  0
   -2.1524   -1.5441   -2.5401 H   0  0  0  0  0  0  0  0  0  0  0  0
   -2.6001   -0.4141    1.7524 C   0  0  0  0  0  0  0  0  0  0  0  0
   -2.7747   -1.7458    2.1895 C   0  0  0  0  0  0  0  0  0  0  0  0
   -2.7038   -2.5709    1.4651 H   0  0  0  0  0  0  0  0  0  0  0  0
   -3.0184   -2.0148    3.5424 C   0  0  0  0  0  0  0  0  0  0  0  0
   -3.1574   -3.0555    3.8726 H   0  0  0  0  0  0  0  0  0  0  0  0
   -3.0754   -0.9652    4.4750 C   0  0  0  0  0  0  0  0  0  0  0  0
   -3.2630   -1.1807    5.5380 H   0  0  0  0  0  0  0  0  0  0  0  0
   -2.8894    0.3580    4.0474 C   0  0  0  0  0  0  0  0  0  0  0  0
   -2.9316    1.1850    4.7726 H   0  0  0  0  0  0  0  0  0  0  0  0
   -2.6529    0.6357    2.6918 C   0  0  0  0  0  0  0  0  0  0  0  0
   -2.5156    1.6764    2.3627 H   0  0  0  0  0  0  0  0  0  0  0  0
  2 24  1  0  0  0  0
  3 57  1  0  0  0  0
  4 12  1  0  0  0  0
  4  2  1  0  0  0  0
  5  4  2  0  0  0  0
  6  5  1  0  0  0  0
  7  5  1  0  0  0  0
  7  9  2  0  0  0  0
  8  7  1  0  0  0  0
  9 11  1  0  0  0  0
 10  9  1  0  0  0  0
 11 12  2  0  0  0  0
 12  1  1  0  0  0  0
 13 11  1  0  0  0  0
 13 15  2  0  0  0  0
 14 13  1  0  0  0  0
 15 23  1  0  0  0  0
 16 15  1  0  0  0  0
 17 16  1  0  0  0  0
 18 20  2  0  0  0  0
 18 16  1  0  0  0  0
 19 18  1  0  0  0  0
 20 22  1  0  0  0  0
 21 20  1  0  0  0  0
 22 23  2  0  0  0  0
 22  3  1  0  0  0  0
 23  1  1  0  0  0  0
 24 25  2  0  0  0  0
 24 33  1  0  0  0  0
 25 27  1  0  0  0  0
 26 25  1  0  0  0  0
 27 28  1  0  0  0  0
 27 29  2  0  0  0  0
 29 30  1  0  0  0  0
 31 29  1  0  0  0  0
 31 32  1  0  0  0  0
 33 31  2  0  0  0  0
 34 33  1  0  0  0  0
 35 36  1  0  0  0  0
 35  2  1  0  0  0  0
 36 37  1  0  0  0  0
 38 39  1  0  0  0  0
 38 36  2  0  0  0  0
 40 38  1  0  0  0  0
 41 40  1  0  0  0  0
 42 40  2  0  0  0  0
 42 44  1  0  0  0  0
 43 42  1  0  0  0  0
 44 35  2  0  0  0  0
 45 44  1  0  0  0  0
 46 47  1  0  0  0  0
 46  3  1  0  0  0  0
 47 48  1  0  0  0  0
 49 50  1  0  0  0  0
 49 47  2  0  0  0  0
 51 49  1  0  0  0  0
 52 51  1  0  0  0  0
 53 51  2  0  0  0  0
 53 55  1  0  0  0  0
 54 53  1  0  0  0  0
 55 46  2  0  0  0  0
 56 55  1  0  0  0  0
 57 58  2  0  0  0  0
 57 66  1  0  0  0  0
 58 60  1  0  0  0  0
 59 58  1  0  0  0  0
 60 61  1  0  0  0  0
 60 62  2  0  0  0  0
 62 63  1  0  0  0  0
 64 62  1  0  0  0  0
 64 65  1  0  0  0  0
 66 64  2  0  0  0  0
 67 66  1  0  0  0  0
M  END
