1,2,3
q = 0.0, confidence = 0.994

 69 72  0  0  0  0  0  0  0  0999 V2000
    1.8284   -0.0032    0.2322 P   0  0  0  0  0  0  0  0  0  0  0  0
   -1.6709    0.2877    0.2528 P   0  0  0  0  0  0  0  0  0  0  0  0
   -0.0812   -2.0721    1.5271 N   0  0  0  0  0  0  0  0  0  0  0  0
    2.2661   -1.1616    1.6127 C   0  0  0  0  0  0  0  0  0  0  0  0
    0.9985   -1.5087    2.3894 C   0  0  0  0  0  0  0  0  0  0  0  0
   -1.4282   -1.7662    2.0855 C   0  0  0  0  0  0  0  0  0  0  0  0
   -1.7906   -0.2835    2.0151 C   0  0  0  0  0  0  0  0  0  0  0  0
    0.0858   -3.5520    1.3709 C   0  0  0  0  0  0  0  0  0  0  0  0
   -0.1489   -4.4178    2.6128 C   0  0  0  0  0  0  0  0  0  0  0  0
    0.1683   -5.8832    2.3037 C   0  0  0  0  0  0  0  0  0  0  0  0
    1.7432    1.6696    1.0081 C   0  0  0  0  0  0  0  0  0  0  0  0
    1.8425    1.8994    2.3940 C   0  0  0  0  0  0  0  0  0  0  0  0
    1.8280    3.2104    2.9010 C   0  0  0  0  0  0  0  0  0  0  0  0
    1.7232    4.3015    2.0280 C   0  0  0  0  0  0  0  0  0  0  0  0
    1.6199    4.0796    0.6442 C   0  0  0  0  0  0  0  0  0  0  0  0
    1.6217    2.7752    0.1385 C   0  0  0  0  0  0  0  0  0  0  0  0
    3.3765    0.2085   -0.7487 C   0  0  0  0  0  0  0  0  0  0  0  0
    4.4982    0.7923   -0.1218 C   0  0  0  0  0  0  0  0  0  0  0  0
    5.6867    0.9873   -0.8390 C   0  0  0  0  0  0  0  0  0  0  0  0
    5.7578    0.6178   -2.1922 C   0  0  0  0  0  0  0  0  0  0  0  0
    4.6405    0.0471   -2.8203 C   0  0  0  0  0  0  0  0  0  0  0  0
    3.4528   -0.1654   -2.1032 C   0  0  0  0  0  0  0  0  0  0  0  0
   -1.5579    2.1290    0.3223 C   0  0  0  0  0  0  0  0  0  0  0  0
   -1.6236    2.8713    1.5157 C   0  0  0  0  0  0  0  0  0  0  0  0
   -1.6569    4.2744    1.4747 C   0  0  0  0  0  0  0  0  0  0  0  0
   -1.6318    4.9477    0.2452 C   0  0  0  0  0  0  0  0  0  0  0  0
   -1.5577    4.2122   -0.9493 C   0  0  0  0  0  0  0  0  0  0  0  0
   -1.5185    2.8129   -0.9127 C   0  0  0  0  0  0  0  0  0  0  0  0
   -3.3866    0.1976   -0.4353 C   0  0  0  0  0  0  0  0  0  0  0  0
   -3.5836   -0.1012   -1.7976 C   0  0  0  0  0  0  0  0  0  0  0  0
   -4.8717   -0.0426   -2.3495 C   0  0  0  0  0  0  0  0  0  0  0  0
   -5.9721    0.3021   -1.5495 C   0  0  0  0  0  0  0  0  0  0  0  0
   -5.7800    0.6049   -0.1925 C   0  0  0  0  0  0  0  0  0  0  0  0
   -4.4910    0.5628    0.3593 C   0  0  0  0  0  0  0  0  0  0  0  0
    2.6781   -2.0498    1.0917 H   0  0  0  0  0  0  0  0  0  0  0  0
    3.0495   -0.7466    2.2786 H   0  0  0  0  0  0  0  0  0  0  0  0
    1.2348   -2.2227    3.2082 H   0  0  0  0  0  0  0  0  0  0  0  0
    0.6069   -0.5977    2.8807 H   0  0  0  0  0  0  0  0  0  0  0  0
   -1.4956   -2.1109    3.1418 H   0  0  0  0  0  0  0  0  0  0  0  0
   -2.1495   -2.3528    1.4806 H   0  0  0  0  0  0  0  0  0  0  0  0
   -1.0868    0.3369    2.6064 H   0  0  0  0  0  0  0  0  0  0  0  0
   -2.8014   -0.1199    2.4372 H   0  0  0  0  0  0  0  0  0  0  0  0
    1.1014   -3.7153    0.9624 H   0  0  0  0  0  0  0  0  0  0  0  0
   -0.6062   -3.8483    0.5564 H   0  0  0  0  0  0  0  0  0  0  0  0
    0.4772   -4.0814    3.4693 H   0  0  0  0  0  0  0  0  0  0  0  0
   -1.2038   -4.3377    2.9521 H   0  0  0  0  0  0  0  0  0  0  0  0
   -0.0191   -6.5347    3.1803 H   0  0  0  0  0  0  0  0  0  0  0  0
    1.2294   -6.0107    2.0059 H   0  0  0  0  0  0  0  0  0  0  0  0
   -0.4534   -6.2563    1.4643 H   0  0  0  0  0  0  0  0  0  0  0  0
    1.9588    1.0611    3.0959 H   0  0  0  0  0  0  0  0  0  0  0  0
    1.9133    3.3755    3.9860 H   0  0  0  0  0  0  0  0  0  0  0  0
    1.7191    5.3281    2.4241 H   0  0  0  0  0  0  0  0  0  0  0  0
    1.5290    4.9306   -0.0464 H   0  0  0  0  0  0  0  0  0  0  0  0
    1.5446    2.6073   -0.9469 H   0  0  0  0  0  0  0  0  0  0  0  0
    4.4398    1.1124    0.9304 H   0  0  0  0  0  0  0  0  0  0  0  0
    6.5583    1.4381   -0.3405 H   0  0  0  0  0  0  0  0  0  0  0  0
    6.6883    0.7773   -2.7584 H   0  0  0  0  0  0  0  0  0  0  0  0
    4.6912   -0.2467   -3.8796 H   0  0  0  0  0  0  0  0  0  0  0  0
    2.5950   -0.6560   -2.5817 H   0  0  0  0  0  0  0  0  0  0  0  0
   -1.6520    2.3656    2.4914 H   0  0  0  0  0  0  0  0  0  0  0  0
   -1.7034    4.8432    2.4157 H   0  0  0  0  0  0  0  0  0  0  0  0
   -1.6662    6.0474    0.2168 H   0  0  0  0  0  0  0  0  0  0  0  0
   -1.5334    4.7317   -1.9193 H   0  0  0  0  0  0  0  0  0  0  0  0
   -1.4694    2.2464   -1.8550 H   0  0  0  0  0  0  0  0  0  0  0  0
   -2.7312   -0.4061   -2.4189 H   0  0  0  0  0  0  0  0  0  0  0  0
   -5.0151   -0.2834   -3.4136 H   0  0  0  0  0  0  0  0  0  0  0  0
   -6.9826    0.3370   -1.9845 H   0  0  0  0  0  0  0  0  0  0  0  0
   -6.6361    0.8842    0.4404 H   0  0  0  0  0  0  0  0  0  0  0  0
   -4.3535    0.8385    1.4166 H   0  0  0  0  0  0  0  0  0  0  0  0
  1 11  1  0  0  0  0
  1  4  1  0  0  0  0
  2 23  1  0  0  0  0
  2  7  1  0  0  0  0
  3  6  1  0  0  0  0
  3  5  1  0  0  0  0
  4 36  1  0  0  0  0
  4  5  1  0  0  0  0
  5 38  1  0  0  0  0
  5 37  1  0  0  0  0
  6 39  1  0  0  0  0
  7  6  1  0  0  0  0
  7 42  1  0  0  0  0
  7 41  1  0  0  0  0
  8  3  1  0  0  0  0
  8  9  1  0  0  0  0
  9 46  1  0  0  0  0
  9 45  1  0  0  0  0
 10  9  1  0  0  0  0
 10 47  1  0  0  0  0
 11 12  1  0  0  0  0
 12 13  2  0  0  0  0
 12 50  1  0  0  0  0
 13 51  1  0  0  0  0
 14 52  1  0  0  0  0
 14 13  1  0  0  0  0
 15 14  2  0  0  0  0
 16 15  1  0  0  0  0
 16 11  2  0  0  0  0
 17 18  1  0  0  0  0
 17  1  1  0  0  0  0
 18 55  1  0  0  0  0
 19 56  1  0  0  0  0
 19 18  2  0  0  0  0
 20 19  1  0  0  0  0
 21 20  2  0  0  0  0
 21 22  1  0  0  0  0
 22 17  2  0  0  0  0
 23 24  1  0  0  0  0
 24 60  1  0  0  0  0
 25 24  2  0  0  0  0
 25 61  1  0  0  0  0
 26 25  1  0  0  0  0
 27 28  1  0  0  0  0
 27 26  2  0  0  0  0
 28 23  2  0  0  0  0
 29  2  1  0  0  0  0
 29 34  1  0  0  0  0
 30 29  2  0  0  0  0
 31 30  1  0  0  0  0
 31 32  2  0  0  0  0
 32 33  1  0  0  0  0
 33 34  2  0  0  0  0
 33 68  1  0  0  0  0
 34 69  1  0  0  0  0
 35  4  1  0  0  0  0
 40  6  1  0  0  0  0
 43  8  1  0  0  0  0
 44  8  1  0  0  0  0
 48 10  1  0  0  0  0
 49 10  1  0  0  0  0
 53 15  1  0  0  0  0
 54 16  1  0  0  0  0
 57 20  1  0  0  0  0
 58 21  1  0  0  0  0
 59 22  1  0  0  0  0
 62 26  1  0  0  0  0
 63 27  1  0  0  0  0
 64 28  1  0  0  0  0
 65 30  1  0  0  0  0
 66 31  1  0  0  0  0
 67 32  1  0  0  0  0
M  END
