2,3,70
q = -1.0

 71 72  0  0  0  0  0  0  0  0999 V2000
    5.2114    3.0339    0.7145 O   0  0  0  0  0  0  0  0  0  0  0  0
    0.0720    0.8639   -0.0623 N   0  0  0  0  0  2  0  0  0  0  0  0
    2.2185   -1.0640   -0.4455 P   0  0  0  0  0  0  0  0  0  0  0  0
    1.3095    1.4677    0.1416 C   0  0  0  0  0  0  0  0  0  0  0  0
    2.5020    0.6940   -0.0431 C   0  0  0  0  0  0  0  0  0  0  0  0
    3.7747    1.2475    0.1533 C   0  0  0  0  0  0  0  0  0  0  0  0
    4.6859    0.6449    0.0252 H   0  0  0  0  0  0  0  0  0  0  0  0
    2.7665    3.3496    0.8002 C   0  0  0  0  0  0  0  0  0  0  0  0
    2.8388    4.3817    1.1700 H   0  0  0  0  0  0  0  0  0  0  0  0
    1.4931    2.7993    0.6033 C   0  0  0  0  0  0  0  0  0  0  0  0
    0.6158    3.4116    0.8497 H   0  0  0  0  0  0  0  0  0  0  0  0
   -3.5871    1.5929   -0.3001 C   0  0  0  0  0  0  0  0  0  0  0  0
   -4.5282    1.0585   -0.1129 H   0  0  0  0  0  0  0  0  0  0  0  0
   -2.3626    0.9328   -0.0617 C   0  0  0  0  0  0  0  0  0  0  0  0
   -1.1047    1.5648   -0.3029 C   0  0  0  0  0  0  0  0  0  0  0  0
   -3.6016    2.9031   -0.8051 C   0  0  0  0  0  0  0  0  0  0  0  0
    1.6602   -0.5256   -3.1026 C   0  0  0  0  0  0  0  0  0  0  0  0
    1.8552   -0.7052   -4.1800 H   0  0  0  0  0  0  0  0  0  0  0  0
    1.7510    0.5644   -2.9155 H   0  0  0  0  0  0  0  0  0  0  0  0
    0.6143   -0.8173   -2.8796 H   0  0  0  0  0  0  0  0  0  0  0  0
   -2.3667    3.5224   -1.1038 C   0  0  0  0  0  0  0  0  0  0  0  0
   -2.3857    4.5263   -1.5534 H   0  0  0  0  0  0  0  0  0  0  0  0
    4.1127   -0.9805   -2.5751 C   0  0  0  0  0  0  0  0  0  0  0  0
    4.3212   -1.2033   -3.6425 H   0  0  0  0  0  0  0  0  0  0  0  0
    4.8325   -1.5645   -1.9671 H   0  0  0  0  0  0  0  0  0  0  0  0
    4.3189    0.0970   -2.4136 H   0  0  0  0  0  0  0  0  0  0  0  0
   -1.1572    2.8759   -0.8662 C   0  0  0  0  0  0  0  0  0  0  0  0
   -0.2240    3.3761   -1.1563 H   0  0  0  0  0  0  0  0  0  0  0  0
   -2.7260   -0.8890    2.2799 C   0  0  0  0  0  0  0  0  0  0  0  0
   -2.6509   -1.9747    2.5108 H   0  0  0  0  0  0  0  0  0  0  0  0
    5.3995    4.3572    1.1671 C   0  0  0  0  0  0  0  0  0  0  0  0
    6.4922    4.5212    1.2208 H   0  0  0  0  0  0  0  0  0  0  0  0
    4.9618    4.5210    2.1788 H   0  0  0  0  0  0  0  0  0  0  0  0
    4.9580    5.1057    0.4692 H   0  0  0  0  0  0  0  0  0  0  0  0
   -4.1459   -0.3934    2.5677 C   0  0  0  0  0  0  0  0  0  0  0  0
   -4.9145   -0.9449    1.9897 H   0  0  0  0  0  0  0  0  0  0  0  0
   -4.2435    0.6860    2.3323 H   0  0  0  0  0  0  0  0  0  0  0  0
   -4.3838   -0.5222    3.6445 H   0  0  0  0  0  0  0  0  0  0  0  0
   -5.9760    3.0330   -0.7903 C   0  0  0  0  0  0  0  0  0  0  0  0
   -6.7517    3.7767   -1.0523 H   0  0  0  0  0  0  0  0  0  0  0  0
   -6.0816    2.7669    0.2872 H   0  0  0  0  0  0  0  0  0  0  0  0
   -6.1435    2.1115   -1.3953 H   0  0  0  0  0  0  0  0  0  0  0  0
   -1.6654   -0.1381    3.0948 C   0  0  0  0  0  0  0  0  0  0  0  0
   -0.6516   -0.5464    2.9101 H   0  0  0  0  0  0  0  0  0  0  0  0
   -1.8860   -0.2179    4.1793 H   0  0  0  0  0  0  0  0  0  0  0  0
   -1.6472    0.9387    2.8270 H   0  0  0  0  0  0  0  0  0  0  0  0
    3.4304   -2.0383    0.5826 C   0  0  0  0  0  0  0  0  0  0  0  0
    4.4201   -1.5496    0.4381 H   0  0  0  0  0  0  0  0  0  0  0  0
   -3.5410   -1.7386   -0.4984 C   0  0  0  0  0  0  0  0  0  0  0  0
   -4.4827   -1.1515   -0.4061 H   0  0  0  0  0  0  0  0  0  0  0  0
    3.5044   -3.4995    0.1233 C   0  0  0  0  0  0  0  0  0  0  0  0
    4.1908   -4.0644    0.7878 H   0  0  0  0  0  0  0  0  0  0  0  0
    3.8882   -3.5989   -0.9115 H   0  0  0  0  0  0  0  0  0  0  0  0
    2.5021   -3.9717    0.1723 H   0  0  0  0  0  0  0  0  0  0  0  0
   -3.7568   -3.1487    0.0639 C   0  0  0  0  0  0  0  0  0  0  0  0
   -4.1576   -3.1356    1.0971 H   0  0  0  0  0  0  0  0  0  0  0  0
   -2.8026   -3.7140    0.0660 H   0  0  0  0  0  0  0  0  0  0  0  0
   -4.4867   -3.6951   -0.5689 H   0  0  0  0  0  0  0  0  0  0  0  0
    3.0168   -1.9145    2.0550 C   0  0  0  0  0  0  0  0  0  0  0  0
    3.7617   -2.4192    2.7042 H   0  0  0  0  0  0  0  0  0  0  0  0
    2.0309   -2.3965    2.2154 H   0  0  0  0  0  0  0  0  0  0  0  0
    2.9431   -0.8556    2.3744 H   0  0  0  0  0  0  0  0  0  0  0  0
   -3.1053   -1.7617   -1.9694 C   0  0  0  0  0  0  0  0  0  0  0  0
   -2.9301   -0.7402   -2.3627 H   0  0  0  0  0  0  0  0  0  0  0  0
   -3.8876   -2.2426   -2.5923 H   0  0  0  0  0  0  0  0  0  0  0  0
   -2.1669   -2.3425   -2.0789 H   0  0  0  0  0  0  0  0  0  0  0  0
    2.6560   -1.3161   -2.2443 C   0  0  0  0  0  0  0  0  0  0  0  0
    2.4749   -2.4030   -2.3978 H   0  0  0  0  0  0  0  0  0  0  0  0
   -4.7296    3.6312   -1.0682 O   0  0  0  0  0  0  0  0  0  0  0  0
   -2.2515   -0.8061    0.4743 P   0  0  0  0  0  0  0  0  0  0  0  0
    3.9277    2.5869    0.5580 C   0  0  0  0  0  0  0  0  0  0  0  0
  1 31  1  0  0  0  0
  2  4  1  0  0  0  0
  3  5  1  0  0  0  0
  3 47  1  0  0  0  0
  4 10  1  0  0  0  0
  5  4  2  0  0  0  0
  5  6  1  0  0  0  0
  6 71  2  0  0  0  0
  7  6  1  0  0  0  0
  8  9  1  0  0  0  0
 10  8  2  0  0  0  0
 10 11  1  0  0  0  0
 12 13  1  0  0  0  0
 12 14  1  0  0  0  0
 14 70  1  0  0  0  0
 15  2  1  0  0  0  0
 15 14  2  0  0  0  0
 16 12  2  0  0  0  0
 17 19  1  0  0  0  0
 17 20  1  0  0  0  0
 17 67  1  0  0  0  0
 18 17  1  0  0  0  0
 21 27  2  0  0  0  0
 21 16  1  0  0  0  0
 22 21  1  0  0  0  0
 23 26  1  0  0  0  0
 23 67  1  0  0  0  0
 23 25  1  0  0  0  0
 24 23  1  0  0  0  0
 27 15  1  0  0  0  0
 28 27  1  0  0  0  0
 29 30  1  0  0  0  0
 29 35  1  0  0  0  0
 29 43  1  0  0  0  0
 31 32  1  0  0  0  0
 31 33  1  0  0  0  0
 34 31  1  0  0  0  0
 35 38  1  0  0  0  0
 36 35  1  0  0  0  0
 37 35  1  0  0  0  0
 39 41  1  0  0  0  0
 40 39  1  0  0  0  0
 42 39  1  0  0  0  0
 43 45  1  0  0  0  0
 44 43  1  0  0  0  0
 46 43  1  0  0  0  0
 47 59  1  0  0  0  0
 48 47  1  0  0  0  0
 49 50  1  0  0  0  0
 49 55  1  0  0  0  0
 49 70  1  0  0  0  0
 51 54  1  0  0  0  0
 51 47  1  0  0  0  0
 51 52  1  0  0  0  0
 53 51  1  0  0  0  0
 55 57  1  0  0  0  0
 55 56  1  0  0  0  0
 58 55  1  0  0  0  0
 59 61  1  0  0  0  0
 59 62  1  0  0  0  0
 59 60  1  0  0  0  0
 63 49  1  0  0  0  0
 64 63  1  0  0  0  0
 65 63  1  0  0  0  0
 66 63  1  0  0  0  0
 67  3  1  0  0  0  0
 68 67  1  0  0  0  0
 69 16  1  0  0  0  0
 69 39  1  0  0  0  0
 70 29  1  0  0  0  0
 71  1  1  0  0  0  0
 71  8  1  0  0  0  0
M  END
