1,2,3,4
q = -2.0, confidence = 0.95

 37 38  0  0  0  0  0  0  0  0999 V2000
   -1.7816   -1.5102    0.0297 S   0  0  0  0  0  1  0  0  0  0  0  0
    0.3898    1.8610   -0.4122 N   0  0  0  0  0  2  0  0  0  0  0  0
   -2.1051    1.4084    0.6332 N   0  0  0  0  0  2  0  0  0  0  0  0
    0.8118   -0.8058    0.1321 O   0  5  0  0  0  0  0  0  0  0  0  0
   -3.4711   -1.1907   -0.1743 C   0  0  0  0  0  0  0  0  0  0  0  0
   -4.2976   -2.2826   -0.5666 C   0  0  0  0  0  0  0  0  0  0  0  0
   -3.8200   -3.2578   -0.7446 H   0  0  0  0  0  0  0  0  0  0  0  0
   -5.6709   -2.1329   -0.7362 C   0  0  0  0  0  0  0  0  0  0  0  0
   -6.2724   -2.9994   -1.0518 H   0  0  0  0  0  0  0  0  0  0  0  0
   -6.2984   -0.8861   -0.5029 C   0  0  0  0  0  0  0  0  0  0  0  0
   -7.3844   -0.7740   -0.6329 H   0  0  0  0  0  0  0  0  0  0  0  0
   -5.5205    0.1896   -0.0950 C   0  0  0  0  0  0  0  0  0  0  0  0
   -5.9904    1.1653    0.1082 H   0  0  0  0  0  0  0  0  0  0  0  0
   -4.1095    0.0727    0.0677 C   0  0  0  0  0  0  0  0  0  0  0  0
   -3.4030    1.2197    0.5578 C   0  0  0  0  0  3  0  0  0  0  0  0
   -4.0408    2.0361    0.9533 H   0  0  0  0  0  0  0  0  0  0  0  0
   -1.6551    2.6350    1.3128 C   0  0  0  0  0  0  0  0  0  0  0  0
   -0.8579    2.3454    2.0259 H   0  0  0  0  0  0  0  0  0  0  0  0
   -2.4854    3.0623    1.9138 H   0  0  0  0  0  0  0  0  0  0  0  0
   -1.1181    3.6829    0.3296 C   0  0  0  0  0  0  0  0  0  0  0  0
   -0.4534    4.3755    0.8859 H   0  0  0  0  0  0  0  0  0  0  0  0
   -1.9508    4.2898   -0.0818 H   0  0  0  0  0  0  0  0  0  0  0  0
   -0.3639    3.0367   -0.8393 C   0  0  0  0  0  0  0  0  0  0  0  0
   -1.0938    2.7052   -1.6072 H   0  0  0  0  0  0  0  0  0  0  0  0
    0.3069    3.7780   -1.3252 H   0  0  0  0  0  0  0  0  0  0  0  0
    1.6938    1.8762   -0.5568 C   0  0  0  0  0  3  0  0  0  0  0  0
    2.1535    2.8061   -0.9511 H   0  0  0  0  0  0  0  0  0  0  0  0
    2.5885    0.7909   -0.2876 C   0  0  0  0  0  0  0  0  0  0  0  0
    3.9893    1.0159   -0.3988 C   0  0  0  0  0  0  0  0  0  0  0  0
    4.3610    2.0197   -0.6508 H   0  0  0  0  0  0  0  0  0  0  0  0
    4.8837   -0.0234   -0.1872 C   0  0  0  0  0  0  0  0  0  0  0  0
    4.4116   -1.3207    0.1266 C   0  0  0  0  0  0  0  0  0  0  0  0
    5.1199   -2.1438    0.2904 H   0  0  0  0  0  0  0  0  0  0  0  0
    3.0449   -1.5580    0.2224 C   0  0  0  0  0  0  0  0  0  0  0  0
    2.0674   -0.5158    0.0291 C   0  0  0  0  0  0  0  0  0  0  0  0
    2.4611   -3.1498    0.5985 Cl  0  0  0  0  0  0  0  0  0  0  0  0
    6.6061    0.2486   -0.3115 Cl  0  0  0  0  0  0  0  0  0  0  0  0
  3 17  1  0  0  0  0
  5  1  1  0  0  0  0
  5 14  1  0  0  0  0
  6  5  2  0  0  0  0
  7  6  1  0  0  0  0
  8  6  1  0  0  0  0
  8 10  2  0  0  0  0
  9  8  1  0  0  0  0
 10 12  1  0  0  0  0
 11 10  1  0  0  0  0
 12 14  2  0  0  0  0
 12 13  1  0  0  0  0
 14 15  1  0  0  0  0
 15  3  1  0  0  0  0
 15 16  1  0  0  0  0
 17 19  1  0  0  0  0
 17 18  1  0  0  0  0
 20 21  1  0  0  0  0
 20 17  1  0  0  0  0
 22 20  1  0  0  0  0
 23  2  1  0  0  0  0
 23 20  1  0  0  0  0
 24 23  1  0  0  0  0
 25 23  1  0  0  0  0
 26  2  1  0  0  0  0
 26 28  1  0  0  0  0
 27 26  1  0  0  0  0
 28 35  1  0  0  0  0
 29 28  2  0  0  0  0
 29 31  1  0  0  0  0
 30 29  1  0  0  0  0
 31 32  2  0  0  0  0
 32 34  1  0  0  0  0
 32 33  1  0  0  0  0
 34 36  1  0  0  0  0
 35  4  1  0  0  0  0
 35 34  2  0  0  0  0
 37 31  1  0  0  0  0
M  CHG  1   4  -1
M  END
