2,5,9,24
q = -2.0, confidence = 0.932

 67 68  0  0  1  0  0  0  0  0999 V2000
   -1.0475   -1.9441   -0.4336 C   0  0  0  0  0  0  0  0  0  0  0  0
    0.1849   -1.4916   -0.5224 N   0  0  0  0  0  2  0  0  0  0  0  0
    1.2832   -2.4106   -0.8104 C   0  0  0  0  0  0  0  0  0  0  0  0
    2.5491   -1.7715   -0.2589 C   0  0  0  0  0  0  0  0  0  0  0  0
    2.5495   -0.3236   -0.6173 N   0  0  0  0  0  0  0  0  0  0  0  0
    2.8547   -0.1308   -2.0532 C   0  0  0  0  0  0  0  0  0  0  0  0
    3.4680    0.4731    0.3025 C   0  0  2  0  0  0  0  0  0  0  0  0
    3.2666    1.9576    0.0228 C   0  0  0  0  0  0  0  0  0  0  0  0
    1.4688    2.3211   -0.0268 S   0  0  0  0  0  1  0  0  0  0  0  0
   -2.2087   -1.1397   -0.2212 C   0  0  0  0  0  0  0  0  0  0  0  0
   -3.4754   -1.7874   -0.1336 C   0  0  0  0  0  3  0  0  0  0  0  0
   -4.6474   -1.0732    0.0698 C   0  0  0  0  0  0  0  0  0  0  0  0
   -6.0364   -1.7246    0.1690 C   0  0  0  0  0  0  0  0  0  0  0  0
   -6.9472   -1.1633   -0.9468 C   0  0  0  0  0  0  0  0  0  0  0  0
   -6.6565   -1.4030    1.5480 C   0  0  0  0  0  0  0  0  0  0  0  0
   -5.9670   -3.2531    0.0141 C   0  0  0  0  0  0  0  0  0  0  0  0
   -4.5260    0.3424    0.1920 C   0  0  0  0  0  0  0  0  0  0  0  0
   -3.3259    1.0472    0.1206 C   0  0  0  0  0  0  0  0  0  0  0  0
   -3.2674    2.5785    0.2736 C   0  0  0  0  0  0  0  0  0  0  0  0
   -2.3920    2.9472    1.4965 C   0  0  0  0  0  0  0  0  0  0  0  0
   -2.6758    3.2143   -1.0080 C   0  0  0  0  0  0  0  0  0  0  0  0
   -4.6658    3.1832    0.4957 C   0  0  0  0  0  0  0  0  0  0  0  0
   -2.1084    0.2945   -0.0978 C   0  0  0  0  0  0  0  0  0  0  0  0
   -0.9812    0.9447   -0.1731 O   0  5  0  0  0  0  0  0  0  0  0  0
    4.9105   -0.0032    0.2760 C   0  0  0  0  0  0  0  0  0  0  0  0
    5.8292    0.4028   -0.7125 C   0  0  0  0  0  0  0  0  0  0  0  0
    7.1602   -0.0402   -0.7191 C   0  0  0  0  0  0  0  0  0  0  0  0
    7.6025   -0.9070    0.2910 C   0  0  0  0  0  0  0  0  0  0  0  0
    6.7172   -1.3197    1.2952 C   0  0  0  0  0  0  0  0  0  0  0  0
    5.3818   -0.8743    1.2934 C   0  0  0  0  0  0  0  0  0  0  0  0
    4.4997   -1.2593    2.2631 O   0  0  0  0  0  0  0  0  0  0  0  0
   -1.2061   -3.0386   -0.5280 H   0  0  0  0  0  0  0  0  0  0  0  0
    1.3654   -2.5729   -1.9096 H   0  0  0  0  0  0  0  0  0  0  0  0
    1.1215   -3.4119   -0.3534 H   0  0  0  0  0  0  0  0  0  0  0  0
    2.5570   -1.8327    0.8456 H   0  0  0  0  0  0  0  0  0  0  0  0
    3.4695   -2.2702   -0.6359 H   0  0  0  0  0  0  0  0  0  0  0  0
    2.7603    0.9406   -2.3029 H   0  0  0  0  0  0  0  0  0  0  0  0
    2.1127   -0.6797   -2.6603 H   0  0  0  0  0  0  0  0  0  0  0  0
    3.8722   -0.5040   -2.3021 H   0  0  0  0  0  0  0  0  0  0  0  0
    3.0541    0.2769    1.3097 H   0  0  0  0  0  0  0  0  0  0  0  0
    3.7658    2.2681   -0.9204 H   0  0  0  0  0  0  0  0  0  0  0  0
    3.7477    2.5377    0.8366 H   0  0  0  0  0  0  0  0  0  0  0  0
   -3.4913   -2.8827   -0.2357 H   0  0  0  0  0  0  0  0  0  0  0  0
   -6.5281   -1.3886   -1.9483 H   0  0  0  0  0  0  0  0  0  0  0  0
   -7.0599   -0.0634   -0.8701 H   0  0  0  0  0  0  0  0  0  0  0  0
   -7.9615   -1.6105   -0.8865 H   0  0  0  0  0  0  0  0  0  0  0  0
   -6.0252   -1.8032    2.3670 H   0  0  0  0  0  0  0  0  0  0  0  0
   -7.6674   -1.8532    1.6374 H   0  0  0  0  0  0  0  0  0  0  0  0
   -6.7599   -0.3112    1.7071 H   0  0  0  0  0  0  0  0  0  0  0  0
   -5.5503   -3.5472   -0.9706 H   0  0  0  0  0  0  0  0  0  0  0  0
   -6.9840   -3.6883    0.0902 H   0  0  0  0  0  0  0  0  0  0  0  0
   -5.3443   -3.7179    0.8052 H   0  0  0  0  0  0  0  0  0  0  0  0
   -5.4471    0.9175    0.3571 H   0  0  0  0  0  0  0  0  0  0  0  0
   -1.3559    2.5811    1.3771 H   0  0  0  0  0  0  0  0  0  0  0  0
   -2.8179    2.5141    2.4251 H   0  0  0  0  0  0  0  0  0  0  0  0
   -2.3589    4.0502    1.6180 H   0  0  0  0  0  0  0  0  0  0  0  0
   -3.3022    2.9697   -1.8906 H   0  0  0  0  0  0  0  0  0  0  0  0
   -1.6465    2.8574   -1.1932 H   0  0  0  0  0  0  0  0  0  0  0  0
   -2.6488    4.3190   -0.9034 H   0  0  0  0  0  0  0  0  0  0  0  0
   -5.3474    2.9849   -0.3569 H   0  0  0  0  0  0  0  0  0  0  0  0
   -4.5768    4.2832    0.6006 H   0  0  0  0  0  0  0  0  0  0  0  0
   -5.1452    2.7996    1.4197 H   0  0  0  0  0  0  0  0  0  0  0  0
    5.4942    1.1036   -1.4910 H   0  0  0  0  0  0  0  0  0  0  0  0
    7.8504    0.2980   -1.5054 H   0  0  0  0  0  0  0  0  0  0  0  0
    8.6437   -1.2626    0.3054 H   0  0  0  0  0  0  0  0  0  0  0  0
    7.0603   -1.9950    2.0968 H   0  0  0  0  0  0  0  0  0  0  0  0
    4.9734   -1.8067    2.9163 H   0  0  0  0  0  0  0  0  0  0  0  0
  1 10  2  0  0  0  0
  2  1  1  0  0  0  0
  3  2  1  0  0  0  0
  3 34  1  0  0  0  0
  3  4  1  0  0  0  0
  4 35  1  0  0  0  0
  5  4  1  0  0  0  0
  5  7  1  0  0  0  0
  6  5  1  0  0  0  0
  7 40  1  1  0  0  0
  8  7  1  0  0  0  0
  8 42  1  0  0  0  0
  9  8  1  0  0  0  0
 10 11  1  0  0  0  0
 10 23  1  0  0  0  0
 11 12  1  0  0  0  0
 12 13  1  0  0  0  0
 12 17  2  0  0  0  0
 13 15  1  0  0  0  0
 14 46  1  0  0  0  0
 14 45  1  0  0  0  0
 14 13  1  0  0  0  0
 15 48  1  0  0  0  0
 15 49  1  0  0  0  0
 15 47  1  0  0  0  0
 16 51  1  0  0  0  0
 16 13  1  0  0  0  0
 16 52  1  0  0  0  0
 17 53  1  0  0  0  0
 18 17  1  0  0  0  0
 18 19  1  0  0  0  0
 19 22  1  0  0  0  0
 19 20  1  0  0  0  0
 20 56  1  0  0  0  0
 20 55  1  0  0  0  0
 21 59  1  0  0  0  0
 21 19  1  0  0  0  0
 22 61  1  0  0  0  0
 22 62  1  0  0  0  0
 23 18  2  0  0  0  0
 24 23  1  0  0  0  0
 25  7  1  0  0  0  0
 25 30  1  0  0  0  0
 26 25  2  0  0  0  0
 27 26  1  0  0  0  0
 27 28  2  0  0  0  0
 28 65  1  0  0  0  0
 28 29  1  0  0  0  0
 29 66  1  0  0  0  0
 30 29  2  0  0  0  0
 30 31  1  0  0  0  0
 31 67  1  0  0  0  0
 32  1  1  0  0  0  0
 33  3  1  0  0  0  0
 36  4  1  0  0  0  0
 37  6  1  0  0  0  0
 38  6  1  0  0  0  0
 39  6  1  0  0  0  0
 41  8  1  0  0  0  0
 43 11  1  0  0  0  0
 44 14  1  0  0  0  0
 50 16  1  0  0  0  0
 54 20  1  0  0  0  0
 57 21  1  0  0  0  0
 58 21  1  0  0  0  0
 60 22  1  0  0  0  0
 63 26  1  0  0  0  0
 64 27  1  0  0  0  0
M  CHG  1  24  -1
M  END
