1,2,6,7
 OpenBabel05122313063D

 19 18  0  0  0  0  0  0  0  0999 V2000
   -1.2949   -1.8656   -0.8396 S   0  0  0  0  0  1  0  0  0  0  0  0
    1.6931   -1.2448   -0.5520 O   0  5  0  0  0  0  0  0  0  0  0  0
   -3.4900    1.4475   -0.6720 O   0  0  0  0  0  0  0  0  0  0  0  0
    1.1052    3.4781   -0.2299 O   0  0  0  0  0  0  0  0  0  0  0  0
    3.8611   -0.8900   -1.0596 O   0  0  0  0  0  0  0  0  0  0  0  0
   -1.3736    0.8747    0.0519 N   0  0  0  0  0  2  0  0  0  0  0  0
    1.1405    1.1749    0.0167 N   0  0  0  0  0  2  0  0  0  0  0  0
   -2.8663   -0.8925   -0.7303 C   0  0  0  0  0  0  0  0  0  0  0  0
   -3.4493   -0.9748   -1.6696 H   0  0  0  0  0  0  0  0  0  0  0  0
   -3.4959   -1.3076    0.0857 H   0  0  0  0  0  0  0  0  0  0  0  0
   -2.6287    0.5909   -0.4550 C   0  0  0  0  0  0  0  0  0  0  0  0
   -0.9878    2.2784    0.1696 C   0  0  0  0  0  0  0  0  0  0  0  0
   -1.2526    2.6959    1.1686 H   0  0  0  0  0  0  0  0  0  0  0  0
   -1.5201    2.9021   -0.5776 H   0  0  0  0  0  0  0  0  0  0  0  0
    0.5274    2.4090   -0.0334 C   0  0  0  0  0  0  0  0  0  0  0  0
    2.5269    1.0118   -0.3648 C   0  0  0  0  0  0  0  0  0  0  0  0
    3.2304    1.3165    0.4430 H   0  0  0  0  0  0  0  0  0  0  0  0
    2.7860    1.6370   -1.2473 H   0  0  0  0  0  0  0  0  0  0  0  0
    2.7753   -0.4709   -0.6924 C   0  0  0  0  0  0  0  0  0  0  0  0
  1  8  1  0  0  0  0
  3 11  2  0  0  0  0
  4 15  2  0  0  0  0
  5 19  2  0  0  0  0
  6 12  1  0  0  0  0
  8 11  1  0  0  0  0
  8 10  1  0  0  0  0
  9  8  1  0  0  0  0
 11  6  1  0  0  0  0
 12 13  1  0  0  0  0
 14 12  1  0  0  0  0
 15  7  1  0  0  0  0
 15 12  1  0  0  0  0
 16  7  1  0  0  0  0
 16 17  1  0  0  0  0
 18 16  1  0  0  0  0
 19  2  1  0  0  0  0
 19 16  1  0  0  0  0
M  CHG  1   2  -1
M  END
