1,3,4,5
 OpenBabel05122313063D

 54 56  0  0  1  0  0  0  0  0999 V2000
    3.2644    1.5152   -0.0383 S   0  0  0  0  0  1  0  0  0  0  0  0
    6.0613    2.5997   -0.1157 S   0  0  0  0  0  0  0  0  0  0  0  0
    0.6993    0.8165   -0.1124 O   0  5  0  0  0  0  0  0  0  0  0  0
    1.0756   -1.8622   -0.3687 N   0  0  0  0  0  2  0  0  0  0  0  0
    3.6030   -1.5338    0.0452 N   0  0  0  0  0  2  0  0  0  0  0  0
   -4.7604   -0.2351   -0.0387 N   0  0  0  0  0  2  0  0  0  0  0  0
   -5.5447    0.7605    0.0867 N   0  0  0  0  0  2  0  0  0  0  0  0
   -0.5650    0.5376   -0.0944 C   0  0  0  0  0  0  0  0  0  0  0  0
   -1.5016    1.6209    0.0357 C   0  0  0  0  0  0  0  0  0  0  0  0
   -1.0768    2.6322    0.1177 H   0  0  0  0  0  0  0  0  0  0  0  0
   -2.8638    1.4002    0.0597 C   0  0  0  0  0  0  0  0  0  0  0  0
   -3.5827    2.2260    0.1624 H   0  0  0  0  0  0  0  0  0  0  0  0
   -3.3969    0.0759   -0.0510 C   0  0  0  0  0  0  0  0  0  0  0  0
   -2.5068   -0.9960   -0.1856 C   0  0  0  0  0  3  0  0  0  0  0  0
   -2.9315   -2.0082   -0.2755 H   0  0  0  0  0  0  0  0  0  0  0  0
   -1.1063   -0.8002   -0.2082 C   0  0  0  0  0  0  0  0  0  0  0  0
   -0.2329   -1.9214   -0.3744 C   0  0  0  0  0  0  0  0  0  0  0  0
   -0.7064   -2.9116   -0.5333 H   0  0  0  0  0  0  0  0  0  0  0  0
    1.8694   -3.0528   -0.6473 C   0  0  0  0  0  0  0  0  0  0  0  0
    2.1223   -3.0682   -1.7311 H   0  0  0  0  0  0  0  0  0  0  0  0
    1.3136   -3.9859   -0.4099 H   0  0  0  0  0  0  0  0  0  0  0  0
    3.1425   -2.9242    0.1680 C   0  0  0  0  0  0  0  0  0  0  0  0
    3.9001   -3.6486   -0.1928 H   0  0  0  0  0  0  0  0  0  0  0  0
    2.9320   -3.1612    1.2368 H   0  0  0  0  0  0  0  0  0  0  0  0
    4.9025   -1.2848    0.1864 C   0  0  1  0  0  3  0  0  0  0  0  0
    5.9446   -2.3817    0.3906 C   0  0  0  0  0  0  0  0  0  0  0  0
    5.6219   -3.1508    1.1205 H   0  0  0  0  0  0  0  0  0  0  0  0
    6.1095   -2.9109   -0.5768 H   0  0  0  0  0  0  0  0  0  0  0  0
    7.2068   -1.6279    0.8403 C   0  0  0  0  0  0  0  0  0  0  0  0
    8.1432   -2.1487    0.5604 H   0  0  0  0  0  0  0  0  0  0  0  0
    7.1971   -1.5330    1.9458 H   0  0  0  0  0  0  0  0  0  0  0  0
    7.0700   -0.2311    0.2102 C   0  0  0  0  0  0  0  0  0  0  0  0
    7.5269   -0.1978   -0.8064 H   0  0  0  0  0  0  0  0  0  0  0  0
    7.5773    0.5572    0.8051 H   0  0  0  0  0  0  0  0  0  0  0  0
    5.5679   -0.0269    0.1305 C   0  0  0  0  0  0  0  0  0  0  0  0
    4.9531    1.2227   -0.0006 C   0  0  0  0  0  0  0  0  0  0  0  0
    4.9553    4.0352   -0.1880 C   0  0  0  0  0  0  0  0  0  0  0  0
    5.6236    4.9136   -0.2708 H   0  0  0  0  0  0  0  0  0  0  0  0
    4.3407    4.1129    0.7294 H   0  0  0  0  0  0  0  0  0  0  0  0
    4.2915    3.9793   -1.0720 H   0  0  0  0  0  0  0  0  0  0  0  0
   -6.9165    0.4394    0.0969 C   0  0  0  0  0  0  0  0  0  0  0  0
   -7.8115    1.5206    0.2364 C   0  0  0  0  0  0  0  0  0  0  0  0
   -7.3856    2.5309    0.3274 H   0  0  0  0  0  0  0  0  0  0  0  0
   -9.1940    1.3009    0.2568 C   0  0  0  0  0  0  0  0  0  0  0  0
   -9.8806    2.1553    0.3664 H   0  0  0  0  0  0  0  0  0  0  0  0
   -9.7248    0.0007    0.1389 C   0  0  0  0  0  0  0  0  0  0  0  0
   -8.8174   -1.0782   -0.0006 C   0  0  0  0  0  0  0  0  0  0  0  0
   -9.2149   -2.1024   -0.0939 H   0  0  0  0  0  0  0  0  0  0  0  0
   -7.4390   -0.8722   -0.0221 C   0  0  0  0  0  0  0  0  0  0  0  0
   -6.7269   -1.7026   -0.1299 H   0  0  0  0  0  0  0  0  0  0  0  0
  -11.2109   -0.2479    0.1584 C   0  0  0  0  0  0  0  0  0  0  0  0
  -11.7827    0.6921    0.2808 H   0  0  0  0  0  0  0  0  0  0  0  0
  -11.4952   -0.9296    0.9876 H   0  0  0  0  0  0  0  0  0  0  0  0
  -11.5510   -0.7327   -0.7811 H   0  0  0  0  0  0  0  0  0  0  0  0
  1 36  1  0  0  0  0
  2 36  1  0  0  0  0
  3  8  1  0  0  0  0
  5 22  1  0  0  0  0
  6  7  1  0  0  0  0
  7 41  1  0  0  0  0
  8  9  2  0  0  0  0
  9 11  1  0  0  0  0
  9 10  1  0  0  0  0
 11 12  1  0  0  0  0
 13  6  1  0  0  0  0
 13 11  2  0  0  0  0
 14 13  1  0  0  0  0
 15 14  1  0  0  0  0
 16 14  1  0  0  0  0
 16  8  1  0  0  0  0
 17  4  1  0  0  0  0
 17 16  2  0  0  0  0
 18 17  1  0  0  0  0
 19 21  1  0  0  0  0
 19  4  1  0  0  0  0
 19 22  1  0  0  0  0
 20 19  1  0  0  0  0
 22 24  1  0  0  0  0
 23 22  1  0  0  0  0
 25  5  1  6  0  0  0
 25 26  1  0  0  0  0
 26 29  1  0  0  0  0
 26 27  1  0  0  0  0
 28 26  1  0  0  0  0
 29 31  1  0  0  0  0
 30 29  1  0  0  0  0
 32 34  1  0  0  0  0
 32 29  1  0  0  0  0
 33 32  1  0  0  0  0
 35 25  1  0  0  0  0
 35 32  1  0  0  0  0
 36 35  2  0  0  0  0
 37  2  1  0  0  0  0
 37 39  1  0  0  0  0
 38 37  1  0  0  0  0
 40 37  1  0  0  0  0
 41 42  1  0  0  0  0
 42 44  2  0  0  0  0
 42 43  1  0  0  0  0
 44 45  1  0  0  0  0
 46 51  1  0  0  0  0
 46 44  1  0  0  0  0
 47 46  2  0  0  0  0
 48 47  1  0  0  0  0
 49 47  1  0  0  0  0
 49 41  2  0  0  0  0
 50 49  1  0  0  0  0
 51 52  1  0  0  0  0
 51 53  1  0  0  0  0
 54 51  1  0  0  0  0
M  CHG  1   3  -1
M  END
