1,5,9,12
 OpenBabel05122313063D

 58 60  0  0  1  0  0  0  0  0999 V2000
   -0.2535    2.3281   -0.6425 S   0  0  0  0  0  1  0  0  0  0  0  0
    1.4049    2.3268   -0.1157 C   0  0  0  0  0  0  0  0  0  0  0  0
    2.2211    1.2697   -0.0814 N   0  0  0  0  0  0  0  0  0  0  0  0
    1.9050    0.0276   -0.4591 C   0  0  2  0  0  3  0  0  0  0  0  0
    0.6915   -0.4882   -0.6629 N   0  0  0  0  0  2  0  0  0  0  0  0
    0.5826   -1.8650   -1.1849 C   0  0  0  0  0  0  0  0  0  0  0  0
    1.5380   -2.2019   -1.6300 H   0  0  0  0  0  0  0  0  0  0  0  0
   -0.1776   -1.8591   -1.9949 H   0  0  0  0  0  0  0  0  0  0  0  0
   -1.8268   -1.3992    0.1523 N   0  0  0  0  0  2  0  0  0  0  0  0
   -3.1388   -1.5983    0.1648 C   0  0  0  0  0  0  0  0  0  0  0  0
   -3.4819   -2.6190    0.4242 H   0  0  0  0  0  0  0  0  0  0  0  0
   -2.6452    1.1998   -0.4170 O   0  0  0  0  0  1  0  0  0  0  0  0
    1.9616    3.5212    0.2547 N   0  0  0  0  0  0  0  0  0  0  0  0
    3.3661    3.5586    0.6787 C   0  0  0  0  0  0  0  0  0  0  0  0
    3.7269    4.5937    0.5078 H   0  0  0  0  0  0  0  0  0  0  0  0
    3.9310    2.8776    0.0127 H   0  0  0  0  0  0  0  0  0  0  0  0
    3.5927    3.1383    2.1318 C   0  0  0  0  0  0  0  0  0  0  0  0
    4.6724    3.1902    2.3796 H   0  0  0  0  0  0  0  0  0  0  0  0
    3.2569    2.0931    2.2758 H   0  0  0  0  0  0  0  0  0  0  0  0
    3.0467    3.7892    2.8432 H   0  0  0  0  0  0  0  0  0  0  0  0
    1.1695    4.7505    0.3198 C   0  0  0  0  0  0  0  0  0  0  0  0
    1.8741    5.5965    0.1845 H   0  0  0  0  0  0  0  0  0  0  0  0
    0.4804    4.7664   -0.5496 H   0  0  0  0  0  0  0  0  0  0  0  0
    0.3722    4.9145    1.6161 C   0  0  0  0  0  0  0  0  0  0  0  0
    1.0357    4.9569    2.5022 H   0  0  0  0  0  0  0  0  0  0  0  0
   -0.3333    4.0693    1.7390 H   0  0  0  0  0  0  0  0  0  0  0  0
   -0.2191    5.8519    1.5837 H   0  0  0  0  0  0  0  0  0  0  0  0
    3.1312   -0.8346   -0.6373 C   0  0  0  0  0  0  0  0  0  0  0  0
    3.9499   -0.6741   -1.7720 C   0  0  0  0  0  0  0  0  0  0  0  0
    3.6677    0.0626   -2.5393 H   0  0  0  0  0  0  0  0  0  0  0  0
    5.1108   -1.4470   -1.9209 C   0  0  0  0  0  0  0  0  0  0  0  0
    5.7392   -1.3225   -2.8161 H   0  0  0  0  0  0  0  0  0  0  0  0
    5.4754   -2.3712   -0.9279 C   0  0  0  0  0  0  0  0  0  0  0  0
    6.3896   -2.9732   -1.0430 H   0  0  0  0  0  0  0  0  0  0  0  0
    4.6743   -2.5177    0.2154 C   0  0  0  0  0  0  0  0  0  0  0  0
    4.9612   -3.2309    1.0035 H   0  0  0  0  0  0  0  0  0  0  0  0
    3.5049   -1.7553    0.3606 C   0  0  0  0  0  0  0  0  0  0  0  0
    2.8737   -1.8708    1.2539 H   0  0  0  0  0  0  0  0  0  0  0  0
    0.1672   -2.7856   -0.0716 C   0  0  0  0  0  0  0  0  0  0  0  0
    0.9332   -3.8886    0.3337 C   0  0  0  0  0  0  0  0  0  0  0  0
    1.8564   -4.1255   -0.2171 H   0  0  0  0  0  0  0  0  0  0  0  0
    0.5418   -4.6752    1.4289 C   0  0  0  0  0  0  0  0  0  0  0  0
    1.1523   -5.5377    1.7352 H   0  0  0  0  0  0  0  0  0  0  0  0
   -0.6185   -4.3383    2.1430 C   0  0  0  0  0  0  0  0  0  0  0  0
   -0.9179   -4.9263    3.0239 H   0  0  0  0  0  0  0  0  0  0  0  0
   -1.3976   -3.2429    1.7462 C   0  0  0  0  0  0  0  0  0  0  0  0
   -2.2905   -2.9613    2.3235 H   0  0  0  0  0  0  0  0  0  0  0  0
   -1.0272   -2.4749    0.6209 C   0  0  0  0  0  0  0  0  0  0  0  0
   -4.1633   -0.6557   -0.1226 C   0  0  0  0  0  0  0  0  0  0  0  0
   -5.5247   -1.0849   -0.1124 C   0  0  0  0  0  0  0  0  0  0  0  0
   -5.7349   -2.1473    0.0929 H   0  0  0  0  0  0  0  0  0  0  0  0
   -6.5631   -0.1979   -0.3497 C   0  0  0  0  0  0  0  0  0  0  0  0
   -7.6074   -0.5415   -0.3392 H   0  0  0  0  0  0  0  0  0  0  0  0
   -6.2591    1.1672   -0.6022 C   0  0  0  0  0  0  0  0  0  0  0  0
   -7.0787    1.8792   -0.7890 H   0  0  0  0  0  0  0  0  0  0  0  0
   -4.9484    1.6227   -0.6169 C   0  0  0  0  0  0  0  0  0  0  0  0
   -4.7014    2.6763   -0.8110 H   0  0  0  0  0  0  0  0  0  0  0  0
   -3.8519    0.7299   -0.3868 C   0  0  1  0  0  3  0  0  0  0  0  0
  1  2  1  0  0  0  0
  2  3  2  0  0  0  0
  2 13  1  0  0  0  0
  4  5  1  1  0  0  0
  4  3  1  0  0  0  0
  6  5  1  0  0  0  0
  6 39  1  0  0  0  0
  7  6  1  0  0  0  0
  8  6  1  0  0  0  0
  9 10  1  0  0  0  0
  9 48  1  0  0  0  0
 10 11  1  0  0  0  0
 13 21  1  0  0  0  0
 13 14  1  0  0  0  0
 14 17  1  0  0  0  0
 15 14  1  0  0  0  0
 16 14  1  0  0  0  0
 17 19  1  0  0  0  0
 17 18  1  0  0  0  0
 17 20  1  0  0  0  0
 21 24  1  0  0  0  0
 22 21  1  0  0  0  0
 23 21  1  0  0  0  0
 24 26  1  0  0  0  0
 24 25  1  0  0  0  0
 27 24  1  0  0  0  0
 28  4  1  0  0  0  0
 28 37  1  0  0  0  0
 29 28  2  0  0  0  0
 30 29  1  0  0  0  0
 31 29  1  0  0  0  0
 31 33  2  0  0  0  0
 32 31  1  0  0  0  0
 33 35  1  0  0  0  0
 34 33  1  0  0  0  0
 35 37  2  0  0  0  0
 35 36  1  0  0  0  0
 37 38  1  0  0  0  0
 39 40  2  0  0  0  0
 39 48  1  0  0  0  0
 40 42  1  0  0  0  0
 41 40  1  0  0  0  0
 42 43  1  0  0  0  0
 42 44  2  0  0  0  0
 44 45  1  0  0  0  0
 46 44  1  0  0  0  0
 46 47  1  0  0  0  0
 48 46  2  0  0  0  0
 49 50  1  0  0  0  0
 49 10  2  0  0  0  0
 50 51  1  0  0  0  0
 52 53  1  0  0  0  0
 52 50  2  0  0  0  0
 54 52  1  0  0  0  0
 55 54  1  0  0  0  0
 56 54  2  0  0  0  0
 56 58  1  0  0  0  0
 57 56  1  0  0  0  0
 58 12  1  1  0  0  0
 58 49  1  0  0  0  0
M  END
