2,10,17,19
 OpenBabel05122313063D

 41 42  0  0  1  0  0  0  0  0999 V2000
   -2.5139   -0.6675   -0.5775 N   0  0  0  0  0  0  0  0  0  0  0  0
   -1.4778   -0.7899    0.3013 N   0  0  0  0  0  2  0  0  0  0  0  0
   -1.6512   -1.9501    0.9710 C   0  0  2  0  0  3  0  0  0  0  0  0
   -2.8340   -2.5697    0.5012 C   0  0  0  0  0  0  0  0  0  0  0  0
   -3.3698   -1.7344   -0.4802 C   0  0  0  0  0  0  0  0  0  0  0  0
   -0.7030   -2.4253    2.0201 C   0  0  0  0  0  0  0  0  0  0  0  0
   -4.5989   -1.8750   -1.3143 C   0  0  0  0  0  0  0  0  0  0  0  0
   -2.6234    0.5335   -1.3804 C   0  0  0  0  0  0  0  0  0  0  0  0
   -2.8636    1.7728   -0.5175 C   0  0  0  0  0  0  0  0  0  0  0  0
   -1.4830    2.0736    0.6737 S   0  0  0  0  0  0  0  0  0  0  0  0
    2.3730   -0.9822   -0.1560 C   0  0  0  0  0  0  0  0  0  0  0  0
    3.1764    0.2110   -0.2310 C   0  0  0  0  0  0  0  0  0  0  0  0
    4.5779    0.1077   -0.4866 C   0  0  0  0  0  3  0  0  0  0  0  0
    5.1805   -1.1265   -0.6640 C   0  0  0  0  0  0  0  0  0  0  0  0
    4.3864   -2.3008   -0.5936 C   0  0  0  0  0  0  0  0  0  0  0  0
    3.0193   -2.2376   -0.3517 C   0  0  0  0  0  0  0  0  0  0  0  0
    1.0856   -0.9784    0.0812 O   0  5  0  0  0  0  0  0  0  0  0  0
    2.5880    1.4920   -0.0584 C   0  0  0  0  0  0  0  0  0  0  0  0
    1.3124    1.7493    0.1640 N   0  0  0  0  0  2  0  0  0  0  0  0
    0.9282    3.1523    0.3903 C   0  0  0  0  0  0  0  0  0  0  0  0
   -0.4765    3.3768   -0.1442 C   0  0  0  0  0  0  0  0  0  0  0  0
   -3.2560   -3.5198    0.8441 H   0  0  0  0  0  0  0  0  0  0  0  0
    0.0351   -3.1314    1.5895 H   0  0  0  0  0  0  0  0  0  0  0  0
   -0.1325   -1.5845    2.4549 H   0  0  0  0  0  0  0  0  0  0  0  0
   -1.2508   -2.9503    2.8253 H   0  0  0  0  0  0  0  0  0  0  0  0
   -5.3214   -1.0505   -1.1418 H   0  0  0  0  0  0  0  0  0  0  0  0
   -4.3642   -1.9021   -2.3987 H   0  0  0  0  0  0  0  0  0  0  0  0
   -5.1100   -2.8214   -1.0617 H   0  0  0  0  0  0  0  0  0  0  0  0
   -1.7060    0.6512   -1.9958 H   0  0  0  0  0  0  0  0  0  0  0  0
   -3.4745    0.3985   -2.0757 H   0  0  0  0  0  0  0  0  0  0  0  0
   -2.9742    2.6850   -1.1362 H   0  0  0  0  0  0  0  0  0  0  0  0
   -3.7741    1.6592    0.1029 H   0  0  0  0  0  0  0  0  0  0  0  0
    5.1738    1.0323   -0.5384 H   0  0  0  0  0  0  0  0  0  0  0  0
    6.2595   -1.1991   -0.8584 H   0  0  0  0  0  0  0  0  0  0  0  0
    4.8600   -3.2845   -0.7350 H   0  0  0  0  0  0  0  0  0  0  0  0
    2.4013   -3.1451   -0.3017 H   0  0  0  0  0  0  0  0  0  0  0  0
    3.2701    2.3624   -0.1236 H   0  0  0  0  0  0  0  0  0  0  0  0
    0.9587    3.3790    1.4800 H   0  0  0  0  0  0  0  0  0  0  0  0
    1.6407    3.8440   -0.1072 H   0  0  0  0  0  0  0  0  0  0  0  0
   -0.8798    4.3738    0.1208 H   0  0  0  0  0  0  0  0  0  0  0  0
   -0.5205    3.2274   -1.2415 H   0  0  0  0  0  0  0  0  0  0  0  0
  1  5  1  0  0  0  0
  1  2  1  0  0  0  0
  2  3  1  0  0  0  0
  3  6  1  1  0  0  0
  4 22  1  0  0  0  0
  4  3  1  0  0  0  0
  5  4  2  0  0  0  0
  6 24  1  0  0  0  0
  6 25  1  0  0  0  0
  7 26  1  0  0  0  0
  7 28  1  0  0  0  0
  7  5  1  0  0  0  0
  8  1  1  0  0  0  0
  8  9  1  0  0  0  0
  9 32  1  0  0  0  0
  9 10  1  0  0  0  0
 11 17  1  0  0  0  0
 12 11  1  0  0  0  0
 12 18  2  0  0  0  0
 13 12  1  0  0  0  0
 14 15  2  0  0  0  0
 14 13  1  0  0  0  0
 15 16  1  0  0  0  0
 16 36  1  0  0  0  0
 16 11  2  0  0  0  0
 18 19  1  0  0  0  0
 19 20  1  0  0  0  0
 20 38  1  0  0  0  0
 21 40  1  0  0  0  0
 21 20  1  0  0  0  0
 21 10  1  0  0  0  0
 23  6  1  0  0  0  0
 27  7  1  0  0  0  0
 29  8  1  0  0  0  0
 30  8  1  0  0  0  0
 31  9  1  0  0  0  0
 33 13  1  0  0  0  0
 34 14  1  0  0  0  0
 35 15  1  0  0  0  0
 37 18  1  0  0  0  0
 39 20  1  0  0  0  0
 41 21  1  0  0  0  0
M  CHG  1  17  -1
M  END
