1,4,5,6
 OpenBabel05122313063D

 39 40  0  0  1  0  0  0  0  0999 V2000
    1.3581    1.5084    0.0889 S   0  0  0  0  0  1  0  0  0  0  0  0
    4.2024    2.4600   -0.0081 S   0  0  0  0  0  0  0  0  0  0  0  0
   -7.0938    0.2584    0.0534 Cl  0  0  0  0  0  0  0  0  0  0  0  0
   -1.2319    0.9425   -0.1052 O   0  0  0  0  0  1  0  0  0  0  0  0
   -1.0052   -1.7675   -0.1299 N   0  0  0  0  0  2  0  0  0  0  0  0
    1.5530   -1.5453    0.1558 N   0  0  0  0  0  2  0  0  0  0  0  0
   -2.5131    0.7307   -0.0646 C   0  0  1  0  0  3  0  0  0  0  0  0
   -3.3912    1.8611   -0.0258 C   0  0  0  0  0  0  0  0  0  0  0  0
   -2.9255    2.8569   -0.0249 H   0  0  0  0  0  0  0  0  0  0  0  0
   -4.7706    1.7134    0.0109 C   0  0  0  0  0  0  0  0  0  0  0  0
   -5.4263    2.5957    0.0422 H   0  0  0  0  0  0  0  0  0  0  0  0
   -5.3521    0.4199    0.0077 C   0  0  0  0  0  0  0  0  0  0  0  0
   -4.5423   -0.7065   -0.0333 C   0  0  0  0  0  0  0  0  0  0  0  0
   -4.9960   -1.7088   -0.0395 H   0  0  0  0  0  0  0  0  0  0  0  0
   -3.1257   -0.5770   -0.0691 C   0  0  0  0  0  0  0  0  0  0  0  0
   -2.3164   -1.7540   -0.1302 C   0  0  0  0  0  0  0  0  0  0  0  0
   -2.8427   -2.7284   -0.1904 H   0  0  0  0  0  0  0  0  0  0  0  0
   -0.2871   -3.0289   -0.2786 C   0  0  0  0  0  0  0  0  0  0  0  0
   -0.0674   -3.1947   -1.3572 H   0  0  0  0  0  0  0  0  0  0  0  0
   -0.8859   -3.8905    0.0886 H   0  0  0  0  0  0  0  0  0  0  0  0
    1.0147   -2.8695    0.4845 C   0  0  0  0  0  0  0  0  0  0  0  0
    0.8161   -2.9268    1.5795 H   0  0  0  0  0  0  0  0  0  0  0  0
    1.7174   -3.6883    0.2337 H   0  0  0  0  0  0  0  0  0  0  0  0
    2.8709   -1.3747    0.0937 C   0  0  2  0  0  3  0  0  0  0  0  0
    3.8804   -2.5151    0.1972 C   0  0  0  0  0  0  0  0  0  0  0  0
    3.5655   -3.4294   -0.3446 H   0  0  0  0  0  0  0  0  0  0  0  0
    3.9932   -2.8043    1.2674 H   0  0  0  0  0  0  0  0  0  0  0  0
    5.1793   -1.9156   -0.3655 C   0  0  0  0  0  0  0  0  0  0  0  0
    5.1969   -2.0609   -1.4655 H   0  0  0  0  0  0  0  0  0  0  0  0
    6.0891   -2.3943    0.0461 H   0  0  0  0  0  0  0  0  0  0  0  0
    5.0825   -0.4132   -0.0506 C   0  0  0  0  0  0  0  0  0  0  0  0
    5.5404   -0.1727    0.9374 H   0  0  0  0  0  0  0  0  0  0  0  0
    5.6145    0.2136   -0.7973 H   0  0  0  0  0  0  0  0  0  0  0  0
    3.5878   -0.1486   -0.0217 C   0  0  0  0  0  0  0  0  0  0  0  0
    3.0284    1.1332    0.0105 C   0  0  0  0  0  0  0  0  0  0  0  0
    3.1673    3.9487    0.0177 C   0  0  0  0  0  0  0  0  0  0  0  0
    3.8768    4.7977   -0.0127 H   0  0  0  0  0  0  0  0  0  0  0  0
    2.5607    3.9960    0.9423 H   0  0  0  0  0  0  0  0  0  0  0  0
    2.4976    3.9817   -0.8631 H   0  0  0  0  0  0  0  0  0  0  0  0
  2 35  1  0  0  0  0
  2 36  1  0  0  0  0
  6 21  1  0  0  0  0
  7  4  1  6  0  0  0
  7  8  1  0  0  0  0
  8  9  1  0  0  0  0
  8 10  2  0  0  0  0
 10 11  1  0  0  0  0
 12 10  1  0  0  0  0
 12  3  1  0  0  0  0
 13 12  2  0  0  0  0
 14 13  1  0  0  0  0
 15  7  1  0  0  0  0
 15 13  1  0  0  0  0
 16  5  1  0  0  0  0
 16 15  2  0  0  0  0
 17 16  1  0  0  0  0
 18  5  1  0  0  0  0
 18 20  1  0  0  0  0
 18 21  1  0  0  0  0
 19 18  1  0  0  0  0
 21 22  1  0  0  0  0
 23 21  1  0  0  0  0
 24  6  1  1  0  0  0
 24 25  1  0  0  0  0
 25 27  1  0  0  0  0
 26 25  1  0  0  0  0
 28 31  1  0  0  0  0
 28 30  1  0  0  0  0
 28 25  1  0  0  0  0
 29 28  1  0  0  0  0
 31 34  1  0  0  0  0
 31 32  1  0  0  0  0
 33 31  1  0  0  0  0
 34 35  2  0  0  0  0
 34 24  1  0  0  0  0
 35  1  1  0  0  0  0
 36 38  1  0  0  0  0
 37 36  1  0  0  0  0
 39 36  1  0  0  0  0
M  END
