2,4,5,6
 OpenBabel05122313063D

 49 50  0  0  1  0  0  0  0  0999 V2000
    1.0907    2.7224   -0.4878 S   0  0  0  0  0  0  0  0  0  0  0  0
   -1.3726    0.9681    1.3198 S   0  0  0  0  0  0  0  0  0  0  0  0
   -1.3003   -2.1054    0.1140 O   0  0  0  0  0  0  0  0  0  0  0  0
    1.4941   -0.7809   -0.9833 O   0  0  0  0  0  1  0  0  0  0  0  0
   -0.8022    0.3346   -1.4921 N   0  0  0  0  0  2  0  0  0  0  0  0
    1.1770   -0.2811    1.6859 N   0  0  0  0  0  2  0  0  0  0  0  0
   -2.6148   -1.8346   -0.0807 C   0  0  0  0  0  0  0  0  0  0  0  0
   -3.6226   -2.5627    0.5758 C   0  0  0  0  0  0  0  0  0  0  0  0
   -3.3349   -3.3599    1.2802 H   0  0  0  0  0  0  0  0  0  0  0  0
   -4.9742   -2.2927    0.3325 C   0  0  0  0  0  0  0  0  0  0  0  0
   -5.7445   -2.8774    0.8568 H   0  0  0  0  0  0  0  0  0  0  0  0
   -5.3449   -1.2962   -0.5882 C   0  0  0  0  0  0  0  0  0  0  0  0
   -6.4051   -1.0933   -0.7939 H   0  0  0  0  0  0  0  0  0  0  0  0
   -4.3487   -0.5822   -1.2532 C   0  0  0  0  0  0  0  0  0  0  0  0
   -4.6276    0.1851   -1.9922 H   0  0  0  0  0  0  0  0  0  0  0  0
   -2.9683   -0.8041   -1.0020 C   0  0  0  0  0  0  0  0  0  0  0  0
   -2.0278   -0.0059   -1.7770 C   0  0  0  0  0  3  0  0  0  0  0  0
   -2.4413    0.3773   -2.7341 H   0  0  0  0  0  0  0  0  0  0  0  0
   -0.0458    1.0820   -2.4991 C   0  0  0  0  0  0  0  0  0  0  0  0
   -0.5867    1.0735   -3.4708 H   0  0  0  0  0  0  0  0  0  0  0  0
    0.9084    0.5326   -2.6344 H   0  0  0  0  0  0  0  0  0  0  0  0
    0.2351    2.5341   -2.1038 C   0  0  0  0  0  0  0  0  0  0  0  0
   -0.6969    3.1351   -2.0766 H   0  0  0  0  0  0  0  0  0  0  0  0
    0.8898    2.9906   -2.8727 H   0  0  0  0  0  0  0  0  0  0  0  0
   -0.2183    3.4876    0.5261 C   0  0  0  0  0  0  0  0  0  0  0  0
    0.2810    3.7035    1.4929 H   0  0  0  0  0  0  0  0  0  0  0  0
   -0.4854    4.4762    0.0956 H   0  0  0  0  0  0  0  0  0  0  0  0
   -1.5096    2.6995    0.7290 C   0  0  0  0  0  0  0  0  0  0  0  0
   -2.0736    2.5884   -0.2192 H   0  0  0  0  0  0  0  0  0  0  0  0
   -2.1817    3.2245    1.4399 H   0  0  0  0  0  0  0  0  0  0  0  0
   -0.4149    1.1190    2.8784 C   0  0  0  0  0  0  0  0  0  0  0  0
    0.2252    2.0207    2.8245 H   0  0  0  0  0  0  0  0  0  0  0  0
   -1.1158    1.2082    3.7309 H   0  0  0  0  0  0  0  0  0  0  0  0
    0.4324   -0.1412    2.9403 C   0  0  0  0  0  0  0  0  0  0  0  0
    1.1201   -0.1046    3.8127 H   0  0  0  0  0  0  0  0  0  0  0  0
   -0.2250   -1.0291    3.0795 H   0  0  0  0  0  0  0  0  0  0  0  0
    2.4415   -0.6437    1.7475 C   0  0  0  0  0  0  0  0  0  0  0  0
    2.8917   -0.7283    2.7567 H   0  0  0  0  0  0  0  0  0  0  0  0
    3.2820   -0.9623    0.6453 C   0  0  0  0  0  0  0  0  0  0  0  0
    4.6580   -1.2645    0.8733 C   0  0  0  0  0  0  0  0  0  0  0  0
    5.0462   -1.2056    1.9024 H   0  0  0  0  0  0  0  0  0  0  0  0
    5.4938   -1.6252   -0.1714 C   0  0  0  0  0  0  0  0  0  0  0  0
    6.5533   -1.8519    0.0117 H   0  0  0  0  0  0  0  0  0  0  0  0
    4.9608   -1.7052   -1.4838 C   0  0  0  0  0  0  0  0  0  0  0  0
    5.6167   -1.9976   -2.3183 H   0  0  0  0  0  0  0  0  0  0  0  0
    3.6240   -1.4245   -1.7410 C   0  0  0  0  0  0  0  0  0  0  0  0
    3.2091   -1.4968   -2.7565 H   0  0  0  0  0  0  0  0  0  0  0  0
    2.7424   -1.0334   -0.6894 C   0  0  1  0  0  3  0  0  0  0  0  0
   -1.2072   -2.9194    0.6470 H   0  0  0  0  0  0  0  0  0  0  0  0
  1 25  1  0  0  0  0
  2 31  1  0  0  0  0
  3 49  1  0  0  0  0
  6 37  1  0  0  0  0
  6 34  1  0  0  0  0
  7  3  1  0  0  0  0
  7  8  1  0  0  0  0
  8  9  1  0  0  0  0
 10  8  2  0  0  0  0
 10 11  1  0  0  0  0
 12 10  1  0  0  0  0
 13 12  1  0  0  0  0
 14 16  1  0  0  0  0
 14 12  2  0  0  0  0
 15 14  1  0  0  0  0
 16  7  2  0  0  0  0
 17  5  1  0  0  0  0
 17 16  1  0  0  0  0
 18 17  1  0  0  0  0
 19 22  1  0  0  0  0
 19  5  1  0  0  0  0
 20 19  1  0  0  0  0
 21 19  1  0  0  0  0
 22 23  1  0  0  0  0
 22  1  1  0  0  0  0
 24 22  1  0  0  0  0
 25 28  1  0  0  0  0
 25 26  1  0  0  0  0
 27 25  1  0  0  0  0
 28  2  1  0  0  0  0
 28 30  1  0  0  0  0
 29 28  1  0  0  0  0
 31 34  1  0  0  0  0
 31 33  1  0  0  0  0
 32 31  1  0  0  0  0
 34 36  1  0  0  0  0
 34 35  1  0  0  0  0
 37 38  1  0  0  0  0
 39 40  1  0  0  0  0
 39 37  2  0  0  0  0
 40 41  1  0  0  0  0
 42 43  1  0  0  0  0
 42 40  2  0  0  0  0
 44 42  1  0  0  0  0
 45 44  1  0  0  0  0
 46 44  2  0  0  0  0
 46 48  1  0  0  0  0
 47 46  1  0  0  0  0
 48  4  1  1  0  0  0
 48 39  1  0  0  0  0
M  END
