1,4,5,6
 OpenBabel05122313063D

 24 24  0  0  0  0  0  0  0  0999 V2000
    1.9236   -1.6951   -0.9296 S   0  0  0  0  0  1  0  0  0  0  0  0
    3.5845    1.9228   -0.9459 O   0  0  0  0  0  0  0  0  0  0  0  0
   -1.1657    3.2692    0.1131 O   0  0  0  0  0  0  0  0  0  0  0  0
   -1.0825   -1.5601   -0.3203 O   0  5  0  0  0  0  0  0  0  0  0  0
    1.6567    1.0270   -0.0439 N   0  0  0  0  0  2  0  0  0  0  0  0
   -0.8808    0.9501    0.1232 N   0  0  0  0  0  2  0  0  0  0  0  0
    3.3255   -0.4862   -0.9801 C   0  0  0  0  0  0  0  0  0  0  0  0
    2.8873    0.9435   -0.6669 C   0  0  0  0  0  0  0  0  0  0  0  0
    1.0829    2.3504    0.1614 C   0  0  0  0  0  0  0  0  0  0  0  0
   -0.4490    2.2689    0.1323 C   0  0  0  0  0  0  0  0  0  0  0  0
   -2.2000    0.5211   -0.1239 C   0  0  0  0  0  0  0  0  0  0  0  0
   -3.3737    1.2928   -0.1778 C   0  0  0  0  0  0  0  0  0  0  0  0
   -4.6004    0.6571   -0.4508 C   0  0  0  0  0  0  0  0  0  0  0  0
   -4.6533   -0.7298   -0.6713 C   0  0  0  0  0  0  0  0  0  0  0  0
   -3.4811   -1.5063   -0.6268 C   0  0  0  0  0  0  0  0  0  0  0  0
   -2.2488   -0.8875   -0.3513 C   0  0  0  0  0  0  0  0  0  0  0  0
    4.0969   -0.7886   -0.2399 H   0  0  0  0  0  0  0  0  0  0  0  0
    3.8089   -0.4858   -1.9778 H   0  0  0  0  0  0  0  0  0  0  0  0
    1.3947    2.7887    1.1377 H   0  0  0  0  0  0  0  0  0  0  0  0
    1.4273    3.0627   -0.6176 H   0  0  0  0  0  0  0  0  0  0  0  0
   -3.2990    2.3747   -0.0116 H   0  0  0  0  0  0  0  0  0  0  0  0
   -5.5231    1.2574   -0.4915 H   0  0  0  0  0  0  0  0  0  0  0  0
   -5.6188   -1.2175   -0.8818 H   0  0  0  0  0  0  0  0  0  0  0  0
   -3.4959   -2.5923   -0.8032 H   0  0  0  0  0  0  0  0  0  0  0  0
  2  8  2  0  0  0  0
  3 10  2  0  0  0  0
  5  9  1  0  0  0  0
  6 10  1  0  0  0  0
  7  1  1  0  0  0  0
  7  8  1  0  0  0  0
  7 17  1  0  0  0  0
  8  5  1  0  0  0  0
  9 19  1  0  0  0  0
 10  9  1  0  0  0  0
 11  6  1  0  0  0  0
 12 11  1  0  0  0  0
 12 21  1  0  0  0  0
 13 12  2  0  0  0  0
 14 15  2  0  0  0  0
 14 13  1  0  0  0  0
 15 16  1  0  0  0  0
 16  4  1  0  0  0  0
 16 11  2  0  0  0  0
 18  7  1  0  0  0  0
 20  9  1  0  0  0  0
 22 13  1  0  0  0  0
 23 14  1  0  0  0  0
 24 15  1  0  0  0  0
M  CHG  1   4  -1
M  END
