1,2,7,11
q = -2.0, confidence = 0.586

 29 28  0  0  1  0  0  0  0  0999 V2000
    1.1351    1.3075    0.7943 N   0  0  0  0  0  2  0  0  0  0  0  0
    0.2212   -1.1144    1.7613 N   0  0  0  0  0  0  0  0  0  0  0  0
    0.7200   -1.9576    2.0723 H   0  0  0  0  0  0  0  0  0  0  0  0
   -3.0790   -0.3475    0.4100 N   0  0  0  0  0  0  0  0  0  0  0  0
   -3.7178   -0.8132    1.0659 H   0  0  0  0  0  0  0  0  0  0  0  0
    1.1445    3.6099    0.7214 O   0  0  0  0  0  0  0  0  0  0  0  0
   -0.9774    0.0695   -0.3258 O   0  0  0  0  0  1  0  0  0  0  0  0
   -5.7435   -0.2815    0.4781 O   0  0  0  0  0  0  0  0  0  0  0  0
   -5.8848    1.0767   -1.3317 O   0  0  0  0  0  0  0  0  0  0  0  0
   -6.8411    0.9669   -1.1347 H   0  0  0  0  0  0  0  0  0  0  0  0
    1.7719    0.7647   -1.9661 S   0  0  0  0  0  1  0  0  0  0  0  0
    2.0759    2.4124   -1.1739 C   0  0  0  0  0  0  0  0  0  0  0  0
    1.7083    3.2297   -1.8243 H   0  0  0  0  0  0  0  0  0  0  0  0
    3.1705    2.5511   -1.0468 H   0  0  0  0  0  0  0  0  0  0  0  0
    1.4072    2.5322    0.1925 C   0  0  0  0  0  0  0  0  0  0  0  0
    0.3863    1.3608    2.0525 C   0  0  0  0  0  0  0  0  0  0  0  0
   -0.6700    1.6650    1.8643 H   0  0  0  0  0  0  0  0  0  0  0  0
    0.8047    2.1445    2.7186 H   0  0  0  0  0  0  0  0  0  0  0  0
    0.4574   -0.0027    2.7358 C   0  0  0  0  0  0  0  0  0  0  0  0
    1.4812   -0.1606    3.1282 H   0  0  0  0  0  0  0  0  0  0  0  0
   -0.2556   -0.0661    3.5871 H   0  0  0  0  0  0  0  0  0  0  0  0
   -1.1760   -1.4751    1.4887 C   0  0  0  0  0  0  0  0  0  0  0  0
   -1.7947   -1.5330    2.4113 H   0  0  0  0  0  0  0  0  0  0  0  0
   -1.1635   -2.4647    0.9822 H   0  0  0  0  0  0  0  0  0  0  0  0
   -1.7457   -0.5045    0.4671 C   0  0  2  0  0  3  0  0  0  0  0  0
   -3.7163    0.4506   -0.6116 C   0  0  0  0  0  0  0  0  0  0  0  0
   -3.4466    0.1006   -1.6323 H   0  0  0  0  0  0  0  0  0  0  0  0
   -3.3945    1.5145   -0.5656 H   0  0  0  0  0  0  0  0  0  0  0  0
   -5.2176    0.3623   -0.4128 C   0  0  0  0  0  0  0  0  0  0  0  0
  1 16  1  0  0  0  0
  2  3  1  0  0  0  0
  2 19  1  0  0  0  0
  4 25  1  0  0  0  0
  4  5  1  0  0  0  0
  9 10  1  0  0  0  0
  9 29  1  0  0  0  0
 11 12  1  0  0  0  0
 12 14  1  0  0  0  0
 12 15  1  0  0  0  0
 13 12  1  0  0  0  0
 15  6  2  0  0  0  0
 15  1  1  0  0  0  0
 16 18  1  0  0  0  0
 16 19  1  0  0  0  0
 17 16  1  0  0  0  0
 19 20  1  0  0  0  0
 19 21  1  0  0  0  0
 22  2  1  0  0  0  0
 22 23  1  0  0  0  0
 24 22  1  0  0  0  0
 25  7  1  6  0  0  0
 25 22  1  0  0  0  0
 26 28  1  0  0  0  0
 26 29  1  0  0  0  0
 26  4  1  0  0  0  0
 27 26  1  0  0  0  0
 29  8  2  0  0  0  0
M  END
