1,3,4,5
q = -2.0, confidence = 0.92

 39 40  0  0  1  0  0  0  0  0999 V2000
    0.9318    1.6285   -0.0685 S   0  0  0  0  0  1  0  0  0  0  0  0
    3.8155    2.4952   -0.3446 S   0  0  0  0  0  0  0  0  0  0  0  0
   -1.6913    1.1599   -0.1752 O   0  5  0  0  0  0  0  0  0  0  0  0
    1.0082   -1.4098   -0.5352 N   0  0  0  0  0  2  0  0  0  0  0  0
   -1.5291   -1.4417   -0.8810 N   0  0  0  0  0  2  0  0  0  0  0  0
    2.5944    1.2190   -0.2054 C   0  0  2  0  0  3  0  0  0  0  0  0
    2.8620    4.0167   -0.0953 C   0  0  0  0  0  0  0  0  0  0  0  0
    3.0919   -0.0941   -0.2528 C   0  0  0  0  0  0  0  0  0  0  0  0
    2.3377   -1.2916   -0.4059 C   0  0  0  0  0  0  0  0  0  0  0  0
    3.2969   -2.4753   -0.4854 C   0  0  0  0  0  0  0  0  0  0  0  0
    4.6231   -1.9176    0.0550 C   0  0  0  0  0  0  0  0  0  0  0  0
    4.5733   -0.4191   -0.2853 C   0  0  0  0  0  0  0  0  0  0  0  0
    0.4676   -2.7629   -0.7277 C   0  0  0  0  0  0  0  0  0  0  0  0
   -0.8623   -2.6175   -1.4436 C   0  0  0  0  0  0  0  0  0  0  0  0
   -2.8464   -1.3732   -0.9660 C   0  0  0  0  0  3  0  0  0  0  0  0
   -3.6249   -0.2345   -0.5996 C   0  0  0  0  0  0  0  0  0  0  0  0
   -2.9884    1.0196   -0.2658 C   0  0  0  0  0  0  0  0  0  0  0  0
   -3.8148    2.1621   -0.0492 C   0  0  0  0  0  0  0  0  0  0  0  0
   -5.2000    2.0648   -0.1030 C   0  0  0  0  0  0  0  0  0  0  0  0
   -5.8255    0.8300   -0.4134 C   0  0  0  0  0  0  0  0  0  0  0  0
   -5.0455   -0.2909   -0.6694 C   0  0  0  0  0  0  0  0  0  0  0  0
    2.3282    3.9934    0.8746 H   0  0  0  0  0  0  0  0  0  0  0  0
    3.6088    4.8338   -0.0994 H   0  0  0  0  0  0  0  0  0  0  0  0
    2.1302    4.1694   -0.9110 H   0  0  0  0  0  0  0  0  0  0  0  0
    2.9361   -3.3546    0.0847 H   0  0  0  0  0  0  0  0  0  0  0  0
    3.3990   -2.8029   -1.5464 H   0  0  0  0  0  0  0  0  0  0  0  0
    4.6472   -2.0416    1.1573 H   0  0  0  0  0  0  0  0  0  0  0  0
    5.5117   -2.4332   -0.3580 H   0  0  0  0  0  0  0  0  0  0  0  0
    4.9883   -0.2181   -1.3010 H   0  0  0  0  0  0  0  0  0  0  0  0
    5.1578    0.2111    0.4169 H   0  0  0  0  0  0  0  0  0  0  0  0
    1.1468   -3.4205   -1.3065 H   0  0  0  0  0  0  0  0  0  0  0  0
    0.3138   -3.2156    0.2791 H   0  0  0  0  0  0  0  0  0  0  0  0
   -1.4899   -3.5286   -1.3394 H   0  0  0  0  0  0  0  0  0  0  0  0
   -0.6913   -2.4493   -2.5306 H   0  0  0  0  0  0  0  0  0  0  0  0
   -3.3874   -2.2403   -1.3959 H   0  0  0  0  0  0  0  0  0  0  0  0
   -3.3063    3.1074    0.1891 H   0  0  0  0  0  0  0  0  0  0  0  0
   -5.8174    2.9540    0.0973 H   0  0  0  0  0  0  0  0  0  0  0  0
   -6.9224    0.7633   -0.4582 H   0  0  0  0  0  0  0  0  0  0  0  0
   -5.5204   -1.2502   -0.9309 H   0  0  0  0  0  0  0  0  0  0  0  0
  2  6  1  0  0  0  0
  2  7  1  0  0  0  0
  4  9  1  0  0  0  0
  6  1  1  6  0  0  0
  7 22  1  0  0  0  0
  8  6  1  0  0  0  0
  9  8  2  0  0  0  0
 10  9  1  0  0  0  0
 10 11  1  0  0  0  0
 10 25  1  0  0  0  0
 11 27  1  0  0  0  0
 12  8  1  0  0  0  0
 12 11  1  0  0  0  0
 12 30  1  0  0  0  0
 13  4  1  0  0  0  0
 13 32  1  0  0  0  0
 14 33  1  0  0  0  0
 14  5  1  0  0  0  0
 14 13  1  0  0  0  0
 15  5  1  0  0  0  0
 15 16  1  0  0  0  0
 16 17  1  0  0  0  0
 17  3  1  0  0  0  0
 17 18  2  0  0  0  0
 18 36  1  0  0  0  0
 19 18  1  0  0  0  0
 19 37  1  0  0  0  0
 20 19  2  0  0  0  0
 21 16  2  0  0  0  0
 21 20  1  0  0  0  0
 23  7  1  0  0  0  0
 24  7  1  0  0  0  0
 26 10  1  0  0  0  0
 28 11  1  0  0  0  0
 29 12  1  0  0  0  0
 31 13  1  0  0  0  0
 34 14  1  0  0  0  0
 35 15  1  0  0  0  0
 38 20  1  0  0  0  0
 39 21  1  0  0  0  0
M  CHG  1   3  -1
M  END
