2,8
 OpenBabel05122313063D

 31 32  0  0  0  0  0  0  0  0999 V2000
   -2.3700    0.3836   -2.1654 S   0  0  0  0  0  0  0  0  0  0  0  0
   -1.2817    1.0787    0.5750 Si  0  0  0  0  0  3  0  0  0  0  0  0
   -3.9075   -1.3712   -3.3777 F   0  0  0  0  0  0  0  0  0  0  0  0
   -4.0733   -1.4211   -1.2017 F   0  0  0  0  0  0  0  0  0  0  0  0
   -5.0084    0.1982   -2.3297 F   0  0  0  0  0  0  0  0  0  0  0  0
   -2.5805    1.0677   -0.7719 O   0  0  0  0  0  0  0  0  0  0  0  0
   -2.3921    1.3457   -3.2770 O   0  0  0  0  0  1  0  0  0  0  0  0
   -1.2593   -0.6292   -2.1417 O   0  0  0  0  0  1  0  0  0  0  0  0
   -0.6757    2.8733    0.4512 C   0  0  0  0  0  0  0  0  0  0  0  0
    0.2118    3.3852    1.4277 C   0  0  0  0  0  0  0  0  0  0  0  0
    0.7882    4.6576    1.2959 C   0  0  0  0  0  0  0  0  0  0  0  0
    0.4972    5.4451    0.1708 C   0  0  0  0  0  0  0  0  0  0  0  0
   -0.3730    4.9519   -0.8140 C   0  0  0  0  0  0  0  0  0  0  0  0
   -0.9542    3.6812   -0.6738 C   0  0  0  0  0  0  0  0  0  0  0  0
   -2.4401    0.8962    2.0552 C   0  0  0  0  0  0  0  0  0  0  0  0
   -3.3651   -0.1729    2.0974 C   0  0  0  0  0  0  0  0  0  0  0  0
   -4.2072   -0.3530    3.2036 C   0  0  0  0  0  0  0  0  0  0  0  0
   -4.1335    0.5256    4.2969 C   0  0  0  0  0  0  0  0  0  0  0  0
   -3.2244    1.5945    4.2710 C   0  0  0  0  0  0  0  0  0  0  0  0
   -2.3915    1.7809    3.1557 C   0  0  0  0  0  0  0  0  0  0  0  0
   -3.9628   -0.6264   -2.2680 C   0  0  0  0  0  0  0  0  0  0  0  0
    0.4833    2.7726    2.3024 H   0  0  0  0  0  0  0  0  0  0  0  0
    1.4792    5.0289    2.0682 H   0  0  0  0  0  0  0  0  0  0  0  0
    0.9532    6.4410    0.0597 H   0  0  0  0  0  0  0  0  0  0  0  0
   -0.6027    5.5610   -1.7022 H   0  0  0  0  0  0  0  0  0  0  0  0
   -1.6262    3.3068   -1.4614 H   0  0  0  0  0  0  0  0  0  0  0  0
   -3.4252   -0.8797    1.2574 H   0  0  0  0  0  0  0  0  0  0  0  0
   -4.9183   -1.1934    3.2157 H   0  0  0  0  0  0  0  0  0  0  0  0
   -4.7896    0.3792    5.1690 H   0  0  0  0  0  0  0  0  0  0  0  0
   -3.1699    2.2945    5.1193 H   0  0  0  0  0  0  0  0  0  0  0  0
   -1.7052    2.6418    3.1384 H   0  0  0  0  0  0  0  0  0  0  0  0
  1  8  1  0  0  0  0
  1  6  1  0  0  0  0
  2 15  1  0  0  0  0
  3 21  1  0  0  0  0
  5 21  1  0  0  0  0
  6  2  1  0  0  0  0
  7  1  1  0  0  0  0
  9  2  1  0  0  0  0
  9 10  1  0  0  0  0
 10 22  1  0  0  0  0
 11 10  2  0  0  0  0
 11 23  1  0  0  0  0
 12 11  1  0  0  0  0
 13 14  1  0  0  0  0
 13 12  2  0  0  0  0
 14  9  2  0  0  0  0
 15 16  2  0  0  0  0
 15 20  1  0  0  0  0
 16 17  1  0  0  0  0
 17 28  1  0  0  0  0
 17 18  2  0  0  0  0
 18 29  1  0  0  0  0
 19 18  1  0  0  0  0
 19 30  1  0  0  0  0
 20 19  2  0  0  0  0
 21  1  1  0  0  0  0
 21  4  1  0  0  0  0
 24 12  1  0  0  0  0
 25 13  1  0  0  0  0
 26 14  1  0  0  0  0
 27 16  1  0  0  0  0
 31 20  1  0  0  0  0
M  END
