1,2
q = -1.0

 18 17  0  0  0  0  0  0  0  0999 V2000
   -2.2065   -0.1464   -1.5727 Se  0  0  0  0  0  1  0  0  0  0  0  0
   -1.7427   -0.3928    1.6116 Se  0  0  0  0  0  1  0  0  0  0  0  0
   -4.1504   -1.0373    0.2782 N   0  0  0  0  0  0  0  0  0  0  0  0
   -2.8870   -0.5880    0.1130 C   0  0  0  0  0  3  0  0  0  0  0  0
   -4.6819   -1.4167    1.5935 C   0  0  0  0  0  0  0  0  0  0  0  0
   -3.8424   -1.8198    2.1958 H   0  0  0  0  0  0  0  0  0  0  0  0
   -5.4008   -2.2470    1.4324 H   0  0  0  0  0  0  0  0  0  0  0  0
   -5.3477   -0.2509    2.3230 C   0  0  0  0  0  0  0  0  0  0  0  0
   -6.1833    0.1766    1.7320 H   0  0  0  0  0  0  0  0  0  0  0  0
   -4.6071    0.5496    2.5188 H   0  0  0  0  0  0  0  0  0  0  0  0
   -5.7559   -0.5894    3.2964 H   0  0  0  0  0  0  0  0  0  0  0  0
   -5.0746   -1.1834   -0.8547 C   0  0  0  0  0  0  0  0  0  0  0  0
   -6.0969   -0.9724   -0.4765 H   0  0  0  0  0  0  0  0  0  0  0  0
   -4.8201   -0.3999   -1.5971 H   0  0  0  0  0  0  0  0  0  0  0  0
   -5.0008   -2.5657   -1.5005 C   0  0  0  0  0  0  0  0  0  0  0  0
   -5.7299   -2.6398   -2.3321 H   0  0  0  0  0  0  0  0  0  0  0  0
   -5.2293   -3.3708   -0.7726 H   0  0  0  0  0  0  0  0  0  0  0  0
   -3.9865   -2.7373   -1.9118 H   0  0  0  0  0  0  0  0  0  0  0  0
  1  4  1  0  0  0  0
  3  5  1  0  0  0  0
  4  3  1  0  0  0  0
  4  2  1  0  0  0  0
  5  6  1  0  0  0  0
  5  8  1  0  0  0  0
  7  5  1  0  0  0  0
  8 10  1  0  0  0  0
  8 11  1  0  0  0  0
  9  8  1  0  0  0  0
 12 13  1  0  0  0  0
 12  3  1  0  0  0  0
 14 12  1  0  0  0  0
 15 12  1  0  0  0  0
 15 17  1  0  0  0  0
 16 15  1  0  0  0  0
 18 15  1  0  0  0  0
M  END
