1,2
q = -2.0, confidence = 0.534

 12 12  0  0  0  0  0  0  0  0999 V2000
   -1.4259    1.6811    0.0001 Se  0  0  0  0  0  1  0  0  0  0  0  0
   -1.4259   -1.6811    0.0007 Se  0  0  0  0  0  1  0  0  0  0  0  0
   -3.0620    0.7060   -0.0001 C   0  0  0  0  0  0  0  0  0  0  0  0
   -3.0620   -0.7060    0.0002 C   0  0  0  0  0  0  0  0  0  0  0  0
   -5.4994   -0.7049   -0.0002 C   0  0  0  0  0  0  0  0  0  0  0  0
   -6.4503   -1.2587   -0.0003 H   0  0  0  0  0  0  0  0  0  0  0  0
   -4.2887    1.4053   -0.0004 C   0  0  0  0  0  0  0  0  0  0  0  0
   -4.2837    2.5068   -0.0007 H   0  0  0  0  0  0  0  0  0  0  0  0
   -5.4994    0.7049   -0.0005 C   0  0  0  0  0  0  0  0  0  0  0  0
   -6.4503    1.2587   -0.0008 H   0  0  0  0  0  0  0  0  0  0  0  0
   -4.2887   -1.4053    0.0001 C   0  0  0  0  0  0  0  0  0  0  0  0
   -4.2837   -2.5068    0.0003 H   0  0  0  0  0  0  0  0  0  0  0  0
  3  1  1  0  0  0  0
  3  4  1  0  0  0  0
  4  2  1  0  0  0  0
  5 11  1  0  0  0  0
  6  5  1  0  0  0  0
  7  3  2  0  0  0  0
  8  7  1  0  0  0  0
  9  7  1  0  0  0  0
  9  5  2  0  0  0  0
 10  9  1  0  0  0  0
 11  4  2  0  0  0  0
 11 12  1  0  0  0  0
M  END
