1,4
q = -1.0

  4  3  0  0  0  0  0  0  0  0999 V2000
   -2.7410    0.5447   -0.0289 Se  0  0  0  0  0  0  0  0  0  0  0  0
   -3.0039   -1.7929    0.0487 Se  0  0  0  0  0  0  0  0  0  0  0  0
   -1.4183   -2.5270    0.0996 N   0  0  0  0  0  0  0  0  0  0  0  0
    0.1282   -1.6197    0.0820 Se  0  0  0  0  0  0  0  0  0  0  0  0
  1  2  1  0  0  0  0
  2  3  1  0  0  0  0
  4  3  1  0  0  0  0
M  END
