1,2
q = -1.0

 19 18  0  0  0  0  0  0  0  0999 V2000
    0.6345   -0.0002   -1.7674 Se  0  0  0  0  0  1  0  0  0  0  0  0
    0.6339    0.0002    1.7679 Se  0  0  0  0  0  1  0  0  0  0  0  0
    1.9376   -0.0000    0.0005 P   0  0  0  0  0  4  0  0  0  0  0  0
    3.0326   -1.2042    0.0010 O   0  0  0  0  0  0  0  0  0  0  0  0
    3.0327    1.2041    0.0004 O   0  0  0  0  0  0  0  0  0  0  0  0
    3.7814    3.4802   -0.0013 C   0  0  0  0  0  0  0  0  0  0  0  0
    4.4063    3.3052    0.8964 H   0  0  0  0  0  0  0  0  0  0  0  0
    3.4578    4.5399   -0.0011 H   0  0  0  0  0  0  0  0  0  0  0  0
    4.4039    3.3049   -0.9006 H   0  0  0  0  0  0  0  0  0  0  0  0
    2.5673    2.5764    0.0005 C   0  0  0  0  0  0  0  0  0  0  0  0
    1.9336    2.7399    0.8998 H   0  0  0  0  0  0  0  0  0  0  0  0
    1.9315    2.7393   -0.8975 H   0  0  0  0  0  0  0  0  0  0  0  0
    3.7811   -3.4804   -0.0005 C   0  0  0  0  0  0  0  0  0  0  0  0
    4.4048   -3.3048   -0.8990 H   0  0  0  0  0  0  0  0  0  0  0  0
    3.4574   -4.5401   -0.0012 H   0  0  0  0  0  0  0  0  0  0  0  0
    4.4049   -3.3059    0.8981 H   0  0  0  0  0  0  0  0  0  0  0  0
    2.5671   -2.5765    0.0001 C   0  0  0  0  0  0  0  0  0  0  0  0
    1.9324   -2.7402    0.8987 H   0  0  0  0  0  0  0  0  0  0  0  0
    1.9323   -2.7391   -0.8986 H   0  0  0  0  0  0  0  0  0  0  0  0
  1  3  1  0  0  0  0
  3  4  1  0  0  0  0
  3  2  1  0  0  0  0
  5  3  1  0  0  0  0
  5 10  1  0  0  0  0
  6  8  1  0  0  0  0
  6 10  1  0  0  0  0
  6  7  1  0  0  0  0
  9  6  1  0  0  0  0
 10 11  1  0  0  0  0
 12 10  1  0  0  0  0
 13 17  1  0  0  0  0
 13 16  1  0  0  0  0
 14 13  1  0  0  0  0
 15 13  1  0  0  0  0
 17  4  1  0  0  0  0
 17 18  1  0  0  0  0
 19 17  1  0  0  0  0
M  END
