1,2
q = -1.0

 19 19  0  0  0  0  0  0  0  0999 V2000
    1.2060   -1.0814   -1.7233 Se  0  0  0  0  0  1  0  0  0  0  0  0
    1.2396   -1.1467    1.6566 Se  0  0  0  0  0  1  0  0  0  0  0  0
    2.6058   -1.0140   -0.0472 P   0  0  0  0  0  4  0  0  0  0  0  0
    3.6118    0.4989   -0.0328 C   0  0  0  0  0  0  0  0  0  0  0  0
    5.0074    0.4555    0.1492 C   0  0  0  0  0  0  0  0  0  0  0  0
    5.5135   -0.5130    0.2627 H   0  0  0  0  0  0  0  0  0  0  0  0
    5.7335    1.6562    0.1792 C   0  0  0  0  0  0  0  0  0  0  0  0
    6.8248    1.6271    0.3194 H   0  0  0  0  0  0  0  0  0  0  0  0
    5.0753    2.8869    0.0315 C   0  0  0  0  0  0  0  0  0  0  0  0
    5.6510    3.8247    0.0569 H   0  0  0  0  0  0  0  0  0  0  0  0
    3.6817    2.9229   -0.1511 C   0  0  0  0  0  0  0  0  0  0  0  0
    3.1620    3.8854   -0.2708 H   0  0  0  0  0  0  0  0  0  0  0  0
    2.9473    1.7324   -0.1843 C   0  0  0  0  0  0  0  0  0  0  0  0
    1.8529    1.7415   -0.3349 H   0  0  0  0  0  0  0  0  0  0  0  0
    3.8051   -2.1532   -0.0727 O   0  0  0  0  0  0  0  0  0  0  0  0
    3.4289   -3.5345   -0.0649 C   0  0  0  0  0  0  0  0  0  0  0  0
    2.8186   -3.7849   -0.9586 H   0  0  0  0  0  0  0  0  0  0  0  0
    4.3678   -4.1185   -0.0790 H   0  0  0  0  0  0  0  0  0  0  0  0
    2.8459   -3.7838    0.8472 H   0  0  0  0  0  0  0  0  0  0  0  0
  1  3  1  0  0  0  0
  3  4  1  0  0  0  0
  3  2  1  0  0  0  0
  4  5  1  0  0  0  0
  5  7  2  0  0  0  0
  5  6  1  0  0  0  0
  7  8  1  0  0  0  0
  9 10  1  0  0  0  0
  9  7  1  0  0  0  0
 11  9  2  0  0  0  0
 12 11  1  0  0  0  0
 13 11  1  0  0  0  0
 13  4  2  0  0  0  0
 14 13  1  0  0  0  0
 15 16  1  0  0  0  0
 15  3  1  0  0  0  0
 16 19  1  0  0  0  0
 17 16  1  0  0  0  0
 18 16  1  0  0  0  0
M  END
