1,2
q = 0.0, confidence = 1.0

 33 34  0  0  1  0  0  0  0  0999 V2000
   -2.2412    0.2008   -1.5397 Se  0  0  0  0  0  1  0  0  0  0  0  0
    0.9416    0.3010    1.8081 Se  0  0  0  0  0  1  0  0  0  0  0  0
   -1.6024    2.6306   -0.1024 N   0  0  0  0  0  0  0  0  0  0  0  0
    2.5145    1.9230   -0.0037 N   0  0  0  0  0  0  0  0  0  0  0  0
   -2.6992    1.1985    1.1393 N   0  0  0  0  0  0  0  0  0  0  0  0
    3.5144    0.0435    0.4924 N   0  0  0  0  0  0  0  0  0  0  0  0
   -2.1696    1.3778   -0.1128 C   0  0  1  0  0  3  0  0  0  0  0  0
    1.4523    2.9088   -0.1430 C   0  0  0  0  0  0  0  0  0  0  0  0
    1.9140    3.9157   -0.2009 H   0  0  0  0  0  0  0  0  0  0  0  0
    0.8676    2.8430    0.7978 H   0  0  0  0  0  0  0  0  0  0  0  0
   -1.7694    3.2144    1.1449 C   0  0  0  0  0  0  0  0  0  0  0  0
   -1.3916    4.2141    1.3762 H   0  0  0  0  0  0  0  0  0  0  0  0
    0.5525    2.6079   -1.3499 C   0  0  0  0  0  0  0  0  0  0  0  0
    0.4712    1.5080   -1.4820 H   0  0  0  0  0  0  0  0  0  0  0  0
    1.0110    2.9903   -2.2855 H   0  0  0  0  0  0  0  0  0  0  0  0
    2.3790    0.7713    0.7327 C   0  0  2  0  0  3  0  0  0  0  0  0
   -0.8560    3.1951   -1.2252 C   0  0  0  0  0  0  0  0  0  0  0  0
   -0.8417    4.2956   -1.0875 H   0  0  0  0  0  0  0  0  0  0  0  0
   -1.4277    2.9646   -2.1465 H   0  0  0  0  0  0  0  0  0  0  0  0
   -2.4544    2.3145    1.9210 C   0  0  0  0  0  0  0  0  0  0  0  0
   -2.7824    2.3765    2.9622 H   0  0  0  0  0  0  0  0  0  0  0  0
    3.6999    1.8931   -0.7193 C   0  0  0  0  0  0  0  0  0  0  0  0
    4.0004    2.7084   -1.3829 H   0  0  0  0  0  0  0  0  0  0  0  0
   -3.4129   -0.0016    1.5554 C   0  0  0  0  0  0  0  0  0  0  0  0
   -4.1842   -0.2446    0.7993 H   0  0  0  0  0  0  0  0  0  0  0  0
   -3.8859    0.1930    2.5347 H   0  0  0  0  0  0  0  0  0  0  0  0
   -2.7263   -0.8729    1.6263 H   0  0  0  0  0  0  0  0  0  0  0  0
    4.3241    0.7131   -0.4083 C   0  0  0  0  0  0  0  0  0  0  0  0
    5.2706    0.2925   -0.7582 H   0  0  0  0  0  0  0  0  0  0  0  0
    3.7209   -1.3243    0.9357 C   0  0  0  0  0  0  0  0  0  0  0  0
    3.1184   -1.4884    1.8484 H   0  0  0  0  0  0  0  0  0  0  0  0
    4.7941   -1.4893    1.1457 H   0  0  0  0  0  0  0  0  0  0  0  0
    3.3678   -2.0106    0.1383 H   0  0  0  0  0  0  0  0  0  0  0  0
  3 11  1  0  0  0  0
  4 16  1  0  0  0  0
  5 24  1  0  0  0  0
  5 20  1  0  0  0  0
  6 16  1  0  0  0  0
  6 30  1  0  0  0  0
  7  1  1  6  0  0  0
  7  3  1  0  0  0  0
  7  5  1  0  0  0  0
  8  4  1  0  0  0  0
  8 10  1  0  0  0  0
  9  8  1  0  0  0  0
 11 12  1  0  0  0  0
 11 20  2  0  0  0  0
 13 17  1  0  0  0  0
 13  8  1  0  0  0  0
 14 13  1  0  0  0  0
 15 13  1  0  0  0  0
 16  2  1  6  0  0  0
 17 18  1  0  0  0  0
 17  3  1  0  0  0  0
 19 17  1  0  0  0  0
 20 21  1  0  0  0  0
 22 28  2  0  0  0  0
 22  4  1  0  0  0  0
 23 22  1  0  0  0  0
 24 27  1  0  0  0  0
 24 26  1  0  0  0  0
 25 24  1  0  0  0  0
 28  6  1  0  0  0  0
 29 28  1  0  0  0  0
 30 32  1  0  0  0  0
 30 31  1  0  0  0  0
 33 30  1  0  0  0  0
M  END
