1,2
q = -1.0, confidence = 0.008

 25 26  0  0  0  0  0  0  0  0999 V2000
   -1.5600   -0.5757   -1.6899 Se  0  0  0  0  0  1  0  0  0  0  0  0
   -1.5561   -0.6239    1.6848 Se  0  0  0  0  0  1  0  0  0  0  0  0
   -2.8487   -0.0409    0.0062 P   0  0  0  0  0  4  0  0  0  0  0  0
   -4.4876   -0.8534   -0.0276 C   0  0  0  0  0  0  0  0  0  0  0  0
   -3.1807    1.7603    0.0480 C   0  0  0  0  0  0  0  0  0  0  0  0
   -5.3878   -0.5565   -1.0727 C   0  0  0  0  0  0  0  0  0  0  0  0
   -4.8188   -1.8159    0.9420 C   0  0  0  0  0  0  0  0  0  0  0  0
   -2.1282    2.6389   -0.2792 C   0  0  0  0  0  0  0  0  0  0  0  0
   -4.4239    2.2718    0.4696 C   0  0  0  0  0  0  0  0  0  0  0  0
   -6.6233   -1.2150   -1.1306 C   0  0  0  0  0  0  0  0  0  0  0  0
   -5.1192    0.1880   -1.8385 H   0  0  0  0  0  0  0  0  0  0  0  0
   -6.0607   -2.4666    0.8807 C   0  0  0  0  0  0  0  0  0  0  0  0
   -4.0928   -2.0551    1.7360 H   0  0  0  0  0  0  0  0  0  0  0  0
   -2.3235    4.0218   -0.1941 C   0  0  0  0  0  0  0  0  0  0  0  0
   -1.1584    2.2189   -0.5998 H   0  0  0  0  0  0  0  0  0  0  0  0
   -4.6112    3.6611    0.5500 C   0  0  0  0  0  0  0  0  0  0  0  0
   -5.2444    1.5899    0.7374 H   0  0  0  0  0  0  0  0  0  0  0  0
   -6.9618   -2.1668   -0.1529 C   0  0  0  0  0  0  0  0  0  0  0  0
   -7.3272   -0.9850   -1.9447 H   0  0  0  0  0  0  0  0  0  0  0  0
   -6.3225   -3.2165    1.6424 H   0  0  0  0  0  0  0  0  0  0  0  0
   -3.5655    4.5360    0.2187 C   0  0  0  0  0  0  0  0  0  0  0  0
   -1.4986    4.7029   -0.4520 H   0  0  0  0  0  0  0  0  0  0  0  0
   -5.5835    4.0600    0.8770 H   0  0  0  0  0  0  0  0  0  0  0  0
   -7.9332   -2.6819   -0.2022 H   0  0  0  0  0  0  0  0  0  0  0  0
   -3.7172    5.6242    0.2835 H   0  0  0  0  0  0  0  0  0  0  0  0
  1  3  1  0  0  0  0
  3  5  1  0  0  0  0
  3  2  1  0  0  0  0
  4  3  1  0  0  0  0
  4  7  1  0  0  0  0
  5  9  1  0  0  0  0
  6  4  2  0  0  0  0
  7 13  1  0  0  0  0
  8 14  1  0  0  0  0
  8  5  2  0  0  0  0
  9 16  2  0  0  0  0
  9 17  1  0  0  0  0
 10  6  1  0  0  0  0
 10 18  2  0  0  0  0
 11  6  1  0  0  0  0
 12  7  2  0  0  0  0
 12 20  1  0  0  0  0
 14 21  2  0  0  0  0
 15  8  1  0  0  0  0
 16 23  1  0  0  0  0
 18 12  1  0  0  0  0
 19 10  1  0  0  0  0
 21 25  1  0  0  0  0
 21 16  1  0  0  0  0
 22 14  1  0  0  0  0
 24 18  1  0  0  0  0
M  END
