36,37
q = -1.0

 37 38  0  0  0  0  0  0  0  0999 V2000
   -3.5191    0.8268   -0.4250 C   0  0  0  0  0  0  0  0  0  0  0  0
   -3.9333    1.6950    0.1343 H   0  0  0  0  0  0  0  0  0  0  0  0
   -3.9800    0.8406   -1.4371 H   0  0  0  0  0  0  0  0  0  0  0  0
   -3.8075   -0.4956    0.3005 C   0  0  0  0  0  0  0  0  0  0  0  0
   -3.3501   -1.3261   -0.2758 H   0  0  0  0  0  0  0  0  0  0  0  0
   -3.3029   -0.4798    1.2884 H   0  0  0  0  0  0  0  0  0  0  0  0
   -5.2944   -0.7185    0.4646 C   0  0  0  0  0  0  0  0  0  0  0  0
   -5.9746   -0.2272    1.5969 C   0  0  0  0  0  0  0  0  0  0  0  0
   -5.4053    0.2849    2.3896 H   0  0  0  0  0  0  0  0  0  0  0  0
   -6.0365   -1.3823   -0.5328 C   0  0  0  0  0  0  0  0  0  0  0  0
   -5.5161   -1.7807   -1.4188 H   0  0  0  0  0  0  0  0  0  0  0  0
   -7.3611   -0.3946    1.7302 C   0  0  0  0  0  0  0  0  0  0  0  0
   -7.8751   -0.0114    2.6248 H   0  0  0  0  0  0  0  0  0  0  0  0
   -7.4231   -1.5516   -0.4027 C   0  0  0  0  0  0  0  0  0  0  0  0
   -7.9859   -2.0794   -1.1877 H   0  0  0  0  0  0  0  0  0  0  0  0
   -8.0897   -1.0564    0.7292 C   0  0  0  0  0  0  0  0  0  0  0  0
   -9.1767   -1.1921    0.8344 H   0  0  0  0  0  0  0  0  0  0  0  0
   -1.6725    2.8148   -1.5089 C   0  0  0  0  0  0  0  0  0  0  0  0
   -2.5363    2.8202   -2.2089 H   0  0  0  0  0  0  0  0  0  0  0  0
   -1.8926    3.5544   -0.7084 H   0  0  0  0  0  0  0  0  0  0  0  0
   -0.3686    3.1487   -2.2542 C   0  0  0  0  0  0  0  0  0  0  0  0
   -0.2309    2.4171   -3.0760 H   0  0  0  0  0  0  0  0  0  0  0  0
   -0.5172    4.1411   -2.7328 H   0  0  0  0  0  0  0  0  0  0  0  0
    0.8696    3.1659   -1.3819 C   0  0  0  0  0  0  0  0  0  0  0  0
    1.9104    2.2415   -1.5971 C   0  0  0  0  0  0  0  0  0  0  0  0
    1.8353    1.5227   -2.4275 H   0  0  0  0  0  0  0  0  0  0  0  0
    0.9877    4.0771   -0.3138 C   0  0  0  0  0  0  0  0  0  0  0  0
    0.1908    4.8176   -0.1343 H   0  0  0  0  0  0  0  0  0  0  0  0
    3.0259    2.2039   -0.7457 C   0  0  0  0  0  0  0  0  0  0  0  0
    3.8120    1.4528   -0.9139 H   0  0  0  0  0  0  0  0  0  0  0  0
    2.1008    4.0434    0.5375 C   0  0  0  0  0  0  0  0  0  0  0  0
    2.1703    4.7534    1.3755 H   0  0  0  0  0  0  0  0  0  0  0  0
    3.1180    3.0980    0.3307 C   0  0  0  0  0  0  0  0  0  0  0  0
    3.9797    3.0526    1.0128 H   0  0  0  0  0  0  0  0  0  0  0  0
   -1.7259    1.1687   -0.6652 P   0  0  0  0  0  4  0  0  0  0  0  0
   -0.7192   -0.4332   -1.8295 Se  0  0  0  0  0  1  0  0  0  0  0  0
   -0.6193    1.1016    1.2596 Se  0  0  0  0  0  1  0  0  0  0  0  0
  1  2  1  0  0  0  0
  1  4  1  0  0  0  0
  3  1  1  0  0  0  0
  4  7  1  0  0  0  0
  4  6  1  0  0  0  0
  5  4  1  0  0  0  0
  7  8  1  0  0  0  0
  8 12  2  0  0  0  0
  8  9  1  0  0  0  0
 10 14  1  0  0  0  0
 10  7  2  0  0  0  0
 11 10  1  0  0  0  0
 12 13  1  0  0  0  0
 14 16  2  0  0  0  0
 15 14  1  0  0  0  0
 16 17  1  0  0  0  0
 16 12  1  0  0  0  0
 18 20  1  0  0  0  0
 18 35  1  0  0  0  0
 19 18  1  0  0  0  0
 21 18  1  0  0  0  0
 21 24  1  0  0  0  0
 22 21  1  0  0  0  0
 23 21  1  0  0  0  0
 24 27  1  0  0  0  0
 25 24  2  0  0  0  0
 25 29  1  0  0  0  0
 26 25  1  0  0  0  0
 27 28  1  0  0  0  0
 27 31  2  0  0  0  0
 29 33  2  0  0  0  0
 30 29  1  0  0  0  0
 31 32  1  0  0  0  0
 33 31  1  0  0  0  0
 33 34  1  0  0  0  0
 35  1  1  0  0  0  0
 35 37  1  0  0  0  0
 36 35  1  0  0  0  0
M  END
