1,2
q = -2.0, confidence = 0.536

 49 51  0  0  1  0  0  0  0  0999 V2000
    0.7619    1.2923    1.7079 Se  0  0  0  0  0  1  0  0  0  0  0  0
    0.7168    1.1205   -1.8501 Se  0  0  0  0  0  1  0  0  0  0  0  0
   -0.1590   -1.7317    0.0595 Se  0  0  0  0  0  0  0  0  0  0  0  0
   -3.9766    0.6086    0.0256 Se  0  0  0  0  0  0  0  0  0  0  0  0
   -1.4404    0.8846    1.6069 P   0  0  1  0  0  0  0  0  0  0  0  0
   -1.4862    0.7532   -1.6559 P   0  0  2  0  0  0  0  0  0  0  0  0
   -2.9281   -1.4018    0.0963 P   0  0  1  0  0  0  0  0  0  0  0  0
   -2.1598    1.5002   -0.0428 C   0  0  1  0  0  0  0  0  0  0  0  0
   -1.6028   -1.0915   -1.2483 C   0  0  2  0  0  0  0  0  0  0  0  0
   -1.5537   -0.9868    1.3584 C   0  0  1  0  0  0  0  0  0  0  0  0
   -2.3758    3.0640   -0.1022 C   0  0  0  0  0  0  0  0  0  0  0  0
   -3.3343    3.4279   -1.2569 C   0  0  0  0  0  0  0  0  0  0  0  0
   -4.3675    3.0683   -1.0744 H   0  0  0  0  0  0  0  0  0  0  0  0
   -2.9891    3.0031   -2.2208 H   0  0  0  0  0  0  0  0  0  0  0  0
   -3.3793    4.5305   -1.3633 H   0  0  0  0  0  0  0  0  0  0  0  0
   -2.9828    3.5702    1.2239 C   0  0  0  0  0  0  0  0  0  0  0  0
   -2.2716    3.4689    2.0668 H   0  0  0  0  0  0  0  0  0  0  0  0
   -3.9080    3.0209    1.4937 H   0  0  0  0  0  0  0  0  0  0  0  0
   -3.2396    4.6441    1.1224 H   0  0  0  0  0  0  0  0  0  0  0  0
   -1.0462    3.8115   -0.3399 C   0  0  0  0  0  0  0  0  0  0  0  0
   -0.2703    3.5190    0.3931 H   0  0  0  0  0  0  0  0  0  0  0  0
   -1.2321    4.9016   -0.2496 H   0  0  0  0  0  0  0  0  0  0  0  0
   -0.6372    3.6124   -1.3483 H   0  0  0  0  0  0  0  0  0  0  0  0
   -1.7663   -1.9927   -2.5119 C   0  0  0  0  0  0  0  0  0  0  0  0
   -3.1587   -1.6971   -3.1124 C   0  0  0  0  0  0  0  0  0  0  0  0
   -3.9730   -1.9419   -2.3978 H   0  0  0  0  0  0  0  0  0  0  0  0
   -3.3102   -2.3134   -4.0215 H   0  0  0  0  0  0  0  0  0  0  0  0
   -3.2595   -0.6295   -3.3916 H   0  0  0  0  0  0  0  0  0  0  0  0
   -0.6776   -1.7017   -3.5600 C   0  0  0  0  0  0  0  0  0  0  0  0
   -0.7470   -0.6648   -3.9445 H   0  0  0  0  0  0  0  0  0  0  0  0
   -0.8023   -2.3921   -4.4194 H   0  0  0  0  0  0  0  0  0  0  0  0
    0.3413   -1.8376   -3.1432 H   0  0  0  0  0  0  0  0  0  0  0  0
   -1.6964   -3.4848   -2.1305 C   0  0  0  0  0  0  0  0  0  0  0  0
   -2.4174   -3.7416   -1.3266 H   0  0  0  0  0  0  0  0  0  0  0  0
   -0.6802   -3.7710   -1.7933 H   0  0  0  0  0  0  0  0  0  0  0  0
   -1.9415   -4.1044   -3.0164 H   0  0  0  0  0  0  0  0  0  0  0  0
   -1.6646   -1.7801    2.6980 C   0  0  0  0  0  0  0  0  0  0  0  0
   -3.0282   -1.4303    3.3338 C   0  0  0  0  0  0  0  0  0  0  0  0
   -3.8732   -1.7289    2.6777 H   0  0  0  0  0  0  0  0  0  0  0  0
   -3.1156   -0.3430    3.5289 H   0  0  0  0  0  0  0  0  0  0  0  0
   -3.1403   -1.9698    4.2959 H   0  0  0  0  0  0  0  0  0  0  0  0
   -0.5282   -1.4093    3.6676 C   0  0  0  0  0  0  0  0  0  0  0  0
    0.4716   -1.5778    3.2169 H   0  0  0  0  0  0  0  0  0  0  0  0
   -0.6098   -2.0300    4.5836 H   0  0  0  0  0  0  0  0  0  0  0  0
   -0.5820   -0.3454    3.9723 H   0  0  0  0  0  0  0  0  0  0  0  0
   -1.6150   -3.2989    2.4375 C   0  0  0  0  0  0  0  0  0  0  0  0
   -0.6163   -3.6192    2.0794 H   0  0  0  0  0  0  0  0  0  0  0  0
   -2.3722   -3.6160    1.6904 H   0  0  0  0  0  0  0  0  0  0  0  0
   -1.8214   -3.8424    3.3813 H   0  0  0  0  0  0  0  0  0  0  0  0
  3 10  1  0  0  0  0
  5  1  1  6  0  0  0
  6  2  1  1  0  0  0
  6  9  1  0  0  0  0
  6  8  1  0  0  0  0
  7  4  1  6  0  0  0
  7 10  1  0  0  0  0
  8 11  1  6  0  0  0
  8  4  1  0  0  0  0
  8  5  1  0  0  0  0
  9 24  1  6  0  0  0
  9  3  1  0  0  0  0
  9  7  1  0  0  0  0
 10  5  1  0  0  0  0
 10 37  1  1  0  0  0
 11 16  1  0  0  0  0
 12 13  1  0  0  0  0
 12 11  1  0  0  0  0
 14 12  1  0  0  0  0
 15 12  1  0  0  0  0
 16 18  1  0  0  0  0
 16 17  1  0  0  0  0
 19 16  1  0  0  0  0
 20 22  1  0  0  0  0
 20 11  1  0  0  0  0
 20 21  1  0  0  0  0
 23 20  1  0  0  0  0
 24 33  1  0  0  0  0
 25 24  1  0  0  0  0
 25 26  1  0  0  0  0
 27 25  1  0  0  0  0
 28 25  1  0  0  0  0
 29 32  1  0  0  0  0
 29 24  1  0  0  0  0
 30 29  1  0  0  0  0
 31 29  1  0  0  0  0
 33 35  1  0  0  0  0
 33 34  1  0  0  0  0
 36 33  1  0  0  0  0
 37 38  1  0  0  0  0
 37 42  1  0  0  0  0
 38 40  1  0  0  0  0
 38 41  1  0  0  0  0
 39 38  1  0  0  0  0
 42 45  1  0  0  0  0
 42 44  1  0  0  0  0
 43 42  1  0  0  0  0
 46 37  1  0  0  0  0
 46 49  1  0  0  0  0
 47 46  1  0  0  0  0
 48 46  1  0  0  0  0
M  END
