1,2
q = -1.0

 46 49  0  0  1  0  0  0  0  0999 V2000
    1.1215   -0.2809   -0.3252 P   0  0  0  0  0  0  0  0  0  0  0  0
   -0.8356   -1.5858    1.1366 C   0  0  0  0  0  3  0  0  0  0  0  0
   -1.8007   -2.5470    1.5128 C   0  0  0  0  0  0  0  0  0  0  0  0
   -2.7212   -2.6769    0.9188 H   0  0  0  0  0  0  0  0  0  0  0  0
   -1.6199   -3.3785    2.6307 C   0  0  0  0  0  0  0  0  0  0  0  0
   -2.3919   -4.1193    2.8917 H   0  0  0  0  0  0  0  0  0  0  0  0
   -0.4567   -3.2699    3.4090 C   0  0  0  0  0  0  0  0  0  0  0  0
   -0.3119   -3.9169    4.2874 H   0  0  0  0  0  0  0  0  0  0  0  0
    0.5254   -2.3346    3.0525 C   0  0  0  0  0  0  0  0  0  0  0  0
    1.4450   -2.2453    3.6530 H   0  0  0  0  0  0  0  0  0  0  0  0
    0.3496   -1.5052    1.9279 C   0  0  0  0  0  0  0  0  0  0  0  0
    1.4217   -0.5097    1.5278 C   0  0  2  0  0  0  0  0  0  0  0  0
    2.4392   -0.9275    1.6767 H   0  0  0  0  0  0  0  0  0  0  0  0
    1.3377    0.8413    2.2167 C   0  0  0  0  0  0  0  0  0  0  0  0
    0.0946    1.4414    2.5027 C   0  0  0  0  0  0  0  0  0  0  0  0
   -0.8310    0.8943    2.2686 H   0  0  0  0  0  0  0  0  0  0  0  0
    0.0354    2.7203    3.0749 C   0  0  0  0  0  0  0  0  0  0  0  0
   -0.9435    3.1755    3.2896 H   0  0  0  0  0  0  0  0  0  0  0  0
    1.2161    3.4181    3.3749 C   0  0  0  0  0  0  0  0  0  0  0  0
    1.1680    4.4224    3.8222 H   0  0  0  0  0  0  0  0  0  0  0  0
    2.4586    2.8239    3.1052 C   0  0  0  0  0  0  0  0  0  0  0  0
    3.3909    3.3590    3.3414 H   0  0  0  0  0  0  0  0  0  0  0  0
    2.5166    1.5459    2.5310 C   0  0  0  0  0  0  0  0  0  0  0  0
    3.4940    1.0868    2.3160 H   0  0  0  0  0  0  0  0  0  0  0  0
    1.9863   -1.6684   -1.1583 C   0  0  0  0  0  0  0  0  0  0  0  0
    2.0856   -2.9388   -0.5517 C   0  0  0  0  0  0  0  0  0  0  0  0
    1.6664   -3.1080    0.4512 H   0  0  0  0  0  0  0  0  0  0  0  0
    2.7064   -3.9951   -1.2343 C   0  0  0  0  0  0  0  0  0  0  0  0
    2.7845   -4.9808   -0.7509 H   0  0  0  0  0  0  0  0  0  0  0  0
    3.2199   -3.8009   -2.5266 C   0  0  0  0  0  0  0  0  0  0  0  0
    3.7034   -4.6336   -3.0596 H   0  0  0  0  0  0  0  0  0  0  0  0
    3.1112   -2.5418   -3.1380 C   0  0  0  0  0  0  0  0  0  0  0  0
    3.5074   -2.3831   -4.1524 H   0  0  0  0  0  0  0  0  0  0  0  0
    2.4982   -1.4784   -2.4599 C   0  0  0  0  0  0  0  0  0  0  0  0
    2.4187   -0.4923   -2.9419 H   0  0  0  0  0  0  0  0  0  0  0  0
    2.0309    1.2127   -0.8468 C   0  0  0  0  0  0  0  0  0  0  0  0
    3.4355    1.2715   -0.7137 C   0  0  0  0  0  0  0  0  0  0  0  0
    3.9949    0.3919   -0.3580 H   0  0  0  0  0  0  0  0  0  0  0  0
    4.1182    2.4495   -1.0412 C   0  0  0  0  0  0  0  0  0  0  0  0
    5.2126    2.4968   -0.9338 H   0  0  0  0  0  0  0  0  0  0  0  0
    3.4046    3.5679   -1.5073 C   0  0  0  0  0  0  0  0  0  0  0  0
    3.9433    4.4930   -1.7641 H   0  0  0  0  0  0  0  0  0  0  0  0
    2.0114    3.5023   -1.6558 C   0  0  0  0  0  0  0  0  0  0  0  0
    1.4539    4.3711   -2.0372 H   0  0  0  0  0  0  0  0  0  0  0  0
    1.3153    2.3272   -1.3266 C   0  0  0  0  0  0  0  0  0  0  0  0
    0.2248    2.2523   -1.4745 H   0  0  0  0  0  0  0  0  0  0  0  0
  1 12  1  0  0  0  0
  2  3  2  0  0  0  0
  2 11  1  0  0  0  0
  3  5  1  0  0  0  0
  4  3  1  0  0  0  0
  5  6  1  0  0  0  0
  5  7  2  0  0  0  0
  7  8  1  0  0  0  0
  9  7  1  0  0  0  0
  9 10  1  0  0  0  0
 11  9  2  0  0  0  0
 12 13  1  1  0  0  0
 12 11  1  0  0  0  0
 12 14  1  0  0  0  0
 14 15  2  0  0  0  0
 14 23  1  0  0  0  0
 15 17  1  0  0  0  0
 16 15  1  0  0  0  0
 17 18  1  0  0  0  0
 17 19  2  0  0  0  0
 19 20  1  0  0  0  0
 21 22  1  0  0  0  0
 21 19  1  0  0  0  0
 23 21  2  0  0  0  0
 24 23  1  0  0  0  0
 25 26  1  0  0  0  0
 25  1  1  0  0  0  0
 26 27  1  0  0  0  0
 28 29  1  0  0  0  0
 28 26  2  0  0  0  0
 30 28  1  0  0  0  0
 31 30  1  0  0  0  0
 32 30  2  0  0  0  0
 32 34  1  0  0  0  0
 33 32  1  0  0  0  0
 34 25  2  0  0  0  0
 35 34  1  0  0  0  0
 36 37  1  0  0  0  0
 36  1  1  0  0  0  0
 37 38  1  0  0  0  0
 39 40  1  0  0  0  0
 39 37  2  0  0  0  0
 41 39  1  0  0  0  0
 42 41  1  0  0  0  0
 43 41  2  0  0  0  0
 43 45  1  0  0  0  0
 44 43  1  0  0  0  0
 45 36  2  0  0  0  0
 46 45  1  0  0  0  0
M  END
