1,3
q = -1.0

 35 37  0  0  0  0  0  0  0  0999 V2000
    1.8152    0.2895    0.0569 P   0  0  0  0  0  0  0  0  0  0  0  0
    1.2010   -3.8711    0.4578 O   0  0  0  0  0  0  0  0  0  0  0  0
    1.4235   -2.6441    0.2587 C   0  0  0  0  0  3  0  0  0  0  0  0
    2.8675   -2.2551    0.0744 C   0  0  0  0  0  0  0  0  0  0  0  0
    3.2205   -0.8934   -0.0840 C   0  0  0  0  0  0  0  0  0  0  0  0
    4.5587   -0.5316   -0.3085 C   0  0  0  0  0  0  0  0  0  0  0  0
    4.8297    0.5259   -0.4463 H   0  0  0  0  0  0  0  0  0  0  0  0
    5.5502   -1.5232   -0.3663 C   0  0  0  0  0  0  0  0  0  0  0  0
    6.5982   -1.2385   -0.5459 H   0  0  0  0  0  0  0  0  0  0  0  0
    5.2074   -2.8768   -0.1959 C   0  0  0  0  0  0  0  0  0  0  0  0
    5.9890   -3.6505   -0.2416 H   0  0  0  0  0  0  0  0  0  0  0  0
    3.8737   -3.2409    0.0227 C   0  0  0  0  0  0  0  0  0  0  0  0
    3.5741   -4.2919    0.1475 H   0  0  0  0  0  0  0  0  0  0  0  0
    1.9844    1.4761   -1.3273 C   0  0  0  0  0  0  0  0  0  0  0  0
    2.4337    1.0392   -2.5909 C   0  0  0  0  0  0  0  0  0  0  0  0
    2.7791    0.0045   -2.7205 H   0  0  0  0  0  0  0  0  0  0  0  0
    2.4054    1.9179   -3.6847 C   0  0  0  0  0  0  0  0  0  0  0  0
    2.7575    1.5692   -4.6674 H   0  0  0  0  0  0  0  0  0  0  0  0
    1.9206    3.2265   -3.5339 C   0  0  0  0  0  0  0  0  0  0  0  0
    1.8959    3.9092   -4.3970 H   0  0  0  0  0  0  0  0  0  0  0  0
    1.4612    3.6611   -2.2801 C   0  0  0  0  0  0  0  0  0  0  0  0
    1.0689    4.6817   -2.1563 H   0  0  0  0  0  0  0  0  0  0  0  0
    1.4904    2.7904   -1.1825 C   0  0  0  0  0  0  0  0  0  0  0  0
    1.1270    3.1351   -0.2025 H   0  0  0  0  0  0  0  0  0  0  0  0
    2.2062    1.2970    1.5516 C   0  0  0  0  0  0  0  0  0  0  0  0
    3.2314    2.2683    1.5363 C   0  0  0  0  0  0  0  0  0  0  0  0
    3.7929    2.4622    0.6099 H   0  0  0  0  0  0  0  0  0  0  0  0
    3.5224    3.0058    2.6919 C   0  0  0  0  0  0  0  0  0  0  0  0
    4.3226    3.7613    2.6702 H   0  0  0  0  0  0  0  0  0  0  0  0
    2.7925    2.7845    3.8727 C   0  0  0  0  0  0  0  0  0  0  0  0
    3.0204    3.3680    4.7779 H   0  0  0  0  0  0  0  0  0  0  0  0
    1.7709    1.8238    3.8921 C   0  0  0  0  0  0  0  0  0  0  0  0
    1.1847    1.6531    4.8076 H   0  0  0  0  0  0  0  0  0  0  0  0
    1.4784    1.0823    2.7370 C   0  0  0  0  0  0  0  0  0  0  0  0
    0.6718    0.3335    2.7421 H   0  0  0  0  0  0  0  0  0  0  0  0
  1 25  1  0  0  0  0
  3  2  2  0  0  0  0
  4  3  1  0  0  0  0
  5  1  1  0  0  0  0
  5  4  2  0  0  0  0
  6  5  1  0  0  0  0
  7  6  1  0  0  0  0
  8  6  2  0  0  0  0
  8 10  1  0  0  0  0
  9  8  1  0  0  0  0
 10 12  2  0  0  0  0
 11 10  1  0  0  0  0
 12  4  1  0  0  0  0
 12 13  1  0  0  0  0
 14 23  1  0  0  0  0
 14  1  1  0  0  0  0
 15 14  2  0  0  0  0
 16 15  1  0  0  0  0
 17 19  2  0  0  0  0
 17 15  1  0  0  0  0
 18 17  1  0  0  0  0
 19 21  1  0  0  0  0
 20 19  1  0  0  0  0
 21 22  1  0  0  0  0
 21 23  2  0  0  0  0
 23 24  1  0  0  0  0
 25 34  1  0  0  0  0
 26 25  2  0  0  0  0
 26 28  1  0  0  0  0
 27 26  1  0  0  0  0
 28 30  2  0  0  0  0
 29 28  1  0  0  0  0
 30 32  1  0  0  0  0
 30 31  1  0  0  0  0
 32 33  1  0  0  0  0
 34 35  1  0  0  0  0
 34 32  2  0  0  0  0
M  END
