1,2
q = -1.0

 37 38  0  0  0  0  0  0  0  0999 V2000
   -0.2708    1.3331   -0.0549 P   0  0  0  0  0  0  0  0  0  0  0  0
   -1.5503   -1.3972   -0.0179 C   0  0  0  0  0  3  0  0  0  0  0  0
   -2.4919   -0.3041   -0.0040 C   0  0  0  0  0  0  0  0  0  0  0  0
   -2.0787    1.0706   -0.0256 C   0  0  0  0  0  0  0  0  0  0  0  0
   -3.0136    2.1041   -0.0595 C   0  0  0  0  0  0  0  0  0  0  0  0
   -2.6822    3.1519   -0.1079 H   0  0  0  0  0  0  0  0  0  0  0  0
   -4.4020    1.8185   -0.0423 C   0  0  0  0  0  0  0  0  0  0  0  0
   -5.1292    2.6439   -0.0637 H   0  0  0  0  0  0  0  0  0  0  0  0
   -4.8358    0.5023   -0.0020 C   0  0  0  0  0  0  0  0  0  0  0  0
   -5.9128    0.2724    0.0104 H   0  0  0  0  0  0  0  0  0  0  0  0
   -3.9126   -0.5838    0.0105 C   0  0  0  0  0  0  0  0  0  0  0  0
   -4.3572   -1.9365    0.0239 C   0  0  0  0  0  0  0  0  0  0  0  0
   -5.4388   -2.1412    0.0381 H   0  0  0  0  0  0  0  0  0  0  0  0
   -3.4366   -2.9696    0.0120 C   0  0  0  0  0  0  0  0  0  0  0  0
   -3.7782   -4.0163    0.0186 H   0  0  0  0  0  0  0  0  0  0  0  0
   -2.0415   -2.6978   -0.0117 C   0  0  0  0  0  0  0  0  0  0  0  0
   -1.3489   -3.5503   -0.0245 H   0  0  0  0  0  0  0  0  0  0  0  0
    0.2296    2.3020    1.4562 C   0  0  0  0  0  0  0  0  0  0  0  0
    1.3325    2.3727    1.3198 H   0  0  0  0  0  0  0  0  0  0  0  0
   -0.0492    1.4562    2.7046 C   0  0  0  0  0  0  0  0  0  0  0  0
    0.3035    1.9912    3.6098 H   0  0  0  0  0  0  0  0  0  0  0  0
    0.4761    0.4815    2.6591 H   0  0  0  0  0  0  0  0  0  0  0  0
   -1.1349    1.2613    2.8257 H   0  0  0  0  0  0  0  0  0  0  0  0
   -0.3751    3.7054    1.5528 C   0  0  0  0  0  0  0  0  0  0  0  0
    0.0886    4.2524    2.3997 H   0  0  0  0  0  0  0  0  0  0  0  0
   -1.4650    3.6607    1.7494 H   0  0  0  0  0  0  0  0  0  0  0  0
   -0.2100    4.3100    0.6387 H   0  0  0  0  0  0  0  0  0  0  0  0
    0.0346    2.3787   -1.5710 C   0  0  0  0  0  0  0  0  0  0  0  0
   -0.7231    3.1923   -1.5109 H   0  0  0  0  0  0  0  0  0  0  0  0
   -0.2555    1.5190   -2.8083 C   0  0  0  0  0  0  0  0  0  0  0  0
   -0.1768    2.1359   -3.7267 H   0  0  0  0  0  0  0  0  0  0  0  0
   -1.2715    1.0770   -2.7784 H   0  0  0  0  0  0  0  0  0  0  0  0
    0.4776    0.6905   -2.8887 H   0  0  0  0  0  0  0  0  0  0  0  0
    1.4391    2.9886   -1.5999 C   0  0  0  0  0  0  0  0  0  0  0  0
    1.6230    3.6720   -0.7476 H   0  0  0  0  0  0  0  0  0  0  0  0
    1.5667    3.5755   -2.5330 H   0  0  0  0  0  0  0  0  0  0  0  0
    2.2180    2.2000   -1.5742 H   0  0  0  0  0  0  0  0  0  0  0  0
  1  4  1  0  0  0  0
  1 18  1  0  0  0  0
  2 16  2  0  0  0  0
  2  3  1  0  0  0  0
  3 11  1  0  0  0  0
  4  3  2  0  0  0  0
  5  7  2  0  0  0  0
  5  4  1  0  0  0  0
  6  5  1  0  0  0  0
  7  9  1  0  0  0  0
  8  7  1  0  0  0  0
  9 10  1  0  0  0  0
  9 11  2  0  0  0  0
 11 12  1  0  0  0  0
 12 13  1  0  0  0  0
 14 15  1  0  0  0  0
 14 12  2  0  0  0  0
 16 14  1  0  0  0  0
 17 16  1  0  0  0  0
 18 24  1  0  0  0  0
 18 20  1  0  0  0  0
 19 18  1  0  0  0  0
 20 23  1  0  0  0  0
 20 21  1  0  0  0  0
 22 20  1  0  0  0  0
 24 26  1  0  0  0  0
 24 25  1  0  0  0  0
 27 24  1  0  0  0  0
 28 29  1  0  0  0  0
 28  1  1  0  0  0  0
 30 32  1  0  0  0  0
 30 28  1  0  0  0  0
 31 30  1  0  0  0  0
 33 30  1  0  0  0  0
 34 37  1  0  0  0  0
 34 28  1  0  0  0  0
 34 35  1  0  0  0  0
 36 34  1  0  0  0  0
M  END
