1,7
q = -1.0

 33 35  0  0  0  0  0  0  0  0999 V2000
    2.3471   -0.3871    0.0198 P   0  0  0  0  0  0  0  0  0  0  0  0
   -1.2283    2.9340    0.2530 F   0  0  0  0  0  0  0  0  0  0  0  0
    0.3321    5.1184    0.1476 F   0  0  0  0  0  0  0  0  0  0  0  0
    3.0380    4.9352   -0.0201 F   0  0  0  0  0  0  0  0  0  0  0  0
    4.2564    2.4847   -0.0893 F   0  0  0  0  0  0  0  0  0  0  0  0
    2.1019    1.4129    0.0156 C   0  0  0  0  0  0  0  0  0  0  0  0
    0.6781    1.4738    0.0886 C   0  0  0  0  0  3  0  0  0  0  0  0
    0.1012    2.7463    0.1443 C   0  0  0  0  0  0  0  0  0  0  0  0
    0.8984    3.9082    0.1007 C   0  0  0  0  0  0  0  0  0  0  0  0
    2.3014    3.8191    0.0162 C   0  0  0  0  0  0  0  0  0  0  0  0
    2.9073    2.5529   -0.0216 C   0  0  0  0  0  0  0  0  0  0  0  0
    3.2255   -0.9402   -1.4848 C   0  0  0  0  0  0  0  0  0  0  0  0
    2.8336   -2.1653   -2.0634 C   0  0  0  0  0  0  0  0  0  0  0  0
    3.5040   -2.6379   -3.2015 C   0  0  0  0  0  0  0  0  0  0  0  0
    4.5517   -1.8930   -3.7661 C   0  0  0  0  0  0  0  0  0  0  0  0
    4.9346   -0.6696   -3.1916 C   0  0  0  0  0  0  0  0  0  0  0  0
    4.2770   -0.1893   -2.0498 C   0  0  0  0  0  0  0  0  0  0  0  0
    3.3475   -0.9156    1.4543 C   0  0  0  0  0  0  0  0  0  0  0  0
    2.9847   -2.1160    2.0996 C   0  0  0  0  0  0  0  0  0  0  0  0
    3.7456   -2.5737    3.1859 C   0  0  0  0  0  0  0  0  0  0  0  0
    4.8546   -1.8379    3.6329 C   0  0  0  0  0  0  0  0  0  0  0  0
    5.2088   -0.6388    2.9922 C   0  0  0  0  0  0  0  0  0  0  0  0
    4.4609   -0.1740    1.9008 C   0  0  0  0  0  0  0  0  0  0  0  0
    1.9970   -2.7326   -1.6208 H   0  0  0  0  0  0  0  0  0  0  0  0
    3.1977   -3.5933   -3.6539 H   0  0  0  0  0  0  0  0  0  0  0  0
    5.0714   -2.2651   -4.6623 H   0  0  0  0  0  0  0  0  0  0  0  0
    5.7525   -0.0821   -3.6357 H   0  0  0  0  0  0  0  0  0  0  0  0
    4.5802    0.7677   -1.6017 H   0  0  0  0  0  0  0  0  0  0  0  0
    2.1021   -2.6769    1.7474 H   0  0  0  0  0  0  0  0  0  0  0  0
    3.4629   -3.5100    3.6906 H   0  0  0  0  0  0  0  0  0  0  0  0
    5.4456   -2.1979    4.4889 H   0  0  0  0  0  0  0  0  0  0  0  0
    6.0752   -0.0587    3.3446 H   0  0  0  0  0  0  0  0  0  0  0  0
    4.7411    0.7641    1.4004 H   0  0  0  0  0  0  0  0  0  0  0  0
  1 18  1  0  0  0  0
  4 10  1  0  0  0  0
  5 11  1  0  0  0  0
  6  1  1  0  0  0  0
  6  7  1  0  0  0  0
  7  8  2  0  0  0  0
  8  2  1  0  0  0  0
  9  8  1  0  0  0  0
  9  3  1  0  0  0  0
 10  9  2  0  0  0  0
 11  6  2  0  0  0  0
 11 10  1  0  0  0  0
 12  1  1  0  0  0  0
 13 24  1  0  0  0  0
 13 12  2  0  0  0  0
 14 13  1  0  0  0  0
 15 14  2  0  0  0  0
 15 16  1  0  0  0  0
 16 17  2  0  0  0  0
 17 28  1  0  0  0  0
 17 12  1  0  0  0  0
 18 23  2  0  0  0  0
 18 19  1  0  0  0  0
 19 20  2  0  0  0  0
 20 21  1  0  0  0  0
 20 30  1  0  0  0  0
 21 31  1  0  0  0  0
 22 32  1  0  0  0  0
 22 21  2  0  0  0  0
 23 22  1  0  0  0  0
 25 14  1  0  0  0  0
 26 15  1  0  0  0  0
 27 16  1  0  0  0  0
 29 19  1  0  0  0  0
 33 23  1  0  0  0  0
M  END
