1,11
q = -1.0, confidence = 0.0

 29 28  0  0  0  0  0  0  0  0999 V2000
    2.1806   -0.3222    0.2613 P   0  0  0  0  0  0  0  0  0  0  0  0
    2.4227   -1.8837    0.9253 N   0  0  0  0  0  0  0  0  0  0  0  0
    3.3274   -2.3509    0.8122 H   0  0  0  0  0  0  0  0  0  0  0  0
    3.0357    0.8014    1.4901 C   0  0  0  0  0  0  0  0  0  0  0  0
    4.0080    0.3008    1.7026 H   0  0  0  0  0  0  0  0  0  0  0  0
    3.1993   -0.2262   -1.3054 C   0  0  0  0  0  0  0  0  0  0  0  0
    3.0446    0.8177   -1.6581 H   0  0  0  0  0  0  0  0  0  0  0  0
    1.2254   -2.7201    0.8605 C   0  0  0  0  0  0  0  0  0  0  0  0
    1.3023   -3.5182    1.6371 H   0  0  0  0  0  0  0  0  0  0  0  0
    1.1276   -3.2447   -0.1228 H   0  0  0  0  0  0  0  0  0  0  0  0
   -0.0013   -1.8367    1.0952 C   0  0  0  0  0  3  0  0  0  0  0  0
   -0.0560   -1.5574    2.1729 H   0  0  0  0  0  0  0  0  0  0  0  0
   -0.9032   -2.4459    0.8794 H   0  0  0  0  0  0  0  0  0  0  0  0
    2.2010    0.8167    2.7761 C   0  0  0  0  0  0  0  0  0  0  0  0
    2.7318    1.3688    3.5794 H   0  0  0  0  0  0  0  0  0  0  0  0
    1.9985   -0.2128    3.1319 H   0  0  0  0  0  0  0  0  0  0  0  0
    1.2254    1.3161    2.5985 H   0  0  0  0  0  0  0  0  0  0  0  0
    3.2797    2.2101    0.9415 C   0  0  0  0  0  0  0  0  0  0  0  0
    3.6890    2.8643    1.7395 H   0  0  0  0  0  0  0  0  0  0  0  0
    2.3312    2.6478    0.5666 H   0  0  0  0  0  0  0  0  0  0  0  0
    4.0010    2.2171    0.1002 H   0  0  0  0  0  0  0  0  0  0  0  0
    2.5917   -1.1831   -2.3385 C   0  0  0  0  0  0  0  0  0  0  0  0
    3.1360   -1.1147   -3.3033 H   0  0  0  0  0  0  0  0  0  0  0  0
    1.5260   -0.9403   -2.5204 H   0  0  0  0  0  0  0  0  0  0  0  0
    2.6505   -2.2359   -1.9900 H   0  0  0  0  0  0  0  0  0  0  0  0
    4.6909   -0.4879   -1.0792 C   0  0  0  0  0  0  0  0  0  0  0  0
    5.2454   -0.4202   -2.0387 H   0  0  0  0  0  0  0  0  0  0  0  0
    4.8664   -1.5108   -0.6813 H   0  0  0  0  0  0  0  0  0  0  0  0
    5.1516    0.2345   -0.3769 H   0  0  0  0  0  0  0  0  0  0  0  0
  1  2  1  0  0  0  0
  1  4  1  0  0  0  0
  3  2  1  0  0  0  0
  4  5  1  0  0  0  0
  4 14  1  0  0  0  0
  6 26  1  0  0  0  0
  6  1  1  0  0  0  0
  7  6  1  0  0  0  0
  8  2  1  0  0  0  0
  8 11  1  0  0  0  0
  8  9  1  0  0  0  0
 10  8  1  0  0  0  0
 11 12  1  0  0  0  0
 13 11  1  0  0  0  0
 14 16  1  0  0  0  0
 14 15  1  0  0  0  0
 17 14  1  0  0  0  0
 18  4  1  0  0  0  0
 18 19  1  0  0  0  0
 20 18  1  0  0  0  0
 21 18  1  0  0  0  0
 22 25  1  0  0  0  0
 22  6  1  0  0  0  0
 23 22  1  0  0  0  0
 24 22  1  0  0  0  0
 26 28  1  0  0  0  0
 26 29  1  0  0  0  0
 27 26  1  0  0  0  0
M  END
