1,10
q = -1.0

 28 27  0  0  0  0  0  0  0  0999 V2000
   -2.1758   -0.1881    0.2982 P   0  0  0  0  0  0  0  0  0  0  0  0
   -2.5131   -1.4324    1.3739 O   0  0  0  0  0  0  0  0  0  0  0  0
   -3.2155   -0.6213   -1.1819 C   0  0  0  0  0  0  0  0  0  0  0  0
   -3.0906    0.2499   -1.8634 H   0  0  0  0  0  0  0  0  0  0  0  0
   -3.0263    1.2353    1.1450 C   0  0  0  0  0  0  0  0  0  0  0  0
   -3.9959    0.8098    1.4873 H   0  0  0  0  0  0  0  0  0  0  0  0
   -1.3276   -2.1957    1.6743 C   0  0  0  0  0  0  0  0  0  0  0  0
   -1.2431   -3.0375    0.9482 H   0  0  0  0  0  0  0  0  0  0  0  0
   -1.5078   -2.6423    2.6783 H   0  0  0  0  0  0  0  0  0  0  0  0
   -0.0703   -1.3327    1.6364 C   0  0  0  0  0  3  0  0  0  0  0  0
    0.8037   -2.0177    1.6670 H   0  0  0  0  0  0  0  0  0  0  0  0
   -0.0102   -0.7057    2.5563 H   0  0  0  0  0  0  0  0  0  0  0  0
   -2.6040   -1.8575   -1.8551 C   0  0  0  0  0  0  0  0  0  0  0  0
   -2.6489   -2.7375   -1.1805 H   0  0  0  0  0  0  0  0  0  0  0  0
   -1.5445   -1.6778   -2.1264 H   0  0  0  0  0  0  0  0  0  0  0  0
   -3.1627   -2.1107   -2.7797 H   0  0  0  0  0  0  0  0  0  0  0  0
   -4.6911   -0.8218   -0.8229 C   0  0  0  0  0  0  0  0  0  0  0  0
   -5.2637   -1.1435   -1.7177 H   0  0  0  0  0  0  0  0  0  0  0  0
   -5.1651    0.1036   -0.4400 H   0  0  0  0  0  0  0  0  0  0  0  0
   -4.7971   -1.6082   -0.0481 H   0  0  0  0  0  0  0  0  0  0  0  0
   -3.2671    2.4142    0.1964 C   0  0  0  0  0  0  0  0  0  0  0  0
   -3.6925    3.2714    0.7587 H   0  0  0  0  0  0  0  0  0  0  0  0
   -3.9759    2.1624   -0.6172 H   0  0  0  0  0  0  0  0  0  0  0  0
   -2.3156    2.7331   -0.2776 H   0  0  0  0  0  0  0  0  0  0  0  0
   -2.2003    1.6376    2.3728 C   0  0  0  0  0  0  0  0  0  0  0  0
   -1.2163    2.0484    2.0635 H   0  0  0  0  0  0  0  0  0  0  0  0
   -2.0174    0.7712    3.0384 H   0  0  0  0  0  0  0  0  0  0  0  0
   -2.7317    2.4166    2.9576 H   0  0  0  0  0  0  0  0  0  0  0  0
  1  5  1  0  0  0  0
  1  2  1  0  0  0  0
  2  7  1  0  0  0  0
  3 17  1  0  0  0  0
  3  1  1  0  0  0  0
  4  3  1  0  0  0  0
  5  6  1  0  0  0  0
  5 25  1  0  0  0  0
  7  9  1  0  0  0  0
  8  7  1  0  0  0  0
 10 11  1  0  0  0  0
 10  7  1  0  0  0  0
 10 12  1  0  0  0  0
 13  3  1  0  0  0  0
 13 14  1  0  0  0  0
 15 13  1  0  0  0  0
 16 13  1  0  0  0  0
 17 19  1  0  0  0  0
 17 20  1  0  0  0  0
 18 17  1  0  0  0  0
 21 22  1  0  0  0  0
 21  5  1  0  0  0  0
 23 21  1  0  0  0  0
 24 21  1  0  0  0  0
 25 28  1  0  0  0  0
 25 27  1  0  0  0  0
 26 25  1  0  0  0  0
M  END
