1,2
q = -1.0

 26 27  0  0  0  0  0  0  0  0999 V2000
    0.3528    0.0262   -0.3046 P   0  0  0  0  0  0  0  0  0  0  0  0
   -0.5749   -0.0804   -1.8048 C   0  0  0  0  0  3  0  0  0  0  0  0
    1.4939   -1.3792   -0.0688 C   0  0  0  0  0  0  0  0  0  0  0  0
    1.7874   -1.8025    1.2438 C   0  0  0  0  0  0  0  0  0  0  0  0
    2.6680   -2.8719    1.4557 C   0  0  0  0  0  0  0  0  0  0  0  0
    3.2527   -3.5297    0.3607 C   0  0  0  0  0  0  0  0  0  0  0  0
    2.9561   -3.1164   -0.9475 C   0  0  0  0  0  0  0  0  0  0  0  0
    2.0797   -2.0424   -1.1655 C   0  0  0  0  0  0  0  0  0  0  0  0
    1.3677    1.5348   -0.1214 C   0  0  0  0  0  0  0  0  0  0  0  0
    1.0671    2.4559    0.9003 C   0  0  0  0  0  0  0  0  0  0  0  0
    1.8478    3.6120    1.0537 C   0  0  0  0  0  0  0  0  0  0  0  0
    2.9273    3.8504    0.1897 C   0  0  0  0  0  0  0  0  0  0  0  0
    3.2322    2.9302   -0.8284 C   0  0  0  0  0  0  0  0  0  0  0  0
    2.4587    1.7724   -0.9837 C   0  0  0  0  0  0  0  0  0  0  0  0
    1.3135   -1.2968    2.0998 H   0  0  0  0  0  0  0  0  0  0  0  0
    2.8925   -3.2005    2.4816 H   0  0  0  0  0  0  0  0  0  0  0  0
    3.9388   -4.3737    0.5287 H   0  0  0  0  0  0  0  0  0  0  0  0
    3.4087   -3.6347   -1.8065 H   0  0  0  0  0  0  0  0  0  0  0  0
    1.8433   -1.7194   -2.1909 H   0  0  0  0  0  0  0  0  0  0  0  0
    0.2177    2.2633    1.5732 H   0  0  0  0  0  0  0  0  0  0  0  0
    1.6084    4.3309    1.8516 H   0  0  0  0  0  0  0  0  0  0  0  0
    3.5369    4.7590    0.3088 H   0  0  0  0  0  0  0  0  0  0  0  0
    4.0792    3.1173   -1.5058 H   0  0  0  0  0  0  0  0  0  0  0  0
    2.7009    1.0477   -1.7765 H   0  0  0  0  0  0  0  0  0  0  0  0
   -0.6304    0.8222   -2.4342 H   0  0  0  0  0  0  0  0  0  0  0  0
   -0.5301   -1.0241   -2.3724 H   0  0  0  0  0  0  0  0  0  0  0  0
  1  9  1  0  0  0  0
  1  3  1  0  0  0  0
  2  1  1  0  0  0  0
  3  4  1  0  0  0  0
  4  5  2  0  0  0  0
  4 15  1  0  0  0  0
  5 16  1  0  0  0  0
  6 17  1  0  0  0  0
  6  5  1  0  0  0  0
  7  6  2  0  0  0  0
  8  7  1  0  0  0  0
  8  3  2  0  0  0  0
  9 10  1  0  0  0  0
 10 11  2  0  0  0  0
 10 20  1  0  0  0  0
 11 21  1  0  0  0  0
 12 22  1  0  0  0  0
 12 11  1  0  0  0  0
 13 12  2  0  0  0  0
 14 13  1  0  0  0  0
 14  9  2  0  0  0  0
 18  7  1  0  0  0  0
 19  8  1  0  0  0  0
 23 13  1  0  0  0  0
 24 14  1  0  0  0  0
 25  2  1  0  0  0  0
 26  2  1  0  0  0  0
M  END
