1,2
q = -1.0

 45 47  0  0  1  0  0  0  0  0999 V2000
   -1.0430    0.3116   -0.1579 P   0  0  0  0  0  0  0  0  0  0  0  0
    0.5879   -1.8429   -0.3193 C   0  0  0  0  0  3  0  0  0  0  0  0
    1.2417   -2.9563    0.2714 C   0  0  0  0  0  0  0  0  0  0  0  0
    0.8278   -4.2470   -0.1183 C   0  0  0  0  0  0  0  0  0  0  0  0
    1.3333   -5.1198    0.3270 H   0  0  0  0  0  0  0  0  0  0  0  0
   -0.2118   -4.4518   -1.0343 C   0  0  0  0  0  0  0  0  0  0  0  0
   -0.5010   -5.4773   -1.3143 H   0  0  0  0  0  0  0  0  0  0  0  0
   -0.9229   -3.3648   -1.5709 C   0  0  0  0  0  0  0  0  0  0  0  0
   -0.5188   -2.0601   -1.1877 C   0  0  0  0  0  0  0  0  0  0  0  0
    2.3239   -2.8218    1.3157 C   0  0  0  0  0  0  0  0  0  0  0  0
    2.4208   -3.7558    1.9036 H   0  0  0  0  0  0  0  0  0  0  0  0
    2.1069   -1.9873    2.0118 H   0  0  0  0  0  0  0  0  0  0  0  0
    3.3021   -2.5930    0.8495 H   0  0  0  0  0  0  0  0  0  0  0  0
   -2.1075   -3.5929   -2.4788 C   0  0  0  0  0  0  0  0  0  0  0  0
   -2.2121   -4.6653   -2.7336 H   0  0  0  0  0  0  0  0  0  0  0  0
   -2.0245   -3.0274   -3.4298 H   0  0  0  0  0  0  0  0  0  0  0  0
   -3.0595   -3.2728   -2.0015 H   0  0  0  0  0  0  0  0  0  0  0  0
   -1.3207   -0.8405   -1.6083 C   0  0  2  0  0  0  0  0  0  0  0  0
   -2.4029   -1.0784   -1.6848 H   0  0  0  0  0  0  0  0  0  0  0  0
   -0.8335   -0.1974   -2.9156 C   0  0  0  0  0  0  0  0  0  0  0  0
    0.2286    0.1076   -2.8199 H   0  0  0  0  0  0  0  0  0  0  0  0
   -1.4342    0.6932   -3.1881 H   0  0  0  0  0  0  0  0  0  0  0  0
   -0.9006   -0.9316   -3.7435 H   0  0  0  0  0  0  0  0  0  0  0  0
   -2.1519   -0.2559    1.1969 C   0  0  0  0  0  0  0  0  0  0  0  0
   -2.7566    0.7037    2.0372 C   0  0  0  0  0  0  0  0  0  0  0  0
   -2.5973    1.7761    1.8494 H   0  0  0  0  0  0  0  0  0  0  0  0
   -3.5653    0.2983    3.1090 C   0  0  0  0  0  0  0  0  0  0  0  0
   -4.0299    1.0574    3.7566 H   0  0  0  0  0  0  0  0  0  0  0  0
   -3.7834   -1.0665    3.3522 C   0  0  0  0  0  0  0  0  0  0  0  0
   -4.4206   -1.3838    4.1916 H   0  0  0  0  0  0  0  0  0  0  0  0
   -3.1806   -2.0249    2.5219 C   0  0  0  0  0  0  0  0  0  0  0  0
   -3.3420   -3.0977    2.7078 H   0  0  0  0  0  0  0  0  0  0  0  0
   -2.3612   -1.6287    1.4551 C   0  0  0  0  0  0  0  0  0  0  0  0
   -1.8759   -2.3899    0.8276 H   0  0  0  0  0  0  0  0  0  0  0  0
   -1.7574    1.9336   -0.6289 C   0  0  0  0  0  0  0  0  0  0  0  0
   -0.9927    3.1118   -0.5286 C   0  0  0  0  0  0  0  0  0  0  0  0
    0.0357    3.0520   -0.1367 H   0  0  0  0  0  0  0  0  0  0  0  0
   -1.5552    4.3398   -0.9166 C   0  0  0  0  0  0  0  0  0  0  0  0
   -0.9579    5.2609   -0.8339 H   0  0  0  0  0  0  0  0  0  0  0  0
   -2.8678    4.3960   -1.4079 C   0  0  0  0  0  0  0  0  0  0  0  0
   -3.3021    5.3599   -1.7146 H   0  0  0  0  0  0  0  0  0  0  0  0
   -3.6322    3.2200   -1.5062 C   0  0  0  0  0  0  0  0  0  0  0  0
   -4.6637    3.2613   -1.8880 H   0  0  0  0  0  0  0  0  0  0  0  0
   -3.0825    1.9924   -1.1143 C   0  0  0  0  0  0  0  0  0  0  0  0
   -3.6887    1.0750   -1.1792 H   0  0  0  0  0  0  0  0  0  0  0  0
  1 24  1  0  0  0  0
  2  3  1  0  0  0  0
  3 10  1  0  0  0  0
  4  3  2  0  0  0  0
  4  5  1  0  0  0  0
  6  4  1  0  0  0  0
  7  6  1  0  0  0  0
  8  9  1  0  0  0  0
  8  6  2  0  0  0  0
  9  2  2  0  0  0  0
 10 11  1  0  0  0  0
 10 12  1  0  0  0  0
 13 10  1  0  0  0  0
 14 17  1  0  0  0  0
 14  8  1  0  0  0  0
 15 14  1  0  0  0  0
 16 14  1  0  0  0  0
 18 19  1  6  0  0  0
 18  9  1  0  0  0  0
 18  1  1  0  0  0  0
 20 21  1  0  0  0  0
 20 18  1  0  0  0  0
 22 20  1  0  0  0  0
 23 20  1  0  0  0  0
 24 33  2  0  0  0  0
 24 25  1  0  0  0  0
 25 27  2  0  0  0  0
 26 25  1  0  0  0  0
 27 29  1  0  0  0  0
 27 28  1  0  0  0  0
 29 30  1  0  0  0  0
 31 32  1  0  0  0  0
 31 29  2  0  0  0  0
 33 31  1  0  0  0  0
 34 33  1  0  0  0  0
 35 36  1  0  0  0  0
 35  1  1  0  0  0  0
 36 37  1  0  0  0  0
 38 39  1  0  0  0  0
 38 36  2  0  0  0  0
 40 38  1  0  0  0  0
 41 40  1  0  0  0  0
 42 40  2  0  0  0  0
 42 44  1  0  0  0  0
 43 42  1  0  0  0  0
 44 35  2  0  0  0  0
 45 44  1  0  0  0  0
M  END
