1,24
q = -1.0, confidence = 0.002

 39 41  0  0  0  0  0  0  0  0999 V2000
   -2.3887    0.1014   -0.0299 P   0  0  0  0  0  0  0  0  0  0  0  0
   -3.3530   -0.1212   -1.5904 C   0  0  0  0  0  0  0  0  0  0  0  0
   -3.2777   -1.3709   -2.2436 C   0  0  0  0  0  0  0  0  0  0  0  0
   -2.6850   -2.1866   -1.8064 H   0  0  0  0  0  0  0  0  0  0  0  0
   -3.9700   -1.5863   -3.4429 C   0  0  0  0  0  0  0  0  0  0  0  0
   -3.9046   -2.5677   -3.9369 H   0  0  0  0  0  0  0  0  0  0  0  0
   -4.7418   -0.5589   -4.0105 C   0  0  0  0  0  0  0  0  0  0  0  0
   -5.2841   -0.7296   -4.9529 H   0  0  0  0  0  0  0  0  0  0  0  0
   -4.8213    0.6840   -3.3649 C   0  0  0  0  0  0  0  0  0  0  0  0
   -5.4308    1.4930   -3.7958 H   0  0  0  0  0  0  0  0  0  0  0  0
   -4.1340    0.9033   -2.1605 C   0  0  0  0  0  0  0  0  0  0  0  0
   -4.2263    1.8742   -1.6532 H   0  0  0  0  0  0  0  0  0  0  0  0
   -3.1290    1.5744    0.7792 C   0  0  0  0  0  0  0  0  0  0  0  0
   -3.8520    1.4717    1.9825 C   0  0  0  0  0  0  0  0  0  0  0  0
   -4.0022    0.4861    2.4478 H   0  0  0  0  0  0  0  0  0  0  0  0
   -4.3651    2.6241    2.5985 C   0  0  0  0  0  0  0  0  0  0  0  0
   -4.9288    2.5323    3.5394 H   0  0  0  0  0  0  0  0  0  0  0  0
   -4.1564    3.8856    2.0218 C   0  0  0  0  0  0  0  0  0  0  0  0
   -4.5593    4.7879    2.5065 H   0  0  0  0  0  0  0  0  0  0  0  0
   -3.4141    3.9964    0.8348 C   0  0  0  0  0  0  0  0  0  0  0  0
   -3.2222    4.9857    0.3927 H   0  0  0  0  0  0  0  0  0  0  0  0
   -2.8892    2.8500    0.2241 C   0  0  0  0  0  0  0  0  0  0  0  0
   -2.2702    2.9478   -0.6800 H   0  0  0  0  0  0  0  0  0  0  0  0
   -0.3225   -1.1911    1.5388 C   0  0  0  0  0  3  0  0  0  0  0  0
    0.5020   -1.9219    1.6716 H   0  0  0  0  0  0  0  0  0  0  0  0
   -0.2279   -0.4388    2.3537 H   0  0  0  0  0  0  0  0  0  0  0  0
   -2.8022   -1.3504    1.0172 C   0  0  0  0  0  0  0  0  0  0  0  0
   -4.0881   -1.9325    1.1762 C   0  0  0  0  0  0  0  0  0  0  0  0
   -4.1844   -3.0958    1.9663 C   0  0  0  0  0  0  0  0  0  0  0  0
   -5.1701   -3.5695    2.0975 H   0  0  0  0  0  0  0  0  0  0  0  0
   -3.0522   -3.6607    2.5711 C   0  0  0  0  0  0  0  0  0  0  0  0
   -3.1550   -4.5782    3.1712 H   0  0  0  0  0  0  0  0  0  0  0  0
   -1.7957   -3.0622    2.4189 C   0  0  0  0  0  0  0  0  0  0  0  0
   -0.9082   -3.4972    2.9047 H   0  0  0  0  0  0  0  0  0  0  0  0
   -1.6521   -1.8891    1.6508 C   0  0  0  0  0  0  0  0  0  0  0  0
   -5.3308   -1.3846    0.5182 C   0  0  0  0  0  0  0  0  0  0  0  0
   -5.3394   -0.2789    0.4828 H   0  0  0  0  0  0  0  0  0  0  0  0
   -6.2376   -1.7223    1.0567 H   0  0  0  0  0  0  0  0  0  0  0  0
   -5.4138   -1.7328   -0.5326 H   0  0  0  0  0  0  0  0  0  0  0  0
  1 13  1  0  0  0  0
  1 27  1  0  0  0  0
  2  1  1  0  0  0  0
  3  4  1  0  0  0  0
  3  2  2  0  0  0  0
  5  3  1  0  0  0  0
  6  5  1  0  0  0  0
  7  5  2  0  0  0  0
  7  9  1  0  0  0  0
  8  7  1  0  0  0  0
  9 11  2  0  0  0  0
 10  9  1  0  0  0  0
 11 12  1  0  0  0  0
 11  2  1  0  0  0  0
 13 14  1  0  0  0  0
 14 15  1  0  0  0  0
 14 16  2  0  0  0  0
 16 17  1  0  0  0  0
 18 19  1  0  0  0  0
 18 16  1  0  0  0  0
 20 18  2  0  0  0  0
 21 20  1  0  0  0  0
 22 13  2  0  0  0  0
 22 20  1  0  0  0  0
 23 22  1  0  0  0  0
 24 35  1  0  0  0  0
 24 25  1  0  0  0  0
 24 26  1  0  0  0  0
 27 28  2  0  0  0  0
 27 35  1  0  0  0  0
 28 29  1  0  0  0  0
 29 30  1  0  0  0  0
 29 31  2  0  0  0  0
 31 32  1  0  0  0  0
 33 31  1  0  0  0  0
 33 34  1  0  0  0  0
 35 33  2  0  0  0  0
 36 38  1  0  0  0  0
 36 28  1  0  0  0  0
 37 36  1  0  0  0  0
 39 36  1  0  0  0  0
M  END
