1,3
q = -1.0

 36 38  0  0  0  0  0  0  0  0999 V2000
    2.0358   -0.3235   -0.8152 P   0  0  0  0  0  0  0  0  0  0  0  0
    3.1158   -0.5136    0.4431 O   0  0  0  0  0  0  0  0  0  0  0  0
    1.1928    0.1625    1.7721 C   0  0  0  0  0  3  0  0  0  0  0  0
    2.5682   -0.1695    1.6808 C   0  0  0  0  0  0  0  0  0  0  0  0
    3.4278   -0.1465    2.7853 C   0  0  0  0  0  0  0  0  0  0  0  0
    4.4836   -0.4224    2.6508 H   0  0  0  0  0  0  0  0  0  0  0  0
    2.9189    0.2430    4.0351 C   0  0  0  0  0  0  0  0  0  0  0  0
    3.5849    0.2648    4.9108 H   0  0  0  0  0  0  0  0  0  0  0  0
    1.5735    0.6176    4.1558 C   0  0  0  0  0  0  0  0  0  0  0  0
    1.1757    0.9468    5.1280 H   0  0  0  0  0  0  0  0  0  0  0  0
    0.7249    0.5815    3.0322 C   0  0  0  0  0  0  0  0  0  0  0  0
   -0.3209    0.9008    3.1483 H   0  0  0  0  0  0  0  0  0  0  0  0
    2.3148   -1.6538   -1.7241 O   0  0  0  0  0  0  0  0  0  0  0  0
    1.7793   -2.8743   -1.2884 C   0  0  0  0  0  0  0  0  0  0  0  0
    2.6115   -3.7603   -0.5906 C   0  0  0  0  0  0  0  0  0  0  0  0
    3.6461   -3.4623   -0.3702 H   0  0  0  0  0  0  0  0  0  0  0  0
    2.0948   -5.0023   -0.1910 C   0  0  0  0  0  0  0  0  0  0  0  0
    2.7394   -5.7080    0.3546 H   0  0  0  0  0  0  0  0  0  0  0  0
    0.7629   -5.3408   -0.4808 C   0  0  0  0  0  0  0  0  0  0  0  0
    0.3619   -6.3154   -0.1640 H   0  0  0  0  0  0  0  0  0  0  0  0
   -0.0569   -4.4333   -1.1719 C   0  0  0  0  0  0  0  0  0  0  0  0
   -1.1028   -4.6927   -1.3956 H   0  0  0  0  0  0  0  0  0  0  0  0
    0.4443   -3.1885   -1.5828 C   0  0  0  0  0  0  0  0  0  0  0  0
   -0.1805   -2.4482   -2.1062 H   0  0  0  0  0  0  0  0  0  0  0  0
    2.7934    0.7079   -1.8393 O   0  0  0  0  0  0  0  0  0  0  0  0
    2.7036    2.0815   -1.5772 C   0  0  0  0  0  0  0  0  0  0  0  0
    3.8103    2.7240   -1.0059 C   0  0  0  0  0  0  0  0  0  0  0  0
    4.6991    2.1311   -0.7479 H   0  0  0  0  0  0  0  0  0  0  0  0
    3.7490    4.1073   -0.7783 C   0  0  0  0  0  0  0  0  0  0  0  0
    4.6130    4.6229   -0.3327 H   0  0  0  0  0  0  0  0  0  0  0  0
    2.5906    4.8281   -1.1113 C   0  0  0  0  0  0  0  0  0  0  0  0
    2.5460    5.9123   -0.9290 H   0  0  0  0  0  0  0  0  0  0  0  0
    1.4887    4.1627   -1.6736 C   0  0  0  0  0  0  0  0  0  0  0  0
    0.5776    4.7240   -1.9314 H   0  0  0  0  0  0  0  0  0  0  0  0
    1.5340    2.7805   -1.9124 C   0  0  0  0  0  0  0  0  0  0  0  0
    0.6776    2.2299   -2.3327 H   0  0  0  0  0  0  0  0  0  0  0  0
  1  2  1  0  0  0  0
  2  4  1  0  0  0  0
  3 11  1  0  0  0  0
  4  3  2  0  0  0  0
  4  5  1  0  0  0  0
  5  7  2  0  0  0  0
  6  5  1  0  0  0  0
  7  9  1  0  0  0  0
  7  8  1  0  0  0  0
  9 10  1  0  0  0  0
 11 12  1  0  0  0  0
 11  9  2  0  0  0  0
 13 14  1  0  0  0  0
 13  1  1  0  0  0  0
 14 15  1  0  0  0  0
 15 16  1  0  0  0  0
 15 17  2  0  0  0  0
 17 18  1  0  0  0  0
 19 17  1  0  0  0  0
 19 20  1  0  0  0  0
 21 19  2  0  0  0  0
 22 21  1  0  0  0  0
 23 14  2  0  0  0  0
 23 21  1  0  0  0  0
 24 23  1  0  0  0  0
 25 26  1  0  0  0  0
 25  1  1  0  0  0  0
 26 27  1  0  0  0  0
 27 29  2  0  0  0  0
 27 28  1  0  0  0  0
 29 30  1  0  0  0  0
 31 32  1  0  0  0  0
 31 29  1  0  0  0  0
 33 31  2  0  0  0  0
 34 33  1  0  0  0  0
 35 33  1  0  0  0  0
 35 26  2  0  0  0  0
 36 35  1  0  0  0  0
M  END
