1,10
q = -1.0

 25 26  0  0  1  0  0  0  0  0999 V2000
   -1.6901   -0.0147    1.4790 P   0  0  2  0  0  0  0  0  0  0  0  0
   -1.6712    0.3076    3.1098 C   0  0  0  0  0  0  0  0  0  0  0  0
   -1.7452    0.4768    4.3842 C   0  0  0  0  0  3  0  0  0  0  0  0
   -2.7343   -1.3966    1.0163 C   0  0  0  0  0  0  0  0  0  0  0  0
   -3.1816   -1.5372   -0.3183 C   0  0  0  0  0  0  0  0  0  0  0  0
   -4.0364   -2.5931   -0.6453 C   0  0  0  0  0  0  0  0  0  0  0  0
   -4.4504   -3.4962    0.3513 C   0  0  0  0  0  0  0  0  0  0  0  0
   -4.0148   -3.3449    1.6802 C   0  0  0  0  0  0  0  0  0  0  0  0
   -3.1577   -2.2935    2.0255 C   0  0  0  0  0  0  0  0  0  0  0  0
    0.1638   -0.0218    0.7681 C   0  0  1  0  0  3  0  0  0  0  0  0
    1.0289    0.9525    1.3594 C   0  0  0  0  0  0  0  0  0  0  0  0
    2.4044    0.7507    1.5116 C   0  0  0  0  0  0  0  0  0  0  0  0
    2.9621   -0.4817    1.0690 C   0  0  0  0  0  0  0  0  0  0  0  0
    2.1494   -1.4577    0.4385 C   0  0  0  0  0  0  0  0  0  0  0  0
    0.7684   -1.2170    0.2628 C   0  0  2  0  0  3  0  0  0  0  0  0
    0.3468    2.5001    1.7750 Cl  0  0  0  0  0  0  0  0  0  0  0  0
    3.4155    1.9874    2.1393 Cl  0  0  0  0  0  0  0  0  0  0  0  0
    4.6393   -0.7495    1.2351 Cl  0  0  0  0  0  0  0  0  0  0  0  0
    2.8648   -2.8982   -0.1622 Cl  0  0  0  0  0  0  0  0  0  0  0  0
   -0.1445   -2.3640   -0.6279 Cl  0  0  0  0  0  0  0  0  0  0  0  0
   -2.8505   -0.8422   -1.1047 H   0  0  0  0  0  0  0  0  0  0  0  0
   -4.3704   -2.7101   -1.6868 H   0  0  0  0  0  0  0  0  0  0  0  0
   -5.1235   -4.3267    0.0900 H   0  0  0  0  0  0  0  0  0  0  0  0
   -4.3459   -4.0516    2.4552 H   0  0  0  0  0  0  0  0  0  0  0  0
   -2.8188   -2.1544    3.0634 H   0  0  0  0  0  0  0  0  0  0  0  0
  1  2  1  1  0  0  0
  2  3  3  0  0  0  0
  4  1  1  0  0  0  0
  4  9  1  0  0  0  0
  5  4  2  0  0  0  0
  6  5  1  0  0  0  0
  6  7  2  0  0  0  0
  7  8  1  0  0  0  0
  8  9  2  0  0  0  0
  8 24  1  0  0  0  0
  9 25  1  0  0  0  0
 10 11  1  0  0  0  0
 10  1  1  1  0  0  0
 11 12  2  0  0  0  0
 11 16  1  0  0  0  0
 12 17  1  0  0  0  0
 13 18  1  0  0  0  0
 13 12  1  0  0  0  0
 14 13  2  0  0  0  0
 15 20  1  6  0  0  0
 15 14  1  0  0  0  0
 15 10  1  0  0  0  0
 19 14  1  0  0  0  0
 21  5  1  0  0  0  0
 22  6  1  0  0  0  0
 23  7  1  0  0  0  0
M  END
