1,2
q = -1.0

 42 44  0  0  0  0  0  0  0  0999 V2000
    1.4954    0.8691    0.0178 P   0  0  0  0  0  0  0  0  0  0  0  0
   -0.5658    0.0582    1.9125 C   0  0  0  0  0  3  0  0  0  0  0  0
   -1.1463    1.0057    1.9231 H   0  0  0  0  0  0  0  0  0  0  0  0
   -1.1523   -0.7307    2.4229 H   0  0  0  0  0  0  0  0  0  0  0  0
    0.7733    0.2265    2.5703 C   0  0  0  0  0  0  0  0  0  0  0  0
    0.9762   -0.0436    3.9384 C   0  0  0  0  0  0  0  0  0  0  0  0
    0.1234   -0.3799    4.5485 H   0  0  0  0  0  0  0  0  0  0  0  0
    2.2464    0.0858    4.5181 C   0  0  0  0  0  0  0  0  0  0  0  0
    2.3852   -0.1443    5.5856 H   0  0  0  0  0  0  0  0  0  0  0  0
    3.3459    0.4773    3.7370 C   0  0  0  0  0  0  0  0  0  0  0  0
    4.3489    0.5471    4.1833 H   0  0  0  0  0  0  0  0  0  0  0  0
    3.1675    0.7519    2.3734 C   0  0  0  0  0  0  0  0  0  0  0  0
    4.0354    1.0087    1.7512 H   0  0  0  0  0  0  0  0  0  0  0  0
    1.8881    0.6392    1.8001 C   0  0  0  0  0  0  0  0  0  0  0  0
    2.9771    0.3693   -0.9511 C   0  0  0  0  0  0  0  0  0  0  0  0
    2.9159   -0.8594   -1.6416 C   0  0  0  0  0  0  0  0  0  0  0  0
    1.9677   -1.4138   -1.6729 H   0  0  0  0  0  0  0  0  0  0  0  0
    4.0249   -1.3454   -2.3442 C   0  0  0  0  0  0  0  0  0  0  0  0
    3.9502   -2.3038   -2.8787 H   0  0  0  0  0  0  0  0  0  0  0  0
    5.2109   -0.6015   -2.3634 C   0  0  0  0  0  0  0  0  0  0  0  0
    6.0954   -0.9726   -2.9034 H   0  0  0  0  0  0  0  0  0  0  0  0
    5.2656    0.6329   -1.7035 C   0  0  0  0  0  0  0  0  0  0  0  0
    6.1931    1.2259   -1.7390 H   0  0  0  0  0  0  0  0  0  0  0  0
    4.1643    1.1620   -0.9970 C   0  0  0  0  0  0  0  0  0  0  0  0
    4.3144    2.5486   -0.4153 C   0  0  0  0  0  0  0  0  0  0  0  0
    3.8778    3.3078   -1.0975 H   0  0  0  0  0  0  0  0  0  0  0  0
    5.3861    2.7935   -0.2832 H   0  0  0  0  0  0  0  0  0  0  0  0
    3.8036    2.6915    0.5527 H   0  0  0  0  0  0  0  0  0  0  0  0
    1.2501    2.6624   -0.2385 C   0  0  0  0  0  0  0  0  0  0  0  0
    1.1360    3.4886    0.8959 C   0  0  0  0  0  0  0  0  0  0  0  0
    1.1890    3.0455    1.9012 H   0  0  0  0  0  0  0  0  0  0  0  0
    0.9573    4.8701    0.7526 C   0  0  0  0  0  0  0  0  0  0  0  0
    0.8670    5.5076    1.6446 H   0  0  0  0  0  0  0  0  0  0  0  0
    0.8884    5.4247   -0.5329 C   0  0  0  0  0  0  0  0  0  0  0  0
    0.7462    6.5085   -0.6620 H   0  0  0  0  0  0  0  0  0  0  0  0
    0.9855    4.5955   -1.6597 C   0  0  0  0  0  0  0  0  0  0  0  0
    0.9087    5.0344   -2.6669 H   0  0  0  0  0  0  0  0  0  0  0  0
    1.1586    3.2020   -1.5504 C   0  0  0  0  0  0  0  0  0  0  0  0
    1.2297    2.3499   -2.7872 C   0  0  0  0  0  0  0  0  0  0  0  0
    2.2696    2.0230   -2.9993 H   0  0  0  0  0  0  0  0  0  0  0  0
    0.8705    2.9159   -3.6676 H   0  0  0  0  0  0  0  0  0  0  0  0
    0.6112    1.4307   -2.6989 H   0  0  0  0  0  0  0  0  0  0  0  0
  1 14  1  0  0  0  0
  2  3  1  0  0  0  0
  2  4  1  0  0  0  0
  2  5  1  0  0  0  0
  5  6  1  0  0  0  0
  6  8  2  0  0  0  0
  6  7  1  0  0  0  0
  8  9  1  0  0  0  0
 10 11  1  0  0  0  0
 10  8  1  0  0  0  0
 12 10  2  0  0  0  0
 13 12  1  0  0  0  0
 14 12  1  0  0  0  0
 14  5  2  0  0  0  0
 15  1  1  0  0  0  0
 16 15  2  0  0  0  0
 17 16  1  0  0  0  0
 18 16  1  0  0  0  0
 19 18  1  0  0  0  0
 20 18  2  0  0  0  0
 20 22  1  0  0  0  0
 21 20  1  0  0  0  0
 22 24  2  0  0  0  0
 23 22  1  0  0  0  0
 24 15  1  0  0  0  0
 24 25  1  0  0  0  0
 25 27  1  0  0  0  0
 25 28  1  0  0  0  0
 26 25  1  0  0  0  0
 29  1  1  0  0  0  0
 29 30  1  0  0  0  0
 30 31  1  0  0  0  0
 32 30  2  0  0  0  0
 32 33  1  0  0  0  0
 34 32  1  0  0  0  0
 35 34  1  0  0  0  0
 36 38  1  0  0  0  0
 36 34  2  0  0  0  0
 37 36  1  0  0  0  0
 38 29  2  0  0  0  0
 39 42  1  0  0  0  0
 39 38  1  0  0  0  0
 40 39  1  0  0  0  0
 41 39  1  0  0  0  0
M  END
