1,12
q = -1.0

 43 43  0  0  0  0  0  0  0  0999 V2000
    2.4840    0.6821   -0.0897 P   0  0  0  0  0  0  0  0  0  0  0  0
    3.7658   -0.6056    0.1324 C   0  0  0  0  0  0  0  0  0  0  0  0
    5.1582   -0.3947    0.2386 C   0  0  0  0  0  0  0  0  0  0  0  0
    5.5873    0.6077    0.1072 H   0  0  0  0  0  0  0  0  0  0  0  0
    6.0067   -1.4697    0.5298 C   0  0  0  0  0  0  0  0  0  0  0  0
    7.0909   -1.3055    0.6158 H   0  0  0  0  0  0  0  0  0  0  0  0
    5.4667   -2.7532    0.7235 C   0  0  0  0  0  0  0  0  0  0  0  0
    6.1300   -3.5972    0.9655 H   0  0  0  0  0  0  0  0  0  0  0  0
    4.0863   -2.9616    0.6128 C   0  0  0  0  0  0  0  0  0  0  0  0
    3.6735   -3.9707    0.7693 H   0  0  0  0  0  0  0  0  0  0  0  0
    3.2155   -1.8920    0.3118 C   0  0  0  0  0  0  0  0  0  0  0  0
    1.7239   -2.1258    0.1535 C   0  0  0  0  0  3  0  0  0  0  0  0
    1.3521   -2.6288    1.0771 H   0  0  0  0  0  0  0  0  0  0  0  0
    1.4371   -3.0188   -1.0634 C   0  0  0  0  0  0  0  0  0  0  0  0
    2.0069   -3.9723   -0.9982 H   0  0  0  0  0  0  0  0  0  0  0  0
    1.7381   -2.5305   -2.0114 H   0  0  0  0  0  0  0  0  0  0  0  0
    0.3676   -3.3007   -1.1474 H   0  0  0  0  0  0  0  0  0  0  0  0
    2.6986    1.8880    1.3820 C   0  0  0  0  0  0  0  0  0  0  0  0
    3.8784    2.8584    1.2179 C   0  0  0  0  0  0  0  0  0  0  0  0
    3.9817    3.4538    2.1493 H   0  0  0  0  0  0  0  0  0  0  0  0
    3.7277    3.5747    0.3875 H   0  0  0  0  0  0  0  0  0  0  0  0
    4.8393    2.3328    1.0626 H   0  0  0  0  0  0  0  0  0  0  0  0
    2.9141    0.9979    2.6218 C   0  0  0  0  0  0  0  0  0  0  0  0
    2.8759    1.6315    3.5323 H   0  0  0  0  0  0  0  0  0  0  0  0
    3.8931    0.4835    2.6029 H   0  0  0  0  0  0  0  0  0  0  0  0
    2.1218    0.2253    2.7085 H   0  0  0  0  0  0  0  0  0  0  0  0
    1.3938    2.6833    1.5741 C   0  0  0  0  0  0  0  0  0  0  0  0
    1.5318    3.4119    2.3997 H   0  0  0  0  0  0  0  0  0  0  0  0
    0.5660    2.0069    1.8663 H   0  0  0  0  0  0  0  0  0  0  0  0
    1.0955    3.2555    0.6747 H   0  0  0  0  0  0  0  0  0  0  0  0
    2.7725    1.4881   -1.7959 C   0  0  0  0  0  0  0  0  0  0  0  0
    1.8794    2.7301   -1.9437 C   0  0  0  0  0  0  0  0  0  0  0  0
    1.9472    3.1073   -2.9851 H   0  0  0  0  0  0  0  0  0  0  0  0
    2.1839    3.5572   -1.2736 H   0  0  0  0  0  0  0  0  0  0  0  0
    0.8129    2.4969   -1.7509 H   0  0  0  0  0  0  0  0  0  0  0  0
    2.3418    0.4141   -2.8143 C   0  0  0  0  0  0  0  0  0  0  0  0
    2.4816    0.8067   -3.8430 H   0  0  0  0  0  0  0  0  0  0  0  0
    1.2758    0.1329   -2.6878 H   0  0  0  0  0  0  0  0  0  0  0  0
    2.9536   -0.5052   -2.7183 H   0  0  0  0  0  0  0  0  0  0  0  0
    4.2414    1.8576   -2.0611 C   0  0  0  0  0  0  0  0  0  0  0  0
    4.3142    2.3060   -3.0742 H   0  0  0  0  0  0  0  0  0  0  0  0
    4.8954    0.9656   -2.0517 H   0  0  0  0  0  0  0  0  0  0  0  0
    4.6394    2.5990   -1.3448 H   0  0  0  0  0  0  0  0  0  0  0  0
  1  2  1  0  0  0  0
  1 18  1  0  0  0  0
  2  3  2  0  0  0  0
  2 11  1  0  0  0  0
  3  5  1  0  0  0  0
  4  3  1  0  0  0  0
  5  6  1  0  0  0  0
  5  7  2  0  0  0  0
  7  8  1  0  0  0  0
  9  7  1  0  0  0  0
  9 10  1  0  0  0  0
 11  9  2  0  0  0  0
 12 11  1  0  0  0  0
 12 13  1  0  0  0  0
 14 15  1  0  0  0  0
 14 12  1  0  0  0  0
 16 14  1  0  0  0  0
 17 14  1  0  0  0  0
 18 27  1  0  0  0  0
 18 23  1  0  0  0  0
 19 18  1  0  0  0  0
 19 20  1  0  0  0  0
 21 19  1  0  0  0  0
 22 19  1  0  0  0  0
 23 26  1  0  0  0  0
 23 24  1  0  0  0  0
 25 23  1  0  0  0  0
 27 29  1  0  0  0  0
 27 28  1  0  0  0  0
 30 27  1  0  0  0  0
 31  1  1  0  0  0  0
 32 31  1  0  0  0  0
 32 35  1  0  0  0  0
 32 34  1  0  0  0  0
 33 32  1  0  0  0  0
 36 39  1  0  0  0  0
 36 38  1  0  0  0  0
 36 31  1  0  0  0  0
 37 36  1  0  0  0  0
 40 42  1  0  0  0  0
 40 31  1  0  0  0  0
 40 43  1  0  0  0  0
 41 40  1  0  0  0  0
M  END
