2,37
q = -1.0

 69 69  0  0  0  0  0  0  0  0999 V2000
    2.3102   -0.1810    0.1053 P   0  0  0  0  0  0  0  0  0  0  0  0
    0.0000    1.6133    0.0000 C   0  0  0  0  0  3  0  0  0  0  0  0
    1.1681    2.3349    0.3520 C   0  0  0  0  0  0  0  0  0  0  0  0
    1.1643    3.7435    0.3450 C   0  0  0  0  0  0  0  0  0  0  0  0
    2.0772    4.2966    0.6202 H   0  0  0  0  0  0  0  0  0  0  0  0
    0.0000    4.4467    0.0001 C   0  0  0  0  0  0  0  0  0  0  0  0
    0.0001    5.5474    0.0002 H   0  0  0  0  0  0  0  0  0  0  0  0
    2.3963    1.5595    0.7772 C   0  0  0  0  0  0  0  0  0  0  0  0
    2.3944    1.4413    1.8837 H   0  0  0  0  0  0  0  0  0  0  0  0
    3.3460    2.0695    0.5130 H   0  0  0  0  0  0  0  0  0  0  0  0
    3.1865   -0.0824   -1.5995 C   0  0  0  0  0  0  0  0  0  0  0  0
    2.5778    1.1235   -2.3437 C   0  0  0  0  0  0  0  0  0  0  0  0
    2.8474    2.0903   -1.8768 H   0  0  0  0  0  0  0  0  0  0  0  0
    1.4736    1.0592   -2.3895 H   0  0  0  0  0  0  0  0  0  0  0  0
    2.9700    1.1297   -3.3827 H   0  0  0  0  0  0  0  0  0  0  0  0
    4.7065    0.1216   -1.5018 C   0  0  0  0  0  0  0  0  0  0  0  0
    5.2305   -0.7655   -1.0971 H   0  0  0  0  0  0  0  0  0  0  0  0
    4.9763    1.0033   -0.8864 H   0  0  0  0  0  0  0  0  0  0  0  0
    5.1093    0.3000   -2.5217 H   0  0  0  0  0  0  0  0  0  0  0  0
    2.8757   -1.3595   -2.4005 C   0  0  0  0  0  0  0  0  0  0  0  0
    3.3050   -1.2610   -3.4202 H   0  0  0  0  0  0  0  0  0  0  0  0
    1.7834   -1.5091   -2.4951 H   0  0  0  0  0  0  0  0  0  0  0  0
    3.3096   -2.2669   -1.9401 H   0  0  0  0  0  0  0  0  0  0  0  0
    3.3428   -1.2044    1.3537 C   0  0  0  0  0  0  0  0  0  0  0  0
    4.6537   -0.5078    1.7644 C   0  0  0  0  0  0  0  0  0  0  0  0
    4.4691    0.4793    2.2321 H   0  0  0  0  0  0  0  0  0  0  0  0
    5.3550   -0.3657    0.9244 H   0  0  0  0  0  0  0  0  0  0  0  0
    5.1688   -1.1348    2.5233 H   0  0  0  0  0  0  0  0  0  0  0  0
    3.6284   -2.5916    0.7542 C   0  0  0  0  0  0  0  0  0  0  0  0
    4.0646   -3.2481    1.5367 H   0  0  0  0  0  0  0  0  0  0  0  0
    4.3527   -2.5494   -0.0821 H   0  0  0  0  0  0  0  0  0  0  0  0
    2.6976   -3.0711    0.3894 H   0  0  0  0  0  0  0  0  0  0  0  0
    2.4832   -1.3887    2.6191 C   0  0  0  0  0  0  0  0  0  0  0  0
    3.0817   -1.9392    3.3759 H   0  0  0  0  0  0  0  0  0  0  0  0
    1.5613   -1.9595    2.4079 H   0  0  0  0  0  0  0  0  0  0  0  0
    2.1777   -0.4223    3.0676 H   0  0  0  0  0  0  0  0  0  0  0  0
   -2.3102   -0.1810   -0.1054 P   0  0  0  0  0  0  0  0  0  0  0  0
   -1.1681    2.3349   -0.3519 C   0  0  0  0  0  0  0  0  0  0  0  0
   -1.1642    3.7436   -0.3448 C   0  0  0  0  0  0  0  0  0  0  0  0
   -2.0771    4.2967   -0.6200 H   0  0  0  0  0  0  0  0  0  0  0  0
   -2.3962    1.5596   -0.7771 C   0  0  0  0  0  0  0  0  0  0  0  0
   -2.3944    1.4415   -1.8836 H   0  0  0  0  0  0  0  0  0  0  0  0
   -3.3459    2.0696   -0.5128 H   0  0  0  0  0  0  0  0  0  0  0  0
   -3.1865   -0.0825    1.5995 C   0  0  0  0  0  0  0  0  0  0  0  0
   -2.5782    1.1236    2.3436 C   0  0  0  0  0  0  0  0  0  0  0  0
   -2.8480    2.0903    1.8767 H   0  0  0  0  0  0  0  0  0  0  0  0
   -1.4740    1.0596    2.3895 H   0  0  0  0  0  0  0  0  0  0  0  0
   -2.9705    1.1297    3.3827 H   0  0  0  0  0  0  0  0  0  0  0  0
   -4.7066    0.1210    1.5017 C   0  0  0  0  0  0  0  0  0  0  0  0
   -5.2303   -0.7662    1.0969 H   0  0  0  0  0  0  0  0  0  0  0  0
   -4.9766    1.0026    0.8862 H   0  0  0  0  0  0  0  0  0  0  0  0
   -5.1094    0.2994    2.5215 H   0  0  0  0  0  0  0  0  0  0  0  0
   -2.8755   -1.3595    2.4005 C   0  0  0  0  0  0  0  0  0  0  0  0
   -3.3048   -1.2610    3.4202 H   0  0  0  0  0  0  0  0  0  0  0  0
   -1.7830   -1.5088    2.4952 H   0  0  0  0  0  0  0  0  0  0  0  0
   -3.3091   -2.2670    1.9401 H   0  0  0  0  0  0  0  0  0  0  0  0
   -3.3428   -1.2043   -1.3537 C   0  0  0  0  0  0  0  0  0  0  0  0
   -4.6538   -0.5077   -1.7642 C   0  0  0  0  0  0  0  0  0  0  0  0
   -4.4693    0.4794   -2.2319 H   0  0  0  0  0  0  0  0  0  0  0  0
   -5.3549   -0.3657   -0.9241 H   0  0  0  0  0  0  0  0  0  0  0  0
   -5.1690   -1.1347   -2.5231 H   0  0  0  0  0  0  0  0  0  0  0  0
   -3.6282   -2.5915   -0.7543 C   0  0  0  0  0  0  0  0  0  0  0  0
   -4.0645   -3.2479   -1.5369 H   0  0  0  0  0  0  0  0  0  0  0  0
   -4.3525   -2.5495    0.0820 H   0  0  0  0  0  0  0  0  0  0  0  0
   -2.6974   -3.0711   -0.3897 H   0  0  0  0  0  0  0  0  0  0  0  0
   -2.4834   -1.3884   -2.6193 C   0  0  0  0  0  0  0  0  0  0  0  0
   -3.0819   -1.9387   -3.3761 H   0  0  0  0  0  0  0  0  0  0  0  0
   -1.5614   -1.9592   -2.4083 H   0  0  0  0  0  0  0  0  0  0  0  0
   -2.1780   -0.4218   -3.0676 H   0  0  0  0  0  0  0  0  0  0  0  0
  1  8  1  0  0  0  0
  1 24  1  0  0  0  0
  2  3  1  0  0  0  0
  3  8  1  0  0  0  0
  4  3  2  0  0  0  0
  4  5  1  0  0  0  0
  6  7  1  0  0  0  0
  6  4  1  0  0  0  0
  8  9  1  0  0  0  0
 10  8  1  0  0  0  0
 11 16  1  0  0  0  0
 11  1  1  0  0  0  0
 12 13  1  0  0  0  0
 12 11  1  0  0  0  0
 14 12  1  0  0  0  0
 15 12  1  0  0  0  0
 16 17  1  0  0  0  0
 16 18  1  0  0  0  0
 19 16  1  0  0  0  0
 20 23  1  0  0  0  0
 20 11  1  0  0  0  0
 21 20  1  0  0  0  0
 22 20  1  0  0  0  0
 24 25  1  0  0  0  0
 24 33  1  0  0  0  0
 25 26  1  0  0  0  0
 25 28  1  0  0  0  0
 27 25  1  0  0  0  0
 29 24  1  0  0  0  0
 29 30  1  0  0  0  0
 31 29  1  0  0  0  0
 32 29  1  0  0  0  0
 33 36  1  0  0  0  0
 33 34  1  0  0  0  0
 35 33  1  0  0  0  0
 37 44  1  0  0  0  0
 38 39  1  0  0  0  0
 38  2  2  0  0  0  0
 39  6  2  0  0  0  0
 40 39  1  0  0  0  0
 41 43  1  0  0  0  0
 41 38  1  0  0  0  0
 41 37  1  0  0  0  0
 42 41  1  0  0  0  0
 44 45  1  0  0  0  0
 44 53  1  0  0  0  0
 45 47  1  0  0  0  0
 45 48  1  0  0  0  0
 46 45  1  0  0  0  0
 49 44  1  0  0  0  0
 49 52  1  0  0  0  0
 50 49  1  0  0  0  0
 51 49  1  0  0  0  0
 53 55  1  0  0  0  0
 53 54  1  0  0  0  0
 56 53  1  0  0  0  0
 57 62  1  0  0  0  0
 57 37  1  0  0  0  0
 58 57  1  0  0  0  0
 58 60  1  0  0  0  0
 59 58  1  0  0  0  0
 61 58  1  0  0  0  0
 62 65  1  0  0  0  0
 62 64  1  0  0  0  0
 63 62  1  0  0  0  0
 66 68  1  0  0  0  0
 66 57  1  0  0  0  0
 67 66  1  0  0  0  0
 69 66  1  0  0  0  0
M  END
