1,2
q = 0.0, confidence = 0.996

 33 36  0  0  1  0  0  0  0  0999 V2000
   -2.7005   -0.0627    0.0138 P   0  0  1  0  0  4  0  0  0  0  0  0
   -0.8780    1.8137   -0.2023 C   0  0  0  0  0  3  0  0  0  0  0  0
   -3.3148   -1.9451   -0.0126 N   0  3  2  0  0  0  0  0  0  0  0  0
   -4.2368   -2.1147   -1.1537 C   0  0  0  0  0  0  0  0  0  0  0  0
   -3.8493   -1.0546   -2.1897 C   0  0  0  0  0  0  0  0  0  0  0  0
   -3.6428    0.1730   -1.4316 N   0  0  2  0  0  0  0  0  0  0  0  0
   -3.8133   -2.2164    1.3504 C   0  0  0  0  0  0  0  0  0  0  0  0
   -4.5081   -0.9431    1.8425 C   0  0  0  0  0  0  0  0  0  0  0  0
   -3.6825    0.1589    1.4113 N   0  0  2  0  0  0  0  0  0  0  0  0
   -3.9864    1.5159    1.8052 C   0  0  0  0  0  0  0  0  0  0  0  0
   -2.7893    2.3686    1.3735 C   0  0  0  0  0  0  0  0  0  0  0  0
   -2.3877    1.9106    0.0205 N   0  3  2  0  0  0  0  0  0  0  0  0
   -3.1667    2.4899   -1.0987 C   0  0  0  0  0  0  0  0  0  0  0  0
   -3.3239    1.3952   -2.1588 C   0  0  0  0  0  0  0  0  0  0  0  0
   -0.3677    2.4649    0.5327 H   0  0  0  0  0  0  0  0  0  0  0  0
   -0.6556    2.1427   -1.2352 H   0  0  0  0  0  0  0  0  0  0  0  0
   -2.3672   -2.4395   -0.1331 H   0  0  0  0  0  0  0  0  0  0  0  0
   -5.2709   -1.9375   -0.7947 H   0  0  0  0  0  0  0  0  0  0  0  0
   -4.1689   -3.1441   -1.5604 H   0  0  0  0  0  0  0  0  0  0  0  0
   -4.6738   -0.9184   -2.9223 H   0  0  0  0  0  0  0  0  0  0  0  0
   -2.9276   -1.3535   -2.7421 H   0  0  0  0  0  0  0  0  0  0  0  0
   -2.9114   -2.4252    1.9607 H   0  0  0  0  0  0  0  0  0  0  0  0
   -4.4800   -3.1023    1.3661 H   0  0  0  0  0  0  0  0  0  0  0  0
   -5.5520   -0.8706    1.4382 H   0  0  0  0  0  0  0  0  0  0  0  0
   -4.5915   -0.9675    2.9512 H   0  0  0  0  0  0  0  0  0  0  0  0
   -4.1044    1.5850    2.9086 H   0  0  0  0  0  0  0  0  0  0  0  0
   -4.9448    1.8802    1.3498 H   0  0  0  0  0  0  0  0  0  0  0  0
   -3.0059    3.4568    1.3772 H   0  0  0  0  0  0  0  0  0  0  0  0
   -1.9358    2.1411    2.0432 H   0  0  0  0  0  0  0  0  0  0  0  0
   -4.1608    2.7823   -0.7042 H   0  0  0  0  0  0  0  0  0  0  0  0
   -2.6577    3.3926   -1.4950 H   0  0  0  0  0  0  0  0  0  0  0  0
   -2.3894    1.2777   -2.7555 H   0  0  0  0  0  0  0  0  0  0  0  0
   -4.1563    1.6562   -2.8482 H   0  0  0  0  0  0  0  0  0  0  0  0
  1 12  1  0  0  0  0
  1  9  1  0  0  0  0
  2 12  1  0  0  0  0
  2 15  1  0  0  0  0
  3  1  1  0  0  0  0
  3  7  1  0  0  0  0
  4 18  1  0  0  0  0
  4  3  1  0  0  0  0
  5  4  1  0  0  0  0
  6  5  1  6  0  0  0
  6  1  1  0  0  0  0
  7 23  1  0  0  0  0
  7  8  1  0  0  0  0
  7 22  1  0  0  0  0
  8 25  1  0  0  0  0
  9 10  1  6  0  0  0
  9  8  1  0  0  0  0
 10 26  1  0  0  0  0
 11 28  1  0  0  0  0
 11 10  1  0  0  0  0
 11 29  1  0  0  0  0
 12 11  1  0  0  0  0
 13 30  1  0  0  0  0
 13 12  1  0  0  0  0
 14  6  1  0  0  0  0
 14 13  1  0  0  0  0
 16  2  1  0  0  0  0
 17  3  1  0  0  0  0
 19  4  1  0  0  0  0
 20  5  1  0  0  0  0
 21  5  1  0  0  0  0
 24  8  1  0  0  0  0
 27 10  1  0  0  0  0
 31 13  1  0  0  0  0
 32 14  1  0  0  0  0
 33 14  1  0  0  0  0
M  CHG  2   3   1  12   1
M  END
