1,4
q = 0.0, confidence = 1.0

 38 39  0  0  0  0  0  0  0  0999 V2000
    0.5393    0.2468   -0.0404 P   0  0  0  0  0  0  0  0  0  0  0  0
   -0.5156    1.7239   -0.1432 C   0  0  0  0  0  3  0  0  0  0  0  0
   -1.8485    1.4288   -0.1531 C   0  0  0  0  0  0  0  0  0  0  0  0
   -2.2857   -0.0034   -0.0696 C   0  0  0  0  0  3  0  0  0  0  0  0
   -3.6103   -0.1245   -0.0469 N   0  0  0  0  0  0  0  0  0  0  0  0
   -2.8671    2.3212   -0.2306 O   0  0  0  0  0  0  0  0  0  0  0  0
   -2.5567    3.7171   -0.3210 C   0  0  0  0  0  0  0  0  0  0  0  0
   -3.8562    4.4909   -0.4076 C   0  0  0  0  0  0  0  0  0  0  0  0
    1.5550    0.5320    1.4703 C   0  0  0  0  0  0  0  0  0  0  0  0
    2.8358   -0.0498    1.5675 C   0  0  0  0  0  0  0  0  0  0  0  0
    3.5722    0.0653    2.7551 C   0  0  0  0  0  0  0  0  0  0  0  0
    3.0391    0.7594    3.8536 C   0  0  0  0  0  0  0  0  0  0  0  0
    1.7610    1.3327    3.7629 C   0  0  0  0  0  0  0  0  0  0  0  0
    1.0183    1.2157    2.5786 C   0  0  0  0  0  0  0  0  0  0  0  0
    1.7938    0.5026   -1.3708 C   0  0  0  0  0  0  0  0  0  0  0  0
    2.5228    1.7092   -1.4417 C   0  0  0  0  0  0  0  0  0  0  0  0
    3.4760    1.9004   -2.4504 C   0  0  0  0  0  0  0  0  0  0  0  0
    3.7191    0.8836   -3.3903 C   0  0  0  0  0  0  0  0  0  0  0  0
    3.0085   -0.3231   -3.3148 C   0  0  0  0  0  0  0  0  0  0  0  0
    2.0465   -0.5142   -2.3093 C   0  0  0  0  0  0  0  0  0  0  0  0
   -0.1172    2.7467   -0.1955 H   0  0  0  0  0  0  0  0  0  0  0  0
   -4.2232    0.6991   -0.0887 H   0  0  0  0  0  0  0  0  0  0  0  0
   -4.0322   -1.0536    0.0025 H   0  0  0  0  0  0  0  0  0  0  0  0
   -1.9181    3.8872   -1.2174 H   0  0  0  0  0  0  0  0  0  0  0  0
   -1.9622    4.0139    0.5732 H   0  0  0  0  0  0  0  0  0  0  0  0
   -4.4812    4.3177    0.4907 H   0  0  0  0  0  0  0  0  0  0  0  0
   -4.4363    4.1902   -1.3023 H   0  0  0  0  0  0  0  0  0  0  0  0
   -3.6472    5.5762   -0.4794 H   0  0  0  0  0  0  0  0  0  0  0  0
    3.2570   -0.5968    0.7100 H   0  0  0  0  0  0  0  0  0  0  0  0
    4.5710   -0.3923    2.8228 H   0  0  0  0  0  0  0  0  0  0  0  0
    3.6195    0.8491    4.7843 H   0  0  0  0  0  0  0  0  0  0  0  0
    1.3349    1.8711    4.6232 H   0  0  0  0  0  0  0  0  0  0  0  0
    0.0094    1.6517    2.5146 H   0  0  0  0  0  0  0  0  0  0  0  0
    2.3549    2.4987   -0.6922 H   0  0  0  0  0  0  0  0  0  0  0  0
    4.0384    2.8453   -2.5010 H   0  0  0  0  0  0  0  0  0  0  0  0
    4.4704    1.0332   -4.1807 H   0  0  0  0  0  0  0  0  0  0  0  0
    3.2010   -1.1256   -4.0428 H   0  0  0  0  0  0  0  0  0  0  0  0
    1.4933   -1.4617   -2.2473 H   0  0  0  0  0  0  0  0  0  0  0  0
  1  9  1  0  0  0  0
  2  1  1  0  0  0  0
  3  2  1  0  0  0  0
  3  4  2  0  0  0  0
  4  5  1  0  0  0  0
  5 23  1  0  0  0  0
  6  3  1  0  0  0  0
  7  6  1  0  0  0  0
  7 25  1  0  0  0  0
  8  7  1  0  0  0  0
  8 26  1  0  0  0  0
  9 10  2  0  0  0  0
  9 14  1  0  0  0  0
 10 11  1  0  0  0  0
 11 30  1  0  0  0  0
 11 12  2  0  0  0  0
 12 31  1  0  0  0  0
 13 12  1  0  0  0  0
 13 32  1  0  0  0  0
 14 13  2  0  0  0  0
 15  1  1  0  0  0  0
 16 15  1  0  0  0  0
 16 34  1  0  0  0  0
 17 16  2  0  0  0  0
 18 19  2  0  0  0  0
 18 17  1  0  0  0  0
 19 20  1  0  0  0  0
 20 38  1  0  0  0  0
 20 15  2  0  0  0  0
 21  2  1  0  0  0  0
 22  5  1  0  0  0  0
 24  7  1  0  0  0  0
 27  8  1  0  0  0  0
 28  8  1  0  0  0  0
 29 10  1  0  0  0  0
 33 14  1  0  0  0  0
 35 17  1  0  0  0  0
 36 18  1  0  0  0  0
 37 19  1  0  0  0  0
M  END
