1,3
q = 0.0, confidence = 1.0

 36 37  0  0  0  0  0  0  0  0999 V2000
   -1.0690    0.1092    0.2353 P   0  0  0  0  0  0  0  0  0  0  0  0
    1.9348    1.1377    2.4111 N   0  0  0  0  0  0  0  0  0  0  0  0
    1.1029    0.5428    1.5545 C   0  0  0  0  0  2  0  0  0  0  0  0
   -2.3866   -1.1463    0.4373 C   0  0  0  0  0  0  0  0  0  0  0  0
    1.5688    1.6687    3.7260 C   0  0  0  0  0  0  0  0  0  0  0  0
    1.6834    2.7736    3.7452 H   0  0  0  0  0  0  0  0  0  0  0  0
    2.2441    1.2448    4.4977 H   0  0  0  0  0  0  0  0  0  0  0  0
    0.5303    1.4097    3.9887 H   0  0  0  0  0  0  0  0  0  0  0  0
   -3.2047    4.0399   -1.0585 C   0  0  0  0  0  0  0  0  0  0  0  0
   -3.6898    4.9733   -1.3818 H   0  0  0  0  0  0  0  0  0  0  0  0
   -0.3715    0.4742    1.9352 C   0  0  0  0  0  0  0  0  0  0  0  0
   -0.8104    1.3794    2.4110 H   0  0  0  0  0  0  0  0  0  0  0  0
   -0.5763   -0.3983    2.5950 H   0  0  0  0  0  0  0  0  0  0  0  0
   -1.9615    1.6480   -0.2319 C   0  0  0  0  0  0  0  0  0  0  0  0
   -4.4021   -1.9848    1.5198 C   0  0  0  0  0  0  0  0  0  0  0  0
   -5.2148   -1.8569    2.2510 H   0  0  0  0  0  0  0  0  0  0  0  0
   -2.3229   -2.3167   -0.3438 C   0  0  0  0  0  0  0  0  0  0  0  0
   -1.4992   -2.4409   -1.0638 H   0  0  0  0  0  0  0  0  0  0  0  0
   -1.2956    2.8849   -0.0905 C   0  0  0  0  0  0  0  0  0  0  0  0
   -0.2746    2.9168    0.3215 H   0  0  0  0  0  0  0  0  0  0  0  0
   -3.2479    1.6187   -0.8059 C   0  0  0  0  0  0  0  0  0  0  0  0
   -3.7719    0.6596   -0.9319 H   0  0  0  0  0  0  0  0  0  0  0  0
   -3.4341   -0.9823    1.3692 C   0  0  0  0  0  0  0  0  0  0  0  0
   -3.4955   -0.0635    1.9736 H   0  0  0  0  0  0  0  0  0  0  0  0
    3.3489    1.3178    2.0941 C   0  0  0  0  0  0  0  0  0  0  0  0
    3.9801    0.7782    2.8306 H   0  0  0  0  0  0  0  0  0  0  0  0
    3.6085    2.3966    2.1324 H   0  0  0  0  0  0  0  0  0  0  0  0
    3.5410    0.9229    1.0834 H   0  0  0  0  0  0  0  0  0  0  0  0
   -1.9185    4.0732   -0.4939 C   0  0  0  0  0  0  0  0  0  0  0  0
   -1.3905    5.0318   -0.3776 H   0  0  0  0  0  0  0  0  0  0  0  0
   -3.8636    2.8118   -1.2170 C   0  0  0  0  0  0  0  0  0  0  0  0
   -4.8681    2.7777   -1.6659 H   0  0  0  0  0  0  0  0  0  0  0  0
   -4.3358   -3.1503    0.7366 C   0  0  0  0  0  0  0  0  0  0  0  0
   -5.0976   -3.9357    0.8562 H   0  0  0  0  0  0  0  0  0  0  0  0
   -3.2998   -3.3140   -0.1956 C   0  0  0  0  0  0  0  0  0  0  0  0
   -3.2458   -4.2259   -0.8089 H   0  0  0  0  0  0  0  0  0  0  0  0
  1  4  1  0  0  0  0
  1 11  1  0  0  0  0
  2  5  1  0  0  0  0
  3 11  1  0  0  0  0
  3  2  1  0  0  0  0
  4 23  1  0  0  0  0
  5  6  1  0  0  0  0
  5  8  1  0  0  0  0
  5  7  1  0  0  0  0
  9 29  1  0  0  0  0
 10  9  1  0  0  0  0
 11 12  1  0  0  0  0
 11 13  1  0  0  0  0
 14 19  1  0  0  0  0
 14  1  1  0  0  0  0
 15 16  1  0  0  0  0
 17 35  1  0  0  0  0
 17  4  2  0  0  0  0
 18 17  1  0  0  0  0
 19 20  1  0  0  0  0
 21 14  2  0  0  0  0
 22 21  1  0  0  0  0
 23 15  2  0  0  0  0
 23 24  1  0  0  0  0
 25 27  1  0  0  0  0
 25  2  1  0  0  0  0
 25 26  1  0  0  0  0
 28 25  1  0  0  0  0
 29 30  1  0  0  0  0
 29 19  2  0  0  0  0
 31  9  2  0  0  0  0
 31 21  1  0  0  0  0
 32 31  1  0  0  0  0
 33 34  1  0  0  0  0
 33 15  1  0  0  0  0
 35 33  2  0  0  0  0
 36 35  1  0  0  0  0
M  END
