1,5
q = -1.0, confidence = 0.0

 39 41  0  0  0  0  0  0  0  0999 V2000
   -2.2035    0.0301   -0.4655 P   0  0  0  0  0  0  0  0  0  0  0  0
   -3.0664   -0.5168    0.8544 O   0  0  0  0  0  0  0  0  0  0  0  0
   -2.6719   -1.0288   -1.6580 O   0  0  0  0  0  0  0  0  0  0  0  0
   -3.1292    1.2597   -1.0938 O   0  0  0  0  0  0  0  0  0  0  0  0
    0.1375   -0.9883   -1.8848 C   0  0  0  0  0  3  0  0  0  0  0  0
   -4.2575   -1.2343    0.7985 C   0  0  0  0  0  0  0  0  0  0  0  0
   -4.3043   -2.4303    1.5317 C   0  0  0  0  0  0  0  0  0  0  0  0
   -5.4836   -3.1878    1.5333 C   0  0  0  0  0  0  0  0  0  0  0  0
   -6.6029   -2.7584    0.8005 C   0  0  0  0  0  0  0  0  0  0  0  0
   -6.5381   -1.5617    0.0688 C   0  0  0  0  0  0  0  0  0  0  0  0
   -5.3675   -0.7875    0.0642 C   0  0  0  0  0  0  0  0  0  0  0  0
   -2.0142   -2.2626   -1.6836 C   0  0  0  0  0  0  0  0  0  0  0  0
   -0.6029   -2.2704   -1.7986 C   0  0  0  0  0  0  0  0  0  0  0  0
    0.0268   -3.5342   -1.7730 C   0  0  0  0  0  0  0  0  0  0  0  0
   -0.7168   -4.7187   -1.6691 C   0  0  0  0  0  0  0  0  0  0  0  0
   -2.1179   -4.6720   -1.5786 C   0  0  0  0  0  0  0  0  0  0  0  0
   -2.7741   -3.4311   -1.5713 C   0  0  0  0  0  0  0  0  0  0  0  0
   -3.1831    2.5278   -0.5257 C   0  0  0  0  0  0  0  0  0  0  0  0
   -3.2813    2.7221    0.8619 C   0  0  0  0  0  0  0  0  0  0  0  0
   -3.3510    4.0315    1.3626 C   0  0  0  0  0  0  0  0  0  0  0  0
   -3.3432    5.1309    0.4913 C   0  0  0  0  0  0  0  0  0  0  0  0
   -3.2598    4.9187   -0.8954 C   0  0  0  0  0  0  0  0  0  0  0  0
   -3.1741    3.6184   -1.4097 C   0  0  0  0  0  0  0  0  0  0  0  0
   -0.2751   -0.3442   -2.6851 H   0  0  0  0  0  0  0  0  0  0  0  0
    1.2022   -1.1726   -2.1119 H   0  0  0  0  0  0  0  0  0  0  0  0
   -3.4042   -2.7520    2.0747 H   0  0  0  0  0  0  0  0  0  0  0  0
   -5.5237   -4.1267    2.1060 H   0  0  0  0  0  0  0  0  0  0  0  0
   -7.5257   -3.3572    0.7990 H   0  0  0  0  0  0  0  0  0  0  0  0
   -7.4106   -1.2202   -0.5087 H   0  0  0  0  0  0  0  0  0  0  0  0
   -5.3049    0.1457   -0.5114 H   0  0  0  0  0  0  0  0  0  0  0  0
    1.1252   -3.5758   -1.8354 H   0  0  0  0  0  0  0  0  0  0  0  0
   -0.1967   -5.6885   -1.6582 H   0  0  0  0  0  0  0  0  0  0  0  0
   -2.7034   -5.6001   -1.5000 H   0  0  0  0  0  0  0  0  0  0  0  0
   -3.8660   -3.3510   -1.4713 H   0  0  0  0  0  0  0  0  0  0  0  0
   -3.2975    1.8590    1.5412 H   0  0  0  0  0  0  0  0  0  0  0  0
   -3.4129    4.1856    2.4502 H   0  0  0  0  0  0  0  0  0  0  0  0
   -3.4008    6.1539    0.8914 H   0  0  0  0  0  0  0  0  0  0  0  0
   -3.2503    5.7750   -1.5864 H   0  0  0  0  0  0  0  0  0  0  0  0
   -3.0864    3.4262   -2.4881 H   0  0  0  0  0  0  0  0  0  0  0  0
  1  2  1  0  0  0  0
  3  1  1  0  0  0  0
  4 18  1  0  0  0  0
  4  1  1  0  0  0  0
  5 13  1  0  0  0  0
  6  2  1  0  0  0  0
  6  7  1  0  0  0  0
  7  8  2  0  0  0  0
  7 26  1  0  0  0  0
  8 27  1  0  0  0  0
  9  8  1  0  0  0  0
 10  9  2  0  0  0  0
 11 10  1  0  0  0  0
 11  6  2  0  0  0  0
 12  3  1  0  0  0  0
 12 17  1  0  0  0  0
 13 14  1  0  0  0  0
 13 12  2  0  0  0  0
 14 15  2  0  0  0  0
 15 32  1  0  0  0  0
 15 16  1  0  0  0  0
 16 17  2  0  0  0  0
 16 33  1  0  0  0  0
 17 34  1  0  0  0  0
 18 19  1  0  0  0  0
 19 20  2  0  0  0  0
 19 35  1  0  0  0  0
 20 36  1  0  0  0  0
 21 37  1  0  0  0  0
 21 20  1  0  0  0  0
 22 21  2  0  0  0  0
 23 22  1  0  0  0  0
 23 18  2  0  0  0  0
 24  5  1  0  0  0  0
 25  5  1  0  0  0  0
 28  9  1  0  0  0  0
 29 10  1  0  0  0  0
 30 11  1  0  0  0  0
 31 14  1  0  0  0  0
 38 22  1  0  0  0  0
 39 23  1  0  0  0  0
M  END
