1,4
q = -1.0, confidence = 0.0

 39 42  0  0  0  0  0  0  0  0999 V2000
    0.9392    0.3084    0.0068 P   0  0  0  0  0  0  0  0  0  0  0  0
    0.2216    1.9839    0.0379 C   0  0  0  0  0  0  0  0  0  0  0  0
   -1.2057    2.0281    0.1628 C   0  0  0  0  0  0  0  0  0  0  0  0
   -2.0039    0.8244    0.1510 C   0  0  0  0  0  3  0  0  0  0  0  0
   -3.3843    0.9885    0.2996 C   0  0  0  0  0  0  0  0  0  0  0  0
   -4.0435    0.1066    0.2978 H   0  0  0  0  0  0  0  0  0  0  0  0
   -3.9952    2.2646    0.4451 C   0  0  0  0  0  0  0  0  0  0  0  0
   -5.0888    2.3268    0.5607 H   0  0  0  0  0  0  0  0  0  0  0  0
   -3.2337    3.4210    0.4263 C   0  0  0  0  0  0  0  0  0  0  0  0
   -3.7022    4.4131    0.5189 H   0  0  0  0  0  0  0  0  0  0  0  0
   -1.8201    3.3343    0.2769 C   0  0  0  0  0  0  0  0  0  0  0  0
   -0.9993    4.4986    0.2205 C   0  0  0  0  0  0  0  0  0  0  0  0
   -1.4851    5.4842    0.3001 H   0  0  0  0  0  0  0  0  0  0  0  0
    0.3762    4.4114    0.0534 C   0  0  0  0  0  0  0  0  0  0  0  0
    0.9884    5.3237   -0.0063 H   0  0  0  0  0  0  0  0  0  0  0  0
    0.9964    3.1404   -0.0363 C   0  0  0  0  0  0  0  0  0  0  0  0
    2.0871    3.0672   -0.1697 H   0  0  0  0  0  0  0  0  0  0  0  0
    1.9065    0.0892    1.5569 C   0  0  0  0  0  0  0  0  0  0  0  0
    2.1650    1.1533    2.4418 C   0  0  0  0  0  0  0  0  0  0  0  0
    1.7925    2.1619    2.2120 H   0  0  0  0  0  0  0  0  0  0  0  0
    2.8815    0.9233    3.6269 C   0  0  0  0  0  0  0  0  0  0  0  0
    3.0704    1.7593    4.3172 H   0  0  0  0  0  0  0  0  0  0  0  0
    3.3482   -0.3634    3.9347 C   0  0  0  0  0  0  0  0  0  0  0  0
    3.9078   -0.5397    4.8657 H   0  0  0  0  0  0  0  0  0  0  0  0
    3.0873   -1.4291    3.0581 C   0  0  0  0  0  0  0  0  0  0  0  0
    3.4392   -2.4436    3.2987 H   0  0  0  0  0  0  0  0  0  0  0  0
    2.3618   -1.2088    1.8791 C   0  0  0  0  0  0  0  0  0  0  0  0
    2.1377   -2.0548    1.2115 H   0  0  0  0  0  0  0  0  0  0  0  0
    2.1960    0.3470   -1.3367 C   0  0  0  0  0  0  0  0  0  0  0  0
    1.8171    0.8876   -2.5846 C   0  0  0  0  0  0  0  0  0  0  0  0
    0.8136    1.3182   -2.7182 H   0  0  0  0  0  0  0  0  0  0  0  0
    2.7231    0.8916   -3.6534 C   0  0  0  0  0  0  0  0  0  0  0  0
    2.4189    1.3171   -4.6216 H   0  0  0  0  0  0  0  0  0  0  0  0
    4.0118    0.3566   -3.4899 C   0  0  0  0  0  0  0  0  0  0  0  0
    4.7211    0.3593   -4.3312 H   0  0  0  0  0  0  0  0  0  0  0  0
    4.3926   -0.1766   -2.2497 C   0  0  0  0  0  0  0  0  0  0  0  0
    5.4030   -0.5906   -2.1123 H   0  0  0  0  0  0  0  0  0  0  0  0
    3.4906   -0.1821   -1.1738 C   0  0  0  0  0  0  0  0  0  0  0  0
    3.8020   -0.5932   -0.2026 H   0  0  0  0  0  0  0  0  0  0  0  0
  1  2  1  0  0  0  0
  1 18  1  0  0  0  0
  2  3  1  0  0  0  0
  3 11  1  0  0  0  0
  4  3  2  0  0  0  0
  4  5  1  0  0  0  0
  5  7  2  0  0  0  0
  6  5  1  0  0  0  0
  7  8  1  0  0  0  0
  9  7  1  0  0  0  0
  9 10  1  0  0  0  0
 11  9  2  0  0  0  0
 12 11  1  0  0  0  0
 12 13  1  0  0  0  0
 14 12  2  0  0  0  0
 15 14  1  0  0  0  0
 16  2  2  0  0  0  0
 16 14  1  0  0  0  0
 17 16  1  0  0  0  0
 18 27  2  0  0  0  0
 18 19  1  0  0  0  0
 19 21  2  0  0  0  0
 20 19  1  0  0  0  0
 21 23  1  0  0  0  0
 21 22  1  0  0  0  0
 23 24  1  0  0  0  0
 25 26  1  0  0  0  0
 25 23  2  0  0  0  0
 27 25  1  0  0  0  0
 28 27  1  0  0  0  0
 29 38  1  0  0  0  0
 29  1  1  0  0  0  0
 30 29  2  0  0  0  0
 31 30  1  0  0  0  0
 32 34  2  0  0  0  0
 32 30  1  0  0  0  0
 33 32  1  0  0  0  0
 34 36  1  0  0  0  0
 35 34  1  0  0  0  0
 36 37  1  0  0  0  0
 36 38  2  0  0  0  0
 38 39  1  0  0  0  0
M  END
