1,2
q = -1.0, confidence = 0.0

 47 50  0  0  1  0  0  0  0  0999 V2000
    1.1743    0.3590    0.8073 P   0  0  0  0  0  0  0  0  0  0  0  0
   -1.7408    1.8541    1.0141 C   0  0  2  0  0  3  0  0  0  0  0  0
   -1.2901    2.3798   -0.2722 C   0  0  0  0  0  0  0  0  0  0  0  0
   -2.0315    1.7734   -1.3058 C   0  0  0  0  0  0  0  0  0  0  0  0
   -3.0861    0.9641   -0.6980 C   0  0  0  0  0  0  0  0  0  0  0  0
   -2.9460    1.0748    0.7428 C   0  0  0  0  0  0  0  0  0  0  0  0
   -4.1288    0.1831   -1.2525 C   0  0  0  0  0  0  0  0  0  0  0  0
   -5.0318   -0.4385   -0.3895 C   0  0  0  0  0  0  0  0  0  0  0  0
   -4.9101   -0.3079    1.0203 C   0  0  0  0  0  0  0  0  0  0  0  0
   -3.8772    0.4312    1.5953 C   0  0  0  0  0  0  0  0  0  0  0  0
   -1.2636    2.2949    2.3685 C   0  0  0  0  0  0  0  0  0  0  0  0
    0.2620    2.4413    2.5253 C   0  0  0  0  0  0  0  0  0  0  0  0
    1.0481    1.1220    2.4872 C   0  0  0  0  0  0  0  0  0  0  0  0
    2.2378   -1.1176    1.0320 C   0  0  0  0  0  0  0  0  0  0  0  0
    3.0658   -1.5257   -0.0357 C   0  0  0  0  0  0  0  0  0  0  0  0
    3.8578   -2.6750    0.0887 C   0  0  0  0  0  0  0  0  0  0  0  0
    3.8294   -3.4281    1.2733 C   0  0  0  0  0  0  0  0  0  0  0  0
    3.0016   -3.0294    2.3340 C   0  0  0  0  0  0  0  0  0  0  0  0
    2.2042   -1.8809    2.2173 C   0  0  0  0  0  0  0  0  0  0  0  0
    2.2570    1.5143   -0.1408 C   0  0  0  0  0  0  0  0  0  0  0  0
    1.9453    1.8587   -1.4703 C   0  0  0  0  0  0  0  0  0  0  0  0
    2.7783    2.7337   -2.1860 C   0  0  0  0  0  0  0  0  0  0  0  0
    3.9243    3.2713   -1.5810 C   0  0  0  0  0  0  0  0  0  0  0  0
    4.2458    2.9225   -0.2585 C   0  0  0  0  0  0  0  0  0  0  0  0
    3.4201    2.0447    0.4576 C   0  0  0  0  0  0  0  0  0  0  0  0
   -0.4606    3.0844   -0.4116 H   0  0  0  0  0  0  0  0  0  0  0  0
   -1.8788    1.9096   -2.3828 H   0  0  0  0  0  0  0  0  0  0  0  0
   -4.2189    0.0764   -2.3433 H   0  0  0  0  0  0  0  0  0  0  0  0
   -5.8538   -1.0407   -0.8046 H   0  0  0  0  0  0  0  0  0  0  0  0
   -5.6458   -0.8060    1.6697 H   0  0  0  0  0  0  0  0  0  0  0  0
   -3.7820    0.5124    2.6879 H   0  0  0  0  0  0  0  0  0  0  0  0
   -1.6360    1.5763    3.1277 H   0  0  0  0  0  0  0  0  0  0  0  0
   -1.7358    3.2736    2.6114 H   0  0  0  0  0  0  0  0  0  0  0  0
    0.4572    2.9193    3.5076 H   0  0  0  0  0  0  0  0  0  0  0  0
    0.6644    3.1486    1.7674 H   0  0  0  0  0  0  0  0  0  0  0  0
    0.5371    0.3553    3.1041 H   0  0  0  0  0  0  0  0  0  0  0  0
    2.0738    1.2562    2.8862 H   0  0  0  0  0  0  0  0  0  0  0  0
    3.0827   -0.9456   -0.9695 H   0  0  0  0  0  0  0  0  0  0  0  0
    4.4978   -2.9864   -0.7505 H   0  0  0  0  0  0  0  0  0  0  0  0
    4.4513   -4.3313    1.3682 H   0  0  0  0  0  0  0  0  0  0  0  0
    2.9697   -3.6189    3.2629 H   0  0  0  0  0  0  0  0  0  0  0  0
    1.5384   -1.5973    3.0432 H   0  0  0  0  0  0  0  0  0  0  0  0
    1.0589    1.4120   -1.9477 H   0  0  0  0  0  0  0  0  0  0  0  0
    2.5296    2.9904   -3.2269 H   0  0  0  0  0  0  0  0  0  0  0  0
    4.5748    3.9591   -2.1424 H   0  0  0  0  0  0  0  0  0  0  0  0
    5.1493    3.3328    0.2177 H   0  0  0  0  0  0  0  0  0  0  0  0
    3.6941    1.7631    1.4857 H   0  0  0  0  0  0  0  0  0  0  0  0
  1 14  1  0  0  0  0
  1 13  1  0  0  0  0
  2 11  1  1  0  0  0
  3  2  1  0  0  0  0
  4  5  1  0  0  0  0
  4  3  2  0  0  0  0
  5  6  1  0  0  0  0
  6  2  1  0  0  0  0
  6 10  2  0  0  0  0
  7  5  2  0  0  0  0
  7  8  1  0  0  0  0
  8  9  2  0  0  0  0
  9 10  1  0  0  0  0
  9 30  1  0  0  0  0
 10 31  1  0  0  0  0
 11 12  1  0  0  0  0
 11 33  1  0  0  0  0
 11 32  1  0  0  0  0
 12 34  1  0  0  0  0
 13 12  1  0  0  0  0
 13 37  1  0  0  0  0
 13 36  1  0  0  0  0
 14 19  1  0  0  0  0
 15 16  1  0  0  0  0
 15 14  2  0  0  0  0
 16 17  2  0  0  0  0
 17 40  1  0  0  0  0
 17 18  1  0  0  0  0
 18 41  1  0  0  0  0
 19 18  2  0  0  0  0
 19 42  1  0  0  0  0
 20 25  1  0  0  0  0
 20  1  1  0  0  0  0
 21 20  2  0  0  0  0
 22 23  2  0  0  0  0
 22 21  1  0  0  0  0
 23 24  1  0  0  0  0
 24 46  1  0  0  0  0
 24 25  2  0  0  0  0
 25 47  1  0  0  0  0
 26  3  1  0  0  0  0
 27  4  1  0  0  0  0
 28  7  1  0  0  0  0
 29  8  1  0  0  0  0
 35 12  1  0  0  0  0
 38 15  1  0  0  0  0
 39 16  1  0  0  0  0
 43 21  1  0  0  0  0
 44 22  1  0  0  0  0
 45 23  1  0  0  0  0
M  END
