1,2
q = -1.0

 40 40  0  0  0  0  0  0  0  0999 V2000
    1.0315   -0.5985    0.0181 P   0  0  0  0  0  0  0  0  0  0  0  0
    0.3182    2.1928    0.0422 C   0  0  0  0  0  3  0  0  0  0  0  0
    1.8090    1.9926   -0.0586 C   0  0  0  0  0  0  0  0  0  0  0  0
    2.7036    3.0842   -0.1188 C   0  0  0  0  0  0  0  0  0  0  0  0
    4.0880    2.8792   -0.1717 C   0  0  0  0  0  0  0  0  0  0  0  0
    4.6115    1.5740   -0.1616 C   0  0  0  0  0  0  0  0  0  0  0  0
    3.7415    0.4771   -0.1106 C   0  0  0  0  0  0  0  0  0  0  0  0
    2.3457    0.6839   -0.0691 C   0  0  0  0  0  0  0  0  0  0  0  0
    1.3171   -1.5498    1.6514 C   0  0  0  0  0  0  0  0  0  0  0  0
    0.0611   -2.3807    1.9727 C   0  0  0  0  0  0  0  0  0  0  0  0
    2.5589   -2.4524    1.6438 C   0  0  0  0  0  0  0  0  0  0  0  0
    1.4725   -0.4511    2.7215 C   0  0  0  0  0  0  0  0  0  0  0  0
    1.2012   -1.6845   -1.5414 C   0  0  0  0  0  0  0  0  0  0  0  0
    0.2564   -2.8912   -1.4039 C   0  0  0  0  0  0  0  0  0  0  0  0
    2.6349   -2.1483   -1.8424 C   0  0  0  0  0  0  0  0  0  0  0  0
    0.7190   -0.7812   -2.6948 C   0  0  0  0  0  0  0  0  0  0  0  0
   -0.0549    2.8257   -0.7936 H   0  0  0  0  0  0  0  0  0  0  0  0
    0.0657    2.7293    0.9849 H   0  0  0  0  0  0  0  0  0  0  0  0
    2.2971    4.1081   -0.1174 H   0  0  0  0  0  0  0  0  0  0  0  0
    4.7689    3.7433   -0.2169 H   0  0  0  0  0  0  0  0  0  0  0  0
    5.6993    1.4117   -0.1966 H   0  0  0  0  0  0  0  0  0  0  0  0
    4.1576   -0.5396   -0.1049 H   0  0  0  0  0  0  0  0  0  0  0  0
   -0.8590   -1.7677    1.9171 H   0  0  0  0  0  0  0  0  0  0  0  0
    0.1565   -2.7887    3.0014 H   0  0  0  0  0  0  0  0  0  0  0  0
   -0.0673   -3.2349    1.2827 H   0  0  0  0  0  0  0  0  0  0  0  0
    2.4625   -3.2902    0.9262 H   0  0  0  0  0  0  0  0  0  0  0  0
    2.6858   -2.8988    2.6534 H   0  0  0  0  0  0  0  0  0  0  0  0
    3.4869   -1.8931    1.4156 H   0  0  0  0  0  0  0  0  0  0  0  0
    0.6013    0.2358    2.7171 H   0  0  0  0  0  0  0  0  0  0  0  0
    2.3892    0.1519    2.5709 H   0  0  0  0  0  0  0  0  0  0  0  0
    1.5317   -0.9272    3.7230 H   0  0  0  0  0  0  0  0  0  0  0  0
    0.6513   -3.6434   -0.6926 H   0  0  0  0  0  0  0  0  0  0  0  0
    0.1634   -3.3905   -2.3920 H   0  0  0  0  0  0  0  0  0  0  0  0
   -0.7546   -2.5810   -1.0702 H   0  0  0  0  0  0  0  0  0  0  0  0
    3.0774   -2.7462   -1.0238 H   0  0  0  0  0  0  0  0  0  0  0  0
    3.3057   -1.2957   -2.0612 H   0  0  0  0  0  0  0  0  0  0  0  0
    2.6148   -2.7923   -2.7477 H   0  0  0  0  0  0  0  0  0  0  0  0
   -0.3390   -0.4821   -2.5564 H   0  0  0  0  0  0  0  0  0  0  0  0
    0.8094   -1.3358   -3.6532 H   0  0  0  0  0  0  0  0  0  0  0  0
    1.3286    0.1418   -2.7747 H   0  0  0  0  0  0  0  0  0  0  0  0
  1  9  1  0  0  0  0
  2 18  1  0  0  0  0
  3  2  1  0  0  0  0
  4 19  1  0  0  0  0
  4  3  2  0  0  0  0
  5  6  2  0  0  0  0
  5  4  1  0  0  0  0
  6  7  1  0  0  0  0
  7 22  1  0  0  0  0
  7  8  2  0  0  0  0
  8  3  1  0  0  0  0
  8  1  1  0  0  0  0
  9 10  1  0  0  0  0
  9 12  1  0  0  0  0
 10 24  1  0  0  0  0
 11  9  1  0  0  0  0
 11 27  1  0  0  0  0
 12 31  1  0  0  0  0
 13 14  1  0  0  0  0
 13  1  1  0  0  0  0
 14 34  1  0  0  0  0
 14 32  1  0  0  0  0
 15 13  1  0  0  0  0
 15 35  1  0  0  0  0
 16 38  1  0  0  0  0
 16 13  1  0  0  0  0
 17  2  1  0  0  0  0
 20  5  1  0  0  0  0
 21  6  1  0  0  0  0
 23 10  1  0  0  0  0
 25 10  1  0  0  0  0
 26 11  1  0  0  0  0
 28 11  1  0  0  0  0
 29 12  1  0  0  0  0
 30 12  1  0  0  0  0
 33 14  1  0  0  0  0
 36 15  1  0  0  0  0
 37 15  1  0  0  0  0
 39 16  1  0  0  0  0
 40 16  1  0  0  0  0
M  END
