1,5
q = -1.0

 27 29  0  0  0  0  0  0  0  0999 V2000
    1.5880    0.3369   -0.1395 P   0  0  0  0  0  0  0  0  0  0  0  0
    1.6348    0.1582   -1.8423 N   0  0  0  0  0  0  0  0  0  0  0  0
    2.2070    1.8945    0.3202 N   0  0  0  0  0  0  0  0  0  0  0  0
    2.9754   -0.6284    0.3684 N   0  0  0  0  0  0  0  0  0  0  0  0
    0.3549   -0.4430   -2.0165 C   0  0  0  0  0  3  0  0  0  0  0  0
    0.2890   -0.7627   -3.3688 C   0  0  0  0  0  0  0  0  0  0  0  0
   -0.5620   -1.2308   -3.8781 H   0  0  0  0  0  0  0  0  0  0  0  0
    1.5271   -0.3592   -3.9917 C   0  0  0  0  0  0  0  0  0  0  0  0
    1.7811   -0.4615   -5.0550 H   0  0  0  0  0  0  0  0  0  0  0  0
    2.3576    0.2032   -3.0316 C   0  0  0  0  0  0  0  0  0  0  0  0
    3.3601    0.6386   -3.0975 H   0  0  0  0  0  0  0  0  0  0  0  0
    3.4614    2.4373    0.0427 C   0  0  0  0  0  0  0  0  0  0  0  0
    4.2249    1.8431   -0.4702 H   0  0  0  0  0  0  0  0  0  0  0  0
    3.4845    3.7269    0.5438 C   0  0  0  0  0  0  0  0  0  0  0  0
    4.3345    4.4171    0.4876 H   0  0  0  0  0  0  0  0  0  0  0  0
    2.2079    3.9830    1.1483 C   0  0  0  0  0  0  0  0  0  0  0  0
    1.8899    4.9062    1.6460 H   0  0  0  0  0  0  0  0  0  0  0  0
    1.4380    2.8443    0.9970 C   0  0  0  0  0  0  0  0  0  0  0  0
    0.4123    2.6042    1.2973 H   0  0  0  0  0  0  0  0  0  0  0  0
    3.4726   -0.6453    1.6688 C   0  0  0  0  0  0  0  0  0  0  0  0
    3.2084    0.1490    2.3759 H   0  0  0  0  0  0  0  0  0  0  0  0
    4.3031   -1.7479    1.7982 C   0  0  0  0  0  0  0  0  0  0  0  0
    4.8749   -2.0154    2.6945 H   0  0  0  0  0  0  0  0  0  0  0  0
    4.2985   -2.4371    0.5405 C   0  0  0  0  0  0  0  0  0  0  0  0
    4.8773   -3.3304    0.2767 H   0  0  0  0  0  0  0  0  0  0  0  0
    3.4607   -1.7365   -0.3172 C   0  0  0  0  0  0  0  0  0  0  0  0
    3.1767   -1.9086   -1.3612 H   0  0  0  0  0  0  0  0  0  0  0  0
  1  3  1  0  0  0  0
  1  4  1  0  0  0  0
  2  1  1  0  0  0  0
  3 18  1  0  0  0  0
  4 20  1  0  0  0  0
  5  2  1  0  0  0  0
  6  5  2  0  0  0  0
  7  6  1  0  0  0  0
  8  6  1  0  0  0  0
  8 10  2  0  0  0  0
  9  8  1  0  0  0  0
 10  2  1  0  0  0  0
 11 10  1  0  0  0  0
 12  3  1  0  0  0  0
 12 14  2  0  0  0  0
 13 12  1  0  0  0  0
 14 16  1  0  0  0  0
 15 14  1  0  0  0  0
 16 17  1  0  0  0  0
 18 16  2  0  0  0  0
 18 19  1  0  0  0  0
 20 22  2  0  0  0  0
 20 21  1  0  0  0  0
 22 23  1  0  0  0  0
 24 22  1  0  0  0  0
 25 24  1  0  0  0  0
 26  4  1  0  0  0  0
 26 24  2  0  0  0  0
 27 26  1  0  0  0  0
M  END
