1,11
q = -1.0

 38 39  0  0  0  0  0  0  0  0999 V2000
    1.0506   -0.0327   -0.7914 P   0  0  1  0  0  0  0  0  0  0  0  0
    2.0045   -1.5179   -0.2481 C   0  0  0  0  0  0  0  0  0  0  0  0
    1.1601   -2.5039    0.3130 C   0  0  0  0  0  0  0  0  0  0  0  0
    1.7233   -3.7492    0.6652 C   0  0  0  0  0  0  0  0  0  0  0  0
    1.0733   -4.5300    1.0915 H   0  0  0  0  0  0  0  0  0  0  0  0
    3.0924   -3.9834    0.4999 C   0  0  0  0  0  0  0  0  0  0  0  0
    3.5252   -4.9539    0.7886 H   0  0  0  0  0  0  0  0  0  0  0  0
    3.9226   -2.9784   -0.0223 C   0  0  0  0  0  0  0  0  0  0  0  0
    5.0029   -3.1631   -0.1349 H   0  0  0  0  0  0  0  0  0  0  0  0
    3.3981   -1.7323   -0.4148 C   0  0  0  0  0  0  0  0  0  0  0  0
   -0.2921   -2.1946    0.5987 C   0  0  0  0  0  3  0  0  0  0  0  0
   -0.3991   -2.1342    1.7075 H   0  0  0  0  0  0  0  0  0  0  0  0
   -0.9132   -3.0653    0.2902 H   0  0  0  0  0  0  0  0  0  0  0  0
    4.3260   -0.6888   -0.9902 C   0  0  0  0  0  0  0  0  0  0  0  0
    4.0257    0.3394   -0.7098 H   0  0  0  0  0  0  0  0  0  0  0  0
    4.3472   -0.7361   -2.1000 H   0  0  0  0  0  0  0  0  0  0  0  0
    5.3647   -0.8514   -0.6420 H   0  0  0  0  0  0  0  0  0  0  0  0
    1.8347    1.4757   -0.0320 C   0  0  0  0  0  0  0  0  0  0  0  0
    1.9182    2.7177   -0.7304 C   0  0  0  0  0  0  0  0  0  0  0  0
    2.4828    3.8345   -0.0806 C   0  0  0  0  0  0  0  0  0  0  0  0
    2.5439    4.7873   -0.6297 H   0  0  0  0  0  0  0  0  0  0  0  0
    2.9487    3.7575    1.2348 C   0  0  0  0  0  0  0  0  0  0  0  0
    3.3925    4.6392    1.7214 H   0  0  0  0  0  0  0  0  0  0  0  0
    2.8041    2.5580    1.9369 C   0  0  0  0  0  0  0  0  0  0  0  0
    3.1180    2.4972    2.9907 H   0  0  0  0  0  0  0  0  0  0  0  0
    2.2341    1.4161    1.3401 C   0  0  0  0  0  0  0  0  0  0  0  0
    1.4048    2.9353   -2.1360 C   0  0  0  0  0  0  0  0  0  0  0  0
    2.1120    2.5663   -2.9057 H   0  0  0  0  0  0  0  0  0  0  0  0
    1.2583    4.0169   -2.3206 H   0  0  0  0  0  0  0  0  0  0  0  0
    0.4357    2.4322   -2.3079 H   0  0  0  0  0  0  0  0  0  0  0  0
    2.0303    0.2043    2.2162 C   0  0  0  0  0  0  0  0  0  0  0  0
    2.7788   -0.5894    2.0239 H   0  0  0  0  0  0  0  0  0  0  0  0
    1.0343   -0.2496    2.0412 H   0  0  0  0  0  0  0  0  0  0  0  0
    2.1061    0.4914    3.2828 H   0  0  0  0  0  0  0  0  0  0  0  0
    1.4714   -0.0502   -2.6030 C   0  0  0  0  0  0  0  0  0  0  0  0
    2.4824    0.3428   -2.8112 H   0  0  0  0  0  0  0  0  0  0  0  0
    0.7189    0.5041   -3.1887 H   0  0  0  0  0  0  0  0  0  0  0  0
    1.4282   -1.1138   -2.9028 H   0  0  0  0  0  0  0  0  0  0  0  0
  1 35  1  6  0  0  0
  1  2  1  0  0  0  0
  1 18  1  0  0  0  0
  2  3  1  0  0  0  0
  3 11  1  0  0  0  0
  3  4  2  0  0  0  0
  4  5  1  0  0  0  0
  6  4  1  0  0  0  0
  6  7  1  0  0  0  0
  8  6  2  0  0  0  0
  9  8  1  0  0  0  0
 10  2  2  0  0  0  0
 10  8  1  0  0  0  0
 11 12  1  0  0  0  0
 13 11  1  0  0  0  0
 14 15  1  0  0  0  0
 14 17  1  0  0  0  0
 14 10  1  0  0  0  0
 16 14  1  0  0  0  0
 18 26  1  0  0  0  0
 19 20  1  0  0  0  0
 19 18  2  0  0  0  0
 20 22  2  0  0  0  0
 21 20  1  0  0  0  0
 22 23  1  0  0  0  0
 22 24  1  0  0  0  0
 24 25  1  0  0  0  0
 26 24  2  0  0  0  0
 26 31  1  0  0  0  0
 27 19  1  0  0  0  0
 28 27  1  0  0  0  0
 29 27  1  0  0  0  0
 30 27  1  0  0  0  0
 31 34  1  0  0  0  0
 32 31  1  0  0  0  0
 33 31  1  0  0  0  0
 36 35  1  0  0  0  0
 37 35  1  0  0  0  0
 38 35  1  0  0  0  0
M  END
