1,11
q = -1.0, confidence = 0.0

 38 39  0  0  0  0  0  0  0  0999 V2000
   -1.0299    0.0054   -0.8323 P   0  0  2  0  0  0  0  0  0  0  0  0
   -2.0094   -1.4901   -0.3715 C   0  0  0  0  0  0  0  0  0  0  0  0
   -1.1807   -2.5302    0.1090 C   0  0  0  0  0  0  0  0  0  0  0  0
   -1.7730   -3.7739    0.4151 C   0  0  0  0  0  0  0  0  0  0  0  0
   -1.1366   -4.5957    0.7808 H   0  0  0  0  0  0  0  0  0  0  0  0
   -3.1536   -3.9566    0.2802 C   0  0  0  0  0  0  0  0  0  0  0  0
   -3.6096   -4.9263    0.5346 H   0  0  0  0  0  0  0  0  0  0  0  0
   -3.9651   -2.9023   -0.1693 C   0  0  0  0  0  0  0  0  0  0  0  0
   -5.0532   -3.0489   -0.2623 H   0  0  0  0  0  0  0  0  0  0  0  0
   -3.4124   -1.6542   -0.5137 C   0  0  0  0  0  0  0  0  0  0  0  0
    0.2914   -2.2829    0.3524 C   0  0  0  0  0  3  0  0  0  0  0  0
    0.8733   -3.1384   -0.0557 H   0  0  0  0  0  0  0  0  0  0  0  0
    0.4511   -2.3236    1.4582 H   0  0  0  0  0  0  0  0  0  0  0  0
   -4.3206   -0.5584   -1.0202 C   0  0  0  0  0  0  0  0  0  0  0  0
   -4.3465   -0.5400   -2.1308 H   0  0  0  0  0  0  0  0  0  0  0  0
   -3.9969    0.4451   -0.6817 H   0  0  0  0  0  0  0  0  0  0  0  0
   -5.3610   -0.7196   -0.6763 H   0  0  0  0  0  0  0  0  0  0  0  0
   -1.7830    1.4717    0.0281 C   0  0  0  0  0  0  0  0  0  0  0  0
   -2.1647    1.3343    1.3991 C   0  0  0  0  0  0  0  0  0  0  0  0
   -2.7203    2.4432    2.0672 C   0  0  0  0  0  0  0  0  0  0  0  0
   -3.0224    2.3243    3.1198 H   0  0  0  0  0  0  0  0  0  0  0  0
   -2.8697    3.6811    1.4352 C   0  0  0  0  0  0  0  0  0  0  0  0
   -3.3076    4.5339    1.9758 H   0  0  0  0  0  0  0  0  0  0  0  0
   -2.4088    3.8346    0.1246 C   0  0  0  0  0  0  0  0  0  0  0  0
   -2.4606    4.8203   -0.3642 H   0  0  0  0  0  0  0  0  0  0  0  0
   -1.8488    2.7559   -0.5896 C   0  0  0  0  0  0  0  0  0  0  0  0
   -1.9534    0.0720    2.2002 C   0  0  0  0  0  0  0  0  0  0  0  0
   -1.9944    0.3007    3.2831 H   0  0  0  0  0  0  0  0  0  0  0  0
   -0.9689   -0.3845    1.9735 H   0  0  0  0  0  0  0  0  0  0  0  0
   -2.7193   -0.6995    1.9867 H   0  0  0  0  0  0  0  0  0  0  0  0
   -1.2903    3.0558   -1.9625 C   0  0  0  0  0  0  0  0  0  0  0  0
   -1.9690    2.7382   -2.7793 H   0  0  0  0  0  0  0  0  0  0  0  0
   -0.3163    2.5563   -2.1267 H   0  0  0  0  0  0  0  0  0  0  0  0
   -1.1331    4.1459   -2.0754 H   0  0  0  0  0  0  0  0  0  0  0  0
   -1.4422    0.1034   -2.6405 C   0  0  0  0  0  0  0  0  0  0  0  0
   -1.3768   -0.9436   -2.9943 H   0  0  0  0  0  0  0  0  0  0  0  0
   -0.6875    0.6982   -3.1819 H   0  0  0  0  0  0  0  0  0  0  0  0
   -2.4572    0.4946   -2.8402 H   0  0  0  0  0  0  0  0  0  0  0  0
  1 35  1  6  0  0  0
  1  2  1  0  0  0  0
  1 18  1  0  0  0  0
  2  3  1  0  0  0  0
  3 11  1  0  0  0  0
  3  4  2  0  0  0  0
  4  5  1  0  0  0  0
  6  4  1  0  0  0  0
  6  7  1  0  0  0  0
  8  6  2  0  0  0  0
  9  8  1  0  0  0  0
 10  2  2  0  0  0  0
 10  8  1  0  0  0  0
 11 13  1  0  0  0  0
 12 11  1  0  0  0  0
 14 16  1  0  0  0  0
 14 17  1  0  0  0  0
 14 10  1  0  0  0  0
 15 14  1  0  0  0  0
 18 19  1  0  0  0  0
 19 20  2  0  0  0  0
 19 27  1  0  0  0  0
 20 21  1  0  0  0  0
 22 23  1  0  0  0  0
 22 20  1  0  0  0  0
 24 22  2  0  0  0  0
 25 24  1  0  0  0  0
 26 18  2  0  0  0  0
 26 24  1  0  0  0  0
 27 28  1  0  0  0  0
 29 27  1  0  0  0  0
 30 27  1  0  0  0  0
 31 26  1  0  0  0  0
 32 31  1  0  0  0  0
 33 31  1  0  0  0  0
 34 31  1  0  0  0  0
 36 35  1  0  0  0  0
 37 35  1  0  0  0  0
 38 35  1  0  0  0  0
M  END
