1,9
q = -1.0

 37 37  0  0  0  0  0  0  0  0999 V2000
    1.3188   -1.2329   -0.0792 P   0  0  0  0  0  0  0  0  0  0  0  0
    0.7795   -2.6416   -1.1642 C   0  0  0  0  0  0  0  0  0  0  0  0
    0.5968   -3.5165   -0.5083 H   0  0  0  0  0  0  0  0  0  0  0  0
    1.6352   -2.9056   -1.8187 H   0  0  0  0  0  0  0  0  0  0  0  0
   -0.4741   -2.3350   -1.9951 C   0  0  0  0  0  0  0  0  0  0  0  0
   -0.2463   -1.5148   -2.7090 H   0  0  0  0  0  0  0  0  0  0  0  0
   -0.7183   -3.2277   -2.6055 H   0  0  0  0  0  0  0  0  0  0  0  0
   -1.6608   -1.9595   -1.1345 C   0  0  0  0  0  0  0  0  0  0  0  0
   -1.6538   -0.7831   -0.3348 C   0  0  0  0  0  3  0  0  0  0  0  0
   -2.8046   -0.5205    0.4464 C   0  0  0  0  0  0  0  0  0  0  0  0
   -2.8450    0.3891    1.0659 H   0  0  0  0  0  0  0  0  0  0  0  0
   -3.9126   -1.3821    0.4625 C   0  0  0  0  0  0  0  0  0  0  0  0
   -4.7865   -1.1402    1.0873 H   0  0  0  0  0  0  0  0  0  0  0  0
   -3.9008   -2.5462   -0.3174 C   0  0  0  0  0  0  0  0  0  0  0  0
   -4.7601   -3.2332   -0.3155 H   0  0  0  0  0  0  0  0  0  0  0  0
   -2.7773   -2.8216   -1.1078 C   0  0  0  0  0  0  0  0  0  0  0  0
   -2.7612   -3.7300   -1.7316 H   0  0  0  0  0  0  0  0  0  0  0  0
    1.4848   -2.0040    1.6156 C   0  0  0  0  0  0  0  0  0  0  0  0
    2.0949   -2.9170    1.4349 H   0  0  0  0  0  0  0  0  0  0  0  0
    0.1181   -2.4383    2.1597 C   0  0  0  0  0  0  0  0  0  0  0  0
   -0.4220   -3.1121    1.4662 H   0  0  0  0  0  0  0  0  0  0  0  0
   -0.5443   -1.5710    2.3391 H   0  0  0  0  0  0  0  0  0  0  0  0
    0.2549   -2.9800    3.1178 H   0  0  0  0  0  0  0  0  0  0  0  0
    2.2437   -1.0871    2.5820 C   0  0  0  0  0  0  0  0  0  0  0  0
    1.7407   -0.1061    2.6882 H   0  0  0  0  0  0  0  0  0  0  0  0
    2.2919   -1.5553    3.5865 H   0  0  0  0  0  0  0  0  0  0  0  0
    3.2861   -0.8987    2.2583 H   0  0  0  0  0  0  0  0  0  0  0  0
    3.0726   -0.8604   -0.6288 C   0  0  0  0  0  0  0  0  0  0  0  0
    3.3719   -0.0099    0.0220 H   0  0  0  0  0  0  0  0  0  0  0  0
    3.0958   -0.3896   -2.0892 C   0  0  0  0  0  0  0  0  0  0  0  0
    2.4122    0.4616   -2.2673 H   0  0  0  0  0  0  0  0  0  0  0  0
    2.8070   -1.2050   -2.7838 H   0  0  0  0  0  0  0  0  0  0  0  0
    4.1238   -0.0792   -2.3676 H   0  0  0  0  0  0  0  0  0  0  0  0
    4.0383   -2.0304   -0.4005 C   0  0  0  0  0  0  0  0  0  0  0  0
    3.7378   -2.9305   -0.9750 H   0  0  0  0  0  0  0  0  0  0  0  0
    5.0528   -1.7498   -0.7501 H   0  0  0  0  0  0  0  0  0  0  0  0
    4.1263   -2.3187    0.6644 H   0  0  0  0  0  0  0  0  0  0  0  0
  1 18  1  0  0  0  0
  2  3  1  0  0  0  0
  2  1  1  0  0  0  0
  4  2  1  0  0  0  0
  5  2  1  0  0  0  0
  5  8  1  0  0  0  0
  6  5  1  0  0  0  0
  7  5  1  0  0  0  0
  8 16  2  0  0  0  0
  8  9  1  0  0  0  0
  9 10  2  0  0  0  0
 10 12  1  0  0  0  0
 10 11  1  0  0  0  0
 12 13  1  0  0  0  0
 14 15  1  0  0  0  0
 14 12  2  0  0  0  0
 16 14  1  0  0  0  0
 17 16  1  0  0  0  0
 18 20  1  0  0  0  0
 18 24  1  0  0  0  0
 19 18  1  0  0  0  0
 20 22  1  0  0  0  0
 20 23  1  0  0  0  0
 21 20  1  0  0  0  0
 24 25  1  0  0  0  0
 24 26  1  0  0  0  0
 27 24  1  0  0  0  0
 28 34  1  0  0  0  0
 28  1  1  0  0  0  0
 28 29  1  0  0  0  0
 30 28  1  0  0  0  0
 31 30  1  0  0  0  0
 32 30  1  0  0  0  0
 33 30  1  0  0  0  0
 34 37  1  0  0  0  0
 35 34  1  0  0  0  0
 36 34  1  0  0  0  0
M  END
