16
q = 0.0, confidence = 0.994

 41 45  0  0  1  0  0  0  0  0999 V2000
    1.6083    0.1235    0.7308 P   0  0  2  0  0  0  0  0  0  0  0  0
    1.3497   -1.4461    4.1123 O   0  0  0  0  0  0  0  0  0  0  0  0
    1.4141   -1.1442    1.8664 O   0  0  0  0  0  0  0  0  0  0  0  0
    3.3627    0.0126    0.5763 N   0  0  0  0  0  0  0  0  0  0  0  0
    1.3770    1.3572    1.8571 N   0  0  1  0  0  0  0  0  0  0  0  0
    3.8671    1.1449   -0.1599 C   0  0  0  0  0  0  0  0  0  0  0  0
    4.6923    2.0647    0.5053 C   0  0  0  0  0  0  0  0  0  0  0  0
    4.9676    1.8488    1.5475 H   0  0  0  0  0  0  0  0  0  0  0  0
    5.1313    3.2261   -0.1450 C   0  0  0  0  0  0  0  0  0  0  0  0
    5.7797    3.9413    0.3829 H   0  0  0  0  0  0  0  0  0  0  0  0
    4.7244    3.4787   -1.4668 C   0  0  0  0  0  0  0  0  0  0  0  0
    5.0577    4.3924   -1.9817 H   0  0  0  0  0  0  0  0  0  0  0  0
    3.8896    2.5732   -2.1302 C   0  0  0  0  0  0  0  0  0  0  0  0
    3.5671    2.7733   -3.1637 H   0  0  0  0  0  0  0  0  0  0  0  0
    3.4486    1.3844   -1.5009 C   0  0  0  0  0  0  0  0  0  0  0  0
    2.5746    0.4605   -2.2377 C   0  0  0  0  0  3  0  0  0  0  0  0
    2.1947    0.8427   -3.1996 H   0  0  0  0  0  0  0  0  0  0  0  0
    2.4957   -0.9453   -2.0697 C   0  0  0  0  0  3  0  0  0  0  0  0
    2.0543   -1.4933   -2.9180 H   0  0  0  0  0  0  0  0  0  0  0  0
    3.3015   -1.7668   -1.1582 C   0  0  0  0  0  0  0  0  0  0  0  0
    3.6239   -3.0952   -1.5239 C   0  0  0  0  0  0  0  0  0  0  0  0
    3.2507   -3.4849   -2.4837 H   0  0  0  0  0  0  0  0  0  0  0  0
    4.4112   -3.9011   -0.6947 C   0  0  0  0  0  0  0  0  0  0  0  0
    4.6552   -4.9291   -1.0022 H   0  0  0  0  0  0  0  0  0  0  0  0
    4.8828   -3.4013    0.5318 C   0  0  0  0  0  0  0  0  0  0  0  0
    5.4914   -4.0366    1.1924 H   0  0  0  0  0  0  0  0  0  0  0  0
    4.5534   -2.0971    0.9252 C   0  0  0  0  0  0  0  0  0  0  0  0
    4.8727   -1.6919    1.8958 H   0  0  0  0  0  0  0  0  0  0  0  0
    3.7761   -1.2797    0.0912 C   0  0  0  0  0  0  0  0  0  0  0  0
    0.4381    2.4800    1.6739 C   0  0  0  0  0  0  0  0  0  0  0  0
   -0.4029    2.1902    1.0106 H   0  0  0  0  0  0  0  0  0  0  0  0
    0.9448    3.3490    1.2073 H   0  0  0  0  0  0  0  0  0  0  0  0
   -0.0489    2.7819    3.1040 C   0  0  0  0  0  0  0  0  0  0  0  0
    0.6049    3.5457    3.5745 H   0  0  0  0  0  0  0  0  0  0  0  0
   -1.0829    3.1783    3.1056 H   0  0  0  0  0  0  0  0  0  0  0  0
    0.0767    1.4433    3.8486 C   0  0  0  0  0  0  0  0  0  0  0  0
   -0.7860    0.7827    3.6340 H   0  0  0  0  0  0  0  0  0  0  0  0
    0.1615    1.5511    4.9462 H   0  0  0  0  0  0  0  0  0  0  0  0
    1.3566    0.8392    3.2314 C   0  0  1  0  0  0  0  0  0  0  0  0
    2.2617    1.1501    3.8036 H   0  0  0  0  0  0  0  0  0  0  0  0
    1.3722   -0.6918    3.1757 C   0  0  0  0  0  0  0  0  0  0  0  0
  1  4  1  1  0  0  0
  1  5  1  0  0  0  0
  1  3  1  0  0  0  0
  3 41  1  0  0  0  0
  5 30  1  6  0  0  0
  5 39  1  0  0  0  0
  6  7  1  0  0  0  0
  6  4  1  0  0  0  0
  7  8  1  0  0  0  0
  9 10  1  0  0  0  0
  9  7  2  0  0  0  0
 11  9  1  0  0  0  0
 12 11  1  0  0  0  0
 13 15  1  0  0  0  0
 13 11  2  0  0  0  0
 14 13  1  0  0  0  0
 15  6  2  0  0  0  0
 16 18  1  0  0  0  0
 16 15  1  0  0  0  0
 17 16  1  0  0  0  0
 18 20  1  0  0  0  0
 19 18  1  0  0  0  0
 20 29  1  0  0  0  0
 21 20  2  0  0  0  0
 21 23  1  0  0  0  0
 22 21  1  0  0  0  0
 23 25  2  0  0  0  0
 24 23  1  0  0  0  0
 25 27  1  0  0  0  0
 25 26  1  0  0  0  0
 27 28  1  0  0  0  0
 29  4  1  0  0  0  0
 29 27  2  0  0  0  0
 30 33  1  0  0  0  0
 31 30  1  0  0  0  0
 32 30  1  0  0  0  0
 33 35  1  0  0  0  0
 33 34  1  0  0  0  0
 33 36  1  0  0  0  0
 36 38  1  0  0  0  0
 37 36  1  0  0  0  0
 39 40  1  1  0  0  0
 39 36  1  0  0  0  0
 41 39  1  0  0  0  0
 41  2  2  0  0  0  0
M  END
