1,6
q = -1.0

 42 44  0  0  0  0  0  0  0  0999 V2000
   -1.4670   -0.1155   -0.5271 P   0  0  0  0  0  0  0  0  0  0  0  0
   -1.9739    0.3176    1.1958 C   0  0  0  0  0  0  0  0  0  0  0  0
   -2.0635    1.4209    1.2561 H   0  0  0  0  0  0  0  0  0  0  0  0
   -2.9567   -0.1212    1.4556 H   0  0  0  0  0  0  0  0  0  0  0  0
   -0.8498   -0.1815    2.0809 C   0  0  0  0  0  0  0  0  0  0  0  0
    0.4673   -0.2689    1.5508 C   0  0  0  0  0  3  0  0  0  0  0  0
    1.4958   -0.7686    2.3663 C   0  0  0  0  0  0  0  0  0  0  0  0
    2.5181   -0.8682    1.9739 H   0  0  0  0  0  0  0  0  0  0  0  0
    1.2330   -1.1732    3.6865 C   0  0  0  0  0  0  0  0  0  0  0  0
    2.0531   -1.5679    4.3064 H   0  0  0  0  0  0  0  0  0  0  0  0
   -0.0654   -1.0837    4.2082 C   0  0  0  0  0  0  0  0  0  0  0  0
   -0.2762   -1.4089    5.2381 H   0  0  0  0  0  0  0  0  0  0  0  0
   -1.1017   -0.5921    3.4024 C   0  0  0  0  0  0  0  0  0  0  0  0
   -2.1293   -0.5433    3.7951 H   0  0  0  0  0  0  0  0  0  0  0  0
   -2.1320   -1.8424   -0.7518 C   0  0  0  0  0  0  0  0  0  0  0  0
   -3.1805   -1.6977   -1.0821 H   0  0  0  0  0  0  0  0  0  0  0  0
   -1.5828   -2.3009   -1.5966 H   0  0  0  0  0  0  0  0  0  0  0  0
   -2.1012   -2.6832    0.5001 C   0  0  0  0  0  0  0  0  0  0  0  0
   -0.9042   -3.2436    0.9921 C   0  0  0  0  0  0  0  0  0  0  0  0
    0.0354   -3.0881    0.4450 H   0  0  0  0  0  0  0  0  0  0  0  0
   -0.8987   -3.9672    2.1916 C   0  0  0  0  0  0  0  0  0  0  0  0
    0.0481   -4.3837    2.5662 H   0  0  0  0  0  0  0  0  0  0  0  0
   -2.0854   -4.1428    2.9207 C   0  0  0  0  0  0  0  0  0  0  0  0
   -2.0763   -4.7055    3.8664 H   0  0  0  0  0  0  0  0  0  0  0  0
   -3.2832   -3.5941    2.4383 C   0  0  0  0  0  0  0  0  0  0  0  0
   -4.2206   -3.7307    2.9988 H   0  0  0  0  0  0  0  0  0  0  0  0
   -3.2894   -2.8700    1.2363 C   0  0  0  0  0  0  0  0  0  0  0  0
   -4.2320   -2.4409    0.8590 H   0  0  0  0  0  0  0  0  0  0  0  0
   -2.3962    0.8808   -1.7864 C   0  0  0  0  0  0  0  0  0  0  0  0
   -1.9217    1.8810   -1.7935 H   0  0  0  0  0  0  0  0  0  0  0  0
   -2.1248    0.4207   -2.7582 H   0  0  0  0  0  0  0  0  0  0  0  0
   -3.8811    0.9236   -1.5479 C   0  0  0  0  0  0  0  0  0  0  0  0
   -4.7470    0.0240   -2.2062 C   0  0  0  0  0  0  0  0  0  0  0  0
   -4.3338   -0.6783   -2.9476 H   0  0  0  0  0  0  0  0  0  0  0  0
   -6.1258    0.0293   -1.9452 C   0  0  0  0  0  0  0  0  0  0  0  0
   -6.7838   -0.6773   -2.4735 H   0  0  0  0  0  0  0  0  0  0  0  0
   -6.6644    0.9389   -1.0223 C   0  0  0  0  0  0  0  0  0  0  0  0
   -7.7455    0.9455   -0.8175 H   0  0  0  0  0  0  0  0  0  0  0  0
   -5.8167    1.8503   -0.3720 C   0  0  0  0  0  0  0  0  0  0  0  0
   -6.2317    2.5785    0.3412 H   0  0  0  0  0  0  0  0  0  0  0  0
   -4.4391    1.8421   -0.6322 C   0  0  0  0  0  0  0  0  0  0  0  0
   -3.7876    2.5709   -0.1247 H   0  0  0  0  0  0  0  0  0  0  0  0
  1  2  1  0  0  0  0
  2  3  1  0  0  0  0
  2  4  1  0  0  0  0
  2  5  1  0  0  0  0
  5 13  1  0  0  0  0
  6  5  2  0  0  0  0
  6  7  1  0  0  0  0
  7  9  2  0  0  0  0
  8  7  1  0  0  0  0
  9 11  1  0  0  0  0
  9 10  1  0  0  0  0
 11 12  1  0  0  0  0
 13 14  1  0  0  0  0
 13 11  2  0  0  0  0
 15  1  1  0  0  0  0
 15 18  1  0  0  0  0
 16 15  1  0  0  0  0
 17 15  1  0  0  0  0
 18 19  2  0  0  0  0
 18 27  1  0  0  0  0
 19 21  1  0  0  0  0
 20 19  1  0  0  0  0
 21 22  1  0  0  0  0
 21 23  2  0  0  0  0
 23 24  1  0  0  0  0
 25 23  1  0  0  0  0
 25 26  1  0  0  0  0
 27 25  2  0  0  0  0
 28 27  1  0  0  0  0
 29 32  1  0  0  0  0
 29  1  1  0  0  0  0
 30 29  1  0  0  0  0
 31 29  1  0  0  0  0
 32 41  1  0  0  0  0
 33 35  1  0  0  0  0
 33 32  2  0  0  0  0
 34 33  1  0  0  0  0
 35 37  2  0  0  0  0
 36 35  1  0  0  0  0
 37 38  1  0  0  0  0
 37 39  1  0  0  0  0
 39 40  1  0  0  0  0
 41 39  2  0  0  0  0
 41 42  1  0  0  0  0
M  END
