1,2
q = -1.0

 29 30  0  0  0  0  0  0  0  0999 V2000
   -1.5797   -1.1478   -1.2357 P   0  0  0  0  0  0  0  0  0  0  0  0
    0.7580   -2.2252   -1.4711 C   0  0  0  0  0  3  0  0  0  0  0  0
   -0.6326   -2.5001   -2.0929 C   0  0  0  0  0  0  0  0  0  0  0  0
   -3.2185   -1.7631   -0.7154 C   0  0  0  0  0  0  0  0  0  0  0  0
   -4.2439   -2.0346   -1.6472 C   0  0  0  0  0  0  0  0  0  0  0  0
   -5.4694   -2.5529   -1.2057 C   0  0  0  0  0  0  0  0  0  0  0  0
   -5.6766   -2.8070    0.1614 C   0  0  0  0  0  0  0  0  0  0  0  0
   -4.6553   -2.5467    1.0878 C   0  0  0  0  0  0  0  0  0  0  0  0
   -3.4271   -2.0275    0.6524 C   0  0  0  0  0  0  0  0  0  0  0  0
   -1.8623    0.2181   -2.4204 C   0  0  0  0  0  0  0  0  0  0  0  0
   -3.0395    0.9950   -2.3981 C   0  0  0  0  0  0  0  0  0  0  0  0
   -3.1491    2.1332   -3.2124 C   0  0  0  0  0  0  0  0  0  0  0  0
   -2.0902    2.5086   -4.0533 C   0  0  0  0  0  0  0  0  0  0  0  0
   -0.9165    1.7364   -4.0816 C   0  0  0  0  0  0  0  0  0  0  0  0
   -0.7990    0.6005   -3.2693 C   0  0  0  0  0  0  0  0  0  0  0  0
    1.2302   -3.1390   -1.0591 H   0  0  0  0  0  0  0  0  0  0  0  0
    1.4656   -1.7937   -2.2104 H   0  0  0  0  0  0  0  0  0  0  0  0
   -0.7089   -2.4683   -3.2008 H   0  0  0  0  0  0  0  0  0  0  0  0
   -1.0704   -3.4599   -1.7500 H   0  0  0  0  0  0  0  0  0  0  0  0
   -4.0845   -1.8337   -2.7181 H   0  0  0  0  0  0  0  0  0  0  0  0
   -6.2687   -2.7617   -1.9331 H   0  0  0  0  0  0  0  0  0  0  0  0
   -6.6420   -3.2098    0.5040 H   0  0  0  0  0  0  0  0  0  0  0  0
   -4.8146   -2.7363    2.1597 H   0  0  0  0  0  0  0  0  0  0  0  0
   -2.6250   -1.8075    1.3729 H   0  0  0  0  0  0  0  0  0  0  0  0
   -3.8710    0.7111   -1.7361 H   0  0  0  0  0  0  0  0  0  0  0  0
   -4.0714    2.7334   -3.1852 H   0  0  0  0  0  0  0  0  0  0  0  0
   -2.1778    3.4047   -4.6859 H   0  0  0  0  0  0  0  0  0  0  0  0
   -0.0797    2.0256   -4.7354 H   0  0  0  0  0  0  0  0  0  0  0  0
    0.1365    0.0211   -3.2727 H   0  0  0  0  0  0  0  0  0  0  0  0
  1  4  1  0  0  0  0
  2 16  1  0  0  0  0
  3 19  1  0  0  0  0
  3  2  1  0  0  0  0
  3  1  1  0  0  0  0
  4  9  1  0  0  0  0
  5  6  1  0  0  0  0
  5  4  2  0  0  0  0
  6  7  2  0  0  0  0
  7 22  1  0  0  0  0
  7  8  1  0  0  0  0
  8 23  1  0  0  0  0
  9  8  2  0  0  0  0
  9 24  1  0  0  0  0
 10 11  1  0  0  0  0
 10  1  1  0  0  0  0
 11 25  1  0  0  0  0
 12 26  1  0  0  0  0
 12 11  2  0  0  0  0
 13 12  1  0  0  0  0
 14 13  2  0  0  0  0
 14 15  1  0  0  0  0
 15 10  2  0  0  0  0
 17  2  1  0  0  0  0
 18  3  1  0  0  0  0
 20  5  1  0  0  0  0
 21  6  1  0  0  0  0
 27 13  1  0  0  0  0
 28 14  1  0  0  0  0
 29 15  1  0  0  0  0
M  END
