1,23
q = -1.0, confidence = 0.008

 51 54  0  0  0  0  0  0  0  0999 V2000
    1.4247   -0.7532   -0.8699 P   0  0  1  0  0  0  0  0  0  0  0  0
   -1.4518   -0.7870   -0.7533 P   0  0  0  0  0  0  0  0  0  0  0  0
    3.0540   -1.4751   -0.5109 C   0  0  0  0  0  0  0  0  0  0  0  0
    3.8977   -0.7698    0.3758 C   0  0  0  0  0  0  0  0  0  0  0  0
    3.5675    0.2009    0.7776 H   0  0  0  0  0  0  0  0  0  0  0  0
    5.1470   -1.2965    0.7237 C   0  0  0  0  0  0  0  0  0  0  0  0
    5.8065   -0.7391    1.4055 H   0  0  0  0  0  0  0  0  0  0  0  0
    5.5574   -2.5358    0.2012 C   0  0  0  0  0  0  0  0  0  0  0  0
    6.5373   -2.9518    0.4789 H   0  0  0  0  0  0  0  0  0  0  0  0
    4.7201   -3.2417   -0.6760 C   0  0  0  0  0  0  0  0  0  0  0  0
    5.0417   -4.2101   -1.0870 H   0  0  0  0  0  0  0  0  0  0  0  0
    3.4701   -2.7149   -1.0377 C   0  0  0  0  0  0  0  0  0  0  0  0
    2.8285   -3.2779   -1.7305 H   0  0  0  0  0  0  0  0  0  0  0  0
    1.7610    0.9913   -1.5044 C   0  0  0  0  0  0  0  0  0  0  0  0
    2.9076    1.2342   -2.2832 C   0  0  0  0  0  0  0  0  0  0  0  0
    3.6236    0.4225   -2.4834 H   0  0  0  0  0  0  0  0  0  0  0  0
    3.0817    2.5064   -2.8690 C   0  0  0  0  0  0  0  0  0  0  0  0
    3.9490    2.6848   -3.5214 H   0  0  0  0  0  0  0  0  0  0  0  0
    2.1414    3.5175   -2.6513 C   0  0  0  0  0  0  0  0  0  0  0  0
    2.2784    4.5050   -3.1173 H   0  0  0  0  0  0  0  0  0  0  0  0
    1.0151    3.2915   -1.8237 C   0  0  0  0  0  0  0  0  0  0  0  0
    0.2936    4.1021   -1.6479 H   0  0  0  0  0  0  0  0  0  0  0  0
    0.8416    2.0452   -1.2303 C   0  0  0  0  0  3  0  0  0  0  0  0
    0.6545   -1.7392   -2.2596 C   0  0  0  0  0  0  0  0  0  0  0  0
    1.2720   -1.6500   -3.1758 H   0  0  0  0  0  0  0  0  0  0  0  0
    0.6636   -2.8011   -1.9374 H   0  0  0  0  0  0  0  0  0  0  0  0
   -0.7828   -1.2475   -2.4528 C   0  0  0  0  0  0  0  0  0  0  0  0
   -1.4191   -2.0170   -2.9333 H   0  0  0  0  0  0  0  0  0  0  0  0
   -0.8094   -0.3276   -3.0709 H   0  0  0  0  0  0  0  0  0  0  0  0
   -1.5375   -2.4935   -0.0262 C   0  0  0  0  0  0  0  0  0  0  0  0
   -0.6008   -2.8833    0.9508 C   0  0  0  0  0  0  0  0  0  0  0  0
    0.1258   -2.1469    1.3298 H   0  0  0  0  0  0  0  0  0  0  0  0
   -0.5771   -4.2013    1.4348 C   0  0  0  0  0  0  0  0  0  0  0  0
    0.1610   -4.4917    2.1976 H   0  0  0  0  0  0  0  0  0  0  0  0
   -1.4939   -5.1431    0.9446 C   0  0  0  0  0  0  0  0  0  0  0  0
   -1.4805   -6.1758    1.3238 H   0  0  0  0  0  0  0  0  0  0  0  0
   -2.4279   -4.7660   -0.0355 C   0  0  0  0  0  0  0  0  0  0  0  0
   -3.1452   -5.5036   -0.4259 H   0  0  0  0  0  0  0  0  0  0  0  0
   -2.4488   -3.4513   -0.5231 C   0  0  0  0  0  0  0  0  0  0  0  0
   -3.1838   -3.1701   -1.2932 H   0  0  0  0  0  0  0  0  0  0  0  0
   -3.2009   -0.2877   -0.9902 C   0  0  0  0  0  0  0  0  0  0  0  0
   -3.5135    0.6755   -1.9728 C   0  0  0  0  0  0  0  0  0  0  0  0
   -2.7282    1.0658   -2.6387 H   0  0  0  0  0  0  0  0  0  0  0  0
   -4.8248    1.1551   -2.1009 C   0  0  0  0  0  0  0  0  0  0  0  0
   -5.0596    1.8999   -2.8758 H   0  0  0  0  0  0  0  0  0  0  0  0
   -5.8338    0.6887   -1.2424 C   0  0  0  0  0  0  0  0  0  0  0  0
   -6.8613    1.0691   -1.3415 H   0  0  0  0  0  0  0  0  0  0  0  0
   -5.5282   -0.2652   -0.2593 C   0  0  0  0  0  0  0  0  0  0  0  0
   -6.3150   -0.6357    0.4147 H   0  0  0  0  0  0  0  0  0  0  0  0
   -4.2189   -0.7552   -0.1327 C   0  0  0  0  0  0  0  0  0  0  0  0
   -3.9927   -1.5096    0.6351 H   0  0  0  0  0  0  0  0  0  0  0  0
  1 24  1  6  0  0  0
  1  3  1  0  0  0  0
  2 30  1  0  0  0  0
  3  4  1  0  0  0  0
  4  6  2  0  0  0  0
  4  5  1  0  0  0  0
  6  7  1  0  0  0  0
  8  9  1  0  0  0  0
  8  6  1  0  0  0  0
 10  8  2  0  0  0  0
 11 10  1  0  0  0  0
 12 10  1  0  0  0  0
 12  3  2  0  0  0  0
 13 12  1  0  0  0  0
 14 23  1  0  0  0  0
 14  1  1  0  0  0  0
 15 14  2  0  0  0  0
 16 15  1  0  0  0  0
 17 19  2  0  0  0  0
 17 15  1  0  0  0  0
 18 17  1  0  0  0  0
 19 21  1  0  0  0  0
 20 19  1  0  0  0  0
 21 22  1  0  0  0  0
 21 23  2  0  0  0  0
 24 26  1  0  0  0  0
 25 24  1  0  0  0  0
 27 24  1  0  0  0  0
 27  2  1  0  0  0  0
 28 27  1  0  0  0  0
 29 27  1  0  0  0  0
 30 31  1  0  0  0  0
 31 32  1  0  0  0  0
 31 33  2  0  0  0  0
 33 34  1  0  0  0  0
 35 36  1  0  0  0  0
 35 33  1  0  0  0  0
 37 35  2  0  0  0  0
 38 37  1  0  0  0  0
 39 37  1  0  0  0  0
 39 30  2  0  0  0  0
 40 39  1  0  0  0  0
 41  2  1  0  0  0  0
 41 50  1  0  0  0  0
 42 41  2  0  0  0  0
 43 42  1  0  0  0  0
 44 42  1  0  0  0  0
 44 46  2  0  0  0  0
 45 44  1  0  0  0  0
 46 48  1  0  0  0  0
 47 46  1  0  0  0  0
 48 50  2  0  0  0  0
 48 49  1  0  0  0  0
 50 51  1  0  0  0  0
M  END
