1,28
q = -1.0

 37 37  0  0  0  0  0  0  0  0999 V2000
    1.9466   -0.1812   -0.0014 P   0  0  0  0  0  0  0  0  0  0  0  0
    2.1755    1.4854   -0.0916 O   0  0  0  0  0  0  0  0  0  0  0  0
    1.2569    3.5673   -0.0916 N   0  0  0  0  0  0  0  0  0  0  0  0
    1.9130   -0.4000   -2.7059 C   0  0  0  0  0  0  0  0  0  0  0  0
    1.6554    0.6773   -2.7401 H   0  0  0  0  0  0  0  0  0  0  0  0
    0.9693   -0.9728   -2.6061 H   0  0  0  0  0  0  0  0  0  0  0  0
    2.3942   -0.6690   -3.6700 H   0  0  0  0  0  0  0  0  0  0  0  0
    2.6234   -2.0452    1.9859 C   0  0  0  0  0  0  0  0  0  0  0  0
    3.1299   -2.7210    1.2704 H   0  0  0  0  0  0  0  0  0  0  0  0
    1.5514   -2.3199    2.0201 H   0  0  0  0  0  0  0  0  0  0  0  0
    3.0607   -2.2331    2.9894 H   0  0  0  0  0  0  0  0  0  0  0  0
    2.8898   -0.7103   -1.5517 C   0  0  0  0  0  0  0  0  0  0  0  0
    4.1807    0.1015   -1.7516 C   0  0  0  0  0  0  0  0  0  0  0  0
    4.9598   -0.1513   -1.0096 H   0  0  0  0  0  0  0  0  0  0  0  0
    3.9847    1.1891   -1.6963 H   0  0  0  0  0  0  0  0  0  0  0  0
    4.5912   -0.1281   -2.7577 H   0  0  0  0  0  0  0  0  0  0  0  0
    2.0624    0.3065    2.6679 C   0  0  0  0  0  0  0  0  0  0  0  0
    2.4552    0.0752    3.6803 H   0  0  0  0  0  0  0  0  0  0  0  0
    0.9733    0.0957    2.6581 H   0  0  0  0  0  0  0  0  0  0  0  0
    2.2074    1.3873    2.4778 H   0  0  0  0  0  0  0  0  0  0  0  0
    2.8116   -0.5602    1.6337 C   0  0  0  0  0  0  0  0  0  0  0  0
   -1.1271    3.9125   -0.0375 C   0  0  0  0  0  0  0  0  0  0  0  0
   -1.9741    4.6156   -0.0252 H   0  0  0  0  0  0  0  0  0  0  0  0
    3.1862   -2.2172   -1.5079 C   0  0  0  0  0  0  0  0  0  0  0  0
    3.6005   -2.5316   -2.4891 H   0  0  0  0  0  0  0  0  0  0  0  0
    2.2720   -2.8146   -1.3221 H   0  0  0  0  0  0  0  0  0  0  0  0
    3.9389   -2.4719   -0.7359 H   0  0  0  0  0  0  0  0  0  0  0  0
   -0.2528    1.6160   -0.0287 C   0  0  0  0  0  2  0  0  0  0  0  0
    4.2978   -0.1756    1.6160 C   0  0  0  0  0  0  0  0  0  0  0  0
    4.7027   -0.2502    2.6476 H   0  0  0  0  0  0  0  0  0  0  0  0
    4.4437    0.8657    1.2681 H   0  0  0  0  0  0  0  0  0  0  0  0
    4.8976   -0.8536    0.9778 H   0  0  0  0  0  0  0  0  0  0  0  0
   -1.3351    2.5197   -0.0129 C   0  0  0  0  0  3  0  0  0  0  0  0
   -2.3680    2.1370    0.0198 H   0  0  0  0  0  0  0  0  0  0  0  0
    1.0171    2.2630   -0.0703 C   0  0  0  0  0  0  0  0  0  0  0  0
    0.1889    4.3861   -0.0763 C   0  0  0  0  0  0  0  0  0  0  0  0
    0.4024    5.4700   -0.0951 H   0  0  0  0  0  0  0  0  0  0  0  0
  1 21  1  0  0  0  0
  2 35  1  0  0  0  0
  2  1  1  0  0  0  0
  3 36  1  0  0  0  0
  3 35  2  0  0  0  0
  4  6  1  0  0  0  0
  4 12  1  0  0  0  0
  5  4  1  0  0  0  0
  7  4  1  0  0  0  0
  8 10  1  0  0  0  0
  8 11  1  0  0  0  0
  9  8  1  0  0  0  0
 12 24  1  0  0  0  0
 12  1  1  0  0  0  0
 13 15  1  0  0  0  0
 13 12  1  0  0  0  0
 13 14  1  0  0  0  0
 16 13  1  0  0  0  0
 17 18  1  0  0  0  0
 19 17  1  0  0  0  0
 20 17  1  0  0  0  0
 21  8  1  0  0  0  0
 21 17  1  0  0  0  0
 22 23  1  0  0  0  0
 22 33  1  0  0  0  0
 24 26  1  0  0  0  0
 24 27  1  0  0  0  0
 25 24  1  0  0  0  0
 28 33  1  0  0  0  0
 29 21  1  0  0  0  0
 29 30  1  0  0  0  0
 31 29  1  0  0  0  0
 32 29  1  0  0  0  0
 33 34  1  0  0  0  0
 35 28  1  0  0  0  0
 36 22  2  0  0  0  0
 37 36  1  0  0  0  0
M  END
