1,2
q = -1.0

 55 60  0  0  0  0  0  0  0  0999 V2000
   -0.9140    1.2070    0.2307 P   0  0  0  0  0  0  0  0  0  0  0  0
    0.7385   -0.2586   -1.3919 C   0  0  0  0  0  3  0  0  0  0  0  0
    1.2477   -0.0023   -2.7004 C   0  0  0  0  0  0  0  0  0  0  0  0
    0.5553   -0.0058   -3.5579 H   0  0  0  0  0  0  0  0  0  0  0  0
    2.5890    0.2653   -2.9169 C   0  0  0  0  0  0  0  0  0  0  0  0
    2.9654    0.4536   -3.9351 H   0  0  0  0  0  0  0  0  0  0  0  0
    3.4967    0.3516   -1.8229 C   0  0  0  0  0  0  0  0  0  0  0  0
    4.8580    0.7261   -2.0174 C   0  0  0  0  0  0  0  0  0  0  0  0
    5.2104    0.9004   -3.0463 H   0  0  0  0  0  0  0  0  0  0  0  0
    5.7163    0.8926   -0.9414 C   0  0  0  0  0  0  0  0  0  0  0  0
    6.7630    1.1901   -1.1053 H   0  0  0  0  0  0  0  0  0  0  0  0
    5.2315    0.6957    0.3777 C   0  0  0  0  0  0  0  0  0  0  0  0
    5.9023    0.8538    1.2361 H   0  0  0  0  0  0  0  0  0  0  0  0
    3.9173    0.3069    0.5981 C   0  0  0  0  0  0  0  0  0  0  0  0
    3.5620    0.1663    1.6277 H   0  0  0  0  0  0  0  0  0  0  0  0
    3.0105    0.1000   -0.4870 C   0  0  0  0  0  0  0  0  0  0  0  0
    1.6249   -0.2682   -0.2984 C   0  0  0  0  0  0  0  0  0  0  0  0
    1.0936   -0.5018    1.0777 C   0  0  0  0  0  0  0  0  0  0  0  0
    1.6312   -1.5104    1.9502 C   0  0  0  0  0  0  0  0  0  0  0  0
    2.6321   -2.4367    1.5209 C   0  0  0  0  0  0  0  0  0  0  0  0
    3.0093   -2.3683    0.4914 H   0  0  0  0  0  0  0  0  0  0  0  0
    3.1158   -3.4142    2.3762 C   0  0  0  0  0  0  0  0  0  0  0  0
    3.8803   -4.1214    2.0205 H   0  0  0  0  0  0  0  0  0  0  0  0
    2.6302   -3.5123    3.7084 C   0  0  0  0  0  0  0  0  0  0  0  0
    3.0297   -4.2861    4.3814 H   0  0  0  0  0  0  0  0  0  0  0  0
    1.6439   -2.6459    4.1512 C   0  0  0  0  0  0  0  0  0  0  0  0
    1.2452   -2.7276    5.1744 H   0  0  0  0  0  0  0  0  0  0  0  0
    1.1074   -1.6417    3.2911 C   0  0  0  0  0  0  0  0  0  0  0  0
    0.0494   -0.7883    3.7136 C   0  0  0  0  0  0  0  0  0  0  0  0
   -0.3367   -0.8864    4.7399 H   0  0  0  0  0  0  0  0  0  0  0  0
   -0.5157    0.1253    2.8383 C   0  0  0  0  0  0  0  0  0  0  0  0
   -1.3667    0.7461    3.1547 H   0  0  0  0  0  0  0  0  0  0  0  0
   -0.0051    0.2596    1.5193 C   0  0  0  0  0  0  0  0  0  0  0  0
    0.1683    2.5941   -0.2889 C   0  0  0  0  0  0  0  0  0  0  0  0
    1.3064    2.9699    0.4488 C   0  0  0  0  0  0  0  0  0  0  0  0
    1.5708    2.4225    1.3662 H   0  0  0  0  0  0  0  0  0  0  0  0
    2.1181    4.0214   -0.0035 C   0  0  0  0  0  0  0  0  0  0  0  0
    3.0169    4.2987    0.5677 H   0  0  0  0  0  0  0  0  0  0  0  0
    1.7930    4.7045   -1.1854 C   0  0  0  0  0  0  0  0  0  0  0  0
    2.4340    5.5256   -1.5407 H   0  0  0  0  0  0  0  0  0  0  0  0
    0.6547    4.3330   -1.9205 C   0  0  0  0  0  0  0  0  0  0  0  0
    0.4009    4.8627   -2.8512 H   0  0  0  0  0  0  0  0  0  0  0  0
   -0.1538    3.2768   -1.4786 C   0  0  0  0  0  0  0  0  0  0  0  0
   -1.0338    2.9666   -2.0643 H   0  0  0  0  0  0  0  0  0  0  0  0
   -2.3224    2.0069    1.0826 C   0  0  0  0  0  0  0  0  0  0  0  0
   -2.1176    3.1649    1.8644 C   0  0  0  0  0  0  0  0  0  0  0  0
   -1.1164    3.6183    1.9289 H   0  0  0  0  0  0  0  0  0  0  0  0
   -3.1948    3.7384    2.5535 C   0  0  0  0  0  0  0  0  0  0  0  0
   -3.0352    4.6408    3.1634 H   0  0  0  0  0  0  0  0  0  0  0  0
   -4.4752    3.1659    2.4595 C   0  0  0  0  0  0  0  0  0  0  0  0
   -5.3200    3.6213    2.9989 H   0  0  0  0  0  0  0  0  0  0  0  0
   -4.6786    2.0228    1.6713 C   0  0  0  0  0  0  0  0  0  0  0  0
   -5.6826    1.5805    1.5852 H   0  0  0  0  0  0  0  0  0  0  0  0
   -3.6077    1.4359    0.9771 C   0  0  0  0  0  0  0  0  0  0  0  0
   -3.7661    0.5522    0.3330 H   0  0  0  0  0  0  0  0  0  0  0  0
  1 45  1  0  0  0  0
  1 33  1  0  0  0  0
  2 17  1  0  0  0  0
  3  2  2  0  0  0  0
  4  3  1  0  0  0  0
  5  3  1  0  0  0  0
  5  7  2  0  0  0  0
  6  5  1  0  0  0  0
  7 16  1  0  0  0  0
  8  7  1  0  0  0  0
  8 10  2  0  0  0  0
  9  8  1  0  0  0  0
 10 12  1  0  0  0  0
 11 10  1  0  0  0  0
 12 14  2  0  0  0  0
 12 13  1  0  0  0  0
 14 15  1  0  0  0  0
 16 17  2  0  0  0  0
 16 14  1  0  0  0  0
 17 18  1  0  0  0  0
 18 33  2  0  0  0  0
 18 19  1  0  0  0  0
 19 28  1  0  0  0  0
 20 19  2  0  0  0  0
 20 22  1  0  0  0  0
 21 20  1  0  0  0  0
 22 24  2  0  0  0  0
 23 22  1  0  0  0  0
 24 26  1  0  0  0  0
 24 25  1  0  0  0  0
 26 27  1  0  0  0  0
 28 29  1  0  0  0  0
 28 26  2  0  0  0  0
 29 30  1  0  0  0  0
 31 32  1  0  0  0  0
 31 29  2  0  0  0  0
 33 31  1  0  0  0  0
 34  1  1  0  0  0  0
 34 35  1  0  0  0  0
 35 36  1  0  0  0  0
 37 35  2  0  0  0  0
 37 38  1  0  0  0  0
 39 37  1  0  0  0  0
 40 39  1  0  0  0  0
 41 43  1  0  0  0  0
 41 39  2  0  0  0  0
 42 41  1  0  0  0  0
 43 34  2  0  0  0  0
 44 43  1  0  0  0  0
 45 46  1  0  0  0  0
 46 47  1  0  0  0  0
 46 48  2  0  0  0  0
 48 49  1  0  0  0  0
 50 48  1  0  0  0  0
 50 51  1  0  0  0  0
 52 50  2  0  0  0  0
 53 52  1  0  0  0  0
 54 45  2  0  0  0  0
 54 52  1  0  0  0  0
 55 54  1  0  0  0  0
M  END
