1,3
q = 0.0, confidence = 0.988

 30 29  0  0  0  0  0  0  0  0999 V2000
   -1.7542    0.7672    0.1437 P   0  0  0  0  0  0  0  0  0  0  0  0
   -0.9980   -0.8525    2.9525 O   0  0  0  0  0  0  0  0  0  0  0  0
   -0.0941   -0.9978    1.9750 C   0  0  0  0  0  2  0  0  0  0  0  0
   -2.3194   -0.3735    2.6207 C   0  0  0  0  0  0  0  0  0  0  0  0
   -2.3119    0.9758    1.9072 C   0  0  0  0  0  0  0  0  0  0  0  0
   -3.3540    0.2353   -0.7073 C   0  0  0  0  0  0  0  0  0  0  0  0
   -4.5278    1.2122   -0.5768 C   0  0  0  0  0  0  0  0  0  0  0  0
   -3.1662   -0.2162   -2.1610 C   0  0  0  0  0  0  0  0  0  0  0  0
   -1.3396    2.5167   -0.4083 C   0  0  0  0  0  0  0  0  0  0  0  0
   -1.2200    2.5728   -1.9361 C   0  0  0  0  0  0  0  0  0  0  0  0
   -2.2060    3.6492    0.1552 C   0  0  0  0  0  0  0  0  0  0  0  0
    0.7890   -1.4800    2.4672 H   0  0  0  0  0  0  0  0  0  0  0  0
   -2.8081   -1.1573    2.0031 H   0  0  0  0  0  0  0  0  0  0  0  0
   -2.8399   -0.3031    3.5954 H   0  0  0  0  0  0  0  0  0  0  0  0
   -1.6205    1.6757    2.4213 H   0  0  0  0  0  0  0  0  0  0  0  0
   -3.3247    1.4242    1.9552 H   0  0  0  0  0  0  0  0  0  0  0  0
   -3.5701   -0.6853   -0.1213 H   0  0  0  0  0  0  0  0  0  0  0  0
   -4.7083    1.5651    0.4583 H   0  0  0  0  0  0  0  0  0  0  0  0
   -5.4577    0.7090   -0.9152 H   0  0  0  0  0  0  0  0  0  0  0  0
   -4.3942    2.1027   -1.2237 H   0  0  0  0  0  0  0  0  0  0  0  0
   -2.2713   -0.8538   -2.2874 H   0  0  0  0  0  0  0  0  0  0  0  0
   -3.0765    0.6461   -2.8504 H   0  0  0  0  0  0  0  0  0  0  0  0
   -4.0564   -0.8009   -2.4735 H   0  0  0  0  0  0  0  0  0  0  0  0
   -0.3218    2.6221    0.0288 H   0  0  0  0  0  0  0  0  0  0  0  0
   -0.6757    1.6938   -2.3395 H   0  0  0  0  0  0  0  0  0  0  0  0
   -0.6903    3.4957   -2.2510 H   0  0  0  0  0  0  0  0  0  0  0  0
   -2.2221    2.5949   -2.4079 H   0  0  0  0  0  0  0  0  0  0  0  0
   -2.2511    3.6443    1.2619 H   0  0  0  0  0  0  0  0  0  0  0  0
   -3.2429    3.6136   -0.2290 H   0  0  0  0  0  0  0  0  0  0  0  0
   -1.7776    4.6271   -0.1511 H   0  0  0  0  0  0  0  0  0  0  0  0
  1  5  1  0  0  0  0
  3 12  1  0  0  0  0
  3  2  1  0  0  0  0
  4  2  1  0  0  0  0
  4 14  1  0  0  0  0
  5 16  1  0  0  0  0
  5 15  1  0  0  0  0
  5  4  1  0  0  0  0
  6  7  1  0  0  0  0
  6 17  1  0  0  0  0
  6  1  1  0  0  0  0
  7 18  1  0  0  0  0
  8  6  1  0  0  0  0
  9 24  1  0  0  0  0
  9  1  1  0  0  0  0
  9 11  1  0  0  0  0
 10  9  1  0  0  0  0
 11 28  1  0  0  0  0
 13  4  1  0  0  0  0
 19  7  1  0  0  0  0
 20  7  1  0  0  0  0
 21  8  1  0  0  0  0
 22  8  1  0  0  0  0
 23  8  1  0  0  0  0
 25 10  1  0  0  0  0
 26 10  1  0  0  0  0
 27 10  1  0  0  0  0
 29 11  1  0  0  0  0
 30 11  1  0  0  0  0
M  END
