1,3
q = -1.0

 27 28  0  0  0  0  0  0  0  0999 V2000
    1.7855   -1.4754    0.7110 P   0  0  0  0  0  0  0  0  0  0  0  0
    1.0870   -2.9728    0.8325 O   0  0  0  0  0  0  0  0  0  0  0  0
   -0.3367   -2.6045    0.6493 C   0  0  0  0  0  3  0  0  0  0  0  0
   -0.8785   -2.8369    1.5883 H   0  0  0  0  0  0  0  0  0  0  0  0
   -0.7346   -3.2071   -0.1894 H   0  0  0  0  0  0  0  0  0  0  0  0
    2.5615   -1.1794    2.3476 C   0  0  0  0  0  0  0  0  0  0  0  0
    2.4116    0.0417    3.0285 C   0  0  0  0  0  0  0  0  0  0  0  0
    1.8028    0.8431    2.5889 H   0  0  0  0  0  0  0  0  0  0  0  0
    3.0249    0.2326    4.2773 C   0  0  0  0  0  0  0  0  0  0  0  0
    2.9014    1.1913    4.8037 H   0  0  0  0  0  0  0  0  0  0  0  0
    3.7774   -0.8005    4.8549 C   0  0  0  0  0  0  0  0  0  0  0  0
    4.2538   -0.6532    5.8362 H   0  0  0  0  0  0  0  0  0  0  0  0
    3.9165   -2.0288    4.1842 C   0  0  0  0  0  0  0  0  0  0  0  0
    4.4994   -2.8432    4.6408 H   0  0  0  0  0  0  0  0  0  0  0  0
    3.3139   -2.2197    2.9343 C   0  0  0  0  0  0  0  0  0  0  0  0
    3.4177   -3.1807    2.4074 H   0  0  0  0  0  0  0  0  0  0  0  0
    3.2413   -1.7525   -0.3552 C   0  0  0  0  0  0  0  0  0  0  0  0
    3.1706   -2.7141   -1.3840 C   0  0  0  0  0  0  0  0  0  0  0  0
    2.2593   -3.3171   -1.4934 H   0  0  0  0  0  0  0  0  0  0  0  0
    4.2581   -2.8771   -2.2554 C   0  0  0  0  0  0  0  0  0  0  0  0
    4.2041   -3.6300   -3.0564 H   0  0  0  0  0  0  0  0  0  0  0  0
    5.4087   -2.0846   -2.1110 C   0  0  0  0  0  0  0  0  0  0  0  0
    6.2583   -2.2168   -2.7984 H   0  0  0  0  0  0  0  0  0  0  0  0
    5.4777   -1.1256   -1.0863 C   0  0  0  0  0  0  0  0  0  0  0  0
    6.3784   -0.5042   -0.9690 H   0  0  0  0  0  0  0  0  0  0  0  0
    4.3976   -0.9585   -0.2090 C   0  0  0  0  0  0  0  0  0  0  0  0
    4.4540   -0.2097    0.5962 H   0  0  0  0  0  0  0  0  0  0  0  0
  1  2  1  0  0  0  0
  1  6  1  0  0  0  0
  3  2  1  0  0  0  0
  3  4  1  0  0  0  0
  5  3  1  0  0  0  0
  6 15  2  0  0  0  0
  6  7  1  0  0  0  0
  7  9  2  0  0  0  0
  8  7  1  0  0  0  0
  9 10  1  0  0  0  0
  9 11  1  0  0  0  0
 11 12  1  0  0  0  0
 13 14  1  0  0  0  0
 13 11  2  0  0  0  0
 15 13  1  0  0  0  0
 16 15  1  0  0  0  0
 17 26  1  0  0  0  0
 17  1  1  0  0  0  0
 18 17  2  0  0  0  0
 19 18  1  0  0  0  0
 20 22  2  0  0  0  0
 20 18  1  0  0  0  0
 21 20  1  0  0  0  0
 22 24  1  0  0  0  0
 23 22  1  0  0  0  0
 24 25  1  0  0  0  0
 24 26  2  0  0  0  0
 26 27  1  0  0  0  0
M  END
