1,2
q = -1.0

 50 51  0  0  1  0  0  0  0  0999 V2000
   -0.6230   -0.9177   -0.6652 P   0  0  0  0  0  0  0  0  0  0  0  0
   -0.0364    1.8122   -0.5994 C   0  0  0  0  0  3  0  0  0  0  0  0
    0.5314    3.0833   -0.8350 C   0  0  0  0  0  0  0  0  0  0  0  0
    1.6035    3.2310   -0.6374 H   0  0  0  0  0  0  0  0  0  0  0  0
   -0.2546    4.1487   -1.3021 C   0  0  0  0  0  0  0  0  0  0  0  0
    0.2110    5.1310   -1.4811 H   0  0  0  0  0  0  0  0  0  0  0  0
   -1.6275    3.9684   -1.5409 C   0  0  0  0  0  0  0  0  0  0  0  0
   -2.2438    4.8029   -1.9086 H   0  0  0  0  0  0  0  0  0  0  0  0
   -2.2101    2.7165   -1.3027 C   0  0  0  0  0  0  0  0  0  0  0  0
   -3.2891    2.5682   -1.4718 H   0  0  0  0  0  0  0  0  0  0  0  0
   -1.4271    1.6413   -0.8400 C   0  0  0  0  0  0  0  0  0  0  0  0
   -2.0740    0.2996   -0.5332 C   0  0  2  0  0  0  0  0  0  0  0  0
   -2.8163    0.0236   -1.3119 H   0  0  0  0  0  0  0  0  0  0  0  0
   -2.8026    0.3571    0.8002 C   0  0  0  0  0  0  0  0  0  0  0  0
   -2.1900    0.9195    1.9404 C   0  0  0  0  0  0  0  0  0  0  0  0
   -1.1586    1.2966    1.8617 H   0  0  0  0  0  0  0  0  0  0  0  0
   -2.8822    0.9991    3.1562 C   0  0  0  0  0  0  0  0  0  0  0  0
   -2.3850    1.4353    4.0361 H   0  0  0  0  0  0  0  0  0  0  0  0
   -4.2051    0.5351    3.2532 C   0  0  0  0  0  0  0  0  0  0  0  0
   -4.7486    0.6035    4.2077 H   0  0  0  0  0  0  0  0  0  0  0  0
   -4.8337   -0.0004    2.1193 C   0  0  0  0  0  0  0  0  0  0  0  0
   -5.8760   -0.3496    2.1768 H   0  0  0  0  0  0  0  0  0  0  0  0
   -4.1369   -0.0840    0.9033 C   0  0  0  0  0  0  0  0  0  0  0  0
   -4.6397   -0.4937    0.0123 H   0  0  0  0  0  0  0  0  0  0  0  0
   -0.9431   -2.5010    0.3624 C   0  0  0  0  0  0  0  0  0  0  0  0
   -2.3815   -3.0309    0.2360 C   0  0  0  0  0  0  0  0  0  0  0  0
   -2.6479   -3.3207   -0.7965 H   0  0  0  0  0  0  0  0  0  0  0  0
   -3.1252   -2.3004    0.6030 H   0  0  0  0  0  0  0  0  0  0  0  0
   -2.4747   -3.9399    0.8683 H   0  0  0  0  0  0  0  0  0  0  0  0
    0.0666   -3.5872   -0.0556 C   0  0  0  0  0  0  0  0  0  0  0  0
   -0.0203   -4.4313    0.6614 H   0  0  0  0  0  0  0  0  0  0  0  0
    1.1052   -3.2050   -0.0099 H   0  0  0  0  0  0  0  0  0  0  0  0
   -0.1376   -3.9957   -1.0636 H   0  0  0  0  0  0  0  0  0  0  0  0
   -0.6580   -2.1371    1.8347 C   0  0  0  0  0  0  0  0  0  0  0  0
   -0.7696   -3.0563    2.4486 H   0  0  0  0  0  0  0  0  0  0  0  0
   -1.3622   -1.3820    2.2274 H   0  0  0  0  0  0  0  0  0  0  0  0
    0.3754   -1.7595    1.9580 H   0  0  0  0  0  0  0  0  0  0  0  0
   -0.5186   -1.3202   -2.5416 C   0  0  0  0  0  0  0  0  0  0  0  0
   -0.6537   -0.0100   -3.3416 C   0  0  0  0  0  0  0  0  0  0  0  0
   -0.4977   -0.2488   -4.4151 H   0  0  0  0  0  0  0  0  0  0  0  0
    0.1014    0.7397   -3.0396 H   0  0  0  0  0  0  0  0  0  0  0  0
   -1.6522    0.4566   -3.2458 H   0  0  0  0  0  0  0  0  0  0  0  0
   -1.6155   -2.2942   -2.9997 C   0  0  0  0  0  0  0  0  0  0  0  0
   -1.5582   -2.4077   -4.1032 H   0  0  0  0  0  0  0  0  0  0  0  0
   -2.6328   -1.9215   -2.7621 H   0  0  0  0  0  0  0  0  0  0  0  0
   -1.5013   -3.3026   -2.5598 H   0  0  0  0  0  0  0  0  0  0  0  0
    0.8825   -1.8954   -2.8315 C   0  0  0  0  0  0  0  0  0  0  0  0
    1.0653   -2.8656   -2.3378 H   0  0  0  0  0  0  0  0  0  0  0  0
    1.6721   -1.1919   -2.4996 H   0  0  0  0  0  0  0  0  0  0  0  0
    0.9877   -2.0457   -3.9270 H   0  0  0  0  0  0  0  0  0  0  0  0
  1 12  1  0  0  0  0
  1 25  1  0  0  0  0
  3  4  1  0  0  0  0
  3  2  1  0  0  0  0
  5  3  2  0  0  0  0
  6  5  1  0  0  0  0
  7  9  2  0  0  0  0
  7  5  1  0  0  0  0
  8  7  1  0  0  0  0
  9 11  1  0  0  0  0
 10  9  1  0  0  0  0
 11  2  2  0  0  0  0
 11 12  1  0  0  0  0
 12 13  1  6  0  0  0
 12 14  1  0  0  0  0
 14 23  2  0  0  0  0
 14 15  1  0  0  0  0
 15 17  2  0  0  0  0
 16 15  1  0  0  0  0
 17 19  1  0  0  0  0
 17 18  1  0  0  0  0
 19 20  1  0  0  0  0
 21 22  1  0  0  0  0
 21 19  2  0  0  0  0
 23 21  1  0  0  0  0
 24 23  1  0  0  0  0
 25 34  1  0  0  0  0
 26 25  1  0  0  0  0
 26 28  1  0  0  0  0
 26 29  1  0  0  0  0
 27 26  1  0  0  0  0
 30 32  1  0  0  0  0
 30 25  1  0  0  0  0
 30 31  1  0  0  0  0
 33 30  1  0  0  0  0
 34 37  1  0  0  0  0
 34 36  1  0  0  0  0
 34 35  1  0  0  0  0
 38  1  1  0  0  0  0
 39 42  1  0  0  0  0
 39 41  1  0  0  0  0
 39 38  1  0  0  0  0
 40 39  1  0  0  0  0
 43 45  1  0  0  0  0
 43 46  1  0  0  0  0
 43 38  1  0  0  0  0
 44 43  1  0  0  0  0
 47 38  1  0  0  0  0
 47 49  1  0  0  0  0
 47 48  1  0  0  0  0
 50 47  1  0  0  0  0
M  END
