1,30
q = -1.0

 66 69  0  0  1  0  0  0  0  0999 V2000
    2.1683   -0.2588   -0.4268 P   0  0  0  0  0  0  0  0  0  0  0  0
    2.8610   -1.4294    0.8261 C   0  0  0  0  0  0  0  0  0  0  0  0
    2.0089   -1.9333    1.8266 C   0  0  0  0  0  0  0  0  0  0  0  0
    0.9683   -1.5672    1.8585 H   0  0  0  0  0  0  0  0  0  0  0  0
    2.4920   -2.8658    2.7584 C   0  0  0  0  0  0  0  0  0  0  0  0
    1.8228   -3.2541    3.5414 H   0  0  0  0  0  0  0  0  0  0  0  0
    3.8273   -3.2937    2.6972 C   0  0  0  0  0  0  0  0  0  0  0  0
    4.2077   -4.0208    3.4308 H   0  0  0  0  0  0  0  0  0  0  0  0
    4.6831   -2.7860    1.7043 C   0  0  0  0  0  0  0  0  0  0  0  0
    5.7331   -3.1139    1.6611 H   0  0  0  0  0  0  0  0  0  0  0  0
    4.2045   -1.8549    0.7717 C   0  0  0  0  0  0  0  0  0  0  0  0
    4.8815   -1.4469    0.0043 H   0  0  0  0  0  0  0  0  0  0  0  0
    3.5687    0.8974   -0.6979 C   0  0  0  0  0  0  0  0  0  0  0  0
    3.8502    1.8372    0.3180 C   0  0  0  0  0  0  0  0  0  0  0  0
    3.2289    1.8681    1.2257 H   0  0  0  0  0  0  0  0  0  0  0  0
    4.9091    2.7417    0.1700 C   0  0  0  0  0  0  0  0  0  0  0  0
    5.1165    3.4710    0.9676 H   0  0  0  0  0  0  0  0  0  0  0  0
    5.6966    2.7254   -0.9938 C   0  0  0  0  0  0  0  0  0  0  0  0
    6.5251    3.4403   -1.1104 H   0  0  0  0  0  0  0  0  0  0  0  0
    5.4201    1.7975   -2.0083 C   0  0  0  0  0  0  0  0  0  0  0  0
    6.0320    1.7796   -2.9232 H   0  0  0  0  0  0  0  0  0  0  0  0
    4.3621    0.8850   -1.8630 C   0  0  0  0  0  0  0  0  0  0  0  0
    4.1631    0.1632   -2.6682 H   0  0  0  0  0  0  0  0  0  0  0  0
    2.0702   -1.3078   -1.9797 C   0  0  0  0  0  0  0  0  0  0  0  0
    2.0265   -0.5901   -2.8251 H   0  0  0  0  0  0  0  0  0  0  0  0
    2.9792   -1.9333   -2.1039 H   0  0  0  0  0  0  0  0  0  0  0  0
    0.7800   -2.1434   -1.9220 C   0  0  0  0  0  0  0  0  0  0  0  0
    0.8977   -2.9594   -1.1798 H   0  0  0  0  0  0  0  0  0  0  0  0
    0.6112   -2.6296   -2.9075 H   0  0  0  0  0  0  0  0  0  0  0  0
   -0.4141   -1.2974   -1.5309 C   0  0  1  0  0  3  0  0  0  0  0  0
   -1.2659   -1.5174   -0.3858 C   0  0  0  0  0  0  0  0  0  0  0  0
   -1.2161   -2.3773    0.2934 H   0  0  0  0  0  0  0  0  0  0  0  0
   -2.1480   -0.4003   -0.2546 C   0  0  0  0  0  0  0  0  0  0  0  0
   -1.8905    0.4776   -1.3962 C   0  0  0  0  0  0  0  0  0  0  0  0
   -2.4249    1.4043   -1.6269 H   0  0  0  0  0  0  0  0  0  0  0  0
   -0.8724   -0.0985   -2.2052 C   0  0  0  0  0  0  0  0  0  0  0  0
   -0.4795    0.3125   -3.1425 H   0  0  0  0  0  0  0  0  0  0  0  0
   -3.2032   -0.2923    0.8242 C   0  0  2  0  0  0  0  0  0  0  0  0
   -3.0123   -1.1578    1.4947 H   0  0  0  0  0  0  0  0  0  0  0  0
   -4.6704   -0.4506    0.3189 C   0  0  1  0  0  0  0  0  0  0  0  0
   -5.2662   -0.5198    1.2588 H   0  0  0  0  0  0  0  0  0  0  0  0
   -5.1574    0.8191   -0.3984 C   0  0  0  0  0  0  0  0  0  0  0  0
   -6.2188    0.6940   -0.7015 H   0  0  0  0  0  0  0  0  0  0  0  0
   -4.5892    0.9616   -1.3415 H   0  0  0  0  0  0  0  0  0  0  0  0
   -5.0137    2.0656    0.4852 C   0  0  0  0  0  0  0  0  0  0  0  0
   -5.3426    2.9716   -0.0680 H   0  0  0  0  0  0  0  0  0  0  0  0
   -5.6985    1.9717    1.3599 H   0  0  0  0  0  0  0  0  0  0  0  0
   -3.5824    2.2603    1.0125 C   0  0  2  0  0  0  0  0  0  0  0  0
   -2.9127    2.4523    0.1450 H   0  0  0  0  0  0  0  0  0  0  0  0
   -3.1029    0.9748    1.7008 C   0  0  0  0  0  0  0  0  0  0  0  0
   -3.7320    0.8147    2.6063 H   0  0  0  0  0  0  0  0  0  0  0  0
   -2.0574    1.0923    2.0520 H   0  0  0  0  0  0  0  0  0  0  0  0
   -4.9425   -1.7746   -0.4485 C   0  0  0  0  0  0  0  0  0  0  0  0
   -4.2881   -2.5447    0.0213 H   0  0  0  0  0  0  0  0  0  0  0  0
   -6.3962   -2.2298   -0.2494 C   0  0  0  0  0  0  0  0  0  0  0  0
   -6.6409   -2.3608    0.8247 H   0  0  0  0  0  0  0  0  0  0  0  0
   -6.5898   -3.1944   -0.7620 H   0  0  0  0  0  0  0  0  0  0  0  0
   -7.1098   -1.4882   -0.6671 H   0  0  0  0  0  0  0  0  0  0  0  0
   -4.6023   -1.7374   -1.9458 C   0  0  0  0  0  0  0  0  0  0  0  0
   -3.5609   -1.4173   -2.1372 H   0  0  0  0  0  0  0  0  0  0  0  0
   -5.2761   -1.0472   -2.4949 H   0  0  0  0  0  0  0  0  0  0  0  0
   -4.7333   -2.7438   -2.3938 H   0  0  0  0  0  0  0  0  0  0  0  0
   -3.4689    3.4652    1.9493 C   0  0  0  0  0  0  0  0  0  0  0  0
   -2.4219    3.6130    2.2841 H   0  0  0  0  0  0  0  0  0  0  0  0
   -4.0973    3.3242    2.8549 H   0  0  0  0  0  0  0  0  0  0  0  0
   -3.8032    4.3989    1.4519 H   0  0  0  0  0  0  0  0  0  0  0  0
  1  2  1  0  0  0  0
  2  3  1  0  0  0  0
  3  4  1  0  0  0  0
  3  5  2  0  0  0  0
  5  6  1  0  0  0  0
  7  5  1  0  0  0  0
  7  8  1  0  0  0  0
  9  7  2  0  0  0  0
 10  9  1  0  0  0  0
 11  2  2  0  0  0  0
 11  9  1  0  0  0  0
 12 11  1  0  0  0  0
 13  1  1  0  0  0  0
 13 14  1  0  0  0  0
 14 15  1  0  0  0  0
 16 14  2  0  0  0  0
 16 17  1  0  0  0  0
 18 16  1  0  0  0  0
 19 18  1  0  0  0  0
 20 22  1  0  0  0  0
 20 18  2  0  0  0  0
 21 20  1  0  0  0  0
 22 13  2  0  0  0  0
 23 22  1  0  0  0  0
 24 27  1  0  0  0  0
 24  1  1  0  0  0  0
 25 24  1  0  0  0  0
 26 24  1  0  0  0  0
 27 28  1  0  0  0  0
 29 27  1  0  0  0  0
 30 27  1  1  0  0  0
 30 31  1  0  0  0  0
 31 33  2  0  0  0  0
 31 32  1  0  0  0  0
 33 38  1  0  0  0  0
 34 33  1  0  0  0  0
 35 34  1  0  0  0  0
 36 30  1  0  0  0  0
 36 34  2  0  0  0  0
 37 36  1  0  0  0  0
 38 39  1  1  0  0  0
 38 50  1  0  0  0  0
 40 38  1  0  0  0  0
 40 41  1  1  0  0  0
 42 40  1  0  0  0  0
 42 45  1  0  0  0  0
 43 42  1  0  0  0  0
 44 42  1  0  0  0  0
 45 48  1  0  0  0  0
 45 47  1  0  0  0  0
 46 45  1  0  0  0  0
 48 49  1  6  0  0  0
 48 50  1  0  0  0  0
 48 63  1  0  0  0  0
 50 52  1  0  0  0  0
 50 51  1  0  0  0  0
 53 55  1  0  0  0  0
 53 54  1  0  0  0  0
 53 40  1  0  0  0  0
 55 56  1  0  0  0  0
 57 55  1  0  0  0  0
 58 55  1  0  0  0  0
 59 53  1  0  0  0  0
 60 59  1  0  0  0  0
 61 59  1  0  0  0  0
 62 59  1  0  0  0  0
 63 64  1  0  0  0  0
 63 65  1  0  0  0  0
 66 63  1  0  0  0  0
M  END
