1
q = -1.0

 72 76  0  0  1  0  0  0  0  0999 V2000
    2.0169   -0.1877    0.5399 P   0  0  0  0  0  0  0  0  0  0  0  0
    2.9604   -1.7558    0.4345 C   0  0  0  0  0  0  0  0  0  0  0  0
    3.5814   -2.0655   -0.7954 C   0  0  0  0  0  0  0  0  0  0  0  0
    3.5046   -1.3632   -1.6397 H   0  0  0  0  0  0  0  0  0  0  0  0
    4.2884   -3.2646   -0.9476 C   0  0  0  0  0  0  0  0  0  0  0  0
    4.7654   -3.4968   -1.9117 H   0  0  0  0  0  0  0  0  0  0  0  0
    4.3825   -4.1703    0.1228 C   0  0  0  0  0  0  0  0  0  0  0  0
    4.9354   -5.1139    0.0006 H   0  0  0  0  0  0  0  0  0  0  0  0
    3.7662   -3.8695    1.3463 C   0  0  0  0  0  0  0  0  0  0  0  0
    3.8363   -4.5746    2.1886 H   0  0  0  0  0  0  0  0  0  0  0  0
    3.0565   -2.6681    1.5043 C   0  0  0  0  0  0  0  0  0  0  0  0
    2.5780   -2.4496    2.4699 H   0  0  0  0  0  0  0  0  0  0  0  0
    3.3287    1.0900    0.3058 C   0  0  0  0  0  0  0  0  0  0  0  0
    3.0695    2.1810   -0.5450 C   0  0  0  0  0  0  0  0  0  0  0  0
    2.1036    2.2245   -1.0743 H   0  0  0  0  0  0  0  0  0  0  0  0
    4.0326    3.1903   -0.7063 C   0  0  0  0  0  0  0  0  0  0  0  0
    3.8240    4.0413   -1.3724 H   0  0  0  0  0  0  0  0  0  0  0  0
    5.2562    3.1101   -0.0239 C   0  0  0  0  0  0  0  0  0  0  0  0
    6.0122    3.8997   -0.1527 H   0  0  0  0  0  0  0  0  0  0  0  0
    5.5216    2.0166    0.8194 C   0  0  0  0  0  0  0  0  0  0  0  0
    6.4849    1.9490    1.3479 H   0  0  0  0  0  0  0  0  0  0  0  0
    4.5630    1.0071    0.9836 C   0  0  0  0  0  0  0  0  0  0  0  0
    4.7789    0.1429    1.6322 H   0  0  0  0  0  0  0  0  0  0  0  0
    1.5257    0.0107    2.3364 C   0  0  0  0  0  0  0  0  0  0  0  0
    0.9787   -0.9177    2.6021 H   0  0  0  0  0  0  0  0  0  0  0  0
    2.4072    0.0971    3.0062 H   0  0  0  0  0  0  0  0  0  0  0  0
    0.5829    1.2229    2.4218 C   0  0  0  0  0  0  0  0  0  0  0  0
    0.1102    1.2598    3.4272 H   0  0  0  0  0  0  0  0  0  0  0  0
    1.1752    2.1550    2.3197 H   0  0  0  0  0  0  0  0  0  0  0  0
   -0.4718    1.1931    1.3335 C   0  0  1  0  0  3  0  0  0  0  0  0
   -1.4781    0.1749    1.1337 C   0  0  0  0  0  0  0  0  0  0  0  0
   -1.6386   -0.6829    1.7957 H   0  0  0  0  0  0  0  0  0  0  0  0
   -2.2008    0.4557   -0.0736 C   0  0  0  0  0  0  0  0  0  0  0  0
   -1.7421    1.7726   -0.5440 C   0  0  0  0  0  0  0  0  0  0  0  0
   -2.1409    2.5766   -1.6399 C   0  0  0  0  0  0  0  0  0  0  0  0
   -2.9101    2.2200   -2.3415 H   0  0  0  0  0  0  0  0  0  0  0  0
   -1.5520    3.8325   -1.8096 C   0  0  0  0  0  0  0  0  0  0  0  0
   -1.8715    4.4703   -2.6477 H   0  0  0  0  0  0  0  0  0  0  0  0
   -0.5485    4.3005   -0.9259 C   0  0  0  0  0  0  0  0  0  0  0  0
   -0.1070    5.2956   -1.0866 H   0  0  0  0  0  0  0  0  0  0  0  0
   -0.1113    3.5139    0.1441 C   0  0  0  0  0  0  0  0  0  0  0  0
    0.6776    3.8753    0.8211 H   0  0  0  0  0  0  0  0  0  0  0  0
   -0.7100    2.2511    0.3516 C   0  0  0  0  0  0  0  0  0  0  0  0
   -3.3910   -0.2677   -0.6757 C   0  0  2  0  0  0  0  0  0  0  0  0
   -3.8604    0.4665   -1.3616 H   0  0  0  0  0  0  0  0  0  0  0  0
   -4.4954   -0.6735    0.3509 C   0  0  1  0  0  0  0  0  0  0  0  0
   -5.3810   -0.9358   -0.2775 H   0  0  0  0  0  0  0  0  0  0  0  0
   -4.1216   -1.9523    1.1270 C   0  0  0  0  0  0  0  0  0  0  0  0
   -3.3258   -1.7200    1.8674 H   0  0  0  0  0  0  0  0  0  0  0  0
   -4.9922   -2.2863    1.7264 H   0  0  0  0  0  0  0  0  0  0  0  0
   -3.6669   -3.1040    0.2228 C   0  0  0  0  0  0  0  0  0  0  0  0
   -4.5361   -3.4614   -0.3769 H   0  0  0  0  0  0  0  0  0  0  0  0
   -3.3457   -3.9686    0.8430 H   0  0  0  0  0  0  0  0  0  0  0  0
   -2.5488   -2.6971   -0.7457 C   0  0  2  0  0  0  0  0  0  0  0  0
   -1.6590   -2.3795   -0.1533 H   0  0  0  0  0  0  0  0  0  0  0  0
   -3.0138   -1.4816   -1.5540 C   0  0  0  0  0  0  0  0  0  0  0  0
   -3.9092   -1.7752   -2.1491 H   0  0  0  0  0  0  0  0  0  0  0  0
   -2.2331   -1.1746   -2.2789 H   0  0  0  0  0  0  0  0  0  0  0  0
   -4.9424    0.4880    1.2764 C   0  0  0  0  0  0  0  0  0  0  0  0
   -4.0777    0.7419    1.9312 H   0  0  0  0  0  0  0  0  0  0  0  0
   -5.3135    1.7515    0.4863 C   0  0  0  0  0  0  0  0  0  0  0  0
   -4.4537    2.1795   -0.0636 H   0  0  0  0  0  0  0  0  0  0  0  0
   -5.6901    2.5417    1.1672 H   0  0  0  0  0  0  0  0  0  0  0  0
   -6.1189    1.5368   -0.2492 H   0  0  0  0  0  0  0  0  0  0  0  0
   -6.1143    0.0847    2.1841 C   0  0  0  0  0  0  0  0  0  0  0  0
   -5.8571   -0.7407    2.8761 H   0  0  0  0  0  0  0  0  0  0  0  0
   -6.9892   -0.2414    1.5808 H   0  0  0  0  0  0  0  0  0  0  0  0
   -6.4420    0.9435    2.8044 H   0  0  0  0  0  0  0  0  0  0  0  0
   -2.1162   -3.8495   -1.6537 C   0  0  0  0  0  0  0  0  0  0  0  0
   -1.7827   -4.7267   -1.0615 H   0  0  0  0  0  0  0  0  0  0  0  0
   -1.2777   -3.5461   -2.3126 H   0  0  0  0  0  0  0  0  0  0  0  0
   -2.9549   -4.1830   -2.3022 H   0  0  0  0  0  0  0  0  0  0  0  0
  1 24  1  0  0  0  0
  2  1  1  0  0  0  0
  2 11  1  0  0  0  0
  3  2  2  0  0  0  0
  4  3  1  0  0  0  0
  5  3  1  0  0  0  0
  5  7  2  0  0  0  0
  6  5  1  0  0  0  0
  7  9  1  0  0  0  0
  8  7  1  0  0  0  0
  9 11  2  0  0  0  0
  9 10  1  0  0  0  0
 11 12  1  0  0  0  0
 13  1  1  0  0  0  0
 13 22  1  0  0  0  0
 14 13  2  0  0  0  0
 15 14  1  0  0  0  0
 16 14  1  0  0  0  0
 16 18  2  0  0  0  0
 17 16  1  0  0  0  0
 18 20  1  0  0  0  0
 19 18  1  0  0  0  0
 20 22  2  0  0  0  0
 20 21  1  0  0  0  0
 22 23  1  0  0  0  0
 24 27  1  0  0  0  0
 24 25  1  0  0  0  0
 24 26  1  0  0  0  0
 27 28  1  0  0  0  0
 29 27  1  0  0  0  0
 30 27  1  1  0  0  0
 31 30  1  0  0  0  0
 31 32  1  0  0  0  0
 33 31  2  0  0  0  0
 34 33  1  0  0  0  0
 34 43  1  0  0  0  0
 35 34  2  0  0  0  0
 36 35  1  0  0  0  0
 37 35  1  0  0  0  0
 37 39  2  0  0  0  0
 38 37  1  0  0  0  0
 39 41  1  0  0  0  0
 40 39  1  0  0  0  0
 41 43  2  0  0  0  0
 41 42  1  0  0  0  0
 43 30  1  0  0  0  0
 44 45  1  6  0  0  0
 44 33  1  0  0  0  0
 44 46  1  0  0  0  0
 46 47  1  6  0  0  0
 46 48  1  0  0  0  0
 46 59  1  0  0  0  0
 48 50  1  0  0  0  0
 48 49  1  0  0  0  0
 51 53  1  0  0  0  0
 51 48  1  0  0  0  0
 52 51  1  0  0  0  0
 54 55  1  1  0  0  0
 54 51  1  0  0  0  0
 56 54  1  0  0  0  0
 56 44  1  0  0  0  0
 57 56  1  0  0  0  0
 58 56  1  0  0  0  0
 59 60  1  0  0  0  0
 59 65  1  0  0  0  0
 61 63  1  0  0  0  0
 61 59  1  0  0  0  0
 62 61  1  0  0  0  0
 64 61  1  0  0  0  0
 65 68  1  0  0  0  0
 65 66  1  0  0  0  0
 67 65  1  0  0  0  0
 69 70  1  0  0  0  0
 69 54  1  0  0  0  0
 71 69  1  0  0  0  0
 72 69  1  0  0  0  0
M  END
