1,2
q = -1.0

 19 19  0  0  0  0  0  0  0  0999 V2000
    2.3469    1.5833    0.1460 P   0  0  0  0  0  0  0  0  0  0  0  0
    2.1960   -0.8019   -0.4492 C   0  0  0  0  0  3  0  0  0  0  0  0
    2.4623   -2.1713   -0.6504 C   0  0  0  0  0  0  0  0  0  0  0  0
    1.6684   -2.8556   -0.9872 H   0  0  0  0  0  0  0  0  0  0  0  0
    3.7501   -2.6721   -0.3780 C   0  0  0  0  0  0  0  0  0  0  0  0
    3.9541   -3.7452   -0.5259 H   0  0  0  0  0  0  0  0  0  0  0  0
    4.7852   -1.8387    0.0926 C   0  0  0  0  0  0  0  0  0  0  0  0
    5.7796   -2.2633    0.2987 H   0  0  0  0  0  0  0  0  0  0  0  0
    4.5451   -0.4686    0.3043 C   0  0  0  0  0  0  0  0  0  0  0  0
    5.3420    0.1901    0.6863 H   0  0  0  0  0  0  0  0  0  0  0  0
    3.2593    0.0129    0.0277 C   0  0  0  0  0  0  0  0  0  0  0  0
    3.1657    2.7507   -1.0244 C   0  0  0  0  0  0  0  0  0  0  0  0
    4.2120    2.9332   -0.7067 H   0  0  0  0  0  0  0  0  0  0  0  0
    2.6226    3.7140   -1.0659 H   0  0  0  0  0  0  0  0  0  0  0  0
    3.1597    2.2895   -2.0295 H   0  0  0  0  0  0  0  0  0  0  0  0
    2.5886    2.4298    1.7681 C   0  0  0  0  0  0  0  0  0  0  0  0
    3.6647    2.5677    1.9966 H   0  0  0  0  0  0  0  0  0  0  0  0
    2.1057    1.8416    2.5699 H   0  0  0  0  0  0  0  0  0  0  0  0
    2.0968    3.4222    1.7245 H   0  0  0  0  0  0  0  0  0  0  0  0
  1 16  1  0  0  0  0
  2 11  1  0  0  0  0
  3  2  2  0  0  0  0
  3  5  1  0  0  0  0
  4  3  1  0  0  0  0
  5  7  2  0  0  0  0
  6  5  1  0  0  0  0
  7  8  1  0  0  0  0
  7  9  1  0  0  0  0
  9 10  1  0  0  0  0
 11  1  1  0  0  0  0
 11  9  2  0  0  0  0
 12 13  1  0  0  0  0
 12  1  1  0  0  0  0
 14 12  1  0  0  0  0
 15 12  1  0  0  0  0
 16 17  1  0  0  0  0
 16 18  1  0  0  0  0
 19 16  1  0  0  0  0
M  END
