1,2
q = 0.0, confidence = 0.994

 64 69  0  0  1  0  0  0  0  0999 V2000
   -1.4765    0.2525    0.1079 P   0  0  0  0  0  0  0  0  0  0  0  0
    1.4793   -0.1367   -0.2344 C   0  0  1  0  0  3  0  0  0  0  0  0
    2.2463   -0.0747   -1.4785 C   0  0  0  0  0  0  0  0  0  0  0  0
    3.2670   -1.0483   -1.7237 C   0  0  0  0  0  0  0  0  0  0  0  0
    3.5317   -2.0535   -0.8227 C   0  0  0  0  0  3  0  0  0  0  0  0
    3.1893   -3.1676    1.3707 C   0  0  0  0  0  0  0  0  0  0  0  0
    2.5805   -3.2090    2.6197 C   0  0  0  0  0  0  0  0  0  0  0  0
    1.6454   -2.2066    2.9660 C   0  0  0  0  0  0  0  0  0  0  0  0
    1.3063   -1.2034    2.0611 C   0  0  0  0  0  0  0  0  0  0  0  0
    1.8750   -1.1669    0.7599 C   0  0  0  0  0  0  0  0  0  0  0  0
    2.8690   -2.1469    0.4385 C   0  0  0  0  0  0  0  0  0  0  0  0
    2.0358    0.9100   -2.4070 N   0  0  0  0  0  0  0  0  0  0  0  0
    0.7885    1.6532   -2.4715 C   0  0  0  0  0  0  0  0  0  0  0  0
    2.9363    1.0622   -3.5416 C   0  0  0  0  0  0  0  0  0  0  0  0
    1.0780    1.1771    0.4186 C   0  0  0  0  0  0  0  0  0  0  0  0
   -0.2525    1.4793    0.7150 C   0  0  0  0  0  0  0  0  0  0  0  0
   -0.6093    2.6642    1.4207 C   0  0  0  0  0  0  0  0  0  0  0  0
    0.3680    3.5640    1.8014 C   0  0  0  0  0  0  0  0  0  0  0  0
    2.7622    4.2185    1.9228 C   0  0  0  0  0  0  0  0  0  0  0  0
    4.1000    3.9422    1.6858 C   0  0  0  0  0  0  0  0  0  0  0  0
    4.4699    2.7308    1.0457 C   0  0  0  0  0  0  0  0  0  0  0  0
    3.5021    1.8247    0.6367 C   0  0  0  0  0  0  0  0  0  0  0  0
    2.1141    2.0853    0.8441 C   0  0  0  0  0  0  0  0  0  0  0  0
    1.7432    3.3059    1.5227 C   0  0  0  0  0  0  0  0  0  0  0  0
   -2.7105    1.2334   -0.8310 C   0  0  0  0  0  0  0  0  0  0  0  0
   -3.9646    0.6494   -1.1174 C   0  0  0  0  0  0  0  0  0  0  0  0
   -4.9056    1.3542   -1.8796 C   0  0  0  0  0  0  0  0  0  0  0  0
   -4.6093    2.6381   -2.3664 C   0  0  0  0  0  0  0  0  0  0  0  0
   -3.3632    3.2197   -2.0871 C   0  0  0  0  0  0  0  0  0  0  0  0
   -2.4154    2.5219   -1.3229 C   0  0  0  0  0  0  0  0  0  0  0  0
   -2.3914   -0.3387    1.5857 C   0  0  0  0  0  0  0  0  0  0  0  0
   -2.1155   -1.6269    2.0860 C   0  0  0  0  0  0  0  0  0  0  0  0
   -2.7554   -2.0740    3.2511 C   0  0  0  0  0  0  0  0  0  0  0  0
   -3.6752   -1.2464    3.9147 C   0  0  0  0  0  0  0  0  0  0  0  0
   -3.9661    0.0301    3.4063 C   0  0  0  0  0  0  0  0  0  0  0  0
   -3.3298    0.4842    2.2418 C   0  0  0  0  0  0  0  0  0  0  0  0
    3.7911   -1.0537   -2.6852 H   0  0  0  0  0  0  0  0  0  0  0  0
    4.2829   -2.8174   -1.0754 H   0  0  0  0  0  0  0  0  0  0  0  0
    3.9333   -3.9263    1.0828 H   0  0  0  0  0  0  0  0  0  0  0  0
    2.8306   -4.0053    3.3361 H   0  0  0  0  0  0  0  0  0  0  0  0
    1.1718   -2.2160    3.9596 H   0  0  0  0  0  0  0  0  0  0  0  0
    0.5754   -0.4385    2.3551 H   0  0  0  0  0  0  0  0  0  0  0  0
    0.6014    1.9555   -3.5190 H   0  0  0  0  0  0  0  0  0  0  0  0
    0.7925    2.5620   -1.8340 H   0  0  0  0  0  0  0  0  0  0  0  0
   -0.0484    0.9933   -2.1545 H   0  0  0  0  0  0  0  0  0  0  0  0
    2.7756    2.0593   -3.9905 H   0  0  0  0  0  0  0  0  0  0  0  0
    2.7640    0.2920   -4.3269 H   0  0  0  0  0  0  0  0  0  0  0  0
    3.9937    1.0082   -3.2183 H   0  0  0  0  0  0  0  0  0  0  0  0
   -1.6662    2.8657    1.6469 H   0  0  0  0  0  0  0  0  0  0  0  0
    0.0987    4.4898    2.3330 H   0  0  0  0  0  0  0  0  0  0  0  0
    2.4649    5.1473    2.4339 H   0  0  0  0  0  0  0  0  0  0  0  0
    4.8767    4.6543    2.0031 H   0  0  0  0  0  0  0  0  0  0  0  0
    5.5337    2.5044    0.8781 H   0  0  0  0  0  0  0  0  0  0  0  0
    3.8080    0.8850    0.1572 H   0  0  0  0  0  0  0  0  0  0  0  0
   -4.1808   -0.3673   -0.7597 H   0  0  0  0  0  0  0  0  0  0  0  0
   -5.8793    0.8912   -2.1000 H   0  0  0  0  0  0  0  0  0  0  0  0
   -5.3521    3.1866   -2.9654 H   0  0  0  0  0  0  0  0  0  0  0  0
   -3.1249    4.2265   -2.4625 H   0  0  0  0  0  0  0  0  0  0  0  0
   -1.4462    2.9905   -1.0996 H   0  0  0  0  0  0  0  0  0  0  0  0
   -1.4149   -2.2795    1.5436 H   0  0  0  0  0  0  0  0  0  0  0  0
   -2.5409   -3.0830    3.6342 H   0  0  0  0  0  0  0  0  0  0  0  0
   -4.1794   -1.6026    4.8260 H   0  0  0  0  0  0  0  0  0  0  0  0
   -4.7001    0.6741    3.9142 H   0  0  0  0  0  0  0  0  0  0  0  0
   -3.5830    1.4728    1.8292 H   0  0  0  0  0  0  0  0  0  0  0  0
  1 16  1  0  0  0  0
  1 31  1  0  0  0  0
  2 15  1  1  0  0  0
  2 10  1  0  0  0  0
  3  2  1  0  0  0  0
  4  3  2  0  0  0  0
  4  5  1  0  0  0  0
  5 11  1  0  0  0  0
  6  7  1  0  0  0  0
  7  8  2  0  0  0  0
  7 40  1  0  0  0  0
  8 41  1  0  0  0  0
  9 42  1  0  0  0  0
  9  8  1  0  0  0  0
 10  9  2  0  0  0  0
 11 10  1  0  0  0  0
 11  6  2  0  0  0  0
 12  3  1  0  0  0  0
 13 12  1  0  0  0  0
 13 45  1  0  0  0  0
 13 44  1  0  0  0  0
 14 48  1  0  0  0  0
 14 12  1  0  0  0  0
 15 16  2  0  0  0  0
 15 23  1  0  0  0  0
 16 17  1  0  0  0  0
 17 49  1  0  0  0  0
 17 18  2  0  0  0  0
 18 50  1  0  0  0  0
 19 51  1  0  0  0  0
 20 19  1  0  0  0  0
 20 52  1  0  0  0  0
 21 20  2  0  0  0  0
 22 23  2  0  0  0  0
 22 21  1  0  0  0  0
 23 24  1  0  0  0  0
 24 18  1  0  0  0  0
 24 19  2  0  0  0  0
 25  1  1  0  0  0  0
 26 25  1  0  0  0  0
 26 55  1  0  0  0  0
 27 26  2  0  0  0  0
 28 29  2  0  0  0  0
 28 27  1  0  0  0  0
 29 30  1  0  0  0  0
 30 59  1  0  0  0  0
 30 25  2  0  0  0  0
 31 32  2  0  0  0  0
 31 36  1  0  0  0  0
 32 33  1  0  0  0  0
 33 61  1  0  0  0  0
 33 34  2  0  0  0  0
 34 62  1  0  0  0  0
 35 63  1  0  0  0  0
 35 34  1  0  0  0  0
 36 35  2  0  0  0  0
 37  4  1  0  0  0  0
 38  5  1  0  0  0  0
 39  6  1  0  0  0  0
 43 13  1  0  0  0  0
 46 14  1  0  0  0  0
 47 14  1  0  0  0  0
 53 21  1  0  0  0  0
 54 22  1  0  0  0  0
 56 27  1  0  0  0  0
 57 28  1  0  0  0  0
 58 29  1  0  0  0  0
 60 32  1  0  0  0  0
 64 36  1  0  0  0  0
M  END
