1,2
q = -1.0

 43 43  0  0  0  0  0  0  0  0999 V2000
    0.1281    1.6844    0.3238 P   0  0  0  0  0  0  0  0  0  0  0  0
   -0.6318   -0.7910    1.6584 C   0  0  0  0  0  3  0  0  0  0  0  0
   -0.4528   -1.7963    2.0861 H   0  0  0  0  0  0  0  0  0  0  0  0
   -0.5479   -0.0673    2.4916 H   0  0  0  0  0  0  0  0  0  0  0  0
   -1.9581   -0.7169    0.9840 C   0  0  0  0  0  0  0  0  0  0  0  0
   -2.4694    0.5449    0.5647 C   0  0  0  0  0  0  0  0  0  0  0  0
   -3.6954    0.6186   -0.1414 C   0  0  0  0  0  0  0  0  0  0  0  0
   -4.3767   -0.5758   -0.4540 C   0  0  0  0  0  0  0  0  0  0  0  0
   -5.3267   -0.5131   -1.0081 H   0  0  0  0  0  0  0  0  0  0  0  0
   -3.8942   -1.8383   -0.0652 C   0  0  0  0  0  0  0  0  0  0  0  0
   -2.6815   -1.8878    0.6535 C   0  0  0  0  0  0  0  0  0  0  0  0
   -2.3080   -2.8639    1.0027 H   0  0  0  0  0  0  0  0  0  0  0  0
   -4.3015    1.9423   -0.5430 C   0  0  0  0  0  0  0  0  0  0  0  0
   -5.2513    1.7959   -1.0903 H   0  0  0  0  0  0  0  0  0  0  0  0
   -3.6324    2.5389   -1.1989 H   0  0  0  0  0  0  0  0  0  0  0  0
   -4.5216    2.5732    0.3431 H   0  0  0  0  0  0  0  0  0  0  0  0
   -4.6731   -3.0934   -0.3609 C   0  0  0  0  0  0  0  0  0  0  0  0
   -5.2385   -3.0119   -1.3096 H   0  0  0  0  0  0  0  0  0  0  0  0
   -5.4147   -3.2905    0.4426 H   0  0  0  0  0  0  0  0  0  0  0  0
   -4.0155   -3.9827   -0.4206 H   0  0  0  0  0  0  0  0  0  0  0  0
   -1.6605    1.7663    0.9026 C   0  0  0  0  0  0  0  0  0  0  0  0
   -1.5987    1.8923    2.0039 H   0  0  0  0  0  0  0  0  0  0  0  0
   -2.1093    2.6965    0.5100 H   0  0  0  0  0  0  0  0  0  0  0  0
    0.0939    2.6834   -1.2809 C   0  0  0  0  0  0  0  0  0  0  0  0
    1.1543    2.6915   -1.6163 H   0  0  0  0  0  0  0  0  0  0  0  0
    0.9357    2.8512    1.5617 C   0  0  0  0  0  0  0  0  0  0  0  0
    0.2589    3.7341    1.5561 H   0  0  0  0  0  0  0  0  0  0  0  0
   -0.3633    4.1379   -1.1121 C   0  0  0  0  0  0  0  0  0  0  0  0
   -0.3257    4.6551   -2.0926 H   0  0  0  0  0  0  0  0  0  0  0  0
    0.2746    4.7128   -0.4148 H   0  0  0  0  0  0  0  0  0  0  0  0
   -1.4109    4.2059   -0.7542 H   0  0  0  0  0  0  0  0  0  0  0  0
   -0.7390    1.9611   -2.3487 C   0  0  0  0  0  0  0  0  0  0  0  0
   -1.7781    1.7748   -2.0116 H   0  0  0  0  0  0  0  0  0  0  0  0
   -0.2817    0.9951   -2.6396 H   0  0  0  0  0  0  0  0  0  0  0  0
   -0.7957    2.5727   -3.2719 H   0  0  0  0  0  0  0  0  0  0  0  0
    2.3379    3.2997    1.1417 C   0  0  0  0  0  0  0  0  0  0  0  0
    2.7012    4.0858    1.8342 H   0  0  0  0  0  0  0  0  0  0  0  0
    2.3777    3.7200    0.1177 H   0  0  0  0  0  0  0  0  0  0  0  0
    3.0533    2.4567    1.2004 H   0  0  0  0  0  0  0  0  0  0  0  0
    0.9570    2.2707    2.9800 C   0  0  0  0  0  0  0  0  0  0  0  0
    1.5716    1.3484    3.0238 H   0  0  0  0  0  0  0  0  0  0  0  0
   -0.0515    2.0282    3.3680 H   0  0  0  0  0  0  0  0  0  0  0  0
    1.4032    3.0094    3.6761 H   0  0  0  0  0  0  0  0  0  0  0  0
  1 21  1  0  0  0  0
  1 26  1  0  0  0  0
  2  3  1  0  0  0  0
  2  4  1  0  0  0  0
  5  2  1  0  0  0  0
  6 21  1  0  0  0  0
  6  5  2  0  0  0  0
  7  6  1  0  0  0  0
  8  7  2  0  0  0  0
  8 10  1  0  0  0  0
  9  8  1  0  0  0  0
 10 11  2  0  0  0  0
 11  5  1  0  0  0  0
 11 12  1  0  0  0  0
 13  7  1  0  0  0  0
 13 16  1  0  0  0  0
 14 13  1  0  0  0  0
 15 13  1  0  0  0  0
 17 10  1  0  0  0  0
 17 19  1  0  0  0  0
 18 17  1  0  0  0  0
 20 17  1  0  0  0  0
 21 22  1  0  0  0  0
 23 21  1  0  0  0  0
 24 28  1  0  0  0  0
 24  1  1  0  0  0  0
 25 24  1  0  0  0  0
 26 40  1  0  0  0  0
 27 26  1  0  0  0  0
 28 31  1  0  0  0  0
 28 30  1  0  0  0  0
 29 28  1  0  0  0  0
 32 33  1  0  0  0  0
 32 24  1  0  0  0  0
 34 32  1  0  0  0  0
 35 32  1  0  0  0  0
 36 39  1  0  0  0  0
 36 26  1  0  0  0  0
 36 37  1  0  0  0  0
 38 36  1  0  0  0  0
 40 41  1  0  0  0  0
 40 42  1  0  0  0  0
 40 43  1  0  0  0  0
M  END
