1,4
q = -1.0, confidence = 0.0

 42 45  0  0  0  0  0  0  0  0999 V2000
    0.4644    0.4467   -0.3881 P   0  0  0  0  0  0  0  0  0  0  0  0
    3.8663   -1.4110    0.3168 O   0  0  0  0  0  0  0  0  0  0  0  0
    4.4857   -0.2601    2.1712 O   0  0  0  0  0  0  0  0  0  0  0  0
   -0.3641   -0.8044    1.5890 C   0  0  0  0  0  3  0  0  0  0  0  0
    0.9251   -0.4032    1.1555 C   0  0  0  0  0  0  0  0  0  0  0  0
    2.1225   -0.7217    1.8144 C   0  0  0  0  0  0  0  0  0  0  0  0
    2.0337   -1.4437    3.0214 C   0  0  0  0  0  0  0  0  0  0  0  0
    2.9574   -1.6858    3.5658 H   0  0  0  0  0  0  0  0  0  0  0  0
    0.7739   -1.8311    3.5046 C   0  0  0  0  0  0  0  0  0  0  0  0
    0.7118   -2.3981    4.4481 H   0  0  0  0  0  0  0  0  0  0  0  0
   -0.4113   -1.5332    2.8004 C   0  0  0  0  0  0  0  0  0  0  0  0
   -1.3678   -1.9059    3.2004 H   0  0  0  0  0  0  0  0  0  0  0  0
    3.4513   -0.3772    1.1983 C   0  0  0  0  0  0  0  0  0  0  0  0
    3.3772    0.5839    0.6227 H   0  0  0  0  0  0  0  0  0  0  0  0
    5.2500   -1.1621    0.1490 C   0  0  0  0  0  0  0  0  0  0  0  0
    5.7414   -2.0905   -0.2016 H   0  0  0  0  0  0  0  0  0  0  0  0
    5.4184   -0.3585   -0.6091 H   0  0  0  0  0  0  0  0  0  0  0  0
    5.6945   -0.7004    1.5564 C   0  0  0  0  0  0  0  0  0  0  0  0
    6.4424    0.1229    1.5104 H   0  0  0  0  0  0  0  0  0  0  0  0
    6.1251   -1.5317    2.1573 H   0  0  0  0  0  0  0  0  0  0  0  0
    1.5809   -0.2093   -1.7173 C   0  0  0  0  0  0  0  0  0  0  0  0
    1.2450   -1.4716   -2.2437 C   0  0  0  0  0  0  0  0  0  0  0  0
    0.3157   -1.9457   -1.8917 H   0  0  0  0  0  0  0  0  0  0  0  0
    2.0691   -2.0995   -3.1866 C   0  0  0  0  0  0  0  0  0  0  0  0
    1.7980   -3.0923   -3.5784 H   0  0  0  0  0  0  0  0  0  0  0  0
    3.2351   -1.4580   -3.6357 C   0  0  0  0  0  0  0  0  0  0  0  0
    3.8816   -1.9436   -4.3826 H   0  0  0  0  0  0  0  0  0  0  0  0
    3.5672   -0.1893   -3.1331 C   0  0  0  0  0  0  0  0  0  0  0  0
    4.4777    0.3211   -3.4844 H   0  0  0  0  0  0  0  0  0  0  0  0
    2.7490    0.4313   -2.1766 C   0  0  0  0  0  0  0  0  0  0  0  0
    3.0290    1.4174   -1.7764 H   0  0  0  0  0  0  0  0  0  0  0  0
    1.0345    2.1921   -0.2315 C   0  0  0  0  0  0  0  0  0  0  0  0
    1.4403    2.7223    1.0126 C   0  0  0  0  0  0  0  0  0  0  0  0
    1.5148    2.0542    1.8847 H   0  0  0  0  0  0  0  0  0  0  0  0
    1.7494    4.0843    1.1432 C   0  0  0  0  0  0  0  0  0  0  0  0
    2.0666    4.4774    2.1215 H   0  0  0  0  0  0  0  0  0  0  0  0
    1.6629    4.9425    0.0349 C   0  0  0  0  0  0  0  0  0  0  0  0
    1.9057    6.0108    0.1395 H   0  0  0  0  0  0  0  0  0  0  0  0
    1.2741    4.4242   -1.2120 C   0  0  0  0  0  0  0  0  0  0  0  0
    1.2147    5.0850   -2.0908 H   0  0  0  0  0  0  0  0  0  0  0  0
    0.9617    3.0635   -1.3433 C   0  0  0  0  0  0  0  0  0  0  0  0
    0.6720    2.6675   -2.3301 H   0  0  0  0  0  0  0  0  0  0  0  0
  1 32  1  0  0  0  0
  1  5  1  0  0  0  0
  2 13  1  0  0  0  0
  4 11  1  0  0  0  0
  5  4  2  0  0  0  0
  5  6  1  0  0  0  0
  6  7  2  0  0  0  0
  7  9  1  0  0  0  0
  7  8  1  0  0  0  0
  9 10  1  0  0  0  0
 11 12  1  0  0  0  0
 11  9  2  0  0  0  0
 13  6  1  0  0  0  0
 13  3  1  0  0  0  0
 14 13  1  0  0  0  0
 15  2  1  0  0  0  0
 15 18  1  0  0  0  0
 16 15  1  0  0  0  0
 17 15  1  0  0  0  0
 18 20  1  0  0  0  0
 18  3  1  0  0  0  0
 19 18  1  0  0  0  0
 21  1  1  0  0  0  0
 22 23  1  0  0  0  0
 22 21  2  0  0  0  0
 24 22  1  0  0  0  0
 25 24  1  0  0  0  0
 26 24  2  0  0  0  0
 26 28  1  0  0  0  0
 27 26  1  0  0  0  0
 28 30  2  0  0  0  0
 29 28  1  0  0  0  0
 30 31  1  0  0  0  0
 30 21  1  0  0  0  0
 32 33  1  0  0  0  0
 33 35  2  0  0  0  0
 33 34  1  0  0  0  0
 35 36  1  0  0  0  0
 37 38  1  0  0  0  0
 37 35  1  0  0  0  0
 39 37  2  0  0  0  0
 40 39  1  0  0  0  0
 41 39  1  0  0  0  0
 41 32  2  0  0  0  0
 42 41  1  0  0  0  0
M  END
