1,3
q = -1.0, confidence = 0.0

 39 41  0  0  0  0  0  0  0  0999 V2000
    0.9496    0.2124   -0.1328 P   0  0  0  0  0  0  0  0  0  0  0  0
    0.9336   -0.4054    1.5792 C   0  0  0  0  0  0  0  0  0  0  0  0
   -0.4679   -0.5833    1.7277 C   0  0  0  0  0  3  0  0  0  0  0  0
   -0.9017   -1.1059    2.9673 C   0  0  0  0  0  0  0  0  0  0  0  0
   -1.9684   -1.3020    3.1609 H   0  0  0  0  0  0  0  0  0  0  0  0
    0.0358   -1.4100    3.9749 C   0  0  0  0  0  0  0  0  0  0  0  0
   -0.3185   -1.8115    4.9387 H   0  0  0  0  0  0  0  0  0  0  0  0
    1.4135   -1.2266    3.7761 C   0  0  0  0  0  0  0  0  0  0  0  0
    2.1247   -1.4820    4.5785 H   0  0  0  0  0  0  0  0  0  0  0  0
    1.9029   -0.7237    2.5481 C   0  0  0  0  0  0  0  0  0  0  0  0
    3.3864   -0.6136    2.2809 C   0  0  0  0  0  0  0  0  0  0  0  0
    3.5648    0.1356    1.4828 H   0  0  0  0  0  0  0  0  0  0  0  0
    3.8964   -0.2296    3.1910 H   0  0  0  0  0  0  0  0  0  0  0  0
    4.0110   -1.9576    1.8740 C   0  0  0  0  0  0  0  0  0  0  0  0
    3.8779   -2.7146    2.6736 H   0  0  0  0  0  0  0  0  0  0  0  0
    5.0974   -1.8529    1.6762 H   0  0  0  0  0  0  0  0  0  0  0  0
    3.5351   -2.3525    0.9545 H   0  0  0  0  0  0  0  0  0  0  0  0
    2.1456   -0.8534   -1.0722 C   0  0  0  0  0  0  0  0  0  0  0  0
    3.4877   -0.5203   -1.3470 C   0  0  0  0  0  0  0  0  0  0  0  0
    3.8866    0.4571   -1.0369 H   0  0  0  0  0  0  0  0  0  0  0  0
    4.3250   -1.4373   -2.0018 C   0  0  0  0  0  0  0  0  0  0  0  0
    5.3724   -1.1669   -2.2075 H   0  0  0  0  0  0  0  0  0  0  0  0
    3.8376   -2.6978   -2.3842 C   0  0  0  0  0  0  0  0  0  0  0  0
    4.4992   -3.4151   -2.8934 H   0  0  0  0  0  0  0  0  0  0  0  0
    2.4998   -3.0353   -2.1180 C   0  0  0  0  0  0  0  0  0  0  0  0
    2.1068   -4.0192   -2.4181 H   0  0  0  0  0  0  0  0  0  0  0  0
    1.6612   -2.1129   -1.4782 C   0  0  0  0  0  0  0  0  0  0  0  0
    0.6025   -2.3405   -1.2781 H   0  0  0  0  0  0  0  0  0  0  0  0
    1.7992    1.8470   -0.1377 C   0  0  0  0  0  0  0  0  0  0  0  0
    2.0060    2.5612    1.0625 C   0  0  0  0  0  0  0  0  0  0  0  0
    1.7513    2.0835    2.0213 H   0  0  0  0  0  0  0  0  0  0  0  0
    2.5322    3.8610    1.0406 C   0  0  0  0  0  0  0  0  0  0  0  0
    2.6885    4.4002    1.9878 H   0  0  0  0  0  0  0  0  0  0  0  0
    2.8645    4.4729   -0.1794 C   0  0  0  0  0  0  0  0  0  0  0  0
    3.2774    5.4928   -0.1947 H   0  0  0  0  0  0  0  0  0  0  0  0
    2.6744    3.7686   -1.3801 C   0  0  0  0  0  0  0  0  0  0  0  0
    2.9411    4.2340   -2.3417 H   0  0  0  0  0  0  0  0  0  0  0  0
    2.1458    2.4697   -1.3597 C   0  0  0  0  0  0  0  0  0  0  0  0
    2.0126    1.9251   -2.3083 H   0  0  0  0  0  0  0  0  0  0  0  0
  1  2  1  0  0  0  0
  2  3  2  0  0  0  0
  2 10  1  0  0  0  0
  3  4  1  0  0  0  0
  4  5  1  0  0  0  0
  4  6  2  0  0  0  0
  6  7  1  0  0  0  0
  8  6  1  0  0  0  0
  8  9  1  0  0  0  0
 10  8  2  0  0  0  0
 11 10  1  0  0  0  0
 11 13  1  0  0  0  0
 12 11  1  0  0  0  0
 14 11  1  0  0  0  0
 14 15  1  0  0  0  0
 16 14  1  0  0  0  0
 17 14  1  0  0  0  0
 18  1  1  0  0  0  0
 19 18  1  0  0  0  0
 19 20  1  0  0  0  0
 21 19  2  0  0  0  0
 22 21  1  0  0  0  0
 23 25  2  0  0  0  0
 23 21  1  0  0  0  0
 24 23  1  0  0  0  0
 25 27  1  0  0  0  0
 26 25  1  0  0  0  0
 27 28  1  0  0  0  0
 27 18  2  0  0  0  0
 29  1  1  0  0  0  0
 29 30  1  0  0  0  0
 30 31  1  0  0  0  0
 32 30  2  0  0  0  0
 32 33  1  0  0  0  0
 34 32  1  0  0  0  0
 35 34  1  0  0  0  0
 36 38  1  0  0  0  0
 36 34  2  0  0  0  0
 37 36  1  0  0  0  0
 38 29  2  0  0  0  0
 39 38  1  0  0  0  0
M  END
