1,2
q = -1.0

 36 38  0  0  0  0  0  0  0  0999 V2000
    1.0619    0.0503   -0.1136 P   0  0  0  0  0  0  0  0  0  0  0  0
   -0.7533   -0.1262   -2.0846 C   0  0  0  0  0  3  0  0  0  0  0  0
   -1.6651   -0.3507   -2.6747 H   0  0  0  0  0  0  0  0  0  0  0  0
   -0.4031    0.8729   -2.4253 H   0  0  0  0  0  0  0  0  0  0  0  0
    1.4421   -1.0969   -1.5087 C   0  0  0  0  0  0  0  0  0  0  0  0
    2.5616   -1.9119   -1.7269 C   0  0  0  0  0  0  0  0  0  0  0  0
    3.4120   -1.8911   -1.0275 H   0  0  0  0  0  0  0  0  0  0  0  0
    2.5707   -2.7965   -2.8225 C   0  0  0  0  0  0  0  0  0  0  0  0
    3.4301   -3.4656   -2.9825 H   0  0  0  0  0  0  0  0  0  0  0  0
    1.4760   -2.8303   -3.7003 C   0  0  0  0  0  0  0  0  0  0  0  0
    1.4789   -3.5268   -4.5533 H   0  0  0  0  0  0  0  0  0  0  0  0
    0.3760   -1.9749   -3.5018 C   0  0  0  0  0  0  0  0  0  0  0  0
   -0.4645   -1.9851   -4.2150 H   0  0  0  0  0  0  0  0  0  0  0  0
    0.3407   -1.0977   -2.4006 C   0  0  0  0  0  0  0  0  0  0  0  0
    2.2519   -0.5019    1.1956 C   0  0  0  0  0  0  0  0  0  0  0  0
    2.3342   -1.8745    1.5242 C   0  0  0  0  0  0  0  0  0  0  0  0
    1.7520   -2.6043    0.9427 H   0  0  0  0  0  0  0  0  0  0  0  0
    3.1453   -2.3143    2.5797 C   0  0  0  0  0  0  0  0  0  0  0  0
    3.2016   -3.3891    2.8119 H   0  0  0  0  0  0  0  0  0  0  0  0
    3.8793   -1.3890    3.3416 C   0  0  0  0  0  0  0  0  0  0  0  0
    4.5111   -1.7331    4.1745 H   0  0  0  0  0  0  0  0  0  0  0  0
    3.8051   -0.0235    3.0267 C   0  0  0  0  0  0  0  0  0  0  0  0
    4.3818    0.7099    3.6115 H   0  0  0  0  0  0  0  0  0  0  0  0
    3.0053    0.4155    1.9592 C   0  0  0  0  0  0  0  0  0  0  0  0
    2.9762    1.4865    1.7064 H   0  0  0  0  0  0  0  0  0  0  0  0
    1.9195    1.6157   -0.6757 C   0  0  0  0  0  0  0  0  0  0  0  0
    1.1817    2.8100   -0.6346 C   0  0  0  0  0  0  0  0  0  0  0  0
    0.1461    2.7451   -0.2613 H   0  0  0  0  0  0  0  0  0  0  0  0
    1.7467    4.0196   -1.0691 C   0  0  0  0  0  0  0  0  0  0  0  0
    1.1587    4.9502   -1.0288 H   0  0  0  0  0  0  0  0  0  0  0  0
    3.0607    4.0367   -1.5621 C   0  0  0  0  0  0  0  0  0  0  0  0
    3.5085    4.9801   -1.9110 H   0  0  0  0  0  0  0  0  0  0  0  0
    3.8034    2.8436   -1.6167 C   0  0  0  0  0  0  0  0  0  0  0  0
    4.8316    2.8539   -2.0108 H   0  0  0  0  0  0  0  0  0  0  0  0
    3.2371    1.6386   -1.1756 C   0  0  0  0  0  0  0  0  0  0  0  0
    3.8215    0.7067   -1.2251 H   0  0  0  0  0  0  0  0  0  0  0  0
  1 15  1  0  0  0  0
  3  2  1  0  0  0  0
  4  2  1  0  0  0  0
  5  1  1  0  0  0  0
  6  5  1  0  0  0  0
  6  7  1  0  0  0  0
  8  6  2  0  0  0  0
  9  8  1  0  0  0  0
 10 12  2  0  0  0  0
 10  8  1  0  0  0  0
 11 10  1  0  0  0  0
 12 14  1  0  0  0  0
 13 12  1  0  0  0  0
 14  2  1  0  0  0  0
 14  5  2  0  0  0  0
 15 16  2  0  0  0  0
 15 24  1  0  0  0  0
 16 18  1  0  0  0  0
 17 16  1  0  0  0  0
 18 19  1  0  0  0  0
 18 20  2  0  0  0  0
 20 21  1  0  0  0  0
 22 20  1  0  0  0  0
 22 23  1  0  0  0  0
 24 22  2  0  0  0  0
 25 24  1  0  0  0  0
 26 27  1  0  0  0  0
 26  1  1  0  0  0  0
 27 28  1  0  0  0  0
 29 30  1  0  0  0  0
 29 27  2  0  0  0  0
 31 29  1  0  0  0  0
 32 31  1  0  0  0  0
 33 31  2  0  0  0  0
 33 35  1  0  0  0  0
 34 33  1  0  0  0  0
 35 26  2  0  0  0  0
 36 35  1  0  0  0  0
M  END
