1,4
q = 0.0, confidence = 0.996

 61 61  0  0  0  0  0  0  0  0999 V2000
   -1.1394    0.9536    0.1642 P   0  0  0  0  0  0  0  0  0  0  0  0
    0.6292    0.6927    0.1395 N   0  0  0  0  0  0  0  0  0  0  0  0
    1.8137   -1.3687    0.2414 N   0  0  0  0  0  0  0  0  0  0  0  0
    0.6627   -0.7056    0.0446 C   0  0  0  0  0  2  0  0  0  0  0  0
    2.3571    1.4355   -1.4339 C   0  0  0  0  0  0  0  0  0  0  0  0
    3.3330    2.3616   -1.8238 C   0  0  0  0  0  0  0  0  0  0  0  0
    3.6187    3.4760   -1.0169 C   0  0  0  0  0  0  0  0  0  0  0  0
    2.9316    3.6488    0.1950 C   0  0  0  0  0  0  0  0  0  0  0  0
    1.9652    2.7174    0.6003 C   0  0  0  0  0  0  0  0  0  0  0  0
    1.6621    1.6111   -0.2173 C   0  0  0  0  0  0  0  0  0  0  0  0
   -1.6068    1.6159    1.8833 C   0  0  0  0  0  0  0  0  0  0  0  0
   -3.0759    1.2095    2.1303 C   0  0  0  0  0  0  0  0  0  0  0  0
   -1.4500    3.1332    2.0637 C   0  0  0  0  0  0  0  0  0  0  0  0
   -0.7089    0.8511    2.8738 C   0  0  0  0  0  0  0  0  0  0  0  0
   -1.6197    2.0673   -1.2855 C   0  0  0  0  0  0  0  0  0  0  0  0
   -0.8754    3.4117   -1.3539 C   0  0  0  0  0  0  0  0  0  0  0  0
   -3.1424    2.2833   -1.1653 C   0  0  0  0  0  0  0  0  0  0  0  0
   -1.3273    1.2344   -2.5492 C   0  0  0  0  0  0  0  0  0  0  0  0
    2.9420   -0.7764    1.0249 C   0  0  0  0  0  0  0  0  0  0  0  0
    2.8837   -1.2106    2.4987 C   0  0  0  0  0  0  0  0  0  0  0  0
    4.3193   -0.9783    0.3939 C   0  0  0  0  0  0  0  0  0  0  0  0
    1.8727   -2.7679   -0.2693 C   0  0  0  0  0  0  0  0  0  0  0  0
    2.3576   -3.8134    0.7312 C   0  0  0  0  0  0  0  0  0  0  0  0
    2.5865   -2.8427   -1.6246 C   0  0  0  0  0  0  0  0  0  0  0  0
    2.1193    0.5690   -2.0676 H   0  0  0  0  0  0  0  0  0  0  0  0
    3.8657    2.2184   -2.7760 H   0  0  0  0  0  0  0  0  0  0  0  0
    4.3778    4.2069   -1.3320 H   0  0  0  0  0  0  0  0  0  0  0  0
    3.1553    4.5130    0.8384 H   0  0  0  0  0  0  0  0  0  0  0  0
    1.4452    2.8362    1.5603 H   0  0  0  0  0  0  0  0  0  0  0  0
   -3.3162    1.4059    3.1964 H   0  0  0  0  0  0  0  0  0  0  0  0
   -3.2574    0.1402    1.9040 H   0  0  0  0  0  0  0  0  0  0  0  0
   -3.7806    1.7965    1.5125 H   0  0  0  0  0  0  0  0  0  0  0  0
   -0.4218    3.4933    1.8701 H   0  0  0  0  0  0  0  0  0  0  0  0
   -1.7017    3.3929    3.1138 H   0  0  0  0  0  0  0  0  0  0  0  0
   -2.1429    3.7007    1.4134 H   0  0  0  0  0  0  0  0  0  0  0  0
   -1.0347    1.0906    3.9070 H   0  0  0  0  0  0  0  0  0  0  0  0
    0.3601    1.1247    2.7764 H   0  0  0  0  0  0  0  0  0  0  0  0
   -0.7996   -0.2454    2.7311 H   0  0  0  0  0  0  0  0  0  0  0  0
   -0.9897    4.0168   -0.4361 H   0  0  0  0  0  0  0  0  0  0  0  0
    0.2040    3.2872   -1.5582 H   0  0  0  0  0  0  0  0  0  0  0  0
   -1.3067    3.9988   -2.1925 H   0  0  0  0  0  0  0  0  0  0  0  0
   -3.5049    2.7361   -2.1120 H   0  0  0  0  0  0  0  0  0  0  0  0
   -3.6733    1.3193   -1.0127 H   0  0  0  0  0  0  0  0  0  0  0  0
   -3.4026    2.9802   -0.3444 H   0  0  0  0  0  0  0  0  0  0  0  0
   -0.2543    0.9733   -2.6355 H   0  0  0  0  0  0  0  0  0  0  0  0
   -1.9166    0.2962   -2.5553 H   0  0  0  0  0  0  0  0  0  0  0  0
   -1.6037    1.8352   -3.4412 H   0  0  0  0  0  0  0  0  0  0  0  0
    2.7670    0.3110    1.0288 H   0  0  0  0  0  0  0  0  0  0  0  0
    3.5564   -0.5590    3.0925 H   0  0  0  0  0  0  0  0  0  0  0  0
    1.8571   -1.0991    2.8990 H   0  0  0  0  0  0  0  0  0  0  0  0
    3.2041   -2.2562    2.6548 H   0  0  0  0  0  0  0  0  0  0  0  0
    4.3501   -0.5901   -0.6420 H   0  0  0  0  0  0  0  0  0  0  0  0
    5.0678   -0.4166    0.9877 H   0  0  0  0  0  0  0  0  0  0  0  0
    4.6321   -2.0394    0.3835 H   0  0  0  0  0  0  0  0  0  0  0  0
    0.8092   -3.0195   -0.4686 H   0  0  0  0  0  0  0  0  0  0  0  0
    1.7630   -3.7792    1.6641 H   0  0  0  0  0  0  0  0  0  0  0  0
    3.4352   -3.7412    0.9823 H   0  0  0  0  0  0  0  0  0  0  0  0
    2.1895   -4.8110    0.2795 H   0  0  0  0  0  0  0  0  0  0  0  0
    2.3652   -3.8266   -2.0844 H   0  0  0  0  0  0  0  0  0  0  0  0
    2.1945   -2.0675   -2.3134 H   0  0  0  0  0  0  0  0  0  0  0  0
    3.6874   -2.7382   -1.5628 H   0  0  0  0  0  0  0  0  0  0  0  0
  1 11  1  0  0  0  0
  2  1  1  0  0  0  0
  3 19  1  0  0  0  0
  4  2  1  0  0  0  0
  4  3  1  0  0  0  0
  5 10  1  0  0  0  0
  6  5  2  0  0  0  0
  6  7  1  0  0  0  0
  7  8  2  0  0  0  0
  8  9  1  0  0  0  0
  8 28  1  0  0  0  0
  9 29  1  0  0  0  0
 10  2  1  0  0  0  0
 10  9  2  0  0  0  0
 11 13  1  0  0  0  0
 11 12  1  0  0  0  0
 11 14  1  0  0  0  0
 12 30  1  0  0  0  0
 13 34  1  0  0  0  0
 14 36  1  0  0  0  0
 15 17  1  0  0  0  0
 15  1  1  0  0  0  0
 16 15  1  0  0  0  0
 16 39  1  0  0  0  0
 17 43  1  0  0  0  0
 17 44  1  0  0  0  0
 18 15  1  0  0  0  0
 19 48  1  0  0  0  0
 19 20  1  0  0  0  0
 20 51  1  0  0  0  0
 20 50  1  0  0  0  0
 20 49  1  0  0  0  0
 21 53  1  0  0  0  0
 21 19  1  0  0  0  0
 22  3  1  0  0  0  0
 22 23  1  0  0  0  0
 23 57  1  0  0  0  0
 23 56  1  0  0  0  0
 24 61  1  0  0  0  0
 24 22  1  0  0  0  0
 25  5  1  0  0  0  0
 26  6  1  0  0  0  0
 27  7  1  0  0  0  0
 31 12  1  0  0  0  0
 32 12  1  0  0  0  0
 33 13  1  0  0  0  0
 35 13  1  0  0  0  0
 37 14  1  0  0  0  0
 38 14  1  0  0  0  0
 40 16  1  0  0  0  0
 41 16  1  0  0  0  0
 42 17  1  0  0  0  0
 45 18  1  0  0  0  0
 46 18  1  0  0  0  0
 47 18  1  0  0  0  0
 52 21  1  0  0  0  0
 54 21  1  0  0  0  0
 55 22  1  0  0  0  0
 58 23  1  0  0  0  0
 59 24  1  0  0  0  0
 60 24  1  0  0  0  0
M  END
