1,39
q = 0.0, confidence = 0.992

 51 52  0  0  1  0  0  0  0  0999 V2000
   -2.0169   -0.1628    0.0072 P   0  0  0  0  0  0  0  0  0  0  0  0
   -0.5987   -2.4742    0.0327 C   0  0  2  0  0  3  0  0  0  0  0  0
   -1.8177   -1.9790   -0.3140 N   0  0  0  0  0  0  0  0  0  0  0  0
   -2.6683   -3.0205   -0.6475 C   0  0  0  0  0  0  0  0  0  0  0  0
   -3.6992   -2.8635   -0.9704 H   0  0  0  0  0  0  0  0  0  0  0  0
   -1.9505   -4.1842   -0.5303 C   0  0  0  0  0  0  0  0  0  0  0  0
   -2.2299   -5.2238   -0.7280 H   0  0  0  0  0  0  0  0  0  0  0  0
   -0.6777   -3.8361   -0.0962 N   0  0  0  0  0  0  0  0  0  0  0  0
    0.3598   -4.7935    0.2627 C   0  0  0  0  0  0  0  0  0  0  0  0
    1.0995   -4.9052   -0.5535 H   0  0  0  0  0  0  0  0  0  0  0  0
   -0.1188   -5.7657    0.4807 H   0  0  0  0  0  0  0  0  0  0  0  0
    0.8988   -4.4368    1.1585 H   0  0  0  0  0  0  0  0  0  0  0  0
   -3.1441   -0.3677    1.5860 C   0  0  0  0  0  0  0  0  0  0  0  0
   -3.2860    1.0480    2.1750 C   0  0  0  0  0  0  0  0  0  0  0  0
   -3.7261    1.7651    1.4514 H   0  0  0  0  0  0  0  0  0  0  0  0
   -2.2987    1.4210    2.5123 H   0  0  0  0  0  0  0  0  0  0  0  0
   -3.9592    1.0122    3.0583 H   0  0  0  0  0  0  0  0  0  0  0  0
   -4.5372   -1.0013    1.4131 C   0  0  0  0  0  0  0  0  0  0  0  0
   -5.2771   -0.3290    0.9505 H   0  0  0  0  0  0  0  0  0  0  0  0
   -4.9176   -1.2509    2.4268 H   0  0  0  0  0  0  0  0  0  0  0  0
   -4.5142   -1.9529    0.8476 H   0  0  0  0  0  0  0  0  0  0  0  0
   -2.3701   -1.2667    2.5709 C   0  0  0  0  0  0  0  0  0  0  0  0
   -2.3527   -2.3234    2.2349 H   0  0  0  0  0  0  0  0  0  0  0  0
   -2.8985   -1.2448    3.5481 H   0  0  0  0  0  0  0  0  0  0  0  0
   -1.3405   -0.9015    2.7442 H   0  0  0  0  0  0  0  0  0  0  0  0
   -3.1000    0.3981   -1.5260 C   0  0  0  0  0  0  0  0  0  0  0  0
   -4.6159    0.4828   -1.2973 C   0  0  0  0  0  0  0  0  0  0  0  0
   -4.8908    1.1574   -0.4636 H   0  0  0  0  0  0  0  0  0  0  0  0
   -5.0844   -0.5040   -1.1274 H   0  0  0  0  0  0  0  0  0  0  0  0
   -5.0719    0.9031   -2.2192 H   0  0  0  0  0  0  0  0  0  0  0  0
   -2.8452   -0.5281   -2.7306 C   0  0  0  0  0  0  0  0  0  0  0  0
   -1.7648   -0.7038   -2.8903 H   0  0  0  0  0  0  0  0  0  0  0  0
   -3.2497   -0.0296   -3.6376 H   0  0  0  0  0  0  0  0  0  0  0  0
   -3.3671   -1.4993   -2.6363 H   0  0  0  0  0  0  0  0  0  0  0  0
   -2.5919    1.8110   -1.8708 C   0  0  0  0  0  0  0  0  0  0  0  0
   -1.5292    1.7830   -2.1717 H   0  0  0  0  0  0  0  0  0  0  0  0
   -2.7066    2.5169   -1.0241 H   0  0  0  0  0  0  0  0  0  0  0  0
   -3.1907    2.2034   -2.7201 H   0  0  0  0  0  0  0  0  0  0  0  0
    0.4975   -1.6458    0.5646 C   0  0  0  0  0  3  0  0  0  0  0  0
    0.3814   -1.6027    1.6702 H   0  0  0  0  0  0  0  0  0  0  0  0
    1.8701   -2.1114    0.2232 C   0  0  0  0  0  0  0  0  0  0  0  0
    2.9015   -2.0330    1.1904 C   0  0  0  0  0  0  0  0  0  0  0  0
    2.6566   -1.6349    2.1880 H   0  0  0  0  0  0  0  0  0  0  0  0
    4.2125   -2.4207    0.8880 C   0  0  0  0  0  0  0  0  0  0  0  0
    4.9947   -2.3398    1.6590 H   0  0  0  0  0  0  0  0  0  0  0  0
    4.5342   -2.9075   -0.3913 C   0  0  0  0  0  0  0  0  0  0  0  0
    5.5639   -3.2157   -0.6284 H   0  0  0  0  0  0  0  0  0  0  0  0
    3.5250   -2.9867   -1.3650 C   0  0  0  0  0  0  0  0  0  0  0  0
    3.7640   -3.3496   -2.3773 H   0  0  0  0  0  0  0  0  0  0  0  0
    2.2129   -2.5894   -1.0661 C   0  0  0  0  0  0  0  0  0  0  0  0
    1.4418   -2.6009   -1.8516 H   0  0  0  0  0  0  0  0  0  0  0  0
  1 13  1  0  0  0  0
  2 39  1  1  0  0  0
  3  1  1  0  0  0  0
  3  2  1  0  0  0  0
  4  6  2  0  0  0  0
  4  3  1  0  0  0  0
  5  4  1  0  0  0  0
  6  8  1  0  0  0  0
  7  6  1  0  0  0  0
  8  2  1  0  0  0  0
  8  9  1  0  0  0  0
  9 11  1  0  0  0  0
  9 12  1  0  0  0  0
 10  9  1  0  0  0  0
 13 14  1  0  0  0  0
 13 22  1  0  0  0  0
 14 16  1  0  0  0  0
 14 17  1  0  0  0  0
 15 14  1  0  0  0  0
 18 13  1  0  0  0  0
 18 20  1  0  0  0  0
 19 18  1  0  0  0  0
 21 18  1  0  0  0  0
 22 25  1  0  0  0  0
 22 24  1  0  0  0  0
 23 22  1  0  0  0  0
 26 27  1  0  0  0  0
 26  1  1  0  0  0  0
 27 29  1  0  0  0  0
 27 28  1  0  0  0  0
 30 27  1  0  0  0  0
 31 34  1  0  0  0  0
 31 26  1  0  0  0  0
 32 31  1  0  0  0  0
 33 31  1  0  0  0  0
 35 26  1  0  0  0  0
 35 37  1  0  0  0  0
 36 35  1  0  0  0  0
 38 35  1  0  0  0  0
 39 40  1  0  0  0  0
 41 39  1  0  0  0  0
 41 42  1  0  0  0  0
 42 43  1  0  0  0  0
 44 42  2  0  0  0  0
 44 45  1  0  0  0  0
 46 44  1  0  0  0  0
 47 46  1  0  0  0  0
 48 50  1  0  0  0  0
 48 46  2  0  0  0  0
 49 48  1  0  0  0  0
 50 41  2  0  0  0  0
 51 50  1  0  0  0  0
M  END
