1,3
q = -1.0

 41 42  0  0  0  0  0  0  0  0999 V2000
    0.4336    0.2740    0.7615 P   0  0  0  0  0  0  0  0  0  0  0  0
    0.5864    0.3291    2.1798 H   0  0  0  0  0  0  0  0  0  0  0  0
   -1.8429    0.8329   -1.0949 C   0  0  0  0  0  3  0  0  0  0  0  0
   -1.4779    0.7668   -2.1442 H   0  0  0  0  0  0  0  0  0  0  0  0
   -2.9382    0.9801   -1.1870 H   0  0  0  0  0  0  0  0  0  0  0  0
    2.1752   -0.0398    0.2580 C   0  0  0  0  0  0  0  0  0  0  0  0
    2.9978   -0.8332    1.1080 C   0  0  0  0  0  0  0  0  0  0  0  0
    4.3156   -1.1082    0.7051 C   0  0  0  0  0  0  0  0  0  0  0  0
    4.9505   -1.7195    1.3669 H   0  0  0  0  0  0  0  0  0  0  0  0
    4.8410   -0.6412   -0.5126 C   0  0  0  0  0  0  0  0  0  0  0  0
    3.9986    0.1178   -1.3405 C   0  0  0  0  0  0  0  0  0  0  0  0
    4.3820    0.4826   -2.3071 H   0  0  0  0  0  0  0  0  0  0  0  0
    2.6706    0.4268   -0.9899 C   0  0  0  0  0  0  0  0  0  0  0  0
    2.5026   -1.4017    2.4162 C   0  0  0  0  0  0  0  0  0  0  0  0
    2.2595   -0.6057    3.1521 H   0  0  0  0  0  0  0  0  0  0  0  0
    3.2714   -2.0518    2.8747 H   0  0  0  0  0  0  0  0  0  0  0  0
    1.5859   -2.0128    2.2848 H   0  0  0  0  0  0  0  0  0  0  0  0
    6.2474   -0.9847   -0.9312 C   0  0  0  0  0  0  0  0  0  0  0  0
    6.2921   -2.0073   -1.3639 H   0  0  0  0  0  0  0  0  0  0  0  0
    6.9446   -0.9686   -0.0698 H   0  0  0  0  0  0  0  0  0  0  0  0
    6.6284   -0.2851   -1.7003 H   0  0  0  0  0  0  0  0  0  0  0  0
    1.8456    1.2459   -1.9522 C   0  0  0  0  0  0  0  0  0  0  0  0
    2.3228    1.2629   -2.9505 H   0  0  0  0  0  0  0  0  0  0  0  0
    1.7337    2.2948   -1.6088 H   0  0  0  0  0  0  0  0  0  0  0  0
    0.8201    0.8487   -2.0749 H   0  0  0  0  0  0  0  0  0  0  0  0
   -0.0871    1.9754    0.3686 C   0  0  0  0  0  0  0  0  0  0  0  0
    0.5578    3.1299    0.8870 C   0  0  0  0  0  0  0  0  0  0  0  0
    0.0085    4.3823    0.5753 C   0  0  0  0  0  0  0  0  0  0  0  0
    0.4893    5.2890    0.9776 H   0  0  0  0  0  0  0  0  0  0  0  0
   -1.1488    4.5103   -0.2238 C   0  0  0  0  0  0  0  0  0  0  0  0
   -1.7464    3.3460   -0.7321 C   0  0  0  0  0  0  0  0  0  0  0  0
   -2.6399    3.4325   -1.3713 H   0  0  0  0  0  0  0  0  0  0  0  0
   -1.2295    2.0596   -0.4635 C   0  0  0  0  0  0  0  0  0  0  0  0
    1.7873    3.0243    1.7529 C   0  0  0  0  0  0  0  0  0  0  0  0
    2.6134    2.5008    1.2283 H   0  0  0  0  0  0  0  0  0  0  0  0
    1.5854    2.4409    2.6766 H   0  0  0  0  0  0  0  0  0  0  0  0
    2.1499    4.0237    2.0595 H   0  0  0  0  0  0  0  0  0  0  0  0
   -1.7271    5.8735   -0.5080 C   0  0  0  0  0  0  0  0  0  0  0  0
   -0.9496    6.5745   -0.8748 H   0  0  0  0  0  0  0  0  0  0  0  0
   -2.1542    6.3236    0.4133 H   0  0  0  0  0  0  0  0  0  0  0  0
   -2.5341    5.8267   -1.2641 H   0  0  0  0  0  0  0  0  0  0  0  0
  1  2  1  0  0  0  0
  3 33  1  0  0  0  0
  4  3  1  0  0  0  0
  5  3  1  0  0  0  0
  6  1  1  0  0  0  0
  6  7  1  0  0  0  0
  7 14  1  0  0  0  0
  8  7  2  0  0  0  0
  8  9  1  0  0  0  0
 10  8  1  0  0  0  0
 11 13  1  0  0  0  0
 11 10  2  0  0  0  0
 12 11  1  0  0  0  0
 13  6  2  0  0  0  0
 14 16  1  0  0  0  0
 14 15  1  0  0  0  0
 17 14  1  0  0  0  0
 18 10  1  0  0  0  0
 18 20  1  0  0  0  0
 19 18  1  0  0  0  0
 21 18  1  0  0  0  0
 22 24  1  0  0  0  0
 22 13  1  0  0  0  0
 23 22  1  0  0  0  0
 25 22  1  0  0  0  0
 26  1  1  0  0  0  0
 26 27  1  0  0  0  0
 27 34  1  0  0  0  0
 28 27  2  0  0  0  0
 28 29  1  0  0  0  0
 30 28  1  0  0  0  0
 31 33  1  0  0  0  0
 31 30  2  0  0  0  0
 32 31  1  0  0  0  0
 33 26  2  0  0  0  0
 34 37  1  0  0  0  0
 34 36  1  0  0  0  0
 35 34  1  0  0  0  0
 38 30  1  0  0  0  0
 38 40  1  0  0  0  0
 39 38  1  0  0  0  0
 41 38  1  0  0  0  0
M  END
