1,25
q = -1.0, confidence = 0.0

 39 38  0  0  0  0  0  0  0  0999 V2000
   -1.8250   -0.1885   -0.0065 P   0  0  0  0  0  0  0  0  0  0  0  0
   -2.7911    0.9296   -1.2282 C   0  0  0  0  0  0  0  0  0  0  0  0
   -2.0506    0.9306   -2.5838 C   0  0  0  0  0  0  0  0  0  0  0  0
   -2.2190    0.0075   -3.1619 H   0  0  0  0  0  0  0  0  0  0  0  0
   -0.9567    1.0525   -2.4600 H   0  0  0  0  0  0  0  0  0  0  0  0
   -2.4291    1.7764   -3.1940 H   0  0  0  0  0  0  0  0  0  0  0  0
   -4.2293    0.4152   -1.4267 C   0  0  0  0  0  0  0  0  0  0  0  0
   -4.8339    0.4755   -0.5040 H   0  0  0  0  0  0  0  0  0  0  0  0
   -4.2569   -0.6298   -1.7888 H   0  0  0  0  0  0  0  0  0  0  0  0
   -4.7310    1.0428   -2.1930 H   0  0  0  0  0  0  0  0  0  0  0  0
   -1.8573   -2.0404   -0.4954 C   0  0  0  0  0  0  0  0  0  0  0  0
   -2.3771    0.0887    1.8142 C   0  0  0  0  0  0  0  0  0  0  0  0
   -1.6624   -0.9469    2.7072 C   0  0  0  0  0  0  0  0  0  0  0  0
   -0.5616   -0.8696    2.6048 H   0  0  0  0  0  0  0  0  0  0  0  0
   -1.9581   -1.9908    2.5037 H   0  0  0  0  0  0  0  0  0  0  0  0
   -1.9263   -0.7298    3.7627 H   0  0  0  0  0  0  0  0  0  0  0  0
   -1.8906   -2.2368   -2.0200 C   0  0  0  0  0  0  0  0  0  0  0  0
   -1.7030   -3.3125   -2.2194 H   0  0  0  0  0  0  0  0  0  0  0  0
   -1.0919   -1.6657   -2.5295 H   0  0  0  0  0  0  0  0  0  0  0  0
   -2.8683   -1.9876   -2.4742 H   0  0  0  0  0  0  0  0  0  0  0  0
   -1.8773    1.4720    2.2844 C   0  0  0  0  0  0  0  0  0  0  0  0
   -2.0455    1.5484    3.3788 H   0  0  0  0  0  0  0  0  0  0  0  0
   -2.4053    2.3177    1.8141 H   0  0  0  0  0  0  0  0  0  0  0  0
   -0.7916    1.5921    2.1020 H   0  0  0  0  0  0  0  0  0  0  0  0
   -0.3826   -2.2388   -0.0306 C   0  0  0  0  0  3  0  0  0  0  0  0
    0.1672   -2.9222   -0.7132 H   0  0  0  0  0  0  0  0  0  0  0  0
   -0.3239   -2.6503    0.9991 H   0  0  0  0  0  0  0  0  0  0  0  0
   -2.8245    2.3779   -0.7065 C   0  0  0  0  0  0  0  0  0  0  0  0
   -3.2578    3.0240   -1.4981 H   0  0  0  0  0  0  0  0  0  0  0  0
   -1.8137    2.7671   -0.4723 H   0  0  0  0  0  0  0  0  0  0  0  0
   -3.4638    2.4922    0.1877 H   0  0  0  0  0  0  0  0  0  0  0  0
   -2.9111   -2.9546    0.1341 C   0  0  0  0  0  0  0  0  0  0  0  0
   -2.6814   -4.0065   -0.1380 H   0  0  0  0  0  0  0  0  0  0  0  0
   -3.9257   -2.7297   -0.2527 H   0  0  0  0  0  0  0  0  0  0  0  0
   -2.9464   -2.9035    1.2367 H   0  0  0  0  0  0  0  0  0  0  0  0
   -3.9003   -0.0183    1.9939 C   0  0  0  0  0  0  0  0  0  0  0  0
   -4.3069   -0.9777    1.6218 H   0  0  0  0  0  0  0  0  0  0  0  0
   -4.4397    0.8079    1.4928 H   0  0  0  0  0  0  0  0  0  0  0  0
   -4.1411    0.0487    3.0755 H   0  0  0  0  0  0  0  0  0  0  0  0
  1 12  1  0  0  0  0
  2 28  1  0  0  0  0
  2  1  1  0  0  0  0
  3  5  1  0  0  0  0
  3  2  1  0  0  0  0
  4  3  1  0  0  0  0
  6  3  1  0  0  0  0
  7  2  1  0  0  0  0
  7  8  1  0  0  0  0
  9  7  1  0  0  0  0
 10  7  1  0  0  0  0
 11 25  1  0  0  0  0
 11  1  1  0  0  0  0
 11 32  1  0  0  0  0
 12 36  1  0  0  0  0
 12 21  1  0  0  0  0
 12 13  1  0  0  0  0
 13 16  1  0  0  0  0
 14 13  1  0  0  0  0
 15 13  1  0  0  0  0
 17 11  1  0  0  0  0
 18 17  1  0  0  0  0
 19 17  1  0  0  0  0
 20 17  1  0  0  0  0
 21 22  1  0  0  0  0
 23 21  1  0  0  0  0
 24 21  1  0  0  0  0
 25 27  1  0  0  0  0
 26 25  1  0  0  0  0
 28 30  1  0  0  0  0
 28 31  1  0  0  0  0
 29 28  1  0  0  0  0
 32 35  1  0  0  0  0
 33 32  1  0  0  0  0
 34 32  1  0  0  0  0
 36 39  1  0  0  0  0
 37 36  1  0  0  0  0
 38 36  1  0  0  0  0
M  END
