2,38
q = 0.0, confidence = 0.99

 59 62  0  0  1  0  0  0  0  0999 V2000
    2.6528    0.3644   -1.9168 O   0  0  0  0  0  0  0  0  0  0  0  0
   -1.0744    1.8428   -0.2028 P   0  0  0  0  0  0  0  0  0  0  0  0
    3.0029    0.1774   -0.4505 P   0  0  1  0  0  0  0  0  0  0  0  0
   -1.9615    1.4275   -1.7344 C   0  0  0  0  0  0  0  0  0  0  0  0
   -3.2204    0.7937   -1.6497 C   0  0  0  0  0  0  0  0  0  0  0  0
   -3.6953    0.6320   -0.6704 H   0  0  0  0  0  0  0  0  0  0  0  0
   -3.8575    0.3569   -2.8184 C   0  0  0  0  0  0  0  0  0  0  0  0
   -4.8364   -0.1406   -2.7518 H   0  0  0  0  0  0  0  0  0  0  0  0
   -3.2490    0.5532   -4.0692 C   0  0  0  0  0  0  0  0  0  0  0  0
   -3.7510    0.2050   -4.9841 H   0  0  0  0  0  0  0  0  0  0  0  0
   -2.0009    1.1898   -4.1538 C   0  0  0  0  0  0  0  0  0  0  0  0
   -1.5222    1.3420   -5.1322 H   0  0  0  0  0  0  0  0  0  0  0  0
   -1.3505    1.6224   -2.9902 C   0  0  0  0  0  0  0  0  0  0  0  0
   -0.3579    2.0878   -3.0687 H   0  0  0  0  0  0  0  0  0  0  0  0
   -2.3229    2.3779    1.0080 C   0  0  0  0  0  0  0  0  0  0  0  0
   -3.3319    3.2789    0.5996 C   0  0  0  0  0  0  0  0  0  0  0  0
   -3.4055    3.5968   -0.4519 H   0  0  0  0  0  0  0  0  0  0  0  0
   -4.2548    3.7569    1.5393 C   0  0  0  0  0  0  0  0  0  0  0  0
   -5.0427    4.4559    1.2218 H   0  0  0  0  0  0  0  0  0  0  0  0
   -4.1784    3.3402    2.8793 C   0  0  0  0  0  0  0  0  0  0  0  0
   -4.9094    3.7141    3.6117 H   0  0  0  0  0  0  0  0  0  0  0  0
   -3.1777    2.4432    3.2834 C   0  0  0  0  0  0  0  0  0  0  0  0
   -3.1241    2.1087    4.3299 H   0  0  0  0  0  0  0  0  0  0  0  0
   -2.2467    1.9608    2.3515 C   0  0  0  0  0  0  0  0  0  0  0  0
   -1.4728    1.2417    2.6575 H   0  0  0  0  0  0  0  0  0  0  0  0
   -0.0362    3.3471   -0.5313 C   0  0  0  0  0  0  0  0  0  0  0  0
   -0.6629    3.9590   -1.2136 H   0  0  0  0  0  0  0  0  0  0  0  0
   -0.0062    3.8939    0.4353 H   0  0  0  0  0  0  0  0  0  0  0  0
    1.3802    3.1593   -1.1094 C   0  0  0  0  0  0  0  0  0  0  0  0
    1.4224    2.3345   -1.8501 H   0  0  0  0  0  0  0  0  0  0  0  0
    1.6331    4.0878   -1.6601 H   0  0  0  0  0  0  0  0  0  0  0  0
    2.4801    2.9337   -0.0602 C   0  0  0  0  0  0  0  0  0  0  0  0
    3.4679    3.0193   -0.5603 H   0  0  0  0  0  0  0  0  0  0  0  0
    2.4480    3.7454    0.6977 H   0  0  0  0  0  0  0  0  0  0  0  0
    2.4351    1.5821    0.6629 C   0  0  0  0  0  0  0  0  0  0  0  0
    1.4200    1.4983    1.2271 H   0  0  0  0  0  0  0  0  0  0  0  0
    3.1074    1.5675    1.5474 H   0  0  0  0  0  0  0  0  0  0  0  0
    2.1622   -1.2901    0.2930 C   0  0  2  0  0  3  0  0  0  0  0  0
    1.8255   -1.4029    1.6815 C   0  0  0  0  0  3  0  0  0  0  0  0
    2.1592   -0.6497    2.4127 H   0  0  0  0  0  0  0  0  0  0  0  0
    1.1966   -2.5793    2.1568 C   0  0  0  0  0  0  0  0  0  0  0  0
    0.9431   -2.6632    3.2231 H   0  0  0  0  0  0  0  0  0  0  0  0
    0.9038   -3.6191    1.2726 C   0  0  0  0  0  0  0  0  0  0  0  0
    0.4114   -4.5299    1.6442 H   0  0  0  0  0  0  0  0  0  0  0  0
    1.2468   -3.5162   -0.0947 C   0  0  0  0  0  0  0  0  0  0  0  0
    1.0173   -4.3468   -0.7787 H   0  0  0  0  0  0  0  0  0  0  0  0
    1.8679   -2.3698   -0.5874 C   0  0  0  0  0  0  0  0  0  0  0  0
    2.1141   -2.2615   -1.6541 H   0  0  0  0  0  0  0  0  0  0  0  0
    4.7921    0.0376   -0.1678 C   0  0  0  0  0  0  0  0  0  0  0  0
    5.6248    0.2145   -1.2907 C   0  0  0  0  0  0  0  0  0  0  0  0
    5.1641    0.4194   -2.2692 H   0  0  0  0  0  0  0  0  0  0  0  0
    7.0163    0.1196   -1.1400 C   0  0  0  0  0  0  0  0  0  0  0  0
    7.6713    0.2580   -2.0131 H   0  0  0  0  0  0  0  0  0  0  0  0
    7.5708   -0.1551    0.1201 C   0  0  0  0  0  0  0  0  0  0  0  0
    8.6625   -0.2311    0.2343 H   0  0  0  0  0  0  0  0  0  0  0  0
    6.7382   -0.3394    1.2379 C   0  0  0  0  0  0  0  0  0  0  0  0
    7.1767   -0.5626    2.2218 H   0  0  0  0  0  0  0  0  0  0  0  0
    5.3471   -0.2444    1.0975 C   0  0  0  0  0  0  0  0  0  0  0  0
    4.7015   -0.4050    1.9759 H   0  0  0  0  0  0  0  0  0  0  0  0
  2 15  1  0  0  0  0
  3  1  2  6  0  0  0
  3 49  1  0  0  0  0
  3 35  1  0  0  0  0
  4  5  1  0  0  0  0
  4  2  1  0  0  0  0
  5  6  1  0  0  0  0
  7  8  1  0  0  0  0
  7  5  2  0  0  0  0
  9  7  1  0  0  0  0
 10  9  1  0  0  0  0
 11  9  2  0  0  0  0
 11 13  1  0  0  0  0
 12 11  1  0  0  0  0
 13  4  2  0  0  0  0
 14 13  1  0  0  0  0
 15 24  1  0  0  0  0
 16 15  2  0  0  0  0
 16 18  1  0  0  0  0
 17 16  1  0  0  0  0
 18 20  2  0  0  0  0
 19 18  1  0  0  0  0
 20 22  1  0  0  0  0
 20 21  1  0  0  0  0
 22 23  1  0  0  0  0
 24 25  1  0  0  0  0
 24 22  2  0  0  0  0
 26  2  1  0  0  0  0
 26 28  1  0  0  0  0
 27 26  1  0  0  0  0
 29 26  1  0  0  0  0
 29 32  1  0  0  0  0
 30 29  1  0  0  0  0
 31 29  1  0  0  0  0
 32 35  1  0  0  0  0
 32 34  1  0  0  0  0
 33 32  1  0  0  0  0
 35 36  1  0  0  0  0
 35 37  1  0  0  0  0
 38  3  1  1  0  0  0
 38 39  1  0  0  0  0
 39 41  1  0  0  0  0
 39 40  1  0  0  0  0
 41 42  1  0  0  0  0
 43 44  1  0  0  0  0
 43 41  2  0  0  0  0
 45 43  1  0  0  0  0
 46 45  1  0  0  0  0
 47 45  2  0  0  0  0
 47 38  1  0  0  0  0
 48 47  1  0  0  0  0
 49 58  1  0  0  0  0
 50 52  1  0  0  0  0
 50 49  2  0  0  0  0
 51 50  1  0  0  0  0
 52 54  2  0  0  0  0
 53 52  1  0  0  0  0
 54 55  1  0  0  0  0
 54 56  1  0  0  0  0
 56 57  1  0  0  0  0
 58 56  2  0  0  0  0
 58 59  1  0  0  0  0
M  END
