1,2
q = 0.0, confidence = 0.986

 56 61  0  0  0  0  0  0  0  0999 V2000
    1.3476    0.0597    0.4039 P   0  0  0  0  0  0  0  0  0  0  0  0
   -0.8757   -0.9722   -0.9402 C   0  0  0  0  0  2  0  0  0  0  0  0
   -2.6737   -0.4763    0.3889 C   0  0  0  0  0  0  0  0  0  0  0  0
   -3.6055    0.0991    1.2627 C   0  0  0  0  0  0  0  0  0  0  0  0
   -4.5739   -0.7547    1.8132 C   0  0  0  0  0  0  0  0  0  0  0  0
   -4.6097   -2.1313    1.5005 C   0  0  0  0  0  0  0  0  0  0  0  0
   -3.6701   -2.7081    0.6327 C   0  0  0  0  0  0  0  0  0  0  0  0
   -2.6986   -1.8574    0.0883 C   0  0  0  0  0  0  0  0  0  0  0  0
   -1.2347   -3.4330   -1.2168 C   0  0  0  0  0  0  0  0  0  0  0  0
   -1.0592    1.3713   -0.1191 C   0  0  0  0  0  0  0  0  0  0  0  0
   -1.9006    2.4892   -0.4128 C   0  0  0  0  0  0  0  0  0  0  0  0
   -3.1870    2.3608   -1.0190 C   0  0  0  0  0  0  0  0  0  0  0  0
   -3.9588    3.4820   -1.2807 C   0  0  0  0  0  0  0  0  0  0  0  0
   -3.4863    4.7804   -0.9485 C   0  0  0  0  0  0  0  0  0  0  0  0
   -2.2292    4.9394   -0.3876 C   0  0  0  0  0  0  0  0  0  0  0  0
   -1.3979    3.8121   -0.1210 C   0  0  0  0  0  0  0  0  0  0  0  0
   -0.0785    3.9575    0.3934 C   0  0  0  0  0  0  0  0  0  0  0  0
    0.7386    2.8561    0.5909 C   0  0  0  0  0  0  0  0  0  0  0  0
    0.2545    1.5441    0.3375 C   0  0  0  0  0  0  0  0  0  0  0  0
    2.9440    0.6809    1.0337 C   0  0  0  0  0  0  0  0  0  0  0  0
    3.2575    0.6154    2.4070 C   0  0  0  0  0  0  0  0  0  0  0  0
    4.4683    1.1505    2.8708 C   0  0  0  0  0  0  0  0  0  0  0  0
    5.3643    1.7488    1.9701 C   0  0  0  0  0  0  0  0  0  0  0  0
    5.0538    1.8057    0.6019 C   0  0  0  0  0  0  0  0  0  0  0  0
    3.8494    1.2685    0.1242 C   0  0  0  0  0  0  0  0  0  0  0  0
    0.6304   -0.9746    1.7461 C   0  0  0  0  0  0  0  0  0  0  0  0
   -0.2084   -0.4442    2.7454 C   0  0  0  0  0  0  0  0  0  0  0  0
   -0.8018   -1.2969    3.6895 C   0  0  0  0  0  0  0  0  0  0  0  0
   -0.5526   -2.6772    3.6466 C   0  0  0  0  0  0  0  0  0  0  0  0
    0.2946   -3.2079    2.6588 C   0  0  0  0  0  0  0  0  0  0  0  0
    0.8798   -2.3625    1.7056 C   0  0  0  0  0  0  0  0  0  0  0  0
   -1.6030   -2.1090   -0.7374 N   0  0  0  0  0  0  0  0  0  0  0  0
   -1.5598    0.0434   -0.2914 N   0  0  0  0  0  0  0  0  0  0  0  0
   -3.5732    1.1682    1.5099 H   0  0  0  0  0  0  0  0  0  0  0  0
   -5.3205   -0.3398    2.5063 H   0  0  0  0  0  0  0  0  0  0  0  0
   -5.3848   -2.7672    1.9527 H   0  0  0  0  0  0  0  0  0  0  0  0
   -3.6832   -3.7825    0.4042 H   0  0  0  0  0  0  0  0  0  0  0  0
   -2.1450   -3.9604   -1.5604 H   0  0  0  0  0  0  0  0  0  0  0  0
   -0.5426   -3.3060   -2.0732 H   0  0  0  0  0  0  0  0  0  0  0  0
   -0.7564   -4.0130   -0.4012 H   0  0  0  0  0  0  0  0  0  0  0  0
   -3.5541    1.3640   -1.2985 H   0  0  0  0  0  0  0  0  0  0  0  0
   -4.9421    3.3657   -1.7604 H   0  0  0  0  0  0  0  0  0  0  0  0
   -4.1143    5.6598   -1.1556 H   0  0  0  0  0  0  0  0  0  0  0  0
   -1.8437    5.9432   -0.1520 H   0  0  0  0  0  0  0  0  0  0  0  0
    0.2964    4.9690    0.6125 H   0  0  0  0  0  0  0  0  0  0  0  0
    1.7693    2.9842    0.9518 H   0  0  0  0  0  0  0  0  0  0  0  0
    2.5565    0.1454    3.1127 H   0  0  0  0  0  0  0  0  0  0  0  0
    4.7129    1.0967    3.9425 H   0  0  0  0  0  0  0  0  0  0  0  0
    6.3152    2.1651    2.3365 H   0  0  0  0  0  0  0  0  0  0  0  0
    5.7626    2.2586   -0.1077 H   0  0  0  0  0  0  0  0  0  0  0  0
    3.6216    1.2565   -0.9525 H   0  0  0  0  0  0  0  0  0  0  0  0
   -0.4148    0.6367    2.7720 H   0  0  0  0  0  0  0  0  0  0  0  0
   -1.4709   -0.8794    4.4568 H   0  0  0  0  0  0  0  0  0  0  0  0
   -1.0249   -3.3445    4.3833 H   0  0  0  0  0  0  0  0  0  0  0  0
    0.4925   -4.2900    2.6235 H   0  0  0  0  0  0  0  0  0  0  0  0
    1.5187   -2.7737    0.9074 H   0  0  0  0  0  0  0  0  0  0  0  0
  1 20  1  0  0  0  0
  1 26  1  0  0  0  0
  2 32  1  0  0  0  0
  2 33  1  0  0  0  0
  3  4  1  0  0  0  0
  4 34  1  0  0  0  0
  4  5  2  0  0  0  0
  5 35  1  0  0  0  0
  6  5  1  0  0  0  0
  6 36  1  0  0  0  0
  7  6  2  0  0  0  0
  8  3  2  0  0  0  0
  8  7  1  0  0  0  0
  9 32  1  0  0  0  0
  9 40  1  0  0  0  0
 10 19  1  0  0  0  0
 11 16  1  0  0  0  0
 11 10  2  0  0  0  0
 12 11  1  0  0  0  0
 13 12  2  0  0  0  0
 13 14  1  0  0  0  0
 14 15  2  0  0  0  0
 15 44  1  0  0  0  0
 15 16  1  0  0  0  0
 16 17  2  0  0  0  0
 17 18  1  0  0  0  0
 17 45  1  0  0  0  0
 18 46  1  0  0  0  0
 19  1  1  0  0  0  0
 19 18  2  0  0  0  0
 20 21  1  0  0  0  0
 21 22  2  0  0  0  0
 21 47  1  0  0  0  0
 22 48  1  0  0  0  0
 23 49  1  0  0  0  0
 23 22  1  0  0  0  0
 24 23  2  0  0  0  0
 25 24  1  0  0  0  0
 25 20  2  0  0  0  0
 26 27  1  0  0  0  0
 27 52  1  0  0  0  0
 27 28  2  0  0  0  0
 28 53  1  0  0  0  0
 29 28  1  0  0  0  0
 29 54  1  0  0  0  0
 30 29  2  0  0  0  0
 31 26  2  0  0  0  0
 31 30  1  0  0  0  0
 32  8  1  0  0  0  0
 33 10  1  0  0  0  0
 33  3  1  0  0  0  0
 37  7  1  0  0  0  0
 38  9  1  0  0  0  0
 39  9  1  0  0  0  0
 41 12  1  0  0  0  0
 42 13  1  0  0  0  0
 43 14  1  0  0  0  0
 50 24  1  0  0  0  0
 51 25  1  0  0  0  0
 55 30  1  0  0  0  0
 56 31  1  0  0  0  0
M  END
