1,8
q = -1.0, confidence = 0.0

 42 42  0  0  1  0  0  0  0  0999 V2000
    1.7986    0.1205   -0.3773 P   0  0  0  0  0  0  0  0  0  0  0  0
    1.4585    1.1360   -1.9134 C   0  0  0  0  0  0  0  0  0  0  0  0
    1.4173    2.1881   -1.5634 H   0  0  0  0  0  0  0  0  0  0  0  0
    2.3003    1.0699   -2.6368 H   0  0  0  0  0  0  0  0  0  0  0  0
    0.1102    0.7159   -2.5333 C   0  0  0  0  0  0  0  0  0  0  0  0
   -0.2373    1.5066   -3.2339 H   0  0  0  0  0  0  0  0  0  0  0  0
    0.2568   -0.1923   -3.1521 H   0  0  0  0  0  0  0  0  0  0  0  0
   -0.9572    0.4273   -1.4929 C   0  0  1  0  0  3  0  0  0  0  0  0
   -1.5684   -0.8729   -1.2530 C   0  0  0  0  0  0  0  0  0  0  0  0
   -2.3923   -0.7292   -0.0890 C   0  0  0  0  0  0  0  0  0  0  0  0
   -2.3681    0.6742    0.3280 C   0  0  0  0  0  0  0  0  0  0  0  0
   -1.5257    1.4011   -0.5707 C   0  0  0  0  0  0  0  0  0  0  0  0
   -1.4062   -2.1111   -2.0819 C   0  0  0  0  0  0  0  0  0  0  0  0
   -0.4107   -2.1603   -2.5661 H   0  0  0  0  0  0  0  0  0  0  0  0
   -2.1673   -2.1655   -2.8928 H   0  0  0  0  0  0  0  0  0  0  0  0
   -1.5131   -3.0262   -1.4675 H   0  0  0  0  0  0  0  0  0  0  0  0
   -3.2558   -1.7922    0.5207 C   0  0  0  0  0  0  0  0  0  0  0  0
   -3.3570   -1.6573    1.6150 H   0  0  0  0  0  0  0  0  0  0  0  0
   -2.8408   -2.8039    0.3473 H   0  0  0  0  0  0  0  0  0  0  0  0
   -4.2818   -1.7738    0.0904 H   0  0  0  0  0  0  0  0  0  0  0  0
   -3.2029    1.2623    1.4251 C   0  0  0  0  0  0  0  0  0  0  0  0
   -3.3330    0.5519    2.2642 H   0  0  0  0  0  0  0  0  0  0  0  0
   -4.2194    1.5294    1.0595 H   0  0  0  0  0  0  0  0  0  0  0  0
   -2.7450    2.1830    1.8358 H   0  0  0  0  0  0  0  0  0  0  0  0
   -1.3461    2.8892   -0.6100 C   0  0  0  0  0  0  0  0  0  0  0  0
   -0.3811    3.1823   -1.0664 H   0  0  0  0  0  0  0  0  0  0  0  0
   -1.3780    3.3327    0.4048 H   0  0  0  0  0  0  0  0  0  0  0  0
   -2.1477    3.3782   -1.2084 H   0  0  0  0  0  0  0  0  0  0  0  0
    3.1080    1.0716    0.5320 C   0  0  0  0  0  0  0  0  0  0  0  0
    3.5142    0.3693    1.2905 H   0  0  0  0  0  0  0  0  0  0  0  0
    3.9340    1.2933   -0.1792 H   0  0  0  0  0  0  0  0  0  0  0  0
    2.5741    2.3343    1.2066 C   0  0  0  0  0  0  0  0  0  0  0  0
    3.3663    2.8333    1.8002 H   0  0  0  0  0  0  0  0  0  0  0  0
    1.7291    2.0847    1.8792 H   0  0  0  0  0  0  0  0  0  0  0  0
    2.1991    3.0706    0.4663 H   0  0  0  0  0  0  0  0  0  0  0  0
    2.7378   -1.3511   -1.0203 C   0  0  0  0  0  0  0  0  0  0  0  0
    2.1262   -1.7487   -1.8579 H   0  0  0  0  0  0  0  0  0  0  0  0
    3.6967   -0.9931   -1.4567 H   0  0  0  0  0  0  0  0  0  0  0  0
    2.9574   -2.4310    0.0386 C   0  0  0  0  0  0  0  0  0  0  0  0
    3.4693   -3.3151   -0.3922 H   0  0  0  0  0  0  0  0  0  0  0  0
    1.9860   -2.7573    0.4620 H   0  0  0  0  0  0  0  0  0  0  0  0
    3.5785   -2.0646    0.8813 H   0  0  0  0  0  0  0  0  0  0  0  0
  1 29  1  0  0  0  0
  2  3  1  0  0  0  0
  2  1  1  0  0  0  0
  4  2  1  0  0  0  0
  5  2  1  0  0  0  0
  6  5  1  0  0  0  0
  7  5  1  0  0  0  0
  8  5  1  1  0  0  0
  8  9  1  0  0  0  0
  8 12  1  0  0  0  0
  9 10  2  0  0  0  0
 10 11  1  0  0  0  0
 10 17  1  0  0  0  0
 11 21  1  0  0  0  0
 12 11  2  0  0  0  0
 13 16  1  0  0  0  0
 13  9  1  0  0  0  0
 14 13  1  0  0  0  0
 15 13  1  0  0  0  0
 17 18  1  0  0  0  0
 19 17  1  0  0  0  0
 20 17  1  0  0  0  0
 21 24  1  0  0  0  0
 21 22  1  0  0  0  0
 23 21  1  0  0  0  0
 25 12  1  0  0  0  0
 25 27  1  0  0  0  0
 26 25  1  0  0  0  0
 28 25  1  0  0  0  0
 29 32  1  0  0  0  0
 29 30  1  0  0  0  0
 31 29  1  0  0  0  0
 32 33  1  0  0  0  0
 32 34  1  0  0  0  0
 35 32  1  0  0  0  0
 36  1  1  0  0  0  0
 36 39  1  0  0  0  0
 37 36  1  0  0  0  0
 38 36  1  0  0  0  0
 39 41  1  0  0  0  0
 39 42  1  0  0  0  0
 40 39  1  0  0  0  0
M  END
