4,8
q = -1.0

 30 30  0  0  1  0  0  0  0  0999 V2000
    0.8117   -2.2222   -0.2069 C   0  0  0  0  0  0  0  0  0  0  0  0
    0.6836   -2.3859   -1.2978 H   0  0  0  0  0  0  0  0  0  0  0  0
    1.6565   -2.8618    0.1271 H   0  0  0  0  0  0  0  0  0  0  0  0
    1.2007   -0.3977   -0.0283 P   0  0  0  0  0  0  0  0  0  0  0  0
   -0.4978   -2.5400    0.5403 C   0  0  0  0  0  0  0  0  0  0  0  0
   -0.8518   -3.5542    0.2523 H   0  0  0  0  0  0  0  0  0  0  0  0
   -0.3087   -2.5745    1.6330 H   0  0  0  0  0  0  0  0  0  0  0  0
   -1.5687   -1.5032    0.2675 C   0  0  2  0  0  3  0  0  0  0  0  0
   -2.0876   -1.1396   -1.0397 C   0  0  0  0  0  0  0  0  0  0  0  0
   -1.8436   -1.6268   -1.9911 H   0  0  0  0  0  0  0  0  0  0  0  0
   -2.9472   -0.0229   -0.8600 C   0  0  0  0  0  0  0  0  0  0  0  0
   -3.4884    0.5097   -1.6510 H   0  0  0  0  0  0  0  0  0  0  0  0
   -3.0155    0.2761    0.5571 C   0  0  0  0  0  0  0  0  0  0  0  0
   -3.6214    1.0694    1.0110 H   0  0  0  0  0  0  0  0  0  0  0  0
   -2.2181   -0.6754    1.2585 C   0  0  0  0  0  0  0  0  0  0  0  0
   -2.0795   -0.7462    2.3436 H   0  0  0  0  0  0  0  0  0  0  0  0
    2.1484   -0.2966    1.5663 C   0  0  0  0  0  0  0  0  0  0  0  0
    1.4567   -0.6939    2.3384 H   0  0  0  0  0  0  0  0  0  0  0  0
    3.0141   -0.9923    1.5132 H   0  0  0  0  0  0  0  0  0  0  0  0
    2.5838    1.1268    1.9134 C   0  0  0  0  0  0  0  0  0  0  0  0
    3.0777    1.1606    2.9053 H   0  0  0  0  0  0  0  0  0  0  0  0
    1.7104    1.8090    1.9381 H   0  0  0  0  0  0  0  0  0  0  0  0
    3.3019    1.5307    1.1707 H   0  0  0  0  0  0  0  0  0  0  0  0
    2.4586   -0.0311   -1.3402 C   0  0  0  0  0  0  0  0  0  0  0  0
    1.9234   -0.2078   -2.2966 H   0  0  0  0  0  0  0  0  0  0  0  0
    2.6246    1.0660   -1.2936 H   0  0  0  0  0  0  0  0  0  0  0  0
    3.7760   -0.8040   -1.2730 C   0  0  0  0  0  0  0  0  0  0  0  0
    4.4246   -0.5465   -2.1349 H   0  0  0  0  0  0  0  0  0  0  0  0
    3.6155   -1.9012   -1.2988 H   0  0  0  0  0  0  0  0  0  0  0  0
    4.3477   -0.5690   -0.3528 H   0  0  0  0  0  0  0  0  0  0  0  0
  1  4  1  0  0  0  0
  1  3  1  0  0  0  0
  1  5  1  0  0  0  0
  2  1  1  0  0  0  0
  4 17  1  0  0  0  0
  5  7  1  0  0  0  0
  6  5  1  0  0  0  0
  8  5  1  6  0  0  0
  8 15  1  0  0  0  0
  9 11  2  0  0  0  0
  9  8  1  0  0  0  0
 10  9  1  0  0  0  0
 11 13  1  0  0  0  0
 12 11  1  0  0  0  0
 13 14  1  0  0  0  0
 13 15  2  0  0  0  0
 15 16  1  0  0  0  0
 17 20  1  0  0  0  0
 17 18  1  0  0  0  0
 19 17  1  0  0  0  0
 20 22  1  0  0  0  0
 20 21  1  0  0  0  0
 23 20  1  0  0  0  0
 24 26  1  0  0  0  0
 24 27  1  0  0  0  0
 24  4  1  0  0  0  0
 25 24  1  0  0  0  0
 27 30  1  0  0  0  0
 28 27  1  0  0  0  0
 29 27  1  0  0  0  0
M  END
