1,2
q = -1.0

 42 45  0  0  0  0  0  0  0  0999 V2000
    0.5163   -0.8787    0.0610 P   0  0  0  0  0  0  0  0  0  0  0  0
    0.4186    1.5775    1.2362 C   0  0  0  0  0  3  0  0  0  0  0  0
   -0.0606    2.4874    1.6515 H   0  0  0  0  0  0  0  0  0  0  0  0
    0.4984    0.8599    2.0800 H   0  0  0  0  0  0  0  0  0  0  0  0
    1.8089    1.9389    0.8420 C   0  0  0  0  0  0  0  0  0  0  0  0
    2.3038    3.2245    1.0986 C   0  0  0  0  0  0  0  0  0  0  0  0
    1.6368    3.9529    1.5865 H   0  0  0  0  0  0  0  0  0  0  0  0
    3.6330    3.6101    0.8037 C   0  0  0  0  0  0  0  0  0  0  0  0
    3.9610    4.6391    1.0178 H   0  0  0  0  0  0  0  0  0  0  0  0
    4.5202    2.6854    0.2804 C   0  0  0  0  0  0  0  0  0  0  0  0
    5.5667    2.9557    0.0712 H   0  0  0  0  0  0  0  0  0  0  0  0
    4.0947    1.3472    0.0363 C   0  0  0  0  0  0  0  0  0  0  0  0
    5.0247    0.3684   -0.4186 C   0  0  0  0  0  0  0  0  0  0  0  0
    6.0673    0.6758   -0.5964 H   0  0  0  0  0  0  0  0  0  0  0  0
    4.6311   -0.9454   -0.6071 C   0  0  0  0  0  0  0  0  0  0  0  0
    5.3577   -1.7069   -0.9292 H   0  0  0  0  0  0  0  0  0  0  0  0
    3.2784   -1.3116   -0.4069 C   0  0  0  0  0  0  0  0  0  0  0  0
    2.9829   -2.3540   -0.5906 H   0  0  0  0  0  0  0  0  0  0  0  0
    2.3161   -0.3801   -0.0062 C   0  0  0  0  0  0  0  0  0  0  0  0
    2.7186    0.9684    0.2824 C   0  0  0  0  0  0  0  0  0  0  0  0
    0.4503   -1.7406    1.7118 C   0  0  0  0  0  0  0  0  0  0  0  0
   -0.7332   -2.4223    2.0743 C   0  0  0  0  0  0  0  0  0  0  0  0
   -1.5478   -2.5096    1.3411 H   0  0  0  0  0  0  0  0  0  0  0  0
   -0.8907   -2.9662    3.3554 C   0  0  0  0  0  0  0  0  0  0  0  0
   -1.8145   -3.5091    3.6099 H   0  0  0  0  0  0  0  0  0  0  0  0
    0.1189   -2.7982    4.3215 C   0  0  0  0  0  0  0  0  0  0  0  0
   -0.0114   -3.2038    5.3363 H   0  0  0  0  0  0  0  0  0  0  0  0
    1.2897   -2.1065    3.9803 C   0  0  0  0  0  0  0  0  0  0  0  0
    2.0844   -1.9653    4.7294 H   0  0  0  0  0  0  0  0  0  0  0  0
    1.4629   -1.5949    2.6818 C   0  0  0  0  0  0  0  0  0  0  0  0
    2.3954   -1.0726    2.4204 H   0  0  0  0  0  0  0  0  0  0  0  0
    0.6228   -2.3186   -1.1164 C   0  0  0  0  0  0  0  0  0  0  0  0
    0.9695   -2.0158   -2.4529 C   0  0  0  0  0  0  0  0  0  0  0  0
    1.1780   -0.9684   -2.7243 H   0  0  0  0  0  0  0  0  0  0  0  0
    1.0684   -3.0244   -3.4196 C   0  0  0  0  0  0  0  0  0  0  0  0
    1.3513   -2.7662   -4.4519 H   0  0  0  0  0  0  0  0  0  0  0  0
    0.8028   -4.3614   -3.0736 C   0  0  0  0  0  0  0  0  0  0  0  0
    0.8705   -5.1550   -3.8331 H   0  0  0  0  0  0  0  0  0  0  0  0
    0.4624   -4.6756   -1.7500 C   0  0  0  0  0  0  0  0  0  0  0  0
    0.2674   -5.7209   -1.4638 H   0  0  0  0  0  0  0  0  0  0  0  0
    0.3844   -3.6647   -0.7754 C   0  0  0  0  0  0  0  0  0  0  0  0
    0.1501   -3.9338    0.2647 H   0  0  0  0  0  0  0  0  0  0  0  0
  1 21  1  0  0  0  0
  2  3  1  0  0  0  0
  2  4  1  0  0  0  0
  5  6  1  0  0  0  0
  5  2  1  0  0  0  0
  6  7  1  0  0  0  0
  8  9  1  0  0  0  0
  8  6  2  0  0  0  0
 10  8  1  0  0  0  0
 11 10  1  0  0  0  0
 12 10  2  0  0  0  0
 12 20  1  0  0  0  0
 13 12  1  0  0  0  0
 14 13  1  0  0  0  0
 15 13  2  0  0  0  0
 15 17  1  0  0  0  0
 16 15  1  0  0  0  0
 17 19  2  0  0  0  0
 18 17  1  0  0  0  0
 19  1  1  0  0  0  0
 19 20  1  0  0  0  0
 20  5  2  0  0  0  0
 21 22  2  0  0  0  0
 21 30  1  0  0  0  0
 22 24  1  0  0  0  0
 23 22  1  0  0  0  0
 24 25  1  0  0  0  0
 24 26  2  0  0  0  0
 26 27  1  0  0  0  0
 28 26  1  0  0  0  0
 28 29  1  0  0  0  0
 30 28  2  0  0  0  0
 31 30  1  0  0  0  0
 32 41  1  0  0  0  0
 32  1  1  0  0  0  0
 33 32  2  0  0  0  0
 34 33  1  0  0  0  0
 35 37  2  0  0  0  0
 35 33  1  0  0  0  0
 36 35  1  0  0  0  0
 37 39  1  0  0  0  0
 38 37  1  0  0  0  0
 39 40  1  0  0  0  0
 39 41  2  0  0  0  0
 41 42  1  0  0  0  0
M  END
