1,75
q = 0.0, confidence = 0.998

 75 76  0  0  1  0  0  0  0  0999 V2000
   -2.0041   -0.4763    0.1416 P   0  0  0  0  0  0  0  0  0  0  0  0
   -3.2332    2.0454   -0.4735 C   0  0  0  0  0  0  0  0  0  0  0  0
   -4.1924    1.5235   -0.3778 H   0  0  0  0  0  0  0  0  0  0  0  0
    2.6167    1.2091    1.0921 C   0  0  0  0  0  0  0  0  0  0  0  0
    3.0949    1.2491    2.0799 H   0  0  0  0  0  0  0  0  0  0  0  0
   -0.8264    3.4149   -0.7245 C   0  0  0  0  0  0  0  0  0  0  0  0
    0.1303    3.9511   -0.8134 H   0  0  0  0  0  0  0  0  0  0  0  0
   -3.2450    3.4161   -0.7575 C   0  0  0  0  0  0  0  0  0  0  0  0
   -4.2041    3.9418   -0.8776 H   0  0  0  0  0  0  0  0  0  0  0  0
    1.2178   -0.1101   -3.6467 C   0  0  0  0  0  0  0  0  0  0  0  0
    2.2675   -0.0015   -3.9887 H   0  0  0  0  0  0  0  0  0  0  0  0
    0.5931   -0.2225   -4.5561 H   0  0  0  0  0  0  0  0  0  0  0  0
    1.1586   -1.0426   -3.0524 H   0  0  0  0  0  0  0  0  0  0  0  0
   -2.7591    0.4939    2.6619 C   0  0  0  0  0  0  0  0  0  0  0  0
   -1.6895    0.4418    2.9324 H   0  0  0  0  0  0  0  0  0  0  0  0
   -3.3464    0.3766    3.5968 H   0  0  0  0  0  0  0  0  0  0  0  0
   -2.9732    1.4989    2.2494 H   0  0  0  0  0  0  0  0  0  0  0  0
   -2.0319    4.1072   -0.8842 C   0  0  0  0  0  0  0  0  0  0  0  0
   -2.0231    5.1856   -1.1034 H   0  0  0  0  0  0  0  0  0  0  0  0
    2.7386    0.8724   -1.2839 C   0  0  0  0  0  0  0  0  0  0  0  0
    3.3331    0.6285   -2.1776 H   0  0  0  0  0  0  0  0  0  0  0  0
    1.3728    1.1291   -1.4361 C   0  0  0  0  0  0  0  0  0  0  0  0
   -3.9586   -0.6417   -2.0081 C   0  0  0  0  0  0  0  0  0  0  0  0
   -4.8105   -0.4753   -1.3223 H   0  0  0  0  0  0  0  0  0  0  0  0
   -4.3375   -1.2463   -2.8591 H   0  0  0  0  0  0  0  0  0  0  0  0
   -3.6352    0.3342   -2.4166 H   0  0  0  0  0  0  0  0  0  0  0  0
   -2.7961   -1.4097   -1.3567 C   0  0  0  0  0  0  0  0  0  0  0  0
   -2.8121   -1.9791    2.3703 C   0  0  0  0  0  0  0  0  0  0  0  0
   -3.0414   -2.8524    1.7330 H   0  0  0  0  0  0  0  0  0  0  0  0
   -3.4163   -2.0691    3.2976 H   0  0  0  0  0  0  0  0  0  0  0  0
   -1.7420   -2.0323    2.6453 H   0  0  0  0  0  0  0  0  0  0  0  0
    4.8728    0.5752    0.0387 C   0  0  0  0  0  0  0  0  0  0  0  0
    5.3503    1.1366   -0.7973 H   0  0  0  0  0  0  0  0  0  0  0  0
   -2.0241    1.3305   -0.3093 C   0  0  0  0  0  0  0  0  0  0  0  0
    3.3889    0.9033   -0.0335 C   0  0  0  0  0  0  0  0  0  0  0  0
    5.1113   -0.9265   -0.2207 C   0  0  0  0  0  0  0  0  0  0  0  0
    4.6394   -1.5398    0.5709 H   0  0  0  0  0  0  0  0  0  0  0  0
    6.1985   -1.1446   -0.2498 H   0  0  0  0  0  0  0  0  0  0  0  0
    4.6642   -1.2528   -1.1798 H   0  0  0  0  0  0  0  0  0  0  0  0
    0.7679    1.1168   -2.8337 C   0  0  0  0  0  0  0  0  0  0  0  0
   -0.3339    1.0680   -2.7089 H   0  0  0  0  0  0  0  0  0  0  0  0
   -3.2843   -2.8091   -0.9407 C   0  0  0  0  0  0  0  0  0  0  0  0
   -2.4919   -3.4019   -0.4494 H   0  0  0  0  0  0  0  0  0  0  0  0
   -3.5829   -3.3572   -1.8588 H   0  0  0  0  0  0  0  0  0  0  0  0
   -4.1668   -2.7823   -0.2747 H   0  0  0  0  0  0  0  0  0  0  0  0
    1.2328    1.4851    1.0082 C   0  0  1  0  0  3  0  0  0  0  0  0
   -3.1415   -0.6358    1.6927 C   0  0  0  0  0  0  0  0  0  0  0  0
   -4.6516   -0.5576    1.4092 C   0  0  0  0  0  0  0  0  0  0  0  0
   -4.9607    0.4223    1.0000 H   0  0  0  0  0  0  0  0  0  0  0  0
   -5.1919   -0.6850    2.3713 H   0  0  0  0  0  0  0  0  0  0  0  0
   -5.0090   -1.3523    0.7297 H   0  0  0  0  0  0  0  0  0  0  0  0
    0.5154    1.9940    2.2541 C   0  0  0  0  0  0  0  0  0  0  0  0
   -0.5692    1.9964    2.0310 H   0  0  0  0  0  0  0  0  0  0  0  0
    0.9209    3.4489    2.5518 C   0  0  0  0  0  0  0  0  0  0  0  0
    2.0079    3.5239    2.7612 H   0  0  0  0  0  0  0  0  0  0  0  0
    0.3750    3.8348    3.4372 H   0  0  0  0  0  0  0  0  0  0  0  0
    0.6959    4.1147    1.6951 H   0  0  0  0  0  0  0  0  0  0  0  0
   -1.6717   -1.5633   -2.3945 C   0  0  0  0  0  0  0  0  0  0  0  0
   -1.3327   -0.5772   -2.7607 H   0  0  0  0  0  0  0  0  0  0  0  0
   -2.0631   -2.1251   -3.2690 H   0  0  0  0  0  0  0  0  0  0  0  0
   -0.7899   -2.1037   -1.9982 H   0  0  0  0  0  0  0  0  0  0  0  0
   -0.7916    2.0309   -0.4367 C   0  0  0  0  0  0  0  0  0  0  0  0
    0.7444    1.0897    3.4746 C   0  0  0  0  0  0  0  0  0  0  0  0
    0.4967    0.0338    3.2377 H   0  0  0  0  0  0  0  0  0  0  0  0
    0.1178    1.4173    4.3287 H   0  0  0  0  0  0  0  0  0  0  0  0
    1.7997    1.1137    3.8140 H   0  0  0  0  0  0  0  0  0  0  0  0
    5.5460    1.0178    1.3415 C   0  0  0  0  0  0  0  0  0  0  0  0
    5.3792    2.0936    1.5532 H   0  0  0  0  0  0  0  0  0  0  0  0
    6.6394    0.8467    1.2859 H   0  0  0  0  0  0  0  0  0  0  0  0
    5.1705    0.4344    2.2076 H   0  0  0  0  0  0  0  0  0  0  0  0
    1.0799    2.4208   -3.5907 C   0  0  0  0  0  0  0  0  0  0  0  0
    2.1756    2.5554   -3.7035 H   0  0  0  0  0  0  0  0  0  0  0  0
    0.6819    3.3102   -3.0642 H   0  0  0  0  0  0  0  0  0  0  0  0
    0.6340    2.3978   -4.6063 H   0  0  0  0  0  0  0  0  0  0  0  0
    0.5819    1.4299   -0.2707 C   0  0  1  0  0  3  0  0  0  0  0  0
  1 47  1  0  0  0  0
  2  3  1  0  0  0  0
  2 34  1  0  0  0  0
  4  5  1  0  0  0  0
  6 62  1  0  0  0  0
  7  6  1  0  0  0  0
  8  2  2  0  0  0  0
  9  8  1  0  0  0  0
 10 13  1  0  0  0  0
 10 40  1  0  0  0  0
 11 10  1  0  0  0  0
 12 10  1  0  0  0  0
 14 15  1  0  0  0  0
 14 16  1  0  0  0  0
 17 14  1  0  0  0  0
 18  8  1  0  0  0  0
 18  6  2  0  0  0  0
 19 18  1  0  0  0  0
 20 35  1  0  0  0  0
 21 20  1  0  0  0  0
 22 20  2  0  0  0  0
 22 75  1  0  0  0  0
 23 27  1  0  0  0  0
 23 24  1  0  0  0  0
 25 23  1  0  0  0  0
 26 23  1  0  0  0  0
 27 42  1  0  0  0  0
 27  1  1  0  0  0  0
 28 31  1  0  0  0  0
 28 30  1  0  0  0  0
 29 28  1  0  0  0  0
 32 67  1  0  0  0  0
 33 32  1  0  0  0  0
 34  1  1  0  0  0  0
 35 32  1  0  0  0  0
 35  4  2  0  0  0  0
 36 32  1  0  0  0  0
 36 37  1  0  0  0  0
 38 36  1  0  0  0  0
 39 36  1  0  0  0  0
 40 41  1  0  0  0  0
 40 22  1  0  0  0  0
 42 43  1  0  0  0  0
 42 45  1  0  0  0  0
 44 42  1  0  0  0  0
 46  4  1  0  0  0  0
 46 52  1  6  0  0  0
 47 28  1  0  0  0  0
 47 14  1  0  0  0  0
 48 47  1  0  0  0  0
 48 50  1  0  0  0  0
 49 48  1  0  0  0  0
 51 48  1  0  0  0  0
 52 54  1  0  0  0  0
 52 63  1  0  0  0  0
 53 52  1  0  0  0  0
 54 55  1  0  0  0  0
 54 56  1  0  0  0  0
 57 54  1  0  0  0  0
 58 61  1  0  0  0  0
 58 27  1  0  0  0  0
 59 58  1  0  0  0  0
 60 58  1  0  0  0  0
 62 34  2  0  0  0  0
 63 66  1  0  0  0  0
 63 65  1  0  0  0  0
 64 63  1  0  0  0  0
 67 68  1  0  0  0  0
 67 70  1  0  0  0  0
 69 67  1  0  0  0  0
 71 73  1  0  0  0  0
 71 40  1  0  0  0  0
 72 71  1  0  0  0  0
 74 71  1  0  0  0  0
 75 62  1  6  0  0  0
 75 46  1  0  0  0  0
M  END
