1,15
q = -1.0

 37 39  0  0  0  0  0  0  0  0999 V2000
    0.2987   -2.8458   -1.1723 C   0  0  0  0  0  3  0  0  0  0  0  0
   -0.5316   -3.3736   -1.6731 H   0  0  0  0  0  0  0  0  0  0  0  0
    1.1780   -2.8178   -1.8483 H   0  0  0  0  0  0  0  0  0  0  0  0
    0.6250   -3.4448    0.1499 C   0  0  0  0  0  0  0  0  0  0  0  0
    1.7698   -3.0107    0.8737 C   0  0  0  0  0  0  0  0  0  0  0  0
    2.0762   -3.5074    2.1482 C   0  0  0  0  0  0  0  0  0  0  0  0
    2.9771   -3.1302    2.6543 H   0  0  0  0  0  0  0  0  0  0  0  0
    1.2392   -4.4651    2.7443 C   0  0  0  0  0  0  0  0  0  0  0  0
    1.4837   -4.8629    3.7408 H   0  0  0  0  0  0  0  0  0  0  0  0
    0.0942   -4.9048    2.0602 C   0  0  0  0  0  0  0  0  0  0  0  0
   -0.5698   -5.6533    2.5189 H   0  0  0  0  0  0  0  0  0  0  0  0
   -0.2021   -4.4004    0.7848 C   0  0  0  0  0  0  0  0  0  0  0  0
   -1.0959   -4.7511    0.2461 H   0  0  0  0  0  0  0  0  0  0  0  0
    2.6248   -2.0648    0.3254 O   0  0  0  0  0  0  0  0  0  0  0  0
    1.9834   -0.5954   -0.2480 P   0  0  0  0  0  0  0  0  0  0  0  0
    2.6603    0.5441    1.0195 C   0  0  0  0  0  0  0  0  0  0  0  0
    3.4644    1.6565    0.7052 C   0  0  0  0  0  0  0  0  0  0  0  0
    3.7432    1.8568   -0.3389 H   0  0  0  0  0  0  0  0  0  0  0  0
    3.8994    2.5194    1.7226 C   0  0  0  0  0  0  0  0  0  0  0  0
    4.5225    3.3893    1.4657 H   0  0  0  0  0  0  0  0  0  0  0  0
    3.5359    2.2820    3.0566 C   0  0  0  0  0  0  0  0  0  0  0  0
    3.8770    2.9628    3.8514 H   0  0  0  0  0  0  0  0  0  0  0  0
    2.7318    1.1746    3.3749 C   0  0  0  0  0  0  0  0  0  0  0  0
    2.4391    0.9824    4.4183 H   0  0  0  0  0  0  0  0  0  0  0  0
    2.2955    0.3093    2.3636 C   0  0  0  0  0  0  0  0  0  0  0  0
    1.6706   -0.5582    2.6207 H   0  0  0  0  0  0  0  0  0  0  0  0
    3.0469   -0.3429   -1.7099 C   0  0  0  0  0  0  0  0  0  0  0  0
    2.4341   -0.0344   -2.9401 C   0  0  0  0  0  0  0  0  0  0  0  0
    1.3338    0.0303   -2.9821 H   0  0  0  0  0  0  0  0  0  0  0  0
    3.2190    0.1582   -4.0874 C   0  0  0  0  0  0  0  0  0  0  0  0
    2.7376    0.3995   -5.0472 H   0  0  0  0  0  0  0  0  0  0  0  0
    4.6145    0.0275   -4.0106 C   0  0  0  0  0  0  0  0  0  0  0  0
    5.2307    0.1734   -4.9110 H   0  0  0  0  0  0  0  0  0  0  0  0
    5.2272   -0.3010   -2.7885 C   0  0  0  0  0  0  0  0  0  0  0  0
    6.3205   -0.4159   -2.7339 H   0  0  0  0  0  0  0  0  0  0  0  0
    4.4484   -0.4863   -1.6381 C   0  0  0  0  0  0  0  0  0  0  0  0
    4.9225   -0.7478   -0.6802 H   0  0  0  0  0  0  0  0  0  0  0  0
  1  4  1  0  0  0  0
  2  1  1  0  0  0  0
  3  1  1  0  0  0  0
  4 12  2  0  0  0  0
  4  5  1  0  0  0  0
  5  6  2  0  0  0  0
  6  7  1  0  0  0  0
  6  8  1  0  0  0  0
  8  9  1  0  0  0  0
 10 11  1  0  0  0  0
 10  8  2  0  0  0  0
 12 10  1  0  0  0  0
 13 12  1  0  0  0  0
 14  5  1  0  0  0  0
 15 14  1  0  0  0  0
 15 16  1  0  0  0  0
 16 25  1  0  0  0  0
 17 16  2  0  0  0  0
 17 19  1  0  0  0  0
 18 17  1  0  0  0  0
 19 21  2  0  0  0  0
 20 19  1  0  0  0  0
 21 23  1  0  0  0  0
 21 22  1  0  0  0  0
 23 24  1  0  0  0  0
 25 26  1  0  0  0  0
 25 23  2  0  0  0  0
 27 36  1  0  0  0  0
 27 15  1  0  0  0  0
 28 27  2  0  0  0  0
 29 28  1  0  0  0  0
 30 32  2  0  0  0  0
 30 28  1  0  0  0  0
 31 30  1  0  0  0  0
 32 34  1  0  0  0  0
 33 32  1  0  0  0  0
 34 35  1  0  0  0  0
 34 36  2  0  0  0  0
 36 37  1  0  0  0  0
M  END
