1,4
q = -1.0, confidence = 0.0

 30 29  0  0  1  0  0  0  0  0999 V2000
   -2.4072    0.1334   -0.2017 P   0  0  0  0  0  0  0  0  0  0  0  0
   -2.1366   -0.6368   -1.8900 C   0  0  2  0  0  0  0  0  0  0  0  0
   -3.0526   -1.7151   -2.4618 C   0  0  0  0  0  0  0  0  0  0  0  0
   -0.6557   -1.0198   -1.6329 C   0  0  0  0  0  3  0  0  0  0  0  0
   -3.3586   -0.9811    0.9612 C   0  0  0  0  0  0  0  0  0  0  0  0
   -4.8332   -1.1837    0.5970 C   0  0  0  0  0  0  0  0  0  0  0  0
   -2.6030   -2.2995    1.1753 C   0  0  0  0  0  0  0  0  0  0  0  0
   -3.4264    1.6965   -0.3492 C   0  0  0  0  0  0  0  0  0  0  0  0
   -2.7191    2.7042   -1.2626 C   0  0  0  0  0  0  0  0  0  0  0  0
   -3.6520    2.2823    1.0524 C   0  0  0  0  0  0  0  0  0  0  0  0
   -2.1507    0.2442   -2.5683 H   0  0  0  0  0  0  0  0  0  0  0  0
   -4.0885   -1.3477   -2.6122 H   0  0  0  0  0  0  0  0  0  0  0  0
   -3.0974   -2.6101   -1.8099 H   0  0  0  0  0  0  0  0  0  0  0  0
   -2.6708   -2.0493   -3.4499 H   0  0  0  0  0  0  0  0  0  0  0  0
   -0.0412   -0.9120   -2.5535 H   0  0  0  0  0  0  0  0  0  0  0  0
   -0.5810   -2.0800   -1.3018 H   0  0  0  0  0  0  0  0  0  0  0  0
   -3.2884   -0.4130    1.9156 H   0  0  0  0  0  0  0  0  0  0  0  0
   -5.3830   -0.2257    0.5045 H   0  0  0  0  0  0  0  0  0  0  0  0
   -5.3417   -1.7796    1.3840 H   0  0  0  0  0  0  0  0  0  0  0  0
   -4.9474   -1.7334   -0.3580 H   0  0  0  0  0  0  0  0  0  0  0  0
   -1.5657   -2.1030    1.5124 H   0  0  0  0  0  0  0  0  0  0  0  0
   -2.5645   -2.9145    0.2537 H   0  0  0  0  0  0  0  0  0  0  0  0
   -3.1104   -2.9021    1.9571 H   0  0  0  0  0  0  0  0  0  0  0  0
   -4.4033    1.4136   -0.8017 H   0  0  0  0  0  0  0  0  0  0  0  0
   -2.5612    2.3123   -2.2870 H   0  0  0  0  0  0  0  0  0  0  0  0
   -1.7260    2.9726   -0.8483 H   0  0  0  0  0  0  0  0  0  0  0  0
   -3.3247    3.6302   -1.3483 H   0  0  0  0  0  0  0  0  0  0  0  0
   -4.2931    1.6368    1.6842 H   0  0  0  0  0  0  0  0  0  0  0  0
   -4.1472    3.2727    0.9780 H   0  0  0  0  0  0  0  0  0  0  0  0
   -2.6851    2.4183    1.5806 H   0  0  0  0  0  0  0  0  0  0  0  0
  1  5  1  0  0  0  0
  2 11  1  6  0  0  0
  2  4  1  0  0  0  0
  2  1  1  0  0  0  0
  3  2  1  0  0  0  0
  3 13  1  0  0  0  0
  4 16  1  0  0  0  0
  5  7  1  0  0  0  0
  5 17  1  0  0  0  0
  6  5  1  0  0  0  0
  6 19  1  0  0  0  0
  7 21  1  0  0  0  0
  7 23  1  0  0  0  0
  8  1  1  0  0  0  0
  8 10  1  0  0  0  0
  9 26  1  0  0  0  0
  9  8  1  0  0  0  0
 10 30  1  0  0  0  0
 10 28  1  0  0  0  0
 12  3  1  0  0  0  0
 14  3  1  0  0  0  0
 15  4  1  0  0  0  0
 18  6  1  0  0  0  0
 20  6  1  0  0  0  0
 22  7  1  0  0  0  0
 24  8  1  0  0  0  0
 25  9  1  0  0  0  0
 27  9  1  0  0  0  0
 29 10  1  0  0  0  0
M  END
