1,42
q = -1.0

 44 46  0  0  0  0  0  0  0  0999 V2000
    1.6861    0.6291    0.2552 P   0  0  2  0  0  0  0  0  0  0  0  0
    2.5094   -0.9841    0.1098 C   0  0  0  0  0  0  0  0  0  0  0  0
    3.9084   -1.1370   -0.1584 C   0  0  0  0  0  0  0  0  0  0  0  0
    4.4563   -2.4736   -0.1213 C   0  0  0  0  0  0  0  0  0  0  0  0
    3.5763   -3.5703    0.1303 C   0  0  0  0  0  0  0  0  0  0  0  0
    4.0041   -4.5848    0.1657 H   0  0  0  0  0  0  0  0  0  0  0  0
    2.2125   -3.3834    0.2749 C   0  0  0  0  0  0  0  0  0  0  0  0
    1.5452   -4.2496    0.4075 H   0  0  0  0  0  0  0  0  0  0  0  0
    1.6453   -2.0736    0.2418 C   0  0  0  0  0  0  0  0  0  0  0  0
    5.8425   -2.6711   -0.3714 C   0  0  0  0  0  0  0  0  0  0  0  0
    6.2518   -3.6921   -0.3209 H   0  0  0  0  0  0  0  0  0  0  0  0
    6.6546   -1.5958   -0.7003 C   0  0  0  0  0  0  0  0  0  0  0  0
    7.7247   -1.7491   -0.9054 H   0  0  0  0  0  0  0  0  0  0  0  0
    6.0996   -0.2981   -0.8105 C   0  0  0  0  0  0  0  0  0  0  0  0
    6.7464    0.5370   -1.1250 H   0  0  0  0  0  0  0  0  0  0  0  0
    4.7528   -0.0427   -0.5474 C   0  0  0  0  0  0  0  0  0  0  0  0
    4.2432    1.3792   -0.7004 C   0  0  0  0  0  0  0  0  0  0  0  0
    4.8024    1.8541   -1.5377 H   0  0  0  0  0  0  0  0  0  0  0  0
    4.5313    1.9621    0.1974 H   0  0  0  0  0  0  0  0  0  0  0  0
    2.7386    1.6018   -0.9787 C   0  0  0  0  0  0  0  0  0  0  0  0
    2.4253    3.1037   -0.9398 C   0  0  0  0  0  0  0  0  0  0  0  0
    2.7643    3.5749    0.0034 H   0  0  0  0  0  0  0  0  0  0  0  0
    1.3404    3.2991   -1.0505 H   0  0  0  0  0  0  0  0  0  0  0  0
    2.9502    3.6183   -1.7729 H   0  0  0  0  0  0  0  0  0  0  0  0
    2.3679    1.0256   -2.3596 C   0  0  0  0  0  0  0  0  0  0  0  0
    1.2826    1.1201   -2.5617 H   0  0  0  0  0  0  0  0  0  0  0  0
    2.6239   -0.0485   -2.4405 H   0  0  0  0  0  0  0  0  0  0  0  0
    2.9244    1.5726   -3.1500 H   0  0  0  0  0  0  0  0  0  0  0  0
    1.9714    1.2033    2.0651 C   0  0  0  0  0  0  0  0  0  0  0  0
    1.3677    0.0864    2.9397 C   0  0  0  0  0  0  0  0  0  0  0  0
    1.9151   -0.8698    2.8246 H   0  0  0  0  0  0  0  0  0  0  0  0
    0.3026   -0.0895    2.6868 H   0  0  0  0  0  0  0  0  0  0  0  0
    1.4307    0.3921    4.0056 H   0  0  0  0  0  0  0  0  0  0  0  0
    1.1621    2.4932    2.2887 C   0  0  0  0  0  0  0  0  0  0  0  0
    0.0957    2.3412    2.0315 H   0  0  0  0  0  0  0  0  0  0  0  0
    1.5428    3.3461    1.6949 H   0  0  0  0  0  0  0  0  0  0  0  0
    1.2171    2.7801    3.3604 H   0  0  0  0  0  0  0  0  0  0  0  0
    3.4397    1.4112    2.4582 C   0  0  0  0  0  0  0  0  0  0  0  0
    3.5012    1.5521    3.5585 H   0  0  0  0  0  0  0  0  0  0  0  0
    3.8769    2.3166    1.9946 H   0  0  0  0  0  0  0  0  0  0  0  0
    4.0706    0.5382    2.1986 H   0  0  0  0  0  0  0  0  0  0  0  0
    0.1488   -1.8622    0.2936 C   0  0  0  0  0  3  0  0  0  0  0  0
   -0.2560   -2.2344    1.2632 H   0  0  0  0  0  0  0  0  0  0  0  0
   -0.3131   -2.5160   -0.4797 H   0  0  0  0  0  0  0  0  0  0  0  0
  1 29  1  1  0  0  0
  2  9  1  0  0  0  0
  2  1  1  0  0  0  0
  3  4  1  0  0  0  0
  3  2  2  0  0  0  0
  4  5  2  0  0  0  0
  5  6  1  0  0  0  0
  5  7  1  0  0  0  0
  7  8  1  0  0  0  0
  9  7  2  0  0  0  0
  9 42  1  0  0  0  0
 10 11  1  0  0  0  0
 10  4  1  0  0  0  0
 12 10  2  0  0  0  0
 13 12  1  0  0  0  0
 14 12  1  0  0  0  0
 14 16  2  0  0  0  0
 15 14  1  0  0  0  0
 16  3  1  0  0  0  0
 17 16  1  0  0  0  0
 17 19  1  0  0  0  0
 18 17  1  0  0  0  0
 20 21  1  0  0  0  0
 20 17  1  0  0  0  0
 20  1  1  0  0  0  0
 21 22  1  0  0  0  0
 23 21  1  0  0  0  0
 24 21  1  0  0  0  0
 25 20  1  0  0  0  0
 26 25  1  0  0  0  0
 27 25  1  0  0  0  0
 28 25  1  0  0  0  0
 29 34  1  0  0  0  0
 29 38  1  0  0  0  0
 29 30  1  0  0  0  0
 30 33  1  0  0  0  0
 31 30  1  0  0  0  0
 32 30  1  0  0  0  0
 34 37  1  0  0  0  0
 35 34  1  0  0  0  0
 36 34  1  0  0  0  0
 38 39  1  0  0  0  0
 40 38  1  0  0  0  0
 41 38  1  0  0  0  0
 42 43  1  0  0  0  0
 44 42  1  0  0  0  0
M  END
