1,8
q = -1.0

 48 50  0  0  0  0  0  0  0  0999 V2000
    0.8541    0.1984   -0.0855 P   0  0  0  0  0  0  0  0  0  0  0  0
    1.8869   -0.8640   -1.1586 C   0  0  0  0  0  0  0  0  0  0  0  0
    3.1529   -0.5472   -1.6886 C   0  0  0  0  0  0  0  0  0  0  0  0
    3.7987   -1.4603   -2.5341 C   0  0  0  0  0  0  0  0  0  0  0  0
    3.1747   -2.6822   -2.8432 C   0  0  0  0  0  0  0  0  0  0  0  0
    1.9136   -2.9924   -2.3142 C   0  0  0  0  0  0  0  0  0  0  0  0
    1.2449   -2.0879   -1.4613 C   0  0  0  0  0  0  0  0  0  0  0  0
   -0.1081   -2.3788   -0.8602 C   0  0  0  0  0  3  0  0  0  0  0  0
    1.6997    0.3103    1.5736 C   0  0  0  0  0  0  0  0  0  0  0  0
    1.7227   -1.0788    2.2377 C   0  0  0  0  0  0  0  0  0  0  0  0
    2.3368   -1.0155    3.6422 C   0  0  0  0  0  0  0  0  0  0  0  0
    3.7338   -0.3829    3.6209 C   0  0  0  0  0  0  0  0  0  0  0  0
    3.7062    1.0010    2.9607 C   0  0  0  0  0  0  0  0  0  0  0  0
    3.1020    0.9405    1.5487 C   0  0  0  0  0  0  0  0  0  0  0  0
    0.9001    1.9071   -0.8207 C   0  0  0  0  0  0  0  0  0  0  0  0
    0.1868    1.8832   -2.1863 C   0  0  0  0  0  0  0  0  0  0  0  0
    0.1223    3.2803   -2.8156 C   0  0  0  0  0  0  0  0  0  0  0  0
   -0.5359    4.2893   -1.8669 C   0  0  0  0  0  0  0  0  0  0  0  0
    0.1908    4.3283   -0.5173 C   0  0  0  0  0  0  0  0  0  0  0  0
    0.2622    2.9380    0.1303 C   0  0  0  0  0  0  0  0  0  0  0  0
    3.6262    0.4208   -1.4632 H   0  0  0  0  0  0  0  0  0  0  0  0
    4.7824   -1.2159   -2.9626 H   0  0  0  0  0  0  0  0  0  0  0  0
    3.6761   -3.3976   -3.5135 H   0  0  0  0  0  0  0  0  0  0  0  0
    1.4291   -3.9484   -2.5689 H   0  0  0  0  0  0  0  0  0  0  0  0
   -0.0072   -3.1198   -0.0338 H   0  0  0  0  0  0  0  0  0  0  0  0
   -0.7984   -2.8229   -1.6091 H   0  0  0  0  0  0  0  0  0  0  0  0
    1.0178    0.9636    2.1650 H   0  0  0  0  0  0  0  0  0  0  0  0
    0.6924   -1.4909    2.2722 H   0  0  0  0  0  0  0  0  0  0  0  0
    2.3178   -1.7718    1.6013 H   0  0  0  0  0  0  0  0  0  0  0  0
    1.6719   -0.4139    4.3021 H   0  0  0  0  0  0  0  0  0  0  0  0
    2.3759   -2.0334    4.0835 H   0  0  0  0  0  0  0  0  0  0  0  0
    4.1458   -0.3128    4.6494 H   0  0  0  0  0  0  0  0  0  0  0  0
    4.4250   -1.0439    3.0507 H   0  0  0  0  0  0  0  0  0  0  0  0
    4.7279    1.4336    2.9154 H   0  0  0  0  0  0  0  0  0  0  0  0
    3.0996    1.6945    3.5857 H   0  0  0  0  0  0  0  0  0  0  0  0
    3.0708    1.9567    1.1028 H   0  0  0  0  0  0  0  0  0  0  0  0
    3.7613    0.3243    0.8990 H   0  0  0  0  0  0  0  0  0  0  0  0
    1.9729    2.1664   -0.9797 H   0  0  0  0  0  0  0  0  0  0  0  0
    0.6921    1.1668   -2.8669 H   0  0  0  0  0  0  0  0  0  0  0  0
   -0.8441    1.4938   -2.0303 H   0  0  0  0  0  0  0  0  0  0  0  0
    1.1531    3.6244   -3.0595 H   0  0  0  0  0  0  0  0  0  0  0  0
   -0.4266    3.2325   -3.7794 H   0  0  0  0  0  0  0  0  0  0  0  0
   -0.5581    5.3000   -2.3259 H   0  0  0  0  0  0  0  0  0  0  0  0
   -1.5964    3.9938   -1.7009 H   0  0  0  0  0  0  0  0  0  0  0  0
   -0.3091    5.0378    0.1753 H   0  0  0  0  0  0  0  0  0  0  0  0
    1.2232    4.7172   -0.6713 H   0  0  0  0  0  0  0  0  0  0  0  0
   -0.7578    2.5848    0.3976 H   0  0  0  0  0  0  0  0  0  0  0  0
    0.8362    2.9966    1.0786 H   0  0  0  0  0  0  0  0  0  0  0  0
  1  9  1  0  0  0  0
  2  1  1  0  0  0  0
  3 21  1  0  0  0  0
  3  2  2  0  0  0  0
  4  3  1  0  0  0  0
  5  4  2  0  0  0  0
  5  6  1  0  0  0  0
  6  7  2  0  0  0  0
  7  2  1  0  0  0  0
  7  8  1  0  0  0  0
  8 25  1  0  0  0  0
  9 27  1  0  0  0  0
  9 10  1  0  0  0  0
 10 28  1  0  0  0  0
 10 11  1  0  0  0  0
 11 31  1  0  0  0  0
 11 30  1  0  0  0  0
 12 11  1  0  0  0  0
 12 32  1  0  0  0  0
 13 35  1  0  0  0  0
 13 12  1  0  0  0  0
 14  9  1  0  0  0  0
 14 13  1  0  0  0  0
 15  1  1  0  0  0  0
 15 20  1  0  0  0  0
 16 40  1  0  0  0  0
 16 15  1  0  0  0  0
 17 16  1  0  0  0  0
 17 18  1  0  0  0  0
 18 44  1  0  0  0  0
 18 19  1  0  0  0  0
 19 20  1  0  0  0  0
 19 45  1  0  0  0  0
 20 47  1  0  0  0  0
 20 48  1  0  0  0  0
 22  4  1  0  0  0  0
 23  5  1  0  0  0  0
 24  6  1  0  0  0  0
 26  8  1  0  0  0  0
 29 10  1  0  0  0  0
 33 12  1  0  0  0  0
 34 13  1  0  0  0  0
 36 14  1  0  0  0  0
 37 14  1  0  0  0  0
 38 15  1  0  0  0  0
 39 16  1  0  0  0  0
 41 17  1  0  0  0  0
 42 17  1  0  0  0  0
 43 18  1  0  0  0  0
 46 19  1  0  0  0  0
M  END
