1,2
q = -1.0, confidence = 0.0

 51 53  0  0  0  0  0  0  0  0999 V2000
   -0.0242    0.2637    1.0051 P   0  0  0  0  0  0  0  0  0  0  0  0
   -1.8203   -0.4423   -1.4794 C   0  0  0  0  0  3  0  0  0  0  0  0
   -1.1721    0.2220   -2.0881 H   0  0  0  0  0  0  0  0  0  0  0  0
   -2.3687   -1.1140   -2.1674 H   0  0  0  0  0  0  0  0  0  0  0  0
   -2.7884    0.3376   -0.6496 C   0  0  0  0  0  0  0  0  0  0  0  0
   -4.0221   -0.2446   -0.2773 C   0  0  0  0  0  0  0  0  0  0  0  0
   -4.2441   -1.2661   -0.6236 H   0  0  0  0  0  0  0  0  0  0  0  0
   -4.9424    0.4470    0.5154 C   0  0  0  0  0  0  0  0  0  0  0  0
   -5.8948   -0.0289    0.7961 H   0  0  0  0  0  0  0  0  0  0  0  0
   -4.6542    1.7488    0.9550 C   0  0  0  0  0  0  0  0  0  0  0  0
   -5.3757    2.2921    1.5852 H   0  0  0  0  0  0  0  0  0  0  0  0
   -3.4404    2.3701    0.6086 C   0  0  0  0  0  0  0  0  0  0  0  0
   -2.5058    1.6562   -0.1887 C   0  0  0  0  0  0  0  0  0  0  0  0
   -3.1289    3.7538    1.1277 C   0  0  0  0  0  0  0  0  0  0  0  0
   -3.1577    4.5191    0.3246 H   0  0  0  0  0  0  0  0  0  0  0  0
   -2.1100    3.8064    1.5636 H   0  0  0  0  0  0  0  0  0  0  0  0
   -3.8566    4.0586    1.9045 H   0  0  0  0  0  0  0  0  0  0  0  0
   -1.2000    2.2855   -0.5551 C   0  0  0  0  0  0  0  0  0  0  0  0
   -1.2132    3.3754   -1.4471 C   0  0  0  0  0  0  0  0  0  0  0  0
   -2.1848    3.7403   -1.8131 H   0  0  0  0  0  0  0  0  0  0  0  0
   -0.0240    3.9632   -1.8912 C   0  0  0  0  0  0  0  0  0  0  0  0
   -0.0489    4.8123   -2.5908 H   0  0  0  0  0  0  0  0  0  0  0  0
    1.1979    3.4319   -1.4671 C   0  0  0  0  0  0  0  0  0  0  0  0
    2.1460    3.8474   -1.8422 H   0  0  0  0  0  0  0  0  0  0  0  0
    1.2535    2.3334   -0.5825 C   0  0  0  0  0  0  0  0  0  0  0  0
    0.0452    1.7787   -0.0749 C   0  0  0  0  0  0  0  0  0  0  0  0
    2.6135    1.7793   -0.2950 C   0  0  0  0  0  0  0  0  0  0  0  0
    3.4456    2.4053    0.6677 C   0  0  0  0  0  0  0  0  0  0  0  0
    4.7159    1.8581    0.9286 C   0  0  0  0  0  0  0  0  0  0  0  0
    5.3580    2.3297    1.6890 H   0  0  0  0  0  0  0  0  0  0  0  0
    5.1636    0.7244    0.2372 C   0  0  0  0  0  0  0  0  0  0  0  0
    6.1587    0.3054    0.4518 H   0  0  0  0  0  0  0  0  0  0  0  0
    4.3502    0.1364   -0.7409 C   0  0  0  0  0  0  0  0  0  0  0  0
    4.7145   -0.7350   -1.3083 H   0  0  0  0  0  0  0  0  0  0  0  0
    3.0702    0.6528   -1.0304 C   0  0  0  0  0  0  0  0  0  0  0  0
    2.9617    3.6170    1.4249 C   0  0  0  0  0  0  0  0  0  0  0  0
    3.6907    3.9280    2.1976 H   0  0  0  0  0  0  0  0  0  0  0  0
    1.9870    3.4249    1.9201 H   0  0  0  0  0  0  0  0  0  0  0  0
    2.7886    4.4783    0.7475 H   0  0  0  0  0  0  0  0  0  0  0  0
    2.2037    0.0026   -2.0758 C   0  0  0  0  0  0  0  0  0  0  0  0
    2.7874   -0.6992   -2.7019 H   0  0  0  0  0  0  0  0  0  0  0  0
    1.7241    0.7520   -2.7361 H   0  0  0  0  0  0  0  0  0  0  0  0
    1.3648   -0.5775   -1.6086 H   0  0  0  0  0  0  0  0  0  0  0  0
   -1.1907    0.6625    2.3896 C   0  0  0  0  0  0  0  0  0  0  0  0
   -0.9748   -0.0677    3.1945 H   0  0  0  0  0  0  0  0  0  0  0  0
   -2.2414    0.5425    2.0766 H   0  0  0  0  0  0  0  0  0  0  0  0
   -1.0293    1.6880    2.7778 H   0  0  0  0  0  0  0  0  0  0  0  0
    1.5289    0.1690    2.0051 C   0  0  0  0  0  0  0  0  0  0  0  0
    1.7488    1.1213    2.5237 H   0  0  0  0  0  0  0  0  0  0  0  0
    2.4005   -0.1285    1.3978 H   0  0  0  0  0  0  0  0  0  0  0  0
    1.3446   -0.6220    2.7587 H   0  0  0  0  0  0  0  0  0  0  0  0
  1 48  1  0  0  0  0
  1 44  1  0  0  0  0
  2  5  1  0  0  0  0
  3  2  1  0  0  0  0
  4  2  1  0  0  0  0
  5  6  2  0  0  0  0
  5 13  1  0  0  0  0
  6  8  1  0  0  0  0
  7  6  1  0  0  0  0
  8  9  1  0  0  0  0
  8 10  2  0  0  0  0
 10 11  1  0  0  0  0
 12 10  1  0  0  0  0
 12 14  1  0  0  0  0
 13 12  2  0  0  0  0
 14 16  1  0  0  0  0
 14 17  1  0  0  0  0
 15 14  1  0  0  0  0
 18 13  1  0  0  0  0
 18 26  1  0  0  0  0
 19 18  2  0  0  0  0
 20 19  1  0  0  0  0
 21 23  2  0  0  0  0
 21 19  1  0  0  0  0
 22 21  1  0  0  0  0
 23 25  1  0  0  0  0
 24 23  1  0  0  0  0
 25 27  1  0  0  0  0
 25 26  2  0  0  0  0
 26  1  1  0  0  0  0
 27 28  1  0  0  0  0
 28 29  2  0  0  0  0
 28 36  1  0  0  0  0
 29 30  1  0  0  0  0
 31 32  1  0  0  0  0
 31 29  1  0  0  0  0
 33 31  2  0  0  0  0
 34 33  1  0  0  0  0
 35 33  1  0  0  0  0
 35 27  2  0  0  0  0
 36 38  1  0  0  0  0
 36 37  1  0  0  0  0
 39 36  1  0  0  0  0
 40 43  1  0  0  0  0
 40 35  1  0  0  0  0
 41 40  1  0  0  0  0
 42 40  1  0  0  0  0
 44 47  1  0  0  0  0
 44 45  1  0  0  0  0
 46 44  1  0  0  0  0
 48 49  1  0  0  0  0
 48 51  1  0  0  0  0
 50 48  1  0  0  0  0
M  END
