1,3
q = -1.0

 61 61  0  0  0  0  0  0  0  0999 V2000
    2.1921   -0.7697   -0.1192 P   0  0  0  0  0  0  0  0  0  0  0  0
   -2.3727   -0.4339    0.0204 P   0  0  0  0  0  0  0  0  0  0  0  0
    0.0403    1.1744    0.0034 C   0  0  0  0  0  3  0  0  0  0  0  0
    1.2552    1.8231   -0.3123 C   0  0  0  0  0  0  0  0  0  0  0  0
    1.3661    3.2301   -0.2705 C   0  0  0  0  0  0  0  0  0  0  0  0
    2.3250    3.7040   -0.5239 H   0  0  0  0  0  0  0  0  0  0  0  0
    0.2468    4.0085    0.0791 C   0  0  0  0  0  0  0  0  0  0  0  0
   -0.9743    3.3759    0.3899 C   0  0  0  0  0  0  0  0  0  0  0  0
   -1.8298    4.0116    0.6653 H   0  0  0  0  0  0  0  0  0  0  0  0
   -1.0761    1.9769    0.3590 C   0  0  0  0  0  0  0  0  0  0  0  0
    2.4311    0.9731   -0.7453 C   0  0  0  0  0  0  0  0  0  0  0  0
    3.4107    1.3986   -0.4412 H   0  0  0  0  0  0  0  0  0  0  0  0
    2.4446    0.8837   -1.8556 H   0  0  0  0  0  0  0  0  0  0  0  0
   -2.3685    1.2850    0.7412 C   0  0  0  0  0  0  0  0  0  0  0  0
   -3.2719    1.8620    0.4534 H   0  0  0  0  0  0  0  0  0  0  0  0
   -2.4081    1.1460    1.8452 H   0  0  0  0  0  0  0  0  0  0  0  0
    0.2451    5.3762    0.1449 O   0  0  0  0  0  0  0  0  0  0  0  0
    1.4431    6.0566   -0.1553 C   0  0  0  0  0  0  0  0  0  0  0  0
    2.2698    5.7780    0.5385 H   0  0  0  0  0  0  0  0  0  0  0  0
    1.2313    7.1367   -0.0418 H   0  0  0  0  0  0  0  0  0  0  0  0
    1.7851    5.8656   -1.1988 H   0  0  0  0  0  0  0  0  0  0  0  0
    3.1365   -0.8015    1.4992 C   0  0  0  0  0  0  0  0  0  0  0  0
    4.1988   -0.6169    1.2240 H   0  0  0  0  0  0  0  0  0  0  0  0
    2.6592    0.3280    2.4207 C   0  0  0  0  0  0  0  0  0  0  0  0
    1.5776    0.2196    2.6409 H   0  0  0  0  0  0  0  0  0  0  0  0
    2.8099    1.3327    1.9806 H   0  0  0  0  0  0  0  0  0  0  0  0
    3.2154    0.2871    3.3803 H   0  0  0  0  0  0  0  0  0  0  0  0
    3.0123   -2.1676    2.1832 C   0  0  0  0  0  0  0  0  0  0  0  0
    3.5290   -2.1512    3.1653 H   0  0  0  0  0  0  0  0  0  0  0  0
    3.4571   -2.9855    1.5839 H   0  0  0  0  0  0  0  0  0  0  0  0
    1.9456   -2.4158    2.3595 H   0  0  0  0  0  0  0  0  0  0  0  0
    3.1600   -1.7967   -1.3545 C   0  0  0  0  0  0  0  0  0  0  0  0
    2.7112   -1.4307   -2.3055 H   0  0  0  0  0  0  0  0  0  0  0  0
    4.6627   -1.4971   -1.3644 C   0  0  0  0  0  0  0  0  0  0  0  0
    5.1557   -1.8661   -0.4415 H   0  0  0  0  0  0  0  0  0  0  0  0
    4.8800   -0.4140   -1.4579 H   0  0  0  0  0  0  0  0  0  0  0  0
    5.1507   -2.0093   -2.2198 H   0  0  0  0  0  0  0  0  0  0  0  0
    2.8598   -3.2956   -1.2521 C   0  0  0  0  0  0  0  0  0  0  0  0
    3.2697   -3.8267   -2.1362 H   0  0  0  0  0  0  0  0  0  0  0  0
    1.7694   -3.4821   -1.2062 H   0  0  0  0  0  0  0  0  0  0  0  0
    3.3226   -3.7486   -0.3524 H   0  0  0  0  0  0  0  0  0  0  0  0
   -3.2602   -0.2493   -1.6195 C   0  0  0  0  0  0  0  0  0  0  0  0
   -4.2798    0.1143   -1.3626 H   0  0  0  0  0  0  0  0  0  0  0  0
   -2.5748    0.7994   -2.5023 C   0  0  0  0  0  0  0  0  0  0  0  0
   -1.5270    0.5049   -2.7144 H   0  0  0  0  0  0  0  0  0  0  0  0
   -2.5498    1.8007   -2.0301 H   0  0  0  0  0  0  0  0  0  0  0  0
   -3.1154    0.8880   -3.4676 H   0  0  0  0  0  0  0  0  0  0  0  0
   -3.3632   -1.6064   -2.3238 C   0  0  0  0  0  0  0  0  0  0  0  0
   -3.8857   -1.4956   -3.2966 H   0  0  0  0  0  0  0  0  0  0  0  0
   -3.9235   -2.3545   -1.7273 H   0  0  0  0  0  0  0  0  0  0  0  0
   -2.3515   -2.0159   -2.5213 H   0  0  0  0  0  0  0  0  0  0  0  0
   -3.5659   -1.4173    1.0836 C   0  0  0  0  0  0  0  0  0  0  0  0
   -3.6400   -2.3870    0.5434 H   0  0  0  0  0  0  0  0  0  0  0  0
   -2.9703   -1.6927    2.4684 C   0  0  0  0  0  0  0  0  0  0  0  0
   -2.8476   -0.7565    3.0521 H   0  0  0  0  0  0  0  0  0  0  0  0
   -1.9761   -2.1712    2.3944 H   0  0  0  0  0  0  0  0  0  0  0  0
   -3.6460   -2.3569    3.0462 H   0  0  0  0  0  0  0  0  0  0  0  0
   -4.9613   -0.7879    1.1792 C   0  0  0  0  0  0  0  0  0  0  0  0
   -5.6279   -1.4304    1.7915 H   0  0  0  0  0  0  0  0  0  0  0  0
   -5.4446   -0.6610    0.1906 H   0  0  0  0  0  0  0  0  0  0  0  0
   -4.9237    0.2059    1.6715 H   0  0  0  0  0  0  0  0  0  0  0  0
  1 22  1  0  0  0  0
  2 14  1  0  0  0  0
  2 52  1  0  0  0  0
  3 10  1  0  0  0  0
  4  5  1  0  0  0  0
  4  3  2  0  0  0  0
  5  7  2  0  0  0  0
  6  5  1  0  0  0  0
  7 17  1  0  0  0  0
  7  8  1  0  0  0  0
  8  9  1  0  0  0  0
 10  8  2  0  0  0  0
 10 14  1  0  0  0  0
 11 12  1  0  0  0  0
 11  4  1  0  0  0  0
 11  1  1  0  0  0  0
 13 11  1  0  0  0  0
 14 16  1  0  0  0  0
 15 14  1  0  0  0  0
 18 20  1  0  0  0  0
 18 17  1  0  0  0  0
 18 19  1  0  0  0  0
 21 18  1  0  0  0  0
 22 28  1  0  0  0  0
 22 24  1  0  0  0  0
 23 22  1  0  0  0  0
 24 25  1  0  0  0  0
 24 27  1  0  0  0  0
 26 24  1  0  0  0  0
 28 31  1  0  0  0  0
 28 29  1  0  0  0  0
 30 28  1  0  0  0  0
 32 38  1  0  0  0  0
 32  1  1  0  0  0  0
 33 32  1  0  0  0  0
 34 32  1  0  0  0  0
 34 35  1  0  0  0  0
 36 34  1  0  0  0  0
 37 34  1  0  0  0  0
 38 40  1  0  0  0  0
 38 41  1  0  0  0  0
 39 38  1  0  0  0  0
 42 43  1  0  0  0  0
 42  2  1  0  0  0  0
 44 46  1  0  0  0  0
 44 42  1  0  0  0  0
 45 44  1  0  0  0  0
 47 44  1  0  0  0  0
 48 50  1  0  0  0  0
 48 42  1  0  0  0  0
 49 48  1  0  0  0  0
 51 48  1  0  0  0  0
 52 58  1  0  0  0  0
 52 54  1  0  0  0  0
 53 52  1  0  0  0  0
 54 57  1  0  0  0  0
 54 55  1  0  0  0  0
 56 54  1  0  0  0  0
 58 61  1  0  0  0  0
 58 59  1  0  0  0  0
 60 58  1  0  0  0  0
M  END
