1,2
q = -1.0, confidence = 0.0

 53 53  0  0  0  0  0  0  0  0999 V2000
   -0.8806   -1.3161   -0.1117 P   0  0  0  0  0  0  0  0  0  0  0  0
    1.6295   -0.1354   -0.2212 C   0  0  0  0  0  3  0  0  0  0  0  0
    1.2591    2.4988   -0.6479 O   0  0  0  0  0  0  0  0  0  0  0  0
    0.8085    3.8483   -0.5076 C   0  0  0  0  0  0  0  0  0  0  0  0
    0.5429    4.0759    0.5455 H   0  0  0  0  0  0  0  0  0  0  0  0
   -0.0980    3.9514   -1.1284 H   0  0  0  0  0  0  0  0  0  0  0  0
    1.5995    4.5432   -0.8641 H   0  0  0  0  0  0  0  0  0  0  0  0
    2.4614    2.2054    0.0897 C   0  0  0  0  0  0  0  0  0  0  0  0
    2.3244    2.5475    1.1455 H   0  0  0  0  0  0  0  0  0  0  0  0
    3.2972    2.8006   -0.3432 H   0  0  0  0  0  0  0  0  0  0  0  0
    2.7233    0.7235    0.0317 C   0  0  0  0  0  0  0  0  0  0  0  0
    4.0053    0.1789    0.2785 C   0  0  0  0  0  0  0  0  0  0  0  0
    5.1841    1.0716    0.5809 C   0  0  0  0  0  0  0  0  0  0  0  0
    6.1027    0.4797    0.7564 H   0  0  0  0  0  0  0  0  0  0  0  0
    5.0103    1.6956    1.4834 H   0  0  0  0  0  0  0  0  0  0  0  0
    5.3933    1.7739   -0.2547 H   0  0  0  0  0  0  0  0  0  0  0  0
    4.1563   -1.2208    0.2440 C   0  0  0  0  0  0  0  0  0  0  0  0
    5.1539   -1.6483    0.4348 H   0  0  0  0  0  0  0  0  0  0  0  0
    3.0869   -2.0958   -0.0319 C   0  0  0  0  0  0  0  0  0  0  0  0
    3.3033   -3.5885   -0.0667 C   0  0  0  0  0  0  0  0  0  0  0  0
    4.3646   -3.8480    0.1110 H   0  0  0  0  0  0  0  0  0  0  0  0
    3.0067   -4.0237   -1.0443 H   0  0  0  0  0  0  0  0  0  0  0  0
    2.6982   -4.1091    0.7070 H   0  0  0  0  0  0  0  0  0  0  0  0
    1.8099   -1.5405   -0.2752 C   0  0  0  0  0  0  0  0  0  0  0  0
    0.5847   -2.3744   -0.5807 C   0  0  0  0  0  0  0  0  0  0  0  0
    0.5714   -3.3591   -0.0749 H   0  0  0  0  0  0  0  0  0  0  0  0
    0.5081   -2.5778   -1.6699 H   0  0  0  0  0  0  0  0  0  0  0  0
   -1.0875   -1.6256    1.7803 C   0  0  0  0  0  0  0  0  0  0  0  0
    0.0566   -0.8927    2.5129 C   0  0  0  0  0  0  0  0  0  0  0  0
    0.0155    0.1992    2.3499 H   0  0  0  0  0  0  0  0  0  0  0  0
    1.0560   -1.2607    2.2133 H   0  0  0  0  0  0  0  0  0  0  0  0
   -0.0635   -1.0772    3.6017 H   0  0  0  0  0  0  0  0  0  0  0  0
   -2.4286   -1.0450    2.2621 C   0  0  0  0  0  0  0  0  0  0  0  0
   -3.3008   -1.6039    1.8726 H   0  0  0  0  0  0  0  0  0  0  0  0
   -2.5459    0.0205    1.9920 H   0  0  0  0  0  0  0  0  0  0  0  0
   -2.4640   -1.1168    3.3698 H   0  0  0  0  0  0  0  0  0  0  0  0
   -0.9876   -3.1216    2.1337 C   0  0  0  0  0  0  0  0  0  0  0  0
   -1.1496   -3.2280    3.2272 H   0  0  0  0  0  0  0  0  0  0  0  0
    0.0177   -3.5344    1.9184 H   0  0  0  0  0  0  0  0  0  0  0  0
   -1.7413   -3.7503    1.6283 H   0  0  0  0  0  0  0  0  0  0  0  0
   -2.4134   -1.9211   -1.0813 C   0  0  0  0  0  0  0  0  0  0  0  0
   -3.0350   -3.2082   -0.5145 C   0  0  0  0  0  0  0  0  0  0  0  0
   -3.4536   -3.0750    0.4999 H   0  0  0  0  0  0  0  0  0  0  0  0
   -2.3127   -4.0489   -0.4936 H   0  0  0  0  0  0  0  0  0  0  0  0
   -3.8732   -3.5126   -1.1767 H   0  0  0  0  0  0  0  0  0  0  0  0
   -1.9967   -2.2002   -2.5378 C   0  0  0  0  0  0  0  0  0  0  0  0
   -1.3329   -3.0834   -2.6255 H   0  0  0  0  0  0  0  0  0  0  0  0
   -1.4992   -1.3343   -3.0085 H   0  0  0  0  0  0  0  0  0  0  0  0
   -2.9126   -2.4198   -3.1258 H   0  0  0  0  0  0  0  0  0  0  0  0
   -3.4351   -0.7672   -1.0677 C   0  0  0  0  0  0  0  0  0  0  0  0
   -4.3460   -1.0858   -1.6171 H   0  0  0  0  0  0  0  0  0  0  0  0
   -3.0304    0.1376   -1.5593 H   0  0  0  0  0  0  0  0  0  0  0  0
   -3.7368   -0.4645   -0.0486 H   0  0  0  0  0  0  0  0  0  0  0  0
  1 28  1  0  0  0  0
  2 11  1  0  0  0  0
  3  4  1  0  0  0  0
  3  8  1  0  0  0  0
  4  5  1  0  0  0  0
  6  4  1  0  0  0  0
  7  4  1  0  0  0  0
  8  9  1  0  0  0  0
 10  8  1  0  0  0  0
 11  8  1  0  0  0  0
 11 12  2  0  0  0  0
 12 13  1  0  0  0  0
 13 14  1  0  0  0  0
 13 15  1  0  0  0  0
 16 13  1  0  0  0  0
 17 12  1  0  0  0  0
 17 18  1  0  0  0  0
 19 17  2  0  0  0  0
 20 19  1  0  0  0  0
 20 21  1  0  0  0  0
 20 23  1  0  0  0  0
 22 20  1  0  0  0  0
 24  2  2  0  0  0  0
 24 19  1  0  0  0  0
 25 24  1  0  0  0  0
 25  1  1  0  0  0  0
 25 26  1  0  0  0  0
 27 25  1  0  0  0  0
 28 37  1  0  0  0  0
 28 33  1  0  0  0  0
 28 29  1  0  0  0  0
 29 32  1  0  0  0  0
 30 29  1  0  0  0  0
 31 29  1  0  0  0  0
 33 36  1  0  0  0  0
 34 33  1  0  0  0  0
 35 33  1  0  0  0  0
 37 38  1  0  0  0  0
 39 37  1  0  0  0  0
 40 37  1  0  0  0  0
 41 50  1  0  0  0  0
 41 42  1  0  0  0  0
 41  1  1  0  0  0  0
 42 44  1  0  0  0  0
 42 43  1  0  0  0  0
 45 42  1  0  0  0  0
 46 41  1  0  0  0  0
 47 46  1  0  0  0  0
 48 46  1  0  0  0  0
 49 46  1  0  0  0  0
 50 53  1  0  0  0  0
 51 50  1  0  0  0  0
 52 50  1  0  0  0  0
M  END
