16,26
q = -1.0

 50 53  0  0  0  0  0  0  0  0999 V2000
   -3.1131    0.2903   -1.1602 C   0  0  0  0  0  0  0  0  0  0  0  0
   -5.0624   -0.6609   -2.2419 C   0  0  0  0  0  0  0  0  0  0  0  0
   -4.8170   -0.8097    0.1681 C   0  0  0  0  0  0  0  0  0  0  0  0
    0.6548    2.8205   -1.1094 C   0  0  0  0  0  0  0  0  0  0  0  0
    1.9591    4.6444   -0.2127 C   0  0  0  0  0  0  0  0  0  0  0  0
   -0.0575    5.0945   -1.4947 C   0  0  0  0  0  0  0  0  0  0  0  0
   -0.6022    1.0291    2.2140 C   0  0  0  0  0  0  0  0  0  0  0  0
    0.6801    0.1606    4.0633 C   0  0  0  0  0  0  0  0  0  0  0  0
   -1.5181    1.1064    4.4617 C   0  0  0  0  0  0  0  0  0  0  0  0
    1.6982    0.0349    1.7876 C   0  0  0  0  0  0  0  0  0  0  0  0
    3.0088   -0.8286   -0.0569 C   0  0  0  0  0  0  0  0  0  0  0  0
    5.2146   -1.8984   -0.0276 C   0  0  0  0  0  0  0  0  0  0  0  0
    4.6484   -0.3618   -1.8135 C   0  0  0  0  0  0  0  0  0  0  0  0
   -1.9089    0.9559   -1.3097 O   0  0  0  0  0  0  0  0  0  0  0  0
   -0.7784    1.4109    0.8970 O   0  0  0  0  0  0  0  0  0  0  0  0
   -0.5334    0.5010   -0.4650 P   0  0  0  0  0  0  0  0  0  0  0  0
   -3.8432    0.0226   -2.3304 C   0  0  0  0  0  0  0  0  0  0  0  0
   -5.5500   -1.0875   -0.9950 C   0  0  0  0  0  0  0  0  0  0  0  0
   -3.6011   -0.1123    0.0965 C   0  0  0  0  0  0  0  0  0  0  0  0
    1.7648    3.2650   -0.3775 C   0  0  0  0  0  0  0  0  0  0  0  0
    1.0510    5.5602   -0.7687 C   0  0  0  0  0  0  0  0  0  0  0  0
   -0.2643    3.7179   -1.6708 C   0  0  0  0  0  0  0  0  0  0  0  0
    0.5787    0.3940    2.6700 C   0  0  0  0  0  0  0  0  0  0  0  0
   -0.3498    0.4937    4.9479 C   0  0  0  0  0  0  0  0  0  0  0  0
   -1.6389    1.3806    3.0953 C   0  0  0  0  0  0  0  0  0  0  0  0
    1.6835   -0.6175    0.5918 C   0  0  0  0  0  3  0  0  0  0  0  0
    3.9501   -1.6960    0.5448 C   0  0  0  0  0  0  0  0  0  0  0  0
    5.5704   -1.2320   -1.2100 C   0  0  0  0  0  0  0  0  0  0  0  0
    3.3806   -0.1642   -1.2485 C   0  0  0  0  0  0  0  0  0  0  0  0
    0.5072    1.4455   -1.3132 O   0  0  0  0  0  0  0  0  0  0  0  0
   -3.4299    0.3452   -3.2966 H   0  0  0  0  0  0  0  0  0  0  0  0
   -5.6308   -0.8747   -3.1595 H   0  0  0  0  0  0  0  0  0  0  0  0
   -6.5012   -1.6361   -0.9315 H   0  0  0  0  0  0  0  0  0  0  0  0
   -5.1905   -1.1361    1.1504 H   0  0  0  0  0  0  0  0  0  0  0  0
   -3.0408    0.1181    1.0126 H   0  0  0  0  0  0  0  0  0  0  0  0
    2.4547    2.5248    0.0521 H   0  0  0  0  0  0  0  0  0  0  0  0
    2.8279    5.0045    0.3587 H   0  0  0  0  0  0  0  0  0  0  0  0
    1.2074    6.6411   -0.6355 H   0  0  0  0  0  0  0  0  0  0  0  0
   -0.7713    5.8092   -1.9315 H   0  0  0  0  0  0  0  0  0  0  0  0
   -1.1243    3.3267   -2.2311 H   0  0  0  0  0  0  0  0  0  0  0  0
    1.5990   -0.3139    4.4410 H   0  0  0  0  0  0  0  0  0  0  0  0
   -0.2421    0.2797    6.0215 H   0  0  0  0  0  0  0  0  0  0  0  0
   -2.3325    1.3805    5.1485 H   0  0  0  0  0  0  0  0  0  0  0  0
   -2.5228    1.8897    2.6847 H   0  0  0  0  0  0  0  0  0  0  0  0
    2.6925    0.3260    2.1840 H   0  0  0  0  0  0  0  0  0  0  0  0
    3.6728   -2.2225    1.4707 H   0  0  0  0  0  0  0  0  0  0  0  0
    5.9272   -2.5836    0.4570 H   0  0  0  0  0  0  0  0  0  0  0  0
    6.5621   -1.3903   -1.6602 H   0  0  0  0  0  0  0  0  0  0  0  0
    4.9180    0.1738   -2.7368 H   0  0  0  0  0  0  0  0  0  0  0  0
    2.6656    0.5194   -1.7265 H   0  0  0  0  0  0  0  0  0  0  0  0
  1 19  1  0  0  0  0
  2 18  2  0  0  0  0
  3 34  1  0  0  0  0
  4 20  1  0  0  0  0
  5 37  1  0  0  0  0
  6 21  2  0  0  0  0
  7 23  2  0  0  0  0
  7 25  1  0  0  0  0
  8 41  1  0  0  0  0
  8 24  2  0  0  0  0
  9 24  1  0  0  0  0
  9 43  1  0  0  0  0
 10 45  1  0  0  0  0
 10 23  1  0  0  0  0
 11 27  1  0  0  0  0
 11 26  1  0  0  0  0
 12 47  1  0  0  0  0
 12 27  2  0  0  0  0
 13 29  1  0  0  0  0
 13 28  2  0  0  0  0
 14  1  1  0  0  0  0
 14 16  1  0  0  0  0
 15  7  1  0  0  0  0
 16 15  1  0  0  0  0
 17  2  1  0  0  0  0
 17  1  2  0  0  0  0
 18 33  1  0  0  0  0
 18  3  1  0  0  0  0
 19  3  2  0  0  0  0
 19 35  1  0  0  0  0
 20  5  2  0  0  0  0
 20 36  1  0  0  0  0
 21 38  1  0  0  0  0
 21  5  1  0  0  0  0
 22  6  1  0  0  0  0
 22  4  2  0  0  0  0
 23  8  1  0  0  0  0
 24 42  1  0  0  0  0
 25  9  2  0  0  0  0
 26 10  2  0  0  0  0
 27 46  1  0  0  0  0
 28 12  1  0  0  0  0
 29 11  2  0  0  0  0
 30  4  1  0  0  0  0
 30 16  1  0  0  0  0
 31 17  1  0  0  0  0
 32  2  1  0  0  0  0
 39  6  1  0  0  0  0
 40 22  1  0  0  0  0
 44 25  1  0  0  0  0
 48 28  1  0  0  0  0
 49 13  1  0  0  0  0
 50 29  1  0  0  0  0
M  END
