1,15
q = -1.0

 35 35  0  0  0  0  0  0  0  0999 V2000
   -1.8456   -1.1506   -0.0543 P   0  0  0  0  0  0  0  0  0  0  0  0
   -2.9200   -0.6480   -1.2385 O   0  0  0  0  0  0  0  0  0  0  0  0
   -1.2066   -3.1500   -1.8643 C   0  0  0  0  0  0  0  0  0  0  0  0
   -0.2088   -2.6745   -1.9057 H   0  0  0  0  0  0  0  0  0  0  0  0
   -1.8307   -2.6849   -2.6536 H   0  0  0  0  0  0  0  0  0  0  0  0
   -1.0902   -4.2263   -2.1077 H   0  0  0  0  0  0  0  0  0  0  0  0
   -2.1539   -0.2196    2.6243 C   0  0  0  0  0  0  0  0  0  0  0  0
   -1.0936   -0.5028    2.7773 H   0  0  0  0  0  0  0  0  0  0  0  0
   -2.6858   -0.3339    3.5919 H   0  0  0  0  0  0  0  0  0  0  0  0
   -2.1680    0.8506    2.3433 H   0  0  0  0  0  0  0  0  0  0  0  0
   -4.2809   -0.6260    1.3053 C   0  0  0  0  0  0  0  0  0  0  0  0
   -4.8075   -1.2641    0.5711 H   0  0  0  0  0  0  0  0  0  0  0  0
   -4.3006    0.4128    0.9190 H   0  0  0  0  0  0  0  0  0  0  0  0
   -4.8477   -0.6490    2.2594 H   0  0  0  0  0  0  0  0  0  0  0  0
   -1.3663    1.7516   -0.0919 C   0  0  0  0  0  3  0  0  0  0  0  0
   -1.2768    2.8292    0.8199 C   0  0  0  0  0  0  0  0  0  0  0  0
   -0.4299    2.8731    1.5217 H   0  0  0  0  0  0  0  0  0  0  0  0
   -2.4650    1.7500   -0.9907 C   0  0  0  0  0  0  0  0  0  0  0  0
   -3.4202    2.7865   -0.9694 C   0  0  0  0  0  0  0  0  0  0  0  0
   -4.2638    2.7573   -1.6792 H   0  0  0  0  0  0  0  0  0  0  0  0
   -1.8672   -2.9687   -0.4951 C   0  0  0  0  0  0  0  0  0  0  0  0
   -1.2376   -3.4446    0.2896 H   0  0  0  0  0  0  0  0  0  0  0  0
   -2.8372   -1.0788    1.5532 C   0  0  0  0  0  0  0  0  0  0  0  0
   -2.8430   -2.1350    1.9055 H   0  0  0  0  0  0  0  0  0  0  0  0
   -3.3084    3.8448   -0.0570 C   0  0  0  0  0  0  0  0  0  0  0  0
   -4.0567    4.6521   -0.0479 H   0  0  0  0  0  0  0  0  0  0  0  0
   -2.2320    3.8587    0.8436 C   0  0  0  0  0  0  0  0  0  0  0  0
   -2.1277    4.6837    1.5661 H   0  0  0  0  0  0  0  0  0  0  0  0
   -3.2702   -3.5868   -0.4678 C   0  0  0  0  0  0  0  0  0  0  0  0
   -3.7399   -3.5430    0.5341 H   0  0  0  0  0  0  0  0  0  0  0  0
   -3.2187   -4.6555   -0.7635 H   0  0  0  0  0  0  0  0  0  0  0  0
   -3.9347   -3.0666   -1.1858 H   0  0  0  0  0  0  0  0  0  0  0  0
   -2.6358    0.5880   -1.9355 C   0  0  0  0  0  0  0  0  0  0  0  0
   -3.4992    0.7408   -2.6127 H   0  0  0  0  0  0  0  0  0  0  0  0
   -1.7202    0.4487   -2.5533 H   0  0  0  0  0  0  0  0  0  0  0  0
  1 23  1  0  0  0  0
  2  1  1  0  0  0  0
  3 21  1  0  0  0  0
  4  3  1  0  0  0  0
  5  3  1  0  0  0  0
  6  3  1  0  0  0  0
  7  8  1  0  0  0  0
  7  9  1  0  0  0  0
 10  7  1  0  0  0  0
 11 23  1  0  0  0  0
 11 14  1  0  0  0  0
 12 11  1  0  0  0  0
 13 11  1  0  0  0  0
 15 16  1  0  0  0  0
 16 27  2  0  0  0  0
 16 17  1  0  0  0  0
 18 19  1  0  0  0  0
 18 15  2  0  0  0  0
 19 25  2  0  0  0  0
 20 19  1  0  0  0  0
 21 29  1  0  0  0  0
 21  1  1  0  0  0  0
 21 22  1  0  0  0  0
 23 24  1  0  0  0  0
 23  7  1  0  0  0  0
 25 26  1  0  0  0  0
 25 27  1  0  0  0  0
 27 28  1  0  0  0  0
 29 30  1  0  0  0  0
 31 29  1  0  0  0  0
 32 29  1  0  0  0  0
 33  2  1  0  0  0  0
 33 18  1  0  0  0  0
 34 33  1  0  0  0  0
 35 33  1  0  0  0  0
M  END
