1,11
q = -1.0

 44 47  0  0  0  0  0  0  0  0999 V2000
   -0.6683   -0.0211   -0.1489 P   0  0  0  0  0  0  0  0  0  0  0  0
    1.6481    4.5201   -1.6456 O   0  0  0  0  0  0  0  0  0  0  0  0
   -1.7474    1.3344   -0.0290 C   0  0  0  0  0  0  0  0  0  0  0  0
   -3.1332    1.0868    0.0336 C   0  0  0  0  0  0  0  0  0  0  0  0
   -3.7846    1.9752    0.0795 H   0  0  0  0  0  0  0  0  0  0  0  0
   -3.7651   -0.1793   -0.0408 C   0  0  0  0  0  0  0  0  0  0  0  0
   -3.0362   -1.3849   -0.2127 C   0  0  0  0  0  0  0  0  0  0  0  0
   -3.6144   -2.3220   -0.2654 H   0  0  0  0  0  0  0  0  0  0  0  0
   -1.6399   -1.4579   -0.2856 C   0  0  0  0  0  0  0  0  0  0  0  0
   -0.7652   -2.6199   -0.5025 C   0  0  0  0  0  0  0  0  0  0  0  0
    0.6542   -2.3756   -0.5216 C   0  0  0  0  0  3  0  0  0  0  0  0
    1.4896   -3.4443   -0.9055 C   0  0  0  0  0  0  0  0  0  0  0  0
    2.5710   -3.2695   -1.0099 H   0  0  0  0  0  0  0  0  0  0  0  0
    0.9763   -4.7237   -1.1736 C   0  0  0  0  0  0  0  0  0  0  0  0
    1.6619   -5.5360   -1.4626 H   0  0  0  0  0  0  0  0  0  0  0  0
   -0.4054   -4.9671   -1.0854 C   0  0  0  0  0  0  0  0  0  0  0  0
   -0.8094   -5.9698   -1.2909 H   0  0  0  0  0  0  0  0  0  0  0  0
   -1.2685   -3.9138   -0.7663 C   0  0  0  0  0  0  0  0  0  0  0  0
   -2.3556   -4.0890   -0.7408 H   0  0  0  0  0  0  0  0  0  0  0  0
   -1.1465    2.6888   -0.0209 C   0  0  0  0  0  0  0  0  0  0  0  0
   -1.5847    3.6877    0.8729 C   0  0  0  0  0  0  0  0  0  0  0  0
   -2.4143    3.4795    1.5644 H   0  0  0  0  0  0  0  0  0  0  0  0
   -0.9237    4.9273    0.9047 C   0  0  0  0  0  0  0  0  0  0  0  0
   -1.2566    5.7049    1.6091 H   0  0  0  0  0  0  0  0  0  0  0  0
    0.1599    5.1870    0.0589 C   0  0  0  0  0  0  0  0  0  0  0  0
    0.6857    6.1525    0.0725 H   0  0  0  0  0  0  0  0  0  0  0  0
    0.5920    4.1973   -0.8538 C   0  0  0  0  0  0  0  0  0  0  0  0
   -0.0656    2.9541   -0.8945 C   0  0  0  0  0  0  0  0  0  0  0  0
    0.2637    2.1699   -1.5918 H   0  0  0  0  0  0  0  0  0  0  0  0
   -5.2496   -0.2401    0.0339 C   0  0  0  0  0  0  0  0  0  0  0  0
   -5.9843   -1.1451   -0.7667 C   0  0  0  0  0  0  0  0  0  0  0  0
   -5.4507   -1.7919   -1.4795 H   0  0  0  0  0  0  0  0  0  0  0  0
   -7.3826   -1.2020   -0.6938 C   0  0  0  0  0  0  0  0  0  0  0  0
   -7.9325   -1.9074   -1.3354 H   0  0  0  0  0  0  0  0  0  0  0  0
   -8.0812   -0.3551    0.1812 C   0  0  0  0  0  0  0  0  0  0  0  0
   -9.1793   -0.3996    0.2381 H   0  0  0  0  0  0  0  0  0  0  0  0
   -7.3668    0.5498    0.9824 C   0  0  0  0  0  0  0  0  0  0  0  0
   -7.9029    1.2123    1.6791 H   0  0  0  0  0  0  0  0  0  0  0  0
   -5.9685    0.6063    0.9095 C   0  0  0  0  0  0  0  0  0  0  0  0
   -5.4173    1.2994    1.5629 H   0  0  0  0  0  0  0  0  0  0  0  0
    1.9611    3.6516   -2.7322 C   0  0  0  0  0  0  0  0  0  0  0  0
    2.2256    2.6239   -2.4019 H   0  0  0  0  0  0  0  0  0  0  0  0
    2.8252    4.1080   -3.2491 H   0  0  0  0  0  0  0  0  0  0  0  0
    1.1069    3.5788   -3.4409 H   0  0  0  0  0  0  0  0  0  0  0  0
  1  3  2  0  0  0  0
  2 27  1  0  0  0  0
  3 20  1  0  0  0  0
  3  4  1  0  0  0  0
  4  5  1  0  0  0  0
  6  4  2  0  0  0  0
  6 30  1  0  0  0  0
  7  6  1  0  0  0  0
  8  7  1  0  0  0  0
  9  7  2  0  0  0  0
  9  1  1  0  0  0  0
 10  9  1  0  0  0  0
 11 10  1  0  0  0  0
 12 11  2  0  0  0  0
 13 12  1  0  0  0  0
 14 16  2  0  0  0  0
 14 12  1  0  0  0  0
 15 14  1  0  0  0  0
 16 18  1  0  0  0  0
 17 16  1  0  0  0  0
 18 19  1  0  0  0  0
 18 10  2  0  0  0  0
 20 21  1  0  0  0  0
 21 23  2  0  0  0  0
 21 22  1  0  0  0  0
 23 24  1  0  0  0  0
 25 26  1  0  0  0  0
 25 23  1  0  0  0  0
 27 25  2  0  0  0  0
 28 27  1  0  0  0  0
 28 20  2  0  0  0  0
 29 28  1  0  0  0  0
 30 39  1  0  0  0  0
 31 33  1  0  0  0  0
 31 30  2  0  0  0  0
 32 31  1  0  0  0  0
 33 35  2  0  0  0  0
 34 33  1  0  0  0  0
 35 36  1  0  0  0  0
 35 37  1  0  0  0  0
 37 38  1  0  0  0  0
 39 37  2  0  0  0  0
 39 40  1  0  0  0  0
 41 42  1  0  0  0  0
 41  2  1  0  0  0  0
 43 41  1  0  0  0  0
 44 41  1  0  0  0  0
M  END
