1,7
q = -1.0

 47 50  0  0  0  0  0  0  0  0999 V2000
   -1.1468   -0.1892    0.0574 P   0  0  0  0  0  0  0  0  0  0  0  0
    2.4897    1.3796    0.0321 C   0  0  0  0  0  0  0  0  0  0  0  0
   -0.4070    2.6649   -0.2161 C   0  0  0  0  0  0  0  0  0  0  0  0
   -1.8595    4.5745    0.2858 C   0  0  0  0  0  0  0  0  0  0  0  0
   -2.7068    4.9976    0.8470 H   0  0  0  0  0  0  0  0  0  0  0  0
   -0.0279    1.2467   -0.0396 C   0  0  0  0  0  0  0  0  0  0  0  0
    1.2147    0.6439   -0.0176 C   0  0  0  0  0  3  0  0  0  0  0  0
   -0.0650    4.8199   -1.3277 C   0  0  0  0  0  0  0  0  0  0  0  0
    0.4957    5.4351   -2.0480 H   0  0  0  0  0  0  0  0  0  0  0  0
   -2.4954   -1.4411   -2.0493 C   0  0  0  0  0  0  0  0  0  0  0  0
   -1.8877   -2.3185   -1.7785 H   0  0  0  0  0  0  0  0  0  0  0  0
    0.2985    3.4820   -1.1322 C   0  0  0  0  0  0  0  0  0  0  0  0
    1.1353    3.0490   -1.6988 H   0  0  0  0  0  0  0  0  0  0  0  0
   -2.1800   -0.0832    1.5713 C   0  0  0  0  0  0  0  0  0  0  0  0
   -2.3486   -0.2422   -1.3230 C   0  0  0  0  0  0  0  0  0  0  0  0
   -3.1233    0.8859   -1.6704 C   0  0  0  0  0  0  0  0  0  0  0  0
   -3.0142    1.8263   -1.1110 H   0  0  0  0  0  0  0  0  0  0  0  0
   -4.1723   -0.3895   -3.4595 C   0  0  0  0  0  0  0  0  0  0  0  0
   -4.8836   -0.4446   -4.2975 H   0  0  0  0  0  0  0  0  0  0  0  0
    4.7819    1.7282   -0.7583 C   0  0  0  0  0  0  0  0  0  0  0  0
    5.6049    1.4434   -1.4315 H   0  0  0  0  0  0  0  0  0  0  0  0
   -3.4934   -0.5927    1.5933 C   0  0  0  0  0  0  0  0  0  0  0  0
   -3.9350   -1.0141    0.6775 H   0  0  0  0  0  0  0  0  0  0  0  0
   -4.2405   -0.5543    2.7808 C   0  0  0  0  0  0  0  0  0  0  0  0
   -5.2668   -0.9517    2.7907 H   0  0  0  0  0  0  0  0  0  0  0  0
   -1.4968    3.2346    0.4855 C   0  0  0  0  0  0  0  0  0  0  0  0
   -2.0587    2.6206    1.2047 H   0  0  0  0  0  0  0  0  0  0  0  0
   -3.4097   -1.5149   -3.1114 C   0  0  0  0  0  0  0  0  0  0  0  0
   -3.5206   -2.4551   -3.6721 H   0  0  0  0  0  0  0  0  0  0  0  0
    4.9522    2.7796    0.1571 C   0  0  0  0  0  0  0  0  0  0  0  0
    5.9094    3.3203    0.2081 H   0  0  0  0  0  0  0  0  0  0  0  0
   -3.6849   -0.0092    3.9486 C   0  0  0  0  0  0  0  0  0  0  0  0
   -4.2742    0.0216    4.8775 H   0  0  0  0  0  0  0  0  0  0  0  0
   -1.6222    0.4606    2.7480 C   0  0  0  0  0  0  0  0  0  0  0  0
   -0.5992    0.8668    2.7316 H   0  0  0  0  0  0  0  0  0  0  0  0
    3.8959    3.1284    1.0154 C   0  0  0  0  0  0  0  0  0  0  0  0
    4.0236    3.9445    1.7432 H   0  0  0  0  0  0  0  0  0  0  0  0
    2.6758    2.4450    0.9482 C   0  0  0  0  0  0  0  0  0  0  0  0
    1.8476    2.7253    1.6161 H   0  0  0  0  0  0  0  0  0  0  0  0
   -2.3752    0.4992    3.9291 C   0  0  0  0  0  0  0  0  0  0  0  0
   -1.9352    0.9299    4.8412 H   0  0  0  0  0  0  0  0  0  0  0  0
    3.5713    1.0248   -0.8081 C   0  0  0  0  0  0  0  0  0  0  0  0
    3.4460    0.1919   -1.5158 H   0  0  0  0  0  0  0  0  0  0  0  0
   -1.1445    5.3744   -0.6195 C   0  0  0  0  0  0  0  0  0  0  0  0
   -1.4300    6.4255   -0.7767 H   0  0  0  0  0  0  0  0  0  0  0  0
   -4.0260    0.8086   -2.7402 C   0  0  0  0  0  0  0  0  0  0  0  0
   -4.6200    1.6934   -3.0148 H   0  0  0  0  0  0  0  0  0  0  0  0
  1 14  1  0  0  0  0
  2 38  1  0  0  0  0
  3  6  1  0  0  0  0
  3 26  1  0  0  0  0
  4 26  2  0  0  0  0
  4  5  1  0  0  0  0
  6  7  2  0  0  0  0
  6  1  1  0  0  0  0
  7  2  1  0  0  0  0
  8 12  1  0  0  0  0
  8 44  2  0  0  0  0
  9  8  1  0  0  0  0
 10 11  1  0  0  0  0
 10 15  1  0  0  0  0
 12  3  2  0  0  0  0
 13 12  1  0  0  0  0
 14 22  2  0  0  0  0
 14 34  1  0  0  0  0
 15  1  1  0  0  0  0
 16 15  2  0  0  0  0
 16 17  1  0  0  0  0
 18 28  1  0  0  0  0
 18 46  2  0  0  0  0
 19 18  1  0  0  0  0
 20 30  2  0  0  0  0
 21 20  1  0  0  0  0
 22 24  1  0  0  0  0
 23 22  1  0  0  0  0
 24 25  1  0  0  0  0
 24 32  2  0  0  0  0
 26 27  1  0  0  0  0
 28 10  2  0  0  0  0
 29 28  1  0  0  0  0
 30 31  1  0  0  0  0
 30 36  1  0  0  0  0
 32 33  1  0  0  0  0
 34 40  2  0  0  0  0
 35 34  1  0  0  0  0
 36 37  1  0  0  0  0
 38 36  2  0  0  0  0
 38 39  1  0  0  0  0
 40 32  1  0  0  0  0
 40 41  1  0  0  0  0
 42 20  1  0  0  0  0
 42  2  2  0  0  0  0
 43 42  1  0  0  0  0
 44  4  1  0  0  0  0
 45 44  1  0  0  0  0
 46 16  1  0  0  0  0
 47 46  1  0  0  0  0
M  END
