1,2
q = 0.0, confidence = 1.0

 44 44  0  0  0  0  0  0  0  0999 V2000
   -1.6666   -0.2781    0.2043 P   0  0  0  0  0  0  0  0  0  0  0  0
   -0.1020    1.5340    0.2617 C   0  0  0  0  0  2  0  0  0  0  0  0
   -1.3627    1.3869    0.8130 N   0  0  0  0  0  0  0  0  0  0  0  0
   -1.7837    2.5586    1.4295 C   0  0  0  0  0  0  0  0  0  0  0  0
   -2.7536    2.6772    1.9209 H   0  0  0  0  0  0  0  0  0  0  0  0
   -0.7433    3.4462    1.2823 C   0  0  0  0  0  0  0  0  0  0  0  0
   -0.6518    4.4806    1.6255 H   0  0  0  0  0  0  0  0  0  0  0  0
    0.2741    2.8060    0.5647 N   0  0  0  0  0  0  0  0  0  0  0  0
    1.6073    3.3523    0.2375 C   0  0  0  0  0  0  0  0  0  0  0  0
    1.9401    2.7304   -0.6218 H   0  0  0  0  0  0  0  0  0  0  0  0
    2.5644    3.1373    1.4125 C   0  0  0  0  0  0  0  0  0  0  0  0
    2.2342    3.6938    2.3148 H   0  0  0  0  0  0  0  0  0  0  0  0
    3.5800    3.4892    1.1438 H   0  0  0  0  0  0  0  0  0  0  0  0
    2.6317    2.0606    1.6651 H   0  0  0  0  0  0  0  0  0  0  0  0
    1.5119    4.8093   -0.2085 C   0  0  0  0  0  0  0  0  0  0  0  0
    0.7857    4.9272   -1.0366 H   0  0  0  0  0  0  0  0  0  0  0  0
    2.5014    5.1461   -0.5740 H   0  0  0  0  0  0  0  0  0  0  0  0
    1.2200    5.4880    0.6205 H   0  0  0  0  0  0  0  0  0  0  0  0
   -2.2610   -1.3166    1.6784 C   0  0  0  0  0  0  0  0  0  0  0  0
   -3.7431   -1.1214    2.0300 C   0  0  0  0  0  0  0  0  0  0  0  0
   -3.9795   -1.7412    2.9208 H   0  0  0  0  0  0  0  0  0  0  0  0
   -4.4197   -1.4453    1.2174 H   0  0  0  0  0  0  0  0  0  0  0  0
   -3.9778   -0.0696    2.2894 H   0  0  0  0  0  0  0  0  0  0  0  0
   -1.9692   -2.7787    1.2824 C   0  0  0  0  0  0  0  0  0  0  0  0
   -0.9116   -2.9064    0.9799 H   0  0  0  0  0  0  0  0  0  0  0  0
   -2.6015   -3.1245    0.4433 H   0  0  0  0  0  0  0  0  0  0  0  0
   -2.1705   -3.4357    2.1543 H   0  0  0  0  0  0  0  0  0  0  0  0
   -1.4005   -0.9416    2.8964 C   0  0  0  0  0  0  0  0  0  0  0  0
   -1.7018   -1.5837    3.7502 H   0  0  0  0  0  0  0  0  0  0  0  0
   -1.5330    0.1159    3.1986 H   0  0  0  0  0  0  0  0  0  0  0  0
   -0.3266   -1.1185    2.7039 H   0  0  0  0  0  0  0  0  0  0  0  0
   -2.9962   -0.0381   -1.1335 C   0  0  0  0  0  0  0  0  0  0  0  0
   -3.4262   -1.4360   -1.6158 C   0  0  0  0  0  0  0  0  0  0  0  0
   -4.0246   -1.9825   -0.8607 H   0  0  0  0  0  0  0  0  0  0  0  0
   -2.5407   -2.0450   -1.8958 H   0  0  0  0  0  0  0  0  0  0  0  0
   -4.0597   -1.3210   -2.5201 H   0  0  0  0  0  0  0  0  0  0  0  0
   -2.2889    0.6925   -2.2938 C   0  0  0  0  0  0  0  0  0  0  0  0
   -3.0317    0.8692   -3.1003 H   0  0  0  0  0  0  0  0  0  0  0  0
   -1.4642    0.0852   -2.7174 H   0  0  0  0  0  0  0  0  0  0  0  0
   -1.8809    1.6756   -1.9865 H   0  0  0  0  0  0  0  0  0  0  0  0
   -4.1892    0.8084   -0.6625 C   0  0  0  0  0  0  0  0  0  0  0  0
   -4.8730    0.9614   -1.5241 H   0  0  0  0  0  0  0  0  0  0  0  0
   -3.8670    1.8126   -0.3216 H   0  0  0  0  0  0  0  0  0  0  0  0
   -4.7765    0.3321    0.1422 H   0  0  0  0  0  0  0  0  0  0  0  0
  1  3  1  0  0  0  0
  1 19  1  0  0  0  0
  2  8  1  0  0  0  0
  2  3  1  0  0  0  0
  3  4  1  0  0  0  0
  4  5  1  0  0  0  0
  6  4  2  0  0  0  0
  6  7  1  0  0  0  0
  8  6  1  0  0  0  0
  9  8  1  0  0  0  0
  9 11  1  0  0  0  0
 10  9  1  0  0  0  0
 11 14  1  0  0  0  0
 11 12  1  0  0  0  0
 13 11  1  0  0  0  0
 15  9  1  0  0  0  0
 15 18  1  0  0  0  0
 16 15  1  0  0  0  0
 17 15  1  0  0  0  0
 19 20  1  0  0  0  0
 19 28  1  0  0  0  0
 20 23  1  0  0  0  0
 20 21  1  0  0  0  0
 22 20  1  0  0  0  0
 24 19  1  0  0  0  0
 24 27  1  0  0  0  0
 25 24  1  0  0  0  0
 26 24  1  0  0  0  0
 28 30  1  0  0  0  0
 28 29  1  0  0  0  0
 31 28  1  0  0  0  0
 32 41  1  0  0  0  0
 32  1  1  0  0  0  0
 33 32  1  0  0  0  0
 33 34  1  0  0  0  0
 35 33  1  0  0  0  0
 36 33  1  0  0  0  0
 37 40  1  0  0  0  0
 37 32  1  0  0  0  0
 38 37  1  0  0  0  0
 39 37  1  0  0  0  0
 41 43  1  0  0  0  0
 41 44  1  0  0  0  0
 42 41  1  0  0  0  0
M  END
