1,6
q = 0.0, confidence = 0.99

 39 38  0  0  0  0  0  0  0  0999 V2000
   -1.5386    1.1389    0.1206 P   0  0  0  0  0  0  0  0  0  0  0  0
   -1.7591   -1.8173    2.0327 N   0  3  0  0  0  0  0  0  0  0  0  0
   -2.4088    0.6224    1.6917 C   0  0  0  0  0  0  0  0  0  0  0  0
   -2.8426   -0.8376    1.6196 C   0  0  0  0  0  0  0  0  0  0  0  0
   -1.6995   -1.8869    3.5291 C   0  0  0  0  0  0  0  0  0  0  0  0
   -0.3586   -1.3779    1.5130 C   0  0  0  0  0  3  0  0  0  0  0  0
   -2.1316   -3.1733    1.5122 C   0  0  0  0  0  0  0  0  0  0  0  0
   -0.8550    2.8432    0.5002 C   0  0  0  0  0  0  0  0  0  0  0  0
   -0.6385    3.6611   -0.7812 C   0  0  0  0  0  0  0  0  0  0  0  0
   -1.6025    3.6402    1.5774 C   0  0  0  0  0  0  0  0  0  0  0  0
   -3.0219    1.3090   -1.0358 C   0  0  0  0  0  0  0  0  0  0  0  0
   -2.6893    1.4639   -2.5233 C   0  0  0  0  0  0  0  0  0  0  0  0
   -4.0326    2.3726   -0.5816 C   0  0  0  0  0  0  0  0  0  0  0  0
   -3.3043    1.2566    1.8356 H   0  0  0  0  0  0  0  0  0  0  0  0
   -1.7536    0.8225    2.5629 H   0  0  0  0  0  0  0  0  0  0  0  0
   -3.7111   -1.0398    2.2768 H   0  0  0  0  0  0  0  0  0  0  0  0
   -3.1128   -1.1184    0.5818 H   0  0  0  0  0  0  0  0  0  0  0  0
   -0.8573   -2.5392    3.8219 H   0  0  0  0  0  0  0  0  0  0  0  0
   -1.5392   -0.8744    3.9404 H   0  0  0  0  0  0  0  0  0  0  0  0
   -2.6478   -2.3029    3.9173 H   0  0  0  0  0  0  0  0  0  0  0  0
   -0.0495   -0.6581    2.2912 H   0  0  0  0  0  0  0  0  0  0  0  0
    0.2555   -2.2872    1.6772 H   0  0  0  0  0  0  0  0  0  0  0  0
   -1.4017   -3.9112    1.8900 H   0  0  0  0  0  0  0  0  0  0  0  0
   -3.1432   -3.4300    1.8780 H   0  0  0  0  0  0  0  0  0  0  0  0
   -2.1188   -3.1243    0.4069 H   0  0  0  0  0  0  0  0  0  0  0  0
    0.1396    2.5795    0.9122 H   0  0  0  0  0  0  0  0  0  0  0  0
   -0.2048    3.0511   -1.5985 H   0  0  0  0  0  0  0  0  0  0  0  0
   -1.5901    4.0937   -1.1464 H   0  0  0  0  0  0  0  0  0  0  0  0
    0.0458    4.5079   -0.5687 H   0  0  0  0  0  0  0  0  0  0  0  0
   -1.6460    3.1169    2.5524 H   0  0  0  0  0  0  0  0  0  0  0  0
   -1.0681    4.5975    1.7488 H   0  0  0  0  0  0  0  0  0  0  0  0
   -2.6356    3.8955    1.2751 H   0  0  0  0  0  0  0  0  0  0  0  0
   -3.4799    0.3022   -0.9232 H   0  0  0  0  0  0  0  0  0  0  0  0
   -1.9886    0.6861   -2.8724 H   0  0  0  0  0  0  0  0  0  0  0  0
   -3.6323    1.3728   -3.1003 H   0  0  0  0  0  0  0  0  0  0  0  0
   -2.2513    2.4532   -2.7530 H   0  0  0  0  0  0  0  0  0  0  0  0
   -4.3502    2.2813    0.4758 H   0  0  0  0  0  0  0  0  0  0  0  0
   -3.6517    3.4004   -0.7398 H   0  0  0  0  0  0  0  0  0  0  0  0
   -4.9479    2.2730   -1.1998 H   0  0  0  0  0  0  0  0  0  0  0  0
  1  8  1  0  0  0  0
  1  3  1  0  0  0  0
  2  5  1  0  0  0  0
  3 14  1  0  0  0  0
  3 15  1  0  0  0  0
  4  3  1  0  0  0  0
  4  2  1  0  0  0  0
  4 16  1  0  0  0  0
  5 18  1  0  0  0  0
  5 20  1  0  0  0  0
  5 19  1  0  0  0  0
  6 22  1  0  0  0  0
  6  2  1  0  0  0  0
  6 21  1  0  0  0  0
  7 24  1  0  0  0  0
  7 23  1  0  0  0  0
  7  2  1  0  0  0  0
  8 26  1  0  0  0  0
  8 10  1  0  0  0  0
  9 29  1  0  0  0  0
  9  8  1  0  0  0  0
 10 31  1  0  0  0  0
 10 30  1  0  0  0  0
 11 33  1  0  0  0  0
 11 13  1  0  0  0  0
 11  1  1  0  0  0  0
 12 11  1  0  0  0  0
 13 37  1  0  0  0  0
 17  4  1  0  0  0  0
 25  7  1  0  0  0  0
 27  9  1  0  0  0  0
 28  9  1  0  0  0  0
 32 10  1  0  0  0  0
 34 12  1  0  0  0  0
 35 12  1  0  0  0  0
 36 12  1  0  0  0  0
 38 13  1  0  0  0  0
 39 13  1  0  0  0  0
M  CHG  1   2   1
M  END
