1,14,28
q = -2.0, confidence = 0.888

 39 41  0  0  1  0  0  0  0  0999 V2000
   -3.2221   -0.3098    0.2222 O   0  5  0  0  0  0  0  0  0  0  0  0
   -3.5542    0.9720    0.0835 C   0  0  0  0  0  0  0  0  0  0  0  0
   -4.9287    1.3061    0.0279 C   0  0  0  0  0  0  0  0  0  0  0  0
   -5.6558    0.4831    0.0779 H   0  0  0  0  0  0  0  0  0  0  0  0
   -5.3359    2.6349   -0.1063 C   0  0  0  0  0  0  0  0  0  0  0  0
   -6.4110    2.8651   -0.1645 H   0  0  0  0  0  0  0  0  0  0  0  0
   -4.3902    3.6799   -0.1709 C   0  0  0  0  0  0  0  0  0  0  0  0
   -4.7192    4.7234   -0.2766 H   0  0  0  0  0  0  0  0  0  0  0  0
   -3.0341    3.3710   -0.0937 C   0  0  0  0  0  0  0  0  0  0  0  0
   -2.2785    4.1720   -0.1283 H   0  0  0  0  0  0  0  0  0  0  0  0
   -2.5859    2.0304    0.0278 C   0  0  0  0  0  0  0  0  0  0  0  0
   -1.1695    1.7813    0.1795 C   0  0  0  0  0  3  0  0  0  0  0  0
   -0.5017    2.6590    0.2959 H   0  0  0  0  0  0  0  0  0  0  0  0
   -0.6518    0.5933    0.2150 N   0  0  0  0  0  2  0  0  0  0  0  0
    0.7464    0.3621    0.4415 C   0  0  2  0  0  0  0  0  0  0  0  0
    0.8529   -0.0065    1.4953 H   0  0  0  0  0  0  0  0  0  0  0  0
    1.5613    1.4953    0.2390 O   0  0  0  0  0  0  0  0  0  0  0  0
    2.9186    1.1535    0.5132 C   0  0  1  0  0  0  0  0  0  0  0  0
    3.0229    0.8121    1.5716 H   0  0  0  0  0  0  0  0  0  0  0  0
    3.4354    0.0127   -0.3929 C   0  0  2  0  0  0  0  0  0  0  0  0
    3.3727    0.3518   -1.4581 H   0  0  0  0  0  0  0  0  0  0  0  0
    2.5745   -1.2398   -0.2558 C   0  0  2  0  0  0  0  0  0  0  0  0
    2.6594   -1.6106    0.7986 H   0  0  0  0  0  0  0  0  0  0  0  0
    2.9736   -2.2163   -1.1854 O   0  0  0  0  0  0  0  0  0  0  0  0
    2.2585   -2.8827   -1.1918 H   0  0  0  0  0  0  0  0  0  0  0  0
    1.1291   -0.7958   -0.4958 C   0  0  1  0  0  0  0  0  0  0  0  0
    1.0490   -0.4167   -1.5449 H   0  0  0  0  0  0  0  0  0  0  0  0
    0.2135   -1.8416   -0.2869 O   0  0  0  0  0  1  0  0  0  0  0  0
    4.7866   -0.2432   -0.0472 O   0  0  0  0  0  0  0  0  0  0  0  0
    5.5881    0.9093   -0.2511 C   0  0  2  0  0  0  0  0  0  0  0  0
    5.4910    1.2154   -1.3286 H   0  0  0  0  0  0  0  0  0  0  0  0
    7.0150    0.5710    0.1124 C   0  0  0  0  0  0  0  0  0  0  0  0
    7.6654    1.4515   -0.0445 H   0  0  0  0  0  0  0  0  0  0  0  0
    7.3737   -0.2689   -0.5108 H   0  0  0  0  0  0  0  0  0  0  0  0
    7.0585    0.2749    1.1781 H   0  0  0  0  0  0  0  0  0  0  0  0
    5.1654    1.9952    0.5603 O   0  0  0  0  0  0  0  0  0  0  0  0
    3.8214    2.3683    0.3068 C   0  0  0  0  0  0  0  0  0  0  0  0
    3.6886    2.7449   -0.7382 H   0  0  0  0  0  0  0  0  0  0  0  0
    3.5620    3.1861    1.0077 H   0  0  0  0  0  0  0  0  0  0  0  0
  2  1  1  0  0  0  0
  3  4  1  0  0  0  0
  3  2  1  0  0  0  0
  5  3  2  0  0  0  0
  6  5  1  0  0  0  0
  7  5  1  0  0  0  0
  7  9  2  0  0  0  0
  8  7  1  0  0  0  0
  9 11  1  0  0  0  0
 10  9  1  0  0  0  0
 11  2  2  0  0  0  0
 11 12  1  0  0  0  0
 12 14  1  0  0  0  0
 12 13  1  0  0  0  0
 14 15  1  0  0  0  0
 15 16  1  1  0  0  0
 17 15  1  0  0  0  0
 17 18  1  0  0  0  0
 18 19  1  1  0  0  0
 20 21  1  6  0  0  0
 20 22  1  0  0  0  0
 20 29  1  0  0  0  0
 20 18  1  0  0  0  0
 22 23  1  1  0  0  0
 24 22  1  0  0  0  0
 25 24  1  0  0  0  0
 26 27  1  6  0  0  0
 26 28  1  0  0  0  0
 26 22  1  0  0  0  0
 26 15  1  0  0  0  0
 30 31  1  6  0  0  0
 30 29  1  0  0  0  0
 30 32  1  0  0  0  0
 30 36  1  0  0  0  0
 32 35  1  0  0  0  0
 33 32  1  0  0  0  0
 34 32  1  0  0  0  0
 37 18  1  0  0  0  0
 37 36  1  0  0  0  0
 37 39  1  0  0  0  0
 38 37  1  0  0  0  0
M  CHG  1   1  -1
M  END
