1,4,5
q = -2.0, confidence = 0.78

 30 31  0  0  0  0  0  0  0  0999 V2000
    0.1876    0.8586    0.0021 N   0  0  0  0  0  2  0  0  0  0  0  0
    1.4954    1.2299    0.1000 N   0  0  0  0  0  0  0  0  0  0  0  0
    7.9863    0.7881    0.0686 N   0  0  0  0  0  0  0  0  0  0  0  0
   -1.9785   -0.8300    0.0050 O   0  5  0  0  0  0  0  0  0  0  0  0
    1.8070   -1.0320   -0.2880 O   0  5  0  0  0  0  0  0  0  0  0  0
    8.6647   -0.2245   -0.0975 O   0  0  0  0  0  0  0  0  0  0  0  0
    8.4293    1.9188    0.2669 O   0  0  0  0  0  0  0  0  0  0  0  0
   -4.8892   -1.5731   -0.0298 Br  0  0  0  0  0  0  0  0  0  0  0  0
   -2.1412    1.5873    0.0173 C   0  0  0  0  0  0  0  0  0  0  0  0
   -2.7110    0.2722   -0.0146 C   0  0  0  0  0  0  0  0  0  0  0  0
   -4.1284    0.1591   -0.0207 C   0  0  0  0  0  0  0  0  0  0  0  0
   -4.9540    1.2874   -0.0116 C   0  0  0  0  0  0  0  0  0  0  0  0
   -6.0460    1.1726   -0.0210 H   0  0  0  0  0  0  0  0  0  0  0  0
   -4.3751    2.5723    0.0124 C   0  0  0  0  0  0  0  0  0  0  0  0
   -2.9894    2.7244    0.0335 C   0  0  0  0  0  0  0  0  0  0  0  0
   -2.5484    3.7309    0.0586 H   0  0  0  0  0  0  0  0  0  0  0  0
   -0.7156    1.8071    0.0729 C   0  0  0  0  0  3  0  0  0  0  0  0
   -0.3477    2.8457    0.1767 H   0  0  0  0  0  0  0  0  0  0  0  0
    2.2784    0.1808   -0.0829 C   0  0  0  0  0  0  0  0  0  0  0  0
    3.7446    0.3457   -0.0457 C   0  0  0  0  0  0  0  0  0  0  0  0
    4.5769   -0.7802   -0.2323 C   0  0  0  0  0  0  0  0  0  0  0  0
    4.1133   -1.7614   -0.4046 H   0  0  0  0  0  0  0  0  0  0  0  0
    5.9673   -0.6392   -0.1965 C   0  0  0  0  0  0  0  0  0  0  0  0
    6.6468   -1.4900   -0.3373 H   0  0  0  0  0  0  0  0  0  0  0  0
    6.5084    0.6334    0.0274 C   0  0  0  0  0  0  0  0  0  0  0  0
    5.7043    1.7676    0.2140 C   0  0  0  0  0  0  0  0  0  0  0  0
    6.1866    2.7392    0.3833 H   0  0  0  0  0  0  0  0  0  0  0  0
    4.3168    1.6197    0.1758 C   0  0  0  0  0  0  0  0  0  0  0  0
    3.6504    2.4820    0.3148 H   0  0  0  0  0  0  0  0  0  0  0  0
   -5.4086    3.9739    0.0211 Cl  0  0  0  0  0  0  0  0  0  0  0  0
  1 17  1  0  0  0  0
  1  2  1  0  0  0  0
  3  7  2  0  0  0  0
  5 19  1  0  0  0  0
  6  3  2  0  0  0  0
  8 11  1  0  0  0  0
  9 15  1  0  0  0  0
  9 17  1  0  0  0  0
 10  4  1  0  0  0  0
 10  9  2  0  0  0  0
 11 10  1  0  0  0  0
 11 12  2  0  0  0  0
 12 14  1  0  0  0  0
 13 12  1  0  0  0  0
 14 30  1  0  0  0  0
 14 15  2  0  0  0  0
 15 16  1  0  0  0  0
 17 18  1  0  0  0  0
 19 20  1  0  0  0  0
 19  2  2  0  0  0  0
 20 28  1  0  0  0  0
 21 23  1  0  0  0  0
 21 20  2  0  0  0  0
 22 21  1  0  0  0  0
 23 25  2  0  0  0  0
 24 23  1  0  0  0  0
 25  3  1  0  0  0  0
 25 26  1  0  0  0  0
 26 27  1  0  0  0  0
 28 26  2  0  0  0  0
 28 29  1  0  0  0  0
M  CHG  2   4  -1   5  -1
M  END
