3,4,7
q = -2.0, confidence = 0.956

 21 21  0  0  0  0  0  0  0  0999 V2000
   -6.8516   -1.1449    0.1526 Br  0  0  0  0  0  0  0  0  0  0  0  0
    0.6844    3.3476   -1.0372 S   0  0  0  0  0  0  0  0  0  0  0  0
   -0.7930   -1.1396    0.5574 O   0  5  0  0  0  0  0  0  0  0  0  0
    1.7646    2.2984   -0.7342 O   0  0  0  0  0  1  0  0  0  0  0  0
   -0.0690    3.7228    0.2242 O   0  0  0  0  0  1  0  0  0  0  0  0
    1.1346    4.4659   -1.8864 O   0  0  0  0  0  1  0  0  0  0  0  0
   -0.9226    1.1974   -1.3406 N   0  0  0  0  0  2  0  0  0  0  0  0
   -2.0753   -1.0850    0.4158 C   0  0  0  0  0  0  0  0  0  0  0  0
   -2.8823   -2.0627    1.0975 C   0  0  0  0  0  0  0  0  0  0  0  0
   -2.3395   -2.8071    1.6988 H   0  0  0  0  0  0  0  0  0  0  0  0
   -4.2664   -2.0868    1.0201 C   0  0  0  0  0  0  0  0  0  0  0  0
   -4.8423   -2.8542    1.5585 H   0  0  0  0  0  0  0  0  0  0  0  0
   -4.9460   -1.1130    0.2477 C   0  0  0  0  0  0  0  0  0  0  0  0
   -4.2242   -0.1443   -0.4322 C   0  0  0  0  0  0  0  0  0  0  0  0
   -4.7541    0.6119   -1.0319 H   0  0  0  0  0  0  0  0  0  0  0  0
   -2.7983   -0.1001   -0.3829 C   0  0  0  0  0  0  0  0  0  0  0  0
   -2.1935    0.9624   -1.1468 C   0  0  0  0  0  3  0  0  0  0  0  0
   -2.9229    1.6547   -1.6290 H   0  0  0  0  0  0  0  0  0  0  0  0
   -0.5304    2.3786   -2.0534 C   0  0  0  0  0  0  0  0  0  0  0  0
   -1.3668    3.0715   -2.2951 H   0  0  0  0  0  0  0  0  0  0  0  0
    0.0399    2.1386   -2.9754 H   0  0  0  0  0  0  0  0  0  0  0  0
  1 13  1  0  0  0  0
  2  4  1  0  0  0  0
  2  5  1  0  0  0  0
  6  2  1  0  0  0  0
  7 17  1  0  0  0  0
  8  3  1  0  0  0  0
  8  9  1  0  0  0  0
  9 10  1  0  0  0  0
 11  9  2  0  0  0  0
 11 12  1  0  0  0  0
 13 11  1  0  0  0  0
 14 16  1  0  0  0  0
 14 13  2  0  0  0  0
 15 14  1  0  0  0  0
 16  8  2  0  0  0  0
 17 16  1  0  0  0  0
 18 17  1  0  0  0  0
 19  7  1  0  0  0  0
 19  2  1  0  0  0  0
 20 19  1  0  0  0  0
 21 19  1  0  0  0  0
M  CHG  1   3  -1
M  END
