1,2,7
q = -2.0, confidence = 0.884

 34 35  0  0  1  0  0  0  0  0999 V2000
    1.9754   -0.9915   -0.1816 O   0  5  0  0  0  0  0  0  0  0  0  0
   -1.7949   -0.5270    0.0681 O   0  5  0  0  0  0  0  0  0  0  0  0
    6.8175    0.4139   -0.0017 N   0  0  0  0  0  0  0  0  0  0  0  0
    3.9956    0.2906   -0.0792 C   0  0  0  0  0  0  0  0  0  0  0  0
   -1.7968    1.8232   -0.2622 C   0  0  0  0  0  0  0  0  0  0  0  0
   -2.4078    2.7240   -0.3876 H   0  0  0  0  0  0  0  0  0  0  0  0
    0.4681    0.9987   -0.1736 N   0  0  0  0  0  2  0  0  0  0  0  0
   -2.4520    0.6070   -0.1138 C   0  0  0  0  0  0  0  0  0  0  0  0
    1.7949    1.3061   -0.0817 N   0  0  0  0  0  0  0  0  0  0  0  0
    2.5240    0.2141   -0.1178 C   0  0  0  0  0  0  0  0  0  0  0  0
   -0.3833    2.0249   -0.2261 C   0  0  1  0  0  3  0  0  0  0  0  0
   -6.1851    1.4016   -0.0914 C   0  0  0  0  0  0  0  0  0  0  0  0
   -6.8479    2.2798   -0.0786 H   0  0  0  0  0  0  0  0  0  0  0  0
    0.1602    3.4267   -0.2491 C   0  0  0  0  0  0  0  0  0  0  0  0
    0.7594    3.6188    0.6636 H   0  0  0  0  0  0  0  0  0  0  0  0
   -0.6516    4.1720   -0.3233 H   0  0  0  0  0  0  0  0  0  0  0  0
    0.8623    3.5506   -1.0975 H   0  0  0  0  0  0  0  0  0  0  0  0
   -3.9267    0.4674   -0.1076 C   0  0  0  0  0  0  0  0  0  0  0  0
    6.0654    1.5282    0.0465 C   0  0  0  0  0  0  0  0  0  0  0  0
    6.6133    2.4851    0.1177 H   0  0  0  0  0  0  0  0  0  0  0  0
    4.7740   -0.8825   -0.1300 C   0  0  0  0  0  0  0  0  0  0  0  0
    4.2842   -1.8639   -0.2009 H   0  0  0  0  0  0  0  0  0  0  0  0
   -4.7981    1.5824   -0.0944 C   0  0  0  0  0  0  0  0  0  0  0  0
   -4.3934    2.6041   -0.0740 H   0  0  0  0  0  0  0  0  0  0  0  0
    6.1710   -0.7598   -0.0891 C   0  0  0  0  0  0  0  0  0  0  0  0
    6.8028   -1.6654   -0.1291 H   0  0  0  0  0  0  0  0  0  0  0  0
   -4.4887   -0.8313   -0.1110 C   0  0  0  0  0  0  0  0  0  0  0  0
   -3.8131   -1.6977   -0.1235 H   0  0  0  0  0  0  0  0  0  0  0  0
   -6.7314    0.1064   -0.1000 C   0  0  0  0  0  0  0  0  0  0  0  0
   -7.8231   -0.0319   -0.0986 H   0  0  0  0  0  0  0  0  0  0  0  0
   -5.8774   -1.0078   -0.1092 C   0  0  0  0  0  0  0  0  0  0  0  0
   -6.2970   -2.0250   -0.1181 H   0  0  0  0  0  0  0  0  0  0  0  0
    4.6655    1.5286    0.0105 C   0  0  0  0  0  0  0  0  0  0  0  0
    4.0872    2.4622    0.0511 H   0  0  0  0  0  0  0  0  0  0  0  0
  1 10  1  0  0  0  0
  3 19  1  0  0  0  0
  4 33  1  0  0  0  0
  5  8  2  0  0  0  0
  6  5  1  0  0  0  0
  7  9  1  0  0  0  0
  8 18  1  0  0  0  0
  8  2  1  0  0  0  0
 10  9  2  0  0  0  0
 10  4  1  0  0  0  0
 11  5  1  6  0  0  0
 11  7  1  0  0  0  0
 12 13  1  0  0  0  0
 14 11  1  0  0  0  0
 14 15  1  0  0  0  0
 16 14  1  0  0  0  0
 17 14  1  0  0  0  0
 18 23  2  0  0  0  0
 19 20  1  0  0  0  0
 21 25  1  0  0  0  0
 21  4  2  0  0  0  0
 22 21  1  0  0  0  0
 23 12  1  0  0  0  0
 23 24  1  0  0  0  0
 25  3  2  0  0  0  0
 26 25  1  0  0  0  0
 27 31  2  0  0  0  0
 27 18  1  0  0  0  0
 28 27  1  0  0  0  0
 29 30  1  0  0  0  0
 29 12  2  0  0  0  0
 31 29  1  0  0  0  0
 32 31  1  0  0  0  0
 33 19  2  0  0  0  0
 33 34  1  0  0  0  0
M  CHG  2   1  -1   2  -1
M  END
