1,5,17
q = -2.0, confidence = 0.89

 38 38  0  0  1  0  0  0  0  0999 V2000
   -0.2423    0.0297    0.0848 N   0  0  0  0  0  0  0  0  0  0  0  0
   -0.1180   -0.9606    1.1689 C   0  0  0  0  0  0  0  0  0  0  0  0
   -1.1058   -1.3613    1.4858 H   0  0  0  0  0  0  0  0  0  0  0  0
    0.3090   -0.4353    2.0466 H   0  0  0  0  0  0  0  0  0  0  0  0
    1.8621   -1.5511   -0.0526 O   0  0  0  0  0  1  0  0  0  0  0  0
   -1.2365   -0.2960   -1.0070 C   0  0  1  0  0  0  0  0  0  0  0  0
   -1.0449    0.4991   -1.7544 H   0  0  0  0  0  0  0  0  0  0  0  0
    0.8602   -2.0908    0.7720 C   0  0  1  0  0  0  0  0  0  0  0  0
    0.3129   -2.8776    0.2041 H   0  0  0  0  0  0  0  0  0  0  0  0
    0.8162    1.9481    1.2492 C   0  0  1  0  0  0  0  0  0  0  0  0
    0.8701    1.5681    2.3010 H   0  0  0  0  0  0  0  0  0  0  0  0
   -0.9733   -1.6255   -1.7132 C   0  0  0  0  0  0  0  0  0  0  0  0
   -1.6121   -1.6706   -2.6165 H   0  0  0  0  0  0  0  0  0  0  0  0
   -1.2264   -2.5053   -1.0917 H   0  0  0  0  0  0  0  0  0  0  0  0
    0.0830   -1.6974   -2.0269 H   0  0  0  0  0  0  0  0  0  0  0  0
   -2.6811   -0.1581   -0.5332 C   0  0  0  0  0  0  0  0  0  0  0  0
    1.9367    1.4604    0.5545 O   0  0  0  0  0  1  0  0  0  0  0  0
   -3.3865    1.0380   -0.7807 C   0  0  0  0  0  0  0  0  0  0  0  0
   -2.8917    1.8439   -1.3457 H   0  0  0  0  0  0  0  0  0  0  0  0
    1.4834   -2.7445    2.0044 C   0  0  0  0  0  0  0  0  0  0  0  0
    2.1746   -3.5538    1.6999 H   0  0  0  0  0  0  0  0  0  0  0  0
    0.7035   -3.1805    2.6624 H   0  0  0  0  0  0  0  0  0  0  0  0
    2.0598   -1.9944    2.5840 H   0  0  0  0  0  0  0  0  0  0  0  0
   -4.6663   -1.0161    0.6189 C   0  0  0  0  0  0  0  0  0  0  0  0
   -5.1673   -1.8340    1.1591 H   0  0  0  0  0  0  0  0  0  0  0  0
    0.8216    3.4742    1.2963 C   0  0  0  0  0  0  0  0  0  0  0  0
    1.7387    3.8367    1.7990 H   0  0  0  0  0  0  0  0  0  0  0  0
   -0.0582    3.8602    1.8507 H   0  0  0  0  0  0  0  0  0  0  0  0
    0.8052    3.8865    0.2671 H   0  0  0  0  0  0  0  0  0  0  0  0
   -3.3505   -1.1883    0.1622 C   0  0  0  0  0  0  0  0  0  0  0  0
   -2.8494   -2.1525    0.3344 H   0  0  0  0  0  0  0  0  0  0  0  0
   -5.3468    0.1871    0.3770 C   0  0  0  0  0  0  0  0  0  0  0  0
   -6.3805    0.3201    0.7306 H   0  0  0  0  0  0  0  0  0  0  0  0
   -0.4514    1.4077    0.5736 C   0  0  0  0  0  0  0  0  0  0  0  0
   -1.3339    1.4885    1.2483 H   0  0  0  0  0  0  0  0  0  0  0  0
   -0.6573    2.0317   -0.3193 H   0  0  0  0  0  0  0  0  0  0  0  0
   -4.7040    1.2131   -0.3326 C   0  0  0  0  0  0  0  0  0  0  0  0
   -5.2334    2.1546   -0.5443 H   0  0  0  0  0  0  0  0  0  0  0  0
  1 34  1  0  0  0  0
  1  2  1  0  0  0  0
  2  3  1  0  0  0  0
  2  4  1  0  0  0  0
  5  8  1  0  0  0  0
  6  7  1  6  0  0  0
  6 16  1  0  0  0  0
  6  1  1  0  0  0  0
  8  9  1  6  0  0  0
  8  2  1  0  0  0  0
  8 20  1  0  0  0  0
 10 26  1  0  0  0  0
 10 11  1  1  0  0  0
 12 14  1  0  0  0  0
 12  6  1  0  0  0  0
 13 12  1  0  0  0  0
 15 12  1  0  0  0  0
 16 30  1  0  0  0  0
 17 10  1  0  0  0  0
 18 16  2  0  0  0  0
 18 37  1  0  0  0  0
 19 18  1  0  0  0  0
 20 23  1  0  0  0  0
 20 22  1  0  0  0  0
 21 20  1  0  0  0  0
 24 25  1  0  0  0  0
 26 27  1  0  0  0  0
 26 28  1  0  0  0  0
 29 26  1  0  0  0  0
 30 31  1  0  0  0  0
 30 24  2  0  0  0  0
 32 24  1  0  0  0  0
 32 33  1  0  0  0  0
 34 35  1  0  0  0  0
 34 10  1  0  0  0  0
 36 34  1  0  0  0  0
 37 32  2  0  0  0  0
 38 37  1  0  0  0  0
M  END
