2,4,5
q = -2.0, confidence = 0.962

 35 36  0  0  0  0  0  0  0  0999 V2000
    3.9464    0.9609   -0.0629 Cl  0  0  0  0  0  0  0  0  0  0  0  0
   -0.2467   -1.9560    0.0506 N   0  0  0  0  0  2  0  0  0  0  0  0
    1.0276   -2.4031    0.2278 N   0  0  0  0  0  0  0  0  0  0  0  0
   -2.1561   -0.1223   -0.0949 O   0  5  0  0  0  0  0  0  0  0  0  0
    1.4515   -0.3628   -0.7207 O   0  5  0  0  0  0  0  0  0  0  0  0
   -4.7138    0.5494   -0.0709 O   0  0  0  0  0  0  0  0  0  0  0  0
   -2.6219   -2.4226    0.3818 C   0  0  0  0  0  0  0  0  0  0  0  0
   -3.0324   -1.0801    0.1315 C   0  0  0  0  0  0  0  0  0  0  0  0
   -4.4262   -0.7531    0.1711 C   0  0  0  0  0  0  0  0  0  0  0  0
   -5.3636   -1.7598    0.4452 C   0  0  0  0  0  0  0  0  0  0  0  0
   -6.4350   -1.5198    0.4691 H   0  0  0  0  0  0  0  0  0  0  0  0
   -4.9469   -3.0881    0.6938 C   0  0  0  0  0  0  0  0  0  0  0  0
   -5.7029   -3.8575    0.9072 H   0  0  0  0  0  0  0  0  0  0  0  0
   -3.5975   -3.4175    0.6715 C   0  0  0  0  0  0  0  0  0  0  0  0
   -3.2644   -4.4474    0.8689 H   0  0  0  0  0  0  0  0  0  0  0  0
   -1.2247   -2.7554    0.4132 C   0  0  0  0  0  3  0  0  0  0  0  0
   -0.9248   -3.7526    0.7842 H   0  0  0  0  0  0  0  0  0  0  0  0
    1.8729   -1.4833   -0.2076 C   0  0  0  0  0  0  0  0  0  0  0  0
    3.3274   -1.7536   -0.1191 C   0  0  0  0  0  0  0  0  0  0  0  0
    4.3238   -0.7454   -0.0798 C   0  0  0  0  0  0  0  0  0  0  0  0
    5.6858   -1.0875   -0.0066 C   0  0  0  0  0  0  0  0  0  0  0  0
    6.4305   -0.2800    0.0254 H   0  0  0  0  0  0  0  0  0  0  0  0
    6.0764   -2.4311    0.0330 C   0  0  0  0  0  0  0  0  0  0  0  0
    7.1463   -2.6831    0.0850 H   0  0  0  0  0  0  0  0  0  0  0  0
    5.1040   -3.4448    0.0129 C   0  0  0  0  0  0  0  0  0  0  0  0
    5.4016   -4.5030    0.0497 H   0  0  0  0  0  0  0  0  0  0  0  0
    3.7520   -3.1024   -0.0585 C   0  0  0  0  0  0  0  0  0  0  0  0
    2.9688   -3.8733   -0.0729 H   0  0  0  0  0  0  0  0  0  0  0  0
   -6.0769    0.9593   -0.0604 C   0  0  0  0  0  0  0  0  0  0  0  0
   -6.5322    0.7399    0.9344 H   0  0  0  0  0  0  0  0  0  0  0  0
   -6.6531    0.3806   -0.8206 H   0  0  0  0  0  0  0  0  0  0  0  0
   -6.1185    2.4451   -0.3624 C   0  0  0  0  0  0  0  0  0  0  0  0
   -5.5507    3.0143    0.3997 H   0  0  0  0  0  0  0  0  0  0  0  0
   -7.1653    2.8073   -0.3653 H   0  0  0  0  0  0  0  0  0  0  0  0
   -5.6704    2.6542   -1.3536 H   0  0  0  0  0  0  0  0  0  0  0  0
  2  3  1  0  0  0  0
  2 16  1  0  0  0  0
  4  8  1  0  0  0  0
  5 18  1  0  0  0  0
  6 29  1  0  0  0  0
  6  9  1  0  0  0  0
  7 16  1  0  0  0  0
  7 14  1  0  0  0  0
  8  9  1  0  0  0  0
  8  7  2  0  0  0  0
  9 10  2  0  0  0  0
 10 11  1  0  0  0  0
 10 12  1  0  0  0  0
 12 13  1  0  0  0  0
 14 12  2  0  0  0  0
 14 15  1  0  0  0  0
 16 17  1  0  0  0  0
 18 19  1  0  0  0  0
 18  3  2  0  0  0  0
 19 20  2  0  0  0  0
 19 27  1  0  0  0  0
 20  1  1  0  0  0  0
 20 21  1  0  0  0  0
 21 22  1  0  0  0  0
 21 23  2  0  0  0  0
 23 24  1  0  0  0  0
 25 23  1  0  0  0  0
 25 26  1  0  0  0  0
 27 25  2  0  0  0  0
 28 27  1  0  0  0  0
 29 30  1  0  0  0  0
 31 29  1  0  0  0  0
 32 29  1  0  0  0  0
 32 33  1  0  0  0  0
 34 32  1  0  0  0  0
 35 32  1  0  0  0  0
M  CHG  2   4  -1   5  -1
M  END
