1,2,6
q = -2.0, confidence = 0.782

 25 25  0  0  0  0  0  0  0  0999 V2000
    1.7458    1.5127    0.3848 O   0  5  0  0  0  0  0  0  0  0  0  0
    0.5308   -1.9598    0.8323 O   0  5  0  0  0  0  0  0  0  0  0  0
    1.5248    3.2421   -1.0457 O   0  0  0  0  0  0  0  0  0  0  0  0
   -0.0504   -3.6012   -0.6140 O   0  0  0  0  0  0  0  0  0  0  0  0
   -1.0428    2.1662    0.6478 O   0  0  0  0  0  0  0  0  0  0  0  0
   -0.1000   -0.0228   -0.8056 N   0  0  0  0  0  0  0  0  0  0  0  0
    1.2570    2.1068   -0.6962 C   0  0  0  0  0  0  0  0  0  0  0  0
    0.3750    1.1855   -1.5660 C   0  0  0  0  0  0  0  0  0  0  0  0
    0.2130   -2.4376   -0.3614 C   0  0  0  0  0  0  0  0  0  0  0  0
    0.2518   -1.3317   -1.4418 C   0  0  0  0  0  0  0  0  0  0  0  0
   -1.4901    0.0549   -0.3627 C   0  0  0  0  0  0  0  0  0  0  0  0
   -1.9465    1.2002    0.3463 C   0  0  0  0  0  0  0  0  0  0  0  0
   -3.2945    1.2960    0.7305 C   0  0  0  0  0  0  0  0  0  0  0  0
   -4.1990    0.2650    0.4467 C   0  0  0  0  0  0  0  0  0  0  0  0
   -3.7512   -0.8783   -0.2260 C   0  0  0  0  0  0  0  0  0  0  0  0
   -2.4110   -0.9764   -0.6279 C   0  0  0  0  0  0  0  0  0  0  0  0
    0.9997    0.8289   -2.4079 H   0  0  0  0  0  0  0  0  0  0  0  0
   -0.4799    1.7472   -1.9861 H   0  0  0  0  0  0  0  0  0  0  0  0
   -0.3941   -1.5639   -2.3132 H   0  0  0  0  0  0  0  0  0  0  0  0
    1.3072   -1.2372   -1.7728 H   0  0  0  0  0  0  0  0  0  0  0  0
   -3.6239    2.1965    1.2744 H   0  0  0  0  0  0  0  0  0  0  0  0
   -5.2491    0.3578    0.7602 H   0  0  0  0  0  0  0  0  0  0  0  0
   -4.4408   -1.7052   -0.4471 H   0  0  0  0  0  0  0  0  0  0  0  0
   -2.0866   -1.8895   -1.1410 H   0  0  0  0  0  0  0  0  0  0  0  0
   -1.4950    2.9267    1.0580 H   0  0  0  0  0  0  0  0  0  0  0  0
  3  7  2  0  0  0  0
  4  9  2  0  0  0  0
  5 25  1  0  0  0  0
  6 11  1  0  0  0  0
  7  1  1  0  0  0  0
  8  6  1  0  0  0  0
  8  7  1  0  0  0  0
  9  2  1  0  0  0  0
 10  6  1  0  0  0  0
 10  9  1  0  0  0  0
 11 12  1  0  0  0  0
 12  5  1  0  0  0  0
 12 13  2  0  0  0  0
 13 21  1  0  0  0  0
 14 13  1  0  0  0  0
 14 22  1  0  0  0  0
 15 14  2  0  0  0  0
 16 11  2  0  0  0  0
 16 15  1  0  0  0  0
 17  8  1  0  0  0  0
 18  8  1  0  0  0  0
 19 10  1  0  0  0  0
 20 10  1  0  0  0  0
 23 15  1  0  0  0  0
 24 16  1  0  0  0  0
M  CHG  2   1  -1   2  -1
M  END
