1,2,8
q = -1.0, confidence = 0.032

 21 21  0  0  1  0  0  0  0  0999 V2000
   -2.8476   -0.1696   -0.1323 O   0  0  0  0  0  1  0  0  0  0  0  0
    0.8670   -1.2291   -0.3498 O   0  5  0  0  0  0  0  0  0  0  0  0
   -4.0578    1.7682   -0.1149 N   0  0  0  0  0  0  0  0  0  0  0  0
   -4.9080    1.2113   -0.0328 H   0  0  0  0  0  0  0  0  0  0  0  0
   -4.1108    2.7625    0.0978 H   0  0  0  0  0  0  0  0  0  0  0  0
   -1.7121    1.7872   -0.0788 N   0  0  0  0  0  0  0  0  0  0  0  0
   -1.6543    2.8112   -0.1134 H   0  0  0  0  0  0  0  0  0  0  0  0
   -0.5789    1.0247   -0.0752 N   0  0  0  0  0  2  0  0  0  0  0  0
   -2.8868    1.0791   -0.0988 C   0  0  2  0  0  3  0  0  0  0  0  0
    0.5817    1.6273   -0.0068 C   0  0  0  0  0  3  0  0  0  0  0  0
    0.6052    2.7371    0.0580 H   0  0  0  0  0  0  0  0  0  0  0  0
    1.8425    0.9515   -0.0092 C   0  0  0  0  0  0  0  0  0  0  0  0
    3.0364    1.7138    0.1278 C   0  0  0  0  0  0  0  0  0  0  0  0
    2.9528    2.8063    0.2501 H   0  0  0  0  0  0  0  0  0  0  0  0
    4.2847    1.1047    0.1148 C   0  0  0  0  0  0  0  0  0  0  0  0
    5.1997    1.7033    0.2283 H   0  0  0  0  0  0  0  0  0  0  0  0
    4.3625   -0.3008   -0.0478 C   0  0  0  0  0  0  0  0  0  0  0  0
    5.3484   -0.7915   -0.0588 H   0  0  0  0  0  0  0  0  0  0  0  0
    3.2160   -1.0748   -0.1947 C   0  0  0  0  0  0  0  0  0  0  0  0
    3.2659   -2.1651   -0.3253 H   0  0  0  0  0  0  0  0  0  0  0  0
    1.9186   -0.4818   -0.1786 C   0  0  0  0  0  0  0  0  0  0  0  0
  2 21  1  0  0  0  0
  3  9  1  0  0  0  0
  3  4  1  0  0  0  0
  3  5  1  0  0  0  0
  6  8  1  0  0  0  0
  7  6  1  0  0  0  0
  8 10  1  0  0  0  0
  9  1  1  6  0  0  0
  9  6  1  0  0  0  0
 10 11  1  0  0  0  0
 12 10  1  0  0  0  0
 12 13  1  0  0  0  0
 13 14  1  0  0  0  0
 15 13  2  0  0  0  0
 15 16  1  0  0  0  0
 17 15  1  0  0  0  0
 18 17  1  0  0  0  0
 19 21  1  0  0  0  0
 19 17  2  0  0  0  0
 20 19  1  0  0  0  0
 21 12  2  0  0  0  0
M  CHG  1   2  -1
M  END
