2,3,5
q = -2.0, confidence = 0.954

 34 35  0  0  0  0  0  0  0  0999 V2000
    6.3687   -1.6268    0.0211 Br  0  0  0  0  0  0  0  0  0  0  0  0
    1.2265    1.5602    0.0165 O   0  5  0  0  0  0  0  0  0  0  0  0
   -2.2760    0.4852   -0.0204 O   0  5  0  0  0  0  0  0  0  0  0  0
   -1.2813   -1.5869   -0.0094 N   0  0  0  0  0  0  0  0  0  0  0  0
   -0.1533   -0.8064   -0.0060 N   0  0  0  0  0  2  0  0  0  0  0  0
   -7.6736   -3.2213   -0.0548 C   0  0  0  0  0  0  0  0  0  0  0  0
   -8.4699   -2.4599   -0.1636 H   0  0  0  0  0  0  0  0  0  0  0  0
   -7.8659   -3.7826    0.8837 H   0  0  0  0  0  0  0  0  0  0  0  0
   -7.7813   -3.9479   -0.8873 H   0  0  0  0  0  0  0  0  0  0  0  0
   -6.3016   -2.5974   -0.0473 C   0  0  0  0  0  0  0  0  0  0  0  0
   -6.1260   -1.2034   -0.1544 C   0  0  0  0  0  0  0  0  0  0  0  0
   -7.0120   -0.5556   -0.2499 H   0  0  0  0  0  0  0  0  0  0  0  0
   -4.8486   -0.6295   -0.1449 C   0  0  0  0  0  0  0  0  0  0  0  0
   -4.7187    0.4581   -0.2376 H   0  0  0  0  0  0  0  0  0  0  0  0
   -3.7018   -1.4405   -0.0270 C   0  0  0  0  0  0  0  0  0  0  0  0
   -3.8672   -2.8400    0.0774 C   0  0  0  0  0  0  0  0  0  0  0  0
   -2.9724   -3.4716    0.1684 H   0  0  0  0  0  0  0  0  0  0  0  0
   -5.1455   -3.4023    0.0681 C   0  0  0  0  0  0  0  0  0  0  0  0
   -5.2565   -4.4953    0.1526 H   0  0  0  0  0  0  0  0  0  0  0  0
   -2.3591   -0.8255   -0.0175 C   0  0  0  0  0  0  0  0  0  0  0  0
    1.0376   -1.4074   -0.0168 C   0  0  0  0  0  0  0  0  0  0  0  0
    1.0953   -2.9121   -0.0420 C   0  0  0  0  0  0  0  0  0  0  0  0
    1.6141   -3.2984    0.8590 H   0  0  0  0  0  0  0  0  0  0  0  0
    1.6625   -3.2663   -0.9263 H   0  0  0  0  0  0  0  0  0  0  0  0
    0.0730   -3.3210   -0.0751 H   0  0  0  0  0  0  0  0  0  0  0  0
    2.2704   -0.6440    0.0012 C   0  0  0  0  0  0  0  0  0  0  0  0
    2.2936    0.7975    0.0188 C   0  0  0  0  0  0  0  0  0  0  0  0
    3.5579    1.4578    0.0393 C   0  0  0  0  0  0  0  0  0  0  0  0
    3.5475    2.5573    0.0598 H   0  0  0  0  0  0  0  0  0  0  0  0
    4.7576    0.7582    0.0396 C   0  0  0  0  0  0  0  0  0  0  0  0
    5.7185    1.2918    0.0560 H   0  0  0  0  0  0  0  0  0  0  0  0
    4.7276   -0.6537    0.0203 C   0  0  0  0  0  0  0  0  0  0  0  0
    3.5175   -1.3361    0.0023 C   0  0  0  0  0  3  0  0  0  0  0  0
    3.5316   -2.4325   -0.0107 H   0  0  0  0  0  0  0  0  0  0  0  0
  2 27  1  0  0  0  0
  3 20  1  0  0  0  0
  4  5  1  0  0  0  0
  6 10  1  0  0  0  0
  6  8  1  0  0  0  0
  7  6  1  0  0  0  0
  9  6  1  0  0  0  0
 10 18  1  0  0  0  0
 11 13  1  0  0  0  0
 11 10  2  0  0  0  0
 12 11  1  0  0  0  0
 13 15  2  0  0  0  0
 14 13  1  0  0  0  0
 15 20  1  0  0  0  0
 15 16  1  0  0  0  0
 16 17  1  0  0  0  0
 18 16  2  0  0  0  0
 18 19  1  0  0  0  0
 20  4  2  0  0  0  0
 21  5  1  0  0  0  0
 21 26  2  0  0  0  0
 22 21  1  0  0  0  0
 22 23  1  0  0  0  0
 24 22  1  0  0  0  0
 25 22  1  0  0  0  0
 26 33  1  0  0  0  0
 26 27  1  0  0  0  0
 27 28  2  0  0  0  0
 28 30  1  0  0  0  0
 28 29  1  0  0  0  0
 30 31  1  0  0  0  0
 32  1  1  0  0  0  0
 32 30  2  0  0  0  0
 33 32  1  0  0  0  0
 34 33  1  0  0  0  0
M  CHG  2   2  -1   3  -1
M  END
