1,2,3
q = -1.0

 32 33  0  0  1  0  0  0  0  0999 V2000
   -1.5580   -0.9364   -1.0551 O   0  5  0  0  0  0  0  0  0  0  0  0
    1.1366    1.1159    0.7500 O   0  0  0  0  0  1  0  0  0  0  0  0
   -0.3203    1.4243   -1.3395 N   0  0  0  0  0  2  0  0  0  0  0  0
    0.6980    2.3168   -1.0931 N   0  0  0  0  0  0  0  0  0  0  0  0
    0.7417    3.1908   -1.6224 H   0  0  0  0  0  0  0  0  0  0  0  0
   -2.3679   -0.5031   -2.0044 C   0  0  0  0  0  0  0  0  0  0  0  0
   -3.4259   -1.3695   -2.3907 C   0  0  0  0  0  0  0  0  0  0  0  0
   -3.4933   -2.3290   -1.8575 H   0  0  0  0  0  0  0  0  0  0  0  0
   -4.3489   -1.0087   -3.3688 C   0  0  0  0  0  0  0  0  0  0  0  0
   -5.1754   -1.6892   -3.6245 H   0  0  0  0  0  0  0  0  0  0  0  0
   -4.2203    0.2365   -4.0211 C   0  0  0  0  0  0  0  0  0  0  0  0
   -4.9485    0.5425   -4.7869 H   0  0  0  0  0  0  0  0  0  0  0  0
   -3.1666    1.0851   -3.6910 C   0  0  0  0  0  0  0  0  0  0  0  0
   -3.0972    2.0540   -4.2059 H   0  0  0  0  0  0  0  0  0  0  0  0
   -2.2027    0.7610   -2.6905 C   0  0  0  0  0  0  0  0  0  0  0  0
   -1.0844    1.6395   -2.4235 C   0  0  2  0  0  3  0  0  0  0  0  0
   -0.7263    2.7717   -3.3523 C   0  0  0  0  0  0  0  0  0  0  0  0
   -0.9452    3.7750   -2.9173 H   0  0  0  0  0  0  0  0  0  0  0  0
   -1.2774    2.7072   -4.3050 H   0  0  0  0  0  0  0  0  0  0  0  0
    0.3551    2.7484   -3.6142 H   0  0  0  0  0  0  0  0  0  0  0  0
    1.4152    2.1314    0.0493 C   0  0  1  0  0  3  0  0  0  0  0  0
    2.4608    3.0949    0.4216 C   0  0  0  0  0  0  0  0  0  0  0  0
    2.9655    4.0695   -0.4732 C   0  0  0  0  0  0  0  0  0  0  0  0
    2.6158    4.1095   -1.5169 H   0  0  0  0  0  0  0  0  0  0  0  0
    3.9509    4.9710   -0.0541 C   0  0  0  0  0  0  0  0  0  0  0  0
    4.3384    5.7210   -0.7601 H   0  0  0  0  0  0  0  0  0  0  0  0
    4.4544    4.9105    1.2564 C   0  0  0  0  0  0  0  0  0  0  0  0
    5.2297    5.6200    1.5822 H   0  0  0  0  0  0  0  0  0  0  0  0
    3.9693    3.9346    2.1457 C   0  0  0  0  0  0  0  0  0  0  0  0
    4.3641    3.8805    3.1715 H   0  0  0  0  0  0  0  0  0  0  0  0
    2.9840    3.0323    1.7346 C   0  0  0  0  0  0  0  0  0  0  0  0
    2.5891    2.2638    2.4145 H   0  0  0  0  0  0  0  0  0  0  0  0
  3  4  1  0  0  0  0
  4 21  1  0  0  0  0
  5  4  1  0  0  0  0
  6  1  1  0  0  0  0
  7  6  1  0  0  0  0
  7  8  1  0  0  0  0
  9  7  2  0  0  0  0
 10  9  1  0  0  0  0
 11 13  2  0  0  0  0
 11  9  1  0  0  0  0
 12 11  1  0  0  0  0
 13 15  1  0  0  0  0
 14 13  1  0  0  0  0
 15 16  1  0  0  0  0
 15  6  2  0  0  0  0
 16  3  1  6  0  0  0
 17 18  1  0  0  0  0
 17 16  1  0  0  0  0
 19 17  1  0  0  0  0
 20 17  1  0  0  0  0
 21 22  1  0  0  0  0
 21  2  1  1  0  0  0
 22 31  1  0  0  0  0
 23 25  1  0  0  0  0
 23 22  2  0  0  0  0
 24 23  1  0  0  0  0
 25 27  2  0  0  0  0
 26 25  1  0  0  0  0
 27 28  1  0  0  0  0
 27 29  1  0  0  0  0
 29 30  1  0  0  0  0
 31 29  2  0  0  0  0
 31 32  1  0  0  0  0
M  CHG  1   1  -1
M  END
