32,33,36
q = -2.0, confidence = 0.942

 36 37  0  0  1  0  0  0  0  0999 V2000
   -2.7972   -1.1785   -0.0158 C   0  0  0  0  0  0  0  0  0  0  0  0
   -2.2103   -2.4037    0.3004 C   0  0  0  0  0  0  0  0  0  0  0  0
   -2.8524   -3.2358    0.6103 H   0  0  0  0  0  0  0  0  0  0  0  0
   -0.8038   -2.6114    0.3805 C   0  0  2  0  0  3  0  0  0  0  0  0
    1.3899   -1.9084    0.1600 N   0  0  0  0  0  0  0  0  0  0  0  0
    2.1302   -1.0117   -0.4906 C   0  0  0  0  0  0  0  0  0  0  0  0
   -4.2557   -0.9244    0.0578 C   0  0  0  0  0  0  0  0  0  0  0  0
   -5.1668   -1.8499    0.6176 C   0  0  0  0  0  0  0  0  0  0  0  0
   -4.8046   -2.7978    1.0404 H   0  0  0  0  0  0  0  0  0  0  0  0
   -6.5362   -1.5649    0.6562 C   0  0  0  0  0  0  0  0  0  0  0  0
   -7.2319   -2.2949    1.0967 H   0  0  0  0  0  0  0  0  0  0  0  0
   -7.0222   -0.3503    0.1420 C   0  0  0  0  0  0  0  0  0  0  0  0
   -8.0998   -0.1293    0.1743 H   0  0  0  0  0  0  0  0  0  0  0  0
   -6.1261    0.5786   -0.4110 C   0  0  0  0  0  0  0  0  0  0  0  0
   -6.4995    1.5309   -0.8171 H   0  0  0  0  0  0  0  0  0  0  0  0
   -4.7558    0.2960   -0.4532 C   0  0  0  0  0  0  0  0  0  0  0  0
   -4.0441    1.0108   -0.8894 H   0  0  0  0  0  0  0  0  0  0  0  0
   -0.2681   -3.8686    1.0099 C   0  0  0  0  0  0  0  0  0  0  0  0
    0.4780   -4.3491    0.3452 H   0  0  0  0  0  0  0  0  0  0  0  0
   -1.0819   -4.5819    1.2316 H   0  0  0  0  0  0  0  0  0  0  0  0
    0.2658   -3.6338    1.9545 H   0  0  0  0  0  0  0  0  0  0  0  0
    3.5863   -1.0902   -0.4000 C   0  0  0  0  0  0  0  0  0  0  0  0
    4.3874   -0.1293   -1.0600 C   0  0  0  0  0  0  0  0  0  0  0  0
    3.8736    0.6582   -1.6305 H   0  0  0  0  0  0  0  0  0  0  0  0
    5.7789   -0.1843   -0.9878 C   0  0  0  0  0  0  0  0  0  0  0  0
    6.3924    0.5668   -1.5059 H   0  0  0  0  0  0  0  0  0  0  0  0
    6.3906   -1.2154   -0.2431 C   0  0  0  0  0  0  0  0  0  0  0  0
    7.4887   -1.2680   -0.1804 H   0  0  0  0  0  0  0  0  0  0  0  0
    5.6231   -2.1753    0.4195 C   0  0  0  0  0  0  0  0  0  0  0  0
    6.0882   -2.9834    1.0022 H   0  0  0  0  0  0  0  0  0  0  0  0
    4.2109   -2.1366    0.3575 C   0  0  0  0  0  0  0  0  0  0  0  0
   -2.0646   -0.1467   -0.3562 O   0  5  0  0  0  0  0  0  0  0  0  0
    1.5503   -0.0798   -1.1983 O   0  5  0  0  0  0  0  0  0  0  0  0
    3.5088   -3.0721    1.0069 O   0  0  0  0  0  0  0  0  0  0  0  0
    2.5267   -2.8545    0.8414 H   0  0  0  0  0  0  0  0  0  0  0  0
    0.0621   -1.6991   -0.0682 N   0  0  0  0  0  2  0  0  0  0  0  0
  1  7  1  0  0  0  0
  1  2  2  0  0  0  0
  2  4  1  0  0  0  0
  2  3  1  0  0  0  0
  4 36  1  1  0  0  0
  4 18  1  0  0  0  0
  6 22  1  0  0  0  0
  6  5  2  0  0  0  0
  7  8  1  0  0  0  0
  8 10  2  0  0  0  0
  8  9  1  0  0  0  0
 10 11  1  0  0  0  0
 12 13  1  0  0  0  0
 12 10  1  0  0  0  0
 14 12  2  0  0  0  0
 15 14  1  0  0  0  0
 16 14  1  0  0  0  0
 16  7  2  0  0  0  0
 17 16  1  0  0  0  0
 18 20  1  0  0  0  0
 18 21  1  0  0  0  0
 19 18  1  0  0  0  0
 22 31  1  0  0  0  0
 23 25  1  0  0  0  0
 23 22  2  0  0  0  0
 24 23  1  0  0  0  0
 25 27  2  0  0  0  0
 26 25  1  0  0  0  0
 27 28  1  0  0  0  0
 27 29  1  0  0  0  0
 29 30  1  0  0  0  0
 31 29  2  0  0  0  0
 31 34  1  0  0  0  0
 32  1  1  0  0  0  0
 33  6  1  0  0  0  0
 35 34  1  0  0  0  0
 36  5  1  0  0  0  0
M  CHG  2  32  -1  33  -1
M  END
