2,5,8
q = -2.0, confidence = 0.798

 31 32  0  0  0  0  0  0  0  0999 V2000
   -0.1225    1.0597   -0.0001 N   0  0  0  0  0  0  0  0  0  0  0  0
    1.1474    0.5484    0.0001 N   0  0  0  0  0  2  0  0  0  0  0  0
   -2.9947    1.6594   -0.0004 N   0  0  0  0  0  0  0  0  0  0  0  0
   -6.0306   -0.2922    0.0006 N   0  0  0  0  0  0  0  0  0  0  0  0
   -0.6789   -1.1900    0.0010 O   0  5  0  0  0  0  0  0  0  0  0  0
   -6.1915   -1.5180    0.0013 O   0  0  0  0  0  0  0  0  0  0  0  0
   -6.9528    0.5397    0.0002 O   0  0  0  0  0  0  0  0  0  0  0  0
    3.2088   -1.2419   -0.0000 O   0  5  0  0  0  0  0  0  0  0  0  0
   -0.9992    0.0555    0.0003 C   0  0  0  0  0  0  0  0  0  0  0  0
   -2.4375    0.3724    0.0001 C   0  0  0  0  0  0  0  0  0  0  0  0
   -3.4837   -0.5504    0.0006 C   0  0  0  0  0  0  0  0  0  0  0  0
   -3.3705   -1.6372    0.0011 H   0  0  0  0  0  0  0  0  0  0  0  0
   -4.6844    0.2070    0.0003 C   0  0  0  0  0  0  0  0  0  0  0  0
   -4.3548    1.5668   -0.0004 C   0  0  0  0  0  0  0  0  0  0  0  0
   -5.0086    2.4435   -0.0008 H   0  0  0  0  0  0  0  0  0  0  0  0
   -2.2737    2.9233   -0.0014 C   0  0  0  0  0  0  0  0  0  0  0  0
   -3.0157    3.7444   -0.0017 H   0  0  0  0  0  0  0  0  0  0  0  0
   -1.6152    2.9910   -0.8865 H   0  0  0  0  0  0  0  0  0  0  0  0
   -1.6147    2.9921    0.8833 H   0  0  0  0  0  0  0  0  0  0  0  0
    2.1141    1.4390    0.0001 C   0  0  0  0  0  3  0  0  0  0  0  0
    1.8031    2.5040   -0.0001 H   0  0  0  0  0  0  0  0  0  0  0  0
    3.5177    1.1482    0.0003 C   0  0  0  0  0  0  0  0  0  0  0  0
    3.9972   -0.2170    0.0003 C   0  0  0  0  0  0  0  0  0  0  0  0
    5.4160   -0.4121    0.0005 C   0  0  0  0  0  0  0  0  0  0  0  0
    5.7722   -1.4529    0.0004 H   0  0  0  0  0  0  0  0  0  0  0  0
    6.2998    0.6639    0.0008 C   0  0  0  0  0  0  0  0  0  0  0  0
    7.3854    0.4716    0.0010 H   0  0  0  0  0  0  0  0  0  0  0  0
    5.8249    1.9978    0.0008 C   0  0  0  0  0  0  0  0  0  0  0  0
    6.5296    2.8429    0.0010 H   0  0  0  0  0  0  0  0  0  0  0  0
    4.4494    2.2204    0.0006 C   0  0  0  0  0  0  0  0  0  0  0  0
    4.0540    3.2503    0.0006 H   0  0  0  0  0  0  0  0  0  0  0  0
  1  2  1  0  0  0  0
  1  9  2  0  0  0  0
  2 20  1  0  0  0  0
  3 14  1  0  0  0  0
  3 10  1  0  0  0  0
  4  6  2  0  0  0  0
  7  4  2  0  0  0  0
  8 23  1  0  0  0  0
  9  5  1  0  0  0  0
 10  9  1  0  0  0  0
 10 11  2  0  0  0  0
 11 12  1  0  0  0  0
 13 11  1  0  0  0  0
 13  4  1  0  0  0  0
 14 13  2  0  0  0  0
 15 14  1  0  0  0  0
 16  3  1  0  0  0  0
 16 19  1  0  0  0  0
 17 16  1  0  0  0  0
 18 16  1  0  0  0  0
 20 22  1  0  0  0  0
 21 20  1  0  0  0  0
 22 30  1  0  0  0  0
 23 22  2  0  0  0  0
 23 24  1  0  0  0  0
 24 26  2  0  0  0  0
 25 24  1  0  0  0  0
 26 28  1  0  0  0  0
 26 27  1  0  0  0  0
 28 29  1  0  0  0  0
 30 31  1  0  0  0  0
 30 28  2  0  0  0  0
M  CHG  2   5  -1   8  -1
M  END
