1,4,13
q = -1.0

 23 24  0  0  1  0  0  0  0  0999 V2000
    2.1139    0.0000   -0.0000 N   0  0  0  0  0  2  0  0  0  0  0  0
    2.6574   -1.0322   -0.6383 C   0  0  2  0  0  3  0  0  0  0  0  0
    1.6793   -1.8160   -1.4073 C   0  0  1  0  0  3  0  0  0  0  0  0
    0.4567   -1.5476   -1.4414 O   0  0  0  0  0  1  0  0  0  0  0  0
    2.1837   -2.8618   -2.1445 N   0  0  0  0  0  0  0  0  0  0  0  0
    1.5322   -3.3874   -2.7347 H   0  0  0  0  0  0  0  0  0  0  0  0
    3.5148   -3.3229   -2.1516 C   0  0  0  0  0  0  0  0  0  0  0  0
    3.8693   -4.2623   -2.8404 O   0  0  0  0  0  0  0  0  0  0  0  0
    4.3487   -2.6265   -1.2882 N   0  0  0  0  0  0  0  0  0  0  0  0
    5.2913   -3.0134   -1.1805 H   0  0  0  0  0  0  0  0  0  0  0  0
    4.0136   -1.5702   -0.4148 C   0  0  0  0  0  0  0  0  0  0  0  0
    4.7771   -1.2260    0.4758 O   0  0  0  0  0  0  0  0  0  0  0  0
    0.4567    1.5477    1.4413 O   0  0  0  0  0  1  0  0  0  0  0  0
    2.6574    1.0323    0.6383 C   0  0  2  0  0  3  0  0  0  0  0  0
    1.6793    1.8160    1.4073 C   0  0  2  0  0  3  0  0  0  0  0  0
    4.0135    1.5702    0.4148 C   0  0  0  0  0  0  0  0  0  0  0  0
    2.1837    2.8618    2.1444 N   0  0  0  0  0  0  0  0  0  0  0  0
    4.3487    2.6265    1.2882 N   0  0  0  0  0  0  0  0  0  0  0  0
    4.7772    1.2260   -0.4757 O   0  0  0  0  0  0  0  0  0  0  0  0
    1.5322    3.3874    2.7347 H   0  0  0  0  0  0  0  0  0  0  0  0
    3.5148    3.3229    2.1516 C   0  0  0  0  0  0  0  0  0  0  0  0
    5.2913    3.0134    1.1805 H   0  0  0  0  0  0  0  0  0  0  0  0
    3.8693    4.2623    2.8405 O   0  0  0  0  0  0  0  0  0  0  0  0
  2 11  1  0  0  0  0
  2  1  1  1  0  0  0
  3  4  1  6  0  0  0
  3  2  1  0  0  0  0
  5  3  1  0  0  0  0
  6  5  1  0  0  0  0
  7  5  1  0  0  0  0
  7  9  1  0  0  0  0
  8  7  2  0  0  0  0
  9 10  1  0  0  0  0
  9 11  1  0  0  0  0
 11 12  2  0  0  0  0
 14  1  1  6  0  0  0
 14 15  1  0  0  0  0
 15 13  1  1  0  0  0
 15 17  1  0  0  0  0
 16 14  1  0  0  0  0
 16 18  1  0  0  0  0
 17 21  1  0  0  0  0
 17 20  1  0  0  0  0
 18 21  1  0  0  0  0
 19 16  2  0  0  0  0
 21 23  2  0  0  0  0
 22 18  1  0  0  0  0
M  END
