1,2,5
q = -2.0, confidence = 0.834

 42 42  0  0  0  0  0  0  0  0999 V2000
   -0.5094   -1.3485    0.2892 O   0  5  0  0  0  0  0  0  0  0  0  0
   -3.6152    0.6226   -0.3940 O   0  0  0  0  0  1  0  0  0  0  0  0
   -2.3737   -0.1890    2.0497 O   0  0  0  0  0  0  0  0  0  0  0  0
   -3.2844   -0.4036    2.3284 H   0  0  0  0  0  0  0  0  0  0  0  0
   -1.1175    1.3962    0.0318 N   0  0  0  0  0  0  0  0  0  0  0  0
    0.7684   -0.9680    0.1612 C   0  0  0  0  0  0  0  0  0  0  0  0
    1.7806   -1.8743    0.5426 C   0  0  0  0  0  0  0  0  0  0  0  0
    1.4689   -2.8646    0.9046 H   0  0  0  0  0  0  0  0  0  0  0  0
    3.1324   -1.5254    0.4567 C   0  0  0  0  0  0  0  0  0  0  0  0
    3.8816   -2.2699    0.7585 H   0  0  0  0  0  0  0  0  0  0  0  0
    3.5364   -0.2524    0.0044 C   0  0  0  0  0  0  0  0  0  0  0  0
    2.5126    0.6463   -0.3566 C   0  0  0  0  0  0  0  0  0  0  0  0
    2.7805    1.6573   -0.7053 H   0  0  0  0  0  0  0  0  0  0  0  0
    1.1463    0.3224   -0.3027 C   0  0  0  0  0  0  0  0  0  0  0  0
    0.1326    1.3399   -0.7695 C   0  0  0  0  0  0  0  0  0  0  0  0
    0.6170    2.3446   -0.7785 H   0  0  0  0  0  0  0  0  0  0  0  0
   -0.1808    1.1156   -1.8113 H   0  0  0  0  0  0  0  0  0  0  0  0
   -2.0542    2.4230   -0.4983 C   0  0  0  0  0  0  0  0  0  0  0  0
   -1.5285    3.1043   -1.2006 H   0  0  0  0  0  0  0  0  0  0  0  0
   -2.4113    3.0459    0.3460 H   0  0  0  0  0  0  0  0  0  0  0  0
   -3.2540    1.7349   -1.1681 C   0  0  0  0  0  0  0  0  0  0  0  0
   -4.1096    2.4433   -1.2438 H   0  0  0  0  0  0  0  0  0  0  0  0
   -2.9805    1.4077   -2.2007 H   0  0  0  0  0  0  0  0  0  0  0  0
   -0.8697    1.5666    1.4795 C   0  0  0  0  0  0  0  0  0  0  0  0
   -0.5689    2.6145    1.7154 H   0  0  0  0  0  0  0  0  0  0  0  0
   -0.0236    0.9098    1.7612 H   0  0  0  0  0  0  0  0  0  0  0  0
   -2.0885    1.1877    2.3068 C   0  0  0  0  0  0  0  0  0  0  0  0
   -1.8586    1.3437    3.3839 H   0  0  0  0  0  0  0  0  0  0  0  0
   -2.9641    1.8205    2.0415 H   0  0  0  0  0  0  0  0  0  0  0  0
    5.0098    0.1793   -0.0977 C   0  0  0  0  0  0  0  0  0  0  0  0
    5.2476    1.4117    0.8047 C   0  0  0  0  0  0  0  0  0  0  0  0
    4.6095    2.2681    0.5082 H   0  0  0  0  0  0  0  0  0  0  0  0
    6.3049    1.7432    0.7410 H   0  0  0  0  0  0  0  0  0  0  0  0
    5.0237    1.1747    1.8645 H   0  0  0  0  0  0  0  0  0  0  0  0
    5.9696   -0.9378    0.3469 C   0  0  0  0  0  0  0  0  0  0  0  0
    7.0185   -0.5901    0.2580 H   0  0  0  0  0  0  0  0  0  0  0  0
    5.8644   -1.8452   -0.2813 H   0  0  0  0  0  0  0  0  0  0  0  0
    5.8027   -1.2284    1.4038 H   0  0  0  0  0  0  0  0  0  0  0  0
    5.3349    0.5449   -1.5640 C   0  0  0  0  0  0  0  0  0  0  0  0
    4.6992    1.3751   -1.9314 H   0  0  0  0  0  0  0  0  0  0  0  0
    5.1727   -0.3241   -2.2331 H   0  0  0  0  0  0  0  0  0  0  0  0
    6.3937    0.8634   -1.6609 H   0  0  0  0  0  0  0  0  0  0  0  0
  3 27  1  0  0  0  0
  3  4  1  0  0  0  0
  5 24  1  0  0  0  0
  6  1  1  0  0  0  0
  6  7  1  0  0  0  0
  7  8  1  0  0  0  0
  9  7  2  0  0  0  0
  9 10  1  0  0  0  0
 11  9  1  0  0  0  0
 12 14  1  0  0  0  0
 12 11  2  0  0  0  0
 13 12  1  0  0  0  0
 14  6  2  0  0  0  0
 15 14  1  0  0  0  0
 15  5  1  0  0  0  0
 16 15  1  0  0  0  0
 17 15  1  0  0  0  0
 18  5  1  0  0  0  0
 18 20  1  0  0  0  0
 19 18  1  0  0  0  0
 21 18  1  0  0  0  0
 21  2  1  0  0  0  0
 22 21  1  0  0  0  0
 23 21  1  0  0  0  0
 24 25  1  0  0  0  0
 24 26  1  0  0  0  0
 24 27  1  0  0  0  0
 27 28  1  0  0  0  0
 29 27  1  0  0  0  0
 30 11  1  0  0  0  0
 30 35  1  0  0  0  0
 30 31  1  0  0  0  0
 31 34  1  0  0  0  0
 32 31  1  0  0  0  0
 33 31  1  0  0  0  0
 35 38  1  0  0  0  0
 36 35  1  0  0  0  0
 37 35  1  0  0  0  0
 39 30  1  0  0  0  0
 40 39  1  0  0  0  0
 41 39  1  0  0  0  0
 42 39  1  0  0  0  0
M  CHG  1   1  -1
M  END
