1,3,4
q = -2.0, confidence = 0.858

 38 41  0  0  1  0  0  0  0  0999 V2000
    0.1621   -2.4977    0.3819 O   0  5  0  0  0  0  0  0  0  0  0  0
   -1.0989   -2.5000   -0.0340 C   0  0  0  0  0  0  0  0  0  0  0  0
    0.2534    0.1224   -0.2939 N   0  0  0  0  0  2  0  0  0  0  0  0
    2.9558    0.0099   -0.2182 O   0  5  0  0  0  0  0  0  0  0  0  0
   -1.6315    1.2227   -0.1403 N   0  0  0  0  0  0  0  0  0  0  0  0
   -1.7805   -3.7379   -0.1197 C   0  0  0  0  0  0  0  0  0  0  0  0
   -1.2248   -4.6430    0.1626 H   0  0  0  0  0  0  0  0  0  0  0  0
   -0.6640    2.1774   -0.1737 N   0  0  0  0  0  0  0  0  0  0  0  0
   -3.0993   -3.7933   -0.5708 C   0  0  0  0  0  0  0  0  0  0  0  0
   -3.6070   -4.7673   -0.6433 H   0  0  0  0  0  0  0  0  0  0  0  0
   -3.7737   -2.6167   -0.9552 C   0  0  0  0  0  0  0  0  0  0  0  0
   -4.8015   -2.6646   -1.3426 H   0  0  0  0  0  0  0  0  0  0  0  0
   -3.1256   -1.3859   -0.8550 C   0  0  0  0  0  0  0  0  0  0  0  0
   -3.6472   -0.4743   -1.1753 H   0  0  0  0  0  0  0  0  0  0  0  0
   -1.7956   -1.2977   -0.3724 C   0  0  0  0  0  0  0  0  0  0  0  0
   -1.0889   -0.0330   -0.2445 C   0  0  1  0  0  3  0  0  0  0  0  0
   -2.9818    1.6237    0.0992 C   0  0  0  0  0  0  0  0  0  0  0  0
   -3.5341    2.6502   -0.6836 C   0  0  0  0  0  0  0  0  0  0  0  0
   -2.9216    3.1146   -1.4686 H   0  0  0  0  0  0  0  0  0  0  0  0
   -4.8514    3.0626   -0.4391 C   0  0  0  0  0  0  0  0  0  0  0  0
   -5.2908    3.8652   -1.0498 H   0  0  0  0  0  0  0  0  0  0  0  0
   -5.6069    2.4538    0.5760 C   0  0  0  0  0  0  0  0  0  0  0  0
   -6.6418    2.7778    0.7616 H   0  0  0  0  0  0  0  0  0  0  0  0
   -5.0378    1.4374    1.3611 C   0  0  0  0  0  0  0  0  0  0  0  0
   -5.6213    0.9685    2.1672 H   0  0  0  0  0  0  0  0  0  0  0  0
   -3.7189    1.0230    1.1341 C   0  0  0  0  0  0  0  0  0  0  0  0
   -3.2591    0.2359    1.7481 H   0  0  0  0  0  0  0  0  0  0  0  0
    0.4730    1.4852   -0.2692 C   0  0  0  0  0  0  0  0  0  0  0  0
    1.7833    2.1184   -0.3597 C   0  0  0  0  0  0  0  0  0  0  0  0
    1.8827    3.5259   -0.4552 C   0  0  0  0  0  0  0  0  0  0  0  0
    0.9511    4.1100   -0.4559 H   0  0  0  0  0  0  0  0  0  0  0  0
    3.1250    4.1544   -0.5513 C   0  0  0  0  0  0  0  0  0  0  0  0
    3.1847    5.2496   -0.6290 H   0  0  0  0  0  0  0  0  0  0  0  0
    4.2989    3.3743   -0.5538 C   0  0  0  0  0  0  0  0  0  0  0  0
    5.2835    3.8600   -0.6348 H   0  0  0  0  0  0  0  0  0  0  0  0
    4.2262    1.9836   -0.4528 C   0  0  0  0  0  0  0  0  0  0  0  0
    5.1278    1.3547   -0.4480 H   0  0  0  0  0  0  0  0  0  0  0  0
    2.9721    1.3345   -0.3511 C   0  0  0  0  0  0  0  0  0  0  0  0
  2  1  1  0  0  0  0
  3 28  1  0  0  0  0
  3 16  1  0  0  0  0
  5 17  1  0  0  0  0
  6  2  1  0  0  0  0
  6  7  1  0  0  0  0
  8  5  1  0  0  0  0
  9  6  2  0  0  0  0
 10  9  1  0  0  0  0
 11 13  2  0  0  0  0
 11  9  1  0  0  0  0
 12 11  1  0  0  0  0
 13 15  1  0  0  0  0
 14 13  1  0  0  0  0
 15  2  2  0  0  0  0
 16 15  1  6  0  0  0
 16  5  1  0  0  0  0
 17 26  1  0  0  0  0
 18 20  1  0  0  0  0
 18 17  2  0  0  0  0
 19 18  1  0  0  0  0
 20 22  2  0  0  0  0
 21 20  1  0  0  0  0
 22 23  1  0  0  0  0
 22 24  1  0  0  0  0
 24 25  1  0  0  0  0
 26 24  2  0  0  0  0
 26 27  1  0  0  0  0
 28  8  2  0  0  0  0
 29 38  1  0  0  0  0
 29 28  1  0  0  0  0
 30 29  2  0  0  0  0
 31 30  1  0  0  0  0
 32 30  1  0  0  0  0
 33 32  1  0  0  0  0
 34 32  2  0  0  0  0
 34 36  1  0  0  0  0
 35 34  1  0  0  0  0
 36 37  1  0  0  0  0
 36 38  2  0  0  0  0
 38  4  1  0  0  0  0
M  CHG  2   1  -1   4  -1
M  END
