1,2,3
q = -2.0, confidence = 0.804

 25 26  0  0  0  0  0  0  0  0999 V2000
    1.5936    0.8365    0.2020 O   0  5  0  0  0  0  0  0  0  0  0  0
   -2.0505    0.9033   -0.2223 O   0  5  0  0  0  0  0  0  0  0  0  0
   -0.3481   -1.0281   -0.0723 N   0  0  0  0  0  2  0  0  0  0  0  0
    0.6513   -1.8717   -0.0807 C   0  0  0  0  0  3  0  0  0  0  0  0
    0.4377   -2.9598   -0.0754 H   0  0  0  0  0  0  0  0  0  0  0  0
    2.0431   -1.5089   -0.0917 C   0  0  0  0  0  0  0  0  0  0  0  0
    3.0286   -2.5266   -0.1951 C   0  0  0  0  0  0  0  0  0  0  0  0
    2.6927   -3.5701   -0.3069 H   0  0  0  0  0  0  0  0  0  0  0  0
    4.3879   -2.2264   -0.1622 C   0  0  0  0  0  0  0  0  0  0  0  0
    5.1372   -3.0258   -0.2525 H   0  0  0  0  0  0  0  0  0  0  0  0
    4.7930   -0.8822   -0.0076 C   0  0  0  0  0  0  0  0  0  0  0  0
    5.8653   -0.6343    0.0230 H   0  0  0  0  0  0  0  0  0  0  0  0
    3.8514    0.1419    0.1072 C   0  0  0  0  0  0  0  0  0  0  0  0
    4.1533    1.1917    0.2307 H   0  0  0  0  0  0  0  0  0  0  0  0
    2.4640   -0.1449    0.0625 C   0  0  0  0  0  0  0  0  0  0  0  0
   -2.5814   -0.3091   -0.1315 C   0  0  0  0  0  0  0  0  0  0  0  0
   -3.9769   -0.5342   -0.1280 C   0  0  0  0  0  0  0  0  0  0  0  0
   -4.6498    0.3287   -0.2352 H   0  0  0  0  0  0  0  0  0  0  0  0
   -4.4658   -1.8362    0.0233 C   0  0  0  0  0  0  0  0  0  0  0  0
   -5.5531   -2.0076    0.0345 H   0  0  0  0  0  0  0  0  0  0  0  0
   -3.5857   -2.9296    0.1677 C   0  0  0  0  0  0  0  0  0  0  0  0
   -3.9853   -3.9466    0.2927 H   0  0  0  0  0  0  0  0  0  0  0  0
   -2.2020   -2.7222    0.1542 C   0  0  0  0  0  0  0  0  0  0  0  0
   -1.5211   -3.5781    0.2743 H   0  0  0  0  0  0  0  0  0  0  0  0
   -1.6914   -1.4185   -0.0106 C   0  0  0  0  0  0  0  0  0  0  0  0
  2 16  1  0  0  0  0
  3 25  1  0  0  0  0
  4  5  1  0  0  0  0
  4  3  1  0  0  0  0
  6  4  1  0  0  0  0
  6 15  1  0  0  0  0
  7  9  1  0  0  0  0
  7  6  2  0  0  0  0
  8  7  1  0  0  0  0
  9 11  2  0  0  0  0
 10  9  1  0  0  0  0
 11 12  1  0  0  0  0
 11 13  1  0  0  0  0
 13 14  1  0  0  0  0
 15 13  2  0  0  0  0
 15  1  1  0  0  0  0
 16 17  2  0  0  0  0
 16 25  1  0  0  0  0
 17 19  1  0  0  0  0
 18 17  1  0  0  0  0
 19 20  1  0  0  0  0
 19 21  2  0  0  0  0
 21 22  1  0  0  0  0
 23 21  1  0  0  0  0
 23 24  1  0  0  0  0
 25 23  2  0  0  0  0
M  CHG  2   1  -1   2  -1
M  END
