9,11,13
q = -2.0, confidence = 0.698

 14 13  0  0  0  0  0  0  0  0999 V2000
   -1.7383    1.8721    0.3894 C   0  0  0  0  0  0  0  0  0  0  0  0
   -2.0022    1.3352   -1.0337 C   0  0  0  0  0  0  0  0  0  0  0  0
   -3.0941    1.2328   -1.1894 H   0  0  0  0  0  0  0  0  0  0  0  0
   -1.6281    2.1064   -1.7382 H   0  0  0  0  0  0  0  0  0  0  0  0
   -2.1125   -1.1653   -1.0655 C   0  0  0  0  0  0  0  0  0  0  0  0
   -1.7653   -1.9623   -1.7546 H   0  0  0  0  0  0  0  0  0  0  0  0
   -3.1849   -0.9788   -1.2712 H   0  0  0  0  0  0  0  0  0  0  0  0
   -1.9506   -1.7131    0.3712 C   0  0  0  0  0  0  0  0  0  0  0  0
   -1.2963    0.0557   -1.3175 N   0  0  0  0  0  0  0  0  0  0  0  0
   -0.9977    0.0591   -2.2995 H   0  0  0  0  0  0  0  0  0  0  0  0
   -0.8199   -1.3537    0.9559 O   0  5  0  0  0  0  0  0  0  0  0  0
   -2.7895   -2.4538    0.8445 O   0  0  0  0  0  0  0  0  0  0  0  0
   -0.6204    1.3940    0.9296 O   0  5  0  0  0  0  0  0  0  0  0  0
   -2.4697    2.6943    0.8969 O   0  0  0  0  0  0  0  0  0  0  0  0
  1 14  2  0  0  0  0
  1 13  1  0  0  0  0
  2  1  1  0  0  0  0
  3  2  1  0  0  0  0
  4  2  1  0  0  0  0
  5  8  1  0  0  0  0
  6  5  1  0  0  0  0
  7  5  1  0  0  0  0
  8 12  2  0  0  0  0
  8 11  1  0  0  0  0
  9  5  1  0  0  0  0
  9  2  1  0  0  0  0
 10  9  1  0  0  0  0
M  CHG  2  11  -1  13  -1
M  END
