1,3,5
q = -2.0, confidence = 0.84

 33 34  0  0  0  0  0  0  0  0999 V2000
    0.1673    0.9119    0.0005 N   0  0  0  0  0  2  0  0  0  0  0  0
    1.4960    1.1842    0.0611 N   0  0  0  0  0  0  0  0  0  0  0  0
   -2.0630   -0.6269    0.3203 O   0  5  0  0  0  0  0  0  0  0  0  0
   -4.6720   -0.8333    0.2176 O   0  0  0  0  0  0  0  0  0  0  0  0
    1.6549   -1.1099   -0.1130 O   0  5  0  0  0  0  0  0  0  0  0  0
    3.6504    2.5934    0.1910 O   0  0  0  0  0  0  0  0  0  0  0  0
    2.6639    2.3518    0.1682 H   0  0  0  0  0  0  0  0  0  0  0  0
   -2.1125    1.7716   -0.0277 C   0  0  0  0  0  0  0  0  0  0  0  0
   -2.7447    0.5039    0.1104 C   0  0  0  0  0  0  0  0  0  0  0  0
   -4.1702    0.4170    0.0766 C   0  0  0  0  0  0  0  0  0  0  0  0
   -4.9312    1.5860   -0.0881 C   0  0  0  0  0  0  0  0  0  0  0  0
   -6.0274    1.5280   -0.1186 H   0  0  0  0  0  0  0  0  0  0  0  0
   -4.2996    2.8413   -0.2134 C   0  0  0  0  0  0  0  0  0  0  0  0
   -4.9148    3.7437   -0.3405 H   0  0  0  0  0  0  0  0  0  0  0  0
   -2.9130    2.9382   -0.1784 C   0  0  0  0  0  0  0  0  0  0  0  0
   -2.4149    3.9140   -0.2785 H   0  0  0  0  0  0  0  0  0  0  0  0
   -0.6768    1.9140    0.0071 C   0  0  0  0  0  3  0  0  0  0  0  0
   -0.2554    2.9369    0.0276 H   0  0  0  0  0  0  0  0  0  0  0  0
    2.2272    0.0740   -0.0256 C   0  0  0  0  0  0  0  0  0  0  0  0
    3.6807    0.1685   -0.0137 C   0  0  0  0  0  0  0  0  0  0  0  0
    4.3269    1.4467    0.0944 C   0  0  0  0  0  0  0  0  0  0  0  0
    5.7410    1.4899    0.1008 C   0  0  0  0  0  0  0  0  0  0  0  0
    6.2216    2.4751    0.1839 H   0  0  0  0  0  0  0  0  0  0  0  0
    6.4883    0.3161    0.0034 C   0  0  0  0  0  0  0  0  0  0  0  0
    7.5877    0.3770    0.0099 H   0  0  0  0  0  0  0  0  0  0  0  0
    5.8563   -0.9426   -0.1036 C   0  0  0  0  0  0  0  0  0  0  0  0
    6.4555   -1.8609   -0.1813 H   0  0  0  0  0  0  0  0  0  0  0  0
    4.4651   -1.0074   -0.1110 C   0  0  0  0  0  0  0  0  0  0  0  0
    3.9386   -1.9688   -0.1950 H   0  0  0  0  0  0  0  0  0  0  0  0
   -6.0764   -1.0012    0.1630 C   0  0  0  0  0  0  0  0  0  0  0  0
   -6.5916   -0.4507    0.9823 H   0  0  0  0  0  0  0  0  0  0  0  0
   -6.2649   -2.0838    0.2815 H   0  0  0  0  0  0  0  0  0  0  0  0
   -6.4944   -0.6651   -0.8123 H   0  0  0  0  0  0  0  0  0  0  0  0
  1 17  1  0  0  0  0
  1  2  1  0  0  0  0
  5 19  1  0  0  0  0
  7  6  1  0  0  0  0
  8 17  1  0  0  0  0
  8  9  1  0  0  0  0
  9  3  1  0  0  0  0
 10  9  2  0  0  0  0
 10  4  1  0  0  0  0
 11 10  1  0  0  0  0
 12 11  1  0  0  0  0
 13 15  1  0  0  0  0
 13 11  2  0  0  0  0
 14 13  1  0  0  0  0
 15  8  2  0  0  0  0
 16 15  1  0  0  0  0
 17 18  1  0  0  0  0
 19 20  1  0  0  0  0
 19  2  2  0  0  0  0
 20 21  1  0  0  0  0
 21 22  2  0  0  0  0
 21  6  1  0  0  0  0
 22 23  1  0  0  0  0
 24 25  1  0  0  0  0
 24 22  1  0  0  0  0
 26 24  2  0  0  0  0
 27 26  1  0  0  0  0
 28 26  1  0  0  0  0
 28 20  2  0  0  0  0
 29 28  1  0  0  0  0
 30  4  1  0  0  0  0
 30 32  1  0  0  0  0
 30 31  1  0  0  0  0
 33 30  1  0  0  0  0
M  CHG  2   3  -1   5  -1
M  END
