1,2,3
q = -2.0, confidence = 0.66

 35 36  0  0  1  0  0  0  0  0999 V2000
   -1.9590    0.2817   -1.5371 O   0  5  0  0  0  0  0  0  0  0  0  0
    1.6568    0.3267   -0.3245 O   0  5  0  0  0  0  0  0  0  0  0  0
   -0.6176   -1.2135    0.1315 N   0  0  0  0  0  2  0  0  0  0  0  0
   -2.6932   -0.4565   -0.6968 C   0  0  0  0  0  0  0  0  0  0  0  0
   -2.0088   -1.2633    0.2669 C   0  0  0  0  0  0  0  0  0  0  0  0
   -2.7792   -1.9156    1.2545 C   0  0  0  0  0  0  0  0  0  0  0  0
   -2.2900   -2.4632    2.0689 H   0  0  0  0  0  0  0  0  0  0  0  0
   -4.1784   -1.8366    1.2320 C   0  0  0  0  0  0  0  0  0  0  0  0
   -4.7582   -2.3504    2.0141 H   0  0  0  0  0  0  0  0  0  0  0  0
   -4.8579   -1.1071    0.2327 C   0  0  0  0  0  0  0  0  0  0  0  0
   -4.0963   -0.4130   -0.7270 C   0  0  0  0  0  0  0  0  0  0  0  0
   -4.5782    0.2032   -1.5006 H   0  0  0  0  0  0  0  0  0  0  0  0
   -6.3642   -1.0637    0.1877 C   0  0  0  0  0  0  0  0  0  0  0  0
   -6.8124   -1.4040    1.1414 H   0  0  0  0  0  0  0  0  0  0  0  0
   -6.7567   -1.7212   -0.6178 H   0  0  0  0  0  0  0  0  0  0  0  0
   -6.7368   -0.0412   -0.0248 H   0  0  0  0  0  0  0  0  0  0  0  0
    0.2486   -2.1362    0.5421 C   0  0  1  0  0  3  0  0  0  0  0  0
   -0.1844   -3.4933    1.0483 C   0  0  0  0  0  0  0  0  0  0  0  0
   -0.3526   -3.4920    2.1457 H   0  0  0  0  0  0  0  0  0  0  0  0
    0.6081   -4.2370    0.8414 H   0  0  0  0  0  0  0  0  0  0  0  0
   -1.1250   -3.8205    0.5657 H   0  0  0  0  0  0  0  0  0  0  0  0
    1.6622   -1.9021    0.5115 C   0  0  0  0  0  0  0  0  0  0  0  0
    2.2945   -2.7327    0.8471 H   0  0  0  0  0  0  0  0  0  0  0  0
    2.3001   -0.7141    0.1659 C   0  0  0  0  0  0  0  0  0  0  0  0
    3.7613   -0.5132    0.3271 C   0  0  0  0  0  0  0  0  0  0  0  0
    4.5620   -1.3553    1.1333 C   0  0  0  0  0  0  0  0  0  0  0  0
    4.1018   -2.1822    1.6934 H   0  0  0  0  0  0  0  0  0  0  0  0
    5.9383   -1.1306    1.2496 C   0  0  0  0  0  0  0  0  0  0  0  0
    6.5468   -1.7925    1.8843 H   0  0  0  0  0  0  0  0  0  0  0  0
    6.5407   -0.0592    0.5679 C   0  0  0  0  0  0  0  0  0  0  0  0
    7.6234    0.1151    0.6610 H   0  0  0  0  0  0  0  0  0  0  0  0
    5.7540    0.7891   -0.2279 C   0  0  0  0  0  0  0  0  0  0  0  0
    6.2189    1.6297   -0.7648 H   0  0  0  0  0  0  0  0  0  0  0  0
    4.3766    0.5678   -0.3460 C   0  0  0  0  0  0  0  0  0  0  0  0
    3.7514    1.2217   -0.9700 H   0  0  0  0  0  0  0  0  0  0  0  0
  1  4  1  0  0  0  0
  2 24  1  0  0  0  0
  3  5  1  0  0  0  0
  4  5  1  0  0  0  0
  5  6  2  0  0  0  0
  6  7  1  0  0  0  0
  8  6  1  0  0  0  0
  8  9  1  0  0  0  0
 10  8  2  0  0  0  0
 11  4  2  0  0  0  0
 11 10  1  0  0  0  0
 12 11  1  0  0  0  0
 13 10  1  0  0  0  0
 13 14  1  0  0  0  0
 15 13  1  0  0  0  0
 16 13  1  0  0  0  0
 17  3  1  6  0  0  0
 17 18  1  0  0  0  0
 18 19  1  0  0  0  0
 20 18  1  0  0  0  0
 21 18  1  0  0  0  0
 22 17  1  0  0  0  0
 22 23  1  0  0  0  0
 24 25  1  0  0  0  0
 24 22  2  0  0  0  0
 25 26  1  0  0  0  0
 26 28  2  0  0  0  0
 26 27  1  0  0  0  0
 28 29  1  0  0  0  0
 30 31  1  0  0  0  0
 30 28  1  0  0  0  0
 32 30  2  0  0  0  0
 33 32  1  0  0  0  0
 34 32  1  0  0  0  0
 34 25  2  0  0  0  0
 35 34  1  0  0  0  0
M  CHG  2   1  -1   2  -1
M  END
