4,7,20
q = -2.0, confidence = 0.924

 31 32  0  0  1  0  0  0  0  0999 V2000
   -7.0713    0.7236    0.4436 Cl  0  0  0  0  0  0  0  0  0  0  0  0
   -5.2243   -1.2199   -0.0919 C   0  0  0  0  0  0  0  0  0  0  0  0
   -6.0807   -1.9039   -0.1729 H   0  0  0  0  0  0  0  0  0  0  0  0
    1.4597    0.6015   -1.1599 O   0  5  0  0  0  0  0  0  0  0  0  0
    1.4250    1.6812   -0.4281 C   0  0  0  0  0  0  0  0  0  0  0  0
    0.3193    2.0634    0.1912 N   0  0  0  0  0  0  0  0  0  0  0  0
   -0.6946    1.1932   -0.0791 N   0  0  0  0  0  2  0  0  0  0  0  0
   -1.9181    1.4995    0.3318 C   0  0  1  0  0  3  0  0  0  0  0  0
   -2.1690    2.8115    1.0239 C   0  0  0  0  0  0  0  0  0  0  0  0
   -1.2084    3.2837    1.2871 H   0  0  0  0  0  0  0  0  0  0  0  0
   -2.7925    2.6717    1.9277 H   0  0  0  0  0  0  0  0  0  0  0  0
   -2.7172    3.4997    0.3461 H   0  0  0  0  0  0  0  0  0  0  0  0
   -3.0337    0.5812    0.1194 C   0  0  0  0  0  0  0  0  0  0  0  0
   -4.3667    1.0218    0.3248 C   0  0  0  0  0  0  0  0  0  0  0  0
   -4.5733    2.0728    0.5630 H   0  0  0  0  0  0  0  0  0  0  0  0
   -5.4411    0.1398    0.2092 C   0  0  0  0  0  0  0  0  0  0  0  0
   -2.8173   -0.7984   -0.2074 C   0  0  0  0  0  0  0  0  0  0  0  0
   -3.9227   -1.6786   -0.2896 C   0  0  0  0  0  0  0  0  0  0  0  0
   -3.7211   -2.7327   -0.5267 H   0  0  0  0  0  0  0  0  0  0  0  0
   -1.5974   -1.2765   -0.3859 O   0  5  0  0  0  0  0  0  0  0  0  0
    2.6616    2.4789   -0.2932 C   0  0  0  0  0  0  0  0  0  0  0  0
    2.6816    3.6694    0.4664 C   0  0  0  0  0  0  0  0  0  0  0  0
    1.7538    4.0019    0.9526 H   0  0  0  0  0  0  0  0  0  0  0  0
    3.8674    4.4022    0.5885 C   0  0  0  0  0  0  0  0  0  0  0  0
    3.8789    5.3299    1.1806 H   0  0  0  0  0  0  0  0  0  0  0  0
    5.0416    3.9578   -0.0451 C   0  0  0  0  0  0  0  0  0  0  0  0
    5.9723    4.5375    0.0519 H   0  0  0  0  0  0  0  0  0  0  0  0
    5.0256    2.7749   -0.8022 C   0  0  0  0  0  0  0  0  0  0  0  0
    5.9434    2.4262   -1.2993 H   0  0  0  0  0  0  0  0  0  0  0  0
    3.8421    2.0361   -0.9270 C   0  0  0  0  0  0  0  0  0  0  0  0
    3.8072    1.1074   -1.5140 H   0  0  0  0  0  0  0  0  0  0  0  0
  2 16  1  0  0  0  0
  3  2  1  0  0  0  0
  4  5  1  0  0  0  0
  5 21  1  0  0  0  0
  5  6  2  0  0  0  0
  7  6  1  0  0  0  0
  8  7  1  6  0  0  0
  8  9  1  0  0  0  0
  9 10  1  0  0  0  0
  9 11  1  0  0  0  0
 12  9  1  0  0  0  0
 13 14  1  0  0  0  0
 13  8  1  0  0  0  0
 14 15  1  0  0  0  0
 16 14  2  0  0  0  0
 16  1  1  0  0  0  0
 17 13  2  0  0  0  0
 18 17  1  0  0  0  0
 18  2  2  0  0  0  0
 19 18  1  0  0  0  0
 20 17  1  0  0  0  0
 21 22  1  0  0  0  0
 22 24  2  0  0  0  0
 22 23  1  0  0  0  0
 24 25  1  0  0  0  0
 26 27  1  0  0  0  0
 26 24  1  0  0  0  0
 28 26  2  0  0  0  0
 29 28  1  0  0  0  0
 30 28  1  0  0  0  0
 30 21  2  0  0  0  0
 31 30  1  0  0  0  0
M  CHG  2   4  -1  20  -1
M  END
