1,2,3
q = -2.0, confidence = 0.902

 28 29  0  0  0  0  0  0  0  0999 V2000
   -2.4027   -1.0376   -0.6102 O   0  5  0  0  0  0  0  0  0  0  0  0
    0.4546    1.2783   -0.9991 O   0  5  0  0  0  0  0  0  0  0  0  0
   -1.6044    1.3204    0.3495 N   0  0  0  0  0  2  0  0  0  0  0  0
   -0.7140    2.2901    0.6959 N   0  0  0  0  0  0  0  0  0  0  0  0
   -3.5514   -0.8551    0.0085 C   0  0  0  0  0  0  0  0  0  0  0  0
   -4.5744   -1.8295   -0.0943 C   0  0  0  0  0  0  0  0  0  0  0  0
   -5.7827   -1.6599    0.5849 C   0  0  0  0  0  0  0  0  0  0  0  0
   -6.0086   -0.5249    1.3941 C   0  0  0  0  0  0  0  0  0  0  0  0
   -5.0076    0.4368    1.5147 C   0  0  0  0  0  0  0  0  0  0  0  0
   -3.7726    0.3025    0.8275 C   0  0  0  0  0  0  0  0  0  0  0  0
   -2.7426    1.2853    1.0068 C   0  0  0  0  0  3  0  0  0  0  0  0
    0.3543    2.2011   -0.0775 C   0  0  0  0  0  0  0  0  0  0  0  0
    1.4707    3.1534    0.0934 C   0  0  0  0  0  0  0  0  0  0  0  0
    1.4148    4.1627    1.0796 C   0  0  0  0  0  0  0  0  0  0  0  0
    2.4827    5.0544    1.2297 C   0  0  0  0  0  0  0  0  0  0  0  0
    3.6137    4.9500    0.4002 C   0  0  0  0  0  0  0  0  0  0  0  0
    3.6725    3.9477   -0.5820 C   0  0  0  0  0  0  0  0  0  0  0  0
    2.6069    3.0514   -0.7367 C   0  0  0  0  0  0  0  0  0  0  0  0
   -4.3834   -2.7113   -0.7221 H   0  0  0  0  0  0  0  0  0  0  0  0
   -6.5677   -2.4257    0.4862 H   0  0  0  0  0  0  0  0  0  0  0  0
   -6.9635   -0.4026    1.9252 H   0  0  0  0  0  0  0  0  0  0  0  0
   -5.1625    1.3261    2.1460 H   0  0  0  0  0  0  0  0  0  0  0  0
   -2.8902    2.0807    1.7605 H   0  0  0  0  0  0  0  0  0  0  0  0
    0.5208    4.2253    1.7159 H   0  0  0  0  0  0  0  0  0  0  0  0
    2.4354    5.8400    1.9992 H   0  0  0  0  0  0  0  0  0  0  0  0
    4.4515    5.6539    0.5204 H   0  0  0  0  0  0  0  0  0  0  0  0
    4.5563    3.8658   -1.2331 H   0  0  0  0  0  0  0  0  0  0  0  0
    2.6302    2.2598   -1.4991 H   0  0  0  0  0  0  0  0  0  0  0  0
  1  5  1  0  0  0  0
  2 12  1  0  0  0  0
  3  4  1  0  0  0  0
  3 11  1  0  0  0  0
  5 10  1  0  0  0  0
  6  5  2  0  0  0  0
  6  7  1  0  0  0  0
  7  8  2  0  0  0  0
  8  9  1  0  0  0  0
  8 21  1  0  0  0  0
  9 22  1  0  0  0  0
 10 11  1  0  0  0  0
 10  9  2  0  0  0  0
 11 23  1  0  0  0  0
 12 13  1  0  0  0  0
 12  4  2  0  0  0  0
 13 14  1  0  0  0  0
 14 15  2  0  0  0  0
 14 24  1  0  0  0  0
 15 25  1  0  0  0  0
 16 26  1  0  0  0  0
 16 15  1  0  0  0  0
 17 16  2  0  0  0  0
 18 17  1  0  0  0  0
 18 13  2  0  0  0  0
 19  6  1  0  0  0  0
 20  7  1  0  0  0  0
 27 17  1  0  0  0  0
 28 18  1  0  0  0  0
M  CHG  2   1  -1   2  -1
M  END
