1,2,4
q = -2.0, confidence = 0.888

 32 33  0  0  0  0  0  0  0  0999 V2000
    2.2196    0.1694   -0.4168 O   0  5  0  0  0  0  0  0  0  0  0  0
   -1.2258   -0.9829   -1.0374 O   0  5  0  0  0  0  0  0  0  0  0  0
    4.6268    1.2585   -0.5565 O   0  0  0  0  0  0  0  0  0  0  0  0
    0.6004   -1.7683    0.4126 N   0  0  0  0  0  2  0  0  0  0  0  0
   -0.5961   -2.3560    0.6889 N   0  0  0  0  0  0  0  0  0  0  0  0
    3.1911   -0.4247    0.2431 C   0  0  0  0  0  0  0  0  0  0  0  0
    4.5060    0.1440    0.2091 C   0  0  0  0  0  0  0  0  0  0  0  0
    5.5408   -0.4597    0.9368 C   0  0  0  0  0  0  0  0  0  0  0  0
    5.3003   -1.6175    1.7129 C   0  0  0  0  0  0  0  0  0  0  0  0
    4.0293   -2.1747    1.7664 C   0  0  0  0  0  0  0  0  0  0  0  0
    2.9600   -1.5938    1.0276 C   0  0  0  0  0  0  0  0  0  0  0  0
    1.6385   -2.1458    1.1263 C   0  0  0  0  0  3  0  0  0  0  0  0
    5.8975    1.8695   -0.6414 C   0  0  0  0  0  0  0  0  0  0  0  0
   -1.5156   -1.8866   -0.1360 C   0  0  0  0  0  0  0  0  0  0  0  0
   -2.9070   -2.3748   -0.0465 C   0  0  0  0  0  0  0  0  0  0  0  0
   -3.2723   -3.3434    0.9144 C   0  0  0  0  0  0  0  0  0  0  0  0
   -4.5961   -3.7904    0.9890 C   0  0  0  0  0  0  0  0  0  0  0  0
   -5.5666   -3.2788    0.1090 C   0  0  0  0  0  0  0  0  0  0  0  0
   -5.2069   -2.3158   -0.8482 C   0  0  0  0  0  0  0  0  0  0  0  0
   -3.8833   -1.8637   -0.9274 C   0  0  0  0  0  0  0  0  0  0  0  0
    6.5525   -0.0330    0.9085 H   0  0  0  0  0  0  0  0  0  0  0  0
    6.1300   -2.0704    2.2747 H   0  0  0  0  0  0  0  0  0  0  0  0
    3.8314   -3.0725    2.3710 H   0  0  0  0  0  0  0  0  0  0  0  0
    1.4516   -2.9474    1.8641 H   0  0  0  0  0  0  0  0  0  0  0  0
    6.6596    1.1848   -1.0785 H   0  0  0  0  0  0  0  0  0  0  0  0
    5.7801    2.7460   -1.3052 H   0  0  0  0  0  0  0  0  0  0  0  0
    6.2607    2.2147    0.3535 H   0  0  0  0  0  0  0  0  0  0  0  0
   -2.4970   -3.7290    1.5915 H   0  0  0  0  0  0  0  0  0  0  0  0
   -4.8769   -4.5457    1.7389 H   0  0  0  0  0  0  0  0  0  0  0  0
   -6.6069   -3.6335    0.1700 H   0  0  0  0  0  0  0  0  0  0  0  0
   -5.9649   -1.9156   -1.5386 H   0  0  0  0  0  0  0  0  0  0  0  0
   -3.5787   -1.1115   -1.6690 H   0  0  0  0  0  0  0  0  0  0  0  0
  1  6  1  0  0  0  0
  2 14  1  0  0  0  0
  3  7  1  0  0  0  0
  4  5  1  0  0  0  0
  4 12  1  0  0  0  0
  6 11  1  0  0  0  0
  7  6  2  0  0  0  0
  7  8  1  0  0  0  0
  8  9  2  0  0  0  0
  9 10  1  0  0  0  0
  9 22  1  0  0  0  0
 10 23  1  0  0  0  0
 11 12  1  0  0  0  0
 11 10  2  0  0  0  0
 12 24  1  0  0  0  0
 13  3  1  0  0  0  0
 13 27  1  0  0  0  0
 14 15  1  0  0  0  0
 14  5  2  0  0  0  0
 15 16  1  0  0  0  0
 16 17  2  0  0  0  0
 16 28  1  0  0  0  0
 17 29  1  0  0  0  0
 18 30  1  0  0  0  0
 18 17  1  0  0  0  0
 19 18  2  0  0  0  0
 20 19  1  0  0  0  0
 20 15  2  0  0  0  0
 21  8  1  0  0  0  0
 25 13  1  0  0  0  0
 26 13  1  0  0  0  0
 31 19  1  0  0  0  0
 32 20  1  0  0  0  0
M  CHG  2   1  -1   2  -1
M  END
