1,3,4
q = -2.0, confidence = 0.87

 31 32  0  0  0  0  0  0  0  0999 V2000
   -0.9494   -1.6705   -0.0831 N   0  0  0  0  0  2  0  0  0  0  0  0
    0.2817   -2.2299    0.0628 N   0  0  0  0  0  0  0  0  0  0  0  0
   -2.7333    0.2988   -0.1661 O   0  5  0  0  0  0  0  0  0  0  0  0
    0.8834   -0.1345   -0.6437 O   0  5  0  0  0  0  0  0  0  0  0  0
   -3.3595   -1.9867    0.1576 C   0  0  0  0  0  0  0  0  0  0  0  0
   -3.6866   -0.6011   -0.0147 C   0  0  0  0  0  0  0  0  0  0  0  0
   -5.0432   -0.2011    0.0199 C   0  0  0  0  0  0  0  0  0  0  0  0
   -5.2703    0.8666   -0.1077 H   0  0  0  0  0  0  0  0  0  0  0  0
   -6.0519   -1.1490    0.2104 C   0  0  0  0  0  0  0  0  0  0  0  0
   -7.1025   -0.8204    0.2281 H   0  0  0  0  0  0  0  0  0  0  0  0
   -5.7415   -2.5154    0.3811 C   0  0  0  0  0  0  0  0  0  0  0  0
   -6.5436   -3.2521    0.5311 H   0  0  0  0  0  0  0  0  0  0  0  0
   -4.4082   -2.9210    0.3610 C   0  0  0  0  0  0  0  0  0  0  0  0
   -4.1465   -3.9819    0.4989 H   0  0  0  0  0  0  0  0  0  0  0  0
   -1.9919   -2.4230    0.1899 C   0  0  0  0  0  3  0  0  0  0  0  0
   -1.7729   -3.4677    0.4775 H   0  0  0  0  0  0  0  0  0  0  0  0
    1.2076   -1.3443   -0.2619 C   0  0  0  0  0  0  0  0  0  0  0  0
    2.6380   -1.7027   -0.1950 C   0  0  0  0  0  0  0  0  0  0  0  0
    3.0355   -2.9953    0.2116 C   0  0  0  0  0  0  0  0  0  0  0  0
    2.2523   -3.7219    0.4736 H   0  0  0  0  0  0  0  0  0  0  0  0
    4.3920   -3.3486    0.2821 C   0  0  0  0  0  0  0  0  0  0  0  0
    5.3558   -2.3745   -0.0647 C   0  0  0  0  0  0  0  0  0  0  0  0
    6.4258   -2.6335   -0.0153 H   0  0  0  0  0  0  0  0  0  0  0  0
    4.9707   -1.0886   -0.4694 C   0  0  0  0  0  0  0  0  0  0  0  0
    5.7383   -0.3460   -0.7358 H   0  0  0  0  0  0  0  0  0  0  0  0
    3.6139   -0.7454   -0.5369 C   0  0  0  0  0  0  0  0  0  0  0  0
    3.2887    0.2564   -0.8512 H   0  0  0  0  0  0  0  0  0  0  0  0
    4.8187   -4.7303    0.7117 C   0  0  0  0  0  0  0  0  0  0  0  0
    5.3772   -5.2480   -0.0962 H   0  0  0  0  0  0  0  0  0  0  0  0
    3.9488   -5.3601    0.9792 H   0  0  0  0  0  0  0  0  0  0  0  0
    5.4939   -4.6888    1.5917 H   0  0  0  0  0  0  0  0  0  0  0  0
  1  2  1  0  0  0  0
  1 15  1  0  0  0  0
  3  6  1  0  0  0  0
  4 17  1  0  0  0  0
  5 15  1  0  0  0  0
  5 13  1  0  0  0  0
  6  7  1  0  0  0  0
  6  5  2  0  0  0  0
  7  9  2  0  0  0  0
  8  7  1  0  0  0  0
  9 10  1  0  0  0  0
  9 11  1  0  0  0  0
 11 12  1  0  0  0  0
 13 11  2  0  0  0  0
 13 14  1  0  0  0  0
 15 16  1  0  0  0  0
 17 18  1  0  0  0  0
 17  2  2  0  0  0  0
 18 19  1  0  0  0  0
 19 21  2  0  0  0  0
 19 20  1  0  0  0  0
 21 28  1  0  0  0  0
 22 23  1  0  0  0  0
 22 21  1  0  0  0  0
 24 22  2  0  0  0  0
 25 24  1  0  0  0  0
 26 24  1  0  0  0  0
 26 18  2  0  0  0  0
 27 26  1  0  0  0  0
 28 30  1  0  0  0  0
 28 31  1  0  0  0  0
 29 28  1  0  0  0  0
M  CHG  2   3  -1   4  -1
M  END
