2,3,4
q = -2.0, confidence = 0.896

 31 33  0  0  1  0  0  0  0  0999 V2000
    0.1537    5.7746   -0.0451 S   0  0  0  0  0  0  0  0  0  0  0  0
   -0.9912    1.9611    0.0292 O   0  5  0  0  0  0  0  0  0  0  0  0
    1.5584    1.6209   -0.0003 N   0  0  0  0  0  2  0  0  0  0  0  0
    1.3568   -1.2820    0.0189 O   0  5  0  0  0  0  0  0  0  0  0  0
    1.1432    2.9182    0.0016 N   0  0  0  0  0  0  0  0  0  0  0  0
   -0.1791    2.9975    0.0177 C   0  0  0  0  0  0  0  0  0  0  0  0
    3.4398    0.0371   -0.0045 C   0  0  0  0  0  0  0  0  0  0  0  0
    2.8456    1.3414   -0.0112 C   0  0  0  0  0  0  0  0  0  0  0  0
    3.4914    2.2336   -0.0227 H   0  0  0  0  0  0  0  0  0  0  0  0
   -0.8040    4.3188    0.0265 C   0  0  0  0  0  0  0  0  0  0  0  0
   -2.1627    4.6089    0.0903 C   0  0  0  0  0  0  0  0  0  0  0  0
   -2.9210    3.8168    0.1497 H   0  0  0  0  0  0  0  0  0  0  0  0
    2.6674   -1.1762    0.0143 C   0  0  0  0  0  0  0  0  0  0  0  0
    4.9009   -0.0554   -0.0144 C   0  0  1  0  0  3  0  0  0  0  0  0
    5.5390   -1.3461   -0.0002 C   0  0  0  0  0  0  0  0  0  0  0  0
    4.7252   -2.5227    0.0252 C   0  0  0  0  0  0  0  0  0  0  0  0
    5.2208   -3.5063    0.0405 H   0  0  0  0  0  0  0  0  0  0  0  0
   -2.4246    6.0082    0.0798 C   0  0  0  0  0  0  0  0  0  0  0  0
   -3.4296    6.4499    0.1253 H   0  0  0  0  0  0  0  0  0  0  0  0
    3.3552   -2.4406    0.0327 C   0  0  0  0  0  0  0  0  0  0  0  0
    2.7212   -3.3387    0.0583 H   0  0  0  0  0  0  0  0  0  0  0  0
    7.1446    0.9597   -0.0484 C   0  0  0  0  0  0  0  0  0  0  0  0
    7.7652    1.8686   -0.0679 H   0  0  0  0  0  0  0  0  0  0  0  0
    6.9567   -1.4464   -0.0098 C   0  0  0  0  0  0  0  0  0  0  0  0
    7.4076   -2.4513    0.0021 H   0  0  0  0  0  0  0  0  0  0  0  0
    5.7583    1.0825   -0.0389 C   0  0  0  0  0  0  0  0  0  0  0  0
    5.3353    2.0957   -0.0520 H   0  0  0  0  0  0  0  0  0  0  0  0
    7.7592   -0.3136   -0.0336 C   0  0  0  0  0  0  0  0  0  0  0  0
    8.8557   -0.4028   -0.0410 H   0  0  0  0  0  0  0  0  0  0  0  0
   -1.2649    6.7631    0.0083 C   0  0  0  0  0  0  0  0  0  0  0  0
   -1.1693    7.8559   -0.0148 H   0  0  0  0  0  0  0  0  0  0  0  0
  1 30  1  0  0  0  0
  1 10  1  0  0  0  0
  3  5  1  0  0  0  0
  5  6  2  0  0  0  0
  6 10  1  0  0  0  0
  6  2  1  0  0  0  0
  7 13  1  0  0  0  0
  8  7  2  0  0  0  0
  8  3  1  0  0  0  0
  9  8  1  0  0  0  0
 10 11  2  0  0  0  0
 11 12  1  0  0  0  0
 13  4  1  0  0  0  0
 13 20  2  0  0  0  0
 14 26  1  6  0  0  0
 14  7  1  0  0  0  0
 14 15  1  0  0  0  0
 15 16  2  0  0  0  0
 16 20  1  0  0  0  0
 16 17  1  0  0  0  0
 18 11  1  0  0  0  0
 18 19  1  0  0  0  0
 20 21  1  0  0  0  0
 22 26  2  0  0  0  0
 22 28  1  0  0  0  0
 23 22  1  0  0  0  0
 24 15  1  0  0  0  0
 24 25  1  0  0  0  0
 27 26  1  0  0  0  0
 28 24  2  0  0  0  0
 29 28  1  0  0  0  0
 30 18  2  0  0  0  0
 31 30  1  0  0  0  0
M  CHG  2   2  -1   4  -1
M  END
