1,3,5
q = -1.0

 40 42  0  0  1  0  0  0  0  0999 V2000
   -0.9787   -0.6615    0.0178 N   0  0  0  0  0  2  0  0  0  0  0  0
   -4.7470    0.8474   -1.3730 N   0  0  0  0  0  0  0  0  0  0  0  0
    0.7525   -2.3963   -0.3326 O   0  5  0  0  0  0  0  0  0  0  0  0
   -0.5452   -4.1908    0.1496 O   0  0  0  0  0  0  0  0  0  0  0  0
    0.7001    1.2606   -0.7526 O   0  5  0  0  0  0  0  0  0  0  0  0
    1.3901    3.8153   -0.8624 O   0  0  0  0  0  0  0  0  0  0  0  0
   -0.3972   -2.9993   -0.0368 C   0  0  0  0  0  0  0  0  0  0  0  0
   -1.5519   -1.9862    0.0267 C   0  0  2  0  0  0  0  0  0  0  0  0
   -2.1399   -2.1748    0.9517 H   0  0  0  0  0  0  0  0  0  0  0  0
   -2.5391   -2.1773   -1.1936 C   0  0  0  0  0  0  0  0  0  0  0  0
   -1.9532   -2.0673   -2.1282 H   0  0  0  0  0  0  0  0  0  0  0  0
   -2.8929   -3.2264   -1.1214 H   0  0  0  0  0  0  0  0  0  0  0  0
   -3.7179    0.0894   -1.7735 C   0  0  0  0  0  0  0  0  0  0  0  0
   -3.0166    0.4406   -2.5487 H   0  0  0  0  0  0  0  0  0  0  0  0
   -3.6366   -1.1888   -1.1118 C   0  0  0  0  0  0  0  0  0  0  0  0
   -4.7421   -1.1820   -0.1890 C   0  0  0  0  0  0  0  0  0  0  0  0
   -5.3878    0.0953   -0.3920 C   0  0  1  0  0  3  0  0  0  0  0  0
   -6.5105    0.4462    0.3725 C   0  0  0  0  0  0  0  0  0  0  0  0
   -7.0008    1.4182    0.2111 H   0  0  0  0  0  0  0  0  0  0  0  0
   -6.9856   -0.4667    1.3365 C   0  0  0  0  0  0  0  0  0  0  0  0
   -7.8670   -0.2044    1.9420 H   0  0  0  0  0  0  0  0  0  0  0  0
   -6.3552   -1.7132    1.5388 C   0  0  0  0  0  0  0  0  0  0  0  0
   -6.7527   -2.4058    2.2962 H   0  0  0  0  0  0  0  0  0  0  0  0
   -5.2301   -2.0827    0.7789 C   0  0  0  0  0  0  0  0  0  0  0  0
   -4.7513   -3.0634    0.9362 H   0  0  0  0  0  0  0  0  0  0  0  0
   -1.7409    0.3457    0.3928 C   0  0  0  0  0  3  0  0  0  0  0  0
   -2.7208    0.1068    0.8480 H   0  0  0  0  0  0  0  0  0  0  0  0
   -1.3816    1.7343    0.3349 C   0  0  0  0  0  0  0  0  0  0  0  0
   -0.1355    2.1321   -0.2430 C   0  0  0  0  0  0  0  0  0  0  0  0
    0.1810    3.5309   -0.3135 C   0  0  0  0  0  0  0  0  0  0  0  0
   -0.7365    4.4726    0.1690 C   0  0  0  0  0  0  0  0  0  0  0  0
   -0.5014    5.5443    0.1167 H   0  0  0  0  0  0  0  0  0  0  0  0
   -1.9777    4.0642    0.7130 C   0  0  0  0  0  0  0  0  0  0  0  0
   -2.6875    4.8274    1.0628 H   0  0  0  0  0  0  0  0  0  0  0  0
   -2.3018    2.7164    0.7950 C   0  0  0  0  0  0  0  0  0  0  0  0
   -3.2743    2.3881    1.1898 H   0  0  0  0  0  0  0  0  0  0  0  0
    1.7493    5.1751   -1.0036 C   0  0  0  0  0  0  0  0  0  0  0  0
    1.0291    5.7295   -1.6468 H   0  0  0  0  0  0  0  0  0  0  0  0
    2.7452    5.1883   -1.4840 H   0  0  0  0  0  0  0  0  0  0  0  0
    1.8156    5.6920   -0.0191 H   0  0  0  0  0  0  0  0  0  0  0  0
  1  8  1  0  0  0  0
  1 26  1  0  0  0  0
  3  7  1  0  0  0  0
  5 29  1  0  0  0  0
  6 30  1  0  0  0  0
  7  8  1  0  0  0  0
  7  4  2  0  0  0  0
  8  9  1  1  0  0  0
 10 12  1  0  0  0  0
 10 15  1  0  0  0  0
 10  8  1  0  0  0  0
 11 10  1  0  0  0  0
 13  2  2  0  0  0  0
 13 15  1  0  0  0  0
 14 13  1  0  0  0  0
 15 16  2  0  0  0  0
 16 24  1  0  0  0  0
 17  2  1  1  0  0  0
 17 16  1  0  0  0  0
 17 18  1  0  0  0  0
 18 20  2  0  0  0  0
 19 18  1  0  0  0  0
 20 22  1  0  0  0  0
 20 21  1  0  0  0  0
 22 23  1  0  0  0  0
 24 25  1  0  0  0  0
 24 22  2  0  0  0  0
 26 27  1  0  0  0  0
 28 26  1  0  0  0  0
 28 35  1  0  0  0  0
 29 28  2  0  0  0  0
 30 29  1  0  0  0  0
 30 31  2  0  0  0  0
 31 33  1  0  0  0  0
 32 31  1  0  0  0  0
 33 35  2  0  0  0  0
 33 34  1  0  0  0  0
 35 36  1  0  0  0  0
 37  6  1  0  0  0  0
 37 40  1  0  0  0  0
 38 37  1  0  0  0  0
 39 37  1  0  0  0  0
M  CHG  2   3  -1   5  -1
M  END
