1,2,7
q = -2.0, confidence = 0.818

 51 53  0  0  0  0  0  0  0  0999 V2000
    3.2066    0.4916   -0.1379 O   0  5  0  0  0  0  0  0  0  0  0  0
   -0.4739    2.0894    0.0068 O   0  5  0  0  0  0  0  0  0  0  0  0
   -3.6561    0.4100    0.0143 O   0  0  0  0  0  0  0  0  0  0  0  0
   -9.1694   -3.7757   -0.0209 O   0  0  0  0  0  0  0  0  0  0  0  0
  -10.5217   -2.0595    0.0904 O   0  0  0  0  0  0  0  0  0  0  0  0
    6.4406   -3.0032   -0.3854 N   0  0  0  0  0  0  0  0  0  0  0  0
    0.3978   -0.3224   -0.1107 N   0  0  0  0  0  2  0  0  0  0  0  0
   -0.9615   -0.1993   -0.0750 N   0  0  0  0  0  0  0  0  0  0  0  0
   -9.3978   -2.5652    0.0378 N   0  0  0  0  0  0  0  0  0  0  0  0
    6.8094   -5.0785    1.0035 C   0  0  0  0  0  0  0  0  0  0  0  0
    7.5437   -4.6028    1.6832 H   0  0  0  0  0  0  0  0  0  0  0  0
    7.0696   -6.1533    0.9183 H   0  0  0  0  0  0  0  0  0  0  0  0
    5.8115   -5.0036    1.4795 H   0  0  0  0  0  0  0  0  0  0  0  0
    6.8128   -4.4138   -0.3782 C   0  0  0  0  0  0  0  0  0  0  0  0
    6.1423   -4.9690   -1.0677 H   0  0  0  0  0  0  0  0  0  0  0  0
    7.8252   -4.4862   -0.8262 H   0  0  0  0  0  0  0  0  0  0  0  0
    7.8524   -1.5233    1.0924 C   0  0  0  0  0  0  0  0  0  0  0  0
    6.9622   -1.0882    1.5882 H   0  0  0  0  0  0  0  0  0  0  0  0
    8.6394   -0.7429    1.0513 H   0  0  0  0  0  0  0  0  0  0  0  0
    8.2251   -2.3489    1.7304 H   0  0  0  0  0  0  0  0  0  0  0  0
    7.5120   -2.0169   -0.3192 C   0  0  0  0  0  0  0  0  0  0  0  0
    8.4100   -2.4746   -0.7833 H   0  0  0  0  0  0  0  0  0  0  0  0
    7.2436   -1.1555   -0.9674 H   0  0  0  0  0  0  0  0  0  0  0  0
    5.1144   -2.6118   -0.3101 C   0  0  0  0  0  0  0  0  0  0  0  0
    4.0570   -3.5835   -0.3212 C   0  0  0  0  0  0  0  0  0  0  0  0
    4.2765   -4.6565   -0.3629 H   0  0  0  0  0  0  0  0  0  0  0  0
    2.7386   -3.1726   -0.2793 C   0  0  0  0  0  3  0  0  0  0  0  0
    1.9441   -3.9353   -0.2914 H   0  0  0  0  0  0  0  0  0  0  0  0
    2.3443   -1.8034   -0.2166 C   0  0  0  0  0  0  0  0  0  0  0  0
    3.4005   -0.8095   -0.1967 C   0  0  0  0  0  0  0  0  0  0  0  0
    4.7472   -1.2501   -0.2374 C   0  0  0  0  0  0  0  0  0  0  0  0
    5.5011   -0.4549   -0.2073 H   0  0  0  0  0  0  0  0  0  0  0  0
    0.9478   -1.5211   -0.1724 C   0  0  0  0  0  0  0  0  0  0  0  0
    0.2341   -2.3641   -0.1912 H   0  0  0  0  0  0  0  0  0  0  0  0
   -1.3149    1.0724   -0.0150 C   0  0  0  0  0  0  0  0  0  0  0  0
   -2.7321    1.4114    0.0328 C   0  0  0  0  0  0  0  0  0  0  0  0
   -3.3735    2.6425    0.0996 C   0  0  0  0  0  0  0  0  0  0  0  0
   -2.8759    3.6163    0.1275 H   0  0  0  0  0  0  0  0  0  0  0  0
   -4.7665    2.3655    0.1230 C   0  0  0  0  0  0  0  0  0  0  0  0
   -5.5831    3.0933    0.1734 H   0  0  0  0  0  0  0  0  0  0  0  0
   -4.9000    0.9799    0.0691 C   0  0  0  0  0  0  0  0  0  0  0  0
   -6.0400    0.0842    0.0610 C   0  0  0  0  0  0  0  0  0  0  0  0
   -7.3636    0.5932    0.1185 C   0  0  0  0  0  0  0  0  0  0  0  0
   -7.5308    1.6787    0.1700 H   0  0  0  0  0  0  0  0  0  0  0  0
   -8.4600   -0.2673    0.1112 C   0  0  0  0  0  0  0  0  0  0  0  0
   -9.4929    0.1020    0.1551 H   0  0  0  0  0  0  0  0  0  0  0  0
   -8.2391   -1.6523    0.0456 C   0  0  0  0  0  0  0  0  0  0  0  0
   -6.9431   -2.1871   -0.0125 C   0  0  0  0  0  0  0  0  0  0  0  0
   -6.8224   -3.2773   -0.0628 H   0  0  0  0  0  0  0  0  0  0  0  0
   -5.8497   -1.3212   -0.0047 C   0  0  0  0  0  0  0  0  0  0  0  0
   -4.8260   -1.7180   -0.0494 H   0  0  0  0  0  0  0  0  0  0  0  0
  3 36  1  0  0  0  0
  3 41  1  0  0  0  0
  4  9  2  0  0  0  0
  6 14  1  0  0  0  0
  6 21  1  0  0  0  0
  6 24  1  0  0  0  0
  7  8  1  0  0  0  0
  8 35  2  0  0  0  0
  9 47  1  0  0  0  0
  9  5  2  0  0  0  0
 10 13  1  0  0  0  0
 10 11  1  0  0  0  0
 12 10  1  0  0  0  0
 14 10  1  0  0  0  0
 15 14  1  0  0  0  0
 16 14  1  0  0  0  0
 17 18  1  0  0  0  0
 17 20  1  0  0  0  0
 19 17  1  0  0  0  0
 21 17  1  0  0  0  0
 22 21  1  0  0  0  0
 23 21  1  0  0  0  0
 24 31  1  0  0  0  0
 25 24  2  0  0  0  0
 25 27  1  0  0  0  0
 26 25  1  0  0  0  0
 27 29  1  0  0  0  0
 28 27  1  0  0  0  0
 29 30  1  0  0  0  0
 29 33  2  0  0  0  0
 30  1  1  0  0  0  0
 31 32  1  0  0  0  0
 31 30  2  0  0  0  0
 33  7  1  0  0  0  0
 34 33  1  0  0  0  0
 35  2  1  0  0  0  0
 35 36  1  0  0  0  0
 36 37  2  0  0  0  0
 37 39  1  0  0  0  0
 37 38  1  0  0  0  0
 39 40  1  0  0  0  0
 41 39  2  0  0  0  0
 42 41  1  0  0  0  0
 42 43  1  0  0  0  0
 43 44  1  0  0  0  0
 45 43  2  0  0  0  0
 45 46  1  0  0  0  0
 47 45  1  0  0  0  0
 48 50  1  0  0  0  0
 48 47  2  0  0  0  0
 49 48  1  0  0  0  0
 50 42  2  0  0  0  0
 51 50  1  0  0  0  0
M  CHG  2   1  -1   2  -1
M  END
