1,2,3
q = -2.0, confidence = 0.902

 27 27  0  0  0  0  0  0  0  0999 V2000
   -2.6032   -0.1875   -0.2423 O   0  0  0  0  0  1  0  0  0  0  0  0
    1.0219   -1.2203   -0.1045 O   0  5  0  0  0  0  0  0  0  0  0  0
   -0.4111    1.1468   -0.0730 N   0  0  0  0  0  2  0  0  0  0  0  0
   -2.7264    1.1573   -0.6130 C   0  0  0  0  0  0  0  0  0  0  0  0
   -3.7332    1.5327   -0.3253 H   0  0  0  0  0  0  0  0  0  0  0  0
   -2.6104    1.2689   -1.7188 H   0  0  0  0  0  0  0  0  0  0  0  0
   -1.6271    1.9819    0.1005 C   0  0  0  0  0  0  0  0  0  0  0  0
   -1.9269    2.0717    1.6081 C   0  0  0  0  0  0  0  0  0  0  0  0
   -2.0318    1.0582    2.0393 H   0  0  0  0  0  0  0  0  0  0  0  0
   -2.8641    2.6388    1.7769 H   0  0  0  0  0  0  0  0  0  0  0  0
   -1.1025    2.5975    2.1321 H   0  0  0  0  0  0  0  0  0  0  0  0
   -1.5196    3.3729   -0.5316 C   0  0  0  0  0  0  0  0  0  0  0  0
   -0.8324    4.0390    0.0276 H   0  0  0  0  0  0  0  0  0  0  0  0
   -2.5151    3.8595   -0.5206 H   0  0  0  0  0  0  0  0  0  0  0  0
   -1.1769    3.3108   -1.5838 H   0  0  0  0  0  0  0  0  0  0  0  0
    0.7713    1.6822   -0.0370 C   0  0  0  0  0  3  0  0  0  0  0  0
    0.8619    2.7826    0.0790 H   0  0  0  0  0  0  0  0  0  0  0  0
    2.0278    0.9751   -0.1181 C   0  0  0  0  0  0  0  0  0  0  0  0
    2.0964   -0.4569   -0.1399 C   0  0  0  0  0  0  0  0  0  0  0  0
    3.3727   -1.0760   -0.1653 C   0  0  0  0  0  0  0  0  0  0  0  0
    3.4054   -2.1746   -0.1793 H   0  0  0  0  0  0  0  0  0  0  0  0
    4.5364   -0.3073   -0.1847 C   0  0  0  0  0  0  0  0  0  0  0  0
    5.5145   -0.8120   -0.2151 H   0  0  0  0  0  0  0  0  0  0  0  0
    4.4767    1.1040   -0.1667 C   0  0  0  0  0  0  0  0  0  0  0  0
    5.3996    1.7008   -0.1818 H   0  0  0  0  0  0  0  0  0  0  0  0
    3.2323    1.7269   -0.1280 C   0  0  0  0  0  0  0  0  0  0  0  0
    3.1624    2.8265   -0.1068 H   0  0  0  0  0  0  0  0  0  0  0  0
  3 16  1  0  0  0  0
  3  7  1  0  0  0  0
  4  5  1  0  0  0  0
  4  1  1  0  0  0  0
  4  7  1  0  0  0  0
  6  4  1  0  0  0  0
  7  8  1  0  0  0  0
  8 10  1  0  0  0  0
  8  9  1  0  0  0  0
  8 11  1  0  0  0  0
 12 14  1  0  0  0  0
 12 13  1  0  0  0  0
 12  7  1  0  0  0  0
 15 12  1  0  0  0  0
 16 17  1  0  0  0  0
 18 16  1  0  0  0  0
 19 18  2  0  0  0  0
 19  2  1  0  0  0  0
 20 19  1  0  0  0  0
 21 20  1  0  0  0  0
 22 24  1  0  0  0  0
 22 20  2  0  0  0  0
 23 22  1  0  0  0  0
 24 26  2  0  0  0  0
 25 24  1  0  0  0  0
 26 18  1  0  0  0  0
 26 27  1  0  0  0  0
M  CHG  1   2  -1
M  END
