1,3,4
q = -2.0, confidence = 0.842

 36 37  0  0  0  0  0  0  0  0999 V2000
   -0.4510   -1.8394   -0.0241 N   0  0  0  0  0  2  0  0  0  0  0  0
    0.8295   -2.2611    0.1645 N   0  0  0  0  0  0  0  0  0  0  0  0
   -2.4307   -0.0772   -0.2191 O   0  5  0  0  0  0  0  0  0  0  0  0
    1.2129   -0.1528   -0.6450 O   0  5  0  0  0  0  0  0  0  0  0  0
   -6.9369   -1.6584    0.2188 O   0  0  0  0  0  0  0  0  0  0  0  0
    7.2407   -2.1273    0.1888 O   0  0  0  0  0  0  0  0  0  0  0  0
   -2.8158   -2.3949    0.2144 C   0  0  0  0  0  0  0  0  0  0  0  0
   -3.2858   -1.0627   -0.0295 C   0  0  0  0  0  0  0  0  0  0  0  0
   -4.6724   -0.7902   -0.0274 C   0  0  0  0  0  0  0  0  0  0  0  0
   -4.9827    0.2449   -0.2138 H   0  0  0  0  0  0  0  0  0  0  0  0
   -5.5912   -1.8267    0.2074 C   0  0  0  0  0  0  0  0  0  0  0  0
   -5.1374   -3.1502    0.4548 C   0  0  0  0  0  0  0  0  0  0  0  0
   -5.8841   -3.9348    0.6370 H   0  0  0  0  0  0  0  0  0  0  0  0
   -3.7762   -3.4134    0.4618 C   0  0  0  0  0  0  0  0  0  0  0  0
   -3.4182   -4.4362    0.6574 H   0  0  0  0  0  0  0  0  0  0  0  0
   -7.4603   -0.3644   -0.0240 C   0  0  0  0  0  0  0  0  0  0  0  0
   -7.1212    0.3676    0.7422 H   0  0  0  0  0  0  0  0  0  0  0  0
   -8.5607   -0.4581    0.0271 H   0  0  0  0  0  0  0  0  0  0  0  0
   -7.1730    0.0137   -1.0302 H   0  0  0  0  0  0  0  0  0  0  0  0
   -1.4161   -2.6833    0.2765 C   0  0  0  0  0  3  0  0  0  0  0  0
   -1.0925   -3.6850    0.6142 H   0  0  0  0  0  0  0  0  0  0  0  0
    1.6632   -1.3031   -0.1963 C   0  0  0  0  0  0  0  0  0  0  0  0
    3.1169   -1.5018   -0.1023 C   0  0  0  0  0  0  0  0  0  0  0  0
    3.9967   -0.4744   -0.4944 C   0  0  0  0  0  0  0  0  0  0  0  0
    3.5705    0.4671   -0.8696 H   0  0  0  0  0  0  0  0  0  0  0  0
    5.3852   -0.6418   -0.4136 C   0  0  0  0  0  0  0  0  0  0  0  0
    6.0460    0.1765   -0.7288 H   0  0  0  0  0  0  0  0  0  0  0  0
    5.9138   -1.8582    0.0690 C   0  0  0  0  0  0  0  0  0  0  0  0
    5.0353   -2.8945    0.4659 C   0  0  0  0  0  0  0  0  0  0  0  0
    5.4731   -3.8320    0.8380 H   0  0  0  0  0  0  0  0  0  0  0  0
    3.6580   -2.7181    0.3805 C   0  0  0  0  0  0  0  0  0  0  0  0
    2.9662   -3.5160    0.6854 H   0  0  0  0  0  0  0  0  0  0  0  0
    8.1695   -1.1319   -0.1973 C   0  0  0  0  0  0  0  0  0  0  0  0
    8.0713   -0.8682   -1.2743 H   0  0  0  0  0  0  0  0  0  0  0  0
    9.1751   -1.5568   -0.0217 H   0  0  0  0  0  0  0  0  0  0  0  0
    8.0584   -0.2038    0.4073 H   0  0  0  0  0  0  0  0  0  0  0  0
  1  2  1  0  0  0  0
  1 20  1  0  0  0  0
  3  8  1  0  0  0  0
  4 22  1  0  0  0  0
  7 20  1  0  0  0  0
  7 14  1  0  0  0  0
  8  9  1  0  0  0  0
  8  7  2  0  0  0  0
  9 11  2  0  0  0  0
 10  9  1  0  0  0  0
 11  5  1  0  0  0  0
 11 12  1  0  0  0  0
 12 14  2  0  0  0  0
 12 13  1  0  0  0  0
 14 15  1  0  0  0  0
 16 18  1  0  0  0  0
 16  5  1  0  0  0  0
 16 17  1  0  0  0  0
 19 16  1  0  0  0  0
 20 21  1  0  0  0  0
 22 23  1  0  0  0  0
 22  2  2  0  0  0  0
 23 31  1  0  0  0  0
 24 26  1  0  0  0  0
 24 23  2  0  0  0  0
 25 24  1  0  0  0  0
 26 28  2  0  0  0  0
 27 26  1  0  0  0  0
 28  6  1  0  0  0  0
 28 29  1  0  0  0  0
 29 30  1  0  0  0  0
 31 29  2  0  0  0  0
 31 32  1  0  0  0  0
 33 35  1  0  0  0  0
 33  6  1  0  0  0  0
 33 36  1  0  0  0  0
 34 33  1  0  0  0  0
M  CHG  2   3  -1   4  -1
M  END
