1,2,5
q = -2.0, confidence = 0.932

 35 36  0  0  1  0  0  0  0  0999 V2000
   -3.8613    0.5712   -0.4995 O   0  5  0  0  0  0  0  0  0  0  0  0
   -0.2898    0.9022   -0.1442 O   0  5  0  0  0  0  0  0  0  0  0  0
    1.5918   -2.8621    0.0507 O   0  0  0  0  0  0  0  0  0  0  0  0
    0.6210   -2.5684    0.0254 H   0  0  0  0  0  0  0  0  0  0  0  0
   -1.8176   -1.0239    0.0033 N   0  0  0  0  0  2  0  0  0  0  0  0
   -0.5014   -1.3673   -0.0252 N   0  0  0  0  0  0  0  0  0  0  0  0
   -6.0975   -0.2222   -0.5108 C   0  0  0  0  0  0  0  0  0  0  0  0
   -6.2773    0.2129   -1.5155 H   0  0  0  0  0  0  0  0  0  0  0  0
   -6.4419    0.5305    0.2286 H   0  0  0  0  0  0  0  0  0  0  0  0
   -6.6970   -1.1435   -0.3984 H   0  0  0  0  0  0  0  0  0  0  0  0
   -4.6303   -0.4804   -0.3239 C   0  0  0  0  0  0  0  0  0  0  0  0
   -4.1108   -1.7304   -0.0275 C   0  0  0  0  0  0  0  0  0  0  0  0
   -4.8054   -2.5746    0.0695 H   0  0  0  0  0  0  0  0  0  0  0  0
   -2.7124   -2.0104    0.0477 C   0  0  1  0  0  3  0  0  0  0  0  0
   -2.2359   -3.4323    0.1514 C   0  0  0  0  0  0  0  0  0  0  0  0
   -1.5616   -3.5519    1.0238 H   0  0  0  0  0  0  0  0  0  0  0  0
   -1.6362   -3.7046   -0.7418 H   0  0  0  0  0  0  0  0  0  0  0  0
   -3.0841   -4.1339    0.2425 H   0  0  0  0  0  0  0  0  0  0  0  0
    0.2647   -0.2838   -0.0706 C   0  0  0  0  0  0  0  0  0  0  0  0
    1.7208   -0.4284   -0.0588 C   0  0  0  0  0  0  0  0  0  0  0  0
    2.3296   -1.7441    0.0062 C   0  0  0  0  0  0  0  0  0  0  0  0
    3.7227   -1.8382    0.0206 C   0  0  0  0  0  0  0  0  0  0  0  0
    4.1718   -2.8409    0.0700 H   0  0  0  0  0  0  0  0  0  0  0  0
    4.5501   -0.6878   -0.0258 C   0  0  0  0  0  0  0  0  0  0  0  0
    5.9762   -0.7715   -0.0109 C   0  0  0  0  0  0  0  0  0  0  0  0
    6.4459   -1.7661    0.0389 H   0  0  0  0  0  0  0  0  0  0  0  0
    6.7574    0.3726   -0.0578 C   0  0  0  0  0  0  0  0  0  0  0  0
    7.8549    0.2862   -0.0451 H   0  0  0  0  0  0  0  0  0  0  0  0
    6.1567    1.6621   -0.1221 C   0  0  0  0  0  0  0  0  0  0  0  0
    6.7918    2.5599   -0.1587 H   0  0  0  0  0  0  0  0  0  0  0  0
    4.7767    1.7811   -0.1383 C   0  0  0  0  0  0  0  0  0  0  0  0
    4.2995    2.7725   -0.1879 H   0  0  0  0  0  0  0  0  0  0  0  0
    3.9413    0.6242   -0.0913 C   0  0  0  0  0  0  0  0  0  0  0  0
    2.5288    0.7106   -0.1065 C   0  0  0  0  0  0  0  0  0  0  0  0
    2.0382    1.6941   -0.1550 H   0  0  0  0  0  0  0  0  0  0  0  0
  1 11  1  0  0  0  0
  2 19  1  0  0  0  0
  4  3  1  0  0  0  0
  5 14  1  0  0  0  0
  6  5  1  0  0  0  0
  7 10  1  0  0  0  0
  7 11  1  0  0  0  0
  7  9  1  0  0  0  0
  8  7  1  0  0  0  0
 11 12  2  0  0  0  0
 12 13  1  0  0  0  0
 14 12  1  6  0  0  0
 14 15  1  0  0  0  0
 15 18  1  0  0  0  0
 15 16  1  0  0  0  0
 17 15  1  0  0  0  0
 19 20  1  0  0  0  0
 19  6  2  0  0  0  0
 20 21  1  0  0  0  0
 21 22  2  0  0  0  0
 21  3  1  0  0  0  0
 22 23  1  0  0  0  0
 24 25  1  0  0  0  0
 24 22  1  0  0  0  0
 25 26  1  0  0  0  0
 27 28  1  0  0  0  0
 27 25  2  0  0  0  0
 29 27  1  0  0  0  0
 30 29  1  0  0  0  0
 31 29  2  0  0  0  0
 31 33  1  0  0  0  0
 32 31  1  0  0  0  0
 33 24  2  0  0  0  0
 34 33  1  0  0  0  0
 34 20  2  0  0  0  0
 35 34  1  0  0  0  0
M  CHG  2   1  -1   2  -1
M  END
