2,6,7
q = -2.0, confidence = 0.818

 60 62  0  0  1  0  0  0  0  0999 V2000
    9.1066   -1.5511   -0.2073 N   0  0  0  0  0  0  0  0  0  0  0  0
    2.5041   -1.1310   -0.1403 N   0  0  0  0  0  2  0  0  0  0  0  0
    1.1879   -1.4853   -0.1336 N   0  0  0  0  0  0  0  0  0  0  0  0
  -11.9629   -1.4088    0.0424 N   0  0  0  0  0  0  0  0  0  0  0  0
   -8.3750    1.8995    0.4497 N   0  0  0  0  0  0  0  0  0  0  0  0
    4.8563    0.6078   -0.1525 O   0  0  0  0  0  1  0  0  0  0  0  0
    0.8499    0.8202   -0.1326 O   0  5  0  0  0  0  0  0  0  0  0  0
  -12.2998   -2.5772   -0.1587 O   0  0  0  0  0  0  0  0  0  0  0  0
  -12.7312   -0.4730    0.2662 O   0  0  0  0  0  0  0  0  0  0  0  0
   -9.1507    2.5400    1.1576 O   0  0  0  0  0  0  0  0  0  0  0  0
   -7.3630    2.3655   -0.0794 O   0  0  0  0  0  0  0  0  0  0  0  0
   10.1281   -3.3145    1.2815 C   0  0  0  0  0  0  0  0  0  0  0  0
   10.7468   -4.2345    1.2505 H   0  0  0  0  0  0  0  0  0  0  0  0
    9.1516   -3.5726    1.7373 H   0  0  0  0  0  0  0  0  0  0  0  0
   10.6306   -2.5880    1.9502 H   0  0  0  0  0  0  0  0  0  0  0  0
    9.9445   -2.7431   -0.1293 C   0  0  0  0  0  0  0  0  0  0  0  0
    9.5302   -3.5222   -0.8035 H   0  0  0  0  0  0  0  0  0  0  0  0
   10.9326   -2.4754   -0.5570 H   0  0  0  0  0  0  0  0  0  0  0  0
    9.8789    0.3814    1.2201 C   0  0  0  0  0  0  0  0  0  0  0  0
   10.3488    1.3839    1.1534 H   0  0  0  0  0  0  0  0  0  0  0  0
   10.4972   -0.2392    1.8984 H   0  0  0  0  0  0  0  0  0  0  0  0
    8.8807    0.5000    1.6859 H   0  0  0  0  0  0  0  0  0  0  0  0
    9.7677   -0.2520   -0.1722 C   0  0  0  0  0  0  0  0  0  0  0  0
    9.2340    0.4372   -0.8608 H   0  0  0  0  0  0  0  0  0  0  0  0
   10.7803   -0.3862   -0.6054 H   0  0  0  0  0  0  0  0  0  0  0  0
    7.7258   -1.6421   -0.1689 C   0  0  0  0  0  0  0  0  0  0  0  0
    7.0716   -2.9211   -0.1560 C   0  0  0  0  0  0  0  0  0  0  0  0
    7.6510   -3.8514   -0.1500 H   0  0  0  0  0  0  0  0  0  0  0  0
    5.6923   -2.9933   -0.1522 C   0  0  0  0  0  0  0  0  0  0  0  0
    5.2125   -3.9847   -0.1457 H   0  0  0  0  0  0  0  0  0  0  0  0
    4.8456   -1.8451   -0.1525 C   0  0  0  0  0  0  0  0  0  0  0  0
    5.4909   -0.5450   -0.1562 C   0  0  2  0  0  3  0  0  0  0  0  0
    6.9075   -0.4914   -0.1582 C   0  0  0  0  0  0  0  0  0  0  0  0
    7.3378    0.5166   -0.1485 H   0  0  0  0  0  0  0  0  0  0  0  0
    3.4381   -2.0652   -0.1438 C   0  0  0  0  0  0  0  0  0  0  0  0
    3.0629   -3.1042   -0.1406 H   0  0  0  0  0  0  0  0  0  0  0  0
    0.4020   -0.4199   -0.1300 C   0  0  0  0  0  0  0  0  0  0  0  0
   -1.0600   -0.6241   -0.1225 C   0  0  0  0  0  0  0  0  0  0  0  0
   -1.6162   -1.9242   -0.1168 C   0  0  0  0  0  0  0  0  0  0  0  0
   -0.9342   -2.7855   -0.1186 H   0  0  0  0  0  0  0  0  0  0  0  0
   -2.9987   -2.0957   -0.1091 C   0  0  0  0  0  0  0  0  0  0  0  0
   -3.4213   -3.1130   -0.1046 H   0  0  0  0  0  0  0  0  0  0  0  0
   -3.8850   -0.9850   -0.1065 C   0  0  0  0  0  0  0  0  0  0  0  0
   -3.3139    0.3155   -0.1133 C   0  0  0  0  0  0  0  0  0  0  0  0
   -3.9670    1.2005   -0.1138 H   0  0  0  0  0  0  0  0  0  0  0  0
   -1.9326    0.4907   -0.1209 C   0  0  0  0  0  0  0  0  0  0  0  0
   -1.4963    1.4988   -0.1265 H   0  0  0  0  0  0  0  0  0  0  0  0
   -5.3186   -1.2263   -0.0981 C   0  0  0  0  0  0  0  0  0  0  0  0
   -5.5992   -2.2935   -0.1040 H   0  0  0  0  0  0  0  0  0  0  0  0
   -6.2987   -0.2716   -0.0693 C   0  0  0  0  0  0  0  0  0  0  0  0
   -6.0105    0.7856   -0.0427 H   0  0  0  0  0  0  0  0  0  0  0  0
   -7.7301   -0.5317   -0.0568 C   0  0  0  0  0  0  0  0  0  0  0  0
   -8.2427   -1.8455   -0.2741 C   0  0  0  0  0  0  0  0  0  0  0  0
   -7.5332   -2.6566   -0.4867 H   0  0  0  0  0  0  0  0  0  0  0  0
   -9.5994   -2.1434   -0.2500 C   0  0  0  0  0  0  0  0  0  0  0  0
   -9.9779   -3.1575   -0.4336 H   0  0  0  0  0  0  0  0  0  0  0  0
  -10.5168   -1.1113    0.0132 C   0  0  0  0  0  0  0  0  0  0  0  0
  -10.0857    0.1916    0.2505 C   0  0  0  0  0  0  0  0  0  0  0  0
  -10.8097    0.9835    0.4777 H   0  0  0  0  0  0  0  0  0  0  0  0
   -8.7164    0.4758    0.1975 C   0  0  0  0  0  0  0  0  0  0  0  0
  1 23  1  0  0  0  0
  1 26  1  0  0  0  0
  1 16  1  0  0  0  0
  2  3  1  0  0  0  0
  3 37  2  0  0  0  0
  4  9  2  0  0  0  0
  5 10  2  0  0  0  0
  7 37  1  0  0  0  0
  8  4  2  0  0  0  0
 11  5  2  0  0  0  0
 12 14  1  0  0  0  0
 12 15  1  0  0  0  0
 13 12  1  0  0  0  0
 16 12  1  0  0  0  0
 17 16  1  0  0  0  0
 18 16  1  0  0  0  0
 19 22  1  0  0  0  0
 19 21  1  0  0  0  0
 20 19  1  0  0  0  0
 23 19  1  0  0  0  0
 24 23  1  0  0  0  0
 25 23  1  0  0  0  0
 26 33  2  0  0  0  0
 26 27  1  0  0  0  0
 27 29  2  0  0  0  0
 27 28  1  0  0  0  0
 29 30  1  0  0  0  0
 31 29  1  0  0  0  0
 31 35  2  0  0  0  0
 32  6  1  1  0  0  0
 32 31  1  0  0  0  0
 33 32  1  0  0  0  0
 33 34  1  0  0  0  0
 35 36  1  0  0  0  0
 35  2  1  0  0  0  0
 37 38  1  0  0  0  0
 38 46  2  0  0  0  0
 38 39  1  0  0  0  0
 39 41  2  0  0  0  0
 40 39  1  0  0  0  0
 41 43  1  0  0  0  0
 41 42  1  0  0  0  0
 43 48  1  0  0  0  0
 44 43  2  0  0  0  0
 45 44  1  0  0  0  0
 46 44  1  0  0  0  0
 47 46  1  0  0  0  0
 48 50  2  0  0  0  0
 49 48  1  0  0  0  0
 50 52  1  0  0  0  0
 50 51  1  0  0  0  0
 52 60  1  0  0  0  0
 53 55  1  0  0  0  0
 53 52  2  0  0  0  0
 54 53  1  0  0  0  0
 55 57  2  0  0  0  0
 56 55  1  0  0  0  0
 57  4  1  0  0  0  0
 57 58  1  0  0  0  0
 58 59  1  0  0  0  0
 60 58  2  0  0  0  0
 60  5  1  0  0  0  0
M  CHG  1   7  -1
M  END
