18,23,25
q = 0.0, confidence = 1.0

 26 27  0  0  1  0  0  0  0  0999 V2000
    1.5367   -0.3882    0.2301 C   0  0  0  0  0  0  0  0  0  0  0  0
    2.9674   -0.1263    0.4517 C   0  0  0  0  0  0  0  0  0  0  0  0
    3.3916    1.0163    1.1687 C   0  0  0  0  0  0  0  0  0  0  0  0
    2.6132    1.6939    1.5488 H   0  0  0  0  0  0  0  0  0  0  0  0
    4.7502    1.2562    1.3646 C   0  0  0  0  0  0  0  0  0  0  0  0
    5.0768    2.1480    1.9188 H   0  0  0  0  0  0  0  0  0  0  0  0
    5.7122    0.3583    0.8488 C   0  0  0  0  0  0  0  0  0  0  0  0
    6.7835    0.5534    1.0055 H   0  0  0  0  0  0  0  0  0  0  0  0
    5.3203   -0.7771    0.1361 C   0  0  0  0  0  0  0  0  0  0  0  0
    6.0475   -1.4895   -0.2776 H   0  0  0  0  0  0  0  0  0  0  0  0
    3.9485   -1.0049   -0.0554 C   0  0  1  0  0  3  0  0  0  0  0  0
    2.2975   -2.3764   -0.9888 C   0  0  0  0  0  0  0  0  0  0  0  0
    2.1618   -3.3027   -1.5684 H   0  0  0  0  0  0  0  0  0  0  0  0
    1.2439   -1.5903   -0.5708 C   0  0  0  0  0  0  0  0  0  0  0  0
   -0.0984   -2.0321   -0.9143 C   0  0  0  0  0  3  0  0  0  0  0  0
   -0.1926   -3.0452   -1.3630 H   0  0  0  0  0  0  0  0  0  0  0  0
   -3.4385   -0.8822   -0.9337 C   0  0  2  0  0  3  0  0  0  0  0  0
   -1.1516   -1.2989   -0.7447 N   0  0  0  0  0  2  0  0  0  0  0  0
   -2.3597   -1.7586   -1.0890 N   0  0  0  0  0  0  0  0  0  0  0  0
   -4.6698   -1.4513   -1.0646 N   0  0  0  0  0  0  0  0  0  0  0  0
   -5.4474   -0.8217   -0.8596 H   0  0  0  0  0  0  0  0  0  0  0  0
   -4.8080   -2.4264   -0.7963 H   0  0  0  0  0  0  0  0  0  0  0  0
    0.6757    0.3615    0.7249 O   0  5  0  0  0  0  0  0  0  0  0  0
    3.5905   -2.1296   -0.7605 O   0  0  0  0  0  0  0  0  0  0  0  0
   -3.2552    0.3302   -0.7770 O   0  0  0  0  0  1  0  0  0  0  0  0
   -2.4961   -2.7548   -1.2993 H   0  0  0  0  0  0  0  0  0  0  0  0
  1  2  2  0  0  0  0
  1 23  1  0  0  0  0
  2  3  1  0  0  0  0
  3  5  2  0  0  0  0
  3  4  1  0  0  0  0
  5  6  1  0  0  0  0
  7  8  1  0  0  0  0
  7  5  1  0  0  0  0
  9  7  2  0  0  0  0
 10  9  1  0  0  0  0
 11 24  1  1  0  0  0
 11  9  1  0  0  0  0
 11  2  1  0  0  0  0
 12 24  1  0  0  0  0
 12 14  2  0  0  0  0
 13 12  1  0  0  0  0
 14  1  1  0  0  0  0
 15 18  1  0  0  0  0
 15 14  1  0  0  0  0
 16 15  1  0  0  0  0
 17 25  1  6  0  0  0
 19 17  1  0  0  0  0
 19 18  1  0  0  0  0
 20 17  1  0  0  0  0
 20 21  1  0  0  0  0
 20 22  1  0  0  0  0
 26 19  1  0  0  0  0
M  CHG  1  23  -1
M  END
