1,3,8
q = -2.0, confidence = 0.848

 36 37  0  0  0  0  0  0  0  0999 V2000
   -1.9708   -0.7491   -0.7810 O   0  5  0  0  0  0  0  0  0  0  0  0
    4.3565    0.0734   -0.4819 O   0  0  0  0  0  0  0  0  0  0  0  0
    1.7630    0.0720   -0.6429 O   0  5  0  0  0  0  0  0  0  0  0  0
    2.3061    1.1557   -0.1091 C   0  0  0  0  0  0  0  0  0  0  0  0
    1.5483    2.2534    0.3908 C   0  0  0  0  0  0  0  0  0  0  0  0
    0.1044    2.2441    0.4145 C   0  0  0  0  0  3  0  0  0  0  0  0
   -0.4072    3.1129    0.8713 H   0  0  0  0  0  0  0  0  0  0  0  0
   -0.6470    1.2693   -0.0288 N   0  0  0  0  0  2  0  0  0  0  0  0
   -1.9921    1.3636    0.1489 N   0  0  0  0  0  0  0  0  0  0  0  0
   -2.6254    0.2692   -0.2722 C   0  0  0  0  0  0  0  0  0  0  0  0
   -4.0778    0.1974   -0.1459 C   0  0  0  0  0  0  0  0  0  0  0  0
   -4.7677   -0.9541   -0.5965 C   0  0  0  0  0  0  0  0  0  0  0  0
   -4.1720   -1.7656   -1.0386 H   0  0  0  0  0  0  0  0  0  0  0  0
   -6.1534   -1.0496   -0.4851 C   0  0  0  0  0  0  0  0  0  0  0  0
   -6.6789   -1.9475   -0.8409 H   0  0  0  0  0  0  0  0  0  0  0  0
   -6.8749    0.0209    0.0871 C   0  0  0  0  0  0  0  0  0  0  0  0
   -7.9703   -0.0446    0.1786 H   0  0  0  0  0  0  0  0  0  0  0  0
   -6.2209    1.1672    0.5397 C   0  0  0  0  0  0  0  0  0  0  0  0
   -6.7715    2.0077    0.9859 H   0  0  0  0  0  0  0  0  0  0  0  0
   -4.8145    1.2845    0.4348 C   0  0  0  0  0  0  0  0  0  0  0  0
   -4.2278    2.3976    0.8807 O   0  0  0  0  0  0  0  0  0  0  0  0
   -3.2290    2.2823    0.7132 H   0  0  0  0  0  0  0  0  0  0  0  0
    2.2295    3.3801    0.9296 C   0  0  0  0  0  0  0  0  0  0  0  0
    1.6349    4.2250    1.3083 H   0  0  0  0  0  0  0  0  0  0  0  0
    3.6190    3.4128    0.9820 C   0  0  0  0  0  0  0  0  0  0  0  0
    4.1378    4.2898    1.3953 H   0  0  0  0  0  0  0  0  0  0  0  0
    4.3756    2.3178    0.5121 C   0  0  0  0  0  0  0  0  0  0  0  0
    5.4716    2.3534    0.5707 H   0  0  0  0  0  0  0  0  0  0  0  0
    3.7340    1.1902   -0.0229 C   0  0  0  0  0  0  0  0  0  0  0  0
    5.7808    0.0320   -0.4742 C   0  0  0  0  0  0  0  0  0  0  0  0
    6.1597    0.1639    0.5670 H   0  0  0  0  0  0  0  0  0  0  0  0
    6.1856    0.8752   -1.0811 H   0  0  0  0  0  0  0  0  0  0  0  0
    6.2109   -1.3054   -1.0452 C   0  0  0  0  0  0  0  0  0  0  0  0
    5.8198   -2.1403   -0.4304 H   0  0  0  0  0  0  0  0  0  0  0  0
    7.3161   -1.3759   -1.0666 H   0  0  0  0  0  0  0  0  0  0  0  0
    5.8299   -1.4300   -2.0777 H   0  0  0  0  0  0  0  0  0  0  0  0
  1 10  1  0  0  0  0
  2 30  1  0  0  0  0
  2 29  1  0  0  0  0
  3  4  1  0  0  0  0
  4 29  2  0  0  0  0
  4  5  1  0  0  0  0
  5  6  1  0  0  0  0
  5 23  2  0  0  0  0
  6  7  1  0  0  0  0
  8  9  1  0  0  0  0
  8  6  1  0  0  0  0
 10 11  1  0  0  0  0
 10  9  2  0  0  0  0
 11 20  1  0  0  0  0
 12 14  1  0  0  0  0
 12 11  2  0  0  0  0
 13 12  1  0  0  0  0
 14 16  2  0  0  0  0
 15 14  1  0  0  0  0
 16 17  1  0  0  0  0
 16 18  1  0  0  0  0
 18 19  1  0  0  0  0
 20 18  2  0  0  0  0
 20 21  1  0  0  0  0
 22 21  1  0  0  0  0
 23 25  1  0  0  0  0
 23 24  1  0  0  0  0
 25 26  1  0  0  0  0
 27 28  1  0  0  0  0
 27 25  2  0  0  0  0
 29 27  1  0  0  0  0
 30 31  1  0  0  0  0
 32 30  1  0  0  0  0
 33 30  1  0  0  0  0
 33 34  1  0  0  0  0
 35 33  1  0  0  0  0
 36 33  1  0  0  0  0
M  CHG  2   1  -1   3  -1
M  END
