4,5,8
q = -2.0, confidence = 0.92

 24 24  0  0  0  0  0  0  0  0999 V2000
    2.1553    2.2098   -1.4748 Br  0  0  0  0  0  0  0  0  0  0  0  0
    5.3076   -2.2736    0.1362 Br  0  0  0  0  0  0  0  0  0  0  0  0
   -4.3119   -1.9403    0.4732 S   0  0  0  0  0  0  0  0  0  0  0  0
   -0.0521    0.1305   -1.3952 O   0  5  0  0  0  0  0  0  0  0  0  0
   -3.4158   -0.7437    0.8312 O   0  0  0  0  0  1  0  0  0  0  0  0
   -4.7196   -1.8868   -0.9916 O   0  0  0  0  0  1  0  0  0  0  0  0
   -5.3985   -2.1691    1.4396 O   0  0  0  0  0  1  0  0  0  0  0  0
   -1.1964   -2.3544   -0.5633 N   0  0  0  0  0  2  0  0  0  0  0  0
    1.0595   -0.4035   -1.0545 C   0  0  0  0  0  0  0  0  0  0  0  0
    2.2875    0.3627   -1.0355 C   0  0  0  0  0  0  0  0  0  0  0  0
    3.5204   -0.1741   -0.6840 C   0  0  0  0  0  0  0  0  0  0  0  0
    4.4174    0.4601   -0.6780 H   0  0  0  0  0  0  0  0  0  0  0  0
    3.6096   -1.5419   -0.3319 C   0  0  0  0  0  0  0  0  0  0  0  0
    2.4726   -2.3395   -0.3231 C   0  0  0  0  0  0  0  0  0  0  0  0
    2.5459   -3.4020   -0.0449 H   0  0  0  0  0  0  0  0  0  0  0  0
    1.2007   -1.7929   -0.6448 C   0  0  0  0  0  0  0  0  0  0  0  0
    0.0652   -2.6830   -0.5686 C   0  0  0  0  0  3  0  0  0  0  0  0
    0.3230   -3.7670   -0.4950 H   0  0  0  0  0  0  0  0  0  0  0  0
   -2.1715   -3.4373   -0.5660 C   0  0  0  0  0  0  0  0  0  0  0  0
   -1.6580   -4.4279   -0.5420 H   0  0  0  0  0  0  0  0  0  0  0  0
   -2.7491   -3.3856   -1.5155 H   0  0  0  0  0  0  0  0  0  0  0  0
   -3.1850   -3.3775    0.5733 C   0  0  0  0  0  0  0  0  0  0  0  0
   -2.7116   -3.3280    1.5739 H   0  0  0  0  0  0  0  0  0  0  0  0
   -3.8505   -4.2618    0.5352 H   0  0  0  0  0  0  0  0  0  0  0  0
  1 10  1  0  0  0  0
  3 22  1  0  0  0  0
  3  5  1  0  0  0  0
  3  7  1  0  0  0  0
  4  9  1  0  0  0  0
  6  3  1  0  0  0  0
  9 10  2  0  0  0  0
  9 16  1  0  0  0  0
 10 11  1  0  0  0  0
 11 12  1  0  0  0  0
 11 13  2  0  0  0  0
 13 14  1  0  0  0  0
 13  2  1  0  0  0  0
 14 15  1  0  0  0  0
 16 17  1  0  0  0  0
 16 14  2  0  0  0  0
 17  8  1  0  0  0  0
 17 18  1  0  0  0  0
 19  8  1  0  0  0  0
 19 20  1  0  0  0  0
 19 22  1  0  0  0  0
 21 19  1  0  0  0  0
 22 23  1  0  0  0  0
 24 22  1  0  0  0  0
M  CHG  1   4  -1
M  END
