1,2,3
q = -2.0, confidence = 0.924

 33 34  0  0  1  0  0  0  0  0999 V2000
    0.1157    1.0852   -1.1850 O   0  5  0  0  0  0  0  0  0  0  0  0
   -2.5965    0.9635    1.4638 O   0  0  0  0  0  1  0  0  0  0  0  0
   -0.2080   -0.0221    1.2932 N   0  0  0  0  0  2  0  0  0  0  0  0
    1.9240    0.1187    0.1033 C   0  0  0  0  0  0  0  0  0  0  0  0
    1.3821    0.7587   -1.0527 C   0  0  0  0  0  0  0  0  0  0  0  0
    2.2330    1.0405   -2.1717 C   0  0  0  0  0  0  0  0  0  0  0  0
    3.5726    0.7296   -2.1377 C   0  0  0  0  0  0  0  0  0  0  0  0
    4.1697    0.1127   -0.9937 C   0  0  0  0  0  0  0  0  0  0  0  0
    5.5591   -0.1899   -0.9729 C   0  0  0  0  0  0  0  0  0  0  0  0
    6.1480   -0.7819    0.1356 C   0  0  0  0  0  0  0  0  0  0  0  0
    5.3476   -1.0827    1.2631 C   0  0  0  0  0  0  0  0  0  0  0  0
    3.9863   -0.7969    1.2680 C   0  0  0  0  0  0  0  0  0  0  0  0
    3.3444   -0.1966    0.1464 C   0  0  0  0  0  0  0  0  0  0  0  0
    1.0669   -0.2679    1.1966 C   0  0  0  0  0  3  0  0  0  0  0  0
   -2.0222    0.5967    2.6947 C   0  0  0  0  0  0  0  0  0  0  0  0
   -0.9712   -0.5035    2.4418 C   0  0  1  0  0  0  0  0  0  0  0  0
   -1.6330   -1.8703    2.1675 C   0  0  0  0  0  0  0  0  0  0  0  0
   -0.6547   -3.0004    1.8599 C   0  0  0  0  0  0  0  0  0  0  0  0
    1.7665    1.5231   -3.0420 H   0  0  0  0  0  0  0  0  0  0  0  0
    4.2144    0.9628   -3.0020 H   0  0  0  0  0  0  0  0  0  0  0  0
    6.1615    0.0602   -1.8602 H   0  0  0  0  0  0  0  0  0  0  0  0
    7.2240   -1.0106    0.1425 H   0  0  0  0  0  0  0  0  0  0  0  0
    5.8052   -1.5440    2.1515 H   0  0  0  0  0  0  0  0  0  0  0  0
    3.4118   -1.0364    2.1731 H   0  0  0  0  0  0  0  0  0  0  0  0
    1.5374   -0.8440    2.0177 H   0  0  0  0  0  0  0  0  0  0  0  0
   -1.5279    1.4813    3.1633 H   0  0  0  0  0  0  0  0  0  0  0  0
   -2.8170    0.2291    3.3811 H   0  0  0  0  0  0  0  0  0  0  0  0
   -0.3033   -0.6061    3.3300 H   0  0  0  0  0  0  0  0  0  0  0  0
   -2.3606   -1.7491    1.3403 H   0  0  0  0  0  0  0  0  0  0  0  0
   -2.2282   -2.1233    3.0710 H   0  0  0  0  0  0  0  0  0  0  0  0
    0.0728   -3.1495    2.6857 H   0  0  0  0  0  0  0  0  0  0  0  0
   -0.0747   -2.8056    0.9354 H   0  0  0  0  0  0  0  0  0  0  0  0
   -1.1909   -3.9589    1.7115 H   0  0  0  0  0  0  0  0  0  0  0  0
  1  5  1  0  0  0  0
  2 15  1  0  0  0  0
  3 16  1  0  0  0  0
  4 13  1  0  0  0  0
  4 14  1  0  0  0  0
  5  4  2  0  0  0  0
  6  7  2  0  0  0  0
  6  5  1  0  0  0  0
  7  8  1  0  0  0  0
  8  9  2  0  0  0  0
  8 13  1  0  0  0  0
  9 10  1  0  0  0  0
 10 22  1  0  0  0  0
 10 11  2  0  0  0  0
 11 12  1  0  0  0  0
 11 23  1  0  0  0  0
 12 24  1  0  0  0  0
 13 12  2  0  0  0  0
 14  3  1  0  0  0  0
 14 25  1  0  0  0  0
 15 26  1  0  0  0  0
 15 27  1  0  0  0  0
 16 15  1  0  0  0  0
 16 28  1  1  0  0  0
 17 16  1  0  0  0  0
 17 30  1  0  0  0  0
 18 17  1  0  0  0  0
 18 31  1  0  0  0  0
 19  6  1  0  0  0  0
 20  7  1  0  0  0  0
 21  9  1  0  0  0  0
 29 17  1  0  0  0  0
 32 18  1  0  0  0  0
 33 18  1  0  0  0  0
M  CHG  1   1  -1
M  END
