1,2,7
q = -2.0, confidence = 0.946

 48 49  0  0  0  0  0  0  0  0999 V2000
    1.9026   -0.4425   -0.5110 O   0  5  0  0  0  0  0  0  0  0  0  0
   -1.9757   -0.3218   -0.4977 O   0  5  0  0  0  0  0  0  0  0  0  0
    8.1295   -1.6560   -0.2392 O   0  0  0  0  0  0  0  0  0  0  0  0
   -8.3290   -0.8864   -0.0974 O   0  0  0  0  0  0  0  0  0  0  0  0
    2.6203    1.6939   -0.1230 N   0  0  0  0  0  0  0  0  0  0  0  0
    1.3031    1.8958   -0.1557 N   0  0  0  0  0  2  0  0  0  0  0  0
   -1.2095    1.9595   -0.1429 N   0  0  0  0  0  2  0  0  0  0  0  0
   -2.5374    1.8564   -0.0884 N   0  0  0  0  0  0  0  0  0  0  0  0
    2.8654    0.3946   -0.3194 C   0  0  0  0  0  0  0  0  0  0  0  0
    4.2514   -0.0993   -0.2909 C   0  0  0  0  0  0  0  0  0  0  0  0
    4.5089   -1.4749   -0.5009 C   0  0  0  0  0  0  0  0  0  0  0  0
    3.6559   -2.1437   -0.6842 H   0  0  0  0  0  0  0  0  0  0  0  0
    5.8117   -1.9640   -0.4771 C   0  0  0  0  0  0  0  0  0  0  0  0
    6.0307   -3.0292   -0.6394 H   0  0  0  0  0  0  0  0  0  0  0  0
    6.8967   -1.0872   -0.2431 C   0  0  0  0  0  0  0  0  0  0  0  0
    6.6513    0.2886   -0.0327 C   0  0  0  0  0  0  0  0  0  0  0  0
    7.4774    0.9882    0.1506 H   0  0  0  0  0  0  0  0  0  0  0  0
    5.3376    0.7690   -0.0573 C   0  0  0  0  0  0  0  0  0  0  0  0
    5.1336    1.8366    0.1061 H   0  0  0  0  0  0  0  0  0  0  0  0
    0.7992    3.0964    0.0869 C   0  0  0  0  0  0  0  0  0  0  0  0
    1.6557    4.2925    0.3641 C   0  0  0  0  0  0  0  0  0  0  0  0
    2.7186    4.0132    0.2648 H   0  0  0  0  0  0  0  0  0  0  0  0
    1.4798    4.6768    1.3907 H   0  0  0  0  0  0  0  0  0  0  0  0
    1.4242    5.1177   -0.3403 H   0  0  0  0  0  0  0  0  0  0  0  0
   -0.6405    3.1301    0.0961 C   0  0  0  0  0  0  0  0  0  0  0  0
   -1.4649    4.3427    0.3886 C   0  0  0  0  0  0  0  0  0  0  0  0
   -2.1758    4.5279   -0.4422 H   0  0  0  0  0  0  0  0  0  0  0  0
   -0.8423    5.2405    0.5474 H   0  0  0  0  0  0  0  0  0  0  0  0
   -2.0919    4.1657    1.2868 H   0  0  0  0  0  0  0  0  0  0  0  0
   -2.8762    0.5763   -0.2875 C   0  0  0  0  0  0  0  0  0  0  0  0
   -4.2933    0.1854   -0.2401 C   0  0  0  0  0  0  0  0  0  0  0  0
   -5.3117    1.1363    0.0134 C   0  0  0  0  0  0  0  0  0  0  0  0
   -5.0248    2.1847    0.1764 H   0  0  0  0  0  0  0  0  0  0  0  0
   -6.6469    0.7477    0.0543 C   0  0  0  0  0  0  0  0  0  0  0  0
   -7.4519    1.4710    0.2487 H   0  0  0  0  0  0  0  0  0  0  0  0
   -7.0020   -0.6062   -0.1567 C   0  0  0  0  0  0  0  0  0  0  0  0
   -5.9939   -1.5627   -0.4098 C   0  0  0  0  0  0  0  0  0  0  0  0
   -6.2457   -2.6181   -0.5781 H   0  0  0  0  0  0  0  0  0  0  0  0
   -4.6541   -1.1606   -0.4497 C   0  0  0  0  0  0  0  0  0  0  0  0
   -3.8552   -1.8897   -0.6476 H   0  0  0  0  0  0  0  0  0  0  0  0
    9.2575   -0.8300   -0.0147 C   0  0  0  0  0  0  0  0  0  0  0  0
   10.1424   -1.4915   -0.0559 H   0  0  0  0  0  0  0  0  0  0  0  0
    9.2191   -0.3386    0.9832 H   0  0  0  0  0  0  0  0  0  0  0  0
    9.3569   -0.0435   -0.7959 H   0  0  0  0  0  0  0  0  0  0  0  0
   -8.7500   -2.2228   -0.3042 C   0  0  0  0  0  0  0  0  0  0  0  0
   -9.8519   -2.2205   -0.2145 H   0  0  0  0  0  0  0  0  0  0  0  0
   -8.3259   -2.9132    0.4588 H   0  0  0  0  0  0  0  0  0  0  0  0
   -8.4696   -2.5932   -1.3154 H   0  0  0  0  0  0  0  0  0  0  0  0
  1  9  1  0  0  0  0
  2 30  1  0  0  0  0
  3 41  1  0  0  0  0
  6  5  1  0  0  0  0
  6 20  1  0  0  0  0
  7  8  1  0  0  0  0
  7 25  1  0  0  0  0
  9 10  1  0  0  0  0
  9  5  2  0  0  0  0
 10 18  1  0  0  0  0
 11 13  1  0  0  0  0
 11 10  2  0  0  0  0
 12 11  1  0  0  0  0
 13 15  2  0  0  0  0
 14 13  1  0  0  0  0
 15  3  1  0  0  0  0
 15 16  1  0  0  0  0
 16 17  1  0  0  0  0
 18 16  2  0  0  0  0
 18 19  1  0  0  0  0
 20 25  2  0  0  0  0
 20 21  1  0  0  0  0
 21 23  1  0  0  0  0
 22 21  1  0  0  0  0
 24 21  1  0  0  0  0
 25 26  1  0  0  0  0
 26 28  1  0  0  0  0
 26 29  1  0  0  0  0
 27 26  1  0  0  0  0
 30 31  1  0  0  0  0
 30  8  2  0  0  0  0
 31 32  1  0  0  0  0
 32 34  2  0  0  0  0
 32 33  1  0  0  0  0
 34 35  1  0  0  0  0
 36  4  1  0  0  0  0
 36 34  1  0  0  0  0
 37 36  2  0  0  0  0
 38 37  1  0  0  0  0
 39 37  1  0  0  0  0
 39 31  2  0  0  0  0
 40 39  1  0  0  0  0
 41 43  1  0  0  0  0
 42 41  1  0  0  0  0
 44 41  1  0  0  0  0
 45 46  1  0  0  0  0
 45  4  1  0  0  0  0
 45 47  1  0  0  0  0
 48 45  1  0  0  0  0
M  CHG  2   1  -1   2  -1
M  END
