1,8,20
q = -2.0, confidence = 0.906

 24 24  0  0  1  0  0  0  0  0999 V2000
   -0.7991    1.7301   -1.3044 O   0  5  0  0  0  0  0  0  0  0  0  0
   -0.3191    2.7214   -0.6074 C   0  0  0  0  0  0  0  0  0  0  0  0
   -1.0689    4.0177   -0.6209 C   0  0  0  0  0  0  0  0  0  0  0  0
   -1.1564    4.3866   -1.6627 H   0  0  0  0  0  0  0  0  0  0  0  0
   -0.5558    4.7706    0.0021 H   0  0  0  0  0  0  0  0  0  0  0  0
   -2.1004    3.8557   -0.2476 H   0  0  0  0  0  0  0  0  0  0  0  0
    0.7908    2.6100    0.0947 N   0  0  0  0  0  0  0  0  0  0  0  0
    1.3185    1.3535   -0.0644 N   0  0  0  0  0  2  0  0  0  0  0  0
    2.5143    1.1057    0.4488 C   0  0  1  0  0  3  0  0  0  0  0  0
    3.1159   -0.2224    0.3595 C   0  0  0  0  0  0  0  0  0  0  0  0
    2.3324   -1.3761    0.0249 C   0  0  0  0  0  0  0  0  0  0  0  0
    2.9236   -2.6616    0.0555 C   0  0  0  0  0  0  0  0  0  0  0  0
    2.2858   -3.5218   -0.1926 H   0  0  0  0  0  0  0  0  0  0  0  0
    4.2732   -2.8141    0.3758 C   0  0  0  0  0  0  0  0  0  0  0  0
    4.7200   -3.8202    0.3789 H   0  0  0  0  0  0  0  0  0  0  0  0
    5.0630   -1.6892    0.6873 C   0  0  0  0  0  0  0  0  0  0  0  0
    6.1290   -1.8072    0.9295 H   0  0  0  0  0  0  0  0  0  0  0  0
    4.4831   -0.4205    0.6883 C   0  0  0  0  0  0  0  0  0  0  0  0
    5.1063    0.4502    0.9347 H   0  0  0  0  0  0  0  0  0  0  0  0
    1.0471   -1.2659   -0.2675 O   0  5  0  0  0  0  0  0  0  0  0  0
    3.2722    2.2091    1.1379 C   0  0  0  0  0  0  0  0  0  0  0  0
    4.1376    2.5204    0.5157 H   0  0  0  0  0  0  0  0  0  0  0  0
    3.6725    1.8671    2.1116 H   0  0  0  0  0  0  0  0  0  0  0  0
    2.6122    3.0817    1.2738 H   0  0  0  0  0  0  0  0  0  0  0  0
  1  2  1  0  0  0  0
  2  7  2  0  0  0  0
  3  2  1  0  0  0  0
  3  6  1  0  0  0  0
  3  5  1  0  0  0  0
  4  3  1  0  0  0  0
  8  7  1  0  0  0  0
  9  8  1  6  0  0  0
  9 21  1  0  0  0  0
 10  9  1  0  0  0  0
 10 18  1  0  0  0  0
 11 12  1  0  0  0  0
 11 10  2  0  0  0  0
 12 14  2  0  0  0  0
 13 12  1  0  0  0  0
 14 15  1  0  0  0  0
 14 16  1  0  0  0  0
 16 18  2  0  0  0  0
 16 17  1  0  0  0  0
 18 19  1  0  0  0  0
 20 11  1  0  0  0  0
 21 24  1  0  0  0  0
 21 23  1  0  0  0  0
 22 21  1  0  0  0  0
M  CHG  2   1  -1  20  -1
M  END
