1,3,4
q = -2.0, confidence = 0.938

 32 33  0  0  0  0  0  0  0  0999 V2000
   -0.1889    0.4684   -0.0774 N   0  0  0  0  0  2  0  0  0  0  0  0
    1.0430    1.0584   -0.0213 N   0  0  0  0  0  0  0  0  0  0  0  0
   -2.0534   -1.5382    0.1328 O   0  5  0  0  0  0  0  0  0  0  0  0
    1.6958   -1.1352   -0.3424 O   0  5  0  0  0  0  0  0  0  0  0  0
    3.0684    2.8100    0.1935 O   0  0  0  0  0  0  0  0  0  0  0  0
   -6.2198    2.6366   -0.0425 Cl  0  0  0  0  0  0  0  0  0  0  0  0
   -2.6012    0.8169   -0.0040 C   0  0  0  0  0  0  0  0  0  0  0  0
   -2.9607   -0.5689    0.0631 C   0  0  0  0  0  0  0  0  0  0  0  0
   -4.3289   -0.9215    0.0965 C   0  0  0  0  0  0  0  0  0  0  0  0
   -4.5827   -1.9894    0.1515 H   0  0  0  0  0  0  0  0  0  0  0  0
   -5.3252    0.0553    0.0609 C   0  0  0  0  0  0  0  0  0  0  0  0
   -6.3870   -0.2280    0.0833 H   0  0  0  0  0  0  0  0  0  0  0  0
   -4.9703    1.4193   -0.0014 C   0  0  0  0  0  0  0  0  0  0  0  0
   -3.6284    1.7959   -0.0286 C   0  0  0  0  0  0  0  0  0  0  0  0
   -3.3597    2.8612   -0.0755 H   0  0  0  0  0  0  0  0  0  0  0  0
   -1.2311    1.2632   -0.0111 C   0  0  0  0  0  3  0  0  0  0  0  0
   -1.0262    2.3494    0.0421 H   0  0  0  0  0  0  0  0  0  0  0  0
    1.9897    0.1487   -0.1907 C   0  0  0  0  0  0  0  0  0  0  0  0
    3.4248    0.4854   -0.2026 C   0  0  0  0  0  0  0  0  0  0  0  0
    3.9461    1.8066   -0.0165 C   0  0  0  0  0  0  0  0  0  0  0  0
    5.3435    2.0074   -0.0548 C   0  0  0  0  0  0  0  0  0  0  0  0
    5.7556    3.0148    0.0851 H   0  0  0  0  0  0  0  0  0  0  0  0
    6.2172    0.9338   -0.2702 C   0  0  0  0  0  0  0  0  0  0  0  0
    7.3016    1.1216   -0.2956 H   0  0  0  0  0  0  0  0  0  0  0  0
    5.7186   -0.3648   -0.4527 C   0  0  0  0  0  0  0  0  0  0  0  0
    6.4016   -1.2088   -0.6249 H   0  0  0  0  0  0  0  0  0  0  0  0
    4.3377   -0.5737   -0.4173 C   0  0  0  0  0  0  0  0  0  0  0  0
    3.9168   -1.5780   -0.5633 H   0  0  0  0  0  0  0  0  0  0  0  0
    3.5510    4.1306    0.3578 C   0  0  0  0  0  0  0  0  0  0  0  0
    4.2092    4.2250    1.2501 H   0  0  0  0  0  0  0  0  0  0  0  0
    2.6579    4.7665    0.4997 H   0  0  0  0  0  0  0  0  0  0  0  0
    4.1083    4.4830   -0.5383 H   0  0  0  0  0  0  0  0  0  0  0  0
  1  2  1  0  0  0  0
  1 16  1  0  0  0  0
  4 18  1  0  0  0  0
  5 29  1  0  0  0  0
  6 13  1  0  0  0  0
  7  8  1  0  0  0  0
  8  9  2  0  0  0  0
  8  3  1  0  0  0  0
  9 10  1  0  0  0  0
 11 12  1  0  0  0  0
 11  9  1  0  0  0  0
 13 11  2  0  0  0  0
 14  7  2  0  0  0  0
 14 13  1  0  0  0  0
 15 14  1  0  0  0  0
 16  7  1  0  0  0  0
 16 17  1  0  0  0  0
 18  2  2  0  0  0  0
 19 18  1  0  0  0  0
 19 20  1  0  0  0  0
 20  5  1  0  0  0  0
 21 20  2  0  0  0  0
 21 22  1  0  0  0  0
 23 21  1  0  0  0  0
 24 23  1  0  0  0  0
 25 27  1  0  0  0  0
 25 23  2  0  0  0  0
 26 25  1  0  0  0  0
 27 19  2  0  0  0  0
 28 27  1  0  0  0  0
 29 31  1  0  0  0  0
 29 30  1  0  0  0  0
 32 29  1  0  0  0  0
M  CHG  2   3  -1   4  -1
M  END
