2,5,6
q = -2.0, confidence = 0.748

 30 31  0  0  0  0  0  0  0  0999 V2000
    6.5459    3.0048   -0.0447 Cl  0  0  0  0  0  0  0  0  0  0  0  0
    0.6498    0.4968   -0.1100 N   0  0  0  0  0  2  0  0  0  0  0  0
   -0.6099    1.0237   -0.0738 N   0  0  0  0  0  0  0  0  0  0  0  0
   -7.1119    1.3069   -0.0863 N   0  0  0  0  0  0  0  0  0  0  0  0
    2.6280   -1.4030   -0.0083 O   0  5  0  0  0  0  0  0  0  0  0  0
   -1.1724   -1.2166   -0.1780 O   0  5  0  0  0  0  0  0  0  0  0  0
   -7.8991    0.3634   -0.1468 O   0  0  0  0  0  0  0  0  0  0  0  0
   -7.4262    2.4942   -0.0107 O   0  0  0  0  0  0  0  0  0  0  0  0
    3.0393    0.9811   -0.0503 C   0  0  0  0  0  0  0  0  0  0  0  0
    3.4783   -0.3823   -0.0402 C   0  0  0  0  0  0  0  0  0  0  0  0
    4.8639   -0.6583   -0.0359 C   0  0  0  0  0  0  0  0  0  0  0  0
    5.1801   -1.7107   -0.0275 H   0  0  0  0  0  0  0  0  0  0  0  0
    5.8009    0.3758   -0.0391 C   0  0  0  0  0  0  0  0  0  0  0  0
    6.8773    0.1537   -0.0358 H   0  0  0  0  0  0  0  0  0  0  0  0
    5.3690    1.7197   -0.0432 C   0  0  0  0  0  0  0  0  0  0  0  0
    4.0077    2.0192   -0.0466 C   0  0  0  0  0  0  0  0  0  0  0  0
    3.6777    3.0680   -0.0512 H   0  0  0  0  0  0  0  0  0  0  0  0
    1.6478    1.3466   -0.0490 C   0  0  0  0  0  3  0  0  0  0  0  0
    1.3835    2.4198    0.0013 H   0  0  0  0  0  0  0  0  0  0  0  0
   -1.5070    0.0591   -0.1375 C   0  0  0  0  0  0  0  0  0  0  0  0
   -2.9453    0.3887   -0.1309 C   0  0  0  0  0  0  0  0  0  0  0  0
   -3.8987   -0.6512   -0.2040 C   0  0  0  0  0  0  0  0  0  0  0  0
   -3.5476   -1.6901   -0.2745 H   0  0  0  0  0  0  0  0  0  0  0  0
   -5.2648   -0.3544   -0.1912 C   0  0  0  0  0  0  0  0  0  0  0  0
   -6.0352   -1.1346   -0.2475 H   0  0  0  0  0  0  0  0  0  0  0  0
   -5.6608    0.9865   -0.1045 C   0  0  0  0  0  0  0  0  0  0  0  0
   -4.7346    2.0380   -0.0341 C   0  0  0  0  0  0  0  0  0  0  0  0
   -5.1053    3.0694    0.0294 H   0  0  0  0  0  0  0  0  0  0  0  0
   -3.3722    1.7344   -0.0484 C   0  0  0  0  0  0  0  0  0  0  0  0
   -2.6136    2.5275    0.0033 H   0  0  0  0  0  0  0  0  0  0  0  0
  1 15  1  0  0  0  0
  2  3  1  0  0  0  0
  2 18  1  0  0  0  0
  4  8  2  0  0  0  0
  6 20  1  0  0  0  0
  7  4  2  0  0  0  0
  9 18  1  0  0  0  0
  9 16  2  0  0  0  0
  9 10  1  0  0  0  0
 10 11  2  0  0  0  0
 10  5  1  0  0  0  0
 11 12  1  0  0  0  0
 13 11  1  0  0  0  0
 13 14  1  0  0  0  0
 15 13  2  0  0  0  0
 16 15  1  0  0  0  0
 17 16  1  0  0  0  0
 18 19  1  0  0  0  0
 20 21  1  0  0  0  0
 20  3  2  0  0  0  0
 21 29  1  0  0  0  0
 22 24  1  0  0  0  0
 22 21  2  0  0  0  0
 23 22  1  0  0  0  0
 24 26  2  0  0  0  0
 25 24  1  0  0  0  0
 26  4  1  0  0  0  0
 26 27  1  0  0  0  0
 27 28  1  0  0  0  0
 29 27  2  0  0  0  0
 29 30  1  0  0  0  0
M  CHG  2   5  -1   6  -1
M  END
