2,4,5
q = -2.0, confidence = 0.942

 32 33  0  0  0  0  0  0  0  0999 V2000
   -5.1346    0.8570   -0.2562 Br  0  0  0  0  0  0  0  0  0  0  0  0
    0.0044   -1.3345    0.0870 N   0  0  0  0  0  2  0  0  0  0  0  0
    1.3244   -1.6000    0.2692 N   0  0  0  0  0  0  0  0  0  0  0  0
   -2.1743    0.1824   -0.1412 O   0  5  0  0  0  0  0  0  0  0  0  0
    1.4685    0.5134   -0.6121 O   0  5  0  0  0  0  0  0  0  0  0  0
    7.6787   -0.7921    0.1759 O   0  0  0  0  0  0  0  0  0  0  0  0
   -2.2835   -2.1574    0.3575 C   0  0  0  0  0  0  0  0  0  0  0  0
   -2.8963   -0.8901    0.0794 C   0  0  0  0  0  0  0  0  0  0  0  0
   -4.3171   -0.8196    0.0933 C   0  0  0  0  0  0  0  0  0  0  0  0
   -5.0984   -1.9482    0.3575 C   0  0  0  0  0  0  0  0  0  0  0  0
   -6.1937   -1.8527    0.3519 H   0  0  0  0  0  0  0  0  0  0  0  0
   -4.4858   -3.1886    0.6280 C   0  0  0  0  0  0  0  0  0  0  0  0
   -5.1092   -4.0702    0.8348 H   0  0  0  0  0  0  0  0  0  0  0  0
   -3.0957   -3.2868    0.6346 C   0  0  0  0  0  0  0  0  0  0  0  0
   -2.6049   -4.2481    0.8514 H   0  0  0  0  0  0  0  0  0  0  0  0
   -0.8526   -2.2748    0.4181 C   0  0  0  0  0  3  0  0  0  0  0  0
   -0.4143   -3.2225    0.7810 H   0  0  0  0  0  0  0  0  0  0  0  0
    2.0429   -0.5654   -0.1379 C   0  0  0  0  0  0  0  0  0  0  0  0
    3.5104   -0.6085   -0.0616 C   0  0  0  0  0  0  0  0  0  0  0  0
    4.2729    0.4854   -0.5156 C   0  0  0  0  0  0  0  0  0  0  0  0
    3.7456    1.3588   -0.9254 H   0  0  0  0  0  0  0  0  0  0  0  0
    5.6718    0.4658   -0.4548 C   0  0  0  0  0  0  0  0  0  0  0  0
    6.2398    1.3317   -0.8198 H   0  0  0  0  0  0  0  0  0  0  0  0
    6.3309   -0.6668    0.0706 C   0  0  0  0  0  0  0  0  0  0  0  0
    5.5706   -1.7692    0.5298 C   0  0  0  0  0  0  0  0  0  0  0  0
    6.1090   -2.6386    0.9338 H   0  0  0  0  0  0  0  0  0  0  0  0
    4.1816   -1.7399    0.4631 C   0  0  0  0  0  0  0  0  0  0  0  0
    3.5811   -2.5905    0.8150 H   0  0  0  0  0  0  0  0  0  0  0  0
    8.4958    0.2734   -0.2737 C   0  0  0  0  0  0  0  0  0  0  0  0
    8.3543    0.4739   -1.3592 H   0  0  0  0  0  0  0  0  0  0  0  0
    9.5417   -0.0395   -0.0989 H   0  0  0  0  0  0  0  0  0  0  0  0
    8.2998    1.2123    0.2909 H   0  0  0  0  0  0  0  0  0  0  0  0
  1  9  1  0  0  0  0
  2  3  1  0  0  0  0
  2 16  1  0  0  0  0
  4  8  1  0  0  0  0
  5 18  1  0  0  0  0
  7 16  1  0  0  0  0
  7 14  1  0  0  0  0
  8  9  1  0  0  0  0
  8  7  2  0  0  0  0
  9 10  2  0  0  0  0
 10 12  1  0  0  0  0
 11 10  1  0  0  0  0
 12 14  2  0  0  0  0
 12 13  1  0  0  0  0
 14 15  1  0  0  0  0
 16 17  1  0  0  0  0
 18 19  1  0  0  0  0
 18  3  2  0  0  0  0
 19 27  1  0  0  0  0
 20 22  1  0  0  0  0
 20 19  2  0  0  0  0
 21 20  1  0  0  0  0
 22 24  2  0  0  0  0
 23 22  1  0  0  0  0
 24  6  1  0  0  0  0
 24 25  1  0  0  0  0
 25 26  1  0  0  0  0
 27 25  2  0  0  0  0
 27 28  1  0  0  0  0
 29 31  1  0  0  0  0
 29  6  1  0  0  0  0
 29 32  1  0  0  0  0
 30 29  1  0  0  0  0
M  CHG  2   4  -1   5  -1
M  END
