1,2,6
q = -2.0, confidence = 0.858

 39 41  0  0  0  0  0  0  0  0999 V2000
    0.9326   -0.9238   -0.2029 O   0  5  0  0  0  0  0  0  0  0  0  0
   -2.8440   -0.6840    0.0576 O   0  5  0  0  0  0  0  0  0  0  0  0
    2.6633    2.9186    0.1152 O   0  0  0  0  0  0  0  0  0  0  0  0
    1.7023    2.6079    0.0656 H   0  0  0  0  0  0  0  0  0  0  0  0
   -5.4355   -1.0295    0.0178 O   0  0  0  0  0  0  0  0  0  0  0  0
   -0.6979    0.9884   -0.1428 N   0  0  0  0  0  2  0  0  0  0  0  0
    0.6096    1.3527   -0.0592 N   0  0  0  0  0  0  0  0  0  0  0  0
   -3.5853    0.4111   -0.0911 C   0  0  0  0  0  0  0  0  0  0  0  0
   -3.0266    1.7169   -0.1932 C   0  0  0  0  0  0  0  0  0  0  0  0
   -3.8916    2.8420   -0.3018 C   0  0  0  0  0  0  0  0  0  0  0  0
   -3.4485    3.8462   -0.3780 H   0  0  0  0  0  0  0  0  0  0  0  0
   -5.2709    2.6705   -0.3207 C   0  0  0  0  0  0  0  0  0  0  0  0
   -5.9364    3.5407   -0.4138 H   0  0  0  0  0  0  0  0  0  0  0  0
   -5.8310    1.3789   -0.2199 C   0  0  0  0  0  0  0  0  0  0  0  0
   -6.9228    1.2620   -0.2332 H   0  0  0  0  0  0  0  0  0  0  0  0
   -5.0058    0.2492   -0.1002 C   0  0  0  0  0  0  0  0  0  0  0  0
   -1.6026    1.9378   -0.1539 C   0  0  0  0  0  3  0  0  0  0  0  0
   -1.2398    2.9830   -0.1319 H   0  0  0  0  0  0  0  0  0  0  0  0
    1.4159    0.2955   -0.1141 C   0  0  0  0  0  0  0  0  0  0  0  0
    2.8626    0.4919   -0.0652 C   0  0  0  0  0  0  0  0  0  0  0  0
    3.4302    1.8230    0.0487 C   0  0  0  0  0  0  0  0  0  0  0  0
    4.8196    1.9566    0.0920 C   0  0  0  0  0  0  0  0  0  0  0  0
    5.2371    2.9703    0.1788 H   0  0  0  0  0  0  0  0  0  0  0  0
    5.6814    0.8335    0.0265 C   0  0  0  0  0  0  0  0  0  0  0  0
    5.1137   -0.4939   -0.0883 C   0  0  0  0  0  0  0  0  0  0  0  0
    3.7066   -0.6225   -0.1301 C   0  0  0  0  0  0  0  0  0  0  0  0
    3.2475   -1.6182   -0.2178 H   0  0  0  0  0  0  0  0  0  0  0  0
    5.9835   -1.6250   -0.1554 C   0  0  0  0  0  0  0  0  0  0  0  0
    5.5365   -2.6275   -0.2438 H   0  0  0  0  0  0  0  0  0  0  0  0
    7.3583   -1.4654   -0.1113 C   0  0  0  0  0  0  0  0  0  0  0  0
    8.0210   -2.3420   -0.1642 H   0  0  0  0  0  0  0  0  0  0  0  0
    7.9185   -0.1606    0.0021 C   0  0  0  0  0  0  0  0  0  0  0  0
    9.0126   -0.0426    0.0360 H   0  0  0  0  0  0  0  0  0  0  0  0
    7.1038    0.9586    0.0692 C   0  0  0  0  0  0  0  0  0  0  0  0
    7.5432    1.9644    0.1562 H   0  0  0  0  0  0  0  0  0  0  0  0
   -6.8296   -1.2733   -0.0129 C   0  0  0  0  0  0  0  0  0  0  0  0
   -7.3565   -0.7712    0.8296 H   0  0  0  0  0  0  0  0  0  0  0  0
   -6.9559   -2.3671    0.0828 H   0  0  0  0  0  0  0  0  0  0  0  0
   -7.2855   -0.9380   -0.9713 H   0  0  0  0  0  0  0  0  0  0  0  0
  1 19  1  0  0  0  0
  4  3  1  0  0  0  0
  6  7  1  0  0  0  0
  8  2  1  0  0  0  0
  9 17  1  0  0  0  0
  9  8  2  0  0  0  0
 10  9  1  0  0  0  0
 11 10  1  0  0  0  0
 12 10  2  0  0  0  0
 12 14  1  0  0  0  0
 13 12  1  0  0  0  0
 14 16  2  0  0  0  0
 15 14  1  0  0  0  0
 16  8  1  0  0  0  0
 16  5  1  0  0  0  0
 17  6  1  0  0  0  0
 17 18  1  0  0  0  0
 19 20  1  0  0  0  0
 19  7  2  0  0  0  0
 20 21  1  0  0  0  0
 21 22  2  0  0  0  0
 21  3  1  0  0  0  0
 22 23  1  0  0  0  0
 24 34  1  0  0  0  0
 24 22  1  0  0  0  0
 25 24  2  0  0  0  0
 26 25  1  0  0  0  0
 26 20  2  0  0  0  0
 27 26  1  0  0  0  0
 28 30  2  0  0  0  0
 28 25  1  0  0  0  0
 29 28  1  0  0  0  0
 30 32  1  0  0  0  0
 31 30  1  0  0  0  0
 32 33  1  0  0  0  0
 32 34  2  0  0  0  0
 34 35  1  0  0  0  0
 36  5  1  0  0  0  0
 36 38  1  0  0  0  0
 36 37  1  0  0  0  0
 39 36  1  0  0  0  0
M  CHG  2   1  -1   2  -1
M  END
