1,2,3
q = -2.0, confidence = 0.896

 28 28  0  0  1  0  0  0  0  0999 V2000
   -0.8709   -2.5645   -1.0218 O   0  5  0  0  0  0  0  0  0  0  0  0
    1.5520   -0.0665    0.2280 O   0  5  0  0  0  0  0  0  0  0  0  0
    0.6115   -0.5484   -1.9758 N   0  0  0  0  0  2  0  0  0  0  0  0
    1.6525    0.3407   -2.0222 N   0  0  0  0  0  0  0  0  0  0  0  0
   -1.4319   -2.6064   -2.1987 C   0  0  0  0  0  0  0  0  0  0  0  0
   -2.5053   -3.6460   -2.3613 C   0  0  0  0  0  0  0  0  0  0  0  0
   -1.0471   -1.7619   -3.2356 C   0  0  0  0  0  0  0  0  0  0  0  0
    0.0109   -0.8116   -3.1422 C   0  0  2  0  0  3  0  0  0  0  0  0
    0.4690   -0.0928   -4.3810 C   0  0  0  0  0  0  0  0  0  0  0  0
    2.0968    0.5589   -0.8042 C   0  0  0  0  0  0  0  0  0  0  0  0
    3.2045    1.4972   -0.5499 C   0  0  0  0  0  0  0  0  0  0  0  0
    3.6625    1.6942    0.7709 C   0  0  0  0  0  0  0  0  0  0  0  0
    4.7159    2.5825    1.0250 C   0  0  0  0  0  0  0  0  0  0  0  0
    5.3216    3.2801   -0.0326 C   0  0  0  0  0  0  0  0  0  0  0  0
    4.8686    3.0862   -1.3503 C   0  0  0  0  0  0  0  0  0  0  0  0
    3.8166    2.2020   -1.6108 C   0  0  0  0  0  0  0  0  0  0  0  0
   -2.9034   -3.6817   -3.3916 H   0  0  0  0  0  0  0  0  0  0  0  0
   -3.3360   -3.4296   -1.6573 H   0  0  0  0  0  0  0  0  0  0  0  0
   -2.1062   -4.6433   -2.0840 H   0  0  0  0  0  0  0  0  0  0  0  0
   -1.5344   -1.8822   -4.2118 H   0  0  0  0  0  0  0  0  0  0  0  0
    1.5386   -0.3098   -4.5746 H   0  0  0  0  0  0  0  0  0  0  0  0
    0.4119    1.0036   -4.2293 H   0  0  0  0  0  0  0  0  0  0  0  0
   -0.1336   -0.3839   -5.2603 H   0  0  0  0  0  0  0  0  0  0  0  0
    3.1751    1.1375    1.5842 H   0  0  0  0  0  0  0  0  0  0  0  0
    5.0680    2.7328    2.0570 H   0  0  0  0  0  0  0  0  0  0  0  0
    6.1489    3.9779    0.1686 H   0  0  0  0  0  0  0  0  0  0  0  0
    5.3419    3.6327   -2.1804 H   0  0  0  0  0  0  0  0  0  0  0  0
    3.4469    2.0372   -2.6329 H   0  0  0  0  0  0  0  0  0  0  0  0
  4  3  1  0  0  0  0
  4 10  2  0  0  0  0
  5  1  1  0  0  0  0
  6  5  1  0  0  0  0
  6 19  1  0  0  0  0
  6 18  1  0  0  0  0
  7  5  2  0  0  0  0
  8  7  1  6  0  0  0
  8  3  1  0  0  0  0
  9 22  1  0  0  0  0
  9  8  1  0  0  0  0
 10 11  1  0  0  0  0
 10  2  1  0  0  0  0
 11 12  1  0  0  0  0
 12 13  2  0  0  0  0
 12 24  1  0  0  0  0
 13 25  1  0  0  0  0
 14 26  1  0  0  0  0
 14 13  1  0  0  0  0
 15 14  2  0  0  0  0
 16 15  1  0  0  0  0
 16 11  2  0  0  0  0
 17  6  1  0  0  0  0
 20  7  1  0  0  0  0
 21  9  1  0  0  0  0
 23  9  1  0  0  0  0
 27 15  1  0  0  0  0
 28 16  1  0  0  0  0
M  CHG  2   1  -1   2  -1
M  END
