2,4,5
q = -2.0, confidence = 0.92

 31 32  0  0  0  0  0  0  0  0999 V2000
    6.3138    2.6510    0.0647 Cl  0  0  0  0  0  0  0  0  0  0  0  0
    0.2325    0.6346   -0.0251 N   0  0  0  0  0  2  0  0  0  0  0  0
   -0.9885    1.2395    0.0633 N   0  0  0  0  0  0  0  0  0  0  0  0
    2.0472   -1.4251    0.0737 O   0  5  0  0  0  0  0  0  0  0  0  0
   -1.7046   -0.9224   -0.3547 O   0  5  0  0  0  0  0  0  0  0  0  0
    2.6522    0.9206    0.0460 C   0  0  0  0  0  0  0  0  0  0  0  0
    2.9783   -0.4748    0.0429 C   0  0  0  0  0  0  0  0  0  0  0  0
    4.3371   -0.8623    0.0475 C   0  0  0  0  0  0  0  0  0  0  0  0
    4.5648   -1.9374    0.0486 H   0  0  0  0  0  0  0  0  0  0  0  0
    5.3570    0.0906    0.0507 C   0  0  0  0  0  0  0  0  0  0  0  0
    6.4116   -0.2193    0.0504 H   0  0  0  0  0  0  0  0  0  0  0  0
    5.0355    1.4641    0.0576 C   0  0  0  0  0  0  0  0  0  0  0  0
    3.7030    1.8742    0.0601 C   0  0  0  0  0  0  0  0  0  0  0  0
    3.4607    2.9467    0.0671 H   0  0  0  0  0  0  0  0  0  0  0  0
    1.2932    1.4007    0.0707 C   0  0  0  0  0  3  0  0  0  0  0  0
    1.1177    2.4884    0.1757 H   0  0  0  0  0  0  0  0  0  0  0  0
   -1.9522    0.3556   -0.1430 C   0  0  0  0  0  0  0  0  0  0  0  0
   -3.3613    0.7815   -0.1147 C   0  0  0  0  0  0  0  0  0  0  0  0
   -3.7059    2.1326    0.1191 C   0  0  0  0  0  0  0  0  0  0  0  0
   -2.8996    2.8634    0.2740 H   0  0  0  0  0  0  0  0  0  0  0  0
   -5.0466    2.5181    0.1498 C   0  0  0  0  0  0  0  0  0  0  0  0
   -5.3029    3.5737    0.3334 H   0  0  0  0  0  0  0  0  0  0  0  0
   -6.0850    1.5796   -0.0535 C   0  0  0  0  0  0  0  0  0  0  0  0
   -5.7285    0.2358   -0.2872 C   0  0  0  0  0  0  0  0  0  0  0  0
   -6.5213   -0.5112   -0.4491 H   0  0  0  0  0  0  0  0  0  0  0  0
   -4.3876   -0.1641   -0.3190 C   0  0  0  0  0  0  0  0  0  0  0  0
   -4.1141   -1.2124   -0.5055 H   0  0  0  0  0  0  0  0  0  0  0  0
   -7.5261    2.0168   -0.0312 C   0  0  0  0  0  0  0  0  0  0  0  0
   -8.2182    1.1561   -0.1021 H   0  0  0  0  0  0  0  0  0  0  0  0
   -7.7475    2.6998   -0.8787 H   0  0  0  0  0  0  0  0  0  0  0  0
   -7.7638    2.5756    0.8975 H   0  0  0  0  0  0  0  0  0  0  0  0
  2  3  1  0  0  0  0
  2 15  1  0  0  0  0
  5 17  1  0  0  0  0
  6 13  1  0  0  0  0
  6 15  1  0  0  0  0
  7  6  2  0  0  0  0
  7  8  1  0  0  0  0
  7  4  1  0  0  0  0
  8  9  1  0  0  0  0
  8 10  2  0  0  0  0
 10 12  1  0  0  0  0
 11 10  1  0  0  0  0
 12 13  2  0  0  0  0
 12  1  1  0  0  0  0
 13 14  1  0  0  0  0
 15 16  1  0  0  0  0
 17 18  1  0  0  0  0
 17  3  2  0  0  0  0
 18 19  1  0  0  0  0
 19 21  2  0  0  0  0
 19 20  1  0  0  0  0
 21 22  1  0  0  0  0
 23 28  1  0  0  0  0
 23 21  1  0  0  0  0
 24 23  2  0  0  0  0
 25 24  1  0  0  0  0
 26 24  1  0  0  0  0
 26 18  2  0  0  0  0
 27 26  1  0  0  0  0
 28 31  1  0  0  0  0
 29 28  1  0  0  0  0
 30 28  1  0  0  0  0
M  CHG  2   4  -1   5  -1
M  END
