1,2,3
q = -2.0, confidence = 0.958

 28 28  0  0  1  0  0  0  0  0999 V2000
   -0.7731    1.0955   -0.9809 O   0  5  0  0  0  0  0  0  0  0  0  0
    1.5948    1.7460   -0.7438 N   0  0  0  0  0  2  0  0  0  0  0  0
    2.2338   -0.9146   -0.2696 O   0  0  0  0  0  1  0  0  0  0  0  0
    3.1964    3.9145   -1.9168 F   0  0  0  0  0  0  0  0  0  0  0  0
    4.3970   -2.5755   -0.3319 F   0  0  0  0  0  0  0  0  0  0  0  0
    4.1394   -1.7728    1.6806 F   0  0  0  0  0  0  0  0  0  0  0  0
    5.6957   -0.9689    0.3748 F   0  0  0  0  0  0  0  0  0  0  0  0
    2.8956    4.2074    0.2273 F   0  0  0  0  0  0  0  0  0  0  0  0
   -3.9207    3.8100   -1.7152 C   0  0  0  0  0  0  0  0  0  0  0  0
   -4.9404    3.4482   -1.9194 H   0  0  0  0  0  0  0  0  0  0  0  0
   -0.4707    2.3750   -1.0802 C   0  0  0  0  0  0  0  0  0  0  0  0
    0.7744    2.7989   -0.9806 N   0  0  0  0  0  0  0  0  0  0  0  0
    4.7791    3.4077   -0.5120 F   0  0  0  0  0  0  0  0  0  0  0  0
   -1.5670    3.3417   -1.2824 C   0  0  0  0  0  0  0  0  0  0  0  0
    3.8078    0.9128   -0.2766 C   0  0  0  0  0  0  0  0  0  0  0  0
    4.8598    1.1719   -0.1249 H   0  0  0  0  0  0  0  0  0  0  0  0
    3.4201   -0.4086   -0.1162 C   0  0  1  0  0  3  0  0  0  0  0  0
    4.4288   -1.4312    0.3957 C   0  0  0  0  0  0  0  0  0  0  0  0
    2.9003    1.9571   -0.5850 C   0  0  0  0  0  0  0  0  0  0  0  0
   -1.3133    4.7302   -1.2098 C   0  0  0  0  0  0  0  0  0  0  0  0
   -0.2848    5.0637   -1.0099 H   0  0  0  0  0  0  0  0  0  0  0  0
   -2.8792    2.8886   -1.5417 C   0  0  0  0  0  0  0  0  0  0  0  0
   -3.0681    1.8079   -1.6062 H   0  0  0  0  0  0  0  0  0  0  0  0
    3.4343    3.3858   -0.7004 C   0  0  0  0  0  0  0  0  0  0  0  0
   -2.3587    5.6441   -1.3841 C   0  0  0  0  0  0  0  0  0  0  0  0
   -2.1548    6.7239   -1.3224 H   0  0  0  0  0  0  0  0  0  0  0  0
   -3.6655    5.1888   -1.6349 C   0  0  0  0  0  0  0  0  0  0  0  0
   -4.4849    5.9112   -1.7699 H   0  0  0  0  0  0  0  0  0  0  0  0
  2 19  1  0  0  0  0
  4 24  1  0  0  0  0
  5 18  1  0  0  0  0
  7 18  1  0  0  0  0
  9 27  2  0  0  0  0
  9 22  1  0  0  0  0
 10  9  1  0  0  0  0
 11  1  1  0  0  0  0
 11 12  2  0  0  0  0
 12  2  1  0  0  0  0
 14 20  1  0  0  0  0
 14 11  1  0  0  0  0
 15 16  1  0  0  0  0
 15 17  1  0  0  0  0
 17  3  1  1  0  0  0
 17 18  1  0  0  0  0
 18  6  1  0  0  0  0
 19 15  2  0  0  0  0
 20 21  1  0  0  0  0
 22 14  2  0  0  0  0
 23 22  1  0  0  0  0
 24 19  1  0  0  0  0
 24 13  1  0  0  0  0
 24  8  1  0  0  0  0
 25 26  1  0  0  0  0
 25 20  2  0  0  0  0
 27 25  1  0  0  0  0
 28 27  1  0  0  0  0
M  CHG  1   1  -1
M  END
