29,30,33
q = -2.0, confidence = 0.962

 35 36  0  0  0  0  0  0  0  0999 V2000
   -1.9796    2.1675    1.3321 C   0  0  0  0  0  0  0  0  0  0  0  0
   -2.2754    1.2416    1.8615 H   0  0  0  0  0  0  0  0  0  0  0  0
   -1.0400    2.5277    1.8273 H   0  0  0  0  0  0  0  0  0  0  0  0
    1.6011   -0.1491    0.0629 C   0  0  0  0  0  0  0  0  0  0  0  0
    3.0023    0.2344   -0.0046 C   0  0  0  0  0  0  0  0  0  0  0  0
    0.5839    0.8649   -0.0174 C   0  0  0  0  0  3  0  0  0  0  0  0
    0.9253    1.9144    0.0163 H   0  0  0  0  0  0  0  0  0  0  0  0
    4.0137   -0.7710    0.1968 C   0  0  0  0  0  0  0  0  0  0  0  0
    2.2833   -2.4816    0.5014 C   0  0  0  0  0  0  0  0  0  0  0  0
    1.9672   -3.5175    0.6886 H   0  0  0  0  0  0  0  0  0  0  0  0
   -1.1289    3.0317   -0.9208 C   0  0  0  0  0  0  0  0  0  0  0  0
   -0.7551    2.6990   -1.9102 H   0  0  0  0  0  0  0  0  0  0  0  0
   -2.0085    3.6937   -1.1189 H   0  0  0  0  0  0  0  0  0  0  0  0
   -1.6358    1.7985   -0.1400 C   0  0  0  0  0  0  0  0  0  0  0  0
    1.2552   -1.5091    0.2923 C   0  0  0  0  0  0  0  0  0  0  0  0
    4.7922    1.8803   -0.3339 C   0  0  0  0  0  0  0  0  0  0  0  0
    5.0944    2.9162   -0.5506 H   0  0  0  0  0  0  0  0  0  0  0  0
    3.4391    1.5625   -0.2790 C   0  0  0  0  0  0  0  0  0  0  0  0
    2.7071    2.3602   -0.4695 H   0  0  0  0  0  0  0  0  0  0  0  0
    3.6117   -2.1195    0.4523 C   0  0  0  0  0  0  0  0  0  0  0  0
    4.3941   -2.8797    0.6040 H   0  0  0  0  0  0  0  0  0  0  0  0
    5.3901   -0.4173    0.1335 C   0  0  0  0  0  0  0  0  0  0  0  0
    6.1419   -1.2064    0.2907 H   0  0  0  0  0  0  0  0  0  0  0  0
    5.7811    0.8891   -0.1242 C   0  0  0  0  0  0  0  0  0  0  0  0
    6.8478    1.1532   -0.1725 H   0  0  0  0  0  0  0  0  0  0  0  0
   -2.8980    1.2561   -0.8500 C   0  0  0  0  0  0  0  0  0  0  0  0
   -3.7639    1.9084   -0.6074 H   0  0  0  0  0  0  0  0  0  0  0  0
   -2.7333    1.2622   -1.9552 H   0  0  0  0  0  0  0  0  0  0  0  0
   -0.7049    0.6626   -0.1162 N   0  0  0  0  0  2  0  0  0  0  0  0
   -3.1538   -0.0460   -0.4027 O   0  0  0  0  0  1  0  0  0  0  0  0
   -3.0463    3.0829    1.4536 O   0  0  0  0  0  0  0  0  0  0  0  0
   -2.7943    3.9249    1.0322 H   0  0  0  0  0  0  0  0  0  0  0  0
    0.0060   -1.9321    0.3749 O   0  5  0  0  0  0  0  0  0  0  0  0
   -0.0653    3.7591   -0.3208 O   0  0  0  0  0  0  0  0  0  0  0  0
   -0.3291    4.0066    0.5848 H   0  0  0  0  0  0  0  0  0  0  0  0
  1 31  1  0  0  0  0
  1  3  1  0  0  0  0
  1  2  1  0  0  0  0
  4 15  1  0  0  0  0
  5  4  2  0  0  0  0
  5  8  1  0  0  0  0
  6  7  1  0  0  0  0
  6  4  1  0  0  0  0
  8 20  2  0  0  0  0
  9 10  1  0  0  0  0
 11 34  1  0  0  0  0
 11 14  1  0  0  0  0
 12 11  1  0  0  0  0
 13 11  1  0  0  0  0
 14 29  1  0  0  0  0
 14  1  1  0  0  0  0
 15 33  1  0  0  0  0
 15  9  2  0  0  0  0
 16 18  2  0  0  0  0
 16 24  1  0  0  0  0
 17 16  1  0  0  0  0
 18  5  1  0  0  0  0
 19 18  1  0  0  0  0
 20  9  1  0  0  0  0
 20 21  1  0  0  0  0
 22  8  1  0  0  0  0
 22 23  1  0  0  0  0
 24 22  2  0  0  0  0
 25 24  1  0  0  0  0
 26 27  1  0  0  0  0
 26 30  1  0  0  0  0
 26 14  1  0  0  0  0
 28 26  1  0  0  0  0
 29  6  1  0  0  0  0
 32 31  1  0  0  0  0
 34 35  1  0  0  0  0
M  CHG  1  33  -1
M  END
