1,2,5
q = -1.0

 29 29  0  0  1  0  0  0  0  0999 V2000
   -2.1844    1.1451    0.0633 O   0  5  0  0  0  0  0  0  0  0  0  0
    1.7204    0.9998   -0.2886 O   0  0  0  0  0  1  0  0  0  0  0  0
    5.9339   -1.8928    0.4270 O   0  0  0  0  0  0  0  0  0  0  0  0
    5.7794   -2.0514    1.3766 H   0  0  0  0  0  0  0  0  0  0  0  0
   -0.2254   -0.6726   -0.2316 N   0  0  0  0  0  2  0  0  0  0  0  0
    1.0517   -1.1395   -0.3823 N   0  0  0  0  0  0  0  0  0  0  0  0
    1.2380   -2.1447   -0.4802 H   0  0  0  0  0  0  0  0  0  0  0  0
   -3.0093    0.1479    0.0864 C   0  0  0  0  0  0  0  0  0  0  0  0
   -4.4102    0.3884    0.2383 C   0  0  0  0  0  0  0  0  0  0  0  0
   -4.7305    1.4353    0.3365 H   0  0  0  0  0  0  0  0  0  0  0  0
   -5.3192   -0.6616    0.2594 C   0  0  0  0  0  0  0  0  0  0  0  0
   -6.3917   -0.4416    0.3785 H   0  0  0  0  0  0  0  0  0  0  0  0
   -4.8950   -2.0107    0.1306 C   0  0  0  0  0  0  0  0  0  0  0  0
   -5.6300   -2.8278    0.1494 H   0  0  0  0  0  0  0  0  0  0  0  0
   -3.5434   -2.2806   -0.0188 C   0  0  0  0  0  0  0  0  0  0  0  0
   -3.1909   -3.3200   -0.1208 H   0  0  0  0  0  0  0  0  0  0  0  0
   -2.5800   -1.2294   -0.0435 C   0  0  0  0  0  0  0  0  0  0  0  0
   -1.2025   -1.5529   -0.1996 C   0  0  0  0  0  3  0  0  0  0  0  0
   -0.9459   -2.6295   -0.2997 H   0  0  0  0  0  0  0  0  0  0  0  0
    2.0354   -0.2045   -0.4113 C   0  0  1  0  0  3  0  0  0  0  0  0
    3.4552   -0.6574   -0.5916 C   0  0  0  0  0  0  0  0  0  0  0  0
    3.5459   -1.7562   -0.4681 H   0  0  0  0  0  0  0  0  0  0  0  0
    3.7427   -0.4305   -1.6428 H   0  0  0  0  0  0  0  0  0  0  0  0
    4.4254    0.0482    0.3643 C   0  0  0  0  0  0  0  0  0  0  0  0
    4.0811   -0.0931    1.4131 H   0  0  0  0  0  0  0  0  0  0  0  0
    4.4034    1.1421    0.1807 H   0  0  0  0  0  0  0  0  0  0  0  0
    5.8497   -0.4905    0.2171 C   0  0  0  0  0  0  0  0  0  0  0  0
    6.5334    0.0764    0.8924 H   0  0  0  0  0  0  0  0  0  0  0  0
    6.2102   -0.3167   -0.8195 H   0  0  0  0  0  0  0  0  0  0  0  0
  1  8  1  0  0  0  0
  3  4  1  0  0  0  0
  5 18  1  0  0  0  0
  6  5  1  0  0  0  0
  7  6  1  0  0  0  0
  8  9  1  0  0  0  0
  9 11  2  0  0  0  0
  9 10  1  0  0  0  0
 11 12  1  0  0  0  0
 13 14  1  0  0  0  0
 13 11  1  0  0  0  0
 15 13  2  0  0  0  0
 16 15  1  0  0  0  0
 17 15  1  0  0  0  0
 17  8  2  0  0  0  0
 18 17  1  0  0  0  0
 19 18  1  0  0  0  0
 20  6  1  0  0  0  0
 20  2  1  6  0  0  0
 21 22  1  0  0  0  0
 21 20  1  0  0  0  0
 21 24  1  0  0  0  0
 23 21  1  0  0  0  0
 24 25  1  0  0  0  0
 26 24  1  0  0  0  0
 27 24  1  0  0  0  0
 27  3  1  0  0  0  0
 27 28  1  0  0  0  0
 29 27  1  0  0  0  0
M  CHG  1   1  -1
M  END
