1,6,13
q = -2.0, confidence = 0.9

 21 20  0  0  1  0  0  0  0  0999 V2000
    0.6795    0.0279   -1.5314 O   0  5  0  0  0  0  0  0  0  0  0  0
    1.5308    0.9764   -1.7789 C   0  0  0  0  0  0  0  0  0  0  0  0
    2.1630    1.6998   -0.7748 C   0  0  0  0  0  0  0  0  0  0  0  0
    2.8786    2.4788   -1.0671 H   0  0  0  0  0  0  0  0  0  0  0  0
    1.9500    1.4824    0.6248 C   0  0  1  0  0  3  0  0  0  0  0  0
    1.1016    0.5750    1.0790 N   0  0  0  0  0  2  0  0  0  0  0  0
    0.9722    0.3467    2.5135 C   0  0  0  0  0  0  0  0  0  0  0  0
    1.0148    1.2804    3.1158 H   0  0  0  0  0  0  0  0  0  0  0  0
    1.8086   -0.3080    2.8516 H   0  0  0  0  0  0  0  0  0  0  0  0
   -0.3573   -0.3788    2.7234 C   0  0  0  0  0  0  0  0  0  0  0  0
   -0.3829   -0.8964    3.7095 H   0  0  0  0  0  0  0  0  0  0  0  0
   -1.1969    0.3601    2.7111 H   0  0  0  0  0  0  0  0  0  0  0  0
   -0.5090   -1.2962    1.6823 O   0  0  0  0  0  1  0  0  0  0  0  0
    1.7904    1.2356   -3.2390 C   0  0  0  0  0  0  0  0  0  0  0  0
    2.1926    0.3125   -3.7052 H   0  0  0  0  0  0  0  0  0  0  0  0
    2.5003    2.0670   -3.4010 H   0  0  0  0  0  0  0  0  0  0  0  0
    0.8355    1.4592   -3.7580 H   0  0  0  0  0  0  0  0  0  0  0  0
    2.7629    2.3262    1.5822 C   0  0  0  0  0  0  0  0  0  0  0  0
    2.1106    2.9198    2.2556 H   0  0  0  0  0  0  0  0  0  0  0  0
    3.4266    3.0233    1.0404 H   0  0  0  0  0  0  0  0  0  0  0  0
    3.3896    1.6809    2.2323 H   0  0  0  0  0  0  0  0  0  0  0  0
  2  1  1  0  0  0  0
  2  3  2  0  0  0  0
  4  3  1  0  0  0  0
  5  3  1  6  0  0  0
  5  6  1  0  0  0  0
  5 18  1  0  0  0  0
  6  7  1  0  0  0  0
  7 10  1  0  0  0  0
  7  9  1  0  0  0  0
  7  8  1  0  0  0  0
 10 11  1  0  0  0  0
 12 10  1  0  0  0  0
 13 10  1  0  0  0  0
 14  2  1  0  0  0  0
 15 14  1  0  0  0  0
 16 14  1  0  0  0  0
 17 14  1  0  0  0  0
 18 21  1  0  0  0  0
 18 19  1  0  0  0  0
 20 18  1  0  0  0  0
M  CHG  1   1  -1
M  END
