25,27,28
q = -2.0, confidence = 0.886

 28 29  0  0  0  0  0  0  0  0999 V2000
    1.5492   -0.3570   -0.0916 C   0  0  0  0  0  0  0  0  0  0  0  0
    3.0138   -0.5312   -0.0443 C   0  0  0  0  0  0  0  0  0  0  0  0
    3.8594    0.5941   -0.1479 C   0  0  0  0  0  0  0  0  0  0  0  0
    3.4036    1.5869   -0.2688 H   0  0  0  0  0  0  0  0  0  0  0  0
    5.2501    0.4461   -0.1029 C   0  0  0  0  0  0  0  0  0  0  0  0
    5.9282    1.3076   -0.1838 H   0  0  0  0  0  0  0  0  0  0  0  0
    5.7882   -0.8388    0.0471 C   0  0  0  0  0  0  0  0  0  0  0  0
    4.9710   -1.9746    0.1514 C   0  0  0  0  0  0  0  0  0  0  0  0
    5.4371   -2.9635    0.2669 H   0  0  0  0  0  0  0  0  0  0  0  0
    3.5837   -1.8160    0.1045 C   0  0  0  0  0  0  0  0  0  0  0  0
    2.9117   -2.6820    0.1823 H   0  0  0  0  0  0  0  0  0  0  0  0
   -1.4576   -1.9560   -0.0566 C   0  0  0  0  0  3  0  0  0  0  0  0
   -1.1032   -3.0017    0.0146 H   0  0  0  0  0  0  0  0  0  0  0  0
   -2.8742   -1.7048   -0.0840 C   0  0  0  0  0  0  0  0  0  0  0  0
   -3.3989   -0.3724   -0.0080 C   0  0  0  0  0  0  0  0  0  0  0  0
   -4.8004   -0.1822    0.0057 C   0  0  0  0  0  0  0  0  0  0  0  0
   -5.1792    0.8479    0.0670 H   0  0  0  0  0  0  0  0  0  0  0  0
   -5.6649   -1.2785   -0.0574 C   0  0  0  0  0  0  0  0  0  0  0  0
   -6.7526   -1.1087   -0.0496 H   0  0  0  0  0  0  0  0  0  0  0  0
   -5.1595   -2.5935   -0.1299 C   0  0  0  0  0  0  0  0  0  0  0  0
   -5.8462   -3.4507   -0.1792 H   0  0  0  0  0  0  0  0  0  0  0  0
   -3.7800   -2.7957   -0.1368 C   0  0  0  0  0  0  0  0  0  0  0  0
   -3.3680   -3.8159   -0.1889 H   0  0  0  0  0  0  0  0  0  0  0  0
    7.1235   -0.9885    0.0922 F   0  0  0  0  0  0  0  0  0  0  0  0
   -0.5368   -1.0240   -0.1069 N   0  0  0  0  0  2  0  0  0  0  0  0
    0.7613   -1.4167   -0.0239 N   0  0  0  0  0  0  0  0  0  0  0  0
    1.0705    0.8617   -0.1860 O   0  5  0  0  0  0  0  0  0  0  0  0
   -2.5971    0.6784    0.0896 O   0  5  0  0  0  0  0  0  0  0  0  0
  1  2  1  0  0  0  0
  1 26  2  0  0  0  0
  2 10  1  0  0  0  0
  3  5  1  0  0  0  0
  3  2  2  0  0  0  0
  4  3  1  0  0  0  0
  5  7  2  0  0  0  0
  6  5  1  0  0  0  0
  7 24  1  0  0  0  0
  7  8  1  0  0  0  0
  8  9  1  0  0  0  0
 10  8  2  0  0  0  0
 10 11  1  0  0  0  0
 12 13  1  0  0  0  0
 14 12  1  0  0  0  0
 14 15  1  0  0  0  0
 15 16  2  0  0  0  0
 15 28  1  0  0  0  0
 16 17  1  0  0  0  0
 18 19  1  0  0  0  0
 18 16  1  0  0  0  0
 20 18  2  0  0  0  0
 21 20  1  0  0  0  0
 22 20  1  0  0  0  0
 22 14  2  0  0  0  0
 23 22  1  0  0  0  0
 25 12  1  0  0  0  0
 25 26  1  0  0  0  0
 27  1  1  0  0  0  0
M  CHG  2  27  -1  28  -1
M  END
