1,2,4
q = -2.0, confidence = 0.824

 20 20  0  0  0  0  0  0  0  0999 V2000
   -1.3119    0.8805    0.6812 O   0  5  0  0  0  0  0  0  0  0  0  0
   -1.4086   -1.8039    0.2092 N   0  0  0  0  0  2  0  0  0  0  0  0
   -2.6143    0.8330    0.5988 C   0  0  0  0  0  0  0  0  0  0  0  0
    1.0888   -1.9668    0.6582 O   0  5  0  0  0  0  0  0  0  0  0  0
   -3.3504    2.0480    0.7588 C   0  0  0  0  0  0  0  0  0  0  0  0
   -2.7772    2.9662    0.9529 H   0  0  0  0  0  0  0  0  0  0  0  0
    1.2687   -4.1965    0.3898 O   0  0  0  0  0  0  0  0  0  0  0  0
   -4.7380    2.0696    0.6732 C   0  0  0  0  0  0  0  0  0  0  0  0
   -5.2696    3.0257    0.8020 H   0  0  0  0  0  0  0  0  0  0  0  0
   -5.4756    0.8856    0.4248 C   0  0  0  0  0  0  0  0  0  0  0  0
   -6.5726    0.9154    0.3589 H   0  0  0  0  0  0  0  0  0  0  0  0
   -4.7890   -0.3111    0.2646 C   0  0  0  0  0  3  0  0  0  0  0  0
   -5.3395   -1.2450    0.0666 H   0  0  0  0  0  0  0  0  0  0  0  0
   -3.3694   -0.3710    0.3451 C   0  0  0  0  0  0  0  0  0  0  0  0
   -2.7029   -1.6204    0.1403 C   0  0  0  0  0  0  0  0  0  0  0  0
   -3.3325   -2.4968   -0.1143 H   0  0  0  0  0  0  0  0  0  0  0  0
   -0.8255   -3.0891   -0.1569 C   0  0  0  0  0  0  0  0  0  0  0  0
   -0.7644   -3.1486   -1.2662 H   0  0  0  0  0  0  0  0  0  0  0  0
   -1.4227   -3.9498    0.2097 H   0  0  0  0  0  0  0  0  0  0  0  0
    0.6164   -3.1674    0.3470 C   0  0  0  0  0  0  0  0  0  0  0  0
  3  1  1  0  0  0  0
  3  5  2  0  0  0  0
  5  6  1  0  0  0  0
  8  5  1  0  0  0  0
  8  9  1  0  0  0  0
 10  8  2  0  0  0  0
 11 10  1  0  0  0  0
 12 14  1  0  0  0  0
 12 10  1  0  0  0  0
 13 12  1  0  0  0  0
 14  3  1  0  0  0  0
 15  2  1  0  0  0  0
 15 14  2  0  0  0  0
 16 15  1  0  0  0  0
 17  2  1  0  0  0  0
 17 19  1  0  0  0  0
 17 20  1  0  0  0  0
 18 17  1  0  0  0  0
 20  7  2  0  0  0  0
 20  4  1  0  0  0  0
M  CHG  2   1  -1   4  -1
M  END
