1,2,4
q = -2.0, confidence = 0.812

 23 23  0  0  1  0  0  0  0  0999 V2000
   -1.9397    0.1100   -1.6636 O   0  5  0  0  0  0  0  0  0  0  0  0
   -0.4889   -2.0987    0.9320 O   0  5  0  0  0  0  0  0  0  0  0  0
   -0.9196   -2.9904    2.9625 O   0  0  0  0  0  0  0  0  0  0  0  0
   -2.6726   -0.9326    0.6821 N   0  0  0  0  0  2  0  0  0  0  0  0
   -2.6672    1.1598   -1.3716 C   0  0  0  0  0  0  0  0  0  0  0  0
   -2.7804    2.2254   -2.3036 C   0  0  0  0  0  0  0  0  0  0  0  0
   -3.5530    3.3465   -2.0033 C   0  0  0  0  0  0  0  0  0  0  0  0
   -4.2585    3.4458   -0.7817 C   0  0  0  0  0  0  0  0  0  0  0  0
   -4.1803    2.3996    0.1331 C   0  0  0  0  0  0  0  0  0  0  0  0
   -3.3914    1.2512   -0.1349 C   0  0  0  0  0  0  0  0  0  0  0  0
   -3.3756    0.1579    0.7966 C   0  0  0  0  0  3  0  0  0  0  0  0
   -2.7309   -1.9636    1.7084 C   0  0  2  0  0  0  0  0  0  0  0  0
   -1.2681   -2.4038    1.9554 C   0  0  0  0  0  0  0  0  0  0  0  0
   -3.5704   -3.1688    1.2658 C   0  0  0  0  0  0  0  0  0  0  0  0
   -2.2314    2.1384   -3.2518 H   0  0  0  0  0  0  0  0  0  0  0  0
   -3.6133    4.1681   -2.7339 H   0  0  0  0  0  0  0  0  0  0  0  0
   -4.8654    4.3355   -0.5617 H   0  0  0  0  0  0  0  0  0  0  0  0
   -4.7328    2.4489    1.0852 H   0  0  0  0  0  0  0  0  0  0  0  0
   -4.0370    0.2540    1.6838 H   0  0  0  0  0  0  0  0  0  0  0  0
   -3.1377   -1.5496    2.6569 H   0  0  0  0  0  0  0  0  0  0  0  0
   -4.6300   -2.8761    1.1255 H   0  0  0  0  0  0  0  0  0  0  0  0
   -3.5119   -3.9539    2.0441 H   0  0  0  0  0  0  0  0  0  0  0  0
   -3.1858   -3.5775    0.3108 H   0  0  0  0  0  0  0  0  0  0  0  0
  1  5  1  0  0  0  0
  2 13  1  0  0  0  0
  4 11  1  0  0  0  0
  4 12  1  0  0  0  0
  5 10  1  0  0  0  0
  6  7  1  0  0  0  0
  6  5  2  0  0  0  0
  7  8  2  0  0  0  0
  8 17  1  0  0  0  0
  8  9  1  0  0  0  0
  9 18  1  0  0  0  0
 10  9  2  0  0  0  0
 10 11  1  0  0  0  0
 11 19  1  0  0  0  0
 12 13  1  0  0  0  0
 12 20  1  1  0  0  0
 13  3  2  0  0  0  0
 14 12  1  0  0  0  0
 14 22  1  0  0  0  0
 15  6  1  0  0  0  0
 16  7  1  0  0  0  0
 21 14  1  0  0  0  0
 23 14  1  0  0  0  0
M  CHG  2   1  -1   2  -1
M  END
