2,3,4
q = -2.0, confidence = 0.93

 30 31  0  0  0  0  0  0  0  0999 V2000
    1.2726    0.7909   -0.8838 O   0  0  0  0  0  0  0  0  0  0  0  0
   -0.9650    2.2767   -0.7508 O   0  5  0  0  0  0  0  0  0  0  0  0
   -2.7460    0.2515    1.0553 O   0  5  0  0  0  0  0  0  0  0  0  0
   -0.6235   -1.0417   -0.4806 N   0  0  0  0  0  2  0  0  0  0  0  0
   -1.6996   -1.7711   -0.8135 N   0  0  0  0  0  0  0  0  0  0  0  0
    2.7858   -2.3311    0.2240 C   0  0  0  0  0  0  0  0  0  0  0  0
    2.4811   -3.3770    0.3813 H   0  0  0  0  0  0  0  0  0  0  0  0
    3.5298    0.3461   -0.1000 C   0  0  0  0  0  0  0  0  0  0  0  0
    3.8160    1.3991   -0.2203 H   0  0  0  0  0  0  0  0  0  0  0  0
   -1.3609   -3.0670   -1.0596 C   0  0  0  0  0  3  0  0  0  0  0  0
   -2.1177   -3.7980   -1.3628 H   0  0  0  0  0  0  0  0  0  0  0  0
    0.0173   -3.1727   -0.8801 C   0  0  0  0  0  0  0  0  0  0  0  0
    0.6350   -4.0647   -1.0213 H   0  0  0  0  0  0  0  0  0  0  0  0
    0.4513   -1.8663   -0.5171 C   0  0  0  0  0  0  0  0  0  0  0  0
    1.8173   -1.4105   -0.2225 C   0  0  0  0  0  0  0  0  0  0  0  0
    2.2099   -0.0474   -0.3959 C   0  0  0  0  0  0  0  0  0  0  0  0
    0.0937    2.8950   -1.1713 C   0  0  0  0  0  0  0  0  0  0  0  0
   -3.0074   -1.1383   -0.9125 C   0  0  0  0  0  0  0  0  0  0  0  0
   -3.7213   -1.8993   -1.2723 H   0  0  0  0  0  0  0  0  0  0  0  0
   -2.9328   -0.3161   -1.6565 H   0  0  0  0  0  0  0  0  0  0  0  0
   -3.5559   -0.5249    0.4294 C   0  0  0  0  0  0  0  0  0  0  0  0
    4.4660   -0.5950    0.3488 C   0  0  0  0  0  0  0  0  0  0  0  0
    5.4912   -0.2669    0.5821 H   0  0  0  0  0  0  0  0  0  0  0  0
    4.1014   -1.9406    0.5084 C   0  0  0  0  0  0  0  0  0  0  0  0
    4.8317   -2.6801    0.8695 H   0  0  0  0  0  0  0  0  0  0  0  0
    1.4522    2.2118   -0.8550 C   0  0  0  0  0  0  0  0  0  0  0  0
    2.2073    2.5335   -1.6024 H   0  0  0  0  0  0  0  0  0  0  0  0
    1.7667    2.5117    0.1709 H   0  0  0  0  0  0  0  0  0  0  0  0
    0.1322    3.9786   -1.7578 O   0  0  0  0  0  0  0  0  0  0  0  0
   -4.7198   -0.8051    0.7235 O   0  0  0  0  0  0  0  0  0  0  0  0
  1 26  1  0  0  0  0
  1 16  1  0  0  0  0
  5  4  1  0  0  0  0
  6  7  1  0  0  0  0
  6 24  1  0  0  0  0
  8 22  1  0  0  0  0
  9  8  1  0  0  0  0
 10 12  1  0  0  0  0
 10  5  1  0  0  0  0
 11 10  1  0  0  0  0
 12 14  2  0  0  0  0
 13 12  1  0  0  0  0
 14  4  1  0  0  0  0
 14 15  1  0  0  0  0
 15  6  2  0  0  0  0
 16 15  1  0  0  0  0
 16  8  2  0  0  0  0
 17 26  1  0  0  0  0
 17  2  1  0  0  0  0
 18  5  1  0  0  0  0
 18 21  1  0  0  0  0
 19 18  1  0  0  0  0
 20 18  1  0  0  0  0
 21 30  2  0  0  0  0
 21  3  1  0  0  0  0
 22 24  2  0  0  0  0
 22 23  1  0  0  0  0
 24 25  1  0  0  0  0
 26 28  1  0  0  0  0
 27 26  1  0  0  0  0
 29 17  2  0  0  0  0
M  CHG  2   2  -1   3  -1
M  END
