1,2,3
q = -2.0, confidence = 0.86

 45 46  0  0  0  0  0  0  0  0999 V2000
   -1.5584   -0.6762   -0.6294 O   0  5  0  0  0  0  0  0  0  0  0  0
    1.1328   -0.1239   -1.0721 O   0  5  0  0  0  0  0  0  0  0  0  0
   -0.1040    0.6882    1.4449 N   0  0  0  0  0  0  0  0  0  0  0  0
   -2.4946    0.2654   -0.4351 C   0  0  0  0  0  0  0  0  0  0  0  0
   -3.4656    0.4406   -1.4593 C   0  0  0  0  0  0  0  0  0  0  0  0
   -4.4395    1.4310   -1.2793 C   0  0  0  0  0  0  0  0  0  0  0  0
   -5.1955    1.5744   -2.0684 H   0  0  0  0  0  0  0  0  0  0  0  0
   -4.4801    2.2474   -0.1283 C   0  0  0  0  0  0  0  0  0  0  0  0
   -3.5011    2.0453    0.8607 C   0  0  0  0  0  0  0  0  0  0  0  0
   -3.5118    2.6717    1.7675 H   0  0  0  0  0  0  0  0  0  0  0  0
   -2.5053    1.0609    0.7362 C   0  0  0  0  0  0  0  0  0  0  0  0
   -1.5261    0.8244    1.8573 C   0  0  0  0  0  0  0  0  0  0  0  0
   -1.6158    1.6630    2.5885 H   0  0  0  0  0  0  0  0  0  0  0  0
   -1.7872   -0.1098    2.3955 H   0  0  0  0  0  0  0  0  0  0  0  0
    0.3017    1.9091    0.6973 C   0  0  0  0  0  0  0  0  0  0  0  0
    0.1975    2.8001    1.3613 H   0  0  0  0  0  0  0  0  0  0  0  0
   -0.4306    2.0404   -0.1279 H   0  0  0  0  0  0  0  0  0  0  0  0
    1.6943    1.8595    0.1360 C   0  0  0  0  0  0  0  0  0  0  0  0
    2.6573    2.8352    0.4415 C   0  0  0  0  0  0  0  0  0  0  0  0
    2.3949    3.6379    1.1499 H   0  0  0  0  0  0  0  0  0  0  0  0
    3.9391    2.8112   -0.1376 C   0  0  0  0  0  0  0  0  0  0  0  0
    4.2420    1.7700   -1.0416 C   0  0  0  0  0  0  0  0  0  0  0  0
    5.2446    1.7306   -1.4983 H   0  0  0  0  0  0  0  0  0  0  0  0
    3.3178    0.7700   -1.3764 C   0  0  0  0  0  0  0  0  0  0  0  0
    2.0366    0.8312   -0.7706 C   0  0  0  0  0  0  0  0  0  0  0  0
   -3.4066   -0.4298   -2.6828 C   0  0  0  0  0  0  0  0  0  0  0  0
   -2.4551   -0.2799   -3.2346 H   0  0  0  0  0  0  0  0  0  0  0  0
   -4.2473   -0.2168   -3.3691 H   0  0  0  0  0  0  0  0  0  0  0  0
   -3.4332   -1.5043   -2.4081 H   0  0  0  0  0  0  0  0  0  0  0  0
   -5.5483    3.2991    0.0277 C   0  0  0  0  0  0  0  0  0  0  0  0
   -6.5585    2.8406    0.0796 H   0  0  0  0  0  0  0  0  0  0  0  0
   -5.5592    3.9962   -0.8358 H   0  0  0  0  0  0  0  0  0  0  0  0
   -5.4031    3.8979    0.9473 H   0  0  0  0  0  0  0  0  0  0  0  0
    0.7118    0.5495    2.6657 C   0  0  0  0  0  0  0  0  0  0  0  0
    0.4218   -0.3774    3.1945 H   0  0  0  0  0  0  0  0  0  0  0  0
    0.5573    1.4237    3.3416 H   0  0  0  0  0  0  0  0  0  0  0  0
    1.7800    0.4788    2.3970 H   0  0  0  0  0  0  0  0  0  0  0  0
    4.9693    3.8614    0.1922 C   0  0  0  0  0  0  0  0  0  0  0  0
    4.5877    4.5915    0.9317 H   0  0  0  0  0  0  0  0  0  0  0  0
    5.2749    4.4256   -0.7139 H   0  0  0  0  0  0  0  0  0  0  0  0
    5.8913    3.4054    0.6096 H   0  0  0  0  0  0  0  0  0  0  0  0
    3.6425   -0.3623   -2.3091 C   0  0  0  0  0  0  0  0  0  0  0  0
    2.8763   -0.4596   -3.1048 H   0  0  0  0  0  0  0  0  0  0  0  0
    3.6446   -1.3269   -1.7596 H   0  0  0  0  0  0  0  0  0  0  0  0
    4.6335   -0.2248   -2.7809 H   0  0  0  0  0  0  0  0  0  0  0  0
  1  4  1  0  0  0  0
  2 25  1  0  0  0  0
  3 12  1  0  0  0  0
  3 34  1  0  0  0  0
  4 11  1  0  0  0  0
  5  6  1  0  0  0  0
  5  4  2  0  0  0  0
  6  8  2  0  0  0  0
  7  6  1  0  0  0  0
  8 30  1  0  0  0  0
  8  9  1  0  0  0  0
  9 10  1  0  0  0  0
 11  9  2  0  0  0  0
 11 12  1  0  0  0  0
 12 14  1  0  0  0  0
 12 13  1  0  0  0  0
 15 16  1  0  0  0  0
 15  3  1  0  0  0  0
 17 15  1  0  0  0  0
 18 19  1  0  0  0  0
 18 15  1  0  0  0  0
 19 20  1  0  0  0  0
 21 38  1  0  0  0  0
 21 19  2  0  0  0  0
 22 21  1  0  0  0  0
 23 22  1  0  0  0  0
 24 22  2  0  0  0  0
 24 25  1  0  0  0  0
 25 18  2  0  0  0  0
 26 29  1  0  0  0  0
 26  5  1  0  0  0  0
 27 26  1  0  0  0  0
 28 26  1  0  0  0  0
 30 31  1  0  0  0  0
 30 33  1  0  0  0  0
 32 30  1  0  0  0  0
 34 35  1  0  0  0  0
 34 36  1  0  0  0  0
 37 34  1  0  0  0  0
 38 41  1  0  0  0  0
 38 39  1  0  0  0  0
 40 38  1  0  0  0  0
 42 44  1  0  0  0  0
 42 24  1  0  0  0  0
 43 42  1  0  0  0  0
 45 42  1  0  0  0  0
M  CHG  2   1  -1   2  -1
M  END
