1,3,5
q = -1.0

 20 20  0  0  0  0  0  0  0  0999 V2000
    0.6449    0.2447   -1.3812 O   0  5  0  0  0  0  0  0  0  0  0  0
    2.3544   -2.4052    1.5543 O   0  0  0  0  0  0  0  0  0  0  0  0
   -1.7415   -0.0904    1.5721 O   0  5  0  0  0  0  0  0  0  0  0  0
   -2.3272   -1.4807    3.2319 O   0  0  0  0  0  0  0  0  0  0  0  0
    0.4589   -1.3066    0.9425 N   0  0  0  0  0  2  0  0  0  0  0  0
    1.9385   -0.0497   -1.2958 C   0  0  0  0  0  0  0  0  0  0  0  0
    2.7917    0.5001   -2.2974 C   0  0  0  0  0  0  0  0  0  0  0  0
    4.1636    0.2417   -2.3144 C   0  0  0  0  0  0  0  0  0  0  0  0
    4.7438   -0.5782   -1.3276 C   0  0  0  0  0  0  0  0  0  0  0  0
    3.9193   -1.1300   -0.3430 C   0  0  0  0  0  0  0  0  0  0  0  0
    2.5303   -0.8877   -0.2966 C   0  0  0  0  0  0  0  0  0  0  0  0
    1.7796   -1.5877    0.8027 C   0  0  0  0  0  0  0  0  0  0  0  0
   -0.2761   -1.9413    2.0129 C   0  0  0  0  0  0  0  0  0  0  0  0
   -1.5477   -1.1513    2.3436 C   0  0  0  0  0  0  0  0  0  0  0  0
    2.3241    1.1393   -3.0628 H   0  0  0  0  0  0  0  0  0  0  0  0
    4.7887    0.6875   -3.1051 H   0  0  0  0  0  0  0  0  0  0  0  0
    5.8243   -0.7863   -1.3348 H   0  0  0  0  0  0  0  0  0  0  0  0
    4.3136   -1.7941    0.4418 H   0  0  0  0  0  0  0  0  0  0  0  0
    0.3525   -2.0564    2.9254 H   0  0  0  0  0  0  0  0  0  0  0  0
   -0.5857   -2.9853    1.7624 H   0  0  0  0  0  0  0  0  0  0  0  0
  1  6  1  0  0  0  0
  3 14  1  0  0  0  0
  5 13  1  0  0  0  0
  6 11  1  0  0  0  0
  7  6  2  0  0  0  0
  8  7  1  0  0  0  0
  8  9  2  0  0  0  0
  9 10  1  0  0  0  0
 10 11  2  0  0  0  0
 10 18  1  0  0  0  0
 11 12  1  0  0  0  0
 12  5  1  0  0  0  0
 12  2  2  0  0  0  0
 13 14  1  0  0  0  0
 13 19  1  0  0  0  0
 14  4  2  0  0  0  0
 15  7  1  0  0  0  0
 16  8  1  0  0  0  0
 17  9  1  0  0  0  0
 20 13  1  0  0  0  0
M  CHG  2   1  -1   3  -1
M  END
