3,6,7
q = -1.0

 42 44  0  0  1  0  0  0  0  0999 V2000
    3.2060    0.7036   -0.0390 N   0  0  0  0  0  0  0  0  0  0  0  0
    1.8523    0.4357   -0.0781 C   0  0  0  0  0  0  0  0  0  0  0  0
    1.3569   -0.7327   -0.2416 O   0  5  0  0  0  0  0  0  0  0  0  0
    3.4479    2.0508    0.1074 N   0  0  0  0  0  0  0  0  0  0  0  0
    1.1919    1.7064    0.0488 C   0  0  0  0  0  0  0  0  0  0  0  0
   -2.4526   -1.3716   -0.0538 O   0  0  0  0  0  1  0  0  0  0  0  0
   -0.9651    0.7316   -0.0552 N   0  0  0  0  0  2  0  0  0  0  0  0
    2.2744    2.6611    0.1582 C   0  0  0  0  0  0  0  0  0  0  0  0
   -2.3225    0.8725   -0.1124 N   0  0  0  0  0  0  0  0  0  0  0  0
   -2.7596    1.7976   -0.0804 H   0  0  0  0  0  0  0  0  0  0  0  0
    2.2575    4.1497    0.3255 C   0  0  0  0  0  0  0  0  0  0  0  0
    3.3018    4.5023    0.4155 H   0  0  0  0  0  0  0  0  0  0  0  0
    1.7079    4.4626    1.2373 H   0  0  0  0  0  0  0  0  0  0  0  0
    1.7977    4.6660   -0.5432 H   0  0  0  0  0  0  0  0  0  0  0  0
   -0.2235    1.8385    0.0139 C   0  0  2  0  0  3  0  0  0  0  0  0
   -0.8937    3.1900    0.0438 C   0  0  0  0  0  0  0  0  0  0  0  0
   -1.5700    3.2810    0.9214 H   0  0  0  0  0  0  0  0  0  0  0  0
   -1.4981    3.3557   -0.8744 H   0  0  0  0  0  0  0  0  0  0  0  0
   -0.1614    4.0080    0.1056 H   0  0  0  0  0  0  0  0  0  0  0  0
   -3.0569   -0.2666   -0.1041 C   0  0  2  0  0  3  0  0  0  0  0  0
   -4.5320   -0.1831   -0.1426 C   0  0  0  0  0  0  0  0  0  0  0  0
   -5.2266    0.9850   -0.5288 C   0  0  0  0  0  0  0  0  0  0  0  0
   -4.6832    1.8830   -0.8636 H   0  0  0  0  0  0  0  0  0  0  0  0
   -6.6264    1.0010   -0.5335 C   0  0  0  0  0  0  0  0  0  0  0  0
   -7.1615    1.9113   -0.8418 H   0  0  0  0  0  0  0  0  0  0  0  0
   -7.3443   -0.1478   -0.1602 C   0  0  0  0  0  0  0  0  0  0  0  0
   -8.4445   -0.1327   -0.1661 H   0  0  0  0  0  0  0  0  0  0  0  0
   -6.6582   -1.3164    0.2099 C   0  0  0  0  0  0  0  0  0  0  0  0
   -7.2194   -2.2183    0.4958 H   0  0  0  0  0  0  0  0  0  0  0  0
   -5.2589   -1.3389    0.2157 C   0  0  0  0  0  0  0  0  0  0  0  0
   -4.6990   -2.2419    0.4984 H   0  0  0  0  0  0  0  0  0  0  0  0
    4.3052   -0.1952   -0.1251 C   0  0  0  0  0  0  0  0  0  0  0  0
    5.6103    0.3380   -0.0736 C   0  0  0  0  0  0  0  0  0  0  0  0
    5.7295    1.4235    0.0307 H   0  0  0  0  0  0  0  0  0  0  0  0
    6.7143   -0.5186   -0.1533 C   0  0  0  0  0  0  0  0  0  0  0  0
    7.7284   -0.0926   -0.1116 H   0  0  0  0  0  0  0  0  0  0  0  0
    6.5360   -1.9052   -0.2843 C   0  0  0  0  0  0  0  0  0  0  0  0
    7.4066   -2.5751   -0.3462 H   0  0  0  0  0  0  0  0  0  0  0  0
    5.2345   -2.4266   -0.3347 C   0  0  0  0  0  0  0  0  0  0  0  0
    5.0771   -3.5111   -0.4359 H   0  0  0  0  0  0  0  0  0  0  0  0
    4.1141   -1.5873   -0.2571 C   0  0  0  0  0  0  0  0  0  0  0  0
    3.1016   -2.0043   -0.2972 H   0  0  0  0  0  0  0  0  0  0  0  0
  1  4  1  0  0  0  0
  2  1  1  0  0  0  0
  2  5  2  0  0  0  0
  3  2  1  0  0  0  0
  4  8  2  0  0  0  0
  5  8  1  0  0  0  0
  8 11  1  0  0  0  0
  9 20  1  0  0  0  0
  9 10  1  0  0  0  0
  9  7  1  0  0  0  0
 11 12  1  0  0  0  0
 11 13  1  0  0  0  0
 14 11  1  0  0  0  0
 15  7  1  6  0  0  0
 15 16  1  0  0  0  0
 15  5  1  0  0  0  0
 16 19  1  0  0  0  0
 16 17  1  0  0  0  0
 18 16  1  0  0  0  0
 20  6  1  1  0  0  0
 21 20  1  0  0  0  0
 21 30  1  0  0  0  0
 22 21  2  0  0  0  0
 23 22  1  0  0  0  0
 24 22  1  0  0  0  0
 24 26  2  0  0  0  0
 25 24  1  0  0  0  0
 26 28  1  0  0  0  0
 27 26  1  0  0  0  0
 28 30  2  0  0  0  0
 28 29  1  0  0  0  0
 30 31  1  0  0  0  0
 32 33  1  0  0  0  0
 32  1  1  0  0  0  0
 33 34  1  0  0  0  0
 35 36  1  0  0  0  0
 35 33  2  0  0  0  0
 37 35  1  0  0  0  0
 38 37  1  0  0  0  0
 39 37  2  0  0  0  0
 39 41  1  0  0  0  0
 40 39  1  0  0  0  0
 41 32  2  0  0  0  0
 42 41  1  0  0  0  0
M  CHG  1   3  -1
M  END
