4,6,7
q = -1.0

 41 43  0  0  1  0  0  0  0  0999 V2000
    3.2023    0.6790   -0.0613 N   0  0  0  0  0  0  0  0  0  0  0  0
    1.8416    0.4257   -0.0941 C   0  0  0  0  0  0  0  0  0  0  0  0
    1.1999    1.7119    0.0090 C   0  0  0  0  0  0  0  0  0  0  0  0
   -2.3993   -1.3170   -0.1462 O   0  5  0  0  0  0  0  0  0  0  0  0
    3.4636    2.0275    0.0535 N   0  0  0  0  0  0  0  0  0  0  0  0
    1.3404   -0.7381   -0.2300 O   0  5  0  0  0  0  0  0  0  0  0  0
   -0.9913    0.8080   -0.0698 N   0  0  0  0  0  2  0  0  0  0  0  0
    2.2968    2.6516    0.0945 C   0  0  0  0  0  0  0  0  0  0  0  0
   -2.3231    1.0150   -0.1314 N   0  0  0  0  0  0  0  0  0  0  0  0
    2.2812    4.1422    0.2286 C   0  0  0  0  0  0  0  0  0  0  0  0
    3.3249    4.5024    0.2933 H   0  0  0  0  0  0  0  0  0  0  0  0
    1.7394    4.4704    1.1390 H   0  0  0  0  0  0  0  0  0  0  0  0
    1.7946    4.6343   -0.6381 H   0  0  0  0  0  0  0  0  0  0  0  0
   -6.4520   -1.3707   -0.1292 N   0  0  0  0  0  0  0  0  0  0  0  0
   -6.9125   -2.2866   -0.0950 H   0  0  0  0  0  0  0  0  0  0  0  0
   -0.2072    1.8990   -0.0220 C   0  0  1  0  0  3  0  0  0  0  0  0
   -0.7976    3.2843   -0.0005 C   0  0  0  0  0  0  0  0  0  0  0  0
   -1.8962    3.2255   -0.0698 H   0  0  0  0  0  0  0  0  0  0  0  0
   -0.4055    3.8905   -0.8401 H   0  0  0  0  0  0  0  0  0  0  0  0
   -0.5198    3.8076    0.9359 H   0  0  0  0  0  0  0  0  0  0  0  0
   -2.9643   -0.1499   -0.1447 C   0  0  0  0  0  0  0  0  0  0  0  0
   -4.4237   -0.1092   -0.1622 C   0  0  0  0  0  0  0  0  0  0  0  0
   -5.2110    1.0731   -0.2129 C   0  0  0  0  0  0  0  0  0  0  0  0
   -4.6863    2.0388   -0.2435 H   0  0  0  0  0  0  0  0  0  0  0  0
   -6.6044    0.9947   -0.2200 C   0  0  0  0  0  0  0  0  0  0  0  0
   -7.2239    1.9012   -0.2576 H   0  0  0  0  0  0  0  0  0  0  0  0
   -7.2344   -0.2583   -0.1765 C   0  0  0  0  0  3  0  0  0  0  0  0
   -8.3207   -0.4098   -0.1781 H   0  0  0  0  0  0  0  0  0  0  0  0
   -5.1034   -1.3455   -0.1224 C   0  0  0  0  0  0  0  0  0  0  0  0
   -4.5453   -2.2918   -0.0814 H   0  0  0  0  0  0  0  0  0  0  0  0
    4.2868   -0.2350   -0.1311 C   0  0  0  0  0  0  0  0  0  0  0  0
    5.6002    0.2819   -0.1270 C   0  0  0  0  0  0  0  0  0  0  0  0
    5.7335    1.3693   -0.0696 H   0  0  0  0  0  0  0  0  0  0  0  0
    6.6922   -0.5912   -0.1919 C   0  0  0  0  0  0  0  0  0  0  0  0
    7.7121   -0.1765   -0.1875 H   0  0  0  0  0  0  0  0  0  0  0  0
    6.4952   -1.9797   -0.2615 C   0  0  0  0  0  0  0  0  0  0  0  0
    7.3564   -2.6628   -0.3122 H   0  0  0  0  0  0  0  0  0  0  0  0
    5.1863   -2.4853   -0.2644 C   0  0  0  0  0  0  0  0  0  0  0  0
    5.0136   -3.5712   -0.3162 H   0  0  0  0  0  0  0  0  0  0  0  0
    4.0774   -1.6298   -0.2002 C   0  0  0  0  0  0  0  0  0  0  0  0
    3.0585   -2.0336   -0.2023 H   0  0  0  0  0  0  0  0  0  0  0  0
  1  5  1  0  0  0  0
  2  1  1  0  0  0  0
  2  3  2  0  0  0  0
  3  8  1  0  0  0  0
  4 21  1  0  0  0  0
  5  8  2  0  0  0  0
  6  2  1  0  0  0  0
  8 10  1  0  0  0  0
  9  7  1  0  0  0  0
 10 11  1  0  0  0  0
 10 12  1  0  0  0  0
 13 10  1  0  0  0  0
 14 29  1  0  0  0  0
 14 15  1  0  0  0  0
 16  7  1  1  0  0  0
 16 17  1  0  0  0  0
 16  3  1  0  0  0  0
 17 20  1  0  0  0  0
 18 17  1  0  0  0  0
 19 17  1  0  0  0  0
 21  9  2  0  0  0  0
 22 21  1  0  0  0  0
 22 29  2  0  0  0  0
 23 22  1  0  0  0  0
 24 23  1  0  0  0  0
 25 23  2  0  0  0  0
 25 27  1  0  0  0  0
 26 25  1  0  0  0  0
 27 14  1  0  0  0  0
 28 27  1  0  0  0  0
 29 30  1  0  0  0  0
 31 32  1  0  0  0  0
 31  1  1  0  0  0  0
 32 33  1  0  0  0  0
 34 35  1  0  0  0  0
 34 32  2  0  0  0  0
 36 34  1  0  0  0  0
 37 36  1  0  0  0  0
 38 36  2  0  0  0  0
 38 40  1  0  0  0  0
 39 38  1  0  0  0  0
 40 31  2  0  0  0  0
 41 40  1  0  0  0  0
M  CHG  2   4  -1   6  -1
M  END
