3,6,7
q = -2.0, confidence = 0.844

 41 43  0  0  1  0  0  0  0  0999 V2000
   -3.2508    0.9060    0.0185 N   0  0  0  0  0  0  0  0  0  0  0  0
   -1.8872    0.7099    0.0535 C   0  0  0  0  0  0  0  0  0  0  0  0
   -1.3170   -0.4480    0.2350 O   0  5  0  0  0  0  0  0  0  0  0  0
   -3.5547    2.2395   -0.1210 N   0  0  0  0  0  0  0  0  0  0  0  0
   -1.2822    1.9858   -0.0719 C   0  0  0  0  0  0  0  0  0  0  0  0
    2.2923   -0.9208   -0.3693 O   0  5  0  0  0  0  0  0  0  0  0  0
    0.9401    1.1350   -0.0619 N   0  0  0  0  0  2  0  0  0  0  0  0
   -2.3993    2.8942   -0.1703 C   0  0  0  0  0  0  0  0  0  0  0  0
    2.2813    1.3329    0.0815 N   0  0  0  0  0  0  0  0  0  0  0  0
   -2.4133    4.3805   -0.3418 C   0  0  0  0  0  0  0  0  0  0  0  0
   -3.4609    4.7187   -0.4472 H   0  0  0  0  0  0  0  0  0  0  0  0
   -1.8489    4.6947   -1.2433 H   0  0  0  0  0  0  0  0  0  0  0  0
   -1.9626    4.9038    0.5258 H   0  0  0  0  0  0  0  0  0  0  0  0
    0.1378    2.1942   -0.0064 C   0  0  2  0  0  3  0  0  0  0  0  0
    0.6968    3.5829    0.1317 C   0  0  0  0  0  0  0  0  0  0  0  0
    1.7874    3.5331    0.2858 H   0  0  0  0  0  0  0  0  0  0  0  0
    0.2179    4.1156    0.9760 H   0  0  0  0  0  0  0  0  0  0  0  0
    0.4885    4.1703   -0.7857 H   0  0  0  0  0  0  0  0  0  0  0  0
    2.9309    0.2065   -0.1085 C   0  0  0  0  0  0  0  0  0  0  0  0
    4.4042    0.1592   -0.0258 C   0  0  0  0  0  0  0  0  0  0  0  0
    5.1507    1.3161    0.2907 C   0  0  0  0  0  0  0  0  0  0  0  0
    4.6125    2.2568    0.4728 H   0  0  0  0  0  0  0  0  0  0  0  0
    6.5460    1.2511    0.3699 C   0  0  0  0  0  0  0  0  0  0  0  0
    7.1217    2.1559    0.6178 H   0  0  0  0  0  0  0  0  0  0  0  0
    7.2138    0.0360    0.1337 C   0  0  0  0  0  0  0  0  0  0  0  0
    8.3117   -0.0109    0.1963 H   0  0  0  0  0  0  0  0  0  0  0  0
    6.4765   -1.1164   -0.1827 C   0  0  0  0  0  0  0  0  0  0  0  0
    6.9959   -2.0686   -0.3701 H   0  0  0  0  0  0  0  0  0  0  0  0
    5.0788   -1.0581   -0.2620 C   0  0  0  0  0  0  0  0  0  0  0  0
    4.4850   -1.9490   -0.5116 H   0  0  0  0  0  0  0  0  0  0  0  0
   -4.3009   -0.0438    0.1202 C   0  0  0  0  0  0  0  0  0  0  0  0
   -5.6257    0.4294    0.2243 C   0  0  0  0  0  0  0  0  0  0  0  0
   -5.7929    1.5138    0.2211 H   0  0  0  0  0  0  0  0  0  0  0  0
   -6.6837   -0.4817    0.3206 C   0  0  0  0  0  0  0  0  0  0  0  0
   -7.7136   -0.1017    0.4012 H   0  0  0  0  0  0  0  0  0  0  0  0
   -6.4412   -1.8650    0.3158 C   0  0  0  0  0  0  0  0  0  0  0  0
   -7.2762   -2.5771    0.3928 H   0  0  0  0  0  0  0  0  0  0  0  0
   -5.1211   -2.3279    0.2090 C   0  0  0  0  0  0  0  0  0  0  0  0
   -4.9153   -3.4093    0.1984 H   0  0  0  0  0  0  0  0  0  0  0  0
   -4.0471   -1.4321    0.1098 C   0  0  0  0  0  0  0  0  0  0  0  0
   -3.0188   -1.8011    0.0225 H   0  0  0  0  0  0  0  0  0  0  0  0
  1  2  1  0  0  0  0
  1 31  1  0  0  0  0
  2  3  1  0  0  0  0
  4  1  1  0  0  0  0
  5 14  1  0  0  0  0
  5  2  2  0  0  0  0
  6 19  1  0  0  0  0
  7  9  1  0  0  0  0
  8  4  2  0  0  0  0
  8  5  1  0  0  0  0
 10  8  1  0  0  0  0
 10 13  1  0  0  0  0
 11 10  1  0  0  0  0
 12 10  1  0  0  0  0
 14  7  1  1  0  0  0
 14 15  1  0  0  0  0
 15 16  1  0  0  0  0
 15 17  1  0  0  0  0
 18 15  1  0  0  0  0
 19 20  1  0  0  0  0
 19  9  2  0  0  0  0
 20 21  1  0  0  0  0
 21 23  2  0  0  0  0
 21 22  1  0  0  0  0
 23 24  1  0  0  0  0
 25 26  1  0  0  0  0
 25 23  1  0  0  0  0
 27 25  2  0  0  0  0
 28 27  1  0  0  0  0
 29 27  1  0  0  0  0
 29 20  2  0  0  0  0
 30 29  1  0  0  0  0
 31 32  1  0  0  0  0
 32 34  2  0  0  0  0
 33 32  1  0  0  0  0
 34 35  1  0  0  0  0
 36 34  1  0  0  0  0
 36 37  1  0  0  0  0
 38 36  2  0  0  0  0
 39 38  1  0  0  0  0
 40 31  2  0  0  0  0
 40 38  1  0  0  0  0
 41 40  1  0  0  0  0
M  CHG  2   3  -1   6  -1
M  END
