1,3,4
q = -1.0

 40 41  0  0  1  0  0  0  0  0999 V2000
   -0.5322    1.4262   -0.4854 N   0  0  0  0  0  2  0  0  0  0  0  0
   -1.8948    1.4357   -0.6421 N   0  0  0  0  0  0  0  0  0  0  0  0
    1.9367    0.6708    0.7494 O   0  5  0  0  0  0  0  0  0  0  0  0
   -1.9018   -0.8188   -0.3378 O   0  0  0  0  0  1  0  0  0  0  0  0
   -8.2131    0.2967   -0.3547 O   0  0  0  0  0  0  0  0  0  0  0  0
    4.6687    0.9361    0.6737 C   0  0  0  0  0  0  0  0  0  0  0  0
    6.0502    1.1232    0.8043 C   0  0  0  0  0  0  0  0  0  0  0  0
    6.6174    2.3869    0.5711 C   0  0  0  0  0  0  0  0  0  0  0  0
    5.7889    3.4612    0.2069 C   0  0  0  0  0  0  0  0  0  0  0  0
    4.4074    3.2709    0.0653 C   0  0  0  0  0  0  0  0  0  0  0  0
    3.8268    2.0037    0.2906 C   0  0  0  0  0  0  0  0  0  0  0  0
    2.3558    1.7211    0.1522 C   0  0  0  0  0  0  0  0  0  0  0  0
    1.5586    2.6008   -0.6230 C   0  0  0  0  0  0  0  0  0  0  0  0
    0.1640    2.4997   -0.8588 C   0  0  2  0  0  3  0  0  0  0  0  0
   -0.5442    3.6490   -1.5405 C   0  0  0  0  0  0  0  0  0  0  0  0
   -2.5503    0.2417   -0.4718 C   0  0  2  0  0  3  0  0  0  0  0  0
   -4.0314    0.2816   -0.4595 C   0  0  0  0  0  0  0  0  0  0  0  0
   -4.7934    1.3409   -1.0069 C   0  0  0  0  0  0  0  0  0  0  0  0
   -6.1856    1.3183   -0.9572 C   0  0  0  0  0  0  0  0  0  0  0  0
   -6.8582    0.2274   -0.3589 C   0  0  0  0  0  0  0  0  0  0  0  0
   -6.1085   -0.8432    0.1762 C   0  0  0  0  0  0  0  0  0  0  0  0
   -4.7112   -0.8093    0.1156 C   0  0  0  0  0  0  0  0  0  0  0  0
   -8.9444   -0.7697    0.2250 C   0  0  0  0  0  0  0  0  0  0  0  0
    4.2064   -0.0435    0.8604 H   0  0  0  0  0  0  0  0  0  0  0  0
    6.6911    0.2753    1.0922 H   0  0  0  0  0  0  0  0  0  0  0  0
    7.7026    2.5374    0.6787 H   0  0  0  0  0  0  0  0  0  0  0  0
    6.2225    4.4591    0.0382 H   0  0  0  0  0  0  0  0  0  0  0  0
    3.7709    4.1283   -0.1983 H   0  0  0  0  0  0  0  0  0  0  0  0
    2.0531    3.4674   -1.0780 H   0  0  0  0  0  0  0  0  0  0  0  0
   -1.1948    3.2882   -2.3646 H   0  0  0  0  0  0  0  0  0  0  0  0
    0.1814    4.3738   -1.9509 H   0  0  0  0  0  0  0  0  0  0  0  0
   -1.1917    4.2055   -0.8268 H   0  0  0  0  0  0  0  0  0  0  0  0
   -4.2963    2.1843   -1.5115 H   0  0  0  0  0  0  0  0  0  0  0  0
   -6.7897    2.1299   -1.3873 H   0  0  0  0  0  0  0  0  0  0  0  0
   -6.6060   -1.7037    0.6426 H   0  0  0  0  0  0  0  0  0  0  0  0
   -4.1096   -1.6330    0.5263 H   0  0  0  0  0  0  0  0  0  0  0  0
   -8.7554   -1.7332   -0.2986 H   0  0  0  0  0  0  0  0  0  0  0  0
  -10.0133   -0.5072    0.1214 H   0  0  0  0  0  0  0  0  0  0  0  0
   -8.7052   -0.8961    1.3043 H   0  0  0  0  0  0  0  0  0  0  0  0
   -2.4087    2.3069   -0.4745 H   0  0  0  0  0  0  0  0  0  0  0  0
  2  1  1  0  0  0  0
  2 40  1  0  0  0  0
  2 16  1  0  0  0  0
  5 23  1  0  0  0  0
  6  7  1  0  0  0  0
  6 24  1  0  0  0  0
  7 25  1  0  0  0  0
  8 26  1  0  0  0  0
  8  7  2  0  0  0  0
  9  8  1  0  0  0  0
 10  9  2  0  0  0  0
 10 11  1  0  0  0  0
 11  6  2  0  0  0  0
 12 11  1  0  0  0  0
 12  3  1  0  0  0  0
 13 12  2  0  0  0  0
 14 13  1  1  0  0  0
 14  1  1  0  0  0  0
 15 14  1  0  0  0  0
 15 32  1  0  0  0  0
 16 17  1  0  0  0  0
 16  4  1  6  0  0  0
 17 22  1  0  0  0  0
 18 19  1  0  0  0  0
 18 17  2  0  0  0  0
 19 20  2  0  0  0  0
 20  5  1  0  0  0  0
 20 21  1  0  0  0  0
 21 35  1  0  0  0  0
 22 21  2  0  0  0  0
 22 36  1  0  0  0  0
 23 39  1  0  0  0  0
 27  9  1  0  0  0  0
 28 10  1  0  0  0  0
 29 13  1  0  0  0  0
 30 15  1  0  0  0  0
 31 15  1  0  0  0  0
 33 18  1  0  0  0  0
 34 19  1  0  0  0  0
 37 23  1  0  0  0  0
 38 23  1  0  0  0  0
M  CHG  1   3  -1
M  END
