2,3,4
q = -2.0, confidence = 0.866

 27 28  0  0  0  0  0  0  0  0999 V2000
    5.9174    1.6275   -0.1016 Br  0  0  0  0  0  0  0  0  0  0  0  0
    0.9127   -1.7801    0.0557 O   0  5  0  0  0  0  0  0  0  0  0  0
   -2.7113   -0.6799   -0.2749 O   0  5  0  0  0  0  0  0  0  0  0  0
   -0.5419    0.5425   -0.0484 N   0  0  0  0  0  2  0  0  0  0  0  0
   -1.6403    1.3444    0.0419 N   0  0  0  0  0  0  0  0  0  0  0  0
   -6.5936    2.5218   -0.0073 N   0  0  0  0  0  0  0  0  0  0  0  0
    1.8933    0.4323   -0.0198 C   0  0  0  0  0  0  0  0  0  0  0  0
    1.9876   -0.9967   -0.0155 C   0  0  0  0  0  0  0  0  0  0  0  0
    3.2633   -1.6020   -0.0439 C   0  0  0  0  0  0  0  0  0  0  0  0
    3.3139   -2.6999   -0.0417 H   0  0  0  0  0  0  0  0  0  0  0  0
    4.4254   -0.8280   -0.0723 C   0  0  0  0  0  0  0  0  0  0  0  0
    5.4121   -1.3119   -0.0965 H   0  0  0  0  0  0  0  0  0  0  0  0
    4.3322    0.5794   -0.0678 C   0  0  0  0  0  0  0  0  0  0  0  0
    3.0855    1.2026   -0.0384 C   0  0  0  0  0  0  0  0  0  0  0  0
    3.0149    2.3000   -0.0364 H   0  0  0  0  0  0  0  0  0  0  0  0
    0.6306    1.1259    0.0242 C   0  0  0  0  0  3  0  0  0  0  0  0
    0.6341    2.2281    0.1203 H   0  0  0  0  0  0  0  0  0  0  0  0
   -2.7370    0.6272   -0.1053 C   0  0  0  0  0  0  0  0  0  0  0  0
   -4.0583    1.2852   -0.0723 C   0  0  0  0  0  0  0  0  0  0  0  0
   -4.1791    2.6764    0.1215 C   0  0  0  0  0  0  0  0  0  0  0  0
   -3.2780    3.2922    0.2489 H   0  0  0  0  0  0  0  0  0  0  0  0
   -5.4637    3.2348    0.1457 C   0  0  0  0  0  0  0  0  0  0  0  0
   -5.5879    4.3221    0.2967 H   0  0  0  0  0  0  0  0  0  0  0  0
   -6.4678    1.1980   -0.1936 C   0  0  0  0  0  0  0  0  0  0  0  0
   -7.4063    0.6291   -0.3190 H   0  0  0  0  0  0  0  0  0  0  0  0
   -5.2352    0.5289   -0.2344 C   0  0  0  0  0  0  0  0  0  0  0  0
   -5.1741   -0.5574   -0.3894 H   0  0  0  0  0  0  0  0  0  0  0  0
  1 13  1  0  0  0  0
  3 18  1  0  0  0  0
  4 16  1  0  0  0  0
  4  5  1  0  0  0  0
  6 22  1  0  0  0  0
  7  8  1  0  0  0  0
  7 16  1  0  0  0  0
  8  2  1  0  0  0  0
  9 10  1  0  0  0  0
  9  8  2  0  0  0  0
 11 13  2  0  0  0  0
 11  9  1  0  0  0  0
 12 11  1  0  0  0  0
 13 14  1  0  0  0  0
 14 15  1  0  0  0  0
 14  7  2  0  0  0  0
 16 17  1  0  0  0  0
 18 19  1  0  0  0  0
 18  5  2  0  0  0  0
 19 20  1  0  0  0  0
 20 22  2  0  0  0  0
 20 21  1  0  0  0  0
 22 23  1  0  0  0  0
 24  6  2  0  0  0  0
 25 24  1  0  0  0  0
 26 24  1  0  0  0  0
 26 19  2  0  0  0  0
 27 26  1  0  0  0  0
M  CHG  2   2  -1   3  -1
M  END
