3,5,6
q = -2.0, confidence = 0.918

 28 29  0  0  0  0  0  0  0  0999 V2000
    6.8331    0.2313   -0.9486 Br  0  0  0  0  0  0  0  0  0  0  0  0
   -1.7795    4.0603   -1.7328 F   0  0  0  0  0  0  0  0  0  0  0  0
    0.4264    1.2039    0.0928 N   0  0  0  0  0  2  0  0  0  0  0  0
   -0.4971    2.0799   -0.3897 N   0  0  0  0  0  0  0  0  0  0  0  0
    1.3196   -1.0673    1.1715 O   0  5  0  0  0  0  0  0  0  0  0  0
   -1.7824    0.9258    1.1173 O   0  5  0  0  0  0  0  0  0  0  0  0
    2.7347    0.4250   -0.0571 C   0  0  0  0  0  0  0  0  0  0  0  0
    2.5187   -0.7571    0.7265 C   0  0  0  0  0  0  0  0  0  0  0  0
    3.6150   -1.6176    0.9813 C   0  0  0  0  0  0  0  0  0  0  0  0
    3.4350   -2.5223    1.5788 H   0  0  0  0  0  0  0  0  0  0  0  0
    4.8866   -1.3219    0.4891 C   0  0  0  0  0  0  0  0  0  0  0  0
    5.7312   -1.9935    0.6992 H   0  0  0  0  0  0  0  0  0  0  0  0
    5.0922   -0.1574   -0.2827 C   0  0  0  0  0  0  0  0  0  0  0  0
    4.0323    0.7028   -0.5605 C   0  0  0  0  0  0  0  0  0  0  0  0
    4.1928    1.6060   -1.1671 H   0  0  0  0  0  0  0  0  0  0  0  0
    1.6448    1.2967   -0.3931 C   0  0  0  0  0  3  0  0  0  0  0  0
    1.8132    2.1095   -1.1229 H   0  0  0  0  0  0  0  0  0  0  0  0
   -1.6524    1.8704    0.2156 C   0  0  0  0  0  0  0  0  0  0  0  0
   -2.8480    2.6789   -0.0923 C   0  0  0  0  0  0  0  0  0  0  0  0
   -2.8755    3.7298   -1.0411 C   0  0  0  0  0  0  0  0  0  0  0  0
   -4.0453    4.4584   -1.2902 C   0  0  0  0  0  0  0  0  0  0  0  0
   -4.0071    5.2633   -2.0379 H   0  0  0  0  0  0  0  0  0  0  0  0
   -5.2201    4.1518   -0.5908 C   0  0  0  0  0  0  0  0  0  0  0  0
   -6.1364    4.7280   -0.7892 H   0  0  0  0  0  0  0  0  0  0  0  0
   -5.2224    3.1147    0.3575 C   0  0  0  0  0  0  0  0  0  0  0  0
   -6.1412    2.8710    0.9107 H   0  0  0  0  0  0  0  0  0  0  0  0
   -4.0500    2.3929    0.5978 C   0  0  0  0  0  0  0  0  0  0  0  0
   -4.0224    1.5778    1.3344 H   0  0  0  0  0  0  0  0  0  0  0  0
  1 13  1  0  0  0  0
  2 20  1  0  0  0  0
  4  3  1  0  0  0  0
  4 18  2  0  0  0  0
  7  8  1  0  0  0  0
  8  9  2  0  0  0  0
  8  5  1  0  0  0  0
  9 10  1  0  0  0  0
 11 12  1  0  0  0  0
 11  9  1  0  0  0  0
 13 11  2  0  0  0  0
 14 13  1  0  0  0  0
 14  7  2  0  0  0  0
 15 14  1  0  0  0  0
 16  7  1  0  0  0  0
 16  3  1  0  0  0  0
 17 16  1  0  0  0  0
 18  6  1  0  0  0  0
 19 18  1  0  0  0  0
 19 27  1  0  0  0  0
 20 19  2  0  0  0  0
 21 20  1  0  0  0  0
 21 23  2  0  0  0  0
 22 21  1  0  0  0  0
 23 25  1  0  0  0  0
 24 23  1  0  0  0  0
 25 27  2  0  0  0  0
 25 26  1  0  0  0  0
 27 28  1  0  0  0  0
M  CHG  2   5  -1   6  -1
M  END
