2,3,4
q = -2.0, confidence = 0.838

 24 24  0  0  1  0  0  0  0  0999 V2000
    5.4075    0.5726   -0.0399 Br  0  0  0  0  0  0  0  0  0  0  0  0
   -1.1009    1.2107    0.2478 N   0  0  0  0  0  2  0  0  0  0  0  0
   -0.3208   -1.3933   -0.1183 O   0  5  0  0  0  0  0  0  0  0  0  0
   -3.5512    0.5748   -0.2145 O   0  0  0  0  0  1  0  0  0  0  0  0
    1.2105    0.4703    0.0722 C   0  0  0  0  0  0  0  0  0  0  0  0
    0.9086   -0.9210   -0.1102 C   0  0  0  0  0  0  0  0  0  0  0  0
    1.9903   -1.8299   -0.2512 C   0  0  0  0  0  0  0  0  0  0  0  0
    1.7494   -2.8938   -0.3863 H   0  0  0  0  0  0  0  0  0  0  0  0
    3.3117   -1.3886   -0.2356 C   0  0  0  0  0  0  0  0  0  0  0  0
    4.1356   -2.1061   -0.3598 H   0  0  0  0  0  0  0  0  0  0  0  0
    3.5988   -0.0160   -0.0617 C   0  0  0  0  0  0  0  0  0  0  0  0
    2.5629    0.8999    0.0973 C   0  0  0  0  0  0  0  0  0  0  0  0
    2.7851    1.9676    0.2431 H   0  0  0  0  0  0  0  0  0  0  0  0
    0.1734    1.4490    0.3019 C   0  0  0  0  0  3  0  0  0  0  0  0
    0.5179    2.4732    0.5649 H   0  0  0  0  0  0  0  0  0  0  0  0
   -2.0756    2.2404    0.5686 C   0  0  0  0  0  0  0  0  0  0  0  0
   -1.6670    3.2657    0.4310 H   0  0  0  0  0  0  0  0  0  0  0  0
   -2.3746    2.1173    1.6339 H   0  0  0  0  0  0  0  0  0  0  0  0
   -3.3115    1.9661   -0.3033 C   0  0  2  0  0  0  0  0  0  0  0  0
   -3.0563    2.2209   -1.3625 H   0  0  0  0  0  0  0  0  0  0  0  0
   -4.5463    2.7409    0.1327 C   0  0  0  0  0  0  0  0  0  0  0  0
   -5.4057    2.4708   -0.5100 H   0  0  0  0  0  0  0  0  0  0  0  0
   -4.3786    3.8338    0.0510 H   0  0  0  0  0  0  0  0  0  0  0  0
   -4.8069    2.4948    1.1818 H   0  0  0  0  0  0  0  0  0  0  0  0
  2 14  1  0  0  0  0
  2 16  1  0  0  0  0
  3  6  1  0  0  0  0
  5 12  1  0  0  0  0
  5 14  1  0  0  0  0
  6  5  2  0  0  0  0
  7  9  2  0  0  0  0
  7  6  1  0  0  0  0
  8  7  1  0  0  0  0
  9 11  1  0  0  0  0
 10  9  1  0  0  0  0
 11  1  1  0  0  0  0
 11 12  2  0  0  0  0
 12 13  1  0  0  0  0
 14 15  1  0  0  0  0
 16 18  1  0  0  0  0
 17 16  1  0  0  0  0
 19 20  1  6  0  0  0
 19  4  1  0  0  0  0
 19 21  1  0  0  0  0
 19 16  1  0  0  0  0
 21 24  1  0  0  0  0
 22 21  1  0  0  0  0
 23 21  1  0  0  0  0
M  CHG  1   3  -1
M  END
