1,6,7
q = -1.0, confidence = 0.056

 32 33  0  0  1  0  0  0  0  0999 V2000
   -0.6210   -0.5924    1.8001 N   0  0  0  0  0  2  0  0  0  0  0  0
   -1.6921    0.2441    1.6887 N   0  0  0  0  0  0  0  0  0  0  0  0
   -2.2680    0.4667    2.5069 H   0  0  0  0  0  0  0  0  0  0  0  0
   -3.7216    1.7195   -1.0259 N   0  0  0  0  0  0  0  0  0  0  0  0
   -5.8190    3.9022    0.9682 N   0  0  0  0  0  0  0  0  0  0  0  0
    1.3846   -2.1987    0.7001 O   0  5  0  0  0  0  0  0  0  0  0  0
   -1.2918    0.2293   -0.5390 O   0  0  0  0  0  1  0  0  0  0  0  0
   -5.7627    4.1338    2.1780 O   0  0  0  0  0  0  0  0  0  0  0  0
   -6.6301    4.3870    0.1750 O   0  0  0  0  0  0  0  0  0  0  0  0
   -0.2258   -1.0596    2.9565 C   0  0  0  0  0  3  0  0  0  0  0  0
   -0.7527   -0.7329    3.8753 H   0  0  0  0  0  0  0  0  0  0  0  0
    0.8579   -1.9791    3.0926 C   0  0  0  0  0  0  0  0  0  0  0  0
    1.5923   -2.4944    1.9520 C   0  0  0  0  0  0  0  0  0  0  0  0
    2.6492   -3.4214    2.2247 C   0  0  0  0  0  0  0  0  0  0  0  0
    3.2002   -3.8094    1.3564 H   0  0  0  0  0  0  0  0  0  0  0  0
    2.9626   -3.8097    3.5189 C   0  0  0  0  0  0  0  0  0  0  0  0
    3.7848   -4.5241    3.6807 H   0  0  0  0  0  0  0  0  0  0  0  0
    2.2435   -3.3026    4.6319 C   0  0  0  0  0  0  0  0  0  0  0  0
    2.5008   -3.6165    5.6532 H   0  0  0  0  0  0  0  0  0  0  0  0
    1.2120   -2.4053    4.4079 C   0  0  0  0  0  0  0  0  0  0  0  0
    0.6387   -1.9988    5.2568 H   0  0  0  0  0  0  0  0  0  0  0  0
   -2.0020    0.6462    0.4243 C   0  0  1  0  0  3  0  0  0  0  0  0
   -3.1396    1.5298    0.2321 C   0  0  0  0  0  0  0  0  0  0  0  0
   -3.8340    2.3154    1.1614 C   0  0  0  0  0  0  0  0  0  0  0  0
   -3.6389    2.4460    2.2305 H   0  0  0  0  0  0  0  0  0  0  0  0
   -4.8472    2.9751    0.4324 C   0  0  0  0  0  0  0  0  0  0  0  0
   -4.7586    2.5920   -0.9100 C   0  0  0  0  0  0  0  0  0  0  0  0
   -5.3764    2.8944   -1.7609 H   0  0  0  0  0  0  0  0  0  0  0  0
   -3.3220    1.0764   -2.2762 C   0  0  0  0  0  0  0  0  0  0  0  0
   -4.0509    1.3600   -3.0561 H   0  0  0  0  0  0  0  0  0  0  0  0
   -3.3097   -0.0231   -2.1581 H   0  0  0  0  0  0  0  0  0  0  0  0
   -2.3056    1.3966   -2.5691 H   0  0  0  0  0  0  0  0  0  0  0  0
  1 10  1  0  0  0  0
  2  1  1  0  0  0  0
  2  3  1  0  0  0  0
  4 27  1  0  0  0  0
  4 23  1  0  0  0  0
  5  8  2  0  0  0  0
  6 13  1  0  0  0  0
  9  5  2  0  0  0  0
 10 12  1  0  0  0  0
 10 11  1  0  0  0  0
 12 20  1  0  0  0  0
 13 14  1  0  0  0  0
 13 12  2  0  0  0  0
 14 16  2  0  0  0  0
 15 14  1  0  0  0  0
 16 17  1  0  0  0  0
 16 18  1  0  0  0  0
 18 19  1  0  0  0  0
 20 18  2  0  0  0  0
 20 21  1  0  0  0  0
 22  7  1  6  0  0  0
 22  2  1  0  0  0  0
 23 22  1  0  0  0  0
 23 24  2  0  0  0  0
 24 25  1  0  0  0  0
 26  5  1  0  0  0  0
 26 24  1  0  0  0  0
 27 26  2  0  0  0  0
 28 27  1  0  0  0  0
 29 31  1  0  0  0  0
 29  4  1  0  0  0  0
 30 29  1  0  0  0  0
 32 29  1  0  0  0  0
M  CHG  1   6  -1
M  END
