3,5,6
q = -2.0, confidence = 0.892

 28 29  0  0  0  0  0  0  0  0999 V2000
    6.8305   -0.3181   -0.2035 Cl  0  0  0  0  0  0  0  0  0  0  0  0
   -6.7181    2.2138   -0.0877 Cl  0  0  0  0  0  0  0  0  0  0  0  0
   -0.4962    0.6770   -0.1117 N   0  0  0  0  0  2  0  0  0  0  0  0
    0.6639    1.3971   -0.0786 N   0  0  0  0  0  0  0  0  0  0  0  0
   -2.1471   -1.5119    0.0153 O   0  5  0  0  0  0  0  0  0  0  0  0
    1.5719   -0.7266   -0.1616 O   0  5  0  0  0  0  0  0  0  0  0  0
   -2.9334    0.7746   -0.0611 C   0  0  0  0  0  0  0  0  0  0  0  0
   -3.1498   -0.6405   -0.0316 C   0  0  0  0  0  0  0  0  0  0  0  0
   -4.4735   -1.1340   -0.0239 C   0  0  0  0  0  0  0  0  0  0  0  0
   -4.6173   -2.2232   -0.0001 H   0  0  0  0  0  0  0  0  0  0  0  0
   -5.5641   -0.2632   -0.0427 C   0  0  0  0  0  0  0  0  0  0  0  0
   -6.5913   -0.6541   -0.0367 H   0  0  0  0  0  0  0  0  0  0  0  0
   -5.3512    1.1315   -0.0665 C   0  0  0  0  0  0  0  0  0  0  0  0
   -4.0548    1.6443   -0.0733 C   0  0  0  0  0  0  0  0  0  0  0  0
   -3.8964    2.7322   -0.0930 H   0  0  0  0  0  0  0  0  0  0  0  0
   -1.6168    1.3571   -0.0626 C   0  0  0  0  0  3  0  0  0  0  0  0
   -1.5269    2.4591   -0.0249 H   0  0  0  0  0  0  0  0  0  0  0  0
    1.7036    0.5870   -0.1319 C   0  0  0  0  0  0  0  0  0  0  0  0
    3.0725    1.1370   -0.1230 C   0  0  0  0  0  0  0  0  0  0  0  0
    4.1692    0.2515   -0.1670 C   0  0  0  0  0  0  0  0  0  0  0  0
    3.9950   -0.8315   -0.2174 H   0  0  0  0  0  0  0  0  0  0  0  0
    5.4701    0.7719   -0.1507 C   0  0  0  0  0  0  0  0  0  0  0  0
    5.6954    2.1580   -0.0929 C   0  0  0  0  0  0  0  0  0  0  0  0
    6.7255    2.5408   -0.0823 H   0  0  0  0  0  0  0  0  0  0  0  0
    4.5949    3.0300   -0.0517 C   0  0  0  0  0  0  0  0  0  0  0  0
    4.7686    4.1156   -0.0088 H   0  0  0  0  0  0  0  0  0  0  0  0
    3.2880    2.5318   -0.0665 C   0  0  0  0  0  0  0  0  0  0  0  0
    2.4174    3.2009   -0.0361 H   0  0  0  0  0  0  0  0  0  0  0  0
  1 22  1  0  0  0  0
  2 13  1  0  0  0  0
  3  4  1  0  0  0  0
  3 16  1  0  0  0  0
  6 18  1  0  0  0  0
  7  8  1  0  0  0  0
  8  9  2  0  0  0  0
  8  5  1  0  0  0  0
  9 10  1  0  0  0  0
 11 12  1  0  0  0  0
 11  9  1  0  0  0  0
 13 11  2  0  0  0  0
 14 13  1  0  0  0  0
 14  7  2  0  0  0  0
 15 14  1  0  0  0  0
 16  7  1  0  0  0  0
 16 17  1  0  0  0  0
 18 19  1  0  0  0  0
 18  4  2  0  0  0  0
 19 27  1  0  0  0  0
 20 22  1  0  0  0  0
 20 19  2  0  0  0  0
 21 20  1  0  0  0  0
 22 23  2  0  0  0  0
 23 24  1  0  0  0  0
 23 25  1  0  0  0  0
 25 26  1  0  0  0  0
 27 25  2  0  0  0  0
 27 28  1  0  0  0  0
M  CHG  2   5  -1   6  -1
M  END
