2,5,6
q = -2.0, confidence = 0.86

 32 33  0  0  0  0  0  0  0  0999 V2000
    6.1965    1.7142    0.0020 Br  0  0  0  0  0  0  0  0  0  0  0  0
   -0.5536    0.6650   -0.1394 N   0  0  0  0  0  2  0  0  0  0  0  0
    0.8123    0.7211   -0.1153 N   0  0  0  0  0  0  0  0  0  0  0  0
   -5.6530   -0.0941    0.0076 O   0  0  0  0  0  0  0  0  0  0  0  0
   -3.0564   -0.4176    0.0092 O   0  5  0  0  0  0  0  0  0  0  0  0
    0.5572   -1.5747   -0.1945 O   0  5  0  0  0  0  0  0  0  0  0  0
   -2.6250    1.9597   -0.0697 C   0  0  0  0  0  0  0  0  0  0  0  0
   -3.4959    0.8332   -0.0365 C   0  0  0  0  0  0  0  0  0  0  0  0
   -4.9117    1.0380   -0.0223 C   0  0  0  0  0  0  0  0  0  0  0  0
   -5.4215    2.3459   -0.0366 C   0  0  0  0  0  0  0  0  0  0  0  0
   -6.5072    2.5109   -0.0246 H   0  0  0  0  0  0  0  0  0  0  0  0
   -4.5523    3.4584   -0.0635 C   0  0  0  0  0  0  0  0  0  0  0  0
   -4.9758    4.4730   -0.0745 H   0  0  0  0  0  0  0  0  0  0  0  0
   -3.1753    3.2728   -0.0776 C   0  0  0  0  0  0  0  0  0  0  0  0
   -2.4909    4.1339   -0.1008 H   0  0  0  0  0  0  0  0  0  0  0  0
   -1.1940    1.8091   -0.0819 C   0  0  0  0  0  3  0  0  0  0  0  0
   -0.5705    2.7224   -0.0464 H   0  0  0  0  0  0  0  0  0  0  0  0
    1.3174   -0.4947   -0.1717 C   0  0  0  0  0  0  0  0  0  0  0  0
    2.7804   -0.6916   -0.1758 C   0  0  0  0  0  0  0  0  0  0  0  0
    3.6434    0.4241   -0.1032 C   0  0  0  0  0  0  0  0  0  0  0  0
    3.2134    1.4329   -0.0501 H   0  0  0  0  0  0  0  0  0  0  0  0
    5.0259    0.2157   -0.1007 C   0  0  0  0  0  0  0  0  0  0  0  0
    5.5699   -1.0797   -0.1727 C   0  0  0  0  0  0  0  0  0  0  0  0
    6.6601   -1.2192   -0.1711 H   0  0  0  0  0  0  0  0  0  0  0  0
    4.7020   -2.1799   -0.2476 C   0  0  0  0  0  0  0  0  0  0  0  0
    5.1220   -3.1952   -0.3073 H   0  0  0  0  0  0  0  0  0  0  0  0
    3.3133   -1.9956   -0.2485 C   0  0  0  0  0  0  0  0  0  0  0  0
    2.6233   -2.8484   -0.3099 H   0  0  0  0  0  0  0  0  0  0  0  0
   -7.0626    0.0281    0.0120 C   0  0  0  0  0  0  0  0  0  0  0  0
   -7.4275    0.5768    0.9095 H   0  0  0  0  0  0  0  0  0  0  0  0
   -7.4638   -1.0016    0.0310 H   0  0  0  0  0  0  0  0  0  0  0  0
   -7.4352    0.5460   -0.9002 H   0  0  0  0  0  0  0  0  0  0  0  0
  2  3  1  0  0  0  0
  2 16  1  0  0  0  0
  4 29  1  0  0  0  0
  6 18  1  0  0  0  0
  7  8  1  0  0  0  0
  8  9  2  0  0  0  0
  8  5  1  0  0  0  0
  9  4  1  0  0  0  0
 10 11  1  0  0  0  0
 10  9  1  0  0  0  0
 12 10  2  0  0  0  0
 13 12  1  0  0  0  0
 14  7  2  0  0  0  0
 14 12  1  0  0  0  0
 15 14  1  0  0  0  0
 16  7  1  0  0  0  0
 16 17  1  0  0  0  0
 18  3  2  0  0  0  0
 19 18  1  0  0  0  0
 19 20  1  0  0  0  0
 20 22  2  0  0  0  0
 20 21  1  0  0  0  0
 22  1  1  0  0  0  0
 23 24  1  0  0  0  0
 23 22  1  0  0  0  0
 25 23  2  0  0  0  0
 26 25  1  0  0  0  0
 27 25  1  0  0  0  0
 27 19  2  0  0  0  0
 28 27  1  0  0  0  0
 29 31  1  0  0  0  0
 29 30  1  0  0  0  0
 32 29  1  0  0  0  0
M  CHG  2   5  -1   6  -1
M  END
