1,3,6
q = -2.0, confidence = 0.862

 42 44  0  0  0  0  0  0  0  0999 V2000
   -2.6435    0.5604   -0.1898 O   0  5  0  0  0  0  0  0  0  0  0  0
   -5.2360    1.0280   -0.2101 O   0  0  0  0  0  0  0  0  0  0  0  0
    0.9184    0.8445   -0.0086 O   0  5  0  0  0  0  0  0  0  0  0  0
    2.7914   -2.9369   -0.0691 O   0  0  0  0  0  0  0  0  0  0  0  0
    1.8203   -2.6556   -0.0251 H   0  0  0  0  0  0  0  0  0  0  0  0
   -0.6165   -1.0823    0.1296 N   0  0  0  0  0  2  0  0  0  0  0  0
    0.6900   -1.4334    0.0326 N   0  0  0  0  0  0  0  0  0  0  0  0
   -2.9381   -1.7978    0.1686 C   0  0  0  0  0  0  0  0  0  0  0  0
   -3.4472   -0.4789   -0.0141 C   0  0  0  0  0  0  0  0  0  0  0  0
   -4.8625   -0.2642   -0.0490 C   0  0  0  0  0  0  0  0  0  0  0  0
   -5.7232   -1.3633    0.0975 C   0  0  0  0  0  0  0  0  0  0  0  0
   -6.8113   -1.2156    0.0754 H   0  0  0  0  0  0  0  0  0  0  0  0
   -5.2104   -2.6676    0.2763 C   0  0  0  0  0  0  0  0  0  0  0  0
   -5.9107   -3.5079    0.3889 H   0  0  0  0  0  0  0  0  0  0  0  0
   -3.8393   -2.8900    0.3055 C   0  0  0  0  0  0  0  0  0  0  0  0
   -3.4333   -3.9038    0.4385 H   0  0  0  0  0  0  0  0  0  0  0  0
   -1.5208   -2.0343    0.1516 C   0  0  0  0  0  3  0  0  0  0  0  0
   -1.1585   -3.0795    0.1423 H   0  0  0  0  0  0  0  0  0  0  0  0
    1.4594   -0.3450   -0.0114 C   0  0  0  0  0  0  0  0  0  0  0  0
    2.9132   -0.4988   -0.0866 C   0  0  0  0  0  0  0  0  0  0  0  0
    3.7203    0.6418   -0.1337 C   0  0  0  0  0  0  0  0  0  0  0  0
    3.2290    1.6258   -0.1143 H   0  0  0  0  0  0  0  0  0  0  0  0
    5.1304    0.5562   -0.2028 C   0  0  0  0  0  0  0  0  0  0  0  0
    5.9634    1.7150   -0.2503 C   0  0  0  0  0  0  0  0  0  0  0  0
    5.4856    2.7072   -0.2322 H   0  0  0  0  0  0  0  0  0  0  0  0
    7.3416    1.5963   -0.3177 C   0  0  0  0  0  0  0  0  0  0  0  0
    7.9754    2.4950   -0.3539 H   0  0  0  0  0  0  0  0  0  0  0  0
    7.9426    0.3052   -0.3401 C   0  0  0  0  0  0  0  0  0  0  0  0
    9.0389    0.2192   -0.3935 H   0  0  0  0  0  0  0  0  0  0  0  0
    7.1640   -0.8406   -0.2953 C   0  0  0  0  0  0  0  0  0  0  0  0
    7.6344   -1.8359   -0.3129 H   0  0  0  0  0  0  0  0  0  0  0  0
    5.7394   -0.7573   -0.2256 C   0  0  0  0  0  0  0  0  0  0  0  0
    4.9142   -1.9086   -0.1788 C   0  0  0  0  0  0  0  0  0  0  0  0
    5.3633   -2.9124   -0.1959 H   0  0  0  0  0  0  0  0  0  0  0  0
    3.5221   -1.8157   -0.1101 C   0  0  0  0  0  0  0  0  0  0  0  0
   -6.6217    1.3503   -0.3420 C   0  0  0  0  0  0  0  0  0  0  0  0
   -6.6745    2.4339   -0.1157 H   0  0  0  0  0  0  0  0  0  0  0  0
   -7.2162    0.8252    0.4399 H   0  0  0  0  0  0  0  0  0  0  0  0
   -7.1596    1.0722   -1.7397 C   0  0  0  0  0  0  0  0  0  0  0  0
   -6.5646    1.6199   -2.4969 H   0  0  0  0  0  0  0  0  0  0  0  0
   -8.2136    1.4072   -1.8161 H   0  0  0  0  0  0  0  0  0  0  0  0
   -7.1240   -0.0062   -1.9911 H   0  0  0  0  0  0  0  0  0  0  0  0
  1  9  1  0  0  0  0
  2 10  1  0  0  0  0
  4  5  1  0  0  0  0
  6 17  1  0  0  0  0
  7  6  1  0  0  0  0
  8 15  1  0  0  0  0
  9  8  2  0  0  0  0
 10  9  1  0  0  0  0
 10 11  2  0  0  0  0
 11 13  1  0  0  0  0
 12 11  1  0  0  0  0
 13 15  2  0  0  0  0
 13 14  1  0  0  0  0
 15 16  1  0  0  0  0
 17  8  1  0  0  0  0
 18 17  1  0  0  0  0
 19  3  1  0  0  0  0
 19  7  2  0  0  0  0
 20 19  1  0  0  0  0
 21 22  1  0  0  0  0
 21 20  2  0  0  0  0
 23 21  1  0  0  0  0
 24 25  1  0  0  0  0
 24 23  2  0  0  0  0
 26 24  1  0  0  0  0
 27 26  1  0  0  0  0
 28 26  2  0  0  0  0
 28 30  1  0  0  0  0
 29 28  1  0  0  0  0
 30 32  2  0  0  0  0
 31 30  1  0  0  0  0
 32 23  1  0  0  0  0
 32 33  1  0  0  0  0
 33 35  2  0  0  0  0
 34 33  1  0  0  0  0
 35 20  1  0  0  0  0
 35  4  1  0  0  0  0
 36  2  1  0  0  0  0
 36 37  1  0  0  0  0
 36 38  1  0  0  0  0
 39 36  1  0  0  0  0
 40 39  1  0  0  0  0
 41 39  1  0  0  0  0
 42 39  1  0  0  0  0
M  CHG  2   1  -1   3  -1
M  END
