1,2,3
q = -2.0, confidence = 0.752

 26 27  0  0  1  0  0  0  0  0999 V2000
    1.2192   -1.1682    0.3977 O   0  0  0  0  0  1  0  0  0  0  0  0
   -0.2605   -1.1107   -1.6412 O   0  0  0  0  0  1  0  0  0  0  0  0
    1.0984    1.0237   -1.3488 N   0  0  0  0  0  2  0  0  0  0  0  0
    1.0794   -1.2831   -1.9586 C   0  0  2  0  0  0  0  0  0  0  0  0
    3.7768   -2.4899   -1.8090 N   0  0  0  0  0  0  0  0  0  0  0  0
    1.5493    2.2930   -1.3600 C   0  0  0  0  0  3  0  0  0  0  0  0
    1.0582    2.9928   -0.6680 H   0  0  0  0  0  0  0  0  0  0  0  0
    3.2167   -2.0220   -0.6747 C   0  0  0  0  0  0  0  0  0  0  0  0
    2.5904    2.7015   -2.1996 C   0  0  0  0  0  0  0  0  0  0  0  0
    2.9199    3.7499   -2.1904 H   0  0  0  0  0  0  0  0  0  0  0  0
    1.7034   -1.9296   -0.6601 C   0  0  1  0  0  0  0  0  0  0  0  0
    1.6800    0.0946   -2.1480 C   0  0  0  0  0  0  0  0  0  0  0  0
    2.7441    0.4234   -2.9997 C   0  0  0  0  0  0  0  0  0  0  0  0
    3.2019   -0.3653   -3.6124 H   0  0  0  0  0  0  0  0  0  0  0  0
    3.1973    1.7482   -3.0333 C   0  0  0  0  0  0  0  0  0  0  0  0
    4.0217    2.0376   -3.7027 H   0  0  0  0  0  0  0  0  0  0  0  0
    3.9736   -1.6444    0.4507 C   0  0  0  0  0  0  0  0  0  0  0  0
    3.4495   -1.2765    1.3434 H   0  0  0  0  0  0  0  0  0  0  0  0
    5.1136   -2.5947   -1.8540 C   0  0  0  0  0  0  0  0  0  0  0  0
    5.5425   -2.9799   -2.7971 H   0  0  0  0  0  0  0  0  0  0  0  0
    5.9579   -2.2434   -0.7878 C   0  0  0  0  0  0  0  0  0  0  0  0
    7.0488   -2.3504   -0.8821 H   0  0  0  0  0  0  0  0  0  0  0  0
    5.3687   -1.7584    0.3892 C   0  0  0  0  0  0  0  0  0  0  0  0
    5.9904   -1.4740    1.2526 H   0  0  0  0  0  0  0  0  0  0  0  0
    1.2937   -2.9735   -0.6371 H   0  0  0  0  0  0  0  0  0  0  0  0
    1.2467   -1.9303   -2.8445 H   0  0  0  0  0  0  0  0  0  0  0  0
  4 26  1  6  0  0  0
  4  2  1  0  0  0  0
  4 11  1  0  0  0  0
  5  8  1  0  0  0  0
  6  3  1  0  0  0  0
  6  7  1  0  0  0  0
  8 11  1  0  0  0  0
  8 17  2  0  0  0  0
  9 10  1  0  0  0  0
  9  6  1  0  0  0  0
 11 25  1  1  0  0  0
 11  1  1  0  0  0  0
 12  4  1  0  0  0  0
 12  3  1  0  0  0  0
 13 12  2  0  0  0  0
 14 13  1  0  0  0  0
 15 13  1  0  0  0  0
 15  9  2  0  0  0  0
 16 15  1  0  0  0  0
 17 18  1  0  0  0  0
 19  5  2  0  0  0  0
 19 21  1  0  0  0  0
 20 19  1  0  0  0  0
 21 23  2  0  0  0  0
 22 21  1  0  0  0  0
 23 17  1  0  0  0  0
 23 24  1  0  0  0  0
M  END
