1,2,3
q = -2.0, confidence = 0.868

 63 64  0  0  0  0  0  0  0  0999 V2000
   -1.2614   -0.4197    0.3115 O   0  5  0  0  0  0  0  0  0  0  0  0
    1.6027   -0.6033   -0.2507 O   0  5  0  0  0  0  0  0  0  0  0  0
    0.1047    1.4904   -1.4677 N   0  0  0  0  0  0  0  0  0  0  0  0
   -2.1429    0.5767    0.5150 C   0  0  0  0  0  0  0  0  0  0  0  0
   -3.4285    0.3099    1.0766 C   0  0  0  0  0  0  0  0  0  0  0  0
   -4.2972    1.4077    1.2077 C   0  0  0  0  0  0  0  0  0  0  0  0
   -5.3023    1.2425    1.6192 H   0  0  0  0  0  0  0  0  0  0  0  0
   -3.9491    2.7255    0.8450 C   0  0  0  0  0  0  0  0  0  0  0  0
   -2.6530    2.9539    0.3571 C   0  0  0  0  0  0  0  0  0  0  0  0
   -2.3351    3.9783    0.1023 H   0  0  0  0  0  0  0  0  0  0  0  0
   -1.7412    1.8998    0.1964 C   0  0  0  0  0  0  0  0  0  0  0  0
   -0.3176    2.1660   -0.2163 C   0  0  0  0  0  0  0  0  0  0  0  0
   -0.1691    3.2684   -0.3201 H   0  0  0  0  0  0  0  0  0  0  0  0
    0.3724    1.8288    0.5860 H   0  0  0  0  0  0  0  0  0  0  0  0
    1.5220    1.8209   -1.7617 C   0  0  0  0  0  0  0  0  0  0  0  0
    1.5949    2.8997   -2.0430 H   0  0  0  0  0  0  0  0  0  0  0  0
    1.8039    1.2397   -2.6644 H   0  0  0  0  0  0  0  0  0  0  0  0
    2.5119    1.5608   -0.6553 C   0  0  0  0  0  0  0  0  0  0  0  0
    3.4677    2.5382   -0.3322 C   0  0  0  0  0  0  0  0  0  0  0  0
    3.4410    3.5035   -0.8639 H   0  0  0  0  0  0  0  0  0  0  0  0
    4.4489    2.3087    0.6430 C   0  0  0  0  0  0  0  0  0  0  0  0
    4.4416    1.0650    1.3094 C   0  0  0  0  0  0  0  0  0  0  0  0
    5.2057    0.8942    2.0802 H   0  0  0  0  0  0  0  0  0  0  0  0
    3.5082    0.0507    1.0421 C   0  0  0  0  0  0  0  0  0  0  0  0
    2.5356    0.3215    0.0306 C   0  0  0  0  0  0  0  0  0  0  0  0
   -0.7107    1.9719   -2.5907 C   0  0  0  0  0  0  0  0  0  0  0  0
   -0.5773    3.0716   -2.7358 H   0  0  0  0  0  0  0  0  0  0  0  0
   -1.7784    1.7677   -2.4023 H   0  0  0  0  0  0  0  0  0  0  0  0
   -0.4096    1.4567   -3.5215 H   0  0  0  0  0  0  0  0  0  0  0  0
   -3.8233   -1.0974    1.5670 C   0  0  0  0  0  0  0  0  0  0  0  0
   -2.8251   -1.5450    2.6624 C   0  0  0  0  0  0  0  0  0  0  0  0
   -3.0955   -2.5562    3.0305 H   0  0  0  0  0  0  0  0  0  0  0  0
   -2.8492   -0.8482    3.5249 H   0  0  0  0  0  0  0  0  0  0  0  0
   -1.7900   -1.5858    2.2753 H   0  0  0  0  0  0  0  0  0  0  0  0
   -3.8133   -2.1160    0.4043 C   0  0  0  0  0  0  0  0  0  0  0  0
   -2.7978   -2.2819    0.0052 H   0  0  0  0  0  0  0  0  0  0  0  0
   -4.4654   -1.7795   -0.4267 H   0  0  0  0  0  0  0  0  0  0  0  0
   -4.1942   -3.0942    0.7630 H   0  0  0  0  0  0  0  0  0  0  0  0
   -5.2350   -1.1068    2.1834 C   0  0  0  0  0  0  0  0  0  0  0  0
   -6.0147   -0.8334    1.4437 H   0  0  0  0  0  0  0  0  0  0  0  0
   -5.3188   -0.4190    3.0488 H   0  0  0  0  0  0  0  0  0  0  0  0
   -5.4670   -2.1277    2.5470 H   0  0  0  0  0  0  0  0  0  0  0  0
   -4.9481    3.8464    0.9844 C   0  0  0  0  0  0  0  0  0  0  0  0
   -4.4728    4.8375    0.8505 H   0  0  0  0  0  0  0  0  0  0  0  0
   -5.4385    3.8335    1.9793 H   0  0  0  0  0  0  0  0  0  0  0  0
   -5.7578    3.7600    0.2283 H   0  0  0  0  0  0  0  0  0  0  0  0
    5.4846    3.3507    0.9821 C   0  0  0  0  0  0  0  0  0  0  0  0
    6.5092    2.9920    0.7479 H   0  0  0  0  0  0  0  0  0  0  0  0
    5.4732    3.5970    2.0643 H   0  0  0  0  0  0  0  0  0  0  0  0
    5.3207    4.2896    0.4187 H   0  0  0  0  0  0  0  0  0  0  0  0
    3.5076   -1.2801    1.8185 C   0  0  0  0  0  0  0  0  0  0  0  0
    4.6770   -1.3539    2.8186 C   0  0  0  0  0  0  0  0  0  0  0  0
    4.6229   -0.5559    3.5865 H   0  0  0  0  0  0  0  0  0  0  0  0
    5.6615   -1.2854    2.3130 H   0  0  0  0  0  0  0  0  0  0  0  0
    4.6423   -2.3260    3.3495 H   0  0  0  0  0  0  0  0  0  0  0  0
    3.6529   -2.4724    0.8427 C   0  0  0  0  0  0  0  0  0  0  0  0
    3.6975   -3.4218    1.4148 H   0  0  0  0  0  0  0  0  0  0  0  0
    4.5892   -2.3851    0.2548 H   0  0  0  0  0  0  0  0  0  0  0  0
    2.8040   -2.5406    0.1391 H   0  0  0  0  0  0  0  0  0  0  0  0
    2.1923   -1.4036    2.6263 C   0  0  0  0  0  0  0  0  0  0  0  0
    1.2995   -1.3882    1.9748 H   0  0  0  0  0  0  0  0  0  0  0  0
    2.1024   -0.5732    3.3558 H   0  0  0  0  0  0  0  0  0  0  0  0
    2.1835   -2.3579    3.1920 H   0  0  0  0  0  0  0  0  0  0  0  0
  1  4  1  0  0  0  0
  2 25  1  0  0  0  0
  3 12  1  0  0  0  0
  4  5  1  0  0  0  0
  5  6  2  0  0  0  0
  5 30  1  0  0  0  0
  6  7  1  0  0  0  0
  8 43  1  0  0  0  0
  8  6  1  0  0  0  0
  9  8  2  0  0  0  0
 10  9  1  0  0  0  0
 11  9  1  0  0  0  0
 11  4  2  0  0  0  0
 12 11  1  0  0  0  0
 12 14  1  0  0  0  0
 13 12  1  0  0  0  0
 15  3  1  0  0  0  0
 15 18  1  0  0  0  0
 16 15  1  0  0  0  0
 17 15  1  0  0  0  0
 18 19  2  0  0  0  0
 18 25  1  0  0  0  0
 19 21  1  0  0  0  0
 20 19  1  0  0  0  0
 21 47  1  0  0  0  0
 21 22  2  0  0  0  0
 22 23  1  0  0  0  0
 24 22  1  0  0  0  0
 24 51  1  0  0  0  0
 25 24  2  0  0  0  0
 26 28  1  0  0  0  0
 26  3  1  0  0  0  0
 27 26  1  0  0  0  0
 29 26  1  0  0  0  0
 30 39  1  0  0  0  0
 30 31  1  0  0  0  0
 31 32  1  0  0  0  0
 31 33  1  0  0  0  0
 34 31  1  0  0  0  0
 35 38  1  0  0  0  0
 35 30  1  0  0  0  0
 36 35  1  0  0  0  0
 37 35  1  0  0  0  0
 39 42  1  0  0  0  0
 39 41  1  0  0  0  0
 40 39  1  0  0  0  0
 43 45  1  0  0  0  0
 44 43  1  0  0  0  0
 46 43  1  0  0  0  0
 47 49  1  0  0  0  0
 48 47  1  0  0  0  0
 50 47  1  0  0  0  0
 51 60  1  0  0  0  0
 51 52  1  0  0  0  0
 52 55  1  0  0  0  0
 52 53  1  0  0  0  0
 54 52  1  0  0  0  0
 56 57  1  0  0  0  0
 56 51  1  0  0  0  0
 58 56  1  0  0  0  0
 59 56  1  0  0  0  0
 60 63  1  0  0  0  0
 60 62  1  0  0  0  0
 61 60  1  0  0  0  0
M  CHG  2   1  -1   2  -1
M  END
