1,2,7
q = -2.0, confidence = 0.956

 28 28  0  0  1  0  0  0  0  0999 V2000
   -1.9488   -1.3553   -0.2938 O   0  5  0  0  0  0  0  0  0  0  0  0
   -0.4087    1.9507    0.1752 O   0  5  0  0  0  0  0  0  0  0  0  0
   -5.6050    1.9424    0.0722 F   0  0  0  0  0  0  0  0  0  0  0  0
   -4.9701    3.8521   -0.7565 F   0  0  0  0  0  0  0  0  0  0  0  0
   -5.0982    2.1044   -2.0472 F   0  0  0  0  0  0  0  0  0  0  0  0
   -3.7992   -0.0684   -0.7720 N   0  0  0  0  0  0  0  0  0  0  0  0
   -2.9073    0.9135   -0.4868 N   0  0  0  0  0  2  0  0  0  0  0  0
   -3.2161   -1.2473   -0.6364 C   0  0  0  0  0  0  0  0  0  0  0  0
   -3.2977    2.1876   -0.4845 C   0  0  1  0  0  3  0  0  0  0  0  0
   -3.9815   -2.4858   -0.8727 C   0  0  0  0  0  0  0  0  0  0  0  0
   -0.9240    5.3705    0.7807 F   0  0  0  0  0  0  0  0  0  0  0  0
   -1.0742    3.0700    0.1433 C   0  0  0  0  0  0  0  0  0  0  0  0
   -4.7570    2.5118   -0.8084 C   0  0  0  0  0  0  0  0  0  0  0  0
   -5.3405   -2.4256   -1.2557 C   0  0  0  0  0  0  0  0  0  0  0  0
   -5.8094   -1.4379   -1.3712 H   0  0  0  0  0  0  0  0  0  0  0  0
   -3.3567   -3.7420   -0.7150 C   0  0  0  0  0  0  0  0  0  0  0  0
   -2.2994   -3.7741   -0.4147 H   0  0  0  0  0  0  0  0  0  0  0  0
   -5.4316   -4.8560   -1.3222 C   0  0  0  0  0  0  0  0  0  0  0  0
   -5.9992   -5.7826   -1.4984 H   0  0  0  0  0  0  0  0  0  0  0  0
   -2.4137    3.2519   -0.1637 C   0  0  0  0  0  0  0  0  0  0  0  0
   -2.8191    4.2684   -0.1500 H   0  0  0  0  0  0  0  0  0  0  0  0
   -6.0574   -3.6065   -1.4787 C   0  0  0  0  0  0  0  0  0  0  0  0
   -7.1155   -3.5543   -1.7774 H   0  0  0  0  0  0  0  0  0  0  0  0
    0.5670    4.6215   -0.6229 F   0  0  0  0  0  0  0  0  0  0  0  0
   -0.2007    4.2821    0.4510 C   0  0  0  0  0  0  0  0  0  0  0  0
   -4.0813   -4.9196   -0.9400 C   0  0  0  0  0  0  0  0  0  0  0  0
   -3.5893   -5.8964   -0.8156 H   0  0  0  0  0  0  0  0  0  0  0  0
    0.6517    4.0208    1.4731 F   0  0  0  0  0  0  0  0  0  0  0  0
  5 13  1  0  0  0  0
  6  8  2  0  0  0  0
  6  7  1  0  0  0  0
  8  1  1  0  0  0  0
  9  7  1  1  0  0  0
  9 20  1  0  0  0  0
 10 16  1  0  0  0  0
 10  8  1  0  0  0  0
 12  2  1  0  0  0  0
 12 25  1  0  0  0  0
 13  4  1  0  0  0  0
 13  9  1  0  0  0  0
 13  3  1  0  0  0  0
 14 10  2  0  0  0  0
 15 14  1  0  0  0  0
 16 17  1  0  0  0  0
 18 26  1  0  0  0  0
 19 18  1  0  0  0  0
 20 21  1  0  0  0  0
 20 12  2  0  0  0  0
 22 18  2  0  0  0  0
 22 14  1  0  0  0  0
 23 22  1  0  0  0  0
 24 25  1  0  0  0  0
 25 11  1  0  0  0  0
 25 28  1  0  0  0  0
 26 27  1  0  0  0  0
 26 16  2  0  0  0  0
M  CHG  2   1  -1   2  -1
M  END
