2,3,6
q = -2.0, confidence = 0.864

 24 24  0  0  1  0  0  0  0  0999 V2000
    0.5288    3.0826    1.0893 S   0  0  0  0  0  0  0  0  0  0  0  0
   -1.2385   -0.5273   -1.4870 O   0  0  0  0  0  1  0  0  0  0  0  0
    0.7009    1.5312    0.9943 O   0  0  0  0  0  1  0  0  0  0  0  0
    1.4404    3.6329    2.1067 O   0  0  0  0  0  1  0  0  0  0  0  0
    0.5196    3.7236   -0.2641 O   0  0  0  0  0  1  0  0  0  0  0  0
   -2.0156    1.2257    0.4292 N   0  0  0  0  0  2  0  0  0  0  0  0
   -2.2494   -1.2594   -1.1056 C   0  0  2  0  0  3  0  0  0  0  0  0
   -2.5050   -2.4938   -1.7759 C   0  0  0  0  0  0  0  0  0  0  0  0
   -1.8144   -2.7804   -2.5820 H   0  0  0  0  0  0  0  0  0  0  0  0
   -3.5723   -3.3062   -1.4053 C   0  0  0  0  0  0  0  0  0  0  0  0
   -3.7256   -4.2633   -1.9285 H   0  0  0  0  0  0  0  0  0  0  0  0
   -4.4620   -2.9253   -0.3709 C   0  0  0  0  0  0  0  0  0  0  0  0
   -5.3027   -3.5762   -0.0913 H   0  0  0  0  0  0  0  0  0  0  0  0
   -4.2662   -1.7063    0.2693 C   0  0  0  0  0  0  0  0  0  0  0  0
   -4.9654   -1.3715    1.0529 H   0  0  0  0  0  0  0  0  0  0  0  0
   -3.1707   -0.8656   -0.0651 C   0  0  0  0  0  0  0  0  0  0  0  0
   -3.0718    0.4528    0.4932 C   0  0  0  0  0  0  0  0  0  0  0  0
   -3.9871    0.8735    0.9589 H   0  0  0  0  0  0  0  0  0  0  0  0
   -2.1896    2.6478    0.7421 C   0  0  0  0  0  0  0  0  0  0  0  0
   -3.2165    2.8179    1.1363 H   0  0  0  0  0  0  0  0  0  0  0  0
   -2.1074    3.2039   -0.2181 H   0  0  0  0  0  0  0  0  0  0  0  0
   -1.1713    3.2069    1.7239 C   0  0  0  0  0  0  0  0  0  0  0  0
   -1.1699    2.6730    2.6941 H   0  0  0  0  0  0  0  0  0  0  0  0
   -1.3549    4.2851    1.8991 H   0  0  0  0  0  0  0  0  0  0  0  0
  1 22  1  0  0  0  0
  1  4  1  0  0  0  0
  3  1  1  0  0  0  0
  5  1  1  0  0  0  0
  6 17  1  0  0  0  0
  6 19  1  0  0  0  0
  7  2  1  6  0  0  0
  7 16  1  0  0  0  0
  8 10  2  0  0  0  0
  8  7  1  0  0  0  0
  9  8  1  0  0  0  0
 10 12  1  0  0  0  0
 11 10  1  0  0  0  0
 12 13  1  0  0  0  0
 12 14  2  0  0  0  0
 14 15  1  0  0  0  0
 16 14  1  0  0  0  0
 16 17  2  0  0  0  0
 17 18  1  0  0  0  0
 19 20  1  0  0  0  0
 19 22  1  0  0  0  0
 21 19  1  0  0  0  0
 22 24  1  0  0  0  0
 22 23  1  0  0  0  0
M  END
