1,2,3
q = -2.0, confidence = 0.936

 81 85  0  0  0  0  0  0  0  0999 V2000
    1.1414    0.4633    1.5879 O   0  0  0  0  0  1  0  0  0  0  0  0
   -1.9527   -0.2330    1.4428 O   0  0  0  0  0  1  0  0  0  0  0  0
    0.0063   -1.2752    0.0318 N   0  0  0  0  0  0  0  0  0  0  0  0
    1.7480    0.5175    0.3167 C   0  0  0  0  0  0  0  0  0  0  0  0
    0.7894   -0.2341   -0.6642 C   0  0  0  0  0  0  0  0  0  0  0  0
    0.0783    0.5073   -1.0639 H   0  0  0  0  0  0  0  0  0  0  0  0
    1.3495   -0.6611   -1.5228 H   0  0  0  0  0  0  0  0  0  0  0  0
   -1.3596   -1.4045   -0.5091 C   0  0  0  0  0  0  0  0  0  0  0  0
   -1.7611   -2.3763   -0.1648 H   0  0  0  0  0  0  0  0  0  0  0  0
   -1.3672   -1.4059   -1.6201 H   0  0  0  0  0  0  0  0  0  0  0  0
   -2.2942   -0.3074    0.0758 C   0  0  0  0  0  0  0  0  0  0  0  0
    1.8688    1.9910   -0.0986 C   0  0  0  0  0  0  0  0  0  0  0  0
    1.8959    2.3894   -1.4473 C   0  0  0  0  0  0  0  0  0  0  0  0
    1.8244    1.6452   -2.2545 H   0  0  0  0  0  0  0  0  0  0  0  0
    1.9842    3.7468   -1.7905 C   0  0  0  0  0  0  0  0  0  0  0  0
    1.9969    4.0343   -2.8538 H   0  0  0  0  0  0  0  0  0  0  0  0
    2.0364    4.7480   -0.8035 C   0  0  0  0  0  0  0  0  0  0  0  0
    2.0053    4.3380    0.5463 C   0  0  0  0  0  0  0  0  0  0  0  0
    2.0335    5.0987    1.3431 H   0  0  0  0  0  0  0  0  0  0  0  0
    1.9269    2.9852    0.8960 C   0  0  0  0  0  0  0  0  0  0  0  0
    1.8714    2.6841    1.9518 H   0  0  0  0  0  0  0  0  0  0  0  0
    2.1212    6.2089   -1.1674 C   0  0  0  0  0  0  0  0  0  0  0  0
    1.9685    6.3700   -2.2522 H   0  0  0  0  0  0  0  0  0  0  0  0
    3.1124    6.6339   -0.9010 H   0  0  0  0  0  0  0  0  0  0  0  0
    1.3617    6.8070   -0.6227 H   0  0  0  0  0  0  0  0  0  0  0  0
    3.1368   -0.1439    0.3948 C   0  0  0  0  0  0  0  0  0  0  0  0
    3.5173   -0.8902    1.5244 C   0  0  0  0  0  0  0  0  0  0  0  0
    2.8293   -0.9657    2.3781 H   0  0  0  0  0  0  0  0  0  0  0  0
    4.7522   -1.5548    1.5593 C   0  0  0  0  0  0  0  0  0  0  0  0
    5.0202   -2.1416    2.4523 H   0  0  0  0  0  0  0  0  0  0  0  0
    5.6520   -1.4914    0.4775 C   0  0  0  0  0  0  0  0  0  0  0  0
    5.2686   -0.7277   -0.6446 C   0  0  0  0  0  0  0  0  0  0  0  0
    5.9515   -0.6514   -1.5059 H   0  0  0  0  0  0  0  0  0  0  0  0
    4.0367   -0.0616   -0.6849 C   0  0  0  0  0  0  0  0  0  0  0  0
    3.7770    0.5304   -1.5745 H   0  0  0  0  0  0  0  0  0  0  0  0
    6.9909   -2.1822    0.5312 C   0  0  0  0  0  0  0  0  0  0  0  0
    7.3358   -2.4860   -0.4770 H   0  0  0  0  0  0  0  0  0  0  0  0
    6.9594   -3.0843    1.1734 H   0  0  0  0  0  0  0  0  0  0  0  0
    7.7689   -1.5092    0.9523 H   0  0  0  0  0  0  0  0  0  0  0  0
    0.7153   -2.5921    0.1077 C   0  0  0  0  0  0  0  0  0  0  0  0
    0.0702   -3.2638    0.7052 H   0  0  0  0  0  0  0  0  0  0  0  0
    1.6361   -2.4314    0.6970 H   0  0  0  0  0  0  0  0  0  0  0  0
    1.0642   -3.2139   -1.2284 C   0  0  0  0  0  0  0  0  0  0  0  0
    2.3682   -3.0841   -1.7509 C   0  0  0  0  0  0  0  0  0  0  0  0
    3.1353   -2.5549   -1.1648 H   0  0  0  0  0  0  0  0  0  0  0  0
    2.6988   -3.6271   -3.0020 C   0  0  0  0  0  0  0  0  0  0  0  0
    3.7225   -3.5145   -3.3908 H   0  0  0  0  0  0  0  0  0  0  0  0
    1.7313   -4.3159   -3.7493 C   0  0  0  0  0  0  0  0  0  0  0  0
    1.9894   -4.7444   -4.7297 H   0  0  0  0  0  0  0  0  0  0  0  0
    0.4348   -4.4703   -3.2318 C   0  0  0  0  0  0  0  0  0  0  0  0
   -0.3237   -5.0279   -3.8022 H   0  0  0  0  0  0  0  0  0  0  0  0
    0.1067   -3.9268   -1.9811 C   0  0  0  0  0  0  0  0  0  0  0  0
   -0.9056   -4.0761   -1.5748 H   0  0  0  0  0  0  0  0  0  0  0  0
   -3.7674   -0.7147   -0.0449 C   0  0  0  0  0  0  0  0  0  0  0  0
   -4.2629   -1.4498   -1.1361 C   0  0  0  0  0  0  0  0  0  0  0  0
   -3.5897   -1.7897   -1.9374 H   0  0  0  0  0  0  0  0  0  0  0  0
   -5.6281   -1.7663   -1.2226 C   0  0  0  0  0  0  0  0  0  0  0  0
   -5.9946   -2.3446   -2.0857 H   0  0  0  0  0  0  0  0  0  0  0  0
   -6.5361   -1.3636   -0.2263 C   0  0  0  0  0  0  0  0  0  0  0  0
   -6.0262   -0.6308    0.8673 C   0  0  0  0  0  0  0  0  0  0  0  0
   -6.7117   -0.3068    1.6668 H   0  0  0  0  0  0  0  0  0  0  0  0
   -4.6681   -0.3102    0.9590 C   0  0  0  0  0  0  0  0  0  0  0  0
   -4.2817    0.2520    1.8214 H   0  0  0  0  0  0  0  0  0  0  0  0
   -8.0029   -1.7028   -0.3109 C   0  0  0  0  0  0  0  0  0  0  0  0
   -8.2413   -2.2630   -1.2356 H   0  0  0  0  0  0  0  0  0  0  0  0
   -8.6298   -0.7868   -0.2972 H   0  0  0  0  0  0  0  0  0  0  0  0
   -8.3237   -2.3219    0.5530 H   0  0  0  0  0  0  0  0  0  0  0  0
   -2.1050    1.0747   -0.5825 C   0  0  0  0  0  0  0  0  0  0  0  0
   -2.2758    1.2385   -1.9728 C   0  0  0  0  0  0  0  0  0  0  0  0
   -2.5890    0.3859   -2.5945 H   0  0  0  0  0  0  0  0  0  0  0  0
   -2.0444    2.4772   -2.5806 C   0  0  0  0  0  0  0  0  0  0  0  0
   -2.1703    2.5747   -3.6710 H   0  0  0  0  0  0  0  0  0  0  0  0
   -1.6512    3.6028   -1.8238 C   0  0  0  0  0  0  0  0  0  0  0  0
   -1.5181    3.4381   -0.4346 C   0  0  0  0  0  0  0  0  0  0  0  0
   -1.2096    4.2941    0.1851 H   0  0  0  0  0  0  0  0  0  0  0  0
   -1.7448    2.1977    0.1818 C   0  0  0  0  0  0  0  0  0  0  0  0
   -1.6262    2.1075    1.2713 H   0  0  0  0  0  0  0  0  0  0  0  0
   -1.3873    4.9282   -2.4907 C   0  0  0  0  0  0  0  0  0  0  0  0
   -1.0418    5.6869   -1.7629 H   0  0  0  0  0  0  0  0  0  0  0  0
   -2.2995    5.3205   -2.9877 H   0  0  0  0  0  0  0  0  0  0  0  0
   -0.6072    4.8344   -3.2745 H   0  0  0  0  0  0  0  0  0  0  0  0
  3 40  1  0  0  0  0
  4 26  1  0  0  0  0
  4  1  1  0  0  0  0
  5  3  1  0  0  0  0
  5  4  1  0  0  0  0
  6  5  1  0  0  0  0
  7  5  1  0  0  0  0
  8  9  1  0  0  0  0
  8  3  1  0  0  0  0
  8 11  1  0  0  0  0
 10  8  1  0  0  0  0
 11  2  1  0  0  0  0
 12  4  1  0  0  0  0
 12 20  1  0  0  0  0
 13 12  2  0  0  0  0
 14 13  1  0  0  0  0
 15 13  1  0  0  0  0
 15 17  2  0  0  0  0
 16 15  1  0  0  0  0
 17 18  1  0  0  0  0
 18 20  2  0  0  0  0
 18 19  1  0  0  0  0
 20 21  1  0  0  0  0
 22 24  1  0  0  0  0
 22 17  1  0  0  0  0
 22 25  1  0  0  0  0
 23 22  1  0  0  0  0
 26 27  1  0  0  0  0
 27 29  2  0  0  0  0
 27 28  1  0  0  0  0
 29 30  1  0  0  0  0
 31 36  1  0  0  0  0
 31 29  1  0  0  0  0
 32 31  2  0  0  0  0
 33 32  1  0  0  0  0
 34 32  1  0  0  0  0
 34 26  2  0  0  0  0
 35 34  1  0  0  0  0
 36 39  1  0  0  0  0
 36 38  1  0  0  0  0
 37 36  1  0  0  0  0
 40 42  1  0  0  0  0
 40 41  1  0  0  0  0
 43 40  1  0  0  0  0
 44 43  1  0  0  0  0
 44 45  1  0  0  0  0
 46 44  2  0  0  0  0
 47 46  1  0  0  0  0
 48 50  2  0  0  0  0
 48 46  1  0  0  0  0
 49 48  1  0  0  0  0
 50 52  1  0  0  0  0
 51 50  1  0  0  0  0
 52 53  1  0  0  0  0
 52 43  2  0  0  0  0
 54 11  1  0  0  0  0
 54 62  1  0  0  0  0
 55 54  2  0  0  0  0
 56 55  1  0  0  0  0
 57 55  1  0  0  0  0
 57 59  2  0  0  0  0
 58 57  1  0  0  0  0
 59 60  1  0  0  0  0
 60 62  2  0  0  0  0
 60 61  1  0  0  0  0
 62 63  1  0  0  0  0
 64 66  1  0  0  0  0
 64 59  1  0  0  0  0
 64 67  1  0  0  0  0
 65 64  1  0  0  0  0
 68 11  1  0  0  0  0
 68 76  1  0  0  0  0
 69 68  2  0  0  0  0
 70 69  1  0  0  0  0
 71 69  1  0  0  0  0
 71 73  2  0  0  0  0
 72 71  1  0  0  0  0
 73 74  1  0  0  0  0
 74 76  2  0  0  0  0
 74 75  1  0  0  0  0
 76 77  1  0  0  0  0
 78 73  1  0  0  0  0
 78 79  1  0  0  0  0
 80 78  1  0  0  0  0
 81 78  1  0  0  0  0
M  END
