31,33,34
q = -2.0, confidence = 0.926

 35 36  0  0  0  0  0  0  0  0999 V2000
   -3.8205   -0.2424    0.2295 C   0  0  0  0  0  0  0  0  0  0  0  0
   -5.0246   -1.0025    0.2151 C   0  0  0  0  0  0  0  0  0  0  0  0
   -6.1554   -0.4671    0.8464 C   0  0  0  0  0  0  0  0  0  0  0  0
   -7.0912   -1.0485    0.8275 H   0  0  0  0  0  0  0  0  0  0  0  0
   -6.1265    0.7833    1.5007 C   0  0  0  0  0  0  0  0  0  0  0  0
   -7.0332    1.1708    1.9874 H   0  0  0  0  0  0  0  0  0  0  0  0
   -4.9443    1.5175    1.5289 C   0  0  0  0  0  0  0  0  0  0  0  0
   -4.8994    2.4911    2.0413 H   0  0  0  0  0  0  0  0  0  0  0  0
   -3.7752    1.0283    0.8884 C   0  0  0  0  0  0  0  0  0  0  0  0
   -2.5455    1.7644    0.9790 C   0  0  0  0  0  3  0  0  0  0  0  0
   -2.4913    2.6311    1.6632 H   0  0  0  0  0  0  0  0  0  0  0  0
    0.6627    1.8066   -0.1732 C   0  0  0  0  0  0  0  0  0  0  0  0
    1.9823    2.4626   -0.0420 C   0  0  0  0  0  0  0  0  0  0  0  0
    3.2082    1.7748   -0.2863 C   0  0  0  0  0  0  0  0  0  0  0  0
    4.4286    2.4700   -0.1493 C   0  0  0  0  0  0  0  0  0  0  0  0
    5.3802    1.9570   -0.3381 H   0  0  0  0  0  0  0  0  0  0  0  0
    4.4409    3.8179    0.2377 C   0  0  0  0  0  0  0  0  0  0  0  0
    5.4059    4.3389    0.3334 H   0  0  0  0  0  0  0  0  0  0  0  0
    3.2422    4.4942    0.5064 C   0  0  0  0  0  0  0  0  0  0  0  0
    3.2517    5.5492    0.8162 H   0  0  0  0  0  0  0  0  0  0  0  0
    2.0292    3.8105    0.3691 C   0  0  0  0  0  0  0  0  0  0  0  0
    1.0706    4.3082    0.5731 H   0  0  0  0  0  0  0  0  0  0  0  0
    4.3429   -0.2583   -0.8148 C   0  0  0  0  0  0  0  0  0  0  0  0
    4.9241    0.1490   -1.6717 H   0  0  0  0  0  0  0  0  0  0  0  0
    4.0491   -1.3013   -1.0348 H   0  0  0  0  0  0  0  0  0  0  0  0
    4.9868   -0.2594    0.0926 H   0  0  0  0  0  0  0  0  0  0  0  0
   -5.0252   -2.3368   -0.4763 C   0  0  0  0  0  0  0  0  0  0  0  0
   -4.7326   -2.2314   -1.5417 H   0  0  0  0  0  0  0  0  0  0  0  0
   -6.0206   -2.8176   -0.4273 H   0  0  0  0  0  0  0  0  0  0  0  0
   -4.2782   -3.0197   -0.0205 H   0  0  0  0  0  0  0  0  0  0  0  0
   -1.4421    1.4772    0.3241 N   0  0  0  0  0  2  0  0  0  0  0  0
   -0.3298    2.2105    0.6048 N   0  0  0  0  0  0  0  0  0  0  0  0
   -2.7369   -0.7508   -0.3333 O   0  5  0  0  0  0  0  0  0  0  0  0
    0.4881    0.8585   -1.0542 O   0  5  0  0  0  0  0  0  0  0  0  0
    3.1394    0.4567   -0.6081 O   0  0  0  0  0  0  0  0  0  0  0  0
  1  9  1  0  0  0  0
  2  1  2  0  0  0  0
  2  3  1  0  0  0  0
  3  5  2  0  0  0  0
  4  3  1  0  0  0  0
  5  7  1  0  0  0  0
  5  6  1  0  0  0  0
  7  8  1  0  0  0  0
  9 10  1  0  0  0  0
  9  7  2  0  0  0  0
 10 11  1  0  0  0  0
 12 13  1  0  0  0  0
 12 32  2  0  0  0  0
 13 21  1  0  0  0  0
 14 15  1  0  0  0  0
 14 13  2  0  0  0  0
 15 17  2  0  0  0  0
 16 15  1  0  0  0  0
 17 18  1  0  0  0  0
 17 19  1  0  0  0  0
 19 20  1  0  0  0  0
 21 19  2  0  0  0  0
 21 22  1  0  0  0  0
 23 35  1  0  0  0  0
 23 26  1  0  0  0  0
 24 23  1  0  0  0  0
 25 23  1  0  0  0  0
 27 29  1  0  0  0  0
 27 30  1  0  0  0  0
 27  2  1  0  0  0  0
 28 27  1  0  0  0  0
 31 32  1  0  0  0  0
 31 10  1  0  0  0  0
 33  1  1  0  0  0  0
 34 12  1  0  0  0  0
 35 14  1  0  0  0  0
M  CHG  2  33  -1  34  -1
M  END
