1,2,3
q = -1.0

 53 55  0  0  0  0  0  0  0  0999 V2000
   -1.8928    0.0029   -0.7831 O   0  5  0  0  0  0  0  0  0  0  0  0
    1.8924    0.0026   -0.7840 O   0  5  0  0  0  0  0  0  0  0  0  0
   -0.0003   -1.9053   -0.5771 N   0  0  0  0  0  0  0  0  0  0  0  0
   -2.8589   -0.8927   -0.5281 C   0  0  0  0  0  0  0  0  0  0  0  0
   -4.2084   -0.4613   -0.3545 C   0  0  0  0  0  0  0  0  0  0  0  0
   -5.1910   -1.4499   -0.1472 C   0  0  0  0  0  0  0  0  0  0  0  0
   -6.2390   -1.1538   -0.0051 H   0  0  0  0  0  0  0  0  0  0  0  0
   -4.8616   -2.8140   -0.1015 C   0  0  0  0  0  0  0  0  0  0  0  0
   -5.6489   -3.5641    0.0740 H   0  0  0  0  0  0  0  0  0  0  0  0
   -3.5343   -3.2169   -0.2586 C   0  0  0  0  0  0  0  0  0  0  0  0
   -3.2738   -4.2833   -0.1924 H   0  0  0  0  0  0  0  0  0  0  0  0
   -2.5018   -2.2750   -0.4834 C   0  0  0  0  0  0  0  0  0  0  0  0
   -1.1220   -2.7218   -0.6669 C   0  0  0  0  0  0  0  0  0  0  0  0
   -0.7023   -4.0579   -0.8705 C   0  0  0  0  0  0  0  0  0  0  0  0
   -1.3593   -4.9221   -1.0224 H   0  0  0  0  0  0  0  0  0  0  0  0
    0.7016   -4.0579   -0.8703 C   0  0  0  0  0  0  0  0  0  0  0  0
    1.3586   -4.9222   -1.0220 H   0  0  0  0  0  0  0  0  0  0  0  0
    1.1214   -2.7219   -0.6666 C   0  0  0  0  0  3  0  0  0  0  0  0
    2.5012   -2.2751   -0.4828 C   0  0  0  0  0  0  0  0  0  0  0  0
    3.5334   -3.2170   -0.2572 C   0  0  0  0  0  0  0  0  0  0  0  0
    3.2728   -4.2833   -0.1903 H   0  0  0  0  0  0  0  0  0  0  0  0
    4.8608   -2.8143   -0.1000 C   0  0  0  0  0  0  0  0  0  0  0  0
    5.6479   -3.5643    0.0761 H   0  0  0  0  0  0  0  0  0  0  0  0
    5.1903   -1.4502   -0.1466 C   0  0  0  0  0  0  0  0  0  0  0  0
    6.2384   -1.1542   -0.0045 H   0  0  0  0  0  0  0  0  0  0  0  0
    4.2079   -0.4616   -0.3548 C   0  0  0  0  0  0  0  0  0  0  0  0
    2.8584   -0.8930   -0.5283 C   0  0  0  0  0  0  0  0  0  0  0  0
   -4.5619    1.0387   -0.3643 C   0  0  0  0  0  0  0  0  0  0  0  0
   -3.8442    1.7336    0.8171 C   0  0  0  0  0  0  0  0  0  0  0  0
   -4.1908    1.3107    1.7822 H   0  0  0  0  0  0  0  0  0  0  0  0
   -4.0638    2.8230    0.8218 H   0  0  0  0  0  0  0  0  0  0  0  0
   -2.7487    1.5955    0.7613 H   0  0  0  0  0  0  0  0  0  0  0  0
   -4.1380    1.6798   -1.7063 C   0  0  0  0  0  0  0  0  0  0  0  0
   -4.6676    1.1918   -2.5506 H   0  0  0  0  0  0  0  0  0  0  0  0
   -3.0504    1.5770   -1.8714 H   0  0  0  0  0  0  0  0  0  0  0  0
   -4.3970    2.7603   -1.7169 H   0  0  0  0  0  0  0  0  0  0  0  0
   -6.0742    1.2772   -0.1954 C   0  0  0  0  0  0  0  0  0  0  0  0
   -6.6608    0.8126   -1.0145 H   0  0  0  0  0  0  0  0  0  0  0  0
   -6.2782    2.3678   -0.2118 H   0  0  0  0  0  0  0  0  0  0  0  0
   -6.4537    0.8808    0.7684 H   0  0  0  0  0  0  0  0  0  0  0  0
    4.5617    1.0383   -0.3656 C   0  0  0  0  0  0  0  0  0  0  0  0
    4.1377    1.6787   -1.7080 C   0  0  0  0  0  0  0  0  0  0  0  0
    4.6671    1.1899   -2.5520 H   0  0  0  0  0  0  0  0  0  0  0  0
    4.3969    2.7591   -1.7193 H   0  0  0  0  0  0  0  0  0  0  0  0
    3.0500    1.5758   -1.8729 H   0  0  0  0  0  0  0  0  0  0  0  0
    6.0740    1.2766   -0.1971 C   0  0  0  0  0  0  0  0  0  0  0  0
    6.4536    0.8809    0.7670 H   0  0  0  0  0  0  0  0  0  0  0  0
    6.2783    2.3673   -0.2143 H   0  0  0  0  0  0  0  0  0  0  0  0
    6.6605    0.8114   -1.0159 H   0  0  0  0  0  0  0  0  0  0  0  0
    3.8443    1.7342    0.8154 C   0  0  0  0  0  0  0  0  0  0  0  0
    4.1909    1.3119    1.7808 H   0  0  0  0  0  0  0  0  0  0  0  0
    2.7487    1.5961    0.7599 H   0  0  0  0  0  0  0  0  0  0  0  0
    4.0640    2.8236    0.8193 H   0  0  0  0  0  0  0  0  0  0  0  0
  1  4  1  0  0  0  0
  2 27  1  0  0  0  0
  4 12  2  0  0  0  0
  4  5  1  0  0  0  0
  5  6  2  0  0  0  0
  6  8  1  0  0  0  0
  6  7  1  0  0  0  0
  8  9  1  0  0  0  0
 10 11  1  0  0  0  0
 10  8  2  0  0  0  0
 12 10  1  0  0  0  0
 13  3  2  0  0  0  0
 13 12  1  0  0  0  0
 14 16  2  0  0  0  0
 14 13  1  0  0  0  0
 15 14  1  0  0  0  0
 16 18  1  0  0  0  0
 17 16  1  0  0  0  0
 18  3  1  0  0  0  0
 18 19  1  0  0  0  0
 19 20  1  0  0  0  0
 20 21  1  0  0  0  0
 20 22  2  0  0  0  0
 22 23  1  0  0  0  0
 24 22  1  0  0  0  0
 24 25  1  0  0  0  0
 26 24  2  0  0  0  0
 27 19  2  0  0  0  0
 27 26  1  0  0  0  0
 28  5  1  0  0  0  0
 28 37  1  0  0  0  0
 28 29  1  0  0  0  0
 29 31  1  0  0  0  0
 29 30  1  0  0  0  0
 32 29  1  0  0  0  0
 33 28  1  0  0  0  0
 34 33  1  0  0  0  0
 35 33  1  0  0  0  0
 36 33  1  0  0  0  0
 37 40  1  0  0  0  0
 38 37  1  0  0  0  0
 39 37  1  0  0  0  0
 41 26  1  0  0  0  0
 41 46  1  0  0  0  0
 41 50  1  0  0  0  0
 42 41  1  0  0  0  0
 43 42  1  0  0  0  0
 44 42  1  0  0  0  0
 45 42  1  0  0  0  0
 46 47  1  0  0  0  0
 48 46  1  0  0  0  0
 49 46  1  0  0  0  0
 50 53  1  0  0  0  0
 50 51  1  0  0  0  0
 52 50  1  0  0  0  0
M  CHG  2   1  -1   2  -1
M  END
