1,2,4
q = -2.0, confidence = 0.94

 31 31  0  0  0  0  0  0  0  0999 V2000
   -1.0238   -0.1297   -0.8958 O   0  5  0  0  0  0  0  0  0  0  0  0
    2.7589   -0.0630   -0.7761 O   0  0  0  0  0  1  0  0  0  0  0  0
   -3.5674    0.4166   -1.1380 O   0  0  0  0  0  0  0  0  0  0  0  0
    1.0045   -1.4998    0.4171 N   0  0  0  0  0  2  0  0  0  0  0  0
   -1.8311   -0.7792   -0.0968 C   0  0  0  0  0  0  0  0  0  0  0  0
   -3.2409   -0.5075   -0.2021 C   0  0  0  0  0  0  0  0  0  0  0  0
   -4.1477   -1.1794    0.6260 C   0  0  0  0  0  0  0  0  0  0  0  0
   -5.2235   -0.9740    0.5414 H   0  0  0  0  0  0  0  0  0  0  0  0
   -3.6976   -2.1248    1.5780 C   0  0  0  0  0  0  0  0  0  0  0  0
   -4.4304   -2.6405    2.2151 H   0  0  0  0  0  0  0  0  0  0  0  0
   -2.3423   -2.3953    1.7006 C   0  0  0  0  0  0  0  0  0  0  0  0
   -1.9797   -3.1277    2.4385 H   0  0  0  0  0  0  0  0  0  0  0  0
   -1.3919   -1.7299    0.8740 C   0  0  0  0  0  0  0  0  0  0  0  0
    0.0079   -2.0333    1.0569 C   0  0  0  0  0  3  0  0  0  0  0  0
    0.2161   -2.7917    1.8418 H   0  0  0  0  0  0  0  0  0  0  0  0
    2.4003   -1.8778    0.7620 C   0  0  0  0  0  0  0  0  0  0  0  0
    3.2318   -1.3344   -0.4280 C   0  0  0  0  0  0  0  0  0  0  0  0
    3.1309   -2.0317   -1.2953 H   0  0  0  0  0  0  0  0  0  0  0  0
    4.3060   -1.2706   -0.1452 H   0  0  0  0  0  0  0  0  0  0  0  0
    2.5923   -3.3930    0.8910 C   0  0  0  0  0  0  0  0  0  0  0  0
    2.1824   -3.9184    0.0057 H   0  0  0  0  0  0  0  0  0  0  0  0
    2.1090   -3.8021    1.8008 H   0  0  0  0  0  0  0  0  0  0  0  0
    3.6732   -3.6274    0.9656 H   0  0  0  0  0  0  0  0  0  0  0  0
    2.8077   -1.1457    2.0525 C   0  0  0  0  0  0  0  0  0  0  0  0
    2.1478   -1.4364    2.8955 H   0  0  0  0  0  0  0  0  0  0  0  0
    3.8502   -1.4044    2.3259 H   0  0  0  0  0  0  0  0  0  0  0  0
    2.7397   -0.0506    1.9096 H   0  0  0  0  0  0  0  0  0  0  0  0
   -4.9335    0.7287   -1.3184 C   0  0  0  0  0  0  0  0  0  0  0  0
   -5.3887    1.1518   -0.3938 H   0  0  0  0  0  0  0  0  0  0  0  0
   -5.5247   -0.1625   -1.6291 H   0  0  0  0  0  0  0  0  0  0  0  0
   -4.9775    1.4873   -2.1213 H   0  0  0  0  0  0  0  0  0  0  0  0
  1  5  1  0  0  0  0
  2 17  1  0  0  0  0
  3  6  1  0  0  0  0
  4 16  1  0  0  0  0
  4 14  1  0  0  0  0
  5 13  1  0  0  0  0
  6  5  2  0  0  0  0
  6  7  1  0  0  0  0
  7  9  2  0  0  0  0
  8  7  1  0  0  0  0
  9 11  1  0  0  0  0
  9 10  1  0  0  0  0
 11 12  1  0  0  0  0
 13 14  1  0  0  0  0
 13 11  2  0  0  0  0
 14 15  1  0  0  0  0
 16 20  1  0  0  0  0
 16 24  1  0  0  0  0
 17 19  1  0  0  0  0
 17 16  1  0  0  0  0
 18 17  1  0  0  0  0
 20 23  1  0  0  0  0
 20 22  1  0  0  0  0
 21 20  1  0  0  0  0
 24 26  1  0  0  0  0
 24 25  1  0  0  0  0
 27 24  1  0  0  0  0
 28  3  1  0  0  0  0
 28 29  1  0  0  0  0
 30 28  1  0  0  0  0
 31 28  1  0  0  0  0
M  CHG  1   1  -1
M  END
