1,3,4
q = -2.0, confidence = 0.924

 35 36  0  0  0  0  0  0  0  0999 V2000
    0.0902   -1.6781   -0.0324 N   0  0  0  0  0  2  0  0  0  0  0  0
   -1.2392   -1.9072    0.1578 N   0  0  0  0  0  0  0  0  0  0  0  0
    2.2549   -0.2003   -0.4284 O   0  5  0  0  0  0  0  0  0  0  0  0
   -1.3550   -0.0248   -1.1480 O   0  5  0  0  0  0  0  0  0  0  0  0
    4.8853    0.0922   -0.4066 O   0  0  0  0  0  0  0  0  0  0  0  0
    2.3657   -2.4165    0.4726 C   0  0  0  0  0  0  0  0  0  0  0  0
    2.9745   -1.2146    0.0046 C   0  0  0  0  0  0  0  0  0  0  0  0
    4.4008   -1.0905    0.0484 C   0  0  0  0  0  0  0  0  0  0  0  0
    5.1731   -2.1537    0.5384 C   0  0  0  0  0  0  0  0  0  0  0  0
    6.2678   -2.0685    0.5663 H   0  0  0  0  0  0  0  0  0  0  0  0
    4.5598   -3.3414    0.9993 C   0  0  0  0  0  0  0  0  0  0  0  0
    5.1890   -4.1600    1.3777 H   0  0  0  0  0  0  0  0  0  0  0  0
    3.1768   -3.4723    0.9754 C   0  0  0  0  0  0  0  0  0  0  0  0
    2.6905   -4.3917    1.3345 H   0  0  0  0  0  0  0  0  0  0  0  0
    6.2856    0.2808   -0.4067 C   0  0  0  0  0  0  0  0  0  0  0  0
    6.7131    0.2237    0.6204 H   0  0  0  0  0  0  0  0  0  0  0  0
    6.4650    1.2923   -0.8153 H   0  0  0  0  0  0  0  0  0  0  0  0
    6.8050   -0.4663   -1.0490 H   0  0  0  0  0  0  0  0  0  0  0  0
    0.9338   -2.5364    0.4982 C   0  0  0  0  0  3  0  0  0  0  0  0
    0.4825   -3.4055    1.0116 H   0  0  0  0  0  0  0  0  0  0  0  0
   -1.9410   -0.9836   -0.4813 C   0  0  0  0  0  0  0  0  0  0  0  0
   -3.4169   -1.0163   -0.4398 C   0  0  0  0  0  0  0  0  0  0  0  0
   -4.0940   -2.0428    0.2547 C   0  0  0  0  0  0  0  0  0  0  0  0
   -3.4932   -2.8161    0.7558 H   0  0  0  0  0  0  0  0  0  0  0  0
   -5.4960   -2.0803    0.3068 C   0  0  0  0  0  0  0  0  0  0  0  0
   -6.2172   -1.0606   -0.3552 C   0  0  0  0  0  0  0  0  0  0  0  0
   -7.3187   -1.0734   -0.3252 H   0  0  0  0  0  0  0  0  0  0  0  0
   -5.5534   -0.0378   -1.0473 C   0  0  0  0  0  0  0  0  0  0  0  0
   -6.1351    0.7458   -1.5564 H   0  0  0  0  0  0  0  0  0  0  0  0
   -4.1534   -0.0088   -1.0941 C   0  0  0  0  0  0  0  0  0  0  0  0
   -3.6108    0.7823   -1.6304 H   0  0  0  0  0  0  0  0  0  0  0  0
   -6.2222   -3.1790    1.0426 C   0  0  0  0  0  0  0  0  0  0  0  0
   -6.8584   -3.7723    0.3529 H   0  0  0  0  0  0  0  0  0  0  0  0
   -6.8948   -2.7664    1.8232 H   0  0  0  0  0  0  0  0  0  0  0  0
   -5.5161   -3.8752    1.5343 H   0  0  0  0  0  0  0  0  0  0  0  0
  1  2  1  0  0  0  0
  1 19  1  0  0  0  0
  3  7  1  0  0  0  0
  4 21  1  0  0  0  0
  5  8  1  0  0  0  0
  6 19  1  0  0  0  0
  6 13  1  0  0  0  0
  7  8  1  0  0  0  0
  7  6  2  0  0  0  0
  8  9  2  0  0  0  0
  9 10  1  0  0  0  0
  9 11  1  0  0  0  0
 11 12  1  0  0  0  0
 13 11  2  0  0  0  0
 13 14  1  0  0  0  0
 15  5  1  0  0  0  0
 15 16  1  0  0  0  0
 17 15  1  0  0  0  0
 18 15  1  0  0  0  0
 19 20  1  0  0  0  0
 21 22  1  0  0  0  0
 21  2  2  0  0  0  0
 22 23  1  0  0  0  0
 23 25  2  0  0  0  0
 23 24  1  0  0  0  0
 25 32  1  0  0  0  0
 26 27  1  0  0  0  0
 26 25  1  0  0  0  0
 28 26  2  0  0  0  0
 29 28  1  0  0  0  0
 30 28  1  0  0  0  0
 30 22  2  0  0  0  0
 31 30  1  0  0  0  0
 32 35  1  0  0  0  0
 32 34  1  0  0  0  0
 33 32  1  0  0  0  0
M  CHG  2   3  -1   4  -1
M  END
