1,2,4
q = -2.0, confidence = 0.954

 32 33  0  0  0  0  0  0  0  0999 V2000
   -1.4228    0.4755    0.0978 O   0  5  0  0  0  0  0  0  0  0  0  0
    1.9747    1.7172   -1.1945 O   0  0  0  0  0  1  0  0  0  0  0  0
   -4.0145    0.4434    0.4430 O   0  0  0  0  0  0  0  0  0  0  0  0
    0.8928   -0.8552   -0.6170 N   0  0  0  0  0  2  0  0  0  0  0  0
   -2.0453   -0.6224   -0.2734 C   0  0  0  0  0  0  0  0  0  0  0  0
   -1.3732   -1.7774   -0.7797 C   0  0  0  0  0  0  0  0  0  0  0  0
   -2.1245   -2.9307   -1.1476 C   0  0  0  0  0  0  0  0  0  0  0  0
   -1.5876   -3.8113   -1.5325 H   0  0  0  0  0  0  0  0  0  0  0  0
   -3.5066   -2.9420   -1.0245 C   0  0  0  0  0  0  0  0  0  0  0  0
   -4.0866   -3.8263   -1.3254 H   0  0  0  0  0  0  0  0  0  0  0  0
   -4.1823   -1.8164   -0.4952 C   0  0  0  0  0  0  0  0  0  0  0  0
   -5.2759   -1.8456   -0.3940 H   0  0  0  0  0  0  0  0  0  0  0  0
   -3.4706   -0.6766   -0.1041 C   0  0  0  0  0  0  0  0  0  0  0  0
   -5.4200    0.4988    0.5835 C   0  0  0  0  0  0  0  0  0  0  0  0
   -5.9363    0.4055   -0.3982 H   0  0  0  0  0  0  0  0  0  0  0  0
   -5.6525    1.4882    1.0186 H   0  0  0  0  0  0  0  0  0  0  0  0
   -5.8027   -0.2971    1.2630 H   0  0  0  0  0  0  0  0  0  0  0  0
    0.0666   -1.8547   -0.7853 C   0  0  0  0  0  3  0  0  0  0  0  0
    0.4894   -2.8765   -0.9057 H   0  0  0  0  0  0  0  0  0  0  0  0
    2.2453   -1.1220   -0.3345 C   0  0  0  0  0  0  0  0  0  0  0  0
    2.6142   -2.1416    0.5721 C   0  0  0  0  0  0  0  0  0  0  0  0
    1.8249   -2.7345    1.0590 H   0  0  0  0  0  0  0  0  0  0  0  0
    3.9639   -2.3683    0.8784 C   0  0  0  0  0  0  0  0  0  0  0  0
    4.2367   -3.1631    1.5895 H   0  0  0  0  0  0  0  0  0  0  0  0
    4.9584   -1.5736    0.2889 C   0  0  0  0  0  0  0  0  0  0  0  0
    6.0187   -1.7417    0.5297 H   0  0  0  0  0  0  0  0  0  0  0  0
    4.5918   -0.5465   -0.5968 C   0  0  0  0  0  0  0  0  0  0  0  0
    5.3671    0.0911   -1.0503 H   0  0  0  0  0  0  0  0  0  0  0  0
    3.2485   -0.3039   -0.9183 C   0  0  0  0  0  0  0  0  0  0  0  0
    2.8339    0.8125   -1.8485 C   0  0  0  0  0  0  0  0  0  0  0  0
    3.7357    1.3652   -2.1916 H   0  0  0  0  0  0  0  0  0  0  0  0
    2.3251    0.3949   -2.7526 H   0  0  0  0  0  0  0  0  0  0  0  0
  3 14  1  0  0  0  0
  4 20  1  0  0  0  0
  5 13  1  0  0  0  0
  5  1  1  0  0  0  0
  6  5  2  0  0  0  0
  7  9  2  0  0  0  0
  7  6  1  0  0  0  0
  8  7  1  0  0  0  0
  9 11  1  0  0  0  0
 10  9  1  0  0  0  0
 11 12  1  0  0  0  0
 11 13  2  0  0  0  0
 13  3  1  0  0  0  0
 14 16  1  0  0  0  0
 14 17  1  0  0  0  0
 15 14  1  0  0  0  0
 18  6  1  0  0  0  0
 18  4  1  0  0  0  0
 19 18  1  0  0  0  0
 20 21  1  0  0  0  0
 21 23  2  0  0  0  0
 21 22  1  0  0  0  0
 23 24  1  0  0  0  0
 25 26  1  0  0  0  0
 25 23  1  0  0  0  0
 27 25  2  0  0  0  0
 28 27  1  0  0  0  0
 29 27  1  0  0  0  0
 29 20  2  0  0  0  0
 30  2  1  0  0  0  0
 30 29  1  0  0  0  0
 31 30  1  0  0  0  0
 32 30  1  0  0  0  0
M  CHG  1   1  -1
M  END
