1,3,4
q = -2.0, confidence = 0.866

 30 29  0  0  1  0  0  0  0  0999 V2000
   -1.9360    0.4984    0.1463 N   0  0  0  0  0  2  0  0  0  0  0  0
   -1.4857    1.7823    0.3485 N   0  0  0  0  0  0  0  0  0  0  0  0
   -1.5575   -2.1285   -0.1046 O   0  5  0  0  0  0  0  0  0  0  0  0
    0.0518    1.0391   -1.1673 O   0  5  0  0  0  0  0  0  0  0  0  0
   -3.2463   -3.6931    0.4618 C   0  0  0  0  0  0  0  0  0  0  0  0
   -3.2451   -4.1837   -0.5339 H   0  0  0  0  0  0  0  0  0  0  0  0
   -4.2586   -3.7611    0.8994 H   0  0  0  0  0  0  0  0  0  0  0  0
   -2.5301   -4.2565    1.0946 H   0  0  0  0  0  0  0  0  0  0  0  0
   -2.7849   -2.2701    0.3177 C   0  0  0  0  0  0  0  0  0  0  0  0
   -3.5800   -1.1830    0.6645 C   0  0  0  0  0  0  0  0  0  0  0  0
   -4.5812   -1.3771    1.0697 H   0  0  0  0  0  0  0  0  0  0  0  0
   -3.1024    0.1627    0.6956 C   0  0  1  0  0  3  0  0  0  0  0  0
   -3.9047    1.2247    1.3963 C   0  0  0  0  0  0  0  0  0  0  0  0
   -3.3421    1.6166    2.2678 H   0  0  0  0  0  0  0  0  0  0  0  0
   -4.8804    0.8316    1.7342 H   0  0  0  0  0  0  0  0  0  0  0  0
   -4.0547    2.0943    0.7263 H   0  0  0  0  0  0  0  0  0  0  0  0
   -0.4232    1.9884   -0.3954 C   0  0  0  0  0  0  0  0  0  0  0  0
    0.3233    3.3129   -0.3799 C   0  0  0  0  0  0  0  0  0  0  0  0
    0.3935    3.8463   -1.8266 C   0  0  0  0  0  0  0  0  0  0  0  0
    0.8637    3.1008   -2.4966 H   0  0  0  0  0  0  0  0  0  0  0  0
    0.9906    4.7802   -1.8596 H   0  0  0  0  0  0  0  0  0  0  0  0
   -0.6199    4.0697   -2.2168 H   0  0  0  0  0  0  0  0  0  0  0  0
   -0.3802    4.3255    0.5343 C   0  0  0  0  0  0  0  0  0  0  0  0
   -1.4119    4.5282    0.1872 H   0  0  0  0  0  0  0  0  0  0  0  0
    0.1835    5.2806    0.5428 H   0  0  0  0  0  0  0  0  0  0  0  0
   -0.4489    3.9463    1.5722 H   0  0  0  0  0  0  0  0  0  0  0  0
    1.7522    3.0254    0.1378 C   0  0  0  0  0  0  0  0  0  0  0  0
    1.7285    2.6286    1.1734 H   0  0  0  0  0  0  0  0  0  0  0  0
    2.3521    3.9583    0.1385 H   0  0  0  0  0  0  0  0  0  0  0  0
    2.2605    2.2792   -0.5036 H   0  0  0  0  0  0  0  0  0  0  0  0
  1  2  1  0  0  0  0
  3  9  1  0  0  0  0
  4 17  1  0  0  0  0
  5  7  1  0  0  0  0
  5  8  1  0  0  0  0
  6  5  1  0  0  0  0
  9  5  1  0  0  0  0
  9 10  2  0  0  0  0
 10 12  1  0  0  0  0
 10 11  1  0  0  0  0
 12  1  1  1  0  0  0
 12 13  1  0  0  0  0
 13 15  1  0  0  0  0
 13 14  1  0  0  0  0
 16 13  1  0  0  0  0
 17 18  1  0  0  0  0
 17  2  2  0  0  0  0
 18 27  1  0  0  0  0
 18 23  1  0  0  0  0
 19 18  1  0  0  0  0
 20 19  1  0  0  0  0
 21 19  1  0  0  0  0
 22 19  1  0  0  0  0
 23 25  1  0  0  0  0
 23 26  1  0  0  0  0
 24 23  1  0  0  0  0
 27 29  1  0  0  0  0
 27 28  1  0  0  0  0
 30 27  1  0  0  0  0
M  CHG  2   3  -1   4  -1
M  END
