1,2,3
q = -2.0, confidence = 0.922

 35 36  0  0  1  0  0  0  0  0999 V2000
   -0.1415    0.2823   -0.1328 N   0  0  0  0  0  2  0  0  0  0  0  0
   -2.1953   -1.1990   -0.0199 O   0  5  0  0  0  0  0  0  0  0  0  0
    1.4560   -1.8645   -0.5604 O   0  5  0  0  0  0  0  0  0  0  0  0
    5.8916    1.3772    0.1481 O   0  0  0  0  0  0  0  0  0  0  0  0
    2.4407   -1.0317   -0.3662 C   0  0  0  0  0  0  0  0  0  0  0  0
    2.2772    0.3816   -0.1325 C   0  0  0  0  0  0  0  0  0  0  0  0
    0.9639    1.0134   -0.1165 C   0  0  2  0  0  3  0  0  0  0  0  0
   -1.3314    0.9468   -0.1465 N   0  0  0  0  0  0  0  0  0  0  0  0
   -2.3385    0.0816   -0.0682 C   0  0  0  0  0  0  0  0  0  0  0  0
    3.7757   -1.5415   -0.4318 C   0  0  0  0  0  0  0  0  0  0  0  0
    3.8758   -2.6208   -0.6189 H   0  0  0  0  0  0  0  0  0  0  0  0
    4.8918   -0.7328   -0.2617 C   0  0  0  0  0  0  0  0  0  0  0  0
    5.9127   -1.1423   -0.3057 H   0  0  0  0  0  0  0  0  0  0  0  0
    4.7286    0.6512   -0.0191 C   0  0  0  0  0  0  0  0  0  0  0  0
    3.4417    1.1894    0.0354 C   0  0  0  0  0  0  0  0  0  0  0  0
    3.3097    2.2616    0.2223 H   0  0  0  0  0  0  0  0  0  0  0  0
    5.7638    2.7545    0.3859 C   0  0  0  0  0  0  0  0  0  0  0  0
    5.2540    3.2861   -0.4534 H   0  0  0  0  0  0  0  0  0  0  0  0
    6.7892    3.1602    0.4921 H   0  0  0  0  0  0  0  0  0  0  0  0
    5.1936    2.9744    1.3203 H   0  0  0  0  0  0  0  0  0  0  0  0
    0.8744    2.5211   -0.0732 C   0  0  0  0  0  0  0  0  0  0  0  0
   -0.1821    2.8179   -0.1869 H   0  0  0  0  0  0  0  0  0  0  0  0
    1.4878    2.9824   -0.8734 H   0  0  0  0  0  0  0  0  0  0  0  0
    1.2504    2.9111    0.8966 H   0  0  0  0  0  0  0  0  0  0  0  0
   -3.7238    0.6290   -0.0500 C   0  0  0  0  0  0  0  0  0  0  0  0
   -3.9776    2.0155   -0.1309 C   0  0  0  0  0  0  0  0  0  0  0  0
   -3.1170    2.6953   -0.2064 H   0  0  0  0  0  0  0  0  0  0  0  0
   -5.2929    2.4964   -0.1141 C   0  0  0  0  0  0  0  0  0  0  0  0
   -5.4803    3.5803   -0.1779 H   0  0  0  0  0  0  0  0  0  0  0  0
   -6.3743    1.6019   -0.0149 C   0  0  0  0  0  0  0  0  0  0  0  0
   -7.4081    1.9823   -0.0011 H   0  0  0  0  0  0  0  0  0  0  0  0
   -6.1275    0.2212    0.0668 C   0  0  0  0  0  0  0  0  0  0  0  0
   -6.9698   -0.4846    0.1453 H   0  0  0  0  0  0  0  0  0  0  0  0
   -4.8123   -0.2635    0.0488 C   0  0  0  0  0  0  0  0  0  0  0  0
   -4.5865   -1.3381    0.1107 H   0  0  0  0  0  0  0  0  0  0  0  0
  3  5  1  0  0  0  0
  4 17  1  0  0  0  0
  5  6  1  0  0  0  0
  6  7  1  0  0  0  0
  6 15  2  0  0  0  0
  7  1  1  1  0  0  0
  7 21  1  0  0  0  0
  8  1  1  0  0  0  0
  8  9  2  0  0  0  0
  9 25  1  0  0  0  0
  9  2  1  0  0  0  0
 10  5  2  0  0  0  0
 10 12  1  0  0  0  0
 11 10  1  0  0  0  0
 12 14  2  0  0  0  0
 13 12  1  0  0  0  0
 14 15  1  0  0  0  0
 14  4  1  0  0  0  0
 15 16  1  0  0  0  0
 17 19  1  0  0  0  0
 17 20  1  0  0  0  0
 18 17  1  0  0  0  0
 21 24  1  0  0  0  0
 22 21  1  0  0  0  0
 23 21  1  0  0  0  0
 25 34  1  0  0  0  0
 26 28  1  0  0  0  0
 26 25  2  0  0  0  0
 27 26  1  0  0  0  0
 28 30  2  0  0  0  0
 29 28  1  0  0  0  0
 30 31  1  0  0  0  0
 30 32  1  0  0  0  0
 32 33  1  0  0  0  0
 34 32  2  0  0  0  0
 34 35  1  0  0  0  0
M  CHG  2   2  -1   3  -1
M  END
