1,2,12
q = -2.0, confidence = 0.84

 31 32  0  0  1  0  0  0  0  0999 V2000
   -2.2706   -1.2736   -0.5309 O   0  5  0  0  0  0  0  0  0  0  0  0
    1.4650   -1.2509   -0.0463 O   0  5  0  0  0  0  0  0  0  0  0  0
   -0.9382    2.9269    0.0748 C   0  0  0  0  0  0  0  0  0  0  0  0
   -1.2134    3.3378    1.0692 H   0  0  0  0  0  0  0  0  0  0  0  0
   -1.4895    3.5135   -0.6870 H   0  0  0  0  0  0  0  0  0  0  0  0
    0.1494    3.0457   -0.0671 H   0  0  0  0  0  0  0  0  0  0  0  0
   -5.4583    0.4049   -0.1143 C   0  0  0  0  0  0  0  0  0  0  0  0
   -6.5290    0.1446   -0.1518 H   0  0  0  0  0  0  0  0  0  0  0  0
    3.7535    1.6265   -0.0910 C   0  0  0  0  0  0  0  0  0  0  0  0
    3.0167    2.4416   -0.1245 H   0  0  0  0  0  0  0  0  0  0  0  0
    3.2746    0.2990   -0.0526 C   0  0  0  0  0  0  0  0  0  0  0  0
   -0.3182    0.5531   -0.0777 N   0  0  0  0  0  2  0  0  0  0  0  0
    1.8171   -0.0107   -0.0601 C   0  0  0  0  0  0  0  0  0  0  0  0
   -4.4997   -0.5789   -0.3402 C   0  0  0  0  0  0  0  0  0  0  0  0
   -4.7781   -1.6205   -0.5588 H   0  0  0  0  0  0  0  0  0  0  0  0
    6.0497    0.8182   -0.0403 C   0  0  0  0  0  0  0  0  0  0  0  0
    7.1324    1.0217   -0.0353 H   0  0  0  0  0  0  0  0  0  0  0  0
   -3.0982   -0.2989   -0.2904 C   0  0  0  0  0  0  0  0  0  0  0  0
   -5.0605    1.7296    0.1673 C   0  0  0  0  0  0  0  0  0  0  0  0
   -5.8096    2.5139    0.3558 H   0  0  0  0  0  0  0  0  0  0  0  0
   -1.2835    1.4583   -0.0125 C   0  0  1  0  0  3  0  0  0  0  0  0
    5.1306    1.8823   -0.0856 C   0  0  0  0  0  0  0  0  0  0  0  0
    5.4943    2.9219   -0.1159 H   0  0  0  0  0  0  0  0  0  0  0  0
    4.2009   -0.7642   -0.0077 C   0  0  0  0  0  0  0  0  0  0  0  0
    3.8009   -1.7883    0.0217 H   0  0  0  0  0  0  0  0  0  0  0  0
   -2.6875    1.0611   -0.0168 C   0  0  0  0  0  0  0  0  0  0  0  0
    5.5785   -0.5048   -0.0010 C   0  0  0  0  0  0  0  0  0  0  0  0
    6.2931   -1.3425    0.0351 H   0  0  0  0  0  0  0  0  0  0  0  0
   -3.6994    2.0355    0.2046 C   0  0  0  0  0  0  0  0  0  0  0  0
   -3.3994    3.0706    0.4228 H   0  0  0  0  0  0  0  0  0  0  0  0
    0.9672    1.0107   -0.0926 N   0  0  0  0  0  0  0  0  0  0  0  0
  1 18  1  0  0  0  0
  3  4  1  0  0  0  0
  5  3  1  0  0  0  0
  6  3  1  0  0  0  0
  7 19  1  0  0  0  0
  8  7  1  0  0  0  0
  9 22  2  0  0  0  0
  9 11  1  0  0  0  0
 10  9  1  0  0  0  0
 11 24  2  0  0  0  0
 13 11  1  0  0  0  0
 13  2  1  0  0  0  0
 14 18  1  0  0  0  0
 14  7  2  0  0  0  0
 15 14  1  0  0  0  0
 16 17  1  0  0  0  0
 16 27  2  0  0  0  0
 18 26  2  0  0  0  0
 19 29  2  0  0  0  0
 19 20  1  0  0  0  0
 21 12  1  1  0  0  0
 21  3  1  0  0  0  0
 22 16  1  0  0  0  0
 23 22  1  0  0  0  0
 24 27  1  0  0  0  0
 24 25  1  0  0  0  0
 26 21  1  0  0  0  0
 26 29  1  0  0  0  0
 27 28  1  0  0  0  0
 29 30  1  0  0  0  0
 31 12  1  0  0  0  0
 31 13  2  0  0  0  0
M  CHG  2   1  -1   2  -1
M  END
