1,5,9
q = -2.0, confidence = 0.756

 14 13  0  0  1  0  0  0  0  0999 V2000
   -1.2156   -1.5629    0.3262 O   0  5  0  0  0  0  0  0  0  0  0  0
   -3.2873   -2.3322   -0.1244 O   0  0  0  0  0  0  0  0  0  0  0  0
   -2.4011   -1.4996   -0.2381 C   0  0  0  0  0  0  0  0  0  0  0  0
   -2.6082   -0.2070   -1.0641 C   0  0  2  0  0  0  0  0  0  0  0  0
   -1.2704    0.2192   -1.5761 N   0  0  0  0  0  0  0  0  0  0  0  0
   -3.2013    0.9051   -0.2004 C   0  0  0  0  0  0  0  0  0  0  0  0
   -2.2682    1.5809    0.8296 C   0  0  0  0  0  0  0  0  0  0  0  0
   -2.7259    2.4845    1.5195 O   0  5  0  0  0  0  0  0  0  0  0  0
   -1.0067    1.2193    0.9015 O   0  0  0  0  0  0  0  0  0  0  0  0
   -3.2960   -0.4423   -1.9029 H   0  0  0  0  0  0  0  0  0  0  0  0
   -1.2781    1.2149   -1.8443 H   0  0  0  0  0  0  0  0  0  0  0  0
   -1.0276   -0.3132   -2.4239 H   0  0  0  0  0  0  0  0  0  0  0  0
   -4.0753    0.5027    0.3495 H   0  0  0  0  0  0  0  0  0  0  0  0
   -3.6015    1.7232   -0.8386 H   0  0  0  0  0  0  0  0  0  0  0  0
  3  2  2  0  0  0  0
  3  1  1  0  0  0  0
  4 10  1  6  0  0  0
  4  3  1  0  0  0  0
  4  6  1  0  0  0  0
  5  4  1  0  0  0  0
  6 13  1  0  0  0  0
  6  7  1  0  0  0  0
  7  9  2  0  0  0  0
  7  8  1  0  0  0  0
 11  5  1  0  0  0  0
 12  5  1  0  0  0  0
 14  6  1  0  0  0  0
M  CHG  2   1  -1   8  -1
M  END
