1,2,3
q = 0.0, confidence = 0.982

 21 21  0  0  1  0  0  0  0  0999 V2000
   -2.2911   -0.1303   -1.0783 N   0  0  0  0  0  2  0  0  0  0  0  0
   -1.3022   -2.5832   -1.2906 O   0  5  0  0  0  0  0  0  0  0  0  0
   -0.6441    1.8708   -1.7176 O   0  0  0  0  0  1  0  0  0  0  0  0
   -3.1107   -1.1694   -0.7717 C   0  0  0  0  0  0  0  0  0  0  0  0
   -4.4074   -0.9663   -0.2683 C   0  0  0  0  0  0  0  0  0  0  0  0
   -4.8627    0.3441   -0.0602 C   0  0  0  0  0  0  0  0  0  0  0  0
   -4.0037    1.4092   -0.3613 C   0  0  0  0  0  0  0  0  0  0  0  0
   -2.7208    1.1397   -0.8729 C   0  0  0  0  0  0  0  0  0  0  0  0
   -2.5001   -2.5240   -0.9907 C   0  0  0  0  0  0  0  0  0  0  0  0
   -3.3377   -3.7614   -0.8261 C   0  0  0  0  0  0  0  0  0  0  0  0
   -1.7192    2.2113   -1.2165 C   0  0  1  0  0  3  0  0  0  0  0  0
   -2.0348    3.6457   -0.8997 C   0  0  0  0  0  0  0  0  0  0  0  0
   -5.0532   -1.8245   -0.0359 H   0  0  0  0  0  0  0  0  0  0  0  0
   -5.8715    0.5308    0.3352 H   0  0  0  0  0  0  0  0  0  0  0  0
   -4.3266    2.4467   -0.2008 H   0  0  0  0  0  0  0  0  0  0  0  0
   -4.2406   -3.7256   -1.4693 H   0  0  0  0  0  0  0  0  0  0  0  0
   -3.6887   -3.8589    0.2227 H   0  0  0  0  0  0  0  0  0  0  0  0
   -2.7332   -4.6483   -1.0850 H   0  0  0  0  0  0  0  0  0  0  0  0
   -2.1210    3.7735    0.2011 H   0  0  0  0  0  0  0  0  0  0  0  0
   -2.9953    3.9677   -1.3500 H   0  0  0  0  0  0  0  0  0  0  0  0
   -1.2190    4.2890   -1.2727 H   0  0  0  0  0  0  0  0  0  0  0  0
  1  8  1  0  0  0  0
  1  4  1  0  0  0  0
  2  9  1  0  0  0  0
  4  5  1  0  0  0  0
  5  6  2  0  0  0  0
  5 13  1  0  0  0  0
  6 14  1  0  0  0  0
  7 15  1  0  0  0  0
  7  6  1  0  0  0  0
  8  7  2  0  0  0  0
  9 10  1  0  0  0  0
  9  4  2  0  0  0  0
 10 17  1  0  0  0  0
 11  3  1  1  0  0  0
 11 12  1  0  0  0  0
 11  8  1  0  0  0  0
 12 19  1  0  0  0  0
 16 10  1  0  0  0  0
 18 10  1  0  0  0  0
 20 12  1  0  0  0  0
 21 12  1  0  0  0  0
M  CHG  1   2  -1
M  END
