1,3,5
q = -2.0, confidence = 0.77

 37 40  0  0  1  0  0  0  0  0999 V2000
   -1.5388   -0.5394   -1.9680 O   0  5  0  0  0  0  0  0  0  0  0  0
   -3.1814    0.2669   -3.2464 O   0  0  0  0  0  0  0  0  0  0  0  0
    1.1052   -0.8208   -0.8154 O   0  0  0  0  0  1  0  0  0  0  0  0
    5.1729    2.4908    0.6481 O   0  0  0  0  0  0  0  0  0  0  0  0
   -0.7279    1.1759   -0.0334 N   0  0  0  0  0  2  0  0  0  0  0  0
   -2.0371    1.7041   -0.0745 C   0  0  0  0  0  0  0  0  0  0  0  0
   -2.5122    2.5825    0.9282 C   0  0  0  0  0  0  0  0  0  0  0  0
   -1.8336    2.8801    1.7410 H   0  0  0  0  0  0  0  0  0  0  0  0
   -3.8281    3.0636    0.8883 C   0  0  0  0  0  0  0  0  0  0  0  0
   -4.1846    3.7378    1.6822 H   0  0  0  0  0  0  0  0  0  0  0  0
   -4.6827    2.6897   -0.1627 C   0  0  0  0  0  0  0  0  0  0  0  0
   -5.7115    3.0775   -0.2054 H   0  0  0  0  0  0  0  0  0  0  0  0
   -4.2160    1.8161   -1.1538 C   0  0  0  0  0  0  0  0  0  0  0  0
   -4.8485    1.5039   -1.9985 H   0  0  0  0  0  0  0  0  0  0  0  0
   -2.9133    1.2880   -1.1120 C   0  0  0  0  0  0  0  0  0  0  0  0
   -2.5287    0.2927   -2.2021 C   0  0  0  0  0  0  0  0  0  0  0  0
    1.9955    0.0341   -0.4840 C   0  0  2  0  0  3  0  0  0  0  0  0
    1.7296    1.3875   -0.0769 C   0  0  0  0  0  0  0  0  0  0  0  0
    0.3786    1.9418   -0.0521 C   0  0  0  0  0  0  0  0  0  0  0  0
    0.2735    3.3824   -0.0683 C   0  0  0  0  0  0  0  0  0  0  0  0
   -0.7151    3.8301   -0.2308 H   0  0  0  0  0  0  0  0  0  0  0  0
    1.3714    4.1969    0.1345 C   0  0  0  0  0  0  0  0  0  0  0  0
    1.2381    5.2898    0.1362 H   0  0  0  0  0  0  0  0  0  0  0  0
    2.6578    3.6422    0.3271 C   0  0  0  0  0  0  0  0  0  0  0  0
    3.5427    4.2628    0.5257 H   0  0  0  0  0  0  0  0  0  0  0  0
    2.8394    2.2705    0.1841 C   0  0  0  0  0  0  0  0  0  0  0  0
    4.2457    1.7713    0.2672 C   0  0  0  0  0  0  0  0  0  0  0  0
    4.4818    0.3696   -0.1692 C   0  0  0  0  0  0  0  0  0  0  0  0
    5.7972   -0.1297   -0.2033 C   0  0  0  0  0  0  0  0  0  0  0  0
    6.6042    0.5430    0.1233 H   0  0  0  0  0  0  0  0  0  0  0  0
    6.0464   -1.4312   -0.6503 C   0  0  0  0  0  0  0  0  0  0  0  0
    7.0763   -1.8177   -0.6819 H   0  0  0  0  0  0  0  0  0  0  0  0
    4.9744   -2.2425   -1.0704 C   0  0  0  0  0  0  0  0  0  0  0  0
    5.1675   -3.2627   -1.4358 H   0  0  0  0  0  0  0  0  0  0  0  0
    3.6627   -1.7575   -1.0294 C   0  0  0  0  0  0  0  0  0  0  0  0
    2.8169   -2.3745   -1.3629 H   0  0  0  0  0  0  0  0  0  0  0  0
    3.3985   -0.4487   -0.5703 C   0  0  0  0  0  0  0  0  0  0  0  0
  2 16  2  0  0  0  0
  6  5  1  0  0  0  0
  6  7  1  0  0  0  0
  7  8  1  0  0  0  0
  9  7  2  0  0  0  0
  9 10  1  0  0  0  0
 11  9  1  0  0  0  0
 12 11  1  0  0  0  0
 13 15  1  0  0  0  0
 13 11  2  0  0  0  0
 14 13  1  0  0  0  0
 15  6  2  0  0  0  0
 16  1  1  0  0  0  0
 16 15  1  0  0  0  0
 17  3  1  6  0  0  0
 17 18  1  0  0  0  0
 18 19  2  0  0  0  0
 18 26  1  0  0  0  0
 19  5  1  0  0  0  0
 20 19  1  0  0  0  0
 20 22  2  0  0  0  0
 21 20  1  0  0  0  0
 22 23  1  0  0  0  0
 22 24  1  0  0  0  0
 24 25  1  0  0  0  0
 26 27  1  0  0  0  0
 26 24  2  0  0  0  0
 27  4  2  0  0  0  0
 28 27  1  0  0  0  0
 29 28  1  0  0  0  0
 29 30  1  0  0  0  0
 31 29  2  0  0  0  0
 32 31  1  0  0  0  0
 33 35  2  0  0  0  0
 33 31  1  0  0  0  0
 34 33  1  0  0  0  0
 35 37  1  0  0  0  0
 36 35  1  0  0  0  0
 37 17  1  0  0  0  0
 37 28  2  0  0  0  0
M  CHG  1   1  -1
M  END
