1,2,4
q = -2.0, confidence = 0.854

 28 29  0  0  0  0  0  0  0  0999 V2000
   -1.1498    0.9763   -0.5914 O   0  5  0  0  0  0  0  0  0  0  0  0
    2.6093    0.2889   -1.0211 O   0  5  0  0  0  0  0  0  0  0  0  0
   -5.7304    0.2082   -0.0052 O   0  0  0  0  0  0  0  0  0  0  0  0
    0.6133   -1.0822    0.0085 N   0  0  0  0  0  2  0  0  0  0  0  0
    2.0974   -2.7707    0.8518 N   0  0  0  0  0  0  0  0  0  0  0  0
   -1.7942   -1.1884    0.3100 C   0  0  0  0  0  0  0  0  0  0  0  0
   -2.0937    0.1205   -0.2166 C   0  0  0  0  0  0  0  0  0  0  0  0
   -3.4337    0.5371   -0.2972 C   0  0  0  0  0  0  0  0  0  0  0  0
   -3.6620    1.5330   -0.6991 H   0  0  0  0  0  0  0  0  0  0  0  0
   -4.4824   -0.3010    0.1254 C   0  0  0  0  0  0  0  0  0  0  0  0
   -4.2022   -1.5882    0.6534 C   0  0  0  0  0  0  0  0  0  0  0  0
   -5.0051   -2.2555    0.9896 H   0  0  0  0  0  0  0  0  0  0  0  0
   -2.8755   -1.9999    0.7382 C   0  0  0  0  0  0  0  0  0  0  0  0
   -2.6442   -2.9970    1.1448 H   0  0  0  0  0  0  0  0  0  0  0  0
   -0.4589   -1.6976    0.4368 C   0  0  0  0  0  3  0  0  0  0  0  0
   -0.3187   -2.6813    0.9305 H   0  0  0  0  0  0  0  0  0  0  0  0
    1.8909   -1.6326    0.1852 C   0  0  0  0  0  0  0  0  0  0  0  0
    2.9249   -0.8542   -0.4192 C   0  0  0  0  0  0  0  0  0  0  0  0
    4.2430   -1.3426   -0.3177 C   0  0  0  0  0  0  0  0  0  0  0  0
    5.0653   -0.7794   -0.7825 H   0  0  0  0  0  0  0  0  0  0  0  0
    4.4546   -2.5426    0.3764 C   0  0  0  0  0  0  0  0  0  0  0  0
    5.4688   -2.9572    0.4790 H   0  0  0  0  0  0  0  0  0  0  0  0
    3.3578   -3.2191    0.9452 C   0  0  0  0  0  0  0  0  0  0  0  0
    3.5086   -4.1629    1.4971 H   0  0  0  0  0  0  0  0  0  0  0  0
   -6.8390   -0.5836    0.3879 C   0  0  0  0  0  0  0  0  0  0  0  0
   -6.8996   -1.5276   -0.1970 H   0  0  0  0  0  0  0  0  0  0  0  0
   -7.7404    0.0235    0.1862 H   0  0  0  0  0  0  0  0  0  0  0  0
   -6.8053   -0.8329    1.4716 H   0  0  0  0  0  0  0  0  0  0  0  0
  1  7  1  0  0  0  0
  2 18  1  0  0  0  0
  3 10  1  0  0  0  0
  3 25  1  0  0  0  0
  4 17  1  0  0  0  0
  4 15  1  0  0  0  0
  5 23  1  0  0  0  0
  6 15  1  0  0  0  0
  6 13  1  0  0  0  0
  7  6  2  0  0  0  0
  8  7  1  0  0  0  0
  8 10  2  0  0  0  0
  9  8  1  0  0  0  0
 10 11  1  0  0  0  0
 11 13  2  0  0  0  0
 11 12  1  0  0  0  0
 13 14  1  0  0  0  0
 15 16  1  0  0  0  0
 17  5  2  0  0  0  0
 18 19  2  0  0  0  0
 18 17  1  0  0  0  0
 19 21  1  0  0  0  0
 20 19  1  0  0  0  0
 21 22  1  0  0  0  0
 21 23  2  0  0  0  0
 23 24  1  0  0  0  0
 25 28  1  0  0  0  0
 26 25  1  0  0  0  0
 27 25  1  0  0  0  0
M  CHG  2   1  -1   2  -1
M  END
