1,2,4
q = -2.0, confidence = 0.928

 32 33  0  0  1  0  0  0  0  0999 V2000
   -3.6545    0.5022    0.0589 O   0  0  0  0  0  1  0  0  0  0  0  0
    0.0027    0.3366   -0.3898 O   0  5  0  0  0  0  0  0  0  0  0  0
    2.6132   -0.3812    0.2606 O   0  0  0  0  0  0  0  0  0  0  0  0
   -1.7123   -1.4181   -0.1452 N   0  0  0  0  0  2  0  0  0  0  0  0
   -0.4337   -1.9232   -0.2671 N   0  0  0  0  0  0  0  0  0  0  0  0
    8.5295   -0.3470    0.1572 Cl  0  0  0  0  0  0  0  0  0  0  0  0
   -4.4868   -0.5087    0.1548 C   0  0  1  0  0  3  0  0  0  0  0  0
   -4.0809   -1.8940    0.1278 C   0  0  0  0  0  0  0  0  0  0  0  0
   -5.0698   -2.9119    0.2469 C   0  0  0  0  0  0  0  0  0  0  0  0
   -4.7380   -3.9621    0.2253 H   0  0  0  0  0  0  0  0  0  0  0  0
   -6.4184   -2.6070    0.3861 C   0  0  0  0  0  0  0  0  0  0  0  0
   -7.1654   -3.4087    0.4762 H   0  0  0  0  0  0  0  0  0  0  0  0
   -6.8168   -1.2490    0.4100 C   0  0  0  0  0  0  0  0  0  0  0  0
   -7.8822   -0.9927    0.5198 H   0  0  0  0  0  0  0  0  0  0  0  0
   -5.8777   -0.2282    0.2972 C   0  0  0  0  0  0  0  0  0  0  0  0
   -6.1816    0.8290    0.3167 H   0  0  0  0  0  0  0  0  0  0  0  0
   -2.7093   -2.2700   -0.0164 C   0  0  0  0  0  0  0  0  0  0  0  0
   -2.4337   -3.3396   -0.0250 H   0  0  0  0  0  0  0  0  0  0  0  0
    0.3927   -0.9095   -0.3989 C   0  0  0  0  0  0  0  0  0  0  0  0
    1.8541   -1.1879   -0.6302 C   0  0  0  0  0  0  0  0  0  0  0  0
    2.0429   -2.2712   -0.4713 H   0  0  0  0  0  0  0  0  0  0  0  0
    2.1103   -0.9358   -1.6872 H   0  0  0  0  0  0  0  0  0  0  0  0
    3.9691   -0.4317    0.1778 C   0  0  0  0  0  0  0  0  0  0  0  0
    4.6746    0.4207    1.0563 C   0  0  0  0  0  0  0  0  0  0  0  0
    4.0959    1.0584    1.7399 H   0  0  0  0  0  0  0  0  0  0  0  0
    6.0704    0.4480    1.0524 C   0  0  0  0  0  0  0  0  0  0  0  0
    6.6191    1.1111    1.7359 H   0  0  0  0  0  0  0  0  0  0  0  0
    6.7813   -0.3810    0.1649 C   0  0  0  0  0  0  0  0  0  0  0  0
    6.0940   -1.2329   -0.7093 C   0  0  0  0  0  0  0  0  0  0  0  0
    6.6588   -1.8790   -1.3960 H   0  0  0  0  0  0  0  0  0  0  0  0
    4.6898   -1.2624   -0.7054 C   0  0  0  0  0  0  0  0  0  0  0  0
    4.1720   -1.9426   -1.3942 H   0  0  0  0  0  0  0  0  0  0  0  0
  4 17  1  0  0  0  0
  5  4  1  0  0  0  0
  6 28  1  0  0  0  0
  7  1  1  1  0  0  0
  7 15  1  0  0  0  0
  8  7  1  0  0  0  0
  8  9  1  0  0  0  0
  9 11  2  0  0  0  0
 10  9  1  0  0  0  0
 11 13  1  0  0  0  0
 11 12  1  0  0  0  0
 13 14  1  0  0  0  0
 15 16  1  0  0  0  0
 15 13  2  0  0  0  0
 17  8  2  0  0  0  0
 18 17  1  0  0  0  0
 19  2  1  0  0  0  0
 19  5  2  0  0  0  0
 20 21  1  0  0  0  0
 20 19  1  0  0  0  0
 20  3  1  0  0  0  0
 22 20  1  0  0  0  0
 23  3  1  0  0  0  0
 23 24  1  0  0  0  0
 24 25  1  0  0  0  0
 26 24  2  0  0  0  0
 26 27  1  0  0  0  0
 28 26  1  0  0  0  0
 29 31  1  0  0  0  0
 29 28  2  0  0  0  0
 30 29  1  0  0  0  0
 31 23  2  0  0  0  0
 32 31  1  0  0  0  0
M  CHG  1   2  -1
M  END
