1,2,6
q = 0.0, confidence = 0.998

 30 29  0  0  1  0  0  0  0  0999 V2000
   -1.8867   -1.3379   -0.7353 O   0  0  0  0  0  1  0  0  0  0  0  0
    1.5132   -1.0361   -1.2177 O   0  0  0  0  0  1  0  0  0  0  0  0
   -4.0256   -1.8164   -0.1964 N   0  0  0  0  0  0  0  0  0  0  0  0
   -4.9122   -1.5675    0.2408 H   0  0  0  0  0  0  0  0  0  0  0  0
   -3.9461   -2.7221   -0.6650 H   0  0  0  0  0  0  0  0  0  0  0  0
   -0.9764    1.5427    0.0690 N   0  0  0  0  0  0  0  0  0  0  0  0
   -0.7616    1.5736    1.0795 H   0  0  0  0  0  0  0  0  0  0  0  0
    1.8521    1.6113   -0.4241 N   0  0  0  0  0  0  0  0  0  0  0  0
    1.5887    1.0160   -1.2249 H   0  0  0  0  0  0  0  0  0  0  0  0
    3.2007   -2.4374   -0.6582 N   0  0  0  0  0  0  0  0  0  0  0  0
    4.0910   -2.6310   -0.2018 H   0  0  0  0  0  0  0  0  0  0  0  0
    2.8163   -3.1257   -1.3072 H   0  0  0  0  0  0  0  0  0  0  0  0
   -2.9490   -1.0061   -0.1684 C   0  0  1  0  0  3  0  0  0  0  0  0
   -3.0945    0.3058    0.5931 C   0  0  0  0  0  0  0  0  0  0  0  0
   -4.1649    0.5307    0.7697 H   0  0  0  0  0  0  0  0  0  0  0  0
   -2.6428    0.1580    1.5996 H   0  0  0  0  0  0  0  0  0  0  0  0
   -2.4445    1.5141   -0.0953 C   0  0  0  0  0  0  0  0  0  0  0  0
   -2.9014    2.4464    0.3100 H   0  0  0  0  0  0  0  0  0  0  0  0
   -2.6638    1.5015   -1.1835 H   0  0  0  0  0  0  0  0  0  0  0  0
   -0.3547    2.7071   -0.5917 C   0  0  0  0  0  0  0  0  0  0  0  0
   -0.4758    2.5756   -1.6882 H   0  0  0  0  0  0  0  0  0  0  0  0
   -0.8728    3.6595   -0.3294 H   0  0  0  0  0  0  0  0  0  0  0  0
    1.1302    2.8589   -0.2401 C   0  0  0  0  0  0  0  0  0  0  0  0
    1.2494    3.1760    0.8168 H   0  0  0  0  0  0  0  0  0  0  0  0
    1.5542    3.6696   -0.8723 H   0  0  0  0  0  0  0  0  0  0  0  0
    2.6972    1.0499    0.4572 C   0  0  0  0  0  0  0  0  0  0  0  0
    3.0489    1.7054    1.2724 H   0  0  0  0  0  0  0  0  0  0  0  0
    3.0888   -0.2875    0.4408 C   0  0  0  0  0  0  0  0  0  0  0  0
    3.9102   -0.5853    1.1078 H   0  0  0  0  0  0  0  0  0  0  0  0
    2.5649   -1.2510   -0.5256 C   0  0  2  0  0  3  0  0  0  0  0  0
  3 13  1  0  0  0  0
  3  4  1  0  0  0  0
  5  3  1  0  0  0  0
  6  7  1  0  0  0  0
  8 23  1  0  0  0  0
  8 26  1  0  0  0  0
  9  8  1  0  0  0  0
 10 30  1  0  0  0  0
 10 11  1  0  0  0  0
 12 10  1  0  0  0  0
 13  1  1  1  0  0  0
 13 14  1  0  0  0  0
 14 15  1  0  0  0  0
 14 16  1  0  0  0  0
 17  6  1  0  0  0  0
 17 18  1  0  0  0  0
 17 14  1  0  0  0  0
 19 17  1  0  0  0  0
 20 22  1  0  0  0  0
 20 23  1  0  0  0  0
 20  6  1  0  0  0  0
 21 20  1  0  0  0  0
 23 24  1  0  0  0  0
 25 23  1  0  0  0  0
 26 27  1  0  0  0  0
 28 26  2  0  0  0  0
 28 29  1  0  0  0  0
 30  2  1  1  0  0  0
 30 28  1  0  0  0  0
M  END
