1,2,5
q = -2.0, confidence = 0.866

 23 23  0  0  1  0  0  0  0  0999 V2000
   -1.3085   -0.0625   -1.1018 O   0  5  0  0  0  0  0  0  0  0  0  0
    0.7690    2.9282   -0.2994 O   0  5  0  0  0  0  0  0  0  0  0  0
    0.9346    4.2740    1.5163 O   0  0  0  0  0  0  0  0  0  0  0  0
   -2.1024    0.7419    0.9053 N   0  0  0  0  0  0  0  0  0  0  0  0
   -1.1492    1.6492    0.6187 N   0  0  0  0  0  2  0  0  0  0  0  0
   -3.0415   -1.3026   -0.0135 C   0  0  0  0  0  0  0  0  0  0  0  0
   -3.9156   -1.4535    1.0856 C   0  0  0  0  0  0  0  0  0  0  0  0
   -3.8857   -0.7021    1.8872 H   0  0  0  0  0  0  0  0  0  0  0  0
   -4.7936   -2.5420    1.1358 C   0  0  0  0  0  0  0  0  0  0  0  0
   -5.4745   -2.6571    1.9927 H   0  0  0  0  0  0  0  0  0  0  0  0
   -4.8074   -3.4871    0.0947 C   0  0  0  0  0  0  0  0  0  0  0  0
   -5.4995   -4.3420    0.1372 H   0  0  0  0  0  0  0  0  0  0  0  0
   -3.9391   -3.3402   -1.0000 C   0  0  0  0  0  0  0  0  0  0  0  0
   -3.9514   -4.0789   -1.8157 H   0  0  0  0  0  0  0  0  0  0  0  0
   -3.0586   -2.2527   -1.0564 C   0  0  0  0  0  0  0  0  0  0  0  0
   -2.3722   -2.1147   -1.9038 H   0  0  0  0  0  0  0  0  0  0  0  0
   -2.1093   -0.1582   -0.0820 C   0  0  0  0  0  0  0  0  0  0  0  0
   -0.7733    2.5843    1.4451 C   0  0  2  0  0  3  0  0  0  0  0  0
    0.3984    3.3676    0.9001 C   0  0  0  0  0  0  0  0  0  0  0  0
   -1.3504    2.8309    2.7899 C   0  0  0  0  0  0  0  0  0  0  0  0
   -2.4401    3.0267    2.7176 H   0  0  0  0  0  0  0  0  0  0  0  0
   -0.8349    3.6911    3.2544 H   0  0  0  0  0  0  0  0  0  0  0  0
   -1.2376    1.9293    3.4281 H   0  0  0  0  0  0  0  0  0  0  0  0
  1 17  1  0  0  0  0
  2 19  1  0  0  0  0
  5  4  1  0  0  0  0
  6  7  1  0  0  0  0
  7  9  2  0  0  0  0
  7  8  1  0  0  0  0
  9 10  1  0  0  0  0
 11 12  1  0  0  0  0
 11  9  1  0  0  0  0
 13 11  2  0  0  0  0
 14 13  1  0  0  0  0
 15 13  1  0  0  0  0
 15  6  2  0  0  0  0
 16 15  1  0  0  0  0
 17  6  1  0  0  0  0
 17  4  2  0  0  0  0
 18  5  1  1  0  0  0
 18 20  1  0  0  0  0
 19 18  1  0  0  0  0
 19  3  2  0  0  0  0
 20 22  1  0  0  0  0
 20 23  1  0  0  0  0
 21 20  1  0  0  0  0
M  CHG  2   1  -1   2  -1
M  END
