1,2,3
q = -2.0, confidence = 0.98

 49 51  0  0  1  0  0  0  0  0999 V2000
   -2.7943   -0.8278    0.4751 O   0  0  0  0  0  1  0  0  0  0  0  0
    0.9154   -0.6509    0.4178 O   0  0  0  0  0  1  0  0  0  0  0  0
   -1.0350    0.9355   -1.0034 N   0  0  0  0  0  2  0  0  0  0  0  0
    0.0142    1.1891   -1.8291 C   0  0  2  0  0  3  0  0  0  0  0  0
   -0.0463    2.2049   -2.8022 C   0  0  0  0  0  0  0  0  0  0  0  0
   -1.2075    2.9671   -2.9381 C   0  0  0  0  0  0  0  0  0  0  0  0
   -2.2800    2.7001   -2.0838 C   0  0  0  0  0  0  0  0  0  0  0  0
   -2.1658    1.6848   -1.1172 C   0  0  0  0  0  0  0  0  0  0  0  0
   -3.3165    1.4312   -0.1806 C   0  0  0  0  0  0  0  0  0  0  0  0
   -3.8170   -0.0310   -0.1160 C   0  0  0  0  0  0  0  0  0  0  0  0
   -4.1326   -0.5983   -1.5053 C   0  0  0  0  0  0  0  0  0  0  0  0
   -5.0298   -0.1217    0.8178 C   0  0  0  0  0  0  0  0  0  0  0  0
    1.2550    0.3381   -1.7489 C   0  0  0  0  0  0  0  0  0  0  0  0
    1.8553    0.0975   -0.3410 C   0  0  0  0  0  0  0  0  0  0  0  0
    3.1052   -0.7856   -0.5150 C   0  0  0  0  0  0  0  0  0  0  0  0
    2.9375   -2.1676   -0.7330 C   0  0  0  0  0  0  0  0  0  0  0  0
    4.0532   -2.9903   -0.9424 C   0  0  0  0  0  0  0  0  0  0  0  0
    5.3465   -2.4431   -0.9431 C   0  0  0  0  0  0  0  0  0  0  0  0
    5.5169   -1.0668   -0.7320 C   0  0  0  0  0  0  0  0  0  0  0  0
    4.4019   -0.2412   -0.5161 C   0  0  0  0  0  0  0  0  0  0  0  0
    2.1786    1.3788    0.4335 C   0  0  0  0  0  0  0  0  0  0  0  0
    2.3326    1.2937    1.8313 C   0  0  0  0  0  0  0  0  0  0  0  0
    2.6669    2.4276    2.5815 C   0  0  0  0  0  0  0  0  0  0  0  0
    2.8610    3.6646    1.9454 C   0  0  0  0  0  0  0  0  0  0  0  0
    2.7201    3.7561    0.5536 C   0  0  0  0  0  0  0  0  0  0  0  0
    2.3797    2.6189   -0.1979 C   0  0  0  0  0  0  0  0  0  0  0  0
    0.8242    2.3786   -3.4509 H   0  0  0  0  0  0  0  0  0  0  0  0
   -1.2761    3.7592   -3.6989 H   0  0  0  0  0  0  0  0  0  0  0  0
   -3.2149    3.2742   -2.1506 H   0  0  0  0  0  0  0  0  0  0  0  0
   -3.0089    1.7217    0.8467 H   0  0  0  0  0  0  0  0  0  0  0  0
   -4.1626    2.0830   -0.4713 H   0  0  0  0  0  0  0  0  0  0  0  0
   -4.9225    0.0068   -1.9937 H   0  0  0  0  0  0  0  0  0  0  0  0
   -3.2319   -0.6023   -2.1479 H   0  0  0  0  0  0  0  0  0  0  0  0
   -4.4889   -1.6425   -1.4163 H   0  0  0  0  0  0  0  0  0  0  0  0
   -5.8856    0.4514    0.4091 H   0  0  0  0  0  0  0  0  0  0  0  0
   -5.3335   -1.1799    0.9328 H   0  0  0  0  0  0  0  0  0  0  0  0
   -4.7753    0.2789    1.8183 H   0  0  0  0  0  0  0  0  0  0  0  0
    1.0128   -0.6674   -2.1537 H   0  0  0  0  0  0  0  0  0  0  0  0
    2.0361    0.7643   -2.4051 H   0  0  0  0  0  0  0  0  0  0  0  0
    1.9243   -2.5969   -0.7379 H   0  0  0  0  0  0  0  0  0  0  0  0
    3.9092   -4.0694   -1.1044 H   0  0  0  0  0  0  0  0  0  0  0  0
    6.2217   -3.0907   -1.1051 H   0  0  0  0  0  0  0  0  0  0  0  0
    6.5270   -0.6293   -0.7255 H   0  0  0  0  0  0  0  0  0  0  0  0
    4.5428    0.8346   -0.3360 H   0  0  0  0  0  0  0  0  0  0  0  0
    2.1787    0.3253    2.3272 H   0  0  0  0  0  0  0  0  0  0  0  0
    2.7726    2.3452    3.6737 H   0  0  0  0  0  0  0  0  0  0  0  0
    3.1221    4.5565    2.5350 H   0  0  0  0  0  0  0  0  0  0  0  0
    2.8734    4.7192    0.0435 H   0  0  0  0  0  0  0  0  0  0  0  0
    2.2791    2.7131   -1.2878 H   0  0  0  0  0  0  0  0  0  0  0  0
  4 13  1  6  0  0  0
  4  3  1  0  0  0  0
  5  4  1  0  0  0  0
  6  5  2  0  0  0  0
  6  7  1  0  0  0  0
  7  8  2  0  0  0  0
  8  3  1  0  0  0  0
  8  9  1  0  0  0  0
  9 10  1  0  0  0  0
  9 30  1  0  0  0  0
 10  1  1  0  0  0  0
 10 12  1  0  0  0  0
 11 34  1  0  0  0  0
 11 10  1  0  0  0  0
 12 36  1  0  0  0  0
 12 37  1  0  0  0  0
 13 14  1  0  0  0  0
 14  2  1  0  0  0  0
 14 21  1  0  0  0  0
 15 14  1  0  0  0  0
 16 15  2  0  0  0  0
 17 16  1  0  0  0  0
 18 17  2  0  0  0  0
 18 19  1  0  0  0  0
 19 43  1  0  0  0  0
 19 20  2  0  0  0  0
 20 15  1  0  0  0  0
 20 44  1  0  0  0  0
 21 22  1  0  0  0  0
 22 45  1  0  0  0  0
 22 23  2  0  0  0  0
 23 46  1  0  0  0  0
 24 47  1  0  0  0  0
 24 23  1  0  0  0  0
 25 24  2  0  0  0  0
 26 21  2  0  0  0  0
 26 25  1  0  0  0  0
 27  5  1  0  0  0  0
 28  6  1  0  0  0  0
 29  7  1  0  0  0  0
 31  9  1  0  0  0  0
 32 11  1  0  0  0  0
 33 11  1  0  0  0  0
 35 12  1  0  0  0  0
 38 13  1  0  0  0  0
 39 13  1  0  0  0  0
 40 16  1  0  0  0  0
 41 17  1  0  0  0  0
 42 18  1  0  0  0  0
 48 25  1  0  0  0  0
 49 26  1  0  0  0  0
M  END
