1,2,3
q = -2.0, confidence = 0.784

 35 37  0  0  0  0  0  0  0  0999 V2000
   -0.6983   -0.2717   -0.3190 O   0  5  0  0  0  0  0  0  0  0  0  0
    2.5273    1.1827   -0.5209 O   0  5  0  0  0  0  0  0  0  0  0  0
    1.7735   -1.1993   -0.0185 N   0  0  0  0  0  2  0  0  0  0  0  0
    1.1814   -2.3471    0.1964 C   0  0  0  0  0  3  0  0  0  0  0  0
   -0.2389   -2.5379    0.2987 C   0  0  0  0  0  0  0  0  0  0  0  0
   -1.1494   -1.4631    0.0320 C   0  0  0  0  0  0  0  0  0  0  0  0
   -2.5597   -1.6961    0.0867 C   0  0  0  0  0  0  0  0  0  0  0  0
   -3.0070   -2.9932    0.3938 C   0  0  0  0  0  0  0  0  0  0  0  0
   -2.1183   -4.0559    0.6514 C   0  0  0  0  0  0  0  0  0  0  0  0
   -0.7470   -3.8285    0.6019 C   0  0  0  0  0  0  0  0  0  0  0  0
   -3.5305   -0.6057   -0.1839 C   0  0  0  0  0  0  0  0  0  0  0  0
   -3.3710    0.6802    0.3810 C   0  0  0  0  0  0  0  0  0  0  0  0
   -4.3218    1.6829    0.1515 C   0  0  0  0  0  0  0  0  0  0  0  0
   -5.4444    1.4291   -0.6533 C   0  0  0  0  0  0  0  0  0  0  0  0
   -5.6121    0.1581   -1.2240 C   0  0  0  0  0  0  0  0  0  0  0  0
   -4.6651   -0.8489   -0.9898 C   0  0  0  0  0  0  0  0  0  0  0  0
    3.1546   -1.0571   -0.1874 C   0  0  0  0  0  0  0  0  0  0  0  0
    3.5142    0.3000   -0.4377 C   0  0  0  0  0  0  0  0  0  0  0  0
    4.8728    0.6429   -0.6156 C   0  0  0  0  0  0  0  0  0  0  0  0
    5.8440   -0.3623   -0.5639 C   0  0  0  0  0  0  0  0  0  0  0  0
    5.4868   -1.7087   -0.3334 C   0  0  0  0  0  0  0  0  0  0  0  0
    4.1452   -2.0598   -0.1503 C   0  0  0  0  0  0  0  0  0  0  0  0
    1.8000   -3.2617    0.2967 H   0  0  0  0  0  0  0  0  0  0  0  0
   -4.0922   -3.1673    0.4553 H   0  0  0  0  0  0  0  0  0  0  0  0
   -2.5103   -5.0529    0.8988 H   0  0  0  0  0  0  0  0  0  0  0  0
   -0.0340   -4.6439    0.8015 H   0  0  0  0  0  0  0  0  0  0  0  0
   -2.5004    0.8859    1.0182 H   0  0  0  0  0  0  0  0  0  0  0  0
   -4.1873    2.6747    0.6107 H   0  0  0  0  0  0  0  0  0  0  0  0
   -6.1863    2.2212   -0.8360 H   0  0  0  0  0  0  0  0  0  0  0  0
   -6.4836   -0.0504   -1.8632 H   0  0  0  0  0  0  0  0  0  0  0  0
   -4.7913   -1.8378   -1.4566 H   0  0  0  0  0  0  0  0  0  0  0  0
    5.1336    1.6946   -0.8001 H   0  0  0  0  0  0  0  0  0  0  0  0
    6.9030   -0.0985   -0.7071 H   0  0  0  0  0  0  0  0  0  0  0  0
    6.2649   -2.4849   -0.2933 H   0  0  0  0  0  0  0  0  0  0  0  0
    3.8747   -3.1108    0.0309 H   0  0  0  0  0  0  0  0  0  0  0  0
  1  6  1  0  0  0  0
  2 18  1  0  0  0  0
  3  4  1  0  0  0  0
  4 23  1  0  0  0  0
  4  5  1  0  0  0  0
  5 10  1  0  0  0  0
  6  7  1  0  0  0  0
  6  5  2  0  0  0  0
  7  8  2  0  0  0  0
  8 24  1  0  0  0  0
  8  9  1  0  0  0  0
  9 25  1  0  0  0  0
 10  9  2  0  0  0  0
 10 26  1  0  0  0  0
 11  7  1  0  0  0  0
 11 12  1  0  0  0  0
 12 27  1  0  0  0  0
 13 12  2  0  0  0  0
 13 28  1  0  0  0  0
 14 13  1  0  0  0  0
 15 16  1  0  0  0  0
 15 14  2  0  0  0  0
 16 11  2  0  0  0  0
 17 22  1  0  0  0  0
 17  3  1  0  0  0  0
 18 17  2  0  0  0  0
 19 20  2  0  0  0  0
 19 18  1  0  0  0  0
 20 21  1  0  0  0  0
 21 34  1  0  0  0  0
 21 22  2  0  0  0  0
 22 35  1  0  0  0  0
 29 14  1  0  0  0  0
 30 15  1  0  0  0  0
 31 16  1  0  0  0  0
 32 19  1  0  0  0  0
 33 20  1  0  0  0  0
M  CHG  2   1  -1   2  -1
M  END
