1,2,3
q = -2.0, confidence = 0.748

 34 36  0  0  0  0  0  0  0  0999 V2000
   -0.7931   -1.4504   -0.0531 O   0  5  0  0  0  0  0  0  0  0  0  0
    0.6498    2.2809   -0.0108 O   0  5  0  0  0  0  0  0  0  0  0  0
   -1.8403    1.2664   -0.0122 N   0  0  0  0  0  2  0  0  0  0  0  0
   -3.1666   -0.8152   -0.0099 C   0  0  0  0  0  0  0  0  0  0  0  0
   -2.0662   -1.7445   -0.0449 C   0  0  0  0  0  0  0  0  0  0  0  0
   -2.3453   -3.1584   -0.0746 C   0  0  0  0  0  0  0  0  0  0  0  0
   -1.4707   -3.8242   -0.1098 H   0  0  0  0  0  0  0  0  0  0  0  0
   -3.6282   -3.6427   -0.0619 C   0  0  0  0  0  0  0  0  0  0  0  0
   -3.8100   -4.7290   -0.0856 H   0  0  0  0  0  0  0  0  0  0  0  0
   -6.0785   -3.2841   -0.0035 C   0  0  0  0  0  3  0  0  0  0  0  0
   -6.2060   -4.3780   -0.0254 H   0  0  0  0  0  0  0  0  0  0  0  0
   -7.1853   -2.4461    0.0383 C   0  0  0  0  0  0  0  0  0  0  0  0
   -8.2040   -2.8613    0.0501 H   0  0  0  0  0  0  0  0  0  0  0  0
   -6.9817   -1.0480    0.0660 C   0  0  0  0  0  0  0  0  0  0  0  0
   -7.8462   -0.3675    0.1003 H   0  0  0  0  0  0  0  0  0  0  0  0
   -5.6955   -0.5147    0.0509 C   0  0  0  0  0  0  0  0  0  0  0  0
   -5.6003    0.5793    0.0753 H   0  0  0  0  0  0  0  0  0  0  0  0
   -4.5352   -1.3399    0.0077 C   0  0  0  0  0  0  0  0  0  0  0  0
   -4.7573   -2.7621   -0.0189 C   0  0  0  0  0  0  0  0  0  0  0  0
   -2.9790    0.6025    0.0047 C   0  0  0  0  0  0  0  0  0  0  0  0
   -3.8925    1.2171    0.0316 H   0  0  0  0  0  0  0  0  0  0  0  0
   -1.7174    2.6725   -0.0065 C   0  0  0  0  0  0  0  0  0  0  0  0
   -0.3674    3.1397    0.0005 C   0  0  0  0  0  0  0  0  0  0  0  0
   -0.1407    4.5392    0.0143 C   0  0  0  0  0  0  0  0  0  0  0  0
    0.8999    4.8953    0.0183 H   0  0  0  0  0  0  0  0  0  0  0  0
   -1.2148    5.4281    0.0165 C   0  0  0  0  0  0  0  0  0  0  0  0
   -1.0154    6.5119    0.0255 H   0  0  0  0  0  0  0  0  0  0  0  0
   -2.5593    4.9747    0.0046 C   0  0  0  0  0  0  0  0  0  0  0  0
   -2.7891    3.5926   -0.0075 C   0  0  0  0  0  0  0  0  0  0  0  0
   -3.8284    3.2306   -0.0188 H   0  0  0  0  0  0  0  0  0  0  0  0
   -3.7006    5.9619    0.0045 C   0  0  0  0  0  0  0  0  0  0  0  0
   -3.6738    6.6172    0.9010 H   0  0  0  0  0  0  0  0  0  0  0  0
   -4.6830    5.4506   -0.0066 H   0  0  0  0  0  0  0  0  0  0  0  0
   -3.6612    6.6318   -0.8807 H   0  0  0  0  0  0  0  0  0  0  0  0
  1  5  1  0  0  0  0
  2 23  1  0  0  0  0
  3 22  1  0  0  0  0
  3 20  1  0  0  0  0
  4 20  2  0  0  0  0
  4 18  1  0  0  0  0
  5  4  1  0  0  0  0
  6  8  1  0  0  0  0
  6  5  2  0  0  0  0
  7  6  1  0  0  0  0
  8 19  2  0  0  0  0
  9  8  1  0  0  0  0
 10 12  1  0  0  0  0
 11 10  1  0  0  0  0
 12 13  1  0  0  0  0
 12 14  2  0  0  0  0
 14 15  1  0  0  0  0
 16 14  1  0  0  0  0
 16 17  1  0  0  0  0
 18 16  2  0  0  0  0
 19 10  1  0  0  0  0
 19 18  1  0  0  0  0
 20 21  1  0  0  0  0
 22 23  1  0  0  0  0
 23 24  2  0  0  0  0
 24 26  1  0  0  0  0
 24 25  1  0  0  0  0
 26 27  1  0  0  0  0
 28 26  2  0  0  0  0
 29 22  2  0  0  0  0
 29 28  1  0  0  0  0
 30 29  1  0  0  0  0
 31 28  1  0  0  0  0
 31 32  1  0  0  0  0
 33 31  1  0  0  0  0
 34 31  1  0  0  0  0
M  CHG  2   1  -1   2  -1
M  END
