2,3,4
q = -2.0, confidence = 0.892

 31 33  0  0  0  0  0  0  0  0999 V2000
   -4.5919    5.3355    0.0019 Cl  0  0  0  0  0  0  0  0  0  0  0  0
   -0.4597   -1.6783   -0.0518 O   0  5  0  0  0  0  0  0  0  0  0  0
    0.4249    2.2233   -0.0089 O   0  5  0  0  0  0  0  0  0  0  0  0
   -1.8902    0.8550   -0.0100 N   0  0  0  0  0  2  0  0  0  0  0  0
   -2.9011   -1.3948   -0.0087 C   0  0  0  0  0  0  0  0  0  0  0  0
   -1.6762   -2.1540   -0.0442 C   0  0  0  0  0  0  0  0  0  0  0  0
   -1.7465   -3.5935   -0.0760 C   0  0  0  0  0  0  0  0  0  0  0  0
   -0.7845   -4.1251   -0.1123 H   0  0  0  0  0  0  0  0  0  0  0  0
   -2.9456   -4.2584   -0.0640 C   0  0  0  0  0  0  0  0  0  0  0  0
   -2.9674   -5.3596   -0.0893 H   0  0  0  0  0  0  0  0  0  0  0  0
   -5.4219   -4.2616   -0.0037 C   0  0  0  0  0  3  0  0  0  0  0  0
   -5.3886   -5.3623   -0.0273 H   0  0  0  0  0  0  0  0  0  0  0  0
   -6.6390   -3.5938    0.0404 C   0  0  0  0  0  0  0  0  0  0  0  0
   -7.5861   -4.1531    0.0523 H   0  0  0  0  0  0  0  0  0  0  0  0
   -6.6416   -2.1813    0.0707 C   0  0  0  0  0  0  0  0  0  0  0  0
   -7.5959   -1.6341    0.1073 H   0  0  0  0  0  0  0  0  0  0  0  0
   -5.4470   -1.4658    0.0555 C   0  0  0  0  0  0  0  0  0  0  0  0
   -5.5131   -0.3697    0.0828 H   0  0  0  0  0  0  0  0  0  0  0  0
   -4.1795   -2.1132    0.0094 C   0  0  0  0  0  0  0  0  0  0  0  0
   -4.1913   -3.5521   -0.0192 C   0  0  0  0  0  0  0  0  0  0  0  0
   -2.9218    0.0337    0.0049 C   0  0  0  0  0  0  0  0  0  0  0  0
   -3.9153    0.5090    0.0282 H   0  0  0  0  0  0  0  0  0  0  0  0
   -1.9731    2.2628   -0.0054 C   0  0  0  0  0  0  0  0  0  0  0  0
   -0.7040    2.9250    0.0006 C   0  0  0  0  0  0  0  0  0  0  0  0
   -0.6807    4.3427    0.0114 C   0  0  0  0  0  0  0  0  0  0  0  0
    0.2973    4.8453    0.0141 H   0  0  0  0  0  0  0  0  0  0  0  0
   -1.8666    5.0782    0.0126 C   0  0  0  0  0  0  0  0  0  0  0  0
   -1.8471    6.1770    0.0192 H   0  0  0  0  0  0  0  0  0  0  0  0
   -3.1073    4.4060    0.0028 C   0  0  0  0  0  0  0  0  0  0  0  0
   -3.1700    3.0102   -0.0068 C   0  0  0  0  0  0  0  0  0  0  0  0
   -4.1537    2.5223   -0.0157 H   0  0  0  0  0  0  0  0  0  0  0  0
  1 29  1  0  0  0  0
  2  6  1  0  0  0  0
  3 24  1  0  0  0  0
  4 23  1  0  0  0  0
  4 21  1  0  0  0  0
  5 21  2  0  0  0  0
  5 19  1  0  0  0  0
  6  5  1  0  0  0  0
  7  9  1  0  0  0  0
  7  6  2  0  0  0  0
  8  7  1  0  0  0  0
  9 20  2  0  0  0  0
 10  9  1  0  0  0  0
 11 13  1  0  0  0  0
 12 11  1  0  0  0  0
 13 14  1  0  0  0  0
 13 15  2  0  0  0  0
 15 16  1  0  0  0  0
 17 15  1  0  0  0  0
 17 18  1  0  0  0  0
 19 17  2  0  0  0  0
 20 11  1  0  0  0  0
 20 19  1  0  0  0  0
 21 22  1  0  0  0  0
 23 24  1  0  0  0  0
 24 25  2  0  0  0  0
 25 27  1  0  0  0  0
 25 26  1  0  0  0  0
 27 28  1  0  0  0  0
 29 27  2  0  0  0  0
 30 23  2  0  0  0  0
 30 29  1  0  0  0  0
 31 30  1  0  0  0  0
M  CHG  2   2  -1   3  -1
M  END
