1,8,9
q = -1.0

 32 33  0  0  0  0  0  0  0  0999 V2000
    2.8470   -1.2359   -0.0515 O   0  5  0  0  0  0  0  0  0  0  0  0
    2.1301    1.0247   -0.1838 C   0  0  0  0  0  0  0  0  0  0  0  0
    3.1698    0.0173   -0.1061 C   0  0  0  0  0  0  0  0  0  0  0  0
    2.4747    2.4004   -0.2829 C   0  0  0  0  0  0  0  0  0  0  0  0
    3.8095    2.7842   -0.2870 C   0  0  0  0  0  0  0  0  0  0  0  0
    4.8344    1.8009   -0.1928 C   0  0  0  0  0  0  0  0  0  0  0  0
    4.5325    0.4489   -0.1041 C   0  0  0  0  0  0  0  0  0  0  0  0
   -0.8016   -1.6324   -0.5807 O   0  5  0  0  0  0  0  0  0  0  0  0
    0.8667    0.4850   -0.1636 N   0  0  0  0  0  2  0  0  0  0  0  0
   -1.5507    0.6287   -0.0984 C   0  0  0  0  0  0  0  0  0  0  0  0
   -1.7435   -0.7866   -0.3475 C   0  0  0  0  0  0  0  0  0  0  0  0
   -2.7066    1.4528    0.0969 C   0  0  0  0  0  0  0  0  0  0  0  0
   -3.9703    0.8860    0.0845 C   0  0  0  0  0  3  0  0  0  0  0  0
   -2.6080    2.9473    0.3671 C   0  0  0  0  0  0  0  0  0  0  0  0
   -0.2332    1.1998   -0.0715 C   0  0  0  0  0  3  0  0  0  0  0  0
   -3.0780   -1.3013   -0.3494 C   0  0  0  0  0  0  0  0  0  0  0  0
   -4.1122   -0.4527   -0.1335 N   0  0  0  0  0  0  0  0  0  0  0  0
   -3.8550    3.6114    0.3630 O   0  0  0  0  0  0  0  0  0  0  0  0
   -3.3193   -2.7542   -0.5684 C   0  0  0  0  0  0  0  0  0  0  0  0
   -0.1587    2.2976    0.0509 H   0  0  0  0  0  0  0  0  0  0  0  0
   -4.8758    1.4765    0.2680 H   0  0  0  0  0  0  0  0  0  0  0  0
   -2.1696    3.0998    1.3777 H   0  0  0  0  0  0  0  0  0  0  0  0
   -1.8906    3.4102   -0.3505 H   0  0  0  0  0  0  0  0  0  0  0  0
    5.3139   -0.3212   -0.0368 H   0  0  0  0  0  0  0  0  0  0  0  0
    4.0782    3.8476   -0.3698 H   0  0  0  0  0  0  0  0  0  0  0  0
    1.6869    3.1638   -0.3720 H   0  0  0  0  0  0  0  0  0  0  0  0
    5.8879    2.1216   -0.1963 H   0  0  0  0  0  0  0  0  0  0  0  0
   -5.0557   -0.8515   -0.1196 H   0  0  0  0  0  0  0  0  0  0  0  0
   -2.9497   -3.0582   -1.5697 H   0  0  0  0  0  0  0  0  0  0  0  0
   -2.7199   -3.3440    0.1554 H   0  0  0  0  0  0  0  0  0  0  0  0
   -4.3891   -3.0247   -0.4754 H   0  0  0  0  0  0  0  0  0  0  0  0
   -4.1323    3.7025   -0.5675 H   0  0  0  0  0  0  0  0  0  0  0  0
  2  9  1  0  0  0  0
  2  3  1  0  0  0  0
  3  7  2  0  0  0  0
  3  1  1  0  0  0  0
  4  2  2  0  0  0  0
  5  4  1  0  0  0  0
  5  6  2  0  0  0  0
  6  7  1  0  0  0  0
  7 24  1  0  0  0  0
  8 11  1  0  0  0  0
  9 15  1  0  0  0  0
 10 15  1  0  0  0  0
 10 12  2  0  0  0  0
 11 10  1  0  0  0  0
 12 14  1  0  0  0  0
 13 12  1  0  0  0  0
 13 21  1  0  0  0  0
 14 22  1  0  0  0  0
 15 20  1  0  0  0  0
 16 11  2  0  0  0  0
 16 17  1  0  0  0  0
 17 28  1  0  0  0  0
 17 13  1  0  0  0  0
 18 14  1  0  0  0  0
 19 31  1  0  0  0  0
 19 16  1  0  0  0  0
 19 30  1  0  0  0  0
 23 14  1  0  0  0  0
 25  5  1  0  0  0  0
 26  4  1  0  0  0  0
 27  6  1  0  0  0  0
 29 19  1  0  0  0  0
 32 18  1  0  0  0  0
M  CHG  2   1  -1   8  -1
M  END
