23,26,27
q = -2.0, confidence = 0.9

 27 28  0  0  0  0  0  0  0  0999 V2000
    3.1724    0.1714    0.0496 C   0  0  0  0  0  0  0  0  0  0  0  0
    4.5642   -0.0699    0.0533 C   0  0  0  0  0  0  0  0  0  0  0  0
    4.9026   -1.1155    0.0453 H   0  0  0  0  0  0  0  0  0  0  0  0
    5.4686    0.9952    0.0668 C   0  0  0  0  0  0  0  0  0  0  0  0
    6.5490    0.7845    0.0654 H   0  0  0  0  0  0  0  0  0  0  0  0
    5.0130    2.3302    0.0853 C   0  0  0  0  0  0  0  0  0  0  0  0
    5.7307    3.1627    0.0969 H   0  0  0  0  0  0  0  0  0  0  0  0
    3.6429    2.5822    0.0894 C   0  0  0  0  0  0  0  0  0  0  0  0
    3.2683    3.6178    0.1057 H   0  0  0  0  0  0  0  0  0  0  0  0
    2.6954    1.5238    0.0649 C   0  0  0  0  0  0  0  0  0  0  0  0
    1.2941    1.8504    0.0899 C   0  0  0  0  0  3  0  0  0  0  0  0
    0.9977    2.9112    0.2005 H   0  0  0  0  0  0  0  0  0  0  0  0
   -1.8149    0.4786   -0.1292 C   0  0  0  0  0  0  0  0  0  0  0  0
   -3.2792    0.7370   -0.1113 C   0  0  0  0  0  0  0  0  0  0  0  0
   -4.1642   -0.3195   -0.4185 C   0  0  0  0  0  0  0  0  0  0  0  0
   -3.7580   -1.3098   -0.6661 H   0  0  0  0  0  0  0  0  0  0  0  0
   -5.5404   -0.0606   -0.4014 C   0  0  0  0  0  0  0  0  0  0  0  0
   -6.2608   -0.8578   -0.6395 H   0  0  0  0  0  0  0  0  0  0  0  0
   -5.9786    1.2308   -0.0778 C   0  0  0  0  0  0  0  0  0  0  0  0
   -7.0494    1.4822   -0.0521 H   0  0  0  0  0  0  0  0  0  0  0  0
   -5.0101    2.2101    0.2160 C   0  0  0  0  0  0  0  0  0  0  0  0
   -5.3243    3.2372    0.4764 H   0  0  0  0  0  0  0  0  0  0  0  0
    0.3212    0.9748   -0.0108 N   0  0  0  0  0  2  0  0  0  0  0  0
   -0.9579    1.4571    0.0802 N   0  0  0  0  0  0  0  0  0  0  0  0
   -3.6936    1.9806    0.2020 N   0  0  0  0  0  0  0  0  0  0  0  0
    2.3477   -0.8731    0.0684 O   0  5  0  0  0  0  0  0  0  0  0  0
   -1.4405   -0.7688   -0.3480 O   0  5  0  0  0  0  0  0  0  0  0  0
  1  2  2  0  0  0  0
  1 10  1  0  0  0  0
  1 26  1  0  0  0  0
  2  4  1  0  0  0  0
  3  2  1  0  0  0  0
  4  6  2  0  0  0  0
  5  4  1  0  0  0  0
  6  8  1  0  0  0  0
  6  7  1  0  0  0  0
  8  9  1  0  0  0  0
 10  8  2  0  0  0  0
 10 11  1  0  0  0  0
 11 12  1  0  0  0  0
 13 14  1  0  0  0  0
 13 24  2  0  0  0  0
 14 25  1  0  0  0  0
 15 17  1  0  0  0  0
 15 14  2  0  0  0  0
 16 15  1  0  0  0  0
 17 19  2  0  0  0  0
 18 17  1  0  0  0  0
 19 20  1  0  0  0  0
 19 21  1  0  0  0  0
 21 22  1  0  0  0  0
 23 24  1  0  0  0  0
 23 11  1  0  0  0  0
 25 21  2  0  0  0  0
 27 13  1  0  0  0  0
M  CHG  2  26  -1  27  -1
M  END
