26,27,30
q = -2.0, confidence = 0.74

 30 32  0  0  1  0  0  0  0  0999 V2000
   -3.6987    0.1495   -0.0834 C   0  0  0  0  0  0  0  0  0  0  0  0
   -4.5064    1.2926   -0.0899 C   0  0  0  0  0  0  0  0  0  0  0  0
   -4.0584    2.2957   -0.0355 H   0  0  0  0  0  0  0  0  0  0  0  0
   -5.9004    1.1108   -0.1675 C   0  0  0  0  0  0  0  0  0  0  0  0
   -6.5632    1.9894   -0.1743 H   0  0  0  0  0  0  0  0  0  0  0  0
   -6.4624   -0.1793   -0.2366 C   0  0  0  0  0  0  0  0  0  0  0  0
   -7.5560   -0.2888   -0.2961 H   0  0  0  0  0  0  0  0  0  0  0  0
   -5.6432   -1.3264   -0.2300 C   0  0  0  0  0  0  0  0  0  0  0  0
   -6.0630   -2.3423   -0.2830 H   0  0  0  0  0  0  0  0  0  0  0  0
   -4.2628   -1.1481   -0.1522 C   0  0  0  0  0  0  0  0  0  0  0  0
   -3.1622   -2.1840   -0.1259 C   0  0  0  0  0  0  0  0  0  0  0  0
   -1.8986   -1.3870   -0.0371 C   0  0  0  0  0  0  0  0  0  0  0  0
   -2.2313    0.0108   -0.0165 C   0  0  1  0  0  3  0  0  0  0  0  0
    1.5686   -2.1273    0.2226 C   0  0  0  0  0  0  0  0  0  0  0  0
    2.9094   -1.5596    0.0396 C   0  0  0  0  0  0  0  0  0  0  0  0
    3.9761   -2.4974   -0.0134 C   0  0  0  0  0  0  0  0  0  0  0  0
    3.7050   -3.5577    0.0966 H   0  0  0  0  0  0  0  0  0  0  0  0
    5.2943   -2.0993   -0.2019 C   0  0  0  0  0  0  0  0  0  0  0  0
    6.1016   -2.8446   -0.2484 H   0  0  0  0  0  0  0  0  0  0  0  0
    5.5824   -0.7191   -0.3356 C   0  0  0  0  0  0  0  0  0  0  0  0
    6.6216   -0.3864   -0.4869 H   0  0  0  0  0  0  0  0  0  0  0  0
    4.5654    0.2255   -0.2756 C   0  0  0  0  0  0  0  0  0  0  0  0
    4.7676    1.3025   -0.3694 H   0  0  0  0  0  0  0  0  0  0  0  0
    3.2029   -0.1645   -0.0793 C   0  0  0  0  0  0  0  0  0  0  0  0
   -0.6889   -1.9176    0.0347 N   0  0  0  0  0  0  0  0  0  0  0  0
    0.4005   -1.2257    0.0847 N   0  0  0  0  0  2  0  0  0  0  0  0
   -1.4027    0.9669    0.0474 O   0  0  0  0  0  1  0  0  0  0  0  0
   -3.3095   -3.3958   -0.1724 O   0  0  0  0  0  0  0  0  0  0  0  0
    1.3744   -3.3115    0.4570 O   0  0  0  0  0  0  0  0  0  0  0  0
    2.3134    0.7918   -0.0027 O   0  5  0  0  0  0  0  0  0  0  0  0
  1 13  1  0  0  0  0
  2  1  1  0  0  0  0
  2  3  1  0  0  0  0
  4  2  2  0  0  0  0
  5  4  1  0  0  0  0
  6  8  2  0  0  0  0
  6  4  1  0  0  0  0
  7  6  1  0  0  0  0
  8 10  1  0  0  0  0
  9  8  1  0  0  0  0
 10 11  1  0  0  0  0
 10  1  2  0  0  0  0
 11 12  1  0  0  0  0
 12 13  1  0  0  0  0
 12 25  2  0  0  0  0
 13 27  1  6  0  0  0
 14 29  2  0  0  0  0
 15 14  1  0  0  0  0
 16 15  1  0  0  0  0
 16 17  1  0  0  0  0
 18 16  2  0  0  0  0
 19 18  1  0  0  0  0
 20 22  2  0  0  0  0
 20 18  1  0  0  0  0
 21 20  1  0  0  0  0
 22 24  1  0  0  0  0
 23 22  1  0  0  0  0
 24 30  1  0  0  0  0
 24 15  2  0  0  0  0
 25 26  1  0  0  0  0
 26 14  1  0  0  0  0
 28 11  2  0  0  0  0
M  CHG  1  30  -1
M  END
