1,3,5
q = -2.0, confidence = 0.844

 41 43  0  0  1  0  0  0  0  0999 V2000
    2.2017   -0.4572   -1.0542 O   0  5  0  0  0  0  0  0  0  0  0  0
    0.3861   -2.1436    1.6791 O   0  0  0  0  0  0  0  0  0  0  0  0
   -1.1379   -1.3281   -0.7463 O   0  0  0  0  0  1  0  0  0  0  0  0
   -3.2212   -0.4524   -0.2357 O   0  0  0  0  0  0  0  0  0  0  0  0
    0.3269    0.4618    0.6412 N   0  0  0  0  0  2  0  0  0  0  0  0
    3.0872    0.2062   -0.3498 C   0  0  0  0  0  0  0  0  0  0  0  0
    4.4594    0.1572   -0.7147 C   0  0  0  0  0  0  0  0  0  0  0  0
    5.4147    0.8459    0.0313 C   0  0  0  0  0  0  0  0  0  0  0  0
    5.0506    1.5991    1.1718 C   0  0  0  0  0  0  0  0  0  0  0  0
    3.7131    1.6449    1.5536 C   0  0  0  0  0  0  0  0  0  0  0  0
    2.7163    0.9642    0.8073 C   0  0  0  0  0  0  0  0  0  0  0  0
    1.3529    0.9765    1.2567 C   0  0  0  0  0  3  0  0  0  0  0  0
   -0.9707    0.5712    1.3215 C   0  0  1  0  0  0  0  0  0  0  0  0
   -1.9228    1.4566    0.5419 C   0  0  0  0  0  0  0  0  0  0  0  0
   -1.7534    2.8528    0.5278 C   0  0  0  0  0  0  0  0  0  0  0  0
   -2.6300    3.6821   -0.1792 C   0  0  0  0  0  0  0  0  0  0  0  0
   -3.7009    3.1061   -0.8881 C   0  0  0  0  0  0  0  0  0  0  0  0
   -3.8815    1.7205   -0.8966 C   0  0  0  0  0  0  0  0  0  0  0  0
   -2.9874    0.8904   -0.1923 C   0  0  0  0  0  0  0  0  0  0  0  0
   -0.6624   -1.8110    2.2118 C   0  0  0  0  0  0  0  0  0  0  0  0
   -1.0971   -2.3623    3.5540 C   0  0  0  0  0  0  0  0  0  0  0  0
   -1.6170   -0.8134    1.5526 C   0  0  2  0  0  0  0  0  0  0  0  0
   -2.1435   -1.3270    0.1819 C   0  0  2  0  0  0  0  0  0  0  0  0
   -2.7806   -2.7126    0.2567 C   0  0  0  0  0  0  0  0  0  0  0  0
    4.7324   -0.4322   -1.6015 H   0  0  0  0  0  0  0  0  0  0  0  0
    6.4714    0.8006   -0.2752 H   0  0  0  0  0  0  0  0  0  0  0  0
    5.8156    2.1362    1.7504 H   0  0  0  0  0  0  0  0  0  0  0  0
    3.4065    2.2148    2.4457 H   0  0  0  0  0  0  0  0  0  0  0  0
    1.1747    1.4625    2.2412 H   0  0  0  0  0  0  0  0  0  0  0  0
   -0.7947    1.0403    2.3164 H   0  0  0  0  0  0  0  0  0  0  0  0
   -0.9097    3.2901    1.0859 H   0  0  0  0  0  0  0  0  0  0  0  0
   -2.4818    4.7716   -0.1819 H   0  0  0  0  0  0  0  0  0  0  0  0
   -4.3982    3.7464   -1.4493 H   0  0  0  0  0  0  0  0  0  0  0  0
   -4.7005    1.2455   -1.4552 H   0  0  0  0  0  0  0  0  0  0  0  0
   -2.5017   -0.6546    2.2018 H   0  0  0  0  0  0  0  0  0  0  0  0
   -0.3382   -3.0646    3.9434 H   0  0  0  0  0  0  0  0  0  0  0  0
   -2.0747   -2.8794    3.4513 H   0  0  0  0  0  0  0  0  0  0  0  0
   -1.2564   -1.5342    4.2770 H   0  0  0  0  0  0  0  0  0  0  0  0
   -2.0134   -3.4646    0.5191 H   0  0  0  0  0  0  0  0  0  0  0  0
   -3.1933   -2.9584   -0.7395 H   0  0  0  0  0  0  0  0  0  0  0  0
   -3.6007   -2.7320    1.0000 H   0  0  0  0  0  0  0  0  0  0  0  0
  1  6  1  0  0  0  0
  2 20  2  0  0  0  0
  4 19  1  0  0  0  0
  4 23  1  0  0  0  0
  5 12  1  0  0  0  0
  5 13  1  0  0  0  0
  6 11  1  0  0  0  0
  7  6  2  0  0  0  0
  7  8  1  0  0  0  0
  8  9  2  0  0  0  0
  9 10  1  0  0  0  0
  9 27  1  0  0  0  0
 10 28  1  0  0  0  0
 11 12  1  0  0  0  0
 11 10  2  0  0  0  0
 12 29  1  0  0  0  0
 13 22  1  0  0  0  0
 13 30  1  1  0  0  0
 14 13  1  0  0  0  0
 15 14  1  0  0  0  0
 15 31  1  0  0  0  0
 16 15  2  0  0  0  0
 17 16  1  0  0  0  0
 18 17  2  0  0  0  0
 18 19  1  0  0  0  0
 19 14  2  0  0  0  0
 20 21  1  0  0  0  0
 21 36  1  0  0  0  0
 21 38  1  0  0  0  0
 22 35  1  1  0  0  0
 22 20  1  0  0  0  0
 23  3  1  6  0  0  0
 23 24  1  0  0  0  0
 23 22  1  0  0  0  0
 24 39  1  0  0  0  0
 24 41  1  0  0  0  0
 25  7  1  0  0  0  0
 26  8  1  0  0  0  0
 32 16  1  0  0  0  0
 33 17  1  0  0  0  0
 34 18  1  0  0  0  0
 37 21  1  0  0  0  0
 40 24  1  0  0  0  0
M  CHG  1   1  -1
M  END
