1,2,4
q = -2.0, confidence = 0.878

 35 36  0  0  0  0  0  0  0  0999 V2000
   -1.7583    2.0828   -0.0174 O   0  5  0  0  0  0  0  0  0  0  0  0
    1.2027   -0.1392   -0.0522 O   0  5  0  0  0  0  0  0  0  0  0  0
    1.1473   -4.3372    0.1573 O   0  0  0  0  0  0  0  0  0  0  0  0
   -1.4650   -0.4526    0.0143 N   0  0  0  0  0  2  0  0  0  0  0  0
   -1.2308   -1.7103    0.0610 N   0  0  0  0  0  2  0  0  0  0  0  0
    2.4049   -2.0843   -0.0579 N   0  0  0  0  0  0  0  0  0  0  0  0
   -6.6528   -1.1988   -0.0891 Cl  0  0  0  0  0  0  0  0  0  0  0  0
   -2.8104   -0.0182   -0.0203 C   0  0  0  0  0  0  0  0  0  0  0  0
   -2.8939    1.4008   -0.0327 C   0  0  0  0  0  0  0  0  0  0  0  0
   -4.1776    1.9964   -0.0623 C   0  0  0  0  0  0  0  0  0  0  0  0
   -5.3199    1.1896   -0.0805 C   0  0  0  0  0  0  0  0  0  0  0  0
   -5.2021   -0.2183   -0.0675 C   0  0  0  0  0  0  0  0  0  0  0  0
   -3.9492   -0.8403   -0.0373 C   0  0  0  0  0  0  0  0  0  0  0  0
    1.2197   -1.4234   -0.0223 C   0  0  0  0  0  0  0  0  0  0  0  0
    0.0100   -2.2384    0.0599 C   0  0  0  0  0  0  0  0  0  0  0  0
    0.0682   -3.7058    0.1455 C   0  0  0  0  0  0  0  0  0  0  0  0
   -1.2408   -4.4622    0.2247 C   0  0  0  0  0  0  0  0  0  0  0  0
    3.7081   -1.5808   -0.1593 C   0  0  0  0  0  0  0  0  0  0  0  0
    4.7639   -2.4457    0.2159 C   0  0  0  0  0  0  0  0  0  0  0  0
    6.0944   -2.0234    0.1260 C   0  0  0  0  0  0  0  0  0  0  0  0
    6.4025   -0.7330   -0.3365 C   0  0  0  0  0  0  0  0  0  0  0  0
    5.3581    0.1224   -0.7208 C   0  0  0  0  0  0  0  0  0  0  0  0
    4.0200   -0.2873   -0.6408 C   0  0  0  0  0  0  0  0  0  0  0  0
    5.5842    1.1309   -1.1011 H   0  0  0  0  0  0  0  0  0  0  0  0
   -6.3212    1.6422   -0.1050 H   0  0  0  0  0  0  0  0  0  0  0  0
    4.5239   -3.4549    0.5846 H   0  0  0  0  0  0  0  0  0  0  0  0
    3.2123    0.3787   -0.9627 H   0  0  0  0  0  0  0  0  0  0  0  0
   -3.8465   -1.9324   -0.0265 H   0  0  0  0  0  0  0  0  0  0  0  0
   -4.2577    3.0928   -0.0705 H   0  0  0  0  0  0  0  0  0  0  0  0
    6.9000   -2.7112    0.4246 H   0  0  0  0  0  0  0  0  0  0  0  0
    2.2519   -3.1258    0.0386 H   0  0  0  0  0  0  0  0  0  0  0  0
    7.4490   -0.4007   -0.4028 H   0  0  0  0  0  0  0  0  0  0  0  0
   -1.0185   -5.5421    0.2894 H   0  0  0  0  0  0  0  0  0  0  0  0
   -1.8322   -4.1395    1.1040 H   0  0  0  0  0  0  0  0  0  0  0  0
   -1.8693   -4.2545   -0.6638 H   0  0  0  0  0  0  0  0  0  0  0  0
  2 14  1  0  0  0  0
  4  5  1  0  0  0  0
  6 14  1  0  0  0  0
  6 31  1  0  0  0  0
  7 12  1  0  0  0  0
  8  4  1  0  0  0  0
  9  8  1  0  0  0  0
  9  1  1  0  0  0  0
 10  9  2  0  0  0  0
 11 12  2  0  0  0  0
 11 10  1  0  0  0  0
 12 13  1  0  0  0  0
 13 28  1  0  0  0  0
 13  8  2  0  0  0  0
 14 15  2  0  0  0  0
 15  5  1  0  0  0  0
 15 16  1  0  0  0  0
 16  3  2  0  0  0  0
 16 17  1  0  0  0  0
 17 33  1  0  0  0  0
 17 34  1  0  0  0  0
 18  6  1  0  0  0  0
 18 19  1  0  0  0  0
 19 26  1  0  0  0  0
 20 19  2  0  0  0  0
 20 30  1  0  0  0  0
 21 20  1  0  0  0  0
 22 23  1  0  0  0  0
 22 21  2  0  0  0  0
 23 18  2  0  0  0  0
 24 22  1  0  0  0  0
 25 11  1  0  0  0  0
 27 23  1  0  0  0  0
 29 10  1  0  0  0  0
 32 21  1  0  0  0  0
 35 17  1  0  0  0  0
M  CHG  2   1  -1   2  -1
M  END
