1,2,4
q = -2.0, confidence = 0.834

 32 33  0  0  0  0  0  0  0  0999 V2000
    2.3291    0.2928    0.9172 O   0  5  0  0  0  0  0  0  0  0  0  0
   -0.5822   -1.2692   -0.9442 O   0  5  0  0  0  0  0  0  0  0  0  0
   -3.2730   -1.1977   -1.9680 O   0  0  0  0  0  0  0  0  0  0  0  0
    0.7380    0.8484   -1.3294 N   0  0  0  0  0  2  0  0  0  0  0  0
   -0.3109    0.6673   -2.1897 N   0  0  0  0  0  0  0  0  0  0  0  0
    2.9856    1.3517    0.5293 C   0  0  0  0  0  0  0  0  0  0  0  0
    2.6454    2.1736   -0.6131 C   0  0  0  0  0  0  0  0  0  0  0  0
    3.4372    3.3197   -0.9078 C   0  0  0  0  0  0  0  0  0  0  0  0
    3.1569    3.9297   -1.7818 H   0  0  0  0  0  0  0  0  0  0  0  0
    4.5349    3.6753   -0.1332 C   0  0  0  0  0  0  0  0  0  0  0  0
    5.1319    4.5642   -0.3829 H   0  0  0  0  0  0  0  0  0  0  0  0
    4.8718    2.8707    0.9819 C   0  0  0  0  0  0  0  0  0  0  0  0
    5.7399    3.1361    1.6061 H   0  0  0  0  0  0  0  0  0  0  0  0
    4.1228    1.7441    1.3030 C   0  0  0  0  0  0  0  0  0  0  0  0
    4.3756    1.1122    2.1668 H   0  0  0  0  0  0  0  0  0  0  0  0
    1.5305    1.8821   -1.4653 C   0  0  0  0  0  3  0  0  0  0  0  0
    1.3011    2.5639   -2.3048 H   0  0  0  0  0  0  0  0  0  0  0  0
   -0.9270   -0.4660   -1.9050 C   0  0  0  0  0  0  0  0  0  0  0  0
   -2.1308   -0.8426   -2.7443 C   0  0  0  0  0  0  0  0  0  0  0  0
   -2.3553   -0.0130   -3.4481 H   0  0  0  0  0  0  0  0  0  0  0  0
   -1.8970   -1.7563   -3.3264 H   0  0  0  0  0  0  0  0  0  0  0  0
   -3.9223   -0.2318   -1.2624 C   0  0  0  0  0  0  0  0  0  0  0  0
   -5.1060   -0.6472   -0.6101 C   0  0  0  0  0  0  0  0  0  0  0  0
   -5.4110   -1.6990   -0.7111 H   0  0  0  0  0  0  0  0  0  0  0  0
   -5.8687    0.2711    0.1185 C   0  0  0  0  0  0  0  0  0  0  0  0
   -6.7964   -0.0653    0.6072 H   0  0  0  0  0  0  0  0  0  0  0  0
   -5.4618    1.6147    0.2236 C   0  0  0  0  0  0  0  0  0  0  0  0
   -6.0659    2.3379    0.7913 H   0  0  0  0  0  0  0  0  0  0  0  0
   -4.2801    2.0192   -0.4153 C   0  0  0  0  0  0  0  0  0  0  0  0
   -3.9478    3.0670   -0.3468 H   0  0  0  0  0  0  0  0  0  0  0  0
   -3.5054    1.1138   -1.1608 C   0  0  0  0  0  0  0  0  0  0  0  0
   -2.5781    1.4560   -1.6412 H   0  0  0  0  0  0  0  0  0  0  0  0
  3 22  1  0  0  0  0
  5 18  2  0  0  0  0
  5  4  1  0  0  0  0
  6  1  1  0  0  0  0
  6 14  1  0  0  0  0
  7  6  2  0  0  0  0
  8  7  1  0  0  0  0
  8 10  2  0  0  0  0
  9  8  1  0  0  0  0
 10 12  1  0  0  0  0
 11 10  1  0  0  0  0
 12 14  2  0  0  0  0
 12 13  1  0  0  0  0
 14 15  1  0  0  0  0
 16  4  1  0  0  0  0
 16  7  1  0  0  0  0
 17 16  1  0  0  0  0
 18  2  1  0  0  0  0
 19  3  1  0  0  0  0
 19 18  1  0  0  0  0
 20 19  1  0  0  0  0
 21 19  1  0  0  0  0
 22 31  2  0  0  0  0
 22 23  1  0  0  0  0
 23 25  2  0  0  0  0
 24 23  1  0  0  0  0
 25 27  1  0  0  0  0
 25 26  1  0  0  0  0
 27 28  1  0  0  0  0
 29 30  1  0  0  0  0
 29 27  2  0  0  0  0
 31 29  1  0  0  0  0
 32 31  1  0  0  0  0
M  CHG  2   1  -1   2  -1
M  END
