1,2,3
q = -2.0, confidence = 0.86

 17 17  0  0  1  0  0  0  0  0999 V2000
   -0.4553    1.8777    0.0765 O   0  0  0  0  0  1  0  0  0  0  0  0
   -0.4552   -1.8776    0.0771 O   0  0  0  0  0  1  0  0  0  0  0  0
   -2.0879    0.0000   -0.1142 N   0  0  0  0  0  2  0  0  0  0  0  0
   -1.7708    2.3489   -0.0674 C   0  0  0  0  0  0  0  0  0  0  0  0
   -1.8600    2.9428   -1.0083 H   0  0  0  0  0  0  0  0  0  0  0  0
   -2.0352    3.0409    0.7657 H   0  0  0  0  0  0  0  0  0  0  0  0
   -2.7336    1.1840   -0.1057 C   0  0  2  0  0  3  0  0  0  0  0  0
   -4.1329    1.2195   -0.1185 C   0  0  0  0  0  0  0  0  0  0  0  0
   -4.6675    2.1800   -0.1118 H   0  0  0  0  0  0  0  0  0  0  0  0
   -4.8307   -0.0000   -0.1321 C   0  0  0  0  0  0  0  0  0  0  0  0
   -5.9310   -0.0000   -0.1415 H   0  0  0  0  0  0  0  0  0  0  0  0
   -4.1329   -1.2195   -0.1183 C   0  0  0  0  0  0  0  0  0  0  0  0
   -4.6674   -2.1800   -0.1114 H   0  0  0  0  0  0  0  0  0  0  0  0
   -2.7336   -1.1840   -0.1055 C   0  0  0  0  0  0  0  0  0  0  0  0
   -1.7707   -2.3489   -0.0670 C   0  0  0  0  0  0  0  0  0  0  0  0
   -2.0353   -3.0409    0.7659 H   0  0  0  0  0  0  0  0  0  0  0  0
   -1.8597   -2.9427   -1.0080 H   0  0  0  0  0  0  0  0  0  0  0  0
  3  7  1  0  0  0  0
  3 14  1  0  0  0  0
  4  1  1  0  0  0  0
  4  6  1  0  0  0  0
  5  4  1  0  0  0  0
  7  4  1  1  0  0  0
  8  9  1  0  0  0  0
  8  7  1  0  0  0  0
 10  8  2  0  0  0  0
 10 12  1  0  0  0  0
 11 10  1  0  0  0  0
 12 13  1  0  0  0  0
 12 14  2  0  0  0  0
 14 15  1  0  0  0  0
 15  2  1  0  0  0  0
 15 16  1  0  0  0  0
 17 15  1  0  0  0  0
M  END
