1,2,7
q = -2.0, confidence = 0.962

 68 69  0  0  1  0  0  0  0  0999 V2000
   -1.4962    1.2779   -0.3626 O   0  5  0  0  0  0  0  0  0  0  0  0
    1.8659    0.9812    0.2014 O   0  0  0  0  0  1  0  0  0  0  0  0
    3.6961   -1.8452   -1.1845 O   0  0  0  0  0  0  0  0  0  0  0  0
    4.5129   -2.5760    0.8967 O   0  0  0  0  0  0  0  0  0  0  0  0
    6.3252   -0.5039    1.0474 O   0  0  0  0  0  0  0  0  0  0  0  0
    4.6985    1.7273    0.6456 O   0  0  0  0  0  0  0  0  0  0  0  0
    0.2172   -0.6442   -1.0918 N   0  0  0  0  0  2  0  0  0  0  0  0
   -2.4156    0.3505   -0.2031 C   0  0  0  0  0  0  0  0  0  0  0  0
   -3.7364    0.7145    0.2259 C   0  0  0  0  0  0  0  0  0  0  0  0
   -4.6683   -0.3185    0.3759 C   0  0  0  0  0  0  0  0  0  0  0  0
   -5.6791   -0.0496    0.7107 H   0  0  0  0  0  0  0  0  0  0  0  0
   -4.4027   -1.6918    0.1254 C   0  0  0  0  0  0  0  0  0  0  0  0
   -3.1173   -2.0182   -0.2997 C   0  0  0  0  0  0  0  0  0  0  0  0
   -2.8403   -3.0595   -0.5198 H   0  0  0  0  0  0  0  0  0  0  0  0
   -2.1202   -1.0225   -0.4635 C   0  0  0  0  0  0  0  0  0  0  0  0
   -0.8169   -1.4175   -0.9323 C   0  0  0  0  0  3  0  0  0  0  0  0
   -0.7077   -2.4947   -1.1922 H   0  0  0  0  0  0  0  0  0  0  0  0
    4.8054   -1.9043   -0.2953 C   0  0  2  0  0  0  0  0  0  0  0  0
    5.5760   -2.4621   -0.8786 H   0  0  0  0  0  0  0  0  0  0  0  0
    5.3154   -0.4869    0.0676 C   0  0  1  0  0  0  0  0  0  0  0  0
    5.6946   -0.0330   -0.8825 H   0  0  0  0  0  0  0  0  0  0  0  0
    4.1877    0.4151    0.5858 C   0  0  2  0  0  0  0  0  0  0  0  0
    3.8888    0.0529    1.5989 H   0  0  0  0  0  0  0  0  0  0  0  0
    2.9711    0.3192   -0.3523 C   0  0  1  0  0  0  0  0  0  0  0  0
    3.2579    0.7965   -1.3209 H   0  0  0  0  0  0  0  0  0  0  0  0
    2.5907   -1.1396   -0.6253 C   0  0  1  0  0  0  0  0  0  0  0  0
    2.2815   -1.6045    0.3391 H   0  0  0  0  0  0  0  0  0  0  0  0
    1.4344   -1.2406   -1.6232 C   0  0  0  0  0  0  0  0  0  0  0  0
    1.7200   -0.7010   -2.5524 H   0  0  0  0  0  0  0  0  0  0  0  0
    1.2828   -2.3130   -1.8801 H   0  0  0  0  0  0  0  0  0  0  0  0
    4.2622   -3.9597    0.7241 C   0  0  0  0  0  0  0  0  0  0  0  0
    4.0779   -4.3886    1.7271 H   0  0  0  0  0  0  0  0  0  0  0  0
    5.1385   -4.4763    0.2654 H   0  0  0  0  0  0  0  0  0  0  0  0
    3.3758   -4.1461    0.0776 H   0  0  0  0  0  0  0  0  0  0  0  0
    7.5534   -1.0402    0.6197 C   0  0  0  0  0  0  0  0  0  0  0  0
    8.2970   -0.8353    1.4147 H   0  0  0  0  0  0  0  0  0  0  0  0
    7.9102   -0.5674   -0.3280 H   0  0  0  0  0  0  0  0  0  0  0  0
    7.5168   -2.1452    0.4623 H   0  0  0  0  0  0  0  0  0  0  0  0
    4.0305    2.5954    1.5423 C   0  0  0  0  0  0  0  0  0  0  0  0
    4.6337    3.5230    1.5998 H   0  0  0  0  0  0  0  0  0  0  0  0
    3.9636    2.1522    2.5644 H   0  0  0  0  0  0  0  0  0  0  0  0
    2.9997    2.8487    1.2076 H   0  0  0  0  0  0  0  0  0  0  0  0
   -4.0908    2.1868    0.5038 C   0  0  0  0  0  0  0  0  0  0  0  0
   -5.5449    2.3429    0.9842 C   0  0  0  0  0  0  0  0  0  0  0  0
   -6.2759    1.9871    0.2297 H   0  0  0  0  0  0  0  0  0  0  0  0
   -5.7569    3.4149    1.1699 H   0  0  0  0  0  0  0  0  0  0  0  0
   -5.7310    1.7987    1.9326 H   0  0  0  0  0  0  0  0  0  0  0  0
   -3.9292    3.0066   -0.7988 C   0  0  0  0  0  0  0  0  0  0  0  0
   -4.6246    2.6417   -1.5819 H   0  0  0  0  0  0  0  0  0  0  0  0
   -2.8981    2.9388   -1.1909 H   0  0  0  0  0  0  0  0  0  0  0  0
   -4.1615    4.0750   -0.6066 H   0  0  0  0  0  0  0  0  0  0  0  0
   -3.1636    2.7548    1.6058 C   0  0  0  0  0  0  0  0  0  0  0  0
   -2.1012    2.7367    1.3002 H   0  0  0  0  0  0  0  0  0  0  0  0
   -3.2689    2.1730    2.5443 H   0  0  0  0  0  0  0  0  0  0  0  0
   -3.4433    3.8062    1.8260 H   0  0  0  0  0  0  0  0  0  0  0  0
   -5.5190   -2.7298    0.3267 C   0  0  0  0  0  0  0  0  0  0  0  0
   -6.7068   -2.3897   -0.6022 C   0  0  0  0  0  0  0  0  0  0  0  0
   -7.1183   -1.3823   -0.3926 H   0  0  0  0  0  0  0  0  0  0  0  0
   -7.5288   -3.1228   -0.4667 H   0  0  0  0  0  0  0  0  0  0  0  0
   -6.3957   -2.4117   -1.6662 H   0  0  0  0  0  0  0  0  0  0  0  0
   -5.0418   -4.1556    0.0027 C   0  0  0  0  0  0  0  0  0  0  0  0
   -4.2019   -4.4671    0.6563 H   0  0  0  0  0  0  0  0  0  0  0  0
   -4.7136   -4.2502   -1.0522 H   0  0  0  0  0  0  0  0  0  0  0  0
   -5.8702   -4.8754    0.1593 H   0  0  0  0  0  0  0  0  0  0  0  0
   -5.9891   -2.6948    1.7988 C   0  0  0  0  0  0  0  0  0  0  0  0
   -6.3764   -1.6963    2.0837 H   0  0  0  0  0  0  0  0  0  0  0  0
   -5.1550   -2.9412    2.4865 H   0  0  0  0  0  0  0  0  0  0  0  0
   -6.8033   -3.4304    1.9648 H   0  0  0  0  0  0  0  0  0  0  0  0
  1  8  1  0  0  0  0
  3 26  1  0  0  0  0
  3 18  1  0  0  0  0
  6 39  1  0  0  0  0
  7 16  1  0  0  0  0
  8  9  1  0  0  0  0
  9 10  2  0  0  0  0
  9 43  1  0  0  0  0
 10 11  1  0  0  0  0
 12 56  1  0  0  0  0
 12 10  1  0  0  0  0
 13 12  2  0  0  0  0
 14 13  1  0  0  0  0
 15 13  1  0  0  0  0
 15  8  2  0  0  0  0
 16 15  1  0  0  0  0
 17 16  1  0  0  0  0
 18 19  1  6  0  0  0
 18 20  1  0  0  0  0
 18  4  1  0  0  0  0
 20 21  1  6  0  0  0
 20 22  1  0  0  0  0
 20  5  1  0  0  0  0
 22  6  1  0  0  0  0
 22 23  1  1  0  0  0
 24 25  1  6  0  0  0
 24  2  1  0  0  0  0
 24 22  1  0  0  0  0
 26 24  1  0  0  0  0
 26 27  1  1  0  0  0
 28  7  1  0  0  0  0
 28 26  1  0  0  0  0
 29 28  1  0  0  0  0
 30 28  1  0  0  0  0
 31  4  1  0  0  0  0
 31 32  1  0  0  0  0
 33 31  1  0  0  0  0
 34 31  1  0  0  0  0
 35  5  1  0  0  0  0
 35 36  1  0  0  0  0
 37 35  1  0  0  0  0
 38 35  1  0  0  0  0
 39 40  1  0  0  0  0
 39 41  1  0  0  0  0
 42 39  1  0  0  0  0
 43 44  1  0  0  0  0
 43 52  1  0  0  0  0
 44 46  1  0  0  0  0
 44 47  1  0  0  0  0
 45 44  1  0  0  0  0
 48 51  1  0  0  0  0
 48 43  1  0  0  0  0
 49 48  1  0  0  0  0
 50 48  1  0  0  0  0
 52 55  1  0  0  0  0
 52 54  1  0  0  0  0
 53 52  1  0  0  0  0
 56 65  1  0  0  0  0
 57 59  1  0  0  0  0
 57 58  1  0  0  0  0
 57 56  1  0  0  0  0
 60 57  1  0  0  0  0
 61 64  1  0  0  0  0
 61 56  1  0  0  0  0
 61 62  1  0  0  0  0
 63 61  1  0  0  0  0
 65 68  1  0  0  0  0
 65 66  1  0  0  0  0
 65 67  1  0  0  0  0
M  CHG  1   1  -1
M  END
