1,3,6
q = -2.0, confidence = 0.938

 35 37  0  0  1  0  0  0  0  0999 V2000
   -0.1060   -0.7816   -0.0080 N   0  0  0  0  0  2  0  0  0  0  0  0
    0.9419   -1.6644   -0.0208 N   0  0  0  0  0  0  0  0  0  0  0  0
    2.1167    0.3031   -0.0314 O   0  5  0  0  0  0  0  0  0  0  0  0
    2.1962   -3.9063    0.0363 O   0  0  0  0  0  0  0  0  0  0  0  0
    1.4336   -3.2329    0.0220 H   0  0  0  0  0  0  0  0  0  0  0  0
   -1.3157    1.6311    0.0254 O   0  5  0  0  0  0  0  0  0  0  0  0
    2.0990   -1.0070   -0.0330 C   0  0  0  0  0  0  0  0  0  0  0  0
    3.3514   -1.7670   -0.0464 C   0  0  0  0  0  0  0  0  0  0  0  0
    3.3309   -3.2004   -0.0056 C   0  0  0  0  0  0  0  0  0  0  0  0
    4.5634   -3.8951   -0.0090 C   0  0  0  0  0  0  0  0  0  0  0  0
    4.5297   -4.9936    0.0255 H   0  0  0  0  0  0  0  0  0  0  0  0
    5.7741   -3.2015   -0.0573 C   0  0  0  0  0  0  0  0  0  0  0  0
    6.7190   -3.7668   -0.0604 H   0  0  0  0  0  0  0  0  0  0  0  0
    5.7978   -1.7919   -0.1049 C   0  0  0  0  0  0  0  0  0  0  0  0
    6.7550   -1.2522   -0.1481 H   0  0  0  0  0  0  0  0  0  0  0  0
    4.5916   -1.0905   -0.0993 C   0  0  0  0  0  0  0  0  0  0  0  0
    4.5729    0.0081   -0.1426 H   0  0  0  0  0  0  0  0  0  0  0  0
   -1.3373   -1.2632   -0.0076 C   0  0  0  0  0  0  0  0  0  0  0  0
   -1.4004   -2.3628   -0.0201 H   0  0  0  0  0  0  0  0  0  0  0  0
   -2.5251   -0.4776    0.0119 C   0  0  0  0  0  0  0  0  0  0  0  0
   -2.4375    0.9523    0.0292 C   0  0  0  0  0  0  0  0  0  0  0  0
   -3.6479    1.7262    0.0535 C   0  0  0  0  0  0  0  0  0  0  0  0
   -3.5396    2.8203    0.0749 H   0  0  0  0  0  0  0  0  0  0  0  0
   -4.8831    1.1226    0.0563 C   0  0  0  0  0  0  0  0  0  0  0  0
   -5.7970    1.7371    0.0756 H   0  0  0  0  0  0  0  0  0  0  0  0
   -5.0195   -0.3030    0.0363 C   0  0  0  0  0  0  0  0  0  0  0  0
   -3.8341   -1.1190    0.0145 C   0  0  1  0  0  3  0  0  0  0  0  0
   -4.0138   -2.5306   -0.0044 C   0  0  0  0  0  0  0  0  0  0  0  0
   -3.1415   -3.1985   -0.0221 H   0  0  0  0  0  0  0  0  0  0  0  0
   -5.2816   -3.1050   -0.0016 C   0  0  0  0  0  0  0  0  0  0  0  0
   -5.3779   -4.2013   -0.0166 H   0  0  0  0  0  0  0  0  0  0  0  0
   -6.4416   -2.2958    0.0203 C   0  0  0  0  0  0  0  0  0  0  0  0
   -7.4401   -2.7576    0.0225 H   0  0  0  0  0  0  0  0  0  0  0  0
   -6.3030   -0.9139    0.0388 C   0  0  0  0  0  0  0  0  0  0  0  0
   -7.1915   -0.2632    0.0561 H   0  0  0  0  0  0  0  0  0  0  0  0
  1 18  1  0  0  0  0
  2  1  1  0  0  0  0
  5  4  1  0  0  0  0
  6 21  1  0  0  0  0
  7  3  1  0  0  0  0
  7  2  2  0  0  0  0
  8  7  1  0  0  0  0
  8  9  1  0  0  0  0
  9  4  1  0  0  0  0
 10  9  2  0  0  0  0
 10 11  1  0  0  0  0
 12 10  1  0  0  0  0
 13 12  1  0  0  0  0
 14 16  1  0  0  0  0
 14 12  2  0  0  0  0
 15 14  1  0  0  0  0
 16  8  2  0  0  0  0
 17 16  1  0  0  0  0
 18 20  2  0  0  0  0
 19 18  1  0  0  0  0
 20 27  1  0  0  0  0
 20 21  1  0  0  0  0
 21 22  2  0  0  0  0
 22 24  1  0  0  0  0
 22 23  1  0  0  0  0
 24 25  1  0  0  0  0
 26 34  1  0  0  0  0
 26 24  2  0  0  0  0
 27 28  1  6  0  0  0
 27 26  1  0  0  0  0
 28 30  2  0  0  0  0
 29 28  1  0  0  0  0
 30 32  1  0  0  0  0
 31 30  1  0  0  0  0
 32 33  1  0  0  0  0
 32 34  2  0  0  0  0
 34 35  1  0  0  0  0
M  CHG  2   3  -1   6  -1
M  END
