1,2,3
q = -2.0, confidence = 0.964

 59 59  0  0  1  0  0  0  0  0999 V2000
   -1.5581   -0.5394    0.6366 O   0  0  0  0  0  1  0  0  0  0  0  0
    1.3959   -0.7420    0.5914 O   0  0  0  0  0  1  0  0  0  0  0  0
   -0.0123    0.9205   -1.0302 N   0  0  0  0  0  2  0  0  0  0  0  0
   -1.1530    1.6293   -1.2197 C   0  0  1  0  0  3  0  0  0  0  0  0
   -1.1085    2.9798   -1.6113 C   0  0  0  0  0  0  0  0  0  0  0  0
    0.1305    3.6029   -1.7883 C   0  0  0  0  0  0  0  0  0  0  0  0
    1.2967    2.8579   -1.5827 C   0  0  0  0  0  0  0  0  0  0  0  0
    1.1980    1.5037   -1.2142 C   0  0  0  0  0  0  0  0  0  0  0  0
   -2.4540    0.8992   -1.0450 C   0  0  0  0  0  0  0  0  0  0  0  0
   -2.6759    0.2804    0.3661 C   0  0  0  0  0  0  0  0  0  0  0  0
   -2.7833    1.3619    1.4976 C   0  0  0  0  0  0  0  0  0  0  0  0
   -3.7763    2.4843    1.1691 C   0  0  0  0  0  0  0  0  0  0  0  0
   -1.4312    1.9418    1.9374 C   0  0  0  0  0  0  0  0  0  0  0  0
   -3.9415   -0.6545    0.3695 C   0  0  0  0  0  0  0  0  0  0  0  0
   -4.0467   -1.5483   -0.8750 C   0  0  0  0  0  0  0  0  0  0  0  0
   -3.9655   -1.5461    1.6215 C   0  0  0  0  0  0  0  0  0  0  0  0
    2.4262    0.6534   -1.0437 C   0  0  0  0  0  0  0  0  0  0  0  0
    2.5707    0.0203    0.3689 C   0  0  0  0  0  0  0  0  0  0  0  0
    3.7922   -0.9668    0.4113 C   0  0  0  0  0  0  0  0  0  0  0  0
    3.4404   -2.3411   -0.1771 C   0  0  0  0  0  0  0  0  0  0  0  0
    5.0645   -0.4278   -0.2625 C   0  0  0  0  0  0  0  0  0  0  0  0
    2.5688    1.1129    1.4914 C   0  0  0  0  0  0  0  0  0  0  0  0
    2.4668    0.4989    2.8931 C   0  0  0  0  0  0  0  0  0  0  0  0
    3.7049    2.1405    1.4312 C   0  0  0  0  0  0  0  0  0  0  0  0
   -2.0487    3.5262   -1.7724 H   0  0  0  0  0  0  0  0  0  0  0  0
    0.1878    4.6598   -2.0895 H   0  0  0  0  0  0  0  0  0  0  0  0
    2.2901    3.3078   -1.7210 H   0  0  0  0  0  0  0  0  0  0  0  0
   -2.4374    0.0578   -1.7676 H   0  0  0  0  0  0  0  0  0  0  0  0
   -3.3008    1.5555   -1.3188 H   0  0  0  0  0  0  0  0  0  0  0  0
   -3.1824    0.8131    2.3754 H   0  0  0  0  0  0  0  0  0  0  0  0
   -3.3811    3.1650    0.3869 H   0  0  0  0  0  0  0  0  0  0  0  0
   -3.9643    3.1043    2.0688 H   0  0  0  0  0  0  0  0  0  0  0  0
   -4.7574    2.1009    0.8235 H   0  0  0  0  0  0  0  0  0  0  0  0
   -1.5638    2.5403    2.8615 H   0  0  0  0  0  0  0  0  0  0  0  0
   -0.9922    2.6151    1.1743 H   0  0  0  0  0  0  0  0  0  0  0  0
   -0.7011    1.1386    2.1487 H   0  0  0  0  0  0  0  0  0  0  0  0
   -4.8280    0.0176    0.3895 H   0  0  0  0  0  0  0  0  0  0  0  0
   -4.8801   -2.2681   -0.7515 H   0  0  0  0  0  0  0  0  0  0  0  0
   -3.1210   -2.1448   -1.0181 H   0  0  0  0  0  0  0  0  0  0  0  0
   -4.2435   -0.9832   -1.8068 H   0  0  0  0  0  0  0  0  0  0  0  0
   -3.1093   -2.2498    1.6052 H   0  0  0  0  0  0  0  0  0  0  0  0
   -4.9015   -2.1388    1.6464 H   0  0  0  0  0  0  0  0  0  0  0  0
   -3.9143   -0.9718    2.5668 H   0  0  0  0  0  0  0  0  0  0  0  0
    3.3185    1.2533   -1.2952 H   0  0  0  0  0  0  0  0  0  0  0  0
    2.3689   -0.1828   -1.7740 H   0  0  0  0  0  0  0  0  0  0  0  0
    4.0137   -1.1185    1.4892 H   0  0  0  0  0  0  0  0  0  0  0  0
    4.3315   -3.0004   -0.1508 H   0  0  0  0  0  0  0  0  0  0  0  0
    3.1208   -2.2648   -1.2383 H   0  0  0  0  0  0  0  0  0  0  0  0
    2.6231   -2.8384    0.3769 H   0  0  0  0  0  0  0  0  0  0  0  0
    4.9595   -0.4086   -1.3668 H   0  0  0  0  0  0  0  0  0  0  0  0
    5.9182   -1.0975   -0.0354 H   0  0  0  0  0  0  0  0  0  0  0  0
    5.3454    0.5884    0.0704 H   0  0  0  0  0  0  0  0  0  0  0  0
    1.6178    1.6629    1.3149 H   0  0  0  0  0  0  0  0  0  0  0  0
    3.4153    0.0109    3.2000 H   0  0  0  0  0  0  0  0  0  0  0  0
    1.6607   -0.2576    2.9395 H   0  0  0  0  0  0  0  0  0  0  0  0
    2.2485    1.2872    3.6414 H   0  0  0  0  0  0  0  0  0  0  0  0
    4.6793    1.6976    1.7201 H   0  0  0  0  0  0  0  0  0  0  0  0
    3.5012    2.9627    2.1470 H   0  0  0  0  0  0  0  0  0  0  0  0
    3.8215    2.6013    0.4300 H   0  0  0  0  0  0  0  0  0  0  0  0
  4  9  1  6  0  0  0
  4  3  1  0  0  0  0
  5  4  1  0  0  0  0
  6  5  2  0  0  0  0
  6  7  1  0  0  0  0
  7  8  2  0  0  0  0
  8 17  1  0  0  0  0
  8  3  1  0  0  0  0
  9 10  1  0  0  0  0
 10 14  1  0  0  0  0
 10  1  1  0  0  0  0
 10 11  1  0  0  0  0
 11 13  1  0  0  0  0
 11 30  1  0  0  0  0
 12 11  1  0  0  0  0
 12 32  1  0  0  0  0
 13 36  1  0  0  0  0
 13 34  1  0  0  0  0
 14 37  1  0  0  0  0
 14 16  1  0  0  0  0
 15 38  1  0  0  0  0
 15 14  1  0  0  0  0
 16 42  1  0  0  0  0
 16 43  1  0  0  0  0
 17 18  1  0  0  0  0
 18 19  1  0  0  0  0
 18  2  1  0  0  0  0
 18 22  1  0  0  0  0
 19 46  1  0  0  0  0
 20 47  1  0  0  0  0
 20 49  1  0  0  0  0
 20 19  1  0  0  0  0
 21 51  1  0  0  0  0
 21 52  1  0  0  0  0
 21 19  1  0  0  0  0
 22 23  1  0  0  0  0
 23 55  1  0  0  0  0
 23 54  1  0  0  0  0
 23 56  1  0  0  0  0
 24 22  1  0  0  0  0
 24 57  1  0  0  0  0
 24 58  1  0  0  0  0
 25  5  1  0  0  0  0
 26  6  1  0  0  0  0
 27  7  1  0  0  0  0
 28  9  1  0  0  0  0
 29  9  1  0  0  0  0
 31 12  1  0  0  0  0
 33 12  1  0  0  0  0
 35 13  1  0  0  0  0
 39 15  1  0  0  0  0
 40 15  1  0  0  0  0
 41 16  1  0  0  0  0
 44 17  1  0  0  0  0
 45 17  1  0  0  0  0
 48 20  1  0  0  0  0
 50 21  1  0  0  0  0
 53 22  1  0  0  0  0
 59 24  1  0  0  0  0
M  END
