3,7,12
q = -1.0, confidence = 0.034

 36 37  0  0  1  0  0  0  0  0999 V2000
    2.2224    3.2590    0.0438 C   0  0  0  0  0  0  0  0  0  0  0  0
   -4.3829    1.6737   -3.3868 O   0  0  0  0  0  0  0  0  0  0  0  0
    1.4809    0.9836    0.0506 O   0  0  0  0  0  1  0  0  0  0  0  0
   -5.0417   -0.2276   -2.4678 O   0  0  0  0  0  0  0  0  0  0  0  0
    1.3420    2.1731   -0.3743 C   0  0  1  0  0  3  0  0  0  0  0  0
    0.2867    2.4140   -1.1991 N   0  0  0  0  0  0  0  0  0  0  0  0
   -1.4742   -1.0888   -0.7062 O   0  5  0  0  0  0  0  0  0  0  0  0
    2.6565    3.3076    1.4163 C   0  0  0  0  0  0  0  0  0  0  0  0
    3.5135    4.3892    1.7754 C   0  0  0  0  0  0  0  0  0  0  0  0
    3.8678    4.4497    2.8164 H   0  0  0  0  0  0  0  0  0  0  0  0
    2.2712    2.3922    2.3445 N   0  0  0  0  0  0  0  0  0  0  0  0
   -0.6100    1.3676   -1.3226 N   0  0  0  0  0  2  0  0  0  0  0  0
   -1.7542    1.5682   -1.9784 C   0  0  2  0  0  3  0  0  0  0  0  0
   -1.9462    2.9093   -2.6407 C   0  0  0  0  0  0  0  0  0  0  0  0
   -2.0400    3.7145   -1.8775 H   0  0  0  0  0  0  0  0  0  0  0  0
   -2.8685    2.9068   -3.2440 H   0  0  0  0  0  0  0  0  0  0  0  0
   -1.0803    3.1487   -3.2930 H   0  0  0  0  0  0  0  0  0  0  0  0
   -2.7657    0.5380   -1.9726 C   0  0  0  0  0  0  0  0  0  0  0  0
   -4.0439    0.7538   -2.6607 C   0  0  0  0  0  0  0  0  0  0  0  0
   -4.8674   -1.3475   -1.7267 C   0  0  0  0  0  0  0  0  0  0  0  0
   -6.1010   -2.1823   -1.6446 C   0  0  0  0  0  0  0  0  0  0  0  0
   -6.9347   -1.5904   -1.2131 H   0  0  0  0  0  0  0  0  0  0  0  0
   -6.4223   -2.4979   -2.6589 H   0  0  0  0  0  0  0  0  0  0  0  0
   -5.9296   -3.0766   -1.0194 H   0  0  0  0  0  0  0  0  0  0  0  0
   -3.6699   -1.6262   -1.1411 C   0  0  0  0  0  0  0  0  0  0  0  0
   -2.5675   -0.7047   -1.2677 C   0  0  0  0  0  0  0  0  0  0  0  0
    3.4426    5.3175   -0.4826 C   0  0  0  0  0  0  0  0  0  0  0  0
    3.7535    6.0824   -1.2077 H   0  0  0  0  0  0  0  0  0  0  0  0
    3.8929    5.3618    0.8545 C   0  0  0  0  0  0  0  0  0  0  0  0
    4.5555    6.1779    1.1817 H   0  0  0  0  0  0  0  0  0  0  0  0
    2.6113    4.2671   -0.8691 C   0  0  0  0  0  0  0  0  0  0  0  0
    2.2781    4.1862   -1.9161 H   0  0  0  0  0  0  0  0  0  0  0  0
    1.4860    1.7386    2.1767 H   0  0  0  0  0  0  0  0  0  0  0  0
    2.4498    2.6235    3.3204 H   0  0  0  0  0  0  0  0  0  0  0  0
   -0.0177    3.3648   -1.4243 H   0  0  0  0  0  0  0  0  0  0  0  0
   -3.5206   -2.5220   -0.5239 H   0  0  0  0  0  0  0  0  0  0  0  0
  1  8  1  0  0  0  0
  2 19  2  0  0  0  0
  4 20  1  0  0  0  0
  5  1  1  0  0  0  0
  5  3  1  1  0  0  0
  6  5  1  0  0  0  0
  8  9  2  0  0  0  0
  8 11  1  0  0  0  0
  9 10  1  0  0  0  0
 11 34  1  0  0  0  0
 12  6  1  0  0  0  0
 13 18  1  0  0  0  0
 13 12  1  1  0  0  0
 14 13  1  0  0  0  0
 14 15  1  0  0  0  0
 16 14  1  0  0  0  0
 17 14  1  0  0  0  0
 18 26  2  0  0  0  0
 19  4  1  0  0  0  0
 19 18  1  0  0  0  0
 20 21  1  0  0  0  0
 20 25  2  0  0  0  0
 21 22  1  0  0  0  0
 21 24  1  0  0  0  0
 23 21  1  0  0  0  0
 25 36  1  0  0  0  0
 26 25  1  0  0  0  0
 26  7  1  0  0  0  0
 27 29  2  0  0  0  0
 28 27  1  0  0  0  0
 29 30  1  0  0  0  0
 29  9  1  0  0  0  0
 31 27  1  0  0  0  0
 31  1  2  0  0  0  0
 32 31  1  0  0  0  0
 33 11  1  0  0  0  0
 35  6  1  0  0  0  0
M  CHG  1   7  -1
M  END
