1,14,32
q = -2.0, confidence = 0.95

 32 34  0  0  1  0  0  0  0  0999 V2000
    2.0276    0.4459    0.6563 O   0  5  0  0  0  0  0  0  0  0  0  0
    2.8229   -0.5582    0.3722 C   0  0  0  0  0  0  0  0  0  0  0  0
    4.0341   -0.7276    1.0938 C   0  0  0  0  0  0  0  0  0  0  0  0
    4.2704    0.0098    1.8742 H   0  0  0  0  0  0  0  0  0  0  0  0
    4.8937   -1.7854    0.7984 C   0  0  0  0  0  0  0  0  0  0  0  0
    5.8336   -1.8894    1.3625 H   0  0  0  0  0  0  0  0  0  0  0  0
    4.5801   -2.7196   -0.2151 C   0  0  0  0  0  0  0  0  0  0  0  0
    5.2683   -3.5469   -0.4401 H   0  0  0  0  0  0  0  0  0  0  0  0
    3.3890   -2.5792   -0.9226 C   0  0  0  0  0  0  0  0  0  0  0  0
    3.1219   -3.3010   -1.7116 H   0  0  0  0  0  0  0  0  0  0  0  0
    2.4944   -1.5127   -0.6496 C   0  0  0  0  0  0  0  0  0  0  0  0
    1.2462   -1.4295   -1.3650 C   0  0  0  0  0  3  0  0  0  0  0  0
    1.0417   -2.2506   -2.0874 H   0  0  0  0  0  0  0  0  0  0  0  0
    0.3616   -0.4884   -1.2163 N   0  0  0  0  0  2  0  0  0  0  0  0
   -0.8883   -0.5514   -1.9499 C   0  0  2  0  0  0  0  0  0  0  0  0
   -0.7506   -1.0834   -2.9211 H   0  0  0  0  0  0  0  0  0  0  0  0
   -1.3999    0.9058   -2.1611 C   0  0  1  0  0  0  0  0  0  0  0  0
   -0.9648    1.3689   -3.0763 H   0  0  0  0  0  0  0  0  0  0  0  0
   -2.9386    0.7817   -2.2033 C   0  0  0  0  0  0  0  0  0  0  0  0
   -3.4189    1.7135   -1.8441 H   0  0  0  0  0  0  0  0  0  0  0  0
   -3.2864    0.6092   -3.2457 H   0  0  0  0  0  0  0  0  0  0  0  0
   -3.2093   -0.4255   -1.3344 C   0  0  0  0  0  0  0  0  0  0  0  0
   -4.3957   -0.8319   -0.7073 C   0  0  0  0  0  0  0  0  0  0  0  0
   -5.3183   -0.2415   -0.8192 H   0  0  0  0  0  0  0  0  0  0  0  0
   -4.3895   -1.9975    0.0803 C   0  0  0  0  0  0  0  0  0  0  0  0
   -5.3144   -2.3228    0.5805 H   0  0  0  0  0  0  0  0  0  0  0  0
   -3.2101   -2.7477    0.2413 C   0  0  0  0  0  0  0  0  0  0  0  0
   -3.2189   -3.6526    0.8678 H   0  0  0  0  0  0  0  0  0  0  0  0
   -2.0194   -2.3417   -0.3863 C   0  0  0  0  0  0  0  0  0  0  0  0
   -1.0893   -2.9144   -0.2449 H   0  0  0  0  0  0  0  0  0  0  0  0
   -2.0332   -1.1856   -1.1728 C   0  0  0  0  0  0  0  0  0  0  0  0
   -0.9902    1.6348   -1.0403 O   0  0  0  0  0  1  0  0  0  0  0  0
  2  1  1  0  0  0  0
  2  3  1  0  0  0  0
  3  4  1  0  0  0  0
  5  3  2  0  0  0  0
  5  6  1  0  0  0  0
  7  5  1  0  0  0  0
  8  7  1  0  0  0  0
  9 11  1  0  0  0  0
  9  7  2  0  0  0  0
 10  9  1  0  0  0  0
 11  2  2  0  0  0  0
 12 14  1  0  0  0  0
 12 11  1  0  0  0  0
 13 12  1  0  0  0  0
 15 16  1  6  0  0  0
 15 14  1  0  0  0  0
 15 31  1  0  0  0  0
 17 18  1  6  0  0  0
 17 15  1  0  0  0  0
 17 32  1  0  0  0  0
 19 17  1  0  0  0  0
 19 20  1  0  0  0  0
 19 22  1  0  0  0  0
 21 19  1  0  0  0  0
 22 31  2  0  0  0  0
 22 23  1  0  0  0  0
 23 25  2  0  0  0  0
 24 23  1  0  0  0  0
 25 27  1  0  0  0  0
 25 26  1  0  0  0  0
 27 28  1  0  0  0  0
 29 30  1  0  0  0  0
 29 27  2  0  0  0  0
 31 29  1  0  0  0  0
M  CHG  1   1  -1
M  END
