1,7,21
q = -1.0, confidence = 0.06

 42 41  0  0  1  0  0  0  0  0999 V2000
   -3.3153    1.0174    0.0622 O   0  0  0  0  0  1  0  0  0  0  0  0
   -2.4766    1.9548   -0.2494 C   0  0  2  0  0  3  0  0  0  0  0  0
   -2.9886    3.2679   -0.7576 C   0  0  0  0  0  0  0  0  0  0  0  0
   -3.3418    3.8856    0.0931 H   0  0  0  0  0  0  0  0  0  0  0  0
   -3.8634    3.0865   -1.4103 H   0  0  0  0  0  0  0  0  0  0  0  0
   -2.2174    3.8397   -1.3039 H   0  0  0  0  0  0  0  0  0  0  0  0
   -1.2150    1.5685   -0.1105 N   0  0  0  0  0  2  0  0  0  0  0  0
    0.0535    2.1332   -0.4864 C   0  0  1  0  0  0  0  0  0  0  0  0
    0.0065    2.6451   -1.4797 H   0  0  0  0  0  0  0  0  0  0  0  0
    0.6759    3.1412    0.5354 C   0  0  0  0  0  0  0  0  0  0  0  0
    1.6632    3.4280    0.1024 H   0  0  0  0  0  0  0  0  0  0  0  0
   -0.1459    4.4272    0.6453 C   0  0  0  0  0  0  0  0  0  0  0  0
   -0.3186    4.9055   -0.3397 H   0  0  0  0  0  0  0  0  0  0  0  0
    0.3838    5.1599    1.2849 H   0  0  0  0  0  0  0  0  0  0  0  0
   -1.1284    4.2330    1.1191 H   0  0  0  0  0  0  0  0  0  0  0  0
    0.9160    2.5048    1.9075 C   0  0  0  0  0  0  0  0  0  0  0  0
    1.5782    1.6179    1.8527 H   0  0  0  0  0  0  0  0  0  0  0  0
   -0.0456    2.1979    2.3639 H   0  0  0  0  0  0  0  0  0  0  0  0
    1.3884    3.2366    2.5912 H   0  0  0  0  0  0  0  0  0  0  0  0
    0.9417    0.8859   -0.6398 C   0  0  2  0  0  3  0  0  0  0  0  0
    0.4376   -0.2658   -0.4967 O   0  0  0  0  0  1  0  0  0  0  0  0
    2.2431    1.0172   -0.9066 N   0  0  0  0  0  0  0  0  0  0  0  0
    2.6366    1.9608   -0.9364 H   0  0  0  0  0  0  0  0  0  0  0  0
    3.1678   -0.1130   -0.9301 C   0  0  1  0  0  0  0  0  0  0  0  0
    2.8759   -0.8029   -1.7486 H   0  0  0  0  0  0  0  0  0  0  0  0
    4.6121    0.3973   -1.1958 C   0  0  0  0  0  0  0  0  0  0  0  0
    4.5273    1.0013   -2.1284 H   0  0  0  0  0  0  0  0  0  0  0  0
    5.1337    1.3025   -0.0715 C   0  0  0  0  0  0  0  0  0  0  0  0
    6.1195    1.7233   -0.3491 H   0  0  0  0  0  0  0  0  0  0  0  0
    5.2594    0.7403    0.8755 H   0  0  0  0  0  0  0  0  0  0  0  0
    4.4647    2.1607    0.1486 H   0  0  0  0  0  0  0  0  0  0  0  0
    5.5743   -0.7595   -1.4820 C   0  0  0  0  0  0  0  0  0  0  0  0
    5.7270   -1.3937   -0.5865 H   0  0  0  0  0  0  0  0  0  0  0  0
    6.5626   -0.3625   -1.7845 H   0  0  0  0  0  0  0  0  0  0  0  0
    5.2047   -1.4113   -2.2982 H   0  0  0  0  0  0  0  0  0  0  0  0
    3.0526   -0.8925    0.3902 C   0  0  0  0  0  0  0  0  0  0  0  0
    2.7741   -0.3964    1.4676 O   0  0  0  0  0  0  0  0  0  0  0  0
    3.3371   -2.1879    0.1967 O   0  0  0  0  0  0  0  0  0  0  0  0
    3.3498   -3.0159    1.3769 C   0  0  0  0  0  0  0  0  0  0  0  0
    3.6857   -4.0125    1.0436 H   0  0  0  0  0  0  0  0  0  0  0  0
    2.3340   -3.0754    1.8158 H   0  0  0  0  0  0  0  0  0  0  0  0
    4.0404   -2.6012    2.1363 H   0  0  0  0  0  0  0  0  0  0  0  0
  2  7  1  0  0  0  0
  2  1  1  6  0  0  0
  3  2  1  0  0  0  0
  3  4  1  0  0  0  0
  5  3  1  0  0  0  0
  6  3  1  0  0  0  0
  8  9  1  6  0  0  0
  8  7  1  0  0  0  0
  8 10  1  0  0  0  0
 10 12  1  0  0  0  0
 10 16  1  0  0  0  0
 11 10  1  0  0  0  0
 12 15  1  0  0  0  0
 12 14  1  0  0  0  0
 13 12  1  0  0  0  0
 16 18  1  0  0  0  0
 16 19  1  0  0  0  0
 17 16  1  0  0  0  0
 20 21  1  1  0  0  0
 20  8  1  0  0  0  0
 22 20  1  0  0  0  0
 23 22  1  0  0  0  0
 24 25  1  6  0  0  0
 24 22  1  0  0  0  0
 24 36  1  0  0  0  0
 26 24  1  0  0  0  0
 26 28  1  0  0  0  0
 27 26  1  0  0  0  0
 28 31  1  0  0  0  0
 28 30  1  0  0  0  0
 29 28  1  0  0  0  0
 32 26  1  0  0  0  0
 32 33  1  0  0  0  0
 34 32  1  0  0  0  0
 35 32  1  0  0  0  0
 36 37  2  0  0  0  0
 38 36  1  0  0  0  0
 38 39  1  0  0  0  0
 39 41  1  0  0  0  0
 39 42  1  0  0  0  0
 40 39  1  0  0  0  0
M  END
