1,4,5
q = -1.0

 32 33  0  0  0  0  0  0  0  0999 V2000
    0.1979    1.0924    0.1179 N   0  0  0  0  0  2  0  0  0  0  0  0
    1.5078    1.4451    0.2145 N   0  0  0  0  0  0  0  0  0  0  0  0
    5.8819   -0.3635   -0.3918 N   0  0  0  0  0  0  0  0  0  0  0  0
    1.8165   -0.8242   -0.2241 O   0  5  0  0  0  0  0  0  0  0  0  0
   -1.9658   -0.5790    0.1191 O   0  5  0  0  0  0  0  0  0  0  0  0
   -4.5547   -0.8677   -0.0911 O   0  0  0  0  0  0  0  0  0  0  0  0
    2.2653    0.3917   -0.0051 C   0  0  0  0  0  0  0  0  0  0  0  0
    3.7251    0.5757   -0.0265 C   0  0  0  0  0  0  0  0  0  0  0  0
    4.3484    1.8154    0.2509 C   0  0  0  0  0  0  0  0  0  0  0  0
    3.7074    2.6742    0.5001 H   0  0  0  0  0  0  0  0  0  0  0  0
    5.7425    1.9282    0.2000 C   0  0  0  0  0  0  0  0  0  0  0  0
    6.2454    2.8819    0.4117 H   0  0  0  0  0  0  0  0  0  0  0  0
    6.5113    0.8095   -0.1303 C   0  0  0  0  0  3  0  0  0  0  0  0
    7.6078    0.8135   -0.1955 H   0  0  0  0  0  0  0  0  0  0  0  0
    4.5386   -0.5215   -0.3508 C   0  0  0  0  0  0  0  0  0  0  0  0
    4.1179   -1.5101   -0.5824 H   0  0  0  0  0  0  0  0  0  0  0  0
   -0.6957    2.0482    0.2630 C   0  0  0  0  0  3  0  0  0  0  0  0
   -0.3174    3.0734    0.4367 H   0  0  0  0  0  0  0  0  0  0  0  0
   -2.1127    1.8460    0.1868 C   0  0  0  0  0  0  0  0  0  0  0  0
   -2.6908    0.5420    0.0874 C   0  0  0  0  0  0  0  0  0  0  0  0
   -4.1105    0.4007    0.0012 C   0  0  0  0  0  0  0  0  0  0  0  0
   -4.9148    1.5530    0.0242 C   0  0  0  0  0  0  0  0  0  0  0  0
   -6.0068    1.4572   -0.0422 H   0  0  0  0  0  0  0  0  0  0  0  0
   -4.3409    2.8388    0.1365 C   0  0  0  0  0  0  0  0  0  0  0  0
   -4.9978    3.7200    0.1532 H   0  0  0  0  0  0  0  0  0  0  0  0
   -2.9643    2.9905    0.2232 C   0  0  0  0  0  0  0  0  0  0  0  0
   -2.5110    3.9890    0.3058 H   0  0  0  0  0  0  0  0  0  0  0  0
   -5.9544   -1.0908   -0.2084 C   0  0  0  0  0  0  0  0  0  0  0  0
   -6.5034   -0.7174    0.6836 H   0  0  0  0  0  0  0  0  0  0  0  0
   -6.0858   -2.1848   -0.2846 H   0  0  0  0  0  0  0  0  0  0  0  0
   -6.3677   -0.6092   -1.1213 H   0  0  0  0  0  0  0  0  0  0  0  0
    6.4558   -1.1796   -0.6388 H   0  0  0  0  0  0  0  0  0  0  0  0
  1  2  1  0  0  0  0
  1 17  1  0  0  0  0
  3 15  1  0  0  0  0
  3 13  1  0  0  0  0
  4  7  1  0  0  0  0
  6 21  1  0  0  0  0
  7  2  2  0  0  0  0
  8  7  1  0  0  0  0
  8  9  1  0  0  0  0
  9 10  1  0  0  0  0
 11  9  2  0  0  0  0
 11 12  1  0  0  0  0
 13 11  1  0  0  0  0
 14 13  1  0  0  0  0
 15  8  2  0  0  0  0
 16 15  1  0  0  0  0
 17 18  1  0  0  0  0
 19 26  1  0  0  0  0
 19 17  1  0  0  0  0
 20  5  1  0  0  0  0
 20 19  2  0  0  0  0
 21 22  2  0  0  0  0
 21 20  1  0  0  0  0
 22 24  1  0  0  0  0
 23 22  1  0  0  0  0
 24 25  1  0  0  0  0
 24 26  2  0  0  0  0
 26 27  1  0  0  0  0
 28  6  1  0  0  0  0
 28 29  1  0  0  0  0
 30 28  1  0  0  0  0
 31 28  1  0  0  0  0
 32  3  1  0  0  0  0
M  CHG  2   4  -1   5  -1
M  END
