1,4,5
q = -1.0

 32 33  0  0  0  0  0  0  0  0999 V2000
   -0.2339    0.8095   -0.1507 N   0  0  0  0  0  2  0  0  0  0  0  0
   -1.4820    1.3198   -0.1251 N   0  0  0  0  0  0  0  0  0  0  0  0
   -5.4226    2.4710    0.0265 N   0  0  0  0  0  0  0  0  0  0  0  0
   -2.1426   -0.9339   -0.1779 O   0  5  0  0  0  0  0  0  0  0  0  0
    1.8082   -1.1570   -0.1032 O   0  5  0  0  0  0  0  0  0  0  0  0
    6.2371    0.3142   -0.0015 O   0  0  0  0  0  0  0  0  0  0  0  0
   -2.3810    0.3349   -0.1413 C   0  0  0  0  0  0  0  0  0  0  0  0
   -3.7883    0.7468   -0.0911 C   0  0  0  0  0  0  0  0  0  0  0  0
   -4.8392   -0.2108   -0.0938 C   0  0  0  0  0  0  0  0  0  0  0  0
   -4.5639   -1.2744   -0.1384 H   0  0  0  0  0  0  0  0  0  0  0  0
   -6.1711    0.2183   -0.0373 C   0  0  0  0  0  0  0  0  0  0  0  0
   -6.9992   -0.5043   -0.0378 H   0  0  0  0  0  0  0  0  0  0  0  0
   -6.4636    1.5803    0.0225 C   0  0  0  0  0  3  0  0  0  0  0  0
   -7.4763    1.9991    0.0696 H   0  0  0  0  0  0  0  0  0  0  0  0
   -4.1246    2.1033   -0.0259 C   0  0  0  0  0  0  0  0  0  0  0  0
   -3.3449    2.8780   -0.0135 H   0  0  0  0  0  0  0  0  0  0  0  0
    0.7727    1.6520   -0.0981 C   0  0  0  0  0  3  0  0  0  0  0  0
    0.5367    2.7342   -0.0503 H   0  0  0  0  0  0  0  0  0  0  0  0
    2.1495    1.2602   -0.0829 C   0  0  0  0  0  0  0  0  0  0  0  0
    2.6126   -0.1158   -0.0862 C   0  0  0  0  0  0  0  0  0  0  0  0
    3.9998   -0.3638   -0.0570 C   0  0  0  0  0  0  0  0  0  0  0  0
    4.3492   -1.4044   -0.0544 H   0  0  0  0  0  0  0  0  0  0  0  0
    4.9334    0.6833   -0.0265 C   0  0  0  0  0  0  0  0  0  0  0  0
    4.4939    2.0355   -0.0195 C   0  0  0  0  0  0  0  0  0  0  0  0
    5.2064    2.8690    0.0075 H   0  0  0  0  0  0  0  0  0  0  0  0
    3.1285    2.2902   -0.0453 C   0  0  0  0  0  0  0  0  0  0  0  0
    2.7776    3.3342   -0.0371 H   0  0  0  0  0  0  0  0  0  0  0  0
    7.2351    1.3190    0.0397 C   0  0  0  0  0  0  0  0  0  0  0  0
    7.1973    1.9773   -0.8564 H   0  0  0  0  0  0  0  0  0  0  0  0
    8.2063    0.7910    0.0566 H   0  0  0  0  0  0  0  0  0  0  0  0
    7.1505    1.9491    0.9527 H   0  0  0  0  0  0  0  0  0  0  0  0
   -5.6389    3.4716    0.0747 H   0  0  0  0  0  0  0  0  0  0  0  0
  1  2  1  0  0  0  0
  1 17  1  0  0  0  0
  3 32  1  0  0  0  0
  4  7  1  0  0  0  0
  5 20  1  0  0  0  0
  6 28  1  0  0  0  0
  7  2  2  0  0  0  0
  7  8  1  0  0  0  0
  8 15  2  0  0  0  0
  9  8  1  0  0  0  0
  9 11  2  0  0  0  0
 10  9  1  0  0  0  0
 11 13  1  0  0  0  0
 12 11  1  0  0  0  0
 13  3  1  0  0  0  0
 13 14  1  0  0  0  0
 15 16  1  0  0  0  0
 15  3  1  0  0  0  0
 17 19  1  0  0  0  0
 17 18  1  0  0  0  0
 19 26  1  0  0  0  0
 20 19  2  0  0  0  0
 20 21  1  0  0  0  0
 21 22  1  0  0  0  0
 21 23  2  0  0  0  0
 23 24  1  0  0  0  0
 23  6  1  0  0  0  0
 24 25  1  0  0  0  0
 26 27  1  0  0  0  0
 26 24  2  0  0  0  0
 28 30  1  0  0  0  0
 28 31  1  0  0  0  0
 29 28  1  0  0  0  0
M  CHG  2   4  -1   5  -1
M  END
