1,4,5
q = -2.0, confidence = 0.822

 31 32  0  0  0  0  0  0  0  0999 V2000
   -0.2160    0.9574   -0.0197 N   0  0  0  0  0  2  0  0  0  0  0  0
   -1.4996    1.4273    0.0681 N   0  0  0  0  0  0  0  0  0  0  0  0
   -5.6208    2.2882    0.1840 N   0  0  0  0  0  0  0  0  0  0  0  0
   -1.9691   -0.8004   -0.3550 O   0  5  0  0  0  0  0  0  0  0  0  0
    1.8256   -0.8737    0.0545 O   0  5  0  0  0  0  0  0  0  0  0  0
    6.2831    0.8535    0.0573 O   0  0  0  0  0  0  0  0  0  0  0  0
   -2.3543    0.4456   -0.1406 C   0  0  0  0  0  0  0  0  0  0  0  0
   -3.8044    0.7090   -0.1168 C   0  0  0  0  0  0  0  0  0  0  0  0
   -4.3148    2.0029    0.1451 C   0  0  0  0  0  0  0  0  0  0  0  0
   -3.6067    2.8289    0.3289 H   0  0  0  0  0  0  0  0  0  0  0  0
   -6.4867    1.2840   -0.0436 C   0  0  0  0  0  0  0  0  0  0  0  0
   -7.5594    1.5462   -0.0078 H   0  0  0  0  0  0  0  0  0  0  0  0
   -6.0920   -0.0365   -0.3166 C   0  0  0  0  0  0  0  0  0  0  0  0
   -6.8458   -0.8169   -0.4982 H   0  0  0  0  0  0  0  0  0  0  0  0
   -4.7248   -0.3316   -0.3535 C   0  0  0  0  0  0  0  0  0  0  0  0
   -4.3510   -1.3442   -0.5645 H   0  0  0  0  0  0  0  0  0  0  0  0
    0.7547    1.8393    0.0881 C   0  0  0  0  0  3  0  0  0  0  0  0
    0.4528    2.8985    0.1993 H   0  0  0  0  0  0  0  0  0  0  0  0
    2.1514    1.5237    0.0676 C   0  0  0  0  0  0  0  0  0  0  0  0
    2.6421    0.1759    0.0415 C   0  0  0  0  0  0  0  0  0  0  0  0
    4.0301   -0.0705    0.0403 C   0  0  0  0  0  0  0  0  0  0  0  0
    4.3513   -1.1188    0.0233 H   0  0  0  0  0  0  0  0  0  0  0  0
    4.9400    1.0013    0.0628 C   0  0  0  0  0  0  0  0  0  0  0  0
    4.4683    2.3414    0.0980 C   0  0  0  0  0  0  0  0  0  0  0  0
    5.2038    3.1567    0.1177 H   0  0  0  0  0  0  0  0  0  0  0  0
    3.1045    2.5813    0.1039 C   0  0  0  0  0  0  0  0  0  0  0  0
    2.7335    3.6177    0.1296 H   0  0  0  0  0  0  0  0  0  0  0  0
    6.8270   -0.4575    0.0140 C   0  0  0  0  0  0  0  0  0  0  0  0
    6.5289   -1.0538    0.9040 H   0  0  0  0  0  0  0  0  0  0  0  0
    7.9256   -0.3373    0.0088 H   0  0  0  0  0  0  0  0  0  0  0  0
    6.5137   -0.9998   -0.9047 H   0  0  0  0  0  0  0  0  0  0  0  0
  1  2  1  0  0  0  0
  1 17  1  0  0  0  0
  4  7  1  0  0  0  0
  6 23  1  0  0  0  0
  7  8  1  0  0  0  0
  7  2  2  0  0  0  0
  8  9  2  0  0  0  0
  9  3  1  0  0  0  0
  9 10  1  0  0  0  0
 11 12  1  0  0  0  0
 11  3  2  0  0  0  0
 13 11  1  0  0  0  0
 14 13  1  0  0  0  0
 15 13  2  0  0  0  0
 15  8  1  0  0  0  0
 16 15  1  0  0  0  0
 17 18  1  0  0  0  0
 19 17  1  0  0  0  0
 19 26  1  0  0  0  0
 20  5  1  0  0  0  0
 20 19  2  0  0  0  0
 21 20  1  0  0  0  0
 21 23  2  0  0  0  0
 22 21  1  0  0  0  0
 23 24  1  0  0  0  0
 24 26  2  0  0  0  0
 24 25  1  0  0  0  0
 26 27  1  0  0  0  0
 28  6  1  0  0  0  0
 28 29  1  0  0  0  0
 30 28  1  0  0  0  0
 31 28  1  0  0  0  0
M  CHG  2   4  -1   5  -1
M  END
