3,5,6
q = -2.0, confidence = 0.936

 28 29  0  0  0  0  0  0  0  0999 V2000
   -2.7839   -2.0526    1.6472 Cl  0  0  0  0  0  0  0  0  0  0  0  0
    6.2104   -2.5635   -0.4981 F   0  0  0  0  0  0  0  0  0  0  0  0
    0.4771   -0.6578   -0.4973 N   0  0  0  0  0  2  0  0  0  0  0  0
   -0.7741   -1.1998   -0.6182 N   0  0  0  0  0  0  0  0  0  0  0  0
    2.2377    1.1075    0.4313 O   0  5  0  0  0  0  0  0  0  0  0  0
   -1.3548    1.0355   -0.5291 O   0  5  0  0  0  0  0  0  0  0  0  0
    2.8644   -1.0847   -0.3355 C   0  0  0  0  0  0  0  0  0  0  0  0
    3.1831    0.2163    0.1774 C   0  0  0  0  0  0  0  0  0  0  0  0
    4.5343    0.5310    0.4575 C   0  0  0  0  0  0  0  0  0  0  0  0
    4.7594    1.5289    0.8589 H   0  0  0  0  0  0  0  0  0  0  0  0
    5.5487   -0.4007    0.2262 C   0  0  0  0  0  0  0  0  0  0  0  0
    6.6018   -0.1608    0.4331 H   0  0  0  0  0  0  0  0  0  0  0  0
    5.2234   -1.6720   -0.2798 C   0  0  0  0  0  0  0  0  0  0  0  0
    3.9058   -2.0234   -0.5510 C   0  0  0  0  0  0  0  0  0  0  0  0
    3.6796   -3.0280   -0.9370 H   0  0  0  0  0  0  0  0  0  0  0  0
    1.4972   -1.4787   -0.5561 C   0  0  0  0  0  3  0  0  0  0  0  0
    1.2705   -2.5408   -0.7671 H   0  0  0  0  0  0  0  0  0  0  0  0
   -1.6656   -0.2248   -0.6103 C   0  0  0  0  0  0  0  0  0  0  0  0
   -3.1125   -0.5684   -0.6559 C   0  0  0  0  0  0  0  0  0  0  0  0
   -3.7127   -1.4097    0.3068 C   0  0  0  0  0  0  0  0  0  0  0  0
   -5.0836   -1.7066    0.2538 C   0  0  0  0  0  0  0  0  0  0  0  0
   -5.5212   -2.3616    1.0200 H   0  0  0  0  0  0  0  0  0  0  0  0
   -5.8731   -1.1522   -0.7631 C   0  0  0  0  0  0  0  0  0  0  0  0
   -6.9465   -1.3906   -0.8039 H   0  0  0  0  0  0  0  0  0  0  0  0
   -5.3015   -0.2874   -1.7102 C   0  0  0  0  0  0  0  0  0  0  0  0
   -5.9231    0.1593   -2.5000 H   0  0  0  0  0  0  0  0  0  0  0  0
   -3.9347    0.0076   -1.6453 C   0  0  0  0  0  0  0  0  0  0  0  0
   -3.4708    0.6896   -2.3729 H   0  0  0  0  0  0  0  0  0  0  0  0
  2 13  1  0  0  0  0
  4 18  2  0  0  0  0
  4  3  1  0  0  0  0
  7  8  1  0  0  0  0
  8  5  1  0  0  0  0
  8  9  2  0  0  0  0
  9 10  1  0  0  0  0
 11 12  1  0  0  0  0
 11  9  1  0  0  0  0
 13 11  2  0  0  0  0
 14  7  2  0  0  0  0
 14 13  1  0  0  0  0
 15 14  1  0  0  0  0
 16  3  1  0  0  0  0
 16  7  1  0  0  0  0
 17 16  1  0  0  0  0
 18  6  1  0  0  0  0
 19 18  1  0  0  0  0
 19 20  1  0  0  0  0
 20  1  1  0  0  0  0
 21 20  2  0  0  0  0
 21 22  1  0  0  0  0
 23 21  1  0  0  0  0
 24 23  1  0  0  0  0
 25 27  1  0  0  0  0
 25 23  2  0  0  0  0
 26 25  1  0  0  0  0
 27 19  2  0  0  0  0
 28 27  1  0  0  0  0
M  CHG  2   5  -1   6  -1
M  END
