1,2,3
q = -1.0, confidence = 0.102

 34 36  0  0  0  0  0  0  0  0999 V2000
    1.3223   -2.0894    0.0006 O   0  5  0  0  0  0  0  0  0  0  0  0
   -2.4514   -1.1875    0.0004 O   0  5  0  0  0  0  0  0  0  0  0  0
   -0.2698    0.0814    0.0001 N   0  0  0  0  0  2  0  0  0  0  0  0
   -1.3627    0.8672    0.0002 N   0  0  0  0  0  0  0  0  0  0  0  0
   -6.2193    2.0513    0.0000 N   0  0  0  0  0  0  0  0  0  0  0  0
   -7.1313    2.5123   -0.0000 H   0  0  0  0  0  0  0  0  0  0  0  0
    2.3135   -1.2805    0.0005 C   0  0  0  0  0  0  0  0  0  0  0  0
    3.6426   -1.8477    0.0005 C   0  0  0  0  0  0  0  0  0  0  0  0
    3.7049   -2.9451    0.0007 H   0  0  0  0  0  0  0  0  0  0  0  0
    4.7569   -1.0500    0.0004 C   0  0  0  0  0  0  0  0  0  0  0  0
    5.7606   -1.5048    0.0005 H   0  0  0  0  0  0  0  0  0  0  0  0
    4.6654    0.3856    0.0002 C   0  0  0  0  0  0  0  0  0  0  0  0
    5.8372    1.1840    0.0001 C   0  0  0  0  0  0  0  0  0  0  0  0
    6.8156    0.6783    0.0002 H   0  0  0  0  0  0  0  0  0  0  0  0
    5.7620    2.5740   -0.0002 C   0  0  0  0  0  0  0  0  0  0  0  0
    6.6782    3.1828   -0.0003 H   0  0  0  0  0  0  0  0  0  0  0  0
    4.4936    3.1934   -0.0004 C   0  0  0  0  0  0  0  0  0  0  0  0
    4.4186    4.2915   -0.0007 H   0  0  0  0  0  0  0  0  0  0  0  0
    3.3284    2.4276   -0.0003 C   0  0  0  0  0  0  0  0  0  0  0  0
    2.3622    2.9506   -0.0005 H   0  0  0  0  0  0  0  0  0  0  0  0
    3.3697    1.0073    0.0000 C   0  0  0  0  0  0  0  0  0  0  0  0
    2.1741    0.1657    0.0002 C   0  0  0  0  0  0  0  0  0  0  0  0
    0.8882    0.7464    0.0003 C   0  0  0  0  0  3  0  0  0  0  0  0
    0.7830    1.8457    0.0004 H   0  0  0  0  0  0  0  0  0  0  0  0
   -2.4646    0.0994    0.0003 C   0  0  0  0  0  0  0  0  0  0  0  0
   -3.7395    0.8014    0.0002 C   0  0  0  0  0  0  0  0  0  0  0  0
   -3.8413    2.2217    0.0001 C   0  0  0  0  0  0  0  0  0  0  0  0
   -2.9203    2.8196    0.0000 H   0  0  0  0  0  0  0  0  0  0  0  0
   -5.0816    2.8229   -0.0000 C   0  0  0  0  0  3  0  0  0  0  0  0
   -5.2300    3.9109   -0.0001 H   0  0  0  0  0  0  0  0  0  0  0  0
   -6.1653    0.6827    0.0001 C   0  0  0  0  0  0  0  0  0  0  0  0
   -7.1292    0.1557    0.0002 H   0  0  0  0  0  0  0  0  0  0  0  0
   -4.9468    0.0396    0.0002 C   0  0  0  0  0  0  0  0  0  0  0  0
   -4.8748   -1.0569    0.0003 H   0  0  0  0  0  0  0  0  0  0  0  0
  3  4  1  0  0  0  0
  3 23  1  0  0  0  0
  4 25  2  0  0  0  0
  5 31  1  0  0  0  0
  6  5  1  0  0  0  0
  7  8  1  0  0  0  0
  7  1  1  0  0  0  0
  8  9  1  0  0  0  0
 10 11  1  0  0  0  0
 10  8  2  0  0  0  0
 12 10  1  0  0  0  0
 13 14  1  0  0  0  0
 13 12  1  0  0  0  0
 15 13  2  0  0  0  0
 16 15  1  0  0  0  0
 17 19  2  0  0  0  0
 17 15  1  0  0  0  0
 18 17  1  0  0  0  0
 19 21  1  0  0  0  0
 20 19  1  0  0  0  0
 21 12  2  0  0  0  0
 21 22  1  0  0  0  0
 22 23  1  0  0  0  0
 22  7  2  0  0  0  0
 23 24  1  0  0  0  0
 25  2  1  0  0  0  0
 26 33  1  0  0  0  0
 26 25  1  0  0  0  0
 27 26  2  0  0  0  0
 28 27  1  0  0  0  0
 29  5  1  0  0  0  0
 29 27  1  0  0  0  0
 30 29  1  0  0  0  0
 31 32  1  0  0  0  0
 31 33  2  0  0  0  0
 33 34  1  0  0  0  0
M  CHG  2   1  -1   2  -1
M  END
