1,2,4
q = -2.0, confidence = 0.822

 34 35  0  0  0  0  0  0  0  0999 V2000
    1.7354   -0.9999    0.0102 O   0  5  0  0  0  0  0  0  0  0  0  0
   -2.0476   -1.1000    0.1518 O   0  5  0  0  0  0  0  0  0  0  0  0
   -6.5007    0.3621    0.0339 O   0  0  0  0  0  0  0  0  0  0  0  0
   -0.0320    0.7566   -0.0261 N   0  0  0  0  0  2  0  0  0  0  0  0
    1.2357    1.2577    0.0062 N   0  0  0  0  0  0  0  0  0  0  0  0
    7.7015    1.3280    0.0247 N   0  0  0  0  0  0  0  0  0  0  0  0
    2.1180    0.2770   -0.0062 C   0  0  0  0  0  0  0  0  0  0  0  0
    3.5545    0.5523   -0.0069 C   0  0  0  0  0  0  0  0  0  0  0  0
    4.4885   -0.5093   -0.0288 C   0  0  0  0  0  0  0  0  0  0  0  0
    4.1134   -1.5424   -0.0522 H   0  0  0  0  0  0  0  0  0  0  0  0
    5.8585   -0.2573   -0.0312 C   0  0  0  0  0  0  0  0  0  0  0  0
    6.5717   -1.0963   -0.0510 H   0  0  0  0  0  0  0  0  0  0  0  0
    6.3508    1.0742   -0.0106 C   0  0  0  0  0  0  0  0  0  0  0  0
    5.4092    2.1394    0.0104 C   0  0  0  0  0  0  0  0  0  0  0  0
    5.7722    3.1792    0.0258 H   0  0  0  0  0  0  0  0  0  0  0  0
    4.0426    1.8812    0.0111 C   0  0  0  0  0  0  0  0  0  0  0  0
    3.3162    2.7061    0.0234 H   0  0  0  0  0  0  0  0  0  0  0  0
   -1.0192    1.6235   -0.0031 C   0  0  0  0  0  3  0  0  0  0  0  0
   -0.7356    2.6928    0.0108 H   0  0  0  0  0  0  0  0  0  0  0  0
   -2.4136    1.2862    0.0008 C   0  0  0  0  0  0  0  0  0  0  0  0
   -2.8872   -0.0680    0.0696 C   0  0  0  0  0  0  0  0  0  0  0  0
   -4.2652   -0.3272    0.0779 C   0  0  0  0  0  0  0  0  0  0  0  0
   -4.6197   -1.3646    0.1331 H   0  0  0  0  0  0  0  0  0  0  0  0
   -5.1962    0.7282    0.0208 C   0  0  0  0  0  0  0  0  0  0  0  0
   -4.7477    2.0715   -0.0408 C   0  0  0  0  0  0  0  0  0  0  0  0
   -5.4559    2.9080   -0.0841 H   0  0  0  0  0  0  0  0  0  0  0  0
   -3.3773    2.3238   -0.0469 C   0  0  0  0  0  0  0  0  0  0  0  0
   -3.0209    3.3646   -0.0954 H   0  0  0  0  0  0  0  0  0  0  0  0
   -7.4945    1.3711   -0.0211 C   0  0  0  0  0  0  0  0  0  0  0  0
   -7.4341    2.0586    0.8515 H   0  0  0  0  0  0  0  0  0  0  0  0
   -8.4685    0.8488   -0.0009 H   0  0  0  0  0  0  0  0  0  0  0  0
   -7.4240    1.9697   -0.9561 H   0  0  0  0  0  0  0  0  0  0  0  0
    8.3470    0.5762   -0.2110 H   0  0  0  0  0  0  0  0  0  0  0  0
    8.0281    2.2700   -0.1839 H   0  0  0  0  0  0  0  0  0  0  0  0
  4 18  1  0  0  0  0
  4  5  1  0  0  0  0
  7  5  2  0  0  0  0
  7  1  1  0  0  0  0
  8  7  1  0  0  0  0
  8 16  1  0  0  0  0
  9  8  2  0  0  0  0
 10  9  1  0  0  0  0
 11  9  1  0  0  0  0
 11 13  2  0  0  0  0
 12 11  1  0  0  0  0
 13 14  1  0  0  0  0
 13  6  1  0  0  0  0
 14 16  2  0  0  0  0
 14 15  1  0  0  0  0
 16 17  1  0  0  0  0
 18 20  1  0  0  0  0
 18 19  1  0  0  0  0
 20 21  1  0  0  0  0
 21 22  2  0  0  0  0
 21  2  1  0  0  0  0
 22 23  1  0  0  0  0
 24  3  1  0  0  0  0
 24 22  1  0  0  0  0
 25 24  2  0  0  0  0
 26 25  1  0  0  0  0
 27 25  1  0  0  0  0
 27 20  2  0  0  0  0
 28 27  1  0  0  0  0
 29 31  1  0  0  0  0
 29  3  1  0  0  0  0
 29 30  1  0  0  0  0
 32 29  1  0  0  0  0
 33  6  1  0  0  0  0
 34  6  1  0  0  0  0
M  CHG  2   1  -1   2  -1
M  END
