1,2,4
q = -2.0, confidence = 0.672

 20 19  0  0  0  0  0  0  0  0999 V2000
    0.7903    0.3986   -0.0857 N   0  0  0  0  0  0  0  0  0  0  0  0
   -1.7062    1.5171   -0.3702 O   0  5  0  0  0  0  0  0  0  0  0  0
   -0.8182    3.4894   -1.0492 O   0  0  0  0  0  0  0  0  0  0  0  0
   -0.6614   -1.8548   -0.8907 O   0  5  0  0  0  0  0  0  0  0  0  0
    1.0309   -2.4174   -2.2887 O   0  0  0  0  0  0  0  0  0  0  0  0
    3.6233    1.0031   -0.2458 O   0  0  0  0  0  0  0  0  0  0  0  0
    4.0285   -0.4036    1.4836 O   0  0  0  0  0  0  0  0  0  0  0  0
    0.6691    1.8745   -0.0803 C   0  0  0  0  0  0  0  0  0  0  0  0
   -0.7199    2.3689   -0.5760 C   0  0  0  0  0  0  0  0  0  0  0  0
    0.9545   -0.1587   -1.4540 C   0  0  0  0  0  0  0  0  0  0  0  0
    0.4431   -1.6190   -1.5762 C   0  0  0  0  0  0  0  0  0  0  0  0
    1.7646   -0.1462    0.8576 C   0  0  0  0  0  0  0  0  0  0  0  0
    3.2232    0.2347    0.6040 C   0  0  0  0  0  0  0  0  0  0  0  0
    1.4659    2.3606   -0.6760 H   0  0  0  0  0  0  0  0  0  0  0  0
    0.7796    2.2268    0.9682 H   0  0  0  0  0  0  0  0  0  0  0  0
    2.0048   -0.0977   -1.7995 H   0  0  0  0  0  0  0  0  0  0  0  0
    0.3402    0.4629   -2.1383 H   0  0  0  0  0  0  0  0  0  0  0  0
    1.5092    0.1799    1.8892 H   0  0  0  0  0  0  0  0  0  0  0  0
    1.6977   -1.2552    0.8563 H   0  0  0  0  0  0  0  0  0  0  0  0
    4.9446   -0.1161    1.2742 H   0  0  0  0  0  0  0  0  0  0  0  0
  1  8  1  0  0  0  0
  1 12  1  0  0  0  0
  3  9  2  0  0  0  0
  5 11  2  0  0  0  0
  6 13  2  0  0  0  0
  8 15  1  0  0  0  0
  9  2  1  0  0  0  0
  9  8  1  0  0  0  0
 10  1  1  0  0  0  0
 11 10  1  0  0  0  0
 11  4  1  0  0  0  0
 12 18  1  0  0  0  0
 13 12  1  0  0  0  0
 13  7  1  0  0  0  0
 14  8  1  0  0  0  0
 16 10  1  0  0  0  0
 17 10  1  0  0  0  0
 19 12  1  0  0  0  0
 20  7  1  0  0  0  0
M  CHG  2   2  -1   4  -1
M  END
