1,3,5
q = -1.0, confidence = 0.108

 13 12  0  0  0  0  0  0  0  0999 V2000
    0.9305    1.7611   -0.2627 O   0  5  0  0  0  0  0  0  0  0  0  0
    2.1068    3.6639   -0.2546 O   0  0  0  0  0  0  0  0  0  0  0  0
    1.5948   -1.9490    0.2295 O   0  5  0  0  0  0  0  0  0  0  0  0
    3.3547   -3.2881   -0.0331 O   0  0  0  0  0  0  0  0  0  0  0  0
    2.9467    0.2466    0.4509 N   0  0  0  0  0  2  0  0  0  0  0  0
    2.0745    2.4496   -0.1975 C   0  0  0  0  0  0  0  0  0  0  0  0
    3.2982    1.5264   -0.1266 C   0  0  0  0  0  0  0  0  0  0  0  0
    3.6973    1.4425   -1.1686 H   0  0  0  0  0  0  0  0  0  0  0  0
    4.0914    2.0160    0.4820 H   0  0  0  0  0  0  0  0  0  0  0  0
    2.8904   -2.1638    0.0562 C   0  0  0  0  0  0  0  0  0  0  0  0
    3.7119   -0.8706   -0.0630 C   0  0  0  0  0  0  0  0  0  0  0  0
    4.6659   -0.9778    0.5022 H   0  0  0  0  0  0  0  0  0  0  0  0
    3.9853   -0.7550   -1.1412 H   0  0  0  0  0  0  0  0  0  0  0  0
  1  6  1  0  0  0  0
  2  6  2  0  0  0  0
  4 10  2  0  0  0  0
  6  7  1  0  0  0  0
  7  5  1  0  0  0  0
  7  9  1  0  0  0  0
  8  7  1  0  0  0  0
 10  3  1  0  0  0  0
 11 10  1  0  0  0  0
 11  5  1  0  0  0  0
 11 12  1  0  0  0  0
 13 11  1  0  0  0  0
M  CHG  2   1  -1   3  -1
M  END
