1,4,5
q = -2.0, confidence = 0.764

 34 35  0  0  0  0  0  0  0  0999 V2000
   -0.5651   -0.8584   -0.2304 N   0  0  0  0  0  2  0  0  0  0  0  0
    0.7419   -1.2506   -0.1950 N   0  0  0  0  0  0  0  0  0  0  0  0
    7.2294   -0.7684   -0.0368 N   0  0  0  0  0  0  0  0  0  0  0  0
   -2.6667    0.7796   -0.0530 O   0  5  0  0  0  0  0  0  0  0  0  0
    1.0223    1.0310   -0.1881 O   0  5  0  0  0  0  0  0  0  0  0  0
   -7.0380   -1.1696    0.0265 O   0  0  0  0  0  0  0  0  0  0  0  0
    7.6836   -1.9125   -0.0024 O   0  0  0  0  0  0  0  0  0  0  0  0
    7.9029    0.2627   -0.0366 O   0  0  0  0  0  0  0  0  0  0  0  0
   -2.8827   -1.6054   -0.1596 C   0  0  0  0  0  0  0  0  0  0  0  0
   -3.4406   -0.2855   -0.0827 C   0  0  0  0  0  0  0  0  0  0  0  0
   -4.8423   -0.1170   -0.0174 C   0  0  0  0  0  0  0  0  0  0  0  0
   -5.2231    0.9094    0.0436 H   0  0  0  0  0  0  0  0  0  0  0  0
   -5.6879   -1.2388   -0.0300 C   0  0  0  0  0  0  0  0  0  0  0  0
   -5.1455   -2.5515   -0.1049 C   0  0  0  0  0  0  0  0  0  0  0  0
   -5.8372   -3.4046   -0.1127 H   0  0  0  0  0  0  0  0  0  0  0  0
   -3.7720   -2.7166   -0.1646 C   0  0  0  0  0  0  0  0  0  0  0  0
   -3.3447   -3.7299   -0.2209 H   0  0  0  0  0  0  0  0  0  0  0  0
   -7.6536    0.1065    0.0996 C   0  0  0  0  0  0  0  0  0  0  0  0
   -7.3469    0.6576    1.0156 H   0  0  0  0  0  0  0  0  0  0  0  0
   -8.7432   -0.0755    0.1332 H   0  0  0  0  0  0  0  0  0  0  0  0
   -7.4143    0.7284   -0.7909 H   0  0  0  0  0  0  0  0  0  0  0  0
   -1.4710   -1.8140   -0.1895 C   0  0  0  0  0  3  0  0  0  0  0  0
   -1.0852   -2.8506   -0.1684 H   0  0  0  0  0  0  0  0  0  0  0  0
    1.5171   -0.1831   -0.1919 C   0  0  0  0  0  0  0  0  0  0  0  0
    2.9849   -0.3451   -0.1585 C   0  0  0  0  0  0  0  0  0  0  0  0
    3.5682   -1.6329   -0.1194 C   0  0  0  0  0  0  0  0  0  0  0  0
    2.9061   -2.5098   -0.1206 H   0  0  0  0  0  0  0  0  0  0  0  0
    4.9560   -1.7753   -0.0804 C   0  0  0  0  0  0  0  0  0  0  0  0
    5.4441   -2.7582   -0.0494 H   0  0  0  0  0  0  0  0  0  0  0  0
    5.7548   -0.6209   -0.0811 C   0  0  0  0  0  0  0  0  0  0  0  0
    5.2029    0.6665   -0.1220 C   0  0  0  0  0  0  0  0  0  0  0  0
    5.8767    1.5333   -0.1234 H   0  0  0  0  0  0  0  0  0  0  0  0
    3.8121    0.8001   -0.1609 C   0  0  0  0  0  0  0  0  0  0  0  0
    3.3391    1.7913   -0.1974 H   0  0  0  0  0  0  0  0  0  0  0  0
  1  2  1  0  0  0  0
  1 22  1  0  0  0  0
  2 24  2  0  0  0  0
  3  8  2  0  0  0  0
  3  7  2  0  0  0  0
  6 18  1  0  0  0  0
  9 10  1  0  0  0  0
 10  4  1  0  0  0  0
 10 11  2  0  0  0  0
 11 12  1  0  0  0  0
 13 11  1  0  0  0  0
 13  6  1  0  0  0  0
 14 13  2  0  0  0  0
 15 14  1  0  0  0  0
 16  9  2  0  0  0  0
 16 14  1  0  0  0  0
 17 16  1  0  0  0  0
 18 20  1  0  0  0  0
 18 19  1  0  0  0  0
 21 18  1  0  0  0  0
 22 23  1  0  0  0  0
 22  9  1  0  0  0  0
 24  5  1  0  0  0  0
 24 25  1  0  0  0  0
 25 26  1  0  0  0  0
 26 28  2  0  0  0  0
 27 26  1  0  0  0  0
 28 29  1  0  0  0  0
 30 28  1  0  0  0  0
 30  3  1  0  0  0  0
 31 30  2  0  0  0  0
 32 31  1  0  0  0  0
 33 25  2  0  0  0  0
 33 31  1  0  0  0  0
 34 33  1  0  0  0  0
M  CHG  2   4  -1   5  -1
M  END
