1,2,3
q = -1.0, confidence = 0.062

 42 44  0  0  1  0  0  0  0  0999 V2000
   -0.1805    0.7045   -1.4029 O   0  5  0  0  0  0  0  0  0  0  0  0
    2.8257   -1.2147    0.7091 O   0  0  0  0  0  1  0  0  0  0  0  0
    0.8831   -1.8851   -0.9958 N   0  0  0  0  0  2  0  0  0  0  0  0
    1.9016   -2.7483   -0.7145 N   0  0  0  0  0  0  0  0  0  0  0  0
    1.9165   -3.6949   -1.1045 H   0  0  0  0  0  0  0  0  0  0  0  0
   -2.4926    0.4949   -1.8083 N   0  0  0  0  0  0  0  0  0  0  0  0
   -3.4251   -0.5081   -1.9671 N   0  0  0  0  0  0  0  0  0  0  0  0
    4.8639   -2.9883    1.3315 O   0  0  0  0  0  0  0  0  0  0  0  0
   -1.2098   -0.0132   -1.5914 C   0  0  0  0  0  0  0  0  0  0  0  0
   -2.9246    1.8361   -1.7452 C   0  0  0  0  0  0  0  0  0  0  0  0
   -0.3068   -2.3693   -1.3501 C   0  0  1  0  0  3  0  0  0  0  0  0
    4.0289   -3.2332    0.2797 C   0  0  0  0  0  0  0  0  0  0  0  0
    2.8916   -2.3194    0.1262 C   0  0  1  0  0  3  0  0  0  0  0  0
   -1.3663   -1.4512   -1.6155 C   0  0  0  0  0  0  0  0  0  0  0  0
   -2.0066    2.9110   -1.7591 C   0  0  0  0  0  0  0  0  0  0  0  0
   -0.9345    2.6939   -1.8266 H   0  0  0  0  0  0  0  0  0  0  0  0
   -4.7649    3.4227   -1.5856 C   0  0  0  0  0  0  0  0  0  0  0  0
   -5.8469    3.6140   -1.5166 H   0  0  0  0  0  0  0  0  0  0  0  0
    4.4846   -4.3326   -0.4341 C   0  0  0  0  0  0  0  0  0  0  0  0
    4.0482   -4.7527   -1.3476 H   0  0  0  0  0  0  0  0  0  0  0  0
   -4.3096    2.1014   -1.6593 C   0  0  0  0  0  0  0  0  0  0  0  0
   -4.9995    1.2485   -1.6483 H   0  0  0  0  0  0  0  0  0  0  0  0
   -3.8589    4.4973   -1.5903 C   0  0  0  0  0  0  0  0  0  0  0  0
   -4.2224    5.5342   -1.5308 H   0  0  0  0  0  0  0  0  0  0  0  0
   -0.5209   -3.8626   -1.4833 C   0  0  0  0  0  0  0  0  0  0  0  0
   -1.5790   -4.0913   -1.2746 H   0  0  0  0  0  0  0  0  0  0  0  0
    0.0480   -4.3852   -0.6840 H   0  0  0  0  0  0  0  0  0  0  0  0
   -2.4836    4.2273   -1.6778 C   0  0  0  0  0  0  0  0  0  0  0  0
   -1.7600    5.0578   -1.6928 H   0  0  0  0  0  0  0  0  0  0  0  0
   -2.7791   -1.6587   -1.8613 C   0  0  0  0  0  0  0  0  0  0  0  0
   -3.5763   -2.9212   -1.9785 C   0  0  0  0  0  0  0  0  0  0  0  0
   -4.6225   -2.6498   -2.2130 H   0  0  0  0  0  0  0  0  0  0  0  0
   -3.5807   -3.4912   -1.0261 H   0  0  0  0  0  0  0  0  0  0  0  0
   -3.1997   -3.5886   -2.7809 H   0  0  0  0  0  0  0  0  0  0  0  0
    5.6646   -4.7824    0.2343 C   0  0  0  0  0  0  0  0  0  0  0  0
    6.3061   -5.6257   -0.0428 H   0  0  0  0  0  0  0  0  0  0  0  0
    5.8437   -3.9247    1.2991 C   0  0  0  0  0  0  0  0  0  0  0  0
    6.5952   -3.8559    2.0922 H   0  0  0  0  0  0  0  0  0  0  0  0
   -0.1330   -4.4026   -2.8697 C   0  0  0  0  0  0  0  0  0  0  0  0
   -0.3109   -5.4945   -2.9371 H   0  0  0  0  0  0  0  0  0  0  0  0
    0.9346   -4.2160   -3.1128 H   0  0  0  0  0  0  0  0  0  0  0  0
   -0.7292   -3.9063   -3.6610 H   0  0  0  0  0  0  0  0  0  0  0  0
  3  4  1  0  0  0  0
  4 13  1  0  0  0  0
  5  4  1  0  0  0  0
  6 10  1  0  0  0  0
  6  9  1  0  0  0  0
  7 30  2  0  0  0  0
  7  6  1  0  0  0  0
  9  1  1  0  0  0  0
 10 21  1  0  0  0  0
 11  3  1  6  0  0  0
 12  8  1  0  0  0  0
 13 12  1  0  0  0  0
 13  2  1  6  0  0  0
 14  9  2  0  0  0  0
 14 11  1  0  0  0  0
 15 10  2  0  0  0  0
 15 28  1  0  0  0  0
 16 15  1  0  0  0  0
 17 18  1  0  0  0  0
 19 35  1  0  0  0  0
 19 12  2  0  0  0  0
 20 19  1  0  0  0  0
 21 22  1  0  0  0  0
 21 17  2  0  0  0  0
 23 17  1  0  0  0  0
 23 24  1  0  0  0  0
 25 11  1  0  0  0  0
 25 26  1  0  0  0  0
 25 27  1  0  0  0  0
 28 23  2  0  0  0  0
 29 28  1  0  0  0  0
 30 14  1  0  0  0  0
 31 30  1  0  0  0  0
 31 33  1  0  0  0  0
 32 31  1  0  0  0  0
 34 31  1  0  0  0  0
 35 37  2  0  0  0  0
 36 35  1  0  0  0  0
 37  8  1  0  0  0  0
 37 38  1  0  0  0  0
 39 25  1  0  0  0  0
 40 39  1  0  0  0  0
 41 39  1  0  0  0  0
 42 39  1  0  0  0  0
M  CHG  1   1  -1
M  END
