1,2,4
q = -2.0, confidence = 0.802

 32 33  0  0  0  0  0  0  0  0999 V2000
    2.0400   -1.3972   -0.3284 O   0  5  0  0  0  0  0  0  0  0  0  0
   -1.6341   -0.6021    0.1053 O   0  5  0  0  0  0  0  0  0  0  0  0
   -4.2469   -0.6462    0.1326 O   0  0  0  0  0  0  0  0  0  0  0  0
    0.7072    0.8298   -0.1029 N   0  0  0  0  0  2  0  0  0  0  0  0
    2.7763   -0.2945   -0.1826 C   0  0  0  0  0  0  0  0  0  0  0  0
    4.1847   -0.3398   -0.1666 C   0  0  0  0  0  0  0  0  0  0  0  0
    4.6753   -1.3143   -0.3033 H   0  0  0  0  0  0  0  0  0  0  0  0
    4.9330    0.8309    0.0332 C   0  0  0  0  0  0  0  0  0  0  0  0
    4.2487    2.0595    0.2197 C   0  0  0  0  0  0  0  0  0  0  0  0
    4.8285    2.9794    0.3909 H   0  0  0  0  0  0  0  0  0  0  0  0
    2.8542    2.1210    0.1955 C   0  0  0  0  0  0  0  0  0  0  0  0
    2.3511    3.0864    0.3542 H   0  0  0  0  0  0  0  0  0  0  0  0
    2.1016    0.9485   -0.0230 C   0  0  0  0  0  0  0  0  0  0  0  0
   -0.1014    1.8594   -0.1398 C   0  0  0  0  0  3  0  0  0  0  0  0
    0.3311    2.8801   -0.1514 H   0  0  0  0  0  0  0  0  0  0  0  0
   -1.5411    1.7995   -0.1668 C   0  0  0  0  0  0  0  0  0  0  0  0
   -2.2423    0.5654   -0.0378 C   0  0  0  0  0  0  0  0  0  0  0  0
   -3.6745    0.5732   -0.0160 C   0  0  0  0  0  0  0  0  0  0  0  0
   -4.3659    1.7872   -0.1403 C   0  0  0  0  0  0  0  0  0  0  0  0
   -5.4642    1.7970   -0.1329 H   0  0  0  0  0  0  0  0  0  0  0  0
   -3.6631    3.0056   -0.2750 C   0  0  0  0  0  0  0  0  0  0  0  0
   -4.2264    3.9448   -0.3731 H   0  0  0  0  0  0  0  0  0  0  0  0
   -2.2744    3.0155   -0.2815 C   0  0  0  0  0  0  0  0  0  0  0  0
   -1.7195    3.9608   -0.3807 H   0  0  0  0  0  0  0  0  0  0  0  0
    6.4397    0.7944    0.0571 C   0  0  0  0  0  0  0  0  0  0  0  0
    6.8274   -0.2362   -0.0523 H   0  0  0  0  0  0  0  0  0  0  0  0
    6.8371    1.2123    1.0055 H   0  0  0  0  0  0  0  0  0  0  0  0
    6.8661    1.4077   -0.7647 H   0  0  0  0  0  0  0  0  0  0  0  0
   -5.6591   -0.7256    0.1337 C   0  0  0  0  0  0  0  0  0  0  0  0
   -6.1064   -0.1514    0.9766 H   0  0  0  0  0  0  0  0  0  0  0  0
   -5.9109   -1.7954    0.2521 H   0  0  0  0  0  0  0  0  0  0  0  0
   -6.0944   -0.3545   -0.8214 H   0  0  0  0  0  0  0  0  0  0  0  0
  1  5  1  0  0  0  0
  3 29  1  0  0  0  0
  4 13  1  0  0  0  0
  5  6  2  0  0  0  0
  5 13  1  0  0  0  0
  6  8  1  0  0  0  0
  7  6  1  0  0  0  0
  8 25  1  0  0  0  0
  8  9  2  0  0  0  0
  9 10  1  0  0  0  0
 11  9  1  0  0  0  0
 11 12  1  0  0  0  0
 13 11  2  0  0  0  0
 14  4  1  0  0  0  0
 15 14  1  0  0  0  0
 16 14  1  0  0  0  0
 16 17  1  0  0  0  0
 17 18  2  0  0  0  0
 17  2  1  0  0  0  0
 18  3  1  0  0  0  0
 19 20  1  0  0  0  0
 19 18  1  0  0  0  0
 21 19  2  0  0  0  0
 22 21  1  0  0  0  0
 23 21  1  0  0  0  0
 23 16  2  0  0  0  0
 24 23  1  0  0  0  0
 25 27  1  0  0  0  0
 26 25  1  0  0  0  0
 28 25  1  0  0  0  0
 29 31  1  0  0  0  0
 29 30  1  0  0  0  0
 32 29  1  0  0  0  0
M  CHG  2   1  -1   2  -1
M  END
