1,3,4
q = -1.0

 23 23  0  0  1  0  0  0  0  0999 V2000
   -3.2551   -0.3687   -0.0079 O   0  5  0  0  0  0  0  0  0  0  0  0
   -4.3679    1.6126    0.0823 O   0  0  0  0  0  0  0  0  0  0  0  0
    0.5691   -1.1795   -0.0605 O   0  0  0  0  0  1  0  0  0  0  0  0
   -1.0198    0.7640    0.0066 N   0  0  0  0  0  2  0  0  0  0  0  0
    0.3013    1.0571    0.0118 N   0  0  0  0  0  0  0  0  0  0  0  0
    0.6478    2.0156    0.1257 H   0  0  0  0  0  0  0  0  0  0  0  0
    5.3880    0.3180    0.0400 N   0  0  0  0  0  0  0  0  0  0  0  0
   -3.3538    0.9288    0.0458 C   0  0  0  0  0  0  0  0  0  0  0  0
   -1.9810    1.6290    0.0620 C   0  0  1  0  0  3  0  0  0  0  0  0
   -1.8596    3.1088    0.1375 C   0  0  0  0  0  0  0  0  0  0  0  0
   -1.3595    3.4273    1.0780 H   0  0  0  0  0  0  0  0  0  0  0  0
   -2.8825    3.5307    0.1199 H   0  0  0  0  0  0  0  0  0  0  0  0
   -1.2794    3.5185   -0.7171 H   0  0  0  0  0  0  0  0  0  0  0  0
    1.1088   -0.0566   -0.0272 C   0  0  1  0  0  3  0  0  0  0  0  0
    2.5802    0.1176   -0.0156 C   0  0  0  0  0  0  0  0  0  0  0  0
    3.3771   -1.0116    0.2535 C   0  0  0  0  0  0  0  0  0  0  0  0
    2.8998   -1.9835    0.4438 H   0  0  0  0  0  0  0  0  0  0  0  0
    4.7704   -0.8519    0.2722 C   0  0  0  0  0  0  0  0  0  0  0  0
    5.4215   -1.7174    0.4862 H   0  0  0  0  0  0  0  0  0  0  0  0
    4.6233    1.3867   -0.2294 C   0  0  0  0  0  0  0  0  0  0  0  0
    5.1529    2.3345   -0.4307 H   0  0  0  0  0  0  0  0  0  0  0  0
    3.2210    1.3466   -0.2706 C   0  0  0  0  0  0  0  0  0  0  0  0
    2.6639    2.2604   -0.5295 H   0  0  0  0  0  0  0  0  0  0  0  0
  1  8  1  0  0  0  0
  4  5  1  0  0  0  0
  5  6  1  0  0  0  0
  7 18  1  0  0  0  0
  8  9  1  0  0  0  0
  8  2  2  0  0  0  0
  9  4  1  1  0  0  0
  9 10  1  0  0  0  0
 10 11  1  0  0  0  0
 12 10  1  0  0  0  0
 13 10  1  0  0  0  0
 14  3  1  1  0  0  0
 14 15  1  0  0  0  0
 14  5  1  0  0  0  0
 15 16  1  0  0  0  0
 16 18  2  0  0  0  0
 16 17  1  0  0  0  0
 18 19  1  0  0  0  0
 20  7  2  0  0  0  0
 21 20  1  0  0  0  0
 22 20  1  0  0  0  0
 22 15  2  0  0  0  0
 23 22  1  0  0  0  0
M  CHG  1   1  -1
M  END
