1,10,11
q = -2.0, confidence = 0.818

 20 20  0  0  1  0  0  0  0  0999 V2000
    0.0011    2.2159   -0.1094 O   0  5  0  0  0  0  0  0  0  0  0  0
    1.7028    3.3827   -1.0091 O   0  0  0  0  0  0  0  0  0  0  0  0
    4.0196    2.7463   -1.9138 O   0  0  0  0  0  0  0  0  0  0  0  0
    3.1465    3.0757   -1.4991 H   0  0  0  0  0  0  0  0  0  0  0  0
    5.2007    0.8622   -2.1738 O   0  0  0  0  0  0  0  0  0  0  0  0
    5.2105   -2.2438    1.3309 O   0  0  0  0  0  0  0  0  0  0  0  0
    3.3535   -3.4458    1.6764 O   0  0  0  0  0  0  0  0  0  0  0  0
    2.3334   -3.3560    1.6374 H   0  0  0  0  0  0  0  0  0  0  0  0
    0.8300   -3.0429    1.6886 O   0  5  0  0  0  0  0  0  0  0  0  0
   -0.4716   -1.2501    1.3141 O   0  0  0  0  0  0  0  0  0  0  0  0
    1.3117    0.1604    0.3294 N   0  0  0  0  0  2  0  0  0  0  0  0
    3.9182   -0.3918   -0.1508 N   0  0  0  0  0  0  0  0  0  0  0  0
    1.2365    2.3394   -0.5325 C   0  0  0  0  0  0  0  0  0  0  0  0
    2.0527    1.0857   -0.3253 C   0  0  1  0  0  3  0  0  0  0  0  0
    3.3858    0.7328   -0.6530 C   0  0  0  0  0  0  0  0  0  0  0  0
    4.2893    1.4738   -1.6575 C   0  0  0  0  0  0  0  0  0  0  0  0
    0.6716   -1.8746    1.3023 C   0  0  0  0  0  0  0  0  0  0  0  0
    1.8000   -1.0294    0.7472 C   0  0  0  0  0  0  0  0  0  0  0  0
    3.1897   -1.2543    0.5765 C   0  0  0  0  0  0  0  0  0  0  0  0
    4.0086   -2.3802    1.2395 C   0  0  0  0  0  0  0  0  0  0  0  0
  2 13  2  0  0  0  0
  3 16  1  0  0  0  0
  3  4  1  0  0  0  0
  5 16  2  0  0  0  0
  8  7  1  0  0  0  0
 11 18  1  0  0  0  0
 12 19  1  0  0  0  0
 13  1  1  0  0  0  0
 14 13  1  1  0  0  0
 14 11  1  0  0  0  0
 15 14  1  0  0  0  0
 15 12  2  0  0  0  0
 16 15  1  0  0  0  0
 17 10  2  0  0  0  0
 17  9  1  0  0  0  0
 18 17  1  0  0  0  0
 19 18  2  0  0  0  0
 19 20  1  0  0  0  0
 20  6  2  0  0  0  0
 20  7  1  0  0  0  0
M  CHG  2   1  -1   9  -1
M  END
