3,4,5
q = -2.0, confidence = 0.896

 28 28  0  0  1  0  0  0  0  0999 V2000
    6.5936   -0.0607   -0.0433 Br  0  0  0  0  0  0  0  0  0  0  0  0
   -0.0778   -1.9772    0.3694 N   0  0  0  0  0  0  0  0  0  0  0  0
   -1.4207   -1.9831    0.1163 N   0  0  0  0  0  2  0  0  0  0  0  0
   -0.2178   -0.2267   -1.1011 O   0  5  0  0  0  0  0  0  0  0  0  0
   -3.7851   -0.7962   -0.2551 O   0  5  0  0  0  0  0  0  0  0  0  0
    1.9515   -0.8035   -0.2607 C   0  0  0  0  0  0  0  0  0  0  0  0
    2.5401    0.2478   -0.9947 C   0  0  0  0  0  0  0  0  0  0  0  0
    1.8939    0.8867   -1.6134 H   0  0  0  0  0  0  0  0  0  0  0  0
    3.9206    0.4727   -0.9361 C   0  0  0  0  0  0  0  0  0  0  0  0
    4.3808    1.2906   -1.5080 H   0  0  0  0  0  0  0  0  0  0  0  0
    4.7169   -0.3606   -0.1336 C   0  0  0  0  0  0  0  0  0  0  0  0
    4.1497   -1.4140    0.6066 C   0  0  0  0  0  0  0  0  0  0  0  0
    4.7893   -2.0565    1.2278 H   0  0  0  0  0  0  0  0  0  0  0  0
    2.7705   -1.6309    0.5389 C   0  0  0  0  0  0  0  0  0  0  0  0
    2.3020   -2.4472    1.1067 H   0  0  0  0  0  0  0  0  0  0  0  0
    0.4946   -1.0162   -0.3299 C   0  0  0  0  0  0  0  0  0  0  0  0
   -1.4202   -4.1036    1.3323 C   0  0  0  0  0  0  0  0  0  0  0  0
   -0.9035   -3.7124    2.2323 H   0  0  0  0  0  0  0  0  0  0  0  0
   -0.6212   -4.5187    0.6864 H   0  0  0  0  0  0  0  0  0  0  0  0
   -2.1205   -4.9044    1.6306 H   0  0  0  0  0  0  0  0  0  0  0  0
   -2.1380   -2.9909    0.6194 C   0  0  1  0  0  3  0  0  0  0  0  0
   -3.5607   -3.0148    0.5198 C   0  0  0  0  0  0  0  0  0  0  0  0
   -4.0805   -3.9074    0.8906 H   0  0  0  0  0  0  0  0  0  0  0  0
   -4.3256   -1.9186    0.1331 C   0  0  0  0  0  0  0  0  0  0  0  0
   -5.8272   -1.9152    0.1894 C   0  0  0  0  0  0  0  0  0  0  0  0
   -6.2340   -1.7594   -0.8316 H   0  0  0  0  0  0  0  0  0  0  0  0
   -6.1769   -1.0608    0.8047 H   0  0  0  0  0  0  0  0  0  0  0  0
   -6.2312   -2.8573    0.6019 H   0  0  0  0  0  0  0  0  0  0  0  0
  3  2  1  0  0  0  0
  4 16  1  0  0  0  0
  5 24  1  0  0  0  0
  6 14  1  0  0  0  0
  7  9  1  0  0  0  0
  7  6  2  0  0  0  0
  8  7  1  0  0  0  0
  9 11  2  0  0  0  0
 10  9  1  0  0  0  0
 11  1  1  0  0  0  0
 11 12  1  0  0  0  0
 12 13  1  0  0  0  0
 14 12  2  0  0  0  0
 14 15  1  0  0  0  0
 16  6  1  0  0  0  0
 16  2  2  0  0  0  0
 17 20  1  0  0  0  0
 17 18  1  0  0  0  0
 19 17  1  0  0  0  0
 21  3  1  1  0  0  0
 21 17  1  0  0  0  0
 22 21  1  0  0  0  0
 22 23  1  0  0  0  0
 24 25  1  0  0  0  0
 24 22  2  0  0  0  0
 25 28  1  0  0  0  0
 25 27  1  0  0  0  0
 26 25  1  0  0  0  0
M  CHG  2   4  -1   5  -1
M  END
