3,5,6
q = -2.0, confidence = 0.954

 31 32  0  0  0  0  0  0  0  0999 V2000
   -4.1538    2.2312    0.2081 Cl  0  0  0  0  0  0  0  0  0  0  0  0
   -5.8634   -2.9156   -0.2304 Cl  0  0  0  0  0  0  0  0  0  0  0  0
    0.2530   -0.9953   -0.0859 N   0  0  0  0  0  2  0  0  0  0  0  0
    1.4619   -1.6022    0.0081 N   0  0  0  0  0  0  0  0  0  0  0  0
   -1.4953    1.0347    0.0731 O   0  5  0  0  0  0  0  0  0  0  0  0
    2.1435    0.5889   -0.1048 O   0  5  0  0  0  0  0  0  0  0  0  0
   -2.1674   -1.2712   -0.1058 C   0  0  0  0  0  0  0  0  0  0  0  0
   -2.4474    0.1304   -0.0135 C   0  0  0  0  0  0  0  0  0  0  0  0
   -3.8108    0.5351    0.0388 C   0  0  0  0  0  0  0  0  0  0  0  0
   -4.8557   -0.3906   -0.0293 C   0  0  0  0  0  0  0  0  0  0  0  0
   -5.8971   -0.0455    0.0071 H   0  0  0  0  0  0  0  0  0  0  0  0
   -4.5562   -1.7631   -0.1399 C   0  0  0  0  0  0  0  0  0  0  0  0
   -3.2334   -2.2035   -0.1685 C   0  0  0  0  0  0  0  0  0  0  0  0
   -3.0133   -3.2780   -0.2388 H   0  0  0  0  0  0  0  0  0  0  0  0
   -0.8114   -1.7597   -0.0711 C   0  0  0  0  0  3  0  0  0  0  0  0
   -0.6428   -2.8514   -0.0165 H   0  0  0  0  0  0  0  0  0  0  0  0
    2.4246   -0.6912   -0.0304 C   0  0  0  0  0  0  0  0  0  0  0  0
    3.8386   -1.1240    0.0375 C   0  0  0  0  0  0  0  0  0  0  0  0
    4.9301   -0.2428   -0.2229 C   0  0  0  0  0  0  0  0  0  0  0  0
    6.2332   -0.7725   -0.1206 C   0  0  0  0  0  0  0  0  0  0  0  0
    7.0853   -0.1051   -0.3245 H   0  0  0  0  0  0  0  0  0  0  0  0
    6.4732   -2.1090    0.2235 C   0  0  0  0  0  0  0  0  0  0  0  0
    7.5074   -2.4792    0.2940 H   0  0  0  0  0  0  0  0  0  0  0  0
    5.3919   -2.9695    0.4712 C   0  0  0  0  0  0  0  0  0  0  0  0
    5.5644   -4.0226    0.7388 H   0  0  0  0  0  0  0  0  0  0  0  0
    4.0896   -2.4759    0.3745 C   0  0  0  0  0  0  0  0  0  0  0  0
    3.2216   -3.1239    0.5587 H   0  0  0  0  0  0  0  0  0  0  0  0
    4.7697    1.2043   -0.6191 C   0  0  0  0  0  0  0  0  0  0  0  0
    5.7553    1.6468   -0.8615 H   0  0  0  0  0  0  0  0  0  0  0  0
    4.3028    1.8013    0.1890 H   0  0  0  0  0  0  0  0  0  0  0  0
    4.1015    1.3180   -1.4950 H   0  0  0  0  0  0  0  0  0  0  0  0
  2 12  1  0  0  0  0
  3 15  1  0  0  0  0
  3  4  1  0  0  0  0
  6 17  1  0  0  0  0
  7 15  1  0  0  0  0
  7  8  1  0  0  0  0
  8  9  2  0  0  0  0
  8  5  1  0  0  0  0
  9  1  1  0  0  0  0
 10 11  1  0  0  0  0
 10  9  1  0  0  0  0
 12 10  2  0  0  0  0
 13 12  1  0  0  0  0
 13  7  2  0  0  0  0
 14 13  1  0  0  0  0
 15 16  1  0  0  0  0
 17  4  2  0  0  0  0
 17 18  1  0  0  0  0
 18 26  1  0  0  0  0
 19 20  1  0  0  0  0
 19 18  2  0  0  0  0
 20 22  2  0  0  0  0
 21 20  1  0  0  0  0
 22 23  1  0  0  0  0
 22 24  1  0  0  0  0
 24 25  1  0  0  0  0
 26 24  2  0  0  0  0
 26 27  1  0  0  0  0
 28 19  1  0  0  0  0
 28 30  1  0  0  0  0
 29 28  1  0  0  0  0
 31 28  1  0  0  0  0
M  CHG  2   5  -1   6  -1
M  END
