13,14,15
q = -3.0

 47 48  0  0  0  0  0  0  0  0999 V2000
    3.8878    2.2299   -1.6620 F   0  0  0  0  0  0  0  0  0  0  0  0
    3.4999    0.4295   -2.8350 F   0  0  0  0  0  0  0  0  0  0  0  0
    1.8514    1.7372   -2.2690 F   0  0  0  0  0  0  0  0  0  0  0  0
    5.2114    0.3923   -0.1767 F   0  0  0  0  0  0  0  0  0  0  0  0
    4.3014   -1.4101   -0.9835 F   0  0  0  0  0  0  0  0  0  0  0  0
    3.9910   -0.8926    1.1046 F   0  0  0  0  0  0  0  0  0  0  0  0
   -1.9657    0.4668    2.4533 F   0  0  0  0  0  0  0  0  0  0  0  0
   -3.3928   -1.1794    2.3788 F   0  0  0  0  0  0  0  0  0  0  0  0
   -4.0840    0.8745    2.1310 F   0  0  0  0  0  0  0  0  0  0  0  0
   -4.0996   -2.0801   -0.1105 F   0  0  0  0  0  0  0  0  0  0  0  0
   -5.2477   -0.2354   -0.0534 F   0  0  0  0  0  0  0  0  0  0  0  0
   -3.9287   -0.6562   -1.7477 F   0  0  0  0  0  0  0  0  0  0  0  0
    1.8675   -0.5933   -0.7866 O   0  0  0  0  0  1  0  0  0  0  0  0
   -1.7871   -0.9805    0.1173 O   0  0  0  0  0  1  0  0  0  0  0  0
   -0.0602    0.9783   -0.0486 N   0  0  0  0  0  2  0  0  0  0  0  0
    2.7946    0.4033   -0.5263 C   0  0  0  0  0  0  0  0  0  0  0  0
    2.3240    1.3487    0.5782 C   0  0  0  0  0  0  0  0  0  0  0  0
    0.9334    1.5832    0.7537 C   0  0  0  0  0  0  0  0  0  0  0  0
    0.5347    2.4663    1.7887 C   0  0  0  0  0  0  0  0  0  0  0  0
   -0.5396    2.6221    1.9544 H   0  0  0  0  0  0  0  0  0  0  0  0
    1.4687    3.1253    2.5845 C   0  0  0  0  0  0  0  0  0  0  0  0
    1.1156    3.8011    3.3797 H   0  0  0  0  0  0  0  0  0  0  0  0
    2.8529    2.9348    2.3917 C   0  0  0  0  0  0  0  0  0  0  0  0
    3.2480    2.0442    1.3811 C   0  0  0  0  0  0  0  0  0  0  0  0
    4.3221    1.8915    1.2141 H   0  0  0  0  0  0  0  0  0  0  0  0
    3.0242    1.2122   -1.8513 C   0  0  0  0  0  0  0  0  0  0  0  0
    4.1036   -0.3831   -0.1454 C   0  0  0  0  0  0  0  0  0  0  0  0
    3.8652    3.6505    3.2479 C   0  0  0  0  0  0  0  0  0  0  0  0
    4.9014    3.4219    2.9328 H   0  0  0  0  0  0  0  0  0  0  0  0
    3.7654    3.3629    4.3159 H   0  0  0  0  0  0  0  0  0  0  0  0
    3.7294    4.7510    3.1996 H   0  0  0  0  0  0  0  0  0  0  0  0
   -2.8337   -0.0843    0.2989 C   0  0  0  0  0  0  0  0  0  0  0  0
   -2.5338    1.3092   -0.2597 C   0  0  0  0  0  0  0  0  0  0  0  0
   -1.1948    1.7620   -0.3886 C   0  0  0  0  0  0  0  0  0  0  0  0
   -0.9711    3.0630   -0.9050 C   0  0  0  0  0  0  0  0  0  0  0  0
    0.0685    3.3937   -1.0362 H   0  0  0  0  0  0  0  0  0  0  0  0
   -2.0287    3.9032   -1.2397 C   0  0  0  0  0  0  0  0  0  0  0  0
   -1.8151    4.9064   -1.6410 H   0  0  0  0  0  0  0  0  0  0  0  0
   -3.3669    3.4817   -1.0818 C   0  0  0  0  0  0  0  0  0  0  0  0
   -3.5871    2.1867   -0.5898 C   0  0  0  0  0  0  0  0  0  0  0  0
   -4.6235    1.8492   -0.4614 H   0  0  0  0  0  0  0  0  0  0  0  0
   -3.0886    0.0181    1.8400 C   0  0  0  0  0  0  0  0  0  0  0  0
   -4.0562   -0.7727   -0.4143 C   0  0  0  0  0  0  0  0  0  0  0  0
   -4.5145    4.3835   -1.4548 C   0  0  0  0  0  0  0  0  0  0  0  0
   -5.4893    3.9444   -1.1683 H   0  0  0  0  0  0  0  0  0  0  0  0
   -4.5377    4.5698   -2.5495 H   0  0  0  0  0  0  0  0  0  0  0  0
   -4.4261    5.3743   -0.9634 H   0  0  0  0  0  0  0  0  0  0  0  0
  2 26  1  0  0  0  0
  3 26  1  0  0  0  0
  4 27  1  0  0  0  0
  5 27  1  0  0  0  0
 12 43  1  0  0  0  0
 13 16  1  0  0  0  0
 14 32  1  0  0  0  0
 15 18  1  0  0  0  0
 16 27  1  0  0  0  0
 16 17  1  0  0  0  0
 17 18  2  0  0  0  0
 17 24  1  0  0  0  0
 18 19  1  0  0  0  0
 19 20  1  0  0  0  0
 19 21  2  0  0  0  0
 21 22  1  0  0  0  0
 23 21  1  0  0  0  0
 23 28  1  0  0  0  0
 24 23  2  0  0  0  0
 25 24  1  0  0  0  0
 26  1  1  0  0  0  0
 26 16  1  0  0  0  0
 27  6  1  0  0  0  0
 28 30  1  0  0  0  0
 29 28  1  0  0  0  0
 31 28  1  0  0  0  0
 32 42  1  0  0  0  0
 33 32  1  0  0  0  0
 34 33  1  0  0  0  0
 34 15  1  0  0  0  0
 35 34  2  0  0  0  0
 36 35  1  0  0  0  0
 37 39  2  0  0  0  0
 37 35  1  0  0  0  0
 38 37  1  0  0  0  0
 39 40  1  0  0  0  0
 40 41  1  0  0  0  0
 40 33  2  0  0  0  0
 42  9  1  0  0  0  0
 42  8  1  0  0  0  0
 42  7  1  0  0  0  0
 43 10  1  0  0  0  0
 43 11  1  0  0  0  0
 43 32  1  0  0  0  0
 44 45  1  0  0  0  0
 44 39  1  0  0  0  0
 44 47  1  0  0  0  0
 46 44  1  0  0  0  0
M  END
