3,5,6
q = -2.0, confidence = 0.926

 31 32  0  0  0  0  0  0  0  0999 V2000
    5.1174   -2.8575   -0.0703 I   0  0  0  0  0  0  0  0  0  0  0  0
    2.9901    2.8534    0.1955 I   0  0  0  0  0  0  0  0  0  0  0  0
   -1.3485   -0.9165   -0.0303 N   0  0  0  0  0  2  0  0  0  0  0  0
   -2.5451   -1.5434    0.0834 N   0  0  0  0  0  0  0  0  0  0  0  0
   -3.2731    0.5964   -0.3637 O   0  5  0  0  0  0  0  0  0  0  0  0
    0.3131    1.1768    0.1641 O   0  5  0  0  0  0  0  0  0  0  0  0
    1.0760   -1.1025    0.0313 C   0  0  0  0  0  0  0  0  0  0  0  0
    2.1753   -1.9965   -0.0006 C   0  0  0  0  0  0  0  0  0  0  0  0
    1.9802   -3.0782   -0.0297 H   0  0  0  0  0  0  0  0  0  0  0  0
    3.4818   -1.5073   -0.0015 C   0  0  0  0  0  0  0  0  0  0  0  0
    3.7338   -0.1213    0.0473 C   0  0  0  0  0  0  0  0  0  0  0  0
    4.7625    0.2636    0.0522 H   0  0  0  0  0  0  0  0  0  0  0  0
    2.6525    0.7657    0.0912 C   0  0  0  0  0  0  0  0  0  0  0  0
    1.3061    0.3128    0.0789 C   0  0  0  0  0  0  0  0  0  0  0  0
   -0.2628   -1.6402    0.0799 C   0  0  0  0  0  3  0  0  0  0  0  0
   -0.3942   -2.7298    0.2182 H   0  0  0  0  0  0  0  0  0  0  0  0
   -3.5197   -0.6688   -0.1196 C   0  0  0  0  0  0  0  0  0  0  0  0
   -4.9256   -1.1071   -0.0583 C   0  0  0  0  0  0  0  0  0  0  0  0
   -5.9640   -0.1809   -0.2848 C   0  0  0  0  0  0  0  0  0  0  0  0
   -5.7016    0.8621   -0.5129 H   0  0  0  0  0  0  0  0  0  0  0  0
   -7.3009   -0.5916   -0.2225 C   0  0  0  0  0  0  0  0  0  0  0  0
   -8.1036    0.1409   -0.4021 H   0  0  0  0  0  0  0  0  0  0  0  0
   -7.6410   -1.9290    0.0650 C   0  0  0  0  0  0  0  0  0  0  0  0
   -6.5907   -2.8488    0.2899 C   0  0  0  0  0  0  0  0  0  0  0  0
   -6.8339   -3.8992    0.5165 H   0  0  0  0  0  0  0  0  0  0  0  0
   -5.2541   -2.4512    0.2298 C   0  0  0  0  0  0  0  0  0  0  0  0
   -4.4374   -3.1657    0.4046 H   0  0  0  0  0  0  0  0  0  0  0  0
   -9.0777   -2.3783    0.1268 C   0  0  0  0  0  0  0  0  0  0  0  0
   -9.2938   -3.1354   -0.6563 H   0  0  0  0  0  0  0  0  0  0  0  0
   -9.7790   -1.5340   -0.0159 H   0  0  0  0  0  0  0  0  0  0  0  0
   -9.3087   -2.8554    1.1020 H   0  0  0  0  0  0  0  0  0  0  0  0
  1 10  1  0  0  0  0
  3 15  1  0  0  0  0
  3  4  1  0  0  0  0
  5 17  1  0  0  0  0
  7 14  1  0  0  0  0
  7 15  1  0  0  0  0
  8  7  2  0  0  0  0
  9  8  1  0  0  0  0
 10  8  1  0  0  0  0
 10 11  2  0  0  0  0
 11 12  1  0  0  0  0
 11 13  1  0  0  0  0
 13  2  1  0  0  0  0
 14 13  2  0  0  0  0
 14  6  1  0  0  0  0
 15 16  1  0  0  0  0
 17 18  1  0  0  0  0
 17  4  2  0  0  0  0
 18 26  1  0  0  0  0
 19 21  1  0  0  0  0
 19 18  2  0  0  0  0
 20 19  1  0  0  0  0
 21 23  2  0  0  0  0
 22 21  1  0  0  0  0
 23 28  1  0  0  0  0
 23 24  1  0  0  0  0
 24 25  1  0  0  0  0
 26 24  2  0  0  0  0
 26 27  1  0  0  0  0
 28 31  1  0  0  0  0
 29 28  1  0  0  0  0
 30 28  1  0  0  0  0
M  CHG  2   5  -1   6  -1
M  END
