9,10,11
q = -2.0, confidence = 0.958

 41 42  0  0  1  0  0  0  0  0999 V2000
    3.6804    5.9399    0.2043 Cl  0  0  0  0  0  0  0  0  0  0  0  0
   -3.6372    1.5971   -0.7184 F   0  0  0  0  0  0  0  0  0  0  0  0
   -3.8427   -0.2893   -1.8488 F   0  0  0  0  0  0  0  0  0  0  0  0
   -4.2741   -1.7075    0.3326 F   0  0  0  0  0  0  0  0  0  0  0  0
   -3.5910   -0.0794    1.6609 F   0  0  0  0  0  0  0  0  0  0  0  0
   -6.3008    0.0903   -0.5900 F   0  0  0  0  0  0  0  0  0  0  0  0
   -6.3519   -0.6042    1.4793 F   0  0  0  0  0  0  0  0  0  0  0  0
   -5.7052    1.4297    1.0332 F   0  0  0  0  0  0  0  0  0  0  0  0
   -1.6242   -1.2931   -0.5170 O   0  5  0  0  0  0  0  0  0  0  0  0
    1.7055   -2.7315   -0.1080 O   0  5  0  0  0  0  0  0  0  0  0  0
    0.9676   -0.3682   -0.1950 N   0  0  0  0  0  2  0  0  0  0  0  0
    2.3200   -0.5134   -0.0858 N   0  0  0  0  0  0  0  0  0  0  0  0
    1.2628    2.0833   -0.1385 C   0  0  0  0  0  0  0  0  0  0  0  0
    0.9906    3.1880   -0.9759 C   0  0  0  0  0  0  0  0  0  0  0  0
    0.1981    3.1111   -1.7350 H   0  0  0  0  0  0  0  0  0  0  0  0
    1.7304    4.3731   -0.8825 C   0  0  0  0  0  0  0  0  0  0  0  0
    1.5225    5.2220   -1.5484 H   0  0  0  0  0  0  0  0  0  0  0  0
    2.7530    4.4684    0.0738 C   0  0  0  0  0  0  0  0  0  0  0  0
    3.0370    3.3889    0.9277 C   0  0  0  0  0  0  0  0  0  0  0  0
    3.8347    3.4837    1.6778 H   0  0  0  0  0  0  0  0  0  0  0  0
    2.3013    2.2051    0.8133 C   0  0  0  0  0  0  0  0  0  0  0  0
    2.5297    1.3606    1.4750 H   0  0  0  0  0  0  0  0  0  0  0  0
    0.4250    0.8589   -0.2492 C   0  0  2  0  0  3  0  0  0  0  0  0
   -0.9869    1.0239   -0.4109 C   0  0  0  0  0  0  0  0  0  0  0  0
   -1.3841    2.0445   -0.4050 H   0  0  0  0  0  0  0  0  0  0  0  0
   -1.8880   -0.0184   -0.5343 C   0  0  0  0  0  0  0  0  0  0  0  0
   -3.3804    0.2560   -0.6854 C   0  0  0  0  0  0  0  0  0  0  0  0
   -4.2136   -0.3591    0.4863 C   0  0  0  0  0  0  0  0  0  0  0  0
   -5.6806    0.1615    0.5998 C   0  0  0  0  0  0  0  0  0  0  0  0
    2.6313   -1.7956   -0.0388 C   0  0  0  0  0  0  0  0  0  0  0  0
    4.0426   -2.2079    0.0961 C   0  0  0  0  0  0  0  0  0  0  0  0
    5.0773   -1.2457    0.1312 C   0  0  0  0  0  0  0  0  0  0  0  0
    4.8109   -0.1822    0.0487 H   0  0  0  0  0  0  0  0  0  0  0  0
    6.4099   -1.6523    0.2622 C   0  0  0  0  0  0  0  0  0  0  0  0
    7.2106   -0.8975    0.2873 H   0  0  0  0  0  0  0  0  0  0  0  0
    6.7287   -3.0185    0.3590 C   0  0  0  0  0  0  0  0  0  0  0  0
    7.7781   -3.3343    0.4616 H   0  0  0  0  0  0  0  0  0  0  0  0
    5.7042   -3.9786    0.3225 C   0  0  0  0  0  0  0  0  0  0  0  0
    5.9499   -5.0491    0.3969 H   0  0  0  0  0  0  0  0  0  0  0  0
    4.3684   -3.5778    0.1908 C   0  0  0  0  0  0  0  0  0  0  0  0
    3.5530   -4.3143    0.1596 H   0  0  0  0  0  0  0  0  0  0  0  0
  2 27  1  0  0  0  0
  3 27  1  0  0  0  0
  4 28  1  0  0  0  0
  6 29  1  0  0  0  0
 10 30  1  0  0  0  0
 11 12  1  0  0  0  0
 12 30  2  0  0  0  0
 13 21  1  0  0  0  0
 14 16  1  0  0  0  0
 14 13  2  0  0  0  0
 15 14  1  0  0  0  0
 16 18  2  0  0  0  0
 17 16  1  0  0  0  0
 18  1  1  0  0  0  0
 18 19  1  0  0  0  0
 19 20  1  0  0  0  0
 21 19  2  0  0  0  0
 21 22  1  0  0  0  0
 23 24  1  1  0  0  0
 23 11  1  0  0  0  0
 23 13  1  0  0  0  0
 24 25  1  0  0  0  0
 26  9  1  0  0  0  0
 26 24  2  0  0  0  0
 27 26  1  0  0  0  0
 27 28  1  0  0  0  0
 28 29  1  0  0  0  0
 28  5  1  0  0  0  0
 29  8  1  0  0  0  0
 29  7  1  0  0  0  0
 30 31  1  0  0  0  0
 31 32  2  0  0  0  0
 31 40  1  0  0  0  0
 32 34  1  0  0  0  0
 33 32  1  0  0  0  0
 34 35  1  0  0  0  0
 34 36  2  0  0  0  0
 36 37  1  0  0  0  0
 38 36  1  0  0  0  0
 38 39  1  0  0  0  0
 40 38  2  0  0  0  0
 41 40  1  0  0  0  0
M  CHG  2   9  -1  10  -1
M  END
