5,10,15
q = -1.0

 47 49  0  0  0  0  0  0  0  0999 V2000
    8.7097   -1.4813   -0.0372 N   0  0  0  0  0  0  0  0  0  0  0  0
    9.7063   -1.7093   -0.0420 H   0  0  0  0  0  0  0  0  0  0  0  0
    8.3290   -0.1619   -0.0185 C   0  0  0  0  0  3  0  0  0  0  0  0
    9.1386    0.5800   -0.0095 H   0  0  0  0  0  0  0  0  0  0  0  0
    3.7455   -1.5659   -0.0316 O   0  5  0  0  0  0  0  0  0  0  0  0
    4.2206    0.7113   -0.0002 N   0  0  0  0  0  0  0  0  0  0  0  0
    6.9901    0.1683   -0.0119 C   0  0  0  0  0  0  0  0  0  0  0  0
    6.6624    1.2163    0.0029 H   0  0  0  0  0  0  0  0  0  0  0  0
   -6.4428    1.4114   -0.0905 O   0  0  0  0  0  0  0  0  0  0  0  0
    2.8751    0.8043    0.0031 N   0  0  0  0  0  2  0  0  0  0  0  0
    6.0064   -0.8597   -0.0245 C   0  0  0  0  0  0  0  0  0  0  0  0
    7.7955   -2.4998   -0.0498 C   0  0  0  0  0  0  0  0  0  0  0  0
    8.2008   -3.5209   -0.0645 H   0  0  0  0  0  0  0  0  0  0  0  0
   -3.6872    1.0967    0.0240 N   0  0  0  0  0  0  0  0  0  0  0  0
    0.2449    0.1123   -0.0091 O   0  5  0  0  0  0  0  0  0  0  0  0
   -4.5634    0.0779    0.0080 N   0  0  0  0  0  0  0  0  0  0  0  0
   -4.2110   -0.8907   -0.0504 H   0  0  0  0  0  0  0  0  0  0  0  0
    6.4464   -2.2159   -0.0439 C   0  0  0  0  0  0  0  0  0  0  0  0
    5.6902   -3.0132   -0.0537 H   0  0  0  0  0  0  0  0  0  0  0  0
   -8.4739   -3.2185    0.0212 N   0  0  0  0  0  0  0  0  0  0  0  0
    4.5745   -0.5824   -0.0188 C   0  0  0  0  0  0  0  0  0  0  0  0
    2.3977    2.0446    0.0228 C   0  0  0  0  0  3  0  0  0  0  0  0
    3.1489    2.8585    0.0346 H   0  0  0  0  0  0  0  0  0  0  0  0
    1.0226    2.3910    0.0301 C   0  0  0  0  0  0  0  0  0  0  0  0
    0.6535    3.7678    0.0546 C   0  0  0  0  0  0  0  0  0  0  0  0
    1.4589    4.5204    0.0669 H   0  0  0  0  0  0  0  0  0  0  0  0
   -0.6772    4.1797    0.0634 C   0  0  0  0  0  0  0  0  0  0  0  0
   -1.6845    3.1773    0.0467 C   0  0  0  0  0  0  0  0  0  0  0  0
   -2.7488    3.4630    0.0526 H   0  0  0  0  0  0  0  0  0  0  0  0
   -1.3910    1.8118    0.0218 C   0  0  0  0  0  0  0  0  0  0  0  0
   -2.4271    0.7882    0.0044 C   0  0  0  0  0  0  0  0  0  0  0  0
   -2.0719   -0.2660   -0.0255 H   0  0  0  0  0  0  0  0  0  0  0  0
   -5.9359    0.3001   -0.0263 C   0  0  0  0  0  0  0  0  0  0  0  0
   -6.7621   -0.9637    0.0018 C   0  0  0  0  0  0  0  0  0  0  0  0
   -6.3232   -2.2081    0.4947 C   0  0  0  0  0  0  0  0  0  0  0  0
   -5.3162   -2.3465    0.9183 H   0  0  0  0  0  0  0  0  0  0  0  0
   -7.2157   -3.2930    0.4807 C   0  0  0  0  0  0  0  0  0  0  0  0
   -6.8906   -4.2749    0.8694 H   0  0  0  0  0  0  0  0  0  0  0  0
   -8.8911   -2.0248   -0.4355 C   0  0  0  0  0  0  0  0  0  0  0  0
   -9.9316   -1.9787   -0.8042 H   0  0  0  0  0  0  0  0  0  0  0  0
   -8.0884   -0.8764   -0.4599 C   0  0  0  0  0  0  0  0  0  0  0  0
   -8.4622    0.0919   -0.8235 H   0  0  0  0  0  0  0  0  0  0  0  0
   -1.0636    5.6358    0.0896 C   0  0  0  0  0  0  0  0  0  0  0  0
   -0.1749    6.2959    0.0996 H   0  0  0  0  0  0  0  0  0  0  0  0
   -1.6757    5.8731    0.9849 H   0  0  0  0  0  0  0  0  0  0  0  0
   -1.6790    5.9042   -0.7946 H   0  0  0  0  0  0  0  0  0  0  0  0
   -0.0106    1.3699    0.0131 C   0  0  0  0  0  0  0  0  0  0  0  0
  1  3  1  0  0  0  0
  2  1  1  0  0  0  0
  3  7  1  0  0  0  0
  3  4  1  0  0  0  0
  5 21  1  0  0  0  0
  6 10  1  0  0  0  0
  7  8  1  0  0  0  0
  9 33  2  0  0  0  0
 10 22  1  0  0  0  0
 11 21  1  0  0  0  0
 11  7  2  0  0  0  0
 12 18  2  0  0  0  0
 12  1  1  0  0  0  0
 13 12  1  0  0  0  0
 15 47  1  0  0  0  0
 16 14  1  0  0  0  0
 17 16  1  0  0  0  0
 18 11  1  0  0  0  0
 19 18  1  0  0  0  0
 20 37  1  0  0  0  0
 21  6  2  0  0  0  0
 22 24  1  0  0  0  0
 22 23  1  0  0  0  0
 24 25  1  0  0  0  0
 25 27  2  0  0  0  0
 25 26  1  0  0  0  0
 27 43  1  0  0  0  0
 28 29  1  0  0  0  0
 28 27  1  0  0  0  0
 30 28  2  0  0  0  0
 31 30  1  0  0  0  0
 31 14  2  0  0  0  0
 32 31  1  0  0  0  0
 33 34  1  0  0  0  0
 33 16  1  0  0  0  0
 34 35  1  0  0  0  0
 35 36  1  0  0  0  0
 37 35  2  0  0  0  0
 37 38  1  0  0  0  0
 39 20  2  0  0  0  0
 40 39  1  0  0  0  0
 41 39  1  0  0  0  0
 41 34  2  0  0  0  0
 42 41  1  0  0  0  0
 43 44  1  0  0  0  0
 43 45  1  0  0  0  0
 46 43  1  0  0  0  0
 47 30  1  0  0  0  0
 47 24  2  0  0  0  0
M  CHG  2   5  -1  15  -1
M  END
