2,5,6
q = -2.0, confidence = 0.846

 33 34  0  0  0  0  0  0  0  0999 V2000
   -1.5208    1.1770   -0.0622 N   0  0  0  0  0  0  0  0  0  0  0  0
   -0.2176    0.7882   -0.1298 N   0  0  0  0  0  2  0  0  0  0  0  0
   -3.5440    2.7669    0.0977 O   0  0  0  0  0  0  0  0  0  0  0  0
   -2.5831    2.4404    0.0599 H   0  0  0  0  0  0  0  0  0  0  0  0
   -1.8765   -1.0905   -0.2437 O   0  5  0  0  0  0  0  0  0  0  0  0
    1.9091   -0.9222    0.0932 O   0  5  0  0  0  0  0  0  0  0  0  0
    6.2802    1.0047   -0.1719 O   0  0  0  0  0  0  0  0  0  0  0  0
   -3.7864    0.3551   -0.1155 C   0  0  0  0  0  0  0  0  0  0  0  0
   -4.3191    1.6828    0.0056 C   0  0  0  0  0  0  0  0  0  0  0  0
   -5.7237    1.8475    0.0305 C   0  0  0  0  0  0  0  0  0  0  0  0
   -6.1169    2.8700    0.1234 H   0  0  0  0  0  0  0  0  0  0  0  0
   -6.5707    0.7425   -0.0613 C   0  0  0  0  0  0  0  0  0  0  0  0
   -7.6606    0.8975   -0.0403 H   0  0  0  0  0  0  0  0  0  0  0  0
   -6.0503   -0.5647   -0.1808 C   0  0  0  0  0  0  0  0  0  0  0  0
   -6.7268   -1.4283   -0.2538 H   0  0  0  0  0  0  0  0  0  0  0  0
   -4.6695   -0.7485   -0.2065 C   0  0  0  0  0  0  0  0  0  0  0  0
   -4.2281   -1.7511   -0.2998 H   0  0  0  0  0  0  0  0  0  0  0  0
   -2.3457    0.1370   -0.1448 C   0  0  0  0  0  0  0  0  0  0  0  0
    0.7067    1.7222   -0.1106 C   0  0  0  0  0  3  0  0  0  0  0  0
    0.3603    2.7729   -0.0817 H   0  0  0  0  0  0  0  0  0  0  0  0
    2.1198    1.4761   -0.1295 C   0  0  0  0  0  0  0  0  0  0  0  0
    2.6765    0.1598   -0.0417 C   0  0  0  0  0  0  0  0  0  0  0  0
    4.0740   -0.0221   -0.0529 C   0  0  0  0  0  0  0  0  0  0  0  0
    4.4460   -1.0514    0.0153 H   0  0  0  0  0  0  0  0  0  0  0  0
    4.9313    1.0892   -0.1480 C   0  0  0  0  0  0  0  0  0  0  0  0
    4.3939    2.4017   -0.2221 C   0  0  0  0  0  0  0  0  0  0  0  0
    5.0877    3.2502   -0.2923 H   0  0  0  0  0  0  0  0  0  0  0  0
    3.0194    2.5762   -0.2089 C   0  0  0  0  0  0  0  0  0  0  0  0
    2.5991    3.5921   -0.2700 H   0  0  0  0  0  0  0  0  0  0  0  0
    6.8861   -0.2779   -0.1166 C   0  0  0  0  0  0  0  0  0  0  0  0
    6.6380   -0.8078    0.8291 H   0  0  0  0  0  0  0  0  0  0  0  0
    7.9772   -0.1078   -0.1612 H   0  0  0  0  0  0  0  0  0  0  0  0
    6.5794   -0.9126   -0.9765 H   0  0  0  0  0  0  0  0  0  0  0  0
  2 19  1  0  0  0  0
  2  1  1  0  0  0  0
  4  3  1  0  0  0  0
  5 18  1  0  0  0  0
  7 25  1  0  0  0  0
  7 30  1  0  0  0  0
  8  9  1  0  0  0  0
  9 10  2  0  0  0  0
  9  3  1  0  0  0  0
 10 11  1  0  0  0  0
 12 13  1  0  0  0  0
 12 10  1  0  0  0  0
 14 12  2  0  0  0  0
 15 14  1  0  0  0  0
 16 14  1  0  0  0  0
 16  8  2  0  0  0  0
 17 16  1  0  0  0  0
 18  8  1  0  0  0  0
 18  1  2  0  0  0  0
 19 20  1  0  0  0  0
 21 19  1  0  0  0  0
 21 22  1  0  0  0  0
 22  6  1  0  0  0  0
 23 22  2  0  0  0  0
 23 24  1  0  0  0  0
 25 23  1  0  0  0  0
 26 28  1  0  0  0  0
 26 25  2  0  0  0  0
 27 26  1  0  0  0  0
 28 21  2  0  0  0  0
 29 28  1  0  0  0  0
 30 31  1  0  0  0  0
 32 30  1  0  0  0  0
 33 30  1  0  0  0  0
M  CHG  2   5  -1   6  -1
M  END
