1,4,5
q = -2.0, confidence = 0.706

 37 38  0  0  1  0  0  0  0  0999 V2000
   -0.4371   -1.0222    0.1439 N   0  0  0  0  0  2  0  0  0  0  0  0
    0.8891   -1.3023    0.0656 N   0  0  0  0  0  0  0  0  0  0  0  0
    7.3045   -0.1886   -0.2303 N   0  0  0  0  0  0  0  0  0  0  0  0
   -2.5938    0.4227   -0.3080 O   0  5  0  0  0  0  0  0  0  0  0  0
    0.9430    0.9828   -0.0956 O   0  5  0  0  0  0  0  0  0  0  0  0
    7.8701    0.9028   -0.3033 O   0  0  0  0  0  0  0  0  0  0  0  0
    7.8720   -1.2812   -0.1972 O   0  0  0  0  0  0  0  0  0  0  0  0
   -3.3035   -0.6618   -0.0821 C   0  0  0  0  0  0  0  0  0  0  0  0
   -2.6839   -1.8721    0.2214 C   0  0  0  0  0  0  0  0  0  0  0  0
   -1.2748   -2.0610    0.2431 C   0  0  1  0  0  3  0  0  0  0  0  0
   -0.7073   -3.4480    0.3611 C   0  0  0  0  0  0  0  0  0  0  0  0
   -4.7697   -0.4948   -0.2106 C   0  0  0  0  0  0  0  0  0  0  0  0
   -5.6682   -1.5867   -0.1710 C   0  0  0  0  0  0  0  0  0  0  0  0
   -7.0464   -1.3778   -0.2902 C   0  0  0  0  0  0  0  0  0  0  0  0
   -7.5547   -0.0777   -0.4544 C   0  0  0  0  0  0  0  0  0  0  0  0
   -6.6722    1.0134   -0.5003 C   0  0  0  0  0  0  0  0  0  0  0  0
   -5.2928    0.8086   -0.3804 C   0  0  0  0  0  0  0  0  0  0  0  0
    1.5668   -0.1744   -0.0278 C   0  0  0  0  0  0  0  0  0  0  0  0
    3.0395   -0.1883   -0.0797 C   0  0  0  0  0  0  0  0  0  0  0  0
    3.7511   -1.4105   -0.0447 C   0  0  0  0  0  0  0  0  0  0  0  0
    5.1455   -1.4145   -0.0941 C   0  0  0  0  0  0  0  0  0  0  0  0
    5.8231   -0.1879   -0.1779 C   0  0  0  0  0  0  0  0  0  0  0  0
    5.1431    1.0370   -0.2137 C   0  0  0  0  0  0  0  0  0  0  0  0
    3.7465    1.0322   -0.1652 C   0  0  0  0  0  0  0  0  0  0  0  0
    5.7307   -2.3430   -0.0689 H   0  0  0  0  0  0  0  0  0  0  0  0
    5.7251    1.9657   -0.2795 H   0  0  0  0  0  0  0  0  0  0  0  0
   -4.5917    1.6542   -0.4110 H   0  0  0  0  0  0  0  0  0  0  0  0
   -0.1242   -3.6991   -0.5479 H   0  0  0  0  0  0  0  0  0  0  0  0
   -1.5064   -4.1975    0.5032 H   0  0  0  0  0  0  0  0  0  0  0  0
    0.0117   -3.4973    1.2027 H   0  0  0  0  0  0  0  0  0  0  0  0
    3.1839   -2.3492    0.0215 H   0  0  0  0  0  0  0  0  0  0  0  0
   -3.3057   -2.7602    0.3810 H   0  0  0  0  0  0  0  0  0  0  0  0
   -5.2909   -2.6128   -0.0574 H   0  0  0  0  0  0  0  0  0  0  0  0
   -7.7317   -2.2381   -0.2593 H   0  0  0  0  0  0  0  0  0  0  0  0
    3.1767    1.9713   -0.1916 H   0  0  0  0  0  0  0  0  0  0  0  0
   -8.6394    0.0827   -0.5483 H   0  0  0  0  0  0  0  0  0  0  0  0
   -7.0632    2.0340   -0.6288 H   0  0  0  0  0  0  0  0  0  0  0  0
  2  1  1  0  0  0  0
  3  7  2  0  0  0  0
  3 22  1  0  0  0  0
  4  8  1  0  0  0  0
  5 18  1  0  0  0  0
  6  3  2  0  0  0  0
  8  9  2  0  0  0  0
  9 10  1  0  0  0  0
  9 32  1  0  0  0  0
 10  1  1  6  0  0  0
 10 11  1  0  0  0  0
 11 29  1  0  0  0  0
 11 30  1  0  0  0  0
 12 13  1  0  0  0  0
 12  8  1  0  0  0  0
 13 33  1  0  0  0  0
 14 34  1  0  0  0  0
 14 13  2  0  0  0  0
 15 14  1  0  0  0  0
 16 15  2  0  0  0  0
 16 17  1  0  0  0  0
 17 12  2  0  0  0  0
 18  2  2  0  0  0  0
 19 20  1  0  0  0  0
 19 18  1  0  0  0  0
 20 31  1  0  0  0  0
 21 25  1  0  0  0  0
 21 20  2  0  0  0  0
 22 21  1  0  0  0  0
 23 22  2  0  0  0  0
 23 24  1  0  0  0  0
 24 19  2  0  0  0  0
 26 23  1  0  0  0  0
 27 17  1  0  0  0  0
 28 11  1  0  0  0  0
 35 24  1  0  0  0  0
 36 15  1  0  0  0  0
 37 16  1  0  0  0  0
M  CHG  2   4  -1   5  -1
M  END
