1,2,5
q = -2.0, confidence = 0.748

 41 42  0  0  0  0  0  0  0  0999 V2000
   -2.3822    0.7449   -1.1174 O   0  5  0  0  0  0  0  0  0  0  0  0
    1.3637    0.9128   -0.2707 O   0  5  0  0  0  0  0  0  0  0  0  0
   -6.9566   -1.1358   -0.4456 O   0  0  0  0  0  0  0  0  0  0  0  0
   -6.6232   -3.0747    0.5073 O   0  0  0  0  0  0  0  0  0  0  0  0
   -0.6731   -0.9826   -0.1890 N   0  0  0  0  0  2  0  0  0  0  0  0
    5.8694   -0.5982    0.1882 N   0  0  0  0  0  0  0  0  0  0  0  0
   -6.2260   -2.0166    0.0130 N   0  0  0  0  0  0  0  0  0  0  0  0
    0.3240   -1.7993    0.0839 C   0  0  0  0  0  3  0  0  0  0  0  0
    0.0934   -2.8545    0.3352 H   0  0  0  0  0  0  0  0  0  0  0  0
    1.7055   -1.4552    0.0834 C   0  0  0  0  0  0  0  0  0  0  0  0
    2.6779   -2.4701    0.3100 C   0  0  0  0  0  0  0  0  0  0  0  0
    2.3251   -3.5029    0.4609 H   0  0  0  0  0  0  0  0  0  0  0  0
    4.0355   -2.2116    0.3478 C   0  0  0  0  0  0  0  0  0  0  0  0
    4.7296   -3.0389    0.5366 H   0  0  0  0  0  0  0  0  0  0  0  0
    4.5227   -0.8729    0.1621 C   0  0  0  0  0  0  0  0  0  0  0  0
    3.5652    0.1552   -0.0441 C   0  0  0  0  0  0  0  0  0  0  0  0
    3.8590    1.1990   -0.2027 H   0  0  0  0  0  0  0  0  0  0  0  0
    2.1878   -0.1080   -0.0910 C   0  0  0  0  0  0  0  0  0  0  0  0
   -2.0145   -1.3541   -0.0830 C   0  0  0  0  0  0  0  0  0  0  0  0
   -2.9055   -0.3731   -0.6255 C   0  0  0  0  0  0  0  0  0  0  0  0
   -4.2925   -0.5998   -0.6054 C   0  0  0  0  0  0  0  0  0  0  0  0
   -4.9925    0.1329   -1.0244 H   0  0  0  0  0  0  0  0  0  0  0  0
   -4.7665   -1.7861   -0.0293 C   0  0  0  0  0  0  0  0  0  0  0  0
   -3.9132   -2.7550    0.5243 C   0  0  0  0  0  0  0  0  0  0  0  0
   -4.3510   -3.6566    0.9702 H   0  0  0  0  0  0  0  0  0  0  0  0
   -2.5337   -2.5291    0.4990 C   0  0  0  0  0  0  0  0  0  0  0  0
   -1.8595   -3.2708    0.9512 H   0  0  0  0  0  0  0  0  0  0  0  0
    6.3747    0.7689    0.0839 C   0  0  0  0  0  0  0  0  0  0  0  0
    7.3417    0.8069    0.6276 H   0  0  0  0  0  0  0  0  0  0  0  0
    5.6954    1.4495    0.6362 H   0  0  0  0  0  0  0  0  0  0  0  0
    6.5618    1.2452   -1.3588 C   0  0  0  0  0  0  0  0  0  0  0  0
    7.2726    0.5929   -1.9054 H   0  0  0  0  0  0  0  0  0  0  0  0
    6.9628    2.2784   -1.3793 H   0  0  0  0  0  0  0  0  0  0  0  0
    5.6014    1.2368   -1.9109 H   0  0  0  0  0  0  0  0  0  0  0  0
    6.8730   -1.6538    0.2954 C   0  0  0  0  0  0  0  0  0  0  0  0
    7.7806   -1.3040   -0.2394 H   0  0  0  0  0  0  0  0  0  0  0  0
    6.5270   -2.5461   -0.2644 H   0  0  0  0  0  0  0  0  0  0  0  0
    7.2243   -2.0224    1.7391 C   0  0  0  0  0  0  0  0  0  0  0  0
    7.6079   -1.1419    2.2933 H   0  0  0  0  0  0  0  0  0  0  0  0
    8.0066   -2.8076    1.7638 H   0  0  0  0  0  0  0  0  0  0  0  0
    6.3358   -2.4010    2.2823 H   0  0  0  0  0  0  0  0  0  0  0  0
  1 20  1  0  0  0  0
  2 18  1  0  0  0  0
  3  7  2  0  0  0  0
  5 19  1  0  0  0  0
  5  8  1  0  0  0  0
  6 35  1  0  0  0  0
  7  4  2  0  0  0  0
  8  9  1  0  0  0  0
 10  8  1  0  0  0  0
 10 11  1  0  0  0  0
 11 13  2  0  0  0  0
 11 12  1  0  0  0  0
 13 14  1  0  0  0  0
 15  6  1  0  0  0  0
 15 13  1  0  0  0  0
 16 15  2  0  0  0  0
 17 16  1  0  0  0  0
 18 16  1  0  0  0  0
 18 10  2  0  0  0  0
 19 26  1  0  0  0  0
 20 21  1  0  0  0  0
 20 19  2  0  0  0  0
 21 23  2  0  0  0  0
 22 21  1  0  0  0  0
 23  7  1  0  0  0  0
 23 24  1  0  0  0  0
 24 25  1  0  0  0  0
 26 24  2  0  0  0  0
 26 27  1  0  0  0  0
 28  6  1  0  0  0  0
 28 29  1  0  0  0  0
 28 30  1  0  0  0  0
 31 28  1  0  0  0  0
 32 31  1  0  0  0  0
 33 31  1  0  0  0  0
 34 31  1  0  0  0  0
 35 38  1  0  0  0  0
 36 35  1  0  0  0  0
 37 35  1  0  0  0  0
 38 40  1  0  0  0  0
 38 41  1  0  0  0  0
 38 39  1  0  0  0  0
M  CHG  2   1  -1   2  -1
M  END
