3,4,6
q = -2.0, confidence = 0.958

 42 44  0  0  1  0  0  0  0  0999 V2000
   -1.9944    6.1662    0.0148 F   0  0  0  0  0  0  0  0  0  0  0  0
    7.9750   -0.4216   -0.0161 F   0  0  0  0  0  0  0  0  0  0  0  0
    1.7937   -1.5265   -0.0161 O   0  5  0  0  0  0  0  0  0  0  0  0
   -1.7721   -2.3284   -0.0147 O   0  5  0  0  0  0  0  0  0  0  0  0
   -1.9642   -0.0356    0.0194 N   0  0  0  0  0  0  0  0  0  0  0  0
   -0.6038   -0.1485   -0.0221 N   0  0  0  0  0  2  0  0  0  0  0  0
    0.1678    0.9520   -0.0131 C   0  0  2  0  0  3  0  0  0  0  0  0
    1.5871    0.8543   -0.0147 C   0  0  0  0  0  0  0  0  0  0  0  0
    2.3285   -0.3319   -0.0259 C   0  0  0  0  0  0  0  0  0  0  0  0
   -2.5125   -1.2350    0.0144 C   0  0  0  0  0  0  0  0  0  0  0  0
   -3.9817   -1.3763    0.0405 C   0  0  0  0  0  0  0  0  0  0  0  0
   -4.8172   -0.2379    0.1081 C   0  0  0  0  0  0  0  0  0  0  0  0
   -6.2084   -0.3868    0.1295 C   0  0  0  0  0  0  0  0  0  0  0  0
   -6.7865   -1.6681    0.0847 C   0  0  0  0  0  0  0  0  0  0  0  0
   -5.9612   -2.8026    0.0196 C   0  0  0  0  0  0  0  0  0  0  0  0
   -4.5676   -2.6598   -0.0015 C   0  0  0  0  0  0  0  0  0  0  0  0
   -0.4413    2.3121    0.0006 C   0  0  0  0  0  0  0  0  0  0  0  0
   -1.5107    2.6638   -0.8550 C   0  0  0  0  0  0  0  0  0  0  0  0
   -2.0304    3.9627   -0.8589 C   0  0  0  0  0  0  0  0  0  0  0  0
   -1.4885    4.9185    0.0105 C   0  0  0  0  0  0  0  0  0  0  0  0
   -0.4338    4.6037    0.8741 C   0  0  0  0  0  0  0  0  0  0  0  0
    0.0860    3.3026    0.8584 C   0  0  0  0  0  0  0  0  0  0  0  0
    3.8163   -0.3190   -0.0345 C   0  0  0  0  0  0  0  0  0  0  0  0
    4.5150   -1.5088    0.2773 C   0  0  0  0  0  0  0  0  0  0  0  0
    5.9130   -1.5524    0.2888 C   0  0  0  0  0  0  0  0  0  0  0  0
    6.6295   -0.3901   -0.0222 C   0  0  0  0  0  0  0  0  0  0  0  0
    5.9728    0.8046   -0.3455 C   0  0  0  0  0  0  0  0  0  0  0  0
    4.5741    0.8328   -0.3511 C   0  0  0  0  0  0  0  0  0  0  0  0
    2.1325    1.8040   -0.0232 H   0  0  0  0  0  0  0  0  0  0  0  0
   -4.3488    0.7560    0.1475 H   0  0  0  0  0  0  0  0  0  0  0  0
   -6.8515    0.5050    0.1836 H   0  0  0  0  0  0  0  0  0  0  0  0
   -7.8813   -1.7812    0.1020 H   0  0  0  0  0  0  0  0  0  0  0  0
   -6.4090   -3.8078   -0.0144 H   0  0  0  0  0  0  0  0  0  0  0  0
   -3.9068   -3.5366   -0.0511 H   0  0  0  0  0  0  0  0  0  0  0  0
   -1.9352    1.9068   -1.5260 H   0  0  0  0  0  0  0  0  0  0  0  0
   -2.8542    4.2494   -1.5281 H   0  0  0  0  0  0  0  0  0  0  0  0
   -0.0383    5.3752    1.5499 H   0  0  0  0  0  0  0  0  0  0  0  0
    0.9048    3.0418    1.5454 H   0  0  0  0  0  0  0  0  0  0  0  0
    3.9294   -2.4061    0.5190 H   0  0  0  0  0  0  0  0  0  0  0  0
    6.4614   -2.4723    0.5377 H   0  0  0  0  0  0  0  0  0  0  0  0
    6.5665    1.6948   -0.5976 H   0  0  0  0  0  0  0  0  0  0  0  0
    4.0675    1.7675   -0.6297 H   0  0  0  0  0  0  0  0  0  0  0  0
  4 10  1  0  0  0  0
  6  5  1  0  0  0  0
  7  6  1  1  0  0  0
  7 17  1  0  0  0  0
  8  7  1  0  0  0  0
  9  3  1  0  0  0  0
  9  8  2  0  0  0  0
 10  5  2  0  0  0  0
 10 11  1  0  0  0  0
 11 12  1  0  0  0  0
 12 13  2  0  0  0  0
 12 30  1  0  0  0  0
 13 31  1  0  0  0  0
 14 32  1  0  0  0  0
 14 13  1  0  0  0  0
 15 14  2  0  0  0  0
 16 15  1  0  0  0  0
 16 11  2  0  0  0  0
 17 22  1  0  0  0  0
 18 17  2  0  0  0  0
 19 18  1  0  0  0  0
 19 20  2  0  0  0  0
 20  1  1  0  0  0  0
 20 21  1  0  0  0  0
 21 37  1  0  0  0  0
 22 21  2  0  0  0  0
 22 38  1  0  0  0  0
 23  9  1  0  0  0  0
 23 24  1  0  0  0  0
 24 25  2  0  0  0  0
 24 39  1  0  0  0  0
 25 40  1  0  0  0  0
 26  2  1  0  0  0  0
 26 25  1  0  0  0  0
 27 26  2  0  0  0  0
 28 27  1  0  0  0  0
 28 23  2  0  0  0  0
 29  8  1  0  0  0  0
 33 15  1  0  0  0  0
 34 16  1  0  0  0  0
 35 18  1  0  0  0  0
 36 19  1  0  0  0  0
 41 27  1  0  0  0  0
 42 28  1  0  0  0  0
M  CHG  2   3  -1   4  -1
M  END
