2,4,6
q = -2.0, confidence = 0.952

 32 33  0  0  0  0  0  0  0  0999 V2000
   -7.4229   -1.8902    0.1254 Cl  0  0  0  0  0  0  0  0  0  0  0  0
    0.6464   -1.7355    0.3979 N   0  0  0  0  0  2  0  0  0  0  0  0
   -0.6581   -2.0221    0.6620 N   0  0  0  0  0  0  0  0  0  0  0  0
    2.6887   -0.2410   -0.4129 O   0  5  0  0  0  0  0  0  0  0  0  0
    5.2876    0.2401   -0.5316 O   0  0  0  0  0  0  0  0  0  0  0  0
   -0.9301   -0.5326   -1.0631 O   0  5  0  0  0  0  0  0  0  0  0  0
    2.9738   -2.1311    1.0325 C   0  0  0  0  0  0  0  0  0  0  0  0
    3.4846   -1.0508    0.2529 C   0  0  0  0  0  0  0  0  0  0  0  0
    4.8975   -0.8133    0.2301 C   0  0  0  0  0  0  0  0  0  0  0  0
    5.7516   -1.6479    0.9644 C   0  0  0  0  0  0  0  0  0  0  0  0
    6.8362   -1.4759    0.9449 H   0  0  0  0  0  0  0  0  0  0  0  0
    5.2346   -2.7148    1.7358 C   0  0  0  0  0  0  0  0  0  0  0  0
    5.9272   -3.3535    2.3028 H   0  0  0  0  0  0  0  0  0  0  0  0
    3.8668   -2.9517    1.7782 C   0  0  0  0  0  0  0  0  0  0  0  0
    3.4550   -3.7765    2.3788 H   0  0  0  0  0  0  0  0  0  0  0  0
    1.5581   -2.3515    1.1184 C   0  0  0  0  0  3  0  0  0  0  0  0
    1.1789   -3.0869    1.8514 H   0  0  0  0  0  0  0  0  0  0  0  0
   -1.4317   -1.3446   -0.1680 C   0  0  0  0  0  0  0  0  0  0  0  0
   -2.8981   -1.4897   -0.0909 C   0  0  0  0  0  0  0  0  0  0  0  0
   -3.7208   -0.7646   -0.9782 C   0  0  0  0  0  0  0  0  0  0  0  0
   -3.2450   -0.1058   -1.7184 H   0  0  0  0  0  0  0  0  0  0  0  0
   -5.1134   -0.8841   -0.9173 C   0  0  0  0  0  0  0  0  0  0  0  0
   -5.7617   -0.3241   -1.6056 H   0  0  0  0  0  0  0  0  0  0  0  0
   -5.6876   -1.7364    0.0410 C   0  0  0  0  0  0  0  0  0  0  0  0
   -4.8835   -2.4682    0.9344 C   0  0  0  0  0  0  0  0  0  0  0  0
   -5.3559   -3.1291    1.6744 H   0  0  0  0  0  0  0  0  0  0  0  0
   -3.4937   -2.3422    0.8645 C   0  0  0  0  0  0  0  0  0  0  0  0
   -2.8415   -2.9018    1.5498 H   0  0  0  0  0  0  0  0  0  0  0  0
    6.6686    0.5289   -0.6063 C   0  0  0  0  0  0  0  0  0  0  0  0
    7.0964    0.7767    0.3919 H   0  0  0  0  0  0  0  0  0  0  0  0
    6.7694    1.4081   -1.2691 H   0  0  0  0  0  0  0  0  0  0  0  0
    7.2474   -0.3185   -1.0394 H   0  0  0  0  0  0  0  0  0  0  0  0
  2  3  1  0  0  0  0
  2 16  1  0  0  0  0
  4  8  1  0  0  0  0
  5  9  1  0  0  0  0
  6 18  1  0  0  0  0
  7 16  1  0  0  0  0
  7 14  1  0  0  0  0
  8  7  2  0  0  0  0
  9  8  1  0  0  0  0
  9 10  2  0  0  0  0
 10 12  1  0  0  0  0
 11 10  1  0  0  0  0
 12 14  2  0  0  0  0
 12 13  1  0  0  0  0
 14 15  1  0  0  0  0
 16 17  1  0  0  0  0
 18 19  1  0  0  0  0
 18  3  2  0  0  0  0
 19 27  1  0  0  0  0
 20 22  1  0  0  0  0
 20 19  2  0  0  0  0
 21 20  1  0  0  0  0
 22 24  2  0  0  0  0
 23 22  1  0  0  0  0
 24  1  1  0  0  0  0
 24 25  1  0  0  0  0
 25 26  1  0  0  0  0
 27 25  2  0  0  0  0
 27 28  1  0  0  0  0
 29  5  1  0  0  0  0
 29 30  1  0  0  0  0
 31 29  1  0  0  0  0
 32 29  1  0  0  0  0
M  CHG  2   4  -1   6  -1
M  END
