2,4,5
q = -2.0, confidence = 0.846

 43 44  0  0  0  0  0  0  0  0999 V2000
    5.8862    0.4754   -0.3548 N   0  0  0  0  0  0  0  0  0  0  0  0
   -0.6551    0.8377   -0.1408 N   0  0  0  0  0  2  0  0  0  0  0  0
   -1.9247    1.3328   -0.0048 N   0  0  0  0  0  0  0  0  0  0  0  0
    1.3550   -1.0308   -0.0754 O   0  5  0  0  0  0  0  0  0  0  0  0
   -2.4441   -0.8949   -0.3525 O   0  5  0  0  0  0  0  0  0  0  0  0
   -8.3589    1.3593    0.1947 O   0  0  0  0  0  0  0  0  0  0  0  0
   -8.5254    2.3094    0.3406 H   0  0  0  0  0  0  0  0  0  0  0  0
    4.5397    0.7624   -0.2676 C   0  0  0  0  0  0  0  0  0  0  0  0
    3.5682   -0.2729   -0.2054 C   0  0  0  0  0  0  0  0  0  0  0  0
    3.8464   -1.3323   -0.1834 H   0  0  0  0  0  0  0  0  0  0  0  0
    2.1942    0.0014   -0.1625 C   0  0  0  0  0  0  0  0  0  0  0  0
    1.7236    1.3580   -0.1663 C   0  0  0  0  0  0  0  0  0  0  0  0
    2.7068    2.3827   -0.2009 C   0  0  0  0  0  0  0  0  0  0  0  0
    2.3671    3.4305   -0.1934 H   0  0  0  0  0  0  0  0  0  0  0  0
    4.0658    2.1153   -0.2489 C   0  0  0  0  0  0  0  0  0  0  0  0
    4.7685    2.9560   -0.2751 H   0  0  0  0  0  0  0  0  0  0  0  0
    6.3610   -0.9060   -0.3320 C   0  0  0  0  0  0  0  0  0  0  0  0
    5.7034   -1.5192   -0.9830 H   0  0  0  0  0  0  0  0  0  0  0  0
    7.3585   -0.9163   -0.8169 H   0  0  0  0  0  0  0  0  0  0  0  0
    6.4539   -1.5335    1.0633 C   0  0  0  0  0  0  0  0  0  0  0  0
    7.1808   -0.9944    1.7025 H   0  0  0  0  0  0  0  0  0  0  0  0
    6.7829   -2.5897    0.9891 H   0  0  0  0  0  0  0  0  0  0  0  0
    5.4726   -1.5174    1.5773 H   0  0  0  0  0  0  0  0  0  0  0  0
    6.8861    1.5394   -0.3377 C   0  0  0  0  0  0  0  0  0  0  0  0
    6.5549    2.3567   -1.0125 H   0  0  0  0  0  0  0  0  0  0  0  0
    7.8072    1.1276   -0.7979 H   0  0  0  0  0  0  0  0  0  0  0  0
    7.2061    2.1007    1.0523 C   0  0  0  0  0  0  0  0  0  0  0  0
    6.2967    2.5032    1.5411 H   0  0  0  0  0  0  0  0  0  0  0  0
    7.9471    2.9222    0.9764 H   0  0  0  0  0  0  0  0  0  0  0  0
    7.6284    1.3206    1.7158 H   0  0  0  0  0  0  0  0  0  0  0  0
    0.3385    1.7026   -0.1003 C   0  0  0  0  0  3  0  0  0  0  0  0
    0.0618    2.7708   -0.0110 H   0  0  0  0  0  0  0  0  0  0  0  0
   -2.8079    0.3619   -0.1493 C   0  0  0  0  0  0  0  0  0  0  0  0
   -4.2477    0.6444   -0.0599 C   0  0  0  0  0  0  0  0  0  0  0  0
   -5.1871   -0.4043   -0.1903 C   0  0  0  0  0  0  0  0  0  0  0  0
   -4.8163   -1.4240   -0.3666 H   0  0  0  0  0  0  0  0  0  0  0  0
   -6.5568   -0.1525   -0.1029 C   0  0  0  0  0  0  0  0  0  0  0  0
   -7.2956   -0.9602   -0.2052 H   0  0  0  0  0  0  0  0  0  0  0  0
   -7.0177    1.1624    0.1170 C   0  0  0  0  0  0  0  0  0  0  0  0
   -6.0859    2.2167    0.2465 C   0  0  0  0  0  0  0  0  0  0  0  0
   -6.4460    3.2453    0.4153 H   0  0  0  0  0  0  0  0  0  0  0  0
   -4.7173    1.9591    0.1575 C   0  0  0  0  0  0  0  0  0  0  0  0
   -3.9833    2.7716    0.2534 H   0  0  0  0  0  0  0  0  0  0  0  0
  1 24  1  0  0  0  0
  1 17  1  0  0  0  0
  1  8  1  0  0  0  0
  2 31  1  0  0  0  0
  2  3  1  0  0  0  0
  5 33  1  0  0  0  0
  6  7  1  0  0  0  0
  8 15  2  0  0  0  0
  8  9  1  0  0  0  0
  9 10  1  0  0  0  0
  9 11  2  0  0  0  0
 11  4  1  0  0  0  0
 12 11  1  0  0  0  0
 12 31  1  0  0  0  0
 13 14  1  0  0  0  0
 13 12  2  0  0  0  0
 15 13  1  0  0  0  0
 16 15  1  0  0  0  0
 17 20  1  0  0  0  0
 18 17  1  0  0  0  0
 19 17  1  0  0  0  0
 20 23  1  0  0  0  0
 20 21  1  0  0  0  0
 22 20  1  0  0  0  0
 24 27  1  0  0  0  0
 25 24  1  0  0  0  0
 26 24  1  0  0  0  0
 27 28  1  0  0  0  0
 27 30  1  0  0  0  0
 29 27  1  0  0  0  0
 31 32  1  0  0  0  0
 33 34  1  0  0  0  0
 33  3  2  0  0  0  0
 34 42  1  0  0  0  0
 35 37  1  0  0  0  0
 35 34  2  0  0  0  0
 36 35  1  0  0  0  0
 37 39  2  0  0  0  0
 38 37  1  0  0  0  0
 39  6  1  0  0  0  0
 39 40  1  0  0  0  0
 40 41  1  0  0  0  0
 42 40  2  0  0  0  0
 42 43  1  0  0  0  0
M  CHG  2   4  -1   5  -1
M  END
