2,3,5
q = -2.0, confidence = 0.832

 32 33  0  0  0  0  0  0  0  0999 V2000
   -6.6343   -3.0634    0.9463 F   0  0  0  0  0  0  0  0  0  0  0  0
   -2.6882    0.3905   -0.6604 O   0  5  0  0  0  0  0  0  0  0  0  0
    0.9357   -0.1424   -1.0590 O   0  5  0  0  0  0  0  0  0  0  0  0
    6.7433   -2.3643    0.4141 O   0  0  0  0  0  0  0  0  0  0  0  0
   -0.8830   -1.4605   -0.0484 N   0  0  0  0  0  2  0  0  0  0  0  0
    0.3549   -1.9206    0.2704 N   0  0  0  0  0  0  0  0  0  0  0  0
   -3.2914   -1.7465    0.2374 C   0  0  0  0  0  0  0  0  0  0  0  0
   -3.6321   -0.4601   -0.2970 C   0  0  0  0  0  0  0  0  0  0  0  0
   -4.9950   -0.0903   -0.3872 C   0  0  0  0  0  0  0  0  0  0  0  0
   -5.2365    0.9017   -0.7935 H   0  0  0  0  0  0  0  0  0  0  0  0
   -6.0008   -0.9667    0.0275 C   0  0  0  0  0  0  0  0  0  0  0  0
   -7.0630   -0.6918   -0.0456 H   0  0  0  0  0  0  0  0  0  0  0  0
   -5.6546   -2.2264    0.5488 C   0  0  0  0  0  0  0  0  0  0  0  0
   -4.3258   -2.6189    0.6642 C   0  0  0  0  0  0  0  0  0  0  0  0
   -4.0855   -3.6083    1.0797 H   0  0  0  0  0  0  0  0  0  0  0  0
   -1.9171   -2.1326    0.4094 C   0  0  0  0  0  3  0  0  0  0  0  0
   -1.6868   -3.0534    0.9760 H   0  0  0  0  0  0  0  0  0  0  0  0
    1.2739   -1.1658   -0.3199 C   0  0  0  0  0  0  0  0  0  0  0  0
    2.7008   -1.4683   -0.1401 C   0  0  0  0  0  0  0  0  0  0  0  0
    3.1225   -2.5725    0.6402 C   0  0  0  0  0  0  0  0  0  0  0  0
    2.3579   -3.2079    1.1089 H   0  0  0  0  0  0  0  0  0  0  0  0
    4.4765   -2.8435    0.8063 C   0  0  0  0  0  0  0  0  0  0  0  0
    4.8235   -3.6964    1.4071 H   0  0  0  0  0  0  0  0  0  0  0  0
    5.4499   -2.0174    0.1941 C   0  0  0  0  0  0  0  0  0  0  0  0
    5.0397   -0.9142   -0.5863 C   0  0  0  0  0  0  0  0  0  0  0  0
    5.7757   -0.2600   -1.0718 H   0  0  0  0  0  0  0  0  0  0  0  0
    3.6744   -0.6496   -0.7459 C   0  0  0  0  0  0  0  0  0  0  0  0
    3.3398    0.2051   -1.3512 H   0  0  0  0  0  0  0  0  0  0  0  0
    7.7656   -1.5824   -0.1775 C   0  0  0  0  0  0  0  0  0  0  0  0
    7.6983   -1.5858   -1.2883 H   0  0  0  0  0  0  0  0  0  0  0  0
    8.7247   -2.0407    0.1265 H   0  0  0  0  0  0  0  0  0  0  0  0
    7.7388   -0.5283    0.1785 H   0  0  0  0  0  0  0  0  0  0  0  0
  2  8  1  0  0  0  0
  3 18  1  0  0  0  0
  5  6  1  0  0  0  0
  5 16  1  0  0  0  0
  7 16  1  0  0  0  0
  7 14  1  0  0  0  0
  8  7  2  0  0  0  0
  9  8  1  0  0  0  0
  9 11  2  0  0  0  0
 10  9  1  0  0  0  0
 11 13  1  0  0  0  0
 12 11  1  0  0  0  0
 13 14  2  0  0  0  0
 13  1  1  0  0  0  0
 14 15  1  0  0  0  0
 16 17  1  0  0  0  0
 18 19  1  0  0  0  0
 18  6  2  0  0  0  0
 19 20  1  0  0  0  0
 20 22  2  0  0  0  0
 20 21  1  0  0  0  0
 22 23  1  0  0  0  0
 24  4  1  0  0  0  0
 24 22  1  0  0  0  0
 25 24  2  0  0  0  0
 26 25  1  0  0  0  0
 27 25  1  0  0  0  0
 27 19  2  0  0  0  0
 28 27  1  0  0  0  0
 29 31  1  0  0  0  0
 29 32  1  0  0  0  0
 29  4  1  0  0  0  0
 30 29  1  0  0  0  0
M  CHG  2   2  -1   3  -1
M  END
