3,5,6
q = -2.0, confidence = 0.896

 28 29  0  0  0  0  0  0  0  0999 V2000
    6.5849   -2.6108    0.9749 F   0  0  0  0  0  0  0  0  0  0  0  0
   -6.7878   -2.8787    0.2918 F   0  0  0  0  0  0  0  0  0  0  0  0
    0.7358   -1.4528   -0.0581 N   0  0  0  0  0  2  0  0  0  0  0  0
   -0.4653   -2.0123    0.2491 N   0  0  0  0  0  0  0  0  0  0  0  0
    2.3980    0.5311   -0.6607 O   0  5  0  0  0  0  0  0  0  0  0  0
   -1.1810   -0.2735   -1.0676 O   0  5  0  0  0  0  0  0  0  0  0  0
    3.1565   -1.5537    0.2427 C   0  0  0  0  0  0  0  0  0  0  0  0
    3.4011   -0.2451   -0.2906 C   0  0  0  0  0  0  0  0  0  0  0  0
    4.7326    0.2274   -0.3727 C   0  0  0  0  0  0  0  0  0  0  0  0
    4.9007    1.2346   -0.7785 H   0  0  0  0  0  0  0  0  0  0  0  0
    5.7990   -0.5697    0.0495 C   0  0  0  0  0  0  0  0  0  0  0  0
    6.8376   -0.2147   -0.0170 H   0  0  0  0  0  0  0  0  0  0  0  0
    5.5469   -1.8522    0.5703 C   0  0  0  0  0  0  0  0  0  0  0  0
    4.2515   -2.3449    0.6774 C   0  0  0  0  0  0  0  0  0  0  0  0
    4.0845   -3.3496    1.0923 H   0  0  0  0  0  0  0  0  0  0  0  0
    1.8153   -2.0449    0.4044 C   0  0  0  0  0  3  0  0  0  0  0  0
    1.6530   -2.9832    0.9660 H   0  0  0  0  0  0  0  0  0  0  0  0
   -1.4351   -1.3268   -0.3406 C   0  0  0  0  0  0  0  0  0  0  0  0
   -2.8384   -1.7466   -0.1714 C   0  0  0  0  0  0  0  0  0  0  0  0
   -3.8685   -0.9969   -0.7795 C   0  0  0  0  0  0  0  0  0  0  0  0
   -3.5971   -0.1135   -1.3745 H   0  0  0  0  0  0  0  0  0  0  0  0
   -5.2063   -1.3756   -0.6267 C   0  0  0  0  0  0  0  0  0  0  0  0
   -6.0258   -0.8090   -1.0913 H   0  0  0  0  0  0  0  0  0  0  0  0
   -5.5043   -2.5100    0.1402 C   0  0  0  0  0  0  0  0  0  0  0  0
   -4.4998   -3.2727    0.7550 C   0  0  0  0  0  0  0  0  0  0  0  0
   -4.7810   -4.1561    1.3457 H   0  0  0  0  0  0  0  0  0  0  0  0
   -3.1663   -2.8870    0.5958 C   0  0  0  0  0  0  0  0  0  0  0  0
   -2.3524   -3.4605    1.0612 H   0  0  0  0  0  0  0  0  0  0  0  0
  3  4  1  0  0  0  0
  3 16  1  0  0  0  0
  5  8  1  0  0  0  0
  6 18  1  0  0  0  0
  7 16  1  0  0  0  0
  7 14  1  0  0  0  0
  8  7  2  0  0  0  0
  9  8  1  0  0  0  0
  9 11  2  0  0  0  0
 10  9  1  0  0  0  0
 11 13  1  0  0  0  0
 12 11  1  0  0  0  0
 13 14  2  0  0  0  0
 13  1  1  0  0  0  0
 14 15  1  0  0  0  0
 16 17  1  0  0  0  0
 18 19  1  0  0  0  0
 18  4  2  0  0  0  0
 19 27  1  0  0  0  0
 20 22  1  0  0  0  0
 20 19  2  0  0  0  0
 21 20  1  0  0  0  0
 22 24  2  0  0  0  0
 23 22  1  0  0  0  0
 24  2  1  0  0  0  0
 24 25  1  0  0  0  0
 25 26  1  0  0  0  0
 27 25  2  0  0  0  0
 27 28  1  0  0  0  0
M  CHG  2   5  -1   6  -1
M  END
