1,2,4
q = -2.0, confidence = 0.944

 23 22  0  0  0  0  0  0  0  0999 V2000
    0.0579    1.4967   -1.7743 O   0  0  0  0  0  1  0  0  0  0  0  0
    1.1894    2.4351    0.8807 O   0  0  0  0  0  1  0  0  0  0  0  0
   -4.3490    3.8497   -0.1044 O   0  0  0  0  0  0  0  0  0  0  0  0
   -1.4050    2.9095    0.0023 N   0  0  0  0  0  0  0  0  0  0  0  0
   -0.4805    4.0553    0.2494 C   0  0  0  0  0  0  0  0  0  0  0  0
   -1.0413    4.9616    0.5666 H   0  0  0  0  0  0  0  0  0  0  0  0
    0.0208    4.2904   -0.7094 H   0  0  0  0  0  0  0  0  0  0  0  0
    0.5827    3.6433    1.2701 C   0  0  0  0  0  0  0  0  0  0  0  0
    1.3478    4.4510    1.3438 H   0  0  0  0  0  0  0  0  0  0  0  0
    0.1231    3.5483    2.2872 H   0  0  0  0  0  0  0  0  0  0  0  0
   -1.9174    2.8543   -1.3983 C   0  0  0  0  0  0  0  0  0  0  0  0
   -2.4004    3.8115   -1.6881 H   0  0  0  0  0  0  0  0  0  0  0  0
   -2.6986    2.0708   -1.4056 H   0  0  0  0  0  0  0  0  0  0  0  0
   -0.7774    2.4688   -2.3446 C   0  0  0  0  0  0  0  0  0  0  0  0
   -1.2280    2.1030   -3.2979 H   0  0  0  0  0  0  0  0  0  0  0  0
   -0.1703    3.3706   -2.6159 H   0  0  0  0  0  0  0  0  0  0  0  0
   -2.4867    2.8149    1.0215 C   0  0  0  0  0  0  0  0  0  0  0  0
   -1.9973    2.7571    2.0134 H   0  0  0  0  0  0  0  0  0  0  0  0
   -3.0047    1.8472    0.8671 H   0  0  0  0  0  0  0  0  0  0  0  0
   -3.5281    3.9276    1.0473 C   0  0  0  0  0  0  0  0  0  0  0  0
   -4.1141    3.7819    1.9880 H   0  0  0  0  0  0  0  0  0  0  0  0
   -3.0318    4.9258    1.1403 H   0  0  0  0  0  0  0  0  0  0  0  0
   -5.0254    4.5465   -0.0379 H   0  0  0  0  0  0  0  0  0  0  0  0
  2  8  1  0  0  0  0
  3 23  1  0  0  0  0
  3 20  1  0  0  0  0
  4  5  1  0  0  0  0
  4 17  1  0  0  0  0
  5  6  1  0  0  0  0
  5  8  1  0  0  0  0
  7  5  1  0  0  0  0
  8  9  1  0  0  0  0
  8 10  1  0  0  0  0
 11  4  1  0  0  0  0
 12 11  1  0  0  0  0
 13 11  1  0  0  0  0
 14  1  1  0  0  0  0
 14 11  1  0  0  0  0
 15 14  1  0  0  0  0
 16 14  1  0  0  0  0
 17 20  1  0  0  0  0
 17 18  1  0  0  0  0
 19 17  1  0  0  0  0
 20 22  1  0  0  0  0
 20 21  1  0  0  0  0
M  END
