3,6,7
q = -2.0, confidence = 0.9

 27 28  0  0  0  0  0  0  0  0999 V2000
    3.2388    2.5704   -1.2330 Br  0  0  0  0  0  0  0  0  0  0  0  0
    6.1926   -1.5316    1.4250 Br  0  0  0  0  0  0  0  0  0  0  0  0
   -0.2009   -1.6800   -0.0431 N   0  0  0  0  0  2  0  0  0  0  0  0
   -1.2375   -2.5009    0.2781 N   0  0  0  0  0  0  0  0  0  0  0  0
   -5.9582   -3.0026   -0.6812 N   0  0  0  0  0  0  0  0  0  0  0  0
    0.9764    0.5950   -0.7838 O   0  5  0  0  0  0  0  0  0  0  0  0
   -2.3222   -1.0444   -1.1267 O   0  5  0  0  0  0  0  0  0  0  0  0
    2.1631   -1.1729    0.3131 C   0  0  0  0  0  0  0  0  0  0  0  0
    2.1037    0.1101   -0.3250 C   0  0  0  0  0  0  0  0  0  0  0  0
    3.3065    0.8676   -0.4060 C   0  0  0  0  0  0  0  0  0  0  0  0
    4.5128    0.3829    0.1066 C   0  0  0  0  0  0  0  0  0  0  0  0
    5.4253    0.9881    0.0230 H   0  0  0  0  0  0  0  0  0  0  0  0
    4.5451   -0.8823    0.7293 C   0  0  0  0  0  0  0  0  0  0  0  0
    3.3893   -1.6519    0.8412 C   0  0  0  0  0  0  0  0  0  0  0  0
    3.4192   -2.6341    1.3340 H   0  0  0  0  0  0  0  0  0  0  0  0
    0.9709   -1.9582    0.4821 C   0  0  0  0  0  3  0  0  0  0  0  0
    1.0188   -2.8665    1.1102 H   0  0  0  0  0  0  0  0  0  0  0  0
   -2.3284   -2.0941   -0.3488 C   0  0  0  0  0  0  0  0  0  0  0  0
   -3.5936   -2.8301   -0.1647 C   0  0  0  0  0  0  0  0  0  0  0  0
   -4.7729   -2.3908   -0.8068 C   0  0  0  0  0  0  0  0  0  0  0  0
   -4.7282   -1.4956   -1.4503 H   0  0  0  0  0  0  0  0  0  0  0  0
   -6.0136   -4.0939    0.0997 C   0  0  0  0  0  0  0  0  0  0  0  0
   -7.0006   -4.5829    0.1882 H   0  0  0  0  0  0  0  0  0  0  0  0
   -4.9028   -4.6199    0.7851 C   0  0  0  0  0  0  0  0  0  0  0  0
   -5.0099   -5.5188    1.4104 H   0  0  0  0  0  0  0  0  0  0  0  0
   -3.6694   -3.9769    0.6521 C   0  0  0  0  0  0  0  0  0  0  0  0
   -2.7622   -4.3341    1.1606 H   0  0  0  0  0  0  0  0  0  0  0  0
  1 10  1  0  0  0  0
  3  4  1  0  0  0  0
  3 16  1  0  0  0  0
  5 22  1  0  0  0  0
  6  9  1  0  0  0  0
  7 18  1  0  0  0  0
  8 16  1  0  0  0  0
  8 14  1  0  0  0  0
  9  8  2  0  0  0  0
 10  9  1  0  0  0  0
 10 11  2  0  0  0  0
 11 13  1  0  0  0  0
 12 11  1  0  0  0  0
 13 14  2  0  0  0  0
 13  2  1  0  0  0  0
 14 15  1  0  0  0  0
 16 17  1  0  0  0  0
 18 19  1  0  0  0  0
 18  4  2  0  0  0  0
 19 26  2  0  0  0  0
 20  5  2  0  0  0  0
 20 19  1  0  0  0  0
 21 20  1  0  0  0  0
 22 23  1  0  0  0  0
 22 24  2  0  0  0  0
 24 25  1  0  0  0  0
 26 24  1  0  0  0  0
 26 27  1  0  0  0  0
M  CHG  2   6  -1   7  -1
M  END
