2,4,5
q = -2.0, confidence = 0.922

 31 32  0  0  0  0  0  0  0  0999 V2000
   -6.9377   -0.7499   -1.0691 Br  0  0  0  0  0  0  0  0  0  0  0  0
   -0.4944   -1.1771    0.1073 N   0  0  0  0  0  2  0  0  0  0  0  0
    0.5107   -1.9834   -0.3244 N   0  0  0  0  0  0  0  0  0  0  0  0
   -1.5799    1.0597    1.0763 O   0  5  0  0  0  0  0  0  0  0  0  0
    1.6666   -0.6917    1.1778 O   0  5  0  0  0  0  0  0  0  0  0  0
   -2.8535   -0.5871   -0.1087 C   0  0  0  0  0  0  0  0  0  0  0  0
   -2.7449    0.6393    0.6272 C   0  0  0  0  0  0  0  0  0  0  0  0
   -3.9077    1.4219    0.8285 C   0  0  0  0  0  0  0  0  0  0  0  0
   -3.8083    2.3622    1.3888 H   0  0  0  0  0  0  0  0  0  0  0  0
   -5.1443    1.0084    0.3308 C   0  0  0  0  0  0  0  0  0  0  0  0
   -6.0416    1.6207    0.4992 H   0  0  0  0  0  0  0  0  0  0  0  0
   -5.2447   -0.1993   -0.3932 C   0  0  0  0  0  0  0  0  0  0  0  0
   -4.1164   -0.9852   -0.6186 C   0  0  0  0  0  0  0  0  0  0  0  0
   -4.1963   -1.9219   -1.1893 H   0  0  0  0  0  0  0  0  0  0  0  0
   -1.6920   -1.3822   -0.3949 C   0  0  0  0  0  3  0  0  0  0  0  0
   -1.7843   -2.2293   -1.0990 H   0  0  0  0  0  0  0  0  0  0  0  0
    1.6319   -1.6635    0.3019 C   0  0  0  0  0  0  0  0  0  0  0  0
    2.8754   -2.4005    0.0131 C   0  0  0  0  0  0  0  0  0  0  0  0
    4.0695   -2.0518    0.6757 C   0  0  0  0  0  0  0  0  0  0  0  0
    4.0467   -1.2305    1.4060 H   0  0  0  0  0  0  0  0  0  0  0  0
    5.2550   -2.7445    0.4031 C   0  0  0  0  0  0  0  0  0  0  0  0
    6.1820   -2.4636    0.9275 H   0  0  0  0  0  0  0  0  0  0  0  0
    5.2859   -3.7990   -0.5319 C   0  0  0  0  0  0  0  0  0  0  0  0
    4.0820   -4.1385   -1.1913 C   0  0  0  0  0  0  0  0  0  0  0  0
    4.0836   -4.9588   -1.9268 H   0  0  0  0  0  0  0  0  0  0  0  0
    2.8937   -3.4552   -0.9272 C   0  0  0  0  0  0  0  0  0  0  0  0
    1.9578   -3.7191   -1.4397 H   0  0  0  0  0  0  0  0  0  0  0  0
    6.5566   -4.5552   -0.8213 C   0  0  0  0  0  0  0  0  0  0  0  0
    6.7832   -4.5632   -1.9078 H   0  0  0  0  0  0  0  0  0  0  0  0
    6.4701   -5.6168   -0.5068 H   0  0  0  0  0  0  0  0  0  0  0  0
    7.4250   -4.1167   -0.2932 H   0  0  0  0  0  0  0  0  0  0  0  0
  1 12  1  0  0  0  0
  3  2  1  0  0  0  0
  3 17  2  0  0  0  0
  6  7  1  0  0  0  0
  7  8  2  0  0  0  0
  7  4  1  0  0  0  0
  8  9  1  0  0  0  0
 10 11  1  0  0  0  0
 10  8  1  0  0  0  0
 12 10  2  0  0  0  0
 13 12  1  0  0  0  0
 13  6  2  0  0  0  0
 14 13  1  0  0  0  0
 15  6  1  0  0  0  0
 15  2  1  0  0  0  0
 16 15  1  0  0  0  0
 17  5  1  0  0  0  0
 18 17  1  0  0  0  0
 18 19  1  0  0  0  0
 19 20  1  0  0  0  0
 21 19  2  0  0  0  0
 21 22  1  0  0  0  0
 23 21  1  0  0  0  0
 24 26  1  0  0  0  0
 24 23  2  0  0  0  0
 25 24  1  0  0  0  0
 26 18  2  0  0  0  0
 27 26  1  0  0  0  0
 28 23  1  0  0  0  0
 28 30  1  0  0  0  0
 28 31  1  0  0  0  0
 29 28  1  0  0  0  0
M  CHG  2   4  -1   5  -1
M  END
