1,2,3
q = -2.0, confidence = 0.812

 37 39  0  0  0  0  0  0  0  0999 V2000
   -3.3125   -0.1643    0.1882 O   0  5  0  0  0  0  0  0  0  0  0  0
   -0.0312   -2.0651   -0.1999 O   0  5  0  0  0  0  0  0  0  0  0  0
   -0.6984    0.3271   -0.4704 N   0  0  0  0  0  2  0  0  0  0  0  0
    0.6403    0.0926   -0.6778 N   0  0  0  0  0  0  0  0  0  0  0  0
   -1.0910    1.5751   -0.5390 C   0  0  0  0  0  3  0  0  0  0  0  0
    0.8929   -1.1867   -0.5451 C   0  0  0  0  0  0  0  0  0  0  0  0
   -2.4434    2.0280   -0.3459 C   0  0  0  0  0  0  0  0  0  0  0  0
   -3.5100    1.1370   -0.0003 C   0  0  0  0  0  0  0  0  0  0  0  0
   -4.8142    1.6522    0.1693 C   0  0  0  0  0  0  0  0  0  0  0  0
   -5.0625    3.0179    0.0066 C   0  0  0  0  0  0  0  0  0  0  0  0
   -4.0203    3.9071   -0.3283 C   0  0  0  0  0  0  0  0  0  0  0  0
   -2.7297    3.4102   -0.4997 C   0  0  0  0  0  0  0  0  0  0  0  0
    2.2745   -1.7357   -0.7991 C   0  0  0  0  0  0  0  0  0  0  0  0
    3.3467   -0.6939   -1.0083 C   0  0  0  0  0  0  0  0  0  0  0  0
    3.7965   -0.4125   -2.2938 C   0  0  0  0  0  0  0  0  0  0  0  0
    4.7872    0.5739   -2.5355 C   0  0  0  0  0  0  0  0  0  0  0  0
    5.3313    1.2860   -1.4800 C   0  0  0  0  0  0  0  0  0  0  0  0
    3.9001    0.0284    0.1038 C   0  0  0  0  0  0  0  0  0  0  0  0
    3.4965   -0.2033    1.4522 C   0  0  0  0  0  0  0  0  0  0  0  0
    4.0452    0.5166    2.5039 C   0  0  0  0  0  0  0  0  0  0  0  0
    5.0312    1.5081    2.2578 C   0  0  0  0  0  0  0  0  0  0  0  0
    5.4515    1.7564    0.9603 C   0  0  0  0  0  0  0  0  0  0  0  0
    4.9066    1.0345   -0.1426 C   0  0  0  0  0  0  0  0  0  0  0  0
   -0.3107    2.3244   -0.7720 H   0  0  0  0  0  0  0  0  0  0  0  0
   -5.6142    0.9468    0.4343 H   0  0  0  0  0  0  0  0  0  0  0  0
   -6.0857    3.3993    0.1450 H   0  0  0  0  0  0  0  0  0  0  0  0
   -4.2235    4.9801   -0.4545 H   0  0  0  0  0  0  0  0  0  0  0  0
   -1.9032    4.0885   -0.7637 H   0  0  0  0  0  0  0  0  0  0  0  0
    2.1913   -2.3850   -1.6969 H   0  0  0  0  0  0  0  0  0  0  0  0
    2.5155   -2.4282    0.0350 H   0  0  0  0  0  0  0  0  0  0  0  0
    3.3678   -0.9659   -3.1440 H   0  0  0  0  0  0  0  0  0  0  0  0
    5.1180    0.7690   -3.5667 H   0  0  0  0  0  0  0  0  0  0  0  0
    6.0990    2.0554   -1.6564 H   0  0  0  0  0  0  0  0  0  0  0  0
    2.7343   -0.9657    1.6630 H   0  0  0  0  0  0  0  0  0  0  0  0
    3.7169    0.3169    3.5355 H   0  0  0  0  0  0  0  0  0  0  0  0
    5.4611    2.0744    3.0977 H   0  0  0  0  0  0  0  0  0  0  0  0
    6.2183    2.5209    0.7592 H   0  0  0  0  0  0  0  0  0  0  0  0
  4  6  2  0  0  0  0
  4  3  1  0  0  0  0
  5  3  1  0  0  0  0
  5  7  1  0  0  0  0
  6  2  1  0  0  0  0
  7  8  1  0  0  0  0
  8  9  2  0  0  0  0
  8  1  1  0  0  0  0
  9 25  1  0  0  0  0
 10 26  1  0  0  0  0
 10  9  1  0  0  0  0
 11 10  2  0  0  0  0
 12  7  2  0  0  0  0
 12 11  1  0  0  0  0
 13  6  1  0  0  0  0
 13 30  1  0  0  0  0
 14 13  1  0  0  0  0
 14 18  1  0  0  0  0
 15 14  2  0  0  0  0
 16 15  1  0  0  0  0
 16 17  2  0  0  0  0
 17 23  1  0  0  0  0
 18 19  1  0  0  0  0
 19 34  1  0  0  0  0
 19 20  2  0  0  0  0
 20 35  1  0  0  0  0
 21 20  1  0  0  0  0
 21 36  1  0  0  0  0
 22 21  2  0  0  0  0
 23 18  2  0  0  0  0
 23 22  1  0  0  0  0
 24  5  1  0  0  0  0
 27 11  1  0  0  0  0
 28 12  1  0  0  0  0
 29 13  1  0  0  0  0
 31 15  1  0  0  0  0
 32 16  1  0  0  0  0
 33 17  1  0  0  0  0
 37 22  1  0  0  0  0
M  CHG  2   1  -1   2  -1
M  END
