4,30,31
q = -1.0, confidence = 0.052

 31 33  0  0  1  0  0  0  0  0999 V2000
   -2.4380    1.9627   -1.3630 N   0  0  0  0  0  0  0  0  0  0  0  0
   -3.3452    4.6188   -1.3634 N   0  0  0  0  0  0  0  0  0  0  0  0
   -3.9005    0.3291    0.5522 N   0  0  0  0  0  0  0  0  0  0  0  0
   -2.2152   -1.9240    1.0507 N   0  0  0  0  0  2  0  0  0  0  0  0
   -3.2440   -3.9916    2.6316 N   0  0  0  0  0  0  0  0  0  0  0  0
   -8.6199    0.5249   -0.8739 O   0  5  0  0  0  0  0  0  0  0  0  0
   -8.2192   -1.7323   -0.8641 O   0  0  0  0  0  0  0  0  0  0  0  0
   -1.6370    2.9795   -1.8051 C   0  0  0  0  0  3  0  0  0  0  0  0
   -0.6478    2.6629   -2.1596 H   0  0  0  0  0  0  0  0  0  0  0  0
   -2.1156    4.2868   -1.7967 C   0  0  0  0  0  0  0  0  0  0  0  0
   -1.4649    5.0968   -2.1659 H   0  0  0  0  0  0  0  0  0  0  0  0
   -4.0976    3.6219   -0.8927 C   0  0  0  0  0  0  0  0  0  0  0  0
   -5.0997    3.8708   -0.5035 H   0  0  0  0  0  0  0  0  0  0  0  0
   -3.6888    2.2753   -0.8386 C   0  0  0  0  0  0  0  0  0  0  0  0
   -4.5214    1.1792   -0.3413 C   0  0  1  0  0  3  0  0  0  0  0  0
   -5.8473    0.9393   -0.7139 C   0  0  0  0  0  0  0  0  0  0  0  0
   -6.4165    1.6510   -1.3320 H   0  0  0  0  0  0  0  0  0  0  0  0
   -6.4791   -0.2504   -0.3171 C   0  0  0  0  0  0  0  0  0  0  0  0
   -5.7241   -1.2052    0.3880 C   0  0  0  0  0  0  0  0  0  0  0  0
   -6.1684   -2.2038    0.5181 H   0  0  0  0  0  0  0  0  0  0  0  0
   -4.4290   -0.9172    0.8300 C   0  0  0  0  0  0  0  0  0  0  0  0
   -3.5297   -1.9294    1.4104 C   0  0  1  0  0  3  0  0  0  0  0  0
   -4.0182   -2.9857    2.2146 C   0  0  0  0  0  0  0  0  0  0  0  0
   -5.0764   -2.9941    2.5261 H   0  0  0  0  0  0  0  0  0  0  0  0
   -1.9587   -3.9775    2.2431 C   0  0  0  0  0  0  0  0  0  0  0  0
   -1.3140   -4.8080    2.5762 H   0  0  0  0  0  0  0  0  0  0  0  0
   -1.4358   -2.9436    1.4510 C   0  0  0  0  0  0  0  0  0  0  0  0
   -0.3847   -2.9108    1.1202 H   0  0  0  0  0  0  0  0  0  0  0  0
   -7.9407   -0.5167   -0.7295 C   0  0  0  0  0  0  0  0  0  0  0  0
   -2.7859    0.7378    1.1326 O   0  0  0  0  0  1  0  0  0  0  0  0
   -2.0325    0.7379   -1.4741 O   0  0  0  0  0  1  0  0  0  0  0  0
  1 14  1  0  0  0  0
  2 12  1  0  0  0  0
  3 21  1  0  0  0  0
  3 30  1  0  0  0  0
  4 22  1  0  0  0  0
  4 27  1  0  0  0  0
  6 29  1  0  0  0  0
  7 29  2  0  0  0  0
  8 10  1  0  0  0  0
  8  1  1  0  0  0  0
  9  8  1  0  0  0  0
 10  2  2  0  0  0  0
 11 10  1  0  0  0  0
 12 14  2  0  0  0  0
 12 13  1  0  0  0  0
 15 14  1  6  0  0  0
 15  3  1  0  0  0  0
 16 15  1  0  0  0  0
 16 18  2  0  0  0  0
 17 16  1  0  0  0  0
 18 19  1  0  0  0  0
 19 20  1  0  0  0  0
 19 21  2  0  0  0  0
 22 21  1  6  0  0  0
 22 23  1  0  0  0  0
 23 24  1  0  0  0  0
 23  5  2  0  0  0  0
 25 26  1  0  0  0  0
 25  5  1  0  0  0  0
 27 25  2  0  0  0  0
 28 27  1  0  0  0  0
 29 18  1  0  0  0  0
 31  1  1  0  0  0  0
M  CHG  1   6  -1
M  END
