1,3,5
q = -2.0, confidence = 0.798

 36 37  0  0  0  0  0  0  0  0999 V2000
   -0.2169    1.2248    0.1523 N   0  0  0  0  0  2  0  0  0  0  0  0
   -1.5376    1.4800    0.3490 N   0  0  0  0  0  0  0  0  0  0  0  0
    2.0044   -0.3582   -0.1108 O   0  5  0  0  0  0  0  0  0  0  0  0
    4.5955   -0.5314   -0.3709 O   0  0  0  0  0  0  0  0  0  0  0  0
   -1.7196   -0.6355   -0.5810 O   0  5  0  0  0  0  0  0  0  0  0  0
   -7.8984    0.6888    0.2397 O   0  0  0  0  0  0  0  0  0  0  0  0
   -8.2930   -0.1237   -0.1291 H   0  0  0  0  0  0  0  0  0  0  0  0
    2.6945    0.7753    0.0550 C   0  0  0  0  0  0  0  0  0  0  0  0
    4.1183    0.6961   -0.0468 C   0  0  0  0  0  0  0  0  0  0  0  0
    4.8909    1.8482    0.1763 C   0  0  0  0  0  0  0  0  0  0  0  0
    5.9856    1.8003    0.1035 H   0  0  0  0  0  0  0  0  0  0  0  0
    4.2744    3.0756    0.4967 C   0  0  0  0  0  0  0  0  0  0  0  0
    4.9001    3.9636    0.6679 H   0  0  0  0  0  0  0  0  0  0  0  0
    2.8901    3.1633    0.5974 C   0  0  0  0  0  0  0  0  0  0  0  0
    2.4035    4.1182    0.8460 H   0  0  0  0  0  0  0  0  0  0  0  0
    2.0761    2.0200    0.3665 C   0  0  0  0  0  0  0  0  0  0  0  0
    0.6428    2.1548    0.4846 C   0  0  0  0  0  3  0  0  0  0  0  0
    0.2330    3.1081    0.8692 H   0  0  0  0  0  0  0  0  0  0  0  0
   -2.2661    0.4657   -0.0813 C   0  0  0  0  0  0  0  0  0  0  0  0
   -3.7311    0.5150   -0.0029 C   0  0  0  0  0  0  0  0  0  0  0  0
   -4.5034   -0.5682   -0.4750 C   0  0  0  0  0  0  0  0  0  0  0  0
   -3.9887   -1.4394   -0.9042 H   0  0  0  0  0  0  0  0  0  0  0  0
   -5.8982   -0.5297   -0.4034 C   0  0  0  0  0  0  0  0  0  0  0  0
   -6.4957   -1.3778   -0.7770 H   0  0  0  0  0  0  0  0  0  0  0  0
   -6.5481    0.5965    0.1445 C   0  0  0  0  0  0  0  0  0  0  0  0
   -5.7816    1.6848    0.6191 C   0  0  0  0  0  0  0  0  0  0  0  0
   -6.3066    2.5537    1.0410 H   0  0  0  0  0  0  0  0  0  0  0  0
   -4.3917    1.6419    0.5432 C   0  0  0  0  0  0  0  0  0  0  0  0
   -3.7817    2.4812    0.9057 H   0  0  0  0  0  0  0  0  0  0  0  0
    6.0048   -0.7390   -0.4673 C   0  0  0  0  0  0  0  0  0  0  0  0
    6.4787    0.0903   -1.0399 H   0  0  0  0  0  0  0  0  0  0  0  0
    6.1073   -1.6563   -1.0805 H   0  0  0  0  0  0  0  0  0  0  0  0
    6.6653   -0.9324    0.8920 C   0  0  0  0  0  0  0  0  0  0  0  0
    6.5821   -0.0280    1.5266 H   0  0  0  0  0  0  0  0  0  0  0  0
    7.7422   -1.1630    0.7637 H   0  0  0  0  0  0  0  0  0  0  0  0
    6.1926   -1.7757    1.4333 H   0  0  0  0  0  0  0  0  0  0  0  0
  1  2  1  0  0  0  0
  1 17  1  0  0  0  0
  3  8  1  0  0  0  0
  4  9  1  0  0  0  0
  5 19  1  0  0  0  0
  7  6  1  0  0  0  0
  8 16  1  0  0  0  0
  9  8  2  0  0  0  0
  9 10  1  0  0  0  0
 10 12  2  0  0  0  0
 11 10  1  0  0  0  0
 12 14  1  0  0  0  0
 12 13  1  0  0  0  0
 14 15  1  0  0  0  0
 16 17  1  0  0  0  0
 16 14  2  0  0  0  0
 17 18  1  0  0  0  0
 19 20  1  0  0  0  0
 19  2  2  0  0  0  0
 20 28  1  0  0  0  0
 21 23  1  0  0  0  0
 21 20  2  0  0  0  0
 22 21  1  0  0  0  0
 23 25  2  0  0  0  0
 24 23  1  0  0  0  0
 25  6  1  0  0  0  0
 25 26  1  0  0  0  0
 26 27  1  0  0  0  0
 28 26  2  0  0  0  0
 28 29  1  0  0  0  0
 30  4  1  0  0  0  0
 30 33  1  0  0  0  0
 31 30  1  0  0  0  0
 32 30  1  0  0  0  0
 33 36  1  0  0  0  0
 33 34  1  0  0  0  0
 35 33  1  0  0  0  0
M  CHG  2   3  -1   5  -1
M  END
