1,2,3
q = -2.0, confidence = 0.964

 39 41  0  0  1  0  0  0  0  0999 V2000
   -1.5505    0.8271   -0.9203 O   0  5  0  0  0  0  0  0  0  0  0  0
    0.1673    1.7270    1.3275 N   0  0  0  0  0  2  0  0  0  0  0  0
    1.6112   -0.9311    0.9169 O   0  5  0  0  0  0  0  0  0  0  0  0
    2.5850   -0.2612    1.4755 C   0  0  0  0  0  0  0  0  0  0  0  0
   -0.8179    2.7023    1.3613 C   0  0  2  0  0  3  0  0  0  0  0  0
   -2.3133    1.8253   -0.5078 C   0  0  0  0  0  0  0  0  0  0  0  0
   -4.6991    2.6662   -0.7899 C   0  0  0  0  0  0  0  0  0  0  0  0
   -4.6721    3.1019    0.2194 H   0  0  0  0  0  0  0  0  0  0  0  0
    1.4741    3.0420    2.9014 C   0  0  0  0  0  0  0  0  0  0  0  0
    2.4003    3.1452    3.4825 H   0  0  0  0  0  0  0  0  0  0  0  0
    5.1273   -0.2840    1.5867 C   0  0  0  0  0  0  0  0  0  0  0  0
    5.1381    0.8082    1.7126 H   0  0  0  0  0  0  0  0  0  0  0  0
    0.4635    3.9936    2.9874 C   0  0  0  0  0  0  0  0  0  0  0  0
    0.5723    4.8682    3.6461 H   0  0  0  0  0  0  0  0  0  0  0  0
   -2.0050    2.6604    0.5492 C   0  0  0  0  0  0  0  0  0  0  0  0
   -2.7069    3.4795    0.7470 H   0  0  0  0  0  0  0  0  0  0  0  0
    3.8976   -0.9669    1.4574 C   0  0  0  0  0  0  0  0  0  0  0  0
   -3.5671    1.9860   -1.2946 C   0  0  0  0  0  0  0  0  0  0  0  0
    1.3324    1.8998    2.0672 C   0  0  0  0  0  0  0  0  0  0  0  0
   -0.6828    3.8277    2.2106 C   0  0  0  0  0  0  0  0  0  0  0  0
   -1.4923    4.5697    2.2249 H   0  0  0  0  0  0  0  0  0  0  0  0
    2.4553    1.0072    2.0300 C   0  0  0  0  0  0  0  0  0  0  0  0
    3.3320    1.3868    2.5689 H   0  0  0  0  0  0  0  0  0  0  0  0
   -4.8276    1.4875   -3.3312 C   0  0  0  0  0  0  0  0  0  0  0  0
   -4.8730    1.0253   -4.3291 H   0  0  0  0  0  0  0  0  0  0  0  0
    3.9166   -2.3600    1.2202 C   0  0  0  0  0  0  0  0  0  0  0  0
    2.9561   -2.8794    1.0959 H   0  0  0  0  0  0  0  0  0  0  0  0
    5.1309   -3.0527    1.1390 C   0  0  0  0  0  0  0  0  0  0  0  0
    5.1287   -4.1394    0.9627 H   0  0  0  0  0  0  0  0  0  0  0  0
   -5.9448    2.1675   -2.8204 C   0  0  0  0  0  0  0  0  0  0  0  0
   -6.8709    2.2360   -3.4109 H   0  0  0  0  0  0  0  0  0  0  0  0
    6.3485   -2.3653    1.2782 C   0  0  0  0  0  0  0  0  0  0  0  0
    7.3031   -2.9088    1.2078 H   0  0  0  0  0  0  0  0  0  0  0  0
   -3.6522    1.3917   -2.5749 C   0  0  0  0  0  0  0  0  0  0  0  0
   -2.7736    0.8560   -2.9606 H   0  0  0  0  0  0  0  0  0  0  0  0
    6.3410   -0.9779    1.4983 C   0  0  0  0  0  0  0  0  0  0  0  0
    7.2900   -0.4275    1.5872 H   0  0  0  0  0  0  0  0  0  0  0  0
   -5.8750    2.7548   -1.5456 C   0  0  0  0  0  0  0  0  0  0  0  0
   -6.7497    3.2793   -1.1316 H   0  0  0  0  0  0  0  0  0  0  0  0
  1  6  1  0  0  0  0
  2  5  1  0  0  0  0
  2 19  1  0  0  0  0
  3  4  1  0  0  0  0
  4 22  2  0  0  0  0
  5 15  1  6  0  0  0
  5 20  1  0  0  0  0
  6 15  2  0  0  0  0
  7  8  1  0  0  0  0
  9 13  1  0  0  0  0
  9 10  1  0  0  0  0
 11 12  1  0  0  0  0
 13 14  1  0  0  0  0
 15 16  1  0  0  0  0
 17  4  1  0  0  0  0
 17 11  2  0  0  0  0
 18  7  1  0  0  0  0
 18  6  1  0  0  0  0
 19  9  2  0  0  0  0
 20 21  1  0  0  0  0
 20 13  2  0  0  0  0
 22 19  1  0  0  0  0
 22 23  1  0  0  0  0
 24 30  2  0  0  0  0
 24 34  1  0  0  0  0
 25 24  1  0  0  0  0
 26 17  1  0  0  0  0
 27 26  1  0  0  0  0
 28 26  2  0  0  0  0
 28 32  1  0  0  0  0
 29 28  1  0  0  0  0
 30 38  1  0  0  0  0
 31 30  1  0  0  0  0
 32 36  2  0  0  0  0
 33 32  1  0  0  0  0
 34 18  2  0  0  0  0
 35 34  1  0  0  0  0
 36 11  1  0  0  0  0
 36 37  1  0  0  0  0
 38 39  1  0  0  0  0
 38  7  2  0  0  0  0
M  CHG  2   1  -1   3  -1
M  END
