2,3,4
q = -1.0

 74 77  0  0  0  0  0  0  0  0999 V2000
   -2.9052   -0.1950   -0.1092 P   0  0  0  0  0  4  0  0  0  0  0  0
   -0.0857   -0.9898    0.7504 N   0  0  0  0  0  0  0  0  0  0  0  0
    1.6097    1.2997    0.8054 O   0  5  0  0  0  0  0  0  0  0  0  0
   -2.1222    1.0289    0.4488 O   0  0  0  0  0  1  0  0  0  0  0  0
    2.6288    0.4730    0.5321 C   0  0  0  0  0  0  0  0  0  0  0  0
    3.8719    0.9805    0.0492 C   0  0  0  0  0  0  0  0  0  0  0  0
    4.8733    0.0331   -0.2225 C   0  0  0  0  0  0  0  0  0  0  0  0
    5.8350    0.3983   -0.6048 H   0  0  0  0  0  0  0  0  0  0  0  0
    4.7204   -1.3573   -0.0339 C   0  0  0  0  0  0  0  0  0  0  0  0
    3.4898   -1.8064    0.4721 C   0  0  0  0  0  0  0  0  0  0  0  0
    3.3225   -2.8763    0.6673 H   0  0  0  0  0  0  0  0  0  0  0  0
    2.4459   -0.9129    0.7577 C   0  0  0  0  0  0  0  0  0  0  0  0
    1.1714   -1.4033    1.4074 C   0  0  0  0  0  0  0  0  0  0  0  0
    1.2091   -2.5104    1.5071 H   0  0  0  0  0  0  0  0  0  0  0  0
    1.0985   -0.9723    2.4271 H   0  0  0  0  0  0  0  0  0  0  0  0
   -0.5204   -1.6452   -0.4207 C   0  0  0  0  0  0  0  0  0  0  0  0
    0.3273   -2.5023   -1.1505 C   0  0  0  0  0  0  0  0  0  0  0  0
    1.3562   -2.6682   -0.8105 H   0  0  0  0  0  0  0  0  0  0  0  0
   -0.1189   -3.1196   -2.3263 C   0  0  0  0  0  0  0  0  0  0  0  0
    0.5678   -3.7835   -2.8729 H   0  0  0  0  0  0  0  0  0  0  0  0
   -1.4143   -2.8951   -2.8134 C   0  0  0  0  0  0  0  0  0  0  0  0
   -1.7594   -3.3791   -3.7383 H   0  0  0  0  0  0  0  0  0  0  0  0
   -2.2583   -2.0189   -2.1194 C   0  0  0  0  0  0  0  0  0  0  0  0
   -3.2614   -1.7944   -2.5125 H   0  0  0  0  0  0  0  0  0  0  0  0
   -1.8263   -1.3924   -0.9353 C   0  0  0  0  0  0  0  0  0  0  0  0
   -4.1368    0.3674   -1.3100 C   0  0  0  0  0  0  0  0  0  0  0  0
   -5.4888   -0.0207   -1.2524 C   0  0  0  0  0  0  0  0  0  0  0  0
   -5.8396   -0.6952   -0.4569 H   0  0  0  0  0  0  0  0  0  0  0  0
   -6.3875    0.4691   -2.2124 C   0  0  0  0  0  0  0  0  0  0  0  0
   -7.4460    0.1715   -2.1720 H   0  0  0  0  0  0  0  0  0  0  0  0
   -5.9376    1.3436   -3.2144 C   0  0  0  0  0  0  0  0  0  0  0  0
   -6.6466    1.7287   -3.9631 H   0  0  0  0  0  0  0  0  0  0  0  0
   -4.5886    1.7357   -3.2613 C   0  0  0  0  0  0  0  0  0  0  0  0
   -4.2407    2.4276   -4.0429 H   0  0  0  0  0  0  0  0  0  0  0  0
   -3.6796    1.2536   -2.3106 C   0  0  0  0  0  0  0  0  0  0  0  0
   -2.6179    1.5532   -2.3320 H   0  0  0  0  0  0  0  0  0  0  0  0
    4.1039    2.4892   -0.1577 C   0  0  0  0  0  0  0  0  0  0  0  0
    3.1822    3.0101   -1.2849 C   0  0  0  0  0  0  0  0  0  0  0  0
    3.3830    2.4759   -2.2355 H   0  0  0  0  0  0  0  0  0  0  0  0
    3.3677    4.0918   -1.4502 H   0  0  0  0  0  0  0  0  0  0  0  0
    2.1124    2.8794   -1.0454 H   0  0  0  0  0  0  0  0  0  0  0  0
    3.8155    3.2566    1.1552 C   0  0  0  0  0  0  0  0  0  0  0  0
    2.7564    3.1724    1.4587 H   0  0  0  0  0  0  0  0  0  0  0  0
    4.0435    4.3332    1.0146 H   0  0  0  0  0  0  0  0  0  0  0  0
    4.4506    2.8780    1.9822 H   0  0  0  0  0  0  0  0  0  0  0  0
    5.5606    2.7857   -0.5620 C   0  0  0  0  0  0  0  0  0  0  0  0
    6.2852    2.4425    0.2045 H   0  0  0  0  0  0  0  0  0  0  0  0
    5.6901    3.8802   -0.6777 H   0  0  0  0  0  0  0  0  0  0  0  0
    5.8302    2.3191   -1.5313 H   0  0  0  0  0  0  0  0  0  0  0  0
    5.8819   -2.3059   -0.3768 C   0  0  0  0  0  0  0  0  0  0  0  0
    6.2357   -2.1547   -1.8740 C   0  0  0  0  0  0  0  0  0  0  0  0
    7.0769   -2.8262   -2.1449 H   0  0  0  0  0  0  0  0  0  0  0  0
    6.5386   -1.1181   -2.1215 H   0  0  0  0  0  0  0  0  0  0  0  0
    5.3671   -2.4122   -2.5134 H   0  0  0  0  0  0  0  0  0  0  0  0
    7.1129   -1.9403    0.4836 C   0  0  0  0  0  0  0  0  0  0  0  0
    6.8849   -2.0430    1.5638 H   0  0  0  0  0  0  0  0  0  0  0  0
    7.4415   -0.8970    0.3071 H   0  0  0  0  0  0  0  0  0  0  0  0
    7.9669   -2.6079    0.2449 H   0  0  0  0  0  0  0  0  0  0  0  0
    5.5243   -3.7782   -0.1104 C   0  0  0  0  0  0  0  0  0  0  0  0
    4.6576   -4.1083   -0.7185 H   0  0  0  0  0  0  0  0  0  0  0  0
    5.2863   -3.9586    0.9575 H   0  0  0  0  0  0  0  0  0  0  0  0
    6.3828   -4.4282   -0.3742 H   0  0  0  0  0  0  0  0  0  0  0  0
   -3.7185   -1.0447    1.2726 C   0  0  0  0  0  0  0  0  0  0  0  0
   -3.7875   -0.3859    2.5169 C   0  0  0  0  0  0  0  0  0  0  0  0
   -3.3117    0.5993    2.6369 H   0  0  0  0  0  0  0  0  0  0  0  0
   -4.4146   -1.0263    3.5966 C   0  0  0  0  0  0  0  0  0  0  0  0
   -4.4587   -0.5226    4.5738 H   0  0  0  0  0  0  0  0  0  0  0  0
   -4.9715   -2.3046    3.4351 C   0  0  0  0  0  0  0  0  0  0  0  0
   -5.4620   -2.8010    4.2862 H   0  0  0  0  0  0  0  0  0  0  0  0
   -4.8922   -2.9621    2.1949 C   0  0  0  0  0  0  0  0  0  0  0  0
   -5.3159   -3.9705    2.0754 H   0  0  0  0  0  0  0  0  0  0  0  0
   -4.2590   -2.3383    1.1114 C   0  0  0  0  0  0  0  0  0  0  0  0
   -4.1701   -2.8602    0.1457 H   0  0  0  0  0  0  0  0  0  0  0  0
   -0.8171   -0.8941    1.4716 H   0  0  0  0  0  0  0  0  0  0  0  0
  1  4  1  0  0  0  0
  1 63  1  0  0  0  0
  2 13  1  0  0  0  0
  2 74  1  0  0  0  0
  5 12  1  0  0  0  0
  5  3  1  0  0  0  0
  6  5  2  0  0  0  0
  7  9  2  0  0  0  0
  7  6  1  0  0  0  0
  8  7  1  0  0  0  0
  9 10  1  0  0  0  0
 10 11  1  0  0  0  0
 10 12  2  0  0  0  0
 12 13  1  0  0  0  0
 13 14  1  0  0  0  0
 13 15  1  0  0  0  0
 16  2  1  0  0  0  0
 17 18  1  0  0  0  0
 17 16  2  0  0  0  0
 19 17  1  0  0  0  0
 20 19  1  0  0  0  0
 21 19  2  0  0  0  0
 21 23  1  0  0  0  0
 22 21  1  0  0  0  0
 23 25  2  0  0  0  0
 24 23  1  0  0  0  0
 25 16  1  0  0  0  0
 25  1  1  0  0  0  0
 26 27  1  0  0  0  0
 26  1  1  0  0  0  0
 27 28  1  0  0  0  0
 29 30  1  0  0  0  0
 29 27  2  0  0  0  0
 31 29  1  0  0  0  0
 32 31  1  0  0  0  0
 33 31  2  0  0  0  0
 33 35  1  0  0  0  0
 34 33  1  0  0  0  0
 35 26  2  0  0  0  0
 36 35  1  0  0  0  0
 37  6  1  0  0  0  0
 37 42  1  0  0  0  0
 38 41  1  0  0  0  0
 38 37  1  0  0  0  0
 39 38  1  0  0  0  0
 40 38  1  0  0  0  0
 42 43  1  0  0  0  0
 42 45  1  0  0  0  0
 44 42  1  0  0  0  0
 46 37  1  0  0  0  0
 46 47  1  0  0  0  0
 48 46  1  0  0  0  0
 49 46  1  0  0  0  0
 50 59  1  0  0  0  0
 50  9  1  0  0  0  0
 50 55  1  0  0  0  0
 51 50  1  0  0  0  0
 52 51  1  0  0  0  0
 53 51  1  0  0  0  0
 54 51  1  0  0  0  0
 55 56  1  0  0  0  0
 57 55  1  0  0  0  0
 58 55  1  0  0  0  0
 59 61  1  0  0  0  0
 60 59  1  0  0  0  0
 62 59  1  0  0  0  0
 63 64  1  0  0  0  0
 64 65  1  0  0  0  0
 64 66  2  0  0  0  0
 66 67  1  0  0  0  0
 68 66  1  0  0  0  0
 68 69  1  0  0  0  0
 70 68  2  0  0  0  0
 71 70  1  0  0  0  0
 72 63  2  0  0  0  0
 72 70  1  0  0  0  0
 73 72  1  0  0  0  0
M  CHG  1   3  -1
M  END
