3,5,6
q = -2.0, confidence = 0.91

 28 29  0  0  0  0  0  0  0  0999 V2000
    4.9205    1.2945   -0.5338 Br  0  0  0  0  0  0  0  0  0  0  0  0
   -3.9597    0.3154   -0.7449 Cl  0  0  0  0  0  0  0  0  0  0  0  0
    0.4366   -1.9085    0.4405 N   0  0  0  0  0  2  0  0  0  0  0  0
   -0.8073   -2.4086    0.6846 N   0  0  0  0  0  0  0  0  0  0  0  0
    2.2101   -0.0522   -0.2746 O   0  5  0  0  0  0  0  0  0  0  0  0
   -1.3018   -0.9384   -1.0048 O   0  5  0  0  0  0  0  0  0  0  0  0
    2.7903   -1.9278    1.0991 C   0  0  0  0  0  0  0  0  0  0  0  0
    3.1243   -0.7359    0.3720 C   0  0  0  0  0  0  0  0  0  0  0  0
    4.4742   -0.2877    0.4111 C   0  0  0  0  0  0  0  0  0  0  0  0
    5.4508   -0.9893    1.1236 C   0  0  0  0  0  0  0  0  0  0  0  0
    6.4843   -0.6143    1.1223 H   0  0  0  0  0  0  0  0  0  0  0  0
    5.1118   -2.1591    1.8340 C   0  0  0  0  0  0  0  0  0  0  0  0
    5.8884   -2.7016    2.3918 H   0  0  0  0  0  0  0  0  0  0  0  0
    3.7955   -2.6152    1.8270 C   0  0  0  0  0  0  0  0  0  0  0  0
    3.5158   -3.5225    2.3842 H   0  0  0  0  0  0  0  0  0  0  0  0
    1.4304   -2.3885    1.1533 C   0  0  0  0  0  3  0  0  0  0  0  0
    1.1739   -3.2013    1.8576 H   0  0  0  0  0  0  0  0  0  0  0  0
   -1.6737   -1.8293   -0.1306 C   0  0  0  0  0  0  0  0  0  0  0  0
   -3.0981   -2.2332   -0.0496 C   0  0  0  0  0  0  0  0  0  0  0  0
   -4.1832   -1.3704   -0.3424 C   0  0  0  0  0  0  0  0  0  0  0  0
   -5.5084   -1.8318   -0.2620 C   0  0  0  0  0  0  0  0  0  0  0  0
   -6.3257   -1.1339   -0.4915 H   0  0  0  0  0  0  0  0  0  0  0  0
   -5.7722   -3.1541    0.1155 C   0  0  0  0  0  0  0  0  0  0  0  0
   -6.8140   -3.5044    0.1687 H   0  0  0  0  0  0  0  0  0  0  0  0
   -4.7119   -4.0192    0.4315 C   0  0  0  0  0  0  0  0  0  0  0  0
   -4.9117   -5.0568    0.7367 H   0  0  0  0  0  0  0  0  0  0  0  0
   -3.3959   -3.5563    0.3522 C   0  0  0  0  0  0  0  0  0  0  0  0
   -2.5472   -4.2107    0.5957 H   0  0  0  0  0  0  0  0  0  0  0  0
  1  9  1  0  0  0  0
  2 20  1  0  0  0  0
  3  4  1  0  0  0  0
  3 16  1  0  0  0  0
  5  8  1  0  0  0  0
  6 18  1  0  0  0  0
  7 16  1  0  0  0  0
  7 14  1  0  0  0  0
  8  9  1  0  0  0  0
  8  7  2  0  0  0  0
  9 10  2  0  0  0  0
 10 12  1  0  0  0  0
 11 10  1  0  0  0  0
 12 13  1  0  0  0  0
 14 12  2  0  0  0  0
 14 15  1  0  0  0  0
 16 17  1  0  0  0  0
 18 19  1  0  0  0  0
 18  4  2  0  0  0  0
 19 27  1  0  0  0  0
 20 21  1  0  0  0  0
 20 19  2  0  0  0  0
 21 23  2  0  0  0  0
 22 21  1  0  0  0  0
 23 24  1  0  0  0  0
 23 25  1  0  0  0  0
 25 26  1  0  0  0  0
 27 25  2  0  0  0  0
 27 28  1  0  0  0  0
M  CHG  2   5  -1   6  -1
M  END
