1,2,3
q = -2.0, confidence = 0.82

 61 63  0  0  1  0  0  0  0  0999 V2000
    2.2348   -0.4279   -0.7092 O   0  5  0  0  0  0  0  0  0  0  0  0
   -1.5390   -0.0802   -1.5884 O   0  5  0  0  0  0  0  0  0  0  0  0
    0.4274    1.7334   -0.4864 N   0  0  0  0  0  2  0  0  0  0  0  0
    3.0643    0.2842    0.0458 C   0  0  0  0  0  0  0  0  0  0  0  0
    4.1954   -0.3383    0.6628 C   0  0  0  0  0  0  0  0  0  0  0  0
    5.0515    0.4825    1.4104 C   0  0  0  0  0  0  0  0  0  0  0  0
    5.9294    0.0345    1.8966 H   0  0  0  0  0  0  0  0  0  0  0  0
    4.8427    1.8686    1.5833 C   0  0  0  0  0  0  0  0  0  0  0  0
    3.7279    2.4446    0.9691 C   0  0  0  0  0  0  0  0  0  0  0  0
    3.5265    3.5140    1.1319 H   0  0  0  0  0  0  0  0  0  0  0  0
    2.8236    1.6789    0.1937 C   0  0  0  0  0  0  0  0  0  0  0  0
    1.6422    2.3658   -0.3841 C   0  0  2  0  0  3  0  0  0  0  0  0
    1.7687    3.7303   -0.7365 C   0  0  0  0  0  0  0  0  0  0  0  0
    2.7659    4.1876   -0.7535 H   0  0  0  0  0  0  0  0  0  0  0  0
    0.6396    4.4700   -1.0843 C   0  0  0  0  0  0  0  0  0  0  0  0
    0.7338    5.5182   -1.4057 H   0  0  0  0  0  0  0  0  0  0  0  0
   -0.6144    3.8626   -0.9907 C   0  0  0  0  0  0  0  0  0  0  0  0
   -1.5364    4.4204   -1.1998 H   0  0  0  0  0  0  0  0  0  0  0  0
   -0.6994    2.4918   -0.6693 C   0  0  0  0  0  0  0  0  0  0  0  0
   -2.0484    1.9168   -0.4309 C   0  0  0  0  0  0  0  0  0  0  0  0
   -2.4320    0.6330   -0.9058 C   0  0  0  0  0  0  0  0  0  0  0  0
   -3.7505    0.1328   -0.6615 C   0  0  0  0  0  0  0  0  0  0  0  0
   -4.6072    0.9320    0.1110 C   0  0  0  0  0  0  0  0  0  0  0  0
   -5.6180    0.5639    0.3352 H   0  0  0  0  0  0  0  0  0  0  0  0
   -4.2422    2.1935    0.6295 C   0  0  0  0  0  0  0  0  0  0  0  0
   -2.9658    2.6797    0.3270 C   0  0  0  0  0  0  0  0  0  0  0  0
   -2.6498    3.6569    0.7246 H   0  0  0  0  0  0  0  0  0  0  0  0
    4.4548   -1.8491    0.5013 C   0  0  0  0  0  0  0  0  0  0  0  0
    3.2578   -2.6471    1.0710 C   0  0  0  0  0  0  0  0  0  0  0  0
    2.3278   -2.4195    0.5220 H   0  0  0  0  0  0  0  0  0  0  0  0
    3.1047   -2.4112    2.1448 H   0  0  0  0  0  0  0  0  0  0  0  0
    3.4505   -3.7363    0.9812 H   0  0  0  0  0  0  0  0  0  0  0  0
    4.6543   -2.1948   -0.9938 C   0  0  0  0  0  0  0  0  0  0  0  0
    3.7559   -1.9600   -1.5923 H   0  0  0  0  0  0  0  0  0  0  0  0
    4.8684   -3.2779   -1.1055 H   0  0  0  0  0  0  0  0  0  0  0  0
    5.5121   -1.6315   -1.4139 H   0  0  0  0  0  0  0  0  0  0  0  0
    5.7182   -2.2944    1.2605 C   0  0  0  0  0  0  0  0  0  0  0  0
    5.6401   -2.1058    2.3507 H   0  0  0  0  0  0  0  0  0  0  0  0
    6.6302   -1.7880    0.8845 H   0  0  0  0  0  0  0  0  0  0  0  0
    5.8636   -3.3843    1.1208 H   0  0  0  0  0  0  0  0  0  0  0  0
    5.7947    2.6855    2.4214 C   0  0  0  0  0  0  0  0  0  0  0  0
    5.8517    2.3041    3.4627 H   0  0  0  0  0  0  0  0  0  0  0  0
    5.4884    3.7486    2.4688 H   0  0  0  0  0  0  0  0  0  0  0  0
    6.8264    2.6504    2.0121 H   0  0  0  0  0  0  0  0  0  0  0  0
   -5.2001    2.9707    1.4978 C   0  0  0  0  0  0  0  0  0  0  0  0
   -5.3808    2.4524    2.4644 H   0  0  0  0  0  0  0  0  0  0  0  0
   -6.1902    3.0880    1.0104 H   0  0  0  0  0  0  0  0  0  0  0  0
   -4.8145    3.9831    1.7281 H   0  0  0  0  0  0  0  0  0  0  0  0
   -4.2074   -1.2239   -1.2327 C   0  0  0  0  0  0  0  0  0  0  0  0
   -4.0748   -1.2077   -2.7741 C   0  0  0  0  0  0  0  0  0  0  0  0
   -4.7133   -0.4140   -3.2124 H   0  0  0  0  0  0  0  0  0  0  0  0
   -4.4027   -2.1816   -3.1927 H   0  0  0  0  0  0  0  0  0  0  0  0
   -3.0306   -1.0302   -3.0897 H   0  0  0  0  0  0  0  0  0  0  0  0
   -3.3501   -2.3691   -0.6444 C   0  0  0  0  0  0  0  0  0  0  0  0
   -3.4095   -2.3699    0.4638 H   0  0  0  0  0  0  0  0  0  0  0  0
   -2.2924   -2.2886   -0.9520 H   0  0  0  0  0  0  0  0  0  0  0  0
   -3.7275   -3.3477   -1.0066 H   0  0  0  0  0  0  0  0  0  0  0  0
   -5.6787   -1.5200   -0.8875 C   0  0  0  0  0  0  0  0  0  0  0  0
   -5.8448   -1.5980    0.2065 H   0  0  0  0  0  0  0  0  0  0  0  0
   -5.9711   -2.4900   -1.3370 H   0  0  0  0  0  0  0  0  0  0  0  0
   -6.3646   -0.7471   -1.2892 H   0  0  0  0  0  0  0  0  0  0  0  0
  1  4  1  0  0  0  0
  2 21  1  0  0  0  0
  3 12  1  0  0  0  0
  4 11  2  0  0  0  0
  4  5  1  0  0  0  0
  5  6  2  0  0  0  0
  6  8  1  0  0  0  0
  6  7  1  0  0  0  0
  8 41  1  0  0  0  0
  9 10  1  0  0  0  0
  9  8  2  0  0  0  0
 11  9  1  0  0  0  0
 12 11  1  1  0  0  0
 13 12  1  0  0  0  0
 14 13  1  0  0  0  0
 15 17  1  0  0  0  0
 15 13  2  0  0  0  0
 16 15  1  0  0  0  0
 17 19  2  0  0  0  0
 18 17  1  0  0  0  0
 19  3  1  0  0  0  0
 19 20  1  0  0  0  0
 20 26  1  0  0  0  0
 21 22  1  0  0  0  0
 21 20  2  0  0  0  0
 22 23  2  0  0  0  0
 23 24  1  0  0  0  0
 23 25  1  0  0  0  0
 25 45  1  0  0  0  0
 26 25  2  0  0  0  0
 26 27  1  0  0  0  0
 28  5  1  0  0  0  0
 28 29  1  0  0  0  0
 28 37  1  0  0  0  0
 29 31  1  0  0  0  0
 30 29  1  0  0  0  0
 32 29  1  0  0  0  0
 33 28  1  0  0  0  0
 34 33  1  0  0  0  0
 35 33  1  0  0  0  0
 36 33  1  0  0  0  0
 37 38  1  0  0  0  0
 39 37  1  0  0  0  0
 40 37  1  0  0  0  0
 41 43  1  0  0  0  0
 41 42  1  0  0  0  0
 44 41  1  0  0  0  0
 45 48  1  0  0  0  0
 45 46  1  0  0  0  0
 47 45  1  0  0  0  0
 49 58  1  0  0  0  0
 49 22  1  0  0  0  0
 49 54  1  0  0  0  0
 50 49  1  0  0  0  0
 51 50  1  0  0  0  0
 52 50  1  0  0  0  0
 53 50  1  0  0  0  0
 54 55  1  0  0  0  0
 56 54  1  0  0  0  0
 57 54  1  0  0  0  0
 58 59  1  0  0  0  0
 60 58  1  0  0  0  0
 61 58  1  0  0  0  0
M  CHG  2   1  -1   2  -1
M  END
