1,2,3
q = -2.0, confidence = 0.894

 29 29  0  0  1  0  0  0  0  0999 V2000
   -1.1781    1.8442   -0.0793 O   0  0  0  0  0  1  0  0  0  0  0  0
   -1.1774   -1.8447   -0.0755 O   0  0  0  0  0  1  0  0  0  0  0  0
   -2.8640   -0.0007   -0.1744 N   0  0  0  0  0  2  0  0  0  0  0  0
   -3.4894    1.1859   -0.2015 C   0  0  1  0  0  3  0  0  0  0  0  0
   -4.8889    1.2213   -0.2791 C   0  0  0  0  0  0  0  0  0  0  0  0
   -5.4295    2.1780   -0.3024 H   0  0  0  0  0  0  0  0  0  0  0  0
   -5.5818   -0.0014   -0.3201 C   0  0  0  0  0  0  0  0  0  0  0  0
   -6.6807   -0.0017   -0.3815 H   0  0  0  0  0  0  0  0  0  0  0  0
   -4.8884   -1.2237   -0.2766 C   0  0  0  0  0  0  0  0  0  0  0  0
   -5.4286   -2.1806   -0.2979 H   0  0  0  0  0  0  0  0  0  0  0  0
   -3.4889   -1.1876   -0.1991 C   0  0  0  0  0  0  0  0  0  0  0  0
   -2.5112    2.3677   -0.1154 C   0  0  0  0  0  0  0  0  0  0  0  0
   -2.7386    3.1451    1.1917 C   0  0  0  0  0  0  0  0  0  0  0  0
   -2.0077    3.9747    1.2495 H   0  0  0  0  0  0  0  0  0  0  0  0
   -2.5809    2.4717    2.0563 H   0  0  0  0  0  0  0  0  0  0  0  0
   -3.7629    3.5667    1.2303 H   0  0  0  0  0  0  0  0  0  0  0  0
   -2.6317    3.2647   -1.3562 C   0  0  0  0  0  0  0  0  0  0  0  0
   -2.4382    2.6798   -2.2759 H   0  0  0  0  0  0  0  0  0  0  0  0
   -1.8818    4.0764   -1.2905 H   0  0  0  0  0  0  0  0  0  0  0  0
   -3.6408    3.7182   -1.4238 H   0  0  0  0  0  0  0  0  0  0  0  0
   -2.5102   -2.3688   -0.1105 C   0  0  0  0  0  0  0  0  0  0  0  0
   -2.7373   -3.1436    1.1982 C   0  0  0  0  0  0  0  0  0  0  0  0
   -2.0061   -3.9728    1.2577 H   0  0  0  0  0  0  0  0  0  0  0  0
   -3.7614   -3.5655    1.2377 H   0  0  0  0  0  0  0  0  0  0  0  0
   -2.5799   -2.4684    2.0614 H   0  0  0  0  0  0  0  0  0  0  0  0
   -2.6304   -3.2684   -1.3494 C   0  0  0  0  0  0  0  0  0  0  0  0
   -1.8802   -4.0796   -1.2821 H   0  0  0  0  0  0  0  0  0  0  0  0
   -2.4371   -2.6853   -2.2704 H   0  0  0  0  0  0  0  0  0  0  0  0
   -3.6393   -3.7225   -1.4161 H   0  0  0  0  0  0  0  0  0  0  0  0
  4  3  1  0  0  0  0
  4 12  1  1  0  0  0
  5  4  1  0  0  0  0
  6  5  1  0  0  0  0
  7  5  2  0  0  0  0
  7  9  1  0  0  0  0
  8  7  1  0  0  0  0
  9 11  2  0  0  0  0
 10  9  1  0  0  0  0
 11  3  1  0  0  0  0
 11 21  1  0  0  0  0
 12  1  1  0  0  0  0
 12 13  1  0  0  0  0
 13 16  1  0  0  0  0
 13 14  1  0  0  0  0
 13 15  1  0  0  0  0
 17 19  1  0  0  0  0
 17 12  1  0  0  0  0
 18 17  1  0  0  0  0
 20 17  1  0  0  0  0
 21  2  1  0  0  0  0
 21 22  1  0  0  0  0
 22 24  1  0  0  0  0
 22 23  1  0  0  0  0
 22 25  1  0  0  0  0
 26 27  1  0  0  0  0
 26 21  1  0  0  0  0
 28 26  1  0  0  0  0
 29 26  1  0  0  0  0
M  END
