1,2,3
q = -2.0, confidence = 0.912

 57 61  0  0  1  0  0  0  0  0999 V2000
    1.8300   -0.2625    0.9919 O   0  0  0  0  0  1  0  0  0  0  0  0
   -1.7485   -0.2740    1.0531 O   0  0  0  0  0  1  0  0  0  0  0  0
    0.0112   -0.5946   -0.5878 N   0  0  0  0  0  2  0  0  0  0  0  0
    1.1809   -0.7897   -1.2124 C   0  0  1  0  0  3  0  0  0  0  0  0
    1.2009   -1.2774   -2.5254 C   0  0  0  0  0  0  0  0  0  0  0  0
    2.1565   -1.4686   -3.0329 H   0  0  0  0  0  0  0  0  0  0  0  0
   -0.0320   -1.5372   -3.1498 C   0  0  0  0  0  0  0  0  0  0  0  0
   -0.0505   -1.9465   -4.1714 H   0  0  0  0  0  0  0  0  0  0  0  0
   -1.2418   -1.2847   -2.4794 C   0  0  0  0  0  0  0  0  0  0  0  0
   -2.2129   -1.4989   -2.9470 H   0  0  0  0  0  0  0  0  0  0  0  0
   -1.1806   -0.7836   -1.1710 C   0  0  0  0  0  0  0  0  0  0  0  0
    2.3562   -0.3868   -0.3082 C   0  0  0  0  0  0  0  0  0  0  0  0
    2.9032    1.0054   -0.6933 C   0  0  0  0  0  0  0  0  0  0  0  0
    2.3943    1.7878   -1.7470 C   0  0  0  0  0  0  0  0  0  0  0  0
    1.6119    1.3864   -2.4076 H   0  0  0  0  0  0  0  0  0  0  0  0
    2.8732    3.0944   -1.9602 C   0  0  0  0  0  0  0  0  0  0  0  0
    2.4632    3.6951   -2.7862 H   0  0  0  0  0  0  0  0  0  0  0  0
    3.8629    3.6272   -1.1241 C   0  0  0  0  0  0  0  0  0  0  0  0
    4.2353    4.6494   -1.2892 H   0  0  0  0  0  0  0  0  0  0  0  0
    4.3758    2.8491   -0.0696 C   0  0  0  0  0  0  0  0  0  0  0  0
    5.1499    3.2628    0.5943 H   0  0  0  0  0  0  0  0  0  0  0  0
    3.8990    1.5515    0.1455 C   0  0  0  0  0  0  0  0  0  0  0  0
    4.2793    0.9454    0.9807 H   0  0  0  0  0  0  0  0  0  0  0  0
    3.4432   -1.4679   -0.3604 C   0  0  0  0  0  0  0  0  0  0  0  0
    4.4720   -1.4242   -1.3201 C   0  0  0  0  0  0  0  0  0  0  0  0
    4.5447   -0.5673   -2.0079 H   0  0  0  0  0  0  0  0  0  0  0  0
    5.4191   -2.4583   -1.3874 C   0  0  0  0  0  0  0  0  0  0  0  0
    6.2244   -2.4142   -2.1366 H   0  0  0  0  0  0  0  0  0  0  0  0
    5.3463   -3.5369   -0.4922 C   0  0  0  0  0  0  0  0  0  0  0  0
    6.0923   -4.3448   -0.5402 H   0  0  0  0  0  0  0  0  0  0  0  0
    4.3228   -3.5769    0.4688 C   0  0  0  0  0  0  0  0  0  0  0  0
    4.2629   -4.4183    1.1760 H   0  0  0  0  0  0  0  0  0  0  0  0
    3.3707   -2.5493    0.5371 C   0  0  0  0  0  0  0  0  0  0  0  0
    2.5600   -2.5745    1.2815 H   0  0  0  0  0  0  0  0  0  0  0  0
   -2.3267   -0.4036   -0.2217 C   0  0  0  0  0  0  0  0  0  0  0  0
   -2.9655    0.9481   -0.6021 C   0  0  0  0  0  0  0  0  0  0  0  0
   -3.6503    1.6366    0.4193 C   0  0  0  0  0  0  0  0  0  0  0  0
   -3.6538    1.2077    1.4315 H   0  0  0  0  0  0  0  0  0  0  0  0
   -4.2993    2.8477    0.1482 C   0  0  0  0  0  0  0  0  0  0  0  0
   -4.8302    3.3735    0.9564 H   0  0  0  0  0  0  0  0  0  0  0  0
   -4.2721    3.3922   -1.1475 C   0  0  0  0  0  0  0  0  0  0  0  0
   -4.7811    4.3445   -1.3601 H   0  0  0  0  0  0  0  0  0  0  0  0
   -3.5826    2.7180   -2.1648 C   0  0  0  0  0  0  0  0  0  0  0  0
   -3.5434    3.1408   -3.1804 H   0  0  0  0  0  0  0  0  0  0  0  0
   -2.9303    1.5023   -1.8930 C   0  0  0  0  0  0  0  0  0  0  0  0
   -2.3857    0.9938   -2.7016 H   0  0  0  0  0  0  0  0  0  0  0  0
   -3.3778   -1.5307   -0.2210 C   0  0  0  0  0  0  0  0  0  0  0  0
   -4.4721   -1.5209   -1.1059 C   0  0  0  0  0  0  0  0  0  0  0  0
   -4.6297   -0.6614   -1.7749 H   0  0  0  0  0  0  0  0  0  0  0  0
   -5.3793   -2.5926   -1.1198 C   0  0  0  0  0  0  0  0  0  0  0  0
   -6.2361   -2.5725   -1.8107 H   0  0  0  0  0  0  0  0  0  0  0  0
   -5.2034   -3.6756   -0.2452 C   0  0  0  0  0  0  0  0  0  0  0  0
   -5.9185   -4.5125   -0.2513 H   0  0  0  0  0  0  0  0  0  0  0  0
   -4.1154   -3.6817    0.6430 C   0  0  0  0  0  0  0  0  0  0  0  0
   -3.9730   -4.5251    1.3359 H   0  0  0  0  0  0  0  0  0  0  0  0
   -3.2027   -2.6172    0.6571 C   0  0  0  0  0  0  0  0  0  0  0  0
   -2.3455   -2.6187    1.3474 H   0  0  0  0  0  0  0  0  0  0  0  0
  4  3  1  0  0  0  0
  4 12  1  6  0  0  0
  5  4  1  0  0  0  0
  6  5  1  0  0  0  0
  7  5  2  0  0  0  0
  7  9  1  0  0  0  0
  8  7  1  0  0  0  0
  9 11  2  0  0  0  0
 10  9  1  0  0  0  0
 11  3  1  0  0  0  0
 11 35  1  0  0  0  0
 12  1  1  0  0  0  0
 13 12  1  0  0  0  0
 13 22  1  0  0  0  0
 14 13  2  0  0  0  0
 15 14  1  0  0  0  0
 16 14  1  0  0  0  0
 16 18  2  0  0  0  0
 17 16  1  0  0  0  0
 18 20  1  0  0  0  0
 19 18  1  0  0  0  0
 20 22  2  0  0  0  0
 20 21  1  0  0  0  0
 22 23  1  0  0  0  0
 24 12  1  0  0  0  0
 24 33  1  0  0  0  0
 25 24  2  0  0  0  0
 26 25  1  0  0  0  0
 27 25  1  0  0  0  0
 27 29  2  0  0  0  0
 28 27  1  0  0  0  0
 29 31  1  0  0  0  0
 30 29  1  0  0  0  0
 31 33  2  0  0  0  0
 31 32  1  0  0  0  0
 33 34  1  0  0  0  0
 35 47  1  0  0  0  0
 35  2  1  0  0  0  0
 36 35  1  0  0  0  0
 36 37  1  0  0  0  0
 37 38  1  0  0  0  0
 39 37  2  0  0  0  0
 39 40  1  0  0  0  0
 41 39  1  0  0  0  0
 42 41  1  0  0  0  0
 43 45  1  0  0  0  0
 43 41  2  0  0  0  0
 44 43  1  0  0  0  0
 45 36  2  0  0  0  0
 46 45  1  0  0  0  0
 47 56  1  0  0  0  0
 48 47  2  0  0  0  0
 49 48  1  0  0  0  0
 50 48  1  0  0  0  0
 50 52  2  0  0  0  0
 51 50  1  0  0  0  0
 52 54  1  0  0  0  0
 53 52  1  0  0  0  0
 54 56  2  0  0  0  0
 54 55  1  0  0  0  0
 56 57  1  0  0  0  0
M  END
