1,2,5
q = -2.0, confidence = 0.956

 29 29  0  0  0  0  0  0  0  0999 V2000
    1.5668   -1.1912    0.0700 O   0  5  0  0  0  0  0  0  0  0  0  0
   -2.1919   -1.1210    0.1311 O   0  0  0  0  0  1  0  0  0  0  0  0
   -3.4453    2.2900    1.5419 O   0  0  0  0  0  0  0  0  0  0  0  0
   -1.2237    2.2793   -2.1660 O   0  0  0  0  0  0  0  0  0  0  0  0
   -0.4174    0.7359    0.0434 N   0  0  0  0  0  2  0  0  0  0  0  0
    1.9816    1.1903    0.1152 C   0  0  0  0  0  0  0  0  0  0  0  0
    2.4134   -0.1749    0.1218 C   0  0  0  0  0  0  0  0  0  0  0  0
    3.7998   -0.4548    0.1932 C   0  0  0  0  0  0  0  0  0  0  0  0
    4.7316    0.5830    0.2412 C   0  0  0  0  0  0  0  0  0  0  0  0
    4.3166    1.9322    0.2270 C   0  0  0  0  0  0  0  0  0  0  0  0
    2.9558    2.2214    0.1669 C   0  0  0  0  0  0  0  0  0  0  0  0
    0.5877    1.5612    0.0791 C   0  0  0  0  0  3  0  0  0  0  0  0
   -1.7859    1.2640    0.0217 C   0  0  0  0  0  0  0  0  0  0  0  0
   -2.6725    0.0730   -0.4184 C   0  0  0  0  0  0  0  0  0  0  0  0
   -1.9633    2.4345   -0.9783 C   0  0  0  0  0  0  0  0  0  0  0  0
   -2.1603    1.7149    1.4606 C   0  0  0  0  0  0  0  0  0  0  0  0
    4.1082   -1.5097    0.2010 H   0  0  0  0  0  0  0  0  0  0  0  0
    5.8046    0.3414    0.2890 H   0  0  0  0  0  0  0  0  0  0  0  0
    5.0577    2.7432    0.2624 H   0  0  0  0  0  0  0  0  0  0  0  0
    2.6100    3.2674    0.1569 H   0  0  0  0  0  0  0  0  0  0  0  0
    0.3934    2.6531    0.0929 H   0  0  0  0  0  0  0  0  0  0  0  0
   -2.6785    0.0014   -1.5350 H   0  0  0  0  0  0  0  0  0  0  0  0
   -3.7255    0.2475   -0.0983 H   0  0  0  0  0  0  0  0  0  0  0  0
   -1.4356    2.4983    1.7705 H   0  0  0  0  0  0  0  0  0  0  0  0
   -2.0202    0.8547    2.1550 H   0  0  0  0  0  0  0  0  0  0  0  0
   -1.6294    3.3883   -0.5162 H   0  0  0  0  0  0  0  0  0  0  0  0
   -3.0599    2.5528   -1.1533 H   0  0  0  0  0  0  0  0  0  0  0  0
   -4.0977    1.5679    1.5778 H   0  0  0  0  0  0  0  0  0  0  0  0
   -1.3280    1.3610   -2.4847 H   0  0  0  0  0  0  0  0  0  0  0  0
  1  7  1  0  0  0  0
  3 28  1  0  0  0  0
  4 15  1  0  0  0  0
  5 12  1  0  0  0  0
  6  7  2  0  0  0  0
  6 11  1  0  0  0  0
  7  8  1  0  0  0  0
  8 17  1  0  0  0  0
  8  9  2  0  0  0  0
  9 18  1  0  0  0  0
 10  9  1  0  0  0  0
 10 19  1  0  0  0  0
 11 10  2  0  0  0  0
 12 21  1  0  0  0  0
 12  6  1  0  0  0  0
 13  5  1  0  0  0  0
 13 16  1  0  0  0  0
 14 23  1  0  0  0  0
 14 13  1  0  0  0  0
 14  2  1  0  0  0  0
 15 26  1  0  0  0  0
 15 13  1  0  0  0  0
 16  3  1  0  0  0  0
 16 24  1  0  0  0  0
 16 25  1  0  0  0  0
 20 11  1  0  0  0  0
 22 14  1  0  0  0  0
 27 15  1  0  0  0  0
 29  4  1  0  0  0  0
M  CHG  1   1  -1
M  END
