1,4,5
q = -2.0, confidence = 0.944

 36 38  0  0  1  0  0  0  0  0999 V2000
    0.1623   -0.4743    0.0452 N   0  0  0  0  0  2  0  0  0  0  0  0
    1.2896   -1.2320    0.1669 N   0  0  0  0  0  0  0  0  0  0  0  0
    6.0720   -0.8902   -0.5177 N   0  0  0  0  0  0  0  0  0  0  0  0
   -1.1001    1.7585    0.5889 O   0  5  0  0  0  0  0  0  0  0  0  0
    2.2621    0.7569   -0.4815 O   0  5  0  0  0  0  0  0  0  0  0  0
   -2.2463   -0.3111    0.1402 C   0  0  0  0  0  0  0  0  0  0  0  0
   -2.2275    1.0837    0.4325 C   0  0  0  0  0  0  0  0  0  0  0  0
   -3.4472    1.7962    0.6537 C   0  0  0  0  0  0  0  0  0  0  0  0
   -3.3644    2.8539    0.9407 H   0  0  0  0  0  0  0  0  0  0  0  0
   -4.6642    1.1686    0.5080 C   0  0  0  0  0  0  0  0  0  0  0  0
   -5.5990    1.7226    0.6866 H   0  0  0  0  0  0  0  0  0  0  0  0
   -4.7440   -0.1910    0.0766 C   0  0  0  0  0  0  0  0  0  0  0  0
   -6.0044   -0.7985   -0.1812 C   0  0  0  0  0  0  0  0  0  0  0  0
   -6.9157   -0.2106    0.0106 H   0  0  0  0  0  0  0  0  0  0  0  0
   -6.0911   -2.0878   -0.6870 C   0  0  0  0  0  0  0  0  0  0  0  0
   -7.0716   -2.5444   -0.8881 H   0  0  0  0  0  0  0  0  0  0  0  0
   -4.9009   -2.7959   -0.9788 C   0  0  0  0  0  0  0  0  0  0  0  0
   -4.9565   -3.7971   -1.4327 H   0  0  0  0  0  0  0  0  0  0  0  0
   -3.6558   -2.2327   -0.7192 C   0  0  0  0  0  0  0  0  0  0  0  0
   -2.7569   -2.7907   -1.0082 H   0  0  0  0  0  0  0  0  0  0  0  0
   -3.5268   -0.9339   -0.1440 C   0  0  0  0  0  0  0  0  0  0  0  0
   -1.0043   -1.0725    0.2470 C   0  0  2  0  0  3  0  0  0  0  0  0
   -0.9888   -2.5090    0.7051 C   0  0  0  0  0  0  0  0  0  0  0  0
   -0.6693   -3.1908   -0.1100 H   0  0  0  0  0  0  0  0  0  0  0  0
   -1.9708   -2.8301    1.0899 H   0  0  0  0  0  0  0  0  0  0  0  0
   -0.2176   -2.6140    1.4929 H   0  0  0  0  0  0  0  0  0  0  0  0
    2.3468   -0.5098   -0.1682 C   0  0  0  0  0  0  0  0  0  0  0  0
    3.6811   -1.1453   -0.1784 C   0  0  0  0  0  0  0  0  0  0  0  0
    3.8551   -2.5106    0.1291 C   0  0  0  0  0  0  0  0  0  0  0  0
    2.9734   -3.1203    0.3745 H   0  0  0  0  0  0  0  0  0  0  0  0
    5.1474   -3.0415    0.1088 C   0  0  0  0  0  0  0  0  0  0  0  0
    5.3296   -4.1014    0.3412 H   0  0  0  0  0  0  0  0  0  0  0  0
    6.2196   -2.1911   -0.2199 C   0  0  0  0  0  0  0  0  0  0  0  0
    7.2517   -2.5854   -0.2440 H   0  0  0  0  0  0  0  0  0  0  0  0
    4.8301   -0.3865   -0.4961 C   0  0  0  0  0  0  0  0  0  0  0  0
    4.7113    0.6821   -0.7446 H   0  0  0  0  0  0  0  0  0  0  0  0
  1  2  1  0  0  0  0
  3 35  2  0  0  0  0
  3 33  1  0  0  0  0
  5 27  1  0  0  0  0
  6 22  1  0  0  0  0
  6  7  1  0  0  0  0
  7  4  1  0  0  0  0
  7  8  2  0  0  0  0
  8  9  1  0  0  0  0
 10  8  1  0  0  0  0
 10 11  1  0  0  0  0
 12 10  2  0  0  0  0
 13 14  1  0  0  0  0
 13 12  1  0  0  0  0
 15 13  2  0  0  0  0
 16 15  1  0  0  0  0
 17 19  2  0  0  0  0
 17 15  1  0  0  0  0
 18 17  1  0  0  0  0
 19 21  1  0  0  0  0
 20 19  1  0  0  0  0
 21 12  1  0  0  0  0
 21  6  2  0  0  0  0
 22  1  1  1  0  0  0
 22 23  1  0  0  0  0
 23 25  1  0  0  0  0
 23 26  1  0  0  0  0
 24 23  1  0  0  0  0
 27  2  2  0  0  0  0
 28 27  1  0  0  0  0
 28 29  2  0  0  0  0
 29 30  1  0  0  0  0
 31 29  1  0  0  0  0
 31 32  1  0  0  0  0
 33 31  2  0  0  0  0
 34 33  1  0  0  0  0
 35 28  1  0  0  0  0
 36 35  1  0  0  0  0
M  CHG  2   4  -1   5  -1
M  END
