3,4,6
q = -2.0, confidence = 0.952

 31 32  0  0  0  0  0  0  0  0999 V2000
    7.7551   -1.8043    0.1017 Cl  0  0  0  0  0  0  0  0  0  0  0  0
   -6.4040   -2.7935   -0.1471 Cl  0  0  0  0  0  0  0  0  0  0  0  0
    1.5591    0.8368    0.0082 O   0  5  0  0  0  0  0  0  0  0  0  0
   -2.0971    1.2289   -0.0210 O   0  5  0  0  0  0  0  0  0  0  0  0
    0.9730   -1.3910    0.0315 N   0  0  0  0  0  0  0  0  0  0  0  0
   -0.2829   -0.8455    0.0043 N   0  0  0  0  0  2  0  0  0  0  0  0
    3.7425   -2.1295    0.0901 C   0  0  0  0  0  0  0  0  0  0  0  0
    2.9820   -2.9227    0.1083 H   0  0  0  0  0  0  0  0  0  0  0  0
    5.1037   -2.4478    0.1068 C   0  0  0  0  0  0  0  0  0  0  0  0
    5.4403   -3.4936    0.1388 H   0  0  0  0  0  0  0  0  0  0  0  0
    6.0548   -1.4117    0.0815 C   0  0  0  0  0  0  0  0  0  0  0  0
    5.6533   -0.0658    0.0403 C   0  0  0  0  0  0  0  0  0  0  0  0
    6.4131    0.7280    0.0207 H   0  0  0  0  0  0  0  0  0  0  0  0
    4.2883    0.2414    0.0248 C   0  0  0  0  0  0  0  0  0  0  0  0
    3.9471    1.2858   -0.0075 H   0  0  0  0  0  0  0  0  0  0  0  0
    3.3173   -0.7829    0.0495 C   0  0  0  0  0  0  0  0  0  0  0  0
    1.8829   -0.4303    0.0296 C   0  0  0  0  0  0  0  0  0  0  0  0
   -1.3361   -1.6612    0.0006 C   0  0  0  0  0  0  0  0  0  0  0  0
   -1.1088   -3.1489    0.0377 C   0  0  0  0  0  0  0  0  0  0  0  0
   -0.0278   -3.3551    0.0903 H   0  0  0  0  0  0  0  0  0  0  0  0
   -1.5276   -3.6348   -0.8673 H   0  0  0  0  0  0  0  0  0  0  0  0
   -1.6133   -3.6006    0.9158 H   0  0  0  0  0  0  0  0  0  0  0  0
   -2.6882   -1.1424   -0.0415 C   0  0  0  0  0  0  0  0  0  0  0  0
   -2.9876    0.2712   -0.0483 C   0  0  0  0  0  0  0  0  0  0  0  0
   -4.3584    0.6727   -0.0852 C   0  0  0  0  0  0  0  0  0  0  0  0
   -4.5551    1.7546   -0.0885 H   0  0  0  0  0  0  0  0  0  0  0  0
   -5.4000   -0.2444   -0.1144 C   0  0  0  0  0  0  0  0  0  0  0  0
   -6.4475    0.0878   -0.1425 H   0  0  0  0  0  0  0  0  0  0  0  0
   -5.0991   -1.6255   -0.1083 C   0  0  0  0  0  0  0  0  0  0  0  0
   -3.7796   -2.0598   -0.0718 C   0  0  0  0  0  3  0  0  0  0  0  0
   -3.5898   -3.1398   -0.0691 H   0  0  0  0  0  0  0  0  0  0  0  0
  2 29  1  0  0  0  0
  3 17  1  0  0  0  0
  6  5  1  0  0  0  0
  7  9  1  0  0  0  0
  7  8  1  0  0  0  0
  9 10  1  0  0  0  0
 11  1  1  0  0  0  0
 11  9  2  0  0  0  0
 12 11  1  0  0  0  0
 13 12  1  0  0  0  0
 14 12  2  0  0  0  0
 14 16  1  0  0  0  0
 15 14  1  0  0  0  0
 16  7  2  0  0  0  0
 17  5  2  0  0  0  0
 17 16  1  0  0  0  0
 18  6  1  0  0  0  0
 18 19  1  0  0  0  0
 19 20  1  0  0  0  0
 19 22  1  0  0  0  0
 21 19  1  0  0  0  0
 23 18  2  0  0  0  0
 24 23  1  0  0  0  0
 24  4  1  0  0  0  0
 25 24  2  0  0  0  0
 26 25  1  0  0  0  0
 27 29  2  0  0  0  0
 27 25  1  0  0  0  0
 28 27  1  0  0  0  0
 29 30  1  0  0  0  0
 30 31  1  0  0  0  0
 30 23  1  0  0  0  0
M  CHG  2   3  -1   4  -1
M  END
