1,3,5
q = -2.0, confidence = 0.828

 40 41  0  0  0  0  0  0  0  0999 V2000
    0.0860    0.9186   -0.0651 N   0  0  0  0  0  2  0  0  0  0  0  0
   -1.2729    1.0349    0.0047 N   0  0  0  0  0  0  0  0  0  0  0  0
    2.5164   -0.3255    0.1013 O   0  5  0  0  0  0  0  0  0  0  0  0
    5.1253   -0.1659    0.0747 O   0  0  0  0  0  0  0  0  0  0  0  0
   -1.1403   -1.2484   -0.3638 O   0  5  0  0  0  0  0  0  0  0  0  0
   -6.4027    1.7842    0.1619 O   0  0  0  0  0  0  0  0  0  0  0  0
   -7.4606   -0.5953   -0.1379 O   0  0  0  0  0  0  0  0  0  0  0  0
   -7.7874    0.3226   -0.0117 H   0  0  0  0  0  0  0  0  0  0  0  0
    2.2349    2.0772    0.0131 C   0  0  0  0  0  0  0  0  0  0  0  0
    3.0331    0.8973    0.0426 C   0  0  0  0  0  0  0  0  0  0  0  0
    4.4597    1.0113    0.0497 C   0  0  0  0  0  0  0  0  0  0  0  0
    5.0533    2.2838    0.0314 C   0  0  0  0  0  0  0  0  0  0  0  0
    6.1472    2.3793    0.0345 H   0  0  0  0  0  0  0  0  0  0  0  0
    4.2560    3.4487    0.0104 C   0  0  0  0  0  0  0  0  0  0  0  0
    4.7430    4.4346   -0.0036 H   0  0  0  0  0  0  0  0  0  0  0  0
    2.8696    3.3515    0.0053 C   0  0  0  0  0  0  0  0  0  0  0  0
    2.2422    4.2553   -0.0132 H   0  0  0  0  0  0  0  0  0  0  0  0
    6.5504   -0.1497    0.0653 C   0  0  0  0  0  0  0  0  0  0  0  0
    6.9279    0.4106    0.9530 H   0  0  0  0  0  0  0  0  0  0  0  0
    6.9156    0.3849   -0.8429 H   0  0  0  0  0  0  0  0  0  0  0  0
    0.7948    2.0202    0.0211 C   0  0  0  0  0  3  0  0  0  0  0  0
    0.2326    2.9702    0.1013 H   0  0  0  0  0  0  0  0  0  0  0  0
   -1.8440   -0.1460   -0.1859 C   0  0  0  0  0  0  0  0  0  0  0  0
   -3.3069   -0.2647   -0.1767 C   0  0  0  0  0  0  0  0  0  0  0  0
   -4.1100    0.8923   -0.0036 C   0  0  0  0  0  0  0  0  0  0  0  0
   -3.6074    1.8607    0.1151 H   0  0  0  0  0  0  0  0  0  0  0  0
   -5.4961    0.7681    0.0080 C   0  0  0  0  0  0  0  0  0  0  0  0
   -6.1132   -0.5087   -0.1529 C   0  0  0  0  0  0  0  0  0  0  0  0
   -5.3120   -1.6464   -0.3256 C   0  0  0  0  0  0  0  0  0  0  0  0
   -5.8056   -2.6203   -0.4523 H   0  0  0  0  0  0  0  0  0  0  0  0
   -3.9168   -1.5254   -0.3385 C   0  0  0  0  0  0  0  0  0  0  0  0
   -3.2779   -2.4080   -0.4794 H   0  0  0  0  0  0  0  0  0  0  0  0
   -5.9070    3.1040    0.3080 C   0  0  0  0  0  0  0  0  0  0  0  0
   -5.2708    3.2007    1.2154 H   0  0  0  0  0  0  0  0  0  0  0  0
   -6.7878    3.7644    0.4079 H   0  0  0  0  0  0  0  0  0  0  0  0
   -5.3128    3.4147   -0.5795 H   0  0  0  0  0  0  0  0  0  0  0  0
    7.0318   -1.5875    0.0823 C   0  0  0  0  0  0  0  0  0  0  0  0
    6.6689   -2.1105    0.9886 H   0  0  0  0  0  0  0  0  0  0  0  0
    8.1390   -1.6206    0.0754 H   0  0  0  0  0  0  0  0  0  0  0  0
    6.6570   -2.1350   -0.8045 H   0  0  0  0  0  0  0  0  0  0  0  0
  1  2  1  0  0  0  0
  1 21  1  0  0  0  0
  5 23  1  0  0  0  0
  6 33  1  0  0  0  0
  7  8  1  0  0  0  0
  9 21  1  0  0  0  0
  9 10  1  0  0  0  0
 10 11  2  0  0  0  0
 10  3  1  0  0  0  0
 11  4  1  0  0  0  0
 12 13  1  0  0  0  0
 12 11  1  0  0  0  0
 14 12  2  0  0  0  0
 15 14  1  0  0  0  0
 16 14  1  0  0  0  0
 16  9  2  0  0  0  0
 17 16  1  0  0  0  0
 18  4  1  0  0  0  0
 18 37  1  0  0  0  0
 18 19  1  0  0  0  0
 20 18  1  0  0  0  0
 21 22  1  0  0  0  0
 23 24  1  0  0  0  0
 23  2  2  0  0  0  0
 24 25  1  0  0  0  0
 25 27  2  0  0  0  0
 25 26  1  0  0  0  0
 27  6  1  0  0  0  0
 28  7  1  0  0  0  0
 28 27  1  0  0  0  0
 29 28  2  0  0  0  0
 30 29  1  0  0  0  0
 31 29  1  0  0  0  0
 31 24  2  0  0  0  0
 32 31  1  0  0  0  0
 33 35  1  0  0  0  0
 33 34  1  0  0  0  0
 36 33  1  0  0  0  0
 37 38  1  0  0  0  0
 39 37  1  0  0  0  0
 40 37  1  0  0  0  0
M  CHG  2   3  -1   5  -1
M  END
