1,21,23
q = -2.0, confidence = 0.85

 42 44  0  0  1  0  0  0  0  0999 V2000
    1.0123    0.5523   -0.9606 O   0  5  0  0  0  0  0  0  0  0  0  0
    1.3550   -0.5622   -0.3622 C   0  0  0  0  0  0  0  0  0  0  0  0
    2.7756   -0.8884   -0.2110 C   0  0  0  0  0  0  0  0  0  0  0  0
    2.2957   -2.9535    0.9896 O   0  0  0  0  0  0  0  0  0  0  0  0
    1.3775   -2.5646    0.7706 H   0  0  0  0  0  0  0  0  0  0  0  0
    3.1884   -2.0922    0.4878 C   0  0  0  0  0  0  0  0  0  0  0  0
    4.5545   -2.3451    0.6372 C   0  0  0  0  0  0  0  0  0  0  0  0
    4.8542   -3.2593    1.1702 H   0  0  0  0  0  0  0  0  0  0  0  0
    5.5393   -1.4648    0.1227 C   0  0  0  0  0  0  0  0  0  0  0  0
    6.9387   -1.7128    0.2701 C   0  0  0  0  0  0  0  0  0  0  0  0
    7.2603   -2.6209    0.8031 H   0  0  0  0  0  0  0  0  0  0  0  0
    7.8765   -0.8327   -0.2470 C   0  0  0  0  0  0  0  0  0  0  0  0
    8.9501   -1.0431   -0.1234 H   0  0  0  0  0  0  0  0  0  0  0  0
    7.4680    0.3423   -0.9404 C   0  0  0  0  0  0  0  0  0  0  0  0
    8.2259    1.0283   -1.3473 H   0  0  0  0  0  0  0  0  0  0  0  0
    6.1196    0.6149   -1.1022 C   0  0  0  0  0  0  0  0  0  0  0  0
    5.7900    1.5183   -1.6393 H   0  0  0  0  0  0  0  0  0  0  0  0
    5.1263   -0.2683   -0.5805 C   0  0  0  0  0  0  0  0  0  0  0  0
    3.7408   -0.0178   -0.7257 C   0  0  0  0  0  0  0  0  0  0  0  0
    3.3974    0.8805   -1.2602 H   0  0  0  0  0  0  0  0  0  0  0  0
   -0.8258   -0.9573   -0.0487 N   0  0  0  0  0  2  0  0  0  0  0  0
    0.4519   -1.3945    0.1410 N   0  0  0  0  0  0  0  0  0  0  0  0
   -2.7166    1.0001   -0.2435 O   0  5  0  0  0  0  0  0  0  0  0  0
   -3.5977    0.0092   -0.0937 C   0  0  0  0  0  0  0  0  0  0  0  0
   -4.9564    0.3425   -0.2036 C   0  0  0  0  0  0  0  0  0  0  0  0
   -5.2326    1.3815   -0.4258 H   0  0  0  0  0  0  0  0  0  0  0  0
   -5.9589   -0.6301   -0.0454 C   0  0  0  0  0  0  0  0  0  0  0  0
   -7.2351   -0.1970   -0.1840 O   0  0  0  0  0  0  0  0  0  0  0  0
   -8.2901   -1.1341   -0.0507 C   0  0  0  0  0  0  0  0  0  0  0  0
   -8.3069   -1.5965    0.9611 H   0  0  0  0  0  0  0  0  0  0  0  0
   -8.2242   -1.9412   -0.8135 H   0  0  0  0  0  0  0  0  0  0  0  0
   -9.2282   -0.5699   -0.2041 H   0  0  0  0  0  0  0  0  0  0  0  0
   -5.5945   -1.9672    0.2394 C   0  0  0  0  0  0  0  0  0  0  0  0
   -6.3492   -2.7548    0.3548 H   0  0  0  0  0  0  0  0  0  0  0  0
   -4.2437   -2.2874    0.3699 C   0  0  0  0  0  0  0  0  0  0  0  0
   -3.9869   -3.3352    0.5756 H   0  0  0  0  0  0  0  0  0  0  0  0
   -3.1994   -1.3402    0.2147 C   0  0  0  0  0  0  0  0  0  0  0  0
   -1.8050   -1.7381    0.3792 C   0  0  2  0  0  3  0  0  0  0  0  0
   -1.4346   -3.0397    1.0396 C   0  0  0  0  0  0  0  0  0  0  0  0
   -0.7165   -2.8391    1.8602 H   0  0  0  0  0  0  0  0  0  0  0  0
   -0.9069   -3.7049    0.3255 H   0  0  0  0  0  0  0  0  0  0  0  0
   -2.3020   -3.5724    1.4599 H   0  0  0  0  0  0  0  0  0  0  0  0
  1  2  1  0  0  0  0
  2  3  1  0  0  0  0
  2 22  2  0  0  0  0
  3  6  1  0  0  0  0
  5  4  1  0  0  0  0
  6  7  2  0  0  0  0
  6  4  1  0  0  0  0
  7  8  1  0  0  0  0
  9 10  1  0  0  0  0
  9  7  1  0  0  0  0
 10 11  1  0  0  0  0
 12 13  1  0  0  0  0
 12 10  2  0  0  0  0
 14 12  1  0  0  0  0
 15 14  1  0  0  0  0
 16 14  2  0  0  0  0
 16 18  1  0  0  0  0
 17 16  1  0  0  0  0
 18  9  2  0  0  0  0
 19 18  1  0  0  0  0
 19  3  2  0  0  0  0
 20 19  1  0  0  0  0
 21 22  1  0  0  0  0
 23 24  1  0  0  0  0
 24 37  1  0  0  0  0
 25 24  2  0  0  0  0
 25 27  1  0  0  0  0
 26 25  1  0  0  0  0
 27 33  2  0  0  0  0
 28 29  1  0  0  0  0
 28 27  1  0  0  0  0
 29 30  1  0  0  0  0
 31 29  1  0  0  0  0
 32 29  1  0  0  0  0
 33 34  1  0  0  0  0
 33 35  1  0  0  0  0
 35 36  1  0  0  0  0
 37 35  2  0  0  0  0
 37 38  1  0  0  0  0
 38 21  1  1  0  0  0
 38 39  1  0  0  0  0
 39 42  1  0  0  0  0
 39 40  1  0  0  0  0
 41 39  1  0  0  0  0
M  CHG  2   1  -1  23  -1
M  END
