1,2,4
q = -2.0, confidence = 0.826

 35 36  0  0  1  0  0  0  0  0999 V2000
   -1.1780    0.6862   -0.8842 O   0  5  0  0  0  0  0  0  0  0  0  0
    0.6342   -1.2630    1.7239 O   0  5  0  0  0  0  0  0  0  0  0  0
    0.3964   -3.0087    3.1349 O   0  0  0  0  0  0  0  0  0  0  0  0
   -1.6638   -1.3527    0.7240 N   0  0  0  0  0  2  0  0  0  0  0  0
   -3.3953   -0.1110   -0.4920 C   0  0  0  0  0  0  0  0  0  0  0  0
   -2.4613    0.7596   -1.1280 C   0  0  0  0  0  0  0  0  0  0  0  0
   -2.9193    1.7310   -2.0752 C   0  0  0  0  0  0  0  0  0  0  0  0
   -2.1641    2.3696   -2.5544 H   0  0  0  0  0  0  0  0  0  0  0  0
   -4.2626    1.8546   -2.3514 C   0  0  0  0  0  0  0  0  0  0  0  0
   -4.6075    2.6117   -3.0734 H   0  0  0  0  0  0  0  0  0  0  0  0
   -6.6263    1.1837   -2.0067 C   0  0  0  0  0  0  0  0  0  0  0  0
   -6.9251    1.9530   -2.7358 H   0  0  0  0  0  0  0  0  0  0  0  0
   -7.5821    0.3910   -1.3861 C   0  0  0  0  0  0  0  0  0  0  0  0
   -8.6499    0.5204   -1.6163 H   0  0  0  0  0  0  0  0  0  0  0  0
   -7.1698   -0.5826   -0.4453 C   0  0  0  0  0  0  0  0  0  0  0  0
   -7.9215   -1.2076    0.0600 H   0  0  0  0  0  0  0  0  0  0  0  0
   -5.8229   -0.7556   -0.1430 C   0  0  0  0  0  0  0  0  0  0  0  0
   -5.5500   -1.5098    0.6080 H   0  0  0  0  0  0  0  0  0  0  0  0
   -4.8149    0.0311   -0.7681 C   0  0  0  0  0  0  0  0  0  0  0  0
   -5.2431    1.0275   -1.7165 C   0  0  0  0  0  0  0  0  0  0  0  0
   -2.9056   -1.1601    0.3535 C   0  0  0  0  0  3  0  0  0  0  0  0
   -3.6527   -1.8977    0.7079 H   0  0  0  0  0  0  0  0  0  0  0  0
   -1.3672   -2.5370    1.5304 C   0  0  2  0  0  0  0  0  0  0  0  0
   -2.1445   -2.6737    2.3144 H   0  0  0  0  0  0  0  0  0  0  0  0
   -0.0214   -2.2994    2.2391 C   0  0  0  0  0  0  0  0  0  0  0  0
   -1.3289   -3.8354    0.6669 C   0  0  0  0  0  0  0  0  0  0  0  0
   -2.2896   -3.8252    0.1010 H   0  0  0  0  0  0  0  0  0  0  0  0
   -0.1814   -3.8230   -0.3489 C   0  0  0  0  0  0  0  0  0  0  0  0
    0.8032   -3.8642    0.1616 H   0  0  0  0  0  0  0  0  0  0  0  0
   -0.1945   -2.9110   -0.9774 H   0  0  0  0  0  0  0  0  0  0  0  0
   -0.2491   -4.7051   -1.0167 H   0  0  0  0  0  0  0  0  0  0  0  0
   -1.3073   -5.0876    1.5482 C   0  0  0  0  0  0  0  0  0  0  0  0
   -1.3185   -6.0006    0.9192 H   0  0  0  0  0  0  0  0  0  0  0  0
   -2.1873   -5.1251    2.2224 H   0  0  0  0  0  0  0  0  0  0  0  0
   -0.4014   -5.1051    2.1846 H   0  0  0  0  0  0  0  0  0  0  0  0
  2 25  1  0  0  0  0
  4 23  1  0  0  0  0
  5 21  1  0  0  0  0
  6  1  1  0  0  0  0
  6  5  2  0  0  0  0
  7  6  1  0  0  0  0
  8  7  1  0  0  0  0
  9  7  2  0  0  0  0
  9 20  1  0  0  0  0
 10  9  1  0  0  0  0
 11 20  2  0  0  0  0
 11 13  1  0  0  0  0
 12 11  1  0  0  0  0
 13 15  2  0  0  0  0
 14 13  1  0  0  0  0
 15 17  1  0  0  0  0
 15 16  1  0  0  0  0
 17 18  1  0  0  0  0
 19  5  1  0  0  0  0
 19 17  2  0  0  0  0
 20 19  1  0  0  0  0
 21 22  1  0  0  0  0
 21  4  1  0  0  0  0
 23 25  1  0  0  0  0
 23 24  1  1  0  0  0
 25  3  2  0  0  0  0
 26 23  1  0  0  0  0
 26 32  1  0  0  0  0
 27 26  1  0  0  0  0
 28 29  1  0  0  0  0
 28 26  1  0  0  0  0
 30 28  1  0  0  0  0
 31 28  1  0  0  0  0
 32 35  1  0  0  0  0
 32 34  1  0  0  0  0
 33 32  1  0  0  0  0
M  CHG  2   1  -1   2  -1
M  END
