1,3,5
q = -2.0, confidence = 0.858

 36 37  0  0  0  0  0  0  0  0999 V2000
   -0.0640    0.8375   -0.2532 N   0  0  0  0  0  2  0  0  0  0  0  0
   -1.4077    1.0105   -0.1491 N   0  0  0  0  0  0  0  0  0  0  0  0
    2.2914   -0.5396   -0.1632 O   0  5  0  0  0  0  0  0  0  0  0  0
    4.9052   -0.5267   -0.1950 O   0  0  0  0  0  0  0  0  0  0  0  0
   -1.4179   -1.2729   -0.4606 O   0  5  0  0  0  0  0  0  0  0  0  0
   -3.6387    2.2551    0.1233 O   0  0  0  0  0  0  0  0  0  0  0  0
   -2.6386    2.0797    0.0555 H   0  0  0  0  0  0  0  0  0  0  0  0
    2.1452    1.8758   -0.2345 C   0  0  0  0  0  0  0  0  0  0  0  0
    2.8763    0.6541   -0.2222 C   0  0  0  0  0  0  0  0  0  0  0  0
    4.3056    0.6876   -0.2262 C   0  0  0  0  0  0  0  0  0  0  0  0
    4.9703    1.9240   -0.2555 C   0  0  0  0  0  0  0  0  0  0  0  0
    6.0679    1.9573   -0.2652 H   0  0  0  0  0  0  0  0  0  0  0  0
    4.2397    3.1314   -0.2694 C   0  0  0  0  0  0  0  0  0  0  0  0
    4.7805    4.0884   -0.2928 H   0  0  0  0  0  0  0  0  0  0  0  0
    2.8497    3.1122   -0.2529 C   0  0  0  0  0  0  0  0  0  0  0  0
    2.2744    4.0500   -0.2608 H   0  0  0  0  0  0  0  0  0  0  0  0
    6.3193   -0.5757   -0.2243 C   0  0  0  0  0  0  0  0  0  0  0  0
    6.7290   -0.1139   -1.1505 H   0  0  0  0  0  0  0  0  0  0  0  0
    6.5937   -1.6462   -0.2040 H   0  0  0  0  0  0  0  0  0  0  0  0
    6.7700   -0.0680    0.6582 H   0  0  0  0  0  0  0  0  0  0  0  0
    0.7038    1.8987   -0.1908 C   0  0  0  0  0  3  0  0  0  0  0  0
    0.2039    2.8813   -0.0955 H   0  0  0  0  0  0  0  0  0  0  0  0
   -2.0646   -0.1420   -0.2841 C   0  0  0  0  0  0  0  0  0  0  0  0
   -3.5206   -0.1485   -0.2250 C   0  0  0  0  0  0  0  0  0  0  0  0
   -4.2449    1.0712   -0.0222 C   0  0  0  0  0  0  0  0  0  0  0  0
   -5.6672    1.0465    0.0323 C   0  0  0  0  0  0  0  0  0  0  0  0
   -6.3204   -0.1825   -0.1157 C   0  0  0  0  0  0  0  0  0  0  0  0
   -7.4215   -0.1980   -0.0735 H   0  0  0  0  0  0  0  0  0  0  0  0
   -5.6152   -1.3891   -0.3162 C   0  0  0  0  0  0  0  0  0  0  0  0
   -6.1629   -2.3357   -0.4299 H   0  0  0  0  0  0  0  0  0  0  0  0
   -4.2253   -1.3695   -0.3699 C   0  0  0  0  0  0  0  0  0  0  0  0
   -3.6412   -2.2874   -0.5262 H   0  0  0  0  0  0  0  0  0  0  0  0
   -6.4011    2.3411    0.2450 C   0  0  0  0  0  0  0  0  0  0  0  0
   -7.4962    2.1848    0.2674 H   0  0  0  0  0  0  0  0  0  0  0  0
   -6.1634    3.0706   -0.5572 H   0  0  0  0  0  0  0  0  0  0  0  0
   -6.0921    2.8238    1.1956 H   0  0  0  0  0  0  0  0  0  0  0  0
  1 21  1  0  0  0  0
  1  2  1  0  0  0  0
  5 23  1  0  0  0  0
  7  6  1  0  0  0  0
  8  9  1  0  0  0  0
  8 21  1  0  0  0  0
  9  3  1  0  0  0  0
 10  9  2  0  0  0  0
 10  4  1  0  0  0  0
 11 10  1  0  0  0  0
 12 11  1  0  0  0  0
 13 11  2  0  0  0  0
 13 15  1  0  0  0  0
 14 13  1  0  0  0  0
 15  8  2  0  0  0  0
 16 15  1  0  0  0  0
 17 19  1  0  0  0  0
 17  4  1  0  0  0  0
 17 20  1  0  0  0  0
 18 17  1  0  0  0  0
 21 22  1  0  0  0  0
 23 24  1  0  0  0  0
 23  2  2  0  0  0  0
 24 25  1  0  0  0  0
 25 26  2  0  0  0  0
 25  6  1  0  0  0  0
 26 33  1  0  0  0  0
 27 28  1  0  0  0  0
 27 26  1  0  0  0  0
 29 27  2  0  0  0  0
 30 29  1  0  0  0  0
 31 29  1  0  0  0  0
 31 24  2  0  0  0  0
 32 31  1  0  0  0  0
 33 34  1  0  0  0  0
 33 36  1  0  0  0  0
 35 33  1  0  0  0  0
M  CHG  2   3  -1   5  -1
M  END
