1,3,5
q = -2.0, confidence = 0.862

 39 40  0  0  0  0  0  0  0  0999 V2000
    0.1437    0.9458   -0.1842 N   0  0  0  0  0  2  0  0  0  0  0  0
    1.4997    1.0873   -0.1715 N   0  0  0  0  0  0  0  0  0  0  0  0
   -2.2566   -0.3547   -0.0887 O   0  5  0  0  0  0  0  0  0  0  0  0
   -4.8670   -0.2527   -0.0161 O   0  0  0  0  0  0  0  0  0  0  0  0
    1.4356   -1.1940   -0.4911 O   0  5  0  0  0  0  0  0  0  0  0  0
    3.7747    2.2632    0.0416 O   0  0  0  0  0  0  0  0  0  0  0  0
    2.7682    2.1188    0.0006 H   0  0  0  0  0  0  0  0  0  0  0  0
   -2.0242    2.0493    0.0310 C   0  0  0  0  0  0  0  0  0  0  0  0
   -2.7980    0.8551   -0.0183 C   0  0  0  0  0  0  0  0  0  0  0  0
   -4.2255    0.9360    0.0389 C   0  0  0  0  0  0  0  0  0  0  0  0
   -4.8426    2.1931    0.1454 C   0  0  0  0  0  0  0  0  0  0  0  0
   -5.9374    2.2646    0.1895 H   0  0  0  0  0  0  0  0  0  0  0  0
   -4.0689    3.3727    0.1997 C   0  0  0  0  0  0  0  0  0  0  0  0
   -4.5748    4.3454    0.2832 H   0  0  0  0  0  0  0  0  0  0  0  0
   -2.6817    3.3066    0.1462 C   0  0  0  0  0  0  0  0  0  0  0  0
   -2.0727    4.2220    0.1862 H   0  0  0  0  0  0  0  0  0  0  0  0
   -0.5852    2.0229   -0.0158 C   0  0  0  0  0  3  0  0  0  0  0  0
   -0.0475    2.9838    0.0946 H   0  0  0  0  0  0  0  0  0  0  0  0
    2.1183   -0.0790   -0.3569 C   0  0  0  0  0  0  0  0  0  0  0  0
    3.5757   -0.1250   -0.3669 C   0  0  0  0  0  0  0  0  0  0  0  0
    4.3415    1.0678   -0.1597 C   0  0  0  0  0  0  0  0  0  0  0  0
    5.7636    1.0020   -0.1579 C   0  0  0  0  0  0  0  0  0  0  0  0
    6.3758   -0.2398   -0.3650 C   0  0  0  0  0  0  0  0  0  0  0  0
    7.4767   -0.2868   -0.3646 H   0  0  0  0  0  0  0  0  0  0  0  0
    5.6295   -1.4196   -0.5746 C   0  0  0  0  0  0  0  0  0  0  0  0
    6.1451   -2.3767   -0.7388 H   0  0  0  0  0  0  0  0  0  0  0  0
    4.2393   -1.3598   -0.5756 C   0  0  0  0  0  0  0  0  0  0  0  0
    3.6241   -2.2554   -0.7421 H   0  0  0  0  0  0  0  0  0  0  0  0
   -6.2929   -0.2664    0.0125 C   0  0  0  0  0  0  0  0  0  0  0  0
   -6.6919    0.3346   -0.8379 H   0  0  0  0  0  0  0  0  0  0  0  0
   -6.6559    0.2095    0.9538 H   0  0  0  0  0  0  0  0  0  0  0  0
   -6.7464   -1.7102   -0.0795 C   0  0  0  0  0  0  0  0  0  0  0  0
   -6.3853   -2.1739   -1.0183 H   0  0  0  0  0  0  0  0  0  0  0  0
   -7.8526   -1.7652   -0.0619 H   0  0  0  0  0  0  0  0  0  0  0  0
   -6.3510   -2.2997    0.7707 H   0  0  0  0  0  0  0  0  0  0  0  0
    6.5416    2.2690    0.0634 C   0  0  0  0  0  0  0  0  0  0  0  0
    7.6318    2.0816    0.0438 H   0  0  0  0  0  0  0  0  0  0  0  0
    6.2788    2.7344    1.0363 H   0  0  0  0  0  0  0  0  0  0  0  0
    6.2980    3.0264   -0.7107 H   0  0  0  0  0  0  0  0  0  0  0  0
  1  2  1  0  0  0  0
  1 17  1  0  0  0  0
  3  9  1  0  0  0  0
  4 29  1  0  0  0  0
  4 10  1  0  0  0  0
  5 19  1  0  0  0  0
  7  6  1  0  0  0  0
  8 15  1  0  0  0  0
  9  8  2  0  0  0  0
  9 10  1  0  0  0  0
 10 11  2  0  0  0  0
 11 12  1  0  0  0  0
 11 13  1  0  0  0  0
 13 14  1  0  0  0  0
 15 16  1  0  0  0  0
 15 13  2  0  0  0  0
 17  8  1  0  0  0  0
 17 18  1  0  0  0  0
 19  2  2  0  0  0  0
 20 19  1  0  0  0  0
 20 21  1  0  0  0  0
 21 22  2  0  0  0  0
 21  6  1  0  0  0  0
 22 36  1  0  0  0  0
 23 24  1  0  0  0  0
 23 22  1  0  0  0  0
 25 23  2  0  0  0  0
 26 25  1  0  0  0  0
 27 25  1  0  0  0  0
 27 20  2  0  0  0  0
 28 27  1  0  0  0  0
 29 31  1  0  0  0  0
 30 29  1  0  0  0  0
 32 34  1  0  0  0  0
 32 29  1  0  0  0  0
 32 35  1  0  0  0  0
 33 32  1  0  0  0  0
 36 38  1  0  0  0  0
 37 36  1  0  0  0  0
 39 36  1  0  0  0  0
M  CHG  2   3  -1   5  -1
M  END
