1,9,11
q = -1.0

 16 16  0  0  1  0  0  0  0  0999 V2000
    1.9282   -0.0192   -0.1484 N   0  0  0  0  0  2  0  0  0  0  0  0
    1.5565   -2.1166   -1.1880 C   0  0  0  0  0  0  0  0  0  0  0  0
    2.5534   -1.0921   -0.6777 C   0  0  2  0  0  3  0  0  0  0  0  0
    3.9474   -1.1585   -0.6913 C   0  0  0  0  0  0  0  0  0  0  0  0
    4.6906   -0.0965   -0.1263 C   0  0  0  0  0  0  0  0  0  0  0  0
    4.0269    0.9984    0.4467 C   0  0  0  0  0  0  0  0  0  0  0  0
    2.6201    1.0065    0.4248 C   0  0  0  0  0  0  0  0  0  0  0  0
    1.6670    1.9764    0.9449 C   0  0  2  0  0  3  0  0  0  0  0  0
    0.3119   -1.7476   -0.9494 O   0  5  0  0  0  0  0  0  0  0  0  0
    1.9090   -3.1430   -1.7561 O   0  0  0  0  0  0  0  0  0  0  0  0
    0.4341    1.7306    0.8239 O   0  0  0  0  0  1  0  0  0  0  0  0
    2.1185    3.0950    1.5090 O   0  0  0  0  0  0  0  0  0  0  0  0
    1.3394    3.6114    1.8092 H   0  0  0  0  0  0  0  0  0  0  0  0
    4.4222   -2.0463   -1.1338 H   0  0  0  0  0  0  0  0  0  0  0  0
    5.7896   -0.1328   -0.1224 H   0  0  0  0  0  0  0  0  0  0  0  0
    4.5736    1.8306    0.9117 H   0  0  0  0  0  0  0  0  0  0  0  0
  1  7  1  0  0  0  0
  2  9  1  0  0  0  0
  3  2  1  1  0  0  0
  3  1  1  0  0  0  0
  4  3  1  0  0  0  0
  4  5  2  0  0  0  0
  5 15  1  0  0  0  0
  5  6  1  0  0  0  0
  6 16  1  0  0  0  0
  7  6  2  0  0  0  0
  7  8  1  0  0  0  0
  8 11  1  6  0  0  0
  8 12  1  0  0  0  0
 10  2  2  0  0  0  0
 12 13  1  0  0  0  0
 14  4  1  0  0  0  0
M  CHG  1   9  -1
M  END
