1,2,3
q = -2.0, confidence = 0.814

 30 30  0  0  0  0  0  0  0  0999 V2000
   -2.1098   -1.4222   -0.7102 O   0  5  0  0  0  0  0  0  0  0  0  0
   -0.9525    1.9327    0.9321 O   0  5  0  0  0  0  0  0  0  0  0  0
    0.2375    0.0747   -0.7892 N   0  0  0  0  0  0  0  0  0  0  0  0
   -1.2296   -2.9255   -2.1523 O   0  0  0  0  0  0  0  0  0  0  0  0
   -1.2143   -1.8468   -1.5837 C   0  0  0  0  0  0  0  0  0  0  0  0
    1.2091   -0.5257    0.1179 C   0  0  0  0  0  0  0  0  0  0  0  0
   -0.1047   -0.8076   -1.9264 C   0  0  0  0  0  0  0  0  0  0  0  0
    0.0775    2.3662    0.2295 C   0  0  0  0  0  0  0  0  0  0  0  0
    0.3967    1.5217   -1.0374 C   0  0  0  0  0  0  0  0  0  0  0  0
    0.7332    3.3700    0.4674 O   0  0  0  0  0  0  0  0  0  0  0  0
    2.6129   -0.4538   -0.0823 C   0  0  0  0  0  0  0  0  0  0  0  0
    1.5474   -1.8864    2.1326 C   0  0  0  0  0  0  0  0  0  0  0  0
    3.4448   -1.0853    0.8682 C   0  0  0  0  0  0  0  0  0  0  0  0
    0.7040   -1.2590    1.2107 C   0  0  0  0  0  0  0  0  0  0  0  0
    3.8822    1.6236   -0.8360 C   0  0  0  0  0  0  0  0  0  0  0  0
    3.2875    0.2611   -1.2362 C   0  0  0  0  0  0  0  0  0  0  0  0
    2.9353   -1.7894    1.9640 C   0  0  0  0  0  0  0  0  0  0  0  0
    0.7740   -1.3617   -2.3140 H   0  0  0  0  0  0  0  0  0  0  0  0
   -0.4952   -0.1777   -2.7540 H   0  0  0  0  0  0  0  0  0  0  0  0
   -0.3494    1.8052   -1.8121 H   0  0  0  0  0  0  0  0  0  0  0  0
    1.3883    1.8217   -1.4186 H   0  0  0  0  0  0  0  0  0  0  0  0
    1.1217   -2.4494    2.9764 H   0  0  0  0  0  0  0  0  0  0  0  0
    4.5354   -1.0277    0.7224 H   0  0  0  0  0  0  0  0  0  0  0  0
   -0.3861   -1.3487    1.3265 H   0  0  0  0  0  0  0  0  0  0  0  0
    4.6491    1.4970   -0.0455 H   0  0  0  0  0  0  0  0  0  0  0  0
    3.1122    2.3141   -0.4344 H   0  0  0  0  0  0  0  0  0  0  0  0
    4.3684    2.1121   -1.7043 H   0  0  0  0  0  0  0  0  0  0  0  0
    2.5899    0.3749   -2.0889 H   0  0  0  0  0  0  0  0  0  0  0  0
    4.1037   -0.3934   -1.6089 H   0  0  0  0  0  0  0  0  0  0  0  0
    3.6198   -2.2718    2.6775 H   0  0  0  0  0  0  0  0  0  0  0  0
  3  6  1  0  0  0  0
  4  5  2  0  0  0  0
  5  1  1  0  0  0  0
  6 14  1  0  0  0  0
  7  5  1  0  0  0  0
  7  3  1  0  0  0  0
  8 10  2  0  0  0  0
  8  2  1  0  0  0  0
  9  3  1  0  0  0  0
  9  8  1  0  0  0  0
 11  6  2  0  0  0  0
 11 13  1  0  0  0  0
 12 22  1  0  0  0  0
 13 17  2  0  0  0  0
 14 24  1  0  0  0  0
 14 12  2  0  0  0  0
 15 26  1  0  0  0  0
 15 25  1  0  0  0  0
 16 15  1  0  0  0  0
 16 11  1  0  0  0  0
 17 12  1  0  0  0  0
 17 30  1  0  0  0  0
 18  7  1  0  0  0  0
 19  7  1  0  0  0  0
 20  9  1  0  0  0  0
 21  9  1  0  0  0  0
 23 13  1  0  0  0  0
 27 15  1  0  0  0  0
 28 16  1  0  0  0  0
 29 16  1  0  0  0  0
M  CHG  2   1  -1   2  -1
M  END
