14,22
q = 0.0, confidence = 0.736

 40 44  0  0  1  0  0  0  0  0999 V2000
   -3.6036   -0.2320    0.0076 C   0  0  2  0  0  0  0  0  0  0  0  0
   -3.0958    0.6887    1.2333 C   0  0  1  0  0  0  0  0  0  0  0  0
   -2.7464    0.1580    2.1259 H   0  0  0  0  0  0  0  0  0  0  0  0
   -3.5000   -1.7901    0.1494 C   0  0  0  0  0  0  0  0  0  0  0  0
   -4.3458   -2.4797   -0.9416 C   0  0  0  0  0  0  0  0  0  0  0  0
   -4.1527   -3.5700   -0.9162 H   0  0  0  0  0  0  0  0  0  0  0  0
   -4.1010   -2.1058   -1.9520 H   0  0  0  0  0  0  0  0  0  0  0  0
   -5.4248   -2.3107   -0.7684 H   0  0  0  0  0  0  0  0  0  0  0  0
   -4.0049   -2.2961    1.5151 C   0  0  0  0  0  0  0  0  0  0  0  0
   -3.8223   -3.3858    1.5862 H   0  0  0  0  0  0  0  0  0  0  0  0
   -5.0898   -2.1215    1.6261 H   0  0  0  0  0  0  0  0  0  0  0  0
   -3.4946   -1.8168    2.3722 H   0  0  0  0  0  0  0  0  0  0  0  0
   -2.0331   -2.2063   -0.0279 C   0  0  2  0  0  3  0  0  0  0  0  0
   -1.3357   -2.3435   -1.2897 C   0  0  0  0  0  3  0  0  0  0  0  0
   -1.7654   -2.1561   -2.2791 H   0  0  0  0  0  0  0  0  0  0  0  0
    0.0056   -2.7691   -1.0238 C   0  0  0  0  0  3  0  0  0  0  0  0
    0.7802   -2.9767   -1.7708 H   0  0  0  0  0  0  0  0  0  0  0  0
    0.1431   -2.9186    0.4064 C   0  0  0  0  0  0  0  0  0  0  0  0
    1.0434   -3.2599    0.9322 H   0  0  0  0  0  0  0  0  0  0  0  0
   -1.1110   -2.5989    1.0122 C   0  0  0  0  0  0  0  0  0  0  0  0
   -1.3303   -2.6398    2.0848 H   0  0  0  0  0  0  0  0  0  0  0  0
   -1.9592    0.6017   -0.1499 B   0  0  0  0  0  1  0  0  0  0  0  0
   -3.2186    0.5495   -1.4555 B   0  0  0  0  0  0  0  0  0  0  0  0
   -2.9845   -0.1136   -2.4347 H   0  0  0  0  0  0  0  0  0  0  0  0
   -4.8815    0.5706   -0.8193 B   0  0  1  0  0  0  0  0  0  0  0  0
   -5.7390   -0.0944   -1.3412 H   0  0  0  0  0  0  0  0  0  0  0  0
   -4.7869    0.6266    0.9418 B   0  0  2  0  0  0  0  0  0  0  0  0
   -5.4819    0.0062    1.7001 H   0  0  0  0  0  0  0  0  0  0  0  0
   -2.3329    2.1138    0.7493 B   0  0  1  0  0  0  0  0  0  0  0  0
   -1.4585    2.5599    1.4498 H   0  0  0  0  0  0  0  0  0  0  0  0
   -2.4317    2.0855   -1.0232 B   0  0  1  0  0  0  0  0  0  0  0  0
   -1.5982    2.5944   -1.7346 H   0  0  0  0  0  0  0  0  0  0  0  0
   -4.1638    2.0630   -1.4574 B   0  0  1  0  0  0  0  0  0  0  0  0
   -4.5620    2.5377   -2.4961 H   0  0  0  0  0  0  0  0  0  0  0  0
   -5.1317    2.1089    0.0445 B   0  0  0  0  0  0  0  0  0  0  0  0
   -6.2273    2.6121    0.1277 H   0  0  0  0  0  0  0  0  0  0  0  0
   -3.9852    2.1339    1.4045 B   0  0  2  0  0  0  0  0  0  0  0  0
   -4.1763    2.5526    2.5198 H   0  0  0  0  0  0  0  0  0  0  0  0
   -3.6091    3.0425   -0.0766 B   0  0  0  0  0  2  0  0  0  0  0  0
   -3.5962    4.2520   -0.0749 H   0  0  0  0  0  0  0  0  0  0  0  0
  1  4  1  1  0  0  0
  1  2  1  0  0  0  0
  2 37  1  0  0  0  0
  2  3  1  1  0  0  0
  4  9  1  0  0  0  0
  5  6  1  0  0  0  0
  5  8  1  0  0  0  0
  5  4  1  0  0  0  0
  7  5  1  0  0  0  0
  9 10  1  0  0  0  0
  9 11  1  0  0  0  0
  9 12  1  0  0  0  0
 13  4  1  6  0  0  0
 13 20  1  0  0  0  0
 14 16  1  0  0  0  0
 14 13  1  0  0  0  0
 15 14  1  0  0  0  0
 16 18  1  0  0  0  0
 17 16  1  0  0  0  0
 18 19  1  0  0  0  0
 18 20  2  0  0  0  0
 20 21  1  0  0  0  0
 23 31  1  0  0  0  0
 23  1  1  0  0  0  0
 24 23  1  0  0  0  0
 25 26  1  6  0  0  0
 25  1  1  0  0  0  0
 25 27  1  0  0  0  0
 27 37  1  0  0  0  0
 27 28  1  1  0  0  0
 29  2  1  0  0  0  0
 29 37  1  0  0  0  0
 29 30  1  1  0  0  0
 31 32  1  6  0  0  0
 31 22  1  0  0  0  0
 31 29  1  0  0  0  0
 33 34  1  6  0  0  0
 33 25  1  0  0  0  0
 33 39  1  0  0  0  0
 33 35  1  0  0  0  0
 35 36  1  0  0  0  0
 35 27  1  0  0  0  0
 37 38  1  1  0  0  0
 39 40  1  0  0  0  0
M  END
