2,15
 OpenBabel05122313053D

 41 41  0  0  0  0  0  0  0  0999 V2000
    0.3354    1.2009    0.0660 C   0  0  0  0  0  2  0  0  0  0  0  0
    1.5931    0.9791   -0.1924 C   0  0  0  0  0  2  0  0  0  0  0  0
    2.8840    1.5602   -0.4443 C   0  0  0  0  0  0  0  0  0  0  0  0
    3.2052    2.8589    0.0297 C   0  0  0  0  0  0  0  0  0  0  0  0
    2.4468    3.4165    0.5996 H   0  0  0  0  0  0  0  0  0  0  0  0
    4.4659    3.4126   -0.2170 C   0  0  0  0  0  0  0  0  0  0  0  0
    4.7030    4.4187    0.1620 H   0  0  0  0  0  0  0  0  0  0  0  0
    5.4286    2.6923   -0.9470 C   0  0  0  0  0  0  0  0  0  0  0  0
    6.4189    3.1321   -1.1395 H   0  0  0  0  0  0  0  0  0  0  0  0
    5.1185    1.4099   -1.4309 C   0  0  0  0  0  0  0  0  0  0  0  0
    5.8648    0.8451   -2.0105 H   0  0  0  0  0  0  0  0  0  0  0  0
    3.8631    0.8449   -1.1778 C   0  0  0  0  0  0  0  0  0  0  0  0
    3.6039   -0.1567   -1.5516 H   0  0  0  0  0  0  0  0  0  0  0  0
   -2.3037    0.6086   -0.0673 N   0  0  0  0  0  0  0  0  0  0  0  0
   -0.9148    0.3660   -0.0691 B   0  0  0  0  0  2  0  0  0  0  0  0
   -3.5089   -0.4069   -0.9364 Si  0  0  0  0  0  0  0  0  0  0  0  0
   -2.6930   -1.8566   -1.8103 C   0  0  0  0  0  0  0  0  0  0  0  0
   -2.0263   -1.5202   -2.6272 H   0  0  0  0  0  0  0  0  0  0  0  0
   -3.4886   -2.4929   -2.2514 H   0  0  0  0  0  0  0  0  0  0  0  0
   -2.0867   -2.4777   -1.1279 H   0  0  0  0  0  0  0  0  0  0  0  0
   -4.8287   -1.0510    0.2551 C   0  0  0  0  0  0  0  0  0  0  0  0
   -4.3756   -1.6529    1.0679 H   0  0  0  0  0  0  0  0  0  0  0  0
   -5.5381   -1.7035   -0.2954 H   0  0  0  0  0  0  0  0  0  0  0  0
   -5.4135   -0.2340    0.7191 H   0  0  0  0  0  0  0  0  0  0  0  0
   -4.3074    0.6557   -2.2854 C   0  0  0  0  0  0  0  0  0  0  0  0
   -4.8624    1.5327   -1.9001 H   0  0  0  0  0  0  0  0  0  0  0  0
   -5.0206    0.0374   -2.8694 H   0  0  0  0  0  0  0  0  0  0  0  0
   -3.5287    1.0230   -2.9847 H   0  0  0  0  0  0  0  0  0  0  0  0
   -2.7114    2.2761    0.5303 Si  0  0  0  0  0  0  0  0  0  0  0  0
   -4.5593    2.4160    0.9233 C   0  0  0  0  0  0  0  0  0  0  0  0
   -5.2299    2.2192    0.0653 H   0  0  0  0  0  0  0  0  0  0  0  0
   -4.7503    3.4557    1.2624 H   0  0  0  0  0  0  0  0  0  0  0  0
   -4.8464    1.7396    1.7534 H   0  0  0  0  0  0  0  0  0  0  0  0
   -1.8176    2.6187    2.1562 C   0  0  0  0  0  0  0  0  0  0  0  0
   -2.0746    1.8539    2.9173 H   0  0  0  0  0  0  0  0  0  0  0  0
   -2.1315    3.6085    2.5486 H   0  0  0  0  0  0  0  0  0  0  0  0
   -0.7190    2.6228    2.0229 H   0  0  0  0  0  0  0  0  0  0  0  0
   -2.2277    3.5291   -0.7914 C   0  0  0  0  0  0  0  0  0  0  0  0
   -1.1496    3.4257   -1.0280 H   0  0  0  0  0  0  0  0  0  0  0  0
   -2.4118    4.5667   -0.4441 H   0  0  0  0  0  0  0  0  0  0  0  0
   -2.8042    3.3688   -1.7245 H   0  0  0  0  0  0  0  0  0  0  0  0
  2  1  1  0  0  0  0
  3  2  1  0  0  0  0
  3  4  1  0  0  0  0
  4  5  1  0  0  0  0
  6  4  2  0  0  0  0
  6  7  1  0  0  0  0
  8  6  1  0  0  0  0
  9  8  1  0  0  0  0
 10 12  1  0  0  0  0
 10  8  2  0  0  0  0
 11 10  1  0  0  0  0
 12  3  2  0  0  0  0
 13 12  1  0  0  0  0
 14 29  1  0  0  0  0
 15 14  1  0  0  0  0
 15  1  1  0  0  0  0
 16 14  1  0  0  0  0
 16 21  1  0  0  0  0
 17 20  1  0  0  0  0
 17 16  1  0  0  0  0
 18 17  1  0  0  0  0
 19 17  1  0  0  0  0
 21 24  1  0  0  0  0
 21 22  1  0  0  0  0
 23 21  1  0  0  0  0
 25 26  1  0  0  0  0
 25 16  1  0  0  0  0
 27 25  1  0  0  0  0
 28 25  1  0  0  0  0
 29 30  1  0  0  0  0
 29 34  1  0  0  0  0
 30 32  1  0  0  0  0
 30 33  1  0  0  0  0
 31 30  1  0  0  0  0
 34 36  1  0  0  0  0
 34 35  1  0  0  0  0
 37 34  1  0  0  0  0
 38 40  1  0  0  0  0
 38 29  1  0  0  0  0
 39 38  1  0  0  0  0
 41 38  1  0  0  0  0
M  END
