1,4,23
q = -2.0, confidence = 0.568

 27 28  0  0  1  0  0  0  0  0999 V2000
    0.8652    0.5254    1.8147 O   0  0  0  0  0  1  0  0  0  0  0  0
    3.0010    1.3553    2.2289 O   0  0  0  0  0  0  0  0  0  0  0  0
    3.0295    0.6445    2.8985 H   0  0  0  0  0  0  0  0  0  0  0  0
    0.7265    1.8151   -0.4807 N   0  0  0  0  0  2  0  0  0  0  0  0
    0.3048    2.6715   -1.4257 C   0  0  0  0  0  3  0  0  0  0  0  0
   -0.5650    2.3423   -2.0156 H   0  0  0  0  0  0  0  0  0  0  0  0
    0.9722    3.8876   -1.6165 C   0  0  0  0  0  0  0  0  0  0  0  0
    0.6234    4.5830   -2.3925 H   0  0  0  0  0  0  0  0  0  0  0  0
    2.0792    4.1901   -0.8049 C   0  0  0  0  0  0  0  0  0  0  0  0
    2.6113    5.1453   -0.9327 H   0  0  0  0  0  0  0  0  0  0  0  0
    2.5090    3.2685    0.1618 C   0  0  0  0  0  0  0  0  0  0  0  0
    3.3712    3.4513    0.8173 H   0  0  0  0  0  0  0  0  0  0  0  0
    1.8031    2.0691    0.2955 C   0  0  0  0  0  0  0  0  0  0  0  0
    2.0837    0.9092    1.2646 C   0  0  2  0  0  0  0  0  0  0  0  0
    2.5919   -0.2535    0.3904 C   0  0  0  0  0  0  0  0  0  0  0  0
    3.9088   -0.7123    0.2921 C   0  0  0  0  0  0  0  0  0  0  0  0
    4.6956   -0.2190    0.8872 H   0  0  0  0  0  0  0  0  0  0  0  0
    4.2141   -1.8030   -0.5545 C   0  0  0  0  0  0  0  0  0  0  0  0
    3.1718   -2.3834   -1.3067 C   0  0  0  0  0  0  0  0  0  0  0  0
    3.4043   -3.2223   -1.9830 H   0  0  0  0  0  0  0  0  0  0  0  0
    1.8427   -1.9155   -1.2272 C   0  0  0  0  0  0  0  0  0  0  0  0
    1.0456   -2.3681   -1.8355 H   0  0  0  0  0  0  0  0  0  0  0  0
    1.5748   -0.8500   -0.3705 C   0  0  0  0  0  3  0  0  0  0  0  0
    5.6257   -2.3308   -0.6395 C   0  0  0  0  0  0  0  0  0  0  0  0
    6.3571   -1.5113   -0.7957 H   0  0  0  0  0  0  0  0  0  0  0  0
    5.7423   -3.0550   -1.4690 H   0  0  0  0  0  0  0  0  0  0  0  0
    5.9206   -2.8478    0.2987 H   0  0  0  0  0  0  0  0  0  0  0  0
  2  3  1  0  0  0  0
  4 13  1  0  0  0  0
  5  4  1  0  0  0  0
  6  5  1  0  0  0  0
  7  5  1  0  0  0  0
  7  9  2  0  0  0  0
  8  7  1  0  0  0  0
  9 11  1  0  0  0  0
 10  9  1  0  0  0  0
 11 13  2  0  0  0  0
 11 12  1  0  0  0  0
 13 14  1  0  0  0  0
 14  1  1  1  0  0  0
 14  2  1  0  0  0  0
 15 14  1  0  0  0  0
 16 15  1  0  0  0  0
 16 17  1  0  0  0  0
 18 16  2  0  0  0  0
 19 21  2  0  0  0  0
 19 18  1  0  0  0  0
 20 19  1  0  0  0  0
 21 23  1  0  0  0  0
 22 21  1  0  0  0  0
 23 15  2  0  0  0  0
 24 18  1  0  0  0  0
 24 27  1  0  0  0  0
 25 24  1  0  0  0  0
 26 24  1  0  0  0  0
M  END
