2,4,6
q = -2.0, confidence = 0.828

 35 36  0  0  0  0  0  0  0  0999 V2000
    5.0843    0.9893   -0.0398 O   0  0  0  0  0  0  0  0  0  0  0  0
   -2.5097    0.4672   -0.0442 O   0  5  0  0  0  0  0  0  0  0  0  0
    2.3165    5.0031    0.0342 O   0  0  0  0  0  0  0  0  0  0  0  0
   -0.9510    2.5092   -0.0136 N   0  0  0  0  0  2  0  0  0  0  0  0
   -2.2661    2.7969   -0.0129 N   0  0  0  0  0  0  0  0  0  0  0  0
    1.4696    1.4115   -0.0256 C   0  0  0  0  0  2  0  0  0  0  0  0
    2.7400    0.8423   -0.0407 C   0  0  0  0  0  0  0  0  0  0  0  0
    2.9061   -0.2428   -0.0754 H   0  0  0  0  0  0  0  0  0  0  0  0
    3.8996    1.6609   -0.0263 C   0  0  0  0  0  0  0  0  0  0  0  0
    3.8003    3.0637   -0.0001 C   0  0  0  0  0  0  0  0  0  0  0  0
    4.6983    3.6897    0.0092 H   0  0  0  0  0  0  0  0  0  0  0  0
    2.5179    3.6543    0.0117 C   0  0  0  0  0  0  0  0  0  0  0  0
    1.3517    2.8497    0.0003 C   0  0  0  0  0  0  0  0  0  0  0  0
    0.0162    3.4001    0.0072 C   0  0  0  0  0  0  0  0  0  0  0  0
   -0.2154    4.4774    0.0263 H   0  0  0  0  0  0  0  0  0  0  0  0
   -2.9940    1.6731   -0.0308 C   0  0  0  0  0  0  0  0  0  0  0  0
   -4.4743    1.8222   -0.0413 C   0  0  0  0  0  0  0  0  0  0  0  0
   -5.0855    3.0921    0.0463 C   0  0  0  0  0  0  0  0  0  0  0  0
   -4.4395    3.9781    0.1207 H   0  0  0  0  0  0  0  0  0  0  0  0
   -6.4812    3.2038    0.0389 C   0  0  0  0  0  0  0  0  0  0  0  0
   -6.9508    4.1971    0.1096 H   0  0  0  0  0  0  0  0  0  0  0  0
   -7.2831    2.0530   -0.0588 C   0  0  0  0  0  0  0  0  0  0  0  0
   -8.3803    2.1439   -0.0650 H   0  0  0  0  0  0  0  0  0  0  0  0
   -6.6802    0.7875   -0.1502 C   0  0  0  0  0  0  0  0  0  0  0  0
   -7.3053   -0.1152   -0.2312 H   0  0  0  0  0  0  0  0  0  0  0  0
   -5.2840    0.6708   -0.1410 C   0  0  0  0  0  0  0  0  0  0  0  0
   -4.7892   -0.3082   -0.2178 H   0  0  0  0  0  0  0  0  0  0  0  0
    6.2856    1.7330   -0.0331 C   0  0  0  0  0  0  0  0  0  0  0  0
    6.3719    2.3915   -0.9271 H   0  0  0  0  0  0  0  0  0  0  0  0
    7.1115    0.9977   -0.0488 H   0  0  0  0  0  0  0  0  0  0  0  0
    6.3804    2.3624    0.8808 H   0  0  0  0  0  0  0  0  0  0  0  0
    3.4388    5.8619    0.0455 C   0  0  0  0  0  0  0  0  0  0  0  0
    4.0739    5.7049    0.9465 H   0  0  0  0  0  0  0  0  0  0  0  0
    3.0430    6.8943    0.0626 H   0  0  0  0  0  0  0  0  0  0  0  0
    4.0703    5.7334   -0.8625 H   0  0  0  0  0  0  0  0  0  0  0  0
  1 28  1  0  0  0  0
  1  9  1  0  0  0  0
  2 16  1  0  0  0  0
  3 32  1  0  0  0  0
  4  5  1  0  0  0  0
  4 14  1  0  0  0  0
  6 13  1  0  0  0  0
  7  9  2  0  0  0  0
  7  6  1  0  0  0  0
  8  7  1  0  0  0  0
  9 10  1  0  0  0  0
 10 11  1  0  0  0  0
 10 12  2  0  0  0  0
 12  3  1  0  0  0  0
 13 14  2  0  0  0  0
 13 12  1  0  0  0  0
 14 15  1  0  0  0  0
 16  5  2  0  0  0  0
 17 16  1  0  0  0  0
 17 18  1  0  0  0  0
 18 19  1  0  0  0  0
 20 18  2  0  0  0  0
 20 21  1  0  0  0  0
 22 20  1  0  0  0  0
 23 22  1  0  0  0  0
 24 26  1  0  0  0  0
 24 22  2  0  0  0  0
 25 24  1  0  0  0  0
 26 17  2  0  0  0  0
 27 26  1  0  0  0  0
 28 31  1  0  0  0  0
 29 28  1  0  0  0  0
 30 28  1  0  0  0  0
 32 34  1  0  0  0  0
 32 33  1  0  0  0  0
 35 32  1  0  0  0  0
M  CHG  1   2  -1
M  END
