1,4,33
q = -1.0, confidence = 0.078

 70 71  0  0  1  0  0  0  0  0999 V2000
    3.2534   -0.6283    1.3371 N   0  0  0  0  0  0  0  0  0  0  0  0
    2.9430   -1.3708    1.9940 H   0  0  0  0  0  0  0  0  0  0  0  0
    4.2474   -0.7461    1.0733 H   0  0  0  0  0  0  0  0  0  0  0  0
    0.4648   -0.7545    0.6298 C   0  0  1  0  0  3  0  0  0  0  0  0
    0.4129    0.2338    1.7807 C   0  0  0  0  0  0  0  0  0  0  0  0
   -0.8496    0.4908    2.3665 C   0  0  0  0  0  0  0  0  0  0  0  0
   -1.7191   -0.0784    2.0142 H   0  0  0  0  0  0  0  0  0  0  0  0
   -1.0273    1.4214    3.3937 C   0  0  0  0  0  0  0  0  0  0  0  0
   -2.0339    1.5974    3.8020 H   0  0  0  0  0  0  0  0  0  0  0  0
    0.0817    2.1108    3.9021 C   0  0  0  0  0  0  0  0  0  0  0  0
   -0.0338    2.8502    4.7085 H   0  0  0  0  0  0  0  0  0  0  0  0
    1.3486    1.8239    3.3887 C   0  0  0  0  0  0  0  0  0  0  0  0
    2.2298    2.3385    3.8012 H   0  0  0  0  0  0  0  0  0  0  0  0
    1.5366    0.8941    2.3449 C   0  0  0  0  0  0  0  0  0  0  0  0
    2.9747    0.7052    1.8964 C   0  0  2  0  0  0  0  0  0  0  0  0
    3.6112    0.8440    2.8021 H   0  0  0  0  0  0  0  0  0  0  0  0
    3.4191    1.8225    0.9256 C   0  0  0  0  0  0  0  0  0  0  0  0
    2.9576    2.9468    0.9256 O   0  0  0  0  0  0  0  0  0  0  0  0
    4.4028    1.3787    0.1405 O   0  0  0  0  0  0  0  0  0  0  0  0
    4.7827    2.1925   -0.9814 C   0  0  0  0  0  0  0  0  0  0  0  0
    5.4510    1.5544   -1.5843 H   0  0  0  0  0  0  0  0  0  0  0  0
    5.2955    3.1135   -0.6389 H   0  0  0  0  0  0  0  0  0  0  0  0
    3.8763    2.4505   -1.5617 H   0  0  0  0  0  0  0  0  0  0  0  0
    0.6073   -2.1690    1.0918 C   0  0  0  0  0  0  0  0  0  0  0  0
    1.1668   -2.5275    2.1292 O   0  0  0  0  0  0  0  0  0  0  0  0
    0.0424   -3.0577    0.2139 O   0  0  0  0  0  0  0  0  0  0  0  0
    0.3610   -4.4383    0.4002 C   0  0  0  0  0  0  0  0  0  0  0  0
   -0.3642   -5.0019   -0.2143 H   0  0  0  0  0  0  0  0  0  0  0  0
    0.2822   -4.7186    1.4690 H   0  0  0  0  0  0  0  0  0  0  0  0
    1.3956   -4.6383    0.0512 H   0  0  0  0  0  0  0  0  0  0  0  0
   -0.6058   -0.4818   -0.4967 C   0  0  1  0  0  0  0  0  0  0  0  0
   -0.1434   -1.1501   -1.8022 C   0  0  2  0  0  3  0  0  0  0  0  0
    1.0446   -1.4157   -2.0320 O   0  0  0  0  0  1  0  0  0  0  0  0
   -1.0986   -1.3609   -2.6862 O   0  0  0  0  0  0  0  0  0  0  0  0
   -0.7008   -1.9425   -3.9441 C   0  0  0  0  0  0  0  0  0  0  0  0
   -1.6284   -2.0302   -4.5342 H   0  0  0  0  0  0  0  0  0  0  0  0
   -0.2471   -2.9376   -3.7728 H   0  0  0  0  0  0  0  0  0  0  0  0
    0.0352   -1.2895   -4.4517 H   0  0  0  0  0  0  0  0  0  0  0  0
   -2.0489   -0.8855   -0.1990 C   0  0  0  0  0  0  0  0  0  0  0  0
   -2.8777    0.1928   -0.3836 C   0  0  0  0  0  0  0  0  0  0  0  0
   -2.0816    1.3617   -0.7566 C   0  0  0  0  0  0  0  0  0  0  0  0
   -0.7587    1.0137   -0.8124 C   0  0  0  0  0  0  0  0  0  0  0  0
   -2.4988   -2.2727    0.1451 C   0  0  0  0  0  0  0  0  0  0  0  0
   -2.8008   -3.1236   -0.6666 O   0  0  0  0  0  0  0  0  0  0  0  0
   -2.5443   -2.4253    1.4860 O   0  0  0  0  0  0  0  0  0  0  0  0
   -2.9984   -3.7022    1.9504 C   0  0  0  0  0  0  0  0  0  0  0  0
   -2.9468   -3.6611    3.0523 H   0  0  0  0  0  0  0  0  0  0  0  0
   -2.3514   -4.5138    1.5638 H   0  0  0  0  0  0  0  0  0  0  0  0
   -4.0381   -3.8888    1.6137 H   0  0  0  0  0  0  0  0  0  0  0  0
   -4.3549    0.2442   -0.2585 C   0  0  0  0  0  0  0  0  0  0  0  0
   -5.0421    1.1846   -0.6218 O   0  0  0  0  0  0  0  0  0  0  0  0
   -4.8566   -0.8825    0.3010 O   0  0  0  0  0  0  0  0  0  0  0  0
   -6.2839   -0.9327    0.4082 C   0  0  0  0  0  0  0  0  0  0  0  0
   -6.5206   -1.9058    0.8733 H   0  0  0  0  0  0  0  0  0  0  0  0
   -6.7553   -0.8562   -0.5920 H   0  0  0  0  0  0  0  0  0  0  0  0
   -6.6597   -0.0996    1.0353 H   0  0  0  0  0  0  0  0  0  0  0  0
   -2.6803    2.7066   -1.0523 C   0  0  0  0  0  0  0  0  0  0  0  0
   -2.8097    3.1634   -2.1689 O   0  0  0  0  0  0  0  0  0  0  0  0
   -3.0712    3.3032    0.0893 O   0  0  0  0  0  0  0  0  0  0  0  0
   -3.7780    4.5376   -0.0845 C   0  0  0  0  0  0  0  0  0  0  0  0
   -3.9698    4.9265    0.9311 H   0  0  0  0  0  0  0  0  0  0  0  0
   -4.7332    4.3557   -0.6171 H   0  0  0  0  0  0  0  0  0  0  0  0
   -3.1748    5.2591   -0.6707 H   0  0  0  0  0  0  0  0  0  0  0  0
    0.3635    1.9120   -1.1520 C   0  0  0  0  0  0  0  0  0  0  0  0
    1.4581    1.5462   -1.5643 O   0  0  0  0  0  0  0  0  0  0  0  0
    0.0191    3.2023   -0.9706 O   0  0  0  0  0  0  0  0  0  0  0  0
    0.9978    4.1818   -1.3483 C   0  0  0  0  0  0  0  0  0  0  0  0
    0.4957    5.1597   -1.2443 H   0  0  0  0  0  0  0  0  0  0  0  0
    1.3202    4.0239   -2.3972 H   0  0  0  0  0  0  0  0  0  0  0  0
    1.8749    4.1152   -0.6760 H   0  0  0  0  0  0  0  0  0  0  0  0
  1 15  1  0  0  0  0
  1  2  1  0  0  0  0
  3  1  1  0  0  0  0
  4 24  1  1  0  0  0
  4  5  1  0  0  0  0
  5 14  2  0  0  0  0
  5  6  1  0  0  0  0
  6  8  2  0  0  0  0
  7  6  1  0  0  0  0
  8  9  1  0  0  0  0
  8 10  1  0  0  0  0
 10 11  1  0  0  0  0
 12 13  1  0  0  0  0
 12 10  2  0  0  0  0
 14 12  1  0  0  0  0
 15 14  1  0  0  0  0
 15 16  1  1  0  0  0
 17 15  1  0  0  0  0
 18 17  2  0  0  0  0
 19 17  1  0  0  0  0
 20 22  1  0  0  0  0
 20 19  1  0  0  0  0
 21 20  1  0  0  0  0
 23 20  1  0  0  0  0
 24 25  2  0  0  0  0
 26 27  1  0  0  0  0
 26 24  1  0  0  0  0
 27 29  1  0  0  0  0
 28 27  1  0  0  0  0
 30 27  1  0  0  0  0
 31 32  1  6  0  0  0
 31 39  1  0  0  0  0
 31  4  1  0  0  0  0
 32 33  1  6  0  0  0
 34 32  1  0  0  0  0
 35 37  1  0  0  0  0
 35 34  1  0  0  0  0
 36 35  1  0  0  0  0
 38 35  1  0  0  0  0
 39 43  1  0  0  0  0
 40 50  1  0  0  0  0
 40 39  2  0  0  0  0
 41 40  1  0  0  0  0
 42 41  2  0  0  0  0
 42 31  1  0  0  0  0
 43 45  1  0  0  0  0
 44 43  2  0  0  0  0
 45 46  1  0  0  0  0
 46 47  1  0  0  0  0
 48 46  1  0  0  0  0
 49 46  1  0  0  0  0
 50 52  1  0  0  0  0
 51 50  2  0  0  0  0
 52 53  1  0  0  0  0
 53 54  1  0  0  0  0
 53 56  1  0  0  0  0
 55 53  1  0  0  0  0
 57 41  1  0  0  0  0
 57 59  1  0  0  0  0
 58 57  2  0  0  0  0
 60 59  1  0  0  0  0
 60 61  1  0  0  0  0
 62 60  1  0  0  0  0
 63 60  1  0  0  0  0
 64 66  1  0  0  0  0
 64 42  1  0  0  0  0
 65 64  2  0  0  0  0
 67 68  1  0  0  0  0
 67 66  1  0  0  0  0
 67 70  1  0  0  0  0
 69 67  1  0  0  0  0
M  END
