5,17,26
q = -2.0, confidence = 0.974

 45 48  0  0  1  0  0  0  0  0999 V2000
   -0.3569   -3.4153    0.2945 C   0  0  2  0  0  0  0  0  0  0  0  0
   -0.5048   -4.5046    0.4363 H   0  0  0  0  0  0  0  0  0  0  0  0
    0.8424   -3.0051    1.6841 S   0  0  0  0  0  0  0  0  0  0  0  0
    0.0048   -2.8575    2.8971 O   0  0  0  0  0  1  0  0  0  0  0  0
    1.4485   -1.6599    1.1781 O   0  0  0  0  0  1  0  0  0  0  0  0
    1.8869   -4.0590    1.6771 O   0  0  0  0  0  1  0  0  0  0  0  0
   -0.5990   -2.6179   -1.9968 N   0  0  0  0  0  0  0  0  0  0  0  0
    0.2420   -3.1285   -1.0785 C   0  0  0  0  0  0  0  0  0  0  0  0
    1.6033   -3.3809   -1.3516 C   0  0  0  0  0  0  0  0  0  0  0  0
    2.2497   -3.7954   -0.5649 H   0  0  0  0  0  0  0  0  0  0  0  0
    2.1012   -3.0453   -2.6149 C   0  0  0  0  0  0  0  0  0  0  0  0
    3.1656   -3.2036   -2.8446 H   0  0  0  0  0  0  0  0  0  0  0  0
    1.2328   -2.4927   -3.5690 C   0  0  0  0  0  0  0  0  0  0  0  0
    1.5859   -2.2087   -4.5718 H   0  0  0  0  0  0  0  0  0  0  0  0
   -0.1111   -2.3130   -3.2088 C   0  0  0  0  0  0  0  0  0  0  0  0
   -0.8337   -1.8952   -3.9332 H   0  0  0  0  0  0  0  0  0  0  0  0
   -1.6604   -1.3461    0.4797 N   0  0  0  0  0  2  0  0  0  0  0  0
   -1.6564   -2.7003    0.5357 C   0  0  0  0  0  0  0  0  0  0  0  0
   -2.8385   -3.4040    0.7989 C   0  0  0  0  0  0  0  0  0  0  0  0
   -2.8103   -4.5004    0.8562 H   0  0  0  0  0  0  0  0  0  0  0  0
   -4.0212   -2.6853    1.0083 C   0  0  0  0  0  0  0  0  0  0  0  0
   -4.9517   -3.2077    1.2761 H   0  0  0  0  0  0  0  0  0  0  0  0
   -4.0248   -1.2983    0.8458 C   0  0  0  0  0  0  0  0  0  0  0  0
   -4.9496   -0.7291    0.9775 H   0  0  0  0  0  0  0  0  0  0  0  0
   -2.8269   -0.6301    0.5122 C   0  0  0  0  0  0  0  0  0  0  0  0
   -1.2940    1.2433    0.0744 C   0  0  0  0  0  2  0  0  0  0  0  0
   -1.0611    2.6154   -0.1516 C   0  0  0  0  0  0  0  0  0  0  0  0
   -0.0361    2.9987   -0.2402 H   0  0  0  0  0  0  0  0  0  0  0  0
   -2.1187    3.5253   -0.2764 C   0  0  0  0  0  0  0  0  0  0  0  0
   -1.9045    4.5925   -0.4430 H   0  0  0  0  0  0  0  0  0  0  0  0
   -3.4435    3.0756   -0.2291 C   0  0  0  0  0  0  0  0  0  0  0  0
   -4.2781    3.7739   -0.3908 H   0  0  0  0  0  0  0  0  0  0  0  0
   -3.7327    1.7126   -0.0247 C   0  0  0  0  0  0  0  0  0  0  0  0
   -2.6583    0.7984    0.1883 C   0  0  0  0  0  0  0  0  0  0  0  0
   -5.1657    1.3128   -0.1416 C   0  0  0  0  0  0  0  0  0  0  0  0
   -6.1260    1.7683    0.7855 C   0  0  0  0  0  0  0  0  0  0  0  0
   -5.7989    2.3900    1.6329 H   0  0  0  0  0  0  0  0  0  0  0  0
   -7.4783    1.4176    0.6446 C   0  0  0  0  0  0  0  0  0  0  0  0
   -8.2140    1.7723    1.3825 H   0  0  0  0  0  0  0  0  0  0  0  0
   -7.8910    0.6170   -0.4316 C   0  0  0  0  0  0  0  0  0  0  0  0
   -8.9510    0.3421   -0.5420 H   0  0  0  0  0  0  0  0  0  0  0  0
   -6.9448    0.1739   -1.3713 C   0  0  0  0  0  0  0  0  0  0  0  0
   -7.2630   -0.4448   -2.2244 H   0  0  0  0  0  0  0  0  0  0  0  0
   -5.5945    0.5193   -1.2291 C   0  0  0  0  0  0  0  0  0  0  0  0
   -4.8504    0.1689   -1.9605 H   0  0  0  0  0  0  0  0  0  0  0  0
  1  2  1  1  0  0  0
  1 18  1  0  0  0  0
  1  3  1  0  0  0  0
  3  4  1  0  0  0  0
  5  3  1  0  0  0  0
  6  3  1  0  0  0  0
  7  8  1  0  0  0  0
  8  1  1  0  0  0  0
  9  8  2  0  0  0  0
  9 10  1  0  0  0  0
 11  9  1  0  0  0  0
 12 11  1  0  0  0  0
 13 15  1  0  0  0  0
 13 11  2  0  0  0  0
 14 13  1  0  0  0  0
 15  7  2  0  0  0  0
 16 15  1  0  0  0  0
 17 25  1  0  0  0  0
 17 18  1  0  0  0  0
 18 19  2  0  0  0  0
 19 20  1  0  0  0  0
 19 21  1  0  0  0  0
 21 22  1  0  0  0  0
 23 24  1  0  0  0  0
 23 21  2  0  0  0  0
 25 23  1  0  0  0  0
 26 34  1  0  0  0  0
 27 26  1  0  0  0  0
 28 27  1  0  0  0  0
 29 31  1  0  0  0  0
 29 27  2  0  0  0  0
 30 29  1  0  0  0  0
 31 33  2  0  0  0  0
 32 31  1  0  0  0  0
 33 34  1  0  0  0  0
 34 25  2  0  0  0  0
 35 33  1  0  0  0  0
 35 36  1  0  0  0  0
 36 37  1  0  0  0  0
 38 36  2  0  0  0  0
 38 39  1  0  0  0  0
 40 38  1  0  0  0  0
 41 40  1  0  0  0  0
 42 44  1  0  0  0  0
 42 40  2  0  0  0  0
 43 42  1  0  0  0  0
 44 35  2  0  0  0  0
 45 44  1  0  0  0  0
M  END
