1,4,43
q = -1.0, confidence = 0.058

 57 58  0  0  0  0  0  0  0  0999 V2000
    0.1566    1.0419   -0.5726 O   0  5  0  0  0  0  0  0  0  0  0  0
   -0.0584   -1.8118   -0.4166 N   0  0  0  0  0  0  0  0  0  0  0  0
    1.9801   -2.5779   -0.5246 N   0  0  0  0  0  0  0  0  0  0  0  0
    3.8974   -0.3328    0.5637 N   0  0  0  0  0  0  0  0  0  0  0  0
   -1.0007    0.4615   -0.3373 C   0  0  0  0  0  0  0  0  0  0  0  0
   -2.1793    1.2878   -0.2134 C   0  0  0  0  0  0  0  0  0  0  0  0
   -3.4089    0.6637    0.0175 C   0  0  0  0  0  0  0  0  0  0  0  0
   -4.2969    1.3015    0.1164 H   0  0  0  0  0  0  0  0  0  0  0  0
   -3.5811   -0.7342    0.1616 C   0  0  0  0  0  0  0  0  0  0  0  0
   -2.4391   -1.5278    0.0363 C   0  0  0  0  0  0  0  0  0  0  0  0
   -2.5064   -2.6149    0.1691 H   0  0  0  0  0  0  0  0  0  0  0  0
   -1.1828   -0.9509   -0.2306 C   0  0  0  0  0  0  0  0  0  0  0  0
   -2.0597    2.8202   -0.3209 C   0  0  0  0  0  0  0  0  0  0  0  0
   -1.4834    3.2099   -1.7031 C   0  0  0  0  0  0  0  0  0  0  0  0
   -2.1403    2.8453   -2.5198 H   0  0  0  0  0  0  0  0  0  0  0  0
   -0.4713    2.7885   -1.8422 H   0  0  0  0  0  0  0  0  0  0  0  0
   -1.4160    4.3148   -1.7850 H   0  0  0  0  0  0  0  0  0  0  0  0
   -1.1352    3.3515    0.8016 C   0  0  0  0  0  0  0  0  0  0  0  0
   -0.1040    2.9656    0.7006 H   0  0  0  0  0  0  0  0  0  0  0  0
   -1.5310    3.0688    1.7991 H   0  0  0  0  0  0  0  0  0  0  0  0
   -1.0904    4.4598    0.7554 H   0  0  0  0  0  0  0  0  0  0  0  0
   -3.4289    3.5093   -0.1716 C   0  0  0  0  0  0  0  0  0  0  0  0
   -3.8913    3.3126    0.8174 H   0  0  0  0  0  0  0  0  0  0  0  0
   -4.1448    3.1956   -0.9590 H   0  0  0  0  0  0  0  0  0  0  0  0
   -3.2960    4.6061   -0.2618 H   0  0  0  0  0  0  0  0  0  0  0  0
   -4.9754   -1.3100    0.4600 C   0  0  0  0  0  0  0  0  0  0  0  0
   -5.4970   -0.7272    1.7933 C   0  0  0  0  0  0  0  0  0  0  0  0
   -4.8227   -0.9959    2.6316 H   0  0  0  0  0  0  0  0  0  0  0  0
   -6.5101   -1.1189    2.0231 H   0  0  0  0  0  0  0  0  0  0  0  0
   -5.5630    0.3782    1.7576 H   0  0  0  0  0  0  0  0  0  0  0  0
   -5.9428   -0.9245   -0.6823 C   0  0  0  0  0  0  0  0  0  0  0  0
   -6.9614   -1.3184   -0.4827 H   0  0  0  0  0  0  0  0  0  0  0  0
   -5.5949   -1.3376   -1.6507 H   0  0  0  0  0  0  0  0  0  0  0  0
   -6.0233    0.1747   -0.7965 H   0  0  0  0  0  0  0  0  0  0  0  0
   -4.9541   -2.8435    0.5779 C   0  0  0  0  0  0  0  0  0  0  0  0
   -4.2980   -3.1840    1.4048 H   0  0  0  0  0  0  0  0  0  0  0  0
   -4.6075   -3.3230   -0.3604 H   0  0  0  0  0  0  0  0  0  0  0  0
   -5.9752   -3.2216    0.7869 H   0  0  0  0  0  0  0  0  0  0  0  0
   -0.1361   -3.1594   -0.7721 C   0  0  0  0  0  0  0  0  0  0  0  0
   -1.0875   -3.6552   -0.9742 H   0  0  0  0  0  0  0  0  0  0  0  0
    1.1453   -3.6412   -0.8351 C   0  0  0  0  0  0  0  0  0  0  0  0
    1.5229   -4.6385   -1.0797 H   0  0  0  0  0  0  0  0  0  0  0  0
    1.2542   -1.4460   -0.2688 C   0  0  0  0  0  2  0  0  0  0  0  0
    3.4345   -2.5973   -0.4996 C   0  0  0  0  0  0  0  0  0  0  0  0
    3.8345   -2.2166   -1.4637 H   0  0  0  0  0  0  0  0  0  0  0  0
    3.7588   -3.6517   -0.4052 H   0  0  0  0  0  0  0  0  0  0  0  0
    3.9952   -1.8108    0.6795 C   0  0  0  0  0  0  0  0  0  0  0  0
    3.4528   -2.1136    1.5967 H   0  0  0  0  0  0  0  0  0  0  0  0
    5.0675   -2.0835    0.8152 H   0  0  0  0  0  0  0  0  0  0  0  0
    4.8647    0.1814   -0.4390 C   0  0  0  0  0  0  0  0  0  0  0  0
    5.9037   -0.0910   -0.1426 H   0  0  0  0  0  0  0  0  0  0  0  0
    4.7409    1.2798   -0.4906 H   0  0  0  0  0  0  0  0  0  0  0  0
    4.6404   -0.2404   -1.4358 H   0  0  0  0  0  0  0  0  0  0  0  0
    4.2097    0.2620    1.8900 C   0  0  0  0  0  0  0  0  0  0  0  0
    5.2373   -0.0299    2.2063 H   0  0  0  0  0  0  0  0  0  0  0  0
    3.4751   -0.0996    2.6332 H   0  0  0  0  0  0  0  0  0  0  0  0
    4.1175    1.3606    1.8009 H   0  0  0  0  0  0  0  0  0  0  0  0
  1  5  1  0  0  0  0
  2 43  1  0  0  0  0
  2 12  1  0  0  0  0
  3 44  1  0  0  0  0
  3 43  1  0  0  0  0
  4 47  1  0  0  0  0
  4 54  1  0  0  0  0
  5 12  2  0  0  0  0
  5  6  1  0  0  0  0
  6  7  2  0  0  0  0
  7  8  1  0  0  0  0
  7  9  1  0  0  0  0
  9 26  1  0  0  0  0
 10  9  2  0  0  0  0
 10 11  1  0  0  0  0
 12 10  1  0  0  0  0
 13  6  1  0  0  0  0
 13 22  1  0  0  0  0
 13 18  1  0  0  0  0
 14 13  1  0  0  0  0
 15 14  1  0  0  0  0
 16 14  1  0  0  0  0
 17 14  1  0  0  0  0
 18 20  1  0  0  0  0
 19 18  1  0  0  0  0
 21 18  1  0  0  0  0
 22 23  1  0  0  0  0
 24 22  1  0  0  0  0
 25 22  1  0  0  0  0
 26 35  1  0  0  0  0
 26 27  1  0  0  0  0
 27 29  1  0  0  0  0
 27 28  1  0  0  0  0
 30 27  1  0  0  0  0
 31 32  1  0  0  0  0
 31 26  1  0  0  0  0
 33 31  1  0  0  0  0
 34 31  1  0  0  0  0
 35 38  1  0  0  0  0
 35 36  1  0  0  0  0
 37 35  1  0  0  0  0
 39  2  1  0  0  0  0
 40 39  1  0  0  0  0
 41 39  2  0  0  0  0
 41  3  1  0  0  0  0
 42 41  1  0  0  0  0
 44 46  1  0  0  0  0
 44 47  1  0  0  0  0
 45 44  1  0  0  0  0
 47 49  1  0  0  0  0
 47 48  1  0  0  0  0
 50 51  1  0  0  0  0
 50  4  1  0  0  0  0
 52 50  1  0  0  0  0
 53 50  1  0  0  0  0
 54 55  1  0  0  0  0
 54 56  1  0  0  0  0
 57 54  1  0  0  0  0
M  CHG  1   1  -1
M  END
