1,2,6
q = -2.0, confidence = 0.522

 32 34  0  0  0  0  0  0  0  0999 V2000
   -0.9881    2.2758   -0.0132 O   0  5  0  0  0  0  0  0  0  0  0  0
    1.3842    0.9122   -0.0237 N   0  0  0  0  0  2  0  0  0  0  0  0
    2.3904    0.1215   -0.0403 N   0  0  0  0  0  2  0  0  0  0  0  0
    3.0262   -2.2334    0.0214 C   0  0  0  0  0  0  0  0  0  0  0  0
    2.0157   -1.2104    0.0060 C   0  0  0  0  0  0  0  0  0  0  0  0
    0.6326   -1.5469    0.0591 C   0  0  0  0  0  3  0  0  0  0  0  0
    0.2471   -2.8938    0.1754 C   0  0  0  0  0  0  0  0  0  0  0  0
   -0.8160   -3.1599    0.2681 H   0  0  0  0  0  0  0  0  0  0  0  0
    2.6013   -3.6081    0.1125 C   0  0  0  0  0  0  0  0  0  0  0  0
    2.6411    3.0277   -0.0589 C   0  0  0  0  0  0  0  0  0  0  0  0
    3.5850    2.4641   -0.0607 H   0  0  0  0  0  0  0  0  0  0  0  0
    5.3530   -2.9618   -0.0295 C   0  0  0  0  0  0  0  0  0  0  0  0
    6.4256   -2.7212   -0.0842 H   0  0  0  0  0  0  0  0  0  0  0  0
    2.6221    4.4189   -0.0765 C   0  0  0  0  0  0  0  0  0  0  0  0
    1.4279    2.2982   -0.0389 C   0  0  0  0  0  0  0  0  0  0  0  0
    1.2107   -3.9026    0.1959 C   0  0  0  0  0  0  0  0  0  0  0  0
    0.8991   -4.9553    0.2855 H   0  0  0  0  0  0  0  0  0  0  0  0
    1.3491    5.0710   -0.0740 C   0  0  0  0  0  0  0  0  0  0  0  0
    1.3241    6.1730   -0.0885 H   0  0  0  0  0  0  0  0  0  0  0  0
    4.4153   -1.9380   -0.0463 C   0  0  0  0  0  0  0  0  0  0  0  0
    4.7232   -0.8854   -0.1134 H   0  0  0  0  0  0  0  0  0  0  0  0
    0.1492    4.3750   -0.0551 C   0  0  0  0  0  0  0  0  0  0  0  0
   -0.8192    4.8953   -0.0550 H   0  0  0  0  0  0  0  0  0  0  0  0
    4.9414   -4.3189    0.0578 C   0  0  0  0  0  0  0  0  0  0  0  0
    5.6964   -5.1193    0.0705 H   0  0  0  0  0  0  0  0  0  0  0  0
    3.8899    5.2329   -0.0988 C   0  0  0  0  0  0  0  0  0  0  0  0
    3.9388    5.8816   -0.9991 H   0  0  0  0  0  0  0  0  0  0  0  0
    4.7885    4.5867   -0.0984 H   0  0  0  0  0  0  0  0  0  0  0  0
    3.9550    5.9055    0.7827 H   0  0  0  0  0  0  0  0  0  0  0  0
    3.5929   -4.6333    0.1281 C   0  0  0  0  0  0  0  0  0  0  0  0
    3.2653   -5.6823    0.1983 H   0  0  0  0  0  0  0  0  0  0  0  0
    0.1321    2.9465   -0.0341 C   0  0  0  0  0  0  0  0  0  0  0  0
  3  2  1  0  0  0  0
  3  5  1  0  0  0  0
  4  9  1  0  0  0  0
  5  4  2  0  0  0  0
  5  6  1  0  0  0  0
  6  7  2  0  0  0  0
  7 16  1  0  0  0  0
  7  8  1  0  0  0  0
  9 30  1  0  0  0  0
  9 16  2  0  0  0  0
 10 15  1  0  0  0  0
 11 10  1  0  0  0  0
 12 24  1  0  0  0  0
 13 12  1  0  0  0  0
 14 18  1  0  0  0  0
 14 10  2  0  0  0  0
 15 32  2  0  0  0  0
 15  2  1  0  0  0  0
 16 17  1  0  0  0  0
 18 22  2  0  0  0  0
 19 18  1  0  0  0  0
 20 12  2  0  0  0  0
 20  4  1  0  0  0  0
 21 20  1  0  0  0  0
 22 23  1  0  0  0  0
 22 32  1  0  0  0  0
 24 25  1  0  0  0  0
 24 30  2  0  0  0  0
 26 28  1  0  0  0  0
 26 14  1  0  0  0  0
 26 29  1  0  0  0  0
 27 26  1  0  0  0  0
 30 31  1  0  0  0  0
 32  1  1  0  0  0  0
M  CHG  1   1  -1
M  END
