1,4,14
q = -1.0, confidence = 0.318

 58 61  0  0  1  0  0  0  0  0999 V2000
    1.1571   -2.2083    0.2023 O   0  5  0  0  0  0  0  0  0  0  0  0
    5.7455    0.7889    0.4777 O   0  0  0  0  0  0  0  0  0  0  0  0
    0.8367    1.4635   -1.0471 N   0  0  0  0  0  2  0  0  0  0  0  0
    0.9688    0.2397   -0.5356 N   0  0  0  0  0  2  0  0  0  0  0  0
    3.3724    0.6822   -0.0805 C   0  0  0  0  0  0  0  0  0  0  0  0
    3.2824    1.7205   -0.4191 H   0  0  0  0  0  0  0  0  0  0  0  0
   -0.3382    2.0707   -1.0934 C   0  0  0  0  0  0  0  0  0  0  0  0
    2.2266   -0.1443   -0.1317 C   0  0  0  0  0  0  0  0  0  0  0  0
   -1.5962    1.6465   -0.2979 C   0  0  2  0  0  0  0  0  0  0  0  0
    2.2636   -1.5235    0.2760 C   0  0  0  0  0  0  0  0  0  0  0  0
    3.4967   -2.0606    0.7457 C   0  0  0  0  0  0  0  0  0  0  0  0
    3.5305   -3.1144    1.0552 H   0  0  0  0  0  0  0  0  0  0  0  0
   -2.1077   -0.4462   -1.8227 C   0  0  2  0  0  3  0  0  0  0  0  0
   -1.9220    0.1401   -0.4460 C   0  0  1  0  0  3  0  0  0  0  0  0
   -2.1005    0.3289   -3.1041 C   0  0  0  0  0  0  0  0  0  0  0  0
   -3.1071    0.3000   -3.5691 H   0  0  0  0  0  0  0  0  0  0  0  0
   -1.8173    1.3864   -2.9668 H   0  0  0  0  0  0  0  0  0  0  0  0
   -1.3773   -0.1404   -3.8015 H   0  0  0  0  0  0  0  0  0  0  0  0
    4.6159   -1.2472    0.8020 C   0  0  0  0  0  0  0  0  0  0  0  0
    5.5827   -1.6303    1.1594 H   0  0  0  0  0  0  0  0  0  0  0  0
   -1.8501   -0.7051    0.6842 C   0  0  0  0  0  3  0  0  0  0  0  0
   -0.3573    3.3124   -1.8160 C   0  0  0  0  0  0  0  0  0  0  0  0
    0.5965    3.6255   -2.2641 H   0  0  0  0  0  0  0  0  0  0  0  0
   -2.2212   -2.5944   -0.6584 C   0  0  0  0  0  3  0  0  0  0  0  0
   -2.8186    2.4578   -0.6863 C   0  0  0  0  0  0  0  0  0  0  0  0
   -3.7773    2.1065   -0.2772 H   0  0  0  0  0  0  0  0  0  0  0  0
   -1.5092    4.0444   -1.9880 C   0  0  0  0  0  3  0  0  0  0  0  0
   -1.4819    4.9773   -2.5705 H   0  0  0  0  0  0  0  0  0  0  0  0
   -2.3066   -1.8555   -1.7196 C   0  0  0  0  0  3  0  0  0  0  0  0
   -1.8266   -2.1292    0.6670 C   0  0  0  0  0  0  0  0  0  0  0  0
    4.5650    0.1223    0.3846 C   0  0  0  0  0  0  0  0  0  0  0  0
   -1.3584    1.9734    1.2021 C   0  0  0  0  0  0  0  0  0  0  0  0
   -2.7626    3.5863   -1.4456 C   0  0  0  0  0  0  0  0  0  0  0  0
   -3.6814    4.1555   -1.6516 H   0  0  0  0  0  0  0  0  0  0  0  0
   -2.3778    1.6518    2.1291 C   0  0  0  0  0  0  0  0  0  0  0  0
   -3.3167    1.1988    1.7823 H   0  0  0  0  0  0  0  0  0  0  0  0
    5.7763    2.1437    0.0691 C   0  0  0  0  0  0  0  0  0  0  0  0
    6.8140    2.4942    0.2188 H   0  0  0  0  0  0  0  0  0  0  0  0
    5.5033    2.2551   -1.0041 H   0  0  0  0  0  0  0  0  0  0  0  0
    5.0869    2.7718    0.6770 H   0  0  0  0  0  0  0  0  0  0  0  0
   -1.5324   -3.0220    1.8453 C   0  0  0  0  0  0  0  0  0  0  0  0
   -0.7936   -3.7683    1.4793 H   0  0  0  0  0  0  0  0  0  0  0  0
   -0.1799    2.5726    1.6817 C   0  0  0  0  0  0  0  0  0  0  0  0
    0.6335    2.8288    0.9903 H   0  0  0  0  0  0  0  0  0  0  0  0
   -2.8127   -3.7723    2.2520 C   0  0  0  0  0  0  0  0  0  0  0  0
   -3.2390   -4.3317    1.3953 H   0  0  0  0  0  0  0  0  0  0  0  0
   -2.5964   -4.4940    3.0651 H   0  0  0  0  0  0  0  0  0  0  0  0
   -3.5840   -3.0637    2.6192 H   0  0  0  0  0  0  0  0  0  0  0  0
   -2.2110    1.9045    3.4966 C   0  0  0  0  0  0  0  0  0  0  0  0
   -3.0173    1.6440    4.1987 H   0  0  0  0  0  0  0  0  0  0  0  0
   -1.0224    2.4848    3.9668 C   0  0  0  0  0  0  0  0  0  0  0  0
   -0.8860    2.6778    5.0415 H   0  0  0  0  0  0  0  0  0  0  0  0
   -0.0114    2.8168    3.0547 C   0  0  0  0  0  0  0  0  0  0  0  0
    0.9285    3.2654    3.4104 H   0  0  0  0  0  0  0  0  0  0  0  0
   -0.9172   -2.2425    3.0095 C   0  0  0  0  0  0  0  0  0  0  0  0
   -0.6543   -2.9295    3.8387 H   0  0  0  0  0  0  0  0  0  0  0  0
   -0.0007   -1.7121    2.6872 H   0  0  0  0  0  0  0  0  0  0  0  0
   -1.6237   -1.4809    3.3969 H   0  0  0  0  0  0  0  0  0  0  0  0
  1 10  1  0  0  0  0
  3  4  1  0  0  0  0
  4  8  1  0  0  0  0
  5 31  1  0  0  0  0
  6  5  1  0  0  0  0
  7  3  1  0  0  0  0
  7  9  1  0  0  0  0
  8  5  2  0  0  0  0
  8 10  1  0  0  0  0
  9 32  1  1  0  0  0
 10 11  2  0  0  0  0
 11 19  1  0  0  0  0
 11 12  1  0  0  0  0
 13 15  1  1  0  0  0
 13 29  1  0  0  0  0
 13 14  1  0  0  0  0
 14  9  1  0  0  0  0
 14 21  1  6  0  0  0
 15 17  1  0  0  0  0
 16 15  1  0  0  0  0
 18 15  1  0  0  0  0
 19 20  1  0  0  0  0
 22  7  2  0  0  0  0
 23 22  1  0  0  0  0
 24 30  1  0  0  0  0
 25  9  1  0  0  0  0
 25 26  1  0  0  0  0
 27 22  1  0  0  0  0
 27 33  1  0  0  0  0
 28 27  1  0  0  0  0
 29 24  2  0  0  0  0
 30 21  2  0  0  0  0
 30 41  1  0  0  0  0
 31  2  1  0  0  0  0
 31 19  2  0  0  0  0
 32 43  2  0  0  0  0
 32 35  1  0  0  0  0
 33 25  2  0  0  0  0
 34 33  1  0  0  0  0
 35 49  2  0  0  0  0
 36 35  1  0  0  0  0
 37 38  1  0  0  0  0
 37  2  1  0  0  0  0
 37 40  1  0  0  0  0
 39 37  1  0  0  0  0
 41 45  1  0  0  0  0
 41 55  1  0  0  0  0
 42 41  1  0  0  0  0
 43 53  1  0  0  0  0
 44 43  1  0  0  0  0
 45 48  1  0  0  0  0
 45 47  1  0  0  0  0
 46 45  1  0  0  0  0
 49 51  1  0  0  0  0
 49 50  1  0  0  0  0
 51 52  1  0  0  0  0
 53 54  1  0  0  0  0
 53 51  2  0  0  0  0
 55 58  1  0  0  0  0
 55 56  1  0  0  0  0
 57 55  1  0  0  0  0
M  CHG  1   1  -1
M  END
