1,7,25
q = -2.0, confidence = 0.888

 38 40  0  0  0  0  0  0  0  0999 V2000
   -1.9230    0.5779    0.7508 N   0  0  0  0  0  2  0  0  0  0  0  0
   -2.1033    1.3108    1.8839 C   0  0  0  0  0  0  0  0  0  0  0  0
   -1.0539    1.0910    3.0056 C   0  0  0  0  0  0  0  0  0  0  0  0
   -1.2004    1.9039    3.7377 H   0  0  0  0  0  0  0  0  0  0  0  0
   -1.2628    0.1213    3.5042 H   0  0  0  0  0  0  0  0  0  0  0  0
    0.3325    1.1121    2.5591 N   0  0  0  0  0  0  0  0  0  0  0  0
    0.7729    0.3352    1.5274 C   0  0  0  0  0  2  0  0  0  0  0  0
   -2.9033    0.4914   -0.2813 C   0  0  0  0  0  0  0  0  0  0  0  0
   -3.7300   -0.8948   -2.1249 C   0  0  0  0  0  0  0  0  0  0  0  0
   -3.6254   -1.8008   -2.7408 H   0  0  0  0  0  0  0  0  0  0  0  0
   -2.7794   -0.6687   -1.1065 C   0  0  0  0  0  0  0  0  0  0  0  0
   -4.7644    0.0268   -2.3436 C   0  0  0  0  0  0  0  0  0  0  0  0
   -5.4921   -0.1553   -3.1500 H   0  0  0  0  0  0  0  0  0  0  0  0
   -3.9476    1.4097   -0.5095 C   0  0  0  0  0  0  0  0  0  0  0  0
   -4.0359    2.2844    0.1442 H   0  0  0  0  0  0  0  0  0  0  0  0
   -3.0515    2.0614    2.1450 O   0  0  0  0  0  0  0  0  0  0  0  0
    2.0642    0.7487    1.3075 N   0  0  0  0  0  0  0  0  0  0  0  0
    1.3141    1.9997    2.9754 C   0  0  0  0  0  0  0  0  0  0  0  0
    1.1534    2.7066    3.7946 H   0  0  0  0  0  0  0  0  0  0  0  0
    2.4101    1.7716    2.1847 C   0  0  0  0  0  0  0  0  0  0  0  0
    3.3909    2.2548    2.1580 H   0  0  0  0  0  0  0  0  0  0  0  0
    2.8679    0.3871    0.1387 C   0  0  0  0  0  0  0  0  0  0  0  0
    2.4632   -0.5685   -0.2411 H   0  0  0  0  0  0  0  0  0  0  0  0
    3.9118    0.2108    0.4666 H   0  0  0  0  0  0  0  0  0  0  0  0
   -1.7651   -1.5227   -0.9000 O   0  5  0  0  0  0  0  0  0  0  0  0
    2.8197    1.4473   -0.9450 C   0  0  0  0  0  0  0  0  0  0  0  0
    4.0038    2.0300   -1.4309 C   0  0  0  0  0  0  0  0  0  0  0  0
    4.9755    1.7194   -1.0134 H   0  0  0  0  0  0  0  0  0  0  0  0
    1.5805    1.8518   -1.4827 C   0  0  0  0  0  0  0  0  0  0  0  0
    0.6467    1.4021   -1.1038 H   0  0  0  0  0  0  0  0  0  0  0  0
   -4.8711    1.1760   -1.5427 C   0  0  0  0  0  0  0  0  0  0  0  0
   -5.6832    1.8986   -1.7143 H   0  0  0  0  0  0  0  0  0  0  0  0
    3.9557    3.0004   -2.4450 C   0  0  0  0  0  0  0  0  0  0  0  0
    4.8888    3.4493   -2.8180 H   0  0  0  0  0  0  0  0  0  0  0  0
    2.7199    3.3987   -2.9758 C   0  0  0  0  0  0  0  0  0  0  0  0
    2.6799    4.1612   -3.7684 H   0  0  0  0  0  0  0  0  0  0  0  0
    1.5328    2.8228   -2.4917 C   0  0  0  0  0  0  0  0  0  0  0  0
    0.5593    3.1293   -2.9032 H   0  0  0  0  0  0  0  0  0  0  0  0
  1  2  1  0  0  0  0
  2 16  2  0  0  0  0
  2  3  1  0  0  0  0
  3  5  1  0  0  0  0
  3  4  1  0  0  0  0
  6 18  1  0  0  0  0
  6  3  1  0  0  0  0
  7  6  1  0  0  0  0
  8  1  1  0  0  0  0
  9 11  1  0  0  0  0
 10  9  1  0  0  0  0
 11 25  1  0  0  0  0
 11  8  2  0  0  0  0
 12  9  2  0  0  0  0
 12 31  1  0  0  0  0
 13 12  1  0  0  0  0
 14  8  1  0  0  0  0
 14 15  1  0  0  0  0
 17  7  1  0  0  0  0
 17 20  1  0  0  0  0
 18 19  1  0  0  0  0
 20 18  2  0  0  0  0
 21 20  1  0  0  0  0
 22 24  1  0  0  0  0
 22 17  1  0  0  0  0
 23 22  1  0  0  0  0
 26 22  1  0  0  0  0
 27 28  1  0  0  0  0
 27 26  1  0  0  0  0
 29 30  1  0  0  0  0
 29 26  2  0  0  0  0
 31 14  2  0  0  0  0
 32 31  1  0  0  0  0
 33 27  2  0  0  0  0
 34 33  1  0  0  0  0
 35 37  2  0  0  0  0
 35 33  1  0  0  0  0
 36 35  1  0  0  0  0
 37 29  1  0  0  0  0
 38 37  1  0  0  0  0
M  CHG  1  25  -1
M  END
