2,3,12
q = -2.0, confidence = 0.836

 28 29  0  0  0  0  0  0  0  0999 V2000
   -3.1112    2.3858   -0.7986 O   0  0  0  0  0  0  0  0  0  0  0  0
   -1.6675    0.6580   -0.2070 N   0  0  0  0  0  2  0  0  0  0  0  0
   -0.8426   -1.8847   -0.0964 O   0  5  0  0  0  0  0  0  0  0  0  0
    0.3925    2.7803   -0.3461 N   0  0  0  0  0  0  0  0  0  0  0  0
    2.0219    3.4795    0.9740 C   0  0  0  0  0  0  0  0  0  0  0  0
    2.7498    4.0358    1.5717 H   0  0  0  0  0  0  0  0  0  0  0  0
   -0.7976    2.7565   -1.1864 C   0  0  0  0  0  0  0  0  0  0  0  0
   -0.5213    2.3888   -2.1973 H   0  0  0  0  0  0  0  0  0  0  0  0
   -1.1787    3.7881   -1.2810 H   0  0  0  0  0  0  0  0  0  0  0  0
   -4.4059   -2.4889    0.5428 C   0  0  0  0  0  0  0  0  0  0  0  0
   -5.0908   -3.3329    0.7209 H   0  0  0  0  0  0  0  0  0  0  0  0
    0.9692    1.6424    0.1401 C   0  0  0  0  0  2  0  0  0  0  0  0
   -2.6536   -0.3295    0.0861 C   0  0  0  0  0  0  0  0  0  0  0  0
   -4.0233   -0.0910    0.3195 C   0  0  0  0  0  0  0  0  0  0  0  0
   -4.3928    0.9397    0.2936 H   0  0  0  0  0  0  0  0  0  0  0  0
    1.9753    2.0889    0.9637 N   0  0  0  0  0  0  0  0  0  0  0  0
    1.0160    3.9143    0.1504 C   0  0  0  0  0  0  0  0  0  0  0  0
    0.6924    4.9246   -0.1161 H   0  0  0  0  0  0  0  0  0  0  0  0
   -3.0456   -2.7389    0.3119 C   0  0  0  0  0  0  0  0  0  0  0  0
   -2.6403   -3.7621    0.3032 H   0  0  0  0  0  0  0  0  0  0  0  0
    2.8172    1.2435    1.7942 C   0  0  0  0  0  0  0  0  0  0  0  0
    2.3308    0.2577    1.8979 H   0  0  0  0  0  0  0  0  0  0  0  0
    2.9246    1.6989    2.7970 H   0  0  0  0  0  0  0  0  0  0  0  0
    3.8233    1.1072    1.3484 H   0  0  0  0  0  0  0  0  0  0  0  0
   -4.8921   -1.1709    0.5507 C   0  0  0  0  0  0  0  0  0  0  0  0
   -5.9595   -0.9744    0.7326 H   0  0  0  0  0  0  0  0  0  0  0  0
   -1.9803    1.9013   -0.6632 C   0  0  0  0  0  0  0  0  0  0  0  0
   -2.1521   -1.6676    0.0979 C   0  0  0  0  0  0  0  0  0  0  0  0
  1 27  2  0  0  0  0
  2 13  1  0  0  0  0
  3 28  1  0  0  0  0
  4 12  1  0  0  0  0
  4 17  1  0  0  0  0
  5  6  1  0  0  0  0
  7 27  1  0  0  0  0
  7  4  1  0  0  0  0
  8  7  1  0  0  0  0
  9  7  1  0  0  0  0
 10 25  1  0  0  0  0
 10 11  1  0  0  0  0
 12 16  1  0  0  0  0
 13 28  2  0  0  0  0
 13 14  1  0  0  0  0
 14 25  2  0  0  0  0
 15 14  1  0  0  0  0
 16  5  1  0  0  0  0
 16 21  1  0  0  0  0
 17  5  2  0  0  0  0
 18 17  1  0  0  0  0
 19 10  2  0  0  0  0
 20 19  1  0  0  0  0
 21 22  1  0  0  0  0
 21 23  1  0  0  0  0
 24 21  1  0  0  0  0
 25 26  1  0  0  0  0
 27  2  1  0  0  0  0
 28 19  1  0  0  0  0
M  CHG  1   3  -1
M  END
