1,3,6
q = -2.0, confidence = 0.872

 34 36  0  0  0  0  0  0  0  0999 V2000
   -0.7953   -1.6669   -0.0080 O   0  5  0  0  0  0  0  0  0  0  0  0
   -6.3317   -1.4877   -0.0046 O   0  0  0  0  0  0  0  0  0  0  0  0
   -0.8565    1.3065   -0.0457 N   0  0  0  0  0  2  0  0  0  0  0  0
   -0.3581    2.6351   -0.0863 C   0  0  0  0  0  0  0  0  0  0  0  0
    1.0628    2.7066    0.0339 C   0  0  0  0  0  0  0  0  0  0  0  0
    1.7859    1.4705    0.1437 C   0  0  0  0  0  2  0  0  0  0  0  0
   -2.0832   -1.5214   -0.0119 C   0  0  0  0  0  0  0  0  0  0  0  0
   -2.7862   -0.2494   -0.0245 C   0  0  0  0  0  0  0  0  0  0  0  0
   -4.2233   -0.2347   -0.0216 C   0  0  0  0  0  3  0  0  0  0  0  0
   -4.7212    0.7452   -0.0308 H   0  0  0  0  0  0  0  0  0  0  0  0
   -4.9652   -1.4081   -0.0085 C   0  0  0  0  0  0  0  0  0  0  0  0
   -7.0552   -0.2776   -0.0140 C   0  0  0  0  0  0  0  0  0  0  0  0
   -6.8357    0.3474    0.8828 H   0  0  0  0  0  0  0  0  0  0  0  0
   -8.1281   -0.5470   -0.0087 H   0  0  0  0  0  0  0  0  0  0  0  0
   -6.8405    0.3305   -0.9236 H   0  0  0  0  0  0  0  0  0  0  0  0
   -4.2782   -2.6564    0.0006 C   0  0  0  0  0  0  0  0  0  0  0  0
   -4.8825   -3.5763    0.0090 H   0  0  0  0  0  0  0  0  0  0  0  0
   -2.8975   -2.7059   -0.0031 C   0  0  0  0  0  0  0  0  0  0  0  0
   -2.3649   -3.6681    0.0019 H   0  0  0  0  0  0  0  0  0  0  0  0
   -2.1478    1.0275   -0.0451 C   0  0  0  0  0  0  0  0  0  0  0  0
   -2.8403    1.8900   -0.0588 H   0  0  0  0  0  0  0  0  0  0  0  0
    3.1639    1.5465    0.3419 C   0  0  0  0  0  0  0  0  0  0  0  0
    3.7665    0.6353    0.4797 H   0  0  0  0  0  0  0  0  0  0  0  0
    3.8323    2.8051    0.3831 C   0  0  0  0  0  0  0  0  0  0  0  0
    4.9232    2.8251    0.5370 H   0  0  0  0  0  0  0  0  0  0  0  0
    3.1381    3.9972    0.2349 C   0  0  0  0  0  0  0  0  0  0  0  0
    3.6649    4.9636    0.2603 H   0  0  0  0  0  0  0  0  0  0  0  0
    1.7220    3.9804    0.0624 C   0  0  0  0  0  0  0  0  0  0  0  0
    0.9268    5.1562   -0.0737 C   0  0  0  0  0  3  0  0  0  0  0  0
    1.4191    6.1411   -0.0631 H   0  0  0  0  0  0  0  0  0  0  0  0
   -0.4530    5.0601   -0.2172 C   0  0  0  0  0  0  0  0  0  0  0  0
   -1.0563    5.9743   -0.3264 H   0  0  0  0  0  0  0  0  0  0  0  0
   -1.1104    3.8038   -0.2210 C   0  0  0  0  0  0  0  0  0  0  0  0
   -2.2034    3.7748   -0.3331 H   0  0  0  0  0  0  0  0  0  0  0  0
  3 20  1  0  0  0  0
  4  3  1  0  0  0  0
  4  5  2  0  0  0  0
  5 28  1  0  0  0  0
  5  6  1  0  0  0  0
  6 22  1  0  0  0  0
  7  1  1  0  0  0  0
  7 18  2  0  0  0  0
  8  9  1  0  0  0  0
  8  7  1  0  0  0  0
  9 11  1  0  0  0  0
 10  9  1  0  0  0  0
 11  2  1  0  0  0  0
 11 16  2  0  0  0  0
 12 14  1  0  0  0  0
 12  2  1  0  0  0  0
 12 13  1  0  0  0  0
 15 12  1  0  0  0  0
 16 17  1  0  0  0  0
 18 16  1  0  0  0  0
 18 19  1  0  0  0  0
 20  8  2  0  0  0  0
 21 20  1  0  0  0  0
 22 24  2  0  0  0  0
 22 23  1  0  0  0  0
 24 25  1  0  0  0  0
 26 27  1  0  0  0  0
 26 24  1  0  0  0  0
 28 26  2  0  0  0  0
 29 30  1  0  0  0  0
 29 28  1  0  0  0  0
 31 29  1  0  0  0  0
 32 31  1  0  0  0  0
 33 31  2  0  0  0  0
 33  4  1  0  0  0  0
 34 33  1  0  0  0  0
M  CHG  1   1  -1
M  END
