2,3,6
q = -2.0, confidence = 0.874

 34 36  0  0  1  0  0  0  0  0999 V2000
    6.9333   -1.8808   -0.0163 O   0  0  0  0  0  0  0  0  0  0  0  0
    1.4351   -1.2477   -0.0715 O   0  0  0  0  0  1  0  0  0  0  0  0
    1.9185    1.6717   -0.0039 N   0  0  0  0  0  2  0  0  0  0  0  0
    1.6061    3.0525    0.0086 C   0  0  0  0  0  0  0  0  0  0  0  0
    0.2017    3.3249    0.0194 C   0  0  2  0  0  3  0  0  0  0  0  0
   -0.7177    2.2157    0.0101 C   0  0  0  0  0  2  0  0  0  0  0  0
   -2.0801    2.5185    0.0181 C   0  0  0  0  0  0  0  0  0  0  0  0
   -2.8370    1.7214    0.0052 H   0  0  0  0  0  0  0  0  0  0  0  0
   -2.5469    3.8631    0.0358 C   0  0  0  0  0  0  0  0  0  0  0  0
   -3.6327    4.0487    0.0414 H   0  0  0  0  0  0  0  0  0  0  0  0
   -1.6621    4.9297    0.0435 C   0  0  0  0  0  0  0  0  0  0  0  0
   -2.0268    5.9685    0.0552 H   0  0  0  0  0  0  0  0  0  0  0  0
   -0.2573    4.6873    0.0340 C   0  0  0  0  0  0  0  0  0  0  0  0
    0.7086    5.7361    0.0356 C   0  0  0  0  0  0  0  0  0  0  0  0
    0.3617    6.7810    0.0460 H   0  0  0  0  0  0  0  0  0  0  0  0
    2.0666    5.4434    0.0209 C   0  0  0  0  0  0  0  0  0  0  0  0
    2.8046    6.2600    0.0194 H   0  0  0  0  0  0  0  0  0  0  0  0
    2.5265    4.1038    0.0055 C   0  0  0  0  0  0  0  0  0  0  0  0
    3.6090    3.9151   -0.0108 H   0  0  0  0  0  0  0  0  0  0  0  0
    3.1582    1.2191    0.0113 C   0  0  0  0  0  0  0  0  0  0  0  0
    3.9685    1.9726    0.0457 H   0  0  0  0  0  0  0  0  0  0  0  0
    3.6102   -0.1338   -0.0135 C   0  0  0  0  0  0  0  0  0  0  0  0
    5.0337   -0.3297    0.0041 C   0  0  0  0  0  0  0  0  0  0  0  0
    5.6697    0.5661    0.0431 H   0  0  0  0  0  0  0  0  0  0  0  0
    5.5938   -1.5995   -0.0298 C   0  0  0  0  0  0  0  0  0  0  0  0
    7.8273   -0.7919    0.0370 C   0  0  0  0  0  0  0  0  0  0  0  0
    7.7198   -0.1196   -0.8458 H   0  0  0  0  0  0  0  0  0  0  0  0
    8.8485   -1.2171    0.0410 H   0  0  0  0  0  0  0  0  0  0  0  0
    7.6870   -0.1812    0.9592 H   0  0  0  0  0  0  0  0  0  0  0  0
    4.7303   -2.7326   -0.0868 C   0  0  0  0  0  0  0  0  0  0  0  0
    5.1938   -3.7304   -0.1181 H   0  0  0  0  0  0  0  0  0  0  0  0
    3.3578   -2.5795   -0.1040 C   0  0  0  0  0  0  0  0  0  0  0  0
    2.6866   -3.4495   -0.1515 H   0  0  0  0  0  0  0  0  0  0  0  0
    2.7297   -1.2863   -0.0622 C   0  0  2  0  0  3  0  0  0  0  0  0
  1 26  1  0  0  0  0
  3  4  1  0  0  0  0
  3 20  1  0  0  0  0
  4  5  1  0  0  0  0
  5  6  1  6  0  0  0
  5 13  1  0  0  0  0
  6  7  1  0  0  0  0
  7  9  2  0  0  0  0
  8  7  1  0  0  0  0
  9 10  1  0  0  0  0
  9 11  1  0  0  0  0
 11 12  1  0  0  0  0
 13 14  1  0  0  0  0
 13 11  2  0  0  0  0
 14 15  1  0  0  0  0
 16 14  2  0  0  0  0
 17 16  1  0  0  0  0
 18  4  2  0  0  0  0
 18 16  1  0  0  0  0
 19 18  1  0  0  0  0
 20 21  1  0  0  0  0
 22 23  1  0  0  0  0
 22 20  2  0  0  0  0
 23 24  1  0  0  0  0
 25  1  1  0  0  0  0
 25 23  2  0  0  0  0
 26 28  1  0  0  0  0
 26 29  1  0  0  0  0
 27 26  1  0  0  0  0
 30 25  1  0  0  0  0
 31 30  1  0  0  0  0
 32 30  2  0  0  0  0
 32 34  1  0  0  0  0
 33 32  1  0  0  0  0
 34  2  1  6  0  0  0
 34 22  1  0  0  0  0
M  END
