1,4,7
q = -1.0, confidence = 0.006

 32 34  0  0  1  0  0  0  0  0999 V2000
    1.7798   -1.0168   -0.0373 O   0  0  0  0  0  1  0  0  0  0  0  0
   -4.2157    2.6063    0.0951 N   0  0  0  0  0  0  0  0  0  0  0  0
   -5.0761    3.1524    0.1173 H   0  0  0  0  0  0  0  0  0  0  0  0
    0.1286    1.0840    0.0195 N   0  0  0  0  0  2  0  0  0  0  0  0
    1.4925    1.2352    0.0240 N   0  0  0  0  0  0  0  0  0  0  0  0
    1.8835    2.1736    0.1524 H   0  0  0  0  0  0  0  0  0  0  0  0
   -2.3854   -0.5155   -0.0190 C   0  0  0  0  0  2  0  0  0  0  0  0
   -3.4290   -1.4641   -0.0527 C   0  0  0  0  0  3  0  0  0  0  0  0
   -3.1687   -2.5304   -0.0900 H   0  0  0  0  0  0  0  0  0  0  0  0
   -4.7898   -1.0788   -0.0382 C   0  0  0  0  0  0  0  0  0  0  0  0
   -5.5595   -1.8658   -0.0662 H   0  0  0  0  0  0  0  0  0  0  0  0
   -5.1901    0.2638    0.0108 C   0  0  0  0  0  0  0  0  0  0  0  0
   -6.2514    0.5527    0.0225 H   0  0  0  0  0  0  0  0  0  0  0  0
   -4.1597    1.2132    0.0442 C   0  0  0  0  0  0  0  0  0  0  0  0
   -2.7809    0.8441    0.0295 C   0  0  0  0  0  0  0  0  0  0  0  0
   -2.0264    2.0817    0.0724 C   0  0  0  0  0  0  0  0  0  0  0  0
   -2.9551    3.1342    0.1123 C   0  0  0  0  0  3  0  0  0  0  0  0
   -2.7899    4.2170    0.1512 H   0  0  0  0  0  0  0  0  0  0  0  0
   -0.6090    2.1738    0.0687 C   0  0  0  0  0  0  0  0  0  0  0  0
   -0.1155    3.1646    0.1048 H   0  0  0  0  0  0  0  0  0  0  0  0
    2.2911    0.1230   -0.0153 C   0  0  1  0  0  3  0  0  0  0  0  0
    3.7617    0.3321   -0.0090 C   0  0  0  0  0  0  0  0  0  0  0  0
    4.3730    1.5554   -0.3615 C   0  0  0  0  0  0  0  0  0  0  0  0
    3.7688    2.4120   -0.7003 H   0  0  0  0  0  0  0  0  0  0  0  0
    5.7679    1.6806   -0.3320 C   0  0  0  0  0  0  0  0  0  0  0  0
    6.2372    2.6343   -0.6160 H   0  0  0  0  0  0  0  0  0  0  0  0
    6.5643    0.5862    0.0432 C   0  0  0  0  0  0  0  0  0  0  0  0
    7.6600    0.6864    0.0650 H   0  0  0  0  0  0  0  0  0  0  0  0
    5.9620   -0.6380    0.3791 C   0  0  0  0  0  0  0  0  0  0  0  0
    6.5848   -1.4987    0.6651 H   0  0  0  0  0  0  0  0  0  0  0  0
    4.5690   -0.7687    0.3492 C   0  0  0  0  0  0  0  0  0  0  0  0
    4.0741   -1.7179    0.6005 H   0  0  0  0  0  0  0  0  0  0  0  0
  2 17  1  0  0  0  0
  2  3  1  0  0  0  0
  4  5  1  0  0  0  0
  4 19  1  0  0  0  0
  5  6  1  0  0  0  0
  7 15  1  0  0  0  0
  8 10  1  0  0  0  0
  8  7  1  0  0  0  0
  9  8  1  0  0  0  0
 10 12  2  0  0  0  0
 11 10  1  0  0  0  0
 12 13  1  0  0  0  0
 12 14  1  0  0  0  0
 14  2  1  0  0  0  0
 15 14  2  0  0  0  0
 15 16  1  0  0  0  0
 16 17  1  0  0  0  0
 17 18  1  0  0  0  0
 19 16  2  0  0  0  0
 19 20  1  0  0  0  0
 21  1  1  1  0  0  0
 21 22  1  0  0  0  0
 21  5  1  0  0  0  0
 22 31  1  0  0  0  0
 23 25  1  0  0  0  0
 23 22  2  0  0  0  0
 24 23  1  0  0  0  0
 25 27  2  0  0  0  0
 26 25  1  0  0  0  0
 27 28  1  0  0  0  0
 27 29  1  0  0  0  0
 29 30  1  0  0  0  0
 31 29  2  0  0  0  0
 31 32  1  0  0  0  0
M  END
