10,22,27
q = 0.0, confidence = 0.932

 27 28  0  0  1  0  0  0  0  0999 V2000
   -1.9895    1.6963    0.1139 C   0  0  0  0  0  0  0  0  0  0  0  0
   -2.7660    2.8122   -0.3445 C   0  0  0  0  0  0  0  0  0  0  0  0
   -3.3985    3.5752    0.6327 C   0  0  0  0  0  0  0  0  0  0  0  0
   -4.0079    4.4336    0.3076 H   0  0  0  0  0  0  0  0  0  0  0  0
   -3.3005    3.3084    2.0361 C   0  0  0  0  0  0  0  0  0  0  0  0
   -3.8322    3.9630    2.7414 H   0  0  0  0  0  0  0  0  0  0  0  0
   -2.5407    2.2580    2.5087 C   0  0  0  0  0  0  0  0  0  0  0  0
   -2.4395    2.0470    3.5821 H   0  0  0  0  0  0  0  0  0  0  0  0
   -1.8650    1.4467    1.5398 C   0  0  0  0  0  0  0  0  0  0  0  0
   -1.0287    0.3684    1.7136 C   0  0  0  0  0  2  0  0  0  0  0  0
    1.5939   -1.7119    1.9536 C   0  0  2  0  0  3  0  0  0  0  0  0
    3.4155   -3.0480    1.7194 C   0  0  0  0  0  0  0  0  0  0  0  0
    4.2642   -3.5687    2.1945 H   0  0  0  0  0  0  0  0  0  0  0  0
    3.1979   -3.1266    0.3302 C   0  0  0  0  0  0  0  0  0  0  0  0
    3.8553   -3.7083   -0.3289 H   0  0  0  0  0  0  0  0  0  0  0  0
    2.1019   -2.4319   -0.1817 C   0  0  0  0  0  0  0  0  0  0  0  0
    1.8554   -2.4407   -1.2520 H   0  0  0  0  0  0  0  0  0  0  0  0
   -2.8597    3.0830   -1.8165 C   0  0  0  0  0  0  0  0  0  0  0  0
   -3.3103    2.2205   -2.3503 H   0  0  0  0  0  0  0  0  0  0  0  0
   -1.8497    3.2262   -2.2533 H   0  0  0  0  0  0  0  0  0  0  0  0
   -3.4675    3.9825   -2.0258 H   0  0  0  0  0  0  0  0  0  0  0  0
    1.2884   -1.7088    0.6187 N   0  0  0  0  0  2  0  0  0  0  0  0
   -0.4585   -0.6945    2.0911 N   0  0  0  0  0  2  0  0  0  0  0  0
    0.7495   -0.9574    2.7278 N   0  0  0  0  0  0  0  0  0  0  0  0
    0.7093   -1.1637    3.7331 H   0  0  0  0  0  0  0  0  0  0  0  0
    2.6077   -2.3575    2.5300 N   0  0  0  0  0  0  0  0  0  0  0  0
   -1.3972    0.8726   -0.6924 O   0  5  0  0  0  0  0  0  0  0  0  0
  1  9  1  0  0  0  0
  2  1  2  0  0  0  0
  2  3  1  0  0  0  0
  3  5  2  0  0  0  0
  4  3  1  0  0  0  0
  5  7  1  0  0  0  0
  5  6  1  0  0  0  0
  7  8  1  0  0  0  0
  9 10  1  0  0  0  0
  9  7  2  0  0  0  0
 10 23  1  0  0  0  0
 11 26  1  0  0  0  0
 11 24  1  6  0  0  0
 12 13  1  0  0  0  0
 12 26  2  0  0  0  0
 14 12  1  0  0  0  0
 15 14  1  0  0  0  0
 16 14  2  0  0  0  0
 16 22  1  0  0  0  0
 17 16  1  0  0  0  0
 18  2  1  0  0  0  0
 19 18  1  0  0  0  0
 20 18  1  0  0  0  0
 21 18  1  0  0  0  0
 22 11  1  0  0  0  0
 23 24  1  0  0  0  0
 24 25  1  0  0  0  0
 27  1  1  0  0  0  0
M  CHG  1  27  -1
M  END
