1,52,53
q = -1.0, confidence = 0.112

 55 58  0  0  1  0  0  0  0  0999 V2000
    0.8411   -0.9617   -0.1410 C   0  0  0  0  0  3  0  0  0  0  0  0
    0.8535   -1.1679    0.9530 H   0  0  0  0  0  0  0  0  0  0  0  0
   -0.5013   -0.4023   -0.6203 C   0  0  1  0  0  0  0  0  0  0  0  0
   -0.5347   -0.4484   -1.7301 H   0  0  0  0  0  0  0  0  0  0  0  0
   -1.7029   -1.0674   -0.0288 C   0  0  0  0  0  0  0  0  0  0  0  0
   -1.7219   -1.1199    1.0735 H   0  0  0  0  0  0  0  0  0  0  0  0
   -2.7157   -1.6055   -0.7515 C   0  0  0  0  0  0  0  0  0  0  0  0
   -2.6335   -1.5774   -1.8524 H   0  0  0  0  0  0  0  0  0  0  0  0
   -3.9297   -2.2397   -0.2257 C   0  0  0  0  0  0  0  0  0  0  0  0
   -4.8201   -2.8720   -1.1259 C   0  0  0  0  0  0  0  0  0  0  0  0
   -4.5748   -2.8793   -2.1997 H   0  0  0  0  0  0  0  0  0  0  0  0
   -5.9938   -3.4888   -0.6729 C   0  0  0  0  0  0  0  0  0  0  0  0
   -6.6680   -3.9770   -1.3931 H   0  0  0  0  0  0  0  0  0  0  0  0
   -6.3084   -3.4842    0.6946 C   0  0  0  0  0  0  0  0  0  0  0  0
   -7.2301   -3.9662    1.0540 H   0  0  0  0  0  0  0  0  0  0  0  0
   -5.4386   -2.8545    1.6031 C   0  0  0  0  0  0  0  0  0  0  0  0
   -5.6811   -2.8415    2.6768 H   0  0  0  0  0  0  0  0  0  0  0  0
   -4.2670   -2.2389    1.1508 C   0  0  0  0  0  0  0  0  0  0  0  0
   -3.6049   -1.7414    1.8758 H   0  0  0  0  0  0  0  0  0  0  0  0
   -1.5765    2.3881   -1.1326 C   0  0  0  0  0  0  0  0  0  0  0  0
   -2.9350    2.0160   -1.2224 C   0  0  0  0  0  0  0  0  0  0  0  0
   -3.2942    1.0897   -0.7506 H   0  0  0  0  0  0  0  0  0  0  0  0
   -3.8265    2.8219   -1.9455 C   0  0  0  0  0  0  0  0  0  0  0  0
   -4.8848    2.5300   -2.0204 H   0  0  0  0  0  0  0  0  0  0  0  0
   -3.3701    3.9911   -2.5753 C   0  0  0  0  0  0  0  0  0  0  0  0
   -4.0742    4.6202   -3.1408 H   0  0  0  0  0  0  0  0  0  0  0  0
   -2.0163    4.3548   -2.4915 C   0  0  0  0  0  0  0  0  0  0  0  0
   -1.6568    5.2664   -2.9921 H   0  0  0  0  0  0  0  0  0  0  0  0
   -1.1145    3.5559   -1.7745 C   0  0  0  0  0  0  0  0  0  0  0  0
   -0.0475    3.8172   -1.7096 H   0  0  0  0  0  0  0  0  0  0  0  0
   -0.6288    1.6151    1.5665 C   0  0  0  0  0  0  0  0  0  0  0  0
   -1.9060    1.4884    2.1517 C   0  0  0  0  0  0  0  0  0  0  0  0
   -2.7924    1.3012    1.5276 H   0  0  0  0  0  0  0  0  0  0  0  0
   -2.0510    1.6171    3.5404 C   0  0  0  0  0  0  0  0  0  0  0  0
   -3.0478    1.5199    3.9965 H   0  0  0  0  0  0  0  0  0  0  0  0
   -0.9285    1.8785    4.3441 C   0  0  0  0  0  0  0  0  0  0  0  0
   -1.0463    1.9803    5.4337 H   0  0  0  0  0  0  0  0  0  0  0  0
    0.3395    2.0205    3.7590 C   0  0  0  0  0  0  0  0  0  0  0  0
    1.2180    2.2370    4.3853 H   0  0  0  0  0  0  0  0  0  0  0  0
    0.4963    1.8925    2.3703 C   0  0  0  0  0  0  0  0  0  0  0  0
    1.4874    2.0078    1.9018 H   0  0  0  0  0  0  0  0  0  0  0  0
    1.3855   -2.1007   -0.9256 C   0  0  0  0  0  0  0  0  0  0  0  0
    2.8131   -2.4165   -0.5278 C   0  0  1  0  0  3  0  0  0  0  0  0
    3.4249   -3.6642   -0.6758 C   0  0  0  0  0  0  0  0  0  0  0  0
    2.8380   -4.4878   -1.1068 H   0  0  0  0  0  0  0  0  0  0  0  0
    4.7629   -3.8062   -0.2810 C   0  0  0  0  0  0  0  0  0  0  0  0
    5.2717   -4.7779   -0.3691 H   0  0  0  0  0  0  0  0  0  0  0  0
    5.4501   -2.6865    0.2169 C   0  0  0  0  0  0  0  0  0  0  0  0
    6.5019   -2.7572    0.5291 H   0  0  0  0  0  0  0  0  0  0  0  0
    4.7959   -1.4510    0.2987 C   0  0  0  0  0  0  0  0  0  0  0  0
    5.2764   -0.5079    0.6089 H   0  0  0  0  0  0  0  0  0  0  0  0
    3.4993   -1.3364   -0.0607 N   0  0  0  0  0  2  0  0  0  0  0  0
    1.0821    1.8942   -0.6151 O   0  0  0  0  0  1  0  0  0  0  0  0
    0.8284   -2.6862   -1.8522 O   0  0  0  0  0  0  0  0  0  0  0  0
   -0.3511    1.4100   -0.2230 P   0  0  0  0  0  4  0  0  0  0  0  0
  1  2  1  0  0  0  0
  3  4  1  6  0  0  0
  3 55  1  0  0  0  0
  3  1  1  0  0  0  0
  3  5  1  0  0  0  0
  5  6  1  0  0  0  0
  7  9  1  0  0  0  0
  7  5  2  0  0  0  0
  8  7  1  0  0  0  0
  9 18  1  0  0  0  0
 10 12  1  0  0  0  0
 10  9  2  0  0  0  0
 11 10  1  0  0  0  0
 12 14  2  0  0  0  0
 13 12  1  0  0  0  0
 14 15  1  0  0  0  0
 14 16  1  0  0  0  0
 16 17  1  0  0  0  0
 18 16  2  0  0  0  0
 18 19  1  0  0  0  0
 20 55  1  0  0  0  0
 21 20  1  0  0  0  0
 21 22  1  0  0  0  0
 23 21  2  0  0  0  0
 24 23  1  0  0  0  0
 25 27  2  0  0  0  0
 25 23  1  0  0  0  0
 26 25  1  0  0  0  0
 27 29  1  0  0  0  0
 28 27  1  0  0  0  0
 29 30  1  0  0  0  0
 29 20  2  0  0  0  0
 31 32  2  0  0  0  0
 31 40  1  0  0  0  0
 32 34  1  0  0  0  0
 33 32  1  0  0  0  0
 34 35  1  0  0  0  0
 34 36  2  0  0  0  0
 36 37  1  0  0  0  0
 38 36  1  0  0  0  0
 38 39  1  0  0  0  0
 40 38  2  0  0  0  0
 41 40  1  0  0  0  0
 42  1  1  0  0  0  0
 43 42  1  6  0  0  0
 43 52  1  0  0  0  0
 44 43  1  0  0  0  0
 44 46  2  0  0  0  0
 45 44  1  0  0  0  0
 46 48  1  0  0  0  0
 47 46  1  0  0  0  0
 48 50  2  0  0  0  0
 48 49  1  0  0  0  0
 50 51  1  0  0  0  0
 52 50  1  0  0  0  0
 53 55  1  0  0  0  0
 54 42  2  0  0  0  0
 55 31  1  0  0  0  0
M  END
