1,2,8
q = -2.0, confidence = 0.662

 44 47  0  0  1  0  0  0  0  0999 V2000
    2.1142    0.7471    0.2698 N   0  0  0  0  0  2  0  0  0  0  0  0
   -0.2084    2.5064    0.7193 O   0  5  0  0  0  0  0  0  0  0  0  0
    2.9527   -0.1825    0.9114 C   0  0  0  0  0  0  0  0  0  0  0  0
    1.7873   -2.1689   -0.2350 C   0  0  2  0  0  0  0  0  0  0  0  0
    1.5835   -3.1925    0.1352 H   0  0  0  0  0  0  0  0  0  0  0  0
    2.6331    1.8903   -0.2518 C   0  0  0  0  0  0  0  0  0  0  0  0
    3.6519   -2.4689    1.4421 C   0  0  0  0  0  0  0  0  0  0  0  0
    0.3884   -1.5090   -0.4601 C   0  0  0  0  0  3  0  0  0  0  0  0
   -0.3963   -2.1386    0.0057 H   0  0  0  0  0  0  0  0  0  0  0  0
    2.7915   -1.5831    0.7332 C   0  0  0  0  0  0  0  0  0  0  0  0
    3.9760    1.9159   -0.7673 C   0  0  0  0  0  0  0  0  0  0  0  0
    4.5606    0.9869   -0.7184 H   0  0  0  0  0  0  0  0  0  0  0  0
    3.9280    0.3017    1.8220 C   0  0  0  0  0  0  0  0  0  0  0  0
    4.0081    1.3874    1.9769 H   0  0  0  0  0  0  0  0  0  0  0  0
    2.3365   -2.3110   -1.7021 C   0  0  1  0  0  0  0  0  0  0  0  0
    3.4405   -2.3804   -1.7452 H   0  0  0  0  0  0  0  0  0  0  0  0
    0.6019    3.3505    0.2597 C   0  0  0  0  0  0  0  0  0  0  0  0
    0.2946    4.4256    0.3372 H   0  0  0  0  0  0  0  0  0  0  0  0
    4.7590   -0.5759    2.5159 C   0  0  0  0  0  0  0  0  0  0  0  0
    5.5075   -0.1834    3.2214 H   0  0  0  0  0  0  0  0  0  0  0  0
    1.8869    3.1368   -0.3421 C   0  0  0  0  0  0  0  0  0  0  0  0
    1.5961   -3.4985   -2.3545 C   0  0  0  0  0  0  0  0  0  0  0  0
    1.6562   -4.4189   -1.7384 H   0  0  0  0  0  0  0  0  0  0  0  0
    2.0406   -3.7351   -3.3429 H   0  0  0  0  0  0  0  0  0  0  0  0
    0.2577   -1.4865   -2.0021 C   0  0  1  0  0  0  0  0  0  0  0  0
   -0.5556   -0.8381   -2.3799 H   0  0  0  0  0  0  0  0  0  0  0  0
    4.6247   -1.9579    2.3216 C   0  0  0  0  0  0  0  0  0  0  0  0
    5.2775   -2.6585    2.8649 H   0  0  0  0  0  0  0  0  0  0  0  0
    4.5158    3.0432   -1.3638 C   0  0  0  0  0  0  0  0  0  0  0  0
    5.5317    2.9889   -1.7862 H   0  0  0  0  0  0  0  0  0  0  0  0
    1.6913   -1.1198   -2.4353 C   0  0  0  0  0  0  0  0  0  0  0  0
    2.0207   -0.1339   -2.0588 H   0  0  0  0  0  0  0  0  0  0  0  0
    1.8422   -1.1633   -3.5341 H   0  0  0  0  0  0  0  0  0  0  0  0
    3.5572   -3.9666    1.2597 C   0  0  0  0  0  0  0  0  0  0  0  0
    2.5632   -4.3623    1.5588 H   0  0  0  0  0  0  0  0  0  0  0  0
    4.3197   -4.4848    1.8723 H   0  0  0  0  0  0  0  0  0  0  0  0
    3.7115   -4.2697    0.2031 H   0  0  0  0  0  0  0  0  0  0  0  0
    0.1422   -2.9547   -2.5032 C   0  0  0  0  0  0  0  0  0  0  0  0
   -0.5975   -3.5312   -1.9115 H   0  0  0  0  0  0  0  0  0  0  0  0
   -0.1966   -2.9786   -3.5595 H   0  0  0  0  0  0  0  0  0  0  0  0
    2.4982    4.2848   -0.9351 C   0  0  0  0  0  3  0  0  0  0  0  0
    1.9079    5.2152   -0.9696 H   0  0  0  0  0  0  0  0  0  0  0  0
    3.7800    4.2556   -1.4547 C   0  0  0  0  0  0  0  0  0  0  0  0
    4.2217    5.1463   -1.9235 H   0  0  0  0  0  0  0  0  0  0  0  0
  1  3  1  0  0  0  0
  3 13  1  0  0  0  0
  4  5  1  1  0  0  0
  4 10  1  0  0  0  0
  6  1  1  0  0  0  0
  7 27  2  0  0  0  0
  8  4  1  0  0  0  0
  8  9  1  0  0  0  0
 10  3  2  0  0  0  0
 10  7  1  0  0  0  0
 11 12  1  0  0  0  0
 11  6  2  0  0  0  0
 13 14  1  0  0  0  0
 13 19  2  0  0  0  0
 15 16  1  6  0  0  0
 15  4  1  0  0  0  0
 17 18  1  0  0  0  0
 17  2  1  0  0  0  0
 19 20  1  0  0  0  0
 21  6  1  0  0  0  0
 21 17  2  0  0  0  0
 22 23  1  0  0  0  0
 22 15  1  0  0  0  0
 24 22  1  0  0  0  0
 25 26  1  6  0  0  0
 25  8  1  0  0  0  0
 27 19  1  0  0  0  0
 27 28  1  0  0  0  0
 29 11  1  0  0  0  0
 30 29  1  0  0  0  0
 31 32  1  0  0  0  0
 31 25  1  0  0  0  0
 31 15  1  0  0  0  0
 33 31  1  0  0  0  0
 34  7  1  0  0  0  0
 34 35  1  0  0  0  0
 34 36  1  0  0  0  0
 37 34  1  0  0  0  0
 38 22  1  0  0  0  0
 38 25  1  0  0  0  0
 38 39  1  0  0  0  0
 40 38  1  0  0  0  0
 41 21  1  0  0  0  0
 42 41  1  0  0  0  0
 43 29  2  0  0  0  0
 43 41  1  0  0  0  0
 44 43  1  0  0  0  0
M  CHG  1   2  -1
M  END
