1,5,7
q = -2.0, confidence = 0.872

 39 40  0  0  0  0  0  0  0  0999 V2000
   -2.1177    0.1788   -0.0247 O   0  5  0  0  0  0  0  0  0  0  0  0
    5.3831    1.4705   -0.0682 O   0  0  0  0  0  0  0  0  0  0  0  0
    2.2212    5.1824    0.0417 O   0  0  0  0  0  0  0  0  0  0  0  0
   -8.3948    1.3482   -0.0266 O   0  0  0  0  0  0  0  0  0  0  0  0
   -0.7773    2.3701    0.0044 N   0  0  0  0  0  2  0  0  0  0  0  0
   -2.1136    2.5218    0.0113 N   0  0  0  0  0  0  0  0  0  0  0  0
    1.7433    1.5237   -0.0253 C   0  0  0  0  0  2  0  0  0  0  0  0
    3.0651    1.0865   -0.0523 C   0  0  0  0  0  0  0  0  0  0  0  0
    3.3400    0.0240   -0.0933 H   0  0  0  0  0  0  0  0  0  0  0  0
    4.1355    2.0181   -0.0432 C   0  0  0  0  0  0  0  0  0  0  0  0
    3.8942    3.4034   -0.0104 C   0  0  0  0  0  0  0  0  0  0  0  0
    4.7238    4.1175   -0.0052 H   0  0  0  0  0  0  0  0  0  0  0  0
    2.5585    3.8604    0.0129 C   0  0  0  0  0  0  0  0  0  0  0  0
    1.4798    2.9421    0.0067 C   0  0  0  0  0  0  0  0  0  0  0  0
    0.0951    3.3543    0.0231 C   0  0  0  0  0  0  0  0  0  0  0  0
   -0.2444    4.4024    0.0465 H   0  0  0  0  0  0  0  0  0  0  0  0
   -2.7253    1.3290   -0.0069 C   0  0  0  0  0  0  0  0  0  0  0  0
   -4.2074    1.3268   -0.0134 C   0  0  0  0  0  0  0  0  0  0  0  0
   -4.9530    2.5271    0.0700 C   0  0  0  0  0  0  0  0  0  0  0  0
   -4.4060    3.4778    0.1400 H   0  0  0  0  0  0  0  0  0  0  0  0
   -6.3452    2.5014    0.0645 C   0  0  0  0  0  0  0  0  0  0  0  0
   -6.9381    3.4252    0.1306 H   0  0  0  0  0  0  0  0  0  0  0  0
   -7.0354    1.2704   -0.0282 C   0  0  0  0  0  0  0  0  0  0  0  0
   -6.3040    0.0669   -0.1160 C   0  0  0  0  0  0  0  0  0  0  0  0
   -6.8162   -0.9015   -0.1941 H   0  0  0  0  0  0  0  0  0  0  0  0
   -4.9032    0.1061   -0.1074 C   0  0  0  0  0  0  0  0  0  0  0  0
   -4.3178   -0.8218   -0.1823 H   0  0  0  0  0  0  0  0  0  0  0  0
    6.5016    2.3331   -0.0675 C   0  0  0  0  0  0  0  0  0  0  0  0
    6.5131    3.0001   -0.9594 H   0  0  0  0  0  0  0  0  0  0  0  0
    7.3985    1.6865   -0.0924 H   0  0  0  0  0  0  0  0  0  0  0  0
    6.5390    2.9662    0.8481 H   0  0  0  0  0  0  0  0  0  0  0  0
    3.2506    6.1501    0.0469 C   0  0  0  0  0  0  0  0  0  0  0  0
    3.9060    6.0565    0.9423 H   0  0  0  0  0  0  0  0  0  0  0  0
    2.7526    7.1372    0.0705 H   0  0  0  0  0  0  0  0  0  0  0  0
    3.8848    6.0887   -0.8663 H   0  0  0  0  0  0  0  0  0  0  0  0
   -9.1372    0.1486   -0.1187 C   0  0  0  0  0  0  0  0  0  0  0  0
   -8.9280   -0.3989   -1.0654 H   0  0  0  0  0  0  0  0  0  0  0  0
  -10.2047    0.4374   -0.0999 H   0  0  0  0  0  0  0  0  0  0  0  0
   -8.9329   -0.5342    0.7369 H   0  0  0  0  0  0  0  0  0  0  0  0
  1 17  1  0  0  0  0
  2 28  1  0  0  0  0
  2 10  1  0  0  0  0
  3 32  1  0  0  0  0
  5  6  1  0  0  0  0
  5 15  1  0  0  0  0
  7 14  1  0  0  0  0
  8 10  2  0  0  0  0
  8  7  1  0  0  0  0
  9  8  1  0  0  0  0
 10 11  1  0  0  0  0
 11 12  1  0  0  0  0
 11 13  2  0  0  0  0
 13  3  1  0  0  0  0
 14 13  1  0  0  0  0
 14 15  2  0  0  0  0
 15 16  1  0  0  0  0
 17  6  2  0  0  0  0
 18 17  1  0  0  0  0
 18 19  1  0  0  0  0
 19 20  1  0  0  0  0
 21 19  2  0  0  0  0
 21 22  1  0  0  0  0
 23  4  1  0  0  0  0
 23 21  1  0  0  0  0
 24 26  1  0  0  0  0
 24 23  2  0  0  0  0
 25 24  1  0  0  0  0
 26 18  2  0  0  0  0
 27 26  1  0  0  0  0
 28 31  1  0  0  0  0
 29 28  1  0  0  0  0
 30 28  1  0  0  0  0
 32 34  1  0  0  0  0
 32 33  1  0  0  0  0
 35 32  1  0  0  0  0
 36 38  1  0  0  0  0
 36  4  1  0  0  0  0
 36 39  1  0  0  0  0
 37 36  1  0  0  0  0
M  CHG  1   1  -1
M  END
