1,2,24
q = -2.0, confidence = 0.838

 24 25  0  0  0  0  0  0  0  0999 V2000
    2.9621   -0.7378   -0.0291 N   0  0  0  0  0  2  0  0  0  0  0  0
    1.8893    1.7259   -0.0224 O   0  5  0  0  0  0  0  0  0  0  0  0
    3.1952    1.6237   -0.0373 C   0  0  0  0  0  0  0  0  0  0  0  0
    4.0367    2.7767   -0.0492 C   0  0  0  0  0  0  0  0  0  0  0  0
    3.5507    3.7635   -0.0459 H   0  0  0  0  0  0  0  0  0  0  0  0
    5.4244    2.6482   -0.0676 C   0  0  0  0  0  0  0  0  0  0  0  0
    6.0486    3.5557   -0.0772 H   0  0  0  0  0  0  0  0  0  0  0  0
    6.0485    1.3769   -0.0751 C   0  0  0  0  0  0  0  0  0  0  0  0
    7.1451    1.2967   -0.0897 H   0  0  0  0  0  0  0  0  0  0  0  0
    5.2597    0.2262   -0.0635 C   0  0  0  0  0  0  0  0  0  0  0  0
    5.7327   -0.7680   -0.0685 H   0  0  0  0  0  0  0  0  0  0  0  0
    3.8517    0.3359   -0.0446 C   0  0  0  0  0  0  0  0  0  0  0  0
    3.1756   -2.0301   -0.0283 C   0  0  0  0  0  0  0  0  0  0  0  0
    4.1987   -2.4508   -0.0431 H   0  0  0  0  0  0  0  0  0  0  0  0
    1.9985   -2.8777    0.0002 C   0  0  0  0  0  0  0  0  0  0  0  0
    2.0810   -4.2855    0.0200 C   0  0  0  0  0  3  0  0  0  0  0  0
    3.0697   -4.7714    0.0011 H   0  0  0  0  0  0  0  0  0  0  0  0
    0.9121   -5.0602    0.0671 C   0  0  0  0  0  0  0  0  0  0  0  0
    0.9748   -6.1585    0.0827 H   0  0  0  0  0  0  0  0  0  0  0  0
   -0.3332   -4.4189    0.0967 C   0  0  0  0  0  0  0  0  0  0  0  0
   -1.2584   -5.0153    0.1373 H   0  0  0  0  0  0  0  0  0  0  0  0
   -0.4232   -3.0086    0.0714 C   0  0  0  0  0  0  0  0  0  0  0  0
   -1.4254   -2.5576    0.0864 H   0  0  0  0  0  0  0  0  0  0  0  0
    0.7218   -2.2026    0.0181 C   0  0  0  0  0  3  0  0  0  0  0  0
  1 13  1  0  0  0  0
  3  2  1  0  0  0  0
  4  5  1  0  0  0  0
  4  3  2  0  0  0  0
  6  4  1  0  0  0  0
  7  6  1  0  0  0  0
  8  6  2  0  0  0  0
  8 10  1  0  0  0  0
  9  8  1  0  0  0  0
 10 12  2  0  0  0  0
 11 10  1  0  0  0  0
 12  3  1  0  0  0  0
 12  1  1  0  0  0  0
 13 15  2  0  0  0  0
 14 13  1  0  0  0  0
 15 24  1  0  0  0  0
 15 16  1  0  0  0  0
 16 18  1  0  0  0  0
 17 16  1  0  0  0  0
 18 19  1  0  0  0  0
 18 20  2  0  0  0  0
 20 21  1  0  0  0  0
 22 23  1  0  0  0  0
 22 20  1  0  0  0  0
 24 22  2  0  0  0  0
M  CHG  1   2  -1
M  END
