17,54,55
q = -1.0, confidence = 0.112

 57 61  0  0  1  0  0  0  0  0999 V2000
   -4.0101   -0.6708    0.0118 C   0  0  0  0  0  0  0  0  0  0  0  0
   -4.2907   -1.1370    1.3244 C   0  0  0  0  0  0  0  0  0  0  0  0
   -3.4543   -1.2327    2.0327 H   0  0  0  0  0  0  0  0  0  0  0  0
   -5.6014   -1.4059    1.6927 C   0  0  0  0  0  0  0  0  0  0  0  0
   -5.8107   -1.7672    2.7107 H   0  0  0  0  0  0  0  0  0  0  0  0
   -6.6731   -1.2162    0.7806 C   0  0  0  0  0  0  0  0  0  0  0  0
   -7.7044   -1.4344    1.0963 H   0  0  0  0  0  0  0  0  0  0  0  0
   -6.4229   -0.7571   -0.5036 C   0  0  0  0  0  3  0  0  0  0  0  0
   -7.2448   -0.6067   -1.2202 H   0  0  0  0  0  0  0  0  0  0  0  0
   -5.0924   -0.4735   -0.9247 C   0  0  0  0  0  0  0  0  0  0  0  0
   -4.7903    0.0020   -2.2324 C   0  0  0  0  0  0  0  0  0  0  0  0
   -5.6143    0.1835   -2.9398 H   0  0  0  0  0  0  0  0  0  0  0  0
   -3.4736    0.2207   -2.5971 C   0  0  0  0  0  0  0  0  0  0  0  0
   -3.1742    0.5893   -3.5880 H   0  0  0  0  0  0  0  0  0  0  0  0
   -2.4564   -0.0370   -1.6514 C   0  0  0  0  0  0  0  0  0  0  0  0
   -0.9898    0.1117   -1.9677 C   0  0  0  0  0  0  0  0  0  0  0  0
   -0.1540   -0.7805   -1.1238 C   0  0  0  0  0  3  0  0  0  0  0  0
   -0.4552   -1.8453   -1.2089 H   0  0  0  0  0  0  0  0  0  0  0  0
    1.3554   -0.5666   -1.2229 C   0  0  2  0  0  0  0  0  0  0  0  0
    1.5914    0.0061   -2.1457 H   0  0  0  0  0  0  0  0  0  0  0  0
    2.2158   -1.8022   -1.1134 C   0  0  0  0  0  0  0  0  0  0  0  0
    3.3861   -1.9223   -1.8889 C   0  0  0  0  0  0  0  0  0  0  0  0
    3.6340   -1.1335   -2.6166 H   0  0  0  0  0  0  0  0  0  0  0  0
    4.2367   -3.0263   -1.7362 C   0  0  0  0  0  0  0  0  0  0  0  0
    5.1458   -3.1049   -2.3516 H   0  0  0  0  0  0  0  0  0  0  0  0
    3.9291   -4.0277   -0.8014 C   0  0  0  0  0  0  0  0  0  0  0  0
    4.5959   -4.8949   -0.6804 H   0  0  0  0  0  0  0  0  0  0  0  0
    2.7660   -3.9170   -0.0231 C   0  0  0  0  0  0  0  0  0  0  0  0
    2.5192   -4.6957    0.7146 H   0  0  0  0  0  0  0  0  0  0  0  0
    1.9152   -2.8120   -0.1742 C   0  0  0  0  0  0  0  0  0  0  0  0
    1.0208   -2.7136    0.4596 H   0  0  0  0  0  0  0  0  0  0  0  0
    3.4836    0.5218    0.6191 C   0  0  0  0  0  0  0  0  0  0  0  0
    4.3636    1.4447    0.0202 C   0  0  0  0  0  0  0  0  0  0  0  0
    3.9725    2.2506   -0.6189 H   0  0  0  0  0  0  0  0  0  0  0  0
    5.7424    1.3432    0.2553 C   0  0  0  0  0  0  0  0  0  0  0  0
    6.4304    2.0654   -0.2093 H   0  0  0  0  0  0  0  0  0  0  0  0
    6.2416    0.3282    1.0876 C   0  0  0  0  0  0  0  0  0  0  0  0
    7.3245    0.2511    1.2693 H   0  0  0  0  0  0  0  0  0  0  0  0
    5.3622   -0.5828    1.6952 C   0  0  0  0  0  0  0  0  0  0  0  0
    5.7527   -1.3728    2.3541 H   0  0  0  0  0  0  0  0  0  0  0  0
    3.9832   -0.4906    1.4648 C   0  0  0  0  0  0  0  0  0  0  0  0
    3.2827   -1.1952    1.9356 H   0  0  0  0  0  0  0  0  0  0  0  0
    1.1384    2.2002   -0.0735 C   0  0  0  0  0  0  0  0  0  0  0  0
    0.3804    2.8425    0.9291 C   0  0  0  0  0  0  0  0  0  0  0  0
    0.1173    2.3026    1.8533 H   0  0  0  0  0  0  0  0  0  0  0  0
   -0.0789    4.1489    0.7101 C   0  0  0  0  0  0  0  0  0  0  0  0
   -0.6815    4.6460    1.4849 H   0  0  0  0  0  0  0  0  0  0  0  0
    0.2120    4.8101   -0.4942 C   0  0  0  0  0  0  0  0  0  0  0  0
   -0.1566    5.8337   -0.6620 H   0  0  0  0  0  0  0  0  0  0  0  0
    0.9560    4.1634   -1.4942 C   0  0  0  0  0  0  0  0  0  0  0  0
    1.1638    4.6725   -2.4471 H   0  0  0  0  0  0  0  0  0  0  0  0
    1.4166    2.8551   -1.2904 C   0  0  0  0  0  0  0  0  0  0  0  0
    1.9636    2.3407   -2.0941 H   0  0  0  0  0  0  0  0  0  0  0  0
   -2.7133   -0.4224   -0.3846 N   0  0  0  0  0  2  0  0  0  0  0  0
    0.9425   -0.1380    1.4697 O   0  0  0  0  0  1  0  0  0  0  0  0
   -0.5804    0.9240   -2.8005 O   0  0  0  0  0  0  0  0  0  0  0  0
    1.7062    0.5112    0.2639 P   0  0  0  0  0  4  0  0  0  0  0  0
  1  2  2  0  0  0  0
  2  4  1  0  0  0  0
  2  3  1  0  0  0  0
  4  5  1  0  0  0  0
  6  7  1  0  0  0  0
  6  4  2  0  0  0  0
  8  6  1  0  0  0  0
  9  8  1  0  0  0  0
 10  8  1  0  0  0  0
 10  1  1  0  0  0  0
 11 10  2  0  0  0  0
 12 11  1  0  0  0  0
 13 11  1  0  0  0  0
 13 15  2  0  0  0  0
 14 13  1  0  0  0  0
 15 54  1  0  0  0  0
 16 15  1  0  0  0  0
 16 17  1  0  0  0  0
 18 17  1  0  0  0  0
 19 20  1  6  0  0  0
 19 17  1  0  0  0  0
 19 21  1  0  0  0  0
 19 57  1  0  0  0  0
 21 30  1  0  0  0  0
 22 24  1  0  0  0  0
 22 21  2  0  0  0  0
 23 22  1  0  0  0  0
 24 26  2  0  0  0  0
 25 24  1  0  0  0  0
 26 27  1  0  0  0  0
 26 28  1  0  0  0  0
 28 29  1  0  0  0  0
 30 28  2  0  0  0  0
 30 31  1  0  0  0  0
 32 41  1  0  0  0  0
 33 35  1  0  0  0  0
 33 32  2  0  0  0  0
 34 33  1  0  0  0  0
 35 37  2  0  0  0  0
 36 35  1  0  0  0  0
 37 38  1  0  0  0  0
 37 39  1  0  0  0  0
 39 40  1  0  0  0  0
 41 39  2  0  0  0  0
 41 42  1  0  0  0  0
 43 57  1  0  0  0  0
 43 44  1  0  0  0  0
 44 45  1  0  0  0  0
 46 44  2  0  0  0  0
 46 47  1  0  0  0  0
 48 46  1  0  0  0  0
 49 48  1  0  0  0  0
 50 52  1  0  0  0  0
 50 48  2  0  0  0  0
 51 50  1  0  0  0  0
 52 43  2  0  0  0  0
 53 52  1  0  0  0  0
 54  1  1  0  0  0  0
 56 16  2  0  0  0  0
 57 32  1  0  0  0  0
 57 55  1  0  0  0  0
M  END
