3,4,10
q = 0.0, confidence = 0.548

 35 38  0  0  0  0  0  0  0  0999 V2000
    1.2753    1.6119    0.0942 N   0  0  0  0  0  0  0  0  0  0  0  0
   -0.0499    2.0209    0.0611 C   0  0  0  0  0  0  0  0  0  0  0  0
   -1.1059    1.0116   -0.0285 C   0  0  0  0  0  2  0  0  0  0  0  0
    1.3787    0.3277    0.0242 N   0  0  0  0  0  2  0  0  0  0  0  0
    2.3622   -1.8146   -0.0599 C   0  0  0  0  0  0  0  0  0  0  0  0
    2.5705   -0.3800    0.0063 C   0  0  0  0  0  0  0  0  0  0  0  0
   -1.7029    3.8277   -0.0007 C   0  0  0  0  0  0  0  0  0  0  0  0
   -4.0966    3.2950   -0.2357 C   0  0  0  0  0  0  0  0  0  0  0  0
   -4.8978    2.5457   -0.3380 H   0  0  0  0  0  0  0  0  0  0  0  0
    1.1795   -2.3455   -0.0862 O   0  5  0  0  0  0  0  0  0  0  0  0
   -2.4096    1.4496   -0.1446 C   0  0  0  0  0  0  0  0  0  0  0  0
   -3.2380    0.7316   -0.2612 H   0  0  0  0  0  0  0  0  0  0  0  0
   -0.3534    3.3810    0.0858 C   0  0  0  0  0  0  0  0  0  0  0  0
    0.4654    4.1121    0.1604 H   0  0  0  0  0  0  0  0  0  0  0  0
    5.0221   -0.7206    0.0023 C   0  0  0  0  0  0  0  0  0  0  0  0
    4.7891   -2.1362   -0.0651 C   0  0  0  0  0  0  0  0  0  0  0  0
    5.6660   -2.8029   -0.0918 H   0  0  0  0  0  0  0  0  0  0  0  0
    6.3451   -0.2114    0.0321 C   0  0  0  0  0  0  0  0  0  0  0  0
    7.1817   -0.9274    0.0022 H   0  0  0  0  0  0  0  0  0  0  0  0
    3.9029    0.1894    0.0398 C   0  0  0  0  0  0  0  0  0  0  0  0
   -2.7533    2.8462   -0.1297 C   0  0  0  0  0  0  0  0  0  0  0  0
    6.5900    1.1576    0.0972 C   0  0  0  0  0  0  0  0  0  0  0  0
    7.6221    1.5384    0.1198 H   0  0  0  0  0  0  0  0  0  0  0  0
   -4.4046    4.6525   -0.2111 C   0  0  0  0  0  0  0  0  0  0  0  0
   -5.4521    4.9804   -0.2940 H   0  0  0  0  0  0  0  0  0  0  0  0
    4.1830    1.5829    0.1064 C   0  0  0  0  0  0  0  0  0  0  0  0
    3.3394    2.2811    0.1364 H   0  0  0  0  0  0  0  0  0  0  0  0
   -3.3734    5.6166   -0.0804 C   0  0  0  0  0  0  0  0  0  0  0  0
   -3.6244    6.6880   -0.0618 H   0  0  0  0  0  0  0  0  0  0  0  0
    3.5227   -2.6668   -0.0946 C   0  0  0  0  0  0  0  0  0  0  0  0
    3.3434   -3.7504   -0.1442 H   0  0  0  0  0  0  0  0  0  0  0  0
   -2.0483    5.2093    0.0218 C   0  0  0  0  0  0  0  0  0  0  0  0
   -1.2420    5.9530    0.1204 H   0  0  0  0  0  0  0  0  0  0  0  0
    5.4974    2.0502    0.1337 C   0  0  0  0  0  0  0  0  0  0  0  0
    5.6793    3.1348    0.1852 H   0  0  0  0  0  0  0  0  0  0  0  0
  2 13  1  0  0  0  0
  2  1  2  0  0  0  0
  3  2  1  0  0  0  0
  4  1  1  0  0  0  0
  5  6  1  0  0  0  0
  6  4  1  0  0  0  0
  6 20  2  0  0  0  0
  7 32  1  0  0  0  0
  7 13  2  0  0  0  0
  8 24  2  0  0  0  0
  8 21  1  0  0  0  0
  9  8  1  0  0  0  0
 10  5  1  0  0  0  0
 11 21  2  0  0  0  0
 11  3  1  0  0  0  0
 12 11  1  0  0  0  0
 13 14  1  0  0  0  0
 15 18  1  0  0  0  0
 15 20  1  0  0  0  0
 16 15  2  0  0  0  0
 17 16  1  0  0  0  0
 18 22  2  0  0  0  0
 19 18  1  0  0  0  0
 20 26  1  0  0  0  0
 21  7  1  0  0  0  0
 22 23  1  0  0  0  0
 22 34  1  0  0  0  0
 24 28  1  0  0  0  0
 25 24  1  0  0  0  0
 26 34  2  0  0  0  0
 26 27  1  0  0  0  0
 28 29  1  0  0  0  0
 28 32  2  0  0  0  0
 30 16  1  0  0  0  0
 30  5  2  0  0  0  0
 31 30  1  0  0  0  0
 32 33  1  0  0  0  0
 34 35  1  0  0  0  0
M  CHG  1  10  -1
M  END
