2,4,14
 OpenBabel05122313063D

 23 24  0  0  1  0  0  0  0  0999 V2000
   -2.5336    0.0787   -1.2632 C   0  0  0  0  0  0  0  0  0  0  0  0
   -1.1091    0.0656   -1.6824 O   0  5  0  0  0  0  0  0  0  0  0  0
   -3.3369    0.1477   -2.2568 O   0  5  0  0  0  0  0  0  0  0  0  0
   -1.4849   -1.3575    0.4993 C   0  0  0  0  0  3  0  0  0  0  0  0
   -2.6087   -1.1454   -0.2889 C   0  0  0  0  0  0  0  0  0  0  0  0
   -3.6949   -2.0217   -0.1996 C   0  0  0  0  0  0  0  0  0  0  0  0
   -4.5617   -1.8451   -0.8585 H   0  0  0  0  0  0  0  0  0  0  0  0
   -3.6234   -3.1023    0.6987 C   0  0  0  0  0  0  0  0  0  0  0  0
   -4.4651   -3.8081    0.7802 H   0  0  0  0  0  0  0  0  0  0  0  0
   -2.4795   -3.2942    1.4953 C   0  0  0  0  0  0  0  0  0  0  0  0
   -2.4373   -4.1387    2.2017 H   0  0  0  0  0  0  0  0  0  0  0  0
   -1.3756   -2.4177    1.3994 C   0  0  0  0  0  0  0  0  0  0  0  0
   -0.4759   -2.5644    2.0164 H   0  0  0  0  0  0  0  0  0  0  0  0
   -1.4584    1.4356    0.4897 N   0  0  0  0  0  2  0  0  0  0  0  0
   -2.5401    1.3218   -0.2919 C   0  0  1  0  0  3  0  0  0  0  0  0
   -3.5498    2.2878   -0.2565 C   0  0  0  0  0  0  0  0  0  0  0  0
   -4.3913    2.1539   -0.9542 H   0  0  0  0  0  0  0  0  0  0  0  0
   -3.4182    3.3578    0.6365 C   0  0  0  0  0  0  0  0  0  0  0  0
   -4.1963    4.1349    0.6982 H   0  0  0  0  0  0  0  0  0  0  0  0
   -2.2789    3.4392    1.4628 C   0  0  0  0  0  0  0  0  0  0  0  0
   -2.1472    4.2633    2.1780 H   0  0  0  0  0  0  0  0  0  0  0  0
   -1.2942    2.4513    1.3583 C   0  0  0  0  0  0  0  0  0  0  0  0
   -0.3697    2.4456    1.9565 H   0  0  0  0  0  0  0  0  0  0  0  0
  1  5  1  0  0  0  0
  2  1  1  0  0  0  0
  3  1  1  0  0  0  0
  4 12  1  0  0  0  0
  5  6  1  0  0  0  0
  5  4  2  0  0  0  0
  6  8  2  0  0  0  0
  7  6  1  0  0  0  0
  8  9  1  0  0  0  0
  8 10  1  0  0  0  0
 10 11  1  0  0  0  0
 12 10  2  0  0  0  0
 12 13  1  0  0  0  0
 14 22  1  0  0  0  0
 15  1  1  6  0  0  0
 15 16  1  0  0  0  0
 15 14  1  0  0  0  0
 16 18  2  0  0  0  0
 17 16  1  0  0  0  0
 18 19  1  0  0  0  0
 18 20  1  0  0  0  0
 20 21  1  0  0  0  0
 22 20  2  0  0  0  0
 22 23  1  0  0  0  0
M  CHG  2   2  -1   3  -1
M  END
