1,3,43
 OpenBabel05122313063D

 43 46  0  0  1  0  0  0  0  0999 V2000
   -1.2526    0.6708   -0.3739 N   0  0  0  0  0  2  0  0  0  0  0  0
    0.2730    2.2656    0.1007 N   0  0  0  0  0  0  0  0  0  0  0  0
    1.1086    1.1852    0.4272 C   0  0  0  0  0  2  0  0  0  0  0  0
    2.2779    1.7608    0.7813 N   0  0  0  0  0  0  0  0  0  0  0  0
   -1.0413    1.9879   -0.2889 C   0  0  2  0  0  3  0  0  0  0  0  0
   -2.5564   -1.2181   -0.5155 N   0  0  0  0  0  0  0  0  0  0  0  0
   -3.6029    0.9916   -0.8606 C   0  0  0  0  0  0  0  0  0  0  0  0
    3.5032    1.0171    1.1035 C   0  0  0  0  0  0  0  0  0  0  0  0
    3.2651    0.2860    1.8993 H   0  0  0  0  0  0  0  0  0  0  0  0
    4.2092    1.7510    1.5426 H   0  0  0  0  0  0  0  0  0  0  0  0
   -2.0872    2.9076   -0.5393 C   0  0  0  0  0  0  0  0  0  0  0  0
   -1.9152    3.9903   -0.4832 H   0  0  0  0  0  0  0  0  0  0  0  0
   -2.4781    0.1659   -0.6006 C   0  0  1  0  0  3  0  0  0  0  0  0
    2.1988    3.1546    0.6924 C   0  0  0  0  0  0  0  0  0  0  0  0
    3.0491    3.7957    0.9439 H   0  0  0  0  0  0  0  0  0  0  0  0
    0.9408    3.4786    0.2698 C   0  0  0  0  0  0  0  0  0  0  0  0
    0.4774    4.4512    0.0848 H   0  0  0  0  0  0  0  0  0  0  0  0
   -4.8711    0.3606   -1.0868 C   0  0  0  0  0  0  0  0  0  0  0  0
   -3.3476    2.3981   -0.8365 C   0  0  0  0  0  0  0  0  0  0  0  0
   -4.1749    3.0950   -1.0314 H   0  0  0  0  0  0  0  0  0  0  0  0
   -4.8932   -1.0324   -1.0044 C   0  0  0  0  0  0  0  0  0  0  0  0
   -5.8411   -1.5677   -1.1589 H   0  0  0  0  0  0  0  0  0  0  0  0
   -3.7625   -1.8317   -0.7096 C   0  0  0  0  0  0  0  0  0  0  0  0
    4.1022    0.3316   -0.1099 C   0  0  0  0  0  0  0  0  0  0  0  0
    4.7240   -0.9227    0.0351 C   0  0  0  0  0  0  0  0  0  0  0  0
    4.7482   -1.4125    1.0204 H   0  0  0  0  0  0  0  0  0  0  0  0
    4.0730    0.9428   -1.3786 C   0  0  0  0  0  0  0  0  0  0  0  0
    3.5920    1.9250   -1.5117 H   0  0  0  0  0  0  0  0  0  0  0  0
   -6.1043    1.1627   -1.3747 C   0  0  0  0  0  0  0  0  0  0  0  0
   -5.9763    1.7912   -2.2805 H   0  0  0  0  0  0  0  0  0  0  0  0
   -6.3434    1.8482   -0.5347 H   0  0  0  0  0  0  0  0  0  0  0  0
   -6.9804    0.5088   -1.5361 H   0  0  0  0  0  0  0  0  0  0  0  0
   -3.7744   -3.3107   -0.5723 C   0  0  0  0  0  0  0  0  0  0  0  0
   -3.0581   -3.7709   -1.2846 H   0  0  0  0  0  0  0  0  0  0  0  0
   -4.7863   -3.7169   -0.7419 H   0  0  0  0  0  0  0  0  0  0  0  0
   -3.4156   -3.5985    0.4386 H   0  0  0  0  0  0  0  0  0  0  0  0
    5.3037   -1.5581   -1.0734 C   0  0  0  0  0  0  0  0  0  0  0  0
    5.7831   -2.5403   -0.9483 H   0  0  0  0  0  0  0  0  0  0  0  0
    5.2633   -0.9486   -2.3366 C   0  0  0  0  0  0  0  0  0  0  0  0
    5.7112   -1.4509   -3.2067 H   0  0  0  0  0  0  0  0  0  0  0  0
    4.6477    0.3041   -2.4865 C   0  0  0  0  0  0  0  0  0  0  0  0
    4.6142    0.7878   -3.4740 H   0  0  0  0  0  0  0  0  0  0  0  0
   -1.4905   -1.9293   -0.2326 O   0  0  0  0  0  1  0  0  0  0  0  0
  1  5  1  0  0  0  0
  2 16  1  0  0  0  0
  2  3  1  0  0  0  0
  3  4  1  0  0  0  0
  4  8  1  0  0  0  0
  5  2  1  1  0  0  0
  6 43  1  0  0  0  0
  7 19  1  0  0  0  0
  8 10  1  0  0  0  0
  8  9  1  0  0  0  0
 11 12  1  0  0  0  0
 11  5  1  0  0  0  0
 13  7  1  1  0  0  0
 13  6  1  0  0  0  0
 13  1  1  0  0  0  0
 14  4  1  0  0  0  0
 14 15  1  0  0  0  0
 16 14  2  0  0  0  0
 17 16  1  0  0  0  0
 18 21  1  0  0  0  0
 18  7  2  0  0  0  0
 19 11  2  0  0  0  0
 20 19  1  0  0  0  0
 21 23  2  0  0  0  0
 22 21  1  0  0  0  0
 23 33  1  0  0  0  0
 23  6  1  0  0  0  0
 24 25  1  0  0  0  0
 24  8  1  0  0  0  0
 25 26  1  0  0  0  0
 27 24  2  0  0  0  0
 28 27  1  0  0  0  0
 29 18  1  0  0  0  0
 29 31  1  0  0  0  0
 30 29  1  0  0  0  0
 32 29  1  0  0  0  0
 33 36  1  0  0  0  0
 34 33  1  0  0  0  0
 35 33  1  0  0  0  0
 37 38  1  0  0  0  0
 37 25  2  0  0  0  0
 39 37  1  0  0  0  0
 40 39  1  0  0  0  0
 41 39  2  0  0  0  0
 41 27  1  0  0  0  0
 42 41  1  0  0  0  0
M  END
