1,3,4
 OpenBabel05122313063D

 43 44  0  0  1  0  0  0  0  0999 V2000
    0.7626    2.6756   -0.4286 O   0  5  0  0  0  0  0  0  0  0  0  0
    0.6085   -2.3249    0.5008 N   0  0  0  0  0  2  0  0  0  0  0  0
    3.0511    0.7223   -0.1102 N   0  0  0  0  0  2  0  0  0  0  0  0
    1.3816   -1.3794    0.1186 C   0  0  0  0  0  2  0  0  0  0  0  0
   -0.7395   -2.2404    0.8202 C   0  0  0  0  0  0  0  0  0  0  0  0
   -1.1591   -1.6290    2.0364 C   0  0  0  0  0  0  0  0  0  0  0  0
   -2.5352   -1.5985    2.3266 C   0  0  0  0  0  0  0  0  0  0  0  0
   -2.8673   -1.1321    3.2681 H   0  0  0  0  0  0  0  0  0  0  0  0
   -3.4797   -2.1484    1.4483 C   0  0  0  0  0  0  0  0  0  0  0  0
   -4.5525   -2.0984    1.6867 H   0  0  0  0  0  0  0  0  0  0  0  0
   -3.0481   -2.7696    0.2667 C   0  0  0  0  0  0  0  0  0  0  0  0
   -3.7848   -3.2157   -0.4204 H   0  0  0  0  0  0  0  0  0  0  0  0
   -1.6840   -2.8371   -0.0614 C   0  0  0  0  0  0  0  0  0  0  0  0
   -0.1444   -1.0303    2.9728 C   0  0  0  0  0  0  0  0  0  0  0  0
   -0.6062   -0.7494    3.9388 H   0  0  0  0  0  0  0  0  0  0  0  0
    0.3206   -0.1211    2.5323 H   0  0  0  0  0  0  0  0  0  0  0  0
    0.6887   -1.7369    3.1667 H   0  0  0  0  0  0  0  0  0  0  0  0
   -1.1970   -3.4777   -1.3324 C   0  0  0  0  0  0  0  0  0  0  0  0
   -2.0133   -4.0076   -1.8600 H   0  0  0  0  0  0  0  0  0  0  0  0
   -0.3771   -4.1960   -1.1232 H   0  0  0  0  0  0  0  0  0  0  0  0
   -0.7666   -2.7232   -2.0258 H   0  0  0  0  0  0  0  0  0  0  0  0
    2.8202   -1.6559   -0.1342 C   0  0  0  0  0  0  0  0  0  0  0  0
    3.6723   -0.5280   -0.2965 C   0  0  0  0  0  0  0  0  0  0  0  0
    5.0118   -0.7532   -0.6939 C   0  0  0  0  0  0  0  0  0  0  0  0
    5.6741    0.0868   -0.9290 H   0  0  0  0  0  0  0  0  0  0  0  0
    5.4948   -2.0615   -0.8419 C   0  0  0  0  0  0  0  0  0  0  0  0
    6.5375   -2.2119   -1.1619 H   0  0  0  0  0  0  0  0  0  0  0  0
    4.6666   -3.1716   -0.6037 C   0  0  0  0  0  0  0  0  0  0  0  0
    5.0580   -4.1931   -0.7207 H   0  0  0  0  0  0  0  0  0  0  0  0
    3.3260   -2.9613   -0.2567 C   0  0  0  0  0  0  0  0  0  0  0  0
    2.6297   -3.7978   -0.0975 H   0  0  0  0  0  0  0  0  0  0  0  0
    3.6684    1.8667    0.2351 C   0  0  1  0  0  3  0  0  0  0  0  0
    3.0361    3.1341    0.2207 C   0  0  0  0  0  0  0  0  0  0  0  0
    3.6807    3.9757    0.5090 H   0  0  0  0  0  0  0  0  0  0  0  0
    1.7179    3.4816   -0.1623 C   0  0  0  0  0  0  0  0  0  0  0  0
    5.1083    1.8761    0.7149 C   0  0  0  0  0  0  0  0  0  0  0  0
    5.3805    0.9325    1.2238 H   0  0  0  0  0  0  0  0  0  0  0  0
    5.2507    2.7168    1.4191 H   0  0  0  0  0  0  0  0  0  0  0  0
    5.8238    2.0281   -0.1195 H   0  0  0  0  0  0  0  0  0  0  0  0
    1.3600    4.9517   -0.2722 C   0  0  0  0  0  0  0  0  0  0  0  0
    1.0868    5.1804   -1.3232 H   0  0  0  0  0  0  0  0  0  0  0  0
    2.1807    5.6242    0.0383 H   0  0  0  0  0  0  0  0  0  0  0  0
    0.4598    5.1597    0.3411 H   0  0  0  0  0  0  0  0  0  0  0  0
  1 35  1  0  0  0  0
  2  5  1  0  0  0  0
  4  2  1  0  0  0  0
  5  6  1  0  0  0  0
  6  7  2  0  0  0  0
  6 14  1  0  0  0  0
  7  8  1  0  0  0  0
  9 10  1  0  0  0  0
  9  7  1  0  0  0  0
 11  9  2  0  0  0  0
 12 11  1  0  0  0  0
 13 11  1  0  0  0  0
 13  5  2  0  0  0  0
 14 17  1  0  0  0  0
 14 15  1  0  0  0  0
 16 14  1  0  0  0  0
 18 20  1  0  0  0  0
 18 13  1  0  0  0  0
 19 18  1  0  0  0  0
 21 18  1  0  0  0  0
 22  4  1  0  0  0  0
 23 22  2  0  0  0  0
 23  3  1  0  0  0  0
 24 23  1  0  0  0  0
 25 24  1  0  0  0  0
 26 24  2  0  0  0  0
 26 28  1  0  0  0  0
 27 26  1  0  0  0  0
 28 30  2  0  0  0  0
 29 28  1  0  0  0  0
 30 22  1  0  0  0  0
 30 31  1  0  0  0  0
 32  3  1  1  0  0  0
 32 36  1  0  0  0  0
 33 32  1  0  0  0  0
 33 34  1  0  0  0  0
 35 33  2  0  0  0  0
 36 37  1  0  0  0  0
 36 38  1  0  0  0  0
 39 36  1  0  0  0  0
 40 35  1  0  0  0  0
 40 42  1  0  0  0  0
 40 43  1  0  0  0  0
 41 40  1  0  0  0  0
M  CHG  1   1  -1
M  END
