1,5,21
 OpenBabel05122313063D

 48 51  0  0  1  0  0  0  0  0999 V2000
    1.6655   -2.5160   -0.5008 O   0  5  0  0  0  0  0  0  0  0  0  0
    3.8275   -2.0572   -0.9773 O   0  0  0  0  0  0  0  0  0  0  0  0
    5.3767    0.8024   -1.4837 O   0  0  0  0  0  0  0  0  0  0  0  0
    5.2825   -0.1934    0.5632 O   0  0  0  0  0  0  0  0  0  0  0  0
    1.0112   -0.0451   -0.2051 N   0  0  0  0  0  2  0  0  0  0  0  0
    2.6952   -1.7207   -0.6414 C   0  0  0  0  0  0  0  0  0  0  0  0
    2.3445   -0.2764   -0.3575 C   0  0  1  0  0  3  0  0  0  0  0  0
    3.2932    0.7319   -0.2818 C   0  0  0  0  0  0  0  0  0  0  0  0
    2.8531    2.0568    0.0280 C   0  0  0  0  0  0  0  0  0  0  0  0
    3.7749    3.1336    0.1751 C   0  0  0  0  0  0  0  0  0  0  0  0
    4.8364    2.9543   -0.0465 H   0  0  0  0  0  0  0  0  0  0  0  0
    3.3410    4.3832    0.5888 C   0  0  0  0  0  0  0  0  0  0  0  0
    4.0627    5.2064    0.7009 H   0  0  0  0  0  0  0  0  0  0  0  0
    1.9722    4.5959    0.8875 C   0  0  0  0  0  0  0  0  0  0  0  0
    1.6361    5.5766    1.2560 H   0  0  0  0  0  0  0  0  0  0  0  0
    1.0457    3.5769    0.7151 C   0  0  0  0  0  0  0  0  0  0  0  0
   -0.0057    3.7645    0.9560 H   0  0  0  0  0  0  0  0  0  0  0  0
    1.4445    2.2894    0.2468 C   0  0  0  0  0  0  0  0  0  0  0  0
    0.5217    1.1911    0.0316 C   0  0  0  0  0  0  0  0  0  0  0  0
   -0.9470    1.2586    0.0734 C   0  0  0  0  0  0  0  0  0  0  0  0
   -1.6227    0.0549    0.1487 C   0  0  0  0  0  3  0  0  0  0  0  0
   -3.1041    0.0597    0.1048 C   0  0  0  0  0  0  0  0  0  0  0  0
   -3.9130   -0.4497    1.1499 C   0  0  0  0  0  0  0  0  0  0  0  0
   -3.4460   -0.8122    2.0741 H   0  0  0  0  0  0  0  0  0  0  0  0
   -5.3116   -0.4783    1.0443 C   0  0  0  0  0  0  0  0  0  0  0  0
   -5.9085   -0.8698    1.8825 H   0  0  0  0  0  0  0  0  0  0  0  0
   -5.9490   -0.0145   -0.1164 C   0  0  0  0  0  0  0  0  0  0  0  0
   -7.0454   -0.0473   -0.2025 H   0  0  0  0  0  0  0  0  0  0  0  0
   -5.1671    0.5017   -1.1624 C   0  0  0  0  0  0  0  0  0  0  0  0
   -5.6484    0.8830   -2.0761 H   0  0  0  0  0  0  0  0  0  0  0  0
   -3.7726    0.5483   -1.0485 C   0  0  0  0  0  0  0  0  0  0  0  0
   -3.1768    0.9802   -1.8659 H   0  0  0  0  0  0  0  0  0  0  0  0
   -1.6638    2.5623   -0.0710 C   0  0  0  0  0  0  0  0  0  0  0  0
   -2.5806    3.0101    0.9034 C   0  0  0  0  0  0  0  0  0  0  0  0
   -2.7396    2.4035    1.8070 H   0  0  0  0  0  0  0  0  0  0  0  0
   -3.2849    4.2099    0.7276 C   0  0  0  0  0  0  0  0  0  0  0  0
   -3.9945    4.5439    1.4999 H   0  0  0  0  0  0  0  0  0  0  0  0
   -3.0902    4.9806   -0.4297 C   0  0  0  0  0  0  0  0  0  0  0  0
   -3.6447    5.9210   -0.5686 H   0  0  0  0  0  0  0  0  0  0  0  0
   -2.1863    4.5417   -1.4114 C   0  0  0  0  0  0  0  0  0  0  0  0
   -2.0323    5.1363   -2.3249 H   0  0  0  0  0  0  0  0  0  0  0  0
   -1.4799    3.3445   -1.2333 C   0  0  0  0  0  0  0  0  0  0  0  0
   -0.7697    3.0041   -2.0031 H   0  0  0  0  0  0  0  0  0  0  0  0
    4.7529    0.4363   -0.5059 C   0  0  0  0  0  0  0  0  0  0  0  0
    6.6087   -0.7028    0.3747 C   0  0  0  0  0  0  0  0  0  0  0  0
    7.2828    0.0772   -0.0312 H   0  0  0  0  0  0  0  0  0  0  0  0
    6.5704   -1.5550   -0.3336 H   0  0  0  0  0  0  0  0  0  0  0  0
    6.9538   -1.0432    1.3671 H   0  0  0  0  0  0  0  0  0  0  0  0
  2  6  2  0  0  0  0
  3 44  2  0  0  0  0
  5 19  1  0  0  0  0
  6  1  1  0  0  0  0
  7  6  1  6  0  0  0
  7  8  1  0  0  0  0
  7  5  1  0  0  0  0
  8  9  2  0  0  0  0
  9 10  1  0  0  0  0
  9 18  1  0  0  0  0
 10 12  2  0  0  0  0
 11 10  1  0  0  0  0
 12 13  1  0  0  0  0
 12 14  1  0  0  0  0
 14 15  1  0  0  0  0
 16 14  2  0  0  0  0
 16 17  1  0  0  0  0
 18 16  1  0  0  0  0
 19 20  1  0  0  0  0
 19 18  2  0  0  0  0
 20 21  2  0  0  0  0
 22 21  1  0  0  0  0
 22 23  1  0  0  0  0
 23 24  1  0  0  0  0
 25 23  2  0  0  0  0
 25 26  1  0  0  0  0
 27 25  1  0  0  0  0
 28 27  1  0  0  0  0
 29 31  1  0  0  0  0
 29 27  2  0  0  0  0
 30 29  1  0  0  0  0
 31 22  2  0  0  0  0
 32 31  1  0  0  0  0
 33 20  1  0  0  0  0
 33 34  1  0  0  0  0
 34 35  1  0  0  0  0
 36 34  2  0  0  0  0
 36 37  1  0  0  0  0
 38 36  1  0  0  0  0
 39 38  1  0  0  0  0
 40 42  1  0  0  0  0
 40 38  2  0  0  0  0
 41 40  1  0  0  0  0
 42 33  2  0  0  0  0
 43 42  1  0  0  0  0
 44  8  1  0  0  0  0
 44  4  1  0  0  0  0
 45  4  1  0  0  0  0
 45 48  1  0  0  0  0
 46 45  1  0  0  0  0
 47 45  1  0  0  0  0
M  CHG  1   1  -1
M  END
