1,2,7
 OpenBabel05122313063D

 49 49  0  0  1  0  0  0  0  0999 V2000
    1.6578   -1.8390   -0.3503 O   0  0  0  0  0  1  0  0  0  0  0  0
    0.8238    0.1705   -0.2653 N   0  0  0  0  0  2  0  0  0  0  0  0
    1.1866    2.7372   -2.4647 N   0  0  0  0  0  0  0  0  0  0  0  0
    1.9229   -0.5729   -0.2915 C   0  0  1  0  0  3  0  0  0  0  0  0
    0.5390    1.5894   -0.1559 C   0  0  2  0  0  0  0  0  0  0  0  0
   -0.9997    1.6846   -0.0045 C   0  0  0  0  0  0  0  0  0  0  0  0
   -1.7098    0.5228    0.0888 C   0  0  0  0  0  3  0  0  0  0  0  0
    3.3507   -0.1556   -0.1996 C   0  0  0  0  0  0  0  0  0  0  0  0
    3.8742    0.9668   -0.8751 C   0  0  0  0  0  0  0  0  0  0  0  0
    3.2301    1.5746   -1.5253 H   0  0  0  0  0  0  0  0  0  0  0  0
    5.2324    1.2913   -0.7458 C   0  0  0  0  0  0  0  0  0  0  0  0
    5.6352    2.1610   -1.2864 H   0  0  0  0  0  0  0  0  0  0  0  0
    6.0746    0.5117    0.0629 C   0  0  0  0  0  0  0  0  0  0  0  0
    7.1376    0.7768    0.1684 H   0  0  0  0  0  0  0  0  0  0  0  0
    5.5603   -0.6138    0.7281 C   0  0  0  0  0  0  0  0  0  0  0  0
    6.2187   -1.2330    1.3560 H   0  0  0  0  0  0  0  0  0  0  0  0
    4.2097   -0.9550    0.5861 C   0  0  0  0  0  0  0  0  0  0  0  0
    3.7970   -1.8448    1.0834 H   0  0  0  0  0  0  0  0  0  0  0  0
    0.9098    2.2494   -1.4340 C   0  0  0  0  0  0  0  0  0  0  0  0
    1.2929    2.2840    1.0192 C   0  0  0  0  0  0  0  0  0  0  0  0
    2.3833    2.2370    0.8219 H   0  0  0  0  0  0  0  0  0  0  0  0
    1.0280    3.3619    1.0108 H   0  0  0  0  0  0  0  0  0  0  0  0
    0.9820    1.6769    2.3869 C   0  0  0  0  0  0  0  0  0  0  0  0
    1.2276    0.5945    2.3671 H   0  0  0  0  0  0  0  0  0  0  0  0
   -0.1117    1.7345    2.5710 H   0  0  0  0  0  0  0  0  0  0  0  0
    1.7513    2.3616    3.5165 C   0  0  0  0  0  0  0  0  0  0  0  0
    2.8478    2.2806    3.3642 H   0  0  0  0  0  0  0  0  0  0  0  0
    1.5159    1.9096    4.5009 H   0  0  0  0  0  0  0  0  0  0  0  0
    1.5060    3.4424    3.5776 H   0  0  0  0  0  0  0  0  0  0  0  0
   -1.5970    3.0814   -0.0376 C   0  0  0  0  0  0  0  0  0  0  0  0
   -2.4118    3.1601    0.7123 H   0  0  0  0  0  0  0  0  0  0  0  0
   -0.8431    3.8368    0.2746 H   0  0  0  0  0  0  0  0  0  0  0  0
   -2.1565    3.5026   -1.4136 C   0  0  0  0  0  0  0  0  0  0  0  0
   -1.3397    3.4842   -2.1631 H   0  0  0  0  0  0  0  0  0  0  0  0
   -2.8950    2.7445   -1.7528 H   0  0  0  0  0  0  0  0  0  0  0  0
   -2.8077    4.8849   -1.3848 C   0  0  0  0  0  0  0  0  0  0  0  0
   -3.6522    4.9211   -0.6642 H   0  0  0  0  0  0  0  0  0  0  0  0
   -3.2030    5.1719   -2.3800 H   0  0  0  0  0  0  0  0  0  0  0  0
   -2.0802    5.6656   -1.0780 H   0  0  0  0  0  0  0  0  0  0  0  0
   -3.2186    0.5929    0.2889 C   0  0  0  0  0  0  0  0  0  0  0  0
   -3.6958   -0.3650   -0.0181 H   0  0  0  0  0  0  0  0  0  0  0  0
   -3.6674    1.3600   -0.3836 H   0  0  0  0  0  0  0  0  0  0  0  0
   -3.6801    0.9051    1.7266 C   0  0  0  0  0  0  0  0  0  0  0  0
   -3.3395    0.1027    2.4122 H   0  0  0  0  0  0  0  0  0  0  0  0
   -3.1757    1.8286    2.0831 H   0  0  0  0  0  0  0  0  0  0  0  0
   -5.1965    1.0637    1.8407 C   0  0  0  0  0  0  0  0  0  0  0  0
   -5.5632    1.8970    1.2052 H   0  0  0  0  0  0  0  0  0  0  0  0
   -5.5123    1.2721    2.8830 H   0  0  0  0  0  0  0  0  0  0  0  0
   -5.7240    0.1442    1.5095 H   0  0  0  0  0  0  0  0  0  0  0  0
  2  5  1  0  0  0  0
  3 19  3  0  0  0  0
  4  1  1  1  0  0  0
  4  2  1  0  0  0  0
  4  8  1  0  0  0  0
  5 19  1  6  0  0  0
  5  6  1  0  0  0  0
  5 20  1  0  0  0  0
  6  7  2  0  0  0  0
  7 40  1  0  0  0  0
  8 17  1  0  0  0  0
  9 11  1  0  0  0  0
  9  8  2  0  0  0  0
 10  9  1  0  0  0  0
 11 13  2  0  0  0  0
 12 11  1  0  0  0  0
 13 14  1  0  0  0  0
 13 15  1  0  0  0  0
 15 16  1  0  0  0  0
 17 15  2  0  0  0  0
 17 18  1  0  0  0  0
 20 23  1  0  0  0  0
 21 20  1  0  0  0  0
 22 20  1  0  0  0  0
 23 25  1  0  0  0  0
 23 26  1  0  0  0  0
 24 23  1  0  0  0  0
 26 29  1  0  0  0  0
 26 28  1  0  0  0  0
 27 26  1  0  0  0  0
 30  6  1  0  0  0  0
 30 32  1  0  0  0  0
 30 31  1  0  0  0  0
 33 36  1  0  0  0  0
 33 30  1  0  0  0  0
 34 33  1  0  0  0  0
 35 33  1  0  0  0  0
 36 39  1  0  0  0  0
 36 37  1  0  0  0  0
 38 36  1  0  0  0  0
 40 43  1  0  0  0  0
 41 40  1  0  0  0  0
 42 40  1  0  0  0  0
 43 46  1  0  0  0  0
 43 45  1  0  0  0  0
 43 44  1  0  0  0  0
 46 48  1  0  0  0  0
 47 46  1  0  0  0  0
 49 46  1  0  0  0  0
M  END
