1,2,5
 OpenBabel05122313063D

 31 32  0  0  0  0  0  0  0  0999 V2000
    1.3966    0.8543    0.1025 O   0  5  0  0  0  0  0  0  0  0  0  0
    0.8975   -1.8595   -0.2072 N   0  0  0  0  0  2  0  0  0  0  0  0
   -2.0374   -2.3546   -0.4296 N   0  0  0  0  0  0  0  0  0  0  0  0
   -2.7943   -0.9196    1.0030 N   0  0  0  0  0  0  0  0  0  0  0  0
   -1.7112   -1.1971    0.2126 C   0  0  0  0  0  2  0  0  0  0  0  0
    5.4528   -0.0755    0.2445 C   0  0  0  0  0  0  0  0  0  0  0  0
    6.5285   -0.2962    0.2843 H   0  0  0  0  0  0  0  0  0  0  0  0
    4.5286   -1.0949    0.0812 C   0  0  0  0  0  3  0  0  0  0  0  0
    4.8635   -2.1402   -0.0114 H   0  0  0  0  0  0  0  0  0  0  0  0
   -1.0377   -3.0582   -1.2258 C   0  0  0  0  0  0  0  0  0  0  0  0
   -0.8657   -2.5182   -2.1800 H   0  0  0  0  0  0  0  0  0  0  0  0
   -1.4250   -4.0671   -1.4614 H   0  0  0  0  0  0  0  0  0  0  0  0
    3.1283   -0.8196    0.0345 C   0  0  0  0  0  0  0  0  0  0  0  0
    0.2506   -3.1637   -0.4205 C   0  0  0  0  0  0  0  0  0  0  0  0
    0.0157   -3.6316    0.5616 H   0  0  0  0  0  0  0  0  0  0  0  0
    0.9482   -3.8414   -0.9543 H   0  0  0  0  0  0  0  0  0  0  0  0
    2.6615    0.5380    0.1459 C   0  0  0  0  0  0  0  0  0  0  0  0
   -3.7785   -1.8881    0.8402 C   0  0  0  0  0  0  0  0  0  0  0  0
   -4.7252   -1.8566    1.3880 H   0  0  0  0  0  0  0  0  0  0  0  0
    2.2192   -1.8946   -0.1605 C   0  0  0  0  0  0  0  0  0  0  0  0
    2.6878   -2.8886   -0.3026 H   0  0  0  0  0  0  0  0  0  0  0  0
   -3.2969   -2.8022   -0.0617 C   0  0  0  0  0  0  0  0  0  0  0  0
   -3.7391   -3.7212   -0.4586 H   0  0  0  0  0  0  0  0  0  0  0  0
    4.9923    1.2620    0.3549 C   0  0  0  0  0  0  0  0  0  0  0  0
    5.7217    2.0770    0.4815 H   0  0  0  0  0  0  0  0  0  0  0  0
   -2.9036    0.1954    1.9359 C   0  0  0  0  0  0  0  0  0  0  0  0
   -1.8964    0.6099    2.1109 H   0  0  0  0  0  0  0  0  0  0  0  0
   -3.3217   -0.1654    2.8944 H   0  0  0  0  0  0  0  0  0  0  0  0
   -3.5565    0.9905    1.5244 H   0  0  0  0  0  0  0  0  0  0  0  0
    3.6373    1.5668    0.3010 C   0  0  0  0  0  0  0  0  0  0  0  0
    3.2829    2.6047    0.3790 H   0  0  0  0  0  0  0  0  0  0  0  0
  1 17  1  0  0  0  0
  2 20  1  0  0  0  0
  3 22  1  0  0  0  0
  3  5  1  0  0  0  0
  4 26  1  0  0  0  0
  5  4  1  0  0  0  0
  6  7  1  0  0  0  0
  6 24  2  0  0  0  0
  8  6  1  0  0  0  0
  9  8  1  0  0  0  0
 10  3  1  0  0  0  0
 10 14  1  0  0  0  0
 11 10  1  0  0  0  0
 12 10  1  0  0  0  0
 13  8  1  0  0  0  0
 13 17  1  0  0  0  0
 14  2  1  0  0  0  0
 14 15  1  0  0  0  0
 16 14  1  0  0  0  0
 17 30  2  0  0  0  0
 18  4  1  0  0  0  0
 18 19  1  0  0  0  0
 20 13  2  0  0  0  0
 21 20  1  0  0  0  0
 22 18  2  0  0  0  0
 23 22  1  0  0  0  0
 24 25  1  0  0  0  0
 26 27  1  0  0  0  0
 26 28  1  0  0  0  0
 29 26  1  0  0  0  0
 30 24  1  0  0  0  0
 30 31  1  0  0  0  0
M  CHG  1   1  -1
M  END
