2,3,4
 OpenBabel05122313063D

 55 55  0  0  0  0  0  0  0  0999 V2000
   -2.1689    0.1776   -0.1596 P   0  0  0  0  0  4  0  0  0  0  0  0
   -0.8308    0.5971    0.5653 O   0  0  0  0  0  1  0  0  0  0  0  0
    3.0279   -0.6761   -0.3756 N   0  0  0  0  0  0  0  0  0  0  0  0
    0.3250   -1.9729   -0.1930 C   0  0  0  0  0  3  0  0  0  0  0  0
   -0.9451   -2.2323   -0.7802 C   0  0  0  0  0  0  0  0  0  0  0  0
   -1.4732   -3.5400   -0.7933 C   0  0  0  0  0  0  0  0  0  0  0  0
   -2.4479   -3.7240   -1.2730 H   0  0  0  0  0  0  0  0  0  0  0  0
   -0.7706   -4.6041   -0.2161 C   0  0  0  0  0  0  0  0  0  0  0  0
   -1.1939   -5.6191   -0.2243 H   0  0  0  0  0  0  0  0  0  0  0  0
    0.4905   -4.3646    0.3443 C   0  0  0  0  0  0  0  0  0  0  0  0
    1.0671   -5.1977    0.7770 H   0  0  0  0  0  0  0  0  0  0  0  0
    1.0449   -3.0708    0.3418 C   0  0  0  0  0  0  0  0  0  0  0  0
    2.4690   -2.8583    0.7995 C   0  0  0  0  0  0  0  0  0  0  0  0
    2.9515   -3.8323    1.0145 H   0  0  0  0  0  0  0  0  0  0  0  0
    2.5171   -2.2725    1.7432 H   0  0  0  0  0  0  0  0  0  0  0  0
    3.2655   -2.1607   -0.3001 C   0  0  0  0  0  0  0  0  0  0  0  0
    4.3592   -2.3082   -0.1715 H   0  0  0  0  0  0  0  0  0  0  0  0
    2.9805   -2.5911   -1.2793 H   0  0  0  0  0  0  0  0  0  0  0  0
    3.4407   -0.2067   -1.7264 C   0  0  0  0  0  0  0  0  0  0  0  0
    4.4910   -0.5090   -1.9301 H   0  0  0  0  0  0  0  0  0  0  0  0
    3.3737    0.8945   -1.7724 H   0  0  0  0  0  0  0  0  0  0  0  0
    2.7728   -0.6491   -2.4865 H   0  0  0  0  0  0  0  0  0  0  0  0
    3.8944   -0.0185    0.6460 C   0  0  0  0  0  0  0  0  0  0  0  0
    4.9588   -0.2675    0.4495 H   0  0  0  0  0  0  0  0  0  0  0  0
    3.6159   -0.3747    1.6537 H   0  0  0  0  0  0  0  0  0  0  0  0
    3.7603    1.0749    0.6017 H   0  0  0  0  0  0  0  0  0  0  0  0
   -1.7591   -1.1163   -1.3966 C   0  0  0  0  0  0  0  0  0  0  0  0
   -2.6859   -1.4878   -1.8761 H   0  0  0  0  0  0  0  0  0  0  0  0
   -1.1667   -0.5873   -2.1696 H   0  0  0  0  0  0  0  0  0  0  0  0
   -3.3328   -0.5212    1.1428 C   0  0  0  0  0  0  0  0  0  0  0  0
   -2.7986    1.6970   -1.0829 C   0  0  0  0  0  0  0  0  0  0  0  0
   -2.4741   -1.4016    2.0776 C   0  0  0  0  0  0  0  0  0  0  0  0
   -3.1306   -1.7863    2.8850 H   0  0  0  0  0  0  0  0  0  0  0  0
   -1.6544   -0.8196    2.5387 H   0  0  0  0  0  0  0  0  0  0  0  0
   -2.0301   -2.2680    1.5543 H   0  0  0  0  0  0  0  0  0  0  0  0
   -3.9462    0.6219    1.9733 C   0  0  0  0  0  0  0  0  0  0  0  0
   -4.5165    0.1759    2.8138 H   0  0  0  0  0  0  0  0  0  0  0  0
   -4.6525    1.2457    1.3930 H   0  0  0  0  0  0  0  0  0  0  0  0
   -3.1658    1.2746    2.4113 H   0  0  0  0  0  0  0  0  0  0  0  0
   -4.4351   -1.3690    0.4823 C   0  0  0  0  0  0  0  0  0  0  0  0
   -5.1185   -1.7387    1.2742 H   0  0  0  0  0  0  0  0  0  0  0  0
   -4.0204   -2.2591   -0.0287 H   0  0  0  0  0  0  0  0  0  0  0  0
   -5.0488   -0.7969   -0.2395 H   0  0  0  0  0  0  0  0  0  0  0  0
   -2.6695    2.9221   -0.1555 C   0  0  0  0  0  0  0  0  0  0  0  0
   -1.6345    3.0293    0.2229 H   0  0  0  0  0  0  0  0  0  0  0  0
   -3.3529    2.8784    0.7110 H   0  0  0  0  0  0  0  0  0  0  0  0
   -2.9238    3.8330   -0.7355 H   0  0  0  0  0  0  0  0  0  0  0  0
   -1.8626    1.9052   -2.2932 C   0  0  0  0  0  0  0  0  0  0  0  0
   -2.0805    2.8961   -2.7414 H   0  0  0  0  0  0  0  0  0  0  0  0
   -2.0153    1.1471   -3.0854 H   0  0  0  0  0  0  0  0  0  0  0  0
   -0.7956    1.8978   -1.9925 H   0  0  0  0  0  0  0  0  0  0  0  0
   -4.2442    1.5109   -1.5722 C   0  0  0  0  0  0  0  0  0  0  0  0
   -4.5318    2.3884   -2.1877 H   0  0  0  0  0  0  0  0  0  0  0  0
   -4.9696    1.4443   -0.7392 H   0  0  0  0  0  0  0  0  0  0  0  0
   -4.3602    0.6126   -2.2117 H   0  0  0  0  0  0  0  0  0  0  0  0
  1  2  1  0  0  0  0
  1 30  1  0  0  0  0
  3 16  1  0  0  0  0
  3 23  1  0  0  0  0
  4 12  1  0  0  0  0
  5  4  2  0  0  0  0
  6  5  1  0  0  0  0
  6  8  2  0  0  0  0
  7  6  1  0  0  0  0
  8 10  1  0  0  0  0
  9  8  1  0  0  0  0
 10 11  1  0  0  0  0
 12 10  2  0  0  0  0
 12 13  1  0  0  0  0
 13 14  1  0  0  0  0
 13 15  1  0  0  0  0
 16 17  1  0  0  0  0
 16 13  1  0  0  0  0
 18 16  1  0  0  0  0
 19  3  1  0  0  0  0
 20 19  1  0  0  0  0
 21 19  1  0  0  0  0
 22 19  1  0  0  0  0
 23 25  1  0  0  0  0
 24 23  1  0  0  0  0
 26 23  1  0  0  0  0
 27  5  1  0  0  0  0
 27  1  1  0  0  0  0
 28 27  1  0  0  0  0
 29 27  1  0  0  0  0
 30 36  1  0  0  0  0
 30 32  1  0  0  0  0
 31  1  1  0  0  0  0
 31 44  1  0  0  0  0
 32 34  1  0  0  0  0
 32 33  1  0  0  0  0
 35 32  1  0  0  0  0
 36 39  1  0  0  0  0
 36 37  1  0  0  0  0
 38 36  1  0  0  0  0
 40 30  1  0  0  0  0
 40 41  1  0  0  0  0
 42 40  1  0  0  0  0
 43 40  1  0  0  0  0
 44 45  1  0  0  0  0
 44 46  1  0  0  0  0
 47 44  1  0  0  0  0
 48 51  1  0  0  0  0
 48 31  1  0  0  0  0
 49 48  1  0  0  0  0
 50 48  1  0  0  0  0
 52 31  1  0  0  0  0
 52 54  1  0  0  0  0
 53 52  1  0  0  0  0
 55 52  1  0  0  0  0
M  END
