1,16,32
 OpenBabel05122313063D

 36 39  0  0  0  0  0  0  0  0999 V2000
    1.2074   -1.2857   -0.1913 O   0  5  0  0  0  0  0  0  0  0  0  0
    2.4934   -1.3798   -0.1724 C   0  0  0  0  0  0  0  0  0  0  0  0
    3.4232   -0.2767   -0.0447 C   0  0  0  0  0  0  0  0  0  0  0  0
    4.8615   -0.5571    0.0279 C   0  0  0  0  0  0  0  0  0  0  0  0
    5.3295   -1.9124   -0.0944 C   0  0  0  0  0  0  0  0  0  0  0  0
    4.3729   -2.9683   -0.2662 C   0  0  0  0  0  0  0  0  0  0  0  0
    4.7479   -3.9999   -0.3651 H   0  0  0  0  0  0  0  0  0  0  0  0
    3.0265   -2.7190   -0.2995 C   0  0  0  0  0  0  0  0  0  0  0  0
    2.2853   -3.5222   -0.4223 H   0  0  0  0  0  0  0  0  0  0  0  0
    7.2136    0.1364    0.2767 C   0  0  0  0  0  0  0  0  0  0  0  0
    7.9425    0.9466    0.4320 H   0  0  0  0  0  0  0  0  0  0  0  0
    5.8555    0.4433    0.2237 C   0  0  0  0  0  0  0  0  0  0  0  0
    5.5684    1.4960    0.3527 H   0  0  0  0  0  0  0  0  0  0  0  0
    2.9954    1.0809   -0.0191 C   0  0  0  0  0  0  0  0  0  0  0  0
    3.8025    1.8294    0.0290 H   0  0  0  0  0  0  0  0  0  0  0  0
    1.7689    1.5732   -0.0590 N   0  0  0  0  0  2  0  0  0  0  0  0
    1.5109    2.9662   -0.0670 C   0  0  0  0  0  0  0  0  0  0  0  0
    0.1202    3.2953    0.0012 C   0  0  0  0  0  0  0  0  0  0  0  0
   -0.2841    4.6748    0.0201 C   0  0  0  0  0  3  0  0  0  0  0  0
    0.7206    5.6844   -0.0425 C   0  0  0  0  0  3  0  0  0  0  0  0
    0.4159    6.7424   -0.0319 H   0  0  0  0  0  0  0  0  0  0  0  0
    2.0632    5.3373   -0.1256 C   0  0  0  0  0  0  0  0  0  0  0  0
    2.8314    6.1235   -0.1840 H   0  0  0  0  0  0  0  0  0  0  0  0
    2.4693    3.9804   -0.1418 C   0  0  0  0  0  0  0  0  0  0  0  0
    3.5409    3.7499   -0.2218 H   0  0  0  0  0  0  0  0  0  0  0  0
   -1.6764    4.9723    0.0938 C   0  0  0  0  0  0  0  0  0  0  0  0
   -1.9992    6.0248    0.1112 H   0  0  0  0  0  0  0  0  0  0  0  0
   -2.6026    3.9422    0.1389 C   0  0  0  0  0  0  0  0  0  0  0  0
   -3.6785    4.1716    0.1942 H   0  0  0  0  0  0  0  0  0  0  0  0
   -2.1910    2.5799    0.1091 C   0  0  0  0  0  0  0  0  0  0  0  0
   -2.9780    1.8126    0.1352 H   0  0  0  0  0  0  0  0  0  0  0  0
   -0.8432    2.2251    0.0401 C   0  0  0  0  0  3  0  0  0  0  0  0
    6.7180   -2.2027   -0.0395 C   0  0  0  0  0  3  0  0  0  0  0  0
    7.0347   -3.2529   -0.1405 H   0  0  0  0  0  0  0  0  0  0  0  0
    7.6598   -1.1965    0.1405 C   0  0  0  0  0  0  0  0  0  0  0  0
    8.7334   -1.4327    0.1828 H   0  0  0  0  0  0  0  0  0  0  0  0
  1  2  1  0  0  0  0
  2  3  1  0  0  0  0
  3 14  2  0  0  0  0
  3  4  1  0  0  0  0
  4 12  2  0  0  0  0
  5 33  1  0  0  0  0
  5  4  1  0  0  0  0
  6  5  2  0  0  0  0
  7  6  1  0  0  0  0
  8  6  1  0  0  0  0
  8  2  2  0  0  0  0
  9  8  1  0  0  0  0
 10 11  1  0  0  0  0
 12 10  1  0  0  0  0
 12 13  1  0  0  0  0
 14 15  1  0  0  0  0
 16 14  1  0  0  0  0
 17 16  1  0  0  0  0
 17 18  2  0  0  0  0
 18 19  1  0  0  0  0
 18 32  1  0  0  0  0
 19 26  1  0  0  0  0
 20 21  1  0  0  0  0
 20 19  1  0  0  0  0
 22 20  1  0  0  0  0
 23 22  1  0  0  0  0
 24 22  2  0  0  0  0
 24 17  1  0  0  0  0
 25 24  1  0  0  0  0
 26 27  1  0  0  0  0
 26 28  2  0  0  0  0
 28 29  1  0  0  0  0
 30 31  1  0  0  0  0
 30 28  1  0  0  0  0
 32 30  2  0  0  0  0
 33 35  1  0  0  0  0
 34 33  1  0  0  0  0
 35 36  1  0  0  0  0
 35 10  2  0  0  0  0
M  CHG  1   1  -1
M  END
