1,17,26
 OpenBabel05122313063D

 27 28  0  0  1  0  0  0  0  0999 V2000
    1.0882    0.3357    0.0878 N   0  0  0  0  0  2  0  0  0  0  0  0
    1.5855   -1.9793   -0.4948 C   0  0  0  0  0  0  0  0  0  0  0  0
    2.0615   -0.5707   -0.1772 C   0  0  1  0  0  3  0  0  0  0  0  0
    3.4114   -0.2112   -0.2103 C   0  0  0  0  0  0  0  0  0  0  0  0
    4.1392   -1.0068   -0.4257 H   0  0  0  0  0  0  0  0  0  0  0  0
    3.7551    1.1267    0.0139 C   0  0  0  0  0  0  0  0  0  0  0  0
    4.8067    1.4502   -0.0032 H   0  0  0  0  0  0  0  0  0  0  0  0
    2.7328    2.0592    0.2494 C   0  0  0  0  0  0  0  0  0  0  0  0
    2.9671    3.1208    0.4137 H   0  0  0  0  0  0  0  0  0  0  0  0
    1.3893    1.6470    0.2874 C   0  0  0  0  0  0  0  0  0  0  0  0
    0.2598    2.6153    0.5353 C   0  0  0  0  0  0  0  0  0  0  0  0
    0.6897    3.6237    0.6956 H   0  0  0  0  0  0  0  0  0  0  0  0
   -0.2531    2.3230    1.4777 H   0  0  0  0  0  0  0  0  0  0  0  0
   -0.7919    2.6775   -0.6014 C   0  0  0  0  0  0  0  0  0  0  0  0
   -1.4621    3.5408   -0.4072 H   0  0  0  0  0  0  0  0  0  0  0  0
   -0.2834    2.8805   -1.5653 H   0  0  0  0  0  0  0  0  0  0  0  0
   -1.6139    1.4196   -0.7230 C   0  0  2  0  0  3  0  0  0  0  0  0
   -2.5488    0.9147    0.2498 C   0  0  0  0  0  3  0  0  0  0  0  0
   -2.8429    1.4178    1.1794 H   0  0  0  0  0  0  0  0  0  0  0  0
   -3.0418   -0.3662   -0.2180 C   0  0  0  0  0  0  0  0  0  0  0  0
   -3.7684   -1.0071    0.2945 H   0  0  0  0  0  0  0  0  0  0  0  0
   -2.4284   -0.6351   -1.4810 C   0  0  0  0  0  0  0  0  0  0  0  0
   -2.5647   -1.5477   -2.0743 H   0  0  0  0  0  0  0  0  0  0  0  0
   -1.5689    0.4654   -1.8207 C   0  0  0  0  0  3  0  0  0  0  0  0
   -0.9671    0.5636   -2.7322 H   0  0  0  0  0  0  0  0  0  0  0  0
    0.2830   -2.1006   -0.4910 O   0  5  0  0  0  0  0  0  0  0  0  0
    2.3986   -2.8613   -0.7578 O   0  0  0  0  0  0  0  0  0  0  0  0
  1 10  1  0  0  0  0
  2 26  1  0  0  0  0
  3  2  1  6  0  0  0
  3  1  1  0  0  0  0
  4  3  1  0  0  0  0
  4  6  2  0  0  0  0
  5  4  1  0  0  0  0
  6  8  1  0  0  0  0
  7  6  1  0  0  0  0
  8 10  2  0  0  0  0
  8  9  1  0  0  0  0
 10 11  1  0  0  0  0
 11 12  1  0  0  0  0
 11 13  1  0  0  0  0
 14 15  1  0  0  0  0
 14 11  1  0  0  0  0
 16 14  1  0  0  0  0
 17 14  1  1  0  0  0
 17 18  1  0  0  0  0
 18 19  1  0  0  0  0
 20 18  1  0  0  0  0
 20 21  1  0  0  0  0
 22 20  2  0  0  0  0
 23 22  1  0  0  0  0
 24 22  1  0  0  0  0
 24 17  1  0  0  0  0
 25 24  1  0  0  0  0
 27  2  2  0  0  0  0
M  CHG  1  26  -1
M  END
