1,2,8
 OpenBabel05122313063D

 23 22  0  0  1  0  0  0  0  0999 V2000
   -0.5246   -2.2646    0.2193 O   0  0  0  0  0  1  0  0  0  0  0  0
    1.6602   -1.0288   -0.3623 N   0  0  0  0  0  2  0  0  0  0  0  0
    1.2505    3.9127    0.0183 C   0  0  0  0  0  0  0  0  0  0  0  0
    2.2278    3.7483    0.5008 H   0  0  0  0  0  0  0  0  0  0  0  0
    0.8234    4.9225    0.1121 H   0  0  0  0  0  0  0  0  0  0  0  0
    0.6011    2.9366   -0.6689 C   0  0  0  0  0  0  0  0  0  0  0  0
   -0.3571    3.2282   -1.1369 H   0  0  0  0  0  0  0  0  0  0  0  0
    0.9911    1.5292   -0.8408 C   0  0  0  0  0  3  0  0  0  0  0  0
    0.8702    1.2320   -1.9049 H   0  0  0  0  0  0  0  0  0  0  0  0
    2.4200    1.2182   -0.4278 C   0  0  0  0  0  0  0  0  0  0  0  0
    3.1875    1.7601   -1.0331 H   0  0  0  0  0  0  0  0  0  0  0  0
    2.6235    1.5544    0.6196 H   0  0  0  0  0  0  0  0  0  0  0  0
    2.6928   -0.2522   -0.4539 C   0  0  1  0  0  3  0  0  0  0  0  0
    4.1125   -0.7437   -0.5620 C   0  0  0  0  0  0  0  0  0  0  0  0
    4.3565   -1.4706    0.2393 H   0  0  0  0  0  0  0  0  0  0  0  0
    4.8295    0.0958   -0.5111 H   0  0  0  0  0  0  0  0  0  0  0  0
    4.2660   -1.2713   -1.5273 H   0  0  0  0  0  0  0  0  0  0  0  0
    1.7678   -2.4810   -0.3387 C   0  0  0  0  0  0  0  0  0  0  0  0
    2.7579   -2.8443    0.0136 H   0  0  0  0  0  0  0  0  0  0  0  0
    1.6193   -2.8529   -1.3777 H   0  0  0  0  0  0  0  0  0  0  0  0
    0.6128   -2.9781    0.5421 C   0  0  0  0  0  0  0  0  0  0  0  0
    0.4693   -4.0759    0.3871 H   0  0  0  0  0  0  0  0  0  0  0  0
    0.9112   -2.8495    1.6197 H   0  0  0  0  0  0  0  0  0  0  0  0
  1 21  1  0  0  0  0
  2 18  1  0  0  0  0
  3  5  1  0  0  0  0
  3  4  1  0  0  0  0
  6  3  2  0  0  0  0
  7  6  1  0  0  0  0
  8  6  1  0  0  0  0
  8 10  1  0  0  0  0
  9  8  1  0  0  0  0
 10 12  1  0  0  0  0
 11 10  1  0  0  0  0
 13 10  1  0  0  0  0
 13  2  1  1  0  0  0
 14 16  1  0  0  0  0
 14 13  1  0  0  0  0
 14 15  1  0  0  0  0
 17 14  1  0  0  0  0
 18 19  1  0  0  0  0
 18 21  1  0  0  0  0
 20 18  1  0  0  0  0
 21 23  1  0  0  0  0
 22 21  1  0  0  0  0
M  END
