1,2,5
 OpenBabel05122313063D

 47 51  0  0  1  0  0  0  0  0999 V2000
   -1.0623    2.4078    1.0222 O   0  5  0  0  0  0  0  0  0  0  0  0
    1.5435    1.3577    0.1171 N   0  0  0  0  0  2  0  0  0  0  0  0
    4.0038   -1.4515    0.5956 C   0  0  0  0  0  0  0  0  0  0  0  0
    2.8282   -0.7470    0.1396 C   0  0  0  0  0  0  0  0  0  0  0  0
    0.3357   -1.1494   -0.7844 C   0  0  0  0  0  3  0  0  0  0  0  0
   -0.2178   -2.0049   -0.3480 H   0  0  0  0  0  0  0  0  0  0  0  0
    2.6570    0.5979    0.5111 C   0  0  0  0  0  0  0  0  0  0  0  0
    1.8668   -1.4684   -0.7774 C   0  0  1  0  0  0  0  0  0  0  0  0
    1.9443   -2.5390   -0.5041 H   0  0  0  0  0  0  0  0  0  0  0  0
    0.0195   -0.9823   -2.2907 C   0  0  2  0  0  0  0  0  0  0  0  0
   -0.9547   -0.5003   -2.4993 H   0  0  0  0  0  0  0  0  0  0  0  0
    4.3160   -2.7869    0.1863 C   0  0  0  0  0  0  0  0  0  0  0  0
    3.6536   -3.3094   -0.5167 H   0  0  0  0  0  0  0  0  0  0  0  0
    4.9454   -0.8046    1.4817 C   0  0  0  0  0  0  0  0  0  0  0  0
    1.7091    2.6530   -0.2653 C   0  0  0  0  0  0  0  0  0  0  0  0
    2.2483   -1.3344   -2.2967 C   0  0  1  0  0  0  0  0  0  0  0  0
    3.3280   -1.1477   -2.4523 H   0  0  0  0  0  0  0  0  0  0  0  0
    0.1648   -2.3713   -2.9747 C   0  0  0  0  0  0  0  0  0  0  0  0
   -0.2760   -2.3496   -3.9927 H   0  0  0  0  0  0  0  0  0  0  0  0
   -0.3641   -3.1639   -2.4080 H   0  0  0  0  0  0  0  0  0  0  0  0
    5.4523   -3.4454    0.6384 C   0  0  0  0  0  0  0  0  0  0  0  0
    5.6561   -4.4716    0.2956 H   0  0  0  0  0  0  0  0  0  0  0  0
    2.9334    3.0774   -0.8890 C   0  0  0  0  0  0  0  0  0  0  0  0
    3.7154    2.3222   -1.0490 H   0  0  0  0  0  0  0  0  0  0  0  0
    1.7081   -2.5849   -3.0231 C   0  0  0  0  0  0  0  0  0  0  0  0
    2.0326   -3.5264   -2.5341 H   0  0  0  0  0  0  0  0  0  0  0  0
    2.0795   -2.6152   -4.0677 H   0  0  0  0  0  0  0  0  0  0  0  0
   -0.5320    3.4807    0.6404 C   0  0  0  0  0  0  0  0  0  0  0  0
   -1.0718    4.4251    0.9105 H   0  0  0  0  0  0  0  0  0  0  0  0
    6.0954   -1.5076    1.9372 C   0  0  0  0  0  0  0  0  0  0  0  0
    6.7867   -0.9889    2.6203 H   0  0  0  0  0  0  0  0  0  0  0  0
    6.3522   -2.8087    1.5292 C   0  0  0  0  0  0  0  0  0  0  0  0
    7.2483   -3.3393    1.8846 H   0  0  0  0  0  0  0  0  0  0  0  0
    4.6961    0.5406    1.8809 C   0  0  0  0  0  0  0  0  0  0  0  0
    5.3935    1.0300    2.5787 H   0  0  0  0  0  0  0  0  0  0  0  0
    0.6893    3.6758   -0.0890 C   0  0  0  0  0  0  0  0  0  0  0  0
    3.5954    1.2165    1.4070 C   0  0  0  0  0  0  0  0  0  0  0  0
    3.3999    2.2513    1.7233 H   0  0  0  0  0  0  0  0  0  0  0  0
    3.1223    4.3749   -1.3371 C   0  0  0  0  0  0  0  0  0  0  0  0
    4.0634    4.6312   -1.8491 H   0  0  0  0  0  0  0  0  0  0  0  0
    1.2771   -0.2498   -2.7995 C   0  0  0  0  0  0  0  0  0  0  0  0
    1.3009   -0.1327   -3.9030 H   0  0  0  0  0  0  0  0  0  0  0  0
    1.4280    0.7369   -2.3231 H   0  0  0  0  0  0  0  0  0  0  0  0
    2.1220    5.3680   -1.1648 C   0  0  0  0  0  0  0  0  0  0  0  0
    2.2846    6.3959   -1.5190 H   0  0  0  0  0  0  0  0  0  0  0  0
    0.9412    5.0080   -0.5387 C   0  0  0  0  0  3  0  0  0  0  0  0
    0.1522    5.7595   -0.3715 H   0  0  0  0  0  0  0  0  0  0  0  0
  2  7  1  0  0  0  0
  3 14  1  0  0  0  0
  4  7  2  0  0  0  0
  4  3  1  0  0  0  0
  5  8  1  0  0  0  0
  5  6  1  0  0  0  0
  7 37  1  0  0  0  0
  8  9  1  1  0  0  0
  8  4  1  0  0  0  0
 10 11  1  6  0  0  0
 10  5  1  0  0  0  0
 12  3  2  0  0  0  0
 12 21  1  0  0  0  0
 13 12  1  0  0  0  0
 14 34  1  0  0  0  0
 14 30  2  0  0  0  0
 15 36  1  0  0  0  0
 15  2  1  0  0  0  0
 16 17  1  6  0  0  0
 16  8  1  0  0  0  0
 18 20  1  0  0  0  0
 18 10  1  0  0  0  0
 19 18  1  0  0  0  0
 21 32  2  0  0  0  0
 22 21  1  0  0  0  0
 23 15  2  0  0  0  0
 24 23  1  0  0  0  0
 25 18  1  0  0  0  0
 25 26  1  0  0  0  0
 25 16  1  0  0  0  0
 27 25  1  0  0  0  0
 28 29  1  0  0  0  0
 28  1  1  0  0  0  0
 30 31  1  0  0  0  0
 32 33  1  0  0  0  0
 32 30  1  0  0  0  0
 34 35  1  0  0  0  0
 36 28  2  0  0  0  0
 37 38  1  0  0  0  0
 37 34  2  0  0  0  0
 39 44  2  0  0  0  0
 39 23  1  0  0  0  0
 40 39  1  0  0  0  0
 41 43  1  0  0  0  0
 41 16  1  0  0  0  0
 41 10  1  0  0  0  0
 42 41  1  0  0  0  0
 44 46  1  0  0  0  0
 45 44  1  0  0  0  0
 46 47  1  0  0  0  0
 46 36  1  0  0  0  0
M  CHG  1   1  -1
M  END
