1,3,15
 OpenBabel05122313063D

 17 16  0  0  1  0  0  0  0  0999 V2000
   -1.8342    0.1852    0.9526 O   0  5  0  0  0  0  0  0  0  0  0  0
   -3.9966    0.6623    0.5610 O   0  0  0  0  0  0  0  0  0  0  0  0
   -1.4783   -0.3718   -1.7044 N   0  0  0  0  0  0  0  0  0  0  0  0
   -1.2324   -1.1317   -2.3562 H   0  0  0  0  0  0  0  0  0  0  0  0
   -1.5431    0.4872   -2.2665 H   0  0  0  0  0  0  0  0  0  0  0  0
   -2.9400    0.1485    0.2305 C   0  0  0  0  0  0  0  0  0  0  0  0
   -2.8016   -0.6777   -1.0689 C   0  0  2  0  0  0  0  0  0  0  0  0
   -3.6222   -0.3951   -1.7577 H   0  0  0  0  0  0  0  0  0  0  0  0
   -2.8882   -2.1748   -0.7375 C   0  0  0  0  0  0  0  0  0  0  0  0
   -3.9273   -2.3814   -0.4109 H   0  0  0  0  0  0  0  0  0  0  0  0
   -2.7426   -2.7476   -1.6830 H   0  0  0  0  0  0  0  0  0  0  0  0
   -1.8908   -2.6561    0.3259 C   0  0  0  0  0  0  0  0  0  0  0  0
   -2.0070   -3.7583    0.4214 H   0  0  0  0  0  0  0  0  0  0  0  0
   -2.1749   -2.2369    1.3134 H   0  0  0  0  0  0  0  0  0  0  0  0
   -0.4310   -2.3279    0.0047 C   0  0  0  0  0  3  0  0  0  0  0  0
   -0.1826   -2.7643   -0.9896 H   0  0  0  0  0  0  0  0  0  0  0  0
    0.2334   -2.8515    0.7199 H   0  0  0  0  0  0  0  0  0  0  0  0
  3  7  1  0  0  0  0
  4  3  1  0  0  0  0
  5  3  1  0  0  0  0
  6  2  2  0  0  0  0
  6  1  1  0  0  0  0
  7  8  1  6  0  0  0
  7  9  1  0  0  0  0
  7  6  1  0  0  0  0
  9 10  1  0  0  0  0
  9 12  1  0  0  0  0
 11  9  1  0  0  0  0
 12 13  1  0  0  0  0
 12 14  1  0  0  0  0
 15 12  1  0  0  0  0
 15 17  1  0  0  0  0
 16 15  1  0  0  0  0
M  CHG  1   1  -1
M  END
