2,5,18
 OpenBabel05122313063D

 28 28  0  0  1  0  0  0  0  0999 V2000
    1.2847   -3.6299   -0.9710 O   0  0  0  0  0  0  0  0  0  0  0  0
    0.7569   -1.7038   -2.0285 O   0  0  0  0  0  1  0  0  0  0  0  0
    1.0289   -1.9643    2.5920 O   0  0  0  0  0  0  0  0  0  0  0  0
    2.6895   -1.6810    1.0532 O   0  0  0  0  0  0  0  0  0  0  0  0
   -1.8157   -0.6405   -0.7654 N   0  0  0  0  0  2  0  0  0  0  0  0
   -2.7828   -0.0461   -1.4990 C   0  0  0  0  0  3  0  0  0  0  0  0
   -2.4584    0.8633   -2.0309 H   0  0  0  0  0  0  0  0  0  0  0  0
   -4.0729   -0.5765   -1.5769 C   0  0  0  0  0  0  0  0  0  0  0  0
   -4.8321   -0.0616   -2.1822 H   0  0  0  0  0  0  0  0  0  0  0  0
   -4.3663   -1.7613   -0.8859 C   0  0  0  0  0  0  0  0  0  0  0  0
   -5.3713   -2.2072   -0.9346 H   0  0  0  0  0  0  0  0  0  0  0  0
   -3.3558   -2.3715   -0.1323 C   0  0  0  0  0  0  0  0  0  0  0  0
   -3.5425   -3.3009    0.4249 H   0  0  0  0  0  0  0  0  0  0  0  0
   -2.0834   -1.7822   -0.0727 C   0  0  0  0  0  0  0  0  0  0  0  0
   -0.9666   -2.3044    0.7845 C   0  0  0  0  0  0  0  0  0  0  0  0
   -1.0000   -3.4151    0.8368 H   0  0  0  0  0  0  0  0  0  0  0  0
   -1.1136   -1.9470    1.8257 H   0  0  0  0  0  0  0  0  0  0  0  0
    0.3990   -1.7788    0.3228 C   0  0  2  0  0  3  0  0  0  0  0  0
    0.8419   -2.3757   -0.9878 C   0  0  1  0  0  3  0  0  0  0  0  0
    1.7423   -4.1668   -2.2273 C   0  0  0  0  0  0  0  0  0  0  0  0
    0.9268   -4.1518   -2.9768 H   0  0  0  0  0  0  0  0  0  0  0  0
    2.0614   -5.2019   -2.0156 H   0  0  0  0  0  0  0  0  0  0  0  0
    2.5922   -3.5688   -2.6106 H   0  0  0  0  0  0  0  0  0  0  0  0
    1.5030   -1.8119    1.3257 C   0  0  0  0  0  0  0  0  0  0  0  0
    1.9381   -1.7742    3.6780 C   0  0  0  0  0  0  0  0  0  0  0  0
    2.0166   -2.7210    4.2489 H   0  0  0  0  0  0  0  0  0  0  0  0
    1.5146   -0.9832    4.3277 H   0  0  0  0  0  0  0  0  0  0  0  0
    2.9358   -1.4852    3.2939 H   0  0  0  0  0  0  0  0  0  0  0  0
  3 25  1  0  0  0  0
  4 24  2  0  0  0  0
  5 14  1  0  0  0  0
  6  5  1  0  0  0  0
  7  6  1  0  0  0  0
  8  6  1  0  0  0  0
  8 10  2  0  0  0  0
  9  8  1  0  0  0  0
 10 12  1  0  0  0  0
 11 10  1  0  0  0  0
 12 14  2  0  0  0  0
 12 13  1  0  0  0  0
 14 15  1  0  0  0  0
 15 16  1  0  0  0  0
 15 17  1  0  0  0  0
 18 15  1  0  0  0  0
 18 24  1  1  0  0  0
 19  2  1  6  0  0  0
 19  1  1  0  0  0  0
 19 18  1  0  0  0  0
 20 22  1  0  0  0  0
 20  1  1  0  0  0  0
 21 20  1  0  0  0  0
 23 20  1  0  0  0  0
 24  3  1  0  0  0  0
 25 26  1  0  0  0  0
 25 27  1  0  0  0  0
 28 25  1  0  0  0  0
M  END
