1,2,7
 OpenBabel05122313063D

 33 35  0  0  0  0  0  0  0  0999 V2000
   -2.5639   -0.5562   -0.0398 O   0  5  0  0  0  0  0  0  0  0  0  0
   -1.0419   -2.6240    0.0063 N   0  0  0  0  0  2  0  0  0  0  0  0
   -2.3558   -2.8878    0.0063 N   0  0  0  0  0  0  0  0  0  0  0  0
    2.3847   -3.8405    0.0400 C   0  0  0  0  0  0  0  0  0  0  0  0
    2.2635   -4.9356    0.0663 H   0  0  0  0  0  0  0  0  0  0  0  0
    1.2604   -3.0173    0.0239 C   0  0  0  0  0  0  0  0  0  0  0  0
    1.3975   -1.5605   -0.0107 C   0  0  0  0  0  3  0  0  0  0  0  0
    2.6745   -1.0334   -0.0317 C   0  0  0  0  0  0  0  0  0  0  0  0
    2.8390    0.0535   -0.0684 H   0  0  0  0  0  0  0  0  0  0  0  0
    5.1564   -1.3069   -0.0502 C   0  0  0  0  0  0  0  0  0  0  0  0
    5.2635   -0.2111   -0.0869 H   0  0  0  0  0  0  0  0  0  0  0  0
    6.2803   -2.1270   -0.0378 C   0  0  0  0  0  0  0  0  0  0  0  0
    7.2867   -1.6818   -0.0619 H   0  0  0  0  0  0  0  0  0  0  0  0
    6.1359   -3.5374    0.0045 C   0  0  0  0  0  0  0  0  0  0  0  0
    7.0302   -4.1788    0.0143 H   0  0  0  0  0  0  0  0  0  0  0  0
    4.8689   -4.1084    0.0315 C   0  0  0  0  0  0  0  0  0  0  0  0
    4.7510   -5.2032    0.0619 H   0  0  0  0  0  0  0  0  0  0  0  0
    3.7008   -3.2943    0.0190 C   0  0  0  0  0  0  0  0  0  0  0  0
    3.8480   -1.8611   -0.0203 C   0  0  0  0  0  3  0  0  0  0  0  0
   -0.0934   -3.5341    0.0339 C   0  0  0  0  0  0  0  0  0  0  0  0
   -0.3537   -4.6065    0.0588 H   0  0  0  0  0  0  0  0  0  0  0  0
   -3.0689   -1.7468   -0.0214 C   0  0  0  0  0  0  0  0  0  0  0  0
   -4.5505   -1.8766   -0.0360 C   0  0  0  0  0  0  0  0  0  0  0  0
   -5.1778   -3.1385    0.0519 C   0  0  0  0  0  0  0  0  0  0  0  0
   -4.5445   -4.0333    0.1301 H   0  0  0  0  0  0  0  0  0  0  0  0
   -6.5749   -3.2314    0.0398 C   0  0  0  0  0  0  0  0  0  0  0  0
   -7.0583   -4.2178    0.1107 H   0  0  0  0  0  0  0  0  0  0  0  0
   -7.3600   -2.0699   -0.0629 C   0  0  0  0  0  0  0  0  0  0  0  0
   -8.4583   -2.1460   -0.0729 H   0  0  0  0  0  0  0  0  0  0  0  0
   -6.7406   -0.8121   -0.1545 C   0  0  0  0  0  0  0  0  0  0  0  0
   -7.3537    0.0983   -0.2392 H   0  0  0  0  0  0  0  0  0  0  0  0
   -5.3434   -0.7141   -0.1407 C   0  0  0  0  0  0  0  0  0  0  0  0
   -4.8355    0.2583   -0.2172 H   0  0  0  0  0  0  0  0  0  0  0  0
  1 22  1  0  0  0  0
  2 20  1  0  0  0  0
  3  2  1  0  0  0  0
  4  5  1  0  0  0  0
  6 20  2  0  0  0  0
  6  4  1  0  0  0  0
  7  6  1  0  0  0  0
  8 19  1  0  0  0  0
  8  7  2  0  0  0  0
  9  8  1  0  0  0  0
 10 12  2  0  0  0  0
 10 19  1  0  0  0  0
 11 10  1  0  0  0  0
 12 14  1  0  0  0  0
 13 12  1  0  0  0  0
 14 15  1  0  0  0  0
 14 16  2  0  0  0  0
 16 17  1  0  0  0  0
 18 16  1  0  0  0  0
 18  4  2  0  0  0  0
 19 18  1  0  0  0  0
 20 21  1  0  0  0  0
 22  3  2  0  0  0  0
 23 22  1  0  0  0  0
 23 24  1  0  0  0  0
 24 25  1  0  0  0  0
 26 24  2  0  0  0  0
 26 27  1  0  0  0  0
 28 26  1  0  0  0  0
 29 28  1  0  0  0  0
 30 32  1  0  0  0  0
 30 28  2  0  0  0  0
 31 30  1  0  0  0  0
 32 23  2  0  0  0  0
 33 32  1  0  0  0  0
M  CHG  1   1  -1
M  END
