2,5,7
 OpenBabel05122313063D

 35 36  0  0  0  0  0  0  0  0999 V2000
   -8.8424    0.3516   -0.0571 Cl  0  0  0  0  0  0  0  0  0  0  0  0
   -2.1266   -0.0201   -0.0455 O   0  5  0  0  0  0  0  0  0  0  0  0
    5.2448    2.2232   -0.0807 O   0  0  0  0  0  0  0  0  0  0  0  0
    1.6805    5.4101    0.0557 O   0  0  0  0  0  0  0  0  0  0  0  0
   -1.0163    2.3005   -0.0035 N   0  0  0  0  0  2  0  0  0  0  0  0
   -2.3630    2.3117    0.0006 N   0  0  0  0  0  0  0  0  0  0  0  0
    1.5732    1.7276   -0.0285 C   0  0  0  0  0  2  0  0  0  0  0  0
    2.9359    1.4175   -0.0577 C   0  0  0  0  0  0  0  0  0  0  0  0
    3.2671    0.3745   -0.1024 H   0  0  0  0  0  0  0  0  0  0  0  0
    3.9038    2.4525   -0.0494 C   0  0  0  0  0  0  0  0  0  0  0  0
    3.5179    3.8067   -0.0080 C   0  0  0  0  0  0  0  0  0  0  0  0
    4.3075    4.5673   -0.0042 H   0  0  0  0  0  0  0  0  0  0  0  0
    2.1521    4.1325    0.0200 C   0  0  0  0  0  0  0  0  0  0  0  0
    1.1677    3.1050    0.0090 C   0  0  0  0  0  0  0  0  0  0  0  0
   -0.2521    3.3706    0.0235 C   0  0  0  0  0  0  0  0  0  0  0  0
   -0.6993    4.3775    0.0515 H   0  0  0  0  0  0  0  0  0  0  0  0
   -2.8447    1.0635   -0.0238 C   0  0  0  0  0  0  0  0  0  0  0  0
   -4.3227    0.9092   -0.0329 C   0  0  0  0  0  0  0  0  0  0  0  0
   -5.1820    2.0255    0.0605 C   0  0  0  0  0  0  0  0  0  0  0  0
   -4.7342    3.0260    0.1391 H   0  0  0  0  0  0  0  0  0  0  0  0
   -6.5705    1.8600    0.0545 C   0  0  0  0  0  0  0  0  0  0  0  0
   -7.2449    2.7246    0.1292 H   0  0  0  0  0  0  0  0  0  0  0  0
   -7.1087    0.5648   -0.0492 C   0  0  0  0  0  0  0  0  0  0  0  0
   -6.2720   -0.5595   -0.1476 C   0  0  0  0  0  0  0  0  0  0  0  0
   -6.7157   -1.5615   -0.2325 H   0  0  0  0  0  0  0  0  0  0  0  0
   -4.8841   -0.3808   -0.1384 C   0  0  0  0  0  0  0  0  0  0  0  0
   -4.2042   -1.2409   -0.2207 H   0  0  0  0  0  0  0  0  0  0  0  0
    5.6961    0.8813   -0.1529 C   0  0  0  0  0  0  0  0  0  0  0  0
    5.3749    0.2869    0.7317 H   0  0  0  0  0  0  0  0  0  0  0  0
    6.8009    0.9260   -0.1750 H   0  0  0  0  0  0  0  0  0  0  0  0
    5.3323    0.3675   -1.0700 H   0  0  0  0  0  0  0  0  0  0  0  0
    2.6119    6.4750    0.0653 C   0  0  0  0  0  0  0  0  0  0  0  0
    3.2746    6.4372    0.9587 H   0  0  0  0  0  0  0  0  0  0  0  0
    2.0197    7.4084    0.0950 H   0  0  0  0  0  0  0  0  0  0  0  0
    3.2471    6.4774   -0.8486 H   0  0  0  0  0  0  0  0  0  0  0  0
  1 23  1  0  0  0  0
  2 17  1  0  0  0  0
  3 10  1  0  0  0  0
  4 32  1  0  0  0  0
  5  6  1  0  0  0  0
  5 15  1  0  0  0  0
  7 14  1  0  0  0  0
  8 10  2  0  0  0  0
  8  7  1  0  0  0  0
  9  8  1  0  0  0  0
 10 11  1  0  0  0  0
 11 12  1  0  0  0  0
 11 13  2  0  0  0  0
 13  4  1  0  0  0  0
 14 13  1  0  0  0  0
 14 15  2  0  0  0  0
 15 16  1  0  0  0  0
 17  6  2  0  0  0  0
 18 17  1  0  0  0  0
 18 19  1  0  0  0  0
 19 20  1  0  0  0  0
 21 19  2  0  0  0  0
 21 22  1  0  0  0  0
 23 21  1  0  0  0  0
 24 26  1  0  0  0  0
 24 23  2  0  0  0  0
 25 24  1  0  0  0  0
 26 18  2  0  0  0  0
 27 26  1  0  0  0  0
 28  3  1  0  0  0  0
 28 29  1  0  0  0  0
 30 28  1  0  0  0  0
 31 28  1  0  0  0  0
 32 34  1  0  0  0  0
 32 33  1  0  0  0  0
 35 32  1  0  0  0  0
M  CHG  1   2  -1
M  END
