1,5,16
 OpenBabel05122313063D

 36 37  0  0  1  0  0  0  0  0999 V2000
   -0.9623   -2.1977    0.5494 O   0  5  0  0  0  0  0  0  0  0  0  0
    0.8435    1.4643   -2.9570 O   0  0  0  0  0  0  0  0  0  0  0  0
   -1.0530    2.9952    1.0005 O   0  0  0  0  0  0  0  0  0  0  0  0
    1.0365    2.1354    1.2255 O   0  0  0  0  0  0  0  0  0  0  0  0
   -2.1677   -0.0315   -0.4156 N   0  0  0  0  0  2  0  0  0  0  0  0
   -2.6157    1.1014   -0.9703 C   0  0  0  0  0  0  0  0  0  0  0  0
   -4.0208    1.3085   -1.0262 C   0  0  0  0  0  0  0  0  0  0  0  0
   -4.8861    0.3382   -0.5309 C   0  0  0  0  0  0  0  0  0  0  0  0
   -4.3949   -0.8810    0.0302 C   0  0  0  0  0  0  0  0  0  0  0  0
   -5.1709   -1.9580    0.5395 C   0  0  0  0  0  0  0  0  0  0  0  0
   -4.5134   -3.0880    1.0335 C   0  0  0  0  0  0  0  0  0  0  0  0
   -3.1036   -3.2194    1.0534 C   0  0  0  0  0  0  0  0  0  0  0  0
   -2.2796   -2.1785    0.5726 C   0  0  0  0  0  0  0  0  0  0  0  0
   -2.9738   -1.0201    0.0681 C   0  0  1  0  0  3  0  0  0  0  0  0
   -1.5204    1.9648   -1.5150 C   0  0  0  0  0  0  0  0  0  0  0  0
   -0.1679    1.6821   -0.8148 C   0  0  2  0  0  3  0  0  0  0  0  0
   -0.1274    2.3478    0.5302 C   0  0  0  0  0  0  0  0  0  0  0  0
    1.1245    2.7644    2.5194 C   0  0  0  0  0  0  0  0  0  0  0  0
    1.5754    4.2127    2.4130 C   0  0  0  0  0  0  0  0  0  0  0  0
    0.9985    1.7489   -1.7651 C   0  0  0  0  0  0  0  0  0  0  0  0
    2.3705    2.1925   -1.2830 C   0  0  0  0  0  0  0  0  0  0  0  0
   -4.4081    2.2397   -1.4630 H   0  0  0  0  0  0  0  0  0  0  0  0
   -5.9745    0.5022   -0.5740 H   0  0  0  0  0  0  0  0  0  0  0  0
   -6.2686   -1.8948    0.5336 H   0  0  0  0  0  0  0  0  0  0  0  0
   -5.1161   -3.9232    1.4244 H   0  0  0  0  0  0  0  0  0  0  0  0
   -2.6307   -4.1320    1.4444 H   0  0  0  0  0  0  0  0  0  0  0  0
   -1.3731    1.7200   -2.5898 H   0  0  0  0  0  0  0  0  0  0  0  0
   -1.7845    3.0399   -1.4426 H   0  0  0  0  0  0  0  0  0  0  0  0
    0.1368    2.6955    3.0186 H   0  0  0  0  0  0  0  0  0  0  0  0
    1.8595    2.1511    3.0785 H   0  0  0  0  0  0  0  0  0  0  0  0
    0.8164    4.8136    1.8756 H   0  0  0  0  0  0  0  0  0  0  0  0
    1.7055    4.6488    3.4243 H   0  0  0  0  0  0  0  0  0  0  0  0
    2.5420    4.2919    1.8758 H   0  0  0  0  0  0  0  0  0  0  0  0
    2.3309    3.2676   -1.0078 H   0  0  0  0  0  0  0  0  0  0  0  0
    2.7010    1.6590   -0.3752 H   0  0  0  0  0  0  0  0  0  0  0  0
    3.0885    2.0551   -2.1118 H   0  0  0  0  0  0  0  0  0  0  0  0
  1 13  1  0  0  0  0
  2 20  2  0  0  0  0
  4 18  1  0  0  0  0
  6  5  1  0  0  0  0
  7  6  2  0  0  0  0
  7  8  1  0  0  0  0
  8  9  2  0  0  0  0
  9 14  1  0  0  0  0
  9 10  1  0  0  0  0
 10 11  2  0  0  0  0
 11 12  1  0  0  0  0
 11 25  1  0  0  0  0
 12 26  1  0  0  0  0
 13 12  2  0  0  0  0
 14  5  1  6  0  0  0
 14 13  1  0  0  0  0
 15 28  1  0  0  0  0
 15  6  1  0  0  0  0
 15 16  1  0  0  0  0
 16 20  1  6  0  0  0
 16 17  1  0  0  0  0
 17  3  2  0  0  0  0
 17  4  1  0  0  0  0
 18 29  1  0  0  0  0
 18 30  1  0  0  0  0
 19 18  1  0  0  0  0
 19 32  1  0  0  0  0
 20 21  1  0  0  0  0
 21 34  1  0  0  0  0
 21 35  1  0  0  0  0
 22  7  1  0  0  0  0
 23  8  1  0  0  0  0
 24 10  1  0  0  0  0
 27 15  1  0  0  0  0
 31 19  1  0  0  0  0
 33 19  1  0  0  0  0
 36 21  1  0  0  0  0
M  CHG  1   1  -1
M  END
