1,2,4
 OpenBabel05122313063D

 29 29  0  0  1  0  0  0  0  0999 V2000
    0.1741   -2.0611   -0.2907 O   0  0  0  0  0  1  0  0  0  0  0  0
   -0.4729    2.0096    0.0195 N   0  0  0  0  0  0  0  0  0  0  0  0
    2.5073   -1.9919    0.0323 N   0  0  0  0  0  0  0  0  0  0  0  0
    1.6718    0.3390   -0.1385 C   0  0  0  0  0  2  0  0  0  0  0  0
    2.7370   -0.5767    0.0270 C   0  0  0  0  0  0  0  0  0  0  0  0
    4.0612   -0.0967    0.1785 C   0  0  0  0  0  0  0  0  0  0  0  0
    4.3246    1.2787    0.1647 C   0  0  0  0  0  0  0  0  0  0  0  0
    3.2814    2.1988   -0.0159 C   0  0  0  0  0  0  0  0  0  0  0  0
    1.9718    1.7233   -0.1779 C   0  0  1  0  0  3  0  0  0  0  0  0
    0.8035    2.6159   -0.4835 C   0  0  0  0  0  0  0  0  0  0  0  0
    0.9157    3.6469   -0.0768 H   0  0  0  0  0  0  0  0  0  0  0  0
    0.6968    2.7082   -1.5848 H   0  0  0  0  0  0  0  0  0  0  0  0
   -1.6180    2.5942   -0.7175 C   0  0  0  0  0  0  0  0  0  0  0  0
   -1.5311    2.3426   -1.7901 H   0  0  0  0  0  0  0  0  0  0  0  0
   -1.6186    3.7006   -0.5894 H   0  0  0  0  0  0  0  0  0  0  0  0
   -2.5570    2.1563   -0.3329 H   0  0  0  0  0  0  0  0  0  0  0  0
   -0.6303    2.2758    1.4725 C   0  0  0  0  0  0  0  0  0  0  0  0
   -0.7425    3.3707    1.6462 H   0  0  0  0  0  0  0  0  0  0  0  0
    0.2602    1.9061    2.0126 H   0  0  0  0  0  0  0  0  0  0  0  0
   -1.5274    1.7404    1.8352 H   0  0  0  0  0  0  0  0  0  0  0  0
    1.2977   -2.5823   -0.1461 C   0  0  0  0  0  3  0  0  0  0  0  0
    1.3470   -3.6935   -0.1617 H   0  0  0  0  0  0  0  0  0  0  0  0
    3.6527   -2.8843    0.2059 C   0  0  0  0  0  0  0  0  0  0  0  0
    4.1480   -2.7015    1.1800 H   0  0  0  0  0  0  0  0  0  0  0  0
    4.3946   -2.7381   -0.6043 H   0  0  0  0  0  0  0  0  0  0  0  0
    3.3045   -3.9319    0.1807 H   0  0  0  0  0  0  0  0  0  0  0  0
    4.9040   -0.7863    0.3113 H   0  0  0  0  0  0  0  0  0  0  0  0
    5.3587    1.6301    0.2944 H   0  0  0  0  0  0  0  0  0  0  0  0
    3.4901    3.2800   -0.0355 H   0  0  0  0  0  0  0  0  0  0  0  0
  1 21  1  0  0  0  0
  2 17  1  0  0  0  0
  3 23  1  0  0  0  0
  4  5  1  0  0  0  0
  5  3  1  0  0  0  0
  5  6  2  0  0  0  0
  6 27  1  0  0  0  0
  7  6  1  0  0  0  0
  7 28  1  0  0  0  0
  8  7  2  0  0  0  0
  9 10  1  6  0  0  0
  9  4  1  0  0  0  0
  9  8  1  0  0  0  0
 10 11  1  0  0  0  0
 10  2  1  0  0  0  0
 12 10  1  0  0  0  0
 13 15  1  0  0  0  0
 13 16  1  0  0  0  0
 13  2  1  0  0  0  0
 14 13  1  0  0  0  0
 17 18  1  0  0  0  0
 17 20  1  0  0  0  0
 17 19  1  0  0  0  0
 21  3  1  0  0  0  0
 22 21  1  0  0  0  0
 23 24  1  0  0  0  0
 25 23  1  0  0  0  0
 26 23  1  0  0  0  0
 29  8  1  0  0  0  0
M  END
