1,5,11
 OpenBabel05122313063D

 36 36  0  0  0  0  0  0  0  0999 V2000
   -2.2179   -1.1141   -0.7336 O   0  0  0  0  0  1  0  0  0  0  0  0
   -2.8732    0.1264   -0.5383 C   0  0  0  0  0  0  0  0  0  0  0  0
   -3.8994    0.0309    0.5996 C   0  0  0  0  0  0  0  0  0  0  0  0
   -3.5015    0.6018   -1.8547 C   0  0  0  0  0  0  0  0  0  0  0  0
   -1.6951    0.9214   -0.1793 N   0  0  0  0  0  2  0  0  0  0  0  0
   -1.4224    2.1865    0.0641 C   0  0  0  0  0  0  0  0  0  0  0  0
   -2.4567    3.2873    0.1754 C   0  0  0  0  0  0  0  0  0  0  0  0
   -2.3679    3.9816    1.5453 C   0  0  0  0  0  0  0  0  0  0  0  0
   -2.3125    4.2896   -0.9842 C   0  0  0  0  0  0  0  0  0  0  0  0
   -0.0049    2.4101    0.1573 C   0  0  0  0  0  0  0  0  0  0  0  0
    0.8172    1.3039   -0.0288 C   0  0  0  0  0  2  0  0  0  0  0  0
    2.2749    1.5390   -0.0711 C   0  0  0  0  0  0  0  0  0  0  0  0
    2.8943    2.4230    0.8500 C   0  0  0  0  0  0  0  0  0  0  0  0
    4.2763    2.6486    0.8247 C   0  0  0  0  0  0  0  0  0  0  0  0
    5.0789    2.0106   -0.1356 C   0  0  0  0  0  0  0  0  0  0  0  0
    4.4794    1.1510   -1.0707 C   0  0  0  0  0  0  0  0  0  0  0  0
    3.0988    0.9096   -1.0358 C   0  0  0  0  0  0  0  0  0  0  0  0
   -3.3910   -0.2601    1.5389 H   0  0  0  0  0  0  0  0  0  0  0  0
   -4.6481   -0.7465    0.3502 H   0  0  0  0  0  0  0  0  0  0  0  0
   -4.4329    0.9886    0.7642 H   0  0  0  0  0  0  0  0  0  0  0  0
   -2.7121    0.6866   -2.6258 H   0  0  0  0  0  0  0  0  0  0  0  0
   -4.0178    1.5772   -1.7487 H   0  0  0  0  0  0  0  0  0  0  0  0
   -4.2398   -0.1528   -2.1898 H   0  0  0  0  0  0  0  0  0  0  0  0
   -3.4571    2.8159    0.0967 H   0  0  0  0  0  0  0  0  0  0  0  0
   -3.1538    4.7586    1.6392 H   0  0  0  0  0  0  0  0  0  0  0  0
   -1.3852    4.4773    1.6810 H   0  0  0  0  0  0  0  0  0  0  0  0
   -2.4981    3.2569    2.3738 H   0  0  0  0  0  0  0  0  0  0  0  0
   -3.0997    5.0686   -0.9226 H   0  0  0  0  0  0  0  0  0  0  0  0
   -2.4005    3.7844   -1.9663 H   0  0  0  0  0  0  0  0  0  0  0  0
   -1.3278    4.7983   -0.9541 H   0  0  0  0  0  0  0  0  0  0  0  0
    0.3946    3.4331    0.2600 H   0  0  0  0  0  0  0  0  0  0  0  0
    2.2751    2.9101    1.6188 H   0  0  0  0  0  0  0  0  0  0  0  0
    4.7328    3.3240    1.5649 H   0  0  0  0  0  0  0  0  0  0  0  0
    6.1653    2.1855   -0.1566 H   0  0  0  0  0  0  0  0  0  0  0  0
    5.0943    0.6587   -1.8400 H   0  0  0  0  0  0  0  0  0  0  0  0
    2.6437    0.2486   -1.7847 H   0  0  0  0  0  0  0  0  0  0  0  0
  1  2  1  0  0  0  0
  2  5  1  0  0  0  0
  2  3  1  0  0  0  0
  3 20  1  0  0  0  0
  3 18  1  0  0  0  0
  4 22  1  0  0  0  0
  4  2  1  0  0  0  0
  5  6  1  0  0  0  0
  6 10  2  0  0  0  0
  6  7  1  0  0  0  0
  7  8  1  0  0  0  0
  8 25  1  0  0  0  0
  8 26  1  0  0  0  0
  8 27  1  0  0  0  0
  9 30  1  0  0  0  0
  9 28  1  0  0  0  0
  9  7  1  0  0  0  0
 10 31  1  0  0  0  0
 11 10  1  0  0  0  0
 12 11  1  0  0  0  0
 12 13  1  0  0  0  0
 13 32  1  0  0  0  0
 14 13  2  0  0  0  0
 14 33  1  0  0  0  0
 15 14  1  0  0  0  0
 16 17  1  0  0  0  0
 16 15  2  0  0  0  0
 17 12  2  0  0  0  0
 19  3  1  0  0  0  0
 21  4  1  0  0  0  0
 23  4  1  0  0  0  0
 24  7  1  0  0  0  0
 29  9  1  0  0  0  0
 34 15  1  0  0  0  0
 35 16  1  0  0  0  0
 36 17  1  0  0  0  0
M  END
