4,5,32
 OpenBabel05122313063D

 37 39  0  0  1  0  0  0  0  0999 V2000
    0.8777    1.1144    2.2241 S   0  0  0  0  0  0  0  0  0  0  0  0
    0.9853    2.5745    2.4836 O   0  0  0  0  0  0  0  0  0  0  0  0
    0.1361    0.2653    3.2000 O   0  0  0  0  0  0  0  0  0  0  0  0
    0.2443    0.9000    0.7160 N   0  0  0  0  0  2  0  0  0  0  0  0
    1.6795   -1.2520   -0.4871 O   0  5  0  0  0  0  0  0  0  0  0  0
    2.6429   -0.4053   -0.8339 C   0  0  0  0  0  0  0  0  0  0  0  0
    3.9882   -0.8456   -0.6747 C   0  0  0  0  0  0  0  0  0  0  0  0
    4.1497   -1.8603   -0.2808 H   0  0  0  0  0  0  0  0  0  0  0  0
    5.0669   -0.0164   -0.9903 C   0  0  0  0  0  0  0  0  0  0  0  0
    6.0936   -0.3896   -0.8498 H   0  0  0  0  0  0  0  0  0  0  0  0
    4.8482    1.2858   -1.4754 C   0  0  0  0  0  0  0  0  0  0  0  0
    5.6930    1.9462   -1.7188 H   0  0  0  0  0  0  0  0  0  0  0  0
    3.5288    1.7228   -1.6534 C   0  0  0  0  0  0  0  0  0  0  0  0
    3.3370    2.7354   -2.0458 H   0  0  0  0  0  0  0  0  0  0  0  0
    2.4237    0.9056   -1.3521 C   0  0  0  0  0  0  0  0  0  0  0  0
    1.0189    1.4283   -1.5380 C   0  0  2  0  0  0  0  0  0  0  0  0
    1.0475    2.2407   -2.3009 H   0  0  0  0  0  0  0  0  0  0  0  0
    0.4326    2.0147   -0.2325 C   0  0  1  0  0  0  0  0  0  0  0  0
    1.1179    2.7728    0.1909 H   0  0  0  0  0  0  0  0  0  0  0  0
   -0.9378    2.6093   -0.4536 C   0  0  0  0  0  0  0  0  0  0  0  0
   -1.3813    3.7922    0.1518 C   0  0  0  0  0  0  0  0  0  0  0  0
   -0.6819    4.3675    0.7771 H   0  0  0  0  0  0  0  0  0  0  0  0
   -2.7108    4.2118   -0.0162 C   0  0  0  0  0  0  0  0  0  0  0  0
   -3.0537    5.1461    0.4540 H   0  0  0  0  0  0  0  0  0  0  0  0
   -3.6075    3.4412   -0.7788 C   0  0  0  0  0  0  0  0  0  0  0  0
   -4.6466    3.7775   -0.9138 H   0  0  0  0  0  0  0  0  0  0  0  0
   -3.1789    2.2432   -1.3658 C   0  0  0  0  0  0  0  0  0  0  0  0
   -3.8754    1.6427   -1.9717 H   0  0  0  0  0  0  0  0  0  0  0  0
   -1.8418    1.8161   -1.2082 C   0  0  0  0  0  0  0  0  0  0  0  0
   -1.3293    0.5828   -1.8031 C   0  0  0  0  0  3  0  0  0  0  0  0
   -2.0454   -0.0281   -2.3714 H   0  0  0  0  0  0  0  0  0  0  0  0
    0.0483    0.3722   -2.0135 C   0  0  0  0  0  3  0  0  0  0  0  0
    0.3780   -0.3204   -2.8039 H   0  0  0  0  0  0  0  0  0  0  0  0
    2.5677    0.4718    2.2450 C   0  0  0  0  0  0  0  0  0  0  0  0
    2.9337    0.5996    3.2806 H   0  0  0  0  0  0  0  0  0  0  0  0
    3.1790    1.0513    1.5306 H   0  0  0  0  0  0  0  0  0  0  0  0
    2.5421   -0.5930    1.9532 H   0  0  0  0  0  0  0  0  0  0  0  0
  1 34  1  0  0  0  0
  1  2  2  0  0  0  0
  1  3  2  0  0  0  0
  4  1  1  0  0  0  0
  6  7  1  0  0  0  0
  6  5  1  0  0  0  0
  7  8  1  0  0  0  0
  9 10  1  0  0  0  0
  9  7  2  0  0  0  0
 11  9  1  0  0  0  0
 12 11  1  0  0  0  0
 13 11  2  0  0  0  0
 13 15  1  0  0  0  0
 14 13  1  0  0  0  0
 15  6  2  0  0  0  0
 16 17  1  6  0  0  0
 16 15  1  0  0  0  0
 16 18  1  0  0  0  0
 18 19  1  1  0  0  0
 18  4  1  0  0  0  0
 20 18  1  0  0  0  0
 20 21  1  0  0  0  0
 21 22  1  0  0  0  0
 23 21  2  0  0  0  0
 23 24  1  0  0  0  0
 25 23  1  0  0  0  0
 26 25  1  0  0  0  0
 27 29  1  0  0  0  0
 27 25  2  0  0  0  0
 28 27  1  0  0  0  0
 29 20  2  0  0  0  0
 30 29  1  0  0  0  0
 31 30  1  0  0  0  0
 32 30  1  0  0  0  0
 32 16  1  0  0  0  0
 33 32  1  0  0  0  0
 34 35  1  0  0  0  0
 36 34  1  0  0  0  0
 37 34  1  0  0  0  0
M  CHG  1   5  -1
M  END
