2,4,5
q = -2.0, confidence = 0.94

 28 28  0  0  1  0  0  0  0  0999 V2000
   -2.4880   -4.6985    0.1811 Cl  0  0  0  0  0  0  0  0  0  0  0  0
    2.1883    1.6683   -0.6120 O   0  5  0  0  0  0  0  0  0  0  0  0
    4.1964    2.2399   -1.4555 O   0  0  0  0  0  0  0  0  0  0  0  0
    2.8708   -0.8768   -0.4220 N   0  0  0  0  0  2  0  0  0  0  0  0
    0.4665   -1.9683   -0.1317 C   0  0  0  0  0  2  0  0  0  0  0  0
   -0.7799   -2.5855    0.0446 C   0  0  0  0  0  0  0  0  0  0  0  0
   -1.6816   -2.0067    0.2798 H   0  0  0  0  0  0  0  0  0  0  0  0
   -0.9121   -3.9847   -0.0648 C   0  0  0  0  0  0  0  0  0  0  0  0
    0.1783   -4.8189   -0.3618 C   0  0  0  0  0  0  0  0  0  0  0  0
    0.0376   -5.9051   -0.4416 H   0  0  0  0  0  0  0  0  0  0  0  0
    1.4314   -4.2255   -0.5497 C   0  0  0  0  0  0  0  0  0  0  0  0
    2.3029   -4.8560   -0.7872 H   0  0  0  0  0  0  0  0  0  0  0  0
    1.5869   -2.8287   -0.4363 C   0  0  0  0  0  0  0  0  0  0  0  0
    2.8682   -2.1661   -0.5908 C   0  0  0  0  0  0  0  0  0  0  0  0
    3.8005   -2.7192   -0.8183 H   0  0  0  0  0  0  0  0  0  0  0  0
    3.9880    0.0368   -0.4649 C   0  0  1  0  0  0  0  0  0  0  0  0
    4.7585   -0.3140   -1.1876 H   0  0  0  0  0  0  0  0  0  0  0  0
    3.4428    1.4360   -0.9199 C   0  0  0  0  0  0  0  0  0  0  0  0
    4.6592    0.1920    0.9411 C   0  0  0  0  0  0  0  0  0  0  0  0
    3.9150    0.7140    1.5835 H   0  0  0  0  0  0  0  0  0  0  0  0
    4.9799   -1.1605    1.5852 C   0  0  0  0  0  0  0  0  0  0  0  0
    5.4924   -1.0052    2.5560 H   0  0  0  0  0  0  0  0  0  0  0  0
    5.6647   -1.7577    0.9448 H   0  0  0  0  0  0  0  0  0  0  0  0
    4.0739   -1.7658    1.7837 H   0  0  0  0  0  0  0  0  0  0  0  0
    5.9199    1.0588    0.8357 C   0  0  0  0  0  0  0  0  0  0  0  0
    5.7174    2.0169    0.3227 H   0  0  0  0  0  0  0  0  0  0  0  0
    6.7075    0.5304    0.2574 H   0  0  0  0  0  0  0  0  0  0  0  0
    6.3271    1.2666    1.8456 H   0  0  0  0  0  0  0  0  0  0  0  0
  3 18  2  0  0  0  0
  5  6  1  0  0  0  0
  6  7  1  0  0  0  0
  8  6  2  0  0  0  0
  8  1  1  0  0  0  0
  9  8  1  0  0  0  0
 10  9  1  0  0  0  0
 11 13  1  0  0  0  0
 11  9  2  0  0  0  0
 12 11  1  0  0  0  0
 13  5  1  0  0  0  0
 14 13  2  0  0  0  0
 14  4  1  0  0  0  0
 15 14  1  0  0  0  0
 16 17  1  6  0  0  0
 16  4  1  0  0  0  0
 16 19  1  0  0  0  0
 18  2  1  0  0  0  0
 18 16  1  0  0  0  0
 19 20  1  0  0  0  0
 19 21  1  0  0  0  0
 21 24  1  0  0  0  0
 21 22  1  0  0  0  0
 23 21  1  0  0  0  0
 25 19  1  0  0  0  0
 25 28  1  0  0  0  0
 26 25  1  0  0  0  0
 27 25  1  0  0  0  0
M  CHG  1   2  -1
M  END
