1,2,19
 OpenBabel05122313063D

 44 45  0  0  1  0  0  0  0  0999 V2000
   -0.9622   -2.1620   -0.5188 O   0  0  0  0  0  1  0  0  0  0  0  0
   -0.8939    0.0042   -0.3359 N   0  0  0  0  0  2  0  0  0  0  0  0
    0.1658    2.0090    0.2847 C   0  0  0  0  0  0  0  0  0  0  0  0
   -1.0278    1.3845   -0.1872 C   0  0  0  0  0  0  0  0  0  0  0  0
   -2.1303    2.1973   -0.5317 C   0  0  0  0  0  0  0  0  0  0  0  0
   -3.0411    1.7514   -0.9491 H   0  0  0  0  0  0  0  0  0  0  0  0
   -2.0520    3.5907   -0.3793 C   0  0  0  0  0  0  0  0  0  0  0  0
   -2.9192    4.2082   -0.6591 H   0  0  0  0  0  0  0  0  0  0  0  0
   -0.8856    4.1994    0.1072 C   0  0  0  0  0  0  0  0  0  0  0  0
   -0.8349    5.2923    0.2205 H   0  0  0  0  0  0  0  0  0  0  0  0
    0.2246    3.4014    0.4330 C   0  0  0  0  0  0  0  0  0  0  0  0
    1.1542    3.8604    0.8023 H   0  0  0  0  0  0  0  0  0  0  0  0
   -1.6543   -1.1018   -0.3229 C   0  0  2  0  0  3  0  0  0  0  0  0
    1.3004    1.0947    0.5631 C   0  0  0  0  0  0  0  0  0  0  0  0
    2.4225    0.8561   -0.2983 C   0  0  0  0  0  0  0  0  0  0  0  0
    3.1713   -0.2294    0.2584 C   0  0  0  0  0  0  0  0  0  0  0  0
    2.5166   -0.6412    1.4568 C   0  0  0  0  0  0  0  0  0  0  0  0
    2.8535   -1.4456    2.1200 H   0  0  0  0  0  0  0  0  0  0  0  0
    1.3592    0.1636    1.6584 C   0  0  2  0  0  3  0  0  0  0  0  0
    2.7685    1.6535   -1.5167 C   0  0  0  0  0  0  0  0  0  0  0  0
    1.8692    2.1328   -1.9499 H   0  0  0  0  0  0  0  0  0  0  0  0
    3.2408    1.0308   -2.3007 H   0  0  0  0  0  0  0  0  0  0  0  0
    3.4854    2.4638   -1.2626 H   0  0  0  0  0  0  0  0  0  0  0  0
    4.4320   -0.8194   -0.2941 C   0  0  0  0  0  0  0  0  0  0  0  0
    5.3273   -0.3461    0.1635 H   0  0  0  0  0  0  0  0  0  0  0  0
    4.5098   -0.6756   -1.3893 H   0  0  0  0  0  0  0  0  0  0  0  0
    4.4903   -1.9064   -0.0873 H   0  0  0  0  0  0  0  0  0  0  0  0
    0.3674    0.0444    2.7780 C   0  0  0  0  0  0  0  0  0  0  0  0
    0.1325   -1.0159    3.0050 H   0  0  0  0  0  0  0  0  0  0  0  0
   -0.5778    0.5679    2.5361 H   0  0  0  0  0  0  0  0  0  0  0  0
    0.7654    0.4961    3.7117 H   0  0  0  0  0  0  0  0  0  0  0  0
   -3.1595   -1.2414   -0.0512 C   0  0  0  0  0  0  0  0  0  0  0  0
   -3.4584   -2.7136    0.2909 C   0  0  0  0  0  0  0  0  0  0  0  0
   -4.5458   -2.8386    0.4682 H   0  0  0  0  0  0  0  0  0  0  0  0
   -2.9167   -3.0311    1.2032 H   0  0  0  0  0  0  0  0  0  0  0  0
   -3.1499   -3.3879   -0.5292 H   0  0  0  0  0  0  0  0  0  0  0  0
   -3.9292   -0.8737   -1.3408 C   0  0  0  0  0  0  0  0  0  0  0  0
   -3.7404    0.1634   -1.6766 H   0  0  0  0  0  0  0  0  0  0  0  0
   -5.0193   -0.9824   -1.1675 H   0  0  0  0  0  0  0  0  0  0  0  0
   -3.6444   -1.5515   -2.1701 H   0  0  0  0  0  0  0  0  0  0  0  0
   -3.5813   -0.3575    1.1395 C   0  0  0  0  0  0  0  0  0  0  0  0
   -3.4081    0.7202    0.9667 H   0  0  0  0  0  0  0  0  0  0  0  0
   -3.0275   -0.6472    2.0555 H   0  0  0  0  0  0  0  0  0  0  0  0
   -4.6625   -0.4989    1.3410 H   0  0  0  0  0  0  0  0  0  0  0  0
  2 13  1  0  0  0  0
  2  4  1  0  0  0  0
  3 11  1  0  0  0  0
  3 14  1  0  0  0  0
  4  3  2  0  0  0  0
  5  7  2  0  0  0  0
  5  4  1  0  0  0  0
  6  5  1  0  0  0  0
  7  9  1  0  0  0  0
  8  7  1  0  0  0  0
  9 10  1  0  0  0  0
  9 11  2  0  0  0  0
 11 12  1  0  0  0  0
 13  1  1  1  0  0  0
 13 32  1  0  0  0  0
 14 19  1  0  0  0  0
 15 16  1  0  0  0  0
 15 14  2  0  0  0  0
 16 17  2  0  0  0  0
 17 19  1  0  0  0  0
 17 18  1  0  0  0  0
 19 28  1  6  0  0  0
 20 23  1  0  0  0  0
 20 15  1  0  0  0  0
 21 20  1  0  0  0  0
 22 20  1  0  0  0  0
 24 27  1  0  0  0  0
 24 25  1  0  0  0  0
 24 16  1  0  0  0  0
 26 24  1  0  0  0  0
 28 29  1  0  0  0  0
 28 31  1  0  0  0  0
 30 28  1  0  0  0  0
 32 33  1  0  0  0  0
 32 41  1  0  0  0  0
 33 34  1  0  0  0  0
 33 35  1  0  0  0  0
 36 33  1  0  0  0  0
 37 39  1  0  0  0  0
 37 32  1  0  0  0  0
 38 37  1  0  0  0  0
 40 37  1  0  0  0  0
 41 44  1  0  0  0  0
 41 43  1  0  0  0  0
 42 41  1  0  0  0  0
M  END
