2,3,6
 OpenBabel05122313063D

 15 14  0  0  1  0  0  0  0  0999 V2000
   -1.1026   -0.8343   -2.1185 S   0  0  0  0  0  1  0  0  0  0  0  0
   -2.3065    0.8814    0.1047 N   0  0  0  0  0  2  0  0  0  0  0  0
   -0.6318    0.5101    1.9210 O   0  5  0  0  0  0  0  0  0  0  0  0
   -1.2912    2.2129    3.2499 O   0  0  0  0  0  0  0  0  0  0  0  0
   -4.5133    0.4034   -0.5304 O   0  0  0  0  0  0  0  0  0  0  0  0
   -2.6227   -0.9237   -1.2956 C   0  0  1  0  0  3  0  0  0  0  0  0
   -3.2859    0.2371   -0.5987 C   0  0  0  0  0  0  0  0  0  0  0  0
   -2.5453    1.7561    1.2143 C   0  0  0  0  0  0  0  0  0  0  0  0
   -1.4164    1.5131    2.2476 C   0  0  0  0  0  0  0  0  0  0  0  0
   -3.4415   -2.1841   -1.3809 C   0  0  0  0  0  0  0  0  0  0  0  0
   -4.0339   -2.1976   -2.3234 H   0  0  0  0  0  0  0  0  0  0  0  0
   -4.1611   -2.2419   -0.5402 H   0  0  0  0  0  0  0  0  0  0  0  0
   -2.7814   -3.0727   -1.3747 H   0  0  0  0  0  0  0  0  0  0  0  0
   -2.5301    2.8379    0.9421 H   0  0  0  0  0  0  0  0  0  0  0  0
   -3.5428    1.5707    1.6796 H   0  0  0  0  0  0  0  0  0  0  0  0
  2  8  1  0  0  0  0
  3  9  1  0  0  0  0
  6  1  1  6  0  0  0
  6  7  1  0  0  0  0
  7  5  2  0  0  0  0
  7  2  1  0  0  0  0
  8 15  1  0  0  0  0
  8  9  1  0  0  0  0
  9  4  2  0  0  0  0
 10 13  1  0  0  0  0
 10  6  1  0  0  0  0
 10 12  1  0  0  0  0
 11 10  1  0  0  0  0
 14  8  1  0  0  0  0
M  CHG  1   3  -1
M  END
