1,4,19
 OpenBabel05122313063D

 25 24  0  0  1  0  0  0  0  0999 V2000
   -1.2011   -2.2202    0.0308 O   0  5  0  0  0  0  0  0  0  0  0  0
   -2.7394   -3.8698    0.2260 O   0  0  0  0  0  0  0  0  0  0  0  0
   -4.1462    0.5226   -0.2126 O   0  0  0  0  0  0  0  0  0  0  0  0
   -3.1366   -0.4095   -0.1533 N   0  0  0  0  0  2  0  0  0  0  0  0
   -2.4122   -2.6904    0.0964 C   0  0  0  0  0  0  0  0  0  0  0  0
   -3.5315   -1.6410   -0.0105 C   0  0  1  0  0  3  0  0  0  0  0  0
   -4.9607   -2.0468    0.0544 C   0  0  0  0  0  0  0  0  0  0  0  0
   -5.4484   -1.6146    0.9536 H   0  0  0  0  0  0  0  0  0  0  0  0
   -5.0025   -3.1502    0.0970 H   0  0  0  0  0  0  0  0  0  0  0  0
   -5.5206   -1.6601   -0.8217 H   0  0  0  0  0  0  0  0  0  0  0  0
   -2.6296    2.5082    0.1312 C   0  0  0  0  0  0  0  0  0  0  0  0
   -2.6610    3.9935   -0.2946 C   0  0  0  0  0  0  0  0  0  0  0  0
   -2.5065    4.1043   -1.3880 H   0  0  0  0  0  0  0  0  0  0  0  0
   -1.8510    4.5542    0.2136 H   0  0  0  0  0  0  0  0  0  0  0  0
   -3.6282    4.4721   -0.0314 H   0  0  0  0  0  0  0  0  0  0  0  0
   -3.7063    1.7958   -0.7129 C   0  0  0  0  0  0  0  0  0  0  0  0
   -3.3609    1.6803   -1.7654 H   0  0  0  0  0  0  0  0  0  0  0  0
   -4.6472    2.3818   -0.7148 H   0  0  0  0  0  0  0  0  0  0  0  0
   -1.2260    1.9566   -0.1605 C   0  0  0  0  0  3  0  0  0  0  0  0
   -0.5016    2.4224    0.5371 H   0  0  0  0  0  0  0  0  0  0  0  0
   -0.9076    2.2329   -1.1922 H   0  0  0  0  0  0  0  0  0  0  0  0
   -2.9669    2.3936    1.6277 C   0  0  0  0  0  0  0  0  0  0  0  0
   -2.2451    2.9873    2.2245 H   0  0  0  0  0  0  0  0  0  0  0  0
   -2.9046    1.3432    1.9745 H   0  0  0  0  0  0  0  0  0  0  0  0
   -3.9869    2.7714    1.8481 H   0  0  0  0  0  0  0  0  0  0  0  0
  1  5  1  0  0  0  0
  3  4  1  0  0  0  0
  5  2  2  0  0  0  0
  6  4  1  1  0  0  0
  6  7  1  0  0  0  0
  6  5  1  0  0  0  0
  7  9  1  0  0  0  0
  7  8  1  0  0  0  0
 10  7  1  0  0  0  0
 11 22  1  0  0  0  0
 12 15  1  0  0  0  0
 12 11  1  0  0  0  0
 12 14  1  0  0  0  0
 13 12  1  0  0  0  0
 16  3  1  0  0  0  0
 16 11  1  0  0  0  0
 17 16  1  0  0  0  0
 18 16  1  0  0  0  0
 19 11  1  0  0  0  0
 19 20  1  0  0  0  0
 21 19  1  0  0  0  0
 22 25  1  0  0  0  0
 22 24  1  0  0  0  0
 22 23  1  0  0  0  0
M  CHG  1   1  -1
M  END
