1,3,13
 OpenBabel05122313063D

 40 41  0  0  0  0  0  0  0  0999 V2000
   -1.9278   -0.0249    0.0979 O   0  5  0  0  0  0  0  0  0  0  0  0
   -8.2520    0.8178   -0.1801 O   0  0  0  0  0  0  0  0  0  0  0  0
   -0.7158    2.2569    0.4628 N   0  0  0  0  0  2  0  0  0  0  0  0
   -2.0712    2.2763    0.4838 N   0  0  0  0  0  0  0  0  0  0  0  0
    1.3464    3.5908    0.3402 C   0  0  0  0  0  0  0  0  0  0  0  0
    2.2828    2.5139    0.4779 C   0  0  0  0  0  0  0  0  0  0  0  0
    3.6304    2.7427    0.1282 C   0  0  0  0  0  0  0  0  0  0  0  0
    4.3404    1.9043    0.2199 H   0  0  0  0  0  0  0  0  0  0  0  0
    4.1013    3.9966   -0.2896 C   0  0  0  0  0  0  0  0  0  0  0  0
    3.1792    5.0622   -0.3391 C   0  0  0  0  0  0  0  0  0  0  0  0
    3.5287    6.0621   -0.6444 H   0  0  0  0  0  0  0  0  0  0  0  0
    1.8228    4.8894   -0.0340 C   0  0  0  0  0  0  0  0  0  0  0  0
    1.9136    1.1882    1.0381 C   0  0  0  0  0  3  0  0  0  0  0  0
    1.5890    1.2872    2.1024 H   0  0  0  0  0  0  0  0  0  0  0  0
    2.7830    0.5037    1.0195 H   0  0  0  0  0  0  0  0  0  0  0  0
    5.5459    4.2123   -0.6611 C   0  0  0  0  0  0  0  0  0  0  0  0
    6.1457    3.2919   -0.5235 H   0  0  0  0  0  0  0  0  0  0  0  0
    6.0060    5.0147   -0.0470 H   0  0  0  0  0  0  0  0  0  0  0  0
    5.6460    4.5278   -1.7213 H   0  0  0  0  0  0  0  0  0  0  0  0
    0.8889    6.0705   -0.1527 C   0  0  0  0  0  0  0  0  0  0  0  0
    0.1193    5.9142   -0.9374 H   0  0  0  0  0  0  0  0  0  0  0  0
    1.4499    6.9879   -0.4139 H   0  0  0  0  0  0  0  0  0  0  0  0
    0.3440    6.2693    0.7937 H   0  0  0  0  0  0  0  0  0  0  0  0
   -0.0839    3.4106    0.4889 C   0  0  0  0  0  3  0  0  0  0  0  0
   -0.7418    4.2953    0.5188 H   0  0  0  0  0  0  0  0  0  0  0  0
   -2.6023    1.0692    0.2434 C   0  0  0  0  0  0  0  0  0  0  0  0
   -4.0805    0.9967    0.1345 C   0  0  0  0  0  0  0  0  0  0  0  0
   -4.7059   -0.2516   -0.0480 C   0  0  0  0  0  0  0  0  0  0  0  0
   -4.0731   -1.1498   -0.0958 H   0  0  0  0  0  0  0  0  0  0  0  0
   -6.0987   -0.3579   -0.1589 C   0  0  0  0  0  0  0  0  0  0  0  0
   -6.5550   -1.3470   -0.2982 H   0  0  0  0  0  0  0  0  0  0  0  0
   -6.8943    0.8054   -0.0850 C   0  0  0  0  0  0  0  0  0  0  0  0
   -6.2755    2.0632    0.1019 C   0  0  0  0  0  0  0  0  0  0  0  0
   -6.9175    2.9543    0.1572 H   0  0  0  0  0  0  0  0  0  0  0  0
   -4.8901    2.1552    0.2099 C   0  0  0  0  0  0  0  0  0  0  0  0
   -4.3979    3.1269    0.3549 H   0  0  0  0  0  0  0  0  0  0  0  0
   -8.9252   -0.4116   -0.3670 C   0  0  0  0  0  0  0  0  0  0  0  0
  -10.0042   -0.1742   -0.4179 H   0  0  0  0  0  0  0  0  0  0  0  0
   -8.7497   -1.1149    0.4781 H   0  0  0  0  0  0  0  0  0  0  0  0
   -8.6208   -0.9130   -1.3135 H   0  0  0  0  0  0  0  0  0  0  0  0
  1 26  1  0  0  0  0
  2 32  1  0  0  0  0
  3  4  1  0  0  0  0
  3 24  1  0  0  0  0
  5  6  1  0  0  0  0
  5 24  1  0  0  0  0
  6 13  1  0  0  0  0
  7  8  1  0  0  0  0
  7  6  2  0  0  0  0
  9  7  1  0  0  0  0
 10  9  2  0  0  0  0
 10 12  1  0  0  0  0
 11 10  1  0  0  0  0
 12  5  2  0  0  0  0
 13 14  1  0  0  0  0
 15 13  1  0  0  0  0
 16 17  1  0  0  0  0
 16  9  1  0  0  0  0
 16 18  1  0  0  0  0
 19 16  1  0  0  0  0
 20 12  1  0  0  0  0
 20 23  1  0  0  0  0
 21 20  1  0  0  0  0
 22 20  1  0  0  0  0
 24 25  1  0  0  0  0
 26  4  2  0  0  0  0
 27 35  1  0  0  0  0
 27 26  1  0  0  0  0
 28 27  2  0  0  0  0
 29 28  1  0  0  0  0
 30 32  2  0  0  0  0
 30 28  1  0  0  0  0
 31 30  1  0  0  0  0
 32 33  1  0  0  0  0
 33 34  1  0  0  0  0
 33 35  2  0  0  0  0
 35 36  1  0  0  0  0
 37  2  1  0  0  0  0
 37 39  1  0  0  0  0
 38 37  1  0  0  0  0
 40 37  1  0  0  0  0
M  CHG  1   1  -1
M  END
