4,5,11
 OpenBabel05122313063D

 54 54  0  0  1  0  0  0  0  0999 V2000
   -6.1934    1.2526   -1.4017 F   0  0  0  0  0  0  0  0  0  0  0  0
   -6.2907    1.4935    0.7608 F   0  0  0  0  0  0  0  0  0  0  0  0
   -5.0749    2.8607   -0.4256 F   0  0  0  0  0  0  0  0  0  0  0  0
    2.5640   -0.3524   -0.9544 O   0  0  0  0  0  1  0  0  0  0  0  0
    0.4658    0.2845    0.5872 N   0  0  0  0  0  2  0  0  0  0  0  0
    3.3046    1.7923   -0.9532 N   0  0  0  0  0  0  0  0  0  0  0  0
   -1.3737   -3.5904    0.6179 C   0  0  0  0  0  0  0  0  0  0  0  0
   -1.5841   -3.9232   -0.4160 H   0  0  0  0  0  0  0  0  0  0  0  0
   -2.2628   -3.8097    1.2527 H   0  0  0  0  0  0  0  0  0  0  0  0
   -0.5309   -4.2061    0.9799 H   0  0  0  0  0  0  0  0  0  0  0  0
   -1.0216   -2.1147    0.6897 C   0  0  0  0  0  3  0  0  0  0  0  0
   -0.6989   -1.8586    1.7261 H   0  0  0  0  0  0  0  0  0  0  0  0
   -2.0901   -1.1559    0.2867 C   0  0  0  0  0  0  0  0  0  0  0  0
   -3.3228   -1.5981   -0.2470 C   0  0  0  0  0  0  0  0  0  0  0  0
   -3.4527   -2.6652   -0.4699 H   0  0  0  0  0  0  0  0  0  0  0  0
   -4.3908   -0.7240   -0.4736 C   0  0  0  0  0  0  0  0  0  0  0  0
   -5.3339   -1.1054   -0.8918 H   0  0  0  0  0  0  0  0  0  0  0  0
   -4.2740    0.6419   -0.1518 C   0  0  0  0  0  0  0  0  0  0  0  0
   -3.0573    1.1209    0.3456 C   0  0  0  0  0  0  0  0  0  0  0  0
   -2.9422    2.1949    0.5557 H   0  0  0  0  0  0  0  0  0  0  0  0
   -1.9572    0.2557    0.5231 C   0  0  0  0  0  0  0  0  0  0  0  0
   -0.6779    0.8627    0.8369 C   0  0  0  0  0  3  0  0  0  0  0  0
   -0.6795    1.9044    1.2188 H   0  0  0  0  0  0  0  0  0  0  0  0
   -5.4553    1.5633   -0.3088 C   0  0  0  0  0  0  0  0  0  0  0  0
    1.7158    1.0014    0.8413 C   0  0  2  0  0  0  0  0  0  0  0  0
    1.4808    2.0758    0.9979 H   0  0  0  0  0  0  0  0  0  0  0  0
    2.5671    0.7801   -0.4251 C   0  0  2  0  0  3  0  0  0  0  0  0
    2.4522    0.5118    2.1565 C   0  0  0  0  0  0  0  0  0  0  0  0
    3.6153    1.4767    2.4536 C   0  0  0  0  0  0  0  0  0  0  0  0
    4.3609    1.4892    1.6333 H   0  0  0  0  0  0  0  0  0  0  0  0
    4.1423    1.1505    3.3724 H   0  0  0  0  0  0  0  0  0  0  0  0
    3.2605    2.5140    2.6295 H   0  0  0  0  0  0  0  0  0  0  0  0
    3.0108   -0.9166    2.0392 C   0  0  0  0  0  0  0  0  0  0  0  0
    2.2178   -1.6494    1.7812 H   0  0  0  0  0  0  0  0  0  0  0  0
    3.4591   -1.2142    3.0090 H   0  0  0  0  0  0  0  0  0  0  0  0
    3.7930   -0.9967    1.2600 H   0  0  0  0  0  0  0  0  0  0  0  0
    1.4415    0.5743    3.3152 C   0  0  0  0  0  0  0  0  0  0  0  0
    0.9856    1.5820    3.4118 H   0  0  0  0  0  0  0  0  0  0  0  0
    1.9535    0.3446    4.2710 H   0  0  0  0  0  0  0  0  0  0  0  0
    0.6252   -0.1626    3.1859 H   0  0  0  0  0  0  0  0  0  0  0  0
    3.2448    3.1923   -0.5236 C   0  0  0  0  0  0  0  0  0  0  0  0
    4.2403    3.6386   -0.7260 H   0  0  0  0  0  0  0  0  0  0  0  0
    3.1202    3.2407    0.5727 H   0  0  0  0  0  0  0  0  0  0  0  0
    2.1456    3.9853   -1.2313 C   0  0  0  0  0  0  0  0  0  0  0  0
    1.1431    3.5732   -0.9960 H   0  0  0  0  0  0  0  0  0  0  0  0
    2.2697    3.9548   -2.3323 H   0  0  0  0  0  0  0  0  0  0  0  0
    2.1660    5.0475   -0.9154 H   0  0  0  0  0  0  0  0  0  0  0  0
    4.1090    1.4908   -2.1492 C   0  0  0  0  0  0  0  0  0  0  0  0
    4.1485    2.4122   -2.7652 H   0  0  0  0  0  0  0  0  0  0  0  0
    3.5721    0.7157   -2.7289 H   0  0  0  0  0  0  0  0  0  0  0  0
    5.5125    1.0053   -1.7933 C   0  0  0  0  0  0  0  0  0  0  0  0
    5.4573    0.0611   -1.2168 H   0  0  0  0  0  0  0  0  0  0  0  0
    6.0653    1.7557   -1.1912 H   0  0  0  0  0  0  0  0  0  0  0  0
    6.0978    0.8085   -2.7135 H   0  0  0  0  0  0  0  0  0  0  0  0
  1 24  1  0  0  0  0
  3 24  1  0  0  0  0
  5 22  1  0  0  0  0
  5 25  1  0  0  0  0
  6 41  1  0  0  0  0
  6 27  1  0  0  0  0
  7 11  1  0  0  0  0
  7 10  1  0  0  0  0
  7  9  1  0  0  0  0
  8  7  1  0  0  0  0
 11 12  1  0  0  0  0
 13 21  1  0  0  0  0
 13 11  1  0  0  0  0
 14 13  2  0  0  0  0
 15 14  1  0  0  0  0
 16 14  1  0  0  0  0
 16 18  2  0  0  0  0
 17 16  1  0  0  0  0
 18 19  1  0  0  0  0
 19 21  2  0  0  0  0
 19 20  1  0  0  0  0
 21 22  1  0  0  0  0
 22 23  1  0  0  0  0
 24 18  1  0  0  0  0
 24  2  1  0  0  0  0
 25 26  1  1  0  0  0
 25 28  1  0  0  0  0
 27  4  1  1  0  0  0
 27 25  1  0  0  0  0
 28 29  1  0  0  0  0
 28 37  1  0  0  0  0
 29 32  1  0  0  0  0
 29 31  1  0  0  0  0
 30 29  1  0  0  0  0
 33 28  1  0  0  0  0
 33 35  1  0  0  0  0
 34 33  1  0  0  0  0
 36 33  1  0  0  0  0
 37 38  1  0  0  0  0
 37 39  1  0  0  0  0
 40 37  1  0  0  0  0
 41 43  1  0  0  0  0
 42 41  1  0  0  0  0
 44 45  1  0  0  0  0
 44 47  1  0  0  0  0
 44 41  1  0  0  0  0
 46 44  1  0  0  0  0
 48 51  1  0  0  0  0
 48  6  1  0  0  0  0
 49 48  1  0  0  0  0
 50 48  1  0  0  0  0
 51 52  1  0  0  0  0
 51 53  1  0  0  0  0
 54 51  1  0  0  0  0
M  END
