1,2,5
q = -2.0, confidence = 0.704

 47 50  0  0  1  0  0  0  0  0999 V2000
    1.6366    0.1516    0.2064 O   0  5  0  0  0  0  0  0  0  0  0  0
   -0.1273    2.0530    0.2674 N   0  0  0  0  0  2  0  0  0  0  0  0
    1.1746    2.4337    0.2698 N   0  0  0  0  0  0  0  0  0  0  0  0
    7.6438    2.3962    0.1018 N   0  0  0  0  0  0  0  0  0  0  0  0
   -2.4359    0.2957    0.5622 C   0  0  0  0  0  2  0  0  0  0  0  0
   -3.1931   -0.8031    0.9845 C   0  0  0  0  0  0  0  0  0  0  0  0
   -2.7049   -1.7730    1.1461 H   0  0  0  0  0  0  0  0  0  0  0  0
   -4.5940   -0.7537    1.2129 C   0  0  0  0  0  0  0  0  0  0  0  0
   -5.1208   -1.6614    1.5455 H   0  0  0  0  0  0  0  0  0  0  0  0
   -5.2755    0.4195    0.9809 C   0  0  0  0  0  0  0  0  0  0  0  0
   -6.3669    0.4855    1.1086 H   0  0  0  0  0  0  0  0  0  0  0  0
   -5.4616    5.1537   -0.2693 C   0  0  0  0  0  3  0  0  0  0  0  0
   -6.5548    5.0853   -0.1560 H   0  0  0  0  0  0  0  0  0  0  0  0
   -4.8625    6.3387   -0.6444 C   0  0  0  0  0  0  0  0  0  0  0  0
   -5.4680    7.2374   -0.8355 H   0  0  0  0  0  0  0  0  0  0  0  0
   -3.4475    6.3864   -0.7921 C   0  0  0  0  0  0  0  0  0  0  0  0
   -2.9636    7.3226   -1.1095 H   0  0  0  0  0  0  0  0  0  0  0  0
   -2.6686    5.2670   -0.5507 C   0  0  0  0  0  0  0  0  0  0  0  0
   -1.5855    5.3554   -0.7022 H   0  0  0  0  0  0  0  0  0  0  0  0
   -2.4629    2.8234    0.1138 C   0  0  0  0  0  0  0  0  0  0  0  0
   -5.2969    2.7745    0.3598 C   0  0  0  0  0  0  0  0  0  0  0  0
   -6.3899    2.7517    0.4967 H   0  0  0  0  0  0  0  0  0  0  0  0
   -4.6829    3.9768   -0.0218 C   0  0  0  0  0  0  0  0  0  0  0  0
   -3.2410    4.0161   -0.1483 C   0  0  0  0  0  0  0  0  0  0  0  0
   -3.1160    1.5677    0.4013 C   0  0  2  0  0  3  0  0  0  0  0  0
   -4.5659    1.5922    0.5732 C   0  0  0  0  0  0  0  0  0  0  0  0
   -1.0350    2.9927    0.1270 C   0  0  0  0  0  0  0  0  0  0  0  0
   -0.6092    4.0025    0.0330 H   0  0  0  0  0  0  0  0  0  0  0  0
    2.0149    1.3927    0.2356 C   0  0  0  0  0  0  0  0  0  0  0  0
    3.4635    1.6738    0.2077 C   0  0  0  0  0  0  0  0  0  0  0  0
    3.9755    2.9892    0.2597 C   0  0  0  0  0  0  0  0  0  0  0  0
    3.2640    3.8244    0.3267 H   0  0  0  0  0  0  0  0  0  0  0  0
    5.3471    3.2335    0.2261 C   0  0  0  0  0  0  0  0  0  0  0  0
    5.6991    4.2721    0.2703 H   0  0  0  0  0  0  0  0  0  0  0  0
    6.2819    2.1602    0.1351 C   0  0  0  0  0  0  0  0  0  0  0  0
    5.7583    0.8355    0.0789 C   0  0  0  0  0  0  0  0  0  0  0  0
    6.4345   -0.0260    0.0057 H   0  0  0  0  0  0  0  0  0  0  0  0
    4.3836    0.6064    0.1161 C   0  0  0  0  0  0  0  0  0  0  0  0
    3.9909   -0.4198    0.0697 H   0  0  0  0  0  0  0  0  0  0  0  0
    8.1467    3.7529    0.1586 C   0  0  0  0  0  0  0  0  0  0  0  0
    9.2510    3.7366    0.1232 H   0  0  0  0  0  0  0  0  0  0  0  0
    7.8442    4.2744    1.0951 H   0  0  0  0  0  0  0  0  0  0  0  0
    7.7880    4.3711   -0.6959 H   0  0  0  0  0  0  0  0  0  0  0  0
    8.5690    1.2867    0.0067 C   0  0  0  0  0  0  0  0  0  0  0  0
    9.6045    1.6723   -0.0037 H   0  0  0  0  0  0  0  0  0  0  0  0
    8.4184    0.6911   -0.9227 H   0  0  0  0  0  0  0  0  0  0  0  0
    8.4753    0.5862    0.8677 H   0  0  0  0  0  0  0  0  0  0  0  0
  1 29  1  0  0  0  0
  2  3  1  0  0  0  0
  4 35  1  0  0  0  0
  4 40  1  0  0  0  0
  5  6  1  0  0  0  0
  6  7  1  0  0  0  0
  6  8  2  0  0  0  0
  8  9  1  0  0  0  0
 10 11  1  0  0  0  0
 10  8  1  0  0  0  0
 12 13  1  0  0  0  0
 12 23  1  0  0  0  0
 14 12  1  0  0  0  0
 15 14  1  0  0  0  0
 16 14  2  0  0  0  0
 16 18  1  0  0  0  0
 17 16  1  0  0  0  0
 18 24  2  0  0  0  0
 19 18  1  0  0  0  0
 20 27  2  0  0  0  0
 20 25  1  0  0  0  0
 21 22  1  0  0  0  0
 21 26  1  0  0  0  0
 23 21  2  0  0  0  0
 24 23  1  0  0  0  0
 24 20  1  0  0  0  0
 25  5  1  1  0  0  0
 25 26  1  0  0  0  0
 26 10  2  0  0  0  0
 27  2  1  0  0  0  0
 28 27  1  0  0  0  0
 29  3  2  0  0  0  0
 30 29  1  0  0  0  0
 30 31  1  0  0  0  0
 31 32  1  0  0  0  0
 33 31  2  0  0  0  0
 33 34  1  0  0  0  0
 35 33  1  0  0  0  0
 36 38  1  0  0  0  0
 36 35  2  0  0  0  0
 37 36  1  0  0  0  0
 38 30  2  0  0  0  0
 39 38  1  0  0  0  0
 40 42  1  0  0  0  0
 41 40  1  0  0  0  0
 43 40  1  0  0  0  0
 44  4  1  0  0  0  0
 44 47  1  0  0  0  0
 45 44  1  0  0  0  0
 46 44  1  0  0  0  0
M  CHG  1   1  -1
M  END
