1,6,16
q = -2.0, confidence = 0.948

 43 44  0  0  1  0  0  0  0  0999 V2000
   -1.5672    1.9779    0.3616 O   0  5  0  0  0  0  0  0  0  0  0  0
    1.1699   -3.2739    0.8272 O   0  0  0  0  0  0  0  0  0  0  0  0
    1.5699   -1.1866    1.6144 O   0  0  0  0  0  0  0  0  0  0  0  0
    1.7396   -0.5382   -2.6396 O   0  0  0  0  0  0  0  0  0  0  0  0
    3.0052   -0.7508   -0.7730 O   0  0  0  0  0  0  0  0  0  0  0  0
   -2.2287   -0.5962   -0.2106 N   0  0  0  0  0  2  0  0  0  0  0  0
   -2.8367    1.6602    0.3780 C   0  0  0  0  0  0  0  0  0  0  0  0
   -3.8634    2.5870    0.6715 C   0  0  0  0  0  0  0  0  0  0  0  0
   -5.2175    2.1955    0.6865 C   0  0  0  0  0  0  0  0  0  0  0  0
   -5.6110    0.8860    0.4093 C   0  0  0  0  0  0  0  0  0  0  0  0
   -4.6202   -0.0841    0.1024 C   0  0  0  0  0  0  0  0  0  0  0  0
   -3.2389    0.3036    0.0880 C   0  0  1  0  0  3  0  0  0  0  0  0
   -4.9010   -1.4445   -0.2071 C   0  0  0  0  0  0  0  0  0  0  0  0
   -3.8694   -2.3139   -0.5066 C   0  0  0  0  0  0  0  0  0  0  0  0
   -2.5137   -1.8716   -0.5036 C   0  0  0  0  0  0  0  0  0  0  0  0
    0.7012   -1.3883   -0.6210 C   0  0  0  0  0  3  0  0  0  0  0  0
    1.8309   -0.8537   -1.4606 C   0  0  0  0  0  0  0  0  0  0  0  0
    4.1267   -0.2223   -1.5038 C   0  0  0  0  0  0  0  0  0  0  0  0
    5.2157    0.1213   -0.5074 C   0  0  0  0  0  0  0  0  0  0  0  0
    1.1668   -2.0643    0.6504 C   0  0  0  0  0  0  0  0  0  0  0  0
    2.1671   -1.7631    2.7934 C   0  0  0  0  0  0  0  0  0  0  0  0
    3.6577   -1.9902    2.5972 C   0  0  0  0  0  0  0  0  0  0  0  0
   -1.4168   -2.8630   -0.7898 C   0  0  0  0  0  0  0  0  0  0  0  0
   -0.1578   -2.3298   -1.4710 C   0  0  0  0  0  0  0  0  0  0  0  0
   -3.5715    3.6243    0.8911 H   0  0  0  0  0  0  0  0  0  0  0  0
   -5.9834    2.9507    0.9241 H   0  0  0  0  0  0  0  0  0  0  0  0
   -6.6702    0.5908    0.4203 H   0  0  0  0  0  0  0  0  0  0  0  0
   -5.9464   -1.7912   -0.2120 H   0  0  0  0  0  0  0  0  0  0  0  0
   -4.0715   -3.3663   -0.7533 H   0  0  0  0  0  0  0  0  0  0  0  0
    4.4628   -0.9811   -2.2434 H   0  0  0  0  0  0  0  0  0  0  0  0
    3.7974    0.6633   -2.0859 H   0  0  0  0  0  0  0  0  0  0  0  0
    4.8648    0.8937    0.2059 H   0  0  0  0  0  0  0  0  0  0  0  0
    5.5241   -0.7716    0.0718 H   0  0  0  0  0  0  0  0  0  0  0  0
    6.1062    0.5154   -1.0363 H   0  0  0  0  0  0  0  0  0  0  0  0
    1.6469   -2.7131    3.0298 H   0  0  0  0  0  0  0  0  0  0  0  0
    1.9682   -1.0307    3.6015 H   0  0  0  0  0  0  0  0  0  0  0  0
    4.1714   -1.0474    2.3243 H   0  0  0  0  0  0  0  0  0  0  0  0
    4.1117   -2.3809    3.5305 H   0  0  0  0  0  0  0  0  0  0  0  0
    3.8330   -2.7289    1.7912 H   0  0  0  0  0  0  0  0  0  0  0  0
   -1.1259   -3.3556    0.1648 H   0  0  0  0  0  0  0  0  0  0  0  0
   -1.8514   -3.6715   -1.4118 H   0  0  0  0  0  0  0  0  0  0  0  0
   -0.4093   -1.8065   -2.4143 H   0  0  0  0  0  0  0  0  0  0  0  0
    0.4580   -3.2134   -1.7477 H   0  0  0  0  0  0  0  0  0  0  0  0
  1  7  1  0  0  0  0
  3 21  1  0  0  0  0
  4 17  2  0  0  0  0
  7  8  2  0  0  0  0
  8  9  1  0  0  0  0
  8 25  1  0  0  0  0
  9 26  1  0  0  0  0
 10 27  1  0  0  0  0
 10  9  2  0  0  0  0
 11 10  1  0  0  0  0
 12  6  1  6  0  0  0
 12 11  1  0  0  0  0
 12  7  1  0  0  0  0
 13 11  2  0  0  0  0
 14 15  2  0  0  0  0
 14 13  1  0  0  0  0
 15  6  1  0  0  0  0
 16 20  1  0  0  0  0
 17  5  1  0  0  0  0
 17 16  1  0  0  0  0
 18  5  1  0  0  0  0
 18 19  1  0  0  0  0
 19 33  1  0  0  0  0
 19 32  1  0  0  0  0
 20  2  2  0  0  0  0
 20  3  1  0  0  0  0
 21 35  1  0  0  0  0
 21 36  1  0  0  0  0
 22 21  1  0  0  0  0
 22 38  1  0  0  0  0
 23 15  1  0  0  0  0
 23 40  1  0  0  0  0
 24 23  1  0  0  0  0
 24 16  1  0  0  0  0
 28 13  1  0  0  0  0
 29 14  1  0  0  0  0
 30 18  1  0  0  0  0
 31 18  1  0  0  0  0
 34 19  1  0  0  0  0
 37 22  1  0  0  0  0
 39 22  1  0  0  0  0
 41 23  1  0  0  0  0
 42 24  1  0  0  0  0
 43 24  1  0  0  0  0
M  CHG  1   1  -1
M  END
