2,44,45
q = -2.0, confidence = 0.884

 45 48  0  0  0  0  0  0  0  0999 V2000
   -2.5338   -0.4624   -0.0573 P   0  0  0  0  0  4  0  0  0  0  0  0
   -0.1931   -1.6362   -0.6958 C   0  0  0  0  0  3  0  0  0  0  0  0
   -1.5517   -1.9334   -0.3748 C   0  0  0  0  0  0  0  0  0  0  0  0
    0.6161   -2.7485   -1.0167 C   0  0  0  0  0  0  0  0  0  0  0  0
    1.6692   -2.6041   -1.2985 H   0  0  0  0  0  0  0  0  0  0  0  0
   -2.0716   -3.2402   -0.3368 C   0  0  0  0  0  0  0  0  0  0  0  0
   -3.1319   -3.4092   -0.0892 H   0  0  0  0  0  0  0  0  0  0  0  0
    0.1131   -4.0598   -0.9807 C   0  0  0  0  0  0  0  0  0  0  0  0
    0.7820   -4.8984   -1.2314 H   0  0  0  0  0  0  0  0  0  0  0  0
   -1.2242   -4.3170   -0.6321 C   0  0  0  0  0  0  0  0  0  0  0  0
   -1.6063   -5.3483   -0.6055 H   0  0  0  0  0  0  0  0  0  0  0  0
   -2.4831   -0.0603    1.7182 C   0  0  0  0  0  0  0  0  0  0  0  0
   -1.8189   -0.9169    2.6223 C   0  0  0  0  0  0  0  0  0  0  0  0
   -1.4056   -1.8724    2.2649 H   0  0  0  0  0  0  0  0  0  0  0  0
   -2.1805    0.6946    4.4086 C   0  0  0  0  0  0  0  0  0  0  0  0
   -2.0594    0.9921    5.4613 H   0  0  0  0  0  0  0  0  0  0  0  0
   -2.9988    1.1778    2.1662 C   0  0  0  0  0  0  0  0  0  0  0  0
   -3.5024    1.8575    1.4624 H   0  0  0  0  0  0  0  0  0  0  0  0
   -1.6750   -0.5389    3.9645 C   0  0  0  0  0  0  0  0  0  0  0  0
   -1.1615   -1.2114    4.6690 H   0  0  0  0  0  0  0  0  0  0  0  0
   -2.8391    1.5489    3.5091 C   0  0  0  0  0  0  0  0  0  0  0  0
   -3.2296    2.5184    3.8531 H   0  0  0  0  0  0  0  0  0  0  0  0
   -4.2741   -0.7814   -0.4929 C   0  0  0  0  0  0  0  0  0  0  0  0
   -4.6058   -0.8203   -1.8640 C   0  0  0  0  0  0  0  0  0  0  0  0
   -3.8264   -0.6107   -2.6133 H   0  0  0  0  0  0  0  0  0  0  0  0
   -6.9055   -1.3498   -1.2789 C   0  0  0  0  0  0  0  0  0  0  0  0
   -7.9392   -1.5685   -1.5873 H   0  0  0  0  0  0  0  0  0  0  0  0
   -5.9213   -1.1035   -2.2524 C   0  0  0  0  0  0  0  0  0  0  0  0
   -6.1834   -1.1284   -3.3208 H   0  0  0  0  0  0  0  0  0  0  0  0
   -5.2591   -1.0287    0.4823 C   0  0  0  0  0  0  0  0  0  0  0  0
   -4.9958   -0.9895    1.5502 H   0  0  0  0  0  0  0  0  0  0  0  0
   -6.5751   -1.3131    0.0848 C   0  0  0  0  0  0  0  0  0  0  0  0
   -7.3476   -1.5017    0.8456 H   0  0  0  0  0  0  0  0  0  0  0  0
   -2.5052    4.8323   -1.0273 C   0  0  0  0  0  0  0  0  0  0  0  0
   -2.6553    5.9234   -1.0242 H   0  0  0  0  0  0  0  0  0  0  0  0
   -2.1148    2.0467   -1.0230 C   0  0  0  0  0  0  0  0  0  0  0  0
   -0.9774    2.9149   -0.9306 C   0  0  0  0  0  0  0  0  0  0  0  0
   -3.6140    3.9719   -1.1270 C   0  0  0  0  0  0  0  0  0  0  0  0
   -4.6330    4.3787   -1.2089 H   0  0  0  0  0  0  0  0  0  0  0  0
   -3.4131    2.5810   -1.1337 C   0  0  0  0  0  0  0  0  0  0  0  0
   -4.2727    1.9002   -1.2281 H   0  0  0  0  0  0  0  0  0  0  0  0
   -1.2066    4.3151   -0.9341 C   0  0  0  0  0  0  0  0  0  0  0  0
   -0.3325    4.9792   -0.8539 H   0  0  0  0  0  0  0  0  0  0  0  0
   -1.8086    0.6586   -1.0349 N   0  0  0  0  0  2  0  0  0  0  0  0
    0.2458    2.4066   -0.8462 O   0  5  0  0  0  0  0  0  0  0  0  0
  1 12  1  0  0  0  0
  2  3  1  0  0  0  0
  3  6  2  0  0  0  0
  3  1  1  0  0  0  0
  4  8  1  0  0  0  0
  4  2  2  0  0  0  0
  5  4  1  0  0  0  0
  6  7  1  0  0  0  0
  8 10  2  0  0  0  0
  9  8  1  0  0  0  0
 10 11  1  0  0  0  0
 10  6  1  0  0  0  0
 12 17  2  0  0  0  0
 12 13  1  0  0  0  0
 13 19  2  0  0  0  0
 14 13  1  0  0  0  0
 15 16  1  0  0  0  0
 17 21  1  0  0  0  0
 18 17  1  0  0  0  0
 19 15  1  0  0  0  0
 19 20  1  0  0  0  0
 21 22  1  0  0  0  0
 21 15  2  0  0  0  0
 23  1  1  0  0  0  0
 23 30  1  0  0  0  0
 24 23  2  0  0  0  0
 25 24  1  0  0  0  0
 26 32  1  0  0  0  0
 27 26  1  0  0  0  0
 28 24  1  0  0  0  0
 28 26  2  0  0  0  0
 29 28  1  0  0  0  0
 30 31  1  0  0  0  0
 32 30  2  0  0  0  0
 32 33  1  0  0  0  0
 34 35  1  0  0  0  0
 34 42  1  0  0  0  0
 36 37  1  0  0  0  0
 37 45  1  0  0  0  0
 38 34  2  0  0  0  0
 39 38  1  0  0  0  0
 40 38  1  0  0  0  0
 40 36  2  0  0  0  0
 41 40  1  0  0  0  0
 42 37  2  0  0  0  0
 42 43  1  0  0  0  0
 44 36  1  0  0  0  0
 44  1  1  0  0  0  0
M  CHG  1  45  -1
M  END
