1,2,13
q = -1.0, confidence = 0.0

 37 38  0  0  1  0  0  0  0  0999 V2000
    2.1255   -1.0914   -0.2576 O   0  0  0  0  0  1  0  0  0  0  0  0
    0.0849    0.5695    0.2718 N   0  0  0  0  0  2  0  0  0  0  0  0
    1.3922    0.9855    0.3198 N   0  0  0  0  0  0  0  0  0  0  0  0
    1.5940    1.9579    0.5739 H   0  0  0  0  0  0  0  0  0  0  0  0
   -2.2664    1.2173    0.2962 C   0  0  0  0  0  0  0  0  0  0  0  0
   -2.7921   -0.1175    0.2514 C   0  0  0  0  0  0  0  0  0  0  0  0
   -4.1478   -0.2844   -0.1001 C   0  0  0  0  0  0  0  0  0  0  0  0
   -4.5429   -1.3107   -0.1595 H   0  0  0  0  0  0  0  0  0  0  0  0
   -5.0086    0.7987   -0.3313 C   0  0  0  0  0  0  0  0  0  0  0  0
   -4.4871    2.1040   -0.1949 C   0  0  0  0  0  0  0  0  0  0  0  0
   -5.1529    2.9680   -0.3517 H   0  0  0  0  0  0  0  0  0  0  0  0
   -3.1421    2.3372    0.1082 C   0  0  0  0  0  0  0  0  0  0  0  0
   -2.0249   -1.3226    0.6639 C   0  0  0  0  0  3  0  0  0  0  0  0
   -2.5436   -2.2604    0.3940 H   0  0  0  0  0  0  0  0  0  0  0  0
   -1.8535   -1.3161    1.7668 H   0  0  0  0  0  0  0  0  0  0  0  0
   -6.4502    0.5885   -0.7118 C   0  0  0  0  0  0  0  0  0  0  0  0
   -6.7435   -0.4758   -0.6358 H   0  0  0  0  0  0  0  0  0  0  0  0
   -6.6354    0.9159   -1.7571 H   0  0  0  0  0  0  0  0  0  0  0  0
   -7.1296    1.1832   -0.0669 H   0  0  0  0  0  0  0  0  0  0  0  0
   -2.6419    3.7606    0.1879 C   0  0  0  0  0  0  0  0  0  0  0  0
   -1.9077    3.9911   -0.6131 H   0  0  0  0  0  0  0  0  0  0  0  0
   -2.1478    3.9793    1.1580 H   0  0  0  0  0  0  0  0  0  0  0  0
   -3.4796    4.4746    0.0780 H   0  0  0  0  0  0  0  0  0  0  0  0
   -0.8531    1.4782    0.4317 C   0  0  0  0  0  3  0  0  0  0  0  0
   -0.5246    2.5226    0.5854 H   0  0  0  0  0  0  0  0  0  0  0  0
    2.3890    0.1041   -0.0304 C   0  0  1  0  0  3  0  0  0  0  0  0
    3.7749    0.6408   -0.0937 C   0  0  0  0  0  0  0  0  0  0  0  0
    4.8314   -0.2914   -0.0180 C   0  0  0  0  0  0  0  0  0  0  0  0
    4.5801   -1.3571    0.0832 H   0  0  0  0  0  0  0  0  0  0  0  0
    6.1596    0.1463   -0.0710 C   0  0  0  0  0  0  0  0  0  0  0  0
    6.9787   -0.5852   -0.0048 H   0  0  0  0  0  0  0  0  0  0  0  0
    6.4469    1.5146   -0.2099 C   0  0  0  0  0  0  0  0  0  0  0  0
    7.4919    1.8570   -0.2537 H   0  0  0  0  0  0  0  0  0  0  0  0
    5.4004    2.4463   -0.3039 C   0  0  0  0  0  0  0  0  0  0  0  0
    5.6223    3.5160   -0.4335 H   0  0  0  0  0  0  0  0  0  0  0  0
    4.0692    2.0130   -0.2484 C   0  0  0  0  0  0  0  0  0  0  0  0
    3.2628    2.7541   -0.3662 H   0  0  0  0  0  0  0  0  0  0  0  0
  2  3  1  0  0  0  0
  2 24  1  0  0  0  0
  3  4  1  0  0  0  0
  5 24  1  0  0  0  0
  6  5  1  0  0  0  0
  6 13  1  0  0  0  0
  7  6  2  0  0  0  0
  8  7  1  0  0  0  0
  9 10  2  0  0  0  0
  9  7  1  0  0  0  0
 10 12  1  0  0  0  0
 11 10  1  0  0  0  0
 12 20  1  0  0  0  0
 12  5  2  0  0  0  0
 13 15  1  0  0  0  0
 14 13  1  0  0  0  0
 16 17  1  0  0  0  0
 16  9  1  0  0  0  0
 16 19  1  0  0  0  0
 18 16  1  0  0  0  0
 20 22  1  0  0  0  0
 21 20  1  0  0  0  0
 23 20  1  0  0  0  0
 24 25  1  0  0  0  0
 26  1  1  1  0  0  0
 26  3  1  0  0  0  0
 27 26  1  0  0  0  0
 27 28  1  0  0  0  0
 28 29  1  0  0  0  0
 30 28  2  0  0  0  0
 30 31  1  0  0  0  0
 32 30  1  0  0  0  0
 33 32  1  0  0  0  0
 34 36  1  0  0  0  0
 34 32  2  0  0  0  0
 35 34  1  0  0  0  0
 36 27  2  0  0  0  0
 37 36  1  0  0  0  0
M  END
