1,3,11
q = -1.0, confidence = 0.012

 25 26  0  0  1  0  0  0  0  0999 V2000
    0.3351    2.7939   -0.0014 O   0  0  0  0  0  1  0  0  0  0  0  0
   -1.7919    3.5750    0.0040 N   0  0  0  0  0  0  0  0  0  0  0  0
   -2.2702    2.2907   -0.0116 N   0  0  0  0  0  2  0  0  0  0  0  0
   -5.5439   -0.9418   -0.0441 N   0  0  0  0  0  0  0  0  0  0  0  0
   -0.4443    3.7741    0.0088 C   0  0  1  0  0  3  0  0  0  0  0  0
   -3.5672    2.0894   -0.0096 C   0  0  0  0  0  3  0  0  0  0  0  0
   -4.0859    0.7694   -0.0240 C   0  0  0  0  0  0  0  0  0  0  0  0
   -5.4463    0.4130   -0.0266 C   0  0  0  0  0  0  0  0  0  0  0  0
   -4.2754   -1.5218   -0.0540 C   0  0  0  0  0  0  0  0  0  0  0  0
   -3.3150   -0.4619   -0.0400 C   0  0  0  0  0  0  0  0  0  0  0  0
   -1.9225   -0.7476   -0.0419 C   0  0  0  0  0  2  0  0  0  0  0  0
   -1.5789   -2.1149   -0.0657 C   0  0  0  0  0  3  0  0  0  0  0  0
   -2.5440   -3.1476   -0.0829 C   0  0  0  0  0  0  0  0  0  0  0  0
   -3.9157   -2.8742   -0.0754 C   0  0  0  0  0  0  0  0  0  0  0  0
    0.0564    5.1878    0.0296 C   0  0  0  0  0  0  0  0  0  0  0  0
   -2.4553    4.3585    0.0132 H   0  0  0  0  0  0  0  0  0  0  0  0
   -6.4211   -1.4640   -0.0496 H   0  0  0  0  0  0  0  0  0  0  0  0
   -4.2611    2.9528    0.0036 H   0  0  0  0  0  0  0  0  0  0  0  0
   -6.3367    1.0526   -0.0175 H   0  0  0  0  0  0  0  0  0  0  0  0
   -0.5280   -2.4295   -0.0638 H   0  0  0  0  0  0  0  0  0  0  0  0
   -2.1992   -4.1921   -0.1005 H   0  0  0  0  0  0  0  0  0  0  0  0
   -4.6660   -3.6776   -0.0860 H   0  0  0  0  0  0  0  0  0  0  0  0
    0.7129    5.3477   -0.8483 H   0  0  0  0  0  0  0  0  0  0  0  0
   -0.7518    5.9423    0.0231 H   0  0  0  0  0  0  0  0  0  0  0  0
    0.6834    5.3316    0.9318 H   0  0  0  0  0  0  0  0  0  0  0  0
  2  5  1  0  0  0  0
  2 16  1  0  0  0  0
  3  6  1  0  0  0  0
  3  2  1  0  0  0  0
  4  8  1  0  0  0  0
  5  1  1  1  0  0  0
  5 15  1  0  0  0  0
  6 18  1  0  0  0  0
  7  6  1  0  0  0  0
  8  7  2  0  0  0  0
  8 19  1  0  0  0  0
  9  4  1  0  0  0  0
  9 10  2  0  0  0  0
 10  7  1  0  0  0  0
 11 10  1  0  0  0  0
 12 20  1  0  0  0  0
 12 11  1  0  0  0  0
 13 14  2  0  0  0  0
 13 12  1  0  0  0  0
 14  9  1  0  0  0  0
 15 25  1  0  0  0  0
 17  4  1  0  0  0  0
 21 13  1  0  0  0  0
 22 14  1  0  0  0  0
 23 15  1  0  0  0  0
 24 15  1  0  0  0  0
M  END
