1,6,8,9,10,35
 OpenBabel05122313063D

 54 57  0  0  1  0  0  0  0  0999 V2000
   -0.1378   -1.8753    0.9846 S   0  0  0  0  0  0  0  0  0  0  0  0
    2.1185   -0.2654   -2.3129 S   0  0  0  0  0  0  0  0  0  0  0  0
   -3.6534    0.8238   -1.8245 O   0  0  0  0  0  0  0  0  0  0  0  0
    2.6946    1.7897    2.2974 O   0  0  0  0  0  0  0  0  0  0  0  0
   -1.4863    1.8269   -1.6697 C   0  0  1  0  0  3  0  0  0  0  0  0
   -0.2559    1.6537   -1.1277 N   0  0  0  0  0  2  0  0  0  0  0  0
   -0.8381    3.9120   -2.6746 N   0  0  0  0  0  0  0  0  0  0  0  0
   -1.9202   -0.2409   -0.6354 N   0  0  0  0  0  2  0  0  0  0  0  0
    1.6977    0.4366    0.6507 N   0  0  0  0  0  2  0  0  0  0  0  0
   -0.7007    1.0945    1.5158 N   0  0  0  0  0  2  0  0  0  0  0  0
   -1.1421    2.9328    3.5893 N   0  0  0  0  0  0  0  0  0  0  0  0
    0.6916    2.5805   -1.3640 C   0  0  0  0  0  0  0  0  0  0  0  0
    1.6880    2.3967   -0.9387 H   0  0  0  0  0  0  0  0  0  0  0  0
    0.3751    3.7117   -2.1348 C   0  0  0  0  0  0  0  0  0  0  0  0
    1.1471    4.4782   -2.3184 H   0  0  0  0  0  0  0  0  0  0  0  0
   -1.7598    2.9654   -2.4439 C   0  0  0  0  0  0  0  0  0  0  0  0
   -2.7684    3.0797   -2.8749 H   0  0  0  0  0  0  0  0  0  0  0  0
   -2.4935    0.7475   -1.3976 C   0  0  0  0  0  0  0  0  0  0  0  0
   -2.5922   -1.3692   -0.1767 C   0  0  0  0  0  0  0  0  0  0  0  0
   -3.9524   -1.6877   -0.4440 C   0  0  0  0  0  0  0  0  0  0  0  0
   -4.5280   -1.0028   -1.0775 H   0  0  0  0  0  0  0  0  0  0  0  0
   -4.5202   -2.8484    0.0937 C   0  0  0  0  0  0  0  0  0  0  0  0
   -5.5748   -3.0733   -0.1280 H   0  0  0  0  0  0  0  0  0  0  0  0
   -3.7792   -3.7234    0.9081 C   0  0  0  0  0  0  0  0  0  0  0  0
   -4.2434   -4.6272    1.3289 H   0  0  0  0  0  0  0  0  0  0  0  0
   -2.4380   -3.4251    1.1871 C   0  0  0  0  0  0  0  0  0  0  0  0
   -1.8345   -4.0844    1.8299 H   0  0  0  0  0  0  0  0  0  0  0  0
   -1.8571   -2.2719    0.6431 C   0  0  0  0  0  0  0  0  0  0  0  0
    0.7306   -2.9176   -0.2752 C   0  0  0  0  0  0  0  0  0  0  0  0
    1.8051   -2.7929   -0.0349 H   0  0  0  0  0  0  0  0  0  0  0  0
    0.4400   -3.9726   -0.0992 H   0  0  0  0  0  0  0  0  0  0  0  0
    0.3604   -2.3883   -1.6480 C   0  0  0  0  0  0  0  0  0  0  0  0
   -0.6977   -2.6541   -1.8580 H   0  0  0  0  0  0  0  0  0  0  0  0
    0.9770   -2.8918   -2.4250 H   0  0  0  0  0  0  0  0  0  0  0  0
    0.5010   -0.8577   -1.7507 C   0  0  0  0  0  3  0  0  0  0  0  0
   -0.1716   -0.4962   -2.5562 H   0  0  0  0  0  0  0  0  0  0  0  0
    3.1577   -0.7323   -0.9523 C   0  0  0  0  0  0  0  0  0  0  0  0
    4.2996   -1.5117   -1.2192 C   0  0  0  0  0  0  0  0  0  0  0  0
    4.4807   -1.8348   -2.2553 H   0  0  0  0  0  0  0  0  0  0  0  0
    5.1785   -1.8723   -0.1903 C   0  0  0  0  0  0  0  0  0  0  0  0
    6.0714   -2.4757   -0.4111 H   0  0  0  0  0  0  0  0  0  0  0  0
    4.8942   -1.4636    1.1232 C   0  0  0  0  0  0  0  0  0  0  0  0
    5.5647   -1.7473    1.9487 H   0  0  0  0  0  0  0  0  0  0  0  0
    3.7596   -0.6935    1.4002 C   0  0  0  0  0  0  0  0  0  0  0  0
    3.5626   -0.3626    2.4269 H   0  0  0  0  0  0  0  0  0  0  0  0
    2.8661   -0.2964    0.3719 C   0  0  0  0  0  0  0  0  0  0  0  0
    1.7138    1.3321    1.6959 C   0  0  0  0  0  0  0  0  0  0  0  0
    0.3294    1.7236    2.1206 C   0  0  2  0  0  3  0  0  0  0  0  0
    0.0926    2.6469    3.1554 C   0  0  0  0  0  0  0  0  0  0  0  0
    0.9580    3.1450    3.6234 H   0  0  0  0  0  0  0  0  0  0  0  0
   -2.1523    2.2808    2.9879 C   0  0  0  0  0  0  0  0  0  0  0  0
   -3.1762    2.4914    3.3414 H   0  0  0  0  0  0  0  0  0  0  0  0
   -1.9487    1.3647    1.9449 C   0  0  0  0  0  0  0  0  0  0  0  0
   -2.7816    0.8455    1.4477 H   0  0  0  0  0  0  0  0  0  0  0  0
  2 35  1  0  0  0  0
  2 37  1  0  0  0  0
  3 18  2  0  0  0  0
  5 18  1  6  0  0  0
  5  6  1  0  0  0  0
  7 16  2  0  0  0  0
  7 14  1  0  0  0  0
  8 19  1  0  0  0  0
  9 47  1  0  0  0  0
 10 53  1  0  0  0  0
 10 48  1  0  0  0  0
 12  6  1  0  0  0  0
 12 13  1  0  0  0  0
 14 12  2  0  0  0  0
 15 14  1  0  0  0  0
 16  5  1  0  0  0  0
 17 16  1  0  0  0  0
 18  8  1  0  0  0  0
 19 28  1  0  0  0  0
 20 19  2  0  0  0  0
 20 22  1  0  0  0  0
 21 20  1  0  0  0  0
 22 24  2  0  0  0  0
 23 22  1  0  0  0  0
 24 26  1  0  0  0  0
 24 25  1  0  0  0  0
 26 27  1  0  0  0  0
 28  1  1  0  0  0  0
 28 26  2  0  0  0  0
 29 31  1  0  0  0  0
 29 30  1  0  0  0  0
 29  1  1  0  0  0  0
 32 29  1  0  0  0  0
 33 32  1  0  0  0  0
 34 32  1  0  0  0  0
 35 32  1  0  0  0  0
 36 35  1  0  0  0  0
 37 46  1  0  0  0  0
 38 37  2  0  0  0  0
 38 40  1  0  0  0  0
 39 38  1  0  0  0  0
 40 42  2  0  0  0  0
 41 40  1  0  0  0  0
 42 44  1  0  0  0  0
 42 43  1  0  0  0  0
 44 45  1  0  0  0  0
 46  9  1  0  0  0  0
 46 44  2  0  0  0  0
 47  4  2  0  0  0  0
 48 47  1  1  0  0  0
 48 49  1  0  0  0  0
 49 11  2  0  0  0  0
 49 50  1  0  0  0  0
 51 52  1  0  0  0  0
 51 11  1  0  0  0  0
 53 51  2  0  0  0  0
 54 53  1  0  0  0  0
M  END
