1,2,27,52
q = 0.0, confidence = 0.986

 76 78  0  0  0  0  0  0  0  0999 V2000
    0.8489    0.0007   -0.0005 B   0  0  0  0  0  0  0  0  0  0  0  0
    2.5456    1.4526   -1.8000 S   0  0  0  0  0  1  0  0  0  0  0  0
   -0.8298   -0.5346   -1.7300 N   0  0  0  0  0  2  0  0  0  0  0  0
    0.3268    0.0681   -1.4574 N   0  0  0  0  0  0  0  0  0  0  0  0
    1.0302    0.8734   -2.3169 C   0  0  0  0  0  0  0  0  0  0  0  0
    0.4405    1.1351   -3.6042 C   0  0  0  0  0  0  0  0  0  0  0  0
   -0.7616    0.5087   -3.8822 C   0  0  0  0  0  0  0  0  0  0  0  0
   -1.2389    0.6674   -4.8611 H   0  0  0  0  0  0  0  0  0  0  0  0
   -1.3811   -0.3469   -2.9179 C   0  0  0  0  0  0  0  0  0  0  0  0
   -2.6960   -1.0756   -3.2059 C   0  0  0  0  0  0  0  0  0  0  0  0
   -3.1619   -1.8513   -1.9626 C   0  0  0  0  0  0  0  0  0  0  0  0
   -2.4125   -2.6037   -1.6509 H   0  0  0  0  0  0  0  0  0  0  0  0
   -4.1174   -2.3695   -2.1808 H   0  0  0  0  0  0  0  0  0  0  0  0
   -3.3127   -1.1712   -1.1019 H   0  0  0  0  0  0  0  0  0  0  0  0
   -3.7766   -0.0422   -3.5951 C   0  0  0  0  0  0  0  0  0  0  0  0
   -3.9425    0.6865   -2.7768 H   0  0  0  0  0  0  0  0  0  0  0  0
   -4.7377   -0.5564   -3.7996 H   0  0  0  0  0  0  0  0  0  0  0  0
   -3.5036    0.5247   -4.5080 H   0  0  0  0  0  0  0  0  0  0  0  0
   -2.4717   -2.0621   -4.3741 C   0  0  0  0  0  0  0  0  0  0  0  0
   -2.1450   -1.5427   -5.2978 H   0  0  0  0  0  0  0  0  0  0  0  0
   -3.4134   -2.6001   -4.6072 H   0  0  0  0  0  0  0  0  0  0  0  0
   -1.6999   -2.8144   -4.1148 H   0  0  0  0  0  0  0  0  0  0  0  0
    1.1533    2.0303   -4.5665 C   0  0  0  0  0  0  0  0  0  0  0  0
    0.5897    2.1505   -5.5106 H   0  0  0  0  0  0  0  0  0  0  0  0
    2.1633    1.6254   -4.7874 H   0  0  0  0  0  0  0  0  0  0  0  0
    1.3263    3.0274   -4.1102 H   0  0  0  0  0  0  0  0  0  0  0  0
    2.5490   -2.2808   -0.3610 S   0  0  0  0  0  1  0  0  0  0  0  0
   -0.8261   -1.2328    1.3294 N   0  0  0  0  0  2  0  0  0  0  0  0
    0.3299   -1.2958    0.6698 N   0  0  0  0  0  0  0  0  0  0  0  0
    1.0343   -2.4417    0.4001 C   0  0  0  0  0  0  0  0  0  0  0  0
    0.4469   -3.6886    0.8165 C   0  0  0  0  0  0  0  0  0  0  0  0
   -0.7545   -3.6184    1.4996 C   0  0  0  0  0  0  0  0  0  0  0  0
   -1.2302   -4.5465    1.8513 H   0  0  0  0  0  0  0  0  0  0  0  0
   -1.3753   -2.3566    1.7604 C   0  0  0  0  0  0  0  0  0  0  0  0
   -2.6894   -2.2444    2.5371 C   0  0  0  0  0  0  0  0  0  0  0  0
   -3.1578   -0.7806    2.5883 C   0  0  0  0  0  0  0  0  0  0  0  0
   -4.1134   -0.7125    3.1463 H   0  0  0  0  0  0  0  0  0  0  0  0
   -3.3093   -0.3746    1.5693 H   0  0  0  0  0  0  0  0  0  0  0  0
   -2.4096   -0.1336    3.0848 H   0  0  0  0  0  0  0  0  0  0  0  0
   -3.7693   -3.0998    1.8375 C   0  0  0  0  0  0  0  0  0  0  0  0
   -3.4943   -4.1733    1.8017 H   0  0  0  0  0  0  0  0  0  0  0  0
   -3.9373   -2.7551    0.7977 H   0  0  0  0  0  0  0  0  0  0  0  0
   -4.7298   -3.0220    2.3865 H   0  0  0  0  0  0  0  0  0  0  0  0
   -2.4625   -2.7630    3.9750 C   0  0  0  0  0  0  0  0  0  0  0  0
   -1.6906   -2.1617    4.4960 H   0  0  0  0  0  0  0  0  0  0  0  0
   -2.1345   -3.8223    3.9862 H   0  0  0  0  0  0  0  0  0  0  0  0
   -3.4034   -2.6972    4.5587 H   0  0  0  0  0  0  0  0  0  0  0  0
    1.1610   -4.9684    0.5203 C   0  0  0  0  0  0  0  0  0  0  0  0
    0.5991   -5.8472    0.8883 H   0  0  0  0  0  0  0  0  0  0  0  0
    2.1717   -4.9563    0.9801 H   0  0  0  0  0  0  0  0  0  0  0  0
    1.3327   -5.0707   -0.5716 H   0  0  0  0  0  0  0  0  0  0  0  0
    2.5493    0.8335    2.1539 S   0  0  0  0  0  1  0  0  0  0  0  0
   -0.8284    1.7671    0.4028 N   0  0  0  0  0  2  0  0  0  0  0  0
    0.3281    1.2285    0.7873 N   0  0  0  0  0  0  0  0  0  0  0  0
    1.0328    1.5696    1.9139 C   0  0  0  0  0  0  0  0  0  0  0  0
    0.4439    2.5526    2.7858 C   0  0  0  0  0  0  0  0  0  0  0  0
   -0.7583    3.1074    2.3837 C   0  0  0  0  0  0  0  0  0  0  0  0
   -1.2351    3.8752    3.0118 H   0  0  0  0  0  0  0  0  0  0  0  0
   -1.3785    2.7018    1.1604 C   0  0  0  0  0  0  0  0  0  0  0  0
   -2.6934    3.3169    0.6749 C   0  0  0  0  0  0  0  0  0  0  0  0
   -3.1590    2.6319   -0.6206 C   0  0  0  0  0  0  0  0  0  0  0  0
   -2.4097    2.7412   -1.4279 H   0  0  0  0  0  0  0  0  0  0  0  0
   -4.1146    3.0809   -0.9589 H   0  0  0  0  0  0  0  0  0  0  0  0
   -3.3096    1.5459   -0.4657 H   0  0  0  0  0  0  0  0  0  0  0  0
   -3.7740    3.1337    1.7638 C   0  0  0  0  0  0  0  0  0  0  0  0
   -3.9399    2.0598    1.9821 H   0  0  0  0  0  0  0  0  0  0  0  0
   -4.7351    3.5691    1.4223 H   0  0  0  0  0  0  0  0  0  0  0  0
   -3.5010    3.6374    2.7130 H   0  0  0  0  0  0  0  0  0  0  0  0
   -2.4692    4.8226    0.4091 C   0  0  0  0  0  0  0  0  0  0  0  0
   -2.1436    5.3605    1.3225 H   0  0  0  0  0  0  0  0  0  0  0  0
   -3.4107    5.2941    0.0600 H   0  0  0  0  0  0  0  0  0  0  0  0
   -1.6967    4.9766   -0.3709 H   0  0  0  0  0  0  0  0  0  0  0  0
    1.1577    2.9369    4.0421 C   0  0  0  0  0  0  0  0  0  0  0  0
    0.5945    3.6937    4.6196 H   0  0  0  0  0  0  0  0  0  0  0  0
    2.1675    3.3310    3.8016 H   0  0  0  0  0  0  0  0  0  0  0  0
    1.3312    2.0425    4.6763 H   0  0  0  0  0  0  0  0  0  0  0  0
  1 29  1  0  0  0  0
  1 54  1  0  0  0  0
  3  4  1  0  0  0  0
  4  1  1  0  0  0  0
  5  2  1  0  0  0  0
  5  4  1  0  0  0  0
  6  5  2  0  0  0  0
  7  6  1  0  0  0  0
  7  9  2  0  0  0  0
  8  7  1  0  0  0  0
  9  3  1  0  0  0  0
 10  9  1  0  0  0  0
 10 11  1  0  0  0  0
 11 12  1  0  0  0  0
 11 14  1  0  0  0  0
 13 11  1  0  0  0  0
 15 10  1  0  0  0  0
 15 16  1  0  0  0  0
 17 15  1  0  0  0  0
 18 15  1  0  0  0  0
 19 22  1  0  0  0  0
 19 10  1  0  0  0  0
 20 19  1  0  0  0  0
 21 19  1  0  0  0  0
 23 26  1  0  0  0  0
 23  6  1  0  0  0  0
 24 23  1  0  0  0  0
 25 23  1  0  0  0  0
 27 30  1  0  0  0  0
 28 34  1  0  0  0  0
 29 28  1  0  0  0  0
 30 29  1  0  0  0  0
 30 31  2  0  0  0  0
 31 32  1  0  0  0  0
 32 34  2  0  0  0  0
 32 33  1  0  0  0  0
 34 35  1  0  0  0  0
 35 36  1  0  0  0  0
 35 44  1  0  0  0  0
 36 39  1  0  0  0  0
 36 37  1  0  0  0  0
 38 36  1  0  0  0  0
 40 43  1  0  0  0  0
 40 35  1  0  0  0  0
 41 40  1  0  0  0  0
 42 40  1  0  0  0  0
 44 46  1  0  0  0  0
 44 45  1  0  0  0  0
 44 47  1  0  0  0  0
 48 31  1  0  0  0  0
 48 49  1  0  0  0  0
 48 50  1  0  0  0  0
 51 48  1  0  0  0  0
 53 54  1  0  0  0  0
 53 59  1  0  0  0  0
 54 55  1  0  0  0  0
 55 52  1  0  0  0  0
 55 56  2  0  0  0  0
 56 73  1  0  0  0  0
 57 56  1  0  0  0  0
 57 58  1  0  0  0  0
 59 57  2  0  0  0  0
 60 59  1  0  0  0  0
 60 65  1  0  0  0  0
 61 64  1  0  0  0  0
 61 60  1  0  0  0  0
 62 61  1  0  0  0  0
 63 61  1  0  0  0  0
 65 66  1  0  0  0  0
 65 68  1  0  0  0  0
 67 65  1  0  0  0  0
 69 60  1  0  0  0  0
 69 70  1  0  0  0  0
 71 69  1  0  0  0  0
 72 69  1  0  0  0  0
 73 74  1  0  0  0  0
 73 76  1  0  0  0  0
 75 73  1  0  0  0  0
M  END
