1,2,4,6,7,8
 OpenBabel05122313063D

 71 72  0  0  0  0  0  0  0  0999 V2000
    0.1472    1.2081    0.9814 S   0  0  0  0  0  1  0  0  0  0  0  0
    2.3391   -0.4783    1.9669 O   0  5  0  0  0  0  0  0  0  0  0  0
    4.0847   -1.2072    3.1940 O   0  0  0  0  0  0  0  0  0  0  0  0
    2.8530    1.6201    0.1674 O   0  5  0  0  0  0  0  0  0  0  0  0
    3.1273    3.4946   -1.0570 O   0  0  0  0  0  0  0  0  0  0  0  0
    0.8529   -1.7081   -0.0439 N   0  0  0  0  0  0  0  0  0  0  0  0
    3.5372   -1.0275   -0.3289 N   0  0  0  0  0  0  0  0  0  0  0  0
    1.6007    0.3324   -1.7601 N   0  0  0  0  0  0  0  0  0  0  0  0
    1.8562   -2.7695    0.2419 C   0  0  0  0  0  0  0  0  0  0  0  0
    2.0033   -2.7771    1.3371 H   0  0  0  0  0  0  0  0  0  0  0  0
    1.4702   -3.7709   -0.0571 H   0  0  0  0  0  0  0  0  0  0  0  0
    3.1709   -2.4660   -0.4724 C   0  0  0  0  0  0  0  0  0  0  0  0
    3.0878   -2.6994   -1.5519 H   0  0  0  0  0  0  0  0  0  0  0  0
    3.9804   -3.1125   -0.0721 H   0  0  0  0  0  0  0  0  0  0  0  0
    3.9810   -0.4126   -1.5991 C   0  0  0  0  0  0  0  0  0  0  0  0
    4.7657   -1.0217   -2.1030 H   0  0  0  0  0  0  0  0  0  0  0  0
    4.4220    0.5689   -1.3499 H   0  0  0  0  0  0  0  0  0  0  0  0
    2.7664   -0.2423   -2.5098 C   0  0  0  0  0  0  0  0  0  0  0  0
    2.4613   -1.2203   -2.9294 H   0  0  0  0  0  0  0  0  0  0  0  0
    3.0175    0.4066   -3.3743 H   0  0  0  0  0  0  0  0  0  0  0  0
    0.3288   -0.3600   -2.0796 C   0  0  0  0  0  0  0  0  0  0  0  0
    0.1560   -0.4203   -3.1788 H   0  0  0  0  0  0  0  0  0  0  0  0
   -0.4890    0.2337   -1.6318 H   0  0  0  0  0  0  0  0  0  0  0  0
    0.3547   -1.7592   -1.4609 C   0  0  0  0  0  0  0  0  0  0  0  0
   -0.6614   -2.2003   -1.4953 H   0  0  0  0  0  0  0  0  0  0  0  0
    1.0174   -2.4322   -2.0395 H   0  0  0  0  0  0  0  0  0  0  0  0
   -0.2625   -1.8052    0.9655 C   0  0  0  0  0  0  0  0  0  0  0  0
    0.1911   -1.4777    1.9250 H   0  0  0  0  0  0  0  0  0  0  0  0
   -0.5565   -2.8756    1.0441 H   0  0  0  0  0  0  0  0  0  0  0  0
   -1.4749   -0.9881    0.6271 C   0  0  0  0  0  0  0  0  0  0  0  0
   -1.4099    0.4349    0.6543 C   0  0  0  0  0  0  0  0  0  0  0  0
   -2.6242    1.1768    0.4333 C   0  0  0  0  0  0  0  0  0  0  0  0
   -3.7867    0.4447    0.1349 C   0  0  0  0  0  0  0  0  0  0  0  0
   -4.7114    1.0063   -0.0460 H   0  0  0  0  0  0  0  0  0  0  0  0
   -3.8538   -0.9613    0.0459 C   0  0  0  0  0  0  0  0  0  0  0  0
   -2.6700   -1.6604    0.3121 C   0  0  0  0  0  0  0  0  0  0  0  0
   -2.6559   -2.7604    0.3008 H   0  0  0  0  0  0  0  0  0  0  0  0
   -2.7119    2.7189    0.5393 C   0  0  0  0  0  0  0  0  0  0  0  0
   -4.1480    3.2371    0.3221 C   0  0  0  0  0  0  0  0  0  0  0  0
   -4.5300    3.0094   -0.6940 H   0  0  0  0  0  0  0  0  0  0  0  0
   -4.1541    4.3393    0.4368 H   0  0  0  0  0  0  0  0  0  0  0  0
   -4.8604    2.8234    1.0642 H   0  0  0  0  0  0  0  0  0  0  0  0
   -2.2794    3.1638    1.9561 C   0  0  0  0  0  0  0  0  0  0  0  0
   -1.2445    2.8484    2.1924 H   0  0  0  0  0  0  0  0  0  0  0  0
   -2.9536    2.7305    2.7225 H   0  0  0  0  0  0  0  0  0  0  0  0
   -2.3258    4.2693    2.0391 H   0  0  0  0  0  0  0  0  0  0  0  0
   -1.8228    3.3928   -0.5321 C   0  0  0  0  0  0  0  0  0  0  0  0
   -2.1138    3.0609   -1.5504 H   0  0  0  0  0  0  0  0  0  0  0  0
   -0.7554    3.1577   -0.3661 H   0  0  0  0  0  0  0  0  0  0  0  0
   -1.9400    4.4948   -0.4852 H   0  0  0  0  0  0  0  0  0  0  0  0
   -5.1830   -1.6471   -0.3101 C   0  0  0  0  0  0  0  0  0  0  0  0
   -5.0456   -3.1783   -0.3612 C   0  0  0  0  0  0  0  0  0  0  0  0
   -4.7371   -3.5973    0.6179 H   0  0  0  0  0  0  0  0  0  0  0  0
   -4.3066   -3.5002   -1.1231 H   0  0  0  0  0  0  0  0  0  0  0  0
   -6.0194   -3.6366   -0.6273 H   0  0  0  0  0  0  0  0  0  0  0  0
   -6.2457   -1.2882    0.7536 C   0  0  0  0  0  0  0  0  0  0  0  0
   -6.4151   -0.1947    0.8108 H   0  0  0  0  0  0  0  0  0  0  0  0
   -5.9300   -1.6324    1.7591 H   0  0  0  0  0  0  0  0  0  0  0  0
   -7.2171   -1.7678    0.5121 H   0  0  0  0  0  0  0  0  0  0  0  0
   -5.6560   -1.1534   -1.6964 C   0  0  0  0  0  0  0  0  0  0  0  0
   -5.8012   -0.0550   -1.7129 H   0  0  0  0  0  0  0  0  0  0  0  0
   -6.6225   -1.6253   -1.9703 H   0  0  0  0  0  0  0  0  0  0  0  0
   -4.9140   -1.4066   -2.4809 H   0  0  0  0  0  0  0  0  0  0  0  0
    4.4210   -0.7773    0.8340 C   0  0  0  0  0  0  0  0  0  0  0  0
    4.7982    0.2607    0.7502 H   0  0  0  0  0  0  0  0  0  0  0  0
    5.2750   -1.4859    0.8714 H   0  0  0  0  0  0  0  0  0  0  0  0
    3.5894   -0.8476    2.1364 C   0  0  0  0  0  0  0  0  0  0  0  0
    1.5839    1.8123   -1.8588 C   0  0  0  0  0  0  0  0  0  0  0  0
    0.5841    2.1661   -1.5420 H   0  0  0  0  0  0  0  0  0  0  0  0
    1.7893    2.1643   -2.8914 H   0  0  0  0  0  0  0  0  0  0  0  0
    2.6144    2.4029   -0.8644 C   0  0  0  0  0  0  0  0  0  0  0  0
  2 67  1  0  0  0  0
  5 71  2  0  0  0  0
  6  9  1  0  0  0  0
  6 27  1  0  0  0  0
  7 64  1  0  0  0  0
  9 10  1  0  0  0  0
 11  9  1  0  0  0  0
 12  7  1  0  0  0  0
 12 14  1  0  0  0  0
 12  9  1  0  0  0  0
 13 12  1  0  0  0  0
 15 17  1  0  0  0  0
 15  7  1  0  0  0  0
 16 15  1  0  0  0  0
 18  8  1  0  0  0  0
 18 15  1  0  0  0  0
 19 18  1  0  0  0  0
 20 18  1  0  0  0  0
 21  8  1  0  0  0  0
 21 23  1  0  0  0  0
 21 24  1  0  0  0  0
 22 21  1  0  0  0  0
 24  6  1  0  0  0  0
 25 24  1  0  0  0  0
 26 24  1  0  0  0  0
 27 29  1  0  0  0  0
 27 28  1  0  0  0  0
 30 31  1  0  0  0  0
 30 27  1  0  0  0  0
 31  1  1  0  0  0  0
 32 38  1  0  0  0  0
 32 31  2  0  0  0  0
 33 32  1  0  0  0  0
 34 33  1  0  0  0  0
 35 33  2  0  0  0  0
 35 36  1  0  0  0  0
 36 30  2  0  0  0  0
 37 36  1  0  0  0  0
 38 43  1  0  0  0  0
 39 41  1  0  0  0  0
 39 38  1  0  0  0  0
 39 42  1  0  0  0  0
 40 39  1  0  0  0  0
 43 46  1  0  0  0  0
 43 44  1  0  0  0  0
 43 45  1  0  0  0  0
 47 50  1  0  0  0  0
 47 49  1  0  0  0  0
 47 38  1  0  0  0  0
 48 47  1  0  0  0  0
 51 35  1  0  0  0  0
 51 56  1  0  0  0  0
 52 51  1  0  0  0  0
 52 53  1  0  0  0  0
 54 52  1  0  0  0  0
 55 52  1  0  0  0  0
 56 57  1  0  0  0  0
 56 58  1  0  0  0  0
 59 56  1  0  0  0  0
 60 51  1  0  0  0  0
 61 60  1  0  0  0  0
 62 60  1  0  0  0  0
 63 60  1  0  0  0  0
 64 66  1  0  0  0  0
 64 67  1  0  0  0  0
 65 64  1  0  0  0  0
 67  3  2  0  0  0  0
 68  8  1  0  0  0  0
 68 69  1  0  0  0  0
 68 71  1  0  0  0  0
 70 68  1  0  0  0  0
 71  4  1  0  0  0  0
M  CHG  2   2  -1   4  -1
M  END
