1,5,44,50,56
q = -3.0

 56 58  0  0  1  0  0  0  0  0999 V2000
   -1.2845   -1.6223    1.3279 S   0  0  0  0  0  1  0  0  0  0  0  0
   -2.5614   -0.5951    0.6220 C   0  0  2  0  0  3  0  0  0  0  0  0
   -2.3532    0.6686    0.3051 N   0  0  0  0  0  2  0  0  0  0  0  0
   -1.2943    1.2696   -0.2253 C   0  0  2  0  0  3  0  0  0  0  0  0
   -0.2706    0.5971   -0.8506 N   0  0  0  0  0  2  0  0  0  0  0  0
   -1.2494    2.7541   -0.1048 C   0  0  0  0  0  0  0  0  0  0  0  0
   -2.3939    3.4640    0.3240 C   0  0  0  0  0  0  0  0  0  0  0  0
   -3.3141    2.8974    0.5243 H   0  0  0  0  0  0  0  0  0  0  0  0
   -2.3536    4.8527    0.4944 C   0  0  0  0  0  0  0  0  0  0  0  0
   -3.2561    5.3883    0.8258 H   0  0  0  0  0  0  0  0  0  0  0  0
   -1.1668    5.5618    0.2448 C   0  0  0  0  0  0  0  0  0  0  0  0
   -1.1350    6.6538    0.3777 H   0  0  0  0  0  0  0  0  0  0  0  0
   -0.0195    4.8672   -0.1729 C   0  0  0  0  0  0  0  0  0  0  0  0
    0.9174    5.4121   -0.3638 H   0  0  0  0  0  0  0  0  0  0  0  0
   -0.0589    3.4783   -0.3461 C   0  0  0  0  0  0  0  0  0  0  0  0
    0.8463    2.9452   -0.6655 H   0  0  0  0  0  0  0  0  0  0  0  0
   -3.8029   -1.1233    0.4655 N   0  0  0  0  0  0  0  0  0  0  0  0
   -4.9005   -0.3670   -0.1348 C   0  0  0  0  0  0  0  0  0  0  0  0
   -5.2214   -0.8817   -1.0678 H   0  0  0  0  0  0  0  0  0  0  0  0
   -4.5357    0.6443   -0.3917 H   0  0  0  0  0  0  0  0  0  0  0  0
   -6.0718   -0.3067    0.8521 C   0  0  0  0  0  0  0  0  0  0  0  0
   -5.7714    0.3145    1.7327 H   0  0  0  0  0  0  0  0  0  0  0  0
   -6.9521    0.1675    0.3738 H   0  0  0  0  0  0  0  0  0  0  0  0
   -6.4727   -1.6000    1.2681 O   0  0  0  0  0  0  0  0  0  0  0  0
   -5.4022   -2.2935    1.8902 C   0  0  0  0  0  0  0  0  0  0  0  0
   -5.7883   -3.2906    2.1809 H   0  0  0  0  0  0  0  0  0  0  0  0
   -5.0717   -1.7584    2.8152 H   0  0  0  0  0  0  0  0  0  0  0  0
   -4.2081   -2.4427    0.9440 C   0  0  0  0  0  0  0  0  0  0  0  0
   -3.3518   -2.9343    1.4425 H   0  0  0  0  0  0  0  0  0  0  0  0
   -4.5030   -3.0614    0.0675 H   0  0  0  0  0  0  0  0  0  0  0  0
    0.1573    1.0233   -2.1219 C   0  0  0  0  0  0  0  0  0  0  0  0
   -0.8071    1.5064   -3.0392 C   0  0  0  0  0  0  0  0  0  0  0  0
   -1.8597    1.5310   -2.7224 H   0  0  0  0  0  0  0  0  0  0  0  0
   -0.4490    1.9225   -4.3238 C   0  0  0  0  0  0  0  0  0  0  0  0
   -1.2251    2.2903   -5.0118 H   0  0  0  0  0  0  0  0  0  0  0  0
    0.8885    1.8439   -4.7408 C   0  0  0  0  0  0  0  0  0  0  0  0
    1.1803    2.1523   -5.7550 H   0  0  0  0  0  0  0  0  0  0  0  0
    1.8489    1.3478   -3.8500 C   0  0  0  0  0  0  0  0  0  0  0  0
    2.9016    1.2791   -4.1680 H   0  0  0  0  0  0  0  0  0  0  0  0
    1.5183    0.9429   -2.5429 C   0  0  0  0  0  0  0  0  0  0  0  0
    2.6249    0.4756   -1.6291 C   0  0  0  0  0  0  0  0  0  0  0  0
    2.6859    1.0995   -0.7129 H   0  0  0  0  0  0  0  0  0  0  0  0
    3.5996    0.5610   -2.1592 H   0  0  0  0  0  0  0  0  0  0  0  0
    2.4357   -0.9306   -1.1710 N   0  0  0  0  0  0  0  0  0  0  0  0
    3.5085   -1.4168   -0.2672 C   0  0  0  0  0  0  0  0  0  0  0  0
    3.8008   -0.5940    0.4162 H   0  0  0  0  0  0  0  0  0  0  0  0
    4.4130   -1.7247   -0.8319 H   0  0  0  0  0  0  0  0  0  0  0  0
    3.0010   -2.6053    0.5895 C   0  0  0  0  0  0  0  0  0  0  0  0
    3.8000   -3.3548    1.1268 O   0  5  0  0  0  0  0  0  0  0  0  0
    1.6858   -2.6851    0.7069 O   0  0  0  0  0  0  0  0  0  0  0  0
    2.2549   -1.8682   -2.3146 C   0  0  0  0  0  0  0  0  0  0  0  0
    2.6819   -1.4518   -3.2470 H   0  0  0  0  0  0  0  0  0  0  0  0
    2.7910   -2.8118   -2.0904 H   0  0  0  0  0  0  0  0  0  0  0  0
    0.7841   -2.2553   -2.5425 C   0  0  0  0  0  0  0  0  0  0  0  0
    0.4083   -2.7619   -3.5802 O   0  5  0  0  0  0  0  0  0  0  0  0
    0.0438   -2.0316   -1.4674 O   0  0  0  0  0  0  0  0  0  0  0  0
  2  1  1  1  0  0  0
  3  2  1  0  0  0  0
  4  5  1  1  0  0  0
  4  6  1  0  0  0  0
  4  3  1  0  0  0  0
  6  7  1  0  0  0  0
  7  9  2  0  0  0  0
  7  8  1  0  0  0  0
  9 10  1  0  0  0  0
 11 12  1  0  0  0  0
 11  9  1  0  0  0  0
 13 11  2  0  0  0  0
 14 13  1  0  0  0  0
 15 13  1  0  0  0  0
 15  6  2  0  0  0  0
 16 15  1  0  0  0  0
 17  2  1  0  0  0  0
 17 28  1  0  0  0  0
 18 17  1  0  0  0  0
 18 21  1  0  0  0  0
 19 18  1  0  0  0  0
 20 18  1  0  0  0  0
 21 24  1  0  0  0  0
 21 22  1  0  0  0  0
 23 21  1  0  0  0  0
 24 25  1  0  0  0  0
 25 26  1  0  0  0  0
 25 27  1  0  0  0  0
 28 29  1  0  0  0  0
 28 25  1  0  0  0  0
 30 28  1  0  0  0  0
 31  5  1  0  0  0  0
 32 33  1  0  0  0  0
 32 31  2  0  0  0  0
 34 32  1  0  0  0  0
 35 34  1  0  0  0  0
 36 34  2  0  0  0  0
 36 38  1  0  0  0  0
 37 36  1  0  0  0  0
 38 40  2  0  0  0  0
 39 38  1  0  0  0  0
 40 31  1  0  0  0  0
 40 41  1  0  0  0  0
 41 44  1  0  0  0  0
 41 42  1  0  0  0  0
 43 41  1  0  0  0  0
 44 45  1  0  0  0  0
 45 46  1  0  0  0  0
 45 48  1  0  0  0  0
 47 45  1  0  0  0  0
 48 50  2  0  0  0  0
 48 49  1  0  0  0  0
 51 53  1  0  0  0  0
 51 44  1  0  0  0  0
 52 51  1  0  0  0  0
 54 51  1  0  0  0  0
 54 56  2  0  0  0  0
 55 54  1  0  0  0  0
M  END
