1,2,3
q = -2.0, confidence = 0.91

 34 36  0  0  0  0  0  0  0  0999 V2000
    2.0097    0.3016    0.0554 P   0  0  0  0  0  0  0  0  0  0  0  0
    1.6546   -2.4591   -0.8658 O   0  5  0  0  0  0  0  0  0  0  0  0
    0.1420   -1.3048    1.3177 O   0  5  0  0  0  0  0  0  0  0  0  0
    3.3828   -0.8395   -0.3006 C   0  0  0  0  0  0  0  0  0  0  0  0
    2.9444   -2.1428   -0.6888 C   0  0  0  0  0  0  0  0  0  0  0  0
    3.9325   -3.1363   -0.9078 C   0  0  0  0  0  0  0  0  0  0  0  0
    5.2885   -2.8355   -0.7502 C   0  0  0  0  0  0  0  0  0  0  0  0
    5.7113   -1.5461   -0.3683 C   0  0  0  0  0  0  0  0  0  0  0  0
    4.7509   -0.5530   -0.1386 C   0  0  0  0  0  0  0  0  0  0  0  0
    1.7590    0.3633    1.8452 C   0  0  0  0  0  0  0  0  0  0  0  0
    0.7540   -0.5691    2.2416 C   0  0  0  0  0  0  0  0  0  0  0  0
    0.4480   -0.6917    3.6163 C   0  0  0  0  0  0  0  0  0  0  0  0
    1.1276    0.0957    4.5523 C   0  0  0  0  0  0  0  0  0  0  0  0
    2.1247    1.0083    4.1557 C   0  0  0  0  0  0  0  0  0  0  0  0
    2.4499    1.1314    2.7966 C   0  0  0  0  0  0  0  0  0  0  0  0
    2.4281    1.9484   -0.5927 C   0  0  0  0  0  0  0  0  0  0  0  0
    2.0231    3.1247    0.0721 C   0  0  0  0  0  0  0  0  0  0  0  0
    2.2755    4.3777   -0.5055 C   0  0  0  0  0  0  0  0  0  0  0  0
    2.9242    4.4652   -1.7475 C   0  0  0  0  0  0  0  0  0  0  0  0
    3.3227    3.2946   -2.4135 C   0  0  0  0  0  0  0  0  0  0  0  0
    3.0767    2.0383   -1.8424 C   0  0  0  0  0  0  0  0  0  0  0  0
    3.5942   -4.1384   -1.2088 H   0  0  0  0  0  0  0  0  0  0  0  0
    6.0372   -3.6230   -0.9289 H   0  0  0  0  0  0  0  0  0  0  0  0
    6.7815   -1.3224   -0.2488 H   0  0  0  0  0  0  0  0  0  0  0  0
    5.0605    0.4601    0.1649 H   0  0  0  0  0  0  0  0  0  0  0  0
   -0.3294   -1.4065    3.9189 H   0  0  0  0  0  0  0  0  0  0  0  0
    0.8772   -0.0048    5.6197 H   0  0  0  0  0  0  0  0  0  0  0  0
    2.6552    1.6117    4.9068 H   0  0  0  0  0  0  0  0  0  0  0  0
    3.2418    1.8257    2.4749 H   0  0  0  0  0  0  0  0  0  0  0  0
    1.5169    3.0566    1.0461 H   0  0  0  0  0  0  0  0  0  0  0  0
    1.9630    5.2926    0.0204 H   0  0  0  0  0  0  0  0  0  0  0  0
    3.1201    5.4497   -2.1986 H   0  0  0  0  0  0  0  0  0  0  0  0
    3.8291    3.3588   -3.3884 H   0  0  0  0  0  0  0  0  0  0  0  0
    3.3863    1.1200   -2.3638 H   0  0  0  0  0  0  0  0  0  0  0  0
  1 10  1  0  0  0  0
  2  5  1  0  0  0  0
  3 11  1  0  0  0  0
  4  9  1  0  0  0  0
  4  1  1  0  0  0  0
  5  4  2  0  0  0  0
  6  7  2  0  0  0  0
  6  5  1  0  0  0  0
  7  8  1  0  0  0  0
  8 24  1  0  0  0  0
  8  9  2  0  0  0  0
  9 25  1  0  0  0  0
 10 11  2  0  0  0  0
 10 15  1  0  0  0  0
 11 12  1  0  0  0  0
 12 26  1  0  0  0  0
 12 13  2  0  0  0  0
 13 27  1  0  0  0  0
 14 13  1  0  0  0  0
 14 28  1  0  0  0  0
 15 14  2  0  0  0  0
 16  1  1  0  0  0  0
 16 17  1  0  0  0  0
 17 30  1  0  0  0  0
 18 31  1  0  0  0  0
 18 17  2  0  0  0  0
 19 18  1  0  0  0  0
 20 21  1  0  0  0  0
 20 19  2  0  0  0  0
 21 16  2  0  0  0  0
 22  6  1  0  0  0  0
 23  7  1  0  0  0  0
 29 15  1  0  0  0  0
 32 19  1  0  0  0  0
 33 20  1  0  0  0  0
 34 21  1  0  0  0  0
M  CHG  2   2  -1   3  -1
M  END
