1,2,3
q = -1.0

 33 32  0  0  1  0  0  0  0  0999 V2000
    1.7677   -1.4016    0.0769 P   0  0  1  0  0  0  0  0  0  0  0  0
    1.2792    1.0651    1.4981 O   0  5  0  0  0  0  0  0  0  0  0  0
    2.4873    1.1289   -1.1152 O   0  0  0  0  0  1  0  0  0  0  0  0
    2.6837    0.7264    3.2422 O   0  0  0  0  0  0  0  0  0  0  0  0
    4.5860    0.5973   -1.7151 O   0  0  0  0  0  0  0  0  0  0  0  0
    2.5022   -0.9882    1.6283 C   0  0  0  0  0  0  0  0  0  0  0  0
    2.1221    0.2791    2.0841 C   0  0  0  0  0  0  0  0  0  0  0  0
    2.2676    2.0052    3.7062 C   0  0  0  0  0  0  0  0  0  0  0  0
    3.0629   -1.2011   -1.3073 C   0  0  0  0  0  0  0  0  0  0  0  0
    3.3406    0.2617   -1.3748 C   0  0  1  0  0  3  0  0  0  0  0  0
    4.8752    2.0061   -1.7532 C   0  0  0  0  0  0  0  0  0  0  0  0
    1.4229   -3.2609    0.0174 C   0  0  0  0  0  0  0  0  0  0  0  0
    2.7262   -4.0411    0.2593 C   0  0  0  0  0  0  0  0  0  0  0  0
    0.8229   -3.6110   -1.3542 C   0  0  0  0  0  0  0  0  0  0  0  0
    0.4323   -3.5773    1.1472 C   0  0  0  0  0  0  0  0  0  0  0  0
    3.2449   -1.5793    2.1800 H   0  0  0  0  0  0  0  0  0  0  0  0
    2.8608    2.2045    4.6185 H   0  0  0  0  0  0  0  0  0  0  0  0
    2.4547    2.7993    2.9533 H   0  0  0  0  0  0  0  0  0  0  0  0
    1.1856    2.0213    3.9584 H   0  0  0  0  0  0  0  0  0  0  0  0
    2.5298   -1.4795   -2.2430 H   0  0  0  0  0  0  0  0  0  0  0  0
    3.9944   -1.7895   -1.2082 H   0  0  0  0  0  0  0  0  0  0  0  0
    5.9436    2.0862   -2.0191 H   0  0  0  0  0  0  0  0  0  0  0  0
    4.2447    2.5115   -2.5111 H   0  0  0  0  0  0  0  0  0  0  0  0
    4.6805    2.4676   -0.7649 H   0  0  0  0  0  0  0  0  0  0  0  0
    3.1805   -3.7899    1.2387 H   0  0  0  0  0  0  0  0  0  0  0  0
    2.5088   -5.1308    0.2623 H   0  0  0  0  0  0  0  0  0  0  0  0
    3.4795   -3.8589   -0.5324 H   0  0  0  0  0  0  0  0  0  0  0  0
    1.5822   -3.5540   -2.1597 H   0  0  0  0  0  0  0  0  0  0  0  0
    0.4326   -4.6507   -1.3422 H   0  0  0  0  0  0  0  0  0  0  0  0
    0.0032   -2.9212   -1.6343 H   0  0  0  0  0  0  0  0  0  0  0  0
   -0.5251   -3.0435    1.0079 H   0  0  0  0  0  0  0  0  0  0  0  0
    0.2162   -4.6663    1.1649 H   0  0  0  0  0  0  0  0  0  0  0  0
    0.8380   -3.2798    2.1341 H   0  0  0  0  0  0  0  0  0  0  0  0
  1  6  1  1  0  0  0
  2  7  1  0  0  0  0
  4  8  1  0  0  0  0
  5 10  1  0  0  0  0
  6  7  2  0  0  0  0
  6 16  1  0  0  0  0
  7  4  1  0  0  0  0
  8 19  1  0  0  0  0
  8 17  1  0  0  0  0
  9 21  1  0  0  0  0
  9  1  1  0  0  0  0
 10  9  1  0  0  0  0
 10  3  1  1  0  0  0
 11  5  1  0  0  0  0
 11 24  1  0  0  0  0
 12  1  1  0  0  0  0
 12 13  1  0  0  0  0
 12 15  1  0  0  0  0
 13 26  1  0  0  0  0
 13 25  1  0  0  0  0
 14 29  1  0  0  0  0
 14 12  1  0  0  0  0
 15 32  1  0  0  0  0
 15 33  1  0  0  0  0
 18  8  1  0  0  0  0
 20  9  1  0  0  0  0
 22 11  1  0  0  0  0
 23 11  1  0  0  0  0
 27 13  1  0  0  0  0
 28 14  1  0  0  0  0
 30 14  1  0  0  0  0
 31 15  1  0  0  0  0
M  CHG  1   2  -1
M  END
