1,2,3,4
 OpenBabel05122313063D

 64 65  0  0  0  0  0  0  0  0999 V2000
    0.3233   -1.3641   -0.7837 C   0  0  0  0  0  3  0  0  0  0  0  0
    1.9766    0.4963    0.7985 P   0  0  0  0  0  0  0  0  0  0  0  0
   -0.2979   -0.7498   -2.5071 Se  0  0  0  0  0  1  0  0  0  0  0  0
   -2.2699   -0.1369    0.3013 P   0  0  0  0  0  0  0  0  0  0  0  0
    2.6866   -1.0348    0.0641 C   0  0  0  0  0  0  0  0  0  0  0  0
    1.7921   -1.7273   -0.7825 C   0  0  0  0  0  0  0  0  0  0  0  0
    2.2959   -2.7840   -1.5746 C   0  0  0  0  0  0  0  0  0  0  0  0
    1.6173   -3.2839   -2.2820 H   0  0  0  0  0  0  0  0  0  0  0  0
    3.6358   -3.1803   -1.4757 C   0  0  0  0  0  0  0  0  0  0  0  0
    4.0095   -4.0032   -2.1043 H   0  0  0  0  0  0  0  0  0  0  0  0
    4.5012   -2.5343   -0.5748 C   0  0  0  0  0  0  0  0  0  0  0  0
    5.5497   -2.8559   -0.4830 H   0  0  0  0  0  0  0  0  0  0  0  0
    4.0269   -1.4574    0.1858 C   0  0  0  0  0  0  0  0  0  0  0  0
    4.7114   -0.9336    0.8690 H   0  0  0  0  0  0  0  0  0  0  0  0
   -1.7781   -1.8952    0.5889 C   0  0  0  0  0  0  0  0  0  0  0  0
   -0.1311   -3.6463    0.2664 C   0  0  0  0  0  0  0  0  0  0  0  0
    0.8289   -3.9965   -0.1349 H   0  0  0  0  0  0  0  0  0  0  0  0
   -0.5422   -2.3163    0.0177 C   0  0  0  0  0  0  0  0  0  0  0  0
   -0.9046   -4.5305    1.0335 C   0  0  0  0  0  0  0  0  0  0  0  0
   -0.5406   -5.5544    1.2103 H   0  0  0  0  0  0  0  0  0  0  0  0
   -2.1210   -4.1081    1.5824 C   0  0  0  0  0  0  0  0  0  0  0  0
   -2.7276   -4.7878    2.1997 H   0  0  0  0  0  0  0  0  0  0  0  0
   -2.5503   -2.7914    1.3496 C   0  0  0  0  0  0  0  0  0  0  0  0
   -3.4932   -2.4512    1.8035 H   0  0  0  0  0  0  0  0  0  0  0  0
    3.2637    1.8325    0.4132 C   0  0  0  0  0  0  0  0  0  0  0  0
    2.6750    2.7652    0.5610 H   0  0  0  0  0  0  0  0  0  0  0  0
    2.0926    0.2133    2.6532 C   0  0  0  0  0  0  0  0  0  0  0  0
    3.1699    0.0655    2.8879 H   0  0  0  0  0  0  0  0  0  0  0  0
    3.6374    1.7324   -1.0724 C   0  0  0  0  0  0  0  0  0  0  0  0
    4.1445    2.6596   -1.4123 H   0  0  0  0  0  0  0  0  0  0  0  0
    2.7427    1.5622   -1.7056 H   0  0  0  0  0  0  0  0  0  0  0  0
    4.3275    0.8839   -1.2490 H   0  0  0  0  0  0  0  0  0  0  0  0
    4.4998    1.9158    1.3142 C   0  0  0  0  0  0  0  0  0  0  0  0
    5.1197    2.7889    1.0186 H   0  0  0  0  0  0  0  0  0  0  0  0
    5.1438    1.0196    1.2183 H   0  0  0  0  0  0  0  0  0  0  0  0
    4.2450    2.0411    2.3846 H   0  0  0  0  0  0  0  0  0  0  0  0
    1.3224   -1.0631    3.0056 C   0  0  0  0  0  0  0  0  0  0  0  0
    0.2662   -0.9905    2.6776 H   0  0  0  0  0  0  0  0  0  0  0  0
    1.3332   -1.2320    4.1025 H   0  0  0  0  0  0  0  0  0  0  0  0
    1.7577   -1.9545    2.5132 H   0  0  0  0  0  0  0  0  0  0  0  0
    1.5654    1.4362    3.4092 C   0  0  0  0  0  0  0  0  0  0  0  0
    2.1559    2.3519    3.2020 H   0  0  0  0  0  0  0  0  0  0  0  0
    1.5921    1.2616    4.5050 H   0  0  0  0  0  0  0  0  0  0  0  0
    0.5136    1.6430    3.1228 H   0  0  0  0  0  0  0  0  0  0  0  0
   -3.5864   -0.4026   -1.0499 C   0  0  0  0  0  0  0  0  0  0  0  0
   -3.0552   -1.1537   -1.6735 H   0  0  0  0  0  0  0  0  0  0  0  0
   -3.2583    0.3055    1.8484 C   0  0  0  0  0  0  0  0  0  0  0  0
   -4.0919   -0.4231    1.9457 H   0  0  0  0  0  0  0  0  0  0  0  0
   -3.7778    0.8341   -1.9278 C   0  0  0  0  0  0  0  0  0  0  0  0
   -2.8011    1.1752   -2.3223 H   0  0  0  0  0  0  0  0  0  0  0  0
   -4.2582    1.6740   -1.3854 H   0  0  0  0  0  0  0  0  0  0  0  0
   -4.4277    0.5871   -2.7938 H   0  0  0  0  0  0  0  0  0  0  0  0
   -4.9101   -0.9948   -0.5666 C   0  0  0  0  0  0  0  0  0  0  0  0
   -5.5488   -1.2469   -1.4398 H   0  0  0  0  0  0  0  0  0  0  0  0
   -5.4882   -0.2831    0.0596 H   0  0  0  0  0  0  0  0  0  0  0  0
   -4.7669   -1.9285    0.0115 H   0  0  0  0  0  0  0  0  0  0  0  0
   -3.8572    1.7085    1.6958 C   0  0  0  0  0  0  0  0  0  0  0  0
   -3.0545    2.4670    1.5838 H   0  0  0  0  0  0  0  0  0  0  0  0
   -4.4473    1.9794    2.5964 H   0  0  0  0  0  0  0  0  0  0  0  0
   -4.5276    1.7922    0.8179 H   0  0  0  0  0  0  0  0  0  0  0  0
   -2.3686    0.2208    3.0900 C   0  0  0  0  0  0  0  0  0  0  0  0
   -1.9880   -0.8049    3.2603 H   0  0  0  0  0  0  0  0  0  0  0  0
   -2.9299    0.5346    3.9952 H   0  0  0  0  0  0  0  0  0  0  0  0
   -1.4896    0.8894    2.9825 H   0  0  0  0  0  0  0  0  0  0  0  0
  1  6  1  0  0  0  0
  1 18  1  0  0  0  0
  2 27  1  0  0  0  0
  3  1  1  0  0  0  0
  4 15  1  0  0  0  0
  4 47  1  0  0  0  0
  5 13  1  0  0  0  0
  5  2  1  0  0  0  0
  6  5  2  0  0  0  0
  7  9  2  0  0  0  0
  7  6  1  0  0  0  0
  8  7  1  0  0  0  0
  9 11  1  0  0  0  0
 10  9  1  0  0  0  0
 11 12  1  0  0  0  0
 11 13  2  0  0  0  0
 13 14  1  0  0  0  0
 15 23  1  0  0  0  0
 16 19  2  0  0  0  0
 17 16  1  0  0  0  0
 18 16  1  0  0  0  0
 18 15  2  0  0  0  0
 19 20  1  0  0  0  0
 19 21  1  0  0  0  0
 21 22  1  0  0  0  0
 23 21  2  0  0  0  0
 23 24  1  0  0  0  0
 25 26  1  0  0  0  0
 25  2  1  0  0  0  0
 25 33  1  0  0  0  0
 27 28  1  0  0  0  0
 27 37  1  0  0  0  0
 27 41  1  0  0  0  0
 29 25  1  0  0  0  0
 30 29  1  0  0  0  0
 31 29  1  0  0  0  0
 32 29  1  0  0  0  0
 33 36  1  0  0  0  0
 34 33  1  0  0  0  0
 35 33  1  0  0  0  0
 37 39  1  0  0  0  0
 38 37  1  0  0  0  0
 40 37  1  0  0  0  0
 41 43  1  0  0  0  0
 42 41  1  0  0  0  0
 44 41  1  0  0  0  0
 45 53  1  0  0  0  0
 45  4  1  0  0  0  0
 46 45  1  0  0  0  0
 47 48  1  0  0  0  0
 47 61  1  0  0  0  0
 49 51  1  0  0  0  0
 49 45  1  0  0  0  0
 50 49  1  0  0  0  0
 52 49  1  0  0  0  0
 53 56  1  0  0  0  0
 53 55  1  0  0  0  0
 54 53  1  0  0  0  0
 57 47  1  0  0  0  0
 57 59  1  0  0  0  0
 58 57  1  0  0  0  0
 60 57  1  0  0  0  0
 61 62  1  0  0  0  0
 61 63  1  0  0  0  0
 64 61  1  0  0  0  0
M  END
