1,2,5
q = -1.0

 28 28  0  0  0  0  0  0  0  0999 V2000
   -1.9556   -1.2120    0.0195 Se  0  0  0  0  0  1  0  0  0  0  0  0
   -0.0863    1.1429   -0.0031 N   0  0  0  0  0  2  0  0  0  0  0  0
   -1.3368    1.6085   -0.0136 N   0  0  0  0  0  0  0  0  0  0  0  0
   -3.5899    1.1081   -0.0692 N   0  0  0  0  0  0  0  0  0  0  0  0
    2.2995    0.0090   -0.0015 N   0  0  0  0  0  2  0  0  0  0  0  0
    2.2646    1.3817    0.0037 C   0  0  0  0  0  0  0  0  0  0  0  0
    0.9444    1.9961    0.0092 C   0  0  0  0  0  0  0  0  0  0  0  0
   -4.6960    0.1684   -0.0243 C   0  0  0  0  0  0  0  0  0  0  0  0
   -4.4570   -0.7335   -0.6224 H   0  0  0  0  0  0  0  0  0  0  0  0
   -5.5953    0.6502   -0.4538 H   0  0  0  0  0  0  0  0  0  0  0  0
   -4.9273   -0.1553    1.0152 H   0  0  0  0  0  0  0  0  0  0  0  0
   -2.2984    0.6792   -0.0282 C   0  0  0  0  0  0  0  0  0  0  0  0
    3.4745    2.1092   -0.0000 C   0  0  0  0  0  0  0  0  0  0  0  0
    3.4507    3.2071    0.0013 H   0  0  0  0  0  0  0  0  0  0  0  0
    3.4632   -0.6558   -0.0090 C   0  0  0  0  0  0  0  0  0  0  0  0
    3.3641   -1.7554   -0.0124 H   0  0  0  0  0  0  0  0  0  0  0  0
    4.6949    0.0159   -0.0108 C   0  0  0  0  0  0  0  0  0  0  0  0
    5.6310   -0.5593   -0.0152 H   0  0  0  0  0  0  0  0  0  0  0  0
    4.6931    1.4191   -0.0068 C   0  0  0  0  0  0  0  0  0  0  0  0
    5.6406    1.9787   -0.0092 H   0  0  0  0  0  0  0  0  0  0  0  0
   -3.9262    2.5218    0.0283 C   0  0  0  0  0  0  0  0  0  0  0  0
   -4.3441    2.7630    1.0312 H   0  0  0  0  0  0  0  0  0  0  0  0
   -4.6866    2.7807   -0.7371 H   0  0  0  0  0  0  0  0  0  0  0  0
   -3.0157    3.1216   -0.1334 H   0  0  0  0  0  0  0  0  0  0  0  0
    0.7627    3.4809    0.0198 C   0  0  0  0  0  0  0  0  0  0  0  0
   -0.3132    3.7215    0.0659 H   0  0  0  0  0  0  0  0  0  0  0  0
    1.1920    3.9455   -0.8933 H   0  0  0  0  0  0  0  0  0  0  0  0
    1.2707    3.9404    0.8934 H   0  0  0  0  0  0  0  0  0  0  0  0
  2  7  1  0  0  0  0
  3  2  1  0  0  0  0
  4 12  1  0  0  0  0
  4  8  1  0  0  0  0
  4 21  1  0  0  0  0
  5  6  1  0  0  0  0
  6  7  2  0  0  0  0
  7 25  1  0  0  0  0
  8 11  1  0  0  0  0
  9  8  1  0  0  0  0
 10  8  1  0  0  0  0
 12  3  2  0  0  0  0
 12  1  1  0  0  0  0
 13 14  1  0  0  0  0
 13  6  1  0  0  0  0
 15  5  1  0  0  0  0
 16 15  1  0  0  0  0
 17 15  2  0  0  0  0
 17 19  1  0  0  0  0
 18 17  1  0  0  0  0
 19 13  2  0  0  0  0
 20 19  1  0  0  0  0
 21 22  1  0  0  0  0
 23 21  1  0  0  0  0
 24 21  1  0  0  0  0
 25 26  1  0  0  0  0
 25 28  1  0  0  0  0
 27 25  1  0  0  0  0
M  END
