1,2,3
q = -1.0, confidence = 0.0

 19 19  0  0  0  0  0  0  0  0999 V2000
    2.4681   -0.4347   -0.0005 Se  0  0  0  0  0  1  0  0  0  0  0  0
   -1.9658    0.0650   -0.0000 N   0  0  0  0  0  2  0  0  0  0  0  0
    0.2080    1.5522   -0.0001 N   0  0  0  0  0  2  0  0  0  0  0  0
    1.3594    2.2395    0.0004 N   0  0  0  0  0  0  0  0  0  0  0  0
    3.6418    2.1234   -0.0023 N   0  0  0  0  0  0  0  0  0  0  0  0
   -2.1523    1.4312    0.0000 C   0  0  0  0  0  0  0  0  0  0  0  0
   -3.4587    1.9625   -0.0001 C   0  0  0  0  0  0  0  0  0  0  0  0
   -3.5953    3.0531   -0.0002 H   0  0  0  0  0  0  0  0  0  0  0  0
   -4.5544    1.0921   -0.0002 C   0  0  0  0  0  0  0  0  0  0  0  0
   -5.5781    1.4949   -0.0003 H   0  0  0  0  0  0  0  0  0  0  0  0
   -4.3348   -0.2954   -0.0002 C   0  0  0  0  0  0  0  0  0  0  0  0
   -5.1699   -1.0094   -0.0003 H   0  0  0  0  0  0  0  0  0  0  0  0
   -3.0168   -0.7721   -0.0001 C   0  0  0  0  0  0  0  0  0  0  0  0
   -2.7522   -1.8431   -0.0001 H   0  0  0  0  0  0  0  0  0  0  0  0
   -0.9453    2.2178    0.0000 C   0  0  0  0  0  0  0  0  0  0  0  0
   -0.9368    3.3170   -0.0001 H   0  0  0  0  0  0  0  0  0  0  0  0
    2.4549    1.4794   -0.0000 C   0  0  0  0  0  0  0  0  0  0  0  0
    4.5164    1.6037    0.0107 H   0  0  0  0  0  0  0  0  0  0  0  0
    3.6552    3.1435    0.0088 H   0  0  0  0  0  0  0  0  0  0  0  0
  1 17  1  0  0  0  0
  2  6  1  0  0  0  0
  3 15  1  0  0  0  0
  3  4  1  0  0  0  0
  5 17  1  0  0  0  0
  5 19  1  0  0  0  0
  5 18  1  0  0  0  0
  6 15  2  0  0  0  0
  7  6  1  0  0  0  0
  8  7  1  0  0  0  0
  9 11  1  0  0  0  0
  9  7  2  0  0  0  0
 10  9  1  0  0  0  0
 11 13  2  0  0  0  0
 12 11  1  0  0  0  0
 13  2  1  0  0  0  0
 14 13  1  0  0  0  0
 16 15  1  0  0  0  0
 17  4  2  0  0  0  0
M  END
