1,3,5,7,9,12
 OpenBabel05122313063D

 45 44  0  0  0  0  0  0  0  0999 V2000
    1.3231    1.3089   -1.3773 O   0  5  0  0  0  0  0  0  0  0  0  0
    2.9749    2.8282   -1.1174 O   0  0  0  0  0  0  0  0  0  0  0  0
    1.3425   -1.6103   -1.4566 O   0  5  0  0  0  0  0  0  0  0  0  0
    3.0227   -3.1284   -1.4113 O   0  0  0  0  0  0  0  0  0  0  0  0
   -1.2570    1.4583   -1.1457 O   0  5  0  0  0  0  0  0  0  0  0  0
   -2.1164    3.5204   -0.8043 O   0  0  0  0  0  0  0  0  0  0  0  0
   -1.4110   -1.2158   -1.7236 O   0  5  0  0  0  0  0  0  0  0  0  0
   -3.4962   -1.5612   -2.5326 O   0  0  0  0  0  0  0  0  0  0  0  0
    0.0363   -1.5326    1.0883 O   0  5  0  0  0  0  0  0  0  0  0  0
   -0.7270   -2.6020    2.9197 O   0  0  0  0  0  0  0  0  0  0  0  0
    2.3419   -0.2507    0.5864 N   0  0  0  0  0  0  0  0  0  0  0  0
    0.0270    1.4828    1.2561 N   0  0  0  0  0  0  0  0  0  0  0  0
   -2.2958   -0.3654    0.6341 N   0  0  0  0  0  0  0  0  0  0  0  0
    2.4902    1.7106   -0.9508 C   0  0  0  0  0  0  0  0  0  0  0  0
    3.2481    0.6167   -0.1844 C   0  0  0  0  0  0  0  0  0  0  0  0
    3.7543   -0.0016   -0.9537 H   0  0  0  0  0  0  0  0  0  0  0  0
    4.0429    1.0665    0.4520 H   0  0  0  0  0  0  0  0  0  0  0  0
    2.3852   -2.2073   -0.9189 C   0  0  0  0  0  0  0  0  0  0  0  0
    2.7568   -1.6575    0.4821 C   0  0  0  0  0  0  0  0  0  0  0  0
    2.1924   -2.2511    1.2261 H   0  0  0  0  0  0  0  0  0  0  0  0
    3.8466   -1.7959    0.6586 H   0  0  0  0  0  0  0  0  0  0  0  0
    2.1126    0.2342    1.9538 C   0  0  0  0  0  0  0  0  0  0  0  0
    3.0758    0.3915    2.5003 H   0  0  0  0  0  0  0  0  0  0  0  0
    1.5410   -0.5467    2.4911 H   0  0  0  0  0  0  0  0  0  0  0  0
    1.3506    1.5589    1.9412 C   0  0  0  0  0  0  0  0  0  0  0  0
    1.2234    1.9273    2.9852 H   0  0  0  0  0  0  0  0  0  0  0  0
    1.9515    2.3247    1.4137 H   0  0  0  0  0  0  0  0  0  0  0  0
   -1.3314    2.6111   -0.5440 C   0  0  0  0  0  0  0  0  0  0  0  0
   -0.3085    2.7752    0.5995 C   0  0  0  0  0  0  0  0  0  0  0  0
    0.6095    3.1816    0.1297 H   0  0  0  0  0  0  0  0  0  0  0  0
   -0.6828    3.5177    1.3389 H   0  0  0  0  0  0  0  0  0  0  0  0
   -1.0343    1.1022    2.2237 C   0  0  0  0  0  0  0  0  0  0  0  0
   -1.1964    1.9440    2.9394 H   0  0  0  0  0  0  0  0  0  0  0  0
   -0.6706    0.2426    2.8188 H   0  0  0  0  0  0  0  0  0  0  0  0
   -2.3793    0.7666    1.5700 C   0  0  0  0  0  0  0  0  0  0  0  0
   -3.1107    0.5568    2.3880 H   0  0  0  0  0  0  0  0  0  0  0  0
   -2.7659    1.6482    1.0249 H   0  0  0  0  0  0  0  0  0  0  0  0
   -2.7277   -1.1205   -1.6918 C   0  0  0  0  0  0  0  0  0  0  0  0
   -3.2724   -0.3494   -0.4654 C   0  0  0  0  0  0  0  0  0  0  0  0
   -3.4214    0.6947   -0.8017 H   0  0  0  0  0  0  0  0  0  0  0  0
   -4.2578   -0.7746   -0.1709 H   0  0  0  0  0  0  0  0  0  0  0  0
   -0.9085   -1.9838    1.8762 C   0  0  0  0  0  0  0  0  0  0  0  0
   -2.3006   -1.6575    1.3308 C   0  0  0  0  0  0  0  0  0  0  0  0
   -2.5429   -2.4520    0.5950 H   0  0  0  0  0  0  0  0  0  0  0  0
   -3.0613   -1.7004    2.1431 H   0  0  0  0  0  0  0  0  0  0  0  0
  1 14  1  0  0  0  0
  2 14  2  0  0  0  0
  3 18  1  0  0  0  0
  4 18  2  0  0  0  0
  5 28  1  0  0  0  0
  6 28  2  0  0  0  0
  7 38  1  0  0  0  0
  8 38  2  0  0  0  0
  9 42  1  0  0  0  0
 11 22  1  0  0  0  0
 12 25  1  0  0  0  0
 12 32  1  0  0  0  0
 13 43  1  0  0  0  0
 13 35  1  0  0  0  0
 14 15  1  0  0  0  0
 15 17  1  0  0  0  0
 15 11  1  0  0  0  0
 16 15  1  0  0  0  0
 18 19  1  0  0  0  0
 19 11  1  0  0  0  0
 19 21  1  0  0  0  0
 19 20  1  0  0  0  0
 22 24  1  0  0  0  0
 22 23  1  0  0  0  0
 25 22  1  0  0  0  0
 25 26  1  0  0  0  0
 27 25  1  0  0  0  0
 28 29  1  0  0  0  0
 29 12  1  0  0  0  0
 29 31  1  0  0  0  0
 30 29  1  0  0  0  0
 32 34  1  0  0  0  0
 32 33  1  0  0  0  0
 35 32  1  0  0  0  0
 35 36  1  0  0  0  0
 37 35  1  0  0  0  0
 38 39  1  0  0  0  0
 39 41  1  0  0  0  0
 39 13  1  0  0  0  0
 40 39  1  0  0  0  0
 42 10  2  0  0  0  0
 43 42  1  0  0  0  0
 43 45  1  0  0  0  0
 44 43  1  0  0  0  0
M  CHG  5   1  -1   3  -1   5  -1   7  -1   9  -1
M  END
