1,2,3
q = -1.0, confidence = 0.146

 38 40  0  0  1  0  0  0  0  0999 V2000
   -1.8272   -1.7239    0.6721 S   0  0  0  0  0  1  0  0  0  0  0  0
   -0.2813    0.1918   -2.0490 S   0  0  0  0  0  1  0  0  0  0  0  0
    0.0170    1.4983    1.3459 S   0  0  0  0  0  1  0  0  0  0  0  0
   -2.7203   -1.1991   -0.7025 C   0  0  2  0  0  3  0  0  0  0  0  0
   -3.2459    0.0291   -1.0023 N   0  0  0  0  0  0  0  0  0  0  0  0
   -3.8962   -0.0528   -2.2241 C   0  0  0  0  0  0  0  0  0  0  0  0
   -4.3883    0.8191   -2.6636 H   0  0  0  0  0  0  0  0  0  0  0  0
   -3.7740   -1.3345   -2.6921 C   0  0  0  0  0  0  0  0  0  0  0  0
   -4.1416   -1.8068   -3.6072 H   0  0  0  0  0  0  0  0  0  0  0  0
   -3.0551   -2.0362   -1.7381 N   0  0  0  0  0  0  0  0  0  0  0  0
   -2.6118   -3.4156   -1.8436 C   0  0  0  0  0  0  0  0  0  0  0  0
   -3.2395   -3.9397   -2.5871 H   0  0  0  0  0  0  0  0  0  0  0  0
   -2.6986   -3.9031   -0.8548 H   0  0  0  0  0  0  0  0  0  0  0  0
   -1.5477   -3.4576   -2.1515 H   0  0  0  0  0  0  0  0  0  0  0  0
   -0.7663    1.7915   -1.6103 C   0  0  2  0  0  3  0  0  0  0  0  0
   -1.9159    2.2254   -1.0125 N   0  0  0  0  0  0  0  0  0  0  0  0
   -1.8479    3.6031   -0.8716 C   0  0  0  0  0  0  0  0  0  0  0  0
   -2.6623    4.1669   -0.4086 H   0  0  0  0  0  0  0  0  0  0  0  0
   -0.6478    4.0279   -1.3797 C   0  0  0  0  0  0  0  0  0  0  0  0
   -0.2115    5.0274   -1.4598 H   0  0  0  0  0  0  0  0  0  0  0  0
    0.0068    2.8981   -1.8437 N   0  0  0  0  0  0  0  0  0  0  0  0
    1.3633    2.8410   -2.3615 C   0  0  0  0  0  0  0  0  0  0  0  0
    1.6592    3.8462   -2.7127 H   0  0  0  0  0  0  0  0  0  0  0  0
    1.4056    2.1128   -3.1922 H   0  0  0  0  0  0  0  0  0  0  0  0
    2.0604    2.4936   -1.5712 H   0  0  0  0  0  0  0  0  0  0  0  0
   -1.5893    1.1805    1.8906 C   0  0  2  0  0  3  0  0  0  0  0  0
   -2.7704    1.2491    1.2050 N   0  0  0  0  0  0  0  0  0  0  0  0
   -3.8060    0.9309    2.0697 C   0  0  0  0  0  0  0  0  0  0  0  0
   -4.8448    0.9171    1.7291 H   0  0  0  0  0  0  0  0  0  0  0  0
   -3.2696    0.6587    3.3005 C   0  0  0  0  0  0  0  0  0  0  0  0
   -3.7394    0.3715    4.2452 H   0  0  0  0  0  0  0  0  0  0  0  0
   -1.8995    0.8248    3.1806 N   0  0  0  0  0  0  0  0  0  0  0  0
   -0.9213    0.5598    4.2210 C   0  0  0  0  0  0  0  0  0  0  0  0
   -0.7783   -0.5320    4.3476 H   0  0  0  0  0  0  0  0  0  0  0  0
   -1.2522    1.0115    5.1754 H   0  0  0  0  0  0  0  0  0  0  0  0
    0.0398    1.0012    3.8961 H   0  0  0  0  0  0  0  0  0  0  0  0
   -3.0437    1.4108   -0.3181 B   0  0  2  0  0  0  0  0  0  0  0  0
   -4.0900    2.0452   -0.4429 H   0  0  0  0  0  0  0  0  0  0  0  0
  4  1  1  1  0  0  0
  5  4  1  0  0  0  0
  5 37  1  0  0  0  0
  6  5  1  0  0  0  0
  7  6  1  0  0  0  0
  8  6  2  0  0  0  0
  8 10  1  0  0  0  0
  9  8  1  0  0  0  0
 10  4  1  0  0  0  0
 11 10  1  0  0  0  0
 11 13  1  0  0  0  0
 12 11  1  0  0  0  0
 14 11  1  0  0  0  0
 15  2  1  6  0  0  0
 15 16  1  0  0  0  0
 16 17  1  0  0  0  0
 16 37  1  0  0  0  0
 17 18  1  0  0  0  0
 19 17  2  0  0  0  0
 20 19  1  0  0  0  0
 21 15  1  0  0  0  0
 21 19  1  0  0  0  0
 22 21  1  0  0  0  0
 22 25  1  0  0  0  0
 23 22  1  0  0  0  0
 24 22  1  0  0  0  0
 26  3  1  1  0  0  0
 26 32  1  0  0  0  0
 27 26  1  0  0  0  0
 27 28  1  0  0  0  0
 28 30  2  0  0  0  0
 29 28  1  0  0  0  0
 30 31  1  0  0  0  0
 32 30  1  0  0  0  0
 32 33  1  0  0  0  0
 33 34  1  0  0  0  0
 33 35  1  0  0  0  0
 36 33  1  0  0  0  0
 37 38  1  6  0  0  0
 37 27  1  0  0  0  0
M  END
