1,2,3
q = 0.0, confidence = 1.0

 24 24  0  0  0  0  0  0  0  0999 V2000
    0.8550    0.9885    1.6141 S   0  0  0  0  0  0  0  0  0  0  0  0
    0.7862    0.1077   -1.9154 S   0  0  0  0  0  0  0  0  0  0  0  0
    0.1877   -2.1152    0.5145 S   0  0  0  0  0  0  0  0  0  0  0  0
    2.0968    2.1326    0.8444 C   0  0  0  0  0  0  0  0  0  0  0  0
    2.1291    2.2049   -0.6826 C   0  0  0  0  0  0  0  0  0  0  0  0
    2.3933    0.8825   -1.4174 C   0  0  0  0  0  0  0  0  0  0  0  0
    1.2798   -1.6649   -2.0464 C   0  0  0  0  0  0  0  0  0  0  0  0
    1.5738   -2.3445   -0.7192 C   0  0  0  0  0  0  0  0  0  0  0  0
    1.1874   -1.7647    2.0344 C   0  0  0  0  0  0  0  0  0  0  0  0
    1.9647   -0.4633    1.9896 C   0  0  0  0  0  0  0  0  0  0  0  0
    3.0855    1.8506    1.2632 H   0  0  0  0  0  0  0  0  0  0  0  0
    1.8439    3.1287    1.2582 H   0  0  0  0  0  0  0  0  0  0  0  0
    2.9231    2.9333   -0.9551 H   0  0  0  0  0  0  0  0  0  0  0  0
    1.1770    2.6464   -1.0482 H   0  0  0  0  0  0  0  0  0  0  0  0
    2.9706    0.1735   -0.7895 H   0  0  0  0  0  0  0  0  0  0  0  0
    2.9689    1.0517   -2.3491 H   0  0  0  0  0  0  0  0  0  0  0  0
    2.1542   -1.7372   -2.7265 H   0  0  0  0  0  0  0  0  0  0  0  0
    0.4152   -2.1352   -2.5567 H   0  0  0  0  0  0  0  0  0  0  0  0
    2.5072   -1.9529   -0.2677 H   0  0  0  0  0  0  0  0  0  0  0  0
    1.7018   -3.4358   -0.8668 H   0  0  0  0  0  0  0  0  0  0  0  0
    0.4294   -1.7594    2.8438 H   0  0  0  0  0  0  0  0  0  0  0  0
    1.8679   -2.6233    2.2112 H   0  0  0  0  0  0  0  0  0  0  0  0
    2.4412   -0.2706    2.9727 H   0  0  0  0  0  0  0  0  0  0  0  0
    2.7672   -0.5018    1.2261 H   0  0  0  0  0  0  0  0  0  0  0  0
  1 10  1  0  0  0  0
  2  6  1  0  0  0  0
  3  9  1  0  0  0  0
  4 12  1  0  0  0  0
  4 11  1  0  0  0  0
  4  1  1  0  0  0  0
  5  4  1  0  0  0  0
  6 15  1  0  0  0  0
  6  5  1  0  0  0  0
  7  2  1  0  0  0  0
  7  8  1  0  0  0  0
  8 19  1  0  0  0  0
  8  3  1  0  0  0  0
  9 22  1  0  0  0  0
  9 21  1  0  0  0  0
 10  9  1  0  0  0  0
 10 23  1  0  0  0  0
 13  5  1  0  0  0  0
 14  5  1  0  0  0  0
 16  6  1  0  0  0  0
 17  7  1  0  0  0  0
 18  7  1  0  0  0  0
 20  8  1  0  0  0  0
 24 10  1  0  0  0  0
M  END
