1,2,3
q = 0.0, confidence = 0.996

 57 60  0  0  0  0  0  0  0  0999 V2000
   -1.7302    0.8612    1.6615 S   0  0  0  0  0  0  0  0  0  0  0  0
    0.1188   -1.9301    1.6597 S   0  0  0  0  0  0  0  0  0  0  0  0
    1.6116    1.0670    1.6613 S   0  0  0  0  0  0  0  0  0  0  0  0
   -3.0656   -3.5927   -2.1111 O   0  0  0  0  0  0  0  0  0  0  0  0
   -4.5056   -1.4186   -2.1096 O   0  0  0  0  0  0  0  0  0  0  0  0
    4.6459   -0.8558   -2.1094 O   0  0  0  0  0  0  0  0  0  0  0  0
    3.4829   -3.1897   -2.1111 O   0  0  0  0  0  0  0  0  0  0  0  0
   -1.5805    4.4512   -2.1085 O   0  0  0  0  0  0  0  0  0  0  0  0
    1.0223    4.6114   -2.1087 O   0  0  0  0  0  0  0  0  0  0  0  0
   -2.0602   -0.5221    0.5483 C   0  0  0  0  0  0  0  0  0  0  0  0
   -1.2842   -1.6934    0.5475 C   0  0  0  0  0  0  0  0  0  0  0  0
   -1.6208   -2.7486   -0.3281 C   0  0  0  0  0  0  0  0  0  0  0  0
   -2.6899   -2.6386   -1.2262 C   0  0  0  0  0  0  0  0  0  0  0  0
   -3.4800   -1.4458   -1.2254 C   0  0  0  0  0  0  0  0  0  0  0  0
   -3.1636   -0.4194   -0.3264 C   0  0  0  0  0  0  0  0  0  0  0  0
   -2.3173   -4.7930   -2.1518 C   0  0  0  0  0  0  0  0  0  0  0  0
   -5.3188   -0.2612   -2.1486 C   0  0  0  0  0  0  0  0  0  0  0  0
    1.4822   -1.5230    0.5474 C   0  0  0  0  0  0  0  0  0  0  0  0
    2.1088   -0.2654    0.5483 C   0  0  0  0  0  0  0  0  0  0  0  0
    3.1913   -0.0283   -0.3265 C   0  0  0  0  0  0  0  0  0  0  0  0
    3.6312   -1.0083   -1.2254 C   0  0  0  0  0  0  0  0  0  0  0  0
    2.9931   -2.2889   -1.2263 C   0  0  0  0  0  0  0  0  0  0  0  0
    1.9453   -2.5289   -0.3283 C   0  0  0  0  0  0  0  0  0  0  0  0
    5.3114    0.3923   -2.1487 C   0  0  0  0  0  0  0  0  0  0  0  0
    2.8872   -4.4726   -2.1523 C   0  0  0  0  0  0  0  0  0  0  0  0
    0.5780    2.0446    0.5488 C   0  0  0  0  0  0  0  0  0  0  0  0
   -0.8244    1.9583    0.5490 C   0  0  0  0  0  0  0  0  0  0  0  0
   -1.5706    2.7774   -0.3260 C   0  0  0  0  0  0  0  0  0  0  0  0
   -0.9415    3.6485   -1.2244 C   0  0  0  0  0  0  0  0  0  0  0  0
    0.4866    3.7364   -1.2245 C   0  0  0  0  0  0  0  0  0  0  0  0
    1.2180    2.9489   -0.3263 C   0  0  0  0  0  0  0  0  0  0  0  0
   -2.9942    4.4032   -2.1485 C   0  0  0  0  0  0  0  0  0  0  0  0
    2.4312    4.7370   -2.1489 C   0  0  0  0  0  0  0  0  0  0  0  0
   -1.0244   -3.6687   -0.2887 H   0  0  0  0  0  0  0  0  0  0  0  0
   -3.7781    0.4886   -0.2857 H   0  0  0  0  0  0  0  0  0  0  0  0
    3.6900    0.9481   -0.2858 H   0  0  0  0  0  0  0  0  0  0  0  0
    1.4662   -3.5152   -0.2890 H   0  0  0  0  0  0  0  0  0  0  0  0
   -2.6655    2.7208   -0.2859 H   0  0  0  0  0  0  0  0  0  0  0  0
    2.3116    3.0271   -0.2863 H   0  0  0  0  0  0  0  0  0  0  0  0
   -2.7752   -5.4201   -2.9385 H   0  0  0  0  0  0  0  0  0  0  0  0
   -2.3570   -5.3390   -1.1827 H   0  0  0  0  0  0  0  0  0  0  0  0
   -1.2504   -4.6047   -2.4118 H   0  0  0  0  0  0  0  0  0  0  0  0
   -6.0753   -0.4373   -2.9352 H   0  0  0  0  0  0  0  0  0  0  0  0
   -4.7294    0.6480   -2.4078 H   0  0  0  0  0  0  0  0  0  0  0  0
   -5.8366   -0.0860   -1.1791 H   0  0  0  0  0  0  0  0  0  0  0  0
    6.0839    0.3099   -2.9351 H   0  0  0  0  0  0  0  0  0  0  0  0
    5.8036    0.6300   -1.1791 H   0  0  0  0  0  0  0  0  0  0  0  0
    4.6152    1.2225   -2.4084 H   0  0  0  0  0  0  0  0  0  0  0  0
    3.4185   -5.0387   -2.9390 H   0  0  0  0  0  0  0  0  0  0  0  0
    1.8053   -4.4163   -2.4123 H   0  0  0  0  0  0  0  0  0  0  0  0
    2.9934   -5.0098   -1.1832 H   0  0  0  0  0  0  0  0  0  0  0  0
   -3.3088    5.1135   -2.9348 H   0  0  0  0  0  0  0  0  0  0  0  0
   -3.4466    4.7104   -1.1790 H   0  0  0  0  0  0  0  0  0  0  0  0
   -3.3648    3.3852   -2.4085 H   0  0  0  0  0  0  0  0  0  0  0  0
    2.6562    5.4806   -2.9353 H   0  0  0  0  0  0  0  0  0  0  0  0
    2.9236    3.7721   -2.4090 H   0  0  0  0  0  0  0  0  0  0  0  0
    2.8426    5.0974   -1.1795 H   0  0  0  0  0  0  0  0  0  0  0  0
  4 13  1  0  0  0  0
  5 14  1  0  0  0  0
  6 21  1  0  0  0  0
  7 22  1  0  0  0  0
  8 29  1  0  0  0  0
  9 30  1  0  0  0  0
 10  1  1  0  0  0  0
 11 10  1  0  0  0  0
 11  2  1  0  0  0  0
 12 34  1  0  0  0  0
 12 11  2  0  0  0  0
 13 14  2  0  0  0  0
 13 12  1  0  0  0  0
 14 15  1  0  0  0  0
 15 35  1  0  0  0  0
 15 10  2  0  0  0  0
 16  4  1  0  0  0  0
 16 41  1  0  0  0  0
 17  5  1  0  0  0  0
 17 45  1  0  0  0  0
 18 19  1  0  0  0  0
 18  2  1  0  0  0  0
 19  3  1  0  0  0  0
 20 36  1  0  0  0  0
 20 19  2  0  0  0  0
 21 20  1  0  0  0  0
 22 21  2  0  0  0  0
 22 23  1  0  0  0  0
 23 37  1  0  0  0  0
 23 18  2  0  0  0  0
 24  6  1  0  0  0  0
 24 47  1  0  0  0  0
 25  7  1  0  0  0  0
 25 51  1  0  0  0  0
 26 27  1  0  0  0  0
 26  3  1  0  0  0  0
 27  1  1  0  0  0  0
 28 38  1  0  0  0  0
 28 27  2  0  0  0  0
 29 28  1  0  0  0  0
 30 29  2  0  0  0  0
 30 31  1  0  0  0  0
 31 39  1  0  0  0  0
 31 26  2  0  0  0  0
 32  8  1  0  0  0  0
 32 53  1  0  0  0  0
 33  9  1  0  0  0  0
 33 57  1  0  0  0  0
 40 16  1  0  0  0  0
 42 16  1  0  0  0  0
 43 17  1  0  0  0  0
 44 17  1  0  0  0  0
 46 24  1  0  0  0  0
 48 24  1  0  0  0  0
 49 25  1  0  0  0  0
 50 25  1  0  0  0  0
 52 32  1  0  0  0  0
 54 32  1  0  0  0  0
 55 33  1  0  0  0  0
 56 33  1  0  0  0  0
M  END
