1,2,3
q = 0.0, confidence = 1.0

 28 28  0  0  0  0  0  0  0  0999 V2000
    0.4708   -1.8588    0.4374 S   0  0  0  0  0  0  0  0  0  0  0  0
   -1.8685    0.2375    1.4669 S   0  0  0  0  0  0  0  0  0  0  0  0
    0.3578    1.8703   -0.2870 S   0  0  0  0  0  0  0  0  0  0  0  0
    3.0335    0.0319   -0.9811 S   0  0  0  0  0  0  0  0  0  0  0  0
   -0.5540   -2.1551    1.9356 C   0  0  0  0  0  0  0  0  0  0  0  0
   -0.9595   -0.8731    2.6396 C   0  0  0  0  0  0  0  0  0  0  0  0
   -1.2763    1.9135    2.0017 C   0  0  0  0  0  0  0  0  0  0  0  0
   -0.8347    2.7429    0.8075 C   0  0  0  0  0  0  0  0  0  0  0  0
    1.8201    1.8595    0.8366 C   0  0  0  0  0  0  0  0  0  0  0  0
    3.0980    1.5224    0.0707 C   0  0  0  0  0  0  0  0  0  0  0  0
    3.2187   -1.3067    0.2455 C   0  0  0  0  0  0  0  0  0  0  0  0
    2.0881   -1.5034    1.2509 C   0  0  0  0  0  0  0  0  0  0  0  0
   -1.4339   -2.7258    1.5760 H   0  0  0  0  0  0  0  0  0  0  0  0
    0.0127   -2.8211    2.6181 H   0  0  0  0  0  0  0  0  0  0  0  0
   -0.0798   -0.3231    3.0299 H   0  0  0  0  0  0  0  0  0  0  0  0
   -1.6398   -1.0880    3.4886 H   0  0  0  0  0  0  0  0  0  0  0  0
   -2.1187    2.4031    2.5302 H   0  0  0  0  0  0  0  0  0  0  0  0
   -0.4548    1.7669    2.7306 H   0  0  0  0  0  0  0  0  0  0  0  0
   -0.3720    3.6956    1.1381 H   0  0  0  0  0  0  0  0  0  0  0  0
   -1.6865    3.0047    0.1491 H   0  0  0  0  0  0  0  0  0  0  0  0
    1.8869    2.8911    1.2422 H   0  0  0  0  0  0  0  0  0  0  0  0
    1.6364    1.1730    1.6833 H   0  0  0  0  0  0  0  0  0  0  0  0
    3.9509    1.4460    0.7782 H   0  0  0  0  0  0  0  0  0  0  0  0
    3.3384    2.3410   -0.6379 H   0  0  0  0  0  0  0  0  0  0  0  0
    3.3474   -2.2196   -0.3718 H   0  0  0  0  0  0  0  0  0  0  0  0
    4.1682   -1.1601    0.8033 H   0  0  0  0  0  0  0  0  0  0  0  0
    1.9958   -0.6494    1.9479 H   0  0  0  0  0  0  0  0  0  0  0  0
    2.2940   -2.4111    1.8563 H   0  0  0  0  0  0  0  0  0  0  0  0
  1 12  1  0  0  0  0
  1  5  1  0  0  0  0
  2  7  1  0  0  0  0
  2  6  1  0  0  0  0
  3  8  1  0  0  0  0
  3  9  1  0  0  0  0
  4 10  1  0  0  0  0
  4 11  1  0  0  0  0
  5 14  1  0  0  0  0
  5  6  1  0  0  0  0
  6 15  1  0  0  0  0
  6 16  1  0  0  0  0
  7 17  1  0  0  0  0
  7 18  1  0  0  0  0
  8 19  1  0  0  0  0
  8  7  1  0  0  0  0
  9 21  1  0  0  0  0
  9 22  1  0  0  0  0
 10 23  1  0  0  0  0
 10  9  1  0  0  0  0
 11 26  1  0  0  0  0
 11 12  1  0  0  0  0
 12 28  1  0  0  0  0
 12 27  1  0  0  0  0
 13  5  1  0  0  0  0
 20  8  1  0  0  0  0
 24 10  1  0  0  0  0
 25 11  1  0  0  0  0
M  END
