2,3,4
q = 0.0, confidence = 0.994

 50 52  0  0  0  0  0  0  0  0999 V2000
    0.1328    0.0674    3.0120 Si  0  0  0  0  0  0  0  0  0  0  0  0
    1.8266   -0.7846    0.6611 S   0  0  0  0  0  0  0  0  0  0  0  0
   -1.5386   -1.0645    0.7501 S   0  0  0  0  0  0  0  0  0  0  0  0
   -0.1269    1.9832    0.6655 S   0  0  0  0  0  0  0  0  0  0  0  0
    4.4487    0.2661    0.6062 C   0  0  0  0  0  0  0  0  0  0  0  0
    4.2733    0.7015    1.5989 H   0  0  0  0  0  0  0  0  0  0  0  0
    5.6946    0.4498   -0.0164 C   0  0  0  0  0  0  0  0  0  0  0  0
    6.4743    1.0286    0.5019 H   0  0  0  0  0  0  0  0  0  0  0  0
    5.9432   -0.0911   -1.2849 C   0  0  0  0  0  0  0  0  0  0  0  0
    6.9188    0.0601   -1.7703 H   0  0  0  0  0  0  0  0  0  0  0  0
    4.9357   -0.8249   -1.9333 C   0  0  0  0  0  0  0  0  0  0  0  0
    5.1165   -1.2521   -2.9311 H   0  0  0  0  0  0  0  0  0  0  0  0
    3.6896   -1.0170   -1.3253 C   0  0  0  0  0  0  0  0  0  0  0  0
    2.9045   -1.5868   -1.8424 H   0  0  0  0  0  0  0  0  0  0  0  0
    3.4449   -0.4650   -0.0513 C   0  0  0  0  0  0  0  0  0  0  0  0
   -1.9714   -3.8555    0.8485 C   0  0  0  0  0  0  0  0  0  0  0  0
   -1.4917   -3.8750    1.8361 H   0  0  0  0  0  0  0  0  0  0  0  0
   -2.4570   -5.0517    0.2943 C   0  0  0  0  0  0  0  0  0  0  0  0
   -2.3473   -5.9896    0.8599 H   0  0  0  0  0  0  0  0  0  0  0  0
   -3.0691   -5.0554   -0.9662 C   0  0  0  0  0  0  0  0  0  0  0  0
   -3.4430   -5.9958   -1.3978 H   0  0  0  0  0  0  0  0  0  0  0  0
   -3.1980   -3.8498   -1.6761 C   0  0  0  0  0  0  0  0  0  0  0  0
   -3.6727   -3.8394   -2.6687 H   0  0  0  0  0  0  0  0  0  0  0  0
   -2.7187   -2.6501   -1.1371 C   0  0  0  0  0  0  0  0  0  0  0  0
   -2.8161   -1.7124   -1.7026 H   0  0  0  0  0  0  0  0  0  0  0  0
   -2.0996   -2.6552    0.1294 C   0  0  0  0  0  0  0  0  0  0  0  0
   -0.9852    4.3643   -0.4115 C   0  0  0  0  0  0  0  0  0  0  0  0
    0.0774    4.6444   -0.3599 H   0  0  0  0  0  0  0  0  0  0  0  0
   -1.9392    5.2458   -0.9447 C   0  0  0  0  0  0  0  0  0  0  0  0
   -1.6209    6.2314   -1.3170 H   0  0  0  0  0  0  0  0  0  0  0  0
   -3.2906    4.8733   -0.9989 C   0  0  0  0  0  0  0  0  0  0  0  0
   -4.0367    5.5663   -1.4158 H   0  0  0  0  0  0  0  0  0  0  0  0
   -3.6903    3.6094   -0.5314 C   0  0  0  0  0  0  0  0  0  0  0  0
   -4.7467    3.3072   -0.5904 H   0  0  0  0  0  0  0  0  0  0  0  0
   -2.7440    2.7160   -0.0138 C   0  0  0  0  0  0  0  0  0  0  0  0
   -3.0449    1.7088    0.3120 H   0  0  0  0  0  0  0  0  0  0  0  0
   -1.3941    3.1036    0.0544 C   0  0  0  0  0  0  0  0  0  0  0  0
    1.8978    0.0566    2.2803 C   0  0  0  0  0  0  0  0  0  0  0  0
    2.2340    1.1080    2.1555 H   0  0  0  0  0  0  0  0  0  0  0  0
    2.6128   -0.4741    2.9431 H   0  0  0  0  0  0  0  0  0  0  0  0
   -0.7928   -1.4751    2.3665 C   0  0  0  0  0  0  0  0  0  0  0  0
   -0.0624   -2.3039    2.2507 H   0  0  0  0  0  0  0  0  0  0  0  0
   -1.5892   -1.7910    3.0723 H   0  0  0  0  0  0  0  0  0  0  0  0
   -0.7547    1.6217    2.3631 C   0  0  0  0  0  0  0  0  0  0  0  0
   -1.8477    1.4340    2.3288 H   0  0  0  0  0  0  0  0  0  0  0  0
   -0.5699    2.5095    3.0025 H   0  0  0  0  0  0  0  0  0  0  0  0
    0.1964    0.0522    4.8923 C   0  0  0  0  0  0  0  0  0  0  0  0
   -0.8228    0.1260    5.3230 H   0  0  0  0  0  0  0  0  0  0  0  0
    0.7922    0.9062    5.2737 H   0  0  0  0  0  0  0  0  0  0  0  0
    0.6603   -0.8836    5.2653 H   0  0  0  0  0  0  0  0  0  0  0  0
  1 47  1  0  0  0  0
  2 38  1  0  0  0  0
  3 41  1  0  0  0  0
  4 44  1  0  0  0  0
  5  6  1  0  0  0  0
  7  8  1  0  0  0  0
  7  5  1  0  0  0  0
  9  7  2  0  0  0  0
 10  9  1  0  0  0  0
 11 13  2  0  0  0  0
 11  9  1  0  0  0  0
 12 11  1  0  0  0  0
 13 15  1  0  0  0  0
 14 13  1  0  0  0  0
 15  5  2  0  0  0  0
 15  2  1  0  0  0  0
 16 17  1  0  0  0  0
 18 16  1  0  0  0  0
 18 19  1  0  0  0  0
 20 18  2  0  0  0  0
 21 20  1  0  0  0  0
 22 24  2  0  0  0  0
 22 20  1  0  0  0  0
 23 22  1  0  0  0  0
 24 26  1  0  0  0  0
 25 24  1  0  0  0  0
 26  3  1  0  0  0  0
 26 16  2  0  0  0  0
 27 28  1  0  0  0  0
 27 37  1  0  0  0  0
 29 27  2  0  0  0  0
 30 29  1  0  0  0  0
 31 29  1  0  0  0  0
 31 33  2  0  0  0  0
 32 31  1  0  0  0  0
 33 35  1  0  0  0  0
 34 33  1  0  0  0  0
 35 37  2  0  0  0  0
 35 36  1  0  0  0  0
 37  4  1  0  0  0  0
 38 40  1  0  0  0  0
 38  1  1  0  0  0  0
 39 38  1  0  0  0  0
 41  1  1  0  0  0  0
 41 43  1  0  0  0  0
 42 41  1  0  0  0  0
 44 46  1  0  0  0  0
 44  1  1  0  0  0  0
 45 44  1  0  0  0  0
 47 50  1  0  0  0  0
 47 49  1  0  0  0  0
 47 48  1  0  0  0  0
M  END
