1,2,3
q = 0.0, confidence = 1.0

 37 39  0  0  0  0  0  0  0  0999 V2000
    0.9756    1.0011   -0.3497 S   0  0  0  0  0  0  0  0  0  0  0  0
    1.7079   -1.9864    0.5672 S   0  0  0  0  0  0  0  0  0  0  0  0
   -0.2163   -1.5140   -1.9843 S   0  0  0  0  0  0  0  0  0  0  0  0
    3.6960    1.5432   -0.1665 C   0  0  0  0  0  0  0  0  0  0  0  0
    2.7201    0.5510   -0.0485 C   0  0  0  0  0  0  0  0  0  0  0  0
    3.0468   -0.7757    0.3573 C   0  0  0  0  0  0  0  0  0  0  0  0
    4.3609   -1.1525    0.6436 C   0  0  0  0  0  0  0  0  0  0  0  0
    5.4008   -0.1736    0.4600 C   0  0  0  0  0  0  0  0  0  0  0  0
    6.7732   -0.5028    0.6703 C   0  0  0  0  0  0  0  0  0  0  0  0
    7.7781    0.4380    0.4981 C   0  0  0  0  0  0  0  0  0  0  0  0
    7.4519    1.7600    0.1077 C   0  0  0  0  0  0  0  0  0  0  0  0
    6.1275    2.1147   -0.1040 C   0  0  0  0  0  0  0  0  0  0  0  0
    5.0687    1.1721    0.0599 C   0  0  0  0  0  0  0  0  0  0  0  0
    3.3505    2.9670   -0.5229 C   0  0  0  0  0  0  0  0  0  0  0  0
    4.7053   -2.5390    1.1217 C   0  0  0  0  0  0  0  0  0  0  0  0
    1.0010    0.9813   -2.2181 C   0  0  0  0  0  0  0  0  0  0  0  0
    1.0931   -0.4221   -2.7731 C   0  0  0  0  0  0  0  0  0  0  0  0
    0.7348   -3.0999   -1.8491 C   0  0  0  0  0  0  0  0  0  0  0  0
    1.9872   -3.0030   -0.9961 C   0  0  0  0  0  0  0  0  0  0  0  0
    7.0408   -1.5251    0.9696 H   0  0  0  0  0  0  0  0  0  0  0  0
    8.8289    0.1563    0.6635 H   0  0  0  0  0  0  0  0  0  0  0  0
    8.2492    2.5058   -0.0299 H   0  0  0  0  0  0  0  0  0  0  0  0
    5.8899    3.1421   -0.4112 H   0  0  0  0  0  0  0  0  0  0  0  0
    0.0510    1.4849   -2.4879 H   0  0  0  0  0  0  0  0  0  0  0  0
    1.8442    1.6154   -2.5561 H   0  0  0  0  0  0  0  0  0  0  0  0
    0.9173   -0.4391   -3.8674 H   0  0  0  0  0  0  0  0  0  0  0  0
    2.0898   -0.8595   -2.5649 H   0  0  0  0  0  0  0  0  0  0  0  0
   -0.0175   -3.7593   -1.3698 H   0  0  0  0  0  0  0  0  0  0  0  0
    0.9653   -3.4709   -2.8690 H   0  0  0  0  0  0  0  0  0  0  0  0
    2.3014   -4.0102   -0.6584 H   0  0  0  0  0  0  0  0  0  0  0  0
    2.8380   -2.5405   -1.5324 H   0  0  0  0  0  0  0  0  0  0  0  0
    2.2591    3.1412   -0.4737 H   0  0  0  0  0  0  0  0  0  0  0  0
    3.6987    3.2338   -1.5436 H   0  0  0  0  0  0  0  0  0  0  0  0
    3.8345    3.6771    0.1770 H   0  0  0  0  0  0  0  0  0  0  0  0
    3.7955   -3.0945    1.4166 H   0  0  0  0  0  0  0  0  0  0  0  0
    5.2291   -3.1263    0.3376 H   0  0  0  0  0  0  0  0  0  0  0  0
    5.3763   -2.5025    2.0026 H   0  0  0  0  0  0  0  0  0  0  0  0
  1  5  1  0  0  0  0
  3 18  1  0  0  0  0
  4  5  2  0  0  0  0
  4 13  1  0  0  0  0
  5  6  1  0  0  0  0
  6  2  1  0  0  0  0
  6  7  2  0  0  0  0
  7 15  1  0  0  0  0
  8  7  1  0  0  0  0
  8  9  1  0  0  0  0
  9 20  1  0  0  0  0
 10 21  1  0  0  0  0
 10  9  2  0  0  0  0
 11 10  1  0  0  0  0
 12 13  1  0  0  0  0
 12 11  2  0  0  0  0
 13  8  2  0  0  0  0
 14 32  1  0  0  0  0
 14  4  1  0  0  0  0
 14 34  1  0  0  0  0
 15 35  1  0  0  0  0
 15 37  1  0  0  0  0
 16  1  1  0  0  0  0
 17 27  1  0  0  0  0
 17 16  1  0  0  0  0
 17  3  1  0  0  0  0
 18 28  1  0  0  0  0
 18 19  1  0  0  0  0
 19 30  1  0  0  0  0
 19  2  1  0  0  0  0
 22 11  1  0  0  0  0
 23 12  1  0  0  0  0
 24 16  1  0  0  0  0
 25 16  1  0  0  0  0
 26 17  1  0  0  0  0
 29 18  1  0  0  0  0
 31 19  1  0  0  0  0
 33 14  1  0  0  0  0
 36 15  1  0  0  0  0
M  END
