1,2,3
q = 0.0, confidence = 1.0

 37 37  0  0  0  0  0  0  0  0999 V2000
    0.7591    2.1108   -0.1128 S   0  0  0  0  0  0  0  0  0  0  0  0
    2.0874   -2.5687    0.0990 S   0  0  0  0  0  0  0  0  0  0  0  0
    1.2009   -0.4393   -2.6199 S   0  0  0  0  0  0  0  0  0  0  0  0
    0.9422    2.2854   -1.9328 C   0  0  0  0  0  0  0  0  0  0  0  0
    1.3199    3.3083   -2.1367 H   0  0  0  0  0  0  0  0  0  0  0  0
   -0.0972    2.2336   -2.3193 H   0  0  0  0  0  0  0  0  0  0  0  0
    1.8618    1.2792   -2.6157 C   0  0  0  0  0  0  0  0  0  0  0  0
    2.0070    1.5833   -3.6724 H   0  0  0  0  0  0  0  0  0  0  0  0
    2.8554    1.2605   -2.1233 H   0  0  0  0  0  0  0  0  0  0  0  0
    2.7425   -1.4284   -2.4494 C   0  0  0  0  0  0  0  0  0  0  0  0
    3.5015   -0.8003   -1.9403 H   0  0  0  0  0  0  0  0  0  0  0  0
    3.1145   -1.6690   -3.4663 H   0  0  0  0  0  0  0  0  0  0  0  0
    2.5254   -2.7308   -1.6863 C   0  0  0  0  0  0  0  0  0  0  0  0
    1.7007   -3.3344   -2.1201 H   0  0  0  0  0  0  0  0  0  0  0  0
    3.4470   -3.3455   -1.7353 H   0  0  0  0  0  0  0  0  0  0  0  0
    3.5407   -1.6764    0.7376 C   0  0  0  0  0  0  0  0  0  0  0  0
    3.3796   -0.2729    0.7033 C   0  0  0  0  0  0  0  0  0  0  0  0
    3.0570    0.9187    0.6049 C   0  0  0  0  0  0  0  0  0  0  0  0
    2.4859    2.2020    0.4350 C   0  0  0  0  0  0  0  0  0  0  0  0
    4.6309   -2.3566    1.2280 C   0  0  0  0  0  0  0  0  0  0  0  0
    3.1122    3.3998    0.6910 C   0  0  0  0  0  0  0  0  0  0  0  0
    4.7344   -3.8497    1.2503 C   0  0  0  0  0  0  0  0  0  0  0  0
    4.9735   -4.2016    2.2764 H   0  0  0  0  0  0  0  0  0  0  0  0
    5.5795   -4.1870    0.6112 H   0  0  0  0  0  0  0  0  0  0  0  0
    3.8086   -4.3500    0.9117 H   0  0  0  0  0  0  0  0  0  0  0  0
    5.8029   -1.5966    1.7760 C   0  0  0  0  0  0  0  0  0  0  0  0
    6.7326   -1.8757    1.2354 H   0  0  0  0  0  0  0  0  0  0  0  0
    5.9715   -1.8716    2.8394 H   0  0  0  0  0  0  0  0  0  0  0  0
    5.6676   -0.5012    1.7114 H   0  0  0  0  0  0  0  0  0  0  0  0
    4.5324    3.4237    1.1741 C   0  0  0  0  0  0  0  0  0  0  0  0
    5.1651    4.0310    0.4919 H   0  0  0  0  0  0  0  0  0  0  0  0
    4.9698    2.4116    1.2589 H   0  0  0  0  0  0  0  0  0  0  0  0
    4.5901    3.9190    2.1673 H   0  0  0  0  0  0  0  0  0  0  0  0
    2.4431    4.7258    0.5056 C   0  0  0  0  0  0  0  0  0  0  0  0
    2.5516    5.3437    1.4221 H   0  0  0  0  0  0  0  0  0  0  0  0
    1.3681    4.6246    0.2664 H   0  0  0  0  0  0  0  0  0  0  0  0
    2.9403    5.3003   -0.3066 H   0  0  0  0  0  0  0  0  0  0  0  0
  1 19  1  0  0  0  0
  2 16  1  0  0  0  0
  3  7  1  0  0  0  0
  3 10  1  0  0  0  0
  4  1  1  0  0  0  0
  5  4  1  0  0  0  0
  6  4  1  0  0  0  0
  7  9  1  0  0  0  0
  7  4  1  0  0  0  0
  8  7  1  0  0  0  0
 10 11  1  0  0  0  0
 10 13  1  0  0  0  0
 12 10  1  0  0  0  0
 13  2  1  0  0  0  0
 14 13  1  0  0  0  0
 15 13  1  0  0  0  0
 16 20  2  0  0  0  0
 17 16  1  0  0  0  0
 18 17  3  0  0  0  0
 19 18  1  0  0  0  0
 19 21  2  0  0  0  0
 20 22  1  0  0  0  0
 20 26  1  0  0  0  0
 21 30  1  0  0  0  0
 22 23  1  0  0  0  0
 24 22  1  0  0  0  0
 25 22  1  0  0  0  0
 26 28  1  0  0  0  0
 27 26  1  0  0  0  0
 29 26  1  0  0  0  0
 30 32  1  0  0  0  0
 30 33  1  0  0  0  0
 31 30  1  0  0  0  0
 34 21  1  0  0  0  0
 34 35  1  0  0  0  0
 36 34  1  0  0  0  0
 37 34  1  0  0  0  0
M  END
