1,2,3
q = 0.0, confidence = 1.0

 41 40  0  0  0  0  0  0  0  0999 V2000
    2.2072   -0.8598   -0.4520 S   0  0  0  0  0  0  0  0  0  0  0  0
    0.5832    1.7015    0.7691 S   0  0  0  0  0  0  0  0  0  0  0  0
   -2.3623    0.0977   -0.5823 S   0  0  0  0  0  0  0  0  0  0  0  0
    3.0118    0.5417   -1.3318 C   0  0  0  0  0  0  0  0  0  0  0  0
    2.9749    1.9203   -0.6744 C   0  0  0  0  0  0  0  0  0  0  0  0
    1.6043    2.5738   -0.5047 C   0  0  0  0  0  0  0  0  0  0  0  0
   -0.8050    2.8886    0.9726 C   0  0  0  0  0  0  0  0  0  0  0  0
   -1.9476    2.8329   -0.0383 C   0  0  0  0  0  0  0  0  0  0  0  0
   -2.9216    1.6741    0.1777 C   0  0  0  0  0  0  0  0  0  0  0  0
    2.9355   -0.7954    1.2648 C   0  0  0  0  0  0  0  0  0  0  0  0
    2.1740   -1.8309    2.0896 C   0  0  0  0  0  0  0  0  0  0  0  0
    4.4365   -1.0558    1.1864 C   0  0  0  0  0  0  0  0  0  0  0  0
   -3.1865   -1.1847    0.5050 C   0  0  0  0  0  0  0  0  0  0  0  0
   -4.7005   -1.0623    0.3592 C   0  0  0  0  0  0  0  0  0  0  0  0
   -2.6812   -1.1613    1.9407 C   0  0  0  0  0  0  0  0  0  0  0  0
    4.0581    0.2215   -1.5087 H   0  0  0  0  0  0  0  0  0  0  0  0
    2.4998    0.5405   -2.3161 H   0  0  0  0  0  0  0  0  0  0  0  0
    3.5102    1.9055    0.2983 H   0  0  0  0  0  0  0  0  0  0  0  0
    3.5697    2.5968   -1.3260 H   0  0  0  0  0  0  0  0  0  0  0  0
    1.7259    3.6079   -0.1236 H   0  0  0  0  0  0  0  0  0  0  0  0
    1.0349    2.6030   -1.4553 H   0  0  0  0  0  0  0  0  0  0  0  0
   -1.1721    2.6979    2.0018 H   0  0  0  0  0  0  0  0  0  0  0  0
   -0.3176    3.8842    0.9823 H   0  0  0  0  0  0  0  0  0  0  0  0
   -1.5658    2.8433   -1.0817 H   0  0  0  0  0  0  0  0  0  0  0  0
   -2.5237    3.7755    0.0776 H   0  0  0  0  0  0  0  0  0  0  0  0
   -3.8893    1.8888   -0.3165 H   0  0  0  0  0  0  0  0  0  0  0  0
   -3.1149    1.5129    1.2573 H   0  0  0  0  0  0  0  0  0  0  0  0
    2.7288    0.2215    1.6599 H   0  0  0  0  0  0  0  0  0  0  0  0
    4.9812   -0.2710    0.6256 H   0  0  0  0  0  0  0  0  0  0  0  0
    4.8536   -1.0729    2.2138 H   0  0  0  0  0  0  0  0  0  0  0  0
    4.6509   -2.0374    0.7181 H   0  0  0  0  0  0  0  0  0  0  0  0
    1.0904   -1.6008    2.1282 H   0  0  0  0  0  0  0  0  0  0  0  0
    2.5666   -1.8310    3.1259 H   0  0  0  0  0  0  0  0  0  0  0  0
    2.2977   -2.8515    1.6749 H   0  0  0  0  0  0  0  0  0  0  0  0
   -2.8192   -2.0969   -0.0103 H   0  0  0  0  0  0  0  0  0  0  0  0
   -5.0974   -0.1500    0.8490 H   0  0  0  0  0  0  0  0  0  0  0  0
   -5.0166   -1.0658   -0.7021 H   0  0  0  0  0  0  0  0  0  0  0  0
   -5.1772   -1.9320    0.8552 H   0  0  0  0  0  0  0  0  0  0  0  0
   -3.1417   -2.0021    2.4982 H   0  0  0  0  0  0  0  0  0  0  0  0
   -1.5806   -1.2822    1.9798 H   0  0  0  0  0  0  0  0  0  0  0  0
   -2.9599   -0.2298    2.4752 H   0  0  0  0  0  0  0  0  0  0  0  0
  1 10  1  0  0  0  0
  2  7  1  0  0  0  0
  3  9  1  0  0  0  0
  3 13  1  0  0  0  0
  4  5  1  0  0  0  0
  4  1  1  0  0  0  0
  5  6  1  0  0  0  0
  5 18  1  0  0  0  0
  6 20  1  0  0  0  0
  6  2  1  0  0  0  0
  7 23  1  0  0  0  0
  7 22  1  0  0  0  0
  8 25  1  0  0  0  0
  8  9  1  0  0  0  0
  8  7  1  0  0  0  0
  9 27  1  0  0  0  0
 10 28  1  0  0  0  0
 10 11  1  0  0  0  0
 11 32  1  0  0  0  0
 11 33  1  0  0  0  0
 12 10  1  0  0  0  0
 12 30  1  0  0  0  0
 13 15  1  0  0  0  0
 14 13  1  0  0  0  0
 14 36  1  0  0  0  0
 14 38  1  0  0  0  0
 15 40  1  0  0  0  0
 15 41  1  0  0  0  0
 15 39  1  0  0  0  0
 16  4  1  0  0  0  0
 17  4  1  0  0  0  0
 19  5  1  0  0  0  0
 21  6  1  0  0  0  0
 24  8  1  0  0  0  0
 26  9  1  0  0  0  0
 29 12  1  0  0  0  0
 31 12  1  0  0  0  0
 34 11  1  0  0  0  0
 35 13  1  0  0  0  0
 37 14  1  0  0  0  0
M  END
