1,2,3
 OpenBabel05122313063D

 15 14  0  0  0  0  0  0  0  0999 V2000
   -0.3793   -2.0729   -0.5741 S   0  0  0  0  0  1  0  0  0  0  0  0
    1.7740   -0.0000    0.5038 S   0  0  0  0  0  0  0  0  0  0  0  0
   -0.3793    2.0729   -0.5740 S   0  0  0  0  0  1  0  0  0  0  0  0
    1.3633   -2.5824   -0.2172 C   0  0  0  0  0  0  0  0  0  0  0  0
    1.4472   -2.9269    0.8343 H   0  0  0  0  0  0  0  0  0  0  0  0
    1.5927   -3.4457   -0.8756 H   0  0  0  0  0  0  0  0  0  0  0  0
    2.3271   -1.4467   -0.5039 C   0  0  0  0  0  0  0  0  0  0  0  0
    2.2866   -1.1454   -1.5702 H   0  0  0  0  0  0  0  0  0  0  0  0
    3.3727   -1.6757   -0.2120 H   0  0  0  0  0  0  0  0  0  0  0  0
    2.3271    1.4466   -0.5039 C   0  0  0  0  0  0  0  0  0  0  0  0
    3.3728    1.6756   -0.2120 H   0  0  0  0  0  0  0  0  0  0  0  0
    2.2867    1.1453   -1.5702 H   0  0  0  0  0  0  0  0  0  0  0  0
    1.3634    2.5824   -0.2172 C   0  0  0  0  0  0  0  0  0  0  0  0
    1.5928    3.4457   -0.8756 H   0  0  0  0  0  0  0  0  0  0  0  0
    1.4474    2.9269    0.8343 H   0  0  0  0  0  0  0  0  0  0  0  0
  1  4  1  0  0  0  0
  3 13  1  0  0  0  0
  4  5  1  0  0  0  0
  6  4  1  0  0  0  0
  7  4  1  0  0  0  0
  7  9  1  0  0  0  0
  7  2  1  0  0  0  0
  8  7  1  0  0  0  0
 10 13  1  0  0  0  0
 10 11  1  0  0  0  0
 10  2  1  0  0  0  0
 12 10  1  0  0  0  0
 13 15  1  0  0  0  0
 14 13  1  0  0  0  0
M  END
