1,2,3
 OpenBabel05122313063D

 32 32  0  0  1  0  0  0  0  0999 V2000
    0.9090    0.7785   -1.4813 S   0  0  0  0  0  0  0  0  0  0  0  0
    0.1502   -1.9439   -0.3564 S   0  0  0  0  0  1  0  0  0  0  0  0
    0.6749    0.5180    1.6678 S   0  0  0  0  0  1  0  0  0  0  0  0
   -2.0386    1.6262   -1.5880 S   0  0  0  0  0  0  0  0  0  0  0  0
   -2.7635   -1.2940   -0.9660 S   0  0  0  0  0  0  0  0  0  0  0  0
   -2.1809    1.5863    1.5133 S   0  0  0  0  0  0  0  0  0  0  0  0
   -1.1005   -0.8676   -0.7054 C   0  0  1  0  0  3  0  0  0  0  0  0
   -0.8073    0.6181   -0.6666 C   0  0  0  0  0  0  0  0  0  0  0  0
   -1.2914    3.2870   -1.3387 C   0  0  0  0  0  0  0  0  0  0  0  0
   -1.3405    3.5373   -0.2578 H   0  0  0  0  0  0  0  0  0  0  0  0
   -1.9959    3.9596   -1.8680 H   0  0  0  0  0  0  0  0  0  0  0  0
    0.1256    3.4388   -1.8892 C   0  0  0  0  0  0  0  0  0  0  0  0
    0.4278    4.5027   -1.7687 H   0  0  0  0  0  0  0  0  0  0  0  0
    0.1336    3.2216   -2.9780 H   0  0  0  0  0  0  0  0  0  0  0  0
    1.1632    2.5721   -1.1784 C   0  0  0  0  0  0  0  0  0  0  0  0
    2.1874    2.7608   -1.5561 H   0  0  0  0  0  0  0  0  0  0  0  0
    1.1738    2.7329   -0.0805 H   0  0  0  0  0  0  0  0  0  0  0  0
   -0.7134    0.9398    0.8171 C   0  0  2  0  0  3  0  0  0  0  0  0
   -2.7264   -3.1130   -0.7560 C   0  0  0  0  0  0  0  0  0  0  0  0
   -2.0113   -3.5219   -1.4990 H   0  0  0  0  0  0  0  0  0  0  0  0
   -2.3083   -3.3203    0.2511 H   0  0  0  0  0  0  0  0  0  0  0  0
   -4.1321   -3.6750   -0.9316 C   0  0  0  0  0  0  0  0  0  0  0  0
   -4.8358   -3.2601   -0.1825 H   0  0  0  0  0  0  0  0  0  0  0  0
   -4.5360   -3.4607   -1.9413 H   0  0  0  0  0  0  0  0  0  0  0  0
   -4.1095   -4.7753   -0.8029 H   0  0  0  0  0  0  0  0  0  0  0  0
   -1.8649    1.4009    3.3124 C   0  0  0  0  0  0  0  0  0  0  0  0
   -2.5972    2.0957    3.7722 H   0  0  0  0  0  0  0  0  0  0  0  0
   -0.8472    1.7930    3.5160 H   0  0  0  0  0  0  0  0  0  0  0  0
   -2.0417   -0.0288    3.8106 C   0  0  0  0  0  0  0  0  0  0  0  0
   -3.0667   -0.3992    3.6129 H   0  0  0  0  0  0  0  0  0  0  0  0
   -1.3198   -0.7124    3.3216 H   0  0  0  0  0  0  0  0  0  0  0  0
   -1.8593   -0.0744    4.9040 H   0  0  0  0  0  0  0  0  0  0  0  0
  1 15  1  0  0  0  0
  1  8  1  0  0  0  0
  4  9  1  0  0  0  0
  4  8  1  0  0  0  0
  5 19  1  0  0  0  0
  5  7  1  0  0  0  0
  6 26  1  0  0  0  0
  7  8  1  0  0  0  0
  7  2  1  1  0  0  0
  8 18  1  0  0  0  0
  9 10  1  0  0  0  0
 11  9  1  0  0  0  0
 12 13  1  0  0  0  0
 12  9  1  0  0  0  0
 12 15  1  0  0  0  0
 14 12  1  0  0  0  0
 15 17  1  0  0  0  0
 16 15  1  0  0  0  0
 18  6  1  0  0  0  0
 18  3  1  1  0  0  0
 19 21  1  0  0  0  0
 20 19  1  0  0  0  0
 22 25  1  0  0  0  0
 22 19  1  0  0  0  0
 22 23  1  0  0  0  0
 24 22  1  0  0  0  0
 26 28  1  0  0  0  0
 26 27  1  0  0  0  0
 26 29  1  0  0  0  0
 29 32  1  0  0  0  0
 30 29  1  0  0  0  0
 31 29  1  0  0  0  0
M  END
