1,2,3
 OpenBabel05122313063D

 23 24  0  0  0  0  0  0  0  0999 V2000
    0.9506    1.9348   -0.9306 S   0  0  0  0  0  1  0  0  0  0  0  0
    2.7513   -0.1319    0.4785 S   0  0  0  0  0  0  0  0  0  0  0  0
    1.2729   -2.3951   -0.8683 S   0  0  0  0  0  1  0  0  0  0  0  0
    2.5484    2.4256   -0.3811 C   0  0  0  0  0  0  0  0  0  0  0  0
    2.9833    3.7689   -0.5026 C   0  0  0  0  0  0  0  0  0  0  0  0
    4.2519    4.1536   -0.0586 C   0  0  0  0  0  0  0  0  0  0  0  0
    5.1162    3.2233    0.5513 C   0  0  0  0  0  0  0  0  0  0  0  0
    4.6994    1.8940    0.7039 C   0  0  0  0  0  0  0  0  0  0  0  0
    3.4484    1.4979    0.2015 C   0  0  0  0  0  0  0  0  0  0  0  0
    3.0315   -2.4843   -0.7826 C   0  0  0  0  0  0  0  0  0  0  0  0
    3.7387   -3.6316   -1.2113 C   0  0  0  0  0  0  0  0  0  0  0  0
    5.1384   -3.6480   -1.2123 C   0  0  0  0  0  0  0  0  0  0  0  0
    5.8702   -2.5315   -0.7686 C   0  0  0  0  0  0  0  0  0  0  0  0
    5.1900   -1.4016   -0.2882 C   0  0  0  0  0  0  0  0  0  0  0  0
    3.7898   -1.3862   -0.3013 C   0  0  0  0  0  0  0  0  0  0  0  0
    2.3023    4.5044   -0.9575 H   0  0  0  0  0  0  0  0  0  0  0  0
    4.5693    5.2015   -0.1738 H   0  0  0  0  0  0  0  0  0  0  0  0
    6.1030    3.5359    0.9225 H   0  0  0  0  0  0  0  0  0  0  0  0
    5.3396    1.1705    1.2294 H   0  0  0  0  0  0  0  0  0  0  0  0
    3.1675   -4.4982   -1.5776 H   0  0  0  0  0  0  0  0  0  0  0  0
    5.6679   -4.5419   -1.5759 H   0  0  0  0  0  0  0  0  0  0  0  0
    6.9698   -2.5391   -0.7895 H   0  0  0  0  0  0  0  0  0  0  0  0
    5.7539   -0.5315    0.0750 H   0  0  0  0  0  0  0  0  0  0  0  0
  1  4  1  0  0  0  0
  3 10  1  0  0  0  0
  4  9  1  0  0  0  0
  5  4  2  0  0  0  0
  5  6  1  0  0  0  0
  6  7  2  0  0  0  0
  7  8  1  0  0  0  0
  7 18  1  0  0  0  0
  8 19  1  0  0  0  0
  9  2  1  0  0  0  0
  9  8  2  0  0  0  0
 10 15  1  0  0  0  0
 11 10  2  0  0  0  0
 12 11  1  0  0  0  0
 12 13  2  0  0  0  0
 13 14  1  0  0  0  0
 14 23  1  0  0  0  0
 15 14  2  0  0  0  0
 15  2  1  0  0  0  0
 16  5  1  0  0  0  0
 17  6  1  0  0  0  0
 20 11  1  0  0  0  0
 21 12  1  0  0  0  0
 22 13  1  0  0  0  0
M  END
