1,2,3
 OpenBabel05122313063D

 77 82  0  0  1  0  0  0  0  0999 V2000
   -0.5377   -2.1983    0.1617 S   0  0  0  0  0  1  0  0  0  0  0  0
   -1.6211    1.5049    0.3158 S   0  0  0  0  0  1  0  0  0  0  0  0
    2.0374    0.6999    0.3638 S   0  0  0  0  0  1  0  0  0  0  0  0
    1.6950    3.0613   -0.9349 N   0  0  0  0  0  0  0  0  0  0  0  0
    0.6267    1.4235   -1.9473 N   0  0  0  0  0  0  0  0  0  0  0  0
   -3.4394   -0.0259   -1.0009 N   0  0  0  0  0  0  0  0  0  0  0  0
    0.8918   -1.1352   -1.9913 N   0  0  0  0  0  0  0  0  0  0  0  0
    1.8170   -2.8806   -1.0166 N   0  0  0  0  0  0  0  0  0  0  0  0
    1.4257    1.7127   -0.8751 C   0  0  2  0  0  3  0  0  0  0  0  0
    0.7267   -2.0425   -0.9823 C   0  0  1  0  0  3  0  0  0  0  0  0
    2.0880   -1.4081   -2.6428 C   0  0  0  0  0  0  0  0  0  0  0  0
    2.4272   -0.7955   -3.4827 H   0  0  0  0  0  0  0  0  0  0  0  0
   -2.1511    0.4503   -0.9269 C   0  0  2  0  0  3  0  0  0  0  0  0
   -4.6780   -0.3376    1.1052 C   0  0  0  0  0  0  0  0  0  0  0  0
   -1.4714   -0.0800   -1.9890 N   0  0  0  0  0  0  0  0  0  0  0  0
   -4.5042    0.3567   -0.1125 C   0  0  0  0  0  0  0  0  0  0  0  0
    1.7214   -6.3832    0.2253 C   0  0  0  0  0  0  0  0  0  0  0  0
    1.3590   -7.3687   -0.1055 H   0  0  0  0  0  0  0  0  0  0  0  0
   -5.0395    2.1948   -1.7769 C   0  0  0  0  0  0  0  0  0  0  0  0
   -5.7969    2.9819   -1.9512 H   0  0  0  0  0  0  0  0  0  0  0  0
   -5.0152    1.5343   -2.6681 H   0  0  0  0  0  0  0  0  0  0  0  0
   -4.0432    2.6824   -1.7139 H   0  0  0  0  0  0  0  0  0  0  0  0
   -2.3378   -0.8916   -2.7100 C   0  0  0  0  0  0  0  0  0  0  0  0
   -1.9992   -1.4301   -3.5993 H   0  0  0  0  0  0  0  0  0  0  0  0
   -5.3307    1.4332   -0.5099 C   0  0  0  0  0  0  0  0  0  0  0  0
    2.5671    3.7664   -0.0355 C   0  0  0  0  0  0  0  0  0  0  0  0
    2.0003   -4.0155   -0.1525 C   0  0  0  0  0  0  0  0  0  0  0  0
   -5.7565    0.0596    1.9212 C   0  0  0  0  0  0  0  0  0  0  0  0
   -5.9184   -0.4651    2.8753 H   0  0  0  0  0  0  0  0  0  0  0  0
    0.0135    0.0751   -2.4187 B   0  0  1  0  0  0  0  0  0  0  0  0
    0.0221    0.1000   -3.6485 H   0  0  0  0  0  0  0  0  0  0  0  0
    0.3888    2.5947   -2.6547 C   0  0  0  0  0  0  0  0  0  0  0  0
   -0.2386    2.5960   -3.5503 H   0  0  0  0  0  0  0  0  0  0  0  0
   -6.3924    1.7914    0.3387 C   0  0  0  0  0  0  0  0  0  0  0  0
   -7.0504    2.6259    0.0509 H   0  0  0  0  0  0  0  0  0  0  0  0
    2.6705   -2.4934   -2.0438 C   0  0  0  0  0  0  0  0  0  0  0  0
    3.6036   -3.0258   -2.2457 H   0  0  0  0  0  0  0  0  0  0  0  0
    1.0514    3.6193   -2.0335 C   0  0  0  0  0  0  0  0  0  0  0  0
    1.1315    4.6847   -2.2650 H   0  0  0  0  0  0  0  0  0  0  0  0
   -3.5653   -0.8631   -2.1034 C   0  0  0  0  0  0  0  0  0  0  0  0
   -4.5113   -1.3542   -2.3458 H   0  0  0  0  0  0  0  0  0  0  0  0
    1.5226   -5.2667   -0.6055 C   0  0  0  0  0  0  0  0  0  0  0  0
    2.6289   -3.8391    1.1003 C   0  0  0  0  0  0  0  0  0  0  0  0
   -3.7296   -1.4147    1.5500 C   0  0  0  0  0  0  0  0  0  0  0  0
   -2.8528   -0.9648    2.0707 H   0  0  0  0  0  0  0  0  0  0  0  0
   -3.3273   -2.0017    0.7020 H   0  0  0  0  0  0  0  0  0  0  0  0
   -4.2182   -2.1045    2.2644 H   0  0  0  0  0  0  0  0  0  0  0  0
    0.6152    4.0312    1.5675 C   0  0  0  0  0  0  0  0  0  0  0  0
    0.5103    2.9783    1.9085 H   0  0  0  0  0  0  0  0  0  0  0  0
   -0.0934    4.1526    0.7250 H   0  0  0  0  0  0  0  0  0  0  0  0
    0.3048    4.6929    2.3975 H   0  0  0  0  0  0  0  0  0  0  0  0
    3.9243    3.9024   -0.4043 C   0  0  0  0  0  0  0  0  0  0  0  0
   -6.6067    1.1052    1.5426 C   0  0  0  0  0  0  0  0  0  0  0  0
   -7.4424    1.3957    2.1972 H   0  0  0  0  0  0  0  0  0  0  0  0
    2.0405    4.2882    1.1661 C   0  0  0  0  0  0  0  0  0  0  0  0
    4.4468    3.2447   -1.6548 C   0  0  0  0  0  0  0  0  0  0  0  0
    3.8863    3.5598   -2.5590 H   0  0  0  0  0  0  0  0  0  0  0  0
    4.3419    2.1411   -1.5817 H   0  0  0  0  0  0  0  0  0  0  0  0
    5.5163    3.4793   -1.8117 H   0  0  0  0  0  0  0  0  0  0  0  0
    3.0454   -2.4842    1.5989 C   0  0  0  0  0  0  0  0  0  0  0  0
    2.1885   -1.9737    2.0964 H   0  0  0  0  0  0  0  0  0  0  0  0
    3.3787   -1.8139    0.7836 H   0  0  0  0  0  0  0  0  0  0  0  0
    3.8554   -2.5679    2.3484 H   0  0  0  0  0  0  0  0  0  0  0  0
    2.8048   -4.9893    1.8963 C   0  0  0  0  0  0  0  0  0  0  0  0
    3.2944   -4.8836    2.8766 H   0  0  0  0  0  0  0  0  0  0  0  0
    0.7817   -5.3749   -1.9127 C   0  0  0  0  0  0  0  0  0  0  0  0
    0.5233   -6.4265   -2.1387 H   0  0  0  0  0  0  0  0  0  0  0  0
    1.3701   -4.9718   -2.7625 H   0  0  0  0  0  0  0  0  0  0  0  0
   -0.1614   -4.7891   -1.8704 H   0  0  0  0  0  0  0  0  0  0  0  0
    2.9218    5.0056    1.9981 C   0  0  0  0  0  0  0  0  0  0  0  0
    2.5386    5.4245    2.9411 H   0  0  0  0  0  0  0  0  0  0  0  0
    4.2665    5.1793    1.6467 C   0  0  0  0  0  0  0  0  0  0  0  0
    4.9373    5.7442    2.3117 H   0  0  0  0  0  0  0  0  0  0  0  0
    4.7658    4.6266    0.4591 C   0  0  0  0  0  0  0  0  0  0  0  0
    5.8278    4.7470    0.1953 H   0  0  0  0  0  0  0  0  0  0  0  0
    2.3627   -6.2454    1.4646 C   0  0  0  0  0  0  0  0  0  0  0  0
    2.5126   -7.1283    2.1045 H   0  0  0  0  0  0  0  0  0  0  0  0
  4  9  1  0  0  0  0
  4 26  1  0  0  0  0
  5  9  1  0  0  0  0
  6 13  1  0  0  0  0
  6 16  1  0  0  0  0
  7 10  1  0  0  0  0
  8 10  1  0  0  0  0
  8 27  1  0  0  0  0
  9  3  1  1  0  0  0
 10  1  1  1  0  0  0
 11 36  2  0  0  0  0
 11  7  1  0  0  0  0
 12 11  1  0  0  0  0
 13  2  1  1  0  0  0
 14 44  1  0  0  0  0
 14 28  1  0  0  0  0
 15 13  1  0  0  0  0
 16 14  2  0  0  0  0
 17 76  1  0  0  0  0
 18 17  1  0  0  0  0
 19 22  1  0  0  0  0
 19 25  1  0  0  0  0
 20 19  1  0  0  0  0
 21 19  1  0  0  0  0
 23 40  2  0  0  0  0
 23 15  1  0  0  0  0
 24 23  1  0  0  0  0
 25 16  1  0  0  0  0
 25 34  2  0  0  0  0
 26 55  1  0  0  0  0
 27 43  2  0  0  0  0
 28 29  1  0  0  0  0
 30 31  1  6  0  0  0
 30  7  1  0  0  0  0
 30 15  1  0  0  0  0
 30  5  1  0  0  0  0
 32 38  2  0  0  0  0
 32  5  1  0  0  0  0
 33 32  1  0  0  0  0
 34 53  1  0  0  0  0
 35 34  1  0  0  0  0
 36  8  1  0  0  0  0
 37 36  1  0  0  0  0
 38  4  1  0  0  0  0
 39 38  1  0  0  0  0
 40  6  1  0  0  0  0
 41 40  1  0  0  0  0
 42 27  1  0  0  0  0
 42 17  2  0  0  0  0
 43 60  1  0  0  0  0
 43 64  1  0  0  0  0
 44 45  1  0  0  0  0
 44 47  1  0  0  0  0
 46 44  1  0  0  0  0
 48 49  1  0  0  0  0
 48 51  1  0  0  0  0
 50 48  1  0  0  0  0
 52 26  2  0  0  0  0
 52 74  1  0  0  0  0
 53 28  2  0  0  0  0
 53 54  1  0  0  0  0
 55 48  1  0  0  0  0
 55 70  2  0  0  0  0
 56 58  1  0  0  0  0
 56 52  1  0  0  0  0
 57 56  1  0  0  0  0
 59 56  1  0  0  0  0
 60 61  1  0  0  0  0
 60 63  1  0  0  0  0
 62 60  1  0  0  0  0
 64 65  1  0  0  0  0
 66 69  1  0  0  0  0
 66 42  1  0  0  0  0
 67 66  1  0  0  0  0
 68 66  1  0  0  0  0
 70 71  1  0  0  0  0
 72 70  1  0  0  0  0
 72 73  1  0  0  0  0
 74 72  2  0  0  0  0
 75 74  1  0  0  0  0
 76 64  2  0  0  0  0
 76 77  1  0  0  0  0
M  END
