1,2,3
 OpenBabel05122313063D

 23 22  0  0  0  0  0  0  0  0999 V2000
   -1.6221   -0.2803   -1.2939 S   0  0  0  0  0  0  0  0  0  0  0  0
   -0.0892   -1.2948    1.4363 S   0  0  0  0  0  0  0  0  0  0  0  0
    1.5325   -0.4267   -1.2646 S   0  0  0  0  0  0  0  0  0  0  0  0
   -3.3078    0.2221   -0.8149 C   0  0  0  0  0  0  0  0  0  0  0  0
   -1.6312   -2.0599   -0.8219 C   0  0  0  0  0  0  0  0  0  0  0  0
   -1.4301   -2.2991    0.6643 C   0  0  0  0  0  0  0  0  0  0  0  0
    1.4730   -2.1498    0.9686 C   0  0  0  0  0  0  0  0  0  0  0  0
    1.8214   -2.0885   -0.5069 C   0  0  0  0  0  0  0  0  0  0  0  0
    3.1750    0.3486   -1.1057 C   0  0  0  0  0  0  0  0  0  0  0  0
   -4.0261   -0.3038   -1.4718 H   0  0  0  0  0  0  0  0  0  0  0  0
   -3.5202    0.0223    0.2514 H   0  0  0  0  0  0  0  0  0  0  0  0
   -3.3736    1.3102   -1.0023 H   0  0  0  0  0  0  0  0  0  0  0  0
   -2.5938   -2.4874   -1.1712 H   0  0  0  0  0  0  0  0  0  0  0  0
   -0.8345   -2.5193   -1.4375 H   0  0  0  0  0  0  0  0  0  0  0  0
   -1.2254   -3.3662    0.8900 H   0  0  0  0  0  0  0  0  0  0  0  0
   -2.3278   -2.0119    1.2488 H   0  0  0  0  0  0  0  0  0  0  0  0
    2.2280   -1.6284    1.5925 H   0  0  0  0  0  0  0  0  0  0  0  0
    1.4098   -3.1956    1.3345 H   0  0  0  0  0  0  0  0  0  0  0  0
    1.2169   -2.7974   -1.1048 H   0  0  0  0  0  0  0  0  0  0  0  0
    2.8856   -2.3468   -0.6814 H   0  0  0  0  0  0  0  0  0  0  0  0
    3.0627    1.3830   -1.4820 H   0  0  0  0  0  0  0  0  0  0  0  0
    3.5232    0.3732   -0.0569 H   0  0  0  0  0  0  0  0  0  0  0  0
    3.8847   -0.1989   -1.7538 H   0  0  0  0  0  0  0  0  0  0  0  0
  1  5  1  0  0  0  0
  1  4  1  0  0  0  0
  3  9  1  0  0  0  0
  3  8  1  0  0  0  0
  4 11  1  0  0  0  0
  5  6  1  0  0  0  0
  6 15  1  0  0  0  0
  6 16  1  0  0  0  0
  6  2  1  0  0  0  0
  7 18  1  0  0  0  0
  7  2  1  0  0  0  0
  7 17  1  0  0  0  0
  8  7  1  0  0  0  0
  9 22  1  0  0  0  0
 10  4  1  0  0  0  0
 12  4  1  0  0  0  0
 13  5  1  0  0  0  0
 14  5  1  0  0  0  0
 19  8  1  0  0  0  0
 20  8  1  0  0  0  0
 21  9  1  0  0  0  0
 23  9  1  0  0  0  0
M  END
