1,4,7
 OpenBabel05122313063D

  7  6  0  0  0  0  0  0  0  0999 V2000
   -0.8981    1.3069   -1.8242 S   0  0  0  0  0  0  0  0  0  0  0  0
   -2.1267    2.5431   -0.6956 S   0  0  0  0  0  0  0  0  0  0  0  0
   -3.3179    1.2469    0.3729 S   0  0  0  0  0  0  0  0  0  0  0  0
   -1.7057   -0.1115    1.2767 S   0  0  0  0  0  0  0  0  0  0  0  0
   -2.8747   -2.0063    0.6351 S   0  0  0  0  0  0  0  0  0  0  0  0
   -2.5603   -1.8081   -1.3660 S   0  0  0  0  0  0  0  0  0  0  0  0
   -0.4868   -1.9154   -1.5263 S   0  0  0  0  0  0  0  0  0  0  0  0
  1  2  1  0  0  0  0
  2  3  1  0  0  0  0
  3  4  1  0  0  0  0
  5  4  1  0  0  0  0
  6  5  1  0  0  0  0
  7  6  1  0  0  0  0
M  END
