1,2,3
 OpenBabel05122313063D

 45 45  0  0  0  0  0  0  0  0999 V2000
    1.7914    0.8412    2.0319 S   0  0  0  0  0  0  0  0  0  0  0  0
    0.1374    2.2093   -1.9002 S   0  0  0  0  0  0  0  0  0  0  0  0
    2.0132   -1.7358   -1.4322 S   0  0  0  0  0  0  0  0  0  0  0  0
   -0.6010   -1.7908    0.2616 O   0  0  0  0  0  0  0  0  0  0  0  0
   -1.3307    0.8237    0.7734 N   0  0  0  0  0  0  0  0  0  0  0  0
   -2.3166   -0.1326    0.3287 C   0  0  0  0  0  0  0  0  0  0  0  0
   -3.6677    0.2130    0.1406 C   0  0  0  0  0  0  0  0  0  0  0  0
   -4.6171   -0.7273   -0.2863 C   0  0  0  0  0  0  0  0  0  0  0  0
   -4.2234   -2.0501   -0.5139 C   0  0  0  0  0  0  0  0  0  0  0  0
   -2.8848   -2.4267   -0.3268 C   0  0  0  0  0  0  0  0  0  0  0  0
   -1.9286   -1.4808    0.0824 C   0  0  0  0  0  0  0  0  0  0  0  0
   -1.0664    0.6839    2.2187 C   0  0  0  0  0  0  0  0  0  0  0  0
    0.1898    1.3836    2.7389 C   0  0  0  0  0  0  0  0  0  0  0  0
    1.9423   -0.8033    2.8043 C   0  0  0  0  0  0  0  0  0  0  0  0
   -1.5829    2.2107    0.3659 C   0  0  0  0  0  0  0  0  0  0  0  0
   -1.5216    2.4199   -1.1456 C   0  0  0  0  0  0  0  0  0  0  0  0
    0.9701    3.7367   -1.3506 C   0  0  0  0  0  0  0  0  0  0  0  0
   -0.1263   -3.0349   -0.2564 C   0  0  0  0  0  0  0  0  0  0  0  0
    1.3917   -3.0206   -0.2740 C   0  0  0  0  0  0  0  0  0  0  0  0
    3.7873   -1.7594   -1.0253 C   0  0  0  0  0  0  0  0  0  0  0  0
   -3.9943    1.2445    0.3314 H   0  0  0  0  0  0  0  0  0  0  0  0
   -5.6635   -0.4222   -0.4293 H   0  0  0  0  0  0  0  0  0  0  0  0
   -4.9558   -2.8029   -0.8395 H   0  0  0  0  0  0  0  0  0  0  0  0
   -2.5944   -3.4702   -0.5043 H   0  0  0  0  0  0  0  0  0  0  0  0
   -1.9317    1.0740    2.8097 H   0  0  0  0  0  0  0  0  0  0  0  0
   -1.0070   -0.3996    2.4393 H   0  0  0  0  0  0  0  0  0  0  0  0
    0.1667    2.4783    2.5679 H   0  0  0  0  0  0  0  0  0  0  0  0
    0.2512    1.2457    3.8377 H   0  0  0  0  0  0  0  0  0  0  0  0
    1.9939   -0.6947    3.9051 H   0  0  0  0  0  0  0  0  0  0  0  0
    1.1013   -1.4617    2.5168 H   0  0  0  0  0  0  0  0  0  0  0  0
    2.8944   -1.2383    2.4458 H   0  0  0  0  0  0  0  0  0  0  0  0
   -2.5643    2.5887    0.7409 H   0  0  0  0  0  0  0  0  0  0  0  0
   -0.8204    2.8517    0.8497 H   0  0  0  0  0  0  0  0  0  0  0  0
   -2.1701    1.6947   -1.6770 H   0  0  0  0  0  0  0  0  0  0  0  0
   -1.8787    3.4353   -1.4105 H   0  0  0  0  0  0  0  0  0  0  0  0
    0.9856    3.8302   -0.2481 H   0  0  0  0  0  0  0  0  0  0  0  0
    2.0115    3.6757   -1.7184 H   0  0  0  0  0  0  0  0  0  0  0  0
    0.4754    4.6154   -1.8078 H   0  0  0  0  0  0  0  0  0  0  0  0
   -0.4753   -3.8784    0.3807 H   0  0  0  0  0  0  0  0  0  0  0  0
   -0.5232   -3.1955   -1.2836 H   0  0  0  0  0  0  0  0  0  0  0  0
    1.8020   -2.8305    0.7373 H   0  0  0  0  0  0  0  0  0  0  0  0
    1.7563   -4.0086   -0.6215 H   0  0  0  0  0  0  0  0  0  0  0  0
    3.9616   -1.5213    0.0416 H   0  0  0  0  0  0  0  0  0  0  0  0
    4.2643   -0.9853   -1.6550 H   0  0  0  0  0  0  0  0  0  0  0  0
    4.2187   -2.7470   -1.2778 H   0  0  0  0  0  0  0  0  0  0  0  0
  1 13  1  0  0  0  0
  1 14  1  0  0  0  0
  2 17  1  0  0  0  0
  2 16  1  0  0  0  0
  3 20  1  0  0  0  0
  3 19  1  0  0  0  0
  5 12  1  0  0  0  0
  6  5  1  0  0  0  0
  7  6  1  0  0  0  0
  7 21  1  0  0  0  0
  8  7  2  0  0  0  0
  9 10  2  0  0  0  0
  9  8  1  0  0  0  0
 10 11  1  0  0  0  0
 11  4  1  0  0  0  0
 11  6  2  0  0  0  0
 12 26  1  0  0  0  0
 12 13  1  0  0  0  0
 12 25  1  0  0  0  0
 13 28  1  0  0  0  0
 14 29  1  0  0  0  0
 15 32  1  0  0  0  0
 15  5  1  0  0  0  0
 15 33  1  0  0  0  0
 16 15  1  0  0  0  0
 17 36  1  0  0  0  0
 18  4  1  0  0  0  0
 18 39  1  0  0  0  0
 19 18  1  0  0  0  0
 19 41  1  0  0  0  0
 20 43  1  0  0  0  0
 22  8  1  0  0  0  0
 23  9  1  0  0  0  0
 24 10  1  0  0  0  0
 27 13  1  0  0  0  0
 30 14  1  0  0  0  0
 31 14  1  0  0  0  0
 34 16  1  0  0  0  0
 35 16  1  0  0  0  0
 37 17  1  0  0  0  0
 38 17  1  0  0  0  0
 40 18  1  0  0  0  0
 42 19  1  0  0  0  0
 44 20  1  0  0  0  0
 45 20  1  0  0  0  0
M  END
