1,3,4
 OpenBabel05122313063D

 30 30  0  0  0  0  0  0  0  0999 V2000
   -2.9373    0.6777   -1.2601 S   0  0  0  0  0  0  0  0  0  0  0  0
   -2.4587   -2.5243   -1.1696 S   0  0  0  0  0  0  0  0  0  0  0  0
   -1.5820   -1.3134    1.8119 S   0  0  0  0  0  0  0  0  0  0  0  0
    0.8003    1.0514    2.0066 S   0  0  0  0  0  0  0  0  0  0  0  0
    2.3568    2.5751   -0.5821 S   0  0  0  0  0  0  0  0  0  0  0  0
   -0.7808    3.0042   -0.9537 S   0  0  0  0  0  0  0  0  0  0  0  0
   -4.0367   -0.4096   -0.4126 C   0  0  0  0  0  0  0  0  0  0  0  0
   -3.8082   -1.7418   -0.3384 C   0  0  0  0  0  0  0  0  0  0  0  0
   -1.7761   -3.5011    0.1385 C   0  0  0  0  0  0  0  0  0  0  0  0
   -1.4069   -3.0062    1.3416 C   0  0  0  0  0  0  0  0  0  0  0  0
   -0.3080   -1.2628    3.0401 C   0  0  0  0  0  0  0  0  0  0  0  0
    0.6555   -0.3231    3.1057 C   0  0  0  0  0  0  0  0  0  0  0  0
    2.5258    0.9190    1.6460 C   0  0  0  0  0  0  0  0  0  0  0  0
    3.1398    1.5272    0.6058 C   0  0  0  0  0  0  0  0  0  0  0  0
    1.4465    3.6729    0.4603 C   0  0  0  0  0  0  0  0  0  0  0  0
    0.1266    3.9019    0.2636 C   0  0  0  0  0  0  0  0  0  0  0  0
   -2.4269    3.2014   -0.3543 C   0  0  0  0  0  0  0  0  0  0  0  0
   -3.3468    2.2184   -0.4951 C   0  0  0  0  0  0  0  0  0  0  0  0
   -4.9228    0.0494    0.0547 H   0  0  0  0  0  0  0  0  0  0  0  0
   -4.4942   -2.3959    0.2241 H   0  0  0  0  0  0  0  0  0  0  0  0
   -1.5863   -4.5579   -0.1047 H   0  0  0  0  0  0  0  0  0  0  0  0
   -0.9331   -3.6606    2.0910 H   0  0  0  0  0  0  0  0  0  0  0  0
   -0.3377   -2.0707    3.7899 H   0  0  0  0  0  0  0  0  0  0  0  0
    1.4101   -0.3741    3.9086 H   0  0  0  0  0  0  0  0  0  0  0  0
    3.0903    0.2319    2.2959 H   0  0  0  0  0  0  0  0  0  0  0  0
    4.1971    1.3036    0.3991 H   0  0  0  0  0  0  0  0  0  0  0  0
    1.9976    4.2061    1.2525 H   0  0  0  0  0  0  0  0  0  0  0  0
   -0.4306    4.6455    0.8565 H   0  0  0  0  0  0  0  0  0  0  0  0
   -2.7008    4.1728    0.0888 H   0  0  0  0  0  0  0  0  0  0  0  0
   -4.3954    2.3617   -0.1887 H   0  0  0  0  0  0  0  0  0  0  0  0
  1 18  1  0  0  0  0
  1  7  1  0  0  0  0
  2  8  1  0  0  0  0
  2  9  1  0  0  0  0
  3 11  1  0  0  0  0
  4 12  1  0  0  0  0
  5 15  1  0  0  0  0
  5 14  1  0  0  0  0
  6 17  1  0  0  0  0
  6 16  1  0  0  0  0
  7  8  2  0  0  0  0
  7 19  1  0  0  0  0
  8 20  1  0  0  0  0
  9 10  2  0  0  0  0
 10  3  1  0  0  0  0
 10 22  1  0  0  0  0
 11 12  2  0  0  0  0
 11 23  1  0  0  0  0
 12 24  1  0  0  0  0
 13  4  1  0  0  0  0
 13 25  1  0  0  0  0
 14 13  2  0  0  0  0
 15 27  1  0  0  0  0
 16 15  2  0  0  0  0
 16 28  1  0  0  0  0
 17 29  1  0  0  0  0
 18 17  2  0  0  0  0
 18 30  1  0  0  0  0
 21  9  1  0  0  0  0
 26 14  1  0  0  0  0
M  END
