5,13,21
 OpenBabel05122313063D

 36 36  0  0  0  0  0  0  0  0999 V2000
    2.7366    0.2366   -0.1737 B   0  0  0  0  0  0  0  0  0  0  0  0
    1.8675    1.6541   -0.1347 C   0  0  0  0  0  0  0  0  0  0  0  0
    1.5644    1.9963   -1.1480 H   0  0  0  0  0  0  0  0  0  0  0  0
    2.4484    2.4732    0.3367 H   0  0  0  0  0  0  0  0  0  0  0  0
    0.3614    1.5009    0.8857 S   0  0  0  0  0  0  0  0  0  0  0  0
   -0.5026    3.0602    0.5264 C   0  0  0  0  0  0  0  0  0  0  0  0
    0.1773    3.8910    0.7949 H   0  0  0  0  0  0  0  0  0  0  0  0
   -1.4050    3.0909    1.1637 H   0  0  0  0  0  0  0  0  0  0  0  0
   -0.7826    3.1195   -0.5427 H   0  0  0  0  0  0  0  0  0  0  0  0
    2.4638   -0.6755    1.1824 C   0  0  0  0  0  0  0  0  0  0  0  0
    2.3552   -0.0535    2.0959 H   0  0  0  0  0  0  0  0  0  0  0  0
    3.3034   -1.3825    1.3492 H   0  0  0  0  0  0  0  0  0  0  0  0
    0.9955   -1.7789    1.0876 S   0  0  0  0  0  0  0  0  0  0  0  0
    0.7347   -2.0897    2.8668 C   0  0  0  0  0  0  0  0  0  0  0  0
    1.6781   -2.4922    3.2823 H   0  0  0  0  0  0  0  0  0  0  0  0
   -0.0773   -2.8295    2.9832 H   0  0  0  0  0  0  0  0  0  0  0  0
    0.4615   -1.1433    3.3728 H   0  0  0  0  0  0  0  0  0  0  0  0
    2.3456   -0.6388   -1.5169 C   0  0  0  0  0  0  0  0  0  0  0  0
    2.6226   -1.7110   -1.4296 H   0  0  0  0  0  0  0  0  0  0  0  0
    2.8242   -0.2283   -2.4315 H   0  0  0  0  0  0  0  0  0  0  0  0
    0.5595   -0.5515   -1.8770 S   0  0  0  0  0  0  0  0  0  0  0  0
    0.3420   -1.9415   -3.0313 C   0  0  0  0  0  0  0  0  0  0  0  0
    1.0419   -1.7882   -3.8746 H   0  0  0  0  0  0  0  0  0  0  0  0
   -0.7006   -1.9453   -3.3946 H   0  0  0  0  0  0  0  0  0  0  0  0
    0.5606   -2.8963   -2.5161 H   0  0  0  0  0  0  0  0  0  0  0  0
    4.3325    0.5906   -0.1570 C   0  0  0  0  0  0  0  0  0  0  0  0
    4.8635    1.4373    0.8469 C   0  0  0  0  0  0  0  0  0  0  0  0
    4.1815    1.8875    1.5893 H   0  0  0  0  0  0  0  0  0  0  0  0
    6.2334    1.7256    0.9403 C   0  0  0  0  0  0  0  0  0  0  0  0
    6.6036    2.3899    1.7378 H   0  0  0  0  0  0  0  0  0  0  0  0
    7.1331    1.1683    0.0169 C   0  0  0  0  0  0  0  0  0  0  0  0
    8.2093    1.3926    0.0811 H   0  0  0  0  0  0  0  0  0  0  0  0
    6.6418    0.3207   -0.9871 C   0  0  0  0  0  0  0  0  0  0  0  0
    7.3349   -0.1264   -1.7178 H   0  0  0  0  0  0  0  0  0  0  0  0
    5.2666    0.0395   -1.0635 C   0  0  0  0  0  0  0  0  0  0  0  0
    4.9188   -0.6368   -1.8620 H   0  0  0  0  0  0  0  0  0  0  0  0
  1 26  1  0  0  0  0
  1  2  1  0  0  0  0
  1 10  1  0  0  0  0
  2  4  1  0  0  0  0
  2  5  1  0  0  0  0
  3  2  1  0  0  0  0
  6  7  1  0  0  0  0
  6  5  1  0  0  0  0
  6  8  1  0  0  0  0
  9  6  1  0  0  0  0
 10 12  1  0  0  0  0
 10 11  1  0  0  0  0
 13 10  1  0  0  0  0
 13 14  1  0  0  0  0
 14 16  1  0  0  0  0
 14 15  1  0  0  0  0
 14 17  1  0  0  0  0
 18 19  1  0  0  0  0
 18  1  1  0  0  0  0
 20 18  1  0  0  0  0
 21 18  1  0  0  0  0
 22 25  1  0  0  0  0
 22 21  1  0  0  0  0
 23 22  1  0  0  0  0
 24 22  1  0  0  0  0
 26 27  1  0  0  0  0
 27 29  2  0  0  0  0
 27 28  1  0  0  0  0
 29 30  1  0  0  0  0
 31 32  1  0  0  0  0
 31 29  1  0  0  0  0
 33 31  2  0  0  0  0
 34 33  1  0  0  0  0
 35 33  1  0  0  0  0
 35 26  2  0  0  0  0
 36 35  1  0  0  0  0
M  END
