1,2,3
 OpenBabel05122313063D

 31 32  0  0  0  0  0  0  0  0999 V2000
   -2.1662   -1.0776   -1.7037 S   0  0  0  0  0  0  0  0  0  0  0  0
    0.3631   -3.0722   -0.5056 S   0  0  0  0  0  0  0  0  0  0  0  0
   -0.1124   -0.4662    1.6785 S   0  0  0  0  0  0  0  0  0  0  0  0
   -2.7025    0.3156    1.6126 C   0  0  0  0  0  0  0  0  0  0  0  0
   -2.7129    1.5774    2.2424 C   0  0  0  0  0  0  0  0  0  0  0  0
   -3.4152    2.6595    1.6979 C   0  0  0  0  0  0  0  0  0  0  0  0
   -4.1266    2.4928    0.5000 C   0  0  0  0  0  0  0  0  0  0  0  0
   -4.1315    1.2438   -0.1335 C   0  0  0  0  0  0  0  0  0  0  0  0
   -3.4287    0.1445    0.4026 C   0  0  0  0  0  0  0  0  0  0  0  0
   -3.4502   -1.1522   -0.3618 C   0  0  0  0  0  0  0  0  0  0  0  0
   -1.9355   -2.8547   -2.1157 C   0  0  0  0  0  0  0  0  0  0  0  0
   -1.2951   -3.7043   -1.0222 C   0  0  0  0  0  0  0  0  0  0  0  0
    0.2912   -3.2681    1.3325 C   0  0  0  0  0  0  0  0  0  0  0  0
    0.7540   -2.0275    2.0894 C   0  0  0  0  0  0  0  0  0  0  0  0
   -1.8562   -0.7717    2.2241 C   0  0  0  0  0  0  0  0  0  0  0  0
   -2.1526    1.7082    3.1813 H   0  0  0  0  0  0  0  0  0  0  0  0
   -3.4116    3.6312    2.2135 H   0  0  0  0  0  0  0  0  0  0  0  0
   -4.6872    3.3321    0.0628 H   0  0  0  0  0  0  0  0  0  0  0  0
   -4.6975    1.1095   -1.0685 H   0  0  0  0  0  0  0  0  0  0  0  0
   -4.4284   -1.3082   -0.8576 H   0  0  0  0  0  0  0  0  0  0  0  0
   -3.2384   -2.0284    0.2786 H   0  0  0  0  0  0  0  0  0  0  0  0
   -2.9210   -3.2807   -2.3983 H   0  0  0  0  0  0  0  0  0  0  0  0
   -1.3139   -2.8405   -3.0343 H   0  0  0  0  0  0  0  0  0  0  0  0
   -1.1728   -4.7437   -1.3892 H   0  0  0  0  0  0  0  0  0  0  0  0
   -1.9349   -3.7454   -0.1178 H   0  0  0  0  0  0  0  0  0  0  0  0
   -0.7503   -3.5428    1.5947 H   0  0  0  0  0  0  0  0  0  0  0  0
    0.9371   -4.1266    1.6064 H   0  0  0  0  0  0  0  0  0  0  0  0
    1.8180   -1.7946    1.8760 H   0  0  0  0  0  0  0  0  0  0  0  0
    0.6702   -2.2034    3.1823 H   0  0  0  0  0  0  0  0  0  0  0  0
   -2.1634   -1.7860    1.9087 H   0  0  0  0  0  0  0  0  0  0  0  0
   -1.8797   -0.7251    3.3309 H   0  0  0  0  0  0  0  0  0  0  0  0
  1 10  1  0  0  0  0
  2 13  1  0  0  0  0
  3 14  1  0  0  0  0
  3 15  1  0  0  0  0
  4 15  1  0  0  0  0
  4  5  1  0  0  0  0
  5 16  1  0  0  0  0
  6 17  1  0  0  0  0
  6  5  2  0  0  0  0
  7  6  1  0  0  0  0
  8  9  1  0  0  0  0
  8  7  2  0  0  0  0
  9  4  2  0  0  0  0
 10 21  1  0  0  0  0
 10  9  1  0  0  0  0
 11  1  1  0  0  0  0
 11 12  1  0  0  0  0
 12  2  1  0  0  0  0
 12 25  1  0  0  0  0
 13 26  1  0  0  0  0
 13 27  1  0  0  0  0
 13 14  1  0  0  0  0
 14 29  1  0  0  0  0
 15 31  1  0  0  0  0
 18  7  1  0  0  0  0
 19  8  1  0  0  0  0
 20 10  1  0  0  0  0
 22 11  1  0  0  0  0
 23 11  1  0  0  0  0
 24 12  1  0  0  0  0
 28 14  1  0  0  0  0
 30 15  1  0  0  0  0
M  END
