3,4,5
 OpenBabel05122313063D

 47 49  0  0  1  0  0  0  0  0999 V2000
   -1.3276    2.0879    0.9178 B   0  0  1  0  0  0  0  0  0  0  0  0
   -1.9696    3.0330    1.3737 H   0  0  0  0  0  0  0  0  0  0  0  0
    0.4567    1.2165   -1.9751 S   0  0  0  0  0  1  0  0  0  0  0  0
   -1.7780   -1.2993    0.0711 S   0  0  0  0  0  1  0  0  0  0  0  0
    1.5252    0.1923    1.6986 S   0  0  0  0  0  1  0  0  0  0  0  0
    0.7844    2.3130   -0.6890 C   0  0  1  0  0  3  0  0  0  0  0  0
    1.9468    3.0404   -0.5961 N   0  0  0  0  0  0  0  0  0  0  0  0
    1.9123    3.8320    0.5395 C   0  0  0  0  0  0  0  0  0  0  0  0
    0.7049    3.5998    1.1422 C   0  0  0  0  0  0  0  0  0  0  0  0
    0.0144    2.6628    0.3880 N   0  0  0  0  0  0  0  0  0  0  0  0
    3.0985    2.8789   -1.4819 C   0  0  0  0  0  0  0  0  0  0  0  0
    4.0371    1.7709   -1.0104 C   0  0  0  0  0  0  0  0  0  0  0  0
   -2.3605    0.1669   -0.6176 C   0  0  1  0  0  3  0  0  0  0  0  0
   -3.1482    0.2017   -1.7441 N   0  0  0  0  0  0  0  0  0  0  0  0
   -3.4693    1.5138   -2.0491 C   0  0  0  0  0  0  0  0  0  0  0  0
   -2.8687    2.2944   -1.0976 C   0  0  0  0  0  0  0  0  0  0  0  0
   -2.1875    1.4656   -0.2188 N   0  0  0  0  0  0  0  0  0  0  0  0
   -3.5809   -0.9783   -2.4877 C   0  0  0  0  0  0  0  0  0  0  0  0
   -4.8494   -1.6044   -1.9149 C   0  0  0  0  0  0  0  0  0  0  0  0
   -0.0472    0.2736    2.3926 C   0  0  1  0  0  3  0  0  0  0  0  0
   -0.4503   -0.5225    3.4384 N   0  0  0  0  0  0  0  0  0  0  0  0
   -1.7602   -0.2242    3.7740 C   0  0  0  0  0  0  0  0  0  0  0  0
   -2.1608    0.7805    2.9344 C   0  0  0  0  0  0  0  0  0  0  0  0
   -1.1083    1.0825    2.0827 N   0  0  0  0  0  0  0  0  0  0  0  0
    0.3400   -1.6176    3.9983 C   0  0  0  0  0  0  0  0  0  0  0  0
    0.1464   -2.9219    3.2285 C   0  0  0  0  0  0  0  0  0  0  0  0
    2.7400    4.4928    0.8116 H   0  0  0  0  0  0  0  0  0  0  0  0
    0.2743    4.0197    2.0552 H   0  0  0  0  0  0  0  0  0  0  0  0
    3.6133    3.8595   -1.5331 H   0  0  0  0  0  0  0  0  0  0  0  0
    2.6942    2.6437   -2.4863 H   0  0  0  0  0  0  0  0  0  0  0  0
    4.9116    1.7011   -1.6869 H   0  0  0  0  0  0  0  0  0  0  0  0
    4.4027    1.9610    0.0183 H   0  0  0  0  0  0  0  0  0  0  0  0
    3.5187    0.7918   -1.0205 H   0  0  0  0  0  0  0  0  0  0  0  0
   -4.0909    1.7744   -2.9102 H   0  0  0  0  0  0  0  0  0  0  0  0
   -2.8584    3.3805   -0.9736 H   0  0  0  0  0  0  0  0  0  0  0  0
   -3.7178   -0.6654   -3.5420 H   0  0  0  0  0  0  0  0  0  0  0  0
   -2.7410   -1.7010   -2.4451 H   0  0  0  0  0  0  0  0  0  0  0  0
   -5.1421   -2.4877   -2.5165 H   0  0  0  0  0  0  0  0  0  0  0  0
   -5.6943   -0.8865   -1.9179 H   0  0  0  0  0  0  0  0  0  0  0  0
   -4.6704   -1.9402   -0.8744 H   0  0  0  0  0  0  0  0  0  0  0  0
   -2.2847   -0.7426    4.5816 H   0  0  0  0  0  0  0  0  0  0  0  0
   -3.1149    1.3097    2.8644 H   0  0  0  0  0  0  0  0  0  0  0  0
    0.0476   -1.7213    5.0627 H   0  0  0  0  0  0  0  0  0  0  0  0
    1.3997   -1.2969    3.9569 H   0  0  0  0  0  0  0  0  0  0  0  0
    0.7284   -3.7341    3.7070 H   0  0  0  0  0  0  0  0  0  0  0  0
   -0.9202   -3.2217    3.2034 H   0  0  0  0  0  0  0  0  0  0  0  0
    0.5045   -2.8152    2.1856 H   0  0  0  0  0  0  0  0  0  0  0  0
  1  2  1  1  0  0  0
  1 24  1  0  0  0  0
  6  3  1  6  0  0  0
  6  7  1  0  0  0  0
  6 10  1  0  0  0  0
  7  8  1  0  0  0  0
  8 27  1  0  0  0  0
  8  9  2  0  0  0  0
  9 28  1  0  0  0  0
 10  1  1  0  0  0  0
 10  9  1  0  0  0  0
 11 12  1  0  0  0  0
 11  7  1  0  0  0  0
 12 32  1  0  0  0  0
 13 17  1  0  0  0  0
 13  4  1  1  0  0  0
 14 13  1  0  0  0  0
 15 14  1  0  0  0  0
 15 16  2  0  0  0  0
 16 35  1  0  0  0  0
 16 17  1  0  0  0  0
 17  1  1  0  0  0  0
 18 37  1  0  0  0  0
 18 19  1  0  0  0  0
 18 14  1  0  0  0  0
 19 40  1  0  0  0  0
 20  5  1  1  0  0  0
 20 21  1  0  0  0  0
 21 22  1  0  0  0  0
 21 25  1  0  0  0  0
 22 41  1  0  0  0  0
 23 22  2  0  0  0  0
 24 20  1  0  0  0  0
 24 23  1  0  0  0  0
 25 43  1  0  0  0  0
 26 45  1  0  0  0  0
 26 25  1  0  0  0  0
 29 11  1  0  0  0  0
 30 11  1  0  0  0  0
 31 12  1  0  0  0  0
 33 12  1  0  0  0  0
 34 15  1  0  0  0  0
 36 18  1  0  0  0  0
 38 19  1  0  0  0  0
 39 19  1  0  0  0  0
 42 23  1  0  0  0  0
 44 25  1  0  0  0  0
 46 26  1  0  0  0  0
 47 26  1  0  0  0  0
M  END
