1,2,3
 OpenBabel05122313063D

 32 34  0  0  0  0  0  0  0  0999 V2000
   -1.8275   -1.6507   -1.3878 S   0  0  0  0  0  1  0  0  0  0  0  0
   -1.4940    0.9726    0.4097 S   0  0  0  0  0  0  0  0  0  0  0  0
    1.2677    0.0419    1.3353 S   0  0  0  0  0  1  0  0  0  0  0  0
    1.5280    0.4127   -2.1240 S   0  0  0  0  0  0  0  0  0  0  0  0
   -4.4849    1.5562   -0.0976 S   0  0  0  0  0  0  0  0  0  0  0  0
   -4.7640   -0.8848   -1.7168 S   0  0  0  0  0  0  0  0  0  0  0  0
    4.2404   -0.0185    1.2636 S   0  0  0  0  0  0  0  0  0  0  0  0
    4.4987    0.1896   -1.6367 S   0  0  0  0  0  0  0  0  0  0  0  0
   -7.1910    0.8477   -1.2375 S   0  0  0  0  0  0  0  0  0  0  0  0
    7.0029    0.1435    0.0624 S   0  0  0  0  0  0  0  0  0  0  0  0
   -3.0350    0.6022   -0.3678 C   0  0  0  0  0  0  0  0  0  0  0  0
   -5.5924    0.5351   -1.0320 C   0  0  0  0  0  0  0  0  0  0  0  0
   -3.1399   -0.5484   -1.1194 C   0  0  0  0  0  0  0  0  0  0  0  0
    2.7153    0.0632    0.3759 C   0  0  0  0  0  0  0  0  0  0  0  0
    2.8506    0.1483   -1.0006 C   0  0  0  0  0  0  0  0  0  0  0  0
    5.3652    0.1224   -0.1025 C   0  0  0  0  0  0  0  0  0  0  0  0
   -0.9747    2.4621   -0.6289 C   0  0  0  0  0  0  0  0  0  0  0  0
   -0.9562    2.1063   -1.6734 H   0  0  0  0  0  0  0  0  0  0  0  0
   -1.8196    3.1686   -0.5001 H   0  0  0  0  0  0  0  0  0  0  0  0
    1.5201    2.9275   -0.8870 C   0  0  0  0  0  0  0  0  0  0  0  0
    0.3193    3.0314   -0.1372 C   0  0  0  0  0  0  0  0  0  0  0  0
    1.5740    2.2781   -2.2383 C   0  0  0  0  0  0  0  0  0  0  0  0
    2.5021    2.5519   -2.7762 H   0  0  0  0  0  0  0  0  0  0  0  0
    0.7137    2.5273   -2.8907 H   0  0  0  0  0  0  0  0  0  0  0  0
    2.7223    3.3856   -0.3124 C   0  0  0  0  0  0  0  0  0  0  0  0
    3.6572    3.2815   -0.8847 H   0  0  0  0  0  0  0  0  0  0  0  0
    0.3554    3.6240    1.1400 C   0  0  0  0  0  0  0  0  0  0  0  0
   -0.5789    3.6997    1.7185 H   0  0  0  0  0  0  0  0  0  0  0  0
    2.7504    3.9444    0.9718 C   0  0  0  0  0  0  0  0  0  0  0  0
    3.7058    4.2776    1.4035 H   0  0  0  0  0  0  0  0  0  0  0  0
    1.5578    4.0738    1.6984 C   0  0  0  0  0  0  0  0  0  0  0  0
    1.5649    4.5171    2.7053 H   0  0  0  0  0  0  0  0  0  0  0  0
  1 13  1  0  0  0  0
  4 15  1  0  0  0  0
  6 13  1  0  0  0  0
  6 12  1  0  0  0  0
  8 15  1  0  0  0  0
  8 16  1  0  0  0  0
  9 12  2  0  0  0  0
 11  5  1  0  0  0  0
 11  2  1  0  0  0  0
 12  5  1  0  0  0  0
 13 11  2  0  0  0  0
 14  7  1  0  0  0  0
 14  3  1  0  0  0  0
 15 14  2  0  0  0  0
 16 10  2  0  0  0  0
 16  7  1  0  0  0  0
 17 19  1  0  0  0  0
 17 21  1  0  0  0  0
 17  2  1  0  0  0  0
 18 17  1  0  0  0  0
 20 25  2  0  0  0  0
 20 21  1  0  0  0  0
 21 27  2  0  0  0  0
 22  4  1  0  0  0  0
 22 20  1  0  0  0  0
 23 22  1  0  0  0  0
 24 22  1  0  0  0  0
 25 29  1  0  0  0  0
 26 25  1  0  0  0  0
 27 31  1  0  0  0  0
 27 28  1  0  0  0  0
 29 30  1  0  0  0  0
 29 31  2  0  0  0  0
 31 32  1  0  0  0  0
M  END
