1,2,3
 OpenBabel05122313063D

 54 54  0  0  0  0  0  0  0  0999 V2000
    1.9144   -1.5326   -1.4375 S   0  0  0  0  0  0  0  0  0  0  0  0
   -2.2962   -0.8847   -1.4204 S   0  0  0  0  0  0  0  0  0  0  0  0
    0.3688    2.4337   -1.4175 S   0  0  0  0  0  0  0  0  0  0  0  0
    1.7533   -0.0019    1.5054 N   0  0  0  0  0  0  0  0  0  0  0  0
   -0.8659   -1.5217    1.5079 N   0  0  0  0  0  0  0  0  0  0  0  0
   -0.8726    1.5064    1.5195 N   0  0  0  0  0  0  0  0  0  0  0  0
    1.6145    1.3632    2.0200 C   0  0  0  0  0  0  0  0  0  0  0  0
    1.9227    2.0443    1.2010 H   0  0  0  0  0  0  0  0  0  0  0  0
    2.3148    1.5628    2.8716 H   0  0  0  0  0  0  0  0  0  0  0  0
    0.2001    1.7405    2.4940 C   0  0  0  0  0  0  0  0  0  0  0  0
   -0.0312    1.1909    3.4283 H   0  0  0  0  0  0  0  0  0  0  0  0
    0.2296    2.8109    2.8032 H   0  0  0  0  0  0  0  0  0  0  0  0
   -1.9847    0.6995    2.0286 C   0  0  0  0  0  0  0  0  0  0  0  0
   -2.7297    0.6324    1.2099 H   0  0  0  0  0  0  0  0  0  0  0  0
   -2.5068    1.1987    2.8851 H   0  0  0  0  0  0  0  0  0  0  0  0
   -1.6033   -0.7179    2.4904 C   0  0  0  0  0  0  0  0  0  0  0  0
   -1.0096   -0.6506    3.4239 H   0  0  0  0  0  0  0  0  0  0  0  0
   -2.5443   -1.2302    2.7976 H   0  0  0  0  0  0  0  0  0  0  0  0
    0.3897   -2.0859    2.0101 C   0  0  0  0  0  0  0  0  0  0  0  0
    0.8189   -2.6902    1.1853 H   0  0  0  0  0  0  0  0  0  0  0  0
    0.2196   -2.7953    2.8605 H   0  0  0  0  0  0  0  0  0  0  0  0
    1.4274   -1.0512    2.4792 C   0  0  0  0  0  0  0  0  0  0  0  0
    1.0744   -0.5789    3.4178 H   0  0  0  0  0  0  0  0  0  0  0  0
    2.3422   -1.6127    2.7794 H   0  0  0  0  0  0  0  0  0  0  0  0
    3.0325   -0.1979    0.8260 C   0  0  0  0  0  0  0  0  0  0  0  0
    3.8808   -0.2528    1.5575 H   0  0  0  0  0  0  0  0  0  0  0  0
    3.2223    0.6970    0.1974 H   0  0  0  0  0  0  0  0  0  0  0  0
    3.1092   -1.4498   -0.0492 C   0  0  0  0  0  0  0  0  0  0  0  0
    2.9330   -2.3722    0.5392 H   0  0  0  0  0  0  0  0  0  0  0  0
    4.1278   -1.5455   -0.4770 H   0  0  0  0  0  0  0  0  0  0  0  0
    2.7015   -0.4125   -2.6405 C   0  0  0  0  0  0  0  0  0  0  0  0
    2.0422   -0.3980   -3.5291 H   0  0  0  0  0  0  0  0  0  0  0  0
    3.6938   -0.8051   -2.9357 H   0  0  0  0  0  0  0  0  0  0  0  0
    2.7874    0.6186   -2.2471 H   0  0  0  0  0  0  0  0  0  0  0  0
   -1.6812   -2.5289    0.8316 C   0  0  0  0  0  0  0  0  0  0  0  0
   -2.1470   -3.2387    1.5644 H   0  0  0  0  0  0  0  0  0  0  0  0
   -1.0064   -3.1383    0.1950 H   0  0  0  0  0  0  0  0  0  0  0  0
   -2.8110   -1.9657   -0.0319 C   0  0  0  0  0  0  0  0  0  0  0  0
   -3.5163   -1.3538    0.5649 H   0  0  0  0  0  0  0  0  0  0  0  0
   -3.4070   -2.7981   -0.4578 H   0  0  0  0  0  0  0  0  0  0  0  0
   -1.7330   -2.1224   -2.6339 C   0  0  0  0  0  0  0  0  0  0  0  0
   -1.3975   -1.5556   -3.5231 H   0  0  0  0  0  0  0  0  0  0  0  0
   -2.5731   -2.7825   -2.9244 H   0  0  0  0  0  0  0  0  0  0  0  0
   -0.8808   -2.7158   -2.2504 H   0  0  0  0  0  0  0  0  0  0  0  0
   -1.3429    2.7180    0.8506 C   0  0  0  0  0  0  0  0  0  0  0  0
   -1.7179    3.4744    1.5888 H   0  0  0  0  0  0  0  0  0  0  0  0
   -2.2139    2.4403    0.2211 H   0  0  0  0  0  0  0  0  0  0  0  0
   -0.2977    3.4166   -0.0206 C   0  0  0  0  0  0  0  0  0  0  0  0
    0.5902    3.7198    0.5692 H   0  0  0  0  0  0  0  0  0  0  0  0
   -0.7240    4.3502   -0.4404 H   0  0  0  0  0  0  0  0  0  0  0  0
   -0.9960    2.5671   -2.6180 C   0  0  0  0  0  0  0  0  0  0  0  0
   -0.6806    1.9961   -3.5118 H   0  0  0  0  0  0  0  0  0  0  0  0
   -1.1510    3.6255   -2.9041 H   0  0  0  0  0  0  0  0  0  0  0  0
   -1.9320    2.1240   -2.2272 H   0  0  0  0  0  0  0  0  0  0  0  0
  1 28  1  0  0  0  0
  2 38  1  0  0  0  0
  3 48  1  0  0  0  0
  4  7  1  0  0  0  0
  4 22  1  0  0  0  0
  5 19  1  0  0  0  0
  5 16  1  0  0  0  0
  6 13  1  0  0  0  0
  6 10  1  0  0  0  0
  7 10  1  0  0  0  0
  7  9  1  0  0  0  0
  8  7  1  0  0  0  0
 10 12  1  0  0  0  0
 10 11  1  0  0  0  0
 13 16  1  0  0  0  0
 13 15  1  0  0  0  0
 14 13  1  0  0  0  0
 16 18  1  0  0  0  0
 16 17  1  0  0  0  0
 19 22  1  0  0  0  0
 19 21  1  0  0  0  0
 20 19  1  0  0  0  0
 22 24  1  0  0  0  0
 22 23  1  0  0  0  0
 25  4  1  0  0  0  0
 25 26  1  0  0  0  0
 27 25  1  0  0  0  0
 28 29  1  0  0  0  0
 28 25  1  0  0  0  0
 30 28  1  0  0  0  0
 31 34  1  0  0  0  0
 31  1  1  0  0  0  0
 32 31  1  0  0  0  0
 33 31  1  0  0  0  0
 35  5  1  0  0  0  0
 35 36  1  0  0  0  0
 37 35  1  0  0  0  0
 38 39  1  0  0  0  0
 38 35  1  0  0  0  0
 40 38  1  0  0  0  0
 41 44  1  0  0  0  0
 41  2  1  0  0  0  0
 42 41  1  0  0  0  0
 43 41  1  0  0  0  0
 45  6  1  0  0  0  0
 45 46  1  0  0  0  0
 47 45  1  0  0  0  0
 48 49  1  0  0  0  0
 48 45  1  0  0  0  0
 50 48  1  0  0  0  0
 51 54  1  0  0  0  0
 51  3  1  0  0  0  0
 52 51  1  0  0  0  0
 53 51  1  0  0  0  0
M  END
