1,2,3
 OpenBabel05122313063D

 21 22  0  0  0  0  0  0  0  0999 V2000
   -1.7990    0.9874   -1.6417 S   0  0  0  0  0  0  0  0  0  0  0  0
   -2.0729   -1.7148    0.4988 S   0  0  0  0  0  0  0  0  0  0  0  0
   -1.5266    1.5346    1.8515 S   0  0  0  0  0  0  0  0  0  0  0  0
   -4.7840    0.8060   -1.8801 S   0  0  0  0  0  0  0  0  0  0  0  0
   -5.0198   -1.5436   -0.0276 S   0  0  0  0  0  0  0  0  0  0  0  0
   -7.1292   -0.2585   -1.0976 O   0  0  0  0  0  0  0  0  0  0  0  0
   -2.0080    2.6044   -0.7686 C   0  0  0  0  0  0  0  0  0  0  0  0
   -0.9985    3.0609   -0.8305 H   0  0  0  0  0  0  0  0  0  0  0  0
   -2.6969    3.2362   -1.3662 H   0  0  0  0  0  0  0  0  0  0  0  0
   -2.5244    2.5298    0.6639 C   0  0  0  0  0  0  0  0  0  0  0  0
   -3.5557    2.1250    0.6816 H   0  0  0  0  0  0  0  0  0  0  0  0
   -2.5713    3.5609    1.0697 H   0  0  0  0  0  0  0  0  0  0  0  0
   -2.7431    0.2820    2.4433 C   0  0  0  0  0  0  0  0  0  0  0  0
   -3.7104    0.5066    1.9516 H   0  0  0  0  0  0  0  0  0  0  0  0
   -2.8804    0.4587    3.5296 H   0  0  0  0  0  0  0  0  0  0  0  0
   -2.3728   -1.1828    2.2445 C   0  0  0  0  0  0  0  0  0  0  0  0
   -3.1799   -1.8167    2.6660 H   0  0  0  0  0  0  0  0  0  0  0  0
   -1.4278   -1.4532    2.7598 H   0  0  0  0  0  0  0  0  0  0  0  0
   -3.4107   -0.9080   -0.3331 C   0  0  0  0  0  0  0  0  0  0  0  0
   -3.3022    0.1707   -1.1827 C   0  0  0  0  0  0  0  0  0  0  0  0
   -5.9351   -0.3078   -1.0076 C   0  0  0  0  0  0  0  0  0  0  0  0
  1 20  1  0  0  0  0
  1  7  1  0  0  0  0
  2 16  1  0  0  0  0
  3 13  1  0  0  0  0
  4 20  1  0  0  0  0
  4 21  1  0  0  0  0
  6 21  2  0  0  0  0
  7 10  1  0  0  0  0
  8  7  1  0  0  0  0
  9  7  1  0  0  0  0
 10 11  1  0  0  0  0
 10 12  1  0  0  0  0
 10  3  1  0  0  0  0
 13 15  1  0  0  0  0
 14 13  1  0  0  0  0
 16 13  1  0  0  0  0
 16 17  1  0  0  0  0
 16 18  1  0  0  0  0
 19  5  1  0  0  0  0
 19  2  1  0  0  0  0
 20 19  2  0  0  0  0
 21  5  1  0  0  0  0
M  END
