1,2,3
 OpenBabel05122313063D

 21 20  0  0  0  0  0  0  0  0999 V2000
    3.2786   -0.8340    0.8256 S   0  0  0  0  0  0  0  0  0  0  0  0
    1.8115    1.4593   -1.1646 S   0  0  0  0  0  0  0  0  0  0  0  0
    0.9017    1.0893    1.9925 S   0  0  0  0  0  1  0  0  0  0  0  0
    4.9348   -2.3403   -0.8664 C   0  0  0  0  0  0  0  0  0  0  0  0
    3.8094   -2.2270   -0.1437 C   0  0  0  0  0  0  0  0  0  0  0  0
    4.1746    0.5792    0.0709 C   0  0  0  0  0  0  0  0  0  0  0  0
    3.5976    0.9699   -1.2745 C   0  0  0  0  0  0  0  0  0  0  0  0
    1.8390    2.7856    0.0070 C   0  0  0  0  0  0  0  0  0  0  0  0
    1.4214    2.6132    1.2979 C   0  0  0  0  0  0  0  0  0  0  0  0
    1.3193    3.7888    2.2388 C   0  0  0  0  0  0  0  0  0  0  0  0
    5.6631   -1.5246   -0.9911 H   0  0  0  0  0  0  0  0  0  0  0  0
    5.1491   -3.2853   -1.3878 H   0  0  0  0  0  0  0  0  0  0  0  0
    3.0734   -3.0414   -0.0442 H   0  0  0  0  0  0  0  0  0  0  0  0
    4.0535    1.3986    0.8093 H   0  0  0  0  0  0  0  0  0  0  0  0
    5.2528    0.3266    0.0138 H   0  0  0  0  0  0  0  0  0  0  0  0
    4.1477    1.8252   -1.7178 H   0  0  0  0  0  0  0  0  0  0  0  0
    3.5890    0.1233   -1.9921 H   0  0  0  0  0  0  0  0  0  0  0  0
    2.0890    3.7821   -0.3887 H   0  0  0  0  0  0  0  0  0  0  0  0
    1.8133    4.6877    1.8219 H   0  0  0  0  0  0  0  0  0  0  0  0
    0.2522    4.0311    2.4278 H   0  0  0  0  0  0  0  0  0  0  0  0
    1.7756    3.5512    3.2209 H   0  0  0  0  0  0  0  0  0  0  0  0
  2  8  1  0  0  0  0
  4  5  2  0  0  0  0
  5 13  1  0  0  0  0
  5  1  1  0  0  0  0
  6 14  1  0  0  0  0
  6  1  1  0  0  0  0
  7  2  1  0  0  0  0
  7  6  1  0  0  0  0
  8  9  2  0  0  0  0
  9  3  1  0  0  0  0
  9 10  1  0  0  0  0
 10 20  1  0  0  0  0
 10 21  1  0  0  0  0
 11  4  1  0  0  0  0
 12  4  1  0  0  0  0
 15  6  1  0  0  0  0
 16  7  1  0  0  0  0
 17  7  1  0  0  0  0
 18  8  1  0  0  0  0
 19 10  1  0  0  0  0
M  END
