1,2,3
 OpenBabel05122313063D

 59 62  0  0  0  0  0  0  0  0999 V2000
    0.2505   -2.6924    0.0149 S   0  0  0  0  0  0  0  0  0  0  0  0
    0.9440   -0.1492    2.2067 S   0  0  0  0  0  0  0  0  0  0  0  0
    2.0335    0.8535   -0.9502 S   0  0  0  0  0  0  0  0  0  0  0  0
   -3.2670   -1.2304   -0.3098 O   0  0  0  0  0  0  0  0  0  0  0  0
   -1.2848    3.1023   -0.3302 O   0  0  0  0  0  0  0  0  0  0  0  0
   -3.4230    1.5237    0.4687 C   0  0  0  0  0  0  0  0  0  0  0  0
   -3.1248    1.4183   -0.5846 H   0  0  0  0  0  0  0  0  0  0  0  0
   -4.1248    0.4812    1.0983 C   0  0  0  0  0  0  0  0  0  0  0  0
   -4.4793    0.6134    2.4532 C   0  0  0  0  0  0  0  0  0  0  0  0
   -5.0187   -0.2026    2.9595 H   0  0  0  0  0  0  0  0  0  0  0  0
   -4.1342    1.7735    3.1635 C   0  0  0  0  0  0  0  0  0  0  0  0
   -4.4076    1.8687    4.2249 H   0  0  0  0  0  0  0  0  0  0  0  0
   -3.4113    2.7971    2.5335 C   0  0  0  0  0  0  0  0  0  0  0  0
   -3.1125    3.6910    3.1034 H   0  0  0  0  0  0  0  0  0  0  0  0
   -3.0498    2.6781    1.1789 C   0  0  0  0  0  0  0  0  0  0  0  0
   -2.2515    3.7544    0.4822 C   0  0  0  0  0  0  0  0  0  0  0  0
   -2.9111    4.3927   -0.1535 H   0  0  0  0  0  0  0  0  0  0  0  0
   -1.7608    4.4229    1.2261 H   0  0  0  0  0  0  0  0  0  0  0  0
   -0.4058    3.8307   -1.0857 C   0  0  0  0  0  0  0  0  0  0  0  0
   -0.3860    5.2369   -1.1260 C   0  0  0  0  0  0  0  0  0  0  0  0
   -1.1011    5.8246   -0.5346 H   0  0  0  0  0  0  0  0  0  0  0  0
    0.5594    5.8947   -1.9297 C   0  0  0  0  0  0  0  0  0  0  0  0
    0.5710    6.9947   -1.9562 H   0  0  0  0  0  0  0  0  0  0  0  0
    1.4813    5.1589   -2.6880 C   0  0  0  0  0  0  0  0  0  0  0  0
    2.2233    5.6749   -3.3145 H   0  0  0  0  0  0  0  0  0  0  0  0
    1.4542    3.7574   -2.6400 C   0  0  0  0  0  0  0  0  0  0  0  0
    2.1866    3.1692   -3.2147 H   0  0  0  0  0  0  0  0  0  0  0  0
    0.5172    3.0672   -1.8505 C   0  0  0  0  0  0  0  0  0  0  0  0
    0.5102    1.5691   -1.7691 C   0  0  0  0  0  0  0  0  0  0  0  0
    0.5499    1.1094   -2.7769 H   0  0  0  0  0  0  0  0  0  0  0  0
   -0.3951    1.1989   -1.2562 H   0  0  0  0  0  0  0  0  0  0  0  0
    2.0912    1.8406    0.5897 C   0  0  0  0  0  0  0  0  0  0  0  0
    3.0771    1.5654    1.0188 H   0  0  0  0  0  0  0  0  0  0  0  0
    2.1171    2.9168    0.3159 H   0  0  0  0  0  0  0  0  0  0  0  0
    0.9577    1.5815    1.5811 C   0  0  0  0  0  0  0  0  0  0  0  0
   -0.0303    1.7976    1.1300 H   0  0  0  0  0  0  0  0  0  0  0  0
    1.0783    2.2512    2.4577 H   0  0  0  0  0  0  0  0  0  0  0  0
   -0.7542   -0.7223    1.7962 C   0  0  0  0  0  0  0  0  0  0  0  0
   -1.4306   -0.5268    2.6548 H   0  0  0  0  0  0  0  0  0  0  0  0
   -1.1397   -0.1383    0.9384 H   0  0  0  0  0  0  0  0  0  0  0  0
   -0.7517   -2.2154    1.4836 C   0  0  0  0  0  0  0  0  0  0  0  0
   -1.7867   -2.5813    1.3289 H   0  0  0  0  0  0  0  0  0  0  0  0
   -0.3076   -2.8013    2.3145 H   0  0  0  0  0  0  0  0  0  0  0  0
   -0.8091   -2.0266   -1.3628 C   0  0  0  0  0  0  0  0  0  0  0  0
   -1.0124   -0.9598   -1.1601 H   0  0  0  0  0  0  0  0  0  0  0  0
   -0.1291   -2.0872   -2.2343 H   0  0  0  0  0  0  0  0  0  0  0  0
   -2.0648   -2.8160   -1.5885 C   0  0  0  0  0  0  0  0  0  0  0  0
   -2.0424   -4.0116   -2.3281 C   0  0  0  0  0  0  0  0  0  0  0  0
   -1.0814   -4.3487   -2.7475 H   0  0  0  0  0  0  0  0  0  0  0  0
   -3.2020   -4.7729   -2.5332 C   0  0  0  0  0  0  0  0  0  0  0  0
   -3.1564   -5.7035   -3.1172 H   0  0  0  0  0  0  0  0  0  0  0  0
   -4.4163   -4.3342   -1.9883 C   0  0  0  0  0  0  0  0  0  0  0  0
   -5.3367   -4.9178   -2.1412 H   0  0  0  0  0  0  0  0  0  0  0  0
   -4.4736   -3.1470   -1.2409 C   0  0  0  0  0  0  0  0  0  0  0  0
   -5.4339   -2.8189   -0.8219 H   0  0  0  0  0  0  0  0  0  0  0  0
   -3.3034   -2.3912   -1.0358 C   0  0  0  0  0  0  0  0  0  0  0  0
   -4.4601   -0.7668    0.3204 C   0  0  0  0  0  0  0  0  0  0  0  0
   -4.8729   -1.5484    0.9973 H   0  0  0  0  0  0  0  0  0  0  0  0
   -5.2340   -0.5544   -0.4550 H   0  0  0  0  0  0  0  0  0  0  0  0
  1 41  1  0  0  0  0
  3 32  1  0  0  0  0
  4 57  1  0  0  0  0
  5 16  1  0  0  0  0
  6  8  2  0  0  0  0
  6 15  1  0  0  0  0
  7  6  1  0  0  0  0
  8  9  1  0  0  0  0
  9 10  1  0  0  0  0
  9 11  2  0  0  0  0
 11 12  1  0  0  0  0
 13 14  1  0  0  0  0
 13 11  1  0  0  0  0
 15 13  2  0  0  0  0
 16 15  1  0  0  0  0
 16 18  1  0  0  0  0
 17 16  1  0  0  0  0
 19  5  1  0  0  0  0
 20 19  1  0  0  0  0
 20 21  1  0  0  0  0
 22 20  2  0  0  0  0
 23 22  1  0  0  0  0
 24 26  2  0  0  0  0
 24 22  1  0  0  0  0
 25 24  1  0  0  0  0
 26 28  1  0  0  0  0
 27 26  1  0  0  0  0
 28 29  1  0  0  0  0
 28 19  2  0  0  0  0
 29 31  1  0  0  0  0
 29  3  1  0  0  0  0
 30 29  1  0  0  0  0
 32 33  1  0  0  0  0
 32 35  1  0  0  0  0
 34 32  1  0  0  0  0
 35  2  1  0  0  0  0
 35 37  1  0  0  0  0
 36 35  1  0  0  0  0
 38  2  1  0  0  0  0
 38 39  1  0  0  0  0
 40 38  1  0  0  0  0
 41 38  1  0  0  0  0
 41 43  1  0  0  0  0
 42 41  1  0  0  0  0
 44 45  1  0  0  0  0
 44  1  1  0  0  0  0
 46 44  1  0  0  0  0
 47 44  1  0  0  0  0
 47 56  1  0  0  0  0
 48 47  2  0  0  0  0
 49 48  1  0  0  0  0
 50 48  1  0  0  0  0
 50 52  2  0  0  0  0
 51 50  1  0  0  0  0
 52 54  1  0  0  0  0
 53 52  1  0  0  0  0
 54 56  2  0  0  0  0
 54 55  1  0  0  0  0
 56  4  1  0  0  0  0
 57 58  1  0  0  0  0
 57  8  1  0  0  0  0
 59 57  1  0  0  0  0
M  END
