1,2,3
 OpenBabel05122313063D

 56 58  0  0  1  0  0  0  0  0999 V2000
   -1.6424   -1.4600    0.4007 S   0  0  0  0  0  1  0  0  0  0  0  0
    2.0856   -0.6922    0.4020 S   0  0  0  0  0  1  0  0  0  0  0  0
   -0.4438    2.1531    0.4007 S   0  0  0  0  0  1  0  0  0  0  0  0
    0.0250   -1.4846   -1.8503 N   0  0  0  0  0  0  0  0  0  0  0  0
   -0.0387   -3.3689   -0.7079 N   0  0  0  0  0  0  0  0  0  0  0  0
    1.2741    0.7630   -1.8501 N   0  0  0  0  0  0  0  0  0  0  0  0
    2.9377    1.6504   -0.7076 N   0  0  0  0  0  0  0  0  0  0  0  0
   -1.2971    0.7210   -1.8509 N   0  0  0  0  0  0  0  0  0  0  0  0
   -2.8981    1.7176   -0.7090 N   0  0  0  0  0  0  0  0  0  0  0  0
   -0.5359   -2.0899   -0.7589 C   0  0  1  0  0  3  0  0  0  0  0  0
    0.8726   -2.3911   -2.4686 C   0  0  0  0  0  0  0  0  0  0  0  0
    1.4341   -2.1195   -3.3667 H   0  0  0  0  0  0  0  0  0  0  0  0
    0.8452   -3.5618   -1.7581 C   0  0  0  0  0  0  0  0  0  0  0  0
    1.3656   -4.5081   -1.9212 H   0  0  0  0  0  0  0  0  0  0  0  0
    2.0785    0.5803   -0.7584 C   0  0  1  0  0  3  0  0  0  0  0  0
    1.6354    1.9502   -2.4686 C   0  0  0  0  0  0  0  0  0  0  0  0
    1.1196    2.3004   -3.3668 H   0  0  0  0  0  0  0  0  0  0  0  0
    2.6628    2.5120   -1.7580 C   0  0  0  0  0  0  0  0  0  0  0  0
    3.2222    3.4358   -1.9212 H   0  0  0  0  0  0  0  0  0  0  0  0
   -1.5417    1.5091   -0.7593 C   0  0  1  0  0  3  0  0  0  0  0  0
   -2.5056    0.4399   -2.4697 C   0  0  0  0  0  0  0  0  0  0  0  0
   -2.5506   -0.1819   -3.3679 H   0  0  0  0  0  0  0  0  0  0  0  0
   -3.5063    1.0485   -1.7595 C   0  0  0  0  0  0  0  0  0  0  0  0
   -4.5860    1.0706   -1.9231 H   0  0  0  0  0  0  0  0  0  0  0  0
   -0.2990   -4.3023    0.4063 C   0  0  0  0  0  0  0  0  0  0  0  0
   -1.3293   -4.0523    0.7347 H   0  0  0  0  0  0  0  0  0  0  0  0
   -0.2524   -5.7523   -0.0703 C   0  0  0  0  0  0  0  0  0  0  0  0
   -0.9122   -5.9168   -0.9451 H   0  0  0  0  0  0  0  0  0  0  0  0
   -0.5937   -6.4158    0.7476 H   0  0  0  0  0  0  0  0  0  0  0  0
    0.7766   -6.0700   -0.3383 H   0  0  0  0  0  0  0  0  0  0  0  0
    0.6557   -4.0151    1.5700 C   0  0  0  0  0  0  0  0  0  0  0  0
    1.7125   -4.1294    1.2538 H   0  0  0  0  0  0  0  0  0  0  0  0
    0.4587   -4.7219    2.4004 H   0  0  0  0  0  0  0  0  0  0  0  0
    0.5091   -2.9880    1.9588 H   0  0  0  0  0  0  0  0  0  0  0  0
    3.8763    1.8917    0.4063 C   0  0  0  0  0  0  0  0  0  0  0  0
    4.1741    0.8744    0.7355 H   0  0  0  0  0  0  0  0  0  0  0  0
    5.1093    2.6557   -0.0709 C   0  0  0  0  0  0  0  0  0  0  0  0
    5.5813    2.1654   -0.9454 H   0  0  0  0  0  0  0  0  0  0  0  0
    5.8546    2.6918    0.7469 H   0  0  0  0  0  0  0  0  0  0  0  0
    4.8709    3.7056   -0.3398 H   0  0  0  0  0  0  0  0  0  0  0  0
    3.1506    2.5762    1.5694 C   0  0  0  0  0  0  0  0  0  0  0  0
    2.7228    3.5492    1.2529 H   0  0  0  0  0  0  0  0  0  0  0  0
    3.8608    2.7581    2.4003 H   0  0  0  0  0  0  0  0  0  0  0  0
    2.3331    1.9369    1.9576 H   0  0  0  0  0  0  0  0  0  0  0  0
   -3.5772    2.4101    0.4044 C   0  0  0  0  0  0  0  0  0  0  0  0
   -2.8466    3.1787    0.7321 H   0  0  0  0  0  0  0  0  0  0  0  0
   -3.8049    1.4408    1.5692 C   0  0  0  0  0  0  0  0  0  0  0  0
   -4.4306    0.5813    1.2538 H   0  0  0  0  0  0  0  0  0  0  0  0
   -4.3198    1.9650    2.3986 H   0  0  0  0  0  0  0  0  0  0  0  0
   -2.8417    1.0563    1.9591 H   0  0  0  0  0  0  0  0  0  0  0  0
   -4.8570    3.0925   -0.0731 C   0  0  0  0  0  0  0  0  0  0  0  0
   -4.6704    3.7455   -0.9486 H   0  0  0  0  0  0  0  0  0  0  0  0
   -5.2618    3.7203    0.7441 H   0  0  0  0  0  0  0  0  0  0  0  0
   -5.6456    2.3589   -0.3402 H   0  0  0  0  0  0  0  0  0  0  0  0
    0.0008   -0.0002   -2.3152 B   0  0  2  0  0  0  0  0  0  0  0  0
    0.0012   -0.0003   -3.5452 H   0  0  0  0  0  0  0  0  0  0  0  0
  4 10  1  0  0  0  0
  5 25  1  0  0  0  0
  6 15  1  0  0  0  0
  7 35  1  0  0  0  0
  8 20  1  0  0  0  0
  9 45  1  0  0  0  0
 10  5  1  0  0  0  0
 10  1  1  1  0  0  0
 11  4  1  0  0  0  0
 11 13  2  0  0  0  0
 12 11  1  0  0  0  0
 13  5  1  0  0  0  0
 14 13  1  0  0  0  0
 15  7  1  0  0  0  0
 15  2  1  1  0  0  0
 16  6  1  0  0  0  0
 16 18  2  0  0  0  0
 17 16  1  0  0  0  0
 18  7  1  0  0  0  0
 19 18  1  0  0  0  0
 20  9  1  0  0  0  0
 20  3  1  1  0  0  0
 21  8  1  0  0  0  0
 21 23  2  0  0  0  0
 22 21  1  0  0  0  0
 23  9  1  0  0  0  0
 24 23  1  0  0  0  0
 25 26  1  0  0  0  0
 25 31  1  0  0  0  0
 27 25  1  0  0  0  0
 27 29  1  0  0  0  0
 28 27  1  0  0  0  0
 30 27  1  0  0  0  0
 31 34  1  0  0  0  0
 31 33  1  0  0  0  0
 32 31  1  0  0  0  0
 35 36  1  0  0  0  0
 35 41  1  0  0  0  0
 37 35  1  0  0  0  0
 37 39  1  0  0  0  0
 38 37  1  0  0  0  0
 40 37  1  0  0  0  0
 41 44  1  0  0  0  0
 41 43  1  0  0  0  0
 42 41  1  0  0  0  0
 45 46  1  0  0  0  0
 45 47  1  0  0  0  0
 47 50  1  0  0  0  0
 47 49  1  0  0  0  0
 48 47  1  0  0  0  0
 51 45  1  0  0  0  0
 51 53  1  0  0  0  0
 52 51  1  0  0  0  0
 54 51  1  0  0  0  0
 55 56  1  6  0  0  0
 55  8  1  0  0  0  0
 55  4  1  0  0  0  0
 55  6  1  0  0  0  0
M  END
