1,2,9
q = 0.0, confidence = 0.84

 39 41  0  0  1  0  0  0  0  0999 V2000
   -2.2737    1.4171   -0.3226 S   0  0  0  0  0  1  0  0  0  0  0  0
   -1.6027   -1.7586    1.1067 S   0  0  0  0  0  1  0  0  0  0  0  0
    0.1435    1.6074    0.9439 N   0  0  0  0  0  0  0  0  0  0  0  0
   -1.2483    3.2322    1.4751 N   0  0  0  0  0  0  0  0  0  0  0  0
    0.9184   -0.7243    1.4653 N   0  0  0  0  0  0  0  0  0  0  0  0
    0.3134   -2.1336    3.0510 N   0  0  0  0  0  0  0  0  0  0  0  0
    2.0489    0.6284   -0.3599 N   0  0  0  0  0  0  0  0  0  0  0  0
    3.0955   -0.2390   -0.2624 N   0  0  0  0  0  0  0  0  0  0  0  0
    0.7025    0.2855    0.2863 B   0  0  0  0  0  0  0  0  0  0  0  0
   -1.1018    2.0909    0.7312 C   0  0  1  0  0  3  0  0  0  0  0  0
    0.8011    2.4538    1.8265 C   0  0  0  0  0  0  0  0  0  0  0  0
    1.8318    2.2645    2.1382 H   0  0  0  0  0  0  0  0  0  0  0  0
   -0.0575    3.4704    2.1608 C   0  0  0  0  0  0  0  0  0  0  0  0
    0.0636    4.3329    2.8230 H   0  0  0  0  0  0  0  0  0  0  0  0
   -2.4454    4.0497    1.4794 C   0  0  0  0  0  0  0  0  0  0  0  0
   -2.5620    4.5851    0.5147 H   0  0  0  0  0  0  0  0  0  0  0  0
   -2.3824    4.7843    2.3022 H   0  0  0  0  0  0  0  0  0  0  0  0
   -3.3352    3.4061    1.6271 H   0  0  0  0  0  0  0  0  0  0  0  0
   -0.0922   -1.5297    1.8898 C   0  0  2  0  0  3  0  0  0  0  0  0
    1.9683   -0.8165    2.3709 C   0  0  0  0  0  0  0  0  0  0  0  0
    2.9173   -0.3118    2.1769 H   0  0  0  0  0  0  0  0  0  0  0  0
    1.5983   -1.6880    3.3623 C   0  0  0  0  0  0  0  0  0  0  0  0
    2.1413   -2.0624    4.2349 H   0  0  0  0  0  0  0  0  0  0  0  0
   -0.4854   -3.0774    3.8055 C   0  0  0  0  0  0  0  0  0  0  0  0
   -1.1309   -2.5612    4.5464 H   0  0  0  0  0  0  0  0  0  0  0  0
    0.1793   -3.7873    4.3322 H   0  0  0  0  0  0  0  0  0  0  0  0
   -1.1367   -3.6312    3.1013 H   0  0  0  0  0  0  0  0  0  0  0  0
    2.3351    1.6582   -1.2319 C   0  0  0  0  0  0  0  0  0  0  0  0
    3.6320    1.4351   -1.6971 C   0  0  0  0  0  0  0  0  0  0  0  0
    4.1840    2.0608   -2.4077 H   0  0  0  0  0  0  0  0  0  0  0  0
    4.0616    0.2389   -1.0607 C   0  0  0  0  0  0  0  0  0  0  0  0
    1.3808    2.7547   -1.5850 C   0  0  0  0  0  0  0  0  0  0  0  0
    1.7725    3.3255   -2.4480 H   0  0  0  0  0  0  0  0  0  0  0  0
    1.2306    3.4709   -0.7490 H   0  0  0  0  0  0  0  0  0  0  0  0
    0.3804    2.3583   -1.8578 H   0  0  0  0  0  0  0  0  0  0  0  0
    5.3713   -0.4775   -1.1837 C   0  0  0  0  0  0  0  0  0  0  0  0
    6.2209    0.1498   -0.8404 H   0  0  0  0  0  0  0  0  0  0  0  0
    5.5827   -0.7629   -2.2352 H   0  0  0  0  0  0  0  0  0  0  0  0
    5.3491   -1.4001   -0.5729 H   0  0  0  0  0  0  0  0  0  0  0  0
  3 11  1  0  0  0  0
  4 15  1  0  0  0  0
  4 13  1  0  0  0  0
  5 19  1  0  0  0  0
  5 20  1  0  0  0  0
  6 22  1  0  0  0  0
  6 24  1  0  0  0  0
  7  8  1  0  0  0  0
  7  9  1  0  0  0  0
  9  3  1  0  0  0  0
  9  5  1  0  0  0  0
 10  1  1  6  0  0  0
 10  3  1  0  0  0  0
 10  4  1  0  0  0  0
 11 12  1  0  0  0  0
 11 13  2  0  0  0  0
 13 14  1  0  0  0  0
 15 18  1  0  0  0  0
 15 17  1  0  0  0  0
 16 15  1  0  0  0  0
 19  2  1  6  0  0  0
 19  6  1  0  0  0  0
 20 22  2  0  0  0  0
 21 20  1  0  0  0  0
 22 23  1  0  0  0  0
 24 26  1  0  0  0  0
 24 25  1  0  0  0  0
 27 24  1  0  0  0  0
 28  7  1  0  0  0  0
 29 28  2  0  0  0  0
 29 31  1  0  0  0  0
 30 29  1  0  0  0  0
 31  8  2  0  0  0  0
 32 28  1  0  0  0  0
 32 34  1  0  0  0  0
 33 32  1  0  0  0  0
 35 32  1  0  0  0  0
 36 31  1  0  0  0  0
 36 37  1  0  0  0  0
 36 39  1  0  0  0  0
 38 36  1  0  0  0  0
M  END
