1,3,7
q = -1.0, confidence = 0.028

 29 32  0  0  1  0  0  0  0  0999 V2000
    0.5561   -0.6152   -1.9951 S   0  0  0  0  0  1  0  0  0  0  0  0
   -0.1490    2.3786   -2.4673 S   0  0  0  0  0  0  0  0  0  0  0  0
   -1.6886   -3.3976    0.5772 S   0  0  0  0  0  1  0  0  0  0  0  0
   -4.6453   -2.8157    1.1713 S   0  0  0  0  0  0  0  0  0  0  0  0
   -1.4461    0.7309   -0.9044 N   0  0  0  0  0  0  0  0  0  0  0  0
   -3.0263   -1.1443   -0.0493 N   0  0  0  0  0  0  0  0  0  0  0  0
   -1.6656   -0.6322   -0.3097 B   0  0  0  0  0  2  0  0  0  0  0  0
   -0.4004    0.7692   -1.8028 C   0  0  2  0  0  3  0  0  0  0  0  0
   -1.3607    3.0309   -1.3616 C   0  0  0  0  0  0  0  0  0  0  0  0
   -1.7105    4.3743   -1.1669 C   0  0  0  0  0  0  0  0  0  0  0  0
   -1.2530    5.1669   -1.7760 H   0  0  0  0  0  0  0  0  0  0  0  0
   -2.6351    4.6803   -0.1564 C   0  0  0  0  0  0  0  0  0  0  0  0
   -2.9177    5.7291    0.0170 H   0  0  0  0  0  0  0  0  0  0  0  0
   -3.1835    3.6638    0.6497 C   0  0  0  0  0  0  0  0  0  0  0  0
   -3.8856    3.9250    1.4548 H   0  0  0  0  0  0  0  0  0  0  0  0
   -2.8404    2.3197    0.4528 C   0  0  0  0  0  0  0  0  0  0  0  0
   -3.2429    1.5281    1.0983 H   0  0  0  0  0  0  0  0  0  0  0  0
   -1.9410    1.9998   -0.5781 C   0  0  0  0  0  0  0  0  0  0  0  0
   -3.0453   -2.4106    0.5506 C   0  0  2  0  0  3  0  0  0  0  0  0
   -5.3336   -1.4147    0.3524 C   0  0  0  0  0  0  0  0  0  0  0  0
   -6.6885   -1.0705    0.2544 C   0  0  0  0  0  0  0  0  0  0  0  0
   -7.4548   -1.6721    0.7642 H   0  0  0  0  0  0  0  0  0  0  0  0
   -7.0437    0.0391   -0.5280 C   0  0  0  0  0  0  0  0  0  0  0  0
   -8.1024    0.3238   -0.6174 H   0  0  0  0  0  0  0  0  0  0  0  0
   -6.0583    0.7627   -1.2225 C   0  0  0  0  0  0  0  0  0  0  0  0
   -6.3492    1.6044   -1.8679 H   0  0  0  0  0  0  0  0  0  0  0  0
   -4.7011    0.4216   -1.1202 C   0  0  0  0  0  0  0  0  0  0  0  0
   -3.9496    0.9713   -1.6978 H   0  0  0  0  0  0  0  0  0  0  0  0
   -4.3255   -0.6500   -0.2920 C   0  0  0  0  0  0  0  0  0  0  0  0
  2  8  1  0  0  0  0
  2  9  1  0  0  0  0
  5 18  1  0  0  0  0
  5  7  1  0  0  0  0
  6 19  1  0  0  0  0
  7  6  1  0  0  0  0
  8  1  1  1  0  0  0
  8  5  1  0  0  0  0
  9 10  2  0  0  0  0
  9 18  1  0  0  0  0
 10 12  1  0  0  0  0
 11 10  1  0  0  0  0
 12 13  1  0  0  0  0
 12 14  2  0  0  0  0
 14 15  1  0  0  0  0
 16 14  1  0  0  0  0
 16 17  1  0  0  0  0
 18 16  2  0  0  0  0
 19  3  1  6  0  0  0
 19  4  1  0  0  0  0
 20  4  1  0  0  0  0
 21 20  1  0  0  0  0
 21 22  1  0  0  0  0
 23 21  2  0  0  0  0
 24 23  1  0  0  0  0
 25 27  2  0  0  0  0
 25 23  1  0  0  0  0
 26 25  1  0  0  0  0
 27 29  1  0  0  0  0
 28 27  1  0  0  0  0
 29  6  1  0  0  0  0
 29 20  2  0  0  0  0
M  END
