1,2,4,51
q = -1.0

 51 52  0  0  0  0  0  0  0  0999 V2000
    2.4281    0.1391   -0.1540 N   0  0  0  0  0  0  0  0  0  0  0  0
   -0.3946    2.0744    0.7303 N   0  0  0  0  0  0  0  0  0  0  0  0
    3.7323   -2.4810   -0.2364 O   0  0  0  0  0  0  0  0  0  0  0  0
   -0.2268   -1.3659    1.5177 S   0  0  0  0  0  0  0  0  0  0  0  0
    3.0100   -0.5303    1.0405 C   0  0  0  0  0  0  0  0  0  0  0  0
    2.4335   -0.2380    1.9412 H   0  0  0  0  0  0  0  0  0  0  0  0
    4.0596   -0.1709    1.1740 H   0  0  0  0  0  0  0  0  0  0  0  0
    3.0428   -2.0545    0.9210 C   0  0  0  0  0  0  0  0  0  0  0  0
    3.5795   -2.4682    1.7990 H   0  0  0  0  0  0  0  0  0  0  0  0
    2.0051   -2.4596    0.9338 H   0  0  0  0  0  0  0  0  0  0  0  0
    3.0735   -1.9628   -1.3838 C   0  0  0  0  0  0  0  0  0  0  0  0
    2.0292   -2.3500   -1.4449 H   0  0  0  0  0  0  0  0  0  0  0  0
    3.6312   -2.3195   -2.2723 H   0  0  0  0  0  0  0  0  0  0  0  0
    3.0641   -0.4430   -1.3771 C   0  0  0  0  0  0  0  0  0  0  0  0
    4.1229   -0.0910   -1.4191 H   0  0  0  0  0  0  0  0  0  0  0  0
    2.5162   -0.0423   -2.2532 H   0  0  0  0  0  0  0  0  0  0  0  0
    2.7987    1.5755   -0.1480 C   0  0  0  0  0  0  0  0  0  0  0  0
    3.9088    1.6414   -0.0376 H   0  0  0  0  0  0  0  0  0  0  0  0
    2.5366    1.9670   -1.1512 H   0  0  0  0  0  0  0  0  0  0  0  0
    2.1323    2.4479    0.9134 C   0  0  0  0  0  0  0  0  0  0  0  0
    2.1207    1.9451    1.9036 H   0  0  0  0  0  0  0  0  0  0  0  0
    2.7889    3.3313    1.0549 H   0  0  0  0  0  0  0  0  0  0  0  0
    0.7559    2.9893    0.5324 C   0  0  0  0  0  0  0  0  0  0  0  0
    0.5511    3.9316    1.0981 H   0  0  0  0  0  0  0  0  0  0  0  0
    0.7664    3.2468   -0.5451 H   0  0  0  0  0  0  0  0  0  0  0  0
   -1.5532    2.6958    0.0595 C   0  0  0  0  0  0  0  0  0  0  0  0
   -1.7269    3.7223    0.4609 H   0  0  0  0  0  0  0  0  0  0  0  0
   -2.4606    2.0865    0.2082 H   0  0  0  0  0  0  0  0  0  0  0  0
   -1.3464    2.7447   -1.0250 H   0  0  0  0  0  0  0  0  0  0  0  0
   -0.6829    1.9627    2.1777 C   0  0  0  0  0  0  0  0  0  0  0  0
   -1.0462    2.9578    2.5336 H   0  0  0  0  0  0  0  0  0  0  0  0
    0.2742    1.7764    2.7061 H   0  0  0  0  0  0  0  0  0  0  0  0
   -1.6876    0.8730    2.5681 C   0  0  0  0  0  0  0  0  0  0  0  0
   -2.2388    1.2185    3.4684 H   0  0  0  0  0  0  0  0  0  0  0  0
   -2.4472    0.7290    1.7740 H   0  0  0  0  0  0  0  0  0  0  0  0
   -1.0409   -0.4598    2.9186 C   0  0  0  0  0  0  0  0  0  0  0  0
   -1.7719   -1.1730    3.3485 H   0  0  0  0  0  0  0  0  0  0  0  0
   -0.2346   -0.3218    3.6695 H   0  0  0  0  0  0  0  0  0  0  0  0
   -1.6651   -2.3731    0.9286 C   0  0  0  0  0  0  0  0  0  0  0  0
   -1.1683   -3.1729    0.3373 H   0  0  0  0  0  0  0  0  0  0  0  0
   -2.1709   -2.8458    1.7949 H   0  0  0  0  0  0  0  0  0  0  0  0
   -2.5442   -1.5154    0.0700 C   0  0  0  0  0  0  0  0  0  0  0  0
   -3.9183   -1.7930   -0.0518 C   0  0  0  0  0  0  0  0  0  0  0  0
   -4.3631   -2.6075    0.5439 H   0  0  0  0  0  0  0  0  0  0  0  0
   -4.7165   -1.0586   -0.9407 C   0  0  0  0  0  0  0  0  0  0  0  0
   -5.7904   -1.2795   -1.0366 H   0  0  0  0  0  0  0  0  0  0  0  0
   -4.1161   -0.0571   -1.7202 C   0  0  0  0  0  0  0  0  0  0  0  0
   -4.7186    0.5058   -2.4512 H   0  0  0  0  0  0  0  0  0  0  0  0
   -2.7505    0.2379   -1.5814 C   0  0  0  0  0  0  0  0  0  0  0  0
   -2.2996    1.0101   -2.2207 H   0  0  0  0  0  0  0  0  0  0  0  0
   -1.9232   -0.4500   -0.6586 C   0  0  0  0  0  3  0  0  0  0  0  0
  1 17  1  0  0  0  0
  1  5  1  0  0  0  0
  2 30  1  0  0  0  0
  3  8  1  0  0  0  0
  4 36  1  0  0  0  0
  5  7  1  0  0  0  0
  5  6  1  0  0  0  0
  8 10  1  0  0  0  0
  8  5  1  0  0  0  0
  8  9  1  0  0  0  0
 11 14  1  0  0  0  0
 11  3  1  0  0  0  0
 12 11  1  0  0  0  0
 13 11  1  0  0  0  0
 14  1  1  0  0  0  0
 15 14  1  0  0  0  0
 16 14  1  0  0  0  0
 17 18  1  0  0  0  0
 17 20  1  0  0  0  0
 19 17  1  0  0  0  0
 20 22  1  0  0  0  0
 20 21  1  0  0  0  0
 23  2  1  0  0  0  0
 23 20  1  0  0  0  0
 23 24  1  0  0  0  0
 25 23  1  0  0  0  0
 26 28  1  0  0  0  0
 26 27  1  0  0  0  0
 26  2  1  0  0  0  0
 29 26  1  0  0  0  0
 30 31  1  0  0  0  0
 30 33  1  0  0  0  0
 30 32  1  0  0  0  0
 33 36  1  0  0  0  0
 33 34  1  0  0  0  0
 35 33  1  0  0  0  0
 36 37  1  0  0  0  0
 36 38  1  0  0  0  0
 39  4  1  0  0  0  0
 39 41  1  0  0  0  0
 40 39  1  0  0  0  0
 42 39  1  0  0  0  0
 43 42  1  0  0  0  0
 43 44  1  0  0  0  0
 45 43  2  0  0  0  0
 46 45  1  0  0  0  0
 47 49  2  0  0  0  0
 47 45  1  0  0  0  0
 48 47  1  0  0  0  0
 49 51  1  0  0  0  0
 50 49  1  0  0  0  0
 51 42  2  0  0  0  0
M  END
