10,29,31,34
q = -1.0, confidence = 0.002

 34 36  0  0  1  0  0  0  0  0999 V2000
    1.1123    2.7615    0.7456 C   0  0  0  0  0  3  0  0  0  0  0  0
    1.7485    2.2572    1.4841 H   0  0  0  0  0  0  0  0  0  0  0  0
    1.1257    4.1500    0.6128 C   0  0  0  0  0  0  0  0  0  0  0  0
    1.7877    4.7470    1.2555 H   0  0  0  0  0  0  0  0  0  0  0  0
    0.2828    4.7521   -0.3371 C   0  0  0  0  0  0  0  0  0  0  0  0
    0.2631    5.8442   -0.4673 H   0  0  0  0  0  0  0  0  0  0  0  0
   -0.5549    3.9328   -1.0987 C   0  0  0  0  0  0  0  0  0  0  0  0
   -1.2620    4.3516   -1.8287 H   0  0  0  0  0  0  0  0  0  0  0  0
   -0.4983    2.5384   -0.9201 C   0  0  0  0  0  0  0  0  0  0  0  0
   -1.3590    0.0030   -0.7537 C   0  0  2  0  0  3  0  0  0  0  0  0
   -3.8184    0.0028   -0.2626 C   0  0  0  0  0  3  0  0  0  0  0  0
   -3.9260    0.0028   -1.3563 H   0  0  0  0  0  0  0  0  0  0  0  0
   -4.8981    0.0029    0.5917 C   0  0  0  0  0  0  0  0  0  0  0  0
   -5.9164    0.0031    0.1813 H   0  0  0  0  0  0  0  0  0  0  0  0
   -4.6547    0.0025    1.9963 C   0  0  0  0  0  0  0  0  0  0  0  0
   -5.4958    0.0026    2.7055 H   0  0  0  0  0  0  0  0  0  0  0  0
   -3.3518    0.0021    2.4595 C   0  0  0  0  0  0  0  0  0  0  0  0
   -3.1213    0.0018    3.5341 H   0  0  0  0  0  0  0  0  0  0  0  0
   -2.2472    0.0019    1.5576 C   0  0  0  0  0  0  0  0  0  0  0  0
   -0.5058   -2.5342   -0.9232 C   0  0  1  0  0  3  0  0  0  0  0  0
   -0.5671   -3.9283   -1.1030 C   0  0  0  0  0  0  0  0  0  0  0  0
   -1.2742   -4.3439   -1.8347 H   0  0  0  0  0  0  0  0  0  0  0  0
    0.2659   -4.7512   -0.3400 C   0  0  0  0  0  0  0  0  0  0  0  0
    0.2426   -5.8431   -0.4711 H   0  0  0  0  0  0  0  0  0  0  0  0
    1.1088   -4.1528    0.6123 C   0  0  0  0  0  0  0  0  0  0  0  0
    1.7671   -4.7527    1.2561 H   0  0  0  0  0  0  0  0  0  0  0  0
    1.1001   -2.7644    0.7460 C   0  0  0  0  0  0  0  0  0  0  0  0
    1.7364   -2.2628    1.4864 H   0  0  0  0  0  0  0  0  0  0  0  0
    0.3394    1.9478   -0.0179 N   0  0  0  0  0  2  0  0  0  0  0  0
   -2.5270    0.0023    0.1967 N   0  0  0  0  0  0  0  0  0  0  0  0
    0.3321   -1.9473   -0.0188 N   0  0  0  0  0  2  0  0  0  0  0  0
   -1.5173    1.4768   -1.8704 S   0  0  0  0  0  0  0  0  0  0  0  0
   -1.5188   -1.4678   -1.8745 S   0  0  0  0  0  0  0  0  0  0  0  0
   -0.6162    0.0014    2.0689 S   0  0  0  0  0  1  0  0  0  0  0  0
  1  2  1  0  0  0  0
  3  1  1  0  0  0  0
  3  4  1  0  0  0  0
  5  3  2  0  0  0  0
  6  5  1  0  0  0  0
  7  9  2  0  0  0  0
  7  5  1  0  0  0  0
  8  7  1  0  0  0  0
  9 29  1  0  0  0  0
 10 33  1  6  0  0  0
 10 30  1  0  0  0  0
 11 30  1  0  0  0  0
 11 13  1  0  0  0  0
 12 11  1  0  0  0  0
 13 15  2  0  0  0  0
 14 13  1  0  0  0  0
 15 17  1  0  0  0  0
 15 16  1  0  0  0  0
 17 18  1  0  0  0  0
 19 34  1  0  0  0  0
 19 17  2  0  0  0  0
 20 33  1  6  0  0  0
 20 31  1  0  0  0  0
 21 20  1  0  0  0  0
 21 23  2  0  0  0  0
 22 21  1  0  0  0  0
 23 25  1  0  0  0  0
 24 23  1  0  0  0  0
 25 27  2  0  0  0  0
 25 26  1  0  0  0  0
 27 28  1  0  0  0  0
 29  1  1  0  0  0  0
 30 19  1  0  0  0  0
 31 27  1  0  0  0  0
 32  9  1  0  0  0  0
 32 10  1  0  0  0  0
M  END
