1,4,5,13
 OpenBabel05122313063D

 63 67  0  0  1  0  0  0  0  0999 V2000
   -1.6875   -0.1844   -0.2121 P   0  0  0  0  0  0  0  0  0  0  0  0
    3.4390    0.2908   -0.0194 N   0  0  0  0  0  0  0  0  0  0  0  0
    2.8015    2.4168   -0.1889 N   0  0  0  0  0  0  0  0  0  0  0  0
   -0.2100    2.3546   -0.5559 N   0  0  0  0  0  2  0  0  0  0  0  0
    2.3801    1.1164   -0.1330 C   0  0  0  0  0  2  0  0  0  0  0  0
    4.2214    2.4718    0.2056 C   0  0  0  0  0  0  0  0  0  0  0  0
    4.3088    2.7636    1.2792 H   0  0  0  0  0  0  0  0  0  0  0  0
    4.7890    3.2066   -0.4000 H   0  0  0  0  0  0  0  0  0  0  0  0
    4.7041    1.0139   -0.0137 C   0  0  0  0  0  0  0  0  0  0  0  0
    5.2381    0.8913   -0.9826 H   0  0  0  0  0  0  0  0  0  0  0  0
    5.3734    0.6572    0.7953 H   0  0  0  0  0  0  0  0  0  0  0  0
    3.1268   -1.0661    0.1914 C   0  0  0  0  0  0  0  0  0  0  0  0
    1.7147   -1.3109    0.2872 C   0  0  0  0  0  3  0  0  0  0  0  0
    1.3642   -2.6430    0.6266 C   0  0  0  0  0  0  0  0  0  0  0  0
    2.3696   -3.6258    0.7920 C   0  0  0  0  0  0  0  0  0  0  0  0
    2.0576   -4.6502    1.0572 H   0  0  0  0  0  0  0  0  0  0  0  0
    3.7412   -3.3635    0.6399 C   0  0  0  0  0  0  0  0  0  0  0  0
    4.1200   -2.0415    0.3400 C   0  0  0  0  0  0  0  0  0  0  0  0
    5.1848   -1.7781    0.2323 H   0  0  0  0  0  0  0  0  0  0  0  0
   -0.0685   -3.0599    0.8358 C   0  0  0  0  0  0  0  0  0  0  0  0
   -0.5984   -3.1875   -0.1292 H   0  0  0  0  0  0  0  0  0  0  0  0
   -0.6301   -2.2967    1.4114 H   0  0  0  0  0  0  0  0  0  0  0  0
   -0.1345   -4.0226    1.3804 H   0  0  0  0  0  0  0  0  0  0  0  0
    4.7758   -4.4527    0.7823 C   0  0  0  0  0  0  0  0  0  0  0  0
    5.6381   -4.1241    1.3995 H   0  0  0  0  0  0  0  0  0  0  0  0
    5.1872   -4.7579   -0.2048 H   0  0  0  0  0  0  0  0  0  0  0  0
    4.3477   -5.3592    1.2539 H   0  0  0  0  0  0  0  0  0  0  0  0
    1.8700    3.4117    0.3257 C   0  0  0  0  0  0  0  0  0  0  0  0
    2.3504    4.4067    0.2628 H   0  0  0  0  0  0  0  0  0  0  0  0
    1.6578    3.1975    1.4066 H   0  0  0  0  0  0  0  0  0  0  0  0
    0.5309    3.4893   -0.3802 C   0  0  2  0  0  3  0  0  0  0  0  0
    0.0356    4.7514   -0.7413 C   0  0  0  0  0  0  0  0  0  0  0  0
    0.6704    5.6368   -0.5923 H   0  0  0  0  0  0  0  0  0  0  0  0
   -1.2589    4.8773   -1.2585 C   0  0  0  0  0  0  0  0  0  0  0  0
   -1.6666    5.8625   -1.5277 H   0  0  0  0  0  0  0  0  0  0  0  0
   -2.0160    3.7138   -1.4276 C   0  0  0  0  0  0  0  0  0  0  0  0
   -3.0348    3.7543   -1.8386 H   0  0  0  0  0  0  0  0  0  0  0  0
   -1.4645    2.4670   -1.0949 C   0  0  0  0  0  0  0  0  0  0  0  0
   -2.2110    1.1962   -1.3730 C   0  0  0  0  0  0  0  0  0  0  0  0
   -1.8965    0.8180   -2.3708 H   0  0  0  0  0  0  0  0  0  0  0  0
   -3.3051    1.3629   -1.4067 H   0  0  0  0  0  0  0  0  0  0  0  0
   -2.3667   -1.6418   -1.1242 C   0  0  0  0  0  0  0  0  0  0  0  0
   -1.7382   -1.9908   -2.3394 C   0  0  0  0  0  0  0  0  0  0  0  0
   -0.8751   -1.3983   -2.6850 H   0  0  0  0  0  0  0  0  0  0  0  0
   -2.1709   -3.1086   -3.0649 C   0  0  0  0  0  0  0  0  0  0  0  0
   -1.6712   -3.3707   -4.0100 H   0  0  0  0  0  0  0  0  0  0  0  0
   -3.2200   -3.9057   -2.5763 C   0  0  0  0  0  0  0  0  0  0  0  0
   -3.5513   -4.7909   -3.1405 H   0  0  0  0  0  0  0  0  0  0  0  0
   -3.8315   -3.5774   -1.3574 C   0  0  0  0  0  0  0  0  0  0  0  0
   -4.6430   -4.2058   -0.9595 H   0  0  0  0  0  0  0  0  0  0  0  0
   -3.4101   -2.4501   -0.6332 C   0  0  0  0  0  0  0  0  0  0  0  0
   -3.8882   -2.2118    0.3277 H   0  0  0  0  0  0  0  0  0  0  0  0
   -2.8217    0.0248    1.2295 C   0  0  0  0  0  0  0  0  0  0  0  0
   -2.2672    0.0002    2.5233 C   0  0  0  0  0  0  0  0  0  0  0  0
   -1.1756   -0.1206    2.6235 H   0  0  0  0  0  0  0  0  0  0  0  0
   -3.0893    0.1648    3.6492 C   0  0  0  0  0  0  0  0  0  0  0  0
   -2.6455    0.1421    4.6562 H   0  0  0  0  0  0  0  0  0  0  0  0
   -4.4690    0.3669    3.4917 C   0  0  0  0  0  0  0  0  0  0  0  0
   -5.1126    0.5011    4.3747 H   0  0  0  0  0  0  0  0  0  0  0  0
   -5.0285    0.4038    2.2032 C   0  0  0  0  0  0  0  0  0  0  0  0
   -6.1095    0.5677    2.0747 H   0  0  0  0  0  0  0  0  0  0  0  0
   -4.2100    0.2315    1.0774 C   0  0  0  0  0  0  0  0  0  0  0  0
   -4.6615    0.2508    0.0730 H   0  0  0  0  0  0  0  0  0  0  0  0
  1 53  1  0  0  0  0
  2  9  1  0  0  0  0
  2 12  1  0  0  0  0
  3  5  1  0  0  0  0
  3  6  1  0  0  0  0
  3 28  1  0  0  0  0
  4 31  1  0  0  0  0
  5  2  1  0  0  0  0
  6  7  1  0  0  0  0
  8  6  1  0  0  0  0
  9  6  1  0  0  0  0
  9 11  1  0  0  0  0
 10  9  1  0  0  0  0
 12 13  2  0  0  0  0
 12 18  1  0  0  0  0
 13 14  1  0  0  0  0
 14 15  2  0  0  0  0
 14 20  1  0  0  0  0
 15 16  1  0  0  0  0
 17 24  1  0  0  0  0
 17 15  1  0  0  0  0
 18 17  2  0  0  0  0
 19 18  1  0  0  0  0
 20 23  1  0  0  0  0
 20 22  1  0  0  0  0
 21 20  1  0  0  0  0
 24 27  1  0  0  0  0
 24 25  1  0  0  0  0
 26 24  1  0  0  0  0
 28 30  1  0  0  0  0
 29 28  1  0  0  0  0
 31 28  1  1  0  0  0
 32 33  1  0  0  0  0
 32 31  1  0  0  0  0
 34 32  2  0  0  0  0
 35 34  1  0  0  0  0
 36 34  1  0  0  0  0
 36 38  2  0  0  0  0
 37 36  1  0  0  0  0
 38  4  1  0  0  0  0
 39 38  1  0  0  0  0
 39  1  1  0  0  0  0
 40 39  1  0  0  0  0
 41 39  1  0  0  0  0
 42 51  1  0  0  0  0
 42  1  1  0  0  0  0
 43 42  2  0  0  0  0
 44 43  1  0  0  0  0
 45 47  2  0  0  0  0
 45 43  1  0  0  0  0
 46 45  1  0  0  0  0
 47 49  1  0  0  0  0
 48 47  1  0  0  0  0
 49 50  1  0  0  0  0
 49 51  2  0  0  0  0
 51 52  1  0  0  0  0
 53 54  1  0  0  0  0
 54 55  1  0  0  0  0
 54 56  2  0  0  0  0
 56 57  1  0  0  0  0
 58 56  1  0  0  0  0
 58 59  1  0  0  0  0
 60 58  2  0  0  0  0
 61 60  1  0  0  0  0
 62 53  2  0  0  0  0
 62 60  1  0  0  0  0
 63 62  1  0  0  0  0
M  END
