1,2
q = 0.0, confidence = 0.984

 52 55  0  0  0  0  0  0  0  0999 V2000
   -1.4513   -0.2052   -0.8590 P   0  0  0  0  0  0  0  0  0  0  0  0
    1.5708    0.2898   -0.7230 P   0  0  0  0  0  0  0  0  0  0  0  0
   -1.9783   -1.9209   -1.2052 C   0  0  0  0  0  0  0  0  0  0  0  0
   -2.9750   -2.1869   -2.1685 C   0  0  0  0  0  0  0  0  0  0  0  0
   -3.4749   -1.3571   -2.6929 H   0  0  0  0  0  0  0  0  0  0  0  0
   -3.3414   -3.5113   -2.4422 C   0  0  0  0  0  0  0  0  0  0  0  0
   -4.1209   -3.7200   -3.1906 H   0  0  0  0  0  0  0  0  0  0  0  0
   -2.7198   -4.5696   -1.7560 C   0  0  0  0  0  0  0  0  0  0  0  0
   -3.0138   -5.6084   -1.9704 H   0  0  0  0  0  0  0  0  0  0  0  0
   -1.7337   -4.3043   -0.7939 C   0  0  0  0  0  0  0  0  0  0  0  0
   -1.2524   -5.1297   -0.2486 H   0  0  0  0  0  0  0  0  0  0  0  0
   -1.3585   -2.9809   -0.5120 C   0  0  0  0  0  0  0  0  0  0  0  0
   -0.5909   -2.7656    0.2512 H   0  0  0  0  0  0  0  0  0  0  0  0
   -2.9618    0.7803   -0.6332 C   0  0  0  0  0  0  0  0  0  0  0  0
   -4.0217    0.2129    0.1071 C   0  0  0  0  0  0  0  0  0  0  0  0
   -3.9554   -0.8287    0.4535 H   0  0  0  0  0  0  0  0  0  0  0  0
   -5.1354    0.9950    0.4394 C   0  0  0  0  0  0  0  0  0  0  0  0
   -5.9460    0.5548    1.0381 H   0  0  0  0  0  0  0  0  0  0  0  0
   -5.2068    2.3343    0.0268 C   0  0  0  0  0  0  0  0  0  0  0  0
   -6.0818    2.9460    0.2929 H   0  0  0  0  0  0  0  0  0  0  0  0
   -4.1536    2.9000   -0.7096 C   0  0  0  0  0  0  0  0  0  0  0  0
   -4.2019    3.9534   -1.0239 H   0  0  0  0  0  0  0  0  0  0  0  0
   -3.0265    2.1322   -1.0298 C   0  0  0  0  0  0  0  0  0  0  0  0
   -2.1921    2.6002   -1.5731 H   0  0  0  0  0  0  0  0  0  0  0  0
   -0.5971    0.3697   -2.4143 C   0  0  0  0  0  0  0  0  0  0  0  0
   -1.1540    0.0172   -3.3055 H   0  0  0  0  0  0  0  0  0  0  0  0
   -0.6097    1.4790   -2.4145 H   0  0  0  0  0  0  0  0  0  0  0  0
    0.8448   -0.1452   -2.3846 C   0  0  0  0  0  0  0  0  0  0  0  0
    1.4569    0.2857   -3.2029 H   0  0  0  0  0  0  0  0  0  0  0  0
    0.8691   -1.2521   -2.4698 H   0  0  0  0  0  0  0  0  0  0  0  0
    3.2298   -0.4506   -0.6315 C   0  0  0  0  0  0  0  0  0  0  0  0
    3.9790   -0.2198    0.5439 C   0  0  0  0  0  0  0  0  0  0  0  0
    3.5494    0.3793    1.3610 H   0  0  0  0  0  0  0  0  0  0  0  0
    5.2419   -0.8066    0.6894 C   0  0  0  0  0  0  0  0  0  0  0  0
    5.8069   -0.6457    1.6191 H   0  0  0  0  0  0  0  0  0  0  0  0
    5.7708   -1.6103   -0.3337 C   0  0  0  0  0  0  0  0  0  0  0  0
    6.7621   -2.0727   -0.2136 H   0  0  0  0  0  0  0  0  0  0  0  0
    5.0308   -1.8346   -1.5050 C   0  0  0  0  0  0  0  0  0  0  0  0
    5.4414   -2.4670   -2.3064 H   0  0  0  0  0  0  0  0  0  0  0  0
    3.7588   -1.2623   -1.6559 C   0  0  0  0  0  0  0  0  0  0  0  0
    3.1852   -1.4582   -2.5735 H   0  0  0  0  0  0  0  0  0  0  0  0
    1.8204    2.1042   -0.8073 C   0  0  0  0  0  0  0  0  0  0  0  0
    0.9429    2.9502   -0.0973 C   0  0  0  0  0  0  0  0  0  0  0  0
    0.1601    2.5128    0.5472 H   0  0  0  0  0  0  0  0  0  0  0  0
    1.0896    4.3429   -0.1993 C   0  0  0  0  0  0  0  0  0  0  0  0
    0.4085    5.0005    0.3614 H   0  0  0  0  0  0  0  0  0  0  0  0
    2.1067    4.8893   -0.9972 C   0  0  0  0  0  0  0  0  0  0  0  0
    2.2227    5.9814   -1.0695 H   0  0  0  0  0  0  0  0  0  0  0  0
    2.9883    4.0447   -1.6945 C   0  0  0  0  0  0  0  0  0  0  0  0
    3.7937    4.4738   -2.3096 H   0  0  0  0  0  0  0  0  0  0  0  0
    2.8501    2.6531   -1.5999 C   0  0  0  0  0  0  0  0  0  0  0  0
    3.5513    1.9901   -2.1314 H   0  0  0  0  0  0  0  0  0  0  0  0
  1 14  1  0  0  0  0
  2 31  1  0  0  0  0
  3  1  1  0  0  0  0
  3 12  1  0  0  0  0
  4  3  2  0  0  0  0
  5  4  1  0  0  0  0
  6  4  1  0  0  0  0
  6  8  2  0  0  0  0
  7  6  1  0  0  0  0
  8 10  1  0  0  0  0
  9  8  1  0  0  0  0
 10 12  2  0  0  0  0
 10 11  1  0  0  0  0
 12 13  1  0  0  0  0
 14 15  1  0  0  0  0
 15 17  2  0  0  0  0
 15 16  1  0  0  0  0
 17 18  1  0  0  0  0
 19 20  1  0  0  0  0
 19 17  1  0  0  0  0
 21 19  2  0  0  0  0
 22 21  1  0  0  0  0
 23 21  1  0  0  0  0
 23 14  2  0  0  0  0
 24 23  1  0  0  0  0
 25 28  1  0  0  0  0
 25  1  1  0  0  0  0
 26 25  1  0  0  0  0
 27 25  1  0  0  0  0
 28  2  1  0  0  0  0
 29 28  1  0  0  0  0
 30 28  1  0  0  0  0
 31 32  1  0  0  0  0
 32 34  2  0  0  0  0
 32 33  1  0  0  0  0
 34 35  1  0  0  0  0
 36 37  1  0  0  0  0
 36 34  1  0  0  0  0
 38 36  2  0  0  0  0
 39 38  1  0  0  0  0
 40 38  1  0  0  0  0
 40 31  2  0  0  0  0
 41 40  1  0  0  0  0
 42  2  1  0  0  0  0
 42 43  1  0  0  0  0
 43 44  1  0  0  0  0
 45 43  2  0  0  0  0
 45 46  1  0  0  0  0
 47 45  1  0  0  0  0
 48 47  1  0  0  0  0
 49 51  1  0  0  0  0
 49 47  2  0  0  0  0
 50 49  1  0  0  0  0
 51 42  2  0  0  0  0
 52 51  1  0  0  0  0
M  END
