1,2
q = 0.0, confidence = 0.978

 62 67  0  0  0  0  0  0  0  0999 V2000
    1.5369   -0.0870   -0.0228 P   0  0  0  0  0  0  0  0  0  0  0  0
   -1.5325   -0.0471   -0.0489 P   0  0  0  0  0  0  0  0  0  0  0  0
    3.2715   -0.6713   -0.2591 C   0  0  0  0  0  0  0  0  0  0  0  0
    3.5487   -2.0347   -0.0114 C   0  0  0  0  0  0  0  0  0  0  0  0
    2.7402   -2.6965    0.3412 H   0  0  0  0  0  0  0  0  0  0  0  0
    4.8424   -2.5317   -0.2117 C   0  0  0  0  0  0  0  0  0  0  0  0
    5.0509   -3.5944   -0.0161 H   0  0  0  0  0  0  0  0  0  0  0  0
    5.8652   -1.6834   -0.6696 C   0  0  0  0  0  0  0  0  0  0  0  0
    6.8790   -2.0797   -0.8331 H   0  0  0  0  0  0  0  0  0  0  0  0
    5.5901   -0.3313   -0.9204 C   0  0  0  0  0  0  0  0  0  0  0  0
    6.3865    0.3383   -1.2797 H   0  0  0  0  0  0  0  0  0  0  0  0
    4.2979    0.1788   -0.7117 C   0  0  0  0  0  0  0  0  0  0  0  0
    4.0907    1.2419   -0.9013 H   0  0  0  0  0  0  0  0  0  0  0  0
    1.6858    1.7484   -0.2400 C   0  0  0  0  0  0  0  0  0  0  0  0
    1.9018    2.6046    0.8609 C   0  0  0  0  0  0  0  0  0  0  0  0
    1.9734    2.1887    1.8755 H   0  0  0  0  0  0  0  0  0  0  0  0
    2.0230    3.9893    0.6720 C   0  0  0  0  0  0  0  0  0  0  0  0
    2.1878    4.6427    1.5424 H   0  0  0  0  0  0  0  0  0  0  0  0
    1.9305    4.5385   -0.6155 C   0  0  0  0  0  0  0  0  0  0  0  0
    2.0174    5.6260   -0.7616 H   0  0  0  0  0  0  0  0  0  0  0  0
    1.7234    3.6929   -1.7160 C   0  0  0  0  0  0  0  0  0  0  0  0
    1.6444    4.1113   -2.7305 H   0  0  0  0  0  0  0  0  0  0  0  0
    1.6033    2.3081   -1.5319 C   0  0  0  0  0  0  0  0  0  0  0  0
    1.4363    1.6679   -2.4063 H   0  0  0  0  0  0  0  0  0  0  0  0
    1.3051   -0.1990    1.8123 C   0  0  0  0  0  0  0  0  0  0  0  0
    2.4525   -0.3569    2.5890 C   0  0  0  0  0  0  0  0  0  0  0  0
    3.4210   -0.5018    2.0921 H   0  0  0  0  0  0  0  0  0  0  0  0
    2.4194   -0.3204    4.0034 C   0  0  0  0  0  0  0  0  0  0  0  0
    3.3496   -0.4593    4.5738 H   0  0  0  0  0  0  0  0  0  0  0  0
    1.2200   -0.0884    4.6449 C   0  0  0  0  0  0  0  0  0  0  0  0
    1.1668   -0.0307    5.7430 H   0  0  0  0  0  0  0  0  0  0  0  0
    0.0174    0.0879    3.9001 C   0  0  0  0  0  0  0  0  0  0  0  0
    0.0248    0.0041    2.4489 C   0  0  0  0  0  0  0  0  0  0  0  0
   -1.2455    0.1409    1.7797 C   0  0  0  0  0  0  0  0  0  0  0  0
   -2.3982    0.4089    2.5239 C   0  0  0  0  0  0  0  0  0  0  0  0
   -3.3606    0.5091    2.0023 H   0  0  0  0  0  0  0  0  0  0  0  0
   -2.3806    0.5342    3.9306 C   0  0  0  0  0  0  0  0  0  0  0  0
   -3.3137    0.7489    4.4720 H   0  0  0  0  0  0  0  0  0  0  0  0
   -1.1895    0.3534    4.6067 C   0  0  0  0  0  0  0  0  0  0  0  0
   -1.1487    0.4116    5.7054 H   0  0  0  0  0  0  0  0  0  0  0  0
   -3.2499   -0.7365   -0.0639 C   0  0  0  0  0  0  0  0  0  0  0  0
   -4.3757    0.0042   -0.4726 C   0  0  0  0  0  0  0  0  0  0  0  0
   -4.2645    1.0487   -0.7969 H   0  0  0  0  0  0  0  0  0  0  0  0
   -5.6496   -0.5882   -0.4581 C   0  0  0  0  0  0  0  0  0  0  0  0
   -6.5236   -0.0026   -0.7820 H   0  0  0  0  0  0  0  0  0  0  0  0
   -5.8076   -1.9143   -0.0305 C   0  0  0  0  0  0  0  0  0  0  0  0
   -6.8069   -2.3758   -0.0206 H   0  0  0  0  0  0  0  0  0  0  0  0
   -4.6855   -2.6518    0.3834 C   0  0  0  0  0  0  0  0  0  0  0  0
   -4.8012   -3.6940    0.7177 H   0  0  0  0  0  0  0  0  0  0  0  0
   -3.4109   -2.0720    0.3667 C   0  0  0  0  0  0  0  0  0  0  0  0
   -2.5262   -2.6504    0.6816 H   0  0  0  0  0  0  0  0  0  0  0  0
   -1.7478    1.6947   -0.6152 C   0  0  0  0  0  0  0  0  0  0  0  0
   -1.4602    2.7942    0.2170 C   0  0  0  0  0  0  0  0  0  0  0  0
   -1.1409    2.6277    1.2551 H   0  0  0  0  0  0  0  0  0  0  0  0
   -1.5638    4.1027   -0.2779 C   0  0  0  0  0  0  0  0  0  0  0  0
   -1.3179    4.9505    0.3789 H   0  0  0  0  0  0  0  0  0  0  0  0
   -1.9707    4.3290   -1.6010 C   0  0  0  0  0  0  0  0  0  0  0  0
   -2.0510    5.3565   -1.9870 H   0  0  0  0  0  0  0  0  0  0  0  0
   -2.2712    3.2384   -2.4327 C   0  0  0  0  0  0  0  0  0  0  0  0
   -2.5903    3.4046   -3.4726 H   0  0  0  0  0  0  0  0  0  0  0  0
   -2.1534    1.9290   -1.9471 C   0  0  0  0  0  0  0  0  0  0  0  0
   -2.3781    1.0840   -2.6135 H   0  0  0  0  0  0  0  0  0  0  0  0
  1 25  1  0  0  0  0
  2 34  1  0  0  0  0
  3  1  1  0  0  0  0
  3  4  1  0  0  0  0
  4  5  1  0  0  0  0
  6  7  1  0  0  0  0
  6  4  2  0  0  0  0
  8  6  1  0  0  0  0
  9  8  1  0  0  0  0
 10 12  1  0  0  0  0
 10  8  2  0  0  0  0
 11 10  1  0  0  0  0
 12  3  2  0  0  0  0
 13 12  1  0  0  0  0
 14  1  1  0  0  0  0
 14 15  1  0  0  0  0
 15 16  1  0  0  0  0
 17 15  2  0  0  0  0
 17 18  1  0  0  0  0
 19 17  1  0  0  0  0
 20 19  1  0  0  0  0
 21 23  1  0  0  0  0
 21 19  2  0  0  0  0
 22 21  1  0  0  0  0
 23 14  2  0  0  0  0
 24 23  1  0  0  0  0
 25 33  2  0  0  0  0
 25 26  1  0  0  0  0
 26 28  2  0  0  0  0
 27 26  1  0  0  0  0
 28 29  1  0  0  0  0
 28 30  1  0  0  0  0
 30 31  1  0  0  0  0
 32 39  1  0  0  0  0
 32 30  2  0  0  0  0
 33 32  1  0  0  0  0
 34 33  1  0  0  0  0
 34 35  2  0  0  0  0
 35 37  1  0  0  0  0
 36 35  1  0  0  0  0
 37 38  1  0  0  0  0
 37 39  2  0  0  0  0
 39 40  1  0  0  0  0
 41  2  1  0  0  0  0
 41 50  1  0  0  0  0
 42 44  1  0  0  0  0
 42 41  2  0  0  0  0
 43 42  1  0  0  0  0
 44 46  2  0  0  0  0
 45 44  1  0  0  0  0
 46 47  1  0  0  0  0
 46 48  1  0  0  0  0
 48 49  1  0  0  0  0
 50 48  2  0  0  0  0
 50 51  1  0  0  0  0
 52  2  1  0  0  0  0
 52 53  1  0  0  0  0
 53 54  1  0  0  0  0
 55 53  2  0  0  0  0
 55 56  1  0  0  0  0
 57 55  1  0  0  0  0
 58 57  1  0  0  0  0
 59 61  1  0  0  0  0
 59 57  2  0  0  0  0
 60 59  1  0  0  0  0
 61 52  2  0  0  0  0
 62 61  1  0  0  0  0
M  END
