1,25
q = 0.0, confidence = 0.996

 48 47  0  0  0  0  0  0  0  0999 V2000
   -1.5271   -0.8341    0.0456 P   0  0  0  0  0  0  0  0  0  0  0  0
   -0.6938   -2.4659   -0.3224 C   0  0  0  0  0  0  0  0  0  0  0  0
   -1.3063   -3.3303    0.0018 H   0  0  0  0  0  0  0  0  0  0  0  0
   -0.6080   -2.5269   -1.4281 H   0  0  0  0  0  0  0  0  0  0  0  0
   -2.9202   -0.7307   -1.2014 C   0  0  0  0  0  0  0  0  0  0  0  0
   -3.4720    0.1665   -0.8524 H   0  0  0  0  0  0  0  0  0  0  0  0
   -2.3483   -0.4197   -2.5897 C   0  0  0  0  0  0  0  0  0  0  0  0
   -3.1743   -0.2392   -3.3082 H   0  0  0  0  0  0  0  0  0  0  0  0
   -1.7484   -1.2643   -2.9901 H   0  0  0  0  0  0  0  0  0  0  0  0
   -1.7131    0.4865   -2.5653 H   0  0  0  0  0  0  0  0  0  0  0  0
   -3.8599   -1.9394   -1.2101 C   0  0  0  0  0  0  0  0  0  0  0  0
   -4.6678   -1.7822   -1.9552 H   0  0  0  0  0  0  0  0  0  0  0  0
   -4.3480   -2.1034   -0.2295 H   0  0  0  0  0  0  0  0  0  0  0  0
   -3.3325   -2.8735   -1.4949 H   0  0  0  0  0  0  0  0  0  0  0  0
   -2.3670   -1.0427    1.7261 C   0  0  0  0  0  0  0  0  0  0  0  0
   -3.3364   -0.5213    1.5758 H   0  0  0  0  0  0  0  0  0  0  0  0
   -2.6286   -2.4932    2.1412 C   0  0  0  0  0  0  0  0  0  0  0  0
   -3.2065   -2.5117    3.0887 H   0  0  0  0  0  0  0  0  0  0  0  0
   -1.6819   -3.0398    2.3326 H   0  0  0  0  0  0  0  0  0  0  0  0
   -3.2061   -3.0645    1.3888 H   0  0  0  0  0  0  0  0  0  0  0  0
   -1.5843   -0.2820    2.8050 C   0  0  0  0  0  0  0  0  0  0  0  0
   -2.1215   -0.3379    3.7751 H   0  0  0  0  0  0  0  0  0  0  0  0
   -1.4621    0.7853    2.5425 H   0  0  0  0  0  0  0  0  0  0  0  0
   -0.5759   -0.7156    2.9589 H   0  0  0  0  0  0  0  0  0  0  0  0
    1.5272   -0.8340   -0.0456 P   0  0  0  0  0  0  0  0  0  0  0  0
    0.6940   -2.4658    0.3227 C   0  0  0  0  0  0  0  0  0  0  0  0
    1.3065   -3.3302   -0.0013 H   0  0  0  0  0  0  0  0  0  0  0  0
    0.6081   -2.5266    1.4285 H   0  0  0  0  0  0  0  0  0  0  0  0
    2.9202   -0.7303    1.2014 C   0  0  0  0  0  0  0  0  0  0  0  0
    3.4719    0.1670    0.8523 H   0  0  0  0  0  0  0  0  0  0  0  0
    2.3484   -0.4193    2.5897 C   0  0  0  0  0  0  0  0  0  0  0  0
    3.1744   -0.2387    3.3082 H   0  0  0  0  0  0  0  0  0  0  0  0
    1.7487   -1.2640    2.9902 H   0  0  0  0  0  0  0  0  0  0  0  0
    1.7129    0.4867    2.5652 H   0  0  0  0  0  0  0  0  0  0  0  0
    3.8601   -1.9389    1.2101 C   0  0  0  0  0  0  0  0  0  0  0  0
    4.6680   -1.7815    1.9552 H   0  0  0  0  0  0  0  0  0  0  0  0
    4.3483   -2.1028    0.2296 H   0  0  0  0  0  0  0  0  0  0  0  0
    3.3329   -2.8731    1.4950 H   0  0  0  0  0  0  0  0  0  0  0  0
    2.3670   -1.0429   -1.7260 C   0  0  0  0  0  0  0  0  0  0  0  0
    3.3364   -0.5213   -1.5759 H   0  0  0  0  0  0  0  0  0  0  0  0
    2.6288   -2.4935   -2.1408 C   0  0  0  0  0  0  0  0  0  0  0  0
    3.2067   -2.5121   -3.0883 H   0  0  0  0  0  0  0  0  0  0  0  0
    1.6822   -3.0402   -2.3320 H   0  0  0  0  0  0  0  0  0  0  0  0
    3.2065   -3.0644   -1.3882 H   0  0  0  0  0  0  0  0  0  0  0  0
    1.5841   -0.2825   -2.8051 C   0  0  0  0  0  0  0  0  0  0  0  0
    2.1213   -0.3386   -3.7752 H   0  0  0  0  0  0  0  0  0  0  0  0
    1.4618    0.7847   -2.5429 H   0  0  0  0  0  0  0  0  0  0  0  0
    0.5758   -0.7164   -2.9589 H   0  0  0  0  0  0  0  0  0  0  0  0
  1 15  1  0  0  0  0
  2  3  1  0  0  0  0
  2  1  1  0  0  0  0
  2 26  1  0  0  0  0
  4  2  1  0  0  0  0
  5  6  1  0  0  0  0
  5  1  1  0  0  0  0
  7 10  1  0  0  0  0
  7  5  1  0  0  0  0
  8  7  1  0  0  0  0
  9  7  1  0  0  0  0
 11  5  1  0  0  0  0
 11 13  1  0  0  0  0
 12 11  1  0  0  0  0
 14 11  1  0  0  0  0
 15 17  1  0  0  0  0
 15 21  1  0  0  0  0
 16 15  1  0  0  0  0
 17 19  1  0  0  0  0
 17 18  1  0  0  0  0
 20 17  1  0  0  0  0
 21 24  1  0  0  0  0
 21 22  1  0  0  0  0
 23 21  1  0  0  0  0
 25 26  1  0  0  0  0
 25 29  1  0  0  0  0
 26 28  1  0  0  0  0
 27 26  1  0  0  0  0
 29 35  1  0  0  0  0
 29 31  1  0  0  0  0
 30 29  1  0  0  0  0
 31 33  1  0  0  0  0
 31 32  1  0  0  0  0
 34 31  1  0  0  0  0
 35 38  1  0  0  0  0
 35 36  1  0  0  0  0
 37 35  1  0  0  0  0
 39 40  1  0  0  0  0
 39 25  1  0  0  0  0
 41 39  1  0  0  0  0
 41 44  1  0  0  0  0
 42 41  1  0  0  0  0
 43 41  1  0  0  0  0
 45 47  1  0  0  0  0
 45 39  1  0  0  0  0
 46 45  1  0  0  0  0
 48 45  1  0  0  0  0
M  END
