1,2
q = 0.0, confidence = 1.0

 49 48  0  0  0  0  0  0  0  0999 V2000
    1.4057   -0.0361   -0.1918 P   0  0  0  0  0  0  0  0  0  0  0  0
   -1.4852    0.0884   -0.3310 P   0  0  0  0  0  0  0  0  0  0  0  0
    0.6796    0.4412   -1.7053 N   0  0  0  0  0  0  0  0  0  0  0  0
   -0.6620    0.0090   -1.8951 N   0  0  0  0  0  0  0  0  0  0  0  0
    2.3868   -1.6258   -0.5185 C   0  0  0  0  0  0  0  0  0  0  0  0
    1.5003   -2.5909   -1.3133 C   0  0  0  0  0  0  0  0  0  0  0  0
    3.7516   -1.4402   -1.1894 C   0  0  0  0  0  0  0  0  0  0  0  0
    2.7330    1.2479    0.1115 C   0  0  0  0  0  0  0  0  0  0  0  0
    3.3655    0.9533    1.4806 C   0  0  0  0  0  0  0  0  0  0  0  0
    2.2203    2.6859    0.0233 C   0  0  0  0  0  0  0  0  0  0  0  0
    1.3541    0.8273   -2.9206 C   0  0  0  0  0  0  0  0  0  0  0  0
   -2.8413   -1.1887   -0.5399 C   0  0  0  0  0  0  0  0  0  0  0  0
   -2.3306   -2.5906   -0.8835 C   0  0  0  0  0  0  0  0  0  0  0  0
   -3.6746   -1.1974    0.7500 C   0  0  0  0  0  0  0  0  0  0  0  0
   -2.3851    1.7366   -0.4554 C   0  0  0  0  0  0  0  0  0  0  0  0
   -1.3874    2.8587   -0.7582 C   0  0  0  0  0  0  0  0  0  0  0  0
   -3.5324    1.7305   -1.4706 C   0  0  0  0  0  0  0  0  0  0  0  0
   -0.6765   -0.9722   -2.2300 H   0  0  0  0  0  0  0  0  0  0  0  0
    2.5211   -2.0487    0.5011 H   0  0  0  0  0  0  0  0  0  0  0  0
    1.3230   -2.2184   -2.3448 H   0  0  0  0  0  0  0  0  0  0  0  0
    0.5305   -2.7482   -0.8069 H   0  0  0  0  0  0  0  0  0  0  0  0
    1.9949   -3.5801   -1.4034 H   0  0  0  0  0  0  0  0  0  0  0  0
    3.6644   -0.9419   -2.1772 H   0  0  0  0  0  0  0  0  0  0  0  0
    4.2149   -2.4336   -1.3689 H   0  0  0  0  0  0  0  0  0  0  0  0
    4.4615   -0.8573   -0.5715 H   0  0  0  0  0  0  0  0  0  0  0  0
    3.4941    1.0846   -0.6826 H   0  0  0  0  0  0  0  0  0  0  0  0
    2.6125    1.0919    2.2828 H   0  0  0  0  0  0  0  0  0  0  0  0
    4.2045    1.6536    1.6715 H   0  0  0  0  0  0  0  0  0  0  0  0
    3.7645   -0.0784    1.5574 H   0  0  0  0  0  0  0  0  0  0  0  0
    1.7293    2.8994   -0.9450 H   0  0  0  0  0  0  0  0  0  0  0  0
    1.4918    2.8862    0.8334 H   0  0  0  0  0  0  0  0  0  0  0  0
    3.0700    3.3900    0.1428 H   0  0  0  0  0  0  0  0  0  0  0  0
    0.7608    1.6020   -3.4528 H   0  0  0  0  0  0  0  0  0  0  0  0
    1.5183   -0.0232   -3.6277 H   0  0  0  0  0  0  0  0  0  0  0  0
    2.3447    1.2570   -2.6742 H   0  0  0  0  0  0  0  0  0  0  0  0
   -3.4615   -0.8173   -1.3832 H   0  0  0  0  0  0  0  0  0  0  0  0
   -3.1937   -3.2808   -0.9863 H   0  0  0  0  0  0  0  0  0  0  0  0
   -1.6718   -2.9793   -0.0816 H   0  0  0  0  0  0  0  0  0  0  0  0
   -1.7775   -2.6265   -1.8443 H   0  0  0  0  0  0  0  0  0  0  0  0
   -4.0839   -0.1977    0.9997 H   0  0  0  0  0  0  0  0  0  0  0  0
   -4.5304   -1.8960    0.6491 H   0  0  0  0  0  0  0  0  0  0  0  0
   -3.0524   -1.5381    1.6025 H   0  0  0  0  0  0  0  0  0  0  0  0
   -2.7739    1.8869    0.5758 H   0  0  0  0  0  0  0  0  0  0  0  0
   -0.9342    2.7243   -1.7610 H   0  0  0  0  0  0  0  0  0  0  0  0
   -0.5845    2.8947   -0.0021 H   0  0  0  0  0  0  0  0  0  0  0  0
   -1.9143    3.8353   -0.7488 H   0  0  0  0  0  0  0  0  0  0  0  0
   -3.1661    1.4188   -2.4708 H   0  0  0  0  0  0  0  0  0  0  0  0
   -4.3710    1.0690   -1.1784 H   0  0  0  0  0  0  0  0  0  0  0  0
   -3.9441    2.7564   -1.5715 H   0  0  0  0  0  0  0  0  0  0  0  0
  1  8  1  0  0  0  0
  3  1  1  0  0  0  0
  4  3  1  0  0  0  0
  4  2  1  0  0  0  0
  5  1  1  0  0  0  0
  5 19  1  0  0  0  0
  6 21  1  0  0  0  0
  6  5  1  0  0  0  0
  7 25  1  0  0  0  0
  7  5  1  0  0  0  0
  8  9  1  0  0  0  0
  9 29  1  0  0  0  0
  9 28  1  0  0  0  0
  9 27  1  0  0  0  0
 10  8  1  0  0  0  0
 10 32  1  0  0  0  0
 10 31  1  0  0  0  0
 11 35  1  0  0  0  0
 11  3  1  0  0  0  0
 12  2  1  0  0  0  0
 12 14  1  0  0  0  0
 13 12  1  0  0  0  0
 13 38  1  0  0  0  0
 14 40  1  0  0  0  0
 14 42  1  0  0  0  0
 15  2  1  0  0  0  0
 15 43  1  0  0  0  0
 16 46  1  0  0  0  0
 16 15  1  0  0  0  0
 16 45  1  0  0  0  0
 17 48  1  0  0  0  0
 17 15  1  0  0  0  0
 18  4  1  0  0  0  0
 20  6  1  0  0  0  0
 22  6  1  0  0  0  0
 23  7  1  0  0  0  0
 24  7  1  0  0  0  0
 26  8  1  0  0  0  0
 30 10  1  0  0  0  0
 33 11  1  0  0  0  0
 34 11  1  0  0  0  0
 36 12  1  0  0  0  0
 37 13  1  0  0  0  0
 39 13  1  0  0  0  0
 41 14  1  0  0  0  0
 44 16  1  0  0  0  0
 47 17  1  0  0  0  0
 49 17  1  0  0  0  0
M  END
