1,2
q = 0.0, confidence = 0.982

 36 35  0  0  0  0  0  0  0  0999 V2000
    1.7002   -0.6917   -0.9456 P   0  0  0  0  0  0  0  0  0  0  0  0
   -1.3681   -0.4494   -1.2761 P   0  0  0  0  0  0  0  0  0  0  0  0
    0.9371   -1.2917   -2.5635 C   0  0  0  0  0  0  0  0  0  0  0  0
    0.7710   -2.3793   -2.4311 H   0  0  0  0  0  0  0  0  0  0  0  0
    1.6501   -1.1622   -3.3974 H   0  0  0  0  0  0  0  0  0  0  0  0
   -0.3876   -0.5826   -2.8554 C   0  0  0  0  0  0  0  0  0  0  0  0
   -0.9533   -1.0908   -3.6576 H   0  0  0  0  0  0  0  0  0  0  0  0
   -0.2186    0.4680   -3.1607 H   0  0  0  0  0  0  0  0  0  0  0  0
    2.6322   -2.3368   -0.5480 C   0  0  0  0  0  0  0  0  0  0  0  0
    3.4023   -2.7482   -1.5976 F   0  0  0  0  0  0  0  0  0  0  0  0
    1.6701   -3.2842   -0.3660 F   0  0  0  0  0  0  0  0  0  0  0  0
    3.5193   -2.3199    0.7291 C   0  0  0  0  0  0  0  0  0  0  0  0
    2.7412   -2.3034    1.8259 F   0  0  0  0  0  0  0  0  0  0  0  0
    4.2929   -3.4147    0.7703 F   0  0  0  0  0  0  0  0  0  0  0  0
    4.3052   -1.2312    0.7477 F   0  0  0  0  0  0  0  0  0  0  0  0
    3.1258    0.4507   -1.6005 C   0  0  0  0  0  0  0  0  0  0  0  0
    3.6984    1.0822   -0.5417 F   0  0  0  0  0  0  0  0  0  0  0  0
    2.4550    1.3925   -2.3458 F   0  0  0  0  0  0  0  0  0  0  0  0
    4.3049   -0.0277   -2.5034 C   0  0  0  0  0  0  0  0  0  0  0  0
    5.1672   -0.7838   -1.8131 F   0  0  0  0  0  0  0  0  0  0  0  0
    4.9644    1.0487   -2.9670 F   0  0  0  0  0  0  0  0  0  0  0  0
    3.8536   -0.7287   -3.5648 F   0  0  0  0  0  0  0  0  0  0  0  0
   -2.8598    0.6053   -1.9064 C   0  0  0  0  0  0  0  0  0  0  0  0
   -2.4010    1.8878   -1.9312 F   0  0  0  0  0  0  0  0  0  0  0  0
   -3.1865    0.2671   -3.1829 F   0  0  0  0  0  0  0  0  0  0  0  0
   -4.1676    0.6309   -1.0563 C   0  0  0  0  0  0  0  0  0  0  0  0
   -4.9128    1.6815   -1.4346 F   0  0  0  0  0  0  0  0  0  0  0  0
   -3.8706    0.7550    0.2454 F   0  0  0  0  0  0  0  0  0  0  0  0
   -4.8847   -0.4867   -1.2449 F   0  0  0  0  0  0  0  0  0  0  0  0
   -2.1351   -2.2067   -1.0799 C   0  0  0  0  0  0  0  0  0  0  0  0
   -3.1082   -2.1337   -0.1367 F   0  0  0  0  0  0  0  0  0  0  0  0
   -1.1202   -2.9910   -0.6102 F   0  0  0  0  0  0  0  0  0  0  0  0
   -2.7200   -2.9910   -2.2929 C   0  0  0  0  0  0  0  0  0  0  0  0
   -3.2030   -4.1662   -1.8670 F   0  0  0  0  0  0  0  0  0  0  0  0
   -1.7436   -3.2370   -3.1969 F   0  0  0  0  0  0  0  0  0  0  0  0
   -3.7035   -2.3152   -2.8997 F   0  0  0  0  0  0  0  0  0  0  0  0
  1  9  1  0  0  0  0
  2 30  1  0  0  0  0
  3  4  1  0  0  0  0
  3  1  1  0  0  0  0
  5  3  1  0  0  0  0
  6  3  1  0  0  0  0
  6  2  1  0  0  0  0
  7  6  1  0  0  0  0
  8  6  1  0  0  0  0
  9 11  1  0  0  0  0
  9 12  1  0  0  0  0
 10  9  1  0  0  0  0
 12 15  1  0  0  0  0
 12 14  1  0  0  0  0
 12 13  1  0  0  0  0
 16  1  1  0  0  0  0
 16 17  1  0  0  0  0
 18 16  1  0  0  0  0
 19 20  1  0  0  0  0
 19 16  1  0  0  0  0
 21 19  1  0  0  0  0
 22 19  1  0  0  0  0
 23  2  1  0  0  0  0
 23 26  1  0  0  0  0
 24 23  1  0  0  0  0
 25 23  1  0  0  0  0
 26 28  1  0  0  0  0
 27 26  1  0  0  0  0
 29 26  1  0  0  0  0
 30 32  1  0  0  0  0
 30 31  1  0  0  0  0
 33 34  1  0  0  0  0
 33 30  1  0  0  0  0
 35 33  1  0  0  0  0
 36 33  1  0  0  0  0
M  END
