1,2
q = 0.0, confidence = 0.984

 48 51  0  0  0  0  0  0  0  0999 V2000
   -1.3739    0.0795   -0.3310 P   0  0  0  0  0  0  0  0  0  0  0  0
    1.3739   -0.0808   -0.3308 P   0  0  0  0  0  0  0  0  0  0  0  0
    0.0000   -0.0014   -1.3824 N   0  0  0  0  0  0  0  0  0  0  0  0
   -2.5120   -1.2551   -0.8804 C   0  0  0  0  0  0  0  0  0  0  0  0
   -2.9819   -1.3113   -2.2104 C   0  0  0  0  0  0  0  0  0  0  0  0
   -3.8070   -2.3672   -2.6195 C   0  0  0  0  0  0  0  0  0  0  0  0
   -4.1804   -3.3647   -1.7012 C   0  0  0  0  0  0  0  0  0  0  0  0
   -3.7284   -3.3043   -0.3744 C   0  0  0  0  0  0  0  0  0  0  0  0
   -2.8925   -2.2533    0.0362 C   0  0  0  0  0  0  0  0  0  0  0  0
   -2.2528    1.6041   -0.8544 C   0  0  0  0  0  0  0  0  0  0  0  0
   -3.6506    1.7187   -0.7114 C   0  0  0  0  0  0  0  0  0  0  0  0
   -4.2899    2.9299   -1.0137 C   0  0  0  0  0  0  0  0  0  0  0  0
   -3.5413    4.0317   -1.4585 C   0  0  0  0  0  0  0  0  0  0  0  0
   -2.1483    3.9215   -1.5973 C   0  0  0  0  0  0  0  0  0  0  0  0
   -1.5029    2.7147   -1.2923 C   0  0  0  0  0  0  0  0  0  0  0  0
    2.5091    1.2574   -0.8774 C   0  0  0  0  0  0  0  0  0  0  0  0
    2.9760    1.3193   -2.2082 C   0  0  0  0  0  0  0  0  0  0  0  0
    3.7989    2.3779   -2.6151 C   0  0  0  0  0  0  0  0  0  0  0  0
    4.1730    3.3723   -1.6938 C   0  0  0  0  0  0  0  0  0  0  0  0
    3.7240    3.3062   -0.3662 C   0  0  0  0  0  0  0  0  0  0  0  0
    2.8903    2.2526    0.0421 C   0  0  0  0  0  0  0  0  0  0  0  0
    2.2564   -1.6023   -0.8569 C   0  0  0  0  0  0  0  0  0  0  0  0
    1.5090   -2.7144   -1.2952 C   0  0  0  0  0  0  0  0  0  0  0  0
    2.1573   -3.9190   -1.6027 C   0  0  0  0  0  0  0  0  0  0  0  0
    3.5508   -4.0255   -1.4660 C   0  0  0  0  0  0  0  0  0  0  0  0
    4.2970   -2.9223   -1.0207 C   0  0  0  0  0  0  0  0  0  0  0  0
    3.6547   -1.7132   -0.7160 C   0  0  0  0  0  0  0  0  0  0  0  0
    0.0002   -0.0007   -2.4105 H   0  0  0  0  0  0  0  0  0  0  0  0
   -2.7100   -0.5187   -2.9259 H   0  0  0  0  0  0  0  0  0  0  0  0
   -4.1675   -2.4110   -3.6586 H   0  0  0  0  0  0  0  0  0  0  0  0
   -4.8320   -4.1911   -2.0238 H   0  0  0  0  0  0  0  0  0  0  0  0
   -4.0247   -4.0799    0.3477 H   0  0  0  0  0  0  0  0  0  0  0  0
   -2.5296   -2.1983    1.0737 H   0  0  0  0  0  0  0  0  0  0  0  0
   -4.2413    0.8561   -0.3659 H   0  0  0  0  0  0  0  0  0  0  0  0
   -5.3817    3.0131   -0.9018 H   0  0  0  0  0  0  0  0  0  0  0  0
   -4.0456    4.9808   -1.6952 H   0  0  0  0  0  0  0  0  0  0  0  0
   -1.5570    4.7838   -1.9409 H   0  0  0  0  0  0  0  0  0  0  0  0
   -0.4097    2.6282   -1.3910 H   0  0  0  0  0  0  0  0  0  0  0  0
    2.7035    0.5292   -2.9262 H   0  0  0  0  0  0  0  0  0  0  0  0
    4.1570    2.4261   -3.6548 H   0  0  0  0  0  0  0  0  0  0  0  0
    4.8228    4.2008   -2.0146 H   0  0  0  0  0  0  0  0  0  0  0  0
    4.0208    4.0795    0.3582 H   0  0  0  0  0  0  0  0  0  0  0  0
    2.5296    2.1933    1.0802 H   0  0  0  0  0  0  0  0  0  0  0  0
    0.4154   -2.6307   -1.3924 H   0  0  0  0  0  0  0  0  0  0  0  0
    1.5679   -4.7824   -1.9467 H   0  0  0  0  0  0  0  0  0  0  0  0
    4.0573   -4.9729   -1.7047 H   0  0  0  0  0  0  0  0  0  0  0  0
    5.3891   -3.0025   -0.9106 H   0  0  0  0  0  0  0  0  0  0  0  0
    4.2435   -0.8495   -0.3702 H   0  0  0  0  0  0  0  0  0  0  0  0
  3  1  1  0  0  0  0
  3  2  1  0  0  0  0
  4  1  1  0  0  0  0
  4  9  1  0  0  0  0
  5  4  2  0  0  0  0
  6  5  1  0  0  0  0
  6  7  2  0  0  0  0
  7  8  1  0  0  0  0
  8  9  2  0  0  0  0
  8 32  1  0  0  0  0
  9 33  1  0  0  0  0
 10 11  1  0  0  0  0
 10  1  1  0  0  0  0
 11 34  1  0  0  0  0
 12 35  1  0  0  0  0
 12 11  2  0  0  0  0
 13 12  1  0  0  0  0
 14 13  2  0  0  0  0
 14 15  1  0  0  0  0
 15 10  2  0  0  0  0
 16  2  1  0  0  0  0
 16 21  1  0  0  0  0
 17 16  2  0  0  0  0
 18 17  1  0  0  0  0
 18 19  2  0  0  0  0
 19 20  1  0  0  0  0
 20 21  2  0  0  0  0
 20 42  1  0  0  0  0
 21 43  1  0  0  0  0
 22 27  1  0  0  0  0
 22  2  1  0  0  0  0
 23 22  2  0  0  0  0
 24 25  2  0  0  0  0
 24 23  1  0  0  0  0
 25 26  1  0  0  0  0
 26 47  1  0  0  0  0
 26 27  2  0  0  0  0
 27 48  1  0  0  0  0
 28  3  1  0  0  0  0
 29  5  1  0  0  0  0
 30  6  1  0  0  0  0
 31  7  1  0  0  0  0
 36 13  1  0  0  0  0
 37 14  1  0  0  0  0
 38 15  1  0  0  0  0
 39 17  1  0  0  0  0
 40 18  1  0  0  0  0
 41 19  1  0  0  0  0
 44 23  1  0  0  0  0
 45 24  1  0  0  0  0
 46 25  1  0  0  0  0
M  END
