1,10
q = 0.0, confidence = 0.982

 66 69  0  0  0  0  0  0  0  0999 V2000
   -1.6291    0.2027    0.5550 P   0  0  0  0  0  0  0  0  0  0  0  0
   -0.7859    0.9590    1.8326 N   0  0  0  0  0  0  0  0  0  0  0  0
   -1.1578    0.8710    3.2480 C   0  0  0  0  0  0  0  0  0  0  0  0
   -2.2053    0.5108    3.2789 H   0  0  0  0  0  0  0  0  0  0  0  0
   -1.1611    1.9020    3.6658 H   0  0  0  0  0  0  0  0  0  0  0  0
   -0.2370   -0.0417    4.0503 C   0  0  0  0  0  0  0  0  0  0  0  0
   -0.4956   -0.0030    5.1273 H   0  0  0  0  0  0  0  0  0  0  0  0
    0.8180    0.2724    3.9299 H   0  0  0  0  0  0  0  0  0  0  0  0
   -0.3239   -1.0904    3.7056 H   0  0  0  0  0  0  0  0  0  0  0  0
    1.2837    0.6069    0.4182 P   0  0  0  0  0  0  0  0  0  0  0  0
    0.4390    1.6002    1.5529 N   0  0  0  0  0  0  0  0  0  0  0  0
    0.3172    3.0503    1.2186 C   0  0  0  0  0  0  0  0  0  0  0  0
    0.3009    3.2010    0.1148 H   0  0  0  0  0  0  0  0  0  0  0  0
   -0.6899    3.3442    1.5744 H   0  0  0  0  0  0  0  0  0  0  0  0
    1.3962    3.8920    1.8837 C   0  0  0  0  0  0  0  0  0  0  0  0
    1.2195    4.9659    1.6737 H   0  0  0  0  0  0  0  0  0  0  0  0
    2.4021    3.6328    1.5034 H   0  0  0  0  0  0  0  0  0  0  0  0
    1.3883    3.7444    2.9824 H   0  0  0  0  0  0  0  0  0  0  0  0
   -3.1067    0.9514    0.3913 O   0  0  0  0  0  0  0  0  0  0  0  0
   -3.1031    2.3035    0.0307 C   0  0  0  0  0  0  0  0  0  0  0  0
   -3.4070    3.2482    1.0239 C   0  0  0  0  0  0  0  0  0  0  0  0
   -3.6441    2.9011    2.0402 H   0  0  0  0  0  0  0  0  0  0  0  0
   -3.4087    4.6120    0.6925 C   0  0  0  0  0  0  0  0  0  0  0  0
   -3.6532    5.3588    1.4630 H   0  0  0  0  0  0  0  0  0  0  0  0
   -3.0977    5.0206   -0.6152 C   0  0  0  0  0  0  0  0  0  0  0  0
   -3.0940    6.0906   -0.8712 H   0  0  0  0  0  0  0  0  0  0  0  0
   -2.8002    4.0604   -1.5963 C   0  0  0  0  0  0  0  0  0  0  0  0
   -2.5631    4.3748   -2.6239 H   0  0  0  0  0  0  0  0  0  0  0  0
   -2.8043    2.6915   -1.2842 C   0  0  0  0  0  0  0  0  0  0  0  0
   -2.5812    1.9180   -2.0364 H   0  0  0  0  0  0  0  0  0  0  0  0
   -2.1606   -1.1159    1.3894 O   0  0  0  0  0  0  0  0  0  0  0  0
   -2.8120   -2.2478    0.9055 C   0  0  0  0  0  0  0  0  0  0  0  0
   -3.4108   -2.3065   -0.3590 C   0  0  0  0  0  0  0  0  0  0  0  0
   -3.3639   -1.4501   -1.0495 H   0  0  0  0  0  0  0  0  0  0  0  0
   -4.0258   -3.5049   -0.7543 C   0  0  0  0  0  0  0  0  0  0  0  0
   -4.4816   -3.5605   -1.7541 H   0  0  0  0  0  0  0  0  0  0  0  0
   -4.0543   -4.6176    0.1001 C   0  0  0  0  0  0  0  0  0  0  0  0
   -4.5402   -5.5504   -0.2218 H   0  0  0  0  0  0  0  0  0  0  0  0
   -3.4558   -4.5344    1.3683 C   0  0  0  0  0  0  0  0  0  0  0  0
   -3.4731   -5.3994    2.0485 H   0  0  0  0  0  0  0  0  0  0  0  0
   -2.8289   -3.3490    1.7774 C   0  0  0  0  0  0  0  0  0  0  0  0
   -2.3516   -3.2609    2.7642 H   0  0  0  0  0  0  0  0  0  0  0  0
    1.9502   -0.5494    1.3781 O   0  0  0  0  0  0  0  0  0  0  0  0
    2.0075   -1.8899    0.9502 C   0  0  0  0  0  0  0  0  0  0  0  0
    0.8733   -2.6991    1.0891 C   0  0  0  0  0  0  0  0  0  0  0  0
   -0.0484   -2.2760    1.5081 H   0  0  0  0  0  0  0  0  0  0  0  0
    0.9358   -4.0361    0.6696 C   0  0  0  0  0  0  0  0  0  0  0  0
    0.0401   -4.6690    0.7598 H   0  0  0  0  0  0  0  0  0  0  0  0
    2.1251   -4.5488    0.1280 C   0  0  0  0  0  0  0  0  0  0  0  0
    2.1712   -5.5955   -0.2072 H   0  0  0  0  0  0  0  0  0  0  0  0
    3.2536   -3.7217    0.0037 C   0  0  0  0  0  0  0  0  0  0  0  0
    4.1844   -4.1186   -0.4283 H   0  0  0  0  0  0  0  0  0  0  0  0
    3.2023   -2.3795    0.4101 C   0  0  0  0  0  0  0  0  0  0  0  0
    4.0670   -1.7098    0.3015 H   0  0  0  0  0  0  0  0  0  0  0  0
    2.5237    1.6057    0.0330 O   0  0  0  0  0  0  0  0  0  0  0  0
    3.8653    1.1997    0.0078 C   0  0  0  0  0  0  0  0  0  0  0  0
    4.4360    0.8081   -1.2094 C   0  0  0  0  0  0  0  0  0  0  0  0
    3.7986    0.7684   -2.1049 H   0  0  0  0  0  0  0  0  0  0  0  0
    5.7878    0.4315   -1.2254 C   0  0  0  0  0  0  0  0  0  0  0  0
    6.2475    0.1163   -2.1742 H   0  0  0  0  0  0  0  0  0  0  0  0
    6.5475    0.4461   -0.0435 C   0  0  0  0  0  0  0  0  0  0  0  0
    7.6056    0.1457   -0.0642 H   0  0  0  0  0  0  0  0  0  0  0  0
    5.9534    0.8411    1.1665 C   0  0  0  0  0  0  0  0  0  0  0  0
    6.5425    0.8507    2.0959 H   0  0  0  0  0  0  0  0  0  0  0  0
    4.6031    1.2217    1.1999 C   0  0  0  0  0  0  0  0  0  0  0  0
    4.1135    1.5222    2.1369 H   0  0  0  0  0  0  0  0  0  0  0  0
  1 31  1  0  0  0  0
  1  2  1  0  0  0  0
  2  3  1  0  0  0  0
  3  4  1  0  0  0  0
  3  5  1  0  0  0  0
  3  6  1  0  0  0  0
  6  7  1  0  0  0  0
  8  6  1  0  0  0  0
  9  6  1  0  0  0  0
 10 43  1  0  0  0  0
 10 11  1  0  0  0  0
 11  2  1  0  0  0  0
 12 11  1  0  0  0  0
 12 14  1  0  0  0  0
 12 15  1  0  0  0  0
 13 12  1  0  0  0  0
 15 18  1  0  0  0  0
 16 15  1  0  0  0  0
 17 15  1  0  0  0  0
 19  1  1  0  0  0  0
 20 19  1  0  0  0  0
 20 21  1  0  0  0  0
 21 22  1  0  0  0  0
 23 21  2  0  0  0  0
 23 24  1  0  0  0  0
 25 23  1  0  0  0  0
 26 25  1  0  0  0  0
 27 29  1  0  0  0  0
 27 25  2  0  0  0  0
 28 27  1  0  0  0  0
 29 20  2  0  0  0  0
 30 29  1  0  0  0  0
 32 31  1  0  0  0  0
 32 41  1  0  0  0  0
 33 32  2  0  0  0  0
 34 33  1  0  0  0  0
 35 33  1  0  0  0  0
 35 37  2  0  0  0  0
 36 35  1  0  0  0  0
 37 39  1  0  0  0  0
 38 37  1  0  0  0  0
 39 41  2  0  0  0  0
 39 40  1  0  0  0  0
 41 42  1  0  0  0  0
 44 45  1  0  0  0  0
 44 43  1  0  0  0  0
 45 46  1  0  0  0  0
 47 48  1  0  0  0  0
 47 45  2  0  0  0  0
 49 47  1  0  0  0  0
 50 49  1  0  0  0  0
 51 49  2  0  0  0  0
 51 53  1  0  0  0  0
 52 51  1  0  0  0  0
 53 44  2  0  0  0  0
 54 53  1  0  0  0  0
 55 10  1  0  0  0  0
 56 55  1  0  0  0  0
 56 65  1  0  0  0  0
 57 56  2  0  0  0  0
 58 57  1  0  0  0  0
 59 57  1  0  0  0  0
 59 61  2  0  0  0  0
 60 59  1  0  0  0  0
 61 63  1  0  0  0  0
 62 61  1  0  0  0  0
 63 65  2  0  0  0  0
 63 64  1  0  0  0  0
 65 66  1  0  0  0  0
M  END
