1,2
q = 0.0, confidence = 0.984

 69 74  0  0  1  0  0  0  0  0999 V2000
    1.7363   -0.3740    0.2891 P   0  0  1  0  0  0  0  0  0  0  0  0
   -1.7073   -0.4447    0.2233 P   0  0  1  0  0  0  0  0  0  0  0  0
    4.0692   -1.3170    1.2760 O   0  0  0  0  0  0  0  0  0  0  0  0
    3.5996    0.5483   -1.4686 O   0  0  0  0  0  0  0  0  0  0  0  0
    5.4769   -0.3993   -0.3943 O   0  0  0  0  0  0  0  0  0  0  0  0
   -3.7008   -1.7667   -1.0714 O   0  0  0  0  0  0  0  0  0  0  0  0
   -5.4731   -0.3734   -0.3743 O   0  0  0  0  0  0  0  0  0  0  0  0
   -3.9954    0.9518    0.8923 O   0  0  0  0  0  0  0  0  0  0  0  0
    2.8989    0.0470    2.8557 C   0  0  0  0  0  0  0  0  0  0  0  0
    3.8152    0.1900    3.4632 H   0  0  0  0  0  0  0  0  0  0  0  0
    2.3688   -0.8440    3.2437 H   0  0  0  0  0  0  0  0  0  0  0  0
    2.2487    0.9364    2.9700 H   0  0  0  0  0  0  0  0  0  0  0  0
    3.2857   -0.1141    1.3952 C   0  0  2  0  0  0  0  0  0  0  0  0
    3.7037   -1.8288   -1.1077 C   0  0  0  0  0  0  0  0  0  0  0  0
    3.1324   -2.7533   -0.8997 H   0  0  0  0  0  0  0  0  0  0  0  0
    4.2685   -1.9852   -2.0501 H   0  0  0  0  0  0  0  0  0  0  0  0
    4.6464    0.7667   -0.5142 C   0  0  1  0  0  0  0  0  0  0  0  0
    5.4921    1.8860   -1.0822 C   0  0  0  0  0  0  0  0  0  0  0  0
    5.8844    1.5802   -2.0702 H   0  0  0  0  0  0  0  0  0  0  0  0
    6.3375    2.1065   -0.4043 H   0  0  0  0  0  0  0  0  0  0  0  0
    4.8608    2.7864   -1.1992 H   0  0  0  0  0  0  0  0  0  0  0  0
    1.9119   -0.6872   -2.5397 C   0  0  0  0  0  0  0  0  0  0  0  0
    2.5583   -0.7497   -3.4384 H   0  0  0  0  0  0  0  0  0  0  0  0
    1.2905    0.2271   -2.6101 H   0  0  0  0  0  0  0  0  0  0  0  0
    1.2502   -1.5743   -2.5127 H   0  0  0  0  0  0  0  0  0  0  0  0
    2.7886   -0.6128   -1.3004 C   0  0  1  0  0  0  0  0  0  0  0  0
    4.0897    1.0734    0.8780 C   0  0  0  0  0  0  0  0  0  0  0  0
    3.4538    1.9789    0.8455 H   0  0  0  0  0  0  0  0  0  0  0  0
    4.9484    1.2314    1.5628 H   0  0  0  0  0  0  0  0  0  0  0  0
    4.7279   -1.5341    0.0084 C   0  0  2  0  0  0  0  0  0  0  0  0
    5.7071   -2.6679    0.2429 C   0  0  0  0  0  0  0  0  0  0  0  0
    6.4207   -2.3662    1.0322 H   0  0  0  0  0  0  0  0  0  0  0  0
    6.2655   -2.8821   -0.6872 H   0  0  0  0  0  0  0  0  0  0  0  0
    5.1690   -3.5782    0.5684 H   0  0  0  0  0  0  0  0  0  0  0  0
   -1.9924   -1.0273   -2.5521 C   0  0  0  0  0  0  0  0  0  0  0  0
   -2.6653   -1.1410   -3.4261 H   0  0  0  0  0  0  0  0  0  0  0  0
   -1.4560   -1.9855   -2.4069 H   0  0  0  0  0  0  0  0  0  0  0  0
   -1.2555   -0.2288   -2.7637 H   0  0  0  0  0  0  0  0  0  0  0  0
   -2.8144   -0.6648   -1.3271 C   0  0  2  0  0  0  0  0  0  0  0  0
   -3.6144    0.6235   -1.5128 C   0  0  0  0  0  0  0  0  0  0  0  0
   -4.1768    0.5490   -2.4663 H   0  0  0  0  0  0  0  0  0  0  0  0
   -2.9397    1.5021   -1.5398 H   0  0  0  0  0  0  0  0  0  0  0  0
   -4.7321   -1.5439   -0.0826 C   0  0  1  0  0  0  0  0  0  0  0  0
   -5.6766   -2.7244   -0.2008 C   0  0  0  0  0  0  0  0  0  0  0  0
   -6.0843   -2.7544   -1.2284 H   0  0  0  0  0  0  0  0  0  0  0  0
   -6.5109   -2.6115    0.5161 H   0  0  0  0  0  0  0  0  0  0  0  0
   -5.1388   -3.6690    0.0054 H   0  0  0  0  0  0  0  0  0  0  0  0
   -2.7485    0.2487    2.7639 C   0  0  0  0  0  0  0  0  0  0  0  0
   -3.6244    0.4007    3.4269 H   0  0  0  0  0  0  0  0  0  0  0  0
   -2.1814    1.1975    2.6942 H   0  0  0  0  0  0  0  0  0  0  0  0
   -2.1013   -0.5363    3.2034 H   0  0  0  0  0  0  0  0  0  0  0  0
   -3.2241   -0.1404    1.3741 C   0  0  2  0  0  0  0  0  0  0  0  0
   -4.1221   -1.3888    1.3274 C   0  0  0  0  0  0  0  0  0  0  0  0
   -3.5993   -2.3114    1.6387 H   0  0  0  0  0  0  0  0  0  0  0  0
   -4.9578   -1.2189    2.0375 H   0  0  0  0  0  0  0  0  0  0  0  0
   -4.6313    0.7929   -0.3752 C   0  0  1  0  0  0  0  0  0  0  0  0
   -5.5185    2.0071   -0.5467 C   0  0  0  0  0  0  0  0  0  0  0  0
   -6.2376    2.0506    0.2927 H   0  0  0  0  0  0  0  0  0  0  0  0
   -6.0730    1.9443   -1.5013 H   0  0  0  0  0  0  0  0  0  0  0  0
   -4.8869    2.9148   -0.5355 H   0  0  0  0  0  0  0  0  0  0  0  0
    1.2532   -2.0624    0.8878 C   0  0  0  0  0  0  0  0  0  0  0  0
    2.1630   -2.6888    0.8937 H   0  0  0  0  0  0  0  0  0  0  0  0
    0.9752   -1.9245    1.9546 H   0  0  0  0  0  0  0  0  0  0  0  0
    0.0935   -2.7212    0.1409 C   0  0  0  0  0  0  0  0  0  0  0  0
    0.2113   -2.6075   -0.9570 H   0  0  0  0  0  0  0  0  0  0  0  0
    0.1282   -3.8155    0.3293 H   0  0  0  0  0  0  0  0  0  0  0  0
   -1.2800   -2.2220    0.5902 C   0  0  0  0  0  0  0  0  0  0  0  0
   -1.3709   -2.3565    1.6891 H   0  0  0  0  0  0  0  0  0  0  0  0
   -2.0843   -2.8165    0.1137 H   0  0  0  0  0  0  0  0  0  0  0  0
  1 61  1  1  0  0  0
  1 13  1  0  0  0  0
  2 67  1  1  0  0  0
  2 52  1  0  0  0  0
  3 13  1  0  0  0  0
  4 26  1  0  0  0  0
  4 17  1  0  0  0  0
  5 30  1  0  0  0  0
  6 43  1  0  0  0  0
  7 43  1  0  0  0  0
  8 52  1  0  0  0  0
  9 12  1  0  0  0  0
  9 11  1  0  0  0  0
  9 10  1  0  0  0  0
 13  9  1  1  0  0  0
 14 15  1  0  0  0  0
 14 30  1  0  0  0  0
 16 14  1  0  0  0  0
 17 18  1  6  0  0  0
 17  5  1  0  0  0  0
 17 27  1  0  0  0  0
 18 20  1  0  0  0  0
 19 18  1  0  0  0  0
 21 18  1  0  0  0  0
 22 25  1  0  0  0  0
 23 22  1  0  0  0  0
 24 22  1  0  0  0  0
 26 22  1  6  0  0  0
 26 14  1  0  0  0  0
 26  1  1  0  0  0  0
 27 13  1  0  0  0  0
 27 29  1  0  0  0  0
 28 27  1  0  0  0  0
 30 31  1  1  0  0  0
 30  3  1  0  0  0  0
 31 34  1  0  0  0  0
 31 32  1  0  0  0  0
 33 31  1  0  0  0  0
 35 37  1  0  0  0  0
 36 35  1  0  0  0  0
 38 35  1  0  0  0  0
 39 35  1  6  0  0  0
 39  6  1  0  0  0  0
 39  2  1  0  0  0  0
 40 39  1  0  0  0  0
 40 56  1  0  0  0  0
 41 40  1  0  0  0  0
 42 40  1  0  0  0  0
 43 44  1  1  0  0  0
 43 53  1  0  0  0  0
 44 47  1  0  0  0  0
 44 46  1  0  0  0  0
 45 44  1  0  0  0  0
 48 51  1  0  0  0  0
 48 49  1  0  0  0  0
 50 48  1  0  0  0  0
 52 48  1  1  0  0  0
 53 52  1  0  0  0  0
 53 54  1  0  0  0  0
 53 55  1  0  0  0  0
 56 57  1  6  0  0  0
 56  7  1  0  0  0  0
 56  8  1  0  0  0  0
 57 60  1  0  0  0  0
 57 58  1  0  0  0  0
 59 57  1  0  0  0  0
 61 62  1  0  0  0  0
 61 63  1  0  0  0  0
 64 66  1  0  0  0  0
 64 67  1  0  0  0  0
 64 61  1  0  0  0  0
 65 64  1  0  0  0  0
 67 68  1  0  0  0  0
 69 67  1  0  0  0  0
M  END
