1,2
q = -1.0

 27 26  0  0  0  0  0  0  0  0999 V2000
    1.6513    1.6456   -0.1193 P   0  0  0  0  0  0  0  0  0  0  0  0
    1.6513   -1.6456   -0.1193 P   0  0  0  0  0  0  0  0  0  0  0  0
    3.0448    1.2280   -0.7521 O   0  0  0  0  0  0  0  0  0  0  0  0
    1.2702    2.9928   -0.9608 O   0  0  0  0  0  0  0  0  0  0  0  0
    1.8780    2.2475    1.3710 O   0  0  0  0  0  0  0  0  0  0  0  0
    3.0449   -1.2281   -0.7521 O   0  0  0  0  0  0  0  0  0  0  0  0
    1.2702   -2.9928   -0.9609 O   0  0  0  0  0  0  0  0  0  0  0  0
    1.8779   -2.2477    1.3709 O   0  0  0  0  0  0  0  0  0  0  0  0
    3.8556   -0.0000   -0.3974 B   0  0  0  0  0  0  0  0  0  0  0  0
    1.1473    2.9145   -2.3884 C   0  0  0  0  0  0  0  0  0  0  0  0
    3.0609    3.0215    1.6638 C   0  0  0  0  0  0  0  0  0  0  0  0
    1.1470   -2.9142   -2.3885 C   0  0  0  0  0  0  0  0  0  0  0  0
    3.0609   -3.0216    1.6639 C   0  0  0  0  0  0  0  0  0  0  0  0
    4.9909   -0.0000   -1.1558 F   0  0  0  0  0  0  0  0  0  0  0  0
    4.0946    0.0000    0.9835 F   0  0  0  0  0  0  0  0  0  0  0  0
    0.9036    3.9350   -2.7375 H   0  0  0  0  0  0  0  0  0  0  0  0
    2.0994    2.5793   -2.8480 H   0  0  0  0  0  0  0  0  0  0  0  0
    0.3197    2.2324   -2.6749 H   0  0  0  0  0  0  0  0  0  0  0  0
    2.9126    3.4386    2.6767 H   0  0  0  0  0  0  0  0  0  0  0  0
    3.9512    2.3636    1.6491 H   0  0  0  0  0  0  0  0  0  0  0  0
    3.1803    3.8484    0.9354 H   0  0  0  0  0  0  0  0  0  0  0  0
    0.9027   -3.9345   -2.7377 H   0  0  0  0  0  0  0  0  0  0  0  0
    0.3197   -2.2316   -2.6748 H   0  0  0  0  0  0  0  0  0  0  0  0
    2.0992   -2.5793   -2.8482 H   0  0  0  0  0  0  0  0  0  0  0  0
    2.9127   -3.4384    2.6769 H   0  0  0  0  0  0  0  0  0  0  0  0
    3.1801   -3.8487    0.9357 H   0  0  0  0  0  0  0  0  0  0  0  0
    3.9512   -2.3637    1.6488 H   0  0  0  0  0  0  0  0  0  0  0  0
  1  5  1  0  0  0  0
  2  8  1  0  0  0  0
  3  9  1  0  0  0  0
  3  1  1  0  0  0  0
  4  1  1  0  0  0  0
  5 11  1  0  0  0  0
  6  9  1  0  0  0  0
  6  2  1  0  0  0  0
  7  2  1  0  0  0  0
  8 13  1  0  0  0  0
  9 15  1  0  0  0  0
 10  4  1  0  0  0  0
 11 19  1  0  0  0  0
 12  7  1  0  0  0  0
 13 25  1  0  0  0  0
 14  9  1  0  0  0  0
 16 10  1  0  0  0  0
 17 10  1  0  0  0  0
 18 10  1  0  0  0  0
 20 11  1  0  0  0  0
 21 11  1  0  0  0  0
 22 12  1  0  0  0  0
 23 12  1  0  0  0  0
 24 12  1  0  0  0  0
 26 13  1  0  0  0  0
 27 13  1  0  0  0  0
M  END
