1,2
q = 0.0, confidence = 0.984

 52 55  0  0  1  0  0  0  0  0999 V2000
   -1.1500    0.2627   -0.0005 P   0  0  0  0  0  0  0  0  0  0  0  0
    1.9479    0.5327   -0.0217 P   0  0  2  0  0  0  0  0  0  0  0  0
   -2.0366    0.2336   -1.6068 C   0  0  0  0  0  0  0  0  0  0  0  0
   -2.0701    1.3344   -2.4855 C   0  0  0  0  0  0  0  0  0  0  0  0
   -1.5668    2.2752   -2.2194 H   0  0  0  0  0  0  0  0  0  0  0  0
   -2.7466    1.2286   -3.7116 C   0  0  0  0  0  0  0  0  0  0  0  0
   -2.7698    2.0904   -4.3959 H   0  0  0  0  0  0  0  0  0  0  0  0
   -3.3869    0.0309   -4.0632 C   0  0  0  0  0  0  0  0  0  0  0  0
   -3.9159   -0.0484   -5.0251 H   0  0  0  0  0  0  0  0  0  0  0  0
   -3.3414   -1.0706   -3.1915 C   0  0  0  0  0  0  0  0  0  0  0  0
   -3.8282   -2.0173   -3.4709 H   0  0  0  0  0  0  0  0  0  0  0  0
   -2.6645   -0.9792   -1.9684 C   0  0  0  0  0  0  0  0  0  0  0  0
   -2.5847   -1.8505   -1.2957 H   0  0  0  0  0  0  0  0  0  0  0  0
   -2.4530    0.1898    1.2800 C   0  0  0  0  0  0  0  0  0  0  0  0
   -3.7686    0.6222    1.0202 C   0  0  0  0  0  0  0  0  0  0  0  0
   -4.0493    0.9586    0.0102 H   0  0  0  0  0  0  0  0  0  0  0  0
   -4.7246    0.5983    2.0474 C   0  0  0  0  0  0  0  0  0  0  0  0
   -5.7537    0.9312    1.8435 H   0  0  0  0  0  0  0  0  0  0  0  0
   -4.3721    0.1389    3.3262 C   0  0  0  0  0  0  0  0  0  0  0  0
   -5.1260    0.1138    4.1277 H   0  0  0  0  0  0  0  0  0  0  0  0
   -3.0634   -0.3045    3.5799 C   0  0  0  0  0  0  0  0  0  0  0  0
   -2.7918   -0.6834    4.5766 H   0  0  0  0  0  0  0  0  0  0  0  0
   -2.1031   -0.2849    2.5597 C   0  0  0  0  0  0  0  0  0  0  0  0
   -1.0820   -0.6573    2.7356 H   0  0  0  0  0  0  0  0  0  0  0  0
   -0.4410    1.9657    0.1272 C   0  0  0  0  0  0  0  0  0  0  0  0
   -1.2442    3.1123    0.2744 C   0  0  0  0  0  0  0  0  0  0  0  0
   -2.3355    3.0075    0.3731 H   0  0  0  0  0  0  0  0  0  0  0  0
   -0.6532    4.3839    0.3008 C   0  0  0  0  0  0  0  0  0  0  0  0
   -1.2832    5.2781    0.4207 H   0  0  0  0  0  0  0  0  0  0  0  0
    0.7398    4.5159    0.1721 C   0  0  0  0  0  0  0  0  0  0  0  0
    1.2026    5.5142    0.1868 H   0  0  0  0  0  0  0  0  0  0  0  0
    1.5459    3.3757    0.0397 C   0  0  0  0  0  0  0  0  0  0  0  0
    2.6376    3.4873   -0.0470 H   0  0  0  0  0  0  0  0  0  0  0  0
    0.9642    2.0921    0.0316 C   0  0  0  0  0  0  0  0  0  0  0  0
    2.9469    1.3926    2.5451 C   0  0  0  0  0  0  0  0  0  0  0  0
    3.7634    1.2901    3.2890 H   0  0  0  0  0  0  0  0  0  0  0  0
    2.0198    0.9992    3.0087 H   0  0  0  0  0  0  0  0  0  0  0  0
    2.7984    2.4746    2.3538 H   0  0  0  0  0  0  0  0  0  0  0  0
    3.2943    0.6241    1.2768 C   0  0  2  0  0  0  0  0  0  0  0  0
    3.4030   -0.4590    1.5099 H   0  0  0  0  0  0  0  0  0  0  0  0
    4.5471    1.0686    0.4993 C   0  0  0  0  0  0  0  0  0  0  0  0
    4.5571    2.1764    0.3843 H   0  0  0  0  0  0  0  0  0  0  0  0
    5.4668    0.8005    1.0604 H   0  0  0  0  0  0  0  0  0  0  0  0
    4.4953    0.3864   -0.8749 C   0  0  0  0  0  0  0  0  0  0  0  0
    5.3011    0.7360   -1.5530 H   0  0  0  0  0  0  0  0  0  0  0  0
    4.6122   -0.7104   -0.7444 H   0  0  0  0  0  0  0  0  0  0  0  0
    3.1073    0.6538   -1.4936 C   0  0  1  0  0  0  0  0  0  0  0  0
    3.0503    1.7195   -1.8102 H   0  0  0  0  0  0  0  0  0  0  0  0
    2.7137   -0.2630   -2.6492 C   0  0  0  0  0  0  0  0  0  0  0  0
    3.4370   -0.1626   -3.4845 H   0  0  0  0  0  0  0  0  0  0  0  0
    1.7035   -0.0209   -3.0356 H   0  0  0  0  0  0  0  0  0  0  0  0
    2.7008   -1.3180   -2.3092 H   0  0  0  0  0  0  0  0  0  0  0  0
  1 25  1  0  0  0  0
  1 14  1  0  0  0  0
  2 34  1  1  0  0  0
  2 39  1  0  0  0  0
  3  1  1  0  0  0  0
  4  5  1  0  0  0  0
  4  3  2  0  0  0  0
  6  4  1  0  0  0  0
  7  6  1  0  0  0  0
  8  6  2  0  0  0  0
  8 10  1  0  0  0  0
  9  8  1  0  0  0  0
 10 12  2  0  0  0  0
 11 10  1  0  0  0  0
 12  3  1  0  0  0  0
 12 13  1  0  0  0  0
 14 23  1  0  0  0  0
 15 14  2  0  0  0  0
 15 17  1  0  0  0  0
 16 15  1  0  0  0  0
 17 19  2  0  0  0  0
 18 17  1  0  0  0  0
 19 21  1  0  0  0  0
 19 20  1  0  0  0  0
 21 22  1  0  0  0  0
 23 24  1  0  0  0  0
 23 21  2  0  0  0  0
 25 26  1  0  0  0  0
 26 28  2  0  0  0  0
 26 27  1  0  0  0  0
 28 29  1  0  0  0  0
 30 31  1  0  0  0  0
 30 28  1  0  0  0  0
 32 30  2  0  0  0  0
 33 32  1  0  0  0  0
 34 32  1  0  0  0  0
 34 25  2  0  0  0  0
 35 37  1  0  0  0  0
 35 36  1  0  0  0  0
 38 35  1  0  0  0  0
 39 40  1  1  0  0  0
 39 35  1  0  0  0  0
 41 43  1  0  0  0  0
 41 39  1  0  0  0  0
 42 41  1  0  0  0  0
 44 46  1  0  0  0  0
 44 41  1  0  0  0  0
 45 44  1  0  0  0  0
 47 48  1  6  0  0  0
 47 44  1  0  0  0  0
 47  2  1  0  0  0  0
 49 52  1  0  0  0  0
 49 47  1  0  0  0  0
 50 49  1  0  0  0  0
 51 49  1  0  0  0  0
M  END
