23,39
q = 0.0, confidence = 0.99

 61 64  0  0  0  0  0  0  0  0999 V2000
    3.2098    1.0114   -0.3440 C   0  0  0  0  0  0  0  0  0  0  0  0
    4.2583    0.4313    0.3982 C   0  0  0  0  0  0  0  0  0  0  0  0
    4.1325    0.2243    1.4711 H   0  0  0  0  0  0  0  0  0  0  0  0
    5.4629    0.0766   -0.2304 C   0  0  0  0  0  0  0  0  0  0  0  0
    6.2738   -0.3744    0.3631 H   0  0  0  0  0  0  0  0  0  0  0  0
    5.6321    0.2910   -1.6068 C   0  0  0  0  0  0  0  0  0  0  0  0
    6.5763    0.0125   -2.0993 H   0  0  0  0  0  0  0  0  0  0  0  0
    4.5875    0.8619   -2.3531 C   0  0  0  0  0  0  0  0  0  0  0  0
    4.7096    1.0297   -3.4342 H   0  0  0  0  0  0  0  0  0  0  0  0
    3.3855    1.2193   -1.7279 C   0  0  0  0  0  0  0  0  0  0  0  0
    2.5647    1.6496   -2.3221 H   0  0  0  0  0  0  0  0  0  0  0  0
    1.1472    2.9709   -0.3384 C   0  0  0  0  0  0  0  0  0  0  0  0
    2.0789    4.0310   -0.2865 C   0  0  0  0  0  0  0  0  0  0  0  0
    3.0657    3.8741    0.1764 H   0  0  0  0  0  0  0  0  0  0  0  0
    1.7606    5.2808   -0.8346 C   0  0  0  0  0  0  0  0  0  0  0  0
    2.4944    6.1003   -0.7895 H   0  0  0  0  0  0  0  0  0  0  0  0
    0.5103    5.4879   -1.4447 C   0  0  0  0  0  0  0  0  0  0  0  0
    0.2645    6.4702   -1.8765 H   0  0  0  0  0  0  0  0  0  0  0  0
   -0.4158    4.4371   -1.5080 C   0  0  0  0  0  0  0  0  0  0  0  0
   -1.3947    4.5801   -1.9911 H   0  0  0  0  0  0  0  0  0  0  0  0
   -0.0958    3.1848   -0.9578 C   0  0  0  0  0  0  0  0  0  0  0  0
   -0.8128    2.3544   -1.0220 H   0  0  0  0  0  0  0  0  0  0  0  0
    1.5415    1.3195    0.4083 P   0  0  0  0  0  0  0  0  0  0  0  0
    2.0919    1.8497    2.1424 C   0  0  0  0  0  0  0  0  0  0  0  0
    2.2228    0.9089    2.7175 H   0  0  0  0  0  0  0  0  0  0  0  0
    3.1057    2.2666    1.9851 H   0  0  0  0  0  0  0  0  0  0  0  0
    1.2375    2.8701    2.9206 C   0  0  0  0  0  0  0  0  0  0  0  0
    1.9259    3.5639    3.4468 H   0  0  0  0  0  0  0  0  0  0  0  0
    0.6814    3.5192    2.2105 H   0  0  0  0  0  0  0  0  0  0  0  0
    0.2810    2.2693    3.9605 C   0  0  0  0  0  0  0  0  0  0  0  0
    0.8758    1.8208    4.7860 H   0  0  0  0  0  0  0  0  0  0  0  0
   -0.3119    3.0916    4.4184 H   0  0  0  0  0  0  0  0  0  0  0  0
   -0.6504    1.1959    3.3945 C   0  0  0  0  0  0  0  0  0  0  0  0
   -1.2865    0.7689    4.1961 H   0  0  0  0  0  0  0  0  0  0  0  0
   -0.0242    0.3515    3.0334 H   0  0  0  0  0  0  0  0  0  0  0  0
   -1.5344    1.6905    2.2408 C   0  0  0  0  0  0  0  0  0  0  0  0
   -1.0547    2.5332    1.7020 H   0  0  0  0  0  0  0  0  0  0  0  0
   -2.5252    2.0447    2.5918 H   0  0  0  0  0  0  0  0  0  0  0  0
   -1.7351    0.3473    0.9749 P   0  0  0  0  0  0  0  0  0  0  0  0
   -3.0413    1.0376   -0.1457 C   0  0  0  0  0  0  0  0  0  0  0  0
   -3.7698    0.1480   -0.9652 C   0  0  0  0  0  0  0  0  0  0  0  0
   -3.5950   -0.9344   -0.8684 H   0  0  0  0  0  0  0  0  0  0  0  0
   -4.7055    0.6313   -1.8887 C   0  0  0  0  0  0  0  0  0  0  0  0
   -5.2593   -0.0771   -2.5240 H   0  0  0  0  0  0  0  0  0  0  0  0
   -4.9367    2.0118   -2.0064 C   0  0  0  0  0  0  0  0  0  0  0  0
   -5.6706    2.3914   -2.7335 H   0  0  0  0  0  0  0  0  0  0  0  0
   -4.2321    2.9032   -1.1841 C   0  0  0  0  0  0  0  0  0  0  0  0
   -4.4170    3.9864   -1.2557 H   0  0  0  0  0  0  0  0  0  0  0  0
   -3.2916    2.4205   -0.2588 C   0  0  0  0  0  0  0  0  0  0  0  0
   -2.7512    3.1391    0.3733 H   0  0  0  0  0  0  0  0  0  0  0  0
   -2.7641   -0.8607    1.9481 C   0  0  0  0  0  0  0  0  0  0  0  0
   -2.2549   -2.1193    2.3162 C   0  0  0  0  0  0  0  0  0  0  0  0
   -1.2437   -2.4090    1.9920 H   0  0  0  0  0  0  0  0  0  0  0  0
   -3.0247   -2.9950    3.0990 C   0  0  0  0  0  0  0  0  0  0  0  0
   -2.6127   -3.9767    3.3784 H   0  0  0  0  0  0  0  0  0  0  0  0
   -4.3099   -2.6227    3.5202 C   0  0  0  0  0  0  0  0  0  0  0  0
   -4.9134   -3.3109    4.1319 H   0  0  0  0  0  0  0  0  0  0  0  0
   -4.8258   -1.3676    3.1558 C   0  0  0  0  0  0  0  0  0  0  0  0
   -5.8353   -1.0696    3.4789 H   0  0  0  0  0  0  0  0  0  0  0  0
   -4.0583   -0.4925    2.3742 C   0  0  0  0  0  0  0  0  0  0  0  0
   -4.4758    0.4831    2.0792 H   0  0  0  0  0  0  0  0  0  0  0  0
  1  2  1  0  0  0  0
  1 23  1  0  0  0  0
  2  3  1  0  0  0  0
  4  5  1  0  0  0  0
  4  2  2  0  0  0  0
  6  4  1  0  0  0  0
  7  6  1  0  0  0  0
  8 10  1  0  0  0  0
  8  6  2  0  0  0  0
  9  8  1  0  0  0  0
 10  1  2  0  0  0  0
 11 10  1  0  0  0  0
 12 13  1  0  0  0  0
 12 23  1  0  0  0  0
 13 14  1  0  0  0  0
 15 16  1  0  0  0  0
 15 13  2  0  0  0  0
 17 15  1  0  0  0  0
 18 17  1  0  0  0  0
 19 17  2  0  0  0  0
 19 21  1  0  0  0  0
 20 19  1  0  0  0  0
 21 12  2  0  0  0  0
 22 21  1  0  0  0  0
 23 24  1  0  0  0  0
 24 25  1  0  0  0  0
 24 27  1  0  0  0  0
 26 24  1  0  0  0  0
 27 28  1  0  0  0  0
 27 30  1  0  0  0  0
 29 27  1  0  0  0  0
 30 32  1  0  0  0  0
 30 31  1  0  0  0  0
 33 30  1  0  0  0  0
 33 34  1  0  0  0  0
 35 33  1  0  0  0  0
 36 38  1  0  0  0  0
 36 33  1  0  0  0  0
 37 36  1  0  0  0  0
 39 51  1  0  0  0  0
 39 36  1  0  0  0  0
 40 39  1  0  0  0  0
 41 42  1  0  0  0  0
 41 40  2  0  0  0  0
 43 41  1  0  0  0  0
 44 43  1  0  0  0  0
 45 43  2  0  0  0  0
 45 47  1  0  0  0  0
 46 45  1  0  0  0  0
 47 49  2  0  0  0  0
 48 47  1  0  0  0  0
 49 40  1  0  0  0  0
 49 50  1  0  0  0  0
 51 52  2  0  0  0  0
 51 60  1  0  0  0  0
 52 54  1  0  0  0  0
 53 52  1  0  0  0  0
 54 55  1  0  0  0  0
 54 56  2  0  0  0  0
 56 57  1  0  0  0  0
 58 59  1  0  0  0  0
 58 56  1  0  0  0  0
 60 58  2  0  0  0  0
 61 60  1  0  0  0  0
M  END
