1,2
q = 0.0, confidence = 1.0

 31 31  0  0  1  0  0  0  0  0999 V2000
   -1.8131   -1.5967   -0.1278 P   0  0  0  0  0  0  0  0  0  0  0  0
   -1.8143    1.6050   -0.0851 P   0  0  0  0  0  0  0  0  0  0  0  0
   -3.4360    0.6775    0.1008 C   0  0  1  0  0  0  0  0  0  0  0  0
   -3.4806    0.4540    1.1937 H   0  0  0  0  0  0  0  0  0  0  0  0
   -4.7874    1.2426   -0.3577 C   0  0  0  0  0  0  0  0  0  0  0  0
   -5.1825    2.0301    0.3147 H   0  0  0  0  0  0  0  0  0  0  0  0
   -4.6732    1.6988   -1.3631 H   0  0  0  0  0  0  0  0  0  0  0  0
   -5.7165   -0.0014   -0.4456 C   0  0  0  0  0  0  0  0  0  0  0  0
   -6.3796    0.0566   -1.3322 H   0  0  0  0  0  0  0  0  0  0  0  0
   -6.3826   -0.0618    0.4387 H   0  0  0  0  0  0  0  0  0  0  0  0
   -4.7733   -1.2440   -0.5022 C   0  0  0  0  0  0  0  0  0  0  0  0
   -5.0337   -1.9432   -1.3213 H   0  0  0  0  0  0  0  0  0  0  0  0
   -4.8485   -1.8165    0.4449 H   0  0  0  0  0  0  0  0  0  0  0  0
   -3.3560   -0.6639   -0.6531 C   0  0  2  0  0  0  0  0  0  0  0  0
   -3.1624   -0.4363   -1.7279 H   0  0  0  0  0  0  0  0  0  0  0  0
   -2.3370   -2.4931    1.4061 C   0  0  0  0  0  0  0  0  0  0  0  0
   -3.2138   -3.1545    1.2544 H   0  0  0  0  0  0  0  0  0  0  0  0
   -2.5535   -1.7529    2.2007 H   0  0  0  0  0  0  0  0  0  0  0  0
   -1.4756   -3.0986    1.7500 H   0  0  0  0  0  0  0  0  0  0  0  0
   -1.7864   -2.9764   -1.3646 C   0  0  0  0  0  0  0  0  0  0  0  0
   -2.7691   -3.4845   -1.4460 H   0  0  0  0  0  0  0  0  0  0  0  0
   -1.0219   -3.7191   -1.0619 H   0  0  0  0  0  0  0  0  0  0  0  0
   -1.4958   -2.5573   -2.3473 H   0  0  0  0  0  0  0  0  0  0  0  0
   -1.9968    2.9499    1.1746 C   0  0  0  0  0  0  0  0  0  0  0  0
   -1.1570    3.6633    1.0569 H   0  0  0  0  0  0  0  0  0  0  0  0
   -1.9173    2.4953    2.1815 H   0  0  0  0  0  0  0  0  0  0  0  0
   -2.9570    3.4976    1.0822 H   0  0  0  0  0  0  0  0  0  0  0  0
   -2.0417    2.5296   -1.6727 C   0  0  0  0  0  0  0  0  0  0  0  0
   -2.1453    1.7963   -2.4955 H   0  0  0  0  0  0  0  0  0  0  0  0
   -1.1231    3.1146   -1.8679 H   0  0  0  0  0  0  0  0  0  0  0  0
   -2.9167    3.2103   -1.6547 H   0  0  0  0  0  0  0  0  0  0  0  0
  1 16  1  0  0  0  0
  2  3  1  0  0  0  0
  2 24  1  0  0  0  0
  3  4  1  1  0  0  0
  5  3  1  0  0  0  0
  5  6  1  0  0  0  0
  7  5  1  0  0  0  0
  8  5  1  0  0  0  0
  8 10  1  0  0  0  0
  9  8  1  0  0  0  0
 11  8  1  0  0  0  0
 11 13  1  0  0  0  0
 12 11  1  0  0  0  0
 14 15  1  6  0  0  0
 14 11  1  0  0  0  0
 14  1  1  0  0  0  0
 14  3  1  0  0  0  0
 16 19  1  0  0  0  0
 16 18  1  0  0  0  0
 17 16  1  0  0  0  0
 20 22  1  0  0  0  0
 20  1  1  0  0  0  0
 21 20  1  0  0  0  0
 23 20  1  0  0  0  0
 24 26  1  0  0  0  0
 25 24  1  0  0  0  0
 27 24  1  0  0  0  0
 28 31  1  0  0  0  0
 28  2  1  0  0  0  0
 29 28  1  0  0  0  0
 30 28  1  0  0  0  0
M  END
