1,2
q = 0.0, confidence = 0.984

 59 60  0  0  0  0  0  0  0  0999 V2000
   -1.5077   -0.2154    1.2658 P   0  0  0  0  0  0  0  0  0  0  0  0
    0.9942    0.1346    0.3800 P   0  0  0  0  0  0  0  0  0  0  0  0
   -2.8173    1.0612    1.7491 C   0  0  0  0  0  0  0  0  0  0  0  0
   -3.6829    0.4246    2.0373 H   0  0  0  0  0  0  0  0  0  0  0  0
   -3.2307    1.9273    0.5571 C   0  0  0  0  0  0  0  0  0  0  0  0
   -4.0277    2.6364    0.8603 H   0  0  0  0  0  0  0  0  0  0  0  0
   -3.6187    1.3129   -0.2766 H   0  0  0  0  0  0  0  0  0  0  0  0
   -2.3757    2.5171    0.1697 H   0  0  0  0  0  0  0  0  0  0  0  0
   -2.4118    1.9097    2.9595 C   0  0  0  0  0  0  0  0  0  0  0  0
   -3.2781    2.5149    3.2963 H   0  0  0  0  0  0  0  0  0  0  0  0
   -1.6035    2.6242    2.7002 H   0  0  0  0  0  0  0  0  0  0  0  0
   -2.0740    1.3033    3.8215 H   0  0  0  0  0  0  0  0  0  0  0  0
   -2.0116   -1.7786    2.1714 C   0  0  0  0  0  0  0  0  0  0  0  0
   -1.1365   -2.4416    1.9921 H   0  0  0  0  0  0  0  0  0  0  0  0
   -3.2389   -2.4103    1.5073 C   0  0  0  0  0  0  0  0  0  0  0  0
   -3.4750   -3.3821    1.9859 H   0  0  0  0  0  0  0  0  0  0  0  0
   -3.0663   -2.5941    0.4294 H   0  0  0  0  0  0  0  0  0  0  0  0
   -4.1401   -1.7704    1.6102 H   0  0  0  0  0  0  0  0  0  0  0  0
   -2.1973   -1.5786    3.6788 C   0  0  0  0  0  0  0  0  0  0  0  0
   -2.3649   -2.5597    4.1686 H   0  0  0  0  0  0  0  0  0  0  0  0
   -3.0818   -0.9494    3.9043 H   0  0  0  0  0  0  0  0  0  0  0  0
   -1.3134   -1.1168    4.1627 H   0  0  0  0  0  0  0  0  0  0  0  0
    1.7948    1.7790    0.0233 C   0  0  0  0  0  0  0  0  0  0  0  0
    2.2768    1.6274   -0.9703 H   0  0  0  0  0  0  0  0  0  0  0  0
    0.7328    2.8827   -0.1313 C   0  0  0  0  0  0  0  0  0  0  0  0
   -0.0182    2.5753   -0.8887 H   0  0  0  0  0  0  0  0  0  0  0  0
    0.1780    2.9932    0.8281 H   0  0  0  0  0  0  0  0  0  0  0  0
    1.3757    4.2293   -0.4896 C   0  0  0  0  0  0  0  0  0  0  0  0
    1.8411    4.1528   -1.4977 H   0  0  0  0  0  0  0  0  0  0  0  0
    0.5920    5.0110   -0.5659 H   0  0  0  0  0  0  0  0  0  0  0  0
    2.4432    4.6296    0.5356 C   0  0  0  0  0  0  0  0  0  0  0  0
    2.9204    5.5874    0.2443 H   0  0  0  0  0  0  0  0  0  0  0  0
    1.9555    4.8118    1.5196 H   0  0  0  0  0  0  0  0  0  0  0  0
    3.5024    3.5328    0.6907 C   0  0  0  0  0  0  0  0  0  0  0  0
    4.2463    3.8118    1.4647 H   0  0  0  0  0  0  0  0  0  0  0  0
    4.0680    3.4292   -0.2620 H   0  0  0  0  0  0  0  0  0  0  0  0
    2.8751    2.1747    1.0460 C   0  0  0  0  0  0  0  0  0  0  0  0
    2.4139    2.2359    2.0577 H   0  0  0  0  0  0  0  0  0  0  0  0
    3.6660    1.3996    1.1063 H   0  0  0  0  0  0  0  0  0  0  0  0
    2.3803   -1.0886    0.6236 C   0  0  0  0  0  0  0  0  0  0  0  0
    2.9631   -0.7029    1.4915 H   0  0  0  0  0  0  0  0  0  0  0  0
    1.8260   -2.4803    0.9771 C   0  0  0  0  0  0  0  0  0  0  0  0
    1.2116   -2.4311    1.9009 H   0  0  0  0  0  0  0  0  0  0  0  0
    1.1376   -2.8008    0.1629 H   0  0  0  0  0  0  0  0  0  0  0  0
    2.9513   -3.5097    1.1529 C   0  0  0  0  0  0  0  0  0  0  0  0
    3.5619   -3.2366    2.0421 H   0  0  0  0  0  0  0  0  0  0  0  0
    2.5141   -4.5058    1.3702 H   0  0  0  0  0  0  0  0  0  0  0  0
    3.8552   -3.5714   -0.0833 C   0  0  0  0  0  0  0  0  0  0  0  0
    4.6793   -4.2963    0.0756 H   0  0  0  0  0  0  0  0  0  0  0  0
    3.2681   -3.9519   -0.9495 H   0  0  0  0  0  0  0  0  0  0  0  0
    4.4192   -2.1877   -0.4229 C   0  0  0  0  0  0  0  0  0  0  0  0
    5.0436   -2.2305   -1.3388 H   0  0  0  0  0  0  0  0  0  0  0  0
    5.0920   -1.8517    0.3971 H   0  0  0  0  0  0  0  0  0  0  0  0
    3.3015   -1.1509   -0.6084 C   0  0  0  0  0  0  0  0  0  0  0  0
    3.7408   -0.1548   -0.8226 H   0  0  0  0  0  0  0  0  0  0  0  0
    2.6893   -1.4268   -1.4958 H   0  0  0  0  0  0  0  0  0  0  0  0
    0.1262    0.2812    2.0155 C   0  0  0  0  0  0  0  0  0  0  0  0
    0.4973   -0.4157    2.7933 H   0  0  0  0  0  0  0  0  0  0  0  0
    0.1400    1.3088    2.4258 H   0  0  0  0  0  0  0  0  0  0  0  0
  1  3  1  0  0  0  0
  1 57  1  0  0  0  0
  1 13  1  0  0  0  0
  2 40  1  0  0  0  0
  2 57  1  0  0  0  0
  3  4  1  0  0  0  0
  3  9  1  0  0  0  0
  5  6  1  0  0  0  0
  5  3  1  0  0  0  0
  7  5  1  0  0  0  0
  8  5  1  0  0  0  0
  9 10  1  0  0  0  0
  9 12  1  0  0  0  0
 11  9  1  0  0  0  0
 13 19  1  0  0  0  0
 14 13  1  0  0  0  0
 15 18  1  0  0  0  0
 15 16  1  0  0  0  0
 15 13  1  0  0  0  0
 17 15  1  0  0  0  0
 19 21  1  0  0  0  0
 19 22  1  0  0  0  0
 19 20  1  0  0  0  0
 23  2  1  0  0  0  0
 23 37  1  0  0  0  0
 24 23  1  0  0  0  0
 25 23  1  0  0  0  0
 25 27  1  0  0  0  0
 26 25  1  0  0  0  0
 28 25  1  0  0  0  0
 28 31  1  0  0  0  0
 29 28  1  0  0  0  0
 30 28  1  0  0  0  0
 31 34  1  0  0  0  0
 31 33  1  0  0  0  0
 32 31  1  0  0  0  0
 34 37  1  0  0  0  0
 34 35  1  0  0  0  0
 36 34  1  0  0  0  0
 37 39  1  0  0  0  0
 37 38  1  0  0  0  0
 40 42  1  0  0  0  0
 40 41  1  0  0  0  0
 42 45  1  0  0  0  0
 42 43  1  0  0  0  0
 44 42  1  0  0  0  0
 45 47  1  0  0  0  0
 45 46  1  0  0  0  0
 48 49  1  0  0  0  0
 48 45  1  0  0  0  0
 50 48  1  0  0  0  0
 51 48  1  0  0  0  0
 51 53  1  0  0  0  0
 52 51  1  0  0  0  0
 54 51  1  0  0  0  0
 54 40  1  0  0  0  0
 55 54  1  0  0  0  0
 56 54  1  0  0  0  0
 57 59  1  0  0  0  0
 57 58  1  0  0  0  0
M  END
