1,2
q = 0.0, confidence = 0.992

 64 68  0  0  0  0  0  0  0  0999 V2000
    0.2332    1.2344    0.2808 P   0  0  0  0  0  0  0  0  0  0  0  0
   -1.5692   -0.5947    0.0036 P   0  0  0  0  0  0  0  0  0  0  0  0
   -0.2247    0.0359   -0.9089 N   0  0  0  0  0  0  0  0  0  0  0  0
    1.9356    0.9281    0.8626 C   0  0  0  0  0  0  0  0  0  0  0  0
    2.1041    0.2765    2.1001 C   0  0  0  0  0  0  0  0  0  0  0  0
    1.2196    0.0812    2.7253 H   0  0  0  0  0  0  0  0  0  0  0  0
    3.3924   -0.0628    2.5358 C   0  0  0  0  0  0  0  0  0  0  0  0
    3.5255   -0.5647    3.5059 H   0  0  0  0  0  0  0  0  0  0  0  0
    4.5087    0.2500    1.7433 C   0  0  0  0  0  0  0  0  0  0  0  0
    5.5197   -0.0184    2.0869 H   0  0  0  0  0  0  0  0  0  0  0  0
    4.3409    0.9194    0.5195 C   0  0  0  0  0  0  0  0  0  0  0  0
    5.2152    1.1686   -0.1001 H   0  0  0  0  0  0  0  0  0  0  0  0
    3.0569    1.2678    0.0802 C   0  0  0  0  0  0  0  0  0  0  0  0
    2.9260    1.7934   -0.8770 H   0  0  0  0  0  0  0  0  0  0  0  0
    0.2831    2.8407   -0.5658 C   0  0  0  0  0  0  0  0  0  0  0  0
    0.8739    3.9342    0.1033 C   0  0  0  0  0  0  0  0  0  0  0  0
    1.3220    3.7853    1.0971 H   0  0  0  0  0  0  0  0  0  0  0  0
    0.8520    5.2033   -0.4901 C   0  0  0  0  0  0  0  0  0  0  0  0
    1.3089    6.0564    0.0337 H   0  0  0  0  0  0  0  0  0  0  0  0
    0.2423    5.3897   -1.7422 C   0  0  0  0  0  0  0  0  0  0  0  0
    0.2298    6.3883   -2.2047 H   0  0  0  0  0  0  0  0  0  0  0  0
   -0.3633    4.3056   -2.3977 C   0  0  0  0  0  0  0  0  0  0  0  0
   -0.8544    4.4523   -3.3716 H   0  0  0  0  0  0  0  0  0  0  0  0
   -0.3534    3.0337   -1.8073 C   0  0  0  0  0  0  0  0  0  0  0  0
   -0.8538    2.1871   -2.2992 H   0  0  0  0  0  0  0  0  0  0  0  0
   -3.0403   -0.5496   -1.0673 C   0  0  0  0  0  0  0  0  0  0  0  0
   -3.0136   -0.0448   -2.3817 C   0  0  0  0  0  0  0  0  0  0  0  0
   -2.0714    0.3233   -2.8128 H   0  0  0  0  0  0  0  0  0  0  0  0
   -4.1932   -0.0114   -3.1415 C   0  0  0  0  0  0  0  0  0  0  0  0
   -4.1687    0.3767   -4.1711 H   0  0  0  0  0  0  0  0  0  0  0  0
   -5.3999   -0.4665   -2.5876 C   0  0  0  0  0  0  0  0  0  0  0  0
   -6.3244   -0.4354   -3.1839 H   0  0  0  0  0  0  0  0  0  0  0  0
   -5.4300   -0.9505   -1.2683 C   0  0  0  0  0  0  0  0  0  0  0  0
   -6.3791   -1.2895   -0.8264 H   0  0  0  0  0  0  0  0  0  0  0  0
   -4.2570   -0.9940   -0.5040 C   0  0  0  0  0  0  0  0  0  0  0  0
   -4.2728   -1.3321    0.5447 H   0  0  0  0  0  0  0  0  0  0  0  0
   -1.2537   -2.3674    0.2992 C   0  0  0  0  0  0  0  0  0  0  0  0
   -1.3624   -3.3148   -0.7393 C   0  0  0  0  0  0  0  0  0  0  0  0
   -1.7729   -3.0189   -1.7174 H   0  0  0  0  0  0  0  0  0  0  0  0
   -0.9564   -4.6389   -0.5174 C   0  0  0  0  0  0  0  0  0  0  0  0
   -1.0310   -5.3781   -1.3292 H   0  0  0  0  0  0  0  0  0  0  0  0
   -0.4631   -5.0209    0.7412 C   0  0  0  0  0  0  0  0  0  0  0  0
   -0.1481   -6.0615    0.9129 H   0  0  0  0  0  0  0  0  0  0  0  0
   -0.3891   -4.0842    1.7858 C   0  0  0  0  0  0  0  0  0  0  0  0
   -0.0292   -4.3917    2.7793 H   0  0  0  0  0  0  0  0  0  0  0  0
   -0.7826   -2.7560    1.5697 C   0  0  0  0  0  0  0  0  0  0  0  0
   -0.7686   -2.0118    2.3810 H   0  0  0  0  0  0  0  0  0  0  0  0
    0.4521   -0.4852   -2.0966 C   0  0  0  0  0  0  0  0  0  0  0  0
    0.4929    0.3003   -2.8835 H   0  0  0  0  0  0  0  0  0  0  0  0
   -0.1948   -1.2941   -2.5008 H   0  0  0  0  0  0  0  0  0  0  0  0
    1.8511   -1.0200   -1.8598 C   0  0  0  0  0  0  0  0  0  0  0  0
    2.9035   -0.6555   -2.7157 C   0  0  0  0  0  0  0  0  0  0  0  0
    2.7048    0.0208   -3.5632 H   0  0  0  0  0  0  0  0  0  0  0  0
    4.2077   -1.1240   -2.4927 C   0  0  0  0  0  0  0  0  0  0  0  0
    5.0197   -0.8161   -3.1706 H   0  0  0  0  0  0  0  0  0  0  0  0
    4.4992   -1.9620   -1.4008 C   0  0  0  0  0  0  0  0  0  0  0  0
    3.4325   -2.3379   -0.5557 C   0  0  0  0  0  0  0  0  0  0  0  0
    3.6309   -2.9918    0.3082 H   0  0  0  0  0  0  0  0  0  0  0  0
    2.1315   -1.8810   -0.7803 C   0  0  0  0  0  0  0  0  0  0  0  0
    1.3263   -2.1727   -0.0913 H   0  0  0  0  0  0  0  0  0  0  0  0
    5.9059   -2.4141   -1.1058 C   0  0  0  0  0  0  0  0  0  0  0  0
    6.2966   -1.9086   -0.1961 H   0  0  0  0  0  0  0  0  0  0  0  0
    6.5968   -2.1845   -1.9401 H   0  0  0  0  0  0  0  0  0  0  0  0
    5.9521   -3.5047   -0.9093 H   0  0  0  0  0  0  0  0  0  0  0  0
  1  4  1  0  0  0  0
  2 37  1  0  0  0  0
  3  2  1  0  0  0  0
  3  1  1  0  0  0  0
  4  5  1  0  0  0  0
  5  7  2  0  0  0  0
  5  6  1  0  0  0  0
  7  8  1  0  0  0  0
  9 10  1  0  0  0  0
  9  7  1  0  0  0  0
 11  9  2  0  0  0  0
 12 11  1  0  0  0  0
 13 11  1  0  0  0  0
 13  4  2  0  0  0  0
 14 13  1  0  0  0  0
 15 16  1  0  0  0  0
 15  1  1  0  0  0  0
 16 17  1  0  0  0  0
 18 19  1  0  0  0  0
 18 16  2  0  0  0  0
 20 18  1  0  0  0  0
 21 20  1  0  0  0  0
 22 24  1  0  0  0  0
 22 20  2  0  0  0  0
 23 22  1  0  0  0  0
 24 15  2  0  0  0  0
 25 24  1  0  0  0  0
 26 35  1  0  0  0  0
 26  2  1  0  0  0  0
 27 26  2  0  0  0  0
 28 27  1  0  0  0  0
 29 31  2  0  0  0  0
 29 27  1  0  0  0  0
 30 29  1  0  0  0  0
 31 33  1  0  0  0  0
 32 31  1  0  0  0  0
 33 34  1  0  0  0  0
 33 35  2  0  0  0  0
 35 36  1  0  0  0  0
 37 46  1  0  0  0  0
 38 40  1  0  0  0  0
 38 37  2  0  0  0  0
 39 38  1  0  0  0  0
 40 42  2  0  0  0  0
 41 40  1  0  0  0  0
 42 43  1  0  0  0  0
 42 44  1  0  0  0  0
 44 45  1  0  0  0  0
 46 44  2  0  0  0  0
 46 47  1  0  0  0  0
 48 51  1  0  0  0  0
 48  3  1  0  0  0  0
 49 48  1  0  0  0  0
 50 48  1  0  0  0  0
 51 59  1  0  0  0  0
 52 54  1  0  0  0  0
 52 51  2  0  0  0  0
 53 52  1  0  0  0  0
 54 56  2  0  0  0  0
 55 54  1  0  0  0  0
 56 61  1  0  0  0  0
 56 57  1  0  0  0  0
 57 58  1  0  0  0  0
 59 57  2  0  0  0  0
 59 60  1  0  0  0  0
 61 64  1  0  0  0  0
 61 62  1  0  0  0  0
 63 61  1  0  0  0  0
M  END
