1,2
q = 0.0, confidence = 0.994

 60 64  0  0  0  0  0  0  0  0999 V2000
    1.5790   -0.0036   -0.1038 P   0  0  0  0  0  0  0  0  0  0  0  0
   -1.5666   -0.1206   -0.0961 P   0  0  0  0  0  0  0  0  0  0  0  0
    0.6920    0.0590    1.4856 C   0  0  0  0  0  0  0  0  0  0  0  0
    1.1047    0.2942    2.7919 N   0  0  0  0  0  0  0  0  0  0  0  0
   -0.0144    0.3326    3.6514 C   0  0  0  0  0  0  0  0  0  0  0  0
   -1.1209    0.1273    2.8011 N   0  0  0  0  0  0  0  0  0  0  0  0
   -0.6871   -0.0353    1.4899 C   0  0  0  0  0  0  0  0  0  0  0  0
    2.4441    0.5634    3.2750 C   0  0  0  0  0  0  0  0  0  0  0  0
    2.3720    0.6715    4.3737 H   0  0  0  0  0  0  0  0  0  0  0  0
    2.8437    1.4994    2.8349 H   0  0  0  0  0  0  0  0  0  0  0  0
    3.1332   -0.2681    3.0272 H   0  0  0  0  0  0  0  0  0  0  0  0
   -0.0220    0.5038    4.8630 O   0  0  0  0  0  0  0  0  0  0  0  0
   -2.4736    0.0297    3.3116 C   0  0  0  0  0  0  0  0  0  0  0  0
   -3.1474    0.7325    2.7824 H   0  0  0  0  0  0  0  0  0  0  0  0
   -2.4311    0.2903    4.3860 H   0  0  0  0  0  0  0  0  0  0  0  0
   -2.8729   -0.9979    3.1938 H   0  0  0  0  0  0  0  0  0  0  0  0
    2.8702   -1.2925    0.1217 C   0  0  0  0  0  0  0  0  0  0  0  0
    2.7864   -2.2342    1.1668 C   0  0  0  0  0  0  0  0  0  0  0  0
    1.9837   -2.1542    1.9155 H   0  0  0  0  0  0  0  0  0  0  0  0
    3.7099   -3.2879    1.2459 C   0  0  0  0  0  0  0  0  0  0  0  0
    3.6326   -4.0180    2.0658 H   0  0  0  0  0  0  0  0  0  0  0  0
    4.7205   -3.4151    0.2813 C   0  0  0  0  0  0  0  0  0  0  0  0
    5.4432   -4.2424    0.3442 H   0  0  0  0  0  0  0  0  0  0  0  0
    4.7951   -2.4930   -0.7754 C   0  0  0  0  0  0  0  0  0  0  0  0
    5.5714   -2.5986   -1.5481 H   0  0  0  0  0  0  0  0  0  0  0  0
    3.8706   -1.4428   -0.8636 C   0  0  0  0  0  0  0  0  0  0  0  0
    3.9167   -0.7511   -1.7179 H   0  0  0  0  0  0  0  0  0  0  0  0
    2.4786    1.6130   -0.0450 C   0  0  0  0  0  0  0  0  0  0  0  0
    3.8784    1.7377    0.0414 C   0  0  0  0  0  0  0  0  0  0  0  0
    4.5133    0.8405    0.0661 H   0  0  0  0  0  0  0  0  0  0  0  0
    4.4683    3.0103    0.1140 C   0  0  0  0  0  0  0  0  0  0  0  0
    5.5636    3.0975    0.1795 H   0  0  0  0  0  0  0  0  0  0  0  0
    3.6691    4.1633    0.1094 C   0  0  0  0  0  0  0  0  0  0  0  0
    4.1350    5.1587    0.1666 H   0  0  0  0  0  0  0  0  0  0  0  0
    2.2714    4.0422    0.0329 C   0  0  0  0  0  0  0  0  0  0  0  0
    1.6357    4.9404    0.0302 H   0  0  0  0  0  0  0  0  0  0  0  0
    1.6785    2.7757   -0.0477 C   0  0  0  0  0  0  0  0  0  0  0  0
    0.5826    2.6891   -0.1045 H   0  0  0  0  0  0  0  0  0  0  0  0
   -2.9107   -1.3362    0.2667 C   0  0  0  0  0  0  0  0  0  0  0  0
   -4.2795   -1.0436    0.1177 C   0  0  0  0  0  0  0  0  0  0  0  0
   -4.5985   -0.0469   -0.2191 H   0  0  0  0  0  0  0  0  0  0  0  0
   -5.2456   -2.0183    0.4152 C   0  0  0  0  0  0  0  0  0  0  0  0
   -6.3130   -1.7782    0.2953 H   0  0  0  0  0  0  0  0  0  0  0  0
   -4.8555   -3.2873    0.8677 C   0  0  0  0  0  0  0  0  0  0  0  0
   -5.6150   -4.0486    1.1015 H   0  0  0  0  0  0  0  0  0  0  0  0
   -3.4905   -3.5827    1.0207 C   0  0  0  0  0  0  0  0  0  0  0  0
   -3.1749   -4.5759    1.3743 H   0  0  0  0  0  0  0  0  0  0  0  0
   -2.5221   -2.6160    0.7181 C   0  0  0  0  0  0  0  0  0  0  0  0
   -1.4560   -2.8577    0.8398 H   0  0  0  0  0  0  0  0  0  0  0  0
   -2.4323    1.5014   -0.2259 C   0  0  0  0  0  0  0  0  0  0  0  0
   -2.2423    2.5322    0.7163 C   0  0  0  0  0  0  0  0  0  0  0  0
   -1.6229    2.3578    1.6084 H   0  0  0  0  0  0  0  0  0  0  0  0
   -2.8269    3.7929    0.5123 C   0  0  0  0  0  0  0  0  0  0  0  0
   -2.6678    4.5913    1.2530 H   0  0  0  0  0  0  0  0  0  0  0  0
   -3.6069    4.0341   -0.6282 C   0  0  0  0  0  0  0  0  0  0  0  0
   -4.0632    5.0228   -0.7865 H   0  0  0  0  0  0  0  0  0  0  0  0
   -3.7913    3.0132   -1.5753 C   0  0  0  0  0  0  0  0  0  0  0  0
   -4.3872    3.2004   -2.4812 H   0  0  0  0  0  0  0  0  0  0  0  0
   -3.2001    1.7571   -1.3835 C   0  0  0  0  0  0  0  0  0  0  0  0
   -3.3181    0.9763   -2.1510 H   0  0  0  0  0  0  0  0  0  0  0  0
  1 28  1  0  0  0  0
  1 17  1  0  0  0  0
  1  3  1  0  0  0  0
  2 39  1  0  0  0  0
  2  7  1  0  0  0  0
  3  7  2  0  0  0  0
  3  4  1  0  0  0  0
  4  8  1  0  0  0  0
  4  5  1  0  0  0  0
  5 12  2  0  0  0  0
  6 13  1  0  0  0  0
  6  5  1  0  0  0  0
  7  6  1  0  0  0  0
  8  9  1  0  0  0  0
 10  8  1  0  0  0  0
 11  8  1  0  0  0  0
 13 15  1  0  0  0  0
 14 13  1  0  0  0  0
 16 13  1  0  0  0  0
 17 18  1  0  0  0  0
 18 20  2  0  0  0  0
 18 19  1  0  0  0  0
 20 21  1  0  0  0  0
 22 23  1  0  0  0  0
 22 20  1  0  0  0  0
 24 22  2  0  0  0  0
 25 24  1  0  0  0  0
 26 24  1  0  0  0  0
 26 17  2  0  0  0  0
 27 26  1  0  0  0  0
 28 29  1  0  0  0  0
 29 30  1  0  0  0  0
 29 31  2  0  0  0  0
 31 32  1  0  0  0  0
 33 31  1  0  0  0  0
 33 34  1  0  0  0  0
 35 33  2  0  0  0  0
 36 35  1  0  0  0  0
 37 28  2  0  0  0  0
 37 35  1  0  0  0  0
 38 37  1  0  0  0  0
 39 48  1  0  0  0  0
 40 39  2  0  0  0  0
 40 42  1  0  0  0  0
 41 40  1  0  0  0  0
 42 44  2  0  0  0  0
 43 42  1  0  0  0  0
 44 46  1  0  0  0  0
 44 45  1  0  0  0  0
 46 47  1  0  0  0  0
 48 49  1  0  0  0  0
 48 46  2  0  0  0  0
 50  2  1  0  0  0  0
 50 51  1  0  0  0  0
 51 52  1  0  0  0  0
 53 51  2  0  0  0  0
 53 54  1  0  0  0  0
 55 53  1  0  0  0  0
 56 55  1  0  0  0  0
 57 59  1  0  0  0  0
 57 55  2  0  0  0  0
 58 57  1  0  0  0  0
 59 50  2  0  0  0  0
 60 59  1  0  0  0  0
M  END
