1,2
q = 0.0, confidence = 0.988

 61 65  0  0  0  0  0  0  0  0999 V2000
    1.6769    0.5542    0.3436 P   0  0  0  0  0  0  0  0  0  0  0  0
   -1.3685   -0.5679    0.0269 P   0  0  0  0  0  0  0  0  0  0  0  0
    0.6346    2.0049    0.6710 C   0  0  0  0  0  0  0  0  0  0  0  0
   -0.6928    1.9252    0.9808 C   0  0  0  0  0  0  0  0  0  0  0  0
   -1.3200    0.7238    1.1832 O   0  0  0  0  0  0  0  0  0  0  0  0
    3.3201    1.3322    0.0277 C   0  0  0  0  0  0  0  0  0  0  0  0
    4.3404    1.3516    0.9982 C   0  0  0  0  0  0  0  0  0  0  0  0
    5.5727    1.9588    0.7087 C   0  0  0  0  0  0  0  0  0  0  0  0
    5.7909    2.5551   -0.5427 C   0  0  0  0  0  0  0  0  0  0  0  0
    4.7739    2.5396   -1.5112 C   0  0  0  0  0  0  0  0  0  0  0  0
    3.5459    1.9238   -1.2322 C   0  0  0  0  0  0  0  0  0  0  0  0
    1.8801   -0.2538    1.9907 C   0  0  0  0  0  0  0  0  0  0  0  0
    1.5020    0.3904    3.1850 C   0  0  0  0  0  0  0  0  0  0  0  0
    1.6422   -0.2693    4.4159 C   0  0  0  0  0  0  0  0  0  0  0  0
    2.1664   -1.5709    4.4634 C   0  0  0  0  0  0  0  0  0  0  0  0
    2.5606   -2.2092    3.2762 C   0  0  0  0  0  0  0  0  0  0  0  0
    2.4181   -1.5547    2.0447 C   0  0  0  0  0  0  0  0  0  0  0  0
   -3.0803   -0.3121   -0.5913 C   0  0  0  0  0  0  0  0  0  0  0  0
   -4.1901   -0.5513    0.2485 C   0  0  0  0  0  0  0  0  0  0  0  0
   -5.4846   -0.2571   -0.2004 C   0  0  0  0  0  0  0  0  0  0  0  0
   -5.6807    0.2760   -1.4863 C   0  0  0  0  0  0  0  0  0  0  0  0
   -4.5802    0.5110   -2.3249 C   0  0  0  0  0  0  0  0  0  0  0  0
   -3.2823    0.2173   -1.8807 C   0  0  0  0  0  0  0  0  0  0  0  0
   -1.5647   -1.9342    1.2296 C   0  0  0  0  0  0  0  0  0  0  0  0
   -1.2665   -1.7839    2.5957 C   0  0  0  0  0  0  0  0  0  0  0  0
   -1.3266   -2.8974    3.4485 C   0  0  0  0  0  0  0  0  0  0  0  0
   -1.6918   -4.1553    2.9464 C   0  0  0  0  0  0  0  0  0  0  0  0
   -1.9991   -4.3031    1.5830 C   0  0  0  0  0  0  0  0  0  0  0  0
   -1.9332   -3.1988    0.7241 C   0  0  0  0  0  0  0  0  0  0  0  0
   -1.5814    3.0964    1.1641 C   0  0  0  0  0  0  0  0  0  0  0  0
   -2.9836    2.9295    1.1023 C   0  0  0  0  0  0  0  0  0  0  0  0
   -3.8388    4.0312    1.2351 C   0  0  0  0  0  0  0  0  0  0  0  0
   -3.3139    5.3153    1.4462 C   0  0  0  0  0  0  0  0  0  0  0  0
   -1.9215    5.4897    1.5275 C   0  0  0  0  0  0  0  0  0  0  0  0
   -1.0638    4.3926    1.3922 C   0  0  0  0  0  0  0  0  0  0  0  0
    1.0811    2.9904    0.4790 H   0  0  0  0  0  0  0  0  0  0  0  0
    4.1730    0.8881    1.9818 H   0  0  0  0  0  0  0  0  0  0  0  0
    6.3679    1.9647    1.4697 H   0  0  0  0  0  0  0  0  0  0  0  0
    6.7588    3.0285   -0.7671 H   0  0  0  0  0  0  0  0  0  0  0  0
    4.9405    2.9990   -2.4971 H   0  0  0  0  0  0  0  0  0  0  0  0
    2.7579    1.8946   -1.9999 H   0  0  0  0  0  0  0  0  0  0  0  0
    1.0830    1.4071    3.1444 H   0  0  0  0  0  0  0  0  0  0  0  0
    1.3363    0.2379    5.3438 H   0  0  0  0  0  0  0  0  0  0  0  0
    2.2685   -2.0899    5.4287 H   0  0  0  0  0  0  0  0  0  0  0  0
    2.9716   -3.2294    3.3052 H   0  0  0  0  0  0  0  0  0  0  0  0
    2.7193   -2.0617    1.1170 H   0  0  0  0  0  0  0  0  0  0  0  0
   -4.0336   -0.9675    1.2554 H   0  0  0  0  0  0  0  0  0  0  0  0
   -6.3475   -0.4471    0.4560 H   0  0  0  0  0  0  0  0  0  0  0  0
   -6.6987    0.5042   -1.8373 H   0  0  0  0  0  0  0  0  0  0  0  0
   -4.7304    0.9238   -3.3337 H   0  0  0  0  0  0  0  0  0  0  0  0
   -2.4174    0.3989   -2.5347 H   0  0  0  0  0  0  0  0  0  0  0  0
   -0.9791   -0.7985    2.9848 H   0  0  0  0  0  0  0  0  0  0  0  0
   -1.0794   -2.7754    4.5140 H   0  0  0  0  0  0  0  0  0  0  0  0
   -1.7345   -5.0268    3.6173 H   0  0  0  0  0  0  0  0  0  0  0  0
   -2.2840   -5.2880    1.1833 H   0  0  0  0  0  0  0  0  0  0  0  0
   -2.1556   -3.3198   -0.3483 H   0  0  0  0  0  0  0  0  0  0  0  0
   -3.3960    1.9258    0.9358 H   0  0  0  0  0  0  0  0  0  0  0  0
   -4.9274    3.8815    1.1719 H   0  0  0  0  0  0  0  0  0  0  0  0
   -3.9865    6.1795    1.5549 H   0  0  0  0  0  0  0  0  0  0  0  0
   -1.5003    6.4905    1.7072 H   0  0  0  0  0  0  0  0  0  0  0  0
    0.0224    4.5408    1.4825 H   0  0  0  0  0  0  0  0  0  0  0  0
  1  3  1  0  0  0  0
  1 12  1  0  0  0  0
  2  5  1  0  0  0  0
  2 24  1  0  0  0  0
  3  4  2  0  0  0  0
  4 30  1  0  0  0  0
  4  5  1  0  0  0  0
  6  1  1  0  0  0  0
  6  7  1  0  0  0  0
  7 37  1  0  0  0  0
  8  7  2  0  0  0  0
  8 38  1  0  0  0  0
  9  8  1  0  0  0  0
 10 11  1  0  0  0  0
 10  9  2  0  0  0  0
 11  6  2  0  0  0  0
 12 17  2  0  0  0  0
 12 13  1  0  0  0  0
 13 14  2  0  0  0  0
 14 15  1  0  0  0  0
 14 43  1  0  0  0  0
 15 44  1  0  0  0  0
 16 45  1  0  0  0  0
 16 15  2  0  0  0  0
 17 16  1  0  0  0  0
 18  2  1  0  0  0  0
 18 19  1  0  0  0  0
 19 47  1  0  0  0  0
 20 19  2  0  0  0  0
 20 48  1  0  0  0  0
 21 20  1  0  0  0  0
 22 23  1  0  0  0  0
 22 21  2  0  0  0  0
 23 18  2  0  0  0  0
 24 25  1  0  0  0  0
 25 52  1  0  0  0  0
 25 26  2  0  0  0  0
 26 53  1  0  0  0  0
 27 26  1  0  0  0  0
 27 54  1  0  0  0  0
 28 27  2  0  0  0  0
 29 24  2  0  0  0  0
 29 28  1  0  0  0  0
 30 35  1  0  0  0  0
 31 30  2  0  0  0  0
 31 32  1  0  0  0  0
 32 33  2  0  0  0  0
 33 34  1  0  0  0  0
 33 59  1  0  0  0  0
 34 60  1  0  0  0  0
 35 61  1  0  0  0  0
 35 34  2  0  0  0  0
 36  3  1  0  0  0  0
 39  9  1  0  0  0  0
 40 10  1  0  0  0  0
 41 11  1  0  0  0  0
 42 13  1  0  0  0  0
 46 17  1  0  0  0  0
 49 21  1  0  0  0  0
 50 22  1  0  0  0  0
 51 23  1  0  0  0  0
 55 28  1  0  0  0  0
 56 29  1  0  0  0  0
 57 31  1  0  0  0  0
 58 32  1  0  0  0  0
M  END
