1,4
q = 0.0, confidence = 0.992

 60 64  0  0  0  0  0  0  0  0999 V2000
   -1.3259   -0.6876   -0.4230 P   0  0  0  0  0  0  0  0  0  0  0  0
   -0.9459    0.5389    1.4428 P   0  0  2  0  0  0  0  0  0  0  0  0
    0.4635    1.2991    0.9897 O   0  0  0  0  0  0  0  0  0  0  0  0
    1.7328    0.3314    0.3388 P   0  0  0  0  0  0  0  0  0  0  0  0
   -0.8794   -0.3524    2.6570 O   0  0  0  0  0  0  0  0  0  0  0  0
   -2.7865   -1.6361    0.1610 C   0  0  0  0  0  0  0  0  0  0  0  0
   -2.7620   -3.0420    0.0939 C   0  0  0  0  0  0  0  0  0  0  0  0
   -3.8466   -3.7907    0.5763 C   0  0  0  0  0  0  0  0  0  0  0  0
   -4.9580   -3.1423    1.1345 C   0  0  0  0  0  0  0  0  0  0  0  0
   -4.9859   -1.7396    1.2097 C   0  0  0  0  0  0  0  0  0  0  0  0
   -3.9074   -0.9872    0.7264 C   0  0  0  0  0  0  0  0  0  0  0  0
   -1.9632    0.5341   -1.6467 C   0  0  0  0  0  0  0  0  0  0  0  0
   -3.2975    0.5507   -2.0990 C   0  0  0  0  0  0  0  0  0  0  0  0
   -3.7107    1.5093   -3.0383 C   0  0  0  0  0  0  0  0  0  0  0  0
   -2.8030    2.4578   -3.5330 C   0  0  0  0  0  0  0  0  0  0  0  0
   -1.4683    2.4364   -3.0953 C   0  0  0  0  0  0  0  0  0  0  0  0
   -1.0490    1.4767   -2.1657 C   0  0  0  0  0  0  0  0  0  0  0  0
   -2.0601    1.9590    1.6350 C   0  0  0  0  0  0  0  0  0  0  0  0
   -2.9181    1.9249    2.7540 C   0  0  0  0  0  0  0  0  0  0  0  0
   -3.8504    2.9544    2.9465 C   0  0  0  0  0  0  0  0  0  0  0  0
   -3.9294    4.0128    2.0266 C   0  0  0  0  0  0  0  0  0  0  0  0
   -3.0691    4.0488    0.9162 C   0  0  0  0  0  0  0  0  0  0  0  0
   -2.1308    3.0266    0.7170 C   0  0  0  0  0  0  0  0  0  0  0  0
    2.4942    1.6298   -0.7141 C   0  0  0  0  0  0  0  0  0  0  0  0
    2.0300    2.9601   -0.7304 C   0  0  0  0  0  0  0  0  0  0  0  0
    2.6308    3.8993   -1.5842 C   0  0  0  0  0  0  0  0  0  0  0  0
    3.6953    3.5197   -2.4160 C   0  0  0  0  0  0  0  0  0  0  0  0
    4.1621    2.1947   -2.3954 C   0  0  0  0  0  0  0  0  0  0  0  0
    3.5625    1.2499   -1.5521 C   0  0  0  0  0  0  0  0  0  0  0  0
    2.8645    0.2751    1.7816 C   0  0  0  0  0  0  0  0  0  0  0  0
    3.1991    1.4652    2.4620 C   0  0  0  0  0  0  0  0  0  0  0  0
    4.0502    1.4186    3.5726 C   0  0  0  0  0  0  0  0  0  0  0  0
    4.5795    0.1895    4.0042 C   0  0  0  0  0  0  0  0  0  0  0  0
    4.2520   -0.9936    3.3260 C   0  0  0  0  0  0  0  0  0  0  0  0
    3.3912   -0.9537    2.2181 C   0  0  0  0  0  0  0  0  0  0  0  0
   -1.8869   -3.5511   -0.3325 H   0  0  0  0  0  0  0  0  0  0  0  0
   -3.8163   -4.8890    0.5188 H   0  0  0  0  0  0  0  0  0  0  0  0
   -5.8052   -3.7311    1.5178 H   0  0  0  0  0  0  0  0  0  0  0  0
   -5.8516   -1.2258    1.6544 H   0  0  0  0  0  0  0  0  0  0  0  0
   -3.9380    0.1105    0.7964 H   0  0  0  0  0  0  0  0  0  0  0  0
   -4.0177   -0.1902   -1.7241 H   0  0  0  0  0  0  0  0  0  0  0  0
   -4.7545    1.5092   -3.3875 H   0  0  0  0  0  0  0  0  0  0  0  0
   -3.1324    3.2066   -4.2692 H   0  0  0  0  0  0  0  0  0  0  0  0
   -0.7401    3.1642   -3.4845 H   0  0  0  0  0  0  0  0  0  0  0  0
   -0.0001    1.4669   -1.8380 H   0  0  0  0  0  0  0  0  0  0  0  0
   -2.8333    1.0843    3.4597 H   0  0  0  0  0  0  0  0  0  0  0  0
   -4.5175    2.9316    3.8216 H   0  0  0  0  0  0  0  0  0  0  0  0
   -4.6651    4.8177    2.1769 H   0  0  0  0  0  0  0  0  0  0  0  0
   -3.1286    4.8799    0.1973 H   0  0  0  0  0  0  0  0  0  0  0  0
   -1.4632    3.0548   -0.1547 H   0  0  0  0  0  0  0  0  0  0  0  0
    1.1945    3.2503   -0.0771 H   0  0  0  0  0  0  0  0  0  0  0  0
    2.2625    4.9366   -1.5970 H   0  0  0  0  0  0  0  0  0  0  0  0
    4.1620    4.2575   -3.0860 H   0  0  0  0  0  0  0  0  0  0  0  0
    4.9939    1.8910   -3.0485 H   0  0  0  0  0  0  0  0  0  0  0  0
    3.9188    0.2079   -1.5504 H   0  0  0  0  0  0  0  0  0  0  0  0
    2.7880    2.4273    2.1210 H   0  0  0  0  0  0  0  0  0  0  0  0
    4.3054    2.3471    4.1055 H   0  0  0  0  0  0  0  0  0  0  0  0
    5.2509    0.1564    4.8758 H   0  0  0  0  0  0  0  0  0  0  0  0
    4.6620   -1.9576    3.6624 H   0  0  0  0  0  0  0  0  0  0  0  0
    3.1252   -1.8797    1.6896 H   0  0  0  0  0  0  0  0  0  0  0  0
  1  6  1  0  0  0  0
  1  2  1  0  0  0  0
  2 18  1  0  0  0  0
  2  5  2  1  0  0  0
  3  2  1  0  0  0  0
  4  3  1  0  0  0  0
  4 30  1  0  0  0  0
  6 11  1  0  0  0  0
  7  6  2  0  0  0  0
  7  8  1  0  0  0  0
  8  9  2  0  0  0  0
  9 10  1  0  0  0  0
  9 38  1  0  0  0  0
 10 39  1  0  0  0  0
 11 40  1  0  0  0  0
 11 10  2  0  0  0  0
 12  1  1  0  0  0  0
 13 41  1  0  0  0  0
 13 12  1  0  0  0  0
 14 13  2  0  0  0  0
 15 16  2  0  0  0  0
 15 14  1  0  0  0  0
 16 17  1  0  0  0  0
 17 45  1  0  0  0  0
 17 12  2  0  0  0  0
 18 19  1  0  0  0  0
 19 20  2  0  0  0  0
 19 46  1  0  0  0  0
 20 47  1  0  0  0  0
 21 48  1  0  0  0  0
 21 20  1  0  0  0  0
 22 21  2  0  0  0  0
 23 22  1  0  0  0  0
 23 18  2  0  0  0  0
 24  4  1  0  0  0  0
 25 24  1  0  0  0  0
 25 51  1  0  0  0  0
 26 25  2  0  0  0  0
 27 28  2  0  0  0  0
 27 26  1  0  0  0  0
 28 29  1  0  0  0  0
 29 55  1  0  0  0  0
 29 24  2  0  0  0  0
 30 35  2  0  0  0  0
 30 31  1  0  0  0  0
 31 32  2  0  0  0  0
 32 33  1  0  0  0  0
 32 57  1  0  0  0  0
 33 58  1  0  0  0  0
 34 59  1  0  0  0  0
 34 33  2  0  0  0  0
 35 34  1  0  0  0  0
 36  7  1  0  0  0  0
 37  8  1  0  0  0  0
 42 14  1  0  0  0  0
 43 15  1  0  0  0  0
 44 16  1  0  0  0  0
 49 22  1  0  0  0  0
 50 23  1  0  0  0  0
 52 26  1  0  0  0  0
 53 27  1  0  0  0  0
 54 28  1  0  0  0  0
 56 31  1  0  0  0  0
 60 35  1  0  0  0  0
M  END
