9,10
q = 0.0, confidence = 0.996

 62 66  0  0  0  0  0  0  0  0999 V2000
   -1.6957   -0.6212   -2.3144 C   0  0  0  0  0  0  0  0  0  0  0  0
   -0.8691   -1.8785   -2.2280 C   0  0  0  0  0  0  0  0  0  0  0  0
    0.5517   -1.8489   -2.2629 C   0  0  0  0  0  0  0  0  0  0  0  0
    1.3175   -0.5575   -2.3858 C   0  0  0  0  0  0  0  0  0  0  0  0
    1.2632   -3.0611   -2.1444 C   0  0  0  0  0  0  0  0  0  0  0  0
    0.5991   -4.2833   -1.9780 C   0  0  0  0  0  0  0  0  0  0  0  0
   -0.8025   -4.3117   -1.9355 C   0  0  0  0  0  0  0  0  0  0  0  0
   -1.5232   -3.1174   -2.0644 C   0  0  0  0  0  0  0  0  0  0  0  0
   -1.8952    0.1452   -0.6109 P   0  0  0  0  0  0  0  0  0  0  0  0
    1.7489    0.1447   -0.6986 P   0  0  0  0  0  0  0  0  0  0  0  0
   -2.8552    1.6823   -0.9325 C   0  0  0  0  0  0  0  0  0  0  0  0
   -2.9095    2.6340    0.1094 C   0  0  0  0  0  0  0  0  0  0  0  0
   -3.6276    3.8258   -0.0579 C   0  0  0  0  0  0  0  0  0  0  0  0
   -4.2863    4.0899   -1.2702 C   0  0  0  0  0  0  0  0  0  0  0  0
   -4.2257    3.1552   -2.3149 C   0  0  0  0  0  0  0  0  0  0  0  0
   -3.5162    1.9548   -2.1484 C   0  0  0  0  0  0  0  0  0  0  0  0
    3.0372   -1.0468   -0.1484 C   0  0  0  0  0  0  0  0  0  0  0  0
    4.3218   -1.0620   -0.7277 C   0  0  0  0  0  0  0  0  0  0  0  0
    5.2476   -2.0478   -0.3558 C   0  0  0  0  0  0  0  0  0  0  0  0
    4.8956   -3.0217    0.5943 C   0  0  0  0  0  0  0  0  0  0  0  0
    3.6191   -3.0045    1.1774 C   0  0  0  0  0  0  0  0  0  0  0  0
    2.6929   -2.0166    0.8118 C   0  0  0  0  0  0  0  0  0  0  0  0
   -3.1357   -1.0098    0.1167 C   0  0  0  0  0  0  0  0  0  0  0  0
   -2.6738   -2.0214    0.9824 C   0  0  0  0  0  0  0  0  0  0  0  0
   -3.5682   -2.9739    1.4937 C   0  0  0  0  0  0  0  0  0  0  0  0
   -4.9290   -2.9152    1.1546 C   0  0  0  0  0  0  0  0  0  0  0  0
   -5.3960   -1.9002    0.3024 C   0  0  0  0  0  0  0  0  0  0  0  0
   -4.5036   -0.9508   -0.2174 C   0  0  0  0  0  0  0  0  0  0  0  0
    2.7026    1.6631   -1.1040 C   0  0  0  0  0  0  0  0  0  0  0  0
    3.4765    2.2425   -0.0726 C   0  0  0  0  0  0  0  0  0  0  0  0
    4.1805    3.4308   -0.3049 C   0  0  0  0  0  0  0  0  0  0  0  0
    4.1211    4.0590   -1.5607 C   0  0  0  0  0  0  0  0  0  0  0  0
    3.3492    3.4920   -2.5852 C   0  0  0  0  0  0  0  0  0  0  0  0
    2.6417    2.2998   -2.3606 C   0  0  0  0  0  0  0  0  0  0  0  0
   -2.3709    2.4337    1.0504 H   0  0  0  0  0  0  0  0  0  0  0  0
   -3.6634    4.5587    0.7624 H   0  0  0  0  0  0  0  0  0  0  0  0
   -4.8429    5.0300   -1.4034 H   0  0  0  0  0  0  0  0  0  0  0  0
   -4.7356    3.3590   -3.2690 H   0  0  0  0  0  0  0  0  0  0  0  0
   -3.4846    1.2330   -2.9779 H   0  0  0  0  0  0  0  0  0  0  0  0
    4.6015   -0.2938   -1.4659 H   0  0  0  0  0  0  0  0  0  0  0  0
    6.2517   -2.0537   -0.8069 H   0  0  0  0  0  0  0  0  0  0  0  0
    5.6248   -3.7928    0.8866 H   0  0  0  0  0  0  0  0  0  0  0  0
    3.3441   -3.7586    1.9301 H   0  0  0  0  0  0  0  0  0  0  0  0
    1.6924   -1.9832    1.2711 H   0  0  0  0  0  0  0  0  0  0  0  0
   -1.2281    0.1511   -2.9581 H   0  0  0  0  0  0  0  0  0  0  0  0
   -2.7011   -0.8442   -2.7239 H   0  0  0  0  0  0  0  0  0  0  0  0
    2.3631   -3.0365   -2.1764 H   0  0  0  0  0  0  0  0  0  0  0  0
    1.1795   -5.2132   -1.8823 H   0  0  0  0  0  0  0  0  0  0  0  0
   -1.6082   -2.0476    1.2592 H   0  0  0  0  0  0  0  0  0  0  0  0
   -3.1989   -3.7614    2.1679 H   0  0  0  0  0  0  0  0  0  0  0  0
   -5.6317   -3.6578    1.5624 H   0  0  0  0  0  0  0  0  0  0  0  0
   -6.4647   -1.8444    0.0443 H   0  0  0  0  0  0  0  0  0  0  0  0
   -4.8748   -0.1526   -0.8793 H   0  0  0  0  0  0  0  0  0  0  0  0
    3.5108    1.7583    0.9181 H   0  0  0  0  0  0  0  0  0  0  0  0
    4.7789    3.8722    0.5066 H   0  0  0  0  0  0  0  0  0  0  0  0
    4.6758    4.9926   -1.7396 H   0  0  0  0  0  0  0  0  0  0  0  0
    3.2955    3.9781   -3.5713 H   0  0  0  0  0  0  0  0  0  0  0  0
    2.0428    1.8746   -3.1788 H   0  0  0  0  0  0  0  0  0  0  0  0
    2.2657   -0.7010   -2.9423 H   0  0  0  0  0  0  0  0  0  0  0  0
    0.7289    0.2196   -2.9108 H   0  0  0  0  0  0  0  0  0  0  0  0
   -1.3380   -5.2641   -1.8053 H   0  0  0  0  0  0  0  0  0  0  0  0
   -2.6235   -3.1360   -2.0330 H   0  0  0  0  0  0  0  0  0  0  0  0
  1  2  1  0  0  0  0
  1  9  1  0  0  0  0
  2  8  1  0  0  0  0
  3  2  2  0  0  0  0
  3  5  1  0  0  0  0
  4  3  1  0  0  0  0
  4 10  1  0  0  0  0
  5  6  2  0  0  0  0
  6  7  1  0  0  0  0
  6 48  1  0  0  0  0
  7 61  1  0  0  0  0
  8 62  1  0  0  0  0
  8  7  2  0  0  0  0
  9 23  1  0  0  0  0
 10 17  1  0  0  0  0
 11  9  1  0  0  0  0
 11 12  1  0  0  0  0
 12 35  1  0  0  0  0
 13 12  2  0  0  0  0
 13 36  1  0  0  0  0
 14 13  1  0  0  0  0
 15 16  1  0  0  0  0
 15 14  2  0  0  0  0
 16 11  2  0  0  0  0
 17 22  1  0  0  0  0
 18 19  1  0  0  0  0
 18 17  2  0  0  0  0
 19 20  2  0  0  0  0
 20 42  1  0  0  0  0
 20 21  1  0  0  0  0
 21 43  1  0  0  0  0
 22 21  2  0  0  0  0
 22 44  1  0  0  0  0
 23 24  1  0  0  0  0
 24 49  1  0  0  0  0
 24 25  2  0  0  0  0
 25 50  1  0  0  0  0
 26 25  1  0  0  0  0
 26 51  1  0  0  0  0
 27 26  2  0  0  0  0
 28 23  2  0  0  0  0
 28 27  1  0  0  0  0
 29 10  1  0  0  0  0
 29 30  1  0  0  0  0
 30 54  1  0  0  0  0
 31 30  2  0  0  0  0
 31 55  1  0  0  0  0
 32 31  1  0  0  0  0
 33 34  1  0  0  0  0
 33 32  2  0  0  0  0
 34 29  2  0  0  0  0
 37 14  1  0  0  0  0
 38 15  1  0  0  0  0
 39 16  1  0  0  0  0
 40 18  1  0  0  0  0
 41 19  1  0  0  0  0
 45  1  1  0  0  0  0
 46  1  1  0  0  0  0
 47  5  1  0  0  0  0
 52 27  1  0  0  0  0
 53 28  1  0  0  0  0
 56 32  1  0  0  0  0
 57 33  1  0  0  0  0
 58 34  1  0  0  0  0
 59  4  1  0  0  0  0
 60  4  1  0  0  0  0
M  END
