1,2
q = 0.0, confidence = 0.992

 62 65  0  0  0  0  0  0  0  0999 V2000
   -1.7733   -0.0751    0.6104 P   0  0  0  0  0  0  0  0  0  0  0  0
    1.6972    0.0383    0.4785 P   0  0  0  0  0  0  0  0  0  0  0  0
   -1.5136   -0.4793    2.2529 N   0  0  0  0  0  0  0  0  0  0  0  0
    1.3416    0.6490    2.0853 N   0  0  0  0  0  0  0  0  0  0  0  0
   -0.3168   -1.1918    2.6651 C   0  0  0  0  0  0  0  0  0  0  0  0
    0.0038   -1.8566    1.8356 H   0  0  0  0  0  0  0  0  0  0  0  0
   -0.5696   -1.8547    3.5208 H   0  0  0  0  0  0  0  0  0  0  0  0
    0.8391   -0.2925    3.0953 C   0  0  0  0  0  0  0  0  0  0  0  0
    0.5183    0.3277    3.9634 H   0  0  0  0  0  0  0  0  0  0  0  0
    1.6657   -0.9474    3.4750 H   0  0  0  0  0  0  0  0  0  0  0  0
   -2.5338   -0.2577    3.2639 C   0  0  0  0  0  0  0  0  0  0  0  0
   -3.0042   -1.2127    3.5956 H   0  0  0  0  0  0  0  0  0  0  0  0
   -3.3394    0.3901    2.8693 H   0  0  0  0  0  0  0  0  0  0  0  0
   -2.1122    0.2483    4.1612 H   0  0  0  0  0  0  0  0  0  0  0  0
    2.3345    1.5272    2.7012 C   0  0  0  0  0  0  0  0  0  0  0  0
    1.8460    2.1041    3.5158 H   0  0  0  0  0  0  0  0  0  0  0  0
    2.7382    2.2493    1.9693 H   0  0  0  0  0  0  0  0  0  0  0  0
    3.1890    0.9643    3.1493 H   0  0  0  0  0  0  0  0  0  0  0  0
   -1.9067    1.7675    0.6006 C   0  0  0  0  0  0  0  0  0  0  0  0
   -1.5115    2.5225    1.7217 C   0  0  0  0  0  0  0  0  0  0  0  0
   -1.1790    2.0012    2.6297 H   0  0  0  0  0  0  0  0  0  0  0  0
   -1.5033    3.9255    1.6647 C   0  0  0  0  0  0  0  0  0  0  0  0
   -1.1877    4.5055    2.5455 H   0  0  0  0  0  0  0  0  0  0  0  0
   -1.8860    4.5864    0.4868 C   0  0  0  0  0  0  0  0  0  0  0  0
   -1.8741    5.6860    0.4407 H   0  0  0  0  0  0  0  0  0  0  0  0
   -2.2798    3.8381   -0.6354 C   0  0  0  0  0  0  0  0  0  0  0  0
   -2.5706    4.3477   -1.5663 H   0  0  0  0  0  0  0  0  0  0  0  0
   -2.2893    2.4374   -0.5805 C   0  0  0  0  0  0  0  0  0  0  0  0
   -2.5788    1.8598   -1.4711 H   0  0  0  0  0  0  0  0  0  0  0  0
   -3.5112   -0.6432    0.3385 C   0  0  0  0  0  0  0  0  0  0  0  0
   -4.6205    0.2161    0.2220 C   0  0  0  0  0  0  0  0  0  0  0  0
   -4.4804    1.3064    0.2606 H   0  0  0  0  0  0  0  0  0  0  0  0
   -5.9107   -0.3155    0.0611 C   0  0  0  0  0  0  0  0  0  0  0  0
   -6.7713    0.3643   -0.0332 H   0  0  0  0  0  0  0  0  0  0  0  0
   -6.1032   -1.7044    0.0242 C   0  0  0  0  0  0  0  0  0  0  0  0
   -7.1148   -2.1183   -0.1045 H   0  0  0  0  0  0  0  0  0  0  0  0
   -5.0003   -2.5661    0.1511 C   0  0  0  0  0  0  0  0  0  0  0  0
   -5.1443   -3.6568    0.1198 H   0  0  0  0  0  0  0  0  0  0  0  0
   -3.7115   -2.0401    0.3057 C   0  0  0  0  0  0  0  0  0  0  0  0
   -2.8428   -2.7115    0.3966 H   0  0  0  0  0  0  0  0  0  0  0  0
    3.2143   -0.9797    0.7478 C   0  0  0  0  0  0  0  0  0  0  0  0
    3.0708   -2.3811    0.8171 C   0  0  0  0  0  0  0  0  0  0  0  0
    2.0889   -2.8272    0.5892 H   0  0  0  0  0  0  0  0  0  0  0  0
    4.1666   -3.1899    1.1539 C   0  0  0  0  0  0  0  0  0  0  0  0
    4.0445   -4.2829    1.1967 H   0  0  0  0  0  0  0  0  0  0  0  0
    5.4158   -2.6090    1.4220 C   0  0  0  0  0  0  0  0  0  0  0  0
    6.2771   -3.2445    1.6784 H   0  0  0  0  0  0  0  0  0  0  0  0
    5.5670   -1.2141    1.3555 C   0  0  0  0  0  0  0  0  0  0  0  0
    6.5466   -0.7548    1.5586 H   0  0  0  0  0  0  0  0  0  0  0  0
    4.4730   -0.4007    1.0251 C   0  0  0  0  0  0  0  0  0  0  0  0
    4.6048    0.6895    0.9612 H   0  0  0  0  0  0  0  0  0  0  0  0
    2.2785    1.5497   -0.3879 C   0  0  0  0  0  0  0  0  0  0  0  0
    1.5814    2.7649   -0.2216 C   0  0  0  0  0  0  0  0  0  0  0  0
    0.7769    2.8380    0.5242 H   0  0  0  0  0  0  0  0  0  0  0  0
    1.8895    3.8682   -1.0282 C   0  0  0  0  0  0  0  0  0  0  0  0
    1.3318    4.8071   -0.8916 H   0  0  0  0  0  0  0  0  0  0  0  0
    2.8844    3.7696   -2.0139 C   0  0  0  0  0  0  0  0  0  0  0  0
    3.1192    4.6350   -2.6519 H   0  0  0  0  0  0  0  0  0  0  0  0
    3.5661    2.5563   -2.1950 C   0  0  0  0  0  0  0  0  0  0  0  0
    4.3360    2.4659   -2.9762 H   0  0  0  0  0  0  0  0  0  0  0  0
    3.2655    1.4478   -1.3890 C   0  0  0  0  0  0  0  0  0  0  0  0
    3.7871    0.4931   -1.5548 H   0  0  0  0  0  0  0  0  0  0  0  0
  1  3  1  0  0  0  0
  2 41  1  0  0  0  0
  2  4  1  0  0  0  0
  3  5  1  0  0  0  0
  3 11  1  0  0  0  0
  4 15  1  0  0  0  0
  4  8  1  0  0  0  0
  5  8  1  0  0  0  0
  5  7  1  0  0  0  0
  6  5  1  0  0  0  0
  8 10  1  0  0  0  0
  8  9  1  0  0  0  0
 11 12  1  0  0  0  0
 11 14  1  0  0  0  0
 13 11  1  0  0  0  0
 15 18  1  0  0  0  0
 15 16  1  0  0  0  0
 17 15  1  0  0  0  0
 19  1  1  0  0  0  0
 19 20  1  0  0  0  0
 20 21  1  0  0  0  0
 22 20  2  0  0  0  0
 22 23  1  0  0  0  0
 24 22  1  0  0  0  0
 25 24  1  0  0  0  0
 26 28  1  0  0  0  0
 26 24  2  0  0  0  0
 27 26  1  0  0  0  0
 28 19  2  0  0  0  0
 29 28  1  0  0  0  0
 30  1  1  0  0  0  0
 31 32  1  0  0  0  0
 31 30  2  0  0  0  0
 33 31  1  0  0  0  0
 34 33  1  0  0  0  0
 35 33  2  0  0  0  0
 35 37  1  0  0  0  0
 36 35  1  0  0  0  0
 37 39  2  0  0  0  0
 38 37  1  0  0  0  0
 39 30  1  0  0  0  0
 39 40  1  0  0  0  0
 41 42  2  0  0  0  0
 41 50  1  0  0  0  0
 42 44  1  0  0  0  0
 43 42  1  0  0  0  0
 44 45  1  0  0  0  0
 44 46  2  0  0  0  0
 46 47  1  0  0  0  0
 48 46  1  0  0  0  0
 48 49  1  0  0  0  0
 50 48  2  0  0  0  0
 51 50  1  0  0  0  0
 52 53  1  0  0  0  0
 52  2  1  0  0  0  0
 53 54  1  0  0  0  0
 55 56  1  0  0  0  0
 55 53  2  0  0  0  0
 57 55  1  0  0  0  0
 58 57  1  0  0  0  0
 59 57  2  0  0  0  0
 59 61  1  0  0  0  0
 60 59  1  0  0  0  0
 61 52  2  0  0  0  0
 62 61  1  0  0  0  0
M  END
