1,2
q = 0.0, confidence = 0.996

 82 84  0  0  0  0  0  0  0  0999 V2000
    2.2292   -0.9494    0.0244 P   0  0  0  0  0  0  0  0  0  0  0  0
   -2.2196   -0.9558    0.0532 P   0  0  0  0  0  0  0  0  0  0  0  0
    0.0027    1.0518    0.1545 O   0  0  0  0  0  0  0  0  0  0  0  0
    1.2127    1.6972   -0.1109 C   0  0  0  0  0  0  0  0  0  0  0  0
    2.3730    0.8931   -0.2352 C   0  0  0  0  0  0  0  0  0  0  0  0
    3.5885    1.5608   -0.4949 C   0  0  0  0  0  0  0  0  0  0  0  0
    4.5141    0.9784   -0.5754 H   0  0  0  0  0  0  0  0  0  0  0  0
    3.6402    2.9512   -0.6520 C   0  0  0  0  0  0  0  0  0  0  0  0
    4.5980    3.4466   -0.8696 H   0  0  0  0  0  0  0  0  0  0  0  0
    2.4733    3.7125   -0.5075 C   0  0  0  0  0  0  0  0  0  0  0  0
    2.5270    4.8053   -0.6039 H   0  0  0  0  0  0  0  0  0  0  0  0
    1.2423    3.1031   -0.2070 C   0  0  0  0  0  0  0  0  0  0  0  0
   -0.0148    3.8958    0.1532 C   0  0  0  0  0  0  0  0  0  0  0  0
   -1.2370    3.0883   -0.2846 C   0  0  0  0  0  0  0  0  0  0  0  0
   -2.4466    3.6769   -0.6925 C   0  0  0  0  0  0  0  0  0  0  0  0
   -2.5020    4.7659   -0.8242 H   0  0  0  0  0  0  0  0  0  0  0  0
   -3.5912    2.8982   -0.9111 C   0  0  0  0  0  0  0  0  0  0  0  0
   -4.5293    3.3750   -1.2317 H   0  0  0  0  0  0  0  0  0  0  0  0
   -3.5456    1.5167   -0.6892 C   0  0  0  0  0  0  0  0  0  0  0  0
   -4.4569    0.9208   -0.8264 H   0  0  0  0  0  0  0  0  0  0  0  0
   -2.3519    0.8712   -0.3027 C   0  0  0  0  0  0  0  0  0  0  0  0
   -1.2030    1.6851   -0.1545 C   0  0  0  0  0  0  0  0  0  0  0  0
   -0.0046    5.3072   -0.4505 C   0  0  0  0  0  0  0  0  0  0  0  0
    0.0332    5.2799   -1.5572 H   0  0  0  0  0  0  0  0  0  0  0  0
    0.8637    5.8866   -0.0832 H   0  0  0  0  0  0  0  0  0  0  0  0
   -0.9050    5.8724   -0.1431 H   0  0  0  0  0  0  0  0  0  0  0  0
   -0.0652    4.0095    1.7044 C   0  0  0  0  0  0  0  0  0  0  0  0
   -0.9817    4.5478    2.0204 H   0  0  0  0  0  0  0  0  0  0  0  0
    0.8220    4.5598    2.0780 H   0  0  0  0  0  0  0  0  0  0  0  0
   -0.0732    3.0077    2.1775 H   0  0  0  0  0  0  0  0  0  0  0  0
    2.9624   -1.7346   -1.5709 C   0  0  0  0  0  0  0  0  0  0  0  0
    3.0043   -3.2550   -1.3353 C   0  0  0  0  0  0  0  0  0  0  0  0
    2.0428   -3.6196   -0.9207 H   0  0  0  0  0  0  0  0  0  0  0  0
    3.8211   -3.5479   -0.6456 H   0  0  0  0  0  0  0  0  0  0  0  0
    3.1867   -3.7713   -2.3021 H   0  0  0  0  0  0  0  0  0  0  0  0
    4.3352   -1.2381   -2.0481 C   0  0  0  0  0  0  0  0  0  0  0  0
    4.6381   -1.8301   -2.9390 H   0  0  0  0  0  0  0  0  0  0  0  0
    5.1311   -1.3593   -1.2897 H   0  0  0  0  0  0  0  0  0  0  0  0
    4.3033   -0.1780   -2.3637 H   0  0  0  0  0  0  0  0  0  0  0  0
    1.9146   -1.4197   -2.6554 C   0  0  0  0  0  0  0  0  0  0  0  0
    2.1941   -1.9313   -3.6021 H   0  0  0  0  0  0  0  0  0  0  0  0
    1.8550   -0.3306   -2.8580 H   0  0  0  0  0  0  0  0  0  0  0  0
    0.9077   -1.7582   -2.3311 H   0  0  0  0  0  0  0  0  0  0  0  0
    3.3246   -1.2731    1.5762 C   0  0  0  0  0  0  0  0  0  0  0  0
    2.9255   -2.6648    2.1051 C   0  0  0  0  0  0  0  0  0  0  0  0
    3.2417   -3.4799    1.4268 H   0  0  0  0  0  0  0  0  0  0  0  0
    1.8258   -2.7349    2.2268 H   0  0  0  0  0  0  0  0  0  0  0  0
    3.4126   -2.8368    3.0893 H   0  0  0  0  0  0  0  0  0  0  0  0
    4.8444   -1.2030    1.3862 C   0  0  0  0  0  0  0  0  0  0  0  0
    5.1811   -0.2178    1.0086 H   0  0  0  0  0  0  0  0  0  0  0  0
    5.2162   -1.9902    0.7013 H   0  0  0  0  0  0  0  0  0  0  0  0
    5.3444   -1.3627    2.3666 H   0  0  0  0  0  0  0  0  0  0  0  0
    2.8671   -0.2176    2.6006 C   0  0  0  0  0  0  0  0  0  0  0  0
    3.2896   -0.4629    3.5984 H   0  0  0  0  0  0  0  0  0  0  0  0
    1.7588   -0.2118    2.6847 H   0  0  0  0  0  0  0  0  0  0  0  0
    3.2009    0.8028    2.3271 H   0  0  0  0  0  0  0  0  0  0  0  0
   -3.0475   -1.8305   -1.4496 C   0  0  0  0  0  0  0  0  0  0  0  0
   -2.5360   -3.2850   -1.4313 C   0  0  0  0  0  0  0  0  0  0  0  0
   -2.9001   -3.8474   -0.5498 H   0  0  0  0  0  0  0  0  0  0  0  0
   -1.4288   -3.3087   -1.4082 H   0  0  0  0  0  0  0  0  0  0  0  0
   -2.8970   -3.8098   -2.3421 H   0  0  0  0  0  0  0  0  0  0  0  0
   -4.5820   -1.8386   -1.4933 C   0  0  0  0  0  0  0  0  0  0  0  0
   -5.0227   -0.8236   -1.5221 H   0  0  0  0  0  0  0  0  0  0  0  0
   -5.0217   -2.3856   -0.6367 H   0  0  0  0  0  0  0  0  0  0  0  0
   -4.9142   -2.3601   -2.4172 H   0  0  0  0  0  0  0  0  0  0  0  0
   -2.4789   -1.1311   -2.6977 C   0  0  0  0  0  0  0  0  0  0  0  0
   -2.7292   -1.7268   -3.6014 H   0  0  0  0  0  0  0  0  0  0  0  0
   -1.3738   -1.0504   -2.6279 H   0  0  0  0  0  0  0  0  0  0  0  0
   -2.8899   -0.1117   -2.8325 H   0  0  0  0  0  0  0  0  0  0  0  0
   -3.2573   -1.1421    1.6622 C   0  0  0  0  0  0  0  0  0  0  0  0
   -3.3352   -2.6468    1.9721 C   0  0  0  0  0  0  0  0  0  0  0  0
   -3.7278   -2.7943    3.0013 H   0  0  0  0  0  0  0  0  0  0  0  0
   -2.3321   -3.1162    1.9110 H   0  0  0  0  0  0  0  0  0  0  0  0
   -4.0153   -3.1814    1.2793 H   0  0  0  0  0  0  0  0  0  0  0  0
   -4.6563   -0.5121    1.6725 C   0  0  0  0  0  0  0  0  0  0  0  0
   -5.3334   -0.9482    0.9148 H   0  0  0  0  0  0  0  0  0  0  0  0
   -4.6137    0.5834    1.5166 H   0  0  0  0  0  0  0  0  0  0  0  0
   -5.1232   -0.6825    2.6672 H   0  0  0  0  0  0  0  0  0  0  0  0
   -2.3867   -0.4508    2.7301 C   0  0  0  0  0  0  0  0  0  0  0  0
   -2.8378   -0.6013    3.7349 H   0  0  0  0  0  0  0  0  0  0  0  0
   -2.3145    0.6418    2.5504 H   0  0  0  0  0  0  0  0  0  0  0  0
   -1.3548   -0.8645    2.7247 H   0  0  0  0  0  0  0  0  0  0  0  0
  1 44  1  0  0  0  0
  2 70  1  0  0  0  0
  4  3  1  0  0  0  0
  5  4  2  0  0  0  0
  5  1  1  0  0  0  0
  6  5  1  0  0  0  0
  7  6  1  0  0  0  0
  8 10  1  0  0  0  0
  8  6  2  0  0  0  0
  9  8  1  0  0  0  0
 10 12  2  0  0  0  0
 11 10  1  0  0  0  0
 12  4  1  0  0  0  0
 12 13  1  0  0  0  0
 13 27  1  0  0  0  0
 14 22  1  0  0  0  0
 14 13  1  0  0  0  0
 15 14  2  0  0  0  0
 16 15  1  0  0  0  0
 17 15  1  0  0  0  0
 17 19  2  0  0  0  0
 18 17  1  0  0  0  0
 19 21  1  0  0  0  0
 20 19  1  0  0  0  0
 21 22  2  0  0  0  0
 21  2  1  0  0  0  0
 22  3  1  0  0  0  0
 23 26  1  0  0  0  0
 23 25  1  0  0  0  0
 23 13  1  0  0  0  0
 24 23  1  0  0  0  0
 27 28  1  0  0  0  0
 27 29  1  0  0  0  0
 27 30  1  0  0  0  0
 31 32  1  0  0  0  0
 31  1  1  0  0  0  0
 32 33  1  0  0  0  0
 32 34  1  0  0  0  0
 35 32  1  0  0  0  0
 36 31  1  0  0  0  0
 36 38  1  0  0  0  0
 37 36  1  0  0  0  0
 39 36  1  0  0  0  0
 40 43  1  0  0  0  0
 40 31  1  0  0  0  0
 41 40  1  0  0  0  0
 42 40  1  0  0  0  0
 44 45  1  0  0  0  0
 44 53  1  0  0  0  0
 45 47  1  0  0  0  0
 45 48  1  0  0  0  0
 46 45  1  0  0  0  0
 49 44  1  0  0  0  0
 49 52  1  0  0  0  0
 50 49  1  0  0  0  0
 51 49  1  0  0  0  0
 53 55  1  0  0  0  0
 53 54  1  0  0  0  0
 56 53  1  0  0  0  0
 57 58  1  0  0  0  0
 57  2  1  0  0  0  0
 58 60  1  0  0  0  0
 58 59  1  0  0  0  0
 61 58  1  0  0  0  0
 62 57  1  0  0  0  0
 62 64  1  0  0  0  0
 63 62  1  0  0  0  0
 65 62  1  0  0  0  0
 66 68  1  0  0  0  0
 66 57  1  0  0  0  0
 67 66  1  0  0  0  0
 69 66  1  0  0  0  0
 70 75  1  0  0  0  0
 70 71  1  0  0  0  0
 70 79  1  0  0  0  0
 71 72  1  0  0  0  0
 73 71  1  0  0  0  0
 74 71  1  0  0  0  0
 75 78  1  0  0  0  0
 76 75  1  0  0  0  0
 77 75  1  0  0  0  0
 79 80  1  0  0  0  0
 81 79  1  0  0  0  0
 82 79  1  0  0  0  0
M  END
