1,2
q = 0.0, confidence = 1.0

 41 40  0  0  0  0  0  0  0  0999 V2000
    1.4118    0.8624    0.2273 P   0  0  0  0  0  0  0  0  0  0  0  0
   -1.5342   -0.0114   -0.1987 P   0  0  0  0  0  0  0  0  0  0  0  0
   -0.6679    2.6072   -0.4352 N   0  0  0  0  0  0  0  0  0  0  0  0
   -2.3163    0.4202    1.4308 C   0  0  0  0  0  0  0  0  0  0  0  0
   -2.3563   -0.5310    2.0001 H   0  0  0  0  0  0  0  0  0  0  0  0
   -1.5570    1.0467    1.9417 H   0  0  0  0  0  0  0  0  0  0  0  0
   -1.5196    1.6264   -1.0882 C   0  0  0  0  0  0  0  0  0  0  0  0
   -1.2293    1.4263   -2.1540 H   0  0  0  0  0  0  0  0  0  0  0  0
   -2.5618    2.0055   -1.0998 H   0  0  0  0  0  0  0  0  0  0  0  0
    1.4905    1.5415    1.9633 C   0  0  0  0  0  0  0  0  0  0  0  0
    2.2158    2.3847    1.9741 H   0  0  0  0  0  0  0  0  0  0  0  0
    0.4863    1.9808    2.1452 H   0  0  0  0  0  0  0  0  0  0  0  0
    3.1988    0.9727   -0.2944 C   0  0  0  0  0  0  0  0  0  0  0  0
    3.5419    2.0140   -0.1085 H   0  0  0  0  0  0  0  0  0  0  0  0
    3.7561    0.3205    0.4103 H   0  0  0  0  0  0  0  0  0  0  0  0
    1.8330    0.4871    3.0123 C   0  0  0  0  0  0  0  0  0  0  0  0
    1.8319    0.9218    4.0324 H   0  0  0  0  0  0  0  0  0  0  0  0
    2.8354    0.0446    2.8384 H   0  0  0  0  0  0  0  0  0  0  0  0
    1.1014   -0.3447    2.9827 H   0  0  0  0  0  0  0  0  0  0  0  0
    0.7498    2.3697   -0.6626 C   0  0  0  0  0  0  0  0  0  0  0  0
    1.3216    3.2428   -0.2834 H   0  0  0  0  0  0  0  0  0  0  0  0
    0.9953    2.2592   -1.7523 H   0  0  0  0  0  0  0  0  0  0  0  0
    3.4701    0.5458   -1.7371 C   0  0  0  0  0  0  0  0  0  0  0  0
    4.5529    0.6116   -1.9666 H   0  0  0  0  0  0  0  0  0  0  0  0
    2.9360    1.1866   -2.4675 H   0  0  0  0  0  0  0  0  0  0  0  0
    3.1479   -0.4979   -1.9164 H   0  0  0  0  0  0  0  0  0  0  0  0
   -2.8706   -0.8813   -1.1520 C   0  0  0  0  0  0  0  0  0  0  0  0
   -3.7726   -0.2324   -1.1585 H   0  0  0  0  0  0  0  0  0  0  0  0
   -2.4989   -0.9328   -2.1970 H   0  0  0  0  0  0  0  0  0  0  0  0
   -1.0528    3.9757   -0.7509 C   0  0  0  0  0  0  0  0  0  0  0  0
   -0.9255    4.2350   -1.8346 H   0  0  0  0  0  0  0  0  0  0  0  0
   -0.4400    4.6842   -0.1577 H   0  0  0  0  0  0  0  0  0  0  0  0
   -2.1162    4.1401   -0.4827 H   0  0  0  0  0  0  0  0  0  0  0  0
   -3.6762    1.1142    1.4056 C   0  0  0  0  0  0  0  0  0  0  0  0
   -3.6343    2.0937    0.8875 H   0  0  0  0  0  0  0  0  0  0  0  0
   -4.0292    1.3100    2.4386 H   0  0  0  0  0  0  0  0  0  0  0  0
   -4.4520    0.4980    0.9081 H   0  0  0  0  0  0  0  0  0  0  0  0
   -3.1894   -2.2816   -0.6300 C   0  0  0  0  0  0  0  0  0  0  0  0
   -3.5409   -2.2643    0.4214 H   0  0  0  0  0  0  0  0  0  0  0  0
   -2.2916   -2.9286   -0.6697 H   0  0  0  0  0  0  0  0  0  0  0  0
   -3.9827   -2.7550   -1.2426 H   0  0  0  0  0  0  0  0  0  0  0  0
  1 10  1  0  0  0  0
  2  4  1  0  0  0  0
  4  6  1  0  0  0  0
  4  5  1  0  0  0  0
  7  3  1  0  0  0  0
  7  2  1  0  0  0  0
  8  7  1  0  0  0  0
  9  7  1  0  0  0  0
 10 11  1  0  0  0  0
 10 12  1  0  0  0  0
 10 16  1  0  0  0  0
 13 14  1  0  0  0  0
 13  1  1  0  0  0  0
 13 15  1  0  0  0  0
 16 17  1  0  0  0  0
 18 16  1  0  0  0  0
 19 16  1  0  0  0  0
 20  3  1  0  0  0  0
 20 21  1  0  0  0  0
 20  1  1  0  0  0  0
 22 20  1  0  0  0  0
 23 13  1  0  0  0  0
 24 23  1  0  0  0  0
 25 23  1  0  0  0  0
 26 23  1  0  0  0  0
 27 38  1  0  0  0  0
 27  2  1  0  0  0  0
 28 27  1  0  0  0  0
 29 27  1  0  0  0  0
 30 33  1  0  0  0  0
 30  3  1  0  0  0  0
 30 32  1  0  0  0  0
 31 30  1  0  0  0  0
 34  4  1  0  0  0  0
 34 36  1  0  0  0  0
 35 34  1  0  0  0  0
 37 34  1  0  0  0  0
 38 39  1  0  0  0  0
 40 38  1  0  0  0  0
 41 38  1  0  0  0  0
M  END
