1,2
q = 0.0, confidence = 0.994

 72 75  0  0  1  0  0  0  0  0999 V2000
    1.7926   -0.5114   -0.0476 P   0  0  0  0  0  0  0  0  0  0  0  0
   -1.6372   -1.0011   -0.0530 P   0  0  0  0  0  0  0  0  0  0  0  0
    1.3644    0.0410   -1.5868 O   0  0  0  0  0  0  0  0  0  0  0  0
   -1.3647    0.0346   -1.3568 O   0  0  0  0  0  0  0  0  0  0  0  0
    2.6382    2.5614   -2.1782 O   0  0  0  0  0  0  0  0  0  0  0  0
    0.9389    3.4109   -0.9305 O   0  0  0  0  0  0  0  0  0  0  0  0
   -2.4673    2.7499   -0.6377 O   0  0  0  0  0  0  0  0  0  0  0  0
   -1.5888    2.8229   -2.7390 O   0  0  0  0  0  0  0  0  0  0  0  0
    3.0372   -1.7012   -0.6674 C   0  0  0  0  0  0  0  0  0  0  0  0
    3.2994   -2.9025    0.0202 C   0  0  0  0  0  0  0  0  0  0  0  0
    2.7627   -3.1195    0.9559 H   0  0  0  0  0  0  0  0  0  0  0  0
    4.2602   -3.7927   -0.4814 C   0  0  0  0  0  0  0  0  0  0  0  0
    4.4602   -4.7305    0.0584 H   0  0  0  0  0  0  0  0  0  0  0  0
    4.9595   -3.4937   -1.6608 C   0  0  0  0  0  0  0  0  0  0  0  0
    5.7125   -4.1965   -2.0493 H   0  0  0  0  0  0  0  0  0  0  0  0
    4.6941   -2.2983   -2.3486 C   0  0  0  0  0  0  0  0  0  0  0  0
    5.2358   -2.0608   -3.2767 H   0  0  0  0  0  0  0  0  0  0  0  0
    3.7320   -1.4024   -1.8623 C   0  0  0  0  0  0  0  0  0  0  0  0
    3.5064   -0.4752   -2.4081 H   0  0  0  0  0  0  0  0  0  0  0  0
    2.6831    0.8891    0.7378 C   0  0  0  0  0  0  0  0  0  0  0  0
    3.9936    1.2428    0.3627 C   0  0  0  0  0  0  0  0  0  0  0  0
    4.5239    0.6649   -0.4074 H   0  0  0  0  0  0  0  0  0  0  0  0
    4.6259    2.3325    0.9781 C   0  0  0  0  0  0  0  0  0  0  0  0
    5.6516    2.6017    0.6850 H   0  0  0  0  0  0  0  0  0  0  0  0
    3.9570    3.0718    1.9672 C   0  0  0  0  0  0  0  0  0  0  0  0
    4.4604    3.9211    2.4541 H   0  0  0  0  0  0  0  0  0  0  0  0
    2.6501    2.7200    2.3440 C   0  0  0  0  0  0  0  0  0  0  0  0
    2.1292    3.2848    3.1318 H   0  0  0  0  0  0  0  0  0  0  0  0
    2.0154    1.6296    1.7347 C   0  0  0  0  0  0  0  0  0  0  0  0
    1.0056    1.3241    2.0515 H   0  0  0  0  0  0  0  0  0  0  0  0
   -3.0875   -0.1917    0.7107 C   0  0  0  0  0  0  0  0  0  0  0  0
   -2.9657    0.4853    1.9386 C   0  0  0  0  0  0  0  0  0  0  0  0
   -2.0362    0.3908    2.5194 H   0  0  0  0  0  0  0  0  0  0  0  0
   -4.0382    1.2484    2.4209 C   0  0  0  0  0  0  0  0  0  0  0  0
   -3.9442    1.7725    3.3838 H   0  0  0  0  0  0  0  0  0  0  0  0
   -5.2320    1.3319    1.6858 C   0  0  0  0  0  0  0  0  0  0  0  0
   -6.0765    1.9224    2.0733 H   0  0  0  0  0  0  0  0  0  0  0  0
   -5.3536    0.6548    0.4604 C   0  0  0  0  0  0  0  0  0  0  0  0
   -6.2906    0.7140   -0.1141 H   0  0  0  0  0  0  0  0  0  0  0  0
   -4.2809   -0.1006   -0.0338 C   0  0  0  0  0  0  0  0  0  0  0  0
   -4.3686   -0.6224   -0.9991 H   0  0  0  0  0  0  0  0  0  0  0  0
   -2.2371   -2.4382   -0.9909 C   0  0  0  0  0  0  0  0  0  0  0  0
   -1.8225   -2.6244   -2.3257 C   0  0  0  0  0  0  0  0  0  0  0  0
   -1.1782   -1.8747   -2.8057 H   0  0  0  0  0  0  0  0  0  0  0  0
   -2.2416   -3.7638   -3.0275 C   0  0  0  0  0  0  0  0  0  0  0  0
   -1.9210   -3.9081   -4.0704 H   0  0  0  0  0  0  0  0  0  0  0  0
   -3.0633   -4.7158   -2.4034 C   0  0  0  0  0  0  0  0  0  0  0  0
   -3.3884   -5.6094   -2.9577 H   0  0  0  0  0  0  0  0  0  0  0  0
   -3.4655   -4.5318   -1.0702 C   0  0  0  0  0  0  0  0  0  0  0  0
   -4.1026   -5.2809   -0.5765 H   0  0  0  0  0  0  0  0  0  0  0  0
   -3.0534   -3.3981   -0.3569 C   0  0  0  0  0  0  0  0  0  0  0  0
   -3.3368   -3.2601    0.6968 H   0  0  0  0  0  0  0  0  0  0  0  0
   -0.6887    1.2685   -1.0968 C   0  0  1  0  0  0  0  0  0  0  0  0
   -0.5146    1.4139   -0.0089 H   0  0  0  0  0  0  0  0  0  0  0  0
    0.6364    1.2290   -1.8557 C   0  0  1  0  0  0  0  0  0  0  0  0
    0.3892    1.1859   -2.9379 H   0  0  0  0  0  0  0  0  0  0  0  0
    1.5345    2.4653   -1.6841 C   0  0  0  0  0  0  0  0  0  0  0  0
    1.7013    4.6222   -0.6970 C   0  0  0  0  0  0  0  0  0  0  0  0
    2.7061    4.3305   -0.3301 H   0  0  0  0  0  0  0  0  0  0  0  0
    1.8369    5.1402   -1.6696 H   0  0  0  0  0  0  0  0  0  0  0  0
    0.9409    5.4607    0.3066 C   0  0  0  0  0  0  0  0  0  0  0  0
   -0.0672    5.7230   -0.0698 H   0  0  0  0  0  0  0  0  0  0  0  0
    1.4925    6.4005    0.5060 H   0  0  0  0  0  0  0  0  0  0  0  0
    0.8273    4.9161    1.2646 H   0  0  0  0  0  0  0  0  0  0  0  0
   -1.6056    2.3869   -1.6037 C   0  0  0  0  0  0  0  0  0  0  0  0
   -3.4913    3.7075   -1.0000 C   0  0  0  0  0  0  0  0  0  0  0  0
   -3.8055    3.5092   -2.0447 H   0  0  0  0  0  0  0  0  0  0  0  0
   -4.3297    3.4799   -0.3144 H   0  0  0  0  0  0  0  0  0  0  0  0
   -2.9925    5.1329   -0.8393 C   0  0  0  0  0  0  0  0  0  0  0  0
   -2.6330    5.3128    0.1934 H   0  0  0  0  0  0  0  0  0  0  0  0
   -3.8134    5.8477   -1.0494 H   0  0  0  0  0  0  0  0  0  0  0  0
   -2.1670    5.3398   -1.5482 H   0  0  0  0  0  0  0  0  0  0  0  0
  1 20  1  0  0  0  0
  2 31  1  0  0  0  0
  3  1  1  0  0  0  0
  4 53  1  0  0  0  0
  4  2  1  0  0  0  0
  5 57  2  0  0  0  0
  6 58  1  0  0  0  0
  8 65  2  0  0  0  0
  9  1  1  0  0  0  0
  9 10  1  0  0  0  0
 10 11  1  0  0  0  0
 12 10  2  0  0  0  0
 12 13  1  0  0  0  0
 14 12  1  0  0  0  0
 15 14  1  0  0  0  0
 16 18  1  0  0  0  0
 16 14  2  0  0  0  0
 17 16  1  0  0  0  0
 18  9  2  0  0  0  0
 19 18  1  0  0  0  0
 20 29  1  0  0  0  0
 21 20  2  0  0  0  0
 21 23  1  0  0  0  0
 22 21  1  0  0  0  0
 23 25  2  0  0  0  0
 24 23  1  0  0  0  0
 25 27  1  0  0  0  0
 25 26  1  0  0  0  0
 27 28  1  0  0  0  0
 29 30  1  0  0  0  0
 29 27  2  0  0  0  0
 31 32  1  0  0  0  0
 32 34  2  0  0  0  0
 32 33  1  0  0  0  0
 34 35  1  0  0  0  0
 36 37  1  0  0  0  0
 36 34  1  0  0  0  0
 38 36  2  0  0  0  0
 39 38  1  0  0  0  0
 40 38  1  0  0  0  0
 40 31  2  0  0  0  0
 41 40  1  0  0  0  0
 42 51  1  0  0  0  0
 42  2  1  0  0  0  0
 43 42  2  0  0  0  0
 44 43  1  0  0  0  0
 45 47  2  0  0  0  0
 45 43  1  0  0  0  0
 46 45  1  0  0  0  0
 47 49  1  0  0  0  0
 48 47  1  0  0  0  0
 49 50  1  0  0  0  0
 49 51  2  0  0  0  0
 51 52  1  0  0  0  0
 53 54  1  1  0  0  0
 55 56  1  6  0  0  0
 55 57  1  0  0  0  0
 55  3  1  0  0  0  0
 55 53  1  0  0  0  0
 57  6  1  0  0  0  0
 58 59  1  0  0  0  0
 58 61  1  0  0  0  0
 60 58  1  0  0  0  0
 61 63  1  0  0  0  0
 61 64  1  0  0  0  0
 62 61  1  0  0  0  0
 65 53  1  0  0  0  0
 65  7  1  0  0  0  0
 66 69  1  0  0  0  0
 66  7  1  0  0  0  0
 66 68  1  0  0  0  0
 67 66  1  0  0  0  0
 69 70  1  0  0  0  0
 71 69  1  0  0  0  0
 72 69  1  0  0  0  0
M  END
