1,2
q = 0.0, confidence = 0.99

 16 16  0  0  0  0  0  0  0  0999 V2000
   -1.6949    1.0683    1.6463 P   0  0  0  0  0  0  0  0  0  0  0  0
   -2.0168    1.2189   -1.3672 P   0  0  0  0  0  0  0  0  0  0  0  0
   -3.1318    0.1705    0.9303 C   0  0  0  0  0  0  0  0  0  0  0  0
   -4.0535   -0.5572    1.7047 C   0  0  0  0  0  0  0  0  0  0  0  0
   -3.9596   -0.5894    2.8011 H   0  0  0  0  0  0  0  0  0  0  0  0
   -5.0932   -1.2520    1.0698 C   0  0  0  0  0  0  0  0  0  0  0  0
   -5.8140   -1.8242    1.6726 H   0  0  0  0  0  0  0  0  0  0  0  0
   -5.2154   -1.2228   -0.3301 C   0  0  0  0  0  0  0  0  0  0  0  0
   -6.0308   -1.7735   -0.8219 H   0  0  0  0  0  0  0  0  0  0  0  0
   -4.3038   -0.4923   -1.1061 C   0  0  0  0  0  0  0  0  0  0  0  0
   -4.4048   -0.4718   -2.2018 H   0  0  0  0  0  0  0  0  0  0  0  0
   -3.2606    0.2075   -0.4740 C   0  0  0  0  0  0  0  0  0  0  0  0
   -2.8097    2.2904   -1.8903 H   0  0  0  0  0  0  0  0  0  0  0  0
   -1.8056    0.5180   -2.5898 H   0  0  0  0  0  0  0  0  0  0  0  0
   -2.3075    1.9986    2.5470 H   0  0  0  0  0  0  0  0  0  0  0  0
   -1.2186    0.1330    2.6189 H   0  0  0  0  0  0  0  0  0  0  0  0
  1 15  1  0  0  0  0
  1 16  1  0  0  0  0
  2 12  1  0  0  0  0
  3  1  1  0  0  0  0
  3  4  1  0  0  0  0
  4  5  1  0  0  0  0
  6  7  1  0  0  0  0
  6  4  2  0  0  0  0
  8  6  1  0  0  0  0
  9  8  1  0  0  0  0
 10 12  1  0  0  0  0
 10  8  2  0  0  0  0
 11 10  1  0  0  0  0
 12  3  2  0  0  0  0
 13  2  1  0  0  0  0
 14  2  1  0  0  0  0
M  END
