1,55
q = 0.0, confidence = 0.97

 77 81  0  0  0  0  0  0  0  0999 V2000
    0.9654   -0.5673   -0.2163 P   0  0  1  0  0  0  0  0  0  0  0  0
    2.6592   -0.9151   -0.0934 N   0  0  0  0  0  0  0  0  0  0  0  0
    2.8979   -2.2894   -0.3163 C   0  0  0  0  0  0  0  0  0  0  0  0
    3.9102   -2.6780   -0.1727 H   0  0  0  0  0  0  0  0  0  0  0  0
    1.7990   -2.9872   -0.6938 C   0  0  0  0  0  0  0  0  0  0  0  0
    1.7390   -4.0498   -0.9523 H   0  0  0  0  0  0  0  0  0  0  0  0
    0.6411   -2.1864   -0.7814 N   0  0  0  0  0  0  0  0  0  0  0  0
    3.7140    0.0543   -0.1713 C   0  0  0  0  0  0  0  0  0  0  0  0
    3.7729    1.0932    0.7930 C   0  0  0  0  0  0  0  0  0  0  0  0
    4.8327    2.0151    0.7334 C   0  0  0  0  0  0  0  0  0  0  0  0
    4.8767    2.8191    1.4845 H   0  0  0  0  0  0  0  0  0  0  0  0
    5.8233    1.9145   -0.2493 C   0  0  0  0  0  0  0  0  0  0  0  0
    6.6522    2.6375   -0.2788 H   0  0  0  0  0  0  0  0  0  0  0  0
    5.7355    0.9022   -1.2111 C   0  0  0  0  0  0  0  0  0  0  0  0
    6.4836    0.8455   -2.0171 H   0  0  0  0  0  0  0  0  0  0  0  0
    4.6799   -0.0285   -1.2127 C   0  0  0  0  0  0  0  0  0  0  0  0
    4.5658   -1.0014   -2.3595 C   0  0  0  0  0  0  0  0  0  0  0  0
    4.9234   -2.0213   -2.1113 H   0  0  0  0  0  0  0  0  0  0  0  0
    5.1662   -0.6403   -3.2163 H   0  0  0  0  0  0  0  0  0  0  0  0
    3.5119   -1.0770   -2.6899 H   0  0  0  0  0  0  0  0  0  0  0  0
    2.7209    1.2273    1.8599 C   0  0  0  0  0  0  0  0  0  0  0  0
    1.7401    1.5175    1.4232 H   0  0  0  0  0  0  0  0  0  0  0  0
    2.9914    2.0130    2.5906 H   0  0  0  0  0  0  0  0  0  0  0  0
    2.5813    0.2717    2.4008 H   0  0  0  0  0  0  0  0  0  0  0  0
   -0.6600   -2.6919   -1.0888 C   0  0  0  0  0  0  0  0  0  0  0  0
   -1.3218   -2.2573   -2.2722 C   0  0  0  0  0  0  0  0  0  0  0  0
   -2.5859   -2.8035   -2.5675 C   0  0  0  0  0  0  0  0  0  0  0  0
   -3.1014   -2.4699   -3.4809 H   0  0  0  0  0  0  0  0  0  0  0  0
   -3.1797   -3.7611   -1.7385 C   0  0  0  0  0  0  0  0  0  0  0  0
   -4.1603   -4.1872   -2.0002 H   0  0  0  0  0  0  0  0  0  0  0  0
   -2.5200   -4.1757   -0.5754 C   0  0  0  0  0  0  0  0  0  0  0  0
   -2.9840   -4.9246    0.0856 H   0  0  0  0  0  0  0  0  0  0  0  0
   -1.2640   -3.6460   -0.2210 C   0  0  0  0  0  0  0  0  0  0  0  0
   -0.6398   -4.0678    1.0850 C   0  0  0  0  0  0  0  0  0  0  0  0
   -1.0404   -3.4479    1.9141 H   0  0  0  0  0  0  0  0  0  0  0  0
    0.4599   -3.9598    1.1040 H   0  0  0  0  0  0  0  0  0  0  0  0
   -0.8947   -5.1191    1.3229 H   0  0  0  0  0  0  0  0  0  0  0  0
   -0.7253   -1.2336   -3.1925 C   0  0  0  0  0  0  0  0  0  0  0  0
   -1.1096   -1.3569   -4.2234 H   0  0  0  0  0  0  0  0  0  0  0  0
    0.3793   -1.2596   -3.2110 H   0  0  0  0  0  0  0  0  0  0  0  0
   -0.9976   -0.1985   -2.8779 H   0  0  0  0  0  0  0  0  0  0  0  0
    0.1380   -0.6757    1.4664 C   0  0  0  0  0  0  0  0  0  0  0  0
   -1.0398   -0.0116    1.5374 C   0  0  0  0  0  0  0  0  0  0  0  0
   -1.7036   -0.1053    2.4129 H   0  0  0  0  0  0  0  0  0  0  0  0
    0.6794   -1.5203    2.5701 C   0  0  0  0  0  0  0  0  0  0  0  0
    1.7599   -2.0875    2.5441 O   0  0  0  0  0  0  0  0  0  0  0  0
   -0.1583   -1.5462    3.6398 O   0  0  0  0  0  0  0  0  0  0  0  0
    0.3198   -2.2482    4.8122 C   0  0  0  0  0  0  0  0  0  0  0  0
   -0.2065   -1.7616    5.6564 H   0  0  0  0  0  0  0  0  0  0  0  0
    1.4098   -2.0691    4.9087 H   0  0  0  0  0  0  0  0  0  0  0  0
    0.0214   -3.7368    4.7511 C   0  0  0  0  0  0  0  0  0  0  0  0
    0.3318   -4.2181    5.7004 H   0  0  0  0  0  0  0  0  0  0  0  0
    0.5801   -4.2169    3.9250 H   0  0  0  0  0  0  0  0  0  0  0  0
   -1.0616   -3.9240    4.6092 H   0  0  0  0  0  0  0  0  0  0  0  0
   -1.4130    1.1838    0.1911 P   0  0  0  0  0  0  0  0  0  0  0  0
   -1.4788    2.7433    1.1545 C   0  0  0  0  0  0  0  0  0  0  0  0
   -2.4952    2.9583    2.1069 C   0  0  0  0  0  0  0  0  0  0  0  0
   -3.3080    2.2244    2.2236 H   0  0  0  0  0  0  0  0  0  0  0  0
   -2.4768    4.1191    2.8941 C   0  0  0  0  0  0  0  0  0  0  0  0
   -3.2738    4.2906    3.6334 H   0  0  0  0  0  0  0  0  0  0  0  0
   -1.4473    5.0612    2.7343 C   0  0  0  0  0  0  0  0  0  0  0  0
   -1.4367    5.9724    3.3517 H   0  0  0  0  0  0  0  0  0  0  0  0
   -0.4375    4.8469    1.7819 C   0  0  0  0  0  0  0  0  0  0  0  0
    0.3622    5.5904    1.6461 H   0  0  0  0  0  0  0  0  0  0  0  0
   -0.4502    3.6911    0.9886 C   0  0  0  0  0  0  0  0  0  0  0  0
    0.3125    3.5269    0.2127 H   0  0  0  0  0  0  0  0  0  0  0  0
   -3.1316    0.7939   -0.2821 C   0  0  0  0  0  0  0  0  0  0  0  0
   -3.6088   -0.5274   -0.1725 C   0  0  0  0  0  0  0  0  0  0  0  0
   -2.9567   -1.3283    0.2091 H   0  0  0  0  0  0  0  0  0  0  0  0
   -4.9182   -0.8316   -0.5741 C   0  0  0  0  0  0  0  0  0  0  0  0
   -5.2809   -1.8665   -0.4897 H   0  0  0  0  0  0  0  0  0  0  0  0
   -5.7484    0.1745   -1.0909 C   0  0  0  0  0  0  0  0  0  0  0  0
   -6.7749   -0.0668   -1.4064 H   0  0  0  0  0  0  0  0  0  0  0  0
   -5.2664    1.4891   -1.2141 C   0  0  0  0  0  0  0  0  0  0  0  0
   -5.9118    2.2773   -1.6302 H   0  0  0  0  0  0  0  0  0  0  0  0
   -3.9606    1.8032   -0.8161 C   0  0  0  0  0  0  0  0  0  0  0  0
   -3.5659    2.8224   -0.9327 H   0  0  0  0  0  0  0  0  0  0  0  0
  1  2  1  0  0  0  0
  1 42  1  1  0  0  0
  3  4  1  0  0  0  0
  3  2  1  0  0  0  0
  5  3  2  0  0  0  0
  6  5  1  0  0  0  0
  7  5  1  0  0  0  0
  7  1  1  0  0  0  0
  8  2  1  0  0  0  0
  8  9  1  0  0  0  0
  9 21  1  0  0  0  0
 10  9  2  0  0  0  0
 10 11  1  0  0  0  0
 12 10  1  0  0  0  0
 13 12  1  0  0  0  0
 14 12  2  0  0  0  0
 15 14  1  0  0  0  0
 16 14  1  0  0  0  0
 16  8  2  0  0  0  0
 17 18  1  0  0  0  0
 17 16  1  0  0  0  0
 19 17  1  0  0  0  0
 20 17  1  0  0  0  0
 21 24  1  0  0  0  0
 21 23  1  0  0  0  0
 22 21  1  0  0  0  0
 25  7  1  0  0  0  0
 25 33  1  0  0  0  0
 26 25  2  0  0  0  0
 27 26  1  0  0  0  0
 27 29  2  0  0  0  0
 28 27  1  0  0  0  0
 29 31  1  0  0  0  0
 30 29  1  0  0  0  0
 31 33  2  0  0  0  0
 31 32  1  0  0  0  0
 33 34  1  0  0  0  0
 34 36  1  0  0  0  0
 34 37  1  0  0  0  0
 34 35  1  0  0  0  0
 38 41  1  0  0  0  0
 38 26  1  0  0  0  0
 39 38  1  0  0  0  0
 40 38  1  0  0  0  0
 42 43  2  0  0  0  0
 42 45  1  0  0  0  0
 43 44  1  0  0  0  0
 45 47  1  0  0  0  0
 46 45  2  0  0  0  0
 47 48  1  0  0  0  0
 48 50  1  0  0  0  0
 48 49  1  0  0  0  0
 51 48  1  0  0  0  0
 51 52  1  0  0  0  0
 53 51  1  0  0  0  0
 54 51  1  0  0  0  0
 55 56  1  0  0  0  0
 55 43  1  0  0  0  0
 56 57  1  0  0  0  0
 57 58  1  0  0  0  0
 57 59  2  0  0  0  0
 59 60  1  0  0  0  0
 61 59  1  0  0  0  0
 61 62  1  0  0  0  0
 63 61  2  0  0  0  0
 64 63  1  0  0  0  0
 65 56  2  0  0  0  0
 65 63  1  0  0  0  0
 66 65  1  0  0  0  0
 67 68  1  0  0  0  0
 67 55  1  0  0  0  0
 68 69  1  0  0  0  0
 70 71  1  0  0  0  0
 70 68  2  0  0  0  0
 72 70  1  0  0  0  0
 73 72  1  0  0  0  0
 74 72  2  0  0  0  0
 74 76  1  0  0  0  0
 75 74  1  0  0  0  0
 76 67  2  0  0  0  0
 77 76  1  0  0  0  0
M  END
