1,2
q = 0.0, confidence = 0.992

 52 55  0  0  0  0  0  0  0  0999 V2000
    1.5657   -0.4478    0.6158 P   0  0  0  0  0  0  0  0  0  0  0  0
   -1.6909   -0.1643    0.6230 P   0  0  0  0  0  0  0  0  0  0  0  0
    3.7218    0.8747   -0.9257 F   0  0  0  0  0  0  0  0  0  0  0  0
    3.4974   -1.4145    2.7357 F   0  0  0  0  0  0  0  0  0  0  0  0
   -3.6012   -1.1829   -1.3584 F   0  0  0  0  0  0  0  0  0  0  0  0
   -3.5357    0.3578    3.0133 F   0  0  0  0  0  0  0  0  0  0  0  0
    2.5730    0.9996    1.1477 C   0  0  0  0  0  0  0  0  0  0  0  0
    3.5615    1.4837    0.2709 C   0  0  0  0  0  0  0  0  0  0  0  0
    4.3811    2.5712    0.5835 C   0  0  0  0  0  0  0  0  0  0  0  0
    5.1514    2.8857   -0.1353 H   0  0  0  0  0  0  0  0  0  0  0  0
    4.1995    3.2215    1.8141 C   0  0  0  0  0  0  0  0  0  0  0  0
    4.8413    4.0751    2.0777 H   0  0  0  0  0  0  0  0  0  0  0  0
    3.2105    2.7762    2.7059 C   0  0  0  0  0  0  0  0  0  0  0  0
    3.0722    3.2790    3.6739 H   0  0  0  0  0  0  0  0  0  0  0  0
    2.4104    1.6718    2.3756 C   0  0  0  0  0  0  0  0  0  0  0  0
    1.6607    1.3219    3.0991 H   0  0  0  0  0  0  0  0  0  0  0  0
    2.8103   -1.7851    0.4859 C   0  0  0  0  0  0  0  0  0  0  0  0
    3.6417   -2.1006    1.5809 C   0  0  0  0  0  0  0  0  0  0  0  0
    4.6109   -3.1035    1.5142 C   0  0  0  0  0  0  0  0  0  0  0  0
    5.2294   -3.3086    2.3995 H   0  0  0  0  0  0  0  0  0  0  0  0
    4.7639   -3.8180    0.3165 C   0  0  0  0  0  0  0  0  0  0  0  0
    5.5249   -4.6099    0.2531 H   0  0  0  0  0  0  0  0  0  0  0  0
    3.9547   -3.5256   -0.7929 C   0  0  0  0  0  0  0  0  0  0  0  0
    4.0775   -4.0839   -1.7317 H   0  0  0  0  0  0  0  0  0  0  0  0
    2.9875   -2.5153   -0.7069 C   0  0  0  0  0  0  0  0  0  0  0  0
    2.3606   -2.2807   -1.5775 H   0  0  0  0  0  0  0  0  0  0  0  0
    0.5631   -0.8998    2.1178 C   0  0  0  0  0  0  0  0  0  0  0  0
    0.3382   -1.9787    1.9838 H   0  0  0  0  0  0  0  0  0  0  0  0
    1.1843   -0.8129    3.0299 H   0  0  0  0  0  0  0  0  0  0  0  0
   -0.7213   -0.0775    2.2120 C   0  0  0  0  0  0  0  0  0  0  0  0
   -0.4978    1.0008    2.3523 H   0  0  0  0  0  0  0  0  0  0  0  0
   -1.3510   -0.3903    3.0656 H   0  0  0  0  0  0  0  0  0  0  0  0
   -2.6277   -1.7383    0.7288 C   0  0  0  0  0  0  0  0  0  0  0  0
   -3.4881   -2.0597   -0.3390 C   0  0  0  0  0  0  0  0  0  0  0  0
   -4.2210   -3.2467   -0.3790 C   0  0  0  0  0  0  0  0  0  0  0  0
   -4.8748   -3.4441   -1.2402 H   0  0  0  0  0  0  0  0  0  0  0  0
   -4.0984   -4.1494    0.6874 C   0  0  0  0  0  0  0  0  0  0  0  0
   -4.6688   -5.0896    0.6696 H   0  0  0  0  0  0  0  0  0  0  0  0
   -3.2560   -3.8553    1.7717 C   0  0  0  0  0  0  0  0  0  0  0  0
   -3.1664   -4.5615    2.6095 H   0  0  0  0  0  0  0  0  0  0  0  0
   -2.5290   -2.6566    1.7936 C   0  0  0  0  0  0  0  0  0  0  0  0
   -1.8838   -2.4383    2.6562 H   0  0  0  0  0  0  0  0  0  0  0  0
   -3.0246    1.0937    0.8059 C   0  0  0  0  0  0  0  0  0  0  0  0
   -3.8043    1.1792    1.9794 C   0  0  0  0  0  0  0  0  0  0  0  0
   -4.8601    2.0856    2.1089 C   0  0  0  0  0  0  0  0  0  0  0  0
   -5.4273    2.1106    3.0503 H   0  0  0  0  0  0  0  0  0  0  0  0
   -5.1731    2.9247    1.0296 C   0  0  0  0  0  0  0  0  0  0  0  0
   -6.0069    3.6363    1.1215 H   0  0  0  0  0  0  0  0  0  0  0  0
   -4.4366    2.8475   -0.1635 C   0  0  0  0  0  0  0  0  0  0  0  0
   -4.6956    3.4883   -1.0185 H   0  0  0  0  0  0  0  0  0  0  0  0
   -3.3784    1.9347   -0.2738 C   0  0  0  0  0  0  0  0  0  0  0  0
   -2.8173    1.8591   -1.2151 H   0  0  0  0  0  0  0  0  0  0  0  0
  1  7  1  0  0  0  0
  1 27  1  0  0  0  0
  2 33  1  0  0  0  0
  2 43  1  0  0  0  0
  2 30  1  0  0  0  0
  3  8  1  0  0  0  0
  5 34  1  0  0  0  0
  7 15  1  0  0  0  0
  8  9  1  0  0  0  0
  8  7  2  0  0  0  0
  9 11  2  0  0  0  0
 10  9  1  0  0  0  0
 11 12  1  0  0  0  0
 11 13  1  0  0  0  0
 13 14  1  0  0  0  0
 15 13  2  0  0  0  0
 15 16  1  0  0  0  0
 17  1  1  0  0  0  0
 17 18  1  0  0  0  0
 18  4  1  0  0  0  0
 19 18  2  0  0  0  0
 19 20  1  0  0  0  0
 21 19  1  0  0  0  0
 22 21  1  0  0  0  0
 23 25  1  0  0  0  0
 23 21  2  0  0  0  0
 24 23  1  0  0  0  0
 25 17  2  0  0  0  0
 26 25  1  0  0  0  0
 27 30  1  0  0  0  0
 27 29  1  0  0  0  0
 28 27  1  0  0  0  0
 30 31  1  0  0  0  0
 30 32  1  0  0  0  0
 33 41  1  0  0  0  0
 34 33  2  0  0  0  0
 35 34  1  0  0  0  0
 35 37  2  0  0  0  0
 36 35  1  0  0  0  0
 37 39  1  0  0  0  0
 38 37  1  0  0  0  0
 39 41  2  0  0  0  0
 39 40  1  0  0  0  0
 41 42  1  0  0  0  0
 43 44  1  0  0  0  0
 44 45  2  0  0  0  0
 44  6  1  0  0  0  0
 45 46  1  0  0  0  0
 47 48  1  0  0  0  0
 47 45  1  0  0  0  0
 49 47  2  0  0  0  0
 50 49  1  0  0  0  0
 51 49  1  0  0  0  0
 51 43  2  0  0  0  0
 52 51  1  0  0  0  0
M  END
