1,2
q = 0.0, confidence = 0.998

 72 72  0  0  0  0  0  0  0  0999 V2000
    0.1280    1.7749    0.2929 P   0  0  0  0  0  0  0  0  0  0  0  0
    0.3538   -1.7073    0.3912 P   0  0  0  0  0  0  0  0  0  0  0  0
    2.4915    0.1370    0.4705 N   0  0  0  0  0  0  0  0  0  0  0  0
    1.9615   -1.0455    1.1109 C   0  0  0  0  0  0  0  0  0  0  0  0
    1.7817   -0.8524    2.1932 H   0  0  0  0  0  0  0  0  0  0  0  0
    2.6822   -1.8723    1.0513 H   0  0  0  0  0  0  0  0  0  0  0  0
    1.8435    1.3491    0.9426 C   0  0  0  0  0  0  0  0  0  0  0  0
    2.5020    2.2176    0.7710 H   0  0  0  0  0  0  0  0  0  0  0  0
    1.7104    1.2716    2.0471 H   0  0  0  0  0  0  0  0  0  0  0  0
    0.9764   -2.8373   -1.0572 C   0  0  0  0  0  0  0  0  0  0  0  0
    0.8847   -1.9785   -2.3306 C   0  0  0  0  0  0  0  0  0  0  0  0
    1.5184   -1.0752   -2.2529 H   0  0  0  0  0  0  0  0  0  0  0  0
   -0.1589   -1.6668   -2.5307 H   0  0  0  0  0  0  0  0  0  0  0  0
    1.2470   -2.5768   -3.1934 H   0  0  0  0  0  0  0  0  0  0  0  0
    2.4395   -3.2782   -0.8704 C   0  0  0  0  0  0  0  0  0  0  0  0
    3.1557   -2.4364   -0.9295 H   0  0  0  0  0  0  0  0  0  0  0  0
    2.6937   -3.9722   -1.6988 H   0  0  0  0  0  0  0  0  0  0  0  0
    2.6113   -3.8314    0.0748 H   0  0  0  0  0  0  0  0  0  0  0  0
    0.1041   -4.0938   -1.2186 C   0  0  0  0  0  0  0  0  0  0  0  0
    0.2548   -4.8146   -0.3915 H   0  0  0  0  0  0  0  0  0  0  0  0
    0.4080   -4.6037   -2.1575 H   0  0  0  0  0  0  0  0  0  0  0  0
   -0.9695   -3.8390   -1.2963 H   0  0  0  0  0  0  0  0  0  0  0  0
   -0.2338   -2.7270    1.9240 C   0  0  0  0  0  0  0  0  0  0  0  0
    0.8958   -3.6390    2.4407 C   0  0  0  0  0  0  0  0  0  0  0  0
    1.1897   -4.4014    1.6930 H   0  0  0  0  0  0  0  0  0  0  0  0
    0.5266   -4.1862    3.3337 H   0  0  0  0  0  0  0  0  0  0  0  0
    1.8026   -3.0865    2.7549 H   0  0  0  0  0  0  0  0  0  0  0  0
   -1.4814   -3.5824    1.6504 C   0  0  0  0  0  0  0  0  0  0  0  0
   -2.3098   -2.9829    1.2299 H   0  0  0  0  0  0  0  0  0  0  0  0
   -1.8125   -4.0177    2.6172 H   0  0  0  0  0  0  0  0  0  0  0  0
   -1.2855   -4.4184    0.9577 H   0  0  0  0  0  0  0  0  0  0  0  0
   -0.6253   -1.6913    2.9986 C   0  0  0  0  0  0  0  0  0  0  0  0
   -1.4357   -1.0309    2.6309 H   0  0  0  0  0  0  0  0  0  0  0  0
    0.2181   -1.0531    3.3294 H   0  0  0  0  0  0  0  0  0  0  0  0
   -0.9955   -2.2320    3.8946 H   0  0  0  0  0  0  0  0  0  0  0  0
    3.8617    0.2008    0.1198 C   0  0  0  0  0  0  0  0  0  0  0  0
    4.3603    1.3084   -0.6146 C   0  0  0  0  0  0  0  0  0  0  0  0
    3.6836    2.1158   -0.9200 H   0  0  0  0  0  0  0  0  0  0  0  0
    5.7055    1.3861   -0.9927 C   0  0  0  0  0  0  0  0  0  0  0  0
    6.0456    2.2609   -1.5679 H   0  0  0  0  0  0  0  0  0  0  0  0
    6.6084    0.3640   -0.6627 C   0  0  0  0  0  0  0  0  0  0  0  0
    7.6630    0.4234   -0.9676 H   0  0  0  0  0  0  0  0  0  0  0  0
    6.1336   -0.7324    0.0699 C   0  0  0  0  0  0  0  0  0  0  0  0
    6.8208   -1.5415    0.3611 H   0  0  0  0  0  0  0  0  0  0  0  0
    4.7904   -0.8140    0.4641 C   0  0  0  0  0  0  0  0  0  0  0  0
    4.4848   -1.6753    1.0721 H   0  0  0  0  0  0  0  0  0  0  0  0
    0.4840    2.7205   -1.3419 C   0  0  0  0  0  0  0  0  0  0  0  0
    1.1206    1.6847   -2.2893 C   0  0  0  0  0  0  0  0  0  0  0  0
    0.3910    0.8862   -2.5238 H   0  0  0  0  0  0  0  0  0  0  0  0
    2.0294    1.2057   -1.8813 H   0  0  0  0  0  0  0  0  0  0  0  0
    1.3970    2.1899   -3.2388 H   0  0  0  0  0  0  0  0  0  0  0  0
   -0.7992    3.2283   -2.0204 C   0  0  0  0  0  0  0  0  0  0  0  0
   -1.3115    4.0176   -1.4432 H   0  0  0  0  0  0  0  0  0  0  0  0
   -1.5268    2.4133   -2.1891 H   0  0  0  0  0  0  0  0  0  0  0  0
   -0.5144    3.6574   -3.0048 H   0  0  0  0  0  0  0  0  0  0  0  0
    1.4286    3.9143   -1.1156 C   0  0  0  0  0  0  0  0  0  0  0  0
    0.9480    4.7170   -0.5243 H   0  0  0  0  0  0  0  0  0  0  0  0
    1.6901    4.3488   -2.1034 H   0  0  0  0  0  0  0  0  0  0  0  0
    2.3831    3.6486   -0.6204 H   0  0  0  0  0  0  0  0  0  0  0  0
   -0.4179    2.9830    1.7032 C   0  0  0  0  0  0  0  0  0  0  0  0
    0.7735    3.7235    2.3493 C   0  0  0  0  0  0  0  0  0  0  0  0
    1.4494    3.0592    2.9199 H   0  0  0  0  0  0  0  0  0  0  0  0
    0.3621    4.4564    3.0746 H   0  0  0  0  0  0  0  0  0  0  0  0
    1.3769    4.2941    1.6184 H   0  0  0  0  0  0  0  0  0  0  0  0
   -1.4163    4.0402    1.2010 C   0  0  0  0  0  0  0  0  0  0  0  0
   -0.9349    4.7859    0.5392 H   0  0  0  0  0  0  0  0  0  0  0  0
   -1.8076    4.5902    2.0833 H   0  0  0  0  0  0  0  0  0  0  0  0
   -2.2708    3.5773    0.6729 H   0  0  0  0  0  0  0  0  0  0  0  0
   -1.1002    2.0964    2.7607 C   0  0  0  0  0  0  0  0  0  0  0  0
   -0.4245    1.3019    3.1375 H   0  0  0  0  0  0  0  0  0  0  0  0
   -2.0073    1.6141    2.3472 H   0  0  0  0  0  0  0  0  0  0  0  0
   -1.3940    2.7258    3.6274 H   0  0  0  0  0  0  0  0  0  0  0  0
  1  7  1  0  0  0  0
  1 60  1  0  0  0  0
  2  4  1  0  0  0  0
  2 23  1  0  0  0  0
  3  7  1  0  0  0  0
  3  4  1  0  0  0  0
  4  5  1  0  0  0  0
  6  4  1  0  0  0  0
  7  9  1  0  0  0  0
  8  7  1  0  0  0  0
 10 15  1  0  0  0  0
 10  2  1  0  0  0  0
 11 12  1  0  0  0  0
 11 10  1  0  0  0  0
 13 11  1  0  0  0  0
 14 11  1  0  0  0  0
 15 18  1  0  0  0  0
 16 15  1  0  0  0  0
 17 15  1  0  0  0  0
 19 10  1  0  0  0  0
 19 20  1  0  0  0  0
 21 19  1  0  0  0  0
 22 19  1  0  0  0  0
 23 24  1  0  0  0  0
 23 32  1  0  0  0  0
 24 27  1  0  0  0  0
 24 26  1  0  0  0  0
 25 24  1  0  0  0  0
 28 23  1  0  0  0  0
 28 30  1  0  0  0  0
 29 28  1  0  0  0  0
 31 28  1  0  0  0  0
 32 34  1  0  0  0  0
 32 35  1  0  0  0  0
 33 32  1  0  0  0  0
 36 45  1  0  0  0  0
 36  3  1  0  0  0  0
 37 36  2  0  0  0  0
 38 37  1  0  0  0  0
 39 41  2  0  0  0  0
 39 37  1  0  0  0  0
 40 39  1  0  0  0  0
 41 43  1  0  0  0  0
 42 41  1  0  0  0  0
 43 44  1  0  0  0  0
 43 45  2  0  0  0  0
 45 46  1  0  0  0  0
 47 56  1  0  0  0  0
 47  1  1  0  0  0  0
 48 50  1  0  0  0  0
 48 47  1  0  0  0  0
 49 48  1  0  0  0  0
 51 48  1  0  0  0  0
 52 53  1  0  0  0  0
 52 47  1  0  0  0  0
 54 52  1  0  0  0  0
 55 52  1  0  0  0  0
 56 59  1  0  0  0  0
 56 57  1  0  0  0  0
 58 56  1  0  0  0  0
 60 61  1  0  0  0  0
 60 69  1  0  0  0  0
 61 62  1  0  0  0  0
 61 63  1  0  0  0  0
 64 61  1  0  0  0  0
 65 60  1  0  0  0  0
 65 67  1  0  0  0  0
 66 65  1  0  0  0  0
 68 65  1  0  0  0  0
 69 70  1  0  0  0  0
 69 72  1  0  0  0  0
 71 69  1  0  0  0  0
M  END
