1,2
q = 0.0, confidence = 0.994

 64 69  0  0  0  0  0  0  0  0999 V2000
    0.2962   -1.4408   -0.1744 P   0  0  0  0  0  0  0  0  0  0  0  0
    0.8311    1.1921   -0.0573 P   0  0  0  0  0  0  0  0  0  0  0  0
   -0.2370    0.0038    0.6699 N   0  0  0  0  0  0  0  0  0  0  0  0
   -1.3836    0.1391    1.5029 C   0  0  0  0  0  0  0  0  0  0  0  0
   -1.2927   -0.1321    2.8683 C   0  0  0  0  0  0  0  0  0  0  0  0
   -0.3246   -0.4481    3.2813 H   0  0  0  0  0  0  0  0  0  0  0  0
   -2.4287   -0.0125    3.7078 C   0  0  0  0  0  0  0  0  0  0  0  0
   -2.3328   -0.2288    4.7823 H   0  0  0  0  0  0  0  0  0  0  0  0
   -3.6492    0.3802    3.1787 C   0  0  0  0  0  0  0  0  0  0  0  0
   -4.5315    0.4855    3.8290 H   0  0  0  0  0  0  0  0  0  0  0  0
   -5.0463    1.0159    1.2154 C   0  0  0  0  0  0  0  0  0  0  0  0
   -5.9146    1.1288    1.8830 H   0  0  0  0  0  0  0  0  0  0  0  0
   -5.1736    1.2256   -0.1487 C   0  0  0  0  0  0  0  0  0  0  0  0
   -6.1472    1.5127   -0.5741 H   0  0  0  0  0  0  0  0  0  0  0  0
   -4.0514    1.0584   -1.0040 C   0  0  0  0  0  0  0  0  0  0  0  0
   -4.1603    1.2083   -2.0883 H   0  0  0  0  0  0  0  0  0  0  0  0
   -2.8174    0.7045   -0.4829 C   0  0  0  0  0  0  0  0  0  0  0  0
   -1.9574    0.5675   -1.1502 H   0  0  0  0  0  0  0  0  0  0  0  0
   -2.6474    0.5022    0.9168 C   0  0  0  0  0  0  0  0  0  0  0  0
   -3.7927    0.6403    1.7845 C   0  0  0  0  0  0  0  0  0  0  0  0
    0.9360   -2.5541    1.1180 C   0  0  0  0  0  0  0  0  0  0  0  0
    1.7783   -2.0118    2.1127 C   0  0  0  0  0  0  0  0  0  0  0  0
    1.9906   -0.9312    2.1229 H   0  0  0  0  0  0  0  0  0  0  0  0
    2.3477   -2.8513    3.0779 C   0  0  0  0  0  0  0  0  0  0  0  0
    3.0013   -2.4250    3.8538 H   0  0  0  0  0  0  0  0  0  0  0  0
    2.0949   -4.2340    3.0474 C   0  0  0  0  0  0  0  0  0  0  0  0
    2.5476   -4.8924    3.8041 H   0  0  0  0  0  0  0  0  0  0  0  0
    1.2753   -4.7764    2.0459 C   0  0  0  0  0  0  0  0  0  0  0  0
    1.0855   -5.8598    2.0138 H   0  0  0  0  0  0  0  0  0  0  0  0
    0.6963   -3.9415    1.0776 C   0  0  0  0  0  0  0  0  0  0  0  0
    0.0595   -4.3675    0.2882 H   0  0  0  0  0  0  0  0  0  0  0  0
   -1.1819   -2.2313   -0.8772 C   0  0  0  0  0  0  0  0  0  0  0  0
   -2.2417   -2.6481   -0.0412 C   0  0  0  0  0  0  0  0  0  0  0  0
   -2.1444   -2.5876    1.0532 H   0  0  0  0  0  0  0  0  0  0  0  0
   -3.4275   -3.1252   -0.6146 C   0  0  0  0  0  0  0  0  0  0  0  0
   -4.2611   -3.4347    0.0335 H   0  0  0  0  0  0  0  0  0  0  0  0
   -3.5521   -3.2014   -2.0123 C   0  0  0  0  0  0  0  0  0  0  0  0
   -4.4866   -3.5751   -2.4582 H   0  0  0  0  0  0  0  0  0  0  0  0
   -2.4863   -2.8142   -2.8404 C   0  0  0  0  0  0  0  0  0  0  0  0
   -2.5779   -2.8942   -3.9340 H   0  0  0  0  0  0  0  0  0  0  0  0
   -1.2974   -2.3244   -2.2795 C   0  0  0  0  0  0  0  0  0  0  0  0
   -0.4382   -2.0380   -2.9091 H   0  0  0  0  0  0  0  0  0  0  0  0
    1.9223    1.8618    1.2429 C   0  0  0  0  0  0  0  0  0  0  0  0
    1.5111    2.0542    2.5790 C   0  0  0  0  0  0  0  0  0  0  0  0
    0.4891    1.7963    2.8916 H   0  0  0  0  0  0  0  0  0  0  0  0
    2.4182    2.5703    3.5165 C   0  0  0  0  0  0  0  0  0  0  0  0
    2.0990    2.7174    4.5596 H   0  0  0  0  0  0  0  0  0  0  0  0
    3.7269    2.8991    3.1260 C   0  0  0  0  0  0  0  0  0  0  0  0
    4.4350    3.3028    3.8658 H   0  0  0  0  0  0  0  0  0  0  0  0
    4.1326    2.7103    1.7950 C   0  0  0  0  0  0  0  0  0  0  0  0
    5.1588    2.9628    1.4881 H   0  0  0  0  0  0  0  0  0  0  0  0
    3.2384    2.1877    0.8492 C   0  0  0  0  0  0  0  0  0  0  0  0
    3.5454    2.0229   -0.1989 H   0  0  0  0  0  0  0  0  0  0  0  0
   -0.1845    2.5847   -0.6442 C   0  0  0  0  0  0  0  0  0  0  0  0
   -0.9488    3.3574    0.2557 C   0  0  0  0  0  0  0  0  0  0  0  0
   -0.8843    3.1810    1.3397 H   0  0  0  0  0  0  0  0  0  0  0  0
   -1.8085    4.3465   -0.2386 C   0  0  0  0  0  0  0  0  0  0  0  0
   -2.4189    4.9383    0.4598 H   0  0  0  0  0  0  0  0  0  0  0  0
   -1.8913    4.5792   -1.6221 C   0  0  0  0  0  0  0  0  0  0  0  0
   -2.5682    5.3575   -2.0063 H   0  0  0  0  0  0  0  0  0  0  0  0
   -1.1025    3.8339   -2.5129 C   0  0  0  0  0  0  0  0  0  0  0  0
   -1.1494    4.0339   -3.5940 H   0  0  0  0  0  0  0  0  0  0  0  0
   -0.2468    2.8321   -2.0307 C   0  0  0  0  0  0  0  0  0  0  0  0
    0.4006    2.2546   -2.7109 H   0  0  0  0  0  0  0  0  0  0  0  0
  1  3  1  0  0  0  0
  1 21  1  0  0  0  0
  2  3  1  0  0  0  0
  2 43  1  0  0  0  0
  3  4  1  0  0  0  0
  4  5  1  0  0  0  0
  5  6  1  0  0  0  0
  5  7  2  0  0  0  0
  7  8  1  0  0  0  0
  9  7  1  0  0  0  0
  9 10  1  0  0  0  0
 11 20  1  0  0  0  0
 11 12  1  0  0  0  0
 13 11  2  0  0  0  0
 14 13  1  0  0  0  0
 15 17  2  0  0  0  0
 15 13  1  0  0  0  0
 16 15  1  0  0  0  0
 17 19  1  0  0  0  0
 18 17  1  0  0  0  0
 19  4  2  0  0  0  0
 19 20  1  0  0  0  0
 20  9  2  0  0  0  0
 21 22  1  0  0  0  0
 22 23  1  0  0  0  0
 22 24  2  0  0  0  0
 24 25  1  0  0  0  0
 26 24  1  0  0  0  0
 26 27  1  0  0  0  0
 28 26  2  0  0  0  0
 29 28  1  0  0  0  0
 30 21  2  0  0  0  0
 30 28  1  0  0  0  0
 31 30  1  0  0  0  0
 32  1  1  0  0  0  0
 32 33  1  0  0  0  0
 33 34  1  0  0  0  0
 35 33  2  0  0  0  0
 35 36  1  0  0  0  0
 37 35  1  0  0  0  0
 38 37  1  0  0  0  0
 39 41  1  0  0  0  0
 39 37  2  0  0  0  0
 40 39  1  0  0  0  0
 41 32  2  0  0  0  0
 42 41  1  0  0  0  0
 43 44  1  0  0  0  0
 44 45  1  0  0  0  0
 44 46  2  0  0  0  0
 46 47  1  0  0  0  0
 48 46  1  0  0  0  0
 48 49  1  0  0  0  0
 50 48  2  0  0  0  0
 51 50  1  0  0  0  0
 52 43  2  0  0  0  0
 52 50  1  0  0  0  0
 53 52  1  0  0  0  0
 54  2  1  0  0  0  0
 54 55  1  0  0  0  0
 55 56  1  0  0  0  0
 57 55  2  0  0  0  0
 57 58  1  0  0  0  0
 59 57  1  0  0  0  0
 60 59  1  0  0  0  0
 61 63  1  0  0  0  0
 61 59  2  0  0  0  0
 62 61  1  0  0  0  0
 63 54  2  0  0  0  0
 64 63  1  0  0  0  0
M  END
