2,3
q = 0.0, confidence = 0.998

 68 72  0  0  0  0  0  0  0  0999 V2000
   -2.7500    3.8205    0.7195 S   0  0  0  0  0  0  0  0  0  0  0  0
    1.4933    0.8942    0.0747 P   0  0  0  0  0  0  0  0  0  0  0  0
   -0.2365   -1.1301   -0.0926 P   0  0  0  0  0  0  0  0  0  0  0  0
   -0.2272    0.5836    0.1992 N   0  0  0  0  0  0  0  0  0  0  0  0
   -0.8930   -2.0061    1.3643 C   0  0  0  0  0  0  0  0  0  0  0  0
   -2.2317   -1.8330    1.7762 C   0  0  0  0  0  0  0  0  0  0  0  0
   -2.9264   -1.2158    1.1881 H   0  0  0  0  0  0  0  0  0  0  0  0
   -2.6893   -2.4688    2.9378 C   0  0  0  0  0  0  0  0  0  0  0  0
   -3.7317   -2.3238    3.2604 H   0  0  0  0  0  0  0  0  0  0  0  0
   -1.8224   -3.2909    3.6780 C   0  0  0  0  0  0  0  0  0  0  0  0
   -2.1859   -3.7935    4.5874 H   0  0  0  0  0  0  0  0  0  0  0  0
   -0.4981   -3.4831    3.2528 C   0  0  0  0  0  0  0  0  0  0  0  0
    0.1749   -4.1426    3.8210 H   0  0  0  0  0  0  0  0  0  0  0  0
   -0.0254   -2.8411    2.0983 C   0  0  0  0  0  0  0  0  0  0  0  0
    1.0010   -3.0045    1.7329 H   0  0  0  0  0  0  0  0  0  0  0  0
   -1.4441   -1.4144   -1.4257 C   0  0  0  0  0  0  0  0  0  0  0  0
   -1.7087   -0.4081   -2.3749 C   0  0  0  0  0  0  0  0  0  0  0  0
   -1.2399    0.5806   -2.2609 H   0  0  0  0  0  0  0  0  0  0  0  0
   -2.5615   -0.6728   -3.4556 C   0  0  0  0  0  0  0  0  0  0  0  0
   -2.7697    0.1165   -4.1941 H   0  0  0  0  0  0  0  0  0  0  0  0
   -3.1428   -1.9438   -3.5994 C   0  0  0  0  0  0  0  0  0  0  0  0
   -3.8083   -2.1515   -4.4509 H   0  0  0  0  0  0  0  0  0  0  0  0
   -2.8639   -2.9534   -2.6629 C   0  0  0  0  0  0  0  0  0  0  0  0
   -3.3058   -3.9540   -2.7820 H   0  0  0  0  0  0  0  0  0  0  0  0
   -2.0152   -2.6946   -1.5771 C   0  0  0  0  0  0  0  0  0  0  0  0
   -1.7825   -3.4883   -0.8516 H   0  0  0  0  0  0  0  0  0  0  0  0
   -1.3236    1.3983    0.7159 C   0  0  0  0  0  0  0  0  0  0  0  0
   -1.2141    1.5750    1.8088 H   0  0  0  0  0  0  0  0  0  0  0  0
   -2.2579    0.8172    0.5902 H   0  0  0  0  0  0  0  0  0  0  0  0
   -1.4729    2.7387   -0.0124 C   0  0  0  0  0  0  0  0  0  0  0  0
   -1.6823    2.5903   -1.0922 H   0  0  0  0  0  0  0  0  0  0  0  0
   -0.5343    3.3270    0.0388 H   0  0  0  0  0  0  0  0  0  0  0  0
   -4.2644    3.2313   -0.1432 C   0  0  0  0  0  0  0  0  0  0  0  0
   -5.0383    3.9523    0.1931 H   0  0  0  0  0  0  0  0  0  0  0  0
   -4.1294    3.3795   -1.2344 H   0  0  0  0  0  0  0  0  0  0  0  0
   -4.6847    1.8139    0.1558 C   0  0  0  0  0  0  0  0  0  0  0  0
   -4.6731    0.8379   -0.8593 C   0  0  0  0  0  0  0  0  0  0  0  0
   -4.3529    1.1155   -1.8753 H   0  0  0  0  0  0  0  0  0  0  0  0
   -5.0583   -0.4862   -0.5923 C   0  0  0  0  0  0  0  0  0  0  0  0
   -5.0196   -1.2359   -1.3965 H   0  0  0  0  0  0  0  0  0  0  0  0
   -5.4749   -0.8466    0.6977 C   0  0  0  0  0  0  0  0  0  0  0  0
   -5.7788   -1.8826    0.9109 H   0  0  0  0  0  0  0  0  0  0  0  0
   -5.4860    0.1188    1.7213 C   0  0  0  0  0  0  0  0  0  0  0  0
   -5.8069   -0.1593    2.7370 H   0  0  0  0  0  0  0  0  0  0  0  0
   -5.0862    1.4346    1.4546 C   0  0  0  0  0  0  0  0  0  0  0  0
   -5.0719    2.1836    2.2617 H   0  0  0  0  0  0  0  0  0  0  0  0
    2.1148    1.5696    1.6498 C   0  0  0  0  0  0  0  0  0  0  0  0
    3.3139    1.0185    2.1516 C   0  0  0  0  0  0  0  0  0  0  0  0
    3.8341    0.2362    1.5708 H   0  0  0  0  0  0  0  0  0  0  0  0
    3.8376    1.4880    3.3653 C   0  0  0  0  0  0  0  0  0  0  0  0
    4.7749    1.0597    3.7512 H   0  0  0  0  0  0  0  0  0  0  0  0
    3.1708    2.4915    4.0855 C   0  0  0  0  0  0  0  0  0  0  0  0
    3.5820    2.8501    5.0415 H   0  0  0  0  0  0  0  0  0  0  0  0
    1.9789    3.0420    3.5865 C   0  0  0  0  0  0  0  0  0  0  0  0
    1.4551    3.8307    4.1474 H   0  0  0  0  0  0  0  0  0  0  0  0
    1.4510    2.5892    2.3686 C   0  0  0  0  0  0  0  0  0  0  0  0
    0.5247    3.0406    1.9863 H   0  0  0  0  0  0  0  0  0  0  0  0
    1.6973    2.1934   -1.1933 C   0  0  0  0  0  0  0  0  0  0  0  0
    2.0934    3.5121   -0.8967 C   0  0  0  0  0  0  0  0  0  0  0  0
    2.3202    3.8013    0.1402 H   0  0  0  0  0  0  0  0  0  0  0  0
    2.2050    4.4552   -1.9304 C   0  0  0  0  0  0  0  0  0  0  0  0
    2.5141    5.4853   -1.6971 H   0  0  0  0  0  0  0  0  0  0  0  0
    1.9326    4.0849   -3.2566 C   0  0  0  0  0  0  0  0  0  0  0  0
    2.0254    4.8267   -4.0642 H   0  0  0  0  0  0  0  0  0  0  0  0
    1.5649    2.7618   -3.5570 C   0  0  0  0  0  0  0  0  0  0  0  0
    1.3803    2.4620   -4.5995 H   0  0  0  0  0  0  0  0  0  0  0  0
    1.4560    1.8140   -2.5316 C   0  0  0  0  0  0  0  0  0  0  0  0
    1.2122    0.7634   -2.7576 H   0  0  0  0  0  0  0  0  0  0  0  0
  2  4  1  0  0  0  0
  2 47  1  0  0  0  0
  3  4  1  0  0  0  0
  3  5  1  0  0  0  0
  4 27  1  0  0  0  0
  5  6  2  0  0  0  0
  5 14  1  0  0  0  0
  6  8  1  0  0  0  0
  7  6  1  0  0  0  0
  8  9  1  0  0  0  0
  8 10  2  0  0  0  0
 10 11  1  0  0  0  0
 12 10  1  0  0  0  0
 12 13  1  0  0  0  0
 14 12  2  0  0  0  0
 15 14  1  0  0  0  0
 16  3  1  0  0  0  0
 17 18  1  0  0  0  0
 17 16  2  0  0  0  0
 19 17  1  0  0  0  0
 20 19  1  0  0  0  0
 21 19  2  0  0  0  0
 21 23  1  0  0  0  0
 22 21  1  0  0  0  0
 23 25  2  0  0  0  0
 24 23  1  0  0  0  0
 25 16  1  0  0  0  0
 25 26  1  0  0  0  0
 27 28  1  0  0  0  0
 29 27  1  0  0  0  0
 30 32  1  0  0  0  0
 30 27  1  0  0  0  0
 30  1  1  0  0  0  0
 31 30  1  0  0  0  0
 33 36  1  0  0  0  0
 33 34  1  0  0  0  0
 33  1  1  0  0  0  0
 35 33  1  0  0  0  0
 36 45  1  0  0  0  0
 37 39  1  0  0  0  0
 37 36  2  0  0  0  0
 38 37  1  0  0  0  0
 39 41  2  0  0  0  0
 40 39  1  0  0  0  0
 41 42  1  0  0  0  0
 41 43  1  0  0  0  0
 43 44  1  0  0  0  0
 45 43  2  0  0  0  0
 45 46  1  0  0  0  0
 47 48  2  0  0  0  0
 47 56  1  0  0  0  0
 48 50  1  0  0  0  0
 49 48  1  0  0  0  0
 50 51  1  0  0  0  0
 50 52  2  0  0  0  0
 52 53  1  0  0  0  0
 54 52  1  0  0  0  0
 54 55  1  0  0  0  0
 56 54  2  0  0  0  0
 57 56  1  0  0  0  0
 58 59  1  0  0  0  0
 58  2  1  0  0  0  0
 59 60  1  0  0  0  0
 61 62  1  0  0  0  0
 61 59  2  0  0  0  0
 63 61  1  0  0  0  0
 64 63  1  0  0  0  0
 65 63  2  0  0  0  0
 65 67  1  0  0  0  0
 66 65  1  0  0  0  0
 67 58  2  0  0  0  0
 68 67  1  0  0  0  0
M  END
