1,2
q = -1.0

 67 68  0  0  0  0  0  0  0  0999 V2000
    1.8125   -0.5241    0.5872 P   0  0  0  0  0  0  0  0  0  0  0  0
   -2.0400   -0.0948    0.3066 P   0  0  0  0  0  0  0  0  0  0  0  0
    0.1962    1.2653   -1.3918 Si  0  0  0  0  0  3  0  0  0  0  0  0
    2.0010   -0.5814    2.4604 C   0  0  0  0  0  0  0  0  0  0  0  0
    3.0851   -0.5539    2.7008 H   0  0  0  0  0  0  0  0  0  0  0  0
    1.4149   -1.8979    2.9789 C   0  0  0  0  0  0  0  0  0  0  0  0
    0.3784   -2.0345    2.6069 H   0  0  0  0  0  0  0  0  0  0  0  0
    1.3950   -1.9178    4.0888 H   0  0  0  0  0  0  0  0  0  0  0  0
    2.0027   -2.7747    2.6375 H   0  0  0  0  0  0  0  0  0  0  0  0
    1.3330    0.6637    3.0559 C   0  0  0  0  0  0  0  0  0  0  0  0
    1.9331    1.5736    2.8644 H   0  0  0  0  0  0  0  0  0  0  0  0
    1.2035    0.5578    4.1535 H   0  0  0  0  0  0  0  0  0  0  0  0
    0.3345    0.8325    2.6070 H   0  0  0  0  0  0  0  0  0  0  0  0
    3.1568   -1.7217   -0.0430 C   0  0  0  0  0  0  0  0  0  0  0  0
    2.6255   -2.6984   -0.0337 H   0  0  0  0  0  0  0  0  0  0  0  0
    4.4324   -1.8628    0.7888 C   0  0  0  0  0  0  0  0  0  0  0  0
    5.0005   -0.9117    0.8267 H   0  0  0  0  0  0  0  0  0  0  0  0
    5.1026   -2.6193    0.3269 H   0  0  0  0  0  0  0  0  0  0  0  0
    4.2356   -2.1914    1.8285 H   0  0  0  0  0  0  0  0  0  0  0  0
    3.4768   -1.3632   -1.4996 C   0  0  0  0  0  0  0  0  0  0  0  0
    2.5492   -1.1875   -2.0795 H   0  0  0  0  0  0  0  0  0  0  0  0
    4.0524   -2.1766   -1.9900 H   0  0  0  0  0  0  0  0  0  0  0  0
    4.0838   -0.4369   -1.5526 H   0  0  0  0  0  0  0  0  0  0  0  0
    2.5886    1.1114    0.1804 C   0  0  0  0  0  0  0  0  0  0  0  0
    1.9200    1.8683   -0.8098 C   0  0  0  0  0  0  0  0  0  0  0  0
    2.5078    3.0747   -1.2486 C   0  0  0  0  0  0  0  0  0  0  0  0
    2.0168    3.6677   -2.0372 H   0  0  0  0  0  0  0  0  0  0  0  0
    3.7101    3.5398   -0.6946 C   0  0  0  0  0  0  0  0  0  0  0  0
    4.1519    4.4854   -1.0460 H   0  0  0  0  0  0  0  0  0  0  0  0
    4.3437    2.8015    0.3188 C   0  0  0  0  0  0  0  0  0  0  0  0
    5.2786    3.1692    0.7699 H   0  0  0  0  0  0  0  0  0  0  0  0
    3.7867    1.5889    0.7518 C   0  0  0  0  0  0  0  0  0  0  0  0
    4.2918    1.0201    1.5475 H   0  0  0  0  0  0  0  0  0  0  0  0
    0.0568    1.8571   -3.2043 C   0  0  0  0  0  0  0  0  0  0  0  0
    0.8810    1.4288   -3.8116 H   0  0  0  0  0  0  0  0  0  0  0  0
    0.1092    2.9628   -3.2865 H   0  0  0  0  0  0  0  0  0  0  0  0
   -0.9025    1.5359   -3.6560 H   0  0  0  0  0  0  0  0  0  0  0  0
   -1.0587    2.3711   -0.4248 C   0  0  0  0  0  0  0  0  0  0  0  0
   -2.0319    1.7542    0.3980 C   0  0  0  0  0  0  0  0  0  0  0  0
   -2.9191    2.5398    1.1627 C   0  0  0  0  0  0  0  0  0  0  0  0
   -3.6808    2.0653    1.8002 H   0  0  0  0  0  0  0  0  0  0  0  0
   -2.8348    3.9402    1.1239 C   0  0  0  0  0  0  0  0  0  0  0  0
   -3.5183    4.5485    1.7365 H   0  0  0  0  0  0  0  0  0  0  0  0
   -1.8812    4.5621    0.3015 C   0  0  0  0  0  0  0  0  0  0  0  0
   -1.8128    5.6608    0.2705 H   0  0  0  0  0  0  0  0  0  0  0  0
   -1.0101    3.7799   -0.4727 C   0  0  0  0  0  0  0  0  0  0  0  0
   -0.2620    4.2814   -1.1082 H   0  0  0  0  0  0  0  0  0  0  0  0
   -3.4916   -0.3794   -0.9099 C   0  0  0  0  0  0  0  0  0  0  0  0
   -3.6330   -1.4800   -0.8691 H   0  0  0  0  0  0  0  0  0  0  0  0
   -3.0582   -0.0120   -2.3298 C   0  0  0  0  0  0  0  0  0  0  0  0
   -2.9165    1.0842   -2.4283 H   0  0  0  0  0  0  0  0  0  0  0  0
   -3.8298   -0.3179   -3.0672 H   0  0  0  0  0  0  0  0  0  0  0  0
   -2.0976   -0.4984   -2.5885 H   0  0  0  0  0  0  0  0  0  0  0  0
   -4.8138    0.2997   -0.5471 C   0  0  0  0  0  0  0  0  0  0  0  0
   -5.2108   -0.0167    0.4379 H   0  0  0  0  0  0  0  0  0  0  0  0
   -5.5883    0.0493   -1.3031 H   0  0  0  0  0  0  0  0  0  0  0  0
   -4.7084    1.4037   -0.5362 H   0  0  0  0  0  0  0  0  0  0  0  0
   -2.8914   -0.6207    1.9154 C   0  0  0  0  0  0  0  0  0  0  0  0
   -3.8721   -0.0993    1.9281 H   0  0  0  0  0  0  0  0  0  0  0  0
   -2.1127   -0.2028    3.1627 C   0  0  0  0  0  0  0  0  0  0  0  0
   -1.1574   -0.7548    3.2403 H   0  0  0  0  0  0  0  0  0  0  0  0
   -2.7048   -0.4294    4.0744 H   0  0  0  0  0  0  0  0  0  0  0  0
   -1.8788    0.8794    3.1700 H   0  0  0  0  0  0  0  0  0  0  0  0
   -3.1481   -2.1308    1.9092 C   0  0  0  0  0  0  0  0  0  0  0  0
   -3.8302   -2.4445    1.0941 H   0  0  0  0  0  0  0  0  0  0  0  0
   -3.6073   -2.4527    2.8672 H   0  0  0  0  0  0  0  0  0  0  0  0
   -2.1944   -2.6861    1.7899 H   0  0  0  0  0  0  0  0  0  0  0  0
  1  4  1  0  0  0  0
  2 39  1  0  0  0  0
  2 58  1  0  0  0  0
  3 25  1  0  0  0  0
  3 38  1  0  0  0  0
  4  5  1  0  0  0  0
  4  6  1  0  0  0  0
  4 10  1  0  0  0  0
  6  8  1  0  0  0  0
  7  6  1  0  0  0  0
  9  6  1  0  0  0  0
 10 12  1  0  0  0  0
 11 10  1  0  0  0  0
 13 10  1  0  0  0  0
 14 15  1  0  0  0  0
 14  1  1  0  0  0  0
 14 16  1  0  0  0  0
 16 17  1  0  0  0  0
 16 19  1  0  0  0  0
 18 16  1  0  0  0  0
 20 14  1  0  0  0  0
 21 20  1  0  0  0  0
 22 20  1  0  0  0  0
 23 20  1  0  0  0  0
 24  1  1  0  0  0  0
 24 32  1  0  0  0  0
 25 24  2  0  0  0  0
 26 25  1  0  0  0  0
 26 28  2  0  0  0  0
 27 26  1  0  0  0  0
 28 30  1  0  0  0  0
 29 28  1  0  0  0  0
 30 32  2  0  0  0  0
 30 31  1  0  0  0  0
 32 33  1  0  0  0  0
 34  3  1  0  0  0  0
 35 34  1  0  0  0  0
 36 34  1  0  0  0  0
 37 34  1  0  0  0  0
 38 39  1  0  0  0  0
 39 40  2  0  0  0  0
 40 41  1  0  0  0  0
 42 40  1  0  0  0  0
 42 43  1  0  0  0  0
 44 42  2  0  0  0  0
 45 44  1  0  0  0  0
 46 38  2  0  0  0  0
 46 44  1  0  0  0  0
 47 46  1  0  0  0  0
 48 49  1  0  0  0  0
 48 54  1  0  0  0  0
 48  2  1  0  0  0  0
 50 48  1  0  0  0  0
 51 50  1  0  0  0  0
 52 50  1  0  0  0  0
 53 50  1  0  0  0  0
 54 57  1  0  0  0  0
 54 55  1  0  0  0  0
 56 54  1  0  0  0  0
 58 59  1  0  0  0  0
 58 60  1  0  0  0  0
 60 63  1  0  0  0  0
 60 61  1  0  0  0  0
 60 62  1  0  0  0  0
 64 58  1  0  0  0  0
 64 66  1  0  0  0  0
 65 64  1  0  0  0  0
 67 64  1  0  0  0  0
M  END
