1,2
q = 0.0, confidence = 0.996

 61 64  0  0  0  0  0  0  0  0999 V2000
    1.4205    0.1611    0.4277 P   0  0  0  0  0  0  0  0  0  0  0  0
   -1.3936    0.0625    0.5267 P   0  0  0  0  0  0  0  0  0  0  0  0
    0.0473    0.2703    1.7036 C   0  0  0  0  0  0  0  0  0  0  0  0
    0.0586    1.1484    2.3794 H   0  0  0  0  0  0  0  0  0  0  0  0
    0.0410   -0.6543    2.3140 H   0  0  0  0  0  0  0  0  0  0  0  0
    1.9681    1.9166    0.2345 C   0  0  0  0  0  0  0  0  0  0  0  0
    2.5549    2.6823    1.2817 C   0  0  0  0  0  0  0  0  0  0  0  0
    2.8310    4.0410    1.0216 C   0  0  0  0  0  0  0  0  0  0  0  0
    3.2767    4.6494    1.8247 H   0  0  0  0  0  0  0  0  0  0  0  0
    2.5600    4.6302   -0.2223 C   0  0  0  0  0  0  0  0  0  0  0  0
    2.7890    5.6947   -0.3841 H   0  0  0  0  0  0  0  0  0  0  0  0
    2.0046    3.8597   -1.2527 C   0  0  0  0  0  0  0  0  0  0  0  0
    1.7881    4.3038   -2.2354 H   0  0  0  0  0  0  0  0  0  0  0  0
    1.7135    2.5103   -1.0162 C   0  0  0  0  0  0  0  0  0  0  0  0
    1.2664    1.8938   -1.8087 H   0  0  0  0  0  0  0  0  0  0  0  0
    2.9168    2.1072    2.6279 C   0  0  0  0  0  0  0  0  0  0  0  0
    3.7903    1.4273    2.5510 H   0  0  0  0  0  0  0  0  0  0  0  0
    3.1721    2.9123    3.3432 H   0  0  0  0  0  0  0  0  0  0  0  0
    2.1013    1.5014    3.0684 H   0  0  0  0  0  0  0  0  0  0  0  0
    2.8391   -0.7270    1.1968 C   0  0  0  0  0  0  0  0  0  0  0  0
    2.6956   -1.4253    2.4117 C   0  0  0  0  0  0  0  0  0  0  0  0
    1.7442   -1.3924    2.9619 H   0  0  0  0  0  0  0  0  0  0  0  0
    3.7552   -2.1702    2.9458 C   0  0  0  0  0  0  0  0  0  0  0  0
    3.6211   -2.7098    3.8951 H   0  0  0  0  0  0  0  0  0  0  0  0
    4.9761   -2.2254    2.2593 C   0  0  0  0  0  0  0  0  0  0  0  0
    5.8159   -2.8096    2.6647 H   0  0  0  0  0  0  0  0  0  0  0  0
    5.1206   -1.5421    1.0442 C   0  0  0  0  0  0  0  0  0  0  0  0
    6.0755   -1.5966    0.4980 H   0  0  0  0  0  0  0  0  0  0  0  0
    4.0697   -0.7881    0.4848 C   0  0  0  0  0  0  0  0  0  0  0  0
    4.2743   -0.0737   -0.8259 C   0  0  0  0  0  0  0  0  0  0  0  0
    3.4041   -0.2023   -1.5010 H   0  0  0  0  0  0  0  0  0  0  0  0
    4.4051    1.0186   -0.6784 H   0  0  0  0  0  0  0  0  0  0  0  0
    5.1698   -0.4578   -1.3499 H   0  0  0  0  0  0  0  0  0  0  0  0
   -2.7377   -0.7486    1.4974 C   0  0  0  0  0  0  0  0  0  0  0  0
   -3.0805   -2.0527    1.0854 C   0  0  0  0  0  0  0  0  0  0  0  0
   -2.5546   -2.4894    0.2229 H   0  0  0  0  0  0  0  0  0  0  0  0
   -4.0776   -2.7808    1.7482 C   0  0  0  0  0  0  0  0  0  0  0  0
   -4.3315   -3.7968    1.4114 H   0  0  0  0  0  0  0  0  0  0  0  0
   -4.7422   -2.1991    2.8362 C   0  0  0  0  0  0  0  0  0  0  0  0
   -5.5282   -2.7554    3.3694 H   0  0  0  0  0  0  0  0  0  0  0  0
   -4.4047   -0.9020    3.2501 C   0  0  0  0  0  0  0  0  0  0  0  0
   -4.9292   -0.4520    4.1079 H   0  0  0  0  0  0  0  0  0  0  0  0
   -3.4069   -0.1475    2.6001 C   0  0  0  0  0  0  0  0  0  0  0  0
   -3.1051    1.2482    3.0830 C   0  0  0  0  0  0  0  0  0  0  0  0
   -3.6050    1.4466    4.0503 H   0  0  0  0  0  0  0  0  0  0  0  0
   -2.0188    1.4174    3.2192 H   0  0  0  0  0  0  0  0  0  0  0  0
   -3.4481    2.0123    2.3558 H   0  0  0  0  0  0  0  0  0  0  0  0
   -1.9823    1.7564    0.1142 C   0  0  0  0  0  0  0  0  0  0  0  0
   -1.2892    2.9025    0.5520 C   0  0  0  0  0  0  0  0  0  0  0  0
   -0.4192    2.8084    1.2155 H   0  0  0  0  0  0  0  0  0  0  0  0
   -1.6810    4.1832    0.1403 C   0  0  0  0  0  0  0  0  0  0  0  0
   -1.1164    5.0619    0.4861 H   0  0  0  0  0  0  0  0  0  0  0  0
   -2.7814    4.3281   -0.7155 C   0  0  0  0  0  0  0  0  0  0  0  0
   -3.0985    5.3274   -1.0501 H   0  0  0  0  0  0  0  0  0  0  0  0
   -3.4748    3.1913   -1.1541 C   0  0  0  0  0  0  0  0  0  0  0  0
   -4.3343    3.3047   -1.8333 H   0  0  0  0  0  0  0  0  0  0  0  0
   -3.0975    1.8923   -0.7604 C   0  0  0  0  0  0  0  0  0  0  0  0
   -3.8672    0.6991   -1.2622 C   0  0  0  0  0  0  0  0  0  0  0  0
   -3.1879   -0.0889   -1.6496 H   0  0  0  0  0  0  0  0  0  0  0  0
   -4.4630    0.2279   -0.4530 H   0  0  0  0  0  0  0  0  0  0  0  0
   -4.5605    0.9856   -2.0753 H   0  0  0  0  0  0  0  0  0  0  0  0
  1 20  1  0  0  0  0
  1  3  1  0  0  0  0
  2 34  1  0  0  0  0
  2  3  1  0  0  0  0
  3  5  1  0  0  0  0
  3  4  1  0  0  0  0
  6  1  1  0  0  0  0
  6  7  1  0  0  0  0
  7 16  1  0  0  0  0
  8  7  2  0  0  0  0
  8  9  1  0  0  0  0
 10  8  1  0  0  0  0
 11 10  1  0  0  0  0
 12 14  1  0  0  0  0
 12 10  2  0  0  0  0
 13 12  1  0  0  0  0
 14  6  2  0  0  0  0
 15 14  1  0  0  0  0
 16 19  1  0  0  0  0
 16 18  1  0  0  0  0
 17 16  1  0  0  0  0
 20 21  1  0  0  0  0
 21 23  2  0  0  0  0
 21 22  1  0  0  0  0
 23 24  1  0  0  0  0
 25 26  1  0  0  0  0
 25 23  1  0  0  0  0
 27 25  2  0  0  0  0
 28 27  1  0  0  0  0
 29 27  1  0  0  0  0
 29 20  2  0  0  0  0
 30 32  1  0  0  0  0
 30 29  1  0  0  0  0
 31 30  1  0  0  0  0
 33 30  1  0  0  0  0
 34 43  1  0  0  0  0
 35 34  2  0  0  0  0
 35 37  1  0  0  0  0
 36 35  1  0  0  0  0
 37 39  2  0  0  0  0
 38 37  1  0  0  0  0
 39 41  1  0  0  0  0
 39 40  1  0  0  0  0
 41 42  1  0  0  0  0
 43 44  1  0  0  0  0
 43 41  2  0  0  0  0
 44 46  1  0  0  0  0
 44 45  1  0  0  0  0
 47 44  1  0  0  0  0
 48  2  1  0  0  0  0
 48 49  1  0  0  0  0
 49 50  1  0  0  0  0
 51 52  1  0  0  0  0
 51 49  2  0  0  0  0
 53 51  1  0  0  0  0
 54 53  1  0  0  0  0
 55 57  1  0  0  0  0
 55 53  2  0  0  0  0
 56 55  1  0  0  0  0
 57 48  2  0  0  0  0
 58 57  1  0  0  0  0
 58 60  1  0  0  0  0
 59 58  1  0  0  0  0
 61 58  1  0  0  0  0
M  END
