1,35
q = 0.0, confidence = 0.992

 66 70  0  0  0  0  0  0  0  0999 V2000
   -1.2961    0.7974   -0.7538 P   0  0  1  0  0  0  0  0  0  0  0  0
   -1.1682   -1.9018   -1.6483 N   0  0  0  0  0  0  0  0  0  0  0  0
   -1.7083   -0.6063   -1.9770 C   0  0  0  0  0  0  0  0  0  0  0  0
   -1.6792   -2.5469   -0.4249 C   0  0  0  0  0  0  0  0  0  0  0  0
   -0.2559    2.0126   -1.8094 C   0  0  0  0  0  0  0  0  0  0  0  0
   -4.0806   -2.8787   -1.1759 C   0  0  0  0  0  0  0  0  0  0  0  0
   -5.4581   -2.6697   -1.0172 C   0  0  0  0  0  0  0  0  0  0  0  0
   -5.9369   -1.9460    0.0899 C   0  0  0  0  0  0  0  0  0  0  0  0
   -5.0319   -1.4303    1.0290 C   0  0  0  0  0  0  0  0  0  0  0  0
   -3.6511   -1.6303    0.8670 C   0  0  0  0  0  0  0  0  0  0  0  0
   -3.1653   -2.3613   -0.2345 C   0  0  0  0  0  0  0  0  0  0  0  0
   -2.7160    2.9217    0.3122 C   0  0  0  0  0  0  0  0  0  0  0  0
   -3.8507    3.6922    0.5927 C   0  0  0  0  0  0  0  0  0  0  0  0
   -5.1170    3.2694    0.1557 C   0  0  0  0  0  0  0  0  0  0  0  0
   -5.2426    2.0703   -0.5602 C   0  0  0  0  0  0  0  0  0  0  0  0
   -4.1085    1.2972   -0.8526 C   0  0  0  0  0  0  0  0  0  0  0  0
   -2.8347    1.7247   -0.4304 C   0  0  0  0  0  0  0  0  0  0  0  0
   -1.3270   -0.2970   -2.9747 H   0  0  0  0  0  0  0  0  0  0  0  0
   -2.8090   -0.6738   -2.0480 H   0  0  0  0  0  0  0  0  0  0  0  0
   -1.1506   -2.1567    0.4846 H   0  0  0  0  0  0  0  0  0  0  0  0
   -1.4283   -3.6275   -0.5059 H   0  0  0  0  0  0  0  0  0  0  0  0
   -0.5420    1.8374   -2.8710 H   0  0  0  0  0  0  0  0  0  0  0  0
   -0.5888    3.0324   -1.5319 H   0  0  0  0  0  0  0  0  0  0  0  0
   -3.7013   -3.4430   -2.0428 H   0  0  0  0  0  0  0  0  0  0  0  0
   -6.1642   -3.0788   -1.7561 H   0  0  0  0  0  0  0  0  0  0  0  0
   -7.0186   -1.7846    0.2162 H   0  0  0  0  0  0  0  0  0  0  0  0
   -5.3939   -0.8487    1.8901 H   0  0  0  0  0  0  0  0  0  0  0  0
   -2.9457   -1.1836    1.5880 H   0  0  0  0  0  0  0  0  0  0  0  0
   -1.7337    3.2338    0.6969 H   0  0  0  0  0  0  0  0  0  0  0  0
   -3.7466    4.6195    1.1756 H   0  0  0  0  0  0  0  0  0  0  0  0
   -6.0092    3.8714    0.3853 H   0  0  0  0  0  0  0  0  0  0  0  0
   -6.2322    1.7203   -0.8906 H   0  0  0  0  0  0  0  0  0  0  0  0
   -4.2445    0.3499   -1.3927 H   0  0  0  0  0  0  0  0  0  0  0  0
    0.2559   -2.0127   -1.8092 C   0  0  0  0  0  0  0  0  0  0  0  0
    1.2961   -0.7975   -0.7537 P   0  0  2  0  0  0  0  0  0  0  0  0
    1.7083    0.6062   -1.9770 C   0  0  0  0  0  0  0  0  0  0  0  0
    1.1682    1.9017   -1.6484 N   0  0  0  0  0  0  0  0  0  0  0  0
    1.6792    2.5469   -0.4251 C   0  0  0  0  0  0  0  0  0  0  0  0
    3.1652    2.3613   -0.2347 C   0  0  0  0  0  0  0  0  0  0  0  0
    4.0807    2.8786   -1.1760 C   0  0  0  0  0  0  0  0  0  0  0  0
    5.4581    2.6695   -1.0172 C   0  0  0  0  0  0  0  0  0  0  0  0
    5.9368    1.9457    0.0898 C   0  0  0  0  0  0  0  0  0  0  0  0
    5.0317    1.4301    1.0290 C   0  0  0  0  0  0  0  0  0  0  0  0
    3.6510    1.6302    0.8668 C   0  0  0  0  0  0  0  0  0  0  0  0
    2.9455    1.1836    1.5879 H   0  0  0  0  0  0  0  0  0  0  0  0
    5.3937    0.8485    1.8900 H   0  0  0  0  0  0  0  0  0  0  0  0
    7.0185    1.7843    0.2162 H   0  0  0  0  0  0  0  0  0  0  0  0
    6.1643    3.0786   -1.7562 H   0  0  0  0  0  0  0  0  0  0  0  0
    3.7015    3.4429   -2.0429 H   0  0  0  0  0  0  0  0  0  0  0  0
    1.1506    2.1569    0.4845 H   0  0  0  0  0  0  0  0  0  0  0  0
    1.4284    3.6276   -0.5062 H   0  0  0  0  0  0  0  0  0  0  0  0
    1.3271    0.2969   -2.9748 H   0  0  0  0  0  0  0  0  0  0  0  0
    2.8091    0.6737   -2.0480 H   0  0  0  0  0  0  0  0  0  0  0  0
    2.8346   -1.7247   -0.4303 C   0  0  0  0  0  0  0  0  0  0  0  0
    2.7159   -2.9216    0.3125 C   0  0  0  0  0  0  0  0  0  0  0  0
    3.8506   -3.6922    0.5930 C   0  0  0  0  0  0  0  0  0  0  0  0
    5.1170   -3.2695    0.1558 C   0  0  0  0  0  0  0  0  0  0  0  0
    5.2426   -2.0705   -0.5604 C   0  0  0  0  0  0  0  0  0  0  0  0
    4.1084   -1.2974   -0.8527 C   0  0  0  0  0  0  0  0  0  0  0  0
    4.2445   -0.3503   -1.3930 H   0  0  0  0  0  0  0  0  0  0  0  0
    6.2321   -1.7207   -0.8909 H   0  0  0  0  0  0  0  0  0  0  0  0
    6.0091   -3.8716    0.3854 H   0  0  0  0  0  0  0  0  0  0  0  0
    3.7465   -4.6194    1.1761 H   0  0  0  0  0  0  0  0  0  0  0  0
    1.7336   -3.2336    0.6973 H   0  0  0  0  0  0  0  0  0  0  0  0
    0.5420   -1.8376   -2.8709 H   0  0  0  0  0  0  0  0  0  0  0  0
    0.5888   -3.0325   -1.5316 H   0  0  0  0  0  0  0  0  0  0  0  0
  1 17  1  6  0  0  0
  2  4  1  0  0  0  0
  3  2  1  0  0  0  0
  3  1  1  0  0  0  0
  4 11  1  0  0  0  0
  4 20  1  0  0  0  0
  5 37  1  0  0  0  0
  5 23  1  0  0  0  0
  5  1  1  0  0  0  0
  6  7  2  0  0  0  0
  6 11  1  0  0  0  0
  7  8  1  0  0  0  0
  8 26  1  0  0  0  0
  8  9  2  0  0  0  0
  9 27  1  0  0  0  0
 10  9  1  0  0  0  0
 10 28  1  0  0  0  0
 11 10  2  0  0  0  0
 12 13  1  0  0  0  0
 12 29  1  0  0  0  0
 13 30  1  0  0  0  0
 14 31  1  0  0  0  0
 14 13  2  0  0  0  0
 15 14  1  0  0  0  0
 16 15  2  0  0  0  0
 16 17  1  0  0  0  0
 17 12  2  0  0  0  0
 18  3  1  0  0  0  0
 19  3  1  0  0  0  0
 21  4  1  0  0  0  0
 22  5  1  0  0  0  0
 24  6  1  0  0  0  0
 25  7  1  0  0  0  0
 32 15  1  0  0  0  0
 33 16  1  0  0  0  0
 34  2  1  0  0  0  0
 34 66  1  0  0  0  0
 34 35  1  0  0  0  0
 35 54  1  6  0  0  0
 36 37  1  0  0  0  0
 36 35  1  0  0  0  0
 37 38  1  0  0  0  0
 38 39  1  0  0  0  0
 38 50  1  0  0  0  0
 39 44  1  0  0  0  0
 40 41  1  0  0  0  0
 40 39  2  0  0  0  0
 41 42  2  0  0  0  0
 42 47  1  0  0  0  0
 42 43  1  0  0  0  0
 43 46  1  0  0  0  0
 44 43  2  0  0  0  0
 44 45  1  0  0  0  0
 48 41  1  0  0  0  0
 49 40  1  0  0  0  0
 51 38  1  0  0  0  0
 52 36  1  0  0  0  0
 53 36  1  0  0  0  0
 54 55  1  0  0  0  0
 55 56  2  0  0  0  0
 55 64  1  0  0  0  0
 56 63  1  0  0  0  0
 57 62  1  0  0  0  0
 57 56  1  0  0  0  0
 58 57  2  0  0  0  0
 59 58  1  0  0  0  0
 59 54  2  0  0  0  0
 60 59  1  0  0  0  0
 61 58  1  0  0  0  0
 65 34  1  0  0  0  0
M  END
