1,2
q = 0.0, confidence = 0.998

 71 76  0  0  1  0  0  0  0  0999 V2000
   -1.4571   -0.1040    0.3205 P   0  0  2  0  0  0  0  0  0  0  0  0
    1.9494   -0.1840    0.4077 P   0  0  0  0  0  0  0  0  0  0  0  0
   -2.7005    0.9001   -0.7157 C   0  0  1  0  0  0  0  0  0  0  0  0
   -3.4934   -0.0935   -1.5643 C   0  0  0  0  0  0  0  0  0  0  0  0
   -4.1552    0.4839   -2.2424 H   0  0  0  0  0  0  0  0  0  0  0  0
   -2.8053   -0.7261   -2.1610 H   0  0  0  0  0  0  0  0  0  0  0  0
   -4.3749   -0.9807   -0.6802 C   0  0  1  0  0  0  0  0  0  0  0  0
   -2.8172   -1.1397    1.1795 C   0  0  1  0  0  0  0  0  0  0  0  0
   -3.7428   -0.1787    1.9442 C   0  0  0  0  0  0  0  0  0  0  0  0
   -4.4995   -0.7925    2.4758 H   0  0  0  0  0  0  0  0  0  0  0  0
   -3.2052    0.4203    2.7033 H   0  0  0  0  0  0  0  0  0  0  0  0
   -4.4931    0.7288    0.9464 C   0  0  1  0  0  0  0  0  0  0  0  0
   -3.5714    1.5720    0.2153 O   0  0  0  0  0  0  0  0  0  0  0  0
   -3.5954   -1.8070    0.1907 O   0  0  0  0  0  0  0  0  0  0  0  0
   -5.2331   -0.1093    0.0768 O   0  0  0  0  0  0  0  0  0  0  0  0
   -2.0086    1.9494   -1.5682 C   0  0  0  0  0  0  0  0  0  0  0  0
   -2.7713    2.5064   -2.1496 H   0  0  0  0  0  0  0  0  0  0  0  0
   -1.3140    1.4492   -2.2709 H   0  0  0  0  0  0  0  0  0  0  0  0
   -1.4382    2.6752   -0.9591 H   0  0  0  0  0  0  0  0  0  0  0  0
   -5.4725    1.6750    1.6133 C   0  0  0  0  0  0  0  0  0  0  0  0
   -4.9389    2.3588    2.3003 H   0  0  0  0  0  0  0  0  0  0  0  0
   -6.2271    1.0989    2.1802 H   0  0  0  0  0  0  0  0  0  0  0  0
   -5.9823    2.2696    0.8325 H   0  0  0  0  0  0  0  0  0  0  0  0
   -5.2518   -1.9288   -1.4691 C   0  0  0  0  0  0  0  0  0  0  0  0
   -5.8771   -2.5129   -0.7681 H   0  0  0  0  0  0  0  0  0  0  0  0
   -4.6047   -2.6167   -2.0445 H   0  0  0  0  0  0  0  0  0  0  0  0
   -5.9051   -1.3618   -2.1579 H   0  0  0  0  0  0  0  0  0  0  0  0
   -2.1862   -2.2220    2.0408 C   0  0  0  0  0  0  0  0  0  0  0  0
   -2.9840   -2.8297    2.5139 H   0  0  0  0  0  0  0  0  0  0  0  0
   -1.5567   -1.7807    2.8397 H   0  0  0  0  0  0  0  0  0  0  0  0
   -1.5583   -2.8792    1.4080 H   0  0  0  0  0  0  0  0  0  0  0  0
   -0.9676    1.1245    1.6708 C   0  0  0  0  0  0  0  0  0  0  0  0
   -1.8082    1.8360    1.7369 H   0  0  0  0  0  0  0  0  0  0  0  0
   -0.9352    0.5547    2.6264 H   0  0  0  0  0  0  0  0  0  0  0  0
    0.2828    1.8084    1.4731 N   0  0  0  0  0  0  0  0  0  0  0  0
    0.3622    3.1418    1.0385 C   0  0  0  0  0  0  0  0  0  0  0  0
   -0.7781    3.9882    1.0174 C   0  0  0  0  0  0  0  0  0  0  0  0
   -1.7690    3.6130    1.3053 H   0  0  0  0  0  0  0  0  0  0  0  0
   -0.6735    5.3249    0.6116 C   0  0  0  0  0  0  0  0  0  0  0  0
   -1.5811    5.9478    0.6097 H   0  0  0  0  0  0  0  0  0  0  0  0
    0.5559    5.8699    0.2126 C   0  0  0  0  0  0  0  0  0  0  0  0
    0.6288    6.9188   -0.1088 H   0  0  0  0  0  0  0  0  0  0  0  0
    1.6855    5.0387    0.2201 C   0  0  0  0  0  0  0  0  0  0  0  0
    2.6629    5.4259   -0.1066 H   0  0  0  0  0  0  0  0  0  0  0  0
    1.5968    3.6993    0.6180 C   0  0  0  0  0  0  0  0  0  0  0  0
    2.4989    3.0795    0.5609 H   0  0  0  0  0  0  0  0  0  0  0  0
    1.4504    1.0221    1.7734 C   0  0  0  0  0  0  0  0  0  0  0  0
    1.2545    0.4044    2.6767 H   0  0  0  0  0  0  0  0  0  0  0  0
    2.3182    1.6688    2.0062 H   0  0  0  0  0  0  0  0  0  0  0  0
    3.0703    0.8257   -0.6267 C   0  0  0  0  0  0  0  0  0  0  0  0
    2.6813    1.1657   -1.9362 C   0  0  0  0  0  0  0  0  0  0  0  0
    1.7677    0.7183   -2.3553 H   0  0  0  0  0  0  0  0  0  0  0  0
    3.4605    2.0574   -2.6868 C   0  0  0  0  0  0  0  0  0  0  0  0
    3.1495    2.3239   -3.7080 H   0  0  0  0  0  0  0  0  0  0  0  0
    4.6332    2.6039   -2.1420 C   0  0  0  0  0  0  0  0  0  0  0  0
    5.2432    3.3021   -2.7350 H   0  0  0  0  0  0  0  0  0  0  0  0
    5.0331    2.2542   -0.8414 C   0  0  0  0  0  0  0  0  0  0  0  0
    5.9567    2.6735   -0.4143 H   0  0  0  0  0  0  0  0  0  0  0  0
    4.2530    1.3703   -0.0814 C   0  0  0  0  0  0  0  0  0  0  0  0
    4.5678    1.1069    0.9407 H   0  0  0  0  0  0  0  0  0  0  0  0
    2.9753   -1.3923    1.3274 C   0  0  0  0  0  0  0  0  0  0  0  0
    4.2579   -1.7727    0.8863 C   0  0  0  0  0  0  0  0  0  0  0  0
    4.6787   -1.3238   -0.0241 H   0  0  0  0  0  0  0  0  0  0  0  0
    4.9802   -2.7460    1.5914 C   0  0  0  0  0  0  0  0  0  0  0  0
    5.9802   -3.0402    1.2387 H   0  0  0  0  0  0  0  0  0  0  0  0
    4.4267   -3.3565    2.7278 C   0  0  0  0  0  0  0  0  0  0  0  0
    4.9958   -4.1235    3.2746 H   0  0  0  0  0  0  0  0  0  0  0  0
    3.1364   -3.0027    3.1526 C   0  0  0  0  0  0  0  0  0  0  0  0
    2.6858   -3.4964    4.0267 H   0  0  0  0  0  0  0  0  0  0  0  0
    2.4099   -2.0302    2.4515 C   0  0  0  0  0  0  0  0  0  0  0  0
    1.3804   -1.7946    2.7646 H   0  0  0  0  0  0  0  0  0  0  0  0
  1  8  1  0  0  0  0
  1 32  1  1  0  0  0
  2 61  1  0  0  0  0
  2 47  1  0  0  0  0
  3 16  1  6  0  0  0
  3 13  1  0  0  0  0
  3  1  1  0  0  0  0
  4  3  1  0  0  0  0
  4  7  1  0  0  0  0
  5  4  1  0  0  0  0
  6  4  1  0  0  0  0
  7 24  1  6  0  0  0
  7 15  1  0  0  0  0
  7 14  1  0  0  0  0
  8  9  1  0  0  0  0
  8 28  1  1  0  0  0
  9 10  1  0  0  0  0
  9 11  1  0  0  0  0
 12 20  1  1  0  0  0
 12  9  1  0  0  0  0
 13 12  1  0  0  0  0
 14  8  1  0  0  0  0
 15 12  1  0  0  0  0
 16 19  1  0  0  0  0
 17 16  1  0  0  0  0
 18 16  1  0  0  0  0
 20 22  1  0  0  0  0
 20 21  1  0  0  0  0
 23 20  1  0  0  0  0
 24 25  1  0  0  0  0
 26 24  1  0  0  0  0
 27 24  1  0  0  0  0
 28 29  1  0  0  0  0
 28 30  1  0  0  0  0
 31 28  1  0  0  0  0
 32 33  1  0  0  0  0
 32 34  1  0  0  0  0
 35 32  1  0  0  0  0
 35 47  1  0  0  0  0
 36 35  1  0  0  0  0
 37 36  1  0  0  0  0
 37 38  1  0  0  0  0
 39 37  2  0  0  0  0
 40 39  1  0  0  0  0
 41 43  2  0  0  0  0
 41 39  1  0  0  0  0
 42 41  1  0  0  0  0
 43 45  1  0  0  0  0
 44 43  1  0  0  0  0
 45 36  2  0  0  0  0
 46 45  1  0  0  0  0
 47 49  1  0  0  0  0
 47 48  1  0  0  0  0
 50 59  1  0  0  0  0
 50  2  1  0  0  0  0
 51 50  2  0  0  0  0
 52 51  1  0  0  0  0
 53 55  2  0  0  0  0
 53 51  1  0  0  0  0
 54 53  1  0  0  0  0
 55 57  1  0  0  0  0
 56 55  1  0  0  0  0
 57 58  1  0  0  0  0
 57 59  2  0  0  0  0
 59 60  1  0  0  0  0
 61 70  1  0  0  0  0
 62 61  2  0  0  0  0
 62 64  1  0  0  0  0
 63 62  1  0  0  0  0
 64 66  2  0  0  0  0
 65 64  1  0  0  0  0
 66 68  1  0  0  0  0
 66 67  1  0  0  0  0
 68 69  1  0  0  0  0
 70 71  1  0  0  0  0
 70 68  2  0  0  0  0
M  END
