1,39
q = 0.0, confidence = 0.994

 76 79  0  0  0  0  0  0  0  0999 V2000
    1.5823   -0.1901   -0.5810 P   0  0  0  0  0  0  0  0  0  0  0  0
    0.7480    0.1746   -2.2207 C   0  0  0  0  0  0  0  0  0  0  0  0
    0.8897    1.2617   -2.3899 H   0  0  0  0  0  0  0  0  0  0  0  0
    1.2832   -0.3496   -3.0395 H   0  0  0  0  0  0  0  0  0  0  0  0
    1.2111   -2.9472   -0.8648 C   0  0  0  0  0  0  0  0  0  0  0  0
    0.5309   -2.7398   -1.7170 H   0  0  0  0  0  0  0  0  0  0  0  0
    0.5950   -2.8580    0.0569 H   0  0  0  0  0  0  0  0  0  0  0  0
    1.7709   -4.3708   -0.9813 C   0  0  0  0  0  0  0  0  0  0  0  0
    0.9344   -5.1008   -0.9857 H   0  0  0  0  0  0  0  0  0  0  0  0
    2.2912   -4.4837   -1.9596 H   0  0  0  0  0  0  0  0  0  0  0  0
    2.7548   -4.6785    0.1526 C   0  0  0  0  0  0  0  0  0  0  0  0
    2.2108   -4.6602    1.1230 H   0  0  0  0  0  0  0  0  0  0  0  0
    3.1689   -5.7025    0.0409 H   0  0  0  0  0  0  0  0  0  0  0  0
    3.8826   -3.6416    0.1891 C   0  0  0  0  0  0  0  0  0  0  0  0
    4.4856   -3.7258   -0.7440 H   0  0  0  0  0  0  0  0  0  0  0  0
    4.5772   -3.8497    1.0295 H   0  0  0  0  0  0  0  0  0  0  0  0
    3.3365   -2.2129    0.3177 C   0  0  0  0  0  0  0  0  0  0  0  0
    4.1771   -1.4893    0.3014 H   0  0  0  0  0  0  0  0  0  0  0  0
    2.8383   -2.0780    1.3023 H   0  0  0  0  0  0  0  0  0  0  0  0
    2.3286   -1.8881   -0.8005 C   0  0  0  0  0  0  0  0  0  0  0  0
    2.8627   -1.8711   -1.7793 H   0  0  0  0  0  0  0  0  0  0  0  0
    4.0119    0.9033   -1.6436 C   0  0  0  0  0  0  0  0  0  0  0  0
    4.3827   -0.1334   -1.7841 H   0  0  0  0  0  0  0  0  0  0  0  0
    3.4875    1.1823   -2.5857 H   0  0  0  0  0  0  0  0  0  0  0  0
    5.1956    1.8592   -1.4270 C   0  0  0  0  0  0  0  0  0  0  0  0
    5.7847    1.5071   -0.5508 H   0  0  0  0  0  0  0  0  0  0  0  0
    5.8796    1.8200   -2.3007 H   0  0  0  0  0  0  0  0  0  0  0  0
    4.7235    3.2960   -1.1721 C   0  0  0  0  0  0  0  0  0  0  0  0
    4.2242    3.6835   -2.0893 H   0  0  0  0  0  0  0  0  0  0  0  0
    5.5932    3.9606   -0.9870 H   0  0  0  0  0  0  0  0  0  0  0  0
    3.7387    3.3577    0.0022 C   0  0  0  0  0  0  0  0  0  0  0  0
    4.2625    3.0674    0.9399 H   0  0  0  0  0  0  0  0  0  0  0  0
    3.3771    4.3960    0.1551 H   0  0  0  0  0  0  0  0  0  0  0  0
    2.5464    2.4150   -0.2078 C   0  0  0  0  0  0  0  0  0  0  0  0
    1.9450    2.7767   -1.0725 H   0  0  0  0  0  0  0  0  0  0  0  0
    1.8760    2.4206    0.6761 H   0  0  0  0  0  0  0  0  0  0  0  0
    3.0229    0.9751   -0.4694 C   0  0  0  0  0  0  0  0  0  0  0  0
    3.5235    0.6290    0.4637 H   0  0  0  0  0  0  0  0  0  0  0  0
   -1.5823    0.1900   -0.5810 P   0  0  0  0  0  0  0  0  0  0  0  0
   -0.7480   -0.1749   -2.2207 C   0  0  0  0  0  0  0  0  0  0  0  0
   -0.8897   -1.2620   -2.3897 H   0  0  0  0  0  0  0  0  0  0  0  0
   -1.2833    0.3492   -3.0395 H   0  0  0  0  0  0  0  0  0  0  0  0
   -1.2111    2.9471   -0.8648 C   0  0  0  0  0  0  0  0  0  0  0  0
   -0.5307    2.7397   -1.7168 H   0  0  0  0  0  0  0  0  0  0  0  0
   -0.5952    2.8579    0.0571 H   0  0  0  0  0  0  0  0  0  0  0  0
   -1.7709    4.3707   -0.9813 C   0  0  0  0  0  0  0  0  0  0  0  0
   -0.9344    5.1008   -0.9856 H   0  0  0  0  0  0  0  0  0  0  0  0
   -2.2911    4.4837   -1.9597 H   0  0  0  0  0  0  0  0  0  0  0  0
   -2.7551    4.6785    0.1524 C   0  0  0  0  0  0  0  0  0  0  0  0
   -2.2112    4.6601    1.1229 H   0  0  0  0  0  0  0  0  0  0  0  0
   -3.1691    5.7024    0.0407 H   0  0  0  0  0  0  0  0  0  0  0  0
   -3.8828    3.6415    0.1887 C   0  0  0  0  0  0  0  0  0  0  0  0
   -4.4856    3.7257   -0.7445 H   0  0  0  0  0  0  0  0  0  0  0  0
   -4.5776    3.8496    1.0289 H   0  0  0  0  0  0  0  0  0  0  0  0
   -3.3368    2.2128    0.3174 C   0  0  0  0  0  0  0  0  0  0  0  0
   -4.1774    1.4892    0.3009 H   0  0  0  0  0  0  0  0  0  0  0  0
   -2.8388    2.0779    1.3021 H   0  0  0  0  0  0  0  0  0  0  0  0
   -2.3287    1.8880   -0.8006 C   0  0  0  0  0  0  0  0  0  0  0  0
   -2.8626    1.8710   -1.7795 H   0  0  0  0  0  0  0  0  0  0  0  0
   -4.0118   -0.9036   -1.6436 C   0  0  0  0  0  0  0  0  0  0  0  0
   -4.3826    0.1331   -1.7843 H   0  0  0  0  0  0  0  0  0  0  0  0
   -3.4873   -1.1826   -2.5856 H   0  0  0  0  0  0  0  0  0  0  0  0
   -5.1955   -1.8595   -1.4270 C   0  0  0  0  0  0  0  0  0  0  0  0
   -5.7846   -1.5073   -0.5509 H   0  0  0  0  0  0  0  0  0  0  0  0
   -5.8794   -1.8205   -2.3008 H   0  0  0  0  0  0  0  0  0  0  0  0
   -4.7233   -3.2962   -1.1718 C   0  0  0  0  0  0  0  0  0  0  0  0
   -4.2239   -3.6838   -2.0891 H   0  0  0  0  0  0  0  0  0  0  0  0
   -5.5929   -3.9609   -0.9868 H   0  0  0  0  0  0  0  0  0  0  0  0
   -3.7386   -3.3578    0.0025 C   0  0  0  0  0  0  0  0  0  0  0  0
   -4.2625   -3.0675    0.9401 H   0  0  0  0  0  0  0  0  0  0  0  0
   -3.3770   -4.3961    0.1556 H   0  0  0  0  0  0  0  0  0  0  0  0
   -2.5463   -2.4150   -0.2075 C   0  0  0  0  0  0  0  0  0  0  0  0
   -1.9448   -2.7768   -1.0721 H   0  0  0  0  0  0  0  0  0  0  0  0
   -1.8760   -2.4205    0.6765 H   0  0  0  0  0  0  0  0  0  0  0  0
   -3.0229   -0.9752   -0.4693 C   0  0  0  0  0  0  0  0  0  0  0  0
   -3.5236   -0.6291    0.4637 H   0  0  0  0  0  0  0  0  0  0  0  0
  1 37  1  0  0  0  0
  2 40  1  0  0  0  0
  2  1  1  0  0  0  0
  3  2  1  0  0  0  0
  4  2  1  0  0  0  0
  5 20  1  0  0  0  0
  5  7  1  0  0  0  0
  6  5  1  0  0  0  0
  8  5  1  0  0  0  0
  8 11  1  0  0  0  0
  9  8  1  0  0  0  0
 10  8  1  0  0  0  0
 11 14  1  0  0  0  0
 11 12  1  0  0  0  0
 13 11  1  0  0  0  0
 14 17  1  0  0  0  0
 14 16  1  0  0  0  0
 15 14  1  0  0  0  0
 17 19  1  0  0  0  0
 18 17  1  0  0  0  0
 20  1  1  0  0  0  0
 20 17  1  0  0  0  0
 21 20  1  0  0  0  0
 22 25  1  0  0  0  0
 22 37  1  0  0  0  0
 23 22  1  0  0  0  0
 24 22  1  0  0  0  0
 25 28  1  0  0  0  0
 25 26  1  0  0  0  0
 27 25  1  0  0  0  0
 28 30  1  0  0  0  0
 28 31  1  0  0  0  0
 29 28  1  0  0  0  0
 31 33  1  0  0  0  0
 31 32  1  0  0  0  0
 34 31  1  0  0  0  0
 34 36  1  0  0  0  0
 35 34  1  0  0  0  0
 37 34  1  0  0  0  0
 37 38  1  0  0  0  0
 39 75  1  0  0  0  0
 40 39  1  0  0  0  0
 41 40  1  0  0  0  0
 42 40  1  0  0  0  0
 43 58  1  0  0  0  0
 43 45  1  0  0  0  0
 44 43  1  0  0  0  0
 46 43  1  0  0  0  0
 46 49  1  0  0  0  0
 47 46  1  0  0  0  0
 48 46  1  0  0  0  0
 49 52  1  0  0  0  0
 49 50  1  0  0  0  0
 51 49  1  0  0  0  0
 52 55  1  0  0  0  0
 52 54  1  0  0  0  0
 53 52  1  0  0  0  0
 55 57  1  0  0  0  0
 56 55  1  0  0  0  0
 58 39  1  0  0  0  0
 58 55  1  0  0  0  0
 59 58  1  0  0  0  0
 60 63  1  0  0  0  0
 60 75  1  0  0  0  0
 61 60  1  0  0  0  0
 62 60  1  0  0  0  0
 63 66  1  0  0  0  0
 63 64  1  0  0  0  0
 65 63  1  0  0  0  0
 66 68  1  0  0  0  0
 66 69  1  0  0  0  0
 67 66  1  0  0  0  0
 69 71  1  0  0  0  0
 69 70  1  0  0  0  0
 72 69  1  0  0  0  0
 72 74  1  0  0  0  0
 73 72  1  0  0  0  0
 75 72  1  0  0  0  0
 75 76  1  0  0  0  0
M  END
