1,2
q = 0.0, confidence = 0.988

 38 39  0  0  0  0  0  0  0  0999 V2000
   -0.0103    1.6161   -0.1096 P   0  0  0  0  0  0  0  0  0  0  0  0
   -0.0104   -1.6161    0.1096 P   0  0  0  0  0  0  0  0  0  0  0  0
    0.1710    2.3600   -1.5560 O   0  0  0  0  0  0  0  0  0  0  0  0
   -0.2718    2.9074    0.8773 O   0  0  0  0  0  0  0  0  0  0  0  0
   -0.2718   -2.9073   -0.8775 O   0  0  0  0  0  0  0  0  0  0  0  0
    0.1709   -2.3601    1.5559 O   0  0  0  0  0  0  0  0  0  0  0  0
    1.7700    1.2735    0.1695 C   0  0  0  0  0  0  0  0  0  0  0  0
    2.5219    2.4254    0.4191 C   0  0  0  0  0  0  0  0  0  0  0  0
    1.9919    3.3794    0.5529 H   0  0  0  0  0  0  0  0  0  0  0  0
    3.9330    2.3958    0.4781 C   0  0  0  0  0  0  0  0  0  0  0  0
    4.4923    3.3213    0.6792 H   0  0  0  0  0  0  0  0  0  0  0  0
    4.5949    1.2041    0.2453 C   0  0  0  0  0  0  0  0  0  0  0  0
    5.6951    1.1624    0.2460 H   0  0  0  0  0  0  0  0  0  0  0  0
    4.5949   -1.2043   -0.2452 C   0  0  0  0  0  0  0  0  0  0  0  0
    5.6951   -1.1625   -0.2458 H   0  0  0  0  0  0  0  0  0  0  0  0
    3.9330   -2.3959   -0.4781 C   0  0  0  0  0  0  0  0  0  0  0  0
    4.4923   -3.3214   -0.6791 H   0  0  0  0  0  0  0  0  0  0  0  0
    2.5219   -2.4254   -0.4191 C   0  0  0  0  0  0  0  0  0  0  0  0
    1.9918   -3.3794   -0.5529 H   0  0  0  0  0  0  0  0  0  0  0  0
    1.7700   -1.2736   -0.1695 C   0  0  0  0  0  0  0  0  0  0  0  0
    2.4217   -0.0000    0.0000 C   0  0  0  0  0  0  0  0  0  0  0  0
    3.8750   -0.0000    0.0001 C   0  0  0  0  0  0  0  0  0  0  0  0
   -0.9449    2.9328   -2.2647 C   0  0  0  0  0  0  0  0  0  0  0  0
   -1.7478    2.1862   -2.4234 H   0  0  0  0  0  0  0  0  0  0  0  0
   -0.5387    3.2822   -3.2323 H   0  0  0  0  0  0  0  0  0  0  0  0
   -1.3675    3.7840   -1.6958 H   0  0  0  0  0  0  0  0  0  0  0  0
   -0.8744    2.7446    2.1702 C   0  0  0  0  0  0  0  0  0  0  0  0
   -1.8883    2.3068    2.0665 H   0  0  0  0  0  0  0  0  0  0  0  0
   -0.9495    3.7597    2.6030 H   0  0  0  0  0  0  0  0  0  0  0  0
   -0.2433    2.1130    2.8318 H   0  0  0  0  0  0  0  0  0  0  0  0
   -0.8746   -2.7446   -2.1703 C   0  0  0  0  0  0  0  0  0  0  0  0
   -1.8884   -2.3065   -2.0665 H   0  0  0  0  0  0  0  0  0  0  0  0
   -0.9501   -3.7598   -2.6029 H   0  0  0  0  0  0  0  0  0  0  0  0
   -0.2433   -2.1133   -2.8321 H   0  0  0  0  0  0  0  0  0  0  0  0
   -0.9451   -2.9328    2.2645 C   0  0  0  0  0  0  0  0  0  0  0  0
   -1.7478   -2.1861    2.4236 H   0  0  0  0  0  0  0  0  0  0  0  0
   -0.5388   -3.2826    3.2320 H   0  0  0  0  0  0  0  0  0  0  0  0
   -1.3681   -3.7837    1.6954 H   0  0  0  0  0  0  0  0  0  0  0  0
  1  7  1  0  0  0  0
  1  4  1  0  0  0  0
  2  6  1  0  0  0  0
  3  1  1  0  0  0  0
  4 27  1  0  0  0  0
  5  2  1  0  0  0  0
  6 35  1  0  0  0  0
  7  8  1  0  0  0  0
  8 10  2  0  0  0  0
  8  9  1  0  0  0  0
 10 11  1  0  0  0  0
 12 13  1  0  0  0  0
 12 10  1  0  0  0  0
 14 22  1  0  0  0  0
 15 14  1  0  0  0  0
 16 18  1  0  0  0  0
 16 14  2  0  0  0  0
 17 16  1  0  0  0  0
 18 20  2  0  0  0  0
 19 18  1  0  0  0  0
 20 21  1  0  0  0  0
 20  2  1  0  0  0  0
 21 22  1  0  0  0  0
 21  7  2  0  0  0  0
 22 12  2  0  0  0  0
 23 26  1  0  0  0  0
 23  3  1  0  0  0  0
 24 23  1  0  0  0  0
 25 23  1  0  0  0  0
 27 29  1  0  0  0  0
 27 30  1  0  0  0  0
 28 27  1  0  0  0  0
 31 32  1  0  0  0  0
 31  5  1  0  0  0  0
 33 31  1  0  0  0  0
 34 31  1  0  0  0  0
 35 36  1  0  0  0  0
 35 37  1  0  0  0  0
 38 35  1  0  0  0  0
M  END
