1,2
q = 0.0, confidence = 0.988

 68 73  0  0  0  0  0  0  0  0999 V2000
   -1.7541   -0.0395   -0.2650 P   0  0  0  0  0  0  0  0  0  0  0  0
    1.5521    0.5247   -0.1490 P   0  0  0  0  0  0  0  0  0  0  0  0
    1.5124   -0.2768   -1.8447 C   0  0  0  0  0  0  0  0  0  0  0  0
   -1.4588   -1.1192   -1.7834 C   0  0  0  0  0  0  0  0  0  0  0  0
    1.6577   -1.7779   -1.7492 C   0  0  0  0  0  0  0  0  0  0  0  0
    2.9773   -2.2333   -1.8347 C   0  0  0  0  0  0  0  0  0  0  0  0
    3.3437   -3.5775   -1.6089 C   0  0  0  0  0  0  0  0  0  0  0  0
    2.3640   -4.4891   -1.2703 C   0  0  0  0  0  0  0  0  0  0  0  0
    0.9958   -4.0978   -1.1973 C   0  0  0  0  0  0  0  0  0  0  0  0
    0.0279   -5.0927   -0.8751 C   0  0  0  0  0  0  0  0  0  0  0  0
   -1.3190   -4.7900   -0.8481 C   0  0  0  0  0  0  0  0  0  0  0  0
   -1.7305   -3.4765   -1.1619 C   0  0  0  0  0  0  0  0  0  0  0  0
   -0.8278   -2.4507   -1.4587 C   0  0  0  0  0  0  0  0  0  0  0  0
    0.5952   -2.7225   -1.4616 C   0  0  0  0  0  0  0  0  0  0  0  0
    3.2605    0.1130    0.3624 C   0  0  0  0  0  0  0  0  0  0  0  0
    3.4876   -1.0519    1.1209 C   0  0  0  0  0  0  0  0  0  0  0  0
    4.8001   -1.4597    1.3927 C   0  0  0  0  0  0  0  0  0  0  0  0
    5.8871   -0.7057    0.9200 C   0  0  0  0  0  0  0  0  0  0  0  0
    5.6608    0.4605    0.1721 C   0  0  0  0  0  0  0  0  0  0  0  0
    4.3483    0.8709   -0.1109 C   0  0  0  0  0  0  0  0  0  0  0  0
    1.5327    2.3273   -0.5067 C   0  0  0  0  0  0  0  0  0  0  0  0
    1.2090    2.8476   -1.7759 C   0  0  0  0  0  0  0  0  0  0  0  0
    1.0972    4.2347   -1.9607 C   0  0  0  0  0  0  0  0  0  0  0  0
    1.3167    5.1093   -0.8869 C   0  0  0  0  0  0  0  0  0  0  0  0
    1.6433    4.5936    0.3789 C   0  0  0  0  0  0  0  0  0  0  0  0
    1.7429    3.2106    0.5766 C   0  0  0  0  0  0  0  0  0  0  0  0
   -3.3513   -0.7542    0.2913 C   0  0  0  0  0  0  0  0  0  0  0  0
   -3.3395   -1.8336    1.1977 C   0  0  0  0  0  0  0  0  0  0  0  0
   -4.5400   -2.4767    1.5282 C   0  0  0  0  0  0  0  0  0  0  0  0
   -5.7540   -2.0391    0.9727 C   0  0  0  0  0  0  0  0  0  0  0  0
   -5.7668   -0.9556    0.0808 C   0  0  0  0  0  0  0  0  0  0  0  0
   -4.5665   -0.3141   -0.2652 C   0  0  0  0  0  0  0  0  0  0  0  0
   -2.1373    1.6188   -0.9593 C   0  0  0  0  0  0  0  0  0  0  0  0
   -2.3410    1.8554   -2.3344 C   0  0  0  0  0  0  0  0  0  0  0  0
   -2.5443    3.1642   -2.8015 C   0  0  0  0  0  0  0  0  0  0  0  0
   -2.5469    4.2403   -1.9019 C   0  0  0  0  0  0  0  0  0  0  0  0
   -2.3590    4.0062   -0.5295 C   0  0  0  0  0  0  0  0  0  0  0  0
   -2.1547    2.7045   -0.0548 C   0  0  0  0  0  0  0  0  0  0  0  0
    0.6122    0.0873   -2.3607 H   0  0  0  0  0  0  0  0  0  0  0  0
    2.3835    0.1454   -2.3844 H   0  0  0  0  0  0  0  0  0  0  0  0
   -2.4716   -1.2896   -2.1978 H   0  0  0  0  0  0  0  0  0  0  0  0
   -0.9073   -0.5467   -2.5442 H   0  0  0  0  0  0  0  0  0  0  0  0
    3.7678   -1.4996   -2.0533 H   0  0  0  0  0  0  0  0  0  0  0  0
    4.3995   -3.8771   -1.6801 H   0  0  0  0  0  0  0  0  0  0  0  0
    2.6169   -5.5397   -1.0607 H   0  0  0  0  0  0  0  0  0  0  0  0
    0.3818   -6.1134   -0.6642 H   0  0  0  0  0  0  0  0  0  0  0  0
   -2.0689   -5.5581   -0.6085 H   0  0  0  0  0  0  0  0  0  0  0  0
   -2.8060   -3.2472   -1.1841 H   0  0  0  0  0  0  0  0  0  0  0  0
    2.6318   -1.6265    1.5029 H   0  0  0  0  0  0  0  0  0  0  0  0
    4.9741   -2.3698    1.9860 H   0  0  0  0  0  0  0  0  0  0  0  0
    6.9169   -1.0246    1.1426 H   0  0  0  0  0  0  0  0  0  0  0  0
    6.5101    1.0594   -0.1907 H   0  0  0  0  0  0  0  0  0  0  0  0
    4.1699    1.7877   -0.6941 H   0  0  0  0  0  0  0  0  0  0  0  0
    1.0276    2.1828   -2.6319 H   0  0  0  0  0  0  0  0  0  0  0  0
    0.8308    4.6296   -2.9525 H   0  0  0  0  0  0  0  0  0  0  0  0
    1.2261    6.1963   -1.0343 H   0  0  0  0  0  0  0  0  0  0  0  0
    1.8088    5.2740    1.2278 H   0  0  0  0  0  0  0  0  0  0  0  0
    1.9523    2.7944    1.5763 H   0  0  0  0  0  0  0  0  0  0  0  0
   -2.3913   -2.1511    1.6537 H   0  0  0  0  0  0  0  0  0  0  0  0
   -4.5278   -3.3163    2.2393 H   0  0  0  0  0  0  0  0  0  0  0  0
   -6.6962   -2.5389    1.2448 H   0  0  0  0  0  0  0  0  0  0  0  0
   -6.7171   -0.6006   -0.3460 H   0  0  0  0  0  0  0  0  0  0  0  0
   -4.5790    0.5397   -0.9601 H   0  0  0  0  0  0  0  0  0  0  0  0
   -2.3465    1.0247   -3.0552 H   0  0  0  0  0  0  0  0  0  0  0  0
   -2.7000    3.3405   -3.8768 H   0  0  0  0  0  0  0  0  0  0  0  0
   -2.6955    5.2663   -2.2716 H   0  0  0  0  0  0  0  0  0  0  0  0
   -2.3595    4.8466    0.1806 H   0  0  0  0  0  0  0  0  0  0  0  0
   -2.0035    2.5109    1.0203 H   0  0  0  0  0  0  0  0  0  0  0  0
  1 27  1  0  0  0  0
  2 15  1  0  0  0  0
  3  5  1  0  0  0  0
  3  2  1  0  0  0  0
  4 13  1  0  0  0  0
  4  1  1  0  0  0  0
  5 14  1  0  0  0  0
  6  5  2  0  0  0  0
  6  7  1  0  0  0  0
  7  8  2  0  0  0  0
  8  9  1  0  0  0  0
  8 45  1  0  0  0  0
  9 10  1  0  0  0  0
 10 11  2  0  0  0  0
 10 46  1  0  0  0  0
 11 47  1  0  0  0  0
 12 11  1  0  0  0  0
 13 12  2  0  0  0  0
 14 13  1  0  0  0  0
 14  9  2  0  0  0  0
 15 16  1  0  0  0  0
 16 17  2  0  0  0  0
 16 49  1  0  0  0  0
 17 50  1  0  0  0  0
 18 51  1  0  0  0  0
 18 17  1  0  0  0  0
 19 18  2  0  0  0  0
 20 19  1  0  0  0  0
 20 15  2  0  0  0  0
 21  2  1  0  0  0  0
 21 26  1  0  0  0  0
 22 21  2  0  0  0  0
 23 22  1  0  0  0  0
 23 24  2  0  0  0  0
 24 25  1  0  0  0  0
 25 26  2  0  0  0  0
 25 57  1  0  0  0  0
 26 58  1  0  0  0  0
 27 28  1  0  0  0  0
 28 29  2  0  0  0  0
 28 59  1  0  0  0  0
 29 60  1  0  0  0  0
 30 61  1  0  0  0  0
 30 29  1  0  0  0  0
 31 30  2  0  0  0  0
 32 31  1  0  0  0  0
 32 27  2  0  0  0  0
 33  1  1  0  0  0  0
 33 38  1  0  0  0  0
 34 33  2  0  0  0  0
 35 34  1  0  0  0  0
 35 36  2  0  0  0  0
 36 37  1  0  0  0  0
 37 38  2  0  0  0  0
 37 67  1  0  0  0  0
 38 68  1  0  0  0  0
 39  3  1  0  0  0  0
 40  3  1  0  0  0  0
 41  4  1  0  0  0  0
 42  4  1  0  0  0  0
 43  6  1  0  0  0  0
 44  7  1  0  0  0  0
 48 12  1  0  0  0  0
 52 19  1  0  0  0  0
 53 20  1  0  0  0  0
 54 22  1  0  0  0  0
 55 23  1  0  0  0  0
 56 24  1  0  0  0  0
 62 31  1  0  0  0  0
 63 32  1  0  0  0  0
 64 34  1  0  0  0  0
 65 35  1  0  0  0  0
 66 36  1  0  0  0  0
M  END
