1,2
q = 0.0, confidence = 0.99

 67 72  0  0  0  0  0  0  0  0999 V2000
   -2.0566   -0.5849    0.0704 P   0  0  0  0  0  0  0  0  0  0  0  0
    1.0779    1.2397   -0.0527 P   0  0  0  0  0  0  0  0  0  0  0  0
   -1.3660    1.6063    1.7643 O   0  0  0  0  0  0  0  0  0  0  0  0
   -2.1466    2.1027    0.7344 C   0  0  0  0  0  0  0  0  0  0  0  0
   -2.6508    1.1409   -0.1646 C   0  0  0  0  0  0  0  0  0  0  0  0
   -3.4627    1.5784   -1.2266 C   0  0  0  0  0  0  0  0  0  0  0  0
   -3.8521    0.8418   -1.9442 H   0  0  0  0  0  0  0  0  0  0  0  0
   -3.7584    2.9416   -1.3836 C   0  0  0  0  0  0  0  0  0  0  0  0
   -4.3849    3.2710   -2.2253 H   0  0  0  0  0  0  0  0  0  0  0  0
   -3.2495    3.8799   -0.4729 C   0  0  0  0  0  0  0  0  0  0  0  0
   -3.4785    4.9493   -0.5943 H   0  0  0  0  0  0  0  0  0  0  0  0
   -2.4404    3.4657    0.5958 C   0  0  0  0  0  0  0  0  0  0  0  0
   -2.0280    4.1916    1.3108 H   0  0  0  0  0  0  0  0  0  0  0  0
   -0.2910    2.3663    2.1769 C   0  0  0  0  0  0  0  0  0  0  0  0
    0.8990    2.3718    1.4108 C   0  0  0  0  0  0  0  0  0  0  0  0
    1.9470    3.2120    1.8462 C   0  0  0  0  0  0  0  0  0  0  0  0
    2.8766    3.2604    1.2625 H   0  0  0  0  0  0  0  0  0  0  0  0
    1.8300    3.9728    3.0191 C   0  0  0  0  0  0  0  0  0  0  0  0
    2.6648    4.6168    3.3325 H   0  0  0  0  0  0  0  0  0  0  0  0
    0.6626    3.9002    3.7938 C   0  0  0  0  0  0  0  0  0  0  0  0
    0.5758    4.4775    4.7264 H   0  0  0  0  0  0  0  0  0  0  0  0
   -0.4048    3.0981    3.3669 C   0  0  0  0  0  0  0  0  0  0  0  0
   -1.3439    3.0286    3.9344 H   0  0  0  0  0  0  0  0  0  0  0  0
   -3.0043   -1.4786   -1.2309 C   0  0  0  0  0  0  0  0  0  0  0  0
   -2.3517   -1.8268   -2.4299 C   0  0  0  0  0  0  0  0  0  0  0  0
   -1.2698   -1.6524   -2.5269 H   0  0  0  0  0  0  0  0  0  0  0  0
   -3.0663   -2.4352   -3.4719 C   0  0  0  0  0  0  0  0  0  0  0  0
   -2.5462   -2.7104   -4.4018 H   0  0  0  0  0  0  0  0  0  0  0  0
   -4.4337   -2.7146   -3.3182 C   0  0  0  0  0  0  0  0  0  0  0  0
   -4.9919   -3.2016   -4.1323 H   0  0  0  0  0  0  0  0  0  0  0  0
   -5.0842   -2.3867   -2.1178 C   0  0  0  0  0  0  0  0  0  0  0  0
   -6.1525   -2.6171   -1.9873 H   0  0  0  0  0  0  0  0  0  0  0  0
   -4.3738   -1.7704   -1.0764 C   0  0  0  0  0  0  0  0  0  0  0  0
   -4.8856   -1.5213   -0.1347 H   0  0  0  0  0  0  0  0  0  0  0  0
   -2.8743   -1.0598    1.6584 C   0  0  0  0  0  0  0  0  0  0  0  0
   -2.3692   -2.1480    2.3981 C   0  0  0  0  0  0  0  0  0  0  0  0
   -1.5015   -2.7078    2.0142 H   0  0  0  0  0  0  0  0  0  0  0  0
   -2.9831   -2.5221    3.6028 C   0  0  0  0  0  0  0  0  0  0  0  0
   -2.5812   -3.3742    4.1719 H   0  0  0  0  0  0  0  0  0  0  0  0
   -4.0983   -1.8169    4.0819 C   0  0  0  0  0  0  0  0  0  0  0  0
   -4.5749   -2.1123    5.0292 H   0  0  0  0  0  0  0  0  0  0  0  0
   -4.6025   -0.7311    3.3489 C   0  0  0  0  0  0  0  0  0  0  0  0
   -5.4759   -0.1716    3.7179 H   0  0  0  0  0  0  0  0  0  0  0  0
   -3.9939   -0.3514    2.1432 C   0  0  0  0  0  0  0  0  0  0  0  0
   -4.3892    0.5070    1.5792 H   0  0  0  0  0  0  0  0  0  0  0  0
    0.3006    2.1496   -1.4546 C   0  0  0  0  0  0  0  0  0  0  0  0
    0.2537    3.5560   -1.4999 C   0  0  0  0  0  0  0  0  0  0  0  0
    0.6156    4.1451   -0.6436 H   0  0  0  0  0  0  0  0  0  0  0  0
   -0.2581    4.2031   -2.6339 C   0  0  0  0  0  0  0  0  0  0  0  0
   -0.2993    5.3026   -2.6616 H   0  0  0  0  0  0  0  0  0  0  0  0
   -0.7194    3.4537   -3.7286 C   0  0  0  0  0  0  0  0  0  0  0  0
   -1.1218    3.9660   -4.6156 H   0  0  0  0  0  0  0  0  0  0  0  0
   -0.6736    2.0515   -3.6870 C   0  0  0  0  0  0  0  0  0  0  0  0
   -1.0419    1.4572   -4.5367 H   0  0  0  0  0  0  0  0  0  0  0  0
   -0.1680    1.4016   -2.5521 C   0  0  0  0  0  0  0  0  0  0  0  0
   -0.1360    0.3015   -2.5019 H   0  0  0  0  0  0  0  0  0  0  0  0
    2.8733    1.3992   -0.4438 C   0  0  0  0  0  0  0  0  0  0  0  0
    3.8260    1.0462    0.5381 C   0  0  0  0  0  0  0  0  0  0  0  0
    3.4977    0.7630    1.5480 H   0  0  0  0  0  0  0  0  0  0  0  0
    5.1896    1.0233    0.2245 C   0  0  0  0  0  0  0  0  0  0  0  0
    5.9196    0.7280    0.9926 H   0  0  0  0  0  0  0  0  0  0  0  0
    5.6211    1.3472   -1.0730 C   0  0  0  0  0  0  0  0  0  0  0  0
    6.6925    1.3120   -1.3211 H   0  0  0  0  0  0  0  0  0  0  0  0
    4.6812    1.7052   -2.0493 C   0  0  0  0  0  0  0  0  0  0  0  0
    5.0115    1.9623   -3.0672 H   0  0  0  0  0  0  0  0  0  0  0  0
    3.3112    1.7328   -1.7393 C   0  0  0  0  0  0  0  0  0  0  0  0
    2.5824    2.0049   -2.5160 H   0  0  0  0  0  0  0  0  0  0  0  0
  1 35  1  0  0  0  0
  2 15  1  0  0  0  0
  3 14  1  0  0  0  0
  4  3  1  0  0  0  0
  5  1  1  0  0  0  0
  5  4  2  0  0  0  0
  6  5  1  0  0  0  0
  7  6  1  0  0  0  0
  8  6  2  0  0  0  0
  8 10  1  0  0  0  0
  9  8  1  0  0  0  0
 10 12  2  0  0  0  0
 11 10  1  0  0  0  0
 12  4  1  0  0  0  0
 12 13  1  0  0  0  0
 14 22  1  0  0  0  0
 15 16  1  0  0  0  0
 15 14  2  0  0  0  0
 16 18  2  0  0  0  0
 17 16  1  0  0  0  0
 18 19  1  0  0  0  0
 18 20  1  0  0  0  0
 20 21  1  0  0  0  0
 22 20  2  0  0  0  0
 22 23  1  0  0  0  0
 24 33  1  0  0  0  0
 24  1  1  0  0  0  0
 25 24  2  0  0  0  0
 26 25  1  0  0  0  0
 27 29  2  0  0  0  0
 27 25  1  0  0  0  0
 28 27  1  0  0  0  0
 29 31  1  0  0  0  0
 30 29  1  0  0  0  0
 31 32  1  0  0  0  0
 31 33  2  0  0  0  0
 33 34  1  0  0  0  0
 35 44  2  0  0  0  0
 35 36  1  0  0  0  0
 36 38  2  0  0  0  0
 37 36  1  0  0  0  0
 38 40  1  0  0  0  0
 38 39  1  0  0  0  0
 40 41  1  0  0  0  0
 42 43  1  0  0  0  0
 42 40  2  0  0  0  0
 44 42  1  0  0  0  0
 45 44  1  0  0  0  0
 46  2  1  0  0  0  0
 47 46  1  0  0  0  0
 47 48  1  0  0  0  0
 49 47  2  0  0  0  0
 50 49  1  0  0  0  0
 51 53  2  0  0  0  0
 51 49  1  0  0  0  0
 52 51  1  0  0  0  0
 53 55  1  0  0  0  0
 54 53  1  0  0  0  0
 55 56  1  0  0  0  0
 55 46  2  0  0  0  0
 57  2  1  0  0  0  0
 57 58  1  0  0  0  0
 58 59  1  0  0  0  0
 60 58  2  0  0  0  0
 60 61  1  0  0  0  0
 62 60  1  0  0  0  0
 63 62  1  0  0  0  0
 64 66  1  0  0  0  0
 64 62  2  0  0  0  0
 65 64  1  0  0  0  0
 66 57  2  0  0  0  0
 67 66  1  0  0  0  0
M  END
