1,2
q = 0.0, confidence = 0.998

 58 60  0  0  0  0  0  0  0  0999 V2000
    0.1282   -1.3707   -0.6012 P   0  0  1  0  0  0  0  0  0  0  0  0
    0.2082    1.5793   -0.2055 P   0  0  2  0  0  0  0  0  0  0  0  0
    0.1979   -0.2498    1.9292 N   0  0  0  0  0  0  0  0  0  0  0  0
    2.4436    0.1253   -1.0760 N   0  0  0  0  0  0  0  0  0  0  0  0
    0.7396    1.0375    1.5556 C   0  0  0  0  0  0  0  0  0  0  0  0
    1.8456    0.9929    1.6031 H   0  0  0  0  0  0  0  0  0  0  0  0
    0.4031    1.8191    2.2641 H   0  0  0  0  0  0  0  0  0  0  0  0
    0.7976   -1.3464    1.1891 C   0  0  0  0  0  0  0  0  0  0  0  0
    0.5702   -2.3214    1.6554 H   0  0  0  0  0  0  0  0  0  0  0  0
    1.8988   -1.2358    1.1860 H   0  0  0  0  0  0  0  0  0  0  0  0
    1.7939    1.4055   -1.2270 C   0  0  0  0  0  0  0  0  0  0  0  0
    1.4806    1.5338   -2.2859 H   0  0  0  0  0  0  0  0  0  0  0  0
    2.4833    2.2365   -0.9933 H   0  0  0  0  0  0  0  0  0  0  0  0
    1.6837   -0.9779   -1.6160 C   0  0  0  0  0  0  0  0  0  0  0  0
    2.3043   -1.8872   -1.7104 H   0  0  0  0  0  0  0  0  0  0  0  0
    1.3361   -0.7170   -2.6385 H   0  0  0  0  0  0  0  0  0  0  0  0
    0.1182    3.4553   -0.1182 C   0  0  0  0  0  0  0  0  0  0  0  0
    1.1080    3.7073    0.3329 H   0  0  0  0  0  0  0  0  0  0  0  0
   -0.9892    3.9872    0.7958 C   0  0  0  0  0  0  0  0  0  0  0  0
   -1.9773    3.6506    0.4252 H   0  0  0  0  0  0  0  0  0  0  0  0
   -0.9655    5.0965    0.7894 H   0  0  0  0  0  0  0  0  0  0  0  0
   -0.8642    3.6684    1.8500 H   0  0  0  0  0  0  0  0  0  0  0  0
    0.0356    4.0644   -1.5253 C   0  0  0  0  0  0  0  0  0  0  0  0
    0.8997    3.7947   -2.1638 H   0  0  0  0  0  0  0  0  0  0  0  0
    0.0176    5.1712   -1.4472 H   0  0  0  0  0  0  0  0  0  0  0  0
   -0.8961    3.7260   -2.0204 H   0  0  0  0  0  0  0  0  0  0  0  0
   -0.1015   -3.1765   -1.0506 C   0  0  0  0  0  0  0  0  0  0  0  0
    0.9168   -3.5954   -0.8671 H   0  0  0  0  0  0  0  0  0  0  0  0
   -1.1083   -3.9071   -0.1586 C   0  0  0  0  0  0  0  0  0  0  0  0
   -0.7898   -3.9348    0.9015 H   0  0  0  0  0  0  0  0  0  0  0  0
   -1.2035   -4.9580   -0.5024 H   0  0  0  0  0  0  0  0  0  0  0  0
   -2.0976   -3.4143   -0.2208 H   0  0  0  0  0  0  0  0  0  0  0  0
   -0.4401   -3.3058   -2.5423 C   0  0  0  0  0  0  0  0  0  0  0  0
   -1.4080   -2.8063   -2.7460 H   0  0  0  0  0  0  0  0  0  0  0  0
   -0.5260   -4.3785   -2.8130 H   0  0  0  0  0  0  0  0  0  0  0  0
    0.3356   -2.8602   -3.1971 H   0  0  0  0  0  0  0  0  0  0  0  0
   -1.2041   -0.3476    2.1324 C   0  0  0  0  0  0  0  0  0  0  0  0
   -1.7906   -1.5976    2.4463 C   0  0  0  0  0  0  0  0  0  0  0  0
   -1.1589   -2.4818    2.5998 H   0  0  0  0  0  0  0  0  0  0  0  0
   -3.1769   -1.7314    2.5633 C   0  0  0  0  0  0  0  0  0  0  0  0
   -3.6007   -2.7221    2.7873 H   0  0  0  0  0  0  0  0  0  0  0  0
   -4.0232   -0.6258    2.3845 C   0  0  0  0  0  0  0  0  0  0  0  0
   -5.1149   -0.7416    2.4433 H   0  0  0  0  0  0  0  0  0  0  0  0
   -3.4520    0.6252    2.1290 C   0  0  0  0  0  0  0  0  0  0  0  0
   -4.0884    1.5085    1.9744 H   0  0  0  0  0  0  0  0  0  0  0  0
   -2.0624    0.7703    2.0160 C   0  0  0  0  0  0  0  0  0  0  0  0
   -1.6667    1.7686    1.8107 H   0  0  0  0  0  0  0  0  0  0  0  0
    3.5835   -0.0554   -0.2834 C   0  0  0  0  0  0  0  0  0  0  0  0
    4.2278    1.0387    0.3583 C   0  0  0  0  0  0  0  0  0  0  0  0
    3.8348    2.0586    0.2599 H   0  0  0  0  0  0  0  0  0  0  0  0
    5.3790    0.8499    1.1331 C   0  0  0  0  0  0  0  0  0  0  0  0
    5.8439    1.7270    1.6087 H   0  0  0  0  0  0  0  0  0  0  0  0
    5.9355   -0.4248    1.3122 C   0  0  0  0  0  0  0  0  0  0  0  0
    6.8360   -0.5669    1.9263 H   0  0  0  0  0  0  0  0  0  0  0  0
    5.3070   -1.5142    0.6917 C   0  0  0  0  0  0  0  0  0  0  0  0
    5.7148   -2.5294    0.8133 H   0  0  0  0  0  0  0  0  0  0  0  0
    4.1557   -1.3430   -0.0867 C   0  0  0  0  0  0  0  0  0  0  0  0
    3.7039   -2.2332   -0.5428 H   0  0  0  0  0  0  0  0  0  0  0  0
  1 27  1  6  0  0  0
  1  8  1  0  0  0  0
  2 17  1  1  0  0  0
  2  5  1  0  0  0  0
  3 37  1  0  0  0  0
  4 48  1  0  0  0  0
  5  6  1  0  0  0  0
  5  3  1  0  0  0  0
  5  7  1  0  0  0  0
  8  9  1  0  0  0  0
  8  3  1  0  0  0  0
 10  8  1  0  0  0  0
 11  4  1  0  0  0  0
 11 13  1  0  0  0  0
 11  2  1  0  0  0  0
 12 11  1  0  0  0  0
 14  4  1  0  0  0  0
 14  1  1  0  0  0  0
 15 14  1  0  0  0  0
 16 14  1  0  0  0  0
 17 18  1  0  0  0  0
 17 19  1  0  0  0  0
 19 22  1  0  0  0  0
 20 19  1  0  0  0  0
 21 19  1  0  0  0  0
 23 25  1  0  0  0  0
 23 17  1  0  0  0  0
 24 23  1  0  0  0  0
 26 23  1  0  0  0  0
 27 28  1  0  0  0  0
 27 29  1  0  0  0  0
 29 30  1  0  0  0  0
 31 29  1  0  0  0  0
 32 29  1  0  0  0  0
 33 27  1  0  0  0  0
 34 33  1  0  0  0  0
 35 33  1  0  0  0  0
 36 33  1  0  0  0  0
 37 38  1  0  0  0  0
 38 40  2  0  0  0  0
 38 39  1  0  0  0  0
 40 41  1  0  0  0  0
 42 43  1  0  0  0  0
 42 40  1  0  0  0  0
 44 42  2  0  0  0  0
 45 44  1  0  0  0  0
 46 44  1  0  0  0  0
 46 37  2  0  0  0  0
 47 46  1  0  0  0  0
 48 57  2  0  0  0  0
 48 49  1  0  0  0  0
 49 51  2  0  0  0  0
 50 49  1  0  0  0  0
 51 53  1  0  0  0  0
 51 52  1  0  0  0  0
 53 54  1  0  0  0  0
 55 56  1  0  0  0  0
 55 53  2  0  0  0  0
 57 55  1  0  0  0  0
 58 57  1  0  0  0  0
M  END
