1,2
q = 0.0, confidence = 1.0

 75 80  0  0  0  0  0  0  0  0999 V2000
   -1.6394   -0.6438   -0.4780 P   0  0  0  0  0  0  0  0  0  0  0  0
    1.6283   -0.6623    0.4733 P   0  0  0  0  0  0  0  0  0  0  0  0
    0.0098    1.9982   -0.0044 Si  0  0  0  0  0  0  0  0  0  0  0  0
   -1.1482    3.1203    0.9856 C   0  0  0  0  0  0  0  0  0  0  0  0
   -1.9701    4.0359    0.2882 C   0  0  0  0  0  0  0  0  0  0  0  0
   -1.9062    4.1022   -0.8110 H   0  0  0  0  0  0  0  0  0  0  0  0
   -2.8681    4.8692    0.9699 C   0  0  0  0  0  0  0  0  0  0  0  0
   -3.5025    5.5719    0.4076 H   0  0  0  0  0  0  0  0  0  0  0  0
   -2.9521    4.8113    2.3713 C   0  0  0  0  0  0  0  0  0  0  0  0
   -3.6554    5.4651    2.9098 H   0  0  0  0  0  0  0  0  0  0  0  0
   -2.1332    3.9207    3.0812 C   0  0  0  0  0  0  0  0  0  0  0  0
   -2.1949    3.8696    4.1792 H   0  0  0  0  0  0  0  0  0  0  0  0
   -1.2411    3.0837    2.3925 C   0  0  0  0  0  0  0  0  0  0  0  0
   -0.6214    2.3792    2.9685 H   0  0  0  0  0  0  0  0  0  0  0  0
    1.1833    3.1046   -0.9935 C   0  0  0  0  0  0  0  0  0  0  0  0
    1.3017    3.0458   -2.3977 C   0  0  0  0  0  0  0  0  0  0  0  0
    0.6917    2.3332   -2.9740 H   0  0  0  0  0  0  0  0  0  0  0  0
    2.2073    3.8710   -3.0830 C   0  0  0  0  0  0  0  0  0  0  0  0
    2.2888    3.8028   -4.1787 H   0  0  0  0  0  0  0  0  0  0  0  0
    3.0143    4.7718   -2.3722 C   0  0  0  0  0  0  0  0  0  0  0  0
    3.7281    5.4165   -2.9080 H   0  0  0  0  0  0  0  0  0  0  0  0
    2.9053    4.8514   -0.9736 C   0  0  0  0  0  0  0  0  0  0  0  0
    3.5303    5.5621   -0.4109 H   0  0  0  0  0  0  0  0  0  0  0  0
    1.9940    4.0297   -0.2955 C   0  0  0  0  0  0  0  0  0  0  0  0
    1.9097    4.1132    0.8012 H   0  0  0  0  0  0  0  0  0  0  0  0
   -0.9955    0.9304   -1.2172 C   0  0  0  0  0  0  0  0  0  0  0  0
   -1.8181    1.5369   -1.6505 H   0  0  0  0  0  0  0  0  0  0  0  0
   -0.3240    0.6222   -2.0454 H   0  0  0  0  0  0  0  0  0  0  0  0
    0.9999    0.9189    1.2105 C   0  0  0  0  0  0  0  0  0  0  0  0
    1.8287    1.5153    1.6461 H   0  0  0  0  0  0  0  0  0  0  0  0
    0.3230    0.6192    2.0373 H   0  0  0  0  0  0  0  0  0  0  0  0
   -2.9394   -1.1510   -1.6795 C   0  0  0  0  0  0  0  0  0  0  0  0
   -2.6285   -1.1781   -3.0554 C   0  0  0  0  0  0  0  0  0  0  0  0
   -1.6423   -0.8344   -3.4039 H   0  0  0  0  0  0  0  0  0  0  0  0
   -3.5625   -1.6533   -3.9865 C   0  0  0  0  0  0  0  0  0  0  0  0
   -3.3081   -1.6651   -5.0574 H   0  0  0  0  0  0  0  0  0  0  0  0
   -4.8154   -2.1184   -3.5544 C   0  0  0  0  0  0  0  0  0  0  0  0
   -5.5476   -2.4941   -4.2852 H   0  0  0  0  0  0  0  0  0  0  0  0
   -5.1259   -2.1079   -2.1862 C   0  0  0  0  0  0  0  0  0  0  0  0
   -6.1029   -2.4776   -1.8389 H   0  0  0  0  0  0  0  0  0  0  0  0
   -4.1944   -1.6290   -1.2520 C   0  0  0  0  0  0  0  0  0  0  0  0
   -4.4460   -1.6241   -0.1810 H   0  0  0  0  0  0  0  0  0  0  0  0
   -2.6108   -0.0554    0.9749 C   0  0  0  0  0  0  0  0  0  0  0  0
   -3.6142    0.9302    0.8633 C   0  0  0  0  0  0  0  0  0  0  0  0
   -3.8641    1.3543   -0.1213 H   0  0  0  0  0  0  0  0  0  0  0  0
   -4.2939    1.3761    2.0038 C   0  0  0  0  0  0  0  0  0  0  0  0
   -5.0639    2.1565    1.9115 H   0  0  0  0  0  0  0  0  0  0  0  0
   -3.9788    0.8415    3.2649 C   0  0  0  0  0  0  0  0  0  0  0  0
   -4.5107    1.1983    4.1602 H   0  0  0  0  0  0  0  0  0  0  0  0
   -2.9869   -0.1438    3.3829 C   0  0  0  0  0  0  0  0  0  0  0  0
   -2.7448   -0.5699    4.3686 H   0  0  0  0  0  0  0  0  0  0  0  0
   -2.3053   -0.5941    2.2401 C   0  0  0  0  0  0  0  0  0  0  0  0
   -1.5278   -1.3751    2.3033 H   0  0  0  0  0  0  0  0  0  0  0  0
    2.6397   -0.0788   -0.9531 C   0  0  0  0  0  0  0  0  0  0  0  0
    2.3589   -0.6119   -2.2265 C   0  0  0  0  0  0  0  0  0  0  0  0
    1.5759   -1.3853   -2.3093 H   0  0  0  0  0  0  0  0  0  0  0  0
    3.0697   -0.1637   -3.3521 C   0  0  0  0  0  0  0  0  0  0  0  0
    2.8466   -0.5853   -4.3442 H   0  0  0  0  0  0  0  0  0  0  0  0
    4.0654    0.8144   -3.2093 C   0  0  0  0  0  0  0  0  0  0  0  0
    4.6199    1.1697   -4.0913 H   0  0  0  0  0  0  0  0  0  0  0  0
    4.3545    1.3448   -1.9402 C   0  0  0  0  0  0  0  0  0  0  0  0
    5.1268    2.1203   -1.8286 H   0  0  0  0  0  0  0  0  0  0  0  0
    3.6460    0.9009   -0.8165 C   0  0  0  0  0  0  0  0  0  0  0  0
    3.8756    1.3224    0.1741 H   0  0  0  0  0  0  0  0  0  0  0  0
    2.8856   -1.2030    1.7057 C   0  0  0  0  0  0  0  0  0  0  0  0
    2.5076   -1.2931    3.0622 C   0  0  0  0  0  0  0  0  0  0  0  0
    1.4971   -0.9848    3.3730 H   0  0  0  0  0  0  0  0  0  0  0  0
    3.4040   -1.7880    4.0191 C   0  0  0  0  0  0  0  0  0  0  0  0
    3.0973   -1.8494    5.0745 H   0  0  0  0  0  0  0  0  0  0  0  0
    4.6861   -2.2120    3.6317 C   0  0  0  0  0  0  0  0  0  0  0  0
    5.3888   -2.6041    4.3825 H   0  0  0  0  0  0  0  0  0  0  0  0
    5.0629   -2.1405    2.2823 C   0  0  0  0  0  0  0  0  0  0  0  0
    6.0625   -2.4789    1.9696 H   0  0  0  0  0  0  0  0  0  0  0  0
    4.1689   -1.6404    1.3223 C   0  0  0  0  0  0  0  0  0  0  0  0
    4.4721   -1.5887    0.2661 H   0  0  0  0  0  0  0  0  0  0  0  0
  1 43  1  0  0  0  0
  2 29  1  0  0  0  0
  2 65  1  0  0  0  0
  3  4  1  0  0  0  0
  3 29  1  0  0  0  0
  4 13  1  0  0  0  0
  5  7  1  0  0  0  0
  5  4  2  0  0  0  0
  6  5  1  0  0  0  0
  7  9  2  0  0  0  0
  8  7  1  0  0  0  0
  9 10  1  0  0  0  0
  9 11  1  0  0  0  0
 11 12  1  0  0  0  0
 13 14  1  0  0  0  0
 13 11  2  0  0  0  0
 15 24  1  0  0  0  0
 15  3  1  0  0  0  0
 16 15  2  0  0  0  0
 17 16  1  0  0  0  0
 18 16  1  0  0  0  0
 18 20  2  0  0  0  0
 19 18  1  0  0  0  0
 20 22  1  0  0  0  0
 21 20  1  0  0  0  0
 22 23  1  0  0  0  0
 22 24  2  0  0  0  0
 24 25  1  0  0  0  0
 26  1  1  0  0  0  0
 26  3  1  0  0  0  0
 27 26  1  0  0  0  0
 28 26  1  0  0  0  0
 29 30  1  0  0  0  0
 29 31  1  0  0  0  0
 32 41  1  0  0  0  0
 32  1  1  0  0  0  0
 33 32  2  0  0  0  0
 34 33  1  0  0  0  0
 35 37  2  0  0  0  0
 35 33  1  0  0  0  0
 36 35  1  0  0  0  0
 37 39  1  0  0  0  0
 38 37  1  0  0  0  0
 39 40  1  0  0  0  0
 39 41  2  0  0  0  0
 41 42  1  0  0  0  0
 43 52  1  0  0  0  0
 44 43  2  0  0  0  0
 44 46  1  0  0  0  0
 45 44  1  0  0  0  0
 46 48  2  0  0  0  0
 47 46  1  0  0  0  0
 48 50  1  0  0  0  0
 48 49  1  0  0  0  0
 50 51  1  0  0  0  0
 52 53  1  0  0  0  0
 52 50  2  0  0  0  0
 54 63  1  0  0  0  0
 54  2  1  0  0  0  0
 55 54  2  0  0  0  0
 56 55  1  0  0  0  0
 57 59  2  0  0  0  0
 57 55  1  0  0  0  0
 58 57  1  0  0  0  0
 59 61  1  0  0  0  0
 60 59  1  0  0  0  0
 61 62  1  0  0  0  0
 61 63  2  0  0  0  0
 63 64  1  0  0  0  0
 65 66  1  0  0  0  0
 66 67  1  0  0  0  0
 66 68  2  0  0  0  0
 68 69  1  0  0  0  0
 70 68  1  0  0  0  0
 70 71  1  0  0  0  0
 72 70  2  0  0  0  0
 73 72  1  0  0  0  0
 74 65  2  0  0  0  0
 74 72  1  0  0  0  0
 75 74  1  0  0  0  0
M  END
