1,6
q = 0.0, confidence = 0.992

 68 74  0  0  0  0  0  0  0  0999 V2000
    1.7483   -0.0518    0.0387 P   0  0  0  0  0  0  0  0  0  0  0  0
    1.3831    0.0117    1.7874 N   0  0  0  0  0  0  0  0  0  0  0  0
    0.6954    1.2090    2.2158 C   0  0  0  0  0  0  0  0  0  0  0  0
   -0.7175    1.1766    2.2555 C   0  0  0  0  0  0  0  0  0  0  0  0
   -1.3832   -0.0116    1.7873 N   0  0  0  0  0  0  0  0  0  0  0  0
   -1.7484    0.0517    0.0386 P   0  0  0  0  0  0  0  0  0  0  0  0
    1.3740    2.3612    2.6454 C   0  0  0  0  0  0  0  0  0  0  0  0
    2.4704    2.3817    2.6287 H   0  0  0  0  0  0  0  0  0  0  0  0
    0.6430    3.4764    3.0852 C   0  0  0  0  0  0  0  0  0  0  0  0
    1.1802    4.3811    3.4070 H   0  0  0  0  0  0  0  0  0  0  0  0
   -0.7593    3.4355    3.1350 C   0  0  0  0  0  0  0  0  0  0  0  0
   -1.3269    4.3078    3.4913 H   0  0  0  0  0  0  0  0  0  0  0  0
   -1.4424    2.2781    2.7332 C   0  0  0  0  0  0  0  0  0  0  0  0
   -2.5394    2.2211    2.7586 H   0  0  0  0  0  0  0  0  0  0  0  0
    0.7173   -1.1764    2.2558 C   0  0  0  0  0  0  0  0  0  0  0  0
    1.4421   -2.2777    2.7340 C   0  0  0  0  0  0  0  0  0  0  0  0
    2.5392   -2.2207    2.7596 H   0  0  0  0  0  0  0  0  0  0  0  0
    0.7590   -3.4351    3.1359 C   0  0  0  0  0  0  0  0  0  0  0  0
    1.3265   -4.3073    3.4925 H   0  0  0  0  0  0  0  0  0  0  0  0
   -0.6433   -3.4760    3.0858 C   0  0  0  0  0  0  0  0  0  0  0  0
   -1.1806   -4.3806    3.4076 H   0  0  0  0  0  0  0  0  0  0  0  0
   -1.3743   -2.3610    2.6456 C   0  0  0  0  0  0  0  0  0  0  0  0
   -2.4707   -2.3815    2.6287 H   0  0  0  0  0  0  0  0  0  0  0  0
   -0.6956   -1.2088    2.2159 C   0  0  0  0  0  0  0  0  0  0  0  0
    2.6507   -1.6387   -0.1277 C   0  0  0  0  0  0  0  0  0  0  0  0
    4.0503   -1.7578   -0.0425 C   0  0  0  0  0  0  0  0  0  0  0  0
    4.6774   -0.8669    0.0981 H   0  0  0  0  0  0  0  0  0  0  0  0
    4.6532   -3.0189   -0.1680 C   0  0  0  0  0  0  0  0  0  0  0  0
    5.7488   -3.1050   -0.1096 H   0  0  0  0  0  0  0  0  0  0  0  0
    3.8668   -4.1616   -0.3817 C   0  0  0  0  0  0  0  0  0  0  0  0
    4.3450   -5.1479   -0.4823 H   0  0  0  0  0  0  0  0  0  0  0  0
    2.4716   -4.0418   -0.4873 C   0  0  0  0  0  0  0  0  0  0  0  0
    1.8503   -4.9309   -0.6715 H   0  0  0  0  0  0  0  0  0  0  0  0
    1.8653   -2.7856   -0.3705 C   0  0  0  0  0  0  0  0  0  0  0  0
    0.7739   -2.6778   -0.4710 H   0  0  0  0  0  0  0  0  0  0  0  0
    2.9539    1.3201   -0.0713 C   0  0  0  0  0  0  0  0  0  0  0  0
    2.8275    2.3045   -1.0694 C   0  0  0  0  0  0  0  0  0  0  0  0
    2.0236    2.2172   -1.8147 H   0  0  0  0  0  0  0  0  0  0  0  0
    3.7434    3.3662   -1.1198 C   0  0  0  0  0  0  0  0  0  0  0  0
    3.6395    4.1336   -1.9015 H   0  0  0  0  0  0  0  0  0  0  0  0
    4.7879    3.4477   -0.1862 C   0  0  0  0  0  0  0  0  0  0  0  0
    5.5067    4.2799   -0.2340 H   0  0  0  0  0  0  0  0  0  0  0  0
    4.9137    2.4685    0.8135 C   0  0  0  0  0  0  0  0  0  0  0  0
    5.7266    2.5327    1.5528 H   0  0  0  0  0  0  0  0  0  0  0  0
    3.9950    1.4115    0.8786 C   0  0  0  0  0  0  0  0  0  0  0  0
    4.0630    0.6686    1.6871 H   0  0  0  0  0  0  0  0  0  0  0  0
   -2.9540   -1.3201   -0.0714 C   0  0  0  0  0  0  0  0  0  0  0  0
   -2.8275   -2.3046   -1.0694 C   0  0  0  0  0  0  0  0  0  0  0  0
   -2.0236   -2.2173   -1.8147 H   0  0  0  0  0  0  0  0  0  0  0  0
   -3.7434   -3.3664   -1.1198 C   0  0  0  0  0  0  0  0  0  0  0  0
   -3.6395   -4.1338   -1.9014 H   0  0  0  0  0  0  0  0  0  0  0  0
   -4.7879   -3.4477   -0.1862 C   0  0  0  0  0  0  0  0  0  0  0  0
   -5.5067   -4.2800   -0.2339 H   0  0  0  0  0  0  0  0  0  0  0  0
   -4.9138   -2.4685    0.8135 C   0  0  0  0  0  0  0  0  0  0  0  0
   -5.7268   -2.5327    1.5527 H   0  0  0  0  0  0  0  0  0  0  0  0
   -3.9952   -1.4115    0.8785 C   0  0  0  0  0  0  0  0  0  0  0  0
   -4.0632   -0.6685    1.6870 H   0  0  0  0  0  0  0  0  0  0  0  0
   -2.6506    1.6386   -0.1278 C   0  0  0  0  0  0  0  0  0  0  0  0
   -4.0502    1.7578   -0.0430 C   0  0  0  0  0  0  0  0  0  0  0  0
   -4.6774    0.8669    0.0973 H   0  0  0  0  0  0  0  0  0  0  0  0
   -4.6531    3.0189   -0.1684 C   0  0  0  0  0  0  0  0  0  0  0  0
   -5.7487    3.1051   -0.1103 H   0  0  0  0  0  0  0  0  0  0  0  0
   -3.8666    4.1616   -0.3817 C   0  0  0  0  0  0  0  0  0  0  0  0
   -4.3447    5.1479   -0.4822 H   0  0  0  0  0  0  0  0  0  0  0  0
   -2.4713    4.0418   -0.4870 C   0  0  0  0  0  0  0  0  0  0  0  0
   -1.8500    4.9309   -0.6709 H   0  0  0  0  0  0  0  0  0  0  0  0
   -1.8651    2.7856   -0.3702 C   0  0  0  0  0  0  0  0  0  0  0  0
   -0.7737    2.6777   -0.4705 H   0  0  0  0  0  0  0  0  0  0  0  0
  1  2  1  0  0  0  0
  2  3  1  0  0  0  0
  2 15  1  0  0  0  0
  3  4  2  0  0  0  0
  3  7  1  0  0  0  0
  4 13  1  0  0  0  0
  5 24  1  0  0  0  0
  5  4  1  0  0  0  0
  6  5  1  0  0  0  0
  7  9  2  0  0  0  0
  8  7  1  0  0  0  0
  9 11  1  0  0  0  0
  9 10  1  0  0  0  0
 11 12  1  0  0  0  0
 13 14  1  0  0  0  0
 13 11  2  0  0  0  0
 15 16  1  0  0  0  0
 16 17  1  0  0  0  0
 16 18  2  0  0  0  0
 18 19  1  0  0  0  0
 20 18  1  0  0  0  0
 20 21  1  0  0  0  0
 22 20  2  0  0  0  0
 23 22  1  0  0  0  0
 24 15  2  0  0  0  0
 24 22  1  0  0  0  0
 25 26  1  0  0  0  0
 25  1  1  0  0  0  0
 26 27  1  0  0  0  0
 28 29  1  0  0  0  0
 28 26  2  0  0  0  0
 30 28  1  0  0  0  0
 31 30  1  0  0  0  0
 32 30  2  0  0  0  0
 32 34  1  0  0  0  0
 33 32  1  0  0  0  0
 34 25  2  0  0  0  0
 35 34  1  0  0  0  0
 36  1  1  0  0  0  0
 36 45  1  0  0  0  0
 37 36  2  0  0  0  0
 38 37  1  0  0  0  0
 39 37  1  0  0  0  0
 39 41  2  0  0  0  0
 40 39  1  0  0  0  0
 41 43  1  0  0  0  0
 42 41  1  0  0  0  0
 43 45  2  0  0  0  0
 43 44  1  0  0  0  0
 45 46  1  0  0  0  0
 47  6  1  0  0  0  0
 47 56  1  0  0  0  0
 48 47  2  0  0  0  0
 49 48  1  0  0  0  0
 50 48  1  0  0  0  0
 50 52  2  0  0  0  0
 51 50  1  0  0  0  0
 52 54  1  0  0  0  0
 53 52  1  0  0  0  0
 54 56  2  0  0  0  0
 54 55  1  0  0  0  0
 56 57  1  0  0  0  0
 58 59  1  0  0  0  0
 58  6  1  0  0  0  0
 59 60  1  0  0  0  0
 61 62  1  0  0  0  0
 61 59  2  0  0  0  0
 63 61  1  0  0  0  0
 64 63  1  0  0  0  0
 65 63  2  0  0  0  0
 65 67  1  0  0  0  0
 66 65  1  0  0  0  0
 67 58  2  0  0  0  0
 68 67  1  0  0  0  0
M  END
