1,3
q = 0.0, confidence = 1.0

 72 73  0  0  0  0  0  0  0  0999 V2000
    2.2882   -0.6102   -0.1557 P   0  0  0  0  0  0  0  0  0  0  0  0
    0.6856    1.6109    1.6304 C   0  0  0  0  0  0  0  0  0  0  0  0
   -2.2885   -0.6098   -0.1556 P   0  0  0  0  0  0  0  0  0  0  0  0
   -3.2782   -1.1434    1.3444 C   0  0  0  0  0  0  0  0  0  0  0  0
   -2.5696   -0.8857    2.1563 H   0  0  0  0  0  0  0  0  0  0  0  0
   -1.5708    2.0856    0.5163 C   0  0  0  0  0  0  0  0  0  0  0  0
   -0.6850    1.6110    1.6303 C   0  0  0  0  0  0  0  0  0  0  0  0
   -2.4102    1.2378   -0.2715 C   0  0  0  0  0  0  0  0  0  0  0  0
   -3.2559    1.8206   -1.2379 C   0  0  0  0  0  0  0  0  0  0  0  0
   -3.8773    1.1810   -1.8771 H   0  0  0  0  0  0  0  0  0  0  0  0
   -3.3156    3.2077   -1.4280 C   0  0  0  0  0  0  0  0  0  0  0  0
   -3.9837    3.6266   -2.1953 H   0  0  0  0  0  0  0  0  0  0  0  0
   -2.5204    4.0445   -0.6379 C   0  0  0  0  0  0  0  0  0  0  0  0
   -2.5575    5.1371   -0.7645 H   0  0  0  0  0  0  0  0  0  0  0  0
   -1.6694    3.4802    0.3214 C   0  0  0  0  0  0  0  0  0  0  0  0
   -1.0631    4.1382    0.9591 H   0  0  0  0  0  0  0  0  0  0  0  0
   -1.4063    1.2387    2.9106 C   0  0  0  0  0  0  0  0  0  0  0  0
   -1.1346    0.2098    3.2310 H   0  0  0  0  0  0  0  0  0  0  0  0
   -2.5033    1.3039    2.7980 H   0  0  0  0  0  0  0  0  0  0  0  0
   -1.1166    1.9219    3.7386 H   0  0  0  0  0  0  0  0  0  0  0  0
    1.5716    2.0854    0.5165 C   0  0  0  0  0  0  0  0  0  0  0  0
    2.4104    1.2373   -0.2717 C   0  0  0  0  0  0  0  0  0  0  0  0
    3.2562    1.8199   -1.2382 C   0  0  0  0  0  0  0  0  0  0  0  0
    3.8769    1.1802   -1.8778 H   0  0  0  0  0  0  0  0  0  0  0  0
    3.3165    3.2070   -1.4279 C   0  0  0  0  0  0  0  0  0  0  0  0
    3.9846    3.6257   -2.1953 H   0  0  0  0  0  0  0  0  0  0  0  0
    2.5222    4.0440   -0.6372 C   0  0  0  0  0  0  0  0  0  0  0  0
    2.5599    5.1366   -0.7635 H   0  0  0  0  0  0  0  0  0  0  0  0
    1.4066    1.2385    2.9109 C   0  0  0  0  0  0  0  0  0  0  0  0
    1.1347    0.2097    3.2312 H   0  0  0  0  0  0  0  0  0  0  0  0
    1.1170    1.9218    3.7388 H   0  0  0  0  0  0  0  0  0  0  0  0
    2.5037    1.3034    2.7984 H   0  0  0  0  0  0  0  0  0  0  0  0
    1.6710    3.4799    0.3222 C   0  0  0  0  0  0  0  0  0  0  0  0
    1.0654    4.1380    0.9602 H   0  0  0  0  0  0  0  0  0  0  0  0
   -3.0821   -1.3033   -1.7123 C   0  0  0  0  0  0  0  0  0  0  0  0
   -2.7011   -0.5949   -2.4785 H   0  0  0  0  0  0  0  0  0  0  0  0
   -3.4377   -2.6680    1.3890 C   0  0  0  0  0  0  0  0  0  0  0  0
   -4.1376   -3.0448    0.6172 H   0  0  0  0  0  0  0  0  0  0  0  0
   -3.8466   -2.9632    2.3777 H   0  0  0  0  0  0  0  0  0  0  0  0
   -2.4577   -3.1700    1.2711 H   0  0  0  0  0  0  0  0  0  0  0  0
   -4.5888   -0.3825    1.5651 C   0  0  0  0  0  0  0  0  0  0  0  0
   -5.3644   -0.6579    0.8246 H   0  0  0  0  0  0  0  0  0  0  0  0
   -4.4479    0.7155    1.5115 H   0  0  0  0  0  0  0  0  0  0  0  0
   -4.9928   -0.6241    2.5709 H   0  0  0  0  0  0  0  0  0  0  0  0
    3.2778   -1.1439    1.3443 C   0  0  0  0  0  0  0  0  0  0  0  0
    2.5694   -0.8860    2.1562 H   0  0  0  0  0  0  0  0  0  0  0  0
    3.0815   -1.3041   -1.7125 C   0  0  0  0  0  0  0  0  0  0  0  0
    2.7006   -0.5957   -2.4787 H   0  0  0  0  0  0  0  0  0  0  0  0
    4.5887   -0.3833    1.5648 C   0  0  0  0  0  0  0  0  0  0  0  0
    5.3640   -0.6587    0.8240 H   0  0  0  0  0  0  0  0  0  0  0  0
    4.9929   -0.6251    2.5704 H   0  0  0  0  0  0  0  0  0  0  0  0
    4.4479    0.7148    1.5114 H   0  0  0  0  0  0  0  0  0  0  0  0
    3.4371   -2.6686    1.3889 C   0  0  0  0  0  0  0  0  0  0  0  0
    4.1369   -3.0455    0.6172 H   0  0  0  0  0  0  0  0  0  0  0  0
    2.4569   -3.1704    1.2710 H   0  0  0  0  0  0  0  0  0  0  0  0
    3.8459   -2.9638    2.3776 H   0  0  0  0  0  0  0  0  0  0  0  0
    4.6146   -1.3469   -1.7529 C   0  0  0  0  0  0  0  0  0  0  0  0
    5.0214   -2.1075   -1.0581 H   0  0  0  0  0  0  0  0  0  0  0  0
    5.0916   -0.3798   -1.5037 H   0  0  0  0  0  0  0  0  0  0  0  0
    4.9460   -1.6300   -2.7740 H   0  0  0  0  0  0  0  0  0  0  0  0
    2.4687   -2.6765   -2.0337 C   0  0  0  0  0  0  0  0  0  0  0  0
    2.8631   -3.0392   -3.0059 H   0  0  0  0  0  0  0  0  0  0  0  0
    1.3672   -2.6021   -2.1131 H   0  0  0  0  0  0  0  0  0  0  0  0
    2.7129   -3.4359   -1.2653 H   0  0  0  0  0  0  0  0  0  0  0  0
   -4.6151   -1.3459   -1.7526 C   0  0  0  0  0  0  0  0  0  0  0  0
   -4.9468   -1.6287   -2.7737 H   0  0  0  0  0  0  0  0  0  0  0  0
   -5.0920   -0.3787   -1.5032 H   0  0  0  0  0  0  0  0  0  0  0  0
   -5.0220   -2.1066   -1.0579 H   0  0  0  0  0  0  0  0  0  0  0  0
   -2.4695   -2.6757   -2.0338 C   0  0  0  0  0  0  0  0  0  0  0  0
   -2.7136   -3.4352   -1.2654 H   0  0  0  0  0  0  0  0  0  0  0  0
   -1.3680   -2.6014   -2.1135 H   0  0  0  0  0  0  0  0  0  0  0  0
   -2.8642   -3.0383   -3.0059 H   0  0  0  0  0  0  0  0  0  0  0  0
  1 45  1  0  0  0  0
  2 29  1  0  0  0  0
  3  4  1  0  0  0  0
  4 37  1  0  0  0  0
  4 41  1  0  0  0  0
  4  5  1  0  0  0  0
  6  7  1  0  0  0  0
  7  2  2  0  0  0  0
  7 17  1  0  0  0  0
  8  3  1  0  0  0  0
  8  6  2  0  0  0  0
  9  8  1  0  0  0  0
 10  9  1  0  0  0  0
 11  9  2  0  0  0  0
 11 13  1  0  0  0  0
 12 11  1  0  0  0  0
 13 15  2  0  0  0  0
 14 13  1  0  0  0  0
 15  6  1  0  0  0  0
 15 16  1  0  0  0  0
 17 18  1  0  0  0  0
 17 20  1  0  0  0  0
 19 17  1  0  0  0  0
 21  2  1  0  0  0  0
 22  1  1  0  0  0  0
 22 21  2  0  0  0  0
 23 22  1  0  0  0  0
 24 23  1  0  0  0  0
 25 23  2  0  0  0  0
 25 27  1  0  0  0  0
 26 25  1  0  0  0  0
 27 33  2  0  0  0  0
 28 27  1  0  0  0  0
 29 30  1  0  0  0  0
 29 31  1  0  0  0  0
 32 29  1  0  0  0  0
 33 21  1  0  0  0  0
 33 34  1  0  0  0  0
 35  3  1  0  0  0  0
 36 35  1  0  0  0  0
 37 39  1  0  0  0  0
 38 37  1  0  0  0  0
 40 37  1  0  0  0  0
 41 44  1  0  0  0  0
 42 41  1  0  0  0  0
 43 41  1  0  0  0  0
 45 53  1  0  0  0  0
 45 49  1  0  0  0  0
 45 46  1  0  0  0  0
 47  1  1  0  0  0  0
 48 47  1  0  0  0  0
 49 51  1  0  0  0  0
 50 49  1  0  0  0  0
 52 49  1  0  0  0  0
 53 56  1  0  0  0  0
 54 53  1  0  0  0  0
 55 53  1  0  0  0  0
 57 47  1  0  0  0  0
 57 59  1  0  0  0  0
 57 58  1  0  0  0  0
 60 57  1  0  0  0  0
 61 47  1  0  0  0  0
 61 64  1  0  0  0  0
 62 61  1  0  0  0  0
 63 61  1  0  0  0  0
 65 35  1  0  0  0  0
 65 67  1  0  0  0  0
 65 68  1  0  0  0  0
 66 65  1  0  0  0  0
 69 35  1  0  0  0  0
 69 70  1  0  0  0  0
 71 69  1  0  0  0  0
 72 69  1  0  0  0  0
M  END
