1,2
q = 0.0, confidence = 0.978

 62 67  0  0  1  0  0  0  0  0999 V2000
    1.7372    0.0476   -0.5499 P   0  0  0  0  0  0  0  0  0  0  0  0
   -1.7372   -0.0476   -0.5498 P   0  0  0  0  0  0  0  0  0  0  0  0
    0.4919   -1.6245   -2.5073 O   0  0  0  0  0  0  0  0  0  0  0  0
   -0.4920    1.6246   -2.5073 O   0  0  0  0  0  0  0  0  0  0  0  0
   -0.6867    0.3724   -3.1475 C   0  0  2  0  0  0  0  0  0  0  0  0
   -1.0711    0.5237   -4.1810 H   0  0  0  0  0  0  0  0  0  0  0  0
   -1.6064   -0.5723   -2.3490 C   0  0  1  0  0  0  0  0  0  0  0  0
   -2.6412   -0.6069   -2.7406 H   0  0  0  0  0  0  0  0  0  0  0  0
   -0.8983   -1.9240   -2.5263 C   0  0  0  0  0  0  0  0  0  0  0  0
   -1.1058   -2.6606   -1.7269 H   0  0  0  0  0  0  0  0  0  0  0  0
   -1.1943   -2.3836   -3.5000 H   0  0  0  0  0  0  0  0  0  0  0  0
    0.6866   -0.3724   -3.1475 C   0  0  1  0  0  0  0  0  0  0  0  0
    1.0710   -0.5237   -4.1810 H   0  0  0  0  0  0  0  0  0  0  0  0
    1.6063    0.5723   -2.3490 C   0  0  1  0  0  0  0  0  0  0  0  0
    2.6411    0.6070   -2.7406 H   0  0  0  0  0  0  0  0  0  0  0  0
    0.8982    1.9240   -2.5263 C   0  0  0  0  0  0  0  0  0  0  0  0
    1.1058    2.6606   -1.7268 H   0  0  0  0  0  0  0  0  0  0  0  0
    1.1942    2.3836   -3.5000 H   0  0  0  0  0  0  0  0  0  0  0  0
    2.9732    1.3031    0.0358 C   0  0  0  0  0  0  0  0  0  0  0  0
    2.4799    2.5258    0.5437 C   0  0  0  0  0  0  0  0  0  0  0  0
    1.3902    2.6816    0.6078 H   0  0  0  0  0  0  0  0  0  0  0  0
    3.3628    3.5121    1.0066 C   0  0  0  0  0  0  0  0  0  0  0  0
    2.9660    4.4619    1.3959 H   0  0  0  0  0  0  0  0  0  0  0  0
    4.7493    3.2830    0.9831 C   0  0  0  0  0  0  0  0  0  0  0  0
    5.4429    4.0549    1.3492 H   0  0  0  0  0  0  0  0  0  0  0  0
    5.2455    2.0638    0.4950 C   0  0  0  0  0  0  0  0  0  0  0  0
    6.3298    1.8754    0.4803 H   0  0  0  0  0  0  0  0  0  0  0  0
    4.3637    1.0770    0.0219 C   0  0  0  0  0  0  0  0  0  0  0  0
    4.7650    0.1210   -0.3450 H   0  0  0  0  0  0  0  0  0  0  0  0
    2.6817   -1.5307   -0.6121 C   0  0  0  0  0  0  0  0  0  0  0  0
    3.6472   -1.8044   -1.6032 C   0  0  0  0  0  0  0  0  0  0  0  0
    3.8603   -1.0763   -2.3998 H   0  0  0  0  0  0  0  0  0  0  0  0
    4.3454   -3.0209   -1.5938 C   0  0  0  0  0  0  0  0  0  0  0  0
    5.0940   -3.2249   -2.3740 H   0  0  0  0  0  0  0  0  0  0  0  0
    4.0857   -3.9772   -0.5993 C   0  0  0  0  0  0  0  0  0  0  0  0
    4.6323   -4.9321   -0.5974 H   0  0  0  0  0  0  0  0  0  0  0  0
    3.1197   -3.7148    0.3844 C   0  0  0  0  0  0  0  0  0  0  0  0
    2.9029   -4.4659    1.1590 H   0  0  0  0  0  0  0  0  0  0  0  0
    2.4189   -2.4998    0.3775 C   0  0  0  0  0  0  0  0  0  0  0  0
    1.6417   -2.2954    1.1314 H   0  0  0  0  0  0  0  0  0  0  0  0
   -2.9731   -1.3032    0.0359 C   0  0  0  0  0  0  0  0  0  0  0  0
   -4.3636   -1.0773    0.0221 C   0  0  0  0  0  0  0  0  0  0  0  0
   -4.7651   -0.1213   -0.3447 H   0  0  0  0  0  0  0  0  0  0  0  0
   -5.2453   -2.0642    0.4952 C   0  0  0  0  0  0  0  0  0  0  0  0
   -6.3296   -1.8759    0.4806 H   0  0  0  0  0  0  0  0  0  0  0  0
   -4.7488   -3.2833    0.9833 C   0  0  0  0  0  0  0  0  0  0  0  0
   -5.4424   -4.0553    1.3494 H   0  0  0  0  0  0  0  0  0  0  0  0
   -3.3623   -3.5122    1.0067 C   0  0  0  0  0  0  0  0  0  0  0  0
   -2.9654   -4.4620    1.3960 H   0  0  0  0  0  0  0  0  0  0  0  0
   -2.4796   -2.5258    0.5438 C   0  0  0  0  0  0  0  0  0  0  0  0
   -1.3898   -2.6814    0.6078 H   0  0  0  0  0  0  0  0  0  0  0  0
   -2.6818    1.5307   -0.6120 C   0  0  0  0  0  0  0  0  0  0  0  0
   -3.6475    1.8042   -1.6030 C   0  0  0  0  0  0  0  0  0  0  0  0
   -3.8607    1.0760   -2.3996 H   0  0  0  0  0  0  0  0  0  0  0  0
   -4.3458    3.0207   -1.5937 C   0  0  0  0  0  0  0  0  0  0  0  0
   -5.0946    3.2245   -2.3738 H   0  0  0  0  0  0  0  0  0  0  0  0
   -4.0860    3.9771   -0.5994 C   0  0  0  0  0  0  0  0  0  0  0  0
   -4.6326    4.9320   -0.5975 H   0  0  0  0  0  0  0  0  0  0  0  0
   -3.1198    3.7149    0.3842 C   0  0  0  0  0  0  0  0  0  0  0  0
   -2.9030    4.4660    1.1587 H   0  0  0  0  0  0  0  0  0  0  0  0
   -2.4190    2.4999    0.3774 C   0  0  0  0  0  0  0  0  0  0  0  0
   -1.6417    2.2956    1.1311 H   0  0  0  0  0  0  0  0  0  0  0  0
  1 19  1  0  0  0  0
  2 41  1  0  0  0  0
  5  6  1  6  0  0  0
  5  4  1  0  0  0  0
  5  7  1  0  0  0  0
  7  8  1  6  0  0  0
  7  2  1  0  0  0  0
  9  3  1  0  0  0  0
  9  7  1  0  0  0  0
  9 10  1  0  0  0  0
 11  9  1  0  0  0  0
 12 13  1  6  0  0  0
 12  5  1  0  0  0  0
 12  3  1  0  0  0  0
 12 14  1  0  0  0  0
 14 15  1  6  0  0  0
 14  1  1  0  0  0  0
 16  4  1  0  0  0  0
 16 14  1  0  0  0  0
 16 17  1  0  0  0  0
 18 16  1  0  0  0  0
 19 20  1  0  0  0  0
 20 21  1  0  0  0  0
 20 22  2  0  0  0  0
 22 23  1  0  0  0  0
 24 22  1  0  0  0  0
 24 25  1  0  0  0  0
 26 24  2  0  0  0  0
 27 26  1  0  0  0  0
 28 19  2  0  0  0  0
 28 26  1  0  0  0  0
 29 28  1  0  0  0  0
 30  1  1  0  0  0  0
 30 39  1  0  0  0  0
 31 33  1  0  0  0  0
 31 30  2  0  0  0  0
 32 31  1  0  0  0  0
 33 35  2  0  0  0  0
 34 33  1  0  0  0  0
 35 36  1  0  0  0  0
 35 37  1  0  0  0  0
 37 38  1  0  0  0  0
 39 37  2  0  0  0  0
 39 40  1  0  0  0  0
 41 50  1  0  0  0  0
 42 41  2  0  0  0  0
 42 44  1  0  0  0  0
 43 42  1  0  0  0  0
 44 46  2  0  0  0  0
 45 44  1  0  0  0  0
 46 48  1  0  0  0  0
 46 47  1  0  0  0  0
 48 49  1  0  0  0  0
 50 51  1  0  0  0  0
 50 48  2  0  0  0  0
 52  2  1  0  0  0  0
 52 61  1  0  0  0  0
 53 55  1  0  0  0  0
 53 52  2  0  0  0  0
 54 53  1  0  0  0  0
 55 57  2  0  0  0  0
 56 55  1  0  0  0  0
 57 58  1  0  0  0  0
 57 59  1  0  0  0  0
 59 60  1  0  0  0  0
 61 59  2  0  0  0  0
 61 62  1  0  0  0  0
M  END
