1,2
q = 0.0, confidence = 1.0

 64 69  0  0  0  0  0  0  0  0999 V2000
    1.1782   -1.5945    0.0404 P   0  0  0  0  0  0  0  0  0  0  0  0
    1.2658    1.5564    0.0050 P   0  0  0  0  0  0  0  0  0  0  0  0
   -1.8260   -1.4395   -0.9707 S   0  0  0  0  0  0  0  0  0  0  0  0
   -1.7825    1.5380   -0.9101 S   0  0  0  0  0  0  0  0  0  0  0  0
   -5.1109   -1.3921   -0.6134 S   0  0  0  0  0  0  0  0  0  0  0  0
   -5.0708    1.5700   -0.5719 S   0  0  0  0  0  0  0  0  0  0  0  0
   -0.3295   -0.6656   -0.4446 C   0  0  0  0  0  0  0  0  0  0  0  0
   -0.3054    0.7028   -0.4263 C   0  0  0  0  0  0  0  0  0  0  0  0
   -2.7762    0.0612   -0.8447 C   0  0  0  0  0  0  0  0  0  0  0  0
   -4.1327    0.0776   -0.6949 C   0  0  0  0  0  0  0  0  0  0  0  0
   -6.5790   -0.5795   -0.0218 C   0  0  0  0  0  0  0  0  0  0  0  0
   -6.5603    0.7814   -0.0017 C   0  0  0  0  0  0  0  0  0  0  0  0
   -7.7077   -1.4889    0.3595 C   0  0  0  0  0  0  0  0  0  0  0  0
   -7.9437   -2.1971   -0.4629 H   0  0  0  0  0  0  0  0  0  0  0  0
   -8.6253   -0.9147    0.5857 H   0  0  0  0  0  0  0  0  0  0  0  0
   -7.4552   -2.0975    1.2532 H   0  0  0  0  0  0  0  0  0  0  0  0
   -7.6633    1.7100    0.4074 C   0  0  0  0  0  0  0  0  0  0  0  0
   -7.8797    2.4486   -0.3933 H   0  0  0  0  0  0  0  0  0  0  0  0
   -7.3937    2.2845    1.3186 H   0  0  0  0  0  0  0  0  0  0  0  0
   -8.5964    1.1550    0.6174 H   0  0  0  0  0  0  0  0  0  0  0  0
    0.6758   -2.5307    1.5273 C   0  0  0  0  0  0  0  0  0  0  0  0
   -0.4484   -2.1488    2.2860 C   0  0  0  0  0  0  0  0  0  0  0  0
   -1.0797   -1.3091    1.9592 H   0  0  0  0  0  0  0  0  0  0  0  0
   -0.7633   -2.8470    3.4611 C   0  0  0  0  0  0  0  0  0  0  0  0
   -1.6448   -2.5509    4.0496 H   0  0  0  0  0  0  0  0  0  0  0  0
    0.0417   -3.9169    3.8829 C   0  0  0  0  0  0  0  0  0  0  0  0
   -0.2081   -4.4625    4.8055 H   0  0  0  0  0  0  0  0  0  0  0  0
    1.1709   -4.2857    3.1327 C   0  0  0  0  0  0  0  0  0  0  0  0
    1.8120   -5.1142    3.4697 H   0  0  0  0  0  0  0  0  0  0  0  0
    1.4965   -3.5951    1.9577 C   0  0  0  0  0  0  0  0  0  0  0  0
    2.4020   -3.8484    1.3860 H   0  0  0  0  0  0  0  0  0  0  0  0
    1.3903   -2.8290   -1.2903 C   0  0  0  0  0  0  0  0  0  0  0  0
    2.4067   -2.6375   -2.2457 C   0  0  0  0  0  0  0  0  0  0  0  0
    3.1101   -1.7995   -2.1270 H   0  0  0  0  0  0  0  0  0  0  0  0
    2.5297   -3.5388   -3.3130 C   0  0  0  0  0  0  0  0  0  0  0  0
    3.3289   -3.3962   -4.0557 H   0  0  0  0  0  0  0  0  0  0  0  0
    1.6470   -4.6252   -3.4257 C   0  0  0  0  0  0  0  0  0  0  0  0
    1.7499   -5.3321   -4.2631 H   0  0  0  0  0  0  0  0  0  0  0  0
    0.6403   -4.8202   -2.4657 C   0  0  0  0  0  0  0  0  0  0  0  0
   -0.0446   -5.6776   -2.5479 H   0  0  0  0  0  0  0  0  0  0  0  0
    0.5107   -3.9262   -1.3932 C   0  0  0  0  0  0  0  0  0  0  0  0
   -0.2646   -4.0889   -0.6281 H   0  0  0  0  0  0  0  0  0  0  0  0
    0.8505    2.6389    1.4186 C   0  0  0  0  0  0  0  0  0  0  0  0
   -0.0329    3.7265    1.2610 C   0  0  0  0  0  0  0  0  0  0  0  0
   -0.4431    3.9714    0.2691 H   0  0  0  0  0  0  0  0  0  0  0  0
   -0.3794    4.5064    2.3730 C   0  0  0  0  0  0  0  0  0  0  0  0
   -1.0684    5.3558    2.2505 H   0  0  0  0  0  0  0  0  0  0  0  0
    0.1556    4.2066    3.6370 C   0  0  0  0  0  0  0  0  0  0  0  0
   -0.1159    4.8233    4.5074 H   0  0  0  0  0  0  0  0  0  0  0  0
    1.0430    3.1296    3.7900 C   0  0  0  0  0  0  0  0  0  0  0  0
    1.4738    2.9026    4.7766 H   0  0  0  0  0  0  0  0  0  0  0  0
    1.3952    2.3433    2.6832 C   0  0  0  0  0  0  0  0  0  0  0  0
    2.1136    1.5154    2.7825 H   0  0  0  0  0  0  0  0  0  0  0  0
    1.5689    2.6572   -1.4193 C   0  0  0  0  0  0  0  0  0  0  0  0
    1.1317    2.2933   -2.7091 C   0  0  0  0  0  0  0  0  0  0  0  0
    0.5412    1.3762   -2.8558 H   0  0  0  0  0  0  0  0  0  0  0  0
    1.4493    3.1063   -3.8064 C   0  0  0  0  0  0  0  0  0  0  0  0
    1.1014    2.8245   -4.8115 H   0  0  0  0  0  0  0  0  0  0  0  0
    2.2092    4.2726   -3.6223 C   0  0  0  0  0  0  0  0  0  0  0  0
    2.4582    4.9082   -4.4856 H   0  0  0  0  0  0  0  0  0  0  0  0
    2.6585    4.6243   -2.3389 C   0  0  0  0  0  0  0  0  0  0  0  0
    3.2662    5.5303   -2.1952 H   0  0  0  0  0  0  0  0  0  0  0  0
    2.3466    3.8194   -1.2348 C   0  0  0  0  0  0  0  0  0  0  0  0
    2.7216    4.0719   -0.2328 H   0  0  0  0  0  0  0  0  0  0  0  0
  1 21  1  0  0  0  0
  2 43  1  0  0  0  0
  3  9  1  0  0  0  0
  3  7  1  0  0  0  0
  4  9  1  0  0  0  0
  4  8  1  0  0  0  0
  5 11  1  0  0  0  0
  6 12  1  0  0  0  0
  7  8  2  0  0  0  0
  7  1  1  0  0  0  0
  8  2  1  0  0  0  0
  9 10  2  0  0  0  0
 10  5  1  0  0  0  0
 10  6  1  0  0  0  0
 11 12  2  0  0  0  0
 11 13  1  0  0  0  0
 12 17  1  0  0  0  0
 13 15  1  0  0  0  0
 13 16  1  0  0  0  0
 14 13  1  0  0  0  0
 17 20  1  0  0  0  0
 17 19  1  0  0  0  0
 18 17  1  0  0  0  0
 21 30  2  0  0  0  0
 21 22  1  0  0  0  0
 22 24  2  0  0  0  0
 23 22  1  0  0  0  0
 24 26  1  0  0  0  0
 24 25  1  0  0  0  0
 26 27  1  0  0  0  0
 28 29  1  0  0  0  0
 28 26  2  0  0  0  0
 30 28  1  0  0  0  0
 31 30  1  0  0  0  0
 32  1  1  0  0  0  0
 33 34  1  0  0  0  0
 33 32  2  0  0  0  0
 35 33  1  0  0  0  0
 36 35  1  0  0  0  0
 37 35  2  0  0  0  0
 37 39  1  0  0  0  0
 38 37  1  0  0  0  0
 39 41  2  0  0  0  0
 40 39  1  0  0  0  0
 41 32  1  0  0  0  0
 41 42  1  0  0  0  0
 43 52  1  0  0  0  0
 44 43  2  0  0  0  0
 44 46  1  0  0  0  0
 45 44  1  0  0  0  0
 46 48  2  0  0  0  0
 47 46  1  0  0  0  0
 48 50  1  0  0  0  0
 48 49  1  0  0  0  0
 50 51  1  0  0  0  0
 52 53  1  0  0  0  0
 52 50  2  0  0  0  0
 54 63  1  0  0  0  0
 54  2  1  0  0  0  0
 55 54  2  0  0  0  0
 56 55  1  0  0  0  0
 57 59  2  0  0  0  0
 57 55  1  0  0  0  0
 58 57  1  0  0  0  0
 59 61  1  0  0  0  0
 60 59  1  0  0  0  0
 61 62  1  0  0  0  0
 61 63  2  0  0  0  0
 63 64  1  0  0  0  0
M  END
