1,2
q = 0.0, confidence = 0.998

 72 77  0  0  1  0  0  0  0  0999 V2000
    2.2580   -0.3310    0.2633 P   0  0  1  0  0  0  0  0  0  0  0  0
   -2.2580   -0.3310   -0.2633 P   0  0  2  0  0  0  0  0  0  0  0  0
   -2.3971    1.5154   -0.4715 C   0  0  0  0  0  0  0  0  0  0  0  0
   -1.8879    1.6974   -1.4377 H   0  0  0  0  0  0  0  0  0  0  0  0
   -3.4601    1.8115   -0.5784 H   0  0  0  0  0  0  0  0  0  0  0  0
   -1.7423    2.2598    0.6737 C   0  0  0  0  0  0  0  0  0  0  0  0
   -2.4698    2.3902    1.8751 C   0  0  0  0  0  0  0  0  0  0  0  0
   -3.4963    1.9943    1.9169 H   0  0  0  0  0  0  0  0  0  0  0  0
   -1.9267    2.9993    3.0114 C   0  0  0  0  0  0  0  0  0  0  0  0
   -2.5224    3.0748    3.9334 H   0  0  0  0  0  0  0  0  0  0  0  0
   -0.6251    3.5156    2.9592 C   0  0  0  0  0  0  0  0  0  0  0  0
   -0.1840    4.0116    3.8369 H   0  0  0  0  0  0  0  0  0  0  0  0
    0.1062    3.4146    1.7706 C   0  0  0  0  0  0  0  0  0  0  0  0
    1.1105    3.8610    1.7105 H   0  0  0  0  0  0  0  0  0  0  0  0
   -0.4170    2.7816    0.6202 C   0  0  0  0  0  0  0  0  0  0  0  0
    0.4171    2.7816   -0.6200 C   0  0  0  0  0  0  0  0  0  0  0  0
   -0.1061    3.4147   -1.7704 C   0  0  0  0  0  0  0  0  0  0  0  0
   -1.1105    3.8611   -1.7102 H   0  0  0  0  0  0  0  0  0  0  0  0
    0.6251    3.5158   -2.9590 C   0  0  0  0  0  0  0  0  0  0  0  0
    0.1841    4.0118   -3.8366 H   0  0  0  0  0  0  0  0  0  0  0  0
    1.9268    2.9995   -3.0113 C   0  0  0  0  0  0  0  0  0  0  0  0
    2.5225    3.0751   -3.9332 H   0  0  0  0  0  0  0  0  0  0  0  0
    2.4699    2.3903   -1.8750 C   0  0  0  0  0  0  0  0  0  0  0  0
    3.4964    1.9944   -1.9167 H   0  0  0  0  0  0  0  0  0  0  0  0
    1.7423    2.2598   -0.6736 C   0  0  0  0  0  0  0  0  0  0  0  0
    2.3971    1.5153    0.4716 C   0  0  0  0  0  0  0  0  0  0  0  0
    1.8879    1.6973    1.4378 H   0  0  0  0  0  0  0  0  0  0  0  0
    3.4602    1.8114    0.5784 H   0  0  0  0  0  0  0  0  0  0  0  0
    3.4200   -0.9297   -1.0489 C   0  0  2  0  0  0  0  0  0  0  0  0
    3.0569   -0.5093   -2.0090 H   0  0  0  0  0  0  0  0  0  0  0  0
    3.2055   -2.4625   -1.1084 C   0  0  0  0  0  0  0  0  0  0  0  0
    3.8290   -2.8705   -1.9336 H   0  0  0  0  0  0  0  0  0  0  0  0
    2.1490   -2.6207   -1.4131 H   0  0  0  0  0  0  0  0  0  0  0  0
    3.5020   -3.2516    0.1842 C   0  0  0  0  0  0  0  0  0  0  0  0
    3.0917   -4.2762    0.0637 H   0  0  0  0  0  0  0  0  0  0  0  0
    4.5957   -3.3926    0.2923 H   0  0  0  0  0  0  0  0  0  0  0  0
    2.9267   -2.6543    1.4856 C   0  0  0  0  0  0  0  0  0  0  0  0
    3.3667   -3.1873    2.3564 H   0  0  0  0  0  0  0  0  0  0  0  0
    1.8317   -2.8380    1.5318 H   0  0  0  0  0  0  0  0  0  0  0  0
    3.1242   -1.1335    1.6904 C   0  0  1  0  0  0  0  0  0  0  0  0
    2.5553   -0.8424    2.5970 H   0  0  0  0  0  0  0  0  0  0  0  0
    4.5797   -0.6384    1.8081 C   0  0  0  0  0  0  0  0  0  0  0  0
    5.0472   -1.1358    2.6863 H   0  0  0  0  0  0  0  0  0  0  0  0
    4.5596    0.4438    2.0623 H   0  0  0  0  0  0  0  0  0  0  0  0
    5.4776   -0.8591    0.5747 C   0  0  0  0  0  0  0  0  0  0  0  0
    6.4200   -0.2892    0.7175 H   0  0  0  0  0  0  0  0  0  0  0  0
    5.7878   -1.9208    0.5320 H   0  0  0  0  0  0  0  0  0  0  0  0
    4.8613   -0.4528   -0.7790 C   0  0  0  0  0  0  0  0  0  0  0  0
    5.5124   -0.8297   -1.5982 H   0  0  0  0  0  0  0  0  0  0  0  0
    4.8877    0.6550   -0.8720 H   0  0  0  0  0  0  0  0  0  0  0  0
   -3.1243   -1.1334   -1.6904 C   0  0  2  0  0  0  0  0  0  0  0  0
   -2.5553   -0.8423   -2.5971 H   0  0  0  0  0  0  0  0  0  0  0  0
   -4.5798   -0.6383   -1.8081 C   0  0  0  0  0  0  0  0  0  0  0  0
   -5.0472   -1.1356   -2.6864 H   0  0  0  0  0  0  0  0  0  0  0  0
   -4.5596    0.4440   -2.0623 H   0  0  0  0  0  0  0  0  0  0  0  0
   -5.4776   -0.8590   -0.5747 C   0  0  0  0  0  0  0  0  0  0  0  0
   -5.7879   -1.9207   -0.5321 H   0  0  0  0  0  0  0  0  0  0  0  0
   -6.4200   -0.2891   -0.7175 H   0  0  0  0  0  0  0  0  0  0  0  0
   -4.8613   -0.4528    0.7790 C   0  0  0  0  0  0  0  0  0  0  0  0
   -5.5124   -0.8297    1.5982 H   0  0  0  0  0  0  0  0  0  0  0  0
   -4.8877    0.6550    0.8721 H   0  0  0  0  0  0  0  0  0  0  0  0
   -3.4200   -0.9298    1.0489 C   0  0  1  0  0  0  0  0  0  0  0  0
   -3.0569   -0.5094    2.0089 H   0  0  0  0  0  0  0  0  0  0  0  0
   -3.2056   -2.4626    1.1083 C   0  0  0  0  0  0  0  0  0  0  0  0
   -2.1490   -2.6207    1.4129 H   0  0  0  0  0  0  0  0  0  0  0  0
   -3.8290   -2.8705    1.9334 H   0  0  0  0  0  0  0  0  0  0  0  0
   -3.5021   -3.2516   -0.1844 C   0  0  0  0  0  0  0  0  0  0  0  0
   -4.5957   -3.3925   -0.2925 H   0  0  0  0  0  0  0  0  0  0  0  0
   -3.0917   -4.2761   -0.0639 H   0  0  0  0  0  0  0  0  0  0  0  0
   -2.9267   -2.6542   -1.4857 C   0  0  0  0  0  0  0  0  0  0  0  0
   -1.8317   -2.8379   -1.5320 H   0  0  0  0  0  0  0  0  0  0  0  0
   -3.3668   -3.1871   -2.3566 H   0  0  0  0  0  0  0  0  0  0  0  0
  1 26  1  1  0  0  0
  1 40  1  0  0  0  0
  2  3  1  6  0  0  0
  2 62  1  0  0  0  0
  3  6  1  0  0  0  0
  4  3  1  0  0  0  0
  5  3  1  0  0  0  0
  6  7  1  0  0  0  0
  7  8  1  0  0  0  0
  7  9  2  0  0  0  0
  9 10  1  0  0  0  0
 11  9  1  0  0  0  0
 11 12  1  0  0  0  0
 13 11  2  0  0  0  0
 14 13  1  0  0  0  0
 15  6  2  0  0  0  0
 15 13  1  0  0  0  0
 16 15  1  0  0  0  0
 17 18  1  0  0  0  0
 17 16  2  0  0  0  0
 19 17  1  0  0  0  0
 20 19  1  0  0  0  0
 21 19  2  0  0  0  0
 21 23  1  0  0  0  0
 22 21  1  0  0  0  0
 23 25  2  0  0  0  0
 24 23  1  0  0  0  0
 25 16  1  0  0  0  0
 25 26  1  0  0  0  0
 26 28  1  0  0  0  0
 26 27  1  0  0  0  0
 29 30  1  6  0  0  0
 29 48  1  0  0  0  0
 29  1  1  0  0  0  0
 31 29  1  0  0  0  0
 31 34  1  0  0  0  0
 32 31  1  0  0  0  0
 33 31  1  0  0  0  0
 34 36  1  0  0  0  0
 34 37  1  0  0  0  0
 35 34  1  0  0  0  0
 37 39  1  0  0  0  0
 37 40  1  0  0  0  0
 37 38  1  0  0  0  0
 40 42  1  0  0  0  0
 40 41  1  1  0  0  0
 42 44  1  0  0  0  0
 42 43  1  0  0  0  0
 45 46  1  0  0  0  0
 45 42  1  0  0  0  0
 47 45  1  0  0  0  0
 48 45  1  0  0  0  0
 49 48  1  0  0  0  0
 50 48  1  0  0  0  0
 51 52  1  6  0  0  0
 51 70  1  0  0  0  0
 51  2  1  0  0  0  0
 53 51  1  0  0  0  0
 53 56  1  0  0  0  0
 54 53  1  0  0  0  0
 55 53  1  0  0  0  0
 56 57  1  0  0  0  0
 56 59  1  0  0  0  0
 58 56  1  0  0  0  0
 59 61  1  0  0  0  0
 59 62  1  0  0  0  0
 59 60  1  0  0  0  0
 62 64  1  0  0  0  0
 62 63  1  1  0  0  0
 64 65  1  0  0  0  0
 64 66  1  0  0  0  0
 67 69  1  0  0  0  0
 67 64  1  0  0  0  0
 68 67  1  0  0  0  0
 70 67  1  0  0  0  0
 71 70  1  0  0  0  0
 72 70  1  0  0  0  0
M  END
