1,2
q = -1.0, confidence = 0.14

 73 77  0  0  0  0  0  0  0  0999 V2000
   -1.3482    0.5293   -0.4418 P   0  0  1  0  0  0  0  0  0  0  0  0
    1.4919   -1.0663    0.0798 P   0  0  0  0  0  0  0  0  0  0  0  0
   -1.4449   -0.3022    1.0485 O   0  0  0  0  0  0  0  0  0  0  0  0
   -2.6585   -0.2457   -1.4313 C   0  0  0  0  0  0  0  0  0  0  0  0
   -3.8012   -0.7804   -0.7948 C   0  0  0  0  0  0  0  0  0  0  0  0
   -4.7810   -1.4237   -1.5622 C   0  0  0  0  0  0  0  0  0  0  0  0
   -4.6264   -1.5347   -2.9542 C   0  0  0  0  0  0  0  0  0  0  0  0
   -3.4891   -1.0031   -3.5837 C   0  0  0  0  0  0  0  0  0  0  0  0
   -2.4983   -0.3610   -2.8283 C   0  0  0  0  0  0  0  0  0  0  0  0
   -1.9557    2.1365    0.2208 C   0  0  0  0  0  0  0  0  0  0  0  0
   -1.1549    2.9475    1.0709 C   0  0  0  0  0  0  0  0  0  0  0  0
   -1.7182    4.1199    1.6115 C   0  0  0  0  0  0  0  0  0  0  0  0
   -3.0217    4.5217    1.2888 C   0  0  0  0  0  0  0  0  0  0  0  0
   -3.7915    3.7362    0.4200 C   0  0  0  0  0  0  0  0  0  0  0  0
   -3.2640    2.5461   -0.0997 C   0  0  0  0  0  0  0  0  0  0  0  0
    0.1749   -2.0640    0.8098 C   0  0  0  0  0  0  0  0  0  0  0  0
   -1.0690   -1.6315    1.1606 C   0  0  0  0  0  0  0  0  0  0  0  0
   -2.1169   -2.4831    1.7600 C   0  0  0  0  0  0  0  0  0  0  0  0
   -3.1161   -1.8982    2.5726 C   0  0  0  0  0  0  0  0  0  0  0  0
   -4.1091   -2.6936    3.1583 C   0  0  0  0  0  0  0  0  0  0  0  0
   -4.1251   -4.0799    2.9357 C   0  0  0  0  0  0  0  0  0  0  0  0
   -3.1405   -4.6685    2.1239 C   0  0  0  0  0  0  0  0  0  0  0  0
   -2.1427   -3.8792    1.5411 C   0  0  0  0  0  0  0  0  0  0  0  0
    2.5292   -2.2739   -0.8097 C   0  0  0  0  0  0  0  0  0  0  0  0
    2.6240   -2.2310   -2.2139 C   0  0  0  0  0  0  0  0  0  0  0  0
    3.3836   -3.1998   -2.8864 C   0  0  0  0  0  0  0  0  0  0  0  0
    4.0477   -4.2029   -2.1638 C   0  0  0  0  0  0  0  0  0  0  0  0
    3.9580   -4.2411   -0.7619 C   0  0  0  0  0  0  0  0  0  0  0  0
    3.2005   -3.2789   -0.0804 C   0  0  0  0  0  0  0  0  0  0  0  0
    2.4881   -0.4885    1.5106 C   0  0  0  0  0  0  0  0  0  0  0  0
    3.8522   -0.1755    1.3251 C   0  0  0  0  0  0  0  0  0  0  0  0
    4.6018    0.3241    2.4003 C   0  0  0  0  0  0  0  0  0  0  0  0
    4.0008    0.5202    3.6561 C   0  0  0  0  0  0  0  0  0  0  0  0
    2.6419    0.2121    3.8392 C   0  0  0  0  0  0  0  0  0  0  0  0
    1.8847   -0.2936    2.7699 C   0  0  0  0  0  0  0  0  0  0  0  0
    0.2698    2.5906    1.4102 C   0  0  0  0  0  0  0  0  0  0  0  0
    1.2705    3.6988    1.1146 N   0  3  0  0  0  0  0  0  0  0  0  0
    1.1947    4.2477   -0.2831 C   0  0  0  0  0  0  0  0  0  0  0  0
    2.6637    3.2256    1.4156 C   0  0  0  0  0  0  0  0  0  0  0  0
   -3.9189   -0.7070    0.2953 H   0  0  0  0  0  0  0  0  0  0  0  0
   -5.6682   -1.8456   -1.0670 H   0  0  0  0  0  0  0  0  0  0  0  0
   -5.3980   -2.0425   -3.5523 H   0  0  0  0  0  0  0  0  0  0  0  0
   -3.3685   -1.0902   -4.6735 H   0  0  0  0  0  0  0  0  0  0  0  0
   -1.6106    0.0731   -3.3123 H   0  0  0  0  0  0  0  0  0  0  0  0
   -1.1317    4.7410    2.3103 H   0  0  0  0  0  0  0  0  0  0  0  0
   -3.4349    5.4457    1.7189 H   0  0  0  0  0  0  0  0  0  0  0  0
   -4.8118    4.0447    0.1490 H   0  0  0  0  0  0  0  0  0  0  0  0
   -3.8747    1.9290   -0.7742 H   0  0  0  0  0  0  0  0  0  0  0  0
    0.4243   -3.1202    0.9884 H   0  0  0  0  0  0  0  0  0  0  0  0
   -3.0966   -0.8130    2.7485 H   0  0  0  0  0  0  0  0  0  0  0  0
   -4.8753   -2.2287    3.7964 H   0  0  0  0  0  0  0  0  0  0  0  0
   -4.9083   -4.7035    3.3918 H   0  0  0  0  0  0  0  0  0  0  0  0
   -3.1579   -5.7519    1.9340 H   0  0  0  0  0  0  0  0  0  0  0  0
   -1.3961   -4.3451    0.8812 H   0  0  0  0  0  0  0  0  0  0  0  0
    2.1247   -1.4270   -2.7747 H   0  0  0  0  0  0  0  0  0  0  0  0
    3.4625   -3.1632   -3.9829 H   0  0  0  0  0  0  0  0  0  0  0  0
    4.6461   -4.9581   -2.6951 H   0  0  0  0  0  0  0  0  0  0  0  0
    4.4859   -5.0223   -0.1948 H   0  0  0  0  0  0  0  0  0  0  0  0
    3.1437   -3.3034    1.0193 H   0  0  0  0  0  0  0  0  0  0  0  0
    4.3160   -0.3141    0.3379 H   0  0  0  0  0  0  0  0  0  0  0  0
    5.6683    0.5544    2.2571 H   0  0  0  0  0  0  0  0  0  0  0  0
    4.5978    0.9003    4.4989 H   0  0  0  0  0  0  0  0  0  0  0  0
    2.1730    0.3441    4.8262 H   0  0  0  0  0  0  0  0  0  0  0  0
    0.8264   -0.5575    2.9190 H   0  0  0  0  0  0  0  0  0  0  0  0
    0.6249    1.7185    0.8180 H   0  0  0  0  0  0  0  0  0  0  0  0
    0.3986    2.3474    2.4836 H   0  0  0  0  0  0  0  0  0  0  0  0
    1.0477    4.4768    1.7594 H   0  0  0  0  0  0  0  0  0  0  0  0
    1.8500    5.1359   -0.3330 H   0  0  0  0  0  0  0  0  0  0  0  0
    1.5454    3.4678   -0.9847 H   0  0  0  0  0  0  0  0  0  0  0  0
    0.1503    4.5138   -0.5169 H   0  0  0  0  0  0  0  0  0  0  0  0
    3.3504    4.0889    1.3599 H   0  0  0  0  0  0  0  0  0  0  0  0
    2.6900    2.7682    2.4209 H   0  0  0  0  0  0  0  0  0  0  0  0
    2.9350    2.4773    0.6430 H   0  0  0  0  0  0  0  0  0  0  0  0
  1 10  1  0  0  0  0
  1  3  1  1  0  0  0
  2 16  1  0  0  0  0
  2 30  1  0  0  0  0
  3 17  1  0  0  0  0
  4  5  1  0  0  0  0
  4  1  1  0  0  0  0
  5 40  1  0  0  0  0
  6 41  1  0  0  0  0
  6  5  2  0  0  0  0
  7  6  1  0  0  0  0
  8  7  2  0  0  0  0
  8  9  1  0  0  0  0
  9  4  2  0  0  0  0
 10 11  1  0  0  0  0
 11 36  1  0  0  0  0
 11 12  2  0  0  0  0
 12 45  1  0  0  0  0
 13 12  1  0  0  0  0
 13 46  1  0  0  0  0
 14 13  2  0  0  0  0
 15 10  2  0  0  0  0
 15 14  1  0  0  0  0
 16 49  1  0  0  0  0
 16 17  2  0  0  0  0
 17 18  1  0  0  0  0
 18 19  1  0  0  0  0
 19 50  1  0  0  0  0
 19 20  2  0  0  0  0
 20 51  1  0  0  0  0
 21 20  1  0  0  0  0
 21 52  1  0  0  0  0
 22 21  2  0  0  0  0
 23 18  2  0  0  0  0
 23 22  1  0  0  0  0
 24 29  1  0  0  0  0
 24  2  1  0  0  0  0
 25 24  2  0  0  0  0
 26 25  1  0  0  0  0
 26 27  2  0  0  0  0
 27 28  1  0  0  0  0
 28 58  1  0  0  0  0
 28 29  2  0  0  0  0
 29 59  1  0  0  0  0
 30 35  1  0  0  0  0
 31 30  2  0  0  0  0
 31 32  1  0  0  0  0
 32 33  2  0  0  0  0
 33 34  1  0  0  0  0
 33 62  1  0  0  0  0
 34 63  1  0  0  0  0
 35 64  1  0  0  0  0
 35 34  2  0  0  0  0
 36 66  1  0  0  0  0
 37 36  1  0  0  0  0
 37 39  1  0  0  0  0
 37 67  1  0  0  0  0
 38 37  1  0  0  0  0
 39 72  1  0  0  0  0
 42  7  1  0  0  0  0
 43  8  1  0  0  0  0
 44  9  1  0  0  0  0
 47 14  1  0  0  0  0
 48 15  1  0  0  0  0
 53 22  1  0  0  0  0
 54 23  1  0  0  0  0
 55 25  1  0  0  0  0
 56 26  1  0  0  0  0
 57 27  1  0  0  0  0
 60 31  1  0  0  0  0
 61 32  1  0  0  0  0
 65 36  1  0  0  0  0
 68 38  1  0  0  0  0
 69 38  1  0  0  0  0
 70 38  1  0  0  0  0
 71 39  1  0  0  0  0
 73 39  1  0  0  0  0
M  CHG  1  37   1
M  END
