1,3
q = 0.0, confidence = 0.99

 62 66  0  0  0  0  0  0  0  0999 V2000
   -1.4139    0.2731   -0.0565 P   0  0  0  0  0  0  0  0  0  0  0  0
    0.2100    0.6213    0.5317 N   0  0  0  0  0  0  0  0  0  0  0  0
    1.1365   -0.7451   -0.0871 P   0  0  0  0  0  0  0  0  0  0  0  0
   -2.0849    1.8150   -0.7935 C   0  0  0  0  0  0  0  0  0  0  0  0
   -3.4792    2.0369   -0.7918 C   0  0  0  0  0  0  0  0  0  0  0  0
   -4.1484    1.3477   -0.2550 H   0  0  0  0  0  0  0  0  0  0  0  0
   -4.0176    3.1354   -1.4770 C   0  0  0  0  0  0  0  0  0  0  0  0
   -5.1059    3.2996   -1.4716 H   0  0  0  0  0  0  0  0  0  0  0  0
   -3.1736    4.0213   -2.1660 C   0  0  0  0  0  0  0  0  0  0  0  0
   -3.5985    4.8841   -2.7010 H   0  0  0  0  0  0  0  0  0  0  0  0
   -1.7879    3.7978   -2.1746 C   0  0  0  0  0  0  0  0  0  0  0  0
   -1.1215    4.4848   -2.7186 H   0  0  0  0  0  0  0  0  0  0  0  0
   -1.2433    2.6950   -1.5007 C   0  0  0  0  0  0  0  0  0  0  0  0
   -0.1601    2.5156   -1.5085 H   0  0  0  0  0  0  0  0  0  0  0  0
   -2.4675    0.0929    1.4454 C   0  0  0  0  0  0  0  0  0  0  0  0
   -2.7421    1.1948    2.2862 C   0  0  0  0  0  0  0  0  0  0  0  0
   -2.3714    2.1955    2.0188 H   0  0  0  0  0  0  0  0  0  0  0  0
   -3.4870    1.0148    3.4598 C   0  0  0  0  0  0  0  0  0  0  0  0
   -3.6915    1.8761    4.1139 H   0  0  0  0  0  0  0  0  0  0  0  0
   -3.9738   -0.2596    3.7989 C   0  0  0  0  0  0  0  0  0  0  0  0
   -4.5613   -0.3966    4.7196 H   0  0  0  0  0  0  0  0  0  0  0  0
   -3.7210   -1.3539    2.9573 C   0  0  0  0  0  0  0  0  0  0  0  0
   -4.1124   -2.3508    3.2102 H   0  0  0  0  0  0  0  0  0  0  0  0
   -2.9712   -1.1783    1.7834 C   0  0  0  0  0  0  0  0  0  0  0  0
   -2.7737   -2.0300    1.1166 H   0  0  0  0  0  0  0  0  0  0  0  0
    1.5971   -1.7310    1.3986 C   0  0  0  0  0  0  0  0  0  0  0  0
    2.8225   -2.4252    1.4686 C   0  0  0  0  0  0  0  0  0  0  0  0
    3.5730   -2.3008    0.6737 H   0  0  0  0  0  0  0  0  0  0  0  0
    3.0888   -3.2813    2.5486 C   0  0  0  0  0  0  0  0  0  0  0  0
    4.0486   -3.8182    2.5926 H   0  0  0  0  0  0  0  0  0  0  0  0
    2.1376   -3.4544    3.5658 C   0  0  0  0  0  0  0  0  0  0  0  0
    2.3496   -4.1255    4.4118 H   0  0  0  0  0  0  0  0  0  0  0  0
    0.9096   -2.7769    3.4932 C   0  0  0  0  0  0  0  0  0  0  0  0
    0.1509   -2.9171    4.2781 H   0  0  0  0  0  0  0  0  0  0  0  0
    0.6381   -1.9266    2.4135 C   0  0  0  0  0  0  0  0  0  0  0  0
   -0.3377   -1.4235    2.3475 H   0  0  0  0  0  0  0  0  0  0  0  0
    2.7505   -0.0570   -0.6282 C   0  0  0  0  0  0  0  0  0  0  0  0
    3.0395   -0.0164   -2.0051 C   0  0  0  0  0  0  0  0  0  0  0  0
    2.3164   -0.4367   -2.7199 H   0  0  0  0  0  0  0  0  0  0  0  0
    4.2409    0.5516   -2.4571 C   0  0  0  0  0  0  0  0  0  0  0  0
    4.4629    0.5739   -3.5347 H   0  0  0  0  0  0  0  0  0  0  0  0
    5.1581    1.0807   -1.5355 C   0  0  0  0  0  0  0  0  0  0  0  0
    6.1019    1.5230   -1.8897 H   0  0  0  0  0  0  0  0  0  0  0  0
    4.8767    1.0362   -0.1586 C   0  0  0  0  0  0  0  0  0  0  0  0
    5.5973    1.4451    0.5662 H   0  0  0  0  0  0  0  0  0  0  0  0
    3.6805    0.4650    0.2971 C   0  0  0  0  0  0  0  0  0  0  0  0
    3.4649    0.4274    1.3754 H   0  0  0  0  0  0  0  0  0  0  0  0
    0.6735    1.6252    1.4278 C   0  0  0  0  0  0  0  0  0  0  0  0
    1.4395    2.7230    0.9288 C   0  0  0  0  0  0  0  0  0  0  0  0
    1.9175    3.7022    1.8215 C   0  0  0  0  0  0  0  0  0  0  0  0
    2.5063    4.5497    1.4468 H   0  0  0  0  0  0  0  0  0  0  0  0
    1.6428    3.6024    3.1945 C   0  0  0  0  0  0  0  0  0  0  0  0
    2.0228    4.3790    3.8755 H   0  0  0  0  0  0  0  0  0  0  0  0
    0.9013    2.5249    3.6960 C   0  0  0  0  0  0  0  0  0  0  0  0
    0.6950    2.4393    4.7727 H   0  0  0  0  0  0  0  0  0  0  0  0
    0.4315    1.5425    2.8114 C   0  0  0  0  0  0  0  0  0  0  0  0
   -0.1357    0.6825    3.1884 H   0  0  0  0  0  0  0  0  0  0  0  0
    1.6783    2.7391   -0.4063 O   0  0  0  0  0  0  0  0  0  0  0  0
    2.5214    3.7413   -0.9462 C   0  0  0  0  0  0  0  0  0  0  0  0
    2.6168    3.5115   -2.0231 H   0  0  0  0  0  0  0  0  0  0  0  0
    3.5311    3.7110   -0.4825 H   0  0  0  0  0  0  0  0  0  0  0  0
    2.0864    4.7577   -0.8210 H   0  0  0  0  0  0  0  0  0  0  0  0
  1  2  1  0  0  0  0
  1 15  1  0  0  0  0
  2 48  1  0  0  0  0
  3  2  1  0  0  0  0
  3 26  1  0  0  0  0
  4  5  1  0  0  0  0
  4  1  1  0  0  0  0
  5  6  1  0  0  0  0
  7  8  1  0  0  0  0
  7  5  2  0  0  0  0
  9  7  1  0  0  0  0
 10  9  1  0  0  0  0
 11  9  2  0  0  0  0
 11 13  1  0  0  0  0
 12 11  1  0  0  0  0
 13  4  2  0  0  0  0
 14 13  1  0  0  0  0
 15 24  2  0  0  0  0
 15 16  1  0  0  0  0
 16 18  2  0  0  0  0
 17 16  1  0  0  0  0
 18 20  1  0  0  0  0
 18 19  1  0  0  0  0
 20 21  1  0  0  0  0
 22 23  1  0  0  0  0
 22 20  2  0  0  0  0
 24 22  1  0  0  0  0
 25 24  1  0  0  0  0
 26 27  2  0  0  0  0
 26 35  1  0  0  0  0
 27 29  1  0  0  0  0
 28 27  1  0  0  0  0
 29 30  1  0  0  0  0
 29 31  2  0  0  0  0
 31 32  1  0  0  0  0
 33 31  1  0  0  0  0
 33 34  1  0  0  0  0
 35 33  2  0  0  0  0
 36 35  1  0  0  0  0
 37  3  1  0  0  0  0
 37 46  1  0  0  0  0
 38 37  2  0  0  0  0
 39 38  1  0  0  0  0
 40 38  1  0  0  0  0
 40 42  2  0  0  0  0
 41 40  1  0  0  0  0
 42 44  1  0  0  0  0
 43 42  1  0  0  0  0
 44 46  2  0  0  0  0
 44 45  1  0  0  0  0
 46 47  1  0  0  0  0
 48 56  1  0  0  0  0
 49 48  2  0  0  0  0
 49 50  1  0  0  0  0
 50 52  2  0  0  0  0
 51 50  1  0  0  0  0
 52 54  1  0  0  0  0
 52 53  1  0  0  0  0
 54 55  1  0  0  0  0
 56 57  1  0  0  0  0
 56 54  2  0  0  0  0
 58 49  1  0  0  0  0
 59 62  1  0  0  0  0
 59 61  1  0  0  0  0
 59 58  1  0  0  0  0
 60 59  1  0  0  0  0
M  END
