2,3
q = 0.0, confidence = 0.976

 49 52  0  0  0  0  0  0  0  0999 V2000
   -0.0032   -0.0430   -2.8551 S   0  0  0  0  0  0  0  0  0  0  0  0
    1.6484   -0.0935   -0.3724 P   0  0  0  0  0  0  0  0  0  0  0  0
   -1.6375   -0.0350   -0.3857 P   0  0  0  0  0  0  0  0  0  0  0  0
    1.3665    0.1016   -2.0950 N   0  0  0  0  0  2  0  0  0  0  0  0
   -1.3928   -0.1058   -2.1228 N   0  0  0  0  0  2  0  0  0  0  0  0
    3.2879   -0.9369   -0.5163 C   0  0  0  0  0  0  0  0  0  0  0  0
    4.4923   -0.2065   -0.5629 C   0  0  0  0  0  0  0  0  0  0  0  0
    5.7162   -0.8762   -0.7083 C   0  0  0  0  0  0  0  0  0  0  0  0
    5.7477   -2.2751   -0.8186 C   0  0  0  0  0  0  0  0  0  0  0  0
    4.5491   -3.0050   -0.7843 C   0  0  0  0  0  0  0  0  0  0  0  0
    3.3243   -2.3412   -0.6305 C   0  0  0  0  0  0  0  0  0  0  0  0
    2.1333    1.6271    0.0761 C   0  0  0  0  0  0  0  0  0  0  0  0
    2.5346    1.8738    1.4055 C   0  0  0  0  0  0  0  0  0  0  0  0
    2.8513    3.1772    1.8123 C   0  0  0  0  0  0  0  0  0  0  0  0
    2.7644    4.2422    0.8991 C   0  0  0  0  0  0  0  0  0  0  0  0
    2.3761    3.9961   -0.4268 C   0  0  0  0  0  0  0  0  0  0  0  0
    2.0665    2.6914   -0.8419 C   0  0  0  0  0  0  0  0  0  0  0  0
   -3.3126   -0.7814   -0.3084 C   0  0  0  0  0  0  0  0  0  0  0  0
   -4.0975   -0.5504    0.8394 C   0  0  0  0  0  0  0  0  0  0  0  0
   -5.3430   -1.1775    0.9726 C   0  0  0  0  0  0  0  0  0  0  0  0
   -5.8068   -2.0441   -0.0315 C   0  0  0  0  0  0  0  0  0  0  0  0
   -5.0223   -2.2791   -1.1710 C   0  0  0  0  0  0  0  0  0  0  0  0
   -3.7756   -1.6496   -1.3138 C   0  0  0  0  0  0  0  0  0  0  0  0
   -2.0114    1.7725   -0.2747 C   0  0  0  0  0  0  0  0  0  0  0  0
   -1.1426    2.6555    0.3903 C   0  0  0  0  0  0  0  0  0  0  0  0
   -1.4142    4.0330    0.4042 C   0  0  0  0  0  0  0  0  0  0  0  0
   -2.5499    4.5333   -0.2487 C   0  0  0  0  0  0  0  0  0  0  0  0
   -3.4181    3.6541   -0.9199 C   0  0  0  0  0  0  0  0  0  0  0  0
   -3.1518    2.2793   -0.9372 C   0  0  0  0  0  0  0  0  0  0  0  0
    4.4749    0.8901   -0.4839 H   0  0  0  0  0  0  0  0  0  0  0  0
    6.6524   -0.2981   -0.7362 H   0  0  0  0  0  0  0  0  0  0  0  0
    6.7094   -2.7984   -0.9308 H   0  0  0  0  0  0  0  0  0  0  0  0
    4.5654   -4.1018   -0.8709 H   0  0  0  0  0  0  0  0  0  0  0  0
    2.3926   -2.9229   -0.6008 H   0  0  0  0  0  0  0  0  0  0  0  0
    2.5960    1.0442    2.1261 H   0  0  0  0  0  0  0  0  0  0  0  0
    3.1604    3.3627    2.8519 H   0  0  0  0  0  0  0  0  0  0  0  0
    3.0043    5.2663    1.2234 H   0  0  0  0  0  0  0  0  0  0  0  0
    2.3119    4.8256   -1.1473 H   0  0  0  0  0  0  0  0  0  0  0  0
    1.7670    2.4928   -1.8809 H   0  0  0  0  0  0  0  0  0  0  0  0
   -3.7322    0.1216    1.6321 H   0  0  0  0  0  0  0  0  0  0  0  0
   -5.9536   -0.9928    1.8692 H   0  0  0  0  0  0  0  0  0  0  0  0
   -6.7833   -2.5398    0.0775 H   0  0  0  0  0  0  0  0  0  0  0  0
   -5.3826   -2.9576   -1.9592 H   0  0  0  0  0  0  0  0  0  0  0  0
   -3.1578   -1.8201   -2.2075 H   0  0  0  0  0  0  0  0  0  0  0  0
   -0.2494    2.2758    0.8996 H   0  0  0  0  0  0  0  0  0  0  0  0
   -0.7265    4.7120    0.9301 H   0  0  0  0  0  0  0  0  0  0  0  0
   -2.7630    5.6131   -0.2355 H   0  0  0  0  0  0  0  0  0  0  0  0
   -4.3100    4.0436   -1.4341 H   0  0  0  0  0  0  0  0  0  0  0  0
   -3.8293    1.5898   -1.4629 H   0  0  0  0  0  0  0  0  0  0  0  0
  1  5  1  0  0  0  0
  1  4  1  0  0  0  0
  2 12  1  0  0  0  0
  3 18  1  0  0  0  0
  3 24  1  0  0  0  0
  4  2  1  0  0  0  0
  5  3  1  0  0  0  0
  6  2  1  0  0  0  0
  7  6  1  0  0  0  0
  7 30  1  0  0  0  0
  8  7  2  0  0  0  0
  9 10  2  0  0  0  0
  9  8  1  0  0  0  0
 10 11  1  0  0  0  0
 11 34  1  0  0  0  0
 11  6  2  0  0  0  0
 12 13  1  0  0  0  0
 13 14  2  0  0  0  0
 13 35  1  0  0  0  0
 14 36  1  0  0  0  0
 15 37  1  0  0  0  0
 15 14  1  0  0  0  0
 16 15  2  0  0  0  0
 17 16  1  0  0  0  0
 17 12  2  0  0  0  0
 18 19  1  0  0  0  0
 19 20  2  0  0  0  0
 19 40  1  0  0  0  0
 20 41  1  0  0  0  0
 21 42  1  0  0  0  0
 21 20  1  0  0  0  0
 22 21  2  0  0  0  0
 23 22  1  0  0  0  0
 23 18  2  0  0  0  0
 24 25  1  0  0  0  0
 25 26  2  0  0  0  0
 25 45  1  0  0  0  0
 26 46  1  0  0  0  0
 27 47  1  0  0  0  0
 27 26  1  0  0  0  0
 28 27  2  0  0  0  0
 29 28  1  0  0  0  0
 29 24  2  0  0  0  0
 31  8  1  0  0  0  0
 32  9  1  0  0  0  0
 33 10  1  0  0  0  0
 38 16  1  0  0  0  0
 39 17  1  0  0  0  0
 43 22  1  0  0  0  0
 44 23  1  0  0  0  0
 48 28  1  0  0  0  0
 49 29  1  0  0  0  0
M  END
