1,2
q = 0.0, confidence = 0.996

 59 62  0  0  0  0  0  0  0  0999 V2000
    1.0873    0.2459   -0.3442 P   0  0  0  0  0  0  0  0  0  0  0  0
   -1.4737   -0.4232   -0.0697 P   0  0  0  0  0  0  0  0  0  0  0  0
   -0.3220   -0.0477   -1.3203 N   0  0  0  0  0  0  0  0  0  0  0  0
   -0.4233    2.7991   -0.6709 O   0  0  0  0  0  0  0  0  0  0  0  0
    3.7062   -0.3139    0.8220 O   0  0  0  0  0  0  0  0  0  0  0  0
   -0.5534    0.3422   -2.7006 C   0  0  0  0  0  0  0  0  0  0  0  0
   -1.1001    1.3072   -2.7728 H   0  0  0  0  0  0  0  0  0  0  0  0
   -1.1257   -0.4430   -3.2406 H   0  0  0  0  0  0  0  0  0  0  0  0
    0.4198    0.4707   -3.2142 H   0  0  0  0  0  0  0  0  0  0  0  0
    1.7434    1.8721   -0.9038 C   0  0  0  0  0  0  0  0  0  0  0  0
    3.1009    2.0379   -1.2366 C   0  0  0  0  0  0  0  0  0  0  0  0
    3.7599    1.1596   -1.2409 H   0  0  0  0  0  0  0  0  0  0  0  0
    3.6277    3.2973   -1.5583 C   0  0  0  0  0  0  0  0  0  0  0  0
    4.6929    3.3994   -1.8118 H   0  0  0  0  0  0  0  0  0  0  0  0
    2.7858    4.4170   -1.5498 C   0  0  0  0  0  0  0  0  0  0  0  0
    3.1854    5.4140   -1.7903 H   0  0  0  0  0  0  0  0  0  0  0  0
    1.4240    4.2816   -1.2424 C   0  0  0  0  0  0  0  0  0  0  0  0
    0.7757    5.1671   -1.2495 H   0  0  0  0  0  0  0  0  0  0  0  0
    0.8923    3.0141   -0.9305 C   0  0  0  0  0  0  0  0  0  0  0  0
   -1.2949    3.9142   -0.5631 C   0  0  0  0  0  0  0  0  0  0  0  0
   -0.9788    4.5895    0.2601 H   0  0  0  0  0  0  0  0  0  0  0  0
   -2.2920    3.5013   -0.3307 H   0  0  0  0  0  0  0  0  0  0  0  0
   -1.3466    4.4836   -1.5169 H   0  0  0  0  0  0  0  0  0  0  0  0
    2.3375   -0.9572   -0.9730 C   0  0  0  0  0  0  0  0  0  0  0  0
    2.0845   -1.7910   -2.0752 C   0  0  0  0  0  0  0  0  0  0  0  0
    1.1636   -1.6476   -2.6567 H   0  0  0  0  0  0  0  0  0  0  0  0
    2.9759   -2.8162   -2.4315 C   0  0  0  0  0  0  0  0  0  0  0  0
    2.7586   -3.4573   -3.2982 H   0  0  0  0  0  0  0  0  0  0  0  0
    4.1334   -3.0191   -1.6684 C   0  0  0  0  0  0  0  0  0  0  0  0
    4.8354   -3.8249   -1.9313 H   0  0  0  0  0  0  0  0  0  0  0  0
    4.4110   -2.2036   -0.5606 C   0  0  0  0  0  0  0  0  0  0  0  0
    5.3199   -2.3761    0.0307 H   0  0  0  0  0  0  0  0  0  0  0  0
    3.5190   -1.1703   -0.2138 C   0  0  0  0  0  0  0  0  0  0  0  0
    4.7981   -0.5153    1.7062 C   0  0  0  0  0  0  0  0  0  0  0  0
    4.7689   -1.5302    2.1580 H   0  0  0  0  0  0  0  0  0  0  0  0
    4.6815    0.2332    2.5088 H   0  0  0  0  0  0  0  0  0  0  0  0
    5.7714   -0.3697    1.1877 H   0  0  0  0  0  0  0  0  0  0  0  0
   -2.2039   -2.0293   -0.5959 C   0  0  0  0  0  0  0  0  0  0  0  0
   -1.3587   -3.0130   -1.1499 C   0  0  0  0  0  0  0  0  0  0  0  0
   -0.2956   -2.7866   -1.3156 H   0  0  0  0  0  0  0  0  0  0  0  0
   -1.8671   -4.2774   -1.4777 C   0  0  0  0  0  0  0  0  0  0  0  0
   -1.1987   -5.0361   -1.9125 H   0  0  0  0  0  0  0  0  0  0  0  0
   -3.2185   -4.5783   -1.2416 C   0  0  0  0  0  0  0  0  0  0  0  0
   -3.6152   -5.5732   -1.4947 H   0  0  0  0  0  0  0  0  0  0  0  0
   -4.0603   -3.6083   -0.6751 C   0  0  0  0  0  0  0  0  0  0  0  0
   -5.1188   -3.8405   -0.4818 H   0  0  0  0  0  0  0  0  0  0  0  0
   -3.5583   -2.3379   -0.3541 C   0  0  0  0  0  0  0  0  0  0  0  0
   -4.2249   -1.5816    0.0870 H   0  0  0  0  0  0  0  0  0  0  0  0
   -2.9260    0.7008   -0.2338 C   0  0  0  0  0  0  0  0  0  0  0  0
   -3.6126    0.8668   -1.4565 C   0  0  0  0  0  0  0  0  0  0  0  0
   -3.3051    0.2973   -2.3454 H   0  0  0  0  0  0  0  0  0  0  0  0
   -4.7083    1.7382   -1.5396 C   0  0  0  0  0  0  0  0  0  0  0  0
   -5.2300    1.8703   -2.4998 H   0  0  0  0  0  0  0  0  0  0  0  0
   -5.1508    2.4267   -0.3970 C   0  0  0  0  0  0  0  0  0  0  0  0
   -6.0170    3.1026   -0.4625 H   0  0  0  0  0  0  0  0  0  0  0  0
   -4.4954    2.2380    0.8297 C   0  0  0  0  0  0  0  0  0  0  0  0
   -4.8472    2.7601    1.7323 H   0  0  0  0  0  0  0  0  0  0  0  0
   -3.3830    1.3847    0.9096 C   0  0  0  0  0  0  0  0  0  0  0  0
   -2.8633    1.2411    1.8676 H   0  0  0  0  0  0  0  0  0  0  0  0
  3  1  1  0  0  0  0
  3  2  1  0  0  0  0
  4 20  1  0  0  0  0
  5 34  1  0  0  0  0
  6  3  1  0  0  0  0
  7  6  1  0  0  0  0
  8  6  1  0  0  0  0
  9  6  1  0  0  0  0
 10  1  1  0  0  0  0
 11 10  2  0  0  0  0
 12 11  1  0  0  0  0
 13 15  2  0  0  0  0
 13 11  1  0  0  0  0
 14 13  1  0  0  0  0
 15 17  1  0  0  0  0
 16 15  1  0  0  0  0
 17 19  2  0  0  0  0
 18 17  1  0  0  0  0
 19 10  1  0  0  0  0
 19  4  1  0  0  0  0
 20 22  1  0  0  0  0
 20 21  1  0  0  0  0
 23 20  1  0  0  0  0
 24  1  1  0  0  0  0
 24 33  1  0  0  0  0
 25 24  2  0  0  0  0
 26 25  1  0  0  0  0
 27 25  1  0  0  0  0
 27 29  2  0  0  0  0
 28 27  1  0  0  0  0
 29 31  1  0  0  0  0
 30 29  1  0  0  0  0
 31 33  2  0  0  0  0
 31 32  1  0  0  0  0
 33  5  1  0  0  0  0
 34 35  1  0  0  0  0
 34 36  1  0  0  0  0
 37 34  1  0  0  0  0
 38 47  1  0  0  0  0
 38  2  1  0  0  0  0
 39 38  2  0  0  0  0
 40 39  1  0  0  0  0
 41 43  2  0  0  0  0
 41 39  1  0  0  0  0
 42 41  1  0  0  0  0
 43 45  1  0  0  0  0
 44 43  1  0  0  0  0
 45 46  1  0  0  0  0
 45 47  2  0  0  0  0
 47 48  1  0  0  0  0
 49  2  1  0  0  0  0
 49 58  1  0  0  0  0
 50 49  2  0  0  0  0
 51 50  1  0  0  0  0
 52 50  1  0  0  0  0
 52 54  2  0  0  0  0
 53 52  1  0  0  0  0
 54 56  1  0  0  0  0
 55 54  1  0  0  0  0
 56 58  2  0  0  0  0
 56 57  1  0  0  0  0
 58 59  1  0  0  0  0
M  END
