1,2
q = 0.0, confidence = 0.992

 64 68  0  0  0  0  0  0  0  0999 V2000
   -1.3014    1.2787    0.1646 P   0  0  0  0  0  0  0  0  0  0  0  0
    0.1750   -1.1224    0.0151 P   0  0  0  0  0  0  0  0  0  0  0  0
   -1.9283    1.5013    1.8791 C   0  0  0  0  0  0  0  0  0  0  0  0
   -3.3235    1.6036    2.0591 C   0  0  0  0  0  0  0  0  0  0  0  0
   -3.8564    1.7513    3.3464 C   0  0  0  0  0  0  0  0  0  0  0  0
   -3.0039    1.7842    4.4630 C   0  0  0  0  0  0  0  0  0  0  0  0
   -1.6159    1.6741    4.2881 C   0  0  0  0  0  0  0  0  0  0  0  0
   -1.0764    1.5366    2.9993 C   0  0  0  0  0  0  0  0  0  0  0  0
   -1.1669    3.0005   -0.4721 C   0  0  0  0  0  0  0  0  0  0  0  0
   -1.0740    4.1111    0.3918 C   0  0  0  0  0  0  0  0  0  0  0  0
   -0.9207    5.4016   -0.1385 C   0  0  0  0  0  0  0  0  0  0  0  0
   -0.8614    5.5911   -1.5284 C   0  0  0  0  0  0  0  0  0  0  0  0
   -0.9596    4.4870   -2.3912 C   0  0  0  0  0  0  0  0  0  0  0  0
   -1.1155    3.1959   -1.8674 C   0  0  0  0  0  0  0  0  0  0  0  0
    0.4295    0.6771    0.3378 C   0  0  0  0  0  0  0  0  0  0  0  0
    1.6742   -1.7450   -0.8611 C   0  0  0  0  0  0  0  0  0  0  0  0
    2.4779   -2.7756   -0.3343 C   0  0  0  0  0  0  0  0  0  0  0  0
    3.6211   -3.2020   -1.0309 C   0  0  0  0  0  0  0  0  0  0  0  0
    3.9722   -2.6002   -2.2490 C   0  0  0  0  0  0  0  0  0  0  0  0
    3.1672   -1.5775   -2.7799 C   0  0  0  0  0  0  0  0  0  0  0  0
    2.0188   -1.1573   -2.0969 C   0  0  0  0  0  0  0  0  0  0  0  0
    0.2662   -1.9474    1.6552 C   0  0  0  0  0  0  0  0  0  0  0  0
    1.0645   -1.4408    2.7006 C   0  0  0  0  0  0  0  0  0  0  0  0
    1.0984   -2.0982    3.9392 C   0  0  0  0  0  0  0  0  0  0  0  0
    0.3432   -3.2657    4.1383 C   0  0  0  0  0  0  0  0  0  0  0  0
   -0.4482   -3.7762    3.0969 C   0  0  0  0  0  0  0  0  0  0  0  0
   -0.4924   -3.1170    1.8594 C   0  0  0  0  0  0  0  0  0  0  0  0
    1.5633    1.4461    0.3719 C   0  0  0  0  0  0  0  0  0  0  0  0
    2.9201    0.9680    0.3568 C   0  0  0  0  0  0  0  0  0  0  0  0
    4.0117    1.7915    0.3508 C   0  0  0  0  0  0  0  0  0  0  0  0
    5.4065    1.3671    0.2947 C   0  0  0  0  0  0  0  0  0  0  0  0
    5.7862    0.0173    0.0729 C   0  0  0  0  0  0  0  0  0  0  0  0
    7.1350   -0.3454    0.0262 C   0  0  0  0  0  0  0  0  0  0  0  0
    8.1409    0.6238    0.1959 C   0  0  0  0  0  0  0  0  0  0  0  0
    7.7835    1.9651    0.4070 C   0  0  0  0  0  0  0  0  0  0  0  0
    6.4329    2.3316    0.4519 C   0  0  0  0  0  0  0  0  0  0  0  0
   -3.9915    1.5494    1.1847 H   0  0  0  0  0  0  0  0  0  0  0  0
   -4.9460    1.8277    3.4804 H   0  0  0  0  0  0  0  0  0  0  0  0
   -3.4254    1.8873    5.4744 H   0  0  0  0  0  0  0  0  0  0  0  0
   -0.9457    1.6901    5.1611 H   0  0  0  0  0  0  0  0  0  0  0  0
    0.0109    1.4449    2.8609 H   0  0  0  0  0  0  0  0  0  0  0  0
   -1.1314    3.9651    1.4812 H   0  0  0  0  0  0  0  0  0  0  0  0
   -0.8522    6.2656    0.5402 H   0  0  0  0  0  0  0  0  0  0  0  0
   -0.7462    6.6047   -1.9416 H   0  0  0  0  0  0  0  0  0  0  0  0
   -0.9237    4.6317   -3.4816 H   0  0  0  0  0  0  0  0  0  0  0  0
   -1.2034    2.3308   -2.5408 H   0  0  0  0  0  0  0  0  0  0  0  0
    2.2152   -3.2408    0.6273 H   0  0  0  0  0  0  0  0  0  0  0  0
    4.2415   -4.0100   -0.6138 H   0  0  0  0  0  0  0  0  0  0  0  0
    4.8724   -2.9300   -2.7894 H   0  0  0  0  0  0  0  0  0  0  0  0
    3.4343   -1.1043   -3.7367 H   0  0  0  0  0  0  0  0  0  0  0  0
    1.3926   -0.3578   -2.5187 H   0  0  0  0  0  0  0  0  0  0  0  0
    1.6571   -0.5266    2.5454 H   0  0  0  0  0  0  0  0  0  0  0  0
    1.7170   -1.6946    4.7552 H   0  0  0  0  0  0  0  0  0  0  0  0
    0.3676   -3.7772    5.1125 H   0  0  0  0  0  0  0  0  0  0  0  0
   -1.0457   -4.6873    3.2512 H   0  0  0  0  0  0  0  0  0  0  0  0
   -1.1266   -3.5012    1.0453 H   0  0  0  0  0  0  0  0  0  0  0  0
    1.4255    2.5448    0.3872 H   0  0  0  0  0  0  0  0  0  0  0  0
    3.0698   -0.1213    0.3452 H   0  0  0  0  0  0  0  0  0  0  0  0
    3.8402    2.8824    0.3881 H   0  0  0  0  0  0  0  0  0  0  0  0
    5.0166   -0.7525   -0.0860 H   0  0  0  0  0  0  0  0  0  0  0  0
    7.4080   -1.3966   -0.1529 H   0  0  0  0  0  0  0  0  0  0  0  0
    9.2015    0.3330    0.1565 H   0  0  0  0  0  0  0  0  0  0  0  0
    8.5636    2.7307    0.5351 H   0  0  0  0  0  0  0  0  0  0  0  0
    6.1543    3.3846    0.6159 H   0  0  0  0  0  0  0  0  0  0  0  0
  1 15  1  0  0  0  0
  1  3  1  0  0  0  0
  2 15  1  0  0  0  0
  2 22  1  0  0  0  0
  3  4  2  0  0  0  0
  3  8  1  0  0  0  0
  4  5  1  0  0  0  0
  5 38  1  0  0  0  0
  5  6  2  0  0  0  0
  6 39  1  0  0  0  0
  7  6  1  0  0  0  0
  7 40  1  0  0  0  0
  8  7  2  0  0  0  0
  9  1  1  0  0  0  0
  9 10  1  0  0  0  0
 10 42  1  0  0  0  0
 11 10  2  0  0  0  0
 11 43  1  0  0  0  0
 12 11  1  0  0  0  0
 13 14  1  0  0  0  0
 13 12  2  0  0  0  0
 14  9  2  0  0  0  0
 15 28  2  0  0  0  0
 16 17  1  0  0  0  0
 16  2  1  0  0  0  0
 17 47  1  0  0  0  0
 18 48  1  0  0  0  0
 18 17  2  0  0  0  0
 19 18  1  0  0  0  0
 20 19  2  0  0  0  0
 20 21  1  0  0  0  0
 21 16  2  0  0  0  0
 22 27  2  0  0  0  0
 22 23  1  0  0  0  0
 23 24  2  0  0  0  0
 24 25  1  0  0  0  0
 24 53  1  0  0  0  0
 25 54  1  0  0  0  0
 26 55  1  0  0  0  0
 26 25  2  0  0  0  0
 27 26  1  0  0  0  0
 28 57  1  0  0  0  0
 29 28  1  0  0  0  0
 30 29  2  0  0  0  0
 30 59  1  0  0  0  0
 31 30  1  0  0  0  0
 31 36  1  0  0  0  0
 32 31  2  0  0  0  0
 33 32  1  0  0  0  0
 33 34  2  0  0  0  0
 34 35  1  0  0  0  0
 35 36  2  0  0  0  0
 35 63  1  0  0  0  0
 36 64  1  0  0  0  0
 37  4  1  0  0  0  0
 41  8  1  0  0  0  0
 44 12  1  0  0  0  0
 45 13  1  0  0  0  0
 46 14  1  0  0  0  0
 49 19  1  0  0  0  0
 50 20  1  0  0  0  0
 51 21  1  0  0  0  0
 52 23  1  0  0  0  0
 56 27  1  0  0  0  0
 58 29  1  0  0  0  0
 60 32  1  0  0  0  0
 61 33  1  0  0  0  0
 62 34  1  0  0  0  0
M  END
