1,2
q = -2.0, confidence = 0.568

 47 50  0  0  0  0  0  0  0  0999 V2000
    1.1519   -0.2623    0.5807 P   0  0  0  0  0  0  0  0  0  0  0  0
   -1.4029   -0.2022    0.4146 P   0  0  0  0  0  0  0  0  0  0  0  0
   -0.2279   -0.6441    1.5591 O   0  0  0  0  0  0  0  0  0  0  0  0
    1.9779   -1.8804    0.6021 C   0  0  0  0  0  0  0  0  0  0  0  0
    1.5594   -2.8373    1.5749 C   0  0  0  0  0  0  0  0  0  0  0  0
    2.1550   -4.0767    1.6774 C   0  0  0  0  0  0  0  0  0  0  0  0
    3.2460   -4.4349    0.7818 C   0  0  0  0  0  0  0  0  0  0  0  0
    3.6640   -3.4573   -0.2175 C   0  0  0  0  0  0  0  0  0  0  0  0
    3.0365   -2.2300   -0.2851 C   0  0  0  0  0  0  0  0  0  0  0  0
    3.8719   -5.6356    0.8343 C   0  0  0  0  0  1  0  0  0  0  0  0
    2.0878    0.6999    1.7986 C   0  0  0  0  0  0  0  0  0  0  0  0
    3.5090    0.8080    1.7523 C   0  0  0  0  0  0  0  0  0  0  0  0
    4.2110    1.5203    2.7000 C   0  0  0  0  0  0  0  0  0  0  0  0
    3.4987    2.1863    3.7835 C   0  0  0  0  0  0  0  0  0  0  0  0
    2.0473    2.0607    3.8353 C   0  0  0  0  0  0  0  0  0  0  0  0
    1.3875    1.3295    2.8685 C   0  0  0  0  0  0  0  0  0  0  0  0
    4.1335    2.9158    4.7323 C   0  0  0  0  0  1  0  0  0  0  0  0
   -2.4685    0.8663    1.4000 C   0  0  0  0  0  0  0  0  0  0  0  0
   -3.2000    1.9418    0.8138 C   0  0  0  0  0  0  0  0  0  0  0  0
   -4.0567    2.7259    1.5556 C   0  0  0  0  0  0  0  0  0  0  0  0
   -4.2309    2.4663    2.9799 C   0  0  0  0  0  0  0  0  0  0  0  0
   -3.4694    1.3766    3.5827 C   0  0  0  0  0  0  0  0  0  0  0  0
   -2.6309    0.6155    2.7994 C   0  0  0  0  0  0  0  0  0  0  0  0
   -5.0602    3.2123    3.7472 C   0  0  0  0  0  1  0  0  0  0  0  0
   -2.3632   -1.7188    0.2512 C   0  0  0  0  0  0  0  0  0  0  0  0
   -2.5996   -2.5424    1.3970 C   0  0  0  0  0  0  0  0  0  0  0  0
   -3.3588   -3.6882    1.3253 C   0  0  0  0  0  0  0  0  0  0  0  0
   -3.9565   -4.0813    0.0532 C   0  0  0  0  0  0  0  0  0  0  0  0
   -3.7093   -3.2446   -1.1148 C   0  0  0  0  0  0  0  0  0  0  0  0
   -2.9360   -2.1100   -0.9949 C   0  0  0  0  0  0  0  0  0  0  0  0
   -4.7075   -5.2050   -0.0283 C   0  0  0  0  0  1  0  0  0  0  0  0
    0.7348   -2.5818    2.2552 H   0  0  0  0  0  0  0  0  0  0  0  0
    1.8162   -4.8058    2.4252 H   0  0  0  0  0  0  0  0  0  0  0  0
    4.4656   -3.7166   -0.9219 H   0  0  0  0  0  0  0  0  0  0  0  0
    3.3463   -1.5098   -1.0587 H   0  0  0  0  0  0  0  0  0  0  0  0
    4.0628    0.3164    0.9399 H   0  0  0  0  0  0  0  0  0  0  0  0
    5.3046    1.6014    2.6495 H   0  0  0  0  0  0  0  0  0  0  0  0
    1.4914    2.5663    4.6362 H   0  0  0  0  0  0  0  0  0  0  0  0
    0.2924    1.2487    2.9194 H   0  0  0  0  0  0  0  0  0  0  0  0
   -3.0768    2.1719   -0.2535 H   0  0  0  0  0  0  0  0  0  0  0  0
   -4.6012    3.5595    1.0930 H   0  0  0  0  0  0  0  0  0  0  0  0
   -3.5634    1.1892    4.6609 H   0  0  0  0  0  0  0  0  0  0  0  0
   -2.0402   -0.1799    3.2781 H   0  0  0  0  0  0  0  0  0  0  0  0
   -2.1402   -2.2778    2.3607 H   0  0  0  0  0  0  0  0  0  0  0  0
   -3.5115   -4.3238    2.2077 H   0  0  0  0  0  0  0  0  0  0  0  0
   -4.1288   -3.5414   -2.0851 H   0  0  0  0  0  0  0  0  0  0  0  0
   -2.7490   -1.5096   -1.8958 H   0  0  0  0  0  0  0  0  0  0  0  0
  1  4  1  0  0  0  0
  1  3  1  0  0  0  0
  1 11  1  0  0  0  0
  2 18  1  0  0  0  0
  2  3  1  0  0  0  0
  4  5  1  0  0  0  0
  5  6  2  0  0  0  0
  5 32  1  0  0  0  0
  6 33  1  0  0  0  0
  7 10  1  0  0  0  0
  7  6  1  0  0  0  0
  8  7  2  0  0  0  0
  9  8  1  0  0  0  0
  9  4  2  0  0  0  0
 11 16  1  0  0  0  0
 12 11  2  0  0  0  0
 12 13  1  0  0  0  0
 13 14  2  0  0  0  0
 14 15  1  0  0  0  0
 14 17  1  0  0  0  0
 15 38  1  0  0  0  0
 16 39  1  0  0  0  0
 16 15  2  0  0  0  0
 18 23  1  0  0  0  0
 19 18  2  0  0  0  0
 19 20  1  0  0  0  0
 20 21  2  0  0  0  0
 21 22  1  0  0  0  0
 21 24  1  0  0  0  0
 22 42  1  0  0  0  0
 23 43  1  0  0  0  0
 23 22  2  0  0  0  0
 25  2  1  0  0  0  0
 25 26  1  0  0  0  0
 26 44  1  0  0  0  0
 27 26  2  0  0  0  0
 27 45  1  0  0  0  0
 28 27  1  0  0  0  0
 29 30  1  0  0  0  0
 29 28  2  0  0  0  0
 30 25  2  0  0  0  0
 31 28  1  0  0  0  0
 34  8  1  0  0  0  0
 35  9  1  0  0  0  0
 36 12  1  0  0  0  0
 37 13  1  0  0  0  0
 40 19  1  0  0  0  0
 41 20  1  0  0  0  0
 46 29  1  0  0  0  0
 47 30  1  0  0  0  0
M  END
