1,2
q = 0.0, confidence = 0.992

 69 71  0  0  1  0  0  0  0  0999 V2000
    1.3781    1.0878   -0.7951 P   0  0  1  0  0  0  0  0  0  0  0  0
   -1.3781    1.0878    0.7950 P   0  0  1  0  0  0  0  0  0  0  0  0
    1.3254    1.3002   -2.6156 C   0  0  0  0  0  0  0  0  0  0  0  0
    1.6460    0.3348   -3.0557 H   0  0  0  0  0  0  0  0  0  0  0  0
    1.9759    2.1216   -2.9740 H   0  0  0  0  0  0  0  0  0  0  0  0
    0.2787    1.4883   -2.9237 H   0  0  0  0  0  0  0  0  0  0  0  0
    3.1616    0.9073   -0.3007 C   0  0  0  0  0  0  0  0  0  0  0  0
    3.4405   -0.0119   -0.8628 H   0  0  0  0  0  0  0  0  0  0  0  0
    3.2331    0.6085    1.2201 C   0  0  0  0  0  0  0  0  0  0  0  0
    3.5900    1.5195    1.7433 H   0  0  0  0  0  0  0  0  0  0  0  0
    2.2074    0.4178    1.6093 H   0  0  0  0  0  0  0  0  0  0  0  0
    4.0784   -0.6226    1.5980 C   0  0  0  0  0  0  0  0  0  0  0  0
    3.4661   -1.5230    1.3782 H   0  0  0  0  0  0  0  0  0  0  0  0
    4.2382   -0.6136    2.6985 H   0  0  0  0  0  0  0  0  0  0  0  0
    5.4212   -0.7915    0.8811 C   0  0  0  0  0  0  0  0  0  0  0  0
    5.8395   -1.7768    1.1773 H   0  0  0  0  0  0  0  0  0  0  0  0
    5.2391   -0.8888   -0.2118 H   0  0  0  0  0  0  0  0  0  0  0  0
    6.4976    0.2718    1.1307 C   0  0  0  0  0  0  0  0  0  0  0  0
    6.7639    0.2796    2.2108 H   0  0  0  0  0  0  0  0  0  0  0  0
    7.4190   -0.0566    0.6007 H   0  0  0  0  0  0  0  0  0  0  0  0
    6.1872    1.7167    0.6922 C   0  0  0  0  0  0  0  0  0  0  0  0
    7.1415    2.2829    0.7276 H   0  0  0  0  0  0  0  0  0  0  0  0
    5.5347    2.2166    1.4392 H   0  0  0  0  0  0  0  0  0  0  0  0
    5.5649    1.8795   -0.7117 C   0  0  0  0  0  0  0  0  0  0  0  0
    6.0148    2.7680   -1.2024 H   0  0  0  0  0  0  0  0  0  0  0  0
    5.8459    1.0172   -1.3554 H   0  0  0  0  0  0  0  0  0  0  0  0
    4.0386    2.0837   -0.7652 C   0  0  0  0  0  0  0  0  0  0  0  0
    3.7775    2.3491   -1.8116 H   0  0  0  0  0  0  0  0  0  0  0  0
    3.7867    2.9785   -0.1531 H   0  0  0  0  0  0  0  0  0  0  0  0
    0.7704    2.6759   -0.0365 C   0  0  1  0  0  0  0  0  0  0  0  0
    1.1614    2.6308    1.0069 H   0  0  0  0  0  0  0  0  0  0  0  0
    1.0753    4.0606   -0.6307 C   0  0  0  0  0  0  0  0  0  0  0  0
    2.1096    4.3968   -0.4280 H   0  0  0  0  0  0  0  0  0  0  0  0
    0.9559    4.0256   -1.7333 H   0  0  0  0  0  0  0  0  0  0  0  0
    0.0000    4.9944    0.0000 C   0  0  0  0  0  0  0  0  0  0  0  0
    0.4428    5.6580    0.7689 H   0  0  0  0  0  0  0  0  0  0  0  0
   -0.4426    5.6582   -0.7687 H   0  0  0  0  0  0  0  0  0  0  0  0
   -1.0754    4.0606    0.6305 C   0  0  0  0  0  0  0  0  0  0  0  0
   -2.1096    4.3968    0.4278 H   0  0  0  0  0  0  0  0  0  0  0  0
   -0.9561    4.0256    1.7331 H   0  0  0  0  0  0  0  0  0  0  0  0
   -0.7704    2.6759    0.0364 C   0  0  2  0  0  0  0  0  0  0  0  0
   -1.1614    2.6308   -1.0070 H   0  0  0  0  0  0  0  0  0  0  0  0
   -1.3253    1.3002    2.6155 C   0  0  0  0  0  0  0  0  0  0  0  0
   -0.2786    1.4887    2.9234 H   0  0  0  0  0  0  0  0  0  0  0  0
   -1.6454    0.3347    3.0556 H   0  0  0  0  0  0  0  0  0  0  0  0
   -1.9761    2.1214    2.9739 H   0  0  0  0  0  0  0  0  0  0  0  0
   -3.1616    0.9073    0.3006 C   0  0  0  0  0  0  0  0  0  0  0  0
   -3.4404   -0.0119    0.8628 H   0  0  0  0  0  0  0  0  0  0  0  0
   -4.0386    2.0837    0.7652 C   0  0  0  0  0  0  0  0  0  0  0  0
   -3.7773    2.3492    1.8115 H   0  0  0  0  0  0  0  0  0  0  0  0
   -3.7867    2.9785    0.1529 H   0  0  0  0  0  0  0  0  0  0  0  0
   -5.5648    1.8794    0.7119 C   0  0  0  0  0  0  0  0  0  0  0  0
   -6.0147    2.7680    1.2027 H   0  0  0  0  0  0  0  0  0  0  0  0
   -5.8458    1.0172    1.3556 H   0  0  0  0  0  0  0  0  0  0  0  0
   -6.1874    1.7167   -0.6919 C   0  0  0  0  0  0  0  0  0  0  0  0
   -7.1418    2.2828   -0.7271 H   0  0  0  0  0  0  0  0  0  0  0  0
   -5.5351    2.2166   -1.4390 H   0  0  0  0  0  0  0  0  0  0  0  0
   -6.4977    0.2717   -1.1303 C   0  0  0  0  0  0  0  0  0  0  0  0
   -6.7642    0.2795   -2.2104 H   0  0  0  0  0  0  0  0  0  0  0  0
   -7.4190   -0.0567   -0.6002 H   0  0  0  0  0  0  0  0  0  0  0  0
   -5.4213   -0.7915   -0.8808 C   0  0  0  0  0  0  0  0  0  0  0  0
   -5.2391   -0.8888    0.2121 H   0  0  0  0  0  0  0  0  0  0  0  0
   -5.8396   -1.7768   -1.1770 H   0  0  0  0  0  0  0  0  0  0  0  0
   -4.0786   -0.6227   -1.5979 C   0  0  0  0  0  0  0  0  0  0  0  0
   -3.4662   -1.5231   -1.3782 H   0  0  0  0  0  0  0  0  0  0  0  0
   -4.2385   -0.6136   -2.6984 H   0  0  0  0  0  0  0  0  0  0  0  0
   -3.2332    0.6084   -1.2201 C   0  0  0  0  0  0  0  0  0  0  0  0
   -3.5900    1.5195   -1.7433 H   0  0  0  0  0  0  0  0  0  0  0  0
   -2.2075    0.4176   -1.6094 H   0  0  0  0  0  0  0  0  0  0  0  0
  1  3  1  6  0  0  0
  1  7  1  0  0  0  0
  1 30  1  0  0  0  0
  2 43  1  1  0  0  0
  4  3  1  0  0  0  0
  5  3  1  0  0  0  0
  6  3  1  0  0  0  0
  7  9  1  0  0  0  0
  8  7  1  0  0  0  0
  9 12  1  0  0  0  0
  9 11  1  0  0  0  0
  9 10  1  0  0  0  0
 12 14  1  0  0  0  0
 13 12  1  0  0  0  0
 15 18  1  0  0  0  0
 15 16  1  0  0  0  0
 15 12  1  0  0  0  0
 17 15  1  0  0  0  0
 18 19  1  0  0  0  0
 20 18  1  0  0  0  0
 21 22  1  0  0  0  0
 21 18  1  0  0  0  0
 21 23  1  0  0  0  0
 24 21  1  0  0  0  0
 25 24  1  0  0  0  0
 26 24  1  0  0  0  0
 27 24  1  0  0  0  0
 27  7  1  0  0  0  0
 27 29  1  0  0  0  0
 28 27  1  0  0  0  0
 30 41  1  0  0  0  0
 30 31  1  1  0  0  0
 32 33  1  0  0  0  0
 32 30  1  0  0  0  0
 32 35  1  0  0  0  0
 34 32  1  0  0  0  0
 35 38  1  0  0  0  0
 35 36  1  0  0  0  0
 37 35  1  0  0  0  0
 38 40  1  0  0  0  0
 39 38  1  0  0  0  0
 41 42  1  6  0  0  0
 41 38  1  0  0  0  0
 41  2  1  0  0  0  0
 43 44  1  0  0  0  0
 43 46  1  0  0  0  0
 43 45  1  0  0  0  0
 47 49  1  0  0  0  0
 47  2  1  0  0  0  0
 47 48  1  0  0  0  0
 49 50  1  0  0  0  0
 51 49  1  0  0  0  0
 52 49  1  0  0  0  0
 52 53  1  0  0  0  0
 52 54  1  0  0  0  0
 55 52  1  0  0  0  0
 56 55  1  0  0  0  0
 57 55  1  0  0  0  0
 58 61  1  0  0  0  0
 58 55  1  0  0  0  0
 58 60  1  0  0  0  0
 59 58  1  0  0  0  0
 61 62  1  0  0  0  0
 63 61  1  0  0  0  0
 64 65  1  0  0  0  0
 64 67  1  0  0  0  0
 64 61  1  0  0  0  0
 66 64  1  0  0  0  0
 67 47  1  0  0  0  0
 68 67  1  0  0  0  0
 69 67  1  0  0  0  0
M  END
