1,2
q = 0.0, confidence = 0.988

 36 38  0  0  0  0  0  0  0  0999 V2000
    1.4151   -1.6281   -0.1645 P   0  0  1  0  0  0  0  0  0  0  0  0
   -1.2045   -1.6508    0.4873 P   0  0  2  0  0  0  0  0  0  0  0  0
    0.5726   -2.9825   -1.1376 C   0  0  0  0  0  0  0  0  0  0  0  0
   -0.9549   -2.8991   -0.8722 C   0  0  0  0  0  0  0  0  0  0  0  0
   -0.2258   -2.4652    1.8692 C   0  0  0  0  0  0  0  0  0  0  0  0
    1.2887   -2.3209    1.5543 C   0  0  0  0  0  0  0  0  0  0  0  0
   -2.9494   -1.6203    0.9791 C   0  0  0  0  0  0  0  0  0  0  0  0
   -3.9630   -1.8892    0.0346 C   0  0  0  0  0  0  0  0  0  0  0  0
   -5.3107   -1.7599    0.3973 C   0  0  0  0  0  0  0  0  0  0  0  0
   -5.6600   -1.3608    1.6969 C   0  0  0  0  0  0  0  0  0  0  0  0
   -4.6556   -1.0810    2.6374 C   0  0  0  0  0  0  0  0  0  0  0  0
   -3.3053   -1.2022    2.2809 C   0  0  0  0  0  0  0  0  0  0  0  0
    3.1440   -1.4932   -0.6792 C   0  0  0  0  0  0  0  0  0  0  0  0
    3.4017   -0.9769   -1.9701 C   0  0  0  0  0  0  0  0  0  0  0  0
    4.7259   -0.8404   -2.4070 C   0  0  0  0  0  0  0  0  0  0  0  0
    5.7906   -1.1961   -1.5619 C   0  0  0  0  0  0  0  0  0  0  0  0
    5.5326   -1.6856   -0.2720 C   0  0  0  0  0  0  0  0  0  0  0  0
    4.2119   -1.8373    0.1745 C   0  0  0  0  0  0  0  0  0  0  0  0
   -6.0941   -1.9722   -0.3448 H   0  0  0  0  0  0  0  0  0  0  0  0
   -0.4827   -1.9747    2.8274 H   0  0  0  0  0  0  0  0  0  0  0  0
    1.8179   -3.2924    1.6301 H   0  0  0  0  0  0  0  0  0  0  0  0
   -1.4005   -3.8814   -0.6165 H   0  0  0  0  0  0  0  0  0  0  0  0
    0.7982   -2.7994   -2.2048 H   0  0  0  0  0  0  0  0  0  0  0  0
   -4.9248   -0.7703    3.6579 H   0  0  0  0  0  0  0  0  0  0  0  0
   -2.5272   -0.9768    3.0271 H   0  0  0  0  0  0  0  0  0  0  0  0
   -3.7043   -2.1961   -0.9891 H   0  0  0  0  0  0  0  0  0  0  0  0
    6.8290   -1.0880   -1.9099 H   0  0  0  0  0  0  0  0  0  0  0  0
    6.3656   -1.9547    0.3943 H   0  0  0  0  0  0  0  0  0  0  0  0
    4.0237   -2.2216    1.1875 H   0  0  0  0  0  0  0  0  0  0  0  0
   -0.5352   -3.5270    1.9500 H   0  0  0  0  0  0  0  0  0  0  0  0
    4.9279   -0.4504   -3.4159 H   0  0  0  0  0  0  0  0  0  0  0  0
    1.7834   -1.6076    2.2429 H   0  0  0  0  0  0  0  0  0  0  0  0
    2.5578   -0.6751   -2.6131 H   0  0  0  0  0  0  0  0  0  0  0  0
   -1.4597   -2.4852   -1.7672 H   0  0  0  0  0  0  0  0  0  0  0  0
    1.0058   -3.9593   -0.8421 H   0  0  0  0  0  0  0  0  0  0  0  0
   -6.7193   -1.2659    1.9781 H   0  0  0  0  0  0  0  0  0  0  0  0
  1 13  1  6  0  0  0
  1  6  1  0  0  0  0
  2  7  1  1  0  0  0
  2  5  1  0  0  0  0
  3  4  1  0  0  0  0
  3 35  1  0  0  0  0
  3  1  1  0  0  0  0
  4 22  1  0  0  0  0
  4  2  1  0  0  0  0
  5 30  1  0  0  0  0
  5 20  1  0  0  0  0
  6 21  1  0  0  0  0
  6  5  1  0  0  0  0
  6 32  1  0  0  0  0
  7 12  1  0  0  0  0
  8  9  1  0  0  0  0
  8  7  2  0  0  0  0
  9 10  2  0  0  0  0
 10 36  1  0  0  0  0
 10 11  1  0  0  0  0
 11 24  1  0  0  0  0
 12 11  2  0  0  0  0
 12 25  1  0  0  0  0
 13 18  1  0  0  0  0
 14 13  2  0  0  0  0
 15 14  1  0  0  0  0
 15 16  2  0  0  0  0
 16 17  1  0  0  0  0
 17 18  2  0  0  0  0
 17 28  1  0  0  0  0
 18 29  1  0  0  0  0
 19  9  1  0  0  0  0
 23  3  1  0  0  0  0
 26  8  1  0  0  0  0
 27 16  1  0  0  0  0
 31 15  1  0  0  0  0
 33 14  1  0  0  0  0
 34  4  1  0  0  0  0
M  END
