1,2
q = 0.0, confidence = 0.99

 55 58  0  0  0  0  0  0  0  0999 V2000
   -1.3632    0.3155   -0.7893 P   0  0  2  0  0  0  0  0  0  0  0  0
    1.7179   -0.2083   -0.7509 P   0  0  0  0  0  0  0  0  0  0  0  0
   -2.7702   -0.8257   -0.5763 C   0  0  0  0  0  0  0  0  0  0  0  0
   -4.0863   -0.3674   -0.3875 C   0  0  0  0  0  0  0  0  0  0  0  0
   -4.3026    0.7104   -0.4086 H   0  0  0  0  0  0  0  0  0  0  0  0
   -5.1214   -1.2849   -0.1594 C   0  0  0  0  0  0  0  0  0  0  0  0
   -6.1479   -0.9133   -0.0145 H   0  0  0  0  0  0  0  0  0  0  0  0
   -4.8739   -2.6701   -0.0985 C   0  0  0  0  0  0  0  0  0  0  0  0
   -3.5447   -3.1144   -0.2714 C   0  0  0  0  0  0  0  0  0  0  0  0
   -3.3212   -4.1914   -0.2132 H   0  0  0  0  0  0  0  0  0  0  0  0
   -2.5034   -2.2094   -0.4979 C   0  0  0  0  0  0  0  0  0  0  0  0
   -1.4706   -2.5830   -0.5893 H   0  0  0  0  0  0  0  0  0  0  0  0
   -2.0549    1.9530   -1.2380 C   0  0  0  0  0  0  0  0  0  0  0  0
   -2.8655    2.0958   -2.3853 C   0  0  0  0  0  0  0  0  0  0  0  0
   -3.1257    1.2167   -2.9959 H   0  0  0  0  0  0  0  0  0  0  0  0
   -3.3610    3.3576   -2.7426 C   0  0  0  0  0  0  0  0  0  0  0  0
   -3.9959    3.4629   -3.6354 H   0  0  0  0  0  0  0  0  0  0  0  0
   -3.0496    4.4822   -1.9599 C   0  0  0  0  0  0  0  0  0  0  0  0
   -3.4388    5.4723   -2.2424 H   0  0  0  0  0  0  0  0  0  0  0  0
   -2.2487    4.3417   -0.8163 C   0  0  0  0  0  0  0  0  0  0  0  0
   -2.0108    5.2188   -0.1959 H   0  0  0  0  0  0  0  0  0  0  0  0
   -1.7525    3.0808   -0.4502 C   0  0  0  0  0  0  0  0  0  0  0  0
   -1.1504    2.9519    0.4626 H   0  0  0  0  0  0  0  0  0  0  0  0
   -0.5315   -0.2668   -2.3694 C   0  0  0  0  0  0  0  0  0  0  0  0
   -0.5807   -1.3749   -2.3672 H   0  0  0  0  0  0  0  0  0  0  0  0
   -1.1029    0.0915   -3.2490 H   0  0  0  0  0  0  0  0  0  0  0  0
    0.9168    0.2163   -2.3820 C   0  0  0  0  0  0  0  0  0  0  0  0
    0.9713    1.3232   -2.4477 H   0  0  0  0  0  0  0  0  0  0  0  0
    1.5001   -0.1875   -3.2348 H   0  0  0  0  0  0  0  0  0  0  0  0
    3.3473    0.6180   -0.8311 C   0  0  0  0  0  0  0  0  0  0  0  0
    4.4330    0.0206   -1.5011 C   0  0  0  0  0  0  0  0  0  0  0  0
    4.3318   -0.9895   -1.9272 H   0  0  0  0  0  0  0  0  0  0  0  0
    5.6497    0.7109   -1.6095 C   0  0  0  0  0  0  0  0  0  0  0  0
    6.4993    0.2412   -2.1281 H   0  0  0  0  0  0  0  0  0  0  0  0
    5.7848    1.9916   -1.0501 C   0  0  0  0  0  0  0  0  0  0  0  0
    6.7424    2.5281   -1.1312 H   0  0  0  0  0  0  0  0  0  0  0  0
    4.7043    2.5825   -0.3749 C   0  0  0  0  0  0  0  0  0  0  0  0
    4.8142    3.5783    0.0800 H   0  0  0  0  0  0  0  0  0  0  0  0
    3.4869    1.8972   -0.2570 C   0  0  0  0  0  0  0  0  0  0  0  0
    2.6480    2.3336    0.3060 H   0  0  0  0  0  0  0  0  0  0  0  0
    2.0442   -2.0144   -0.8235 C   0  0  0  0  0  0  0  0  0  0  0  0
    2.2809   -2.6875    0.3951 C   0  0  0  0  0  0  0  0  0  0  0  0
    2.2632   -2.1148    1.3386 H   0  0  0  0  0  0  0  0  0  0  0  0
    2.5293   -4.0670    0.3941 C   0  0  0  0  0  0  0  0  0  0  0  0
    2.7143   -4.5836    1.3480 H   0  0  0  0  0  0  0  0  0  0  0  0
    2.5322   -4.7878   -0.8116 C   0  0  0  0  0  0  0  0  0  0  0  0
    2.7196   -5.8724   -0.8066 H   0  0  0  0  0  0  0  0  0  0  0  0
    2.2908   -4.1236   -2.0240 C   0  0  0  0  0  0  0  0  0  0  0  0
    2.2900   -4.6832   -2.9717 H   0  0  0  0  0  0  0  0  0  0  0  0
    2.0497   -2.7404   -2.0332 C   0  0  0  0  0  0  0  0  0  0  0  0
    1.8672   -2.2354   -2.9935 H   0  0  0  0  0  0  0  0  0  0  0  0
   -5.9816   -3.6530    0.1790 C   0  0  0  0  0  0  0  0  0  0  0  0
   -5.9062   -4.0494    1.2141 H   0  0  0  0  0  0  0  0  0  0  0  0
   -5.9316   -4.5259   -0.5032 H   0  0  0  0  0  0  0  0  0  0  0  0
   -6.9800   -3.1868    0.0731 H   0  0  0  0  0  0  0  0  0  0  0  0
  1 24  1  6  0  0  0
  1  3  1  0  0  0  0
  3 11  2  0  0  0  0
  3  4  1  0  0  0  0
  4  6  2  0  0  0  0
  5  4  1  0  0  0  0
  6  8  1  0  0  0  0
  6  7  1  0  0  0  0
  8 52  1  0  0  0  0
  9 10  1  0  0  0  0
  9  8  2  0  0  0  0
 11  9  1  0  0  0  0
 12 11  1  0  0  0  0
 13  1  1  0  0  0  0
 13 22  1  0  0  0  0
 14 13  2  0  0  0  0
 15 14  1  0  0  0  0
 16 14  1  0  0  0  0
 16 18  2  0  0  0  0
 17 16  1  0  0  0  0
 18 20  1  0  0  0  0
 19 18  1  0  0  0  0
 20 22  2  0  0  0  0
 20 21  1  0  0  0  0
 22 23  1  0  0  0  0
 24 25  1  0  0  0  0
 26 24  1  0  0  0  0
 27 24  1  0  0  0  0
 27  2  1  0  0  0  0
 28 27  1  0  0  0  0
 29 27  1  0  0  0  0
 30  2  1  0  0  0  0
 30 39  1  0  0  0  0
 31 30  2  0  0  0  0
 32 31  1  0  0  0  0
 33 31  1  0  0  0  0
 33 35  2  0  0  0  0
 34 33  1  0  0  0  0
 35 37  1  0  0  0  0
 36 35  1  0  0  0  0
 37 39  2  0  0  0  0
 37 38  1  0  0  0  0
 39 40  1  0  0  0  0
 41  2  1  0  0  0  0
 41 42  1  0  0  0  0
 42 43  1  0  0  0  0
 44 42  2  0  0  0  0
 44 45  1  0  0  0  0
 46 47  1  0  0  0  0
 46 44  1  0  0  0  0
 48 46  2  0  0  0  0
 49 48  1  0  0  0  0
 50 48  1  0  0  0  0
 50 41  2  0  0  0  0
 51 50  1  0  0  0  0
 52 53  1  0  0  0  0
 54 52  1  0  0  0  0
 55 52  1  0  0  0  0
M  END
