2
q = 0.0, confidence = 0.99

 72 74  0  0  1  0  0  0  0  0999 V2000
   -1.6376    0.0441    0.3647 P   0  0  2  0  0  0  0  0  0  0  0  0
    1.5827   -0.0309    0.3401 P   0  0  2  0  0  0  0  0  0  0  0  0
   -1.0357    3.3118    0.3120 C   0  0  0  0  0  0  0  0  0  0  0  0
   -0.2451    2.5362    0.2830 H   0  0  0  0  0  0  0  0  0  0  0  0
   -0.6152    4.2072    0.8109 H   0  0  0  0  0  0  0  0  0  0  0  0
   -1.2633    3.5840   -0.7397 H   0  0  0  0  0  0  0  0  0  0  0  0
   -3.3701    3.8961    1.0723 C   0  0  0  0  0  0  0  0  0  0  0  0
   -2.9596    4.8298    1.5051 H   0  0  0  0  0  0  0  0  0  0  0  0
   -4.2428    3.6025    1.6872 H   0  0  0  0  0  0  0  0  0  0  0  0
   -3.7338    4.1339    0.0506 H   0  0  0  0  0  0  0  0  0  0  0  0
   -2.2865    2.8079    1.0330 C   0  0  0  0  0  0  0  0  0  0  0  0
   -2.0118    2.5629    2.0838 H   0  0  0  0  0  0  0  0  0  0  0  0
   -2.8183    1.5214    0.3779 C   0  0  2  0  0  0  0  0  0  0  0  0
   -2.9676    1.7196   -0.7087 H   0  0  0  0  0  0  0  0  0  0  0  0
   -4.1276    0.9446    0.9417 C   0  0  0  0  0  0  0  0  0  0  0  0
   -4.0812    0.9085    2.0518 H   0  0  0  0  0  0  0  0  0  0  0  0
   -4.9818    1.6028    0.6873 H   0  0  0  0  0  0  0  0  0  0  0  0
   -4.3148   -0.4543    0.3574 C   0  0  0  0  0  0  0  0  0  0  0  0
   -4.5693   -0.3725   -0.7219 H   0  0  0  0  0  0  0  0  0  0  0  0
   -5.1532   -0.9913    0.8423 H   0  0  0  0  0  0  0  0  0  0  0  0
   -3.0052   -1.2622    0.4968 C   0  0  1  0  0  0  0  0  0  0  0  0
   -2.9094   -1.6404    1.5395 H   0  0  0  0  0  0  0  0  0  0  0  0
   -2.9007   -2.4643   -0.4664 C   0  0  0  0  0  0  0  0  0  0  0  0
   -2.9551   -2.0618   -1.5032 H   0  0  0  0  0  0  0  0  0  0  0  0
   -4.0960   -3.4108   -0.2710 C   0  0  0  0  0  0  0  0  0  0  0  0
   -5.0663   -2.9232   -0.4855 H   0  0  0  0  0  0  0  0  0  0  0  0
   -4.1287   -3.7988    0.7691 H   0  0  0  0  0  0  0  0  0  0  0  0
   -4.0076   -4.2829   -0.9483 H   0  0  0  0  0  0  0  0  0  0  0  0
   -1.5830   -3.2227   -0.3153 C   0  0  0  0  0  0  0  0  0  0  0  0
   -0.7144   -2.5632   -0.5379 H   0  0  0  0  0  0  0  0  0  0  0  0
   -1.5367   -4.0785   -1.0173 H   0  0  0  0  0  0  0  0  0  0  0  0
   -1.4660   -3.6225    0.7130 H   0  0  0  0  0  0  0  0  0  0  0  0
   -0.7173    0.0643    1.9610 C   0  0  0  0  0  0  0  0  0  0  0  0
   -1.3954    0.0880    3.1968 C   0  0  0  0  0  0  0  0  0  0  0  0
   -2.4935    0.0398    3.2278 H   0  0  0  0  0  0  0  0  0  0  0  0
   -0.6808    0.1792    4.4000 C   0  0  0  0  0  0  0  0  0  0  0  0
   -1.2230    0.1964    5.3569 H   0  0  0  0  0  0  0  0  0  0  0  0
    0.7202    0.2581    4.3811 C   0  0  0  0  0  0  0  0  0  0  0  0
    1.2828    0.3400    5.3227 H   0  0  0  0  0  0  0  0  0  0  0  0
    1.4067    0.2233    3.1594 C   0  0  0  0  0  0  0  0  0  0  0  0
    2.5058    0.2765    3.1580 H   0  0  0  0  0  0  0  0  0  0  0  0
    0.6992    0.1130    1.9451 C   0  0  0  0  0  0  0  0  0  0  0  0
    1.3611   -3.2017    1.5621 C   0  0  0  0  0  0  0  0  0  0  0  0
    0.5210   -2.4901    1.6735 H   0  0  0  0  0  0  0  0  0  0  0  0
    1.3153   -3.9067    2.4155 H   0  0  0  0  0  0  0  0  0  0  0  0
    1.1897   -3.7865    0.6352 H   0  0  0  0  0  0  0  0  0  0  0  0
    3.8499   -3.5329    1.4169 C   0  0  0  0  0  0  0  0  0  0  0  0
    3.7613   -4.2724    2.2372 H   0  0  0  0  0  0  0  0  0  0  0  0
    4.8557   -3.0769    1.4896 H   0  0  0  0  0  0  0  0  0  0  0  0
    3.7942   -4.0900    0.4582 H   0  0  0  0  0  0  0  0  0  0  0  0
    2.7176   -2.4968    1.5146 C   0  0  0  0  0  0  0  0  0  0  0  0
    2.8565   -1.9355    2.4659 H   0  0  0  0  0  0  0  0  0  0  0  0
    2.8173   -1.4859    0.3524 C   0  0  2  0  0  0  0  0  0  0  0  0
    2.5689   -2.0250   -0.5874 H   0  0  0  0  0  0  0  0  0  0  0  0
    4.2031   -0.8105    0.2056 C   0  0  0  0  0  0  0  0  0  0  0  0
    4.6478   -0.6843    1.2164 H   0  0  0  0  0  0  0  0  0  0  0  0
    4.8899   -1.4641   -0.3664 H   0  0  0  0  0  0  0  0  0  0  0  0
    4.0533    0.5666   -0.4451 C   0  0  0  0  0  0  0  0  0  0  0  0
    3.8133    0.4712   -1.5250 H   0  0  0  0  0  0  0  0  0  0  0  0
    4.9944    1.1480   -0.3811 H   0  0  0  0  0  0  0  0  0  0  0  0
    2.9221    1.2858    0.3068 C   0  0  1  0  0  0  0  0  0  0  0  0
    3.2249    1.3332    1.3782 H   0  0  0  0  0  0  0  0  0  0  0  0
    2.5551    2.7215   -0.1186 C   0  0  0  0  0  0  0  0  0  0  0  0
    1.7239    3.0398    0.5464 H   0  0  0  0  0  0  0  0  0  0  0  0
    2.0786    2.8506   -1.5678 C   0  0  0  0  0  0  0  0  0  0  0  0
    1.8096    3.9012   -1.7935 H   0  0  0  0  0  0  0  0  0  0  0  0
    1.1786    2.2254   -1.7615 H   0  0  0  0  0  0  0  0  0  0  0  0
    2.8661    2.5497   -2.2890 H   0  0  0  0  0  0  0  0  0  0  0  0
    3.7349    3.6674    0.1624 C   0  0  0  0  0  0  0  0  0  0  0  0
    3.4352    4.7194   -0.0129 H   0  0  0  0  0  0  0  0  0  0  0  0
    4.5956    3.4572   -0.5046 H   0  0  0  0  0  0  0  0  0  0  0  0
    4.0875    3.5879    1.2110 H   0  0  0  0  0  0  0  0  0  0  0  0
  1 13  1  0  0  0  0
  1 21  1  0  0  0  0
  1 33  1  1  0  0  0
  2 53  1  0  0  0  0
  2 42  1  1  0  0  0
  3  5  1  0  0  0  0
  3 11  1  0  0  0  0
  4  3  1  0  0  0  0
  6  3  1  0  0  0  0
  7  8  1  0  0  0  0
  7  9  1  0  0  0  0
 10  7  1  0  0  0  0
 11  7  1  0  0  0  0
 11 12  1  0  0  0  0
 13 14  1  6  0  0  0
 13 15  1  0  0  0  0
 13 11  1  0  0  0  0
 15 16  1  0  0  0  0
 17 15  1  0  0  0  0
 18 21  1  0  0  0  0
 18 20  1  0  0  0  0
 18 15  1  0  0  0  0
 19 18  1  0  0  0  0
 21 22  1  1  0  0  0
 23 29  1  0  0  0  0
 23 25  1  0  0  0  0
 23 21  1  0  0  0  0
 24 23  1  0  0  0  0
 25 27  1  0  0  0  0
 26 25  1  0  0  0  0
 28 25  1  0  0  0  0
 29 32  1  0  0  0  0
 30 29  1  0  0  0  0
 31 29  1  0  0  0  0
 33 34  1  0  0  0  0
 34 35  1  0  0  0  0
 34 36  2  0  0  0  0
 36 37  1  0  0  0  0
 38 36  1  0  0  0  0
 38 39  1  0  0  0  0
 40 38  2  0  0  0  0
 41 40  1  0  0  0  0
 42 33  2  0  0  0  0
 42 40  1  0  0  0  0
 43 44  1  0  0  0  0
 43 45  1  0  0  0  0
 46 43  1  0  0  0  0
 47 49  1  0  0  0  0
 47 51  1  0  0  0  0
 47 48  1  0  0  0  0
 50 47  1  0  0  0  0
 51 43  1  0  0  0  0
 51 52  1  0  0  0  0
 53 54  1  6  0  0  0
 53 51  1  0  0  0  0
 55 53  1  0  0  0  0
 55 56  1  0  0  0  0
 57 55  1  0  0  0  0
 58 60  1  0  0  0  0
 58 55  1  0  0  0  0
 58 61  1  0  0  0  0
 59 58  1  0  0  0  0
 61  2  1  0  0  0  0
 61 62  1  1  0  0  0
 63 69  1  0  0  0  0
 63 61  1  0  0  0  0
 63 64  1  0  0  0  0
 65 63  1  0  0  0  0
 66 65  1  0  0  0  0
 67 65  1  0  0  0  0
 68 65  1  0  0  0  0
 69 72  1  0  0  0  0
 70 69  1  0  0  0  0
 71 69  1  0  0  0  0
M  END
