1,2
q = 0.0, confidence = 0.99

 50 53  0  0  0  0  0  0  0  0999 V2000
    1.3539    0.1853   -0.1387 P   0  0  0  0  0  0  0  0  0  0  0  0
   -1.3459   -0.0843   -0.1849 P   0  0  0  0  0  0  0  0  0  0  0  0
    0.0145    0.0926   -1.2641 N   0  0  0  0  0  0  0  0  0  0  0  0
   -0.0079    0.0054   -2.6485 N   0  0  0  0  0  0  0  0  0  0  0  0
    0.4353    0.8333   -3.0708 H   0  0  0  0  0  0  0  0  0  0  0  0
    0.4713   -0.8461   -2.9760 H   0  0  0  0  0  0  0  0  0  0  0  0
    2.4740   -1.1962   -0.5243 C   0  0  0  0  0  0  0  0  0  0  0  0
    2.6268   -2.2275    0.4262 C   0  0  0  0  0  0  0  0  0  0  0  0
    2.1662   -2.1092    1.4215 H   0  0  0  0  0  0  0  0  0  0  0  0
    3.3932   -3.3569    0.1013 C   0  0  0  0  0  0  0  0  0  0  0  0
    3.5238   -4.1572    0.8451 H   0  0  0  0  0  0  0  0  0  0  0  0
    3.9969   -3.4632   -1.1625 C   0  0  0  0  0  0  0  0  0  0  0  0
    4.5947   -4.3529   -1.4128 H   0  0  0  0  0  0  0  0  0  0  0  0
    3.8536   -2.4309   -2.1051 C   0  0  0  0  0  0  0  0  0  0  0  0
    4.3396   -2.5101   -3.0895 H   0  0  0  0  0  0  0  0  0  0  0  0
    3.0998   -1.2915   -1.7875 C   0  0  0  0  0  0  0  0  0  0  0  0
    3.0110   -0.4678   -2.5130 H   0  0  0  0  0  0  0  0  0  0  0  0
    2.2374    1.7103   -0.5890 C   0  0  0  0  0  0  0  0  0  0  0  0
    1.4865    2.8215   -1.0286 C   0  0  0  0  0  0  0  0  0  0  0  0
    0.3926    2.7353   -1.1291 H   0  0  0  0  0  0  0  0  0  0  0  0
    2.1348    4.0297   -1.3174 C   0  0  0  0  0  0  0  0  0  0  0  0
    1.5492    4.8945   -1.6638 H   0  0  0  0  0  0  0  0  0  0  0  0
    3.5261    4.1394   -1.1527 C   0  0  0  0  0  0  0  0  0  0  0  0
    4.0321    5.0913   -1.3739 H   0  0  0  0  0  0  0  0  0  0  0  0
    4.2703    3.0395   -0.6965 C   0  0  0  0  0  0  0  0  0  0  0  0
    5.3579    3.1291   -0.5555 H   0  0  0  0  0  0  0  0  0  0  0  0
    3.6312    1.8236   -0.4132 C   0  0  0  0  0  0  0  0  0  0  0  0
    4.2113    0.9628   -0.0483 H   0  0  0  0  0  0  0  0  0  0  0  0
   -2.1342   -1.6574   -0.6537 C   0  0  0  0  0  0  0  0  0  0  0  0
   -1.3192   -2.8090   -0.7003 C   0  0  0  0  0  0  0  0  0  0  0  0
   -0.2455   -2.7305   -0.4651 H   0  0  0  0  0  0  0  0  0  0  0  0
   -1.8814   -4.0475   -1.0307 C   0  0  0  0  0  0  0  0  0  0  0  0
   -1.2445   -4.9441   -1.0677 H   0  0  0  0  0  0  0  0  0  0  0  0
   -3.2580   -4.1467   -1.3003 C   0  0  0  0  0  0  0  0  0  0  0  0
   -3.6992   -5.1229   -1.5526 H   0  0  0  0  0  0  0  0  0  0  0  0
   -4.0710   -3.0050   -1.2383 C   0  0  0  0  0  0  0  0  0  0  0  0
   -5.1496   -3.0832   -1.4416 H   0  0  0  0  0  0  0  0  0  0  0  0
   -3.5135   -1.7578   -0.9153 C   0  0  0  0  0  0  0  0  0  0  0  0
   -4.1494   -0.8616   -0.8659 H   0  0  0  0  0  0  0  0  0  0  0  0
   -2.5403    1.2410   -0.5320 C   0  0  0  0  0  0  0  0  0  0  0  0
   -2.8754    1.5870   -1.8605 C   0  0  0  0  0  0  0  0  0  0  0  0
   -2.4246    1.0347   -2.6993 H   0  0  0  0  0  0  0  0  0  0  0  0
   -3.7730    2.6392   -2.0906 C   0  0  0  0  0  0  0  0  0  0  0  0
   -4.0348    2.9187   -3.1226 H   0  0  0  0  0  0  0  0  0  0  0  0
   -4.3420    3.3313   -1.0071 C   0  0  0  0  0  0  0  0  0  0  0  0
   -5.0498    4.1534   -1.1942 H   0  0  0  0  0  0  0  0  0  0  0  0
   -4.0120    2.9773    0.3110 C   0  0  0  0  0  0  0  0  0  0  0  0
   -4.4594    3.5193    1.1578 H   0  0  0  0  0  0  0  0  0  0  0  0
   -3.1051    1.9351    0.5582 C   0  0  0  0  0  0  0  0  0  0  0  0
   -2.8315    1.6375    1.5861 H   0  0  0  0  0  0  0  0  0  0  0  0
  3  2  1  0  0  0  0
  3  1  1  0  0  0  0
  4  3  1  0  0  0  0
  5  4  1  0  0  0  0
  6  4  1  0  0  0  0
  7  1  1  0  0  0  0
  7  8  1  0  0  0  0
  8  9  1  0  0  0  0
 10  8  2  0  0  0  0
 10 11  1  0  0  0  0
 12 10  1  0  0  0  0
 13 12  1  0  0  0  0
 14 16  1  0  0  0  0
 14 12  2  0  0  0  0
 15 14  1  0  0  0  0
 16  7  2  0  0  0  0
 17 16  1  0  0  0  0
 18 27  1  0  0  0  0
 18  1  1  0  0  0  0
 19 18  2  0  0  0  0
 20 19  1  0  0  0  0
 21 23  2  0  0  0  0
 21 19  1  0  0  0  0
 22 21  1  0  0  0  0
 23 25  1  0  0  0  0
 24 23  1  0  0  0  0
 25 26  1  0  0  0  0
 25 27  2  0  0  0  0
 27 28  1  0  0  0  0
 29  2  1  0  0  0  0
 30 29  1  0  0  0  0
 30 31  1  0  0  0  0
 32 30  2  0  0  0  0
 33 32  1  0  0  0  0
 34 36  2  0  0  0  0
 34 32  1  0  0  0  0
 35 34  1  0  0  0  0
 36 38  1  0  0  0  0
 37 36  1  0  0  0  0
 38 39  1  0  0  0  0
 38 29  2  0  0  0  0
 40  2  1  0  0  0  0
 40 49  1  0  0  0  0
 41 40  2  0  0  0  0
 42 41  1  0  0  0  0
 43 41  1  0  0  0  0
 43 45  2  0  0  0  0
 44 43  1  0  0  0  0
 45 47  1  0  0  0  0
 46 45  1  0  0  0  0
 47 49  2  0  0  0  0
 47 48  1  0  0  0  0
 49 50  1  0  0  0  0
M  END
