1,2
q = 0.0, confidence = 0.992

 66 68  0  0  1  0  0  0  0  0999 V2000
   -1.7927   -0.0756   -0.4731 P   0  0  2  0  0  0  0  0  0  0  0  0
    1.7932   -0.0747   -0.4727 P   0  0  2  0  0  0  0  0  0  0  0  0
   -1.4861    1.2926   -1.7395 C   0  0  0  0  0  0  0  0  0  0  0  0
   -0.9376    0.7935   -2.5612 H   0  0  0  0  0  0  0  0  0  0  0  0
   -2.4585    1.6110   -2.1614 H   0  0  0  0  0  0  0  0  0  0  0  0
   -0.7115    2.4800   -1.2363 C   0  0  0  0  0  0  0  0  0  0  0  0
   -1.3931    3.6258   -0.7795 C   0  0  0  0  0  0  0  0  0  0  0  0
   -2.4930    3.6300   -0.7877 H   0  0  0  0  0  0  0  0  0  0  0  0
   -0.7027    4.7529   -0.3177 C   0  0  0  0  0  0  0  0  0  0  0  0
   -1.2607    5.6305    0.0412 H   0  0  0  0  0  0  0  0  0  0  0  0
    0.6993    4.7534   -0.3166 C   0  0  0  0  0  0  0  0  0  0  0  0
    1.2562    5.6313    0.0433 H   0  0  0  0  0  0  0  0  0  0  0  0
    1.3911    3.6267   -0.7774 C   0  0  0  0  0  0  0  0  0  0  0  0
    2.4910    3.6316   -0.7841 H   0  0  0  0  0  0  0  0  0  0  0  0
    0.7109    2.4806   -1.2355 C   0  0  0  0  0  0  0  0  0  0  0  0
    1.4870    1.2942   -1.7384 C   0  0  0  0  0  0  0  0  0  0  0  0
    2.4596    1.6136   -2.1590 H   0  0  0  0  0  0  0  0  0  0  0  0
    0.9398    0.7953   -2.5611 H   0  0  0  0  0  0  0  0  0  0  0  0
   -2.5533   -1.4414   -1.6039 C   0  0  0  0  0  0  0  0  0  0  0  0
   -2.3768   -2.8243   -0.9732 C   0  0  0  0  0  0  0  0  0  0  0  0
   -3.0108   -3.5703   -1.4970 H   0  0  0  0  0  0  0  0  0  0  0  0
   -2.6310   -2.8578    0.1019 H   0  0  0  0  0  0  0  0  0  0  0  0
   -1.3241   -3.1545   -1.0665 H   0  0  0  0  0  0  0  0  0  0  0  0
   -2.1021   -1.4981   -3.0615 C   0  0  0  0  0  0  0  0  0  0  0  0
   -1.0298   -1.7711   -3.1451 H   0  0  0  0  0  0  0  0  0  0  0  0
   -2.2613   -0.5450   -3.6019 H   0  0  0  0  0  0  0  0  0  0  0  0
   -2.6779   -2.2804   -3.6014 H   0  0  0  0  0  0  0  0  0  0  0  0
   -3.9654   -0.7934   -1.4002 C   0  0  1  0  0  0  0  0  0  0  0  0
   -4.1068   -0.0804   -2.2420 H   0  0  0  0  0  0  0  0  0  0  0  0
   -5.1752   -1.7235   -1.3816 C   0  0  0  0  0  0  0  0  0  0  0  0
   -5.2680   -2.2695   -2.3429 H   0  0  0  0  0  0  0  0  0  0  0  0
   -6.1139   -1.1502   -1.2371 H   0  0  0  0  0  0  0  0  0  0  0  0
   -5.1149   -2.4770   -0.5724 H   0  0  0  0  0  0  0  0  0  0  0  0
   -3.6869    0.0720   -0.1238 C   0  0  0  0  0  0  0  0  0  0  0  0
   -4.0632   -0.6085    1.1938 C   0  0  0  0  0  0  0  0  0  0  0  0
   -3.7947    0.0327    2.0530 H   0  0  0  0  0  0  0  0  0  0  0  0
   -3.5700   -1.5856    1.3491 H   0  0  0  0  0  0  0  0  0  0  0  0
   -5.1606   -0.7726    1.2309 H   0  0  0  0  0  0  0  0  0  0  0  0
   -4.3107    1.4653   -0.1492 C   0  0  0  0  0  0  0  0  0  0  0  0
   -5.4106    1.3852   -0.0114 H   0  0  0  0  0  0  0  0  0  0  0  0
   -4.1435    1.9969   -1.1063 H   0  0  0  0  0  0  0  0  0  0  0  0
   -3.9191    2.0960    0.6747 H   0  0  0  0  0  0  0  0  0  0  0  0
    3.6874    0.0726   -0.1231 C   0  0  0  0  0  0  0  0  0  0  0  0
    4.0636   -0.6090    1.1939 C   0  0  0  0  0  0  0  0  0  0  0  0
    5.1610   -0.7741    1.2305 H   0  0  0  0  0  0  0  0  0  0  0  0
    3.5697   -1.5858    1.3489 H   0  0  0  0  0  0  0  0  0  0  0  0
    3.7962    0.0318    2.0537 H   0  0  0  0  0  0  0  0  0  0  0  0
    4.3110    1.4660   -0.1472 C   0  0  0  0  0  0  0  0  0  0  0  0
    3.9190    2.0960    0.6772 H   0  0  0  0  0  0  0  0  0  0  0  0
    4.1440    1.9984   -1.1038 H   0  0  0  0  0  0  0  0  0  0  0  0
    5.4109    1.3860   -0.0090 H   0  0  0  0  0  0  0  0  0  0  0  0
    3.9660   -0.7917   -1.4002 C   0  0  1  0  0  0  0  0  0  0  0  0
    4.1072   -0.0780   -2.2414 H   0  0  0  0  0  0  0  0  0  0  0  0
    5.1760   -1.7216   -1.3825 C   0  0  0  0  0  0  0  0  0  0  0  0
    5.1159   -2.4758   -0.5739 H   0  0  0  0  0  0  0  0  0  0  0  0
    6.1146   -1.1483   -1.2375 H   0  0  0  0  0  0  0  0  0  0  0  0
    5.2688   -2.2668   -2.3443 H   0  0  0  0  0  0  0  0  0  0  0  0
    2.5540   -1.4398   -1.6043 C   0  0  0  0  0  0  0  0  0  0  0  0
    2.3778   -2.8232   -0.9746 C   0  0  0  0  0  0  0  0  0  0  0  0
    1.3252   -3.1536   -1.0682 H   0  0  0  0  0  0  0  0  0  0  0  0
    2.6320   -2.8575    0.1004 H   0  0  0  0  0  0  0  0  0  0  0  0
    3.0119   -3.5687   -1.4990 H   0  0  0  0  0  0  0  0  0  0  0  0
    2.1029   -1.4957   -3.0620 C   0  0  0  0  0  0  0  0  0  0  0  0
    2.6786   -2.2778   -3.6022 H   0  0  0  0  0  0  0  0  0  0  0  0
    2.2622   -0.5423   -3.6019 H   0  0  0  0  0  0  0  0  0  0  0  0
    1.0305   -1.7685   -3.1457 H   0  0  0  0  0  0  0  0  0  0  0  0
  1  3  1  6  0  0  0
  1 34  1  0  0  0  0
  2 16  1  6  0  0  0
  2 43  1  0  0  0  0
  3  6  1  0  0  0  0
  4  3  1  0  0  0  0
  5  3  1  0  0  0  0
  6 15  2  0  0  0  0
  6  7  1  0  0  0  0
  7  9  2  0  0  0  0
  8  7  1  0  0  0  0
  9 11  1  0  0  0  0
  9 10  1  0  0  0  0
 11 12  1  0  0  0  0
 13 11  2  0  0  0  0
 14 13  1  0  0  0  0
 15 13  1  0  0  0  0
 16 15  1  0  0  0  0
 17 16  1  0  0  0  0
 18 16  1  0  0  0  0
 19 28  1  0  0  0  0
 19 20  1  0  0  0  0
 19  1  1  0  0  0  0
 20 22  1  0  0  0  0
 21 20  1  0  0  0  0
 23 20  1  0  0  0  0
 24 19  1  0  0  0  0
 25 24  1  0  0  0  0
 26 24  1  0  0  0  0
 27 24  1  0  0  0  0
 28 29  1  6  0  0  0
 28 30  1  0  0  0  0
 28 34  1  0  0  0  0
 30 32  1  0  0  0  0
 30 33  1  0  0  0  0
 31 30  1  0  0  0  0
 34 35  1  0  0  0  0
 35 38  1  0  0  0  0
 35 37  1  0  0  0  0
 35 36  1  0  0  0  0
 39 34  1  0  0  0  0
 39 40  1  0  0  0  0
 39 42  1  0  0  0  0
 41 39  1  0  0  0  0
 43 44  1  0  0  0  0
 44 45  1  0  0  0  0
 44 46  1  0  0  0  0
 44 47  1  0  0  0  0
 48 43  1  0  0  0  0
 48 51  1  0  0  0  0
 48 49  1  0  0  0  0
 50 48  1  0  0  0  0
 52 53  1  6  0  0  0
 52 54  1  0  0  0  0
 52 43  1  0  0  0  0
 54 56  1  0  0  0  0
 54 55  1  0  0  0  0
 57 54  1  0  0  0  0
 58 52  1  0  0  0  0
 58 59  1  0  0  0  0
 58  2  1  0  0  0  0
 59 61  1  0  0  0  0
 60 59  1  0  0  0  0
 62 59  1  0  0  0  0
 63 58  1  0  0  0  0
 64 63  1  0  0  0  0
 65 63  1  0  0  0  0
 66 63  1  0  0  0  0
M  END
