1,2
q = 0.0, confidence = 0.99

 59 64  0  0  1  0  0  0  0  0999 V2000
   -1.6783    0.0662    0.4151 P   0  0  0  0  0  0  0  0  0  0  0  0
    1.7564   -0.0146    0.2431 P   0  0  0  0  0  0  0  0  0  0  0  0
   -2.9344   -1.2712    0.3692 C   0  0  0  0  0  0  0  0  0  0  0  0
   -4.1294   -1.1389    1.1063 C   0  0  0  0  0  0  0  0  0  0  0  0
   -4.3474   -0.2023    1.6429 H   0  0  0  0  0  0  0  0  0  0  0  0
   -5.0499   -2.1962    1.1450 C   0  0  0  0  0  0  0  0  0  0  0  0
   -5.9845   -2.0864    1.7157 H   0  0  0  0  0  0  0  0  0  0  0  0
   -4.7807   -3.3888    0.4532 C   0  0  0  0  0  0  0  0  0  0  0  0
   -5.5053   -4.2167    0.4824 H   0  0  0  0  0  0  0  0  0  0  0  0
   -3.5921   -3.5204   -0.2820 C   0  0  0  0  0  0  0  0  0  0  0  0
   -3.3841   -4.4489   -0.8347 H   0  0  0  0  0  0  0  0  0  0  0  0
   -2.6696   -2.4644   -0.3291 C   0  0  0  0  0  0  0  0  0  0  0  0
   -1.7481   -2.5448   -0.9245 H   0  0  0  0  0  0  0  0  0  0  0  0
   -2.6218    1.6273    0.2029 C   0  0  0  0  0  0  0  0  0  0  0  0
   -3.7352    1.6710   -0.6614 C   0  0  0  0  0  0  0  0  0  0  0  0
   -4.0510    0.7593   -1.1869 H   0  0  0  0  0  0  0  0  0  0  0  0
   -4.4130    2.8808   -0.8672 C   0  0  0  0  0  0  0  0  0  0  0  0
   -5.2816    2.9062   -1.5425 H   0  0  0  0  0  0  0  0  0  0  0  0
   -3.9829    4.0545   -0.2282 C   0  0  0  0  0  0  0  0  0  0  0  0
   -4.5165    5.0022   -0.3964 H   0  0  0  0  0  0  0  0  0  0  0  0
   -2.8639    4.0186    0.6181 C   0  0  0  0  0  0  0  0  0  0  0  0
   -2.5128    4.9364    1.1133 H   0  0  0  0  0  0  0  0  0  0  0  0
   -2.1832    2.8109    0.8310 C   0  0  0  0  0  0  0  0  0  0  0  0
   -1.2970    2.8039    1.4824 H   0  0  0  0  0  0  0  0  0  0  0  0
   -1.2410    0.0975    2.2426 C   0  0  1  0  0  0  0  0  0  0  0  0
   -1.9965    0.7552    2.7158 H   0  0  0  0  0  0  0  0  0  0  0  0
   -1.2083   -1.2702    2.9856 C   0  0  0  0  0  0  0  0  0  0  0  0
   -1.2318   -2.1464    2.3094 H   0  0  0  0  0  0  0  0  0  0  0  0
   -2.0597   -1.3605    3.6863 H   0  0  0  0  0  0  0  0  0  0  0  0
    0.1614   -1.1486    3.7526 C   0  0  1  0  0  0  0  0  0  0  0  0
    0.2353   -1.7151    4.6979 H   0  0  0  0  0  0  0  0  0  0  0  0
    1.2151   -1.3765    2.6831 C   0  0  0  0  0  3  0  0  0  0  0  0
    1.7213   -2.3231    2.4490 H   0  0  0  0  0  0  0  0  0  0  0  0
    1.2054   -0.2425    1.9414 C   0  0  2  0  0  3  0  0  0  0  0  0
    0.1732    0.6603    2.6243 C   0  0  2  0  0  0  0  0  0  0  0  0
    0.3072    1.7514    2.5153 H   0  0  0  0  0  0  0  0  0  0  0  0
    2.6706    1.5739    0.2895 C   0  0  0  0  0  0  0  0  0  0  0  0
    3.1634    2.0676    1.5169 C   0  0  0  0  0  0  0  0  0  0  0  0
    3.0002    1.4975    2.4456 H   0  0  0  0  0  0  0  0  0  0  0  0
    3.8604    3.2850    1.5520 C   0  0  0  0  0  0  0  0  0  0  0  0
    4.2418    3.6682    2.5107 H   0  0  0  0  0  0  0  0  0  0  0  0
    4.0678    4.0099    0.3677 C   0  0  0  0  0  0  0  0  0  0  0  0
    4.6122    4.9662    0.3973 H   0  0  0  0  0  0  0  0  0  0  0  0
    3.5781    3.5167   -0.8531 C   0  0  0  0  0  0  0  0  0  0  0  0
    3.7387    4.0845   -1.7820 H   0  0  0  0  0  0  0  0  0  0  0  0
    2.8777    2.3028   -0.8996 C   0  0  0  0  0  0  0  0  0  0  0  0
    2.4915    1.9004   -1.8504 H   0  0  0  0  0  0  0  0  0  0  0  0
    2.9872   -1.3530    0.0218 C   0  0  0  0  0  0  0  0  0  0  0  0
    2.5679   -2.5757   -0.5388 C   0  0  0  0  0  0  0  0  0  0  0  0
    1.5379   -2.6699   -0.9153 H   0  0  0  0  0  0  0  0  0  0  0  0
    3.4715   -3.6431   -0.6343 C   0  0  0  0  0  0  0  0  0  0  0  0
    3.1447   -4.5954   -1.0784 H   0  0  0  0  0  0  0  0  0  0  0  0
    4.7933   -3.4912   -0.1837 C   0  0  0  0  0  0  0  0  0  0  0  0
    5.5035   -4.3277   -0.2698 H   0  0  0  0  0  0  0  0  0  0  0  0
    5.2127   -2.2690    0.3654 C   0  0  0  0  0  0  0  0  0  0  0  0
    6.2505   -2.1447    0.7100 H   0  0  0  0  0  0  0  0  0  0  0  0
    4.3120   -1.1983    0.4715 C   0  0  0  0  0  0  0  0  0  0  0  0
    4.6428   -0.2380    0.8955 H   0  0  0  0  0  0  0  0  0  0  0  0
    0.2624    0.2641    3.9925 O   0  0  0  0  0  0  0  0  0  0  0  0
  1 25  1  0  0  0  0
  2 37  1  0  0  0  0
  3  1  1  0  0  0  0
  3  4  1  0  0  0  0
  4  6  2  0  0  0  0
  4  5  1  0  0  0  0
  6  7  1  0  0  0  0
  8  9  1  0  0  0  0
  8  6  1  0  0  0  0
 10  8  2  0  0  0  0
 11 10  1  0  0  0  0
 12 10  1  0  0  0  0
 12  3  2  0  0  0  0
 13 12  1  0  0  0  0
 14  1  1  0  0  0  0
 14 23  1  0  0  0  0
 15 14  2  0  0  0  0
 16 15  1  0  0  0  0
 17 15  1  0  0  0  0
 17 19  2  0  0  0  0
 18 17  1  0  0  0  0
 19 21  1  0  0  0  0
 20 19  1  0  0  0  0
 21 23  2  0  0  0  0
 21 22  1  0  0  0  0
 23 24  1  0  0  0  0
 25 35  1  0  0  0  0
 25 26  1  1  0  0  0
 25 27  1  0  0  0  0
 27 29  1  0  0  0  0
 27 30  1  0  0  0  0
 28 27  1  0  0  0  0
 30 59  1  0  0  0  0
 30 31  1  1  0  0  0
 32 30  1  0  0  0  0
 33 32  1  0  0  0  0
 34  2  1  6  0  0  0
 34 35  1  0  0  0  0
 34 32  1  0  0  0  0
 35 36  1  6  0  0  0
 35 59  1  0  0  0  0
 37 38  1  0  0  0  0
 38 40  2  0  0  0  0
 38 39  1  0  0  0  0
 40 41  1  0  0  0  0
 42 43  1  0  0  0  0
 42 40  1  0  0  0  0
 44 42  2  0  0  0  0
 45 44  1  0  0  0  0
 46 44  1  0  0  0  0
 46 37  2  0  0  0  0
 47 46  1  0  0  0  0
 48  2  1  0  0  0  0
 48 57  1  0  0  0  0
 49 48  2  0  0  0  0
 50 49  1  0  0  0  0
 51 49  1  0  0  0  0
 51 53  2  0  0  0  0
 52 51  1  0  0  0  0
 53 55  1  0  0  0  0
 54 53  1  0  0  0  0
 55 57  2  0  0  0  0
 55 56  1  0  0  0  0
 57 58  1  0  0  0  0
M  END
