1,2
q = 0.0, confidence = 0.982

 73 76  0  0  0  0  0  0  0  0999 V2000
   -1.2438   -0.0649   -0.1268 P   0  0  0  0  0  0  0  0  0  0  0  0
    1.3880    0.1951   -0.2896 P   0  0  0  0  0  0  0  0  0  0  0  0
   -0.0172    0.1938   -1.5253 C   0  0  0  0  0  0  0  0  0  0  0  0
   -2.3236   -1.5554   -0.4680 C   0  0  0  0  0  0  0  0  0  0  0  0
   -2.3917   -1.9672   -1.9476 C   0  0  0  0  0  0  0  0  0  0  0  0
   -3.3658   -3.1397   -2.1425 C   0  0  0  0  0  0  0  0  0  0  0  0
   -2.9967   -4.3317   -1.2505 C   0  0  0  0  0  0  0  0  0  0  0  0
   -2.9030   -3.9177    0.2236 C   0  0  0  0  0  0  0  0  0  0  0  0
   -1.9364   -2.7455    0.4284 C   0  0  0  0  0  0  0  0  0  0  0  0
   -2.3565    1.4277   -0.1956 C   0  0  0  0  0  0  0  0  0  0  0  0
   -3.1123    1.5817   -1.5263 C   0  0  0  0  0  0  0  0  0  0  0  0
   -3.9109    2.8949   -1.5480 C   0  0  0  0  0  0  0  0  0  0  0  0
   -4.8633    2.9942   -0.3496 C   0  0  0  0  0  0  0  0  0  0  0  0
   -4.1141    2.8115    0.9763 C   0  0  0  0  0  0  0  0  0  0  0  0
   -3.3143    1.5024    1.0050 C   0  0  0  0  0  0  0  0  0  0  0  0
    2.5644   -1.1402   -0.8360 C   0  0  0  0  0  0  0  0  0  0  0  0
    3.9356   -1.0311   -0.1449 C   0  0  0  0  0  0  0  0  0  0  0  0
    4.8492   -2.2022   -0.5329 C   0  0  0  0  0  0  0  0  0  0  0  0
    4.1929   -3.5556   -0.2368 C   0  0  0  0  0  0  0  0  0  0  0  0
    2.8362   -3.6715   -0.9407 C   0  0  0  0  0  0  0  0  0  0  0  0
    1.9116   -2.5086   -0.5607 C   0  0  0  0  0  0  0  0  0  0  0  0
    2.2662    1.8195   -0.3869 C   0  0  0  0  0  0  0  0  0  0  0  0
    1.3663    2.9379    0.1669 C   0  0  0  0  0  0  0  0  0  0  0  0
    2.1015    4.2837    0.1710 C   0  0  0  0  0  0  0  0  0  0  0  0
    2.6472    4.6308   -1.2201 C   0  0  0  0  0  0  0  0  0  0  0  0
    3.5486    3.5137   -1.7611 C   0  0  0  0  0  0  0  0  0  0  0  0
    2.8261    2.1568   -1.7758 C   0  0  0  0  0  0  0  0  0  0  0  0
   -0.1558    1.1486   -2.0727 H   0  0  0  0  0  0  0  0  0  0  0  0
    0.0374   -0.6330   -2.2606 H   0  0  0  0  0  0  0  0  0  0  0  0
   -3.3342   -1.2079   -0.1513 H   0  0  0  0  0  0  0  0  0  0  0  0
   -1.3794   -2.2882   -2.2817 H   0  0  0  0  0  0  0  0  0  0  0  0
   -2.6795   -1.1105   -2.5914 H   0  0  0  0  0  0  0  0  0  0  0  0
   -3.3843   -3.4393   -3.2115 H   0  0  0  0  0  0  0  0  0  0  0  0
   -4.3962   -2.7984   -1.8950 H   0  0  0  0  0  0  0  0  0  0  0  0
   -2.0129   -4.7381   -1.5784 H   0  0  0  0  0  0  0  0  0  0  0  0
   -3.7322   -5.1528   -1.3819 H   0  0  0  0  0  0  0  0  0  0  0  0
   -2.5898   -4.7773    0.8518 H   0  0  0  0  0  0  0  0  0  0  0  0
   -3.9132   -3.6211    0.5864 H   0  0  0  0  0  0  0  0  0  0  0  0
   -1.9088   -2.4156    1.4867 H   0  0  0  0  0  0  0  0  0  0  0  0
   -0.9014   -3.0652    0.1757 H   0  0  0  0  0  0  0  0  0  0  0  0
   -1.6291    2.2669   -0.1010 H   0  0  0  0  0  0  0  0  0  0  0  0
   -3.8159    0.7282   -1.6458 H   0  0  0  0  0  0  0  0  0  0  0  0
   -2.4154    1.5418   -2.3905 H   0  0  0  0  0  0  0  0  0  0  0  0
   -4.4705    2.9806   -2.5031 H   0  0  0  0  0  0  0  0  0  0  0  0
   -3.1983    3.7500   -1.5240 H   0  0  0  0  0  0  0  0  0  0  0  0
   -5.6425    2.2038   -0.4399 H   0  0  0  0  0  0  0  0  0  0  0  0
   -5.4016    3.9649   -0.3654 H   0  0  0  0  0  0  0  0  0  0  0  0
   -4.8213    2.8372    1.8311 H   0  0  0  0  0  0  0  0  0  0  0  0
   -3.4155    3.6655    1.1253 H   0  0  0  0  0  0  0  0  0  0  0  0
   -2.7465    1.3807    1.9494 H   0  0  0  0  0  0  0  0  0  0  0  0
   -4.0195    0.6416    0.9645 H   0  0  0  0  0  0  0  0  0  0  0  0
    2.6888   -1.0051   -1.9364 H   0  0  0  0  0  0  0  0  0  0  0  0
    3.7699   -1.0114    0.9541 H   0  0  0  0  0  0  0  0  0  0  0  0
    4.4245   -0.0699   -0.4068 H   0  0  0  0  0  0  0  0  0  0  0  0
    5.8152   -2.1114    0.0059 H   0  0  0  0  0  0  0  0  0  0  0  0
    5.0892   -2.1418   -1.6192 H   0  0  0  0  0  0  0  0  0  0  0  0
    4.0428   -3.6554    0.8610 H   0  0  0  0  0  0  0  0  0  0  0  0
    4.8612   -4.3876   -0.5423 H   0  0  0  0  0  0  0  0  0  0  0  0
    2.3443   -4.6348   -0.6913 H   0  0  0  0  0  0  0  0  0  0  0  0
    2.9916   -3.6737   -2.0435 H   0  0  0  0  0  0  0  0  0  0  0  0
    0.9460   -2.5952   -1.1029 H   0  0  0  0  0  0  0  0  0  0  0  0
    1.6672   -2.5523    0.5238 H   0  0  0  0  0  0  0  0  0  0  0  0
    3.0964    1.6770    0.3411 H   0  0  0  0  0  0  0  0  0  0  0  0
    1.0320    2.6544    1.1862 H   0  0  0  0  0  0  0  0  0  0  0  0
    0.4521    3.0268   -0.4645 H   0  0  0  0  0  0  0  0  0  0  0  0
    2.9437    4.2299    0.8961 H   0  0  0  0  0  0  0  0  0  0  0  0
    1.4247    5.0833    0.5375 H   0  0  0  0  0  0  0  0  0  0  0  0
    3.2011    5.5923   -1.1923 H   0  0  0  0  0  0  0  0  0  0  0  0
    1.7943    4.7823   -1.9205 H   0  0  0  0  0  0  0  0  0  0  0  0
    4.4537    3.4307   -1.1191 H   0  0  0  0  0  0  0  0  0  0  0  0
    3.9095    3.7604   -2.7816 H   0  0  0  0  0  0  0  0  0  0  0  0
    1.9892    2.1971   -2.5097 H   0  0  0  0  0  0  0  0  0  0  0  0
    3.5148    1.3603   -2.1275 H   0  0  0  0  0  0  0  0  0  0  0  0
  3  2  1  0  0  0  0
  3  1  1  0  0  0  0
  4 30  1  0  0  0  0
  4  1  1  0  0  0  0
  4  9  1  0  0  0  0
  5  4  1  0  0  0  0
  6  5  1  0  0  0  0
  6 34  1  0  0  0  0
  6  7  1  0  0  0  0
  7  8  1  0  0  0  0
  8  9  1  0  0  0  0
  8 38  1  0  0  0  0
  8 37  1  0  0  0  0
  9 39  1  0  0  0  0
 10  1  1  0  0  0  0
 10 41  1  0  0  0  0
 10 15  1  0  0  0  0
 11 10  1  0  0  0  0
 12 11  1  0  0  0  0
 12 45  1  0  0  0  0
 12 13  1  0  0  0  0
 13 14  1  0  0  0  0
 14 15  1  0  0  0  0
 14 49  1  0  0  0  0
 14 48  1  0  0  0  0
 15 50  1  0  0  0  0
 16 21  1  0  0  0  0
 16  2  1  0  0  0  0
 16 17  1  0  0  0  0
 17 53  1  0  0  0  0
 18 19  1  0  0  0  0
 18 17  1  0  0  0  0
 18 55  1  0  0  0  0
 19 57  1  0  0  0  0
 20 59  1  0  0  0  0
 20 21  1  0  0  0  0
 20 19  1  0  0  0  0
 21 62  1  0  0  0  0
 22  2  1  0  0  0  0
 22 23  1  0  0  0  0
 22 63  1  0  0  0  0
 23 24  1  0  0  0  0
 23 64  1  0  0  0  0
 24 67  1  0  0  0  0
 24 66  1  0  0  0  0
 25 68  1  0  0  0  0
 25 24  1  0  0  0  0
 26 25  1  0  0  0  0
 26 70  1  0  0  0  0
 27 26  1  0  0  0  0
 27 22  1  0  0  0  0
 28  3  1  0  0  0  0
 29  3  1  0  0  0  0
 31  5  1  0  0  0  0
 32  5  1  0  0  0  0
 33  6  1  0  0  0  0
 35  7  1  0  0  0  0
 36  7  1  0  0  0  0
 40  9  1  0  0  0  0
 42 11  1  0  0  0  0
 43 11  1  0  0  0  0
 44 12  1  0  0  0  0
 46 13  1  0  0  0  0
 47 13  1  0  0  0  0
 51 15  1  0  0  0  0
 52 16  1  0  0  0  0
 54 17  1  0  0  0  0
 56 18  1  0  0  0  0
 58 19  1  0  0  0  0
 60 20  1  0  0  0  0
 61 21  1  0  0  0  0
 65 23  1  0  0  0  0
 69 25  1  0  0  0  0
 71 26  1  0  0  0  0
 72 27  1  0  0  0  0
 73 27  1  0  0  0  0
M  END
