1,2
q = 0.0, confidence = 0.996

 56 59  0  0  0  0  0  0  0  0999 V2000
   -1.7082   -0.1329   -0.4747 P   0  0  0  0  0  0  0  0  0  0  0  0
    1.7042   -0.1097   -0.5062 P   0  0  0  0  0  0  0  0  0  0  0  0
   -2.4267    1.5171   -0.0911 C   0  0  0  0  0  0  0  0  0  0  0  0
   -2.3469    1.9919    1.2357 C   0  0  0  0  0  0  0  0  0  0  0  0
   -1.8871    1.3530    2.0071 H   0  0  0  0  0  0  0  0  0  0  0  0
   -2.8821    3.2452    1.5663 C   0  0  0  0  0  0  0  0  0  0  0  0
   -2.8156    3.6032    2.6049 H   0  0  0  0  0  0  0  0  0  0  0  0
   -3.4991    4.0366    0.5850 C   0  0  0  0  0  0  0  0  0  0  0  0
   -3.9136    5.0218    0.8477 H   0  0  0  0  0  0  0  0  0  0  0  0
   -3.5897    3.5656   -0.7339 C   0  0  0  0  0  0  0  0  0  0  0  0
   -4.0773    4.1768   -1.5086 H   0  0  0  0  0  0  0  0  0  0  0  0
   -3.0568    2.3125   -1.0719 C   0  0  0  0  0  0  0  0  0  0  0  0
   -3.1435    1.9626   -2.1106 H   0  0  0  0  0  0  0  0  0  0  0  0
   -3.0972   -1.3305   -0.5023 C   0  0  0  0  0  0  0  0  0  0  0  0
   -4.4286   -0.9254   -0.7099 C   0  0  0  0  0  0  0  0  0  0  0  0
   -4.6764    0.1440   -0.7853 H   0  0  0  0  0  0  0  0  0  0  0  0
   -5.4455   -1.8893   -0.7982 C   0  0  0  0  0  0  0  0  0  0  0  0
   -6.4874   -1.5689   -0.9507 H   0  0  0  0  0  0  0  0  0  0  0  0
   -5.1371   -3.2533   -0.6831 C   0  0  0  0  0  0  0  0  0  0  0  0
   -5.9374   -4.0060   -0.7477 H   0  0  0  0  0  0  0  0  0  0  0  0
   -3.8083   -3.6569   -0.4697 C   0  0  0  0  0  0  0  0  0  0  0  0
   -3.5656   -4.7245   -0.3592 H   0  0  0  0  0  0  0  0  0  0  0  0
   -2.7899   -2.7000   -0.3715 C   0  0  0  0  0  0  0  0  0  0  0  0
   -1.7528   -3.0062   -0.1630 H   0  0  0  0  0  0  0  0  0  0  0  0
    3.1136   -1.2806   -0.5171 C   0  0  0  0  0  0  0  0  0  0  0  0
    2.8894   -2.5868   -0.9976 C   0  0  0  0  0  0  0  0  0  0  0  0
    1.8871   -2.8850   -1.3447 H   0  0  0  0  0  0  0  0  0  0  0  0
    3.9308   -3.5245   -1.0015 C   0  0  0  0  0  0  0  0  0  0  0  0
    3.7471   -4.5432   -1.3747 H   0  0  0  0  0  0  0  0  0  0  0  0
    5.1992   -3.1678   -0.5159 C   0  0  0  0  0  0  0  0  0  0  0  0
    6.0159   -3.9054   -0.5142 H   0  0  0  0  0  0  0  0  0  0  0  0
    5.4181   -1.8744   -0.0168 C   0  0  0  0  0  0  0  0  0  0  0  0
    6.4048   -1.5971    0.3840 H   0  0  0  0  0  0  0  0  0  0  0  0
    4.3794   -0.9319   -0.0097 C   0  0  0  0  0  0  0  0  0  0  0  0
    4.5462    0.0714    0.4069 H   0  0  0  0  0  0  0  0  0  0  0  0
    2.3823    1.5638   -0.1898 C   0  0  0  0  0  0  0  0  0  0  0  0
    3.3669    2.1225   -1.0323 C   0  0  0  0  0  0  0  0  0  0  0  0
    3.7813    1.5390   -1.8693 H   0  0  0  0  0  0  0  0  0  0  0  0
    3.8383    3.4221   -0.7983 C   0  0  0  0  0  0  0  0  0  0  0  0
    4.6097    3.8506   -1.4560 H   0  0  0  0  0  0  0  0  0  0  0  0
    3.3276    4.1725    0.2742 C   0  0  0  0  0  0  0  0  0  0  0  0
    3.6966    5.1936    0.4549 H   0  0  0  0  0  0  0  0  0  0  0  0
    2.3522    3.6176    1.1164 C   0  0  0  0  0  0  0  0  0  0  0  0
    1.9540    4.1993    1.9612 H   0  0  0  0  0  0  0  0  0  0  0  0
    1.8809    2.3157    0.8903 C   0  0  0  0  0  0  0  0  0  0  0  0
    1.1318    1.8636    1.5580 H   0  0  0  0  0  0  0  0  0  0  0  0
   -1.2805   -0.0485   -2.2970 C   0  0  0  0  0  0  0  0  0  0  0  0
   -1.1845   -1.1119   -2.6001 H   0  0  0  0  0  0  0  0  0  0  0  0
   -2.1518    0.3646   -2.8412 H   0  0  0  0  0  0  0  0  0  0  0  0
   -0.0126    0.7151   -2.5777 C   0  0  0  0  0  0  0  0  0  0  0  0
    1.2654   -0.0387   -2.3272 C   0  0  0  0  0  0  0  0  0  0  0  0
    2.1241    0.4155   -2.8584 H   0  0  0  0  0  0  0  0  0  0  0  0
    1.1827   -1.0928   -2.6627 H   0  0  0  0  0  0  0  0  0  0  0  0
   -0.0094    2.0067   -2.9729 C   0  0  0  0  0  0  0  0  0  0  0  0
   -0.9446    2.5646   -3.1286 H   0  0  0  0  0  0  0  0  0  0  0  0
    0.9354    2.5461   -3.1403 H   0  0  0  0  0  0  0  0  0  0  0  0
  1  3  1  0  0  0  0
  2 36  1  0  0  0  0
  3  4  1  0  0  0  0
  4  6  2  0  0  0  0
  4  5  1  0  0  0  0
  6  7  1  0  0  0  0
  8  9  1  0  0  0  0
  8  6  1  0  0  0  0
 10  8  2  0  0  0  0
 11 10  1  0  0  0  0
 12 10  1  0  0  0  0
 12  3  2  0  0  0  0
 13 12  1  0  0  0  0
 14  1  1  0  0  0  0
 14 23  1  0  0  0  0
 15 14  2  0  0  0  0
 16 15  1  0  0  0  0
 17 15  1  0  0  0  0
 17 19  2  0  0  0  0
 18 17  1  0  0  0  0
 19 21  1  0  0  0  0
 20 19  1  0  0  0  0
 21 23  2  0  0  0  0
 21 22  1  0  0  0  0
 23 24  1  0  0  0  0
 25  2  1  0  0  0  0
 25 34  1  0  0  0  0
 26 25  2  0  0  0  0
 27 26  1  0  0  0  0
 28 26  1  0  0  0  0
 28 30  2  0  0  0  0
 29 28  1  0  0  0  0
 30 31  1  0  0  0  0
 30 32  1  0  0  0  0
 32 34  2  0  0  0  0
 32 33  1  0  0  0  0
 34 35  1  0  0  0  0
 36 45  1  0  0  0  0
 37 39  1  0  0  0  0
 37 36  2  0  0  0  0
 38 37  1  0  0  0  0
 39 41  2  0  0  0  0
 40 39  1  0  0  0  0
 41 42  1  0  0  0  0
 41 43  1  0  0  0  0
 43 44  1  0  0  0  0
 45 43  2  0  0  0  0
 45 46  1  0  0  0  0
 47  1  1  0  0  0  0
 48 47  1  0  0  0  0
 49 47  1  0  0  0  0
 50 51  1  0  0  0  0
 50 47  1  0  0  0  0
 51  2  1  0  0  0  0
 52 51  1  0  0  0  0
 53 51  1  0  0  0  0
 54 50  2  0  0  0  0
 55 54  1  0  0  0  0
 56 54  1  0  0  0  0
M  END
