1,2
q = 0.0, confidence = 0.992

 28 27  0  0  0  0  0  0  0  0999 V2000
   -1.1275    1.9067   -0.0086 P   0  0  0  0  0  0  0  0  0  0  0  0
    1.8072    1.2779   -0.0814 P   0  0  0  0  0  0  0  0  0  0  0  0
   -3.1247    3.4963   -1.0911 O   0  0  0  0  0  0  0  0  0  0  0  0
   -0.5586    2.8576    2.5109 O   0  0  0  0  0  0  0  0  0  0  0  0
    4.3158    0.6810    0.8301 O   0  0  0  0  0  0  0  0  0  0  0  0
    4.0246    2.0931   -1.4951 O   0  0  0  0  0  0  0  0  0  0  0  0
   -0.0301    3.2458   -0.7065 C   0  0  0  0  0  0  0  0  0  0  0  0
    1.3498    3.0911   -0.0769 C   0  0  0  0  0  0  0  0  0  0  0  0
   -2.6807    2.1527   -1.0325 C   0  0  0  0  0  0  0  0  0  0  0  0
   -1.6432    2.6315    1.6522 C   0  0  0  0  0  0  0  0  0  0  0  0
    3.0960    1.2697    1.2985 C   0  0  0  0  0  0  0  0  0  0  0  0
    2.9550    1.1874   -1.5724 C   0  0  0  0  0  0  0  0  0  0  0  0
   -3.5759    3.6959   -0.2514 H   0  0  0  0  0  0  0  0  0  0  0  0
   -0.2075    1.9520    2.7193 H   0  0  0  0  0  0  0  0  0  0  0  0
    4.8906    0.5209    1.6010 H   0  0  0  0  0  0  0  0  0  0  0  0
    4.5729    1.7637   -0.7484 H   0  0  0  0  0  0  0  0  0  0  0  0
   -0.4846    4.2412   -0.5339 H   0  0  0  0  0  0  0  0  0  0  0  0
   -0.0016    3.0691   -1.8021 H   0  0  0  0  0  0  0  0  0  0  0  0
    1.3045    3.4038    0.9863 H   0  0  0  0  0  0  0  0  0  0  0  0
    2.1552    3.6530   -0.5944 H   0  0  0  0  0  0  0  0  0  0  0  0
   -2.3900    1.8439   -2.0580 H   0  0  0  0  0  0  0  0  0  0  0  0
   -3.4613    1.4392   -0.6822 H   0  0  0  0  0  0  0  0  0  0  0  0
   -2.4133    1.9444    2.0841 H   0  0  0  0  0  0  0  0  0  0  0  0
   -2.1343    3.6095    1.4518 H   0  0  0  0  0  0  0  0  0  0  0  0
    3.2567    2.3222    1.6227 H   0  0  0  0  0  0  0  0  0  0  0  0
    2.6469    0.7056    2.1451 H   0  0  0  0  0  0  0  0  0  0  0  0
    3.2770    0.1239   -1.6765 H   0  0  0  0  0  0  0  0  0  0  0  0
    2.3264    1.4193   -2.4552 H   0  0  0  0  0  0  0  0  0  0  0  0
  1 10  1  0  0  0  0
  2  8  1  0  0  0  0
  2 11  1  0  0  0  0
  3  9  1  0  0  0  0
  3 13  1  0  0  0  0
  4 14  1  0  0  0  0
  5 11  1  0  0  0  0
  5 15  1  0  0  0  0
  6 16  1  0  0  0  0
  7 17  1  0  0  0  0
  7  8  1  0  0  0  0
  7  1  1  0  0  0  0
  8 19  1  0  0  0  0
  9 22  1  0  0  0  0
  9  1  1  0  0  0  0
 10 23  1  0  0  0  0
 10  4  1  0  0  0  0
 11 25  1  0  0  0  0
 11 26  1  0  0  0  0
 12  6  1  0  0  0  0
 12  2  1  0  0  0  0
 18  7  1  0  0  0  0
 20  8  1  0  0  0  0
 21  9  1  0  0  0  0
 24 10  1  0  0  0  0
 27 12  1  0  0  0  0
 28 12  1  0  0  0  0
M  END
