1,2
q = 0.0, confidence = 0.986

 53 52  0  0  0  0  0  0  0  0999 V2000
    1.8725    0.3701    0.0604 P   0  0  0  0  0  0  0  0  0  0  0  0
   -1.8725    0.3701   -0.0603 P   0  0  0  0  0  0  0  0  0  0  0  0
    1.7516    2.0474    0.1050 O   0  0  0  0  0  0  0  0  0  0  0  0
   -1.7517    2.0475   -0.1040 O   0  0  0  0  0  0  0  0  0  0  0  0
    0.9499    2.7990   -0.8073 C   0  0  0  0  0  0  0  0  0  0  0  0
    0.3629    2.1268   -1.4708 H   0  0  0  0  0  0  0  0  0  0  0  0
    1.6207    3.4112   -1.4484 H   0  0  0  0  0  0  0  0  0  0  0  0
   -0.0000    3.6714    0.0008 C   0  0  0  0  0  0  0  0  0  0  0  0
   -0.5815    4.3261   -0.6819 H   0  0  0  0  0  0  0  0  0  0  0  0
    0.5815    4.3258    0.6839 H   0  0  0  0  0  0  0  0  0  0  0  0
   -0.9499    2.7986    0.8085 C   0  0  0  0  0  0  0  0  0  0  0  0
   -0.3629    2.1261    1.4717 H   0  0  0  0  0  0  0  0  0  0  0  0
   -1.6207    3.4105    1.4500 H   0  0  0  0  0  0  0  0  0  0  0  0
    2.8404    0.2618    1.6624 C   0  0  0  0  0  0  0  0  0  0  0  0
    3.2466    1.2944    1.7297 H   0  0  0  0  0  0  0  0  0  0  0  0
    3.0394    0.0776   -1.3724 C   0  0  0  0  0  0  0  0  0  0  0  0
    3.4746   -0.9124   -1.1239 H   0  0  0  0  0  0  0  0  0  0  0  0
   -3.0395    0.0769    1.3723 C   0  0  0  0  0  0  0  0  0  0  0  0
   -3.4744   -0.9131    1.1235 H   0  0  0  0  0  0  0  0  0  0  0  0
   -2.8404    0.2626   -1.6623 C   0  0  0  0  0  0  0  0  0  0  0  0
   -3.2472    1.2950   -1.7288 H   0  0  0  0  0  0  0  0  0  0  0  0
    3.9963   -0.7424    1.6777 C   0  0  0  0  0  0  0  0  0  0  0  0
    4.5270   -0.6642    2.6493 H   0  0  0  0  0  0  0  0  0  0  0  0
    4.7380   -0.5499    0.8784 H   0  0  0  0  0  0  0  0  0  0  0  0
    3.6193   -1.7757    1.5596 H   0  0  0  0  0  0  0  0  0  0  0  0
    1.8675    0.0298    2.8264 C   0  0  0  0  0  0  0  0  0  0  0  0
    1.4150   -0.9803    2.7584 H   0  0  0  0  0  0  0  0  0  0  0  0
    1.0453    0.7729    2.8394 H   0  0  0  0  0  0  0  0  0  0  0  0
    2.4090    0.1056    3.7918 H   0  0  0  0  0  0  0  0  0  0  0  0
    4.1328    1.1472   -1.4406 C   0  0  0  0  0  0  0  0  0  0  0  0
    4.8569    0.8874   -2.2403 H   0  0  0  0  0  0  0  0  0  0  0  0
    4.6990    1.2390   -0.4928 H   0  0  0  0  0  0  0  0  0  0  0  0
    3.7147    2.1459   -1.6766 H   0  0  0  0  0  0  0  0  0  0  0  0
    2.2610   -0.0682   -2.6858 C   0  0  0  0  0  0  0  0  0  0  0  0
    1.7476    0.8729   -2.9722 H   0  0  0  0  0  0  0  0  0  0  0  0
    1.5021   -0.8717   -2.6104 H   0  0  0  0  0  0  0  0  0  0  0  0
    2.9580   -0.3291   -3.5088 H   0  0  0  0  0  0  0  0  0  0  0  0
   -2.2613   -0.0690    2.6858 C   0  0  0  0  0  0  0  0  0  0  0  0
   -1.7484    0.8722    2.9725 H   0  0  0  0  0  0  0  0  0  0  0  0
   -1.5020   -0.8721    2.6103 H   0  0  0  0  0  0  0  0  0  0  0  0
   -2.9582   -0.3305    3.5086 H   0  0  0  0  0  0  0  0  0  0  0  0
   -4.1333    1.1462    1.4406 C   0  0  0  0  0  0  0  0  0  0  0  0
   -4.8572    0.8862    2.2404 H   0  0  0  0  0  0  0  0  0  0  0  0
   -4.6996    1.2378    0.4929 H   0  0  0  0  0  0  0  0  0  0  0  0
   -3.7154    2.1451    1.6766 H   0  0  0  0  0  0  0  0  0  0  0  0
   -3.9957   -0.7423   -1.6785 C   0  0  0  0  0  0  0  0  0  0  0  0
   -4.5265   -0.6635   -2.6500 H   0  0  0  0  0  0  0  0  0  0  0  0
   -4.7375   -0.5509   -0.8789 H   0  0  0  0  0  0  0  0  0  0  0  0
   -3.6181   -1.7754   -1.5613 H   0  0  0  0  0  0  0  0  0  0  0  0
   -1.8674    0.0321   -2.8265 C   0  0  0  0  0  0  0  0  0  0  0  0
   -1.4142   -0.9778   -2.7594 H   0  0  0  0  0  0  0  0  0  0  0  0
   -1.0456    0.7758   -2.8389 H   0  0  0  0  0  0  0  0  0  0  0  0
   -2.4089    0.1083   -3.7918 H   0  0  0  0  0  0  0  0  0  0  0  0
  1  3  1  0  0  0  0
  1 14  1  0  0  0  0
  2 18  1  0  0  0  0
  4  2  1  0  0  0  0
  4 11  1  0  0  0  0
  5  8  1  0  0  0  0
  5  3  1  0  0  0  0
  6  5  1  0  0  0  0
  7  5  1  0  0  0  0
  8 10  1  0  0  0  0
  8 11  1  0  0  0  0
  9  8  1  0  0  0  0
 11 13  1  0  0  0  0
 11 12  1  0  0  0  0
 14 22  1  0  0  0  0
 14 15  1  0  0  0  0
 14 26  1  0  0  0  0
 16 17  1  0  0  0  0
 16  1  1  0  0  0  0
 18 42  1  0  0  0  0
 18 38  1  0  0  0  0
 19 18  1  0  0  0  0
 20  2  1  0  0  0  0
 21 20  1  0  0  0  0
 22 23  1  0  0  0  0
 24 22  1  0  0  0  0
 25 22  1  0  0  0  0
 26 28  1  0  0  0  0
 26 29  1  0  0  0  0
 27 26  1  0  0  0  0
 30 16  1  0  0  0  0
 30 32  1  0  0  0  0
 31 30  1  0  0  0  0
 33 30  1  0  0  0  0
 34 36  1  0  0  0  0
 34 16  1  0  0  0  0
 35 34  1  0  0  0  0
 37 34  1  0  0  0  0
 38 39  1  0  0  0  0
 38 41  1  0  0  0  0
 40 38  1  0  0  0  0
 42 45  1  0  0  0  0
 42 43  1  0  0  0  0
 44 42  1  0  0  0  0
 46 20  1  0  0  0  0
 46 49  1  0  0  0  0
 46 48  1  0  0  0  0
 47 46  1  0  0  0  0
 50 51  1  0  0  0  0
 50 20  1  0  0  0  0
 52 50  1  0  0  0  0
 53 50  1  0  0  0  0
M  END
