1,2
q = -1.0

 62 66  0  0  0  0  0  0  0  0999 V2000
   -0.8889    0.9099   -0.7374 P   0  0  0  0  0  2  0  0  0  0  0  0
    1.7081   -0.2677   -0.1066 P   0  0  0  0  0  0  0  0  0  0  0  0
   -2.3295    1.3788    0.0547 N   0  0  0  0  0  0  0  0  0  0  0  0
   -0.0642    2.2652    0.0021 N   0  0  0  0  0  0  0  0  0  0  0  0
   -3.4832    0.5319    0.0203 C   0  0  0  0  0  0  0  0  0  0  0  0
   -4.4044    0.6849   -1.0460 C   0  0  0  0  0  0  0  0  0  0  0  0
   -4.1512    1.7021   -2.1284 C   0  0  0  0  0  0  0  0  0  0  0  0
   -5.5311   -0.1514   -1.0804 C   0  0  0  0  0  0  0  0  0  0  0  0
   -5.7570   -1.1344   -0.0968 C   0  0  0  0  0  0  0  0  0  0  0  0
   -6.9623   -2.0372   -0.1795 C   0  0  0  0  0  0  0  0  0  0  0  0
   -4.8148   -1.2698    0.9365 C   0  0  0  0  0  0  0  0  0  0  0  0
   -3.6688   -0.4566    1.0160 C   0  0  0  0  0  0  0  0  0  0  0  0
   -2.6646   -0.6531    2.1213 C   0  0  0  0  0  0  0  0  0  0  0  0
   -2.1957    2.4715    1.0186 C   0  0  0  0  0  0  0  0  0  0  0  0
   -0.9779    3.2680    0.5431 C   0  0  0  0  0  0  0  0  0  0  0  0
    1.2893    2.5475   -0.2476 C   0  0  0  0  0  0  0  0  0  0  0  0
    1.7231    3.8851   -0.3848 C   0  0  0  0  0  0  0  0  0  0  0  0
    3.0719    4.1848   -0.6190 C   0  0  0  0  0  0  0  0  0  0  0  0
    4.0132    3.1532   -0.7303 C   0  0  0  0  0  0  0  0  0  0  0  0
    3.5970    1.8212   -0.5791 C   0  0  0  0  0  0  0  0  0  0  0  0
    2.2537    1.4912   -0.3242 C   0  0  0  0  0  0  0  0  0  0  0  0
    3.2912   -1.2064   -0.2611 C   0  0  0  0  0  0  0  0  0  0  0  0
    3.6466   -1.7584   -1.5075 C   0  0  0  0  0  0  0  0  0  0  0  0
    4.8577   -2.4514   -1.6540 C   0  0  0  0  0  0  0  0  0  0  0  0
    5.7170   -2.6119   -0.5554 C   0  0  0  0  0  0  0  0  0  0  0  0
    5.3643   -2.0707    0.6914 C   0  0  0  0  0  0  0  0  0  0  0  0
    4.1588   -1.3687    0.8398 C   0  0  0  0  0  0  0  0  0  0  0  0
    1.3795   -0.3594    1.7135 C   0  0  0  0  0  0  0  0  0  0  0  0
    1.4852    0.7482    2.5769 C   0  0  0  0  0  0  0  0  0  0  0  0
    1.1286    0.6273    3.9309 C   0  0  0  0  0  0  0  0  0  0  0  0
    0.6836   -0.6026    4.4383 C   0  0  0  0  0  0  0  0  0  0  0  0
    0.5960   -1.7166    3.5854 C   0  0  0  0  0  0  0  0  0  0  0  0
    0.9292   -1.5936    2.2302 C   0  0  0  0  0  0  0  0  0  0  0  0
   -5.0079    1.7671   -2.8256 H   0  0  0  0  0  0  0  0  0  0  0  0
   -3.2484    1.4346   -2.7178 H   0  0  0  0  0  0  0  0  0  0  0  0
   -3.9625    2.7114   -1.7086 H   0  0  0  0  0  0  0  0  0  0  0  0
   -6.2521   -0.0371   -1.9063 H   0  0  0  0  0  0  0  0  0  0  0  0
   -7.1002   -2.6228    0.7498 H   0  0  0  0  0  0  0  0  0  0  0  0
   -6.8610   -2.7592   -1.0176 H   0  0  0  0  0  0  0  0  0  0  0  0
   -7.8908   -1.4593   -0.3644 H   0  0  0  0  0  0  0  0  0  0  0  0
   -4.9632   -2.0483    1.7022 H   0  0  0  0  0  0  0  0  0  0  0  0
   -2.7211   -1.6806    2.5270 H   0  0  0  0  0  0  0  0  0  0  0  0
   -1.6279   -0.4910    1.7675 H   0  0  0  0  0  0  0  0  0  0  0  0
   -2.8372    0.0470    2.9672 H   0  0  0  0  0  0  0  0  0  0  0  0
   -2.0287    2.0767    2.0474 H   0  0  0  0  0  0  0  0  0  0  0  0
   -3.1140    3.0931    1.0307 H   0  0  0  0  0  0  0  0  0  0  0  0
   -0.4960    3.8150    1.3790 H   0  0  0  0  0  0  0  0  0  0  0  0
   -1.2735    4.0146   -0.2322 H   0  0  0  0  0  0  0  0  0  0  0  0
    0.9902    4.7017   -0.3248 H   0  0  0  0  0  0  0  0  0  0  0  0
    3.3817    5.2356   -0.7248 H   0  0  0  0  0  0  0  0  0  0  0  0
    5.0725    3.3795   -0.9210 H   0  0  0  0  0  0  0  0  0  0  0  0
    4.3391    1.0121   -0.6419 H   0  0  0  0  0  0  0  0  0  0  0  0
    2.9717   -1.6454   -2.3677 H   0  0  0  0  0  0  0  0  0  0  0  0
    5.1256   -2.8767   -2.6331 H   0  0  0  0  0  0  0  0  0  0  0  0
    6.6622   -3.1643   -0.6696 H   0  0  0  0  0  0  0  0  0  0  0  0
    6.0322   -2.1961    1.5575 H   0  0  0  0  0  0  0  0  0  0  0  0
    3.8873   -0.9433    1.8176 H   0  0  0  0  0  0  0  0  0  0  0  0
    1.8564    1.7090    2.1906 H   0  0  0  0  0  0  0  0  0  0  0  0
    1.2078    1.5022    4.5947 H   0  0  0  0  0  0  0  0  0  0  0  0
    0.4073   -0.6958    5.4997 H   0  0  0  0  0  0  0  0  0  0  0  0
    0.2515   -2.6865    3.9756 H   0  0  0  0  0  0  0  0  0  0  0  0
    0.8251   -2.4602    1.5596 H   0  0  0  0  0  0  0  0  0  0  0  0
  1  4  1  0  0  0  0
  1  3  1  0  0  0  0
  2 28  1  0  0  0  0
  3 14  1  0  0  0  0
  4 15  1  0  0  0  0
  5  3  1  0  0  0  0
  5 12  1  0  0  0  0
  6  5  2  0  0  0  0
  7 36  1  0  0  0  0
  7  6  1  0  0  0  0
  8  6  1  0  0  0  0
  8  9  2  0  0  0  0
  9 11  1  0  0  0  0
 10  9  1  0  0  0  0
 10 38  1  0  0  0  0
 11 12  2  0  0  0  0
 11 41  1  0  0  0  0
 12 13  1  0  0  0  0
 13 42  1  0  0  0  0
 13 44  1  0  0  0  0
 14 46  1  0  0  0  0
 14 45  1  0  0  0  0
 15 14  1  0  0  0  0
 15 47  1  0  0  0  0
 16  4  1  0  0  0  0
 17 49  1  0  0  0  0
 17 16  2  0  0  0  0
 18 17  1  0  0  0  0
 19 18  2  0  0  0  0
 19 20  1  0  0  0  0
 20 21  2  0  0  0  0
 21 16  1  0  0  0  0
 21  2  1  0  0  0  0
 22  2  1  0  0  0  0
 22 27  1  0  0  0  0
 23 22  2  0  0  0  0
 24 23  1  0  0  0  0
 24 25  2  0  0  0  0
 25 26  1  0  0  0  0
 26 27  2  0  0  0  0
 26 56  1  0  0  0  0
 27 57  1  0  0  0  0
 28 33  2  0  0  0  0
 28 29  1  0  0  0  0
 29 30  2  0  0  0  0
 30 31  1  0  0  0  0
 30 59  1  0  0  0  0
 31 60  1  0  0  0  0
 32 61  1  0  0  0  0
 32 31  2  0  0  0  0
 33 32  1  0  0  0  0
 34  7  1  0  0  0  0
 35  7  1  0  0  0  0
 37  8  1  0  0  0  0
 39 10  1  0  0  0  0
 40 10  1  0  0  0  0
 43 13  1  0  0  0  0
 48 15  1  0  0  0  0
 50 18  1  0  0  0  0
 51 19  1  0  0  0  0
 52 20  1  0  0  0  0
 53 23  1  0  0  0  0
 54 24  1  0  0  0  0
 55 25  1  0  0  0  0
 58 29  1  0  0  0  0
 62 33  1  0  0  0  0
M  END
