1,29
q = -1.0, confidence = 0.006

 55 54  0  0  0  0  0  0  0  0999 V2000
   -1.2584    0.2840   -1.0152 P   0  0  0  0  0  2  0  0  0  0  0  0
    0.8158    2.8458   -1.0389 C   0  0  0  0  0  0  0  0  0  0  0  0
    0.6866    2.3549   -2.4918 C   0  0  0  0  0  0  0  0  0  0  0  0
    1.0912    3.1330   -3.1733 H   0  0  0  0  0  0  0  0  0  0  0  0
   -0.3662    2.1522   -2.7679 H   0  0  0  0  0  0  0  0  0  0  0  0
    1.2565    1.4169   -2.6521 H   0  0  0  0  0  0  0  0  0  0  0  0
    2.2956    3.1793   -0.7822 C   0  0  0  0  0  0  0  0  0  0  0  0
    2.6179    3.9698   -1.4932 H   0  0  0  0  0  0  0  0  0  0  0  0
    2.9327    2.2922   -0.9630 H   0  0  0  0  0  0  0  0  0  0  0  0
    2.4903    3.5515    0.2393 H   0  0  0  0  0  0  0  0  0  0  0  0
   -0.0762    4.0788   -0.8317 C   0  0  0  0  0  0  0  0  0  0  0  0
    0.0403    4.5229    0.1761 H   0  0  0  0  0  0  0  0  0  0  0  0
   -1.1457    3.8307   -0.9836 H   0  0  0  0  0  0  0  0  0  0  0  0
    0.2006    4.8614   -1.5706 H   0  0  0  0  0  0  0  0  0  0  0  0
    0.0168    1.9007    1.9091 C   0  0  0  0  0  0  0  0  0  0  0  0
    1.1831    2.7871    2.3755 C   0  0  0  0  0  0  0  0  0  0  0  0
    1.0920    2.9365    3.4728 H   0  0  0  0  0  0  0  0  0  0  0  0
    1.1677    3.7902    1.9075 H   0  0  0  0  0  0  0  0  0  0  0  0
    2.1696    2.3224    2.1840 H   0  0  0  0  0  0  0  0  0  0  0  0
   -1.3201    2.6221    2.1395 C   0  0  0  0  0  0  0  0  0  0  0  0
   -2.1671    1.9491    1.9052 H   0  0  0  0  0  0  0  0  0  0  0  0
   -1.4166    3.5451    1.5379 H   0  0  0  0  0  0  0  0  0  0  0  0
   -1.3961    2.9059    3.2116 H   0  0  0  0  0  0  0  0  0  0  0  0
    0.0311    0.5823    2.7013 C   0  0  0  0  0  0  0  0  0  0  0  0
    0.9740    0.0228    2.5502 H   0  0  0  0  0  0  0  0  0  0  0  0
   -0.8146   -0.0682    2.4046 H   0  0  0  0  0  0  0  0  0  0  0  0
   -0.0733    0.8080    3.7844 H   0  0  0  0  0  0  0  0  0  0  0  0
   -2.7810   -0.2939    0.5410 P   0  0  0  0  0  0  0  0  0  0  0  0
    0.2405    1.3957    0.0736 P   0  0  0  0  0  0  0  0  0  0  0  0
   -4.3429    0.4960   -0.2970 C   0  0  0  0  0  0  0  0  0  0  0  0
   -4.0319    1.9966   -0.4563 C   0  0  0  0  0  0  0  0  0  0  0  0
   -3.1997    2.1677   -1.1696 H   0  0  0  0  0  0  0  0  0  0  0  0
   -3.7616    2.4689    0.5091 H   0  0  0  0  0  0  0  0  0  0  0  0
   -4.9327    2.5178   -0.8468 H   0  0  0  0  0  0  0  0  0  0  0  0
   -5.5085    0.3548    0.7009 C   0  0  0  0  0  0  0  0  0  0  0  0
   -6.3851    0.9318    0.3331 H   0  0  0  0  0  0  0  0  0  0  0  0
   -5.2347    0.7523    1.6996 H   0  0  0  0  0  0  0  0  0  0  0  0
   -5.8327   -0.6945    0.8297 H   0  0  0  0  0  0  0  0  0  0  0  0
   -4.7291   -0.0807   -1.6637 C   0  0  0  0  0  0  0  0  0  0  0  0
   -5.0848   -1.1261   -1.5886 H   0  0  0  0  0  0  0  0  0  0  0  0
   -3.8769   -0.0514   -2.3729 H   0  0  0  0  0  0  0  0  0  0  0  0
   -5.5567    0.5184   -2.1039 H   0  0  0  0  0  0  0  0  0  0  0  0
   -2.8183   -2.2113    0.3287 C   0  0  0  0  0  0  0  0  0  0  0  0
   -4.0941   -2.7557    0.9938 C   0  0  0  0  0  0  0  0  0  0  0  0
   -4.9991   -2.5565    0.3866 H   0  0  0  0  0  0  0  0  0  0  0  0
   -4.2512   -2.3304    2.0068 H   0  0  0  0  0  0  0  0  0  0  0  0
   -4.0076   -3.8588    1.0997 H   0  0  0  0  0  0  0  0  0  0  0  0
   -2.6996   -2.7386   -1.1079 C   0  0  0  0  0  0  0  0  0  0  0  0
   -1.7616   -2.4015   -1.5921 H   0  0  0  0  0  0  0  0  0  0  0  0
   -3.5602   -2.4505   -1.7377 H   0  0  0  0  0  0  0  0  0  0  0  0
   -2.6610   -3.8501   -1.0839 H   0  0  0  0  0  0  0  0  0  0  0  0
   -1.5940   -2.6752    1.1418 C   0  0  0  0  0  0  0  0  0  0  0  0
   -1.5007   -3.7810    1.0842 H   0  0  0  0  0  0  0  0  0  0  0  0
   -1.6765   -2.3867    2.2098 H   0  0  0  0  0  0  0  0  0  0  0  0
   -0.6614   -2.2490    0.7178 H   0  0  0  0  0  0  0  0  0  0  0  0
  1 29  1  0  0  0  0
  1 28  1  0  0  0  0
  2 11  1  0  0  0  0
  2  7  1  0  0  0  0
  2 29  1  0  0  0  0
  3  2  1  0  0  0  0
  4  3  1  0  0  0  0
  5  3  1  0  0  0  0
  6  3  1  0  0  0  0
  7 10  1  0  0  0  0
  8  7  1  0  0  0  0
  9  7  1  0  0  0  0
 11 12  1  0  0  0  0
 13 11  1  0  0  0  0
 14 11  1  0  0  0  0
 15 20  1  0  0  0  0
 15 16  1  0  0  0  0
 15 24  1  0  0  0  0
 16 17  1  0  0  0  0
 18 16  1  0  0  0  0
 19 16  1  0  0  0  0
 20 23  1  0  0  0  0
 21 20  1  0  0  0  0
 22 20  1  0  0  0  0
 24 27  1  0  0  0  0
 25 24  1  0  0  0  0
 26 24  1  0  0  0  0
 29 15  1  0  0  0  0
 30 28  1  0  0  0  0
 30 35  1  0  0  0  0
 31 30  1  0  0  0  0
 31 33  1  0  0  0  0
 32 31  1  0  0  0  0
 34 31  1  0  0  0  0
 35 38  1  0  0  0  0
 35 37  1  0  0  0  0
 36 35  1  0  0  0  0
 39 40  1  0  0  0  0
 39 30  1  0  0  0  0
 41 39  1  0  0  0  0
 42 39  1  0  0  0  0
 43 28  1  0  0  0  0
 43 44  1  0  0  0  0
 43 52  1  0  0  0  0
 44 47  1  0  0  0  0
 44 46  1  0  0  0  0
 45 44  1  0  0  0  0
 48 51  1  0  0  0  0
 48 43  1  0  0  0  0
 49 48  1  0  0  0  0
 50 48  1  0  0  0  0
 52 54  1  0  0  0  0
 53 52  1  0  0  0  0
 55 52  1  0  0  0  0
M  END
