1,2
q = 0.0, confidence = 0.996

 65 68  0  0  0  0  0  0  0  0999 V2000
    1.8253    0.1904    0.1984 P   0  0  0  0  0  0  0  0  0  0  0  0
   -1.9205    0.0135    0.0272 P   0  0  0  0  0  0  0  0  0  0  0  0
    1.9405    1.8069   -0.5098 C   0  0  0  0  0  0  0  0  0  0  0  0
    1.9317    2.8663   -1.1362 C   0  0  0  0  0  0  0  0  0  0  0  0
    1.8766    4.0934   -1.9233 C   0  0  0  0  0  0  0  0  0  0  0  0
    2.6646    4.0398   -2.7061 H   0  0  0  0  0  0  0  0  0  0  0  0
    2.1459    4.9619   -1.2807 H   0  0  0  0  0  0  0  0  0  0  0  0
    0.5004    4.3308   -2.5837 C   0  0  0  0  0  0  0  0  0  0  0  0
    0.5951    5.1729   -3.3026 H   0  0  0  0  0  0  0  0  0  0  0  0
    0.2466    3.4277   -3.1757 H   0  0  0  0  0  0  0  0  0  0  0  0
   -0.5999    4.6345   -1.5639 C   0  0  0  0  0  0  0  0  0  0  0  0
   -0.5945    3.8441   -0.7822 H   0  0  0  0  0  0  0  0  0  0  0  0
   -0.3598    5.5849   -1.0395 H   0  0  0  0  0  0  0  0  0  0  0  0
   -2.0129    4.7324   -2.1487 C   0  0  0  0  0  0  0  0  0  0  0  0
   -2.0500    5.5109   -2.9410 H   0  0  0  0  0  0  0  0  0  0  0  0
   -2.7102    5.0614   -1.3503 H   0  0  0  0  0  0  0  0  0  0  0  0
   -2.5471    3.4109   -2.7525 C   0  0  0  0  0  0  0  0  0  0  0  0
   -3.5952    3.5575   -3.0924 H   0  0  0  0  0  0  0  0  0  0  0  0
   -1.9688    3.1388   -3.6631 H   0  0  0  0  0  0  0  0  0  0  0  0
   -2.4828    2.2928   -1.8205 C   0  0  0  0  0  0  0  0  0  0  0  0
   -2.3642    1.3699   -1.0161 C   0  0  0  0  0  0  0  0  0  0  0  0
    3.5330   -0.4809   -0.0369 C   0  0  0  0  0  0  0  0  0  0  0  0
    4.4850    0.1324   -0.8686 C   0  0  0  0  0  0  0  0  0  0  0  0
    4.2400    1.0802   -1.3709 H   0  0  0  0  0  0  0  0  0  0  0  0
    5.7399   -0.4695   -1.0572 C   0  0  0  0  0  0  0  0  0  0  0  0
    6.4811    0.0122   -1.7131 H   0  0  0  0  0  0  0  0  0  0  0  0
    6.0480   -1.6783   -0.4160 C   0  0  0  0  0  0  0  0  0  0  0  0
    7.0312   -2.1488   -0.5678 H   0  0  0  0  0  0  0  0  0  0  0  0
    5.0952   -2.2913    0.4153 C   0  0  0  0  0  0  0  0  0  0  0  0
    5.3287   -3.2427    0.9165 H   0  0  0  0  0  0  0  0  0  0  0  0
    3.8400   -1.6990    0.6027 C   0  0  0  0  0  0  0  0  0  0  0  0
    3.0898   -2.1915    1.2415 H   0  0  0  0  0  0  0  0  0  0  0  0
    1.8545    0.5410    2.0159 C   0  0  0  0  0  0  0  0  0  0  0  0
    2.6480    1.5885    2.5243 C   0  0  0  0  0  0  0  0  0  0  0  0
    3.2131    2.2304    1.8310 H   0  0  0  0  0  0  0  0  0  0  0  0
    2.7111    1.8114    3.9062 C   0  0  0  0  0  0  0  0  0  0  0  0
    3.3303    2.6321    4.2998 H   0  0  0  0  0  0  0  0  0  0  0  0
    1.9900    0.9873    4.7872 C   0  0  0  0  0  0  0  0  0  0  0  0
    2.0402    1.1644    5.8724 H   0  0  0  0  0  0  0  0  0  0  0  0
    1.2008   -0.0559    4.2813 C   0  0  0  0  0  0  0  0  0  0  0  0
    0.6225   -0.6958    4.9642 H   0  0  0  0  0  0  0  0  0  0  0  0
    1.1292   -0.2783    2.8976 C   0  0  0  0  0  0  0  0  0  0  0  0
    0.4917   -1.0796    2.5006 H   0  0  0  0  0  0  0  0  0  0  0  0
   -1.7830    0.8648    1.6695 C   0  0  0  0  0  0  0  0  0  0  0  0
   -1.0098    2.0382    1.7667 C   0  0  0  0  0  0  0  0  0  0  0  0
   -0.5301    2.4542    0.8675 H   0  0  0  0  0  0  0  0  0  0  0  0
   -0.8408    2.6709    3.0051 C   0  0  0  0  0  0  0  0  0  0  0  0
   -0.2279    3.5822    3.0713 H   0  0  0  0  0  0  0  0  0  0  0  0
   -1.4337    2.1321    4.1581 C   0  0  0  0  0  0  0  0  0  0  0  0
   -1.2935    2.6251    5.1319 H   0  0  0  0  0  0  0  0  0  0  0  0
   -2.1979    0.9590    4.0658 C   0  0  0  0  0  0  0  0  0  0  0  0
   -2.6661    0.5322    4.9660 H   0  0  0  0  0  0  0  0  0  0  0  0
   -2.3748    0.3241    2.8261 C   0  0  0  0  0  0  0  0  0  0  0  0
   -2.9836   -0.5899    2.7593 H   0  0  0  0  0  0  0  0  0  0  0  0
   -3.5082   -0.9103    0.2143 C   0  0  0  0  0  0  0  0  0  0  0  0
   -3.4738   -2.2743    0.5614 C   0  0  0  0  0  0  0  0  0  0  0  0
   -2.5071   -2.7863    0.6723 H   0  0  0  0  0  0  0  0  0  0  0  0
   -4.6709   -2.9804    0.7572 C   0  0  0  0  0  0  0  0  0  0  0  0
   -4.6355   -4.0467    1.0267 H   0  0  0  0  0  0  0  0  0  0  0  0
   -5.9050   -2.3325    0.5953 C   0  0  0  0  0  0  0  0  0  0  0  0
   -6.8432   -2.8899    0.7385 H   0  0  0  0  0  0  0  0  0  0  0  0
   -5.9415   -0.9733    0.2416 C   0  0  0  0  0  0  0  0  0  0  0  0
   -6.9079   -0.4636    0.1080 H   0  0  0  0  0  0  0  0  0  0  0  0
   -4.7483   -0.2612    0.0551 C   0  0  0  0  0  0  0  0  0  0  0  0
   -4.7718    0.8036   -0.2228 H   0  0  0  0  0  0  0  0  0  0  0  0
  1 33  1  0  0  0  0
  2 55  1  0  0  0  0
  2 44  1  0  0  0  0
  3  1  1  0  0  0  0
  4  3  3  0  0  0  0
  5  7  1  0  0  0  0
  5  4  1  0  0  0  0
  6  5  1  0  0  0  0
  8  5  1  0  0  0  0
  8 11  1  0  0  0  0
  9  8  1  0  0  0  0
 10  8  1  0  0  0  0
 11 13  1  0  0  0  0
 11 12  1  0  0  0  0
 14 11  1  0  0  0  0
 14 16  1  0  0  0  0
 15 14  1  0  0  0  0
 17 14  1  0  0  0  0
 17 20  1  0  0  0  0
 18 17  1  0  0  0  0
 19 17  1  0  0  0  0
 20 21  3  0  0  0  0
 21  2  1  0  0  0  0
 22  1  1  0  0  0  0
 22 31  1  0  0  0  0
 23 22  2  0  0  0  0
 24 23  1  0  0  0  0
 25 23  1  0  0  0  0
 25 27  2  0  0  0  0
 26 25  1  0  0  0  0
 27 29  1  0  0  0  0
 28 27  1  0  0  0  0
 29 31  2  0  0  0  0
 29 30  1  0  0  0  0
 31 32  1  0  0  0  0
 33 34  2  0  0  0  0
 33 42  1  0  0  0  0
 34 36  1  0  0  0  0
 35 34  1  0  0  0  0
 36 37  1  0  0  0  0
 36 38  2  0  0  0  0
 38 39  1  0  0  0  0
 40 38  1  0  0  0  0
 40 41  1  0  0  0  0
 42 40  2  0  0  0  0
 43 42  1  0  0  0  0
 44 45  2  0  0  0  0
 44 53  1  0  0  0  0
 45 47  1  0  0  0  0
 46 45  1  0  0  0  0
 47 48  1  0  0  0  0
 47 49  2  0  0  0  0
 49 50  1  0  0  0  0
 51 49  1  0  0  0  0
 51 52  1  0  0  0  0
 53 51  2  0  0  0  0
 54 53  1  0  0  0  0
 55 56  1  0  0  0  0
 56 57  1  0  0  0  0
 56 58  2  0  0  0  0
 58 59  1  0  0  0  0
 60 61  1  0  0  0  0
 60 58  1  0  0  0  0
 62 60  2  0  0  0  0
 63 62  1  0  0  0  0
 64 55  2  0  0  0  0
 64 62  1  0  0  0  0
 65 64  1  0  0  0  0
M  END
