1,2
q = 0.0, confidence = 0.998

 72 78  0  0  0  0  0  0  0  0999 V2000
   -1.0917   -0.9914   -0.0704 P   0  0  0  0  0  0  0  0  0  0  0  0
    1.9500    0.6542    0.0397 P   0  0  0  0  0  0  0  0  0  0  0  0
   -0.2993    0.3160    2.2941 N   0  0  0  0  0  0  0  0  0  0  0  0
   -0.6616    1.2598    3.2133 N   0  0  0  0  0  0  0  0  0  0  0  0
   -1.6868    1.8973    2.7367 N   0  0  0  0  0  0  0  0  0  0  0  0
   -0.7993   -3.7328    0.4258 C   0  0  0  0  0  0  0  0  0  0  0  0
   -0.3923   -3.7505   -0.5957 H   0  0  0  0  0  0  0  0  0  0  0  0
   -1.2020   -2.5090    0.9944 C   0  0  0  0  0  0  0  0  0  0  0  0
    0.9841   -1.1779    3.6946 C   0  0  0  0  0  0  0  0  0  0  0  0
    0.1000   -1.2279    4.3435 H   0  0  0  0  0  0  0  0  0  0  0  0
   -5.2806    3.1049    0.6337 C   0  0  0  0  0  0  0  0  0  0  0  0
   -6.1676    3.4960    1.1551 H   0  0  0  0  0  0  0  0  0  0  0  0
    2.0275   -0.2725    1.6581 C   0  0  0  0  0  0  0  0  0  0  0  0
    3.2058   -0.9591    2.0156 C   0  0  0  0  0  0  0  0  0  0  0  0
    4.0956   -0.8677    1.3781 H   0  0  0  0  0  0  0  0  0  0  0  0
   -5.2008    3.1747   -0.7675 C   0  0  0  0  0  0  0  0  0  0  0  0
   -6.0265    3.6162   -1.3462 H   0  0  0  0  0  0  0  0  0  0  0  0
   -0.9211   -4.9261    1.1525 C   0  0  0  0  0  0  0  0  0  0  0  0
   -0.5989   -5.8743    0.6966 H   0  0  0  0  0  0  0  0  0  0  0  0
    4.2828    2.3121    0.0250 C   0  0  0  0  0  0  0  0  0  0  0  0
    3.6521    3.0944    0.4700 H   0  0  0  0  0  0  0  0  0  0  0  0
   -4.2364    2.5337    1.3722 C   0  0  0  0  0  0  0  0  0  0  0  0
   -4.2864    2.4718    2.4690 H   0  0  0  0  0  0  0  0  0  0  0  0
    0.9088   -0.4124    2.5194 C   0  0  0  0  0  0  0  0  0  0  0  0
   -2.8211   -0.9569   -0.7388 C   0  0  0  0  0  0  0  0  0  0  0  0
   -2.0191    1.4047    1.4967 C   0  0  0  0  0  0  0  0  0  0  0  0
    5.6334    2.5807   -0.2464 C   0  0  0  0  0  0  0  0  0  0  0  0
    6.0457    3.5735   -0.0102 H   0  0  0  0  0  0  0  0  0  0  0  0
    3.7339    1.0500   -0.2799 C   0  0  0  0  0  0  0  0  0  0  0  0
    6.4523    1.5952   -0.8174 C   0  0  0  0  0  0  0  0  0  0  0  0
    7.5103    1.8102   -1.0310 H   0  0  0  0  0  0  0  0  0  0  0  0
   -1.7422   -2.4991    2.2966 C   0  0  0  0  0  0  0  0  0  0  0  0
   -2.0686   -1.5542    2.7556 H   0  0  0  0  0  0  0  0  0  0  0  0
   -1.1461    0.3359    1.2048 C   0  0  0  0  0  0  0  0  0  0  0  0
    3.2754   -1.7453    3.1740 C   0  0  0  0  0  0  0  0  0  0  0  0
    4.2125   -2.2682    3.4159 H   0  0  0  0  0  0  0  0  0  0  0  0
    2.1646   -1.8533    4.0217 C   0  0  0  0  0  0  0  0  0  0  0  0
    2.2140   -2.4604    4.9374 H   0  0  0  0  0  0  0  0  0  0  0  0
    1.2615    2.2984    0.5100 C   0  0  0  0  0  0  0  0  0  0  0  0
    1.4504    2.8459    1.7959 C   0  0  0  0  0  0  0  0  0  0  0  0
    1.9863    2.2744    2.5682 H   0  0  0  0  0  0  0  0  0  0  0  0
    4.5609    0.0681   -0.8672 C   0  0  0  0  0  0  0  0  0  0  0  0
    4.1438   -0.9137   -1.1317 H   0  0  0  0  0  0  0  0  0  0  0  0
   -5.4380   -0.8626   -1.7747 C   0  0  0  0  0  0  0  0  0  0  0  0
   -6.4607   -0.8117   -2.1780 H   0  0  0  0  0  0  0  0  0  0  0  0
   -4.0590    2.6902   -1.4260 C   0  0  0  0  0  0  0  0  0  0  0  0
   -3.9763    2.7539   -2.5213 H   0  0  0  0  0  0  0  0  0  0  0  0
   -3.0346   -0.9521   -2.1281 C   0  0  0  0  0  0  0  0  0  0  0  0
   -2.1761   -0.9720   -2.8115 H   0  0  0  0  0  0  0  0  0  0  0  0
   -1.4441   -4.9088    2.4545 C   0  0  0  0  0  0  0  0  0  0  0  0
   -1.5316   -5.8442    3.0277 H   0  0  0  0  0  0  0  0  0  0  0  0
    0.5732    3.0449   -0.4658 C   0  0  0  0  0  0  0  0  0  0  0  0
    0.4324    2.6275   -1.4711 H   0  0  0  0  0  0  0  0  0  0  0  0
    5.9124    0.3365   -1.1251 C   0  0  0  0  0  0  0  0  0  0  0  0
    6.5419   -0.4411   -1.5831 H   0  0  0  0  0  0  0  0  0  0  0  0
   -5.2307   -0.8881   -0.3852 C   0  0  0  0  0  0  0  0  0  0  0  0
   -6.0882   -0.8550    0.3033 H   0  0  0  0  0  0  0  0  0  0  0  0
   -3.9311   -0.9456    0.1310 C   0  0  0  0  0  0  0  0  0  0  0  0
   -3.7826   -0.9593    1.2199 H   0  0  0  0  0  0  0  0  0  0  0  0
   -3.0106    2.1264   -0.6893 C   0  0  0  0  0  0  0  0  0  0  0  0
   -2.1081    1.7744   -1.2043 H   0  0  0  0  0  0  0  0  0  0  0  0
   -1.8574   -3.6934    3.0226 C   0  0  0  0  0  0  0  0  0  0  0  0
   -2.2730   -3.6722    4.0417 H   0  0  0  0  0  0  0  0  0  0  0  0
   -3.0989    2.0174    0.7142 C   0  0  0  0  0  0  0  0  0  0  0  0
    0.9307    4.1117    2.1031 C   0  0  0  0  0  0  0  0  0  0  0  0
    1.0587    4.5180    3.1173 H   0  0  0  0  0  0  0  0  0  0  0  0
    0.2309    4.8433    1.1318 C   0  0  0  0  0  0  0  0  0  0  0  0
   -0.1899    5.8287    1.3823 H   0  0  0  0  0  0  0  0  0  0  0  0
   -4.3392   -0.9069   -2.6438 C   0  0  0  0  0  0  0  0  0  0  0  0
   -4.4914   -0.8983   -3.7335 H   0  0  0  0  0  0  0  0  0  0  0  0
    0.0586    4.3114   -0.1556 C   0  0  0  0  0  0  0  0  0  0  0  0
   -0.4932    4.8763   -0.9215 H   0  0  0  0  0  0  0  0  0  0  0  0
  1  8  1  0  0  0  0
  1 34  1  0  0  0  0
  2 39  1  0  0  0  0
  2 13  1  0  0  0  0
  3 24  1  0  0  0  0
  3  4  1  0  0  0  0
  5  4  2  0  0  0  0
  6  8  2  0  0  0  0
  6 18  1  0  0  0  0
  7  6  1  0  0  0  0
  8 32  1  0  0  0  0
  9 37  1  0  0  0  0
  9 10  1  0  0  0  0
 11 12  1  0  0  0  0
 11 22  1  0  0  0  0
 13 14  2  0  0  0  0
 13 24  1  0  0  0  0
 14 35  1  0  0  0  0
 15 14  1  0  0  0  0
 16 11  2  0  0  0  0
 17 16  1  0  0  0  0
 18 50  2  0  0  0  0
 19 18  1  0  0  0  0
 20 21  1  0  0  0  0
 22 23  1  0  0  0  0
 24  9  2  0  0  0  0
 25  1  1  0  0  0  0
 25 58  1  0  0  0  0
 26  5  1  0  0  0  0
 27 28  1  0  0  0  0
 27 20  1  0  0  0  0
 29 20  2  0  0  0  0
 29  2  1  0  0  0  0
 30 27  2  0  0  0  0
 31 30  1  0  0  0  0
 32 33  1  0  0  0  0
 32 62  2  0  0  0  0
 34 26  2  0  0  0  0
 34  3  1  0  0  0  0
 35 36  1  0  0  0  0
 35 37  2  0  0  0  0
 37 38  1  0  0  0  0
 39 40  1  0  0  0  0
 40 65  2  0  0  0  0
 40 41  1  0  0  0  0
 42 29  1  0  0  0  0
 43 42  1  0  0  0  0
 44 56  1  0  0  0  0
 45 44  1  0  0  0  0
 46 16  1  0  0  0  0
 46 60  2  0  0  0  0
 47 46  1  0  0  0  0
 48 25  2  0  0  0  0
 49 48  1  0  0  0  0
 50 62  1  0  0  0  0
 50 51  1  0  0  0  0
 52 71  1  0  0  0  0
 52 39  2  0  0  0  0
 53 52  1  0  0  0  0
 54 42  2  0  0  0  0
 54 30  1  0  0  0  0
 55 54  1  0  0  0  0
 56 58  2  0  0  0  0
 56 57  1  0  0  0  0
 58 59  1  0  0  0  0
 60 64  1  0  0  0  0
 61 60  1  0  0  0  0
 62 63  1  0  0  0  0
 64 22  2  0  0  0  0
 64 26  1  0  0  0  0
 65 66  1  0  0  0  0
 67 68  1  0  0  0  0
 67 65  1  0  0  0  0
 69 48  1  0  0  0  0
 69 44  2  0  0  0  0
 70 69  1  0  0  0  0
 71 67  2  0  0  0  0
 72 71  1  0  0  0  0
M  END
