1,2
q = 0.0, confidence = 0.996

 80 85  0  0  1  0  0  0  0  0999 V2000
   -1.9387    0.9135    0.2328 P   0  0  0  0  0  0  0  0  0  0  0  0
    0.3793   -1.4160    0.0044 P   0  0  0  0  0  0  0  0  0  0  0  0
    2.2185   -0.1844    1.6573 O   0  0  0  0  0  0  0  0  0  0  0  0
    4.5078    0.5430    1.5820 O   0  0  0  0  0  0  0  0  0  0  0  0
    2.9903    1.5245    0.1297 O   0  0  0  0  0  0  0  0  0  0  0  0
   -2.3528    0.7553    3.0319 C   0  0  0  0  0  0  0  0  0  0  0  0
   -3.3818    1.0704    2.8081 H   0  0  0  0  0  0  0  0  0  0  0  0
   -0.9562    2.7468   -1.6264 C   0  0  0  0  0  0  0  0  0  0  0  0
   -1.4196    2.0622   -2.3569 H   0  0  0  0  0  0  0  0  0  0  0  0
   -1.4279    0.6120    1.9786 C   0  0  0  0  0  0  0  0  0  0  0  0
   -3.7067    1.3671    0.3693 C   0  0  0  0  0  0  0  0  0  0  0  0
    0.2691   -2.9150    1.0430 C   0  0  0  0  0  0  0  0  0  0  0  0
   -1.0609    2.4567   -0.2490 C   0  0  0  0  0  0  0  0  0  0  0  0
   -4.6719    0.3402    0.3398 C   0  0  0  0  0  0  0  0  0  0  0  0
   -4.3563   -0.6964    0.1503 H   0  0  0  0  0  0  0  0  0  0  0  0
    0.2693   -0.0398    3.6052 C   0  0  0  0  0  0  0  0  0  0  0  0
    1.3044   -0.3387    3.8184 H   0  0  0  0  0  0  0  0  0  0  0  0
   -0.0983    0.1980    2.2690 C   0  0  0  0  0  0  0  0  0  0  0  0
    1.8597   -1.5870   -1.0622 C   0  0  0  0  0  0  0  0  0  0  0  0
    0.9065    0.0047    1.1609 C   0  0  2  0  0  0  0  0  0  0  0  0
    0.8874    0.8780    0.4719 H   0  0  0  0  0  0  0  0  0  0  0  0
    1.9863   -0.7021   -2.1527 C   0  0  0  0  0  0  0  0  0  0  0  0
    1.1973    0.0424   -2.3413 H   0  0  0  0  0  0  0  0  0  0  0  0
   -0.2752    3.8998   -2.0419 C   0  0  0  0  0  0  0  0  0  0  0  0
   -0.1948    4.1252   -3.1161 H   0  0  0  0  0  0  0  0  0  0  0  0
   -0.6994   -3.8849    0.7101 C   0  0  0  0  0  0  0  0  0  0  0  0
   -1.3317   -3.7300   -0.1786 H   0  0  0  0  0  0  0  0  0  0  0  0
   -0.6591    0.1122    4.6447 C   0  0  0  0  0  0  0  0  0  0  0  0
   -0.3505   -0.0797    5.6834 H   0  0  0  0  0  0  0  0  0  0  0  0
   -1.9736    0.5049    4.3587 C   0  0  0  0  0  0  0  0  0  0  0  0
   -2.7096    0.6239    5.1678 H   0  0  0  0  0  0  0  0  0  0  0  0
   -4.1025    2.7033    0.5654 C   0  0  0  0  0  0  0  0  0  0  0  0
   -3.3502    3.5063    0.5747 H   0  0  0  0  0  0  0  0  0  0  0  0
    5.2976    1.3492    0.6545 C   0  0  0  0  0  0  0  0  0  0  0  0
    0.3035    4.7618   -1.0946 C   0  0  0  0  0  0  0  0  0  0  0  0
    0.8421    5.6629   -1.4262 H   0  0  0  0  0  0  0  0  0  0  0  0
    6.3937    2.0594    1.4414 C   0  0  0  0  0  0  0  0  0  0  0  0
    5.9809    2.6399    2.2865 H   0  0  0  0  0  0  0  0  0  0  0  0
    6.9646    2.7451    0.7840 H   0  0  0  0  0  0  0  0  0  0  0  0
    7.1002    1.3123    1.8529 H   0  0  0  0  0  0  0  0  0  0  0  0
   -0.4887    3.3249    0.7019 C   0  0  0  0  0  0  0  0  0  0  0  0
   -0.5681    3.0950    1.7755 H   0  0  0  0  0  0  0  0  0  0  0  0
    1.1165   -3.1144    2.1555 C   0  0  0  0  0  0  0  0  0  0  0  0
    1.8818   -2.3669    2.4064 H   0  0  0  0  0  0  0  0  0  0  0  0
    2.8461   -2.5631   -0.8299 C   0  0  0  0  0  0  0  0  0  0  0  0
    2.7421   -3.2632    0.0117 H   0  0  0  0  0  0  0  0  0  0  0  0
   -6.0247    0.6528    0.5253 C   0  0  0  0  0  0  0  0  0  0  0  0
   -6.7771   -0.1495    0.4971 H   0  0  0  0  0  0  0  0  0  0  0  0
    4.2082    2.3156    0.0185 C   0  0  0  0  0  0  0  0  0  0  0  0
    3.9499   -2.6582   -1.6920 C   0  0  0  0  0  0  0  0  0  0  0  0
    4.7140   -3.4299   -1.5145 H   0  0  0  0  0  0  0  0  0  0  0  0
    3.9823    3.5913    0.8361 C   0  0  0  0  0  0  0  0  0  0  0  0
    3.0694    4.0935    0.4617 H   0  0  0  0  0  0  0  0  0  0  0  0
    4.8341    4.2930    0.7458 H   0  0  0  0  0  0  0  0  0  0  0  0
    3.8303    3.3590    1.9087 H   0  0  0  0  0  0  0  0  0  0  0  0
   -0.8216   -5.0420    1.4930 C   0  0  0  0  0  0  0  0  0  0  0  0
   -1.5760   -5.7981    1.2282 H   0  0  0  0  0  0  0  0  0  0  0  0
   -6.4213    1.9862    0.7245 C   0  0  0  0  0  0  0  0  0  0  0  0
   -7.4864    2.2290    0.8589 H   0  0  0  0  0  0  0  0  0  0  0  0
    0.1934    4.4752    0.2754 C   0  0  0  0  0  0  0  0  0  0  0  0
    0.6409    5.1509    1.0203 H   0  0  0  0  0  0  0  0  0  0  0  0
    3.0928   -0.7988   -3.0054 C   0  0  0  0  0  0  0  0  0  0  0  0
    3.1796   -0.1160   -3.8641 H   0  0  0  0  0  0  0  0  0  0  0  0
   -5.4614    3.0097    0.7405 C   0  0  0  0  0  0  0  0  0  0  0  0
   -5.7700    4.0560    0.8860 H   0  0  0  0  0  0  0  0  0  0  0  0
    4.4265    2.6521   -1.4527 C   0  0  0  0  0  0  0  0  0  0  0  0
    4.4274    1.7408   -2.0779 H   0  0  0  0  0  0  0  0  0  0  0  0
    5.3850    3.1895   -1.5968 H   0  0  0  0  0  0  0  0  0  0  0  0
    3.6053    3.3067   -1.8058 H   0  0  0  0  0  0  0  0  0  0  0  0
    3.2156    0.6025    1.1266 B   0  0  0  0  0  0  0  0  0  0  0  0
    0.0115   -5.2356    2.6064 C   0  0  0  0  0  0  0  0  0  0  0  0
   -0.0917   -6.1431    3.2209 H   0  0  0  0  0  0  0  0  0  0  0  0
    5.9041    0.3835   -0.3665 C   0  0  0  0  0  0  0  0  0  0  0  0
    6.4827   -0.3907    0.1737 H   0  0  0  0  0  0  0  0  0  0  0  0
    6.5858    0.9038   -1.0673 H   0  0  0  0  0  0  0  0  0  0  0  0
    5.1174   -0.1279   -0.9528 H   0  0  0  0  0  0  0  0  0  0  0  0
    0.9799   -4.2732    2.9343 C   0  0  0  0  0  0  0  0  0  0  0  0
    1.6378   -4.4245    3.8037 H   0  0  0  0  0  0  0  0  0  0  0  0
    4.0731   -1.7805   -2.7802 C   0  0  0  0  0  0  0  0  0  0  0  0
    4.9347   -1.8644   -3.4599 H   0  0  0  0  0  0  0  0  0  0  0  0
  1 11  1  0  0  0  0
  1 10  1  0  0  0  0
  2 12  1  0  0  0  0
  2 20  1  0  0  0  0
  5 70  1  0  0  0  0
  6 30  1  0  0  0  0
  7  6  1  0  0  0  0
  8 13  1  0  0  0  0
  9  8  1  0  0  0  0
 10 18  1  0  0  0  0
 10  6  2  0  0  0  0
 11 32  1  0  0  0  0
 12 43  1  0  0  0  0
 13  1  1  0  0  0  0
 13 41  2  0  0  0  0
 14 11  2  0  0  0  0
 14 47  1  0  0  0  0
 15 14  1  0  0  0  0
 16 17  1  0  0  0  0
 16 28  1  0  0  0  0
 18 16  2  0  0  0  0
 19 45  1  0  0  0  0
 19  2  1  0  0  0  0
 20 21  1  6  0  0  0
 20  3  1  0  0  0  0
 20 18  1  0  0  0  0
 22 19  2  0  0  0  0
 23 22  1  0  0  0  0
 24  8  2  0  0  0  0
 24 35  1  0  0  0  0
 25 24  1  0  0  0  0
 26 12  2  0  0  0  0
 26 56  1  0  0  0  0
 27 26  1  0  0  0  0
 28 29  1  0  0  0  0
 30 28  2  0  0  0  0
 30 31  1  0  0  0  0
 32 33  1  0  0  0  0
 32 64  2  0  0  0  0
 34 37  1  0  0  0  0
 34  4  1  0  0  0  0
 35 60  2  0  0  0  0
 36 35  1  0  0  0  0
 37 40  1  0  0  0  0
 37 38  1  0  0  0  0
 39 37  1  0  0  0  0
 41 42  1  0  0  0  0
 43 44  1  0  0  0  0
 43 77  2  0  0  0  0
 45 46  1  0  0  0  0
 47 58  2  0  0  0  0
 48 47  1  0  0  0  0
 49  5  1  0  0  0  0
 49 34  1  0  0  0  0
 49 52  1  0  0  0  0
 50 51  1  0  0  0  0
 50 45  2  0  0  0  0
 52 55  1  0  0  0  0
 53 52  1  0  0  0  0
 54 52  1  0  0  0  0
 56 71  2  0  0  0  0
 57 56  1  0  0  0  0
 58 64  1  0  0  0  0
 58 59  1  0  0  0  0
 60 41  1  0  0  0  0
 60 61  1  0  0  0  0
 62 79  2  0  0  0  0
 62 22  1  0  0  0  0
 63 62  1  0  0  0  0
 64 65  1  0  0  0  0
 66 49  1  0  0  0  0
 67 66  1  0  0  0  0
 68 66  1  0  0  0  0
 69 66  1  0  0  0  0
 70  4  1  0  0  0  0
 70  3  1  0  0  0  0
 71 77  1  0  0  0  0
 71 72  1  0  0  0  0
 73 74  1  0  0  0  0
 73 34  1  0  0  0  0
 75 73  1  0  0  0  0
 76 73  1  0  0  0  0
 77 78  1  0  0  0  0
 79 50  1  0  0  0  0
 80 79  1  0  0  0  0
M  END
