1,2
q = -1.0

 35 34  0  0  0  0  0  0  0  0999 V2000
   -0.6712    0.9816   -1.1279 P   0  0  0  0  0  2  0  0  0  0  0  0
    1.0529    0.1977   -0.0805 P   0  0  0  0  0  0  0  0  0  0  0  0
   -1.5410    2.4256   -0.1937 C   0  0  0  0  0  0  0  0  0  0  0  0
   -0.6399    3.6634   -0.3313 C   0  0  0  0  0  0  0  0  0  0  0  0
   -1.9290    2.1946    1.2656 C   0  0  0  0  0  0  0  0  0  0  0  0
   -2.8230    2.6143   -1.0327 C   0  0  0  0  0  0  0  0  0  0  0  0
    1.7385    0.9929    1.4747 C   0  0  0  0  0  0  0  0  0  0  0  0
    2.3476   -0.0611    2.4120 C   0  0  0  0  0  0  0  0  0  0  0  0
    2.6935    2.1665    1.2356 C   0  0  0  0  0  0  0  0  0  0  0  0
    2.3936   -0.0996   -1.3600 C   0  0  0  0  0  0  0  0  0  0  0  0
    2.9615    1.1694   -2.0042 C   0  0  0  0  0  0  0  0  0  0  0  0
    3.4725   -1.0603   -0.8471 C   0  0  0  0  0  0  0  0  0  0  0  0
   -1.1939    4.5751   -0.0172 H   0  0  0  0  0  0  0  0  0  0  0  0
    0.2621    3.5820    0.3070 H   0  0  0  0  0  0  0  0  0  0  0  0
   -0.3068    3.8145   -1.3785 H   0  0  0  0  0  0  0  0  0  0  0  0
   -2.4722    3.0855    1.6505 H   0  0  0  0  0  0  0  0  0  0  0  0
   -2.6002    1.3223    1.3773 H   0  0  0  0  0  0  0  0  0  0  0  0
   -1.0525    2.0408    1.9236 H   0  0  0  0  0  0  0  0  0  0  0  0
   -3.3987    3.4837   -0.6483 H   0  0  0  0  0  0  0  0  0  0  0  0
   -2.5913    2.8032   -2.1007 H   0  0  0  0  0  0  0  0  0  0  0  0
   -3.4778    1.7207   -0.9769 H   0  0  0  0  0  0  0  0  0  0  0  0
    0.8118    1.3806    1.9485 H   0  0  0  0  0  0  0  0  0  0  0  0
    2.5915    0.4067    3.3886 H   0  0  0  0  0  0  0  0  0  0  0  0
    1.6554   -0.9023    2.6032 H   0  0  0  0  0  0  0  0  0  0  0  0
    3.2865   -0.4790    1.9989 H   0  0  0  0  0  0  0  0  0  0  0  0
    2.8878    2.6869    2.1966 H   0  0  0  0  0  0  0  0  0  0  0  0
    3.6727    1.8205    0.8496 H   0  0  0  0  0  0  0  0  0  0  0  0
    2.2859    2.9084    0.5223 H   0  0  0  0  0  0  0  0  0  0  0  0
    1.8041   -0.6301   -2.1378 H   0  0  0  0  0  0  0  0  0  0  0  0
    3.5558    0.8954   -2.9010 H   0  0  0  0  0  0  0  0  0  0  0  0
    2.1488    1.8490   -2.3290 H   0  0  0  0  0  0  0  0  0  0  0  0
    3.6322    1.7254   -1.3222 H   0  0  0  0  0  0  0  0  0  0  0  0
    4.1175   -1.3892   -1.6880 H   0  0  0  0  0  0  0  0  0  0  0  0
    4.1325   -0.5751   -0.0997 H   0  0  0  0  0  0  0  0  0  0  0  0
    3.0304   -1.9650   -0.3835 H   0  0  0  0  0  0  0  0  0  0  0  0
  1  3  1  0  0  0  0
  1  2  1  0  0  0  0
  2  7  1  0  0  0  0
  3  5  1  0  0  0  0
  4  3  1  0  0  0  0
  4 13  1  0  0  0  0
  4 14  1  0  0  0  0
  5 17  1  0  0  0  0
  5 16  1  0  0  0  0
  5 18  1  0  0  0  0
  6 21  1  0  0  0  0
  6 19  1  0  0  0  0
  6  3  1  0  0  0  0
  7 22  1  0  0  0  0
  7  8  1  0  0  0  0
  8 24  1  0  0  0  0
  8 23  1  0  0  0  0
  9  7  1  0  0  0  0
  9 26  1  0  0  0  0
 10 12  1  0  0  0  0
 10  2  1  0  0  0  0
 11 10  1  0  0  0  0
 11 32  1  0  0  0  0
 12 35  1  0  0  0  0
 12 34  1  0  0  0  0
 15  4  1  0  0  0  0
 20  6  1  0  0  0  0
 25  8  1  0  0  0  0
 27  9  1  0  0  0  0
 28  9  1  0  0  0  0
 29 10  1  0  0  0  0
 30 11  1  0  0  0  0
 31 11  1  0  0  0  0
 33 12  1  0  0  0  0
M  END
