1,2
q = 0.0, confidence = 0.996

 68 73  0  0  0  0  0  0  0  0999 V2000
   -2.0539    1.3438    0.0335 P   0  0  0  0  0  0  0  0  0  0  0  0
   -2.0538   -1.3438   -0.0334 P   0  0  0  0  0  0  0  0  0  0  0  0
   -0.9299    0.0000    0.0001 N   0  0  0  0  0  0  0  0  0  0  0  0
    9.5468   -0.0000    0.0000 Br  0  0  0  0  0  0  0  0  0  0  0  0
    0.4898    0.0000    0.0001 C   0  0  0  0  0  0  0  0  0  0  0  0
    1.2061   -0.5337   -1.0932 C   0  0  0  0  0  0  0  0  0  0  0  0
    0.6543   -0.9268   -1.9576 H   0  0  0  0  0  0  0  0  0  0  0  0
    2.6045   -0.5417   -1.0822 C   0  0  0  0  0  0  0  0  0  0  0  0
    3.1422   -0.9394   -1.9558 H   0  0  0  0  0  0  0  0  0  0  0  0
    3.3367    0.0000    0.0001 C   0  0  0  0  0  0  0  0  0  0  0  0
    2.6045    0.5419    1.0824 C   0  0  0  0  0  0  0  0  0  0  0  0
    3.1423    0.9396    1.9560 H   0  0  0  0  0  0  0  0  0  0  0  0
    1.2061    0.5338    1.0934 C   0  0  0  0  0  0  0  0  0  0  0  0
    0.6543    0.9269    1.9578 H   0  0  0  0  0  0  0  0  0  0  0  0
    4.8190    0.0000    0.0001 C   0  0  0  0  0  0  0  0  0  0  0  0
    5.5497   -1.0490   -0.6035 C   0  0  0  0  0  0  0  0  0  0  0  0
    5.0125   -1.8952   -1.0574 H   0  0  0  0  0  0  0  0  0  0  0  0
    6.9497   -1.0572   -0.6079 C   0  0  0  0  0  0  0  0  0  0  0  0
    7.5022   -1.8860   -1.0723 H   0  0  0  0  0  0  0  0  0  0  0  0
    7.6456    0.0000    0.0001 C   0  0  0  0  0  0  0  0  0  0  0  0
    6.9497    1.0573    0.6080 C   0  0  0  0  0  0  0  0  0  0  0  0
    7.5023    1.8861    1.0725 H   0  0  0  0  0  0  0  0  0  0  0  0
    5.5497    1.0491    0.6036 C   0  0  0  0  0  0  0  0  0  0  0  0
    5.0125    1.8953    1.0575 H   0  0  0  0  0  0  0  0  0  0  0  0
   -1.6749    2.2977    1.5391 C   0  0  0  0  0  0  0  0  0  0  0  0
   -1.8712    1.6452    2.7762 C   0  0  0  0  0  0  0  0  0  0  0  0
   -2.2524    0.6113    2.7929 H   0  0  0  0  0  0  0  0  0  0  0  0
   -1.5850    2.3168    3.9702 C   0  0  0  0  0  0  0  0  0  0  0  0
   -1.7374    1.8075    4.9336 H   0  0  0  0  0  0  0  0  0  0  0  0
   -1.1202    3.6442    3.9376 C   0  0  0  0  0  0  0  0  0  0  0  0
   -0.9034    4.1729    4.8782 H   0  0  0  0  0  0  0  0  0  0  0  0
   -0.9473    4.2997    2.7095 C   0  0  0  0  0  0  0  0  0  0  0  0
   -0.5958    5.3422    2.6842 H   0  0  0  0  0  0  0  0  0  0  0  0
   -1.2253    3.6308    1.5065 C   0  0  0  0  0  0  0  0  0  0  0  0
   -1.0937    4.1450    0.5431 H   0  0  0  0  0  0  0  0  0  0  0  0
   -1.6838    2.3969   -1.4036 C   0  0  0  0  0  0  0  0  0  0  0  0
   -2.7654    2.8029   -2.2142 C   0  0  0  0  0  0  0  0  0  0  0  0
   -3.7920    2.5161   -1.9249 H   0  0  0  0  0  0  0  0  0  0  0  0
   -2.5167    3.5781   -3.3571 C   0  0  0  0  0  0  0  0  0  0  0  0
   -3.3593    3.8996   -3.9876 H   0  0  0  0  0  0  0  0  0  0  0  0
   -1.2028    3.9383   -3.6965 C   0  0  0  0  0  0  0  0  0  0  0  0
   -1.0130    4.5413   -4.5977 H   0  0  0  0  0  0  0  0  0  0  0  0
   -0.1274    3.5330   -2.8877 C   0  0  0  0  0  0  0  0  0  0  0  0
    0.9024    3.8162   -3.1536 H   0  0  0  0  0  0  0  0  0  0  0  0
   -0.3611    2.7660   -1.7375 C   0  0  0  0  0  0  0  0  0  0  0  0
    0.4839    2.4543   -1.1060 H   0  0  0  0  0  0  0  0  0  0  0  0
   -1.6838   -2.3972    1.4035 C   0  0  0  0  0  0  0  0  0  0  0  0
   -2.7654   -2.8037    2.2137 C   0  0  0  0  0  0  0  0  0  0  0  0
   -3.7920   -2.5169    1.9243 H   0  0  0  0  0  0  0  0  0  0  0  0
   -2.5168   -3.5793    3.3564 C   0  0  0  0  0  0  0  0  0  0  0  0
   -3.3596   -3.9011    3.9866 H   0  0  0  0  0  0  0  0  0  0  0  0
   -1.2030   -3.9394    3.6959 C   0  0  0  0  0  0  0  0  0  0  0  0
   -1.0133   -4.5427    4.5969 H   0  0  0  0  0  0  0  0  0  0  0  0
   -0.1274   -3.5336    2.8875 C   0  0  0  0  0  0  0  0  0  0  0  0
    0.9023   -3.8166    3.1536 H   0  0  0  0  0  0  0  0  0  0  0  0
   -0.3611   -2.7661    1.7376 C   0  0  0  0  0  0  0  0  0  0  0  0
    0.4840   -2.4540    1.1064 H   0  0  0  0  0  0  0  0  0  0  0  0
   -1.6749   -2.2974   -1.5392 C   0  0  0  0  0  0  0  0  0  0  0  0
   -1.2249   -3.6304   -1.5068 C   0  0  0  0  0  0  0  0  0  0  0  0
   -1.0931   -4.1447   -0.5435 H   0  0  0  0  0  0  0  0  0  0  0  0
   -0.9467   -4.2991   -2.7098 C   0  0  0  0  0  0  0  0  0  0  0  0
   -0.5950   -5.3415   -2.6847 H   0  0  0  0  0  0  0  0  0  0  0  0
   -1.1199   -3.6434   -3.9379 C   0  0  0  0  0  0  0  0  0  0  0  0
   -0.9030   -4.1720   -4.8785 H   0  0  0  0  0  0  0  0  0  0  0  0
   -1.5851   -2.3162   -3.9703 C   0  0  0  0  0  0  0  0  0  0  0  0
   -1.7377   -1.8068   -4.9335 H   0  0  0  0  0  0  0  0  0  0  0  0
   -1.8714   -1.6448   -2.7762 C   0  0  0  0  0  0  0  0  0  0  0  0
   -2.2528   -0.6110   -2.7927 H   0  0  0  0  0  0  0  0  0  0  0  0
  1 25  1  0  0  0  0
  2  3  1  0  0  0  0
  2 47  1  0  0  0  0
  3  1  1  0  0  0  0
  4 20  1  0  0  0  0
  5  3  1  0  0  0  0
  5 13  1  0  0  0  0
  6  8  1  0  0  0  0
  6  5  2  0  0  0  0
  7  6  1  0  0  0  0
  8 10  2  0  0  0  0
  9  8  1  0  0  0  0
 10 11  1  0  0  0  0
 11 13  2  0  0  0  0
 11 12  1  0  0  0  0
 13 14  1  0  0  0  0
 15 10  1  0  0  0  0
 15 23  1  0  0  0  0
 16 15  2  0  0  0  0
 17 16  1  0  0  0  0
 18 16  1  0  0  0  0
 18 20  2  0  0  0  0
 19 18  1  0  0  0  0
 20 21  1  0  0  0  0
 21 22  1  0  0  0  0
 23 21  2  0  0  0  0
 23 24  1  0  0  0  0
 25 26  1  0  0  0  0
 26 27  1  0  0  0  0
 26 28  2  0  0  0  0
 28 29  1  0  0  0  0
 30 28  1  0  0  0  0
 30 31  1  0  0  0  0
 32 30  2  0  0  0  0
 33 32  1  0  0  0  0
 34 25  2  0  0  0  0
 34 32  1  0  0  0  0
 35 34  1  0  0  0  0
 36  1  1  0  0  0  0
 37 38  1  0  0  0  0
 37 36  2  0  0  0  0
 39 37  1  0  0  0  0
 40 39  1  0  0  0  0
 41 39  2  0  0  0  0
 41 43  1  0  0  0  0
 42 41  1  0  0  0  0
 43 45  2  0  0  0  0
 44 43  1  0  0  0  0
 45 36  1  0  0  0  0
 45 46  1  0  0  0  0
 47 56  2  0  0  0  0
 47 48  1  0  0  0  0
 48 50  2  0  0  0  0
 49 48  1  0  0  0  0
 50 52  1  0  0  0  0
 50 51  1  0  0  0  0
 52 53  1  0  0  0  0
 54 55  1  0  0  0  0
 54 52  2  0  0  0  0
 56 54  1  0  0  0  0
 57 56  1  0  0  0  0
 58 59  1  0  0  0  0
 58  2  1  0  0  0  0
 59 60  1  0  0  0  0
 61 62  1  0  0  0  0
 61 59  2  0  0  0  0
 63 61  1  0  0  0  0
 64 63  1  0  0  0  0
 65 63  2  0  0  0  0
 65 67  1  0  0  0  0
 66 65  1  0  0  0  0
 67 58  2  0  0  0  0
 68 67  1  0  0  0  0
M  END
