1,37
q = 0.0, confidence = 0.994

 65 68  0  0  0  0  0  0  0  0999 V2000
    1.6162   -0.0871    0.0109 P   0  0  0  0  0  0  0  0  0  0  0  0
    1.2631   -0.2988    1.8265 C   0  0  0  0  0  0  0  0  0  0  0  0
   -0.0000    0.3859    2.3878 C   0  0  0  0  0  0  0  0  0  0  0  0
   -0.0001    1.9000    2.1297 C   0  0  0  0  0  0  0  0  0  0  0  0
    0.0000    0.1597    3.9131 C   0  0  0  0  0  0  0  0  0  0  0  0
    0.0003   -1.2227    4.1914 O   0  0  0  0  0  0  0  0  0  0  0  0
    0.0003   -1.5149    5.5679 C   0  0  0  0  0  0  0  0  0  0  0  0
    2.7986   -1.4656   -0.2712 C   0  0  0  0  0  0  0  0  0  0  0  0
    3.9991   -1.2567   -0.9787 C   0  0  0  0  0  0  0  0  0  0  0  0
    4.8584   -2.3337   -1.2373 C   0  0  0  0  0  0  0  0  0  0  0  0
    4.5214   -3.6287   -0.8126 C   0  0  0  0  0  0  0  0  0  0  0  0
    3.3146   -3.8461   -0.1298 C   0  0  0  0  0  0  0  0  0  0  0  0
    2.4553   -2.7703    0.1370 C   0  0  0  0  0  0  0  0  0  0  0  0
    2.6305    1.4534   -0.0028 C   0  0  0  0  0  0  0  0  0  0  0  0
    2.2531    2.5326   -0.8242 C   0  0  0  0  0  0  0  0  0  0  0  0
    2.9762    3.7335   -0.7836 C   0  0  0  0  0  0  0  0  0  0  0  0
    4.0876    3.8618    0.0642 C   0  0  0  0  0  0  0  0  0  0  0  0
    4.4802    2.7814    0.8709 C   0  0  0  0  0  0  0  0  0  0  0  0
    3.7529    1.5820    0.8404 C   0  0  0  0  0  0  0  0  0  0  0  0
    1.2018   -1.3827    2.0426 H   0  0  0  0  0  0  0  0  0  0  0  0
    2.1594    0.0720    2.3650 H   0  0  0  0  0  0  0  0  0  0  0  0
   -0.0001    2.1237    1.0453 H   0  0  0  0  0  0  0  0  0  0  0  0
    0.9014    2.3782    2.5634 H   0  0  0  0  0  0  0  0  0  0  0  0
    0.9001    0.6539    4.3609 H   0  0  0  0  0  0  0  0  0  0  0  0
    0.9025   -1.1039    6.0833 H   0  0  0  0  0  0  0  0  0  0  0  0
    0.0005   -2.6165    5.6792 H   0  0  0  0  0  0  0  0  0  0  0  0
    4.2496   -0.2491   -1.3381 H   0  0  0  0  0  0  0  0  0  0  0  0
    5.7956   -2.1595   -1.7874 H   0  0  0  0  0  0  0  0  0  0  0  0
    5.1961   -4.4724   -1.0228 H   0  0  0  0  0  0  0  0  0  0  0  0
    3.0350   -4.8604    0.1929 H   0  0  0  0  0  0  0  0  0  0  0  0
    1.5027   -2.9596    0.6565 H   0  0  0  0  0  0  0  0  0  0  0  0
    1.4110    2.4047   -1.5199 H   0  0  0  0  0  0  0  0  0  0  0  0
    2.6733    4.5720   -1.4287 H   0  0  0  0  0  0  0  0  0  0  0  0
    4.6566    4.8037    0.0906 H   0  0  0  0  0  0  0  0  0  0  0  0
    5.3602    2.8703    1.5260 H   0  0  0  0  0  0  0  0  0  0  0  0
    4.0765    0.7358    1.4669 H   0  0  0  0  0  0  0  0  0  0  0  0
   -1.6162   -0.0872    0.0110 P   0  0  0  0  0  0  0  0  0  0  0  0
   -1.2630   -0.2990    1.8265 C   0  0  0  0  0  0  0  0  0  0  0  0
   -0.9017    2.3781    2.5634 H   0  0  0  0  0  0  0  0  0  0  0  0
   -0.9002    0.6536    4.3609 H   0  0  0  0  0  0  0  0  0  0  0  0
   -0.9020   -1.1042    6.0833 H   0  0  0  0  0  0  0  0  0  0  0  0
   -2.7983   -1.4659   -0.2713 C   0  0  0  0  0  0  0  0  0  0  0  0
   -2.6309    1.4531   -0.0026 C   0  0  0  0  0  0  0  0  0  0  0  0
   -1.2016   -1.3828    2.0426 H   0  0  0  0  0  0  0  0  0  0  0  0
   -2.1594    0.0717    2.3651 H   0  0  0  0  0  0  0  0  0  0  0  0
   -3.9987   -1.2572   -0.9790 C   0  0  0  0  0  0  0  0  0  0  0  0
   -2.4548   -2.7706    0.1369 C   0  0  0  0  0  0  0  0  0  0  0  0
   -2.2536    2.5326   -0.8236 C   0  0  0  0  0  0  0  0  0  0  0  0
   -3.7535    1.5812    0.8405 C   0  0  0  0  0  0  0  0  0  0  0  0
   -4.8578   -2.3344   -1.2378 C   0  0  0  0  0  0  0  0  0  0  0  0
   -4.2493   -0.2497   -1.3385 H   0  0  0  0  0  0  0  0  0  0  0  0
   -3.3138   -3.8465   -0.1301 C   0  0  0  0  0  0  0  0  0  0  0  0
   -1.5023   -2.9597    0.6566 H   0  0  0  0  0  0  0  0  0  0  0  0
   -2.9769    3.7333   -0.7827 C   0  0  0  0  0  0  0  0  0  0  0  0
   -1.4113    2.4051   -1.5192 H   0  0  0  0  0  0  0  0  0  0  0  0
   -4.4810    2.7804    0.8712 C   0  0  0  0  0  0  0  0  0  0  0  0
   -4.0770    0.7347    1.4667 H   0  0  0  0  0  0  0  0  0  0  0  0
   -4.5205   -3.6294   -0.8131 C   0  0  0  0  0  0  0  0  0  0  0  0
   -5.7949   -2.1604   -1.7880 H   0  0  0  0  0  0  0  0  0  0  0  0
   -3.0341   -4.8608    0.1927 H   0  0  0  0  0  0  0  0  0  0  0  0
   -4.0885    3.8612    0.0649 C   0  0  0  0  0  0  0  0  0  0  0  0
   -2.6740    4.5721   -1.4276 H   0  0  0  0  0  0  0  0  0  0  0  0
   -5.3611    2.8690    1.5262 H   0  0  0  0  0  0  0  0  0  0  0  0
   -5.1951   -4.4732   -1.0234 H   0  0  0  0  0  0  0  0  0  0  0  0
   -4.6577    4.8029    0.0914 H   0  0  0  0  0  0  0  0  0  0  0  0
  1  2  1  0  0  0  0
  2 20  1  0  0  0  0
  2 21  1  0  0  0  0
  2  3  1  0  0  0  0
  3  5  1  0  0  0  0
  4  3  1  0  0  0  0
  4 39  1  0  0  0  0
  4 23  1  0  0  0  0
  5  6  1  0  0  0  0
  5 40  1  0  0  0  0
  5 24  1  0  0  0  0
  6  7  1  0  0  0  0
  7 26  1  0  0  0  0
  7 25  1  0  0  0  0
  7 41  1  0  0  0  0
  8  1  1  0  0  0  0
  8 13  1  0  0  0  0
  9  8  2  0  0  0  0
 10  9  1  0  0  0  0
 10 11  2  0  0  0  0
 11 12  1  0  0  0  0
 12 13  2  0  0  0  0
 12 30  1  0  0  0  0
 13 31  1  0  0  0  0
 14  1  1  0  0  0  0
 14 19  1  0  0  0  0
 15 16  1  0  0  0  0
 15 14  2  0  0  0  0
 16 17  2  0  0  0  0
 17 34  1  0  0  0  0
 17 18  1  0  0  0  0
 18 35  1  0  0  0  0
 19 18  2  0  0  0  0
 19 36  1  0  0  0  0
 22  4  1  0  0  0  0
 27  9  1  0  0  0  0
 28 10  1  0  0  0  0
 29 11  1  0  0  0  0
 32 15  1  0  0  0  0
 33 16  1  0  0  0  0
 37 38  1  0  0  0  0
 38 44  1  0  0  0  0
 38 45  1  0  0  0  0
 38  3  1  0  0  0  0
 42 37  1  0  0  0  0
 42 47  1  0  0  0  0
 43 37  1  0  0  0  0
 43 49  1  0  0  0  0
 46 42  2  0  0  0  0
 47 53  1  0  0  0  0
 48 54  1  0  0  0  0
 48 43  2  0  0  0  0
 49 56  2  0  0  0  0
 49 57  1  0  0  0  0
 50 46  1  0  0  0  0
 50 58  2  0  0  0  0
 51 46  1  0  0  0  0
 52 47  2  0  0  0  0
 52 60  1  0  0  0  0
 54 61  2  0  0  0  0
 55 48  1  0  0  0  0
 56 63  1  0  0  0  0
 58 52  1  0  0  0  0
 59 50  1  0  0  0  0
 61 65  1  0  0  0  0
 61 56  1  0  0  0  0
 62 54  1  0  0  0  0
 64 58  1  0  0  0  0
M  END
