1,2
q = 0.0, confidence = 0.988

 63 62  0  0  0  0  0  0  0  0999 V2000
    2.4571   -0.3477    0.0281 P   0  0  0  0  0  0  0  0  0  0  0  0
   -0.2676    1.9794    0.0432 P   0  0  0  0  0  0  0  0  0  0  0  0
    3.3109   -1.0562   -1.5389 C   0  0  0  0  0  0  0  0  0  0  0  0
    2.5667   -0.4295   -2.7343 C   0  0  0  0  0  0  0  0  0  0  0  0
    4.8051   -0.6944   -1.6335 C   0  0  0  0  0  0  0  0  0  0  0  0
    3.1380   -2.5823   -1.6028 C   0  0  0  0  0  0  0  0  0  0  0  0
    3.0115   -1.2848    1.6051 C   0  0  0  0  0  0  0  0  0  0  0  0
    2.2308   -2.6069    1.7286 C   0  0  0  0  0  0  0  0  0  0  0  0
    2.6307   -0.4034    2.8094 C   0  0  0  0  0  0  0  0  0  0  0  0
    4.5237   -1.5556    1.6380 C   0  0  0  0  0  0  0  0  0  0  0  0
    3.2405    1.3379    0.1611 C   0  0  0  0  0  0  0  0  0  0  0  0
    2.4625    2.4352    0.9030 C   0  0  0  0  0  0  0  0  0  0  0  0
    1.2668    3.0331    0.1444 C   0  0  0  0  0  0  0  0  0  0  0  0
   -1.1062    2.6479   -1.5486 C   0  0  0  0  0  0  0  0  0  0  0  0
   -0.9814    4.1718   -1.7239 C   0  0  0  0  0  0  0  0  0  0  0  0
   -0.3751    1.9463   -2.7105 C   0  0  0  0  0  0  0  0  0  0  0  0
   -2.5880    2.2341   -1.5857 C   0  0  0  0  0  0  0  0  0  0  0  0
   -1.2799    2.4507    1.5991 C   0  0  0  0  0  0  0  0  0  0  0  0
   -2.4589    1.4729    1.7528 C   0  0  0  0  0  0  0  0  0  0  0  0
   -0.3543    2.2586    2.8146 C   0  0  0  0  0  0  0  0  0  0  0  0
   -1.7856    3.9010    1.5792 C   0  0  0  0  0  0  0  0  0  0  0  0
    2.6274    0.6779   -2.7369 H   0  0  0  0  0  0  0  0  0  0  0  0
    1.4958   -0.7130   -2.7278 H   0  0  0  0  0  0  0  0  0  0  0  0
    3.0265   -0.7904   -3.6785 H   0  0  0  0  0  0  0  0  0  0  0  0
    5.4032   -1.0991   -0.7975 H   0  0  0  0  0  0  0  0  0  0  0  0
    4.9770    0.3980   -1.6868 H   0  0  0  0  0  0  0  0  0  0  0  0
    5.2130   -1.1292   -2.5704 H   0  0  0  0  0  0  0  0  0  0  0  0
    3.7421   -3.1088   -0.8390 H   0  0  0  0  0  0  0  0  0  0  0  0
    3.4777   -2.9406   -2.5972 H   0  0  0  0  0  0  0  0  0  0  0  0
    2.0765   -2.8755   -1.4807 H   0  0  0  0  0  0  0  0  0  0  0  0
    1.1392   -2.4281    1.7799 H   0  0  0  0  0  0  0  0  0  0  0  0
    2.5476   -3.1167    2.6630 H   0  0  0  0  0  0  0  0  0  0  0  0
    2.4186   -3.2983    0.8875 H   0  0  0  0  0  0  0  0  0  0  0  0
    1.5571   -0.1328    2.7797 H   0  0  0  0  0  0  0  0  0  0  0  0
    3.2365    0.5216    2.8737 H   0  0  0  0  0  0  0  0  0  0  0  0
    2.8066   -0.9784    3.7424 H   0  0  0  0  0  0  0  0  0  0  0  0
    5.1279   -0.6344    1.5093 H   0  0  0  0  0  0  0  0  0  0  0  0
    4.8370   -2.2908    0.8729 H   0  0  0  0  0  0  0  0  0  0  0  0
    4.7891   -1.9817    2.6285 H   0  0  0  0  0  0  0  0  0  0  0  0
    3.4290    1.6689   -0.8814 H   0  0  0  0  0  0  0  0  0  0  0  0
    4.2398    1.2024    0.6247 H   0  0  0  0  0  0  0  0  0  0  0  0
    2.1440    2.0743    1.8972 H   0  0  0  0  0  0  0  0  0  0  0  0
    3.1773    3.2628    1.1016 H   0  0  0  0  0  0  0  0  0  0  0  0
    0.9908    4.0136    0.5851 H   0  0  0  0  0  0  0  0  0  0  0  0
    1.5690    3.2429   -0.9029 H   0  0  0  0  0  0  0  0  0  0  0  0
    0.0712    4.5098   -1.7927 H   0  0  0  0  0  0  0  0  0  0  0  0
   -1.4745    4.7397   -0.9144 H   0  0  0  0  0  0  0  0  0  0  0  0
   -1.4748    4.4597   -2.6767 H   0  0  0  0  0  0  0  0  0  0  0  0
    0.7105    2.1737   -2.7252 H   0  0  0  0  0  0  0  0  0  0  0  0
   -0.8011    2.2953   -3.6751 H   0  0  0  0  0  0  0  0  0  0  0  0
   -0.4932    0.8464   -2.6489 H   0  0  0  0  0  0  0  0  0  0  0  0
   -3.1944    2.7859   -0.8419 H   0  0  0  0  0  0  0  0  0  0  0  0
   -2.7152    1.1479   -1.4145 H   0  0  0  0  0  0  0  0  0  0  0  0
   -2.9992    2.4775   -2.5885 H   0  0  0  0  0  0  0  0  0  0  0  0
   -3.1650    1.5090    0.9060 H   0  0  0  0  0  0  0  0  0  0  0  0
   -3.0208    1.7438    2.6721 H   0  0  0  0  0  0  0  0  0  0  0  0
   -2.1226    0.4237    1.8573 H   0  0  0  0  0  0  0  0  0  0  0  0
    0.0792    1.2394    2.8303 H   0  0  0  0  0  0  0  0  0  0  0  0
   -0.9544    2.3777    3.7410 H   0  0  0  0  0  0  0  0  0  0  0  0
    0.4654    3.0028    2.8559 H   0  0  0  0  0  0  0  0  0  0  0  0
   -2.5558    4.0655    0.8021 H   0  0  0  0  0  0  0  0  0  0  0  0
   -0.9703    4.6378    1.4278 H   0  0  0  0  0  0  0  0  0  0  0  0
   -2.2555    4.1317    2.5591 H   0  0  0  0  0  0  0  0  0  0  0  0
  1 11  1  0  0  0  0
  1  7  1  0  0  0  0
  2 13  1  0  0  0  0
  2 18  1  0  0  0  0
  3  1  1  0  0  0  0
  4 23  1  0  0  0  0
  4  3  1  0  0  0  0
  5  3  1  0  0  0  0
  5 25  1  0  0  0  0
  6  3  1  0  0  0  0
  6 30  1  0  0  0  0
  6 28  1  0  0  0  0
  7 10  1  0  0  0  0
  7  8  1  0  0  0  0
  7  9  1  0  0  0  0
  8 31  1  0  0  0  0
  8 32  1  0  0  0  0
  9 35  1  0  0  0  0
  9 36  1  0  0  0  0
 10 39  1  0  0  0  0
 11 41  1  0  0  0  0
 11 12  1  0  0  0  0
 12 43  1  0  0  0  0
 12 42  1  0  0  0  0
 13 44  1  0  0  0  0
 13 12  1  0  0  0  0
 14  2  1  0  0  0  0
 15 14  1  0  0  0  0
 15 47  1  0  0  0  0
 16 51  1  0  0  0  0
 16 14  1  0  0  0  0
 17 14  1  0  0  0  0
 17 53  1  0  0  0  0
 17 52  1  0  0  0  0
 18 19  1  0  0  0  0
 18 20  1  0  0  0  0
 19 57  1  0  0  0  0
 19 56  1  0  0  0  0
 20 58  1  0  0  0  0
 20 60  1  0  0  0  0
 20 59  1  0  0  0  0
 21 18  1  0  0  0  0
 21 63  1  0  0  0  0
 22  4  1  0  0  0  0
 24  4  1  0  0  0  0
 26  5  1  0  0  0  0
 27  5  1  0  0  0  0
 29  6  1  0  0  0  0
 33  8  1  0  0  0  0
 34  9  1  0  0  0  0
 37 10  1  0  0  0  0
 38 10  1  0  0  0  0
 40 11  1  0  0  0  0
 45 13  1  0  0  0  0
 46 15  1  0  0  0  0
 48 15  1  0  0  0  0
 49 16  1  0  0  0  0
 50 16  1  0  0  0  0
 54 17  1  0  0  0  0
 55 19  1  0  0  0  0
 61 21  1  0  0  0  0
 62 21  1  0  0  0  0
M  END
