1,2
q = 0.0, confidence = 0.996

 57 60  0  0  1  0  0  0  0  0999 V2000
   -1.0086    0.0642   -0.1165 P   0  0  0  0  0  0  0  0  0  0  0  0
    1.6235    0.0154   -0.4919 P   0  0  2  0  0  0  0  0  0  0  0  0
    0.1481   -0.1394   -1.4128 N   0  0  0  0  0  0  0  0  0  0  0  0
   -2.3219    1.1752   -0.7954 C   0  0  0  0  0  0  0  0  0  0  0  0
   -3.3402    0.8026   -1.7231 C   0  0  0  0  0  0  0  0  0  0  0  0
   -4.2251    1.8121   -2.1611 C   0  0  0  0  0  0  0  0  0  0  0  0
   -5.0098    1.5400   -2.8849 H   0  0  0  0  0  0  0  0  0  0  0  0
   -4.1426    3.1329   -1.7013 C   0  0  0  0  0  0  0  0  0  0  0  0
   -4.8567    3.8859   -2.0683 H   0  0  0  0  0  0  0  0  0  0  0  0
   -3.1561    3.4833   -0.7701 C   0  0  0  0  0  0  0  0  0  0  0  0
   -3.0825    4.5114   -0.3857 H   0  0  0  0  0  0  0  0  0  0  0  0
   -2.2591    2.5048   -0.3258 C   0  0  0  0  0  0  0  0  0  0  0  0
   -1.4916    2.7645    0.4160 H   0  0  0  0  0  0  0  0  0  0  0  0
   -1.8075   -1.5817    0.1041 C   0  0  0  0  0  0  0  0  0  0  0  0
   -1.1860   -2.7138   -0.4581 C   0  0  0  0  0  0  0  0  0  0  0  0
   -0.2862   -2.5786   -1.0765 H   0  0  0  0  0  0  0  0  0  0  0  0
   -1.6877   -4.0016   -0.2294 C   0  0  0  0  0  0  0  0  0  0  0  0
   -1.1894   -4.8741   -0.6780 H   0  0  0  0  0  0  0  0  0  0  0  0
   -2.8190   -4.1659    0.5823 C   0  0  0  0  0  0  0  0  0  0  0  0
   -3.2234   -5.1708    0.7761 H   0  0  0  0  0  0  0  0  0  0  0  0
   -3.4248   -3.0439    1.1653 C   0  0  0  0  0  0  0  0  0  0  0  0
   -4.3000   -3.1769    1.8210 H   0  0  0  0  0  0  0  0  0  0  0  0
   -2.9388   -1.7383    0.9498 C   0  0  0  0  0  0  0  0  0  0  0  0
   -0.1465   -0.3666   -2.8205 C   0  0  0  0  0  0  0  0  0  0  0  0
    0.7512   -0.1862   -3.4366 H   0  0  0  0  0  0  0  0  0  0  0  0
   -0.9298    0.3417   -3.1638 H   0  0  0  0  0  0  0  0  0  0  0  0
   -0.4968   -1.4028   -3.0275 H   0  0  0  0  0  0  0  0  0  0  0  0
    3.7168   -0.8284   -2.9133 C   0  0  0  0  0  0  0  0  0  0  0  0
    3.6920   -1.1074   -3.9878 H   0  0  0  0  0  0  0  0  0  0  0  0
    4.7847   -0.8851   -2.6282 H   0  0  0  0  0  0  0  0  0  0  0  0
    2.9309   -1.8854   -2.1128 C   0  0  0  0  0  0  0  0  0  0  0  0
    3.4952   -2.8435   -2.1415 H   0  0  0  0  0  0  0  0  0  0  0  0
    1.9654   -2.1008   -2.6183 H   0  0  0  0  0  0  0  0  0  0  0  0
    2.8608    1.1078   -1.3548 C   0  0  1  0  0  0  0  0  0  0  0  0
    2.4020    2.1156   -1.4251 H   0  0  0  0  0  0  0  0  0  0  0  0
    2.6342   -1.5374   -0.6405 C   0  0  1  0  0  0  0  0  0  0  0  0
    2.0217   -2.3505   -0.1975 H   0  0  0  0  0  0  0  0  0  0  0  0
    4.0596    1.1983   -0.3765 C   0  0  0  0  0  0  0  0  0  0  0  0
    4.7947    1.9158   -0.8013 H   0  0  0  0  0  0  0  0  0  0  0  0
    3.7015    1.6565    0.5673 H   0  0  0  0  0  0  0  0  0  0  0  0
    3.8671   -1.3299    0.2735 C   0  0  0  0  0  0  0  0  0  0  0  0
    3.4963   -1.2244    1.3138 H   0  0  0  0  0  0  0  0  0  0  0  0
    4.4733   -2.2618    0.2605 H   0  0  0  0  0  0  0  0  0  0  0  0
    4.7790   -0.1295   -0.0597 C   0  0  0  0  0  0  0  0  0  0  0  0
    5.4491    0.0425    0.8080 H   0  0  0  0  0  0  0  0  0  0  0  0
    5.4526   -0.3940   -0.8983 H   0  0  0  0  0  0  0  0  0  0  0  0
    3.2316    0.6302   -2.7749 C   0  0  0  0  0  0  0  0  0  0  0  0
    2.3605    0.8037   -3.4395 H   0  0  0  0  0  0  0  0  0  0  0  0
    4.0245    1.3056   -3.1655 H   0  0  0  0  0  0  0  0  0  0  0  0
   -3.5774   -0.6025   -2.2219 C   0  0  0  0  0  0  0  0  0  0  0  0
   -4.1193   -1.2062   -1.4642 H   0  0  0  0  0  0  0  0  0  0  0  0
   -2.6488   -1.1570   -2.4382 H   0  0  0  0  0  0  0  0  0  0  0  0
   -4.1956   -0.5858   -3.1403 H   0  0  0  0  0  0  0  0  0  0  0  0
   -3.6206   -0.5661    1.6086 C   0  0  0  0  0  0  0  0  0  0  0  0
   -2.8950    0.1167    2.0933 H   0  0  0  0  0  0  0  0  0  0  0  0
   -4.3315   -0.9088    2.3843 H   0  0  0  0  0  0  0  0  0  0  0  0
   -4.1869    0.0456    0.8755 H   0  0  0  0  0  0  0  0  0  0  0  0
  1 14  1  0  0  0  0
  2  3  1  6  0  0  0
  3  1  1  0  0  0  0
  4 12  1  0  0  0  0
  4  1  1  0  0  0  0
  5  4  2  0  0  0  0
  6  5  1  0  0  0  0
  6  8  2  0  0  0  0
  7  6  1  0  0  0  0
  8 10  1  0  0  0  0
  9  8  1  0  0  0  0
 10 11  1  0  0  0  0
 10 12  2  0  0  0  0
 12 13  1  0  0  0  0
 14 23  1  0  0  0  0
 15 17  1  0  0  0  0
 15 14  2  0  0  0  0
 16 15  1  0  0  0  0
 17 19  2  0  0  0  0
 18 17  1  0  0  0  0
 19 20  1  0  0  0  0
 19 21  1  0  0  0  0
 21 22  1  0  0  0  0
 23 21  2  0  0  0  0
 23 54  1  0  0  0  0
 24  3  1  0  0  0  0
 25 24  1  0  0  0  0
 26 24  1  0  0  0  0
 27 24  1  0  0  0  0
 28 47  1  0  0  0  0
 28 30  1  0  0  0  0
 28 31  1  0  0  0  0
 29 28  1  0  0  0  0
 31 36  1  0  0  0  0
 32 31  1  0  0  0  0
 33 31  1  0  0  0  0
 34 35  1  6  0  0  0
 34  2  1  0  0  0  0
 34 38  1  0  0  0  0
 36  2  1  0  0  0  0
 36 37  1  1  0  0  0
 36 41  1  0  0  0  0
 38 44  1  0  0  0  0
 38 40  1  0  0  0  0
 39 38  1  0  0  0  0
 41 42  1  0  0  0  0
 43 41  1  0  0  0  0
 44 41  1  0  0  0  0
 44 45  1  0  0  0  0
 46 44  1  0  0  0  0
 47 34  1  0  0  0  0
 48 47  1  0  0  0  0
 49 47  1  0  0  0  0
 50  5  1  0  0  0  0
 50 51  1  0  0  0  0
 52 50  1  0  0  0  0
 53 50  1  0  0  0  0
 54 55  1  0  0  0  0
 54 56  1  0  0  0  0
 57 54  1  0  0  0  0
M  END
