1,2
q = 0.0, confidence = 0.986

 80 84  0  0  0  0  0  0  0  0999 V2000
    1.6596    0.1526    0.3226 P   0  0  0  0  0  0  0  0  0  0  0  0
   -1.5484   -0.0006    0.5877 P   0  0  0  0  0  0  0  0  0  0  0  0
    3.3565   -0.5324    0.4661 C   0  0  0  0  0  0  0  0  0  0  0  0
    3.5283   -1.9493    0.5359 C   0  0  0  0  0  0  0  0  0  0  0  0
    4.8449   -2.4474    0.5597 C   0  0  0  0  0  0  0  0  0  0  0  0
    5.0049   -3.5334    0.6145 H   0  0  0  0  0  0  0  0  0  0  0  0
    5.9599   -1.5967    0.5054 C   0  0  0  0  0  0  0  0  0  0  0  0
    6.9737   -2.0247    0.5229 H   0  0  0  0  0  0  0  0  0  0  0  0
    5.7795   -0.2102    0.4207 C   0  0  0  0  0  0  0  0  0  0  0  0
    6.6461    0.4660    0.3702 H   0  0  0  0  0  0  0  0  0  0  0  0
    4.4805    0.3167    0.4005 C   0  0  0  0  0  0  0  0  0  0  0  0
    4.3343    1.4044    0.3314 H   0  0  0  0  0  0  0  0  0  0  0  0
    1.8689    1.9866    0.2643 C   0  0  0  0  0  0  0  0  0  0  0  0
    1.6468    2.7216   -0.9330 C   0  0  0  0  0  0  0  0  0  0  0  0
    1.8027    4.1232   -0.8802 C   0  0  0  0  0  0  0  0  0  0  0  0
    1.6210    4.7028   -1.7987 H   0  0  0  0  0  0  0  0  0  0  0  0
    2.1669    4.7878    0.2969 C   0  0  0  0  0  0  0  0  0  0  0  0
    2.2752    5.8831    0.2973 H   0  0  0  0  0  0  0  0  0  0  0  0
    2.3821    4.0542    1.4729 C   0  0  0  0  0  0  0  0  0  0  0  0
    2.6646    4.5617    2.4076 H   0  0  0  0  0  0  0  0  0  0  0  0
    2.2260    2.6634    1.4512 C   0  0  0  0  0  0  0  0  0  0  0  0
    2.3778    2.0890    2.3770 H   0  0  0  0  0  0  0  0  0  0  0  0
    0.9040   -0.1313    1.9852 C   0  0  0  0  0  0  0  0  0  0  0  0
    1.7043   -0.3662    3.1215 C   0  0  0  0  0  0  0  0  0  0  0  0
    2.8004   -0.3739    3.0138 H   0  0  0  0  0  0  0  0  0  0  0  0
    1.1198   -0.6114    4.3722 C   0  0  0  0  0  0  0  0  0  0  0  0
    1.7589   -0.7978    5.2485 H   0  0  0  0  0  0  0  0  0  0  0  0
   -0.2785   -0.6240    4.4984 C   0  0  0  0  0  0  0  0  0  0  0  0
   -0.7449   -0.8175    5.4763 H   0  0  0  0  0  0  0  0  0  0  0  0
   -1.0874   -0.3991    3.3757 C   0  0  0  0  0  0  0  0  0  0  0  0
   -2.1827   -0.4258    3.4748 H   0  0  0  0  0  0  0  0  0  0  0  0
   -0.5158   -0.1531    2.1097 C   0  0  0  0  0  0  0  0  0  0  0  0
   -3.2277   -0.5477    1.1091 C   0  0  0  0  0  0  0  0  0  0  0  0
   -3.6484   -1.8813    0.8431 C   0  0  0  0  0  0  0  0  0  0  0  0
   -4.9465   -2.2507    1.2541 C   0  0  0  0  0  0  0  0  0  0  0  0
   -5.2876   -3.2788    1.0530 H   0  0  0  0  0  0  0  0  0  0  0  0
   -5.8099   -1.3459    1.8871 C   0  0  0  0  0  0  0  0  0  0  0  0
   -6.8186   -1.6694    2.1865 H   0  0  0  0  0  0  0  0  0  0  0  0
   -5.3921   -0.0272    2.1223 C   0  0  0  0  0  0  0  0  0  0  0  0
   -6.0661    0.6955    2.6068 H   0  0  0  0  0  0  0  0  0  0  0  0
   -4.1060    0.3667    1.7300 C   0  0  0  0  0  0  0  0  0  0  0  0
   -3.7717    1.4019    1.9002 H   0  0  0  0  0  0  0  0  0  0  0  0
   -1.7164    1.8120    0.3312 C   0  0  0  0  0  0  0  0  0  0  0  0
   -2.2876    2.2716   -0.8923 C   0  0  0  0  0  0  0  0  0  0  0  0
   -2.3094    3.6606   -1.1235 C   0  0  0  0  0  0  0  0  0  0  0  0
   -2.7360    4.0399   -2.0630 H   0  0  0  0  0  0  0  0  0  0  0  0
   -1.8005    4.5729   -0.1863 C   0  0  0  0  0  0  0  0  0  0  0  0
   -1.8295    5.6516   -0.4038 H   0  0  0  0  0  0  0  0  0  0  0  0
   -1.2559    4.1111    1.0189 C   0  0  0  0  0  0  0  0  0  0  0  0
   -0.8489    4.8167    1.7580 H   0  0  0  0  0  0  0  0  0  0  0  0
   -1.2146    2.7336    1.2722 C   0  0  0  0  0  0  0  0  0  0  0  0
   -0.7730    2.3652    2.2096 H   0  0  0  0  0  0  0  0  0  0  0  0
    2.3328   -2.8781    0.5712 C   0  0  0  0  0  0  0  0  0  0  0  0
    1.6600   -2.5998   -0.2775 H   0  0  0  0  0  0  0  0  0  0  0  0
    1.7315   -2.6542    1.4795 H   0  0  0  0  0  0  0  0  0  0  0  0
    2.6154   -4.3761    0.5087 C   0  0  0  0  0  0  0  0  0  0  0  0
    3.2042   -4.7275    1.3808 H   0  0  0  0  0  0  0  0  0  0  0  0
    3.1690   -4.6517   -0.4115 H   0  0  0  0  0  0  0  0  0  0  0  0
    1.6622   -4.9402    0.5031 H   0  0  0  0  0  0  0  0  0  0  0  0
    1.2774    2.0772   -2.2486 C   0  0  0  0  0  0  0  0  0  0  0  0
    0.8782    2.8599   -2.9254 H   0  0  0  0  0  0  0  0  0  0  0  0
    0.4355    1.3641   -2.0891 H   0  0  0  0  0  0  0  0  0  0  0  0
    2.4375    1.3401   -2.9304 C   0  0  0  0  0  0  0  0  0  0  0  0
    2.8437    0.5367   -2.2825 H   0  0  0  0  0  0  0  0  0  0  0  0
    3.2694    2.0339   -3.1676 H   0  0  0  0  0  0  0  0  0  0  0  0
    2.0944    0.8592   -3.8676 H   0  0  0  0  0  0  0  0  0  0  0  0
   -2.7707   -2.8951    0.1412 C   0  0  0  0  0  0  0  0  0  0  0  0
   -2.3115   -2.4341   -0.7613 H   0  0  0  0  0  0  0  0  0  0  0  0
   -3.4166   -3.7163   -0.2311 H   0  0  0  0  0  0  0  0  0  0  0  0
   -1.6564   -3.4892    1.0151 C   0  0  0  0  0  0  0  0  0  0  0  0
   -2.0662   -3.9904    1.9156 H   0  0  0  0  0  0  0  0  0  0  0  0
   -0.9496   -2.7088    1.3627 H   0  0  0  0  0  0  0  0  0  0  0  0
   -1.0703   -4.2312    0.4364 H   0  0  0  0  0  0  0  0  0  0  0  0
   -2.8635    1.2904   -1.8916 C   0  0  0  0  0  0  0  0  0  0  0  0
   -3.7786    0.8371   -1.4471 H   0  0  0  0  0  0  0  0  0  0  0  0
   -2.1607    0.4306   -1.9938 H   0  0  0  0  0  0  0  0  0  0  0  0
   -3.1790    1.8307   -3.2835 C   0  0  0  0  0  0  0  0  0  0  0  0
   -3.5144    1.0060   -3.9416 H   0  0  0  0  0  0  0  0  0  0  0  0
   -2.2817    2.2838   -3.7528 H   0  0  0  0  0  0  0  0  0  0  0  0
   -3.9811    2.5968   -3.2697 H   0  0  0  0  0  0  0  0  0  0  0  0
  1  3  1  0  0  0  0
  1 23  1  0  0  0  0
  2 33  1  0  0  0  0
  2 32  1  0  0  0  0
  3  4  1  0  0  0  0
  4  5  2  0  0  0  0
  4 53  1  0  0  0  0
  5  6  1  0  0  0  0
  7  8  1  0  0  0  0
  7  5  1  0  0  0  0
  9  7  2  0  0  0  0
 10  9  1  0  0  0  0
 11  9  1  0  0  0  0
 11  3  2  0  0  0  0
 12 11  1  0  0  0  0
 13  1  1  0  0  0  0
 13 21  1  0  0  0  0
 14 15  1  0  0  0  0
 14 13  2  0  0  0  0
 15 17  2  0  0  0  0
 16 15  1  0  0  0  0
 17 18  1  0  0  0  0
 17 19  1  0  0  0  0
 19 20  1  0  0  0  0
 21 19  2  0  0  0  0
 21 22  1  0  0  0  0
 23 32  2  0  0  0  0
 23 24  1  0  0  0  0
 24 26  2  0  0  0  0
 25 24  1  0  0  0  0
 26 28  1  0  0  0  0
 26 27  1  0  0  0  0
 28 29  1  0  0  0  0
 30 31  1  0  0  0  0
 30 28  2  0  0  0  0
 32 30  1  0  0  0  0
 33 41  1  0  0  0  0
 34 33  2  0  0  0  0
 34 35  1  0  0  0  0
 35 37  2  0  0  0  0
 36 35  1  0  0  0  0
 37 39  1  0  0  0  0
 37 38  1  0  0  0  0
 39 40  1  0  0  0  0
 41 42  1  0  0  0  0
 41 39  2  0  0  0  0
 43  2  1  0  0  0  0
 43 51  1  0  0  0  0
 44 43  2  0  0  0  0
 45 44  1  0  0  0  0
 45 47  2  0  0  0  0
 46 45  1  0  0  0  0
 47 49  1  0  0  0  0
 48 47  1  0  0  0  0
 49 51  2  0  0  0  0
 49 50  1  0  0  0  0
 51 52  1  0  0  0  0
 53 55  1  0  0  0  0
 54 53  1  0  0  0  0
 56 53  1  0  0  0  0
 56 57  1  0  0  0  0
 58 56  1  0  0  0  0
 59 56  1  0  0  0  0
 60 62  1  0  0  0  0
 60 14  1  0  0  0  0
 61 60  1  0  0  0  0
 63 64  1  0  0  0  0
 63 60  1  0  0  0  0
 65 63  1  0  0  0  0
 66 63  1  0  0  0  0
 67 34  1  0  0  0  0
 67 70  1  0  0  0  0
 68 67  1  0  0  0  0
 69 67  1  0  0  0  0
 70 72  1  0  0  0  0
 70 71  1  0  0  0  0
 73 70  1  0  0  0  0
 74 75  1  0  0  0  0
 74 44  1  0  0  0  0
 76 74  1  0  0  0  0
 77 80  1  0  0  0  0
 77 74  1  0  0  0  0
 78 77  1  0  0  0  0
 79 77  1  0  0  0  0
M  END
