1,2
q = 0.0, confidence = 0.994

 65 68  0  0  0  0  0  0  0  0999 V2000
    1.3715    0.3060   -0.0204 P   0  0  0  0  0  0  0  0  0  0  0  0
   -1.3716    0.3059   -0.0204 P   0  0  0  0  0  0  0  0  0  0  0  0
    2.6585    1.9563    2.1305 O   0  0  0  0  0  0  0  0  0  0  0  0
    3.1769   -1.7895   -0.7616 O   0  0  0  0  0  0  0  0  0  0  0  0
   -2.6586    1.9565    2.1303 O   0  0  0  0  0  0  0  0  0  0  0  0
   -3.1764   -1.7901   -0.7616 O   0  0  0  0  0  0  0  0  0  0  0  0
   -0.0001    1.1743    0.9030 C   0  0  0  0  0  0  0  0  0  0  0  0
   -0.0001    2.2217    0.5386 H   0  0  0  0  0  0  0  0  0  0  0  0
   -0.0001    1.1972    2.0079 H   0  0  0  0  0  0  0  0  0  0  0  0
    2.7662    1.4905   -0.1830 C   0  0  0  0  0  0  0  0  0  0  0  0
    3.2852    2.1848    0.9421 C   0  0  0  0  0  0  0  0  0  0  0  0
    4.3813    3.0551    0.7876 C   0  0  0  0  0  0  0  0  0  0  0  0
    4.7895    3.6015    1.6483 H   0  0  0  0  0  0  0  0  0  0  0  0
    4.9581    3.2290   -0.4815 C   0  0  0  0  0  0  0  0  0  0  0  0
    5.8141    3.9126   -0.5902 H   0  0  0  0  0  0  0  0  0  0  0  0
    4.4551    2.5476   -1.5973 C   0  0  0  0  0  0  0  0  0  0  0  0
    4.9093    2.6865   -2.5889 H   0  0  0  0  0  0  0  0  0  0  0  0
    3.3608    1.6823   -1.4408 C   0  0  0  0  0  0  0  0  0  0  0  0
    2.9591    1.1339   -2.3044 H   0  0  0  0  0  0  0  0  0  0  0  0
    3.1838    2.5424    3.3061 C   0  0  0  0  0  0  0  0  0  0  0  0
    4.2386    2.2362    3.4821 H   0  0  0  0  0  0  0  0  0  0  0  0
    2.5598    2.1755    4.1421 H   0  0  0  0  0  0  0  0  0  0  0  0
    3.1319    3.6537    3.2749 H   0  0  0  0  0  0  0  0  0  0  0  0
    2.0409   -0.9701    1.1228 C   0  0  0  0  0  0  0  0  0  0  0  0
    2.8787   -1.9648    0.5484 C   0  0  0  0  0  0  0  0  0  0  0  0
    3.3477   -3.0363    1.3331 C   0  0  0  0  0  0  0  0  0  0  0  0
    3.9796   -3.8160    0.8877 H   0  0  0  0  0  0  0  0  0  0  0  0
    3.0089   -3.1022    2.6932 C   0  0  0  0  0  0  0  0  0  0  0  0
    3.3800   -3.9430    3.2990 H   0  0  0  0  0  0  0  0  0  0  0  0
    2.2108   -2.1103    3.2795 C   0  0  0  0  0  0  0  0  0  0  0  0
    1.9511   -2.1609    4.3471 H   0  0  0  0  0  0  0  0  0  0  0  0
    1.7356   -1.0516    2.4897 C   0  0  0  0  0  0  0  0  0  0  0  0
    1.1136   -0.2717    2.9478 H   0  0  0  0  0  0  0  0  0  0  0  0
    3.8261   -2.8273   -1.4784 C   0  0  0  0  0  0  0  0  0  0  0  0
    4.8642   -2.9896   -1.1130 H   0  0  0  0  0  0  0  0  0  0  0  0
    3.8489   -2.4955   -2.5318 H   0  0  0  0  0  0  0  0  0  0  0  0
    3.2566   -3.7795   -1.4061 H   0  0  0  0  0  0  0  0  0  0  0  0
   -2.7663    1.4904   -0.1832 C   0  0  0  0  0  0  0  0  0  0  0  0
   -3.2853    2.1849    0.9419 C   0  0  0  0  0  0  0  0  0  0  0  0
   -4.3814    3.0551    0.7873 C   0  0  0  0  0  0  0  0  0  0  0  0
   -4.7897    3.6017    1.6478 H   0  0  0  0  0  0  0  0  0  0  0  0
   -4.9582    3.2289   -0.4818 C   0  0  0  0  0  0  0  0  0  0  0  0
   -5.8142    3.9124   -0.5907 H   0  0  0  0  0  0  0  0  0  0  0  0
   -4.4552    2.5473   -1.5975 C   0  0  0  0  0  0  0  0  0  0  0  0
   -4.9095    2.6861   -2.5892 H   0  0  0  0  0  0  0  0  0  0  0  0
   -3.3609    1.6820   -1.4409 C   0  0  0  0  0  0  0  0  0  0  0  0
   -2.9592    1.1335   -2.3045 H   0  0  0  0  0  0  0  0  0  0  0  0
   -3.1838    2.5430    3.3058 C   0  0  0  0  0  0  0  0  0  0  0  0
   -3.1318    3.6543    3.2743 H   0  0  0  0  0  0  0  0  0  0  0  0
   -2.5597    2.1763    4.1418 H   0  0  0  0  0  0  0  0  0  0  0  0
   -4.2385    2.2369    3.4820 H   0  0  0  0  0  0  0  0  0  0  0  0
   -2.0410   -0.9701    1.1228 C   0  0  0  0  0  0  0  0  0  0  0  0
   -2.8784   -1.9651    0.5485 C   0  0  0  0  0  0  0  0  0  0  0  0
   -3.3474   -3.0366    1.3333 C   0  0  0  0  0  0  0  0  0  0  0  0
   -3.9790   -3.8165    0.8879 H   0  0  0  0  0  0  0  0  0  0  0  0
   -3.0088   -3.1021    2.6935 C   0  0  0  0  0  0  0  0  0  0  0  0
   -3.3799   -3.9428    3.2994 H   0  0  0  0  0  0  0  0  0  0  0  0
   -2.2111   -2.1098    3.2798 C   0  0  0  0  0  0  0  0  0  0  0  0
   -1.9518   -2.1601    4.3475 H   0  0  0  0  0  0  0  0  0  0  0  0
   -1.7361   -1.0512    2.4898 C   0  0  0  0  0  0  0  0  0  0  0  0
   -1.1144   -0.2710    2.9479 H   0  0  0  0  0  0  0  0  0  0  0  0
   -3.8256   -2.8281   -1.4782 C   0  0  0  0  0  0  0  0  0  0  0  0
   -3.2560   -3.7802   -1.4058 H   0  0  0  0  0  0  0  0  0  0  0  0
   -3.8485   -2.4964   -2.5316 H   0  0  0  0  0  0  0  0  0  0  0  0
   -4.8636   -2.9905   -1.1127 H   0  0  0  0  0  0  0  0  0  0  0  0
  1  7  1  0  0  0  0
  1 24  1  0  0  0  0
  2  7  1  0  0  0  0
  2 52  1  0  0  0  0
  3 20  1  0  0  0  0
  4 25  1  0  0  0  0
  5 48  1  0  0  0  0
  6 53  1  0  0  0  0
  7  9  1  0  0  0  0
  8  7  1  0  0  0  0
 10  1  1  0  0  0  0
 10 11  1  0  0  0  0
 11  3  1  0  0  0  0
 12 11  2  0  0  0  0
 12 13  1  0  0  0  0
 14 12  1  0  0  0  0
 15 14  1  0  0  0  0
 16 18  1  0  0  0  0
 16 14  2  0  0  0  0
 17 16  1  0  0  0  0
 18 10  2  0  0  0  0
 19 18  1  0  0  0  0
 20 21  1  0  0  0  0
 20 22  1  0  0  0  0
 23 20  1  0  0  0  0
 24 32  1  0  0  0  0
 25 24  2  0  0  0  0
 25 26  1  0  0  0  0
 26 28  2  0  0  0  0
 27 26  1  0  0  0  0
 28 30  1  0  0  0  0
 28 29  1  0  0  0  0
 30 31  1  0  0  0  0
 32 33  1  0  0  0  0
 32 30  2  0  0  0  0
 34 37  1  0  0  0  0
 34 35  1  0  0  0  0
 34  4  1  0  0  0  0
 36 34  1  0  0  0  0
 38  2  1  0  0  0  0
 38 39  1  0  0  0  0
 39  5  1  0  0  0  0
 40 39  2  0  0  0  0
 40 41  1  0  0  0  0
 42 40  1  0  0  0  0
 43 42  1  0  0  0  0
 44 46  1  0  0  0  0
 44 42  2  0  0  0  0
 45 44  1  0  0  0  0
 46 38  2  0  0  0  0
 47 46  1  0  0  0  0
 48 51  1  0  0  0  0
 48 50  1  0  0  0  0
 49 48  1  0  0  0  0
 52 60  1  0  0  0  0
 53 52  2  0  0  0  0
 53 54  1  0  0  0  0
 54 56  2  0  0  0  0
 55 54  1  0  0  0  0
 56 58  1  0  0  0  0
 56 57  1  0  0  0  0
 58 59  1  0  0  0  0
 60 61  1  0  0  0  0
 60 58  2  0  0  0  0
 62 63  1  0  0  0  0
 62 65  1  0  0  0  0
 62  6  1  0  0  0  0
 64 62  1  0  0  0  0
M  END
