1,2
q = 0.0, confidence = 0.99

 27 26  0  0  0  0  0  0  0  0999 V2000
    1.5301   -1.2019    0.9948 P   0  0  0  0  0  0  0  0  0  0  0  0
    1.1853    1.1041   -1.2908 P   0  0  0  0  0  0  0  0  0  0  0  0
    1.2998   -1.9133    2.7014 C   0  0  0  0  0  0  0  0  0  0  0  0
    2.2041   -2.4374    3.0782 H   0  0  0  0  0  0  0  0  0  0  0  0
    0.4482   -2.6222    2.6804 H   0  0  0  0  0  0  0  0  0  0  0  0
    1.0393   -1.0937    3.4001 H   0  0  0  0  0  0  0  0  0  0  0  0
    2.2698   -2.6964    0.1597 C   0  0  0  0  0  0  0  0  0  0  0  0
    3.1307   -3.1285    0.7139 H   0  0  0  0  0  0  0  0  0  0  0  0
    2.5933   -2.4197   -0.8630 H   0  0  0  0  0  0  0  0  0  0  0  0
    1.4792   -3.4669    0.0579 H   0  0  0  0  0  0  0  0  0  0  0  0
    3.0821   -0.1978    1.3080 C   0  0  0  0  0  0  0  0  0  0  0  0
    2.8080    0.5494    2.0853 H   0  0  0  0  0  0  0  0  0  0  0  0
    3.8631   -0.8545    1.7528 H   0  0  0  0  0  0  0  0  0  0  0  0
    3.6483    0.5252    0.0740 C   0  0  0  0  0  0  0  0  0  0  0  0
    3.8631   -0.2175   -0.7272 H   0  0  0  0  0  0  0  0  0  0  0  0
    4.6403    0.9466    0.3473 H   0  0  0  0  0  0  0  0  0  0  0  0
    2.7872    1.6650   -0.4979 C   0  0  0  0  0  0  0  0  0  0  0  0
    3.3790    2.2526   -1.2350 H   0  0  0  0  0  0  0  0  0  0  0  0
    2.4980    2.3636    0.3177 H   0  0  0  0  0  0  0  0  0  0  0  0
    0.5806    2.7394   -1.9478 C   0  0  0  0  0  0  0  0  0  0  0  0
    1.3358    3.2640   -2.5715 H   0  0  0  0  0  0  0  0  0  0  0  0
    0.2981    3.3920   -1.0982 H   0  0  0  0  0  0  0  0  0  0  0  0
   -0.3307    2.5603   -2.5529 H   0  0  0  0  0  0  0  0  0  0  0  0
    1.8497    0.3942   -2.8824 C   0  0  0  0  0  0  0  0  0  0  0  0
    2.5599    1.0764   -3.3968 H   0  0  0  0  0  0  0  0  0  0  0  0
    0.9990    0.1799   -3.5592 H   0  0  0  0  0  0  0  0  0  0  0  0
    2.3537   -0.5694   -2.6721 H   0  0  0  0  0  0  0  0  0  0  0  0
  1 11  1  0  0  0  0
  1  3  1  0  0  0  0
  2 17  1  0  0  0  0
  3  4  1  0  0  0  0
  3  6  1  0  0  0  0
  5  3  1  0  0  0  0
  7  8  1  0  0  0  0
  7  1  1  0  0  0  0
  9  7  1  0  0  0  0
 10  7  1  0  0  0  0
 11 13  1  0  0  0  0
 11 12  1  0  0  0  0
 14 16  1  0  0  0  0
 14 11  1  0  0  0  0
 15 14  1  0  0  0  0
 17 14  1  0  0  0  0
 17 19  1  0  0  0  0
 18 17  1  0  0  0  0
 20  2  1  0  0  0  0
 20 22  1  0  0  0  0
 21 20  1  0  0  0  0
 23 20  1  0  0  0  0
 24 27  1  0  0  0  0
 24  2  1  0  0  0  0
 25 24  1  0  0  0  0
 26 24  1  0  0  0  0
M  END
