1,2
q = 0.0, confidence = 0.994

 72 75  0  0  0  0  0  0  0  0999 V2000
   -1.0904    1.3976    0.0711 P   0  0  0  0  0  0  0  0  0  0  0  0
   -1.3786   -1.2476    0.0615 P   0  0  0  0  0  0  0  0  0  0  0  0
    4.8924   -0.1514    0.7393 Si  0  0  0  0  0  0  0  0  0  0  0  0
    6.2171    0.3440    1.6172 O   0  0  0  0  0  0  0  0  0  0  0  0
    5.3377   -1.6334    0.0922 O   0  0  0  0  0  0  0  0  0  0  0  0
   -0.4703   -0.0150    0.8907 N   0  0  0  0  0  0  0  0  0  0  0  0
    4.6045    0.9863   -0.4481 O   0  0  0  0  0  0  0  0  0  0  0  0
    0.7520   -0.1198    1.6898 C   0  0  0  0  0  0  0  0  0  0  0  0
    0.6440   -0.9666    2.4024 H   0  0  0  0  0  0  0  0  0  0  0  0
    0.8192    0.7968    2.3173 H   0  0  0  0  0  0  0  0  0  0  0  0
   -2.0612    2.0096    2.6422 C   0  0  0  0  0  0  0  0  0  0  0  0
   -1.8644    0.9548    2.8846 H   0  0  0  0  0  0  0  0  0  0  0  0
    0.4509    2.2330   -2.0960 C   0  0  0  0  0  0  0  0  0  0  0  0
   -0.3212    1.7295   -2.6996 H   0  0  0  0  0  0  0  0  0  0  0  0
   -2.3198   -2.2144    1.2819 C   0  0  0  0  0  0  0  0  0  0  0  0
   -1.7430    2.4994    1.3606 C   0  0  0  0  0  0  0  0  0  0  0  0
    0.2898    2.3074   -0.6978 C   0  0  0  0  0  0  0  0  0  0  0  0
   -0.2033   -2.4136   -0.7070 C   0  0  0  0  0  0  0  0  0  0  0  0
   -2.1077   -2.1290    2.6720 C   0  0  0  0  0  0  0  0  0  0  0  0
   -1.3325   -1.4620    3.0764 H   0  0  0  0  0  0  0  0  0  0  0  0
   -3.8972   -3.7366    3.0327 C   0  0  0  0  0  0  0  0  0  0  0  0
   -4.5158   -4.3338    3.7198 H   0  0  0  0  0  0  0  0  0  0  0  0
   -2.0393    3.8355    1.0161 C   0  0  0  0  0  0  0  0  0  0  0  0
   -1.8297    4.1992   -0.0013 H   0  0  0  0  0  0  0  0  0  0  0  0
    0.3371   -2.0706   -1.9640 C   0  0  0  0  0  0  0  0  0  0  0  0
    0.0093   -1.1427   -2.4587 H   0  0  0  0  0  0  0  0  0  0  0  0
   -2.8965   -2.8950    3.5442 C   0  0  0  0  0  0  0  0  0  0  0  0
   -2.7301   -2.8302    4.6302 H   0  0  0  0  0  0  0  0  0  0  0  0
    2.3344    3.6129   -0.5174 C   0  0  0  0  0  0  0  0  0  0  0  0
    3.0744    4.1463    0.0972 H   0  0  0  0  0  0  0  0  0  0  0  0
    2.0378   -0.2877    0.8700 C   0  0  0  0  0  0  0  0  0  0  0  0
    2.0729    0.4963    0.0888 H   0  0  0  0  0  0  0  0  0  0  0  0
    1.9944   -1.2556    0.3320 H   0  0  0  0  0  0  0  0  0  0  0  0
   -2.6392    2.8661    3.5903 C   0  0  0  0  0  0  0  0  0  0  0  0
   -2.8810    2.4859    4.5943 H   0  0  0  0  0  0  0  0  0  0  0  0
   -3.3408   -3.0430    0.7659 C   0  0  0  0  0  0  0  0  0  0  0  0
   -3.5389   -3.0448   -0.3207 H   0  0  0  0  0  0  0  0  0  0  0  0
    3.3043   -0.2032    1.7334 C   0  0  0  0  0  0  0  0  0  0  0  0
    3.3576   -1.0442    2.4598 H   0  0  0  0  0  0  0  0  0  0  0  0
    3.2905    0.7274    2.3443 H   0  0  0  0  0  0  0  0  0  0  0  0
    1.6629   -4.1089   -1.9376 C   0  0  0  0  0  0  0  0  0  0  0  0
    2.3911   -4.7768   -2.4228 H   0  0  0  0  0  0  0  0  0  0  0  0
    1.2217    3.0174    0.0898 C   0  0  0  0  0  0  0  0  0  0  0  0
    1.0777    3.0994    1.1784 H   0  0  0  0  0  0  0  0  0  0  0  0
   -2.9178    4.2012    3.2557 C   0  0  0  0  0  0  0  0  0  0  0  0
   -3.3763    4.8699    3.9998 H   0  0  0  0  0  0  0  0  0  0  0  0
   -4.1206   -3.8044    1.6470 C   0  0  0  0  0  0  0  0  0  0  0  0
   -4.9213   -4.4445    1.2471 H   0  0  0  0  0  0  0  0  0  0  0  0
    1.2726   -2.9171   -2.5727 C   0  0  0  0  0  0  0  0  0  0  0  0
    1.6883   -2.6532   -3.5567 H   0  0  0  0  0  0  0  0  0  0  0  0
    2.5026    3.5274   -1.9098 C   0  0  0  0  0  0  0  0  0  0  0  0
    3.3712    4.0077   -2.3855 H   0  0  0  0  0  0  0  0  0  0  0  0
    1.1180   -4.4553   -0.6905 C   0  0  0  0  0  0  0  0  0  0  0  0
    1.4169   -5.3932   -0.1983 H   0  0  0  0  0  0  0  0  0  0  0  0
    0.1809   -3.6120   -0.0736 C   0  0  0  0  0  0  0  0  0  0  0  0
   -0.2602   -3.8877    0.8965 H   0  0  0  0  0  0  0  0  0  0  0  0
   -2.6247    4.6810    1.9679 C   0  0  0  0  0  0  0  0  0  0  0  0
   -2.8603    5.7217    1.6996 H   0  0  0  0  0  0  0  0  0  0  0  0
    4.4760   -2.4710   -0.6542 C   0  0  0  0  0  0  0  0  0  0  0  0
    5.0841   -3.2368   -1.1797 H   0  0  0  0  0  0  0  0  0  0  0  0
    3.8934   -1.9120   -1.4206 H   0  0  0  0  0  0  0  0  0  0  0  0
    3.7466   -3.0069   -0.0052 H   0  0  0  0  0  0  0  0  0  0  0  0
    1.5596    2.8478   -2.6968 C   0  0  0  0  0  0  0  0  0  0  0  0
    1.6806    2.8023   -3.7895 H   0  0  0  0  0  0  0  0  0  0  0  0
    7.1346   -0.4879    2.3020 C   0  0  0  0  0  0  0  0  0  0  0  0
    8.1195    0.0224    2.3451 H   0  0  0  0  0  0  0  0  0  0  0  0
    7.2666   -1.4678    1.7940 H   0  0  0  0  0  0  0  0  0  0  0  0
    6.8048   -0.6779    3.3490 H   0  0  0  0  0  0  0  0  0  0  0  0
    5.5785    1.3821   -1.3979 C   0  0  0  0  0  0  0  0  0  0  0  0
    6.4461    1.8792   -0.9105 H   0  0  0  0  0  0  0  0  0  0  0  0
    5.1093    2.0982   -2.1030 H   0  0  0  0  0  0  0  0  0  0  0  0
    5.9629    0.5173   -1.9841 H   0  0  0  0  0  0  0  0  0  0  0  0
  1  6  1  0  0  0  0
  1 16  1  0  0  0  0
  2  6  1  0  0  0  0
  2 15  1  0  0  0  0
  3  4  1  0  0  0  0
  3 38  1  0  0  0  0
  4 65  1  0  0  0  0
  5  3  1  0  0  0  0
  6  8  1  0  0  0  0
  7  3  1  0  0  0  0
  8 10  1  0  0  0  0
  8  9  1  0  0  0  0
 11 12  1  0  0  0  0
 11 34  1  0  0  0  0
 13 17  1  0  0  0  0
 14 13  1  0  0  0  0
 15 19  1  0  0  0  0
 16 11  2  0  0  0  0
 17  1  1  0  0  0  0
 17 43  2  0  0  0  0
 18 55  1  0  0  0  0
 18  2  1  0  0  0  0
 19 20  1  0  0  0  0
 19 27  2  0  0  0  0
 21 27  1  0  0  0  0
 21 22  1  0  0  0  0
 23 16  1  0  0  0  0
 23 57  2  0  0  0  0
 24 23  1  0  0  0  0
 25 18  2  0  0  0  0
 26 25  1  0  0  0  0
 27 28  1  0  0  0  0
 29 43  1  0  0  0  0
 29 30  1  0  0  0  0
 31  8  1  0  0  0  0
 31 38  1  0  0  0  0
 32 31  1  0  0  0  0
 33 31  1  0  0  0  0
 34 35  1  0  0  0  0
 36 15  2  0  0  0  0
 36 47  1  0  0  0  0
 37 36  1  0  0  0  0
 38 40  1  0  0  0  0
 38 39  1  0  0  0  0
 41 53  1  0  0  0  0
 42 41  1  0  0  0  0
 43 44  1  0  0  0  0
 45 34  2  0  0  0  0
 45 46  1  0  0  0  0
 47 21  2  0  0  0  0
 48 47  1  0  0  0  0
 49 25  1  0  0  0  0
 49 41  2  0  0  0  0
 50 49  1  0  0  0  0
 51 29  2  0  0  0  0
 52 51  1  0  0  0  0
 53 54  1  0  0  0  0
 53 55  2  0  0  0  0
 55 56  1  0  0  0  0
 57 45  1  0  0  0  0
 58 57  1  0  0  0  0
 59 62  1  0  0  0  0
 59  5  1  0  0  0  0
 60 59  1  0  0  0  0
 61 59  1  0  0  0  0
 63 13  2  0  0  0  0
 63 51  1  0  0  0  0
 64 63  1  0  0  0  0
 65 66  1  0  0  0  0
 65 68  1  0  0  0  0
 67 65  1  0  0  0  0
 69 70  1  0  0  0  0
 69  7  1  0  0  0  0
 71 69  1  0  0  0  0
 72 69  1  0  0  0  0
M  END
