1,2
q = 0.0, confidence = 0.992

 53 57  0  0  1  0  0  0  0  0999 V2000
   -1.7359   -0.5385    0.7824 P   0  0  1  0  0  0  0  0  0  0  0  0
    1.2012    0.2752    0.0365 P   0  0  0  0  0  0  0  0  0  0  0  0
   -0.3469    2.3975    0.9426 O   0  0  0  0  0  0  0  0  0  0  0  0
   -0.8413    0.4571    2.1006 C   0  0  1  0  0  0  0  0  0  0  0  0
   -0.4692   -0.2885    2.8307 H   0  0  0  0  0  0  0  0  0  0  0  0
    0.3554    1.2419    1.4274 C   0  0  1  0  0  0  0  0  0  0  0  0
    1.1987    1.8085    2.5679 C   0  0  0  0  0  0  0  0  0  0  0  0
    2.1300    1.3675    2.9440 H   0  0  0  0  0  0  0  0  0  0  0  0
    0.4793    2.8419    3.0520 C   0  0  0  0  0  0  0  0  0  0  0  0
    0.6837    3.4632    3.9344 H   0  0  0  0  0  0  0  0  0  0  0  0
   -0.8008    2.8551    2.2285 C   0  0  2  0  0  0  0  0  0  0  0  0
   -1.3548    3.8051    2.1263 H   0  0  0  0  0  0  0  0  0  0  0  0
   -1.6427    1.6249    2.7287 C   0  0  0  0  0  0  0  0  0  0  0  0
   -1.6965    1.5697    3.8327 H   0  0  0  0  0  0  0  0  0  0  0  0
   -2.6724    1.6833    2.3281 H   0  0  0  0  0  0  0  0  0  0  0  0
   -2.6744   -1.8105    1.6741 C   0  0  0  0  0  0  0  0  0  0  0  0
   -3.0468   -2.5909    0.9860 H   0  0  0  0  0  0  0  0  0  0  0  0
   -2.8592   -1.8736    3.0050 C   0  0  0  0  0  0  0  0  0  0  0  0
   -2.4713   -1.1103    3.6995 H   0  0  0  0  0  0  0  0  0  0  0  0
   -3.4122   -2.7136    3.4567 H   0  0  0  0  0  0  0  0  0  0  0  0
   -2.9974    0.5491    0.0183 C   0  0  0  0  0  0  0  0  0  0  0  0
   -2.6234    1.3194   -1.1016 C   0  0  0  0  0  0  0  0  0  0  0  0
   -1.6056    1.2241   -1.5091 H   0  0  0  0  0  0  0  0  0  0  0  0
   -3.5523    2.1847   -1.6942 C   0  0  0  0  0  0  0  0  0  0  0  0
   -3.2564    2.7827   -2.5691 H   0  0  0  0  0  0  0  0  0  0  0  0
   -4.8573    2.2784   -1.1828 C   0  0  0  0  0  0  0  0  0  0  0  0
   -5.5870    2.9524   -1.6569 H   0  0  0  0  0  0  0  0  0  0  0  0
   -5.2358    1.5028   -0.0756 C   0  0  0  0  0  0  0  0  0  0  0  0
   -6.2615    1.5645    0.3186 H   0  0  0  0  0  0  0  0  0  0  0  0
   -4.3088    0.6383    0.5269 C   0  0  0  0  0  0  0  0  0  0  0  0
   -4.6070    0.0217    1.3887 H   0  0  0  0  0  0  0  0  0  0  0  0
    1.7588    1.5679   -1.1321 C   0  0  0  0  0  0  0  0  0  0  0  0
    1.8307    1.2476   -2.5037 C   0  0  0  0  0  0  0  0  0  0  0  0
    1.5555    0.2327   -2.8367 H   0  0  0  0  0  0  0  0  0  0  0  0
    2.2792    2.2122   -3.4183 C   0  0  0  0  0  0  0  0  0  0  0  0
    2.3358    1.9574   -4.4873 H   0  0  0  0  0  0  0  0  0  0  0  0
    2.6532    3.4906   -2.9760 C   0  0  0  0  0  0  0  0  0  0  0  0
    3.0019    4.2446   -3.6983 H   0  0  0  0  0  0  0  0  0  0  0  0
    2.5793    3.8095   -1.6103 C   0  0  0  0  0  0  0  0  0  0  0  0
    2.8654    4.8130   -1.2601 H   0  0  0  0  0  0  0  0  0  0  0  0
    2.1321    2.8551   -0.6856 C   0  0  0  0  0  0  0  0  0  0  0  0
    2.0525    3.1206    0.3777 H   0  0  0  0  0  0  0  0  0  0  0  0
    2.7003   -0.3914    0.8570 C   0  0  0  0  0  0  0  0  0  0  0  0
    3.9134    0.3226    0.9076 C   0  0  0  0  0  0  0  0  0  0  0  0
    4.0035    1.2952    0.4012 H   0  0  0  0  0  0  0  0  0  0  0  0
    5.0120   -0.2181    1.5928 C   0  0  0  0  0  0  0  0  0  0  0  0
    5.9614    0.3376    1.6245 H   0  0  0  0  0  0  0  0  0  0  0  0
    4.9052   -1.4677    2.2249 C   0  0  0  0  0  0  0  0  0  0  0  0
    5.7712   -1.8908    2.7563 H   0  0  0  0  0  0  0  0  0  0  0  0
    3.6998   -2.1855    2.1629 C   0  0  0  0  0  0  0  0  0  0  0  0
    3.6193   -3.1746    2.6383 H   0  0  0  0  0  0  0  0  0  0  0  0
    2.5997   -1.6546    1.4748 C   0  0  0  0  0  0  0  0  0  0  0  0
    1.6601   -2.2233    1.3850 H   0  0  0  0  0  0  0  0  0  0  0  0
  1 16  1  1  0  0  0
  1  4  1  0  0  0  0
  2 43  1  0  0  0  0
  3  6  1  0  0  0  0
  3 11  1  0  0  0  0
  4 13  1  0  0  0  0
  4  5  1  1  0  0  0
  6  2  1  6  0  0  0
  6  4  1  0  0  0  0
  6  7  1  0  0  0  0
  7  8  1  0  0  0  0
  7  9  2  0  0  0  0
  9 10  1  0  0  0  0
 11 12  1  6  0  0  0
 11 13  1  0  0  0  0
 11  9  1  0  0  0  0
 13 14  1  0  0  0  0
 15 13  1  0  0  0  0
 16 18  2  0  0  0  0
 17 16  1  0  0  0  0
 18 20  1  0  0  0  0
 18 19  1  0  0  0  0
 21 30  1  0  0  0  0
 21  1  1  0  0  0  0
 22 21  2  0  0  0  0
 23 22  1  0  0  0  0
 24 26  2  0  0  0  0
 24 22  1  0  0  0  0
 25 24  1  0  0  0  0
 26 28  1  0  0  0  0
 27 26  1  0  0  0  0
 28 29  1  0  0  0  0
 28 30  2  0  0  0  0
 30 31  1  0  0  0  0
 32 41  1  0  0  0  0
 32  2  1  0  0  0  0
 33 32  2  0  0  0  0
 34 33  1  0  0  0  0
 35 37  2  0  0  0  0
 35 33  1  0  0  0  0
 36 35  1  0  0  0  0
 37 39  1  0  0  0  0
 38 37  1  0  0  0  0
 39 40  1  0  0  0  0
 39 41  2  0  0  0  0
 41 42  1  0  0  0  0
 43 44  2  0  0  0  0
 43 52  1  0  0  0  0
 44 46  1  0  0  0  0
 45 44  1  0  0  0  0
 46 47  1  0  0  0  0
 46 48  2  0  0  0  0
 48 49  1  0  0  0  0
 50 48  1  0  0  0  0
 50 51  1  0  0  0  0
 52 50  2  0  0  0  0
 53 52  1  0  0  0  0
M  END
