1,2
q = 0.0, confidence = 0.992

 53 57  0  0  1  0  0  0  0  0999 V2000
    2.1072   -0.3936    0.0744 P   0  0  0  0  0  0  0  0  0  0  0  0
    0.0724    1.9479   -0.3461 P   0  0  1  0  0  0  0  0  0  0  0  0
    2.7344    1.3603    0.3683 C   0  0  1  0  0  0  0  0  0  0  0  0
    1.5796    2.3833    0.6826 C   0  0  1  0  0  0  0  0  0  0  0  0
    1.2351    2.3297    1.7343 H   0  0  0  0  0  0  0  0  0  0  0  0
    2.2678    3.7262    0.3224 C   0  0  0  0  0  0  0  0  0  0  0  0
    2.3957    4.3856    1.2007 H   0  0  0  0  0  0  0  0  0  0  0  0
    1.7187    4.3005   -0.4467 H   0  0  0  0  0  0  0  0  0  0  0  0
    3.6395    3.1984   -0.2402 C   0  0  1  0  0  0  0  0  0  0  0  0
    4.1360    3.8436   -0.9861 H   0  0  0  0  0  0  0  0  0  0  0  0
    4.4345    2.7510    0.9781 C   0  0  0  0  0  0  0  0  0  0  0  0
    5.2251    3.3277    1.4764 H   0  0  0  0  0  0  0  0  0  0  0  0
    3.8507    1.6043    1.3809 C   0  0  0  0  0  0  0  0  0  0  0  0
    4.0327    1.0098    2.2844 H   0  0  0  0  0  0  0  0  0  0  0  0
    3.2549    1.9424   -0.8354 O   0  0  0  0  0  0  0  0  0  0  0  0
    2.5160   -1.2321    1.6549 C   0  0  0  0  0  0  0  0  0  0  0  0
    1.7765   -0.8446    2.7953 C   0  0  0  0  0  0  0  0  0  0  0  0
    1.0139   -0.0534    2.7113 H   0  0  0  0  0  0  0  0  0  0  0  0
    1.9945   -1.4768    4.0269 C   0  0  0  0  0  0  0  0  0  0  0  0
    1.4192   -1.1653    4.9116 H   0  0  0  0  0  0  0  0  0  0  0  0
    2.9378   -2.5140    4.1270 C   0  0  0  0  0  0  0  0  0  0  0  0
    3.1039   -3.0160    5.0918 H   0  0  0  0  0  0  0  0  0  0  0  0
    3.6625   -2.9122    2.9931 C   0  0  0  0  0  0  0  0  0  0  0  0
    4.3970   -3.7281    3.0667 H   0  0  0  0  0  0  0  0  0  0  0  0
    3.4569   -2.2743    1.7587 C   0  0  0  0  0  0  0  0  0  0  0  0
    4.0252   -2.5972    0.8742 H   0  0  0  0  0  0  0  0  0  0  0  0
    3.2456   -1.0227   -1.2019 C   0  0  0  0  0  0  0  0  0  0  0  0
    2.6994   -1.5603   -2.3839 C   0  0  0  0  0  0  0  0  0  0  0  0
    1.6058   -1.5830   -2.5098 H   0  0  0  0  0  0  0  0  0  0  0  0
    3.5431   -2.0312   -3.4012 C   0  0  0  0  0  0  0  0  0  0  0  0
    3.1118   -2.4503   -4.3224 H   0  0  0  0  0  0  0  0  0  0  0  0
    4.9354   -1.9560   -3.2442 C   0  0  0  0  0  0  0  0  0  0  0  0
    5.5990   -2.3232   -4.0413 H   0  0  0  0  0  0  0  0  0  0  0  0
    5.4848   -1.3989   -2.0764 C   0  0  0  0  0  0  0  0  0  0  0  0
    6.5766   -1.3234   -1.9633 H   0  0  0  0  0  0  0  0  0  0  0  0
    4.6470   -0.9282   -1.0567 C   0  0  0  0  0  0  0  0  0  0  0  0
    5.0826   -0.4713   -0.1556 H   0  0  0  0  0  0  0  0  0  0  0  0
   -1.2267    2.9823    0.4173 C   0  0  0  0  0  0  0  0  0  0  0  0
   -1.8616    2.4915    1.5770 C   0  0  0  0  0  0  0  0  0  0  0  0
   -1.6085    1.4876    1.9535 H   0  0  0  0  0  0  0  0  0  0  0  0
   -2.8398    3.2613    2.2188 C   0  0  0  0  0  0  0  0  0  0  0  0
   -3.3393    2.8716    3.1181 H   0  0  0  0  0  0  0  0  0  0  0  0
   -3.1957    4.5187    1.7029 C   0  0  0  0  0  0  0  0  0  0  0  0
   -3.9710    5.1185    2.2025 H   0  0  0  0  0  0  0  0  0  0  0  0
   -2.5715    5.0055    0.5442 C   0  0  0  0  0  0  0  0  0  0  0  0
   -2.8557    5.9859    0.1340 H   0  0  0  0  0  0  0  0  0  0  0  0
   -1.5870    4.2415   -0.1016 C   0  0  0  0  0  0  0  0  0  0  0  0
   -1.1169    4.6275   -1.0178 H   0  0  0  0  0  0  0  0  0  0  0  0
    0.3462    2.5745   -2.0294 C   0  0  0  0  0  0  0  0  0  0  0  0
    0.6683    3.6215   -2.1546 H   0  0  0  0  0  0  0  0  0  0  0  0
    0.1637    1.7863   -3.1043 C   0  0  0  0  0  0  0  0  0  0  0  0
   -0.1533    0.7357   -2.9886 H   0  0  0  0  0  0  0  0  0  0  0  0
    0.3259    2.1671   -4.1254 H   0  0  0  0  0  0  0  0  0  0  0  0
  1 16  1  0  0  0  0
  2 49  1  6  0  0  0
  2 38  1  0  0  0  0
  2  4  1  0  0  0  0
  3  1  1  6  0  0  0
  3  4  1  0  0  0  0
  3 13  1  0  0  0  0
  4  5  1  1  0  0  0
  6  4  1  0  0  0  0
  6  7  1  0  0  0  0
  8  6  1  0  0  0  0
  9 10  1  6  0  0  0
  9  6  1  0  0  0  0
  9 11  1  0  0  0  0
 11 13  2  0  0  0  0
 11 12  1  0  0  0  0
 13 14  1  0  0  0  0
 15  9  1  0  0  0  0
 15  3  1  0  0  0  0
 16 25  2  0  0  0  0
 16 17  1  0  0  0  0
 17 19  2  0  0  0  0
 18 17  1  0  0  0  0
 19 21  1  0  0  0  0
 19 20  1  0  0  0  0
 21 22  1  0  0  0  0
 23 24  1  0  0  0  0
 23 21  2  0  0  0  0
 25 23  1  0  0  0  0
 26 25  1  0  0  0  0
 27 36  1  0  0  0  0
 27  1  1  0  0  0  0
 28 27  2  0  0  0  0
 29 28  1  0  0  0  0
 30 32  2  0  0  0  0
 30 28  1  0  0  0  0
 31 30  1  0  0  0  0
 32 34  1  0  0  0  0
 33 32  1  0  0  0  0
 34 35  1  0  0  0  0
 34 36  2  0  0  0  0
 36 37  1  0  0  0  0
 38 39  1  0  0  0  0
 39 40  1  0  0  0  0
 39 41  2  0  0  0  0
 41 42  1  0  0  0  0
 43 44  1  0  0  0  0
 43 41  1  0  0  0  0
 45 43  2  0  0  0  0
 46 45  1  0  0  0  0
 47 38  2  0  0  0  0
 47 45  1  0  0  0  0
 48 47  1  0  0  0  0
 50 49  1  0  0  0  0
 51 52  1  0  0  0  0
 51 49  2  0  0  0  0
 53 51  1  0  0  0  0
M  END
