1,2
q = 0.0, confidence = 0.998

 68 75  0  0  0  0  0  0  0  0999 V2000
   -1.8106    0.5327   -0.3638 P   0  0  0  0  0  0  0  0  0  0  0  0
    1.3279    0.3083    0.2856 P   0  0  0  0  0  0  0  0  0  0  0  0
   -1.3571    1.5192   -1.6146 O   0  0  0  0  0  0  0  0  0  0  0  0
    0.8181    1.8625    0.0919 O   0  0  0  0  0  0  0  0  0  0  0  0
   -3.3702    0.1305   -0.6890 O   0  0  0  0  0  0  0  0  0  0  0  0
   -2.0116    1.7353    0.7476 O   0  0  0  0  0  0  0  0  0  0  0  0
    2.6125    0.3349   -0.7480 O   0  0  0  0  0  0  0  0  0  0  0  0
    2.0405    0.3212    1.7743 O   0  0  0  0  0  0  0  0  0  0  0  0
   -0.5148    0.9878   -2.5904 C   0  0  0  0  0  0  0  0  0  0  0  0
    0.7204    1.6248   -2.8471 C   0  0  0  0  0  0  0  0  0  0  0  0
    1.5299    1.0731   -3.8675 C   0  0  0  0  0  0  0  0  0  0  0  0
    1.1441   -0.0685   -4.5789 C   0  0  0  0  0  0  0  0  0  0  0  0
   -0.0819   -0.6898   -4.2922 C   0  0  0  0  0  0  0  0  0  0  0  0
   -0.9147   -0.1568   -3.3016 C   0  0  0  0  0  0  0  0  0  0  0  0
    1.2972    2.8915   -0.7059 C   0  0  0  0  0  0  0  0  0  0  0  0
    1.2005    2.8259   -2.1161 C   0  0  0  0  0  0  0  0  0  0  0  0
    1.6698    3.9423   -2.8445 C   0  0  0  0  0  0  0  0  0  0  0  0
    2.1955    5.0726   -2.2066 C   0  0  0  0  0  0  0  0  0  0  0  0
    2.2749    5.1086   -0.8059 C   0  0  0  0  0  0  0  0  0  0  0  0
    1.8281    4.0138   -0.0558 C   0  0  0  0  0  0  0  0  0  0  0  0
   -4.4198    1.0451   -0.6634 C   0  0  0  0  0  0  0  0  0  0  0  0
   -4.8507    1.6148    0.5602 C   0  0  0  0  0  0  0  0  0  0  0  0
   -6.0045    2.4290    0.5214 C   0  0  0  0  0  0  0  0  0  0  0  0
   -6.6877    2.6759   -0.6756 C   0  0  0  0  0  0  0  0  0  0  0  0
   -6.2284    2.1079   -1.8751 C   0  0  0  0  0  0  0  0  0  0  0  0
   -5.0914    1.2899   -1.8685 C   0  0  0  0  0  0  0  0  0  0  0  0
   -2.7285    1.3955    1.8970 C   0  0  0  0  0  0  0  0  0  0  0  0
   -4.1403    1.3595    1.8347 C   0  0  0  0  0  0  0  0  0  0  0  0
   -4.8325    1.0973    3.0373 C   0  0  0  0  0  0  0  0  0  0  0  0
   -4.1435    0.8625    4.2342 C   0  0  0  0  0  0  0  0  0  0  0  0
   -2.7389    0.8825    4.2584 C   0  0  0  0  0  0  0  0  0  0  0  0
   -2.0249    1.1494    3.0824 C   0  0  0  0  0  0  0  0  0  0  0  0
    3.8111   -0.3361   -0.5406 C   0  0  0  0  0  0  0  0  0  0  0  0
    4.6676    0.0493    0.5164 C   0  0  0  0  0  0  0  0  0  0  0  0
    5.9093   -0.6200    0.6115 C   0  0  0  0  0  0  0  0  0  0  0  0
    6.2744   -1.6173   -0.3002 C   0  0  0  0  0  0  0  0  0  0  0  0
    5.4023   -1.9700   -1.3438 C   0  0  0  0  0  0  0  0  0  0  0  0
    4.1640   -1.3290   -1.4631 C   0  0  0  0  0  0  0  0  0  0  0  0
    3.0406    1.2490    2.0612 C   0  0  0  0  0  0  0  0  0  0  0  0
    4.3213    1.1323    1.4700 C   0  0  0  0  0  0  0  0  0  0  0  0
    5.2936    2.0823    1.8598 C   0  0  0  0  0  0  0  0  0  0  0  0
    5.0082    3.0905    2.7884 C   0  0  0  0  0  0  0  0  0  0  0  0
    3.7303    3.1732    3.3653 C   0  0  0  0  0  0  0  0  0  0  0  0
    2.7433    2.2496    2.9971 C   0  0  0  0  0  0  0  0  0  0  0  0
    2.5040    1.5436   -4.0672 H   0  0  0  0  0  0  0  0  0  0  0  0
    1.8080   -0.4818   -5.3526 H   0  0  0  0  0  0  0  0  0  0  0  0
   -0.3931   -1.5953   -4.8332 H   0  0  0  0  0  0  0  0  0  0  0  0
   -1.8798   -0.6279   -3.0632 H   0  0  0  0  0  0  0  0  0  0  0  0
    1.5965    3.9142   -3.9420 H   0  0  0  0  0  0  0  0  0  0  0  0
    2.5404    5.9283   -2.8056 H   0  0  0  0  0  0  0  0  0  0  0  0
    2.6895    5.9884   -0.2916 H   0  0  0  0  0  0  0  0  0  0  0  0
    1.8934    4.0017    1.0407 H   0  0  0  0  0  0  0  0  0  0  0  0
   -6.3495    2.8929    1.4577 H   0  0  0  0  0  0  0  0  0  0  0  0
   -7.5778    3.3221   -0.6740 H   0  0  0  0  0  0  0  0  0  0  0  0
   -6.7567    2.2998   -2.8208 H   0  0  0  0  0  0  0  0  0  0  0  0
   -4.7152    0.8152   -2.7856 H   0  0  0  0  0  0  0  0  0  0  0  0
   -5.9315    1.0496    3.0153 H   0  0  0  0  0  0  0  0  0  0  0  0
   -4.7070    0.6452    5.1535 H   0  0  0  0  0  0  0  0  0  0  0  0
   -2.1956    0.6814    5.1934 H   0  0  0  0  0  0  0  0  0  0  0  0
   -0.9258    1.1697    3.0591 H   0  0  0  0  0  0  0  0  0  0  0  0
    6.5858   -0.3576    1.4384 H   0  0  0  0  0  0  0  0  0  0  0  0
    7.2422   -2.1286   -0.1910 H   0  0  0  0  0  0  0  0  0  0  0  0
    5.6808   -2.7566   -2.0606 H   0  0  0  0  0  0  0  0  0  0  0  0
    3.4485   -1.5821   -2.2575 H   0  0  0  0  0  0  0  0  0  0  0  0
    6.2915    2.0273    1.3998 H   0  0  0  0  0  0  0  0  0  0  0  0
    5.7872    3.8174    3.0618 H   0  0  0  0  0  0  0  0  0  0  0  0
    3.4990    3.9578    4.1009 H   0  0  0  0  0  0  0  0  0  0  0  0
    1.7333    2.2791    3.4300 H   0  0  0  0  0  0  0  0  0  0  0  0
  1  6  1  0  0  0  0
  2  8  1  0  0  0  0
  3  1  1  0  0  0  0
  4  2  1  0  0  0  0
  5 21  1  0  0  0  0
  5  1  1  0  0  0  0
  6 27  1  0  0  0  0
  7 33  1  0  0  0  0
  7  2  1  0  0  0  0
  8 39  1  0  0  0  0
  9  3  1  0  0  0  0
 10  9  1  0  0  0  0
 10 16  1  0  0  0  0
 11 10  2  0  0  0  0
 12 13  2  0  0  0  0
 12 11  1  0  0  0  0
 13 14  1  0  0  0  0
 14 48  1  0  0  0  0
 14  9  2  0  0  0  0
 15 20  1  0  0  0  0
 15  4  1  0  0  0  0
 16 15  2  0  0  0  0
 17 18  2  0  0  0  0
 17 16  1  0  0  0  0
 18 19  1  0  0  0  0
 19 51  1  0  0  0  0
 19 20  2  0  0  0  0
 20 52  1  0  0  0  0
 21 22  1  0  0  0  0
 22 28  1  0  0  0  0
 23 22  2  0  0  0  0
 23 53  1  0  0  0  0
 24 54  1  0  0  0  0
 24 23  1  0  0  0  0
 25 26  1  0  0  0  0
 25 24  2  0  0  0  0
 26 21  2  0  0  0  0
 27 32  1  0  0  0  0
 28 27  2  0  0  0  0
 28 29  1  0  0  0  0
 29 30  2  0  0  0  0
 30 31  1  0  0  0  0
 30 58  1  0  0  0  0
 31 59  1  0  0  0  0
 32 31  2  0  0  0  0
 33 34  1  0  0  0  0
 34 35  2  0  0  0  0
 34 40  1  0  0  0  0
 35 61  1  0  0  0  0
 36 62  1  0  0  0  0
 36 35  1  0  0  0  0
 37 36  2  0  0  0  0
 38 37  1  0  0  0  0
 38 33  2  0  0  0  0
 39 44  1  0  0  0  0
 40 41  1  0  0  0  0
 40 39  2  0  0  0  0
 41 42  2  0  0  0  0
 42 66  1  0  0  0  0
 42 43  1  0  0  0  0
 43 67  1  0  0  0  0
 44 43  2  0  0  0  0
 44 68  1  0  0  0  0
 45 11  1  0  0  0  0
 46 12  1  0  0  0  0
 47 13  1  0  0  0  0
 49 17  1  0  0  0  0
 50 18  1  0  0  0  0
 55 25  1  0  0  0  0
 56 26  1  0  0  0  0
 57 29  1  0  0  0  0
 60 32  1  0  0  0  0
 63 37  1  0  0  0  0
 64 38  1  0  0  0  0
 65 41  1  0  0  0  0
M  END
