1,2
q = -1.0

 65 69  0  0  0  0  0  0  0  0999 V2000
    0.1593   -1.1932   -0.3155 P   0  0  0  0  0  0  0  0  0  0  0  0
    1.9409    0.8095    0.0582 P   0  0  0  0  0  0  0  0  0  0  0  0
   -7.6981   -1.2883    0.3485 N   0  0  0  0  0  0  0  0  0  0  0  0
   -8.0377    3.1683    0.7827 N   0  0  0  0  0  0  0  0  0  0  0  0
    0.1142    3.8472    1.0859 N   0  0  0  0  0  0  0  0  0  0  0  0
    0.1733    0.5174    0.2205 C   0  0  0  0  0  0  0  0  0  0  0  0
   -0.8386    1.4744    0.5365 C   0  0  0  0  0  0  0  0  0  0  0  0
   -2.2622    1.3309    0.5932 C   0  0  0  0  0  0  0  0  0  0  0  0
   -3.1010    2.4930    0.7339 C   0  0  0  0  0  0  0  0  0  0  0  0
   -2.6261    3.4814    0.8246 H   0  0  0  0  0  0  0  0  0  0  0  0
   -4.4749    2.4060    0.7353 C   0  0  0  0  0  0  0  0  0  0  0  0
   -5.0836    3.3177    0.8285 H   0  0  0  0  0  0  0  0  0  0  0  0
   -5.1415    1.1389    0.6098 C   0  0  0  0  0  0  0  0  0  0  0  0
   -4.3098   -0.0290    0.5124 C   0  0  0  0  0  0  0  0  0  0  0  0
   -4.7889   -1.0171    0.4465 H   0  0  0  0  0  0  0  0  0  0  0  0
   -2.9369    0.0663    0.5052 C   0  0  0  0  0  0  0  0  0  0  0  0
   -2.3636   -0.8639    0.4492 H   0  0  0  0  0  0  0  0  0  0  0  0
   -6.5588    1.0375    0.5911 C   0  0  0  0  0  3  0  0  0  0  0  0
    2.2713    2.3540   -0.8779 C   0  0  0  0  0  0  0  0  0  0  0  0
    1.5281    2.5970   -2.0517 C   0  0  0  0  0  0  0  0  0  0  0  0
    0.7670    1.8769   -2.3827 H   0  0  0  0  0  0  0  0  0  0  0  0
    1.7364    3.7692   -2.7886 C   0  0  0  0  0  0  0  0  0  0  0  0
    1.1449    3.9525   -3.6979 H   0  0  0  0  0  0  0  0  0  0  0  0
    2.6900    4.7081   -2.3632 C   0  0  0  0  0  0  0  0  0  0  0  0
    2.8513    5.6305   -2.9409 H   0  0  0  0  0  0  0  0  0  0  0  0
    3.4261    4.4729   -1.1928 C   0  0  0  0  0  0  0  0  0  0  0  0
    4.1618    5.2130   -0.8442 H   0  0  0  0  0  0  0  0  0  0  0  0
    3.2173    3.3037   -0.4467 C   0  0  0  0  0  0  0  0  0  0  0  0
    3.7759    3.1468    0.4864 H   0  0  0  0  0  0  0  0  0  0  0  0
   -0.2583   -2.3179    1.0750 C   0  0  0  0  0  0  0  0  0  0  0  0
   -0.6928   -1.7869    2.3058 C   0  0  0  0  0  0  0  0  0  0  0  0
   -0.8304   -0.7013    2.4153 H   0  0  0  0  0  0  0  0  0  0  0  0
   -0.9441   -2.6413    3.3895 C   0  0  0  0  0  0  0  0  0  0  0  0
   -1.2886   -2.2187    4.3451 H   0  0  0  0  0  0  0  0  0  0  0  0
   -0.7555   -4.0253    3.2563 C   0  0  0  0  0  0  0  0  0  0  0  0
   -0.9528   -4.6929    4.1083 H   0  0  0  0  0  0  0  0  0  0  0  0
   -0.3007   -4.5563    2.0384 C   0  0  0  0  0  0  0  0  0  0  0  0
   -0.1337   -5.6389    1.9348 H   0  0  0  0  0  0  0  0  0  0  0  0
   -0.0428   -3.7079    0.9527 C   0  0  0  0  0  0  0  0  0  0  0  0
    0.3480   -4.1338    0.0160 H   0  0  0  0  0  0  0  0  0  0  0  0
    2.7292    1.0461    1.6978 C   0  0  0  0  0  0  0  0  0  0  0  0
    1.9473    1.2318    2.8531 C   0  0  0  0  0  0  0  0  0  0  0  0
    0.8521    1.2755    2.7746 H   0  0  0  0  0  0  0  0  0  0  0  0
    2.5664    1.3577    4.1057 C   0  0  0  0  0  0  0  0  0  0  0  0
    1.9486    1.5056    5.0040 H   0  0  0  0  0  0  0  0  0  0  0  0
    3.9640    1.2957    4.2130 C   0  0  0  0  0  0  0  0  0  0  0  0
    4.4460    1.3924    5.1973 H   0  0  0  0  0  0  0  0  0  0  0  0
    4.7472    1.1011    3.0634 C   0  0  0  0  0  0  0  0  0  0  0  0
    5.8430    1.0421    3.1434 H   0  0  0  0  0  0  0  0  0  0  0  0
    4.1345    0.9698    1.8096 C   0  0  0  0  0  0  0  0  0  0  0  0
    4.7562    0.8007    0.9169 H   0  0  0  0  0  0  0  0  0  0  0  0
   -1.1101   -1.4532   -1.6171 C   0  0  0  0  0  0  0  0  0  0  0  0
   -1.4355   -0.3620   -2.4489 C   0  0  0  0  0  0  0  0  0  0  0  0
   -0.9578    0.6144   -2.2804 H   0  0  0  0  0  0  0  0  0  0  0  0
   -2.4029   -0.5054   -3.4516 C   0  0  0  0  0  0  0  0  0  0  0  0
   -2.6637    0.3569   -4.0830 H   0  0  0  0  0  0  0  0  0  0  0  0
   -3.0494   -1.7378   -3.6357 C   0  0  0  0  0  0  0  0  0  0  0  0
   -3.8162   -1.8469   -4.4170 H   0  0  0  0  0  0  0  0  0  0  0  0
   -2.7265   -2.8264   -2.8108 C   0  0  0  0  0  0  0  0  0  0  0  0
   -3.2384   -3.7911   -2.9436 H   0  0  0  0  0  0  0  0  0  0  0  0
   -1.7614   -2.6890   -1.8022 C   0  0  0  0  0  0  0  0  0  0  0  0
   -1.5405   -3.5418   -1.1454 H   0  0  0  0  0  0  0  0  0  0  0  0
   -7.1994   -0.2266    0.4603 C   0  0  0  0  0  0  0  0  0  0  0  0
   -7.3808    2.1942    0.6957 C   0  0  0  0  0  0  0  0  0  0  0  0
   -0.3301    2.7918    0.8182 C   0  0  0  0  0  0  0  0  0  0  0  0
  1  6  1  0  0  0  0
  1 30  1  0  0  0  0
  2  6  1  0  0  0  0
  2 41  1  0  0  0  0
  3 63  3  0  0  0  0
  6  7  2  0  0  0  0
  7  8  1  0  0  0  0
  7 65  1  0  0  0  0
  8  9  1  0  0  0  0
  9 11  2  0  0  0  0
  9 10  1  0  0  0  0
 11 12  1  0  0  0  0
 13 11  1  0  0  0  0
 14 13  2  0  0  0  0
 15 14  1  0  0  0  0
 16 14  1  0  0  0  0
 16  8  2  0  0  0  0
 17 16  1  0  0  0  0
 18 13  1  0  0  0  0
 18 64  1  0  0  0  0
 19 28  1  0  0  0  0
 19  2  1  0  0  0  0
 20 19  2  0  0  0  0
 21 20  1  0  0  0  0
 22 24  2  0  0  0  0
 22 20  1  0  0  0  0
 23 22  1  0  0  0  0
 24 26  1  0  0  0  0
 25 24  1  0  0  0  0
 26 27  1  0  0  0  0
 26 28  2  0  0  0  0
 28 29  1  0  0  0  0
 30 31  1  0  0  0  0
 31 32  1  0  0  0  0
 31 33  2  0  0  0  0
 33 34  1  0  0  0  0
 35 33  1  0  0  0  0
 35 36  1  0  0  0  0
 37 35  2  0  0  0  0
 38 37  1  0  0  0  0
 39 30  2  0  0  0  0
 39 37  1  0  0  0  0
 40 39  1  0  0  0  0
 41 50  2  0  0  0  0
 41 42  1  0  0  0  0
 42 44  2  0  0  0  0
 43 42  1  0  0  0  0
 44 46  1  0  0  0  0
 44 45  1  0  0  0  0
 46 47  1  0  0  0  0
 48 49  1  0  0  0  0
 48 46  2  0  0  0  0
 50 48  1  0  0  0  0
 51 50  1  0  0  0  0
 52  1  1  0  0  0  0
 53 54  1  0  0  0  0
 53 52  2  0  0  0  0
 55 53  1  0  0  0  0
 56 55  1  0  0  0  0
 57 55  2  0  0  0  0
 57 59  1  0  0  0  0
 58 57  1  0  0  0  0
 59 61  2  0  0  0  0
 60 59  1  0  0  0  0
 61 52  1  0  0  0  0
 61 62  1  0  0  0  0
 63 18  1  0  0  0  0
 64  4  3  0  0  0  0
 65  5  3  0  0  0  0
M  END
