1,2
q = 0.0, confidence = 0.998

 69 69  0  0  0  0  0  0  0  0999 V2000
    2.1787    0.1340   -0.2008 P   0  0  0  0  0  0  0  0  0  0  0  0
   -2.1244    0.1217   -0.2825 P   0  0  0  0  0  0  0  0  0  0  0  0
    0.0441    2.1213   -1.0959 N   0  0  0  0  0  0  0  0  0  0  0  0
    1.1674    2.7064   -0.6498 C   0  0  0  0  0  0  0  0  0  0  0  0
    1.1392    3.9362    0.0360 C   0  0  0  0  0  0  0  0  0  0  0  0
    2.0716    4.4035    0.3867 H   0  0  0  0  0  0  0  0  0  0  0  0
   -0.1050    4.5457    0.2612 C   0  0  0  0  0  0  0  0  0  0  0  0
   -0.1626    5.5128    0.7835 H   0  0  0  0  0  0  0  0  0  0  0  0
   -1.2773    3.8946   -0.1538 C   0  0  0  0  0  0  0  0  0  0  0  0
   -2.2689    4.3265    0.0485 H   0  0  0  0  0  0  0  0  0  0  0  0
   -1.1560    2.6618   -0.8243 C   0  0  0  0  0  0  0  0  0  0  0  0
    2.4051    1.8879   -0.8867 C   0  0  0  0  0  0  0  0  0  0  0  0
    3.3244    2.3667   -0.4973 H   0  0  0  0  0  0  0  0  0  0  0  0
    2.5292    1.7544   -1.9796 H   0  0  0  0  0  0  0  0  0  0  0  0
    3.1194    0.2045    1.4591 C   0  0  0  0  0  0  0  0  0  0  0  0
    2.4407    1.3469    2.2421 C   0  0  0  0  0  0  0  0  0  0  0  0
    2.7998    1.3353    3.2932 H   0  0  0  0  0  0  0  0  0  0  0  0
    1.3386    1.2237    2.2581 H   0  0  0  0  0  0  0  0  0  0  0  0
    2.6687    2.3463    1.8231 H   0  0  0  0  0  0  0  0  0  0  0  0
    4.6249    0.4724    1.3396 C   0  0  0  0  0  0  0  0  0  0  0  0
    4.8517    1.3892    0.7576 H   0  0  0  0  0  0  0  0  0  0  0  0
    5.1598   -0.3765    0.8711 H   0  0  0  0  0  0  0  0  0  0  0  0
    5.0573    0.6133    2.3539 H   0  0  0  0  0  0  0  0  0  0  0  0
    2.8645   -1.1112    2.2182 C   0  0  0  0  0  0  0  0  0  0  0  0
    3.2929   -1.0272    3.2402 H   0  0  0  0  0  0  0  0  0  0  0  0
    3.3428   -1.9790    1.7274 H   0  0  0  0  0  0  0  0  0  0  0  0
    1.7808   -1.3267    2.3085 H   0  0  0  0  0  0  0  0  0  0  0  0
    3.1073   -0.9022   -1.5138 C   0  0  0  0  0  0  0  0  0  0  0  0
    4.3958   -0.2601   -2.0518 C   0  0  0  0  0  0  0  0  0  0  0  0
    4.8427   -0.9326   -2.8155 H   0  0  0  0  0  0  0  0  0  0  0  0
    5.1551   -0.1057   -1.2625 H   0  0  0  0  0  0  0  0  0  0  0  0
    4.2141    0.7132   -2.5489 H   0  0  0  0  0  0  0  0  0  0  0  0
    3.4134   -2.2995   -0.9484 C   0  0  0  0  0  0  0  0  0  0  0  0
    2.5026   -2.7645   -0.5218 H   0  0  0  0  0  0  0  0  0  0  0  0
    4.2132   -2.2736   -0.1824 H   0  0  0  0  0  0  0  0  0  0  0  0
    3.7707   -2.9507   -1.7750 H   0  0  0  0  0  0  0  0  0  0  0  0
    2.0752   -1.0505   -2.6529 C   0  0  0  0  0  0  0  0  0  0  0  0
    2.5358   -1.6030   -3.5001 H   0  0  0  0  0  0  0  0  0  0  0  0
    1.7254   -0.0705   -3.0391 H   0  0  0  0  0  0  0  0  0  0  0  0
    1.1923   -1.6216   -2.3016 H   0  0  0  0  0  0  0  0  0  0  0  0
   -2.3104    1.7746   -1.1921 C   0  0  0  0  0  0  0  0  0  0  0  0
   -2.2278    1.5154   -2.2647 H   0  0  0  0  0  0  0  0  0  0  0  0
   -3.2947    2.2459   -1.0167 H   0  0  0  0  0  0  0  0  0  0  0  0
   -2.8891    0.4953    1.4398 C   0  0  0  0  0  0  0  0  0  0  0  0
   -4.0458    1.5057    1.4131 C   0  0  0  0  0  0  0  0  0  0  0  0
   -4.8845    1.1809    0.7675 H   0  0  0  0  0  0  0  0  0  0  0  0
   -3.7187    2.5102    1.0798 H   0  0  0  0  0  0  0  0  0  0  0  0
   -4.4463    1.6237    2.4430 H   0  0  0  0  0  0  0  0  0  0  0  0
   -1.7151    1.0711    2.2623 C   0  0  0  0  0  0  0  0  0  0  0  0
   -1.2932    1.9908    1.8108 H   0  0  0  0  0  0  0  0  0  0  0  0
   -0.9096    0.3165    2.3609 H   0  0  0  0  0  0  0  0  0  0  0  0
   -2.0752    1.3312    3.2816 H   0  0  0  0  0  0  0  0  0  0  0  0
   -3.3449   -0.8102    2.1136 C   0  0  0  0  0  0  0  0  0  0  0  0
   -3.6050   -0.5902    3.1715 H   0  0  0  0  0  0  0  0  0  0  0  0
   -2.5293   -1.5607    2.1173 H   0  0  0  0  0  0  0  0  0  0  0  0
   -4.2486   -1.2374    1.6368 H   0  0  0  0  0  0  0  0  0  0  0  0
   -3.2428   -1.0237   -1.3312 C   0  0  0  0  0  0  0  0  0  0  0  0
   -4.7181   -0.6037   -1.3634 C   0  0  0  0  0  0  0  0  0  0  0  0
   -5.2775   -1.2581   -2.0668 H   0  0  0  0  0  0  0  0  0  0  0  0
   -4.8512    0.4415   -1.7095 H   0  0  0  0  0  0  0  0  0  0  0  0
   -5.1991   -0.7043   -0.3708 H   0  0  0  0  0  0  0  0  0  0  0  0
   -2.6498   -0.9925   -2.7562 C   0  0  0  0  0  0  0  0  0  0  0  0
   -3.1015   -1.8112   -3.3549 H   0  0  0  0  0  0  0  0  0  0  0  0
   -1.5518   -1.1540   -2.7372 H   0  0  0  0  0  0  0  0  0  0  0  0
   -2.8577   -0.0450   -3.2914 H   0  0  0  0  0  0  0  0  0  0  0  0
   -3.0909   -2.4666   -0.8117 C   0  0  0  0  0  0  0  0  0  0  0  0
   -3.4664   -2.5930    0.2193 H   0  0  0  0  0  0  0  0  0  0  0  0
   -2.0297   -2.7838   -0.8392 H   0  0  0  0  0  0  0  0  0  0  0  0
   -3.6748   -3.1470   -1.4681 H   0  0  0  0  0  0  0  0  0  0  0  0
  1 15  1  0  0  0  0
  2 44  1  0  0  0  0
  3 11  2  0  0  0  0
  3  4  1  0  0  0  0
  4  5  2  0  0  0  0
  5  7  1  0  0  0  0
  5  6  1  0  0  0  0
  7  8  1  0  0  0  0
  9 10  1  0  0  0  0
  9  7  2  0  0  0  0
 11  9  1  0  0  0  0
 12  4  1  0  0  0  0
 12 13  1  0  0  0  0
 12  1  1  0  0  0  0
 14 12  1  0  0  0  0
 15 24  1  0  0  0  0
 15 16  1  0  0  0  0
 16 18  1  0  0  0  0
 16 17  1  0  0  0  0
 19 16  1  0  0  0  0
 20 15  1  0  0  0  0
 20 23  1  0  0  0  0
 21 20  1  0  0  0  0
 22 20  1  0  0  0  0
 24 27  1  0  0  0  0
 24 25  1  0  0  0  0
 26 24  1  0  0  0  0
 28 33  1  0  0  0  0
 28  1  1  0  0  0  0
 29 28  1  0  0  0  0
 29 31  1  0  0  0  0
 30 29  1  0  0  0  0
 32 29  1  0  0  0  0
 33 34  1  0  0  0  0
 33 35  1  0  0  0  0
 36 33  1  0  0  0  0
 37 40  1  0  0  0  0
 37 28  1  0  0  0  0
 38 37  1  0  0  0  0
 39 37  1  0  0  0  0
 41 43  1  0  0  0  0
 41 11  1  0  0  0  0
 41  2  1  0  0  0  0
 42 41  1  0  0  0  0
 44 53  1  0  0  0  0
 44 49  1  0  0  0  0
 45 44  1  0  0  0  0
 45 48  1  0  0  0  0
 46 45  1  0  0  0  0
 47 45  1  0  0  0  0
 49 51  1  0  0  0  0
 49 52  1  0  0  0  0
 50 49  1  0  0  0  0
 53 55  1  0  0  0  0
 53 54  1  0  0  0  0
 56 53  1  0  0  0  0
 57 66  1  0  0  0  0
 57  2  1  0  0  0  0
 58 57  1  0  0  0  0
 58 61  1  0  0  0  0
 59 58  1  0  0  0  0
 60 58  1  0  0  0  0
 62 64  1  0  0  0  0
 62 57  1  0  0  0  0
 63 62  1  0  0  0  0
 65 62  1  0  0  0  0
 66 67  1  0  0  0  0
 68 66  1  0  0  0  0
 69 66  1  0  0  0  0
M  END
