1,2
q = 0.0, confidence = 0.992

 74 79  0  0  0  0  0  0  0  0999 V2000
    1.1870   -0.9503   -0.0305 P   0  0  0  0  0  0  0  0  0  0  0  0
   -1.8882    0.5747   -0.2149 P   0  0  0  0  0  0  0  0  0  0  0  0
    1.8172    0.6088    0.3141 N   0  0  0  0  0  0  0  0  0  0  0  0
   -1.2182    1.3786    1.3205 C   0  0  0  0  0  0  0  0  0  0  0  0
    0.5311   -1.1158    2.7451 C   0  0  0  0  0  0  0  0  0  0  0  0
    0.8441   -0.0666    2.8364 H   0  0  0  0  0  0  0  0  0  0  0  0
    3.9577    1.8137    0.6874 C   0  0  0  0  0  0  0  0  0  0  0  0
    2.9806    0.7685    1.1887 C   0  0  0  0  0  0  0  0  0  0  0  0
    3.4947   -0.2133    1.2469 H   0  0  0  0  0  0  0  0  0  0  0  0
    2.6793    1.0232    2.2318 H   0  0  0  0  0  0  0  0  0  0  0  0
   -1.9869    1.4419    2.4988 C   0  0  0  0  0  0  0  0  0  0  0  0
   -2.9686    0.9489    2.5358 H   0  0  0  0  0  0  0  0  0  0  0  0
    0.6587   -1.7925    1.5172 C   0  0  0  0  0  0  0  0  0  0  0  0
   -0.3321   -3.7824    2.5153 C   0  0  0  0  0  0  0  0  0  0  0  0
   -0.6765   -4.8233    2.4204 H   0  0  0  0  0  0  0  0  0  0  0  0
    0.9874    1.8031    0.1110 C   0  0  0  0  0  0  0  0  0  0  0  0
    0.4363    1.6922   -0.8440 H   0  0  0  0  0  0  0  0  0  0  0  0
    1.6684    2.6703   -0.0070 H   0  0  0  0  0  0  0  0  0  0  0  0
    2.7062   -1.8302   -0.5582 C   0  0  0  0  0  0  0  0  0  0  0  0
    0.0489    2.0145    1.2787 C   0  0  0  0  0  0  0  0  0  0  0  0
    0.2161   -3.1315    1.4024 C   0  0  0  0  0  0  0  0  0  0  0  0
    0.2779   -3.6412    0.4263 H   0  0  0  0  0  0  0  0  0  0  0  0
    3.4048   -2.7022    0.2966 C   0  0  0  0  0  0  0  0  0  0  0  0
    3.0023   -2.9375    1.2931 H   0  0  0  0  0  0  0  0  0  0  0  0
   -3.4285   -0.2041    0.3992 C   0  0  0  0  0  0  0  0  0  0  0  0
    0.4931    2.7318    2.4057 C   0  0  0  0  0  0  0  0  0  0  0  0
    1.4625    3.2528    2.3551 H   0  0  0  0  0  0  0  0  0  0  0  0
    3.2200   -1.5434   -1.8406 C   0  0  0  0  0  0  0  0  0  0  0  0
    2.6505   -0.8926   -2.5204 H   0  0  0  0  0  0  0  0  0  0  0  0
   -2.3599    2.0657   -1.1922 C   0  0  0  0  0  0  0  0  0  0  0  0
   -4.7036    0.3185    0.1230 C   0  0  0  0  0  0  0  0  0  0  0  0
   -4.8058    1.2215   -0.4964 H   0  0  0  0  0  0  0  0  0  0  0  0
   -3.2954   -1.3789    1.1686 C   0  0  0  0  0  0  0  0  0  0  0  0
   -2.2975   -1.8021    1.3630 H   0  0  0  0  0  0  0  0  0  0  0  0
   -2.8166    3.2276   -0.5325 C   0  0  0  0  0  0  0  0  0  0  0  0
   -2.8943    3.2467    0.5647 H   0  0  0  0  0  0  0  0  0  0  0  0
    4.4301   -2.1131   -2.2525 C   0  0  0  0  0  0  0  0  0  0  0  0
    4.8227   -1.8930   -3.2565 H   0  0  0  0  0  0  0  0  0  0  0  0
   -0.0304   -1.7731    3.8523 C   0  0  0  0  0  0  0  0  0  0  0  0
   -0.1376   -1.2331    4.8052 H   0  0  0  0  0  0  0  0  0  0  0  0
    4.3743    1.8162   -0.6587 C   0  0  0  0  0  0  0  0  0  0  0  0
    3.9648    1.0592   -1.3444 H   0  0  0  0  0  0  0  0  0  0  0  0
    5.2940    2.7695   -1.1162 C   0  0  0  0  0  0  0  0  0  0  0  0
    5.6130    2.7592   -2.1697 H   0  0  0  0  0  0  0  0  0  0  0  0
    5.3995    3.7418    1.1063 C   0  0  0  0  0  0  0  0  0  0  0  0
    5.7952    4.4974    1.8020 H   0  0  0  0  0  0  0  0  0  0  0  0
    4.4751    2.7876    1.5614 C   0  0  0  0  0  0  0  0  0  0  0  0
    4.1511    2.7942    2.6152 H   0  0  0  0  0  0  0  0  0  0  0  0
   -1.5138    2.1313    3.6271 C   0  0  0  0  0  0  0  0  0  0  0  0
   -2.1255    2.1633    4.5413 H   0  0  0  0  0  0  0  0  0  0  0  0
   -5.8433   -0.3277    0.6271 C   0  0  0  0  0  0  0  0  0  0  0  0
   -6.8417    0.0772    0.4023 H   0  0  0  0  0  0  0  0  0  0  0  0
   -0.4602   -3.1038    3.7410 C   0  0  0  0  0  0  0  0  0  0  0  0
   -0.9031   -3.6144    4.6096 H   0  0  0  0  0  0  0  0  0  0  0  0
    5.1305   -2.9803   -1.3953 C   0  0  0  0  0  0  0  0  0  0  0  0
    6.0785   -3.4322   -1.7246 H   0  0  0  0  0  0  0  0  0  0  0  0
    4.6165   -3.2759   -0.1250 C   0  0  0  0  0  0  0  0  0  0  0  0
    5.1591   -3.9576    0.5472 H   0  0  0  0  0  0  0  0  0  0  0  0
   -3.0500    4.3568   -2.6737 C   0  0  0  0  0  0  0  0  0  0  0  0
   -3.3186    5.2530   -3.2537 H   0  0  0  0  0  0  0  0  0  0  0  0
   -0.2775    2.7899    3.5778 C   0  0  0  0  0  0  0  0  0  0  0  0
    0.0885    3.3514    4.4508 H   0  0  0  0  0  0  0  0  0  0  0  0
    5.8103    3.7351   -0.2350 C   0  0  0  0  0  0  0  0  0  0  0  0
    6.5307    4.4846   -0.5965 H   0  0  0  0  0  0  0  0  0  0  0  0
   -5.7131   -1.4892    1.4039 C   0  0  0  0  0  0  0  0  0  0  0  0
   -6.6099   -1.9948    1.7931 H   0  0  0  0  0  0  0  0  0  0  0  0
   -3.1662    4.3652   -1.2743 C   0  0  0  0  0  0  0  0  0  0  0  0
   -3.5257    5.2656   -0.7533 H   0  0  0  0  0  0  0  0  0  0  0  0
   -2.2455    2.0590   -2.5971 C   0  0  0  0  0  0  0  0  0  0  0  0
   -1.9184    1.1394   -3.1055 H   0  0  0  0  0  0  0  0  0  0  0  0
   -2.5887    3.2050   -3.3300 C   0  0  0  0  0  0  0  0  0  0  0  0
   -2.4967    3.1924   -4.4266 H   0  0  0  0  0  0  0  0  0  0  0  0
   -4.4373   -2.0130    1.6739 C   0  0  0  0  0  0  0  0  0  0  0  0
   -4.3283   -2.9301    2.2724 H   0  0  0  0  0  0  0  0  0  0  0  0
  1  3  1  0  0  0  0
  1 13  1  0  0  0  0
  2 25  1  0  0  0  0
  2  4  1  0  0  0  0
  3  8  1  0  0  0  0
  4 11  1  0  0  0  0
  5  6  1  0  0  0  0
  5 39  1  0  0  0  0
  7  8  1  0  0  0  0
  7 47  1  0  0  0  0
  8  9  1  0  0  0  0
  8 10  1  0  0  0  0
 11 12  1  0  0  0  0
 11 49  2  0  0  0  0
 13  5  2  0  0  0  0
 14 53  1  0  0  0  0
 15 14  1  0  0  0  0
 16  3  1  0  0  0  0
 16 20  1  0  0  0  0
 17 16  1  0  0  0  0
 18 16  1  0  0  0  0
 19  1  1  0  0  0  0
 19 23  1  0  0  0  0
 20  4  2  0  0  0  0
 20 26  1  0  0  0  0
 21 13  1  0  0  0  0
 21 14  2  0  0  0  0
 22 21  1  0  0  0  0
 23 24  1  0  0  0  0
 25 33  1  0  0  0  0
 26 61  2  0  0  0  0
 27 26  1  0  0  0  0
 28 19  2  0  0  0  0
 29 28  1  0  0  0  0
 30 35  1  0  0  0  0
 30  2  1  0  0  0  0
 31 25  2  0  0  0  0
 31 51  1  0  0  0  0
 32 31  1  0  0  0  0
 33 34  1  0  0  0  0
 33 73  2  0  0  0  0
 35 36  1  0  0  0  0
 37 28  1  0  0  0  0
 37 55  2  0  0  0  0
 38 37  1  0  0  0  0
 39 40  1  0  0  0  0
 41  7  2  0  0  0  0
 42 41  1  0  0  0  0
 43 41  1  0  0  0  0
 43 63  2  0  0  0  0
 44 43  1  0  0  0  0
 45 47  2  0  0  0  0
 45 46  1  0  0  0  0
 47 48  1  0  0  0  0
 49 50  1  0  0  0  0
 51 65  2  0  0  0  0
 52 51  1  0  0  0  0
 53 39  2  0  0  0  0
 53 54  1  0  0  0  0
 55 57  1  0  0  0  0
 56 55  1  0  0  0  0
 57 23  2  0  0  0  0
 57 58  1  0  0  0  0
 59 67  1  0  0  0  0
 60 59  1  0  0  0  0
 61 49  1  0  0  0  0
 61 62  1  0  0  0  0
 63 45  1  0  0  0  0
 64 63  1  0  0  0  0
 65 73  1  0  0  0  0
 65 66  1  0  0  0  0
 67 68  1  0  0  0  0
 67 35  2  0  0  0  0
 69 30  2  0  0  0  0
 70 69  1  0  0  0  0
 71 59  2  0  0  0  0
 71 69  1  0  0  0  0
 72 71  1  0  0  0  0
 73 74  1  0  0  0  0
M  END
