1,2
q = 0.0, confidence = 0.99

 51 50  0  0  0  0  0  0  0  0999 V2000
    1.2083   -0.4303   -0.0715 P   0  0  0  0  0  0  0  0  0  0  0  0
   -1.4670   -0.4690   -0.1244 P   0  0  0  0  0  0  0  0  0  0  0  0
   -0.1101   -1.7470   -0.3076 C   0  0  0  0  0  0  0  0  0  0  0  0
   -0.0955   -2.2167   -1.3109 H   0  0  0  0  0  0  0  0  0  0  0  0
   -0.1026   -2.5522    0.4519 H   0  0  0  0  0  0  0  0  0  0  0  0
    2.1456   -0.9252    1.5087 C   0  0  0  0  0  0  0  0  0  0  0  0
    2.8101   -2.3020    1.3751 C   0  0  0  0  0  0  0  0  0  0  0  0
    3.2150   -2.6086    2.3632 H   0  0  0  0  0  0  0  0  0  0  0  0
    3.6593   -2.2837    0.6650 H   0  0  0  0  0  0  0  0  0  0  0  0
    2.1002   -3.0901    1.0499 H   0  0  0  0  0  0  0  0  0  0  0  0
    1.0671   -0.9513    2.6085 C   0  0  0  0  0  0  0  0  0  0  0  0
    1.5510   -1.1553    3.5866 H   0  0  0  0  0  0  0  0  0  0  0  0
    0.3054   -1.7397    2.4469 H   0  0  0  0  0  0  0  0  0  0  0  0
    0.5489    0.0266    2.6729 H   0  0  0  0  0  0  0  0  0  0  0  0
    3.1774    0.1556    1.8781 C   0  0  0  0  0  0  0  0  0  0  0  0
    2.7360    1.1708    1.8180 H   0  0  0  0  0  0  0  0  0  0  0  0
    4.0639    0.1310    1.2193 H   0  0  0  0  0  0  0  0  0  0  0  0
    3.5260   -0.0279    2.9163 H   0  0  0  0  0  0  0  0  0  0  0  0
    2.2658   -0.4530   -1.6554 C   0  0  0  0  0  0  0  0  0  0  0  0
    1.3994    0.2658   -2.7078 C   0  0  0  0  0  0  0  0  0  0  0  0
    1.9630    0.3286   -3.6627 H   0  0  0  0  0  0  0  0  0  0  0  0
    1.1466    1.2915   -2.3730 H   0  0  0  0  0  0  0  0  0  0  0  0
    0.4571   -0.2805   -2.9187 H   0  0  0  0  0  0  0  0  0  0  0  0
    3.5564    0.3558   -1.4397 C   0  0  0  0  0  0  0  0  0  0  0  0
    4.2794   -0.1817   -0.7962 H   0  0  0  0  0  0  0  0  0  0  0  0
    3.3335    1.3463   -0.9950 H   0  0  0  0  0  0  0  0  0  0  0  0
    4.0440    0.5125   -2.4251 H   0  0  0  0  0  0  0  0  0  0  0  0
    2.5957   -1.8787   -2.1213 C   0  0  0  0  0  0  0  0  0  0  0  0
    3.1672   -1.8195   -3.0720 H   0  0  0  0  0  0  0  0  0  0  0  0
    1.6899   -2.4838   -2.3265 H   0  0  0  0  0  0  0  0  0  0  0  0
    3.2207   -2.4295   -1.3933 H   0  0  0  0  0  0  0  0  0  0  0  0
   -2.7253   -1.0099    1.1702 C   0  0  0  0  0  0  0  0  0  0  0  0
   -3.6861   -0.7633    0.6662 H   0  0  0  0  0  0  0  0  0  0  0  0
   -2.6876   -2.5143    1.4554 C   0  0  0  0  0  0  0  0  0  0  0  0
   -1.7637   -2.7984    2.0005 H   0  0  0  0  0  0  0  0  0  0  0  0
   -2.7491   -3.1342    0.5398 H   0  0  0  0  0  0  0  0  0  0  0  0
   -3.5412   -2.7907    2.1087 H   0  0  0  0  0  0  0  0  0  0  0  0
   -2.6322   -0.1659    2.4453 C   0  0  0  0  0  0  0  0  0  0  0  0
   -3.4967   -0.3886    3.1047 H   0  0  0  0  0  0  0  0  0  0  0  0
   -2.6270    0.9151    2.2031 H   0  0  0  0  0  0  0  0  0  0  0  0
   -1.7097   -0.3957    3.0141 H   0  0  0  0  0  0  0  0  0  0  0  0
   -2.3849   -0.5371   -1.7594 C   0  0  0  0  0  0  0  0  0  0  0  0
   -1.5703   -0.3122   -2.4828 H   0  0  0  0  0  0  0  0  0  0  0  0
   -2.9600   -1.9236   -2.0664 C   0  0  0  0  0  0  0  0  0  0  0  0
   -3.7994   -2.1728   -1.3856 H   0  0  0  0  0  0  0  0  0  0  0  0
   -2.2059   -2.7334   -1.9943 H   0  0  0  0  0  0  0  0  0  0  0  0
   -3.3657   -1.9392   -3.0994 H   0  0  0  0  0  0  0  0  0  0  0  0
   -3.4376    0.5697   -1.8660 C   0  0  0  0  0  0  0  0  0  0  0  0
   -3.8400    0.6037   -2.8995 H   0  0  0  0  0  0  0  0  0  0  0  0
   -3.0151    1.5573   -1.5967 H   0  0  0  0  0  0  0  0  0  0  0  0
   -4.2937    0.3795   -1.1852 H   0  0  0  0  0  0  0  0  0  0  0  0
  1  6  1  0  0  0  0
  2 32  1  0  0  0  0
  3  2  1  0  0  0  0
  3  1  1  0  0  0  0
  3  5  1  0  0  0  0
  4  3  1  0  0  0  0
  6 15  1  0  0  0  0
  6 11  1  0  0  0  0
  7  6  1  0  0  0  0
  7  8  1  0  0  0  0
  9  7  1  0  0  0  0
 10  7  1  0  0  0  0
 11 14  1  0  0  0  0
 11 12  1  0  0  0  0
 13 11  1  0  0  0  0
 15 18  1  0  0  0  0
 16 15  1  0  0  0  0
 17 15  1  0  0  0  0
 19 24  1  0  0  0  0
 19  1  1  0  0  0  0
 20 22  1  0  0  0  0
 20 19  1  0  0  0  0
 21 20  1  0  0  0  0
 23 20  1  0  0  0  0
 24 26  1  0  0  0  0
 24 25  1  0  0  0  0
 27 24  1  0  0  0  0
 28 19  1  0  0  0  0
 28 31  1  0  0  0  0
 29 28  1  0  0  0  0
 30 28  1  0  0  0  0
 32 34  1  0  0  0  0
 32 38  1  0  0  0  0
 33 32  1  0  0  0  0
 34 35  1  0  0  0  0
 34 37  1  0  0  0  0
 36 34  1  0  0  0  0
 38 41  1  0  0  0  0
 38 39  1  0  0  0  0
 40 38  1  0  0  0  0
 42  2  1  0  0  0  0
 43 42  1  0  0  0  0
 44 46  1  0  0  0  0
 44 42  1  0  0  0  0
 44 45  1  0  0  0  0
 47 44  1  0  0  0  0
 48 42  1  0  0  0  0
 48 50  1  0  0  0  0
 48 51  1  0  0  0  0
 49 48  1  0  0  0  0
M  END
