1,2
q = 0.0, confidence = 1.0

 50 53  0  0  0  0  0  0  0  0999 V2000
   -1.5464    0.0206   -0.4277 P   0  0  1  0  0  0  0  0  0  0  0  0
    1.5514   -0.0030   -0.3793 P   0  0  1  0  0  0  0  0  0  0  0  0
   -2.4243    2.2143   -1.8063 N   0  0  0  0  0  0  0  0  0  0  0  0
    3.4169    1.6411   -1.4318 N   0  0  0  0  0  0  0  0  0  0  0  0
   -2.2861    1.7152   -0.5657 C   0  0  0  0  0  0  0  0  0  0  0  0
   -2.6727    2.3994    0.6030 C   0  0  0  0  0  0  0  0  0  0  0  0
   -2.5230    1.9208    1.5865 H   0  0  0  0  0  0  0  0  0  0  0  0
   -3.2395    3.6723    0.4543 C   0  0  0  0  0  0  0  0  0  0  0  0
   -3.5582    4.2437    1.3395 H   0  0  0  0  0  0  0  0  0  0  0  0
   -3.3869    4.2060   -0.8356 C   0  0  0  0  0  0  0  0  0  0  0  0
   -3.8215    5.2042   -0.9942 H   0  0  0  0  0  0  0  0  0  0  0  0
   -2.9633    3.4385   -1.9322 C   0  0  0  0  0  0  0  0  0  0  0  0
   -3.0619    3.8268   -2.9611 H   0  0  0  0  0  0  0  0  0  0  0  0
   -2.9720   -1.1225   -0.5204 C   0  0  0  0  0  0  0  0  0  0  0  0
   -3.9349   -0.9349   -1.5351 C   0  0  0  0  0  0  0  0  0  0  0  0
   -3.8552   -0.0766   -2.2207 H   0  0  0  0  0  0  0  0  0  0  0  0
   -4.9984   -1.8400   -1.6591 C   0  0  0  0  0  0  0  0  0  0  0  0
   -5.7509   -1.6933   -2.4488 H   0  0  0  0  0  0  0  0  0  0  0  0
   -5.1049   -2.9264   -0.7746 C   0  0  0  0  0  0  0  0  0  0  0  0
   -5.9427   -3.6336   -0.8725 H   0  0  0  0  0  0  0  0  0  0  0  0
   -4.1499   -3.1054    0.2383 C   0  0  0  0  0  0  0  0  0  0  0  0
   -4.2392   -3.9487    0.9396 H   0  0  0  0  0  0  0  0  0  0  0  0
   -3.0818   -2.2052    0.3726 C   0  0  0  0  0  0  0  0  0  0  0  0
   -2.3504   -2.3110    1.1873 H   0  0  0  0  0  0  0  0  0  0  0  0
   -0.6649   -0.1945   -2.0498 C   0  0  0  0  0  0  0  0  0  0  0  0
   -0.5758   -1.2887   -2.2105 H   0  0  0  0  0  0  0  0  0  0  0  0
   -1.2937    0.2451   -2.8499 H   0  0  0  0  0  0  0  0  0  0  0  0
    0.6997    0.4824   -1.9684 C   0  0  0  0  0  0  0  0  0  0  0  0
    0.5907    1.5862   -1.9325 H   0  0  0  0  0  0  0  0  0  0  0  0
    1.3500    0.2458   -2.8324 H   0  0  0  0  0  0  0  0  0  0  0  0
    2.4390   -1.5630   -0.7530 C   0  0  0  0  0  0  0  0  0  0  0  0
    2.2503   -2.6850    0.0776 C   0  0  0  0  0  0  0  0  0  0  0  0
    1.6094   -2.5957    0.9683 H   0  0  0  0  0  0  0  0  0  0  0  0
    2.9083   -3.8879   -0.2221 C   0  0  0  0  0  0  0  0  0  0  0  0
    2.7610   -4.7635    0.4280 H   0  0  0  0  0  0  0  0  0  0  0  0
    3.7540   -3.9720   -1.3389 C   0  0  0  0  0  0  0  0  0  0  0  0
    4.2674   -4.9177   -1.5707 H   0  0  0  0  0  0  0  0  0  0  0  0
    3.9541   -2.8471   -2.1572 C   0  0  0  0  0  0  0  0  0  0  0  0
    4.6274   -2.9084   -3.0258 H   0  0  0  0  0  0  0  0  0  0  0  0
    3.3015   -1.6408   -1.8674 C   0  0  0  0  0  0  0  0  0  0  0  0
    3.4764   -0.7478   -2.4875 H   0  0  0  0  0  0  0  0  0  0  0  0
    2.8802    1.2840   -0.2509 C   0  0  0  0  0  0  0  0  0  0  0  0
    3.2716    1.8276    0.9851 C   0  0  0  0  0  0  0  0  0  0  0  0
    2.7965    1.4664    1.9125 H   0  0  0  0  0  0  0  0  0  0  0  0
    4.2835    2.7993    0.9747 C   0  0  0  0  0  0  0  0  0  0  0  0
    4.6232    3.2528    1.9185 H   0  0  0  0  0  0  0  0  0  0  0  0
    4.8519    3.1808   -0.2491 C   0  0  0  0  0  0  0  0  0  0  0  0
    5.6464    3.9404   -0.2981 H   0  0  0  0  0  0  0  0  0  0  0  0
    4.3848    2.5706   -1.4252 C   0  0  0  0  0  0  0  0  0  0  0  0
    4.8094    2.8444   -2.4071 H   0  0  0  0  0  0  0  0  0  0  0  0
  1 25  1  6  0  0  0
  2 28  1  6  0  0  0
  2 42  1  0  0  0  0
  3  5  1  0  0  0  0
  4 49  2  0  0  0  0
  4 42  1  0  0  0  0
  5  1  1  0  0  0  0
  5  6  2  0  0  0  0
  6  7  1  0  0  0  0
  8  6  1  0  0  0  0
  8  9  1  0  0  0  0
 10  8  2  0  0  0  0
 11 10  1  0  0  0  0
 12  3  2  0  0  0  0
 12 10  1  0  0  0  0
 13 12  1  0  0  0  0
 14  1  1  0  0  0  0
 14 23  1  0  0  0  0
 15 14  2  0  0  0  0
 16 15  1  0  0  0  0
 17 15  1  0  0  0  0
 17 19  2  0  0  0  0
 18 17  1  0  0  0  0
 19 21  1  0  0  0  0
 20 19  1  0  0  0  0
 21 23  2  0  0  0  0
 21 22  1  0  0  0  0
 23 24  1  0  0  0  0
 25 28  1  0  0  0  0
 26 25  1  0  0  0  0
 27 25  1  0  0  0  0
 28 29  1  0  0  0  0
 30 28  1  0  0  0  0
 31  2  1  0  0  0  0
 31 32  1  0  0  0  0
 32 33  1  0  0  0  0
 34 32  2  0  0  0  0
 34 35  1  0  0  0  0
 36 34  1  0  0  0  0
 37 36  1  0  0  0  0
 38 40  1  0  0  0  0
 38 36  2  0  0  0  0
 39 38  1  0  0  0  0
 40 31  2  0  0  0  0
 41 40  1  0  0  0  0
 42 43  2  0  0  0  0
 43 44  1  0  0  0  0
 45 43  1  0  0  0  0
 45 46  1  0  0  0  0
 47 45  2  0  0  0  0
 48 47  1  0  0  0  0
 49 47  1  0  0  0  0
 50 49  1  0  0  0  0
M  END
