1,2
q = 0.0, confidence = 0.998

 76 81  0  0  1  0  0  0  0  0999 V2000
    0.9719   -1.7333    0.1361 P   0  0  2  0  0  0  0  0  0  0  0  0
    0.9730    1.7327    0.1365 P   0  0  1  0  0  0  0  0  0  0  0  0
   -0.7776    1.4801    0.7278 C   0  0  0  0  0  0  0  0  0  0  0  0
   -0.7454    0.9617    1.7064 H   0  0  0  0  0  0  0  0  0  0  0  0
   -1.1381    2.5080    0.9383 H   0  0  0  0  0  0  0  0  0  0  0  0
   -1.7160    0.7896   -0.2724 C   0  0  2  0  0  0  0  0  0  0  0  0
   -1.4421    1.1219   -1.2927 H   0  0  0  0  0  0  0  0  0  0  0  0
   -3.1922    1.2948   -0.0357 C   0  0  1  0  0  0  0  0  0  0  0  0
   -3.2168    2.4016   -0.0367 H   0  0  0  0  0  0  0  0  0  0  0  0
   -4.0442    0.7075   -1.1388 C   0  0  0  0  0  0  0  0  0  0  0  0
   -4.7559    1.4143   -2.1157 C   0  0  0  0  0  0  0  0  0  0  0  0
   -4.7518    2.5157   -2.1151 H   0  0  0  0  0  0  0  0  0  0  0  0
   -5.4770    0.7046   -3.0931 C   0  0  0  0  0  0  0  0  0  0  0  0
   -6.0439    1.2533   -3.8604 H   0  0  0  0  0  0  0  0  0  0  0  0
   -5.4774   -0.6996   -3.0935 C   0  0  0  0  0  0  0  0  0  0  0  0
   -6.0446   -1.2476   -3.8610 H   0  0  0  0  0  0  0  0  0  0  0  0
   -4.7567   -1.4101   -2.1164 C   0  0  0  0  0  0  0  0  0  0  0  0
   -4.7531   -2.5116   -2.1164 H   0  0  0  0  0  0  0  0  0  0  0  0
   -4.0446   -0.7043   -1.1391 C   0  0  0  0  0  0  0  0  0  0  0  0
   -3.1929   -1.2926   -0.0363 C   0  0  2  0  0  0  0  0  0  0  0  0
   -3.2181   -2.3994   -0.0379 H   0  0  0  0  0  0  0  0  0  0  0  0
   -3.6383    0.7081    1.2874 C   0  0  0  0  0  0  0  0  0  0  0  0
   -3.9769    1.4125    2.4492 C   0  0  0  0  0  0  0  0  0  0  0  0
   -3.9721    2.5140    2.4477 H   0  0  0  0  0  0  0  0  0  0  0  0
   -4.3255    0.7025    3.6128 C   0  0  0  0  0  0  0  0  0  0  0  0
   -4.6003    1.2510    4.5266 H   0  0  0  0  0  0  0  0  0  0  0  0
   -4.3259   -0.7015    3.6124 C   0  0  0  0  0  0  0  0  0  0  0  0
   -4.6011   -1.2503    4.5259 H   0  0  0  0  0  0  0  0  0  0  0  0
   -3.9777   -1.4111    2.4484 C   0  0  0  0  0  0  0  0  0  0  0  0
   -3.9736   -2.5126    2.4464 H   0  0  0  0  0  0  0  0  0  0  0  0
   -3.6387   -0.7063    1.2870 C   0  0  0  0  0  0  0  0  0  0  0  0
   -1.7164   -0.7880   -0.2727 C   0  0  2  0  0  0  0  0  0  0  0  0
   -1.4425   -1.1201   -1.2931 H   0  0  0  0  0  0  0  0  0  0  0  0
   -0.7785   -1.4794    0.7275 C   0  0  0  0  0  0  0  0  0  0  0  0
   -1.1399   -2.5070    0.9379 H   0  0  0  0  0  0  0  0  0  0  0  0
   -0.7459   -0.9612    1.7061 H   0  0  0  0  0  0  0  0  0  0  0  0
    0.8351   -3.2099   -0.9341 C   0  0  0  0  0  0  0  0  0  0  0  0
    1.2865   -4.2909   -0.2244 C   0  0  0  0  0  0  0  0  0  0  0  0
    1.7604   -3.9907    1.1583 C   0  0  0  0  0  0  0  0  0  0  0  0
    1.6848   -2.6733    1.5237 C   0  0  0  0  0  0  0  0  0  0  0  0
    0.4534   -3.1172   -2.3749 C   0  0  0  0  0  0  0  0  0  0  0  0
    0.3543   -4.1147   -2.8446 H   0  0  0  0  0  0  0  0  0  0  0  0
    1.2466   -2.5563   -2.9159 H   0  0  0  0  0  0  0  0  0  0  0  0
   -0.5008   -2.5712   -2.5316 H   0  0  0  0  0  0  0  0  0  0  0  0
    1.3971   -5.6862   -0.7668 C   0  0  0  0  0  0  0  0  0  0  0  0
    0.9570   -5.7770   -1.7766 H   0  0  0  0  0  0  0  0  0  0  0  0
    0.8952   -6.4240   -0.1069 H   0  0  0  0  0  0  0  0  0  0  0  0
    2.4622   -5.9947   -0.8372 H   0  0  0  0  0  0  0  0  0  0  0  0
    2.3079   -5.0908    2.0202 C   0  0  0  0  0  0  0  0  0  0  0  0
    2.6050   -4.7288    3.0216 H   0  0  0  0  0  0  0  0  0  0  0  0
    3.2020   -5.5516    1.5496 H   0  0  0  0  0  0  0  0  0  0  0  0
    1.5676   -5.9068    2.1565 H   0  0  0  0  0  0  0  0  0  0  0  0
    2.0987   -1.9996    2.7907 C   0  0  0  0  0  0  0  0  0  0  0  0
    2.4034   -2.7231    3.5714 H   0  0  0  0  0  0  0  0  0  0  0  0
    1.2803   -1.3751    3.2124 H   0  0  0  0  0  0  0  0  0  0  0  0
    2.9534   -1.3139    2.6052 H   0  0  0  0  0  0  0  0  0  0  0  0
    0.8376    3.2095   -0.9336 C   0  0  0  0  0  0  0  0  0  0  0  0
    1.2901    4.2900   -0.2239 C   0  0  0  0  0  0  0  0  0  0  0  0
    1.7637    3.9893    1.1588 C   0  0  0  0  0  0  0  0  0  0  0  0
    1.6868    2.6719    1.5242 C   0  0  0  0  0  0  0  0  0  0  0  0
    0.4559    3.1173   -2.3744 C   0  0  0  0  0  0  0  0  0  0  0  0
    0.3568    4.1150   -2.8438 H   0  0  0  0  0  0  0  0  0  0  0  0
   -0.4982    2.5713   -2.5315 H   0  0  0  0  0  0  0  0  0  0  0  0
    1.2493    2.5567   -2.9156 H   0  0  0  0  0  0  0  0  0  0  0  0
    1.4023    5.6851   -0.7663 C   0  0  0  0  0  0  0  0  0  0  0  0
    0.9612    5.7766   -1.7757 H   0  0  0  0  0  0  0  0  0  0  0  0
    2.4678    5.9919   -0.8380 H   0  0  0  0  0  0  0  0  0  0  0  0
    0.9023    6.4238   -0.1059 H   0  0  0  0  0  0  0  0  0  0  0  0
    2.3123    5.0888    2.0208 C   0  0  0  0  0  0  0  0  0  0  0  0
    2.6098    4.7264    3.0219 H   0  0  0  0  0  0  0  0  0  0  0  0
    1.5724    5.9052    2.1578 H   0  0  0  0  0  0  0  0  0  0  0  0
    3.2063    5.5493    1.5498 H   0  0  0  0  0  0  0  0  0  0  0  0
    2.0996    1.9979    2.7913 C   0  0  0  0  0  0  0  0  0  0  0  0
    2.9526    1.3101    2.6058 H   0  0  0  0  0  0  0  0  0  0  0  0
    1.2799    1.3755    3.2136 H   0  0  0  0  0  0  0  0  0  0  0  0
    2.4062    2.7210    3.5716 H   0  0  0  0  0  0  0  0  0  0  0  0
  1 34  1  1  0  0  0
  1 40  1  0  0  0  0
  2  3  1  1  0  0  0
  2 60  1  0  0  0  0
  3  5  1  0  0  0  0
  3  4  1  0  0  0  0
  6  7  1  6  0  0  0
  6  8  1  0  0  0  0
  6  3  1  0  0  0  0
  8  9  1  1  0  0  0
  8 22  1  0  0  0  0
 10  8  1  0  0  0  0
 11 12  1  0  0  0  0
 11 10  2  0  0  0  0
 13 11  1  0  0  0  0
 14 13  1  0  0  0  0
 15 13  2  0  0  0  0
 15 17  1  0  0  0  0
 16 15  1  0  0  0  0
 17 19  2  0  0  0  0
 18 17  1  0  0  0  0
 19 10  1  0  0  0  0
 19 20  1  0  0  0  0
 20 21  1  1  0  0  0
 20 31  1  0  0  0  0
 22 23  1  0  0  0  0
 23 25  2  0  0  0  0
 24 23  1  0  0  0  0
 25 26  1  0  0  0  0
 27 25  1  0  0  0  0
 27 28  1  0  0  0  0
 29 27  2  0  0  0  0
 30 29  1  0  0  0  0
 31 22  2  0  0  0  0
 31 29  1  0  0  0  0
 32 33  1  6  0  0  0
 32  6  1  0  0  0  0
 32 20  1  0  0  0  0
 32 34  1  0  0  0  0
 34 35  1  0  0  0  0
 34 36  1  0  0  0  0
 37 38  2  0  0  0  0
 37  1  1  0  0  0  0
 38 39  1  0  0  0  0
 39 40  2  0  0  0  0
 39 49  1  0  0  0  0
 40 53  1  0  0  0  0
 41 37  1  0  0  0  0
 42 41  1  0  0  0  0
 43 41  1  0  0  0  0
 44 41  1  0  0  0  0
 45 38  1  0  0  0  0
 45 47  1  0  0  0  0
 46 45  1  0  0  0  0
 48 45  1  0  0  0  0
 49 52  1  0  0  0  0
 49 50  1  0  0  0  0
 51 49  1  0  0  0  0
 53 55  1  0  0  0  0
 53 54  1  0  0  0  0
 56 53  1  0  0  0  0
 57 58  2  0  0  0  0
 57  2  1  0  0  0  0
 58 59  1  0  0  0  0
 59 60  2  0  0  0  0
 59 69  1  0  0  0  0
 60 73  1  0  0  0  0
 61 57  1  0  0  0  0
 62 61  1  0  0  0  0
 63 61  1  0  0  0  0
 64 61  1  0  0  0  0
 65 58  1  0  0  0  0
 65 68  1  0  0  0  0
 66 65  1  0  0  0  0
 67 65  1  0  0  0  0
 69 71  1  0  0  0  0
 69 70  1  0  0  0  0
 72 69  1  0  0  0  0
 73 75  1  0  0  0  0
 73 76  1  0  0  0  0
 74 73  1  0  0  0  0
M  END
