1,2
q = 0.0, confidence = 0.984

 66 71  0  0  0  0  0  0  0  0999 V2000
    1.6472    0.1029    0.0619 P   0  0  0  0  0  0  0  0  0  0  0  0
   -1.6321    0.1465   -0.0486 P   0  0  0  0  0  0  0  0  0  0  0  0
    3.2202   -0.6236   -0.5494 C   0  0  0  0  0  0  0  0  0  0  0  0
    4.4072   -0.5761    0.2070 C   0  0  0  0  0  0  0  0  0  0  0  0
    5.5788   -1.1703   -0.2900 C   0  0  0  0  0  0  0  0  0  0  0  0
    5.5767   -1.8061   -1.5399 C   0  0  0  0  0  0  0  0  0  0  0  0
    4.3926   -1.8611   -2.2957 C   0  0  0  0  0  0  0  0  0  0  0  0
    3.2170   -1.2826   -1.8001 C   0  0  0  0  0  0  0  0  0  0  0  0
    2.0019    0.7579    1.7327 C   0  0  0  0  0  0  0  0  0  0  0  0
    1.4157    0.1594    2.8624 C   0  0  0  0  0  0  0  0  0  0  0  0
    1.6807    0.6722    4.1412 C   0  0  0  0  0  0  0  0  0  0  0  0
    2.5333    1.7767    4.2926 C   0  0  0  0  0  0  0  0  0  0  0  0
    3.1219    2.3742    3.1646 C   0  0  0  0  0  0  0  0  0  0  0  0
    2.8547    1.8724    1.8842 C   0  0  0  0  0  0  0  0  0  0  0  0
    1.3445    1.5988   -0.9676 C   0  0  0  0  0  0  0  0  0  0  0  0
    2.0237    1.7626   -2.1919 C   0  0  0  0  0  0  0  0  0  0  0  0
    1.7577    2.8590   -3.0225 C   0  0  0  0  0  0  0  0  0  0  0  0
    0.8157    3.8185   -2.6277 C   0  0  0  0  0  0  0  0  0  0  0  0
    0.1562    3.6779   -1.4006 C   0  0  0  0  0  0  0  0  0  0  0  0
    0.3930    2.5726   -0.5562 C   0  0  0  0  0  0  0  0  0  0  0  0
   -1.3155    1.5603    1.0876 C   0  0  0  0  0  0  0  0  0  0  0  0
   -2.0066    1.6637    2.3117 C   0  0  0  0  0  0  0  0  0  0  0  0
   -1.7256    2.6998    3.2123 C   0  0  0  0  0  0  0  0  0  0  0  0
   -0.7572    3.6595    2.8891 C   0  0  0  0  0  0  0  0  0  0  0  0
   -0.0876    3.5819    1.6617 C   0  0  0  0  0  0  0  0  0  0  0  0
   -0.3393    2.5375    0.7475 C   0  0  0  0  0  0  0  0  0  0  0  0
   -1.9837    0.9355   -1.6611 C   0  0  0  0  0  0  0  0  0  0  0  0
   -1.3959    0.4381   -2.8379 C   0  0  0  0  0  0  0  0  0  0  0  0
   -1.6636    1.0585   -4.0676 C   0  0  0  0  0  0  0  0  0  0  0  0
   -2.5213    2.1680   -4.1233 C   0  0  0  0  0  0  0  0  0  0  0  0
   -3.1125    2.6632   -2.9480 C   0  0  0  0  0  0  0  0  0  0  0  0
   -2.8424    2.0544   -1.7156 C   0  0  0  0  0  0  0  0  0  0  0  0
   -3.2107   -0.6194    0.4961 C   0  0  0  0  0  0  0  0  0  0  0  0
   -3.2441   -1.3124    1.7274 C   0  0  0  0  0  0  0  0  0  0  0  0
   -4.4236   -1.9353    2.1551 C   0  0  0  0  0  0  0  0  0  0  0  0
   -5.5749   -1.8915    1.3499 C   0  0  0  0  0  0  0  0  0  0  0  0
   -5.5409   -1.2199    0.1194 C   0  0  0  0  0  0  0  0  0  0  0  0
   -4.3659   -0.5809   -0.3094 C   0  0  0  0  0  0  0  0  0  0  0  0
    4.4199   -0.0842    1.1898 H   0  0  0  0  0  0  0  0  0  0  0  0
    6.5003   -1.1350    0.3100 H   0  0  0  0  0  0  0  0  0  0  0  0
    6.4978   -2.2680   -1.9255 H   0  0  0  0  0  0  0  0  0  0  0  0
    4.3838   -2.3656   -3.2734 H   0  0  0  0  0  0  0  0  0  0  0  0
    2.2820   -1.3537   -2.3777 H   0  0  0  0  0  0  0  0  0  0  0  0
    0.7375   -0.6980    2.7236 H   0  0  0  0  0  0  0  0  0  0  0  0
    1.2158    0.2087    5.0240 H   0  0  0  0  0  0  0  0  0  0  0  0
    2.7394    2.1783    5.2961 H   0  0  0  0  0  0  0  0  0  0  0  0
    3.7884    3.2416    3.2838 H   0  0  0  0  0  0  0  0  0  0  0  0
    3.2985    2.3539    0.9989 H   0  0  0  0  0  0  0  0  0  0  0  0
    2.7834    1.0309   -2.4981 H   0  0  0  0  0  0  0  0  0  0  0  0
    2.2975    2.9648   -3.9750 H   0  0  0  0  0  0  0  0  0  0  0  0
    0.5976    4.6836   -3.2711 H   0  0  0  0  0  0  0  0  0  0  0  0
   -0.5810    4.4302   -1.0832 H   0  0  0  0  0  0  0  0  0  0  0  0
   -2.7894    0.9353    2.5622 H   0  0  0  0  0  0  0  0  0  0  0  0
   -2.2756    2.7592    4.1631 H   0  0  0  0  0  0  0  0  0  0  0  0
   -0.5276    4.4773    3.5880 H   0  0  0  0  0  0  0  0  0  0  0  0
    0.6672    4.3375    1.3982 H   0  0  0  0  0  0  0  0  0  0  0  0
   -0.7141   -0.4248   -2.7710 H   0  0  0  0  0  0  0  0  0  0  0  0
   -1.1968    0.6749   -4.9870 H   0  0  0  0  0  0  0  0  0  0  0  0
   -2.7299    2.6534   -5.0885 H   0  0  0  0  0  0  0  0  0  0  0  0
   -3.7840    3.5337   -2.9921 H   0  0  0  0  0  0  0  0  0  0  0  0
   -3.2901    2.4540   -0.7923 H   0  0  0  0  0  0  0  0  0  0  0  0
   -2.3363   -1.3720    2.3469 H   0  0  0  0  0  0  0  0  0  0  0  0
   -4.4436   -2.4647    3.1195 H   0  0  0  0  0  0  0  0  0  0  0  0
   -6.4985   -2.3881    1.6824 H   0  0  0  0  0  0  0  0  0  0  0  0
   -6.4368   -1.1902   -0.5185 H   0  0  0  0  0  0  0  0  0  0  0  0
   -4.3507   -0.0590   -1.2765 H   0  0  0  0  0  0  0  0  0  0  0  0
  1  9  1  0  0  0  0
  2 33  1  0  0  0  0
  2 21  1  0  0  0  0
  3  1  1  0  0  0  0
  3  4  1  0  0  0  0
  4 39  1  0  0  0  0
  5  4  2  0  0  0  0
  5 40  1  0  0  0  0
  6  5  1  0  0  0  0
  7  8  1  0  0  0  0
  7  6  2  0  0  0  0
  8  3  2  0  0  0  0
  9 14  2  0  0  0  0
  9 10  1  0  0  0  0
 10 11  2  0  0  0  0
 11 12  1  0  0  0  0
 11 45  1  0  0  0  0
 12 46  1  0  0  0  0
 13 47  1  0  0  0  0
 13 12  2  0  0  0  0
 14 13  1  0  0  0  0
 15 20  1  0  0  0  0
 15  1  1  0  0  0  0
 16 15  2  0  0  0  0
 17 18  2  0  0  0  0
 17 16  1  0  0  0  0
 18 19  1  0  0  0  0
 19 52  1  0  0  0  0
 19 20  2  0  0  0  0
 20 26  1  0  0  0  0
 21 22  1  0  0  0  0
 22 53  1  0  0  0  0
 22 23  2  0  0  0  0
 23 54  1  0  0  0  0
 24 23  1  0  0  0  0
 24 55  1  0  0  0  0
 25 24  2  0  0  0  0
 26 21  2  0  0  0  0
 26 25  1  0  0  0  0
 27  2  1  0  0  0  0
 28 57  1  0  0  0  0
 28 27  2  0  0  0  0
 29 28  1  0  0  0  0
 30 29  2  0  0  0  0
 30 31  1  0  0  0  0
 31 32  2  0  0  0  0
 32 27  1  0  0  0  0
 32 61  1  0  0  0  0
 33 34  1  0  0  0  0
 34 35  2  0  0  0  0
 34 62  1  0  0  0  0
 35 63  1  0  0  0  0
 36 64  1  0  0  0  0
 36 35  1  0  0  0  0
 37 36  2  0  0  0  0
 38 37  1  0  0  0  0
 38 33  2  0  0  0  0
 41  6  1  0  0  0  0
 42  7  1  0  0  0  0
 43  8  1  0  0  0  0
 44 10  1  0  0  0  0
 48 14  1  0  0  0  0
 49 16  1  0  0  0  0
 50 17  1  0  0  0  0
 51 18  1  0  0  0  0
 56 25  1  0  0  0  0
 58 29  1  0  0  0  0
 59 30  1  0  0  0  0
 60 31  1  0  0  0  0
 65 37  1  0  0  0  0
 66 38  1  0  0  0  0
M  END
