60,61
q = 0.0, confidence = 0.998

 61 65  0  0  1  0  0  0  0  0999 V2000
    2.1388    1.2553   -1.0839 C   0  0  0  0  0  0  0  0  0  0  0  0
    1.5641    1.9386   -2.1754 C   0  0  0  0  0  0  0  0  0  0  0  0
    0.6253    1.5621   -2.6103 H   0  0  0  0  0  0  0  0  0  0  0  0
    2.2035    3.0654   -2.7120 C   0  0  0  0  0  0  0  0  0  0  0  0
    1.7506    3.5916   -3.5655 H   0  0  0  0  0  0  0  0  0  0  0  0
    3.4188    3.5112   -2.1700 C   0  0  0  0  0  0  0  0  0  0  0  0
    3.9205    4.3942   -2.5945 H   0  0  0  0  0  0  0  0  0  0  0  0
    4.0002    2.8259   -1.0907 C   0  0  0  0  0  0  0  0  0  0  0  0
    4.9558    3.1692   -0.6663 H   0  0  0  0  0  0  0  0  0  0  0  0
    3.3660    1.7010   -0.5458 C   0  0  0  0  0  0  0  0  0  0  0  0
    3.8317    1.1708    0.2971 H   0  0  0  0  0  0  0  0  0  0  0  0
    2.3752   -1.5633   -0.1846 C   0  0  0  0  0  0  0  0  0  0  0  0
    3.6426   -1.5924   -0.7954 C   0  0  0  0  0  0  0  0  0  0  0  0
    3.9728   -0.7480   -1.4162 H   0  0  0  0  0  0  0  0  0  0  0  0
    4.4739   -2.7101   -0.6270 C   0  0  0  0  0  0  0  0  0  0  0  0
    5.4634   -2.7275   -1.1082 H   0  0  0  0  0  0  0  0  0  0  0  0
    4.0432   -3.8054    0.1368 C   0  0  0  0  0  0  0  0  0  0  0  0
    4.6973   -4.6814    0.2630 H   0  0  0  0  0  0  0  0  0  0  0  0
    2.7654   -3.7922    0.7209 C   0  0  0  0  0  0  0  0  0  0  0  0
    2.4102   -4.6603    1.2963 H   0  0  0  0  0  0  0  0  0  0  0  0
    1.9297   -2.6802    0.5546 C   0  0  0  0  0  0  0  0  0  0  0  0
    0.9120   -2.6960    0.9772 H   0  0  0  0  0  0  0  0  0  0  0  0
    2.9022    2.9227    2.8199 C   0  0  0  0  0  0  0  0  0  0  0  0
    2.8547    4.0258    2.8537 H   0  0  0  0  0  0  0  0  0  0  0  0
    3.9936    2.2432    3.3831 C   0  0  0  0  0  0  0  0  0  0  0  0
    4.8138    2.8004    3.8593 H   0  0  0  0  0  0  0  0  0  0  0  0
    3.9957    0.8402    3.3320 C   0  0  0  0  0  0  0  0  0  0  0  0
    4.8227    0.2622    3.7718 H   0  0  0  0  0  0  0  0  0  0  0  0
    2.9255    0.1836    2.7131 C   0  0  0  0  0  0  0  0  0  0  0  0
    2.8942   -0.9138    2.6457 H   0  0  0  0  0  0  0  0  0  0  0  0
    1.8867    0.9597    2.1519 C   0  0  0  0  0  0  0  0  0  0  0  0
    0.7556    0.3042    1.3982 C   0  0  1  0  0  0  0  0  0  0  0  0
    0.5326   -0.6821    1.8575 H   0  0  0  0  0  0  0  0  0  0  0  0
   -0.5177    1.1440    1.3286 C   0  0  0  0  0  0  0  0  0  0  0  0
   -0.2985    2.1134    0.8364 H   0  0  0  0  0  0  0  0  0  0  0  0
   -0.8905    1.3716    2.3474 H   0  0  0  0  0  0  0  0  0  0  0  0
   -3.1490    1.4655    0.0935 C   0  0  0  0  0  0  0  0  0  0  0  0
   -3.1788    2.6858    0.8017 C   0  0  0  0  0  0  0  0  0  0  0  0
   -2.3689    2.9595    1.4930 H   0  0  0  0  0  0  0  0  0  0  0  0
   -4.2529    3.5716    0.6254 C   0  0  0  0  0  0  0  0  0  0  0  0
   -4.2700    4.5222    1.1800 H   0  0  0  0  0  0  0  0  0  0  0  0
   -5.2967    3.2483   -0.2550 C   0  0  0  0  0  0  0  0  0  0  0  0
   -6.1367    3.9465   -0.3922 H   0  0  0  0  0  0  0  0  0  0  0  0
   -5.2627    2.0373   -0.9655 C   0  0  0  0  0  0  0  0  0  0  0  0
   -6.0728    1.7846   -1.6663 H   0  0  0  0  0  0  0  0  0  0  0  0
   -4.1950    1.1450   -0.7982 C   0  0  0  0  0  0  0  0  0  0  0  0
   -4.1396    0.2056   -1.3746 H   0  0  0  0  0  0  0  0  0  0  0  0
   -2.4718   -1.0175    1.4698 C   0  0  0  0  0  0  0  0  0  0  0  0
   -2.9147   -0.6572    2.7596 C   0  0  0  0  0  0  0  0  0  0  0  0
   -2.8989    0.3970    3.0789 H   0  0  0  0  0  0  0  0  0  0  0  0
   -3.3944   -1.6407    3.6356 C   0  0  0  0  0  0  0  0  0  0  0  0
   -3.7378   -1.3566    4.6420 H   0  0  0  0  0  0  0  0  0  0  0  0
   -3.4444   -2.9842    3.2254 C   0  0  0  0  0  0  0  0  0  0  0  0
   -3.8236   -3.7543    3.9144 H   0  0  0  0  0  0  0  0  0  0  0  0
   -3.0233   -3.3407    1.9352 C   0  0  0  0  0  0  0  0  0  0  0  0
   -3.0781   -4.3891    1.6049 H   0  0  0  0  0  0  0  0  0  0  0  0
   -2.5375   -2.3621    1.0530 C   0  0  0  0  0  0  0  0  0  0  0  0
   -2.2387   -2.6214    0.0243 H   0  0  0  0  0  0  0  0  0  0  0  0
    1.8751    2.3040    2.2195 N   0  0  0  0  0  0  0  0  0  0  0  0
    1.2189   -0.1648   -0.3958 P   0  0  0  0  0  0  0  0  0  0  0  0
   -1.7964    0.2500    0.3207 P   0  0  0  0  0  0  0  0  0  0  0  0
  1 10  1  0  0  0  0
  1 60  1  0  0  0  0
  2  1  2  0  0  0  0
  3  2  1  0  0  0  0
  4  2  1  0  0  0  0
  4  6  2  0  0  0  0
  5  4  1  0  0  0  0
  6  8  1  0  0  0  0
  7  6  1  0  0  0  0
  8  9  1  0  0  0  0
  8 10  2  0  0  0  0
 10 11  1  0  0  0  0
 12 21  1  0  0  0  0
 13 15  1  0  0  0  0
 13 12  2  0  0  0  0
 14 13  1  0  0  0  0
 15 17  2  0  0  0  0
 16 15  1  0  0  0  0
 17 18  1  0  0  0  0
 17 19  1  0  0  0  0
 19 20  1  0  0  0  0
 21 19  2  0  0  0  0
 21 22  1  0  0  0  0
 23 24  1  0  0  0  0
 23 25  1  0  0  0  0
 25 26  1  0  0  0  0
 27 25  2  0  0  0  0
 27 28  1  0  0  0  0
 29 27  1  0  0  0  0
 30 29  1  0  0  0  0
 31 59  1  0  0  0  0
 31 29  2  0  0  0  0
 32 33  1  1  0  0  0
 32 31  1  0  0  0  0
 34 32  1  0  0  0  0
 34 36  1  0  0  0  0
 35 34  1  0  0  0  0
 37 61  1  0  0  0  0
 37 38  1  0  0  0  0
 38 39  1  0  0  0  0
 40 38  2  0  0  0  0
 40 41  1  0  0  0  0
 42 40  1  0  0  0  0
 43 42  1  0  0  0  0
 44 46  1  0  0  0  0
 44 42  2  0  0  0  0
 45 44  1  0  0  0  0
 46 37  2  0  0  0  0
 47 46  1  0  0  0  0
 48 49  1  0  0  0  0
 49 50  1  0  0  0  0
 49 51  2  0  0  0  0
 51 52  1  0  0  0  0
 53 51  1  0  0  0  0
 53 54  1  0  0  0  0
 55 53  2  0  0  0  0
 56 55  1  0  0  0  0
 57 48  2  0  0  0  0
 57 55  1  0  0  0  0
 58 57  1  0  0  0  0
 59 23  2  0  0  0  0
 60 12  1  0  0  0  0
 60 32  1  0  0  0  0
 61 34  1  0  0  0  0
 61 48  1  0  0  0  0
M  END
