1,2
q = 0.0, confidence = 0.988

 60 63  0  0  1  0  0  0  0  0999 V2000
    1.5485   -0.0515    0.0346 P   0  0  0  0  0  0  0  0  0  0  0  0
   -1.6733   -0.1798    0.3163 P   0  0  0  0  0  0  0  0  0  0  0  0
    1.1470    0.2945    1.6294 O   0  0  0  0  0  0  0  0  0  0  0  0
   -1.4394   -0.8687    1.8187 O   0  0  0  0  0  0  0  0  0  0  0  0
    0.8787   -0.7414    2.5907 C   0  0  2  0  0  0  0  0  0  0  0  0
    1.7850   -1.3846    2.6898 H   0  0  0  0  0  0  0  0  0  0  0  0
   -0.2637   -1.6508    2.1005 C   0  0  1  0  0  0  0  0  0  0  0  0
    0.0742   -2.1246    1.1480 H   0  0  0  0  0  0  0  0  0  0  0  0
    0.6014   -0.0264    3.9039 C   0  0  0  0  0  0  0  0  0  0  0  0
    1.4431    0.6506    4.1449 H   0  0  0  0  0  0  0  0  0  0  0  0
    0.4891   -0.7495    4.7343 H   0  0  0  0  0  0  0  0  0  0  0  0
   -0.3230    0.5768    3.8222 H   0  0  0  0  0  0  0  0  0  0  0  0
   -0.6514   -2.7450    3.0819 C   0  0  0  0  0  0  0  0  0  0  0  0
   -1.1113   -2.3188    3.9948 H   0  0  0  0  0  0  0  0  0  0  0  0
    0.2396   -3.3348    3.3759 H   0  0  0  0  0  0  0  0  0  0  0  0
   -1.3814   -3.4327    2.6133 H   0  0  0  0  0  0  0  0  0  0  0  0
    2.1450    1.6151   -0.4225 C   0  0  0  0  0  0  0  0  0  0  0  0
    2.4208    1.8944   -1.7779 C   0  0  0  0  0  0  0  0  0  0  0  0
    2.2972    1.0968   -2.5293 H   0  0  0  0  0  0  0  0  0  0  0  0
    2.8296    3.1831   -2.1478 C   0  0  0  0  0  0  0  0  0  0  0  0
    3.0437    3.3993   -3.2054 H   0  0  0  0  0  0  0  0  0  0  0  0
    2.9576    4.1939   -1.1802 C   0  0  0  0  0  0  0  0  0  0  0  0
    3.2734    5.2055   -1.4782 H   0  0  0  0  0  0  0  0  0  0  0  0
    2.6763    3.9139    0.1661 C   0  0  0  0  0  0  0  0  0  0  0  0
    2.7645    4.7050    0.9263 H   0  0  0  0  0  0  0  0  0  0  0  0
    2.2684    2.6281    0.5505 C   0  0  0  0  0  0  0  0  0  0  0  0
    2.0173    2.4084    1.5967 H   0  0  0  0  0  0  0  0  0  0  0  0
    3.0068   -1.1343    0.2561 C   0  0  0  0  0  0  0  0  0  0  0  0
    4.1595   -0.6098    0.8756 C   0  0  0  0  0  0  0  0  0  0  0  0
    4.2123    0.4620    1.1224 H   0  0  0  0  0  0  0  0  0  0  0  0
    5.2398   -1.4555    1.1658 C   0  0  0  0  0  0  0  0  0  0  0  0
    6.1438   -1.0444    1.6402 H   0  0  0  0  0  0  0  0  0  0  0  0
    5.1698   -2.8213    0.8445 C   0  0  0  0  0  0  0  0  0  0  0  0
    6.0207   -3.4823    1.0696 H   0  0  0  0  0  0  0  0  0  0  0  0
    4.0199   -3.3429    0.2297 C   0  0  0  0  0  0  0  0  0  0  0  0
    3.9684   -4.4106   -0.0313 H   0  0  0  0  0  0  0  0  0  0  0  0
    2.9369   -2.5032   -0.0687 C   0  0  0  0  0  0  0  0  0  0  0  0
    2.0460   -2.8931   -0.5833 H   0  0  0  0  0  0  0  0  0  0  0  0
   -1.5871    1.6243    0.6247 C   0  0  0  0  0  0  0  0  0  0  0  0
   -1.1027    2.4738   -0.3877 C   0  0  0  0  0  0  0  0  0  0  0  0
   -0.7654    2.0469   -1.3458 H   0  0  0  0  0  0  0  0  0  0  0  0
   -1.0289    3.8573   -0.1631 C   0  0  0  0  0  0  0  0  0  0  0  0
   -0.6371    4.5155   -0.9527 H   0  0  0  0  0  0  0  0  0  0  0  0
   -1.4288    4.3898    1.0713 C   0  0  0  0  0  0  0  0  0  0  0  0
   -1.3601    5.4735    1.2513 H   0  0  0  0  0  0  0  0  0  0  0  0
   -1.9165    3.5412    2.0813 C   0  0  0  0  0  0  0  0  0  0  0  0
   -2.2333    3.9607    3.0484 H   0  0  0  0  0  0  0  0  0  0  0  0
   -2.0033    2.1605    1.8596 C   0  0  0  0  0  0  0  0  0  0  0  0
   -2.3893    1.4906    2.6427 H   0  0  0  0  0  0  0  0  0  0  0  0
   -3.4571   -0.4913    0.1022 C   0  0  0  0  0  0  0  0  0  0  0  0
   -4.1537    0.2137   -0.9003 C   0  0  0  0  0  0  0  0  0  0  0  0
   -3.6232    0.9335   -1.5405 H   0  0  0  0  0  0  0  0  0  0  0  0
   -5.5225   -0.0149   -1.0849 C   0  0  0  0  0  0  0  0  0  0  0  0
   -6.0646    0.5333   -1.8698 H   0  0  0  0  0  0  0  0  0  0  0  0
   -6.1981   -0.9482   -0.2804 C   0  0  0  0  0  0  0  0  0  0  0  0
   -7.2733   -1.1279   -0.4316 H   0  0  0  0  0  0  0  0  0  0  0  0
   -5.5014   -1.6536    0.7120 C   0  0  0  0  0  0  0  0  0  0  0  0
   -6.0278   -2.3861    1.3427 H   0  0  0  0  0  0  0  0  0  0  0  0
   -4.1293   -1.4301    0.9051 C   0  0  0  0  0  0  0  0  0  0  0  0
   -3.5762   -1.9743    1.6832 H   0  0  0  0  0  0  0  0  0  0  0  0
  1 28  1  0  0  0  0
  1  3  1  0  0  0  0
  2 39  1  0  0  0  0
  2  4  1  0  0  0  0
  3  5  1  0  0  0  0
  4  7  1  0  0  0  0
  5  6  1  1  0  0  0
  5  9  1  0  0  0  0
  7  8  1  6  0  0  0
  7  5  1  0  0  0  0
  7 13  1  0  0  0  0
  9 10  1  0  0  0  0
  9 11  1  0  0  0  0
 12  9  1  0  0  0  0
 13 15  1  0  0  0  0
 13 14  1  0  0  0  0
 16 13  1  0  0  0  0
 17  1  1  0  0  0  0
 17 26  1  0  0  0  0
 18 17  2  0  0  0  0
 19 18  1  0  0  0  0
 20 18  1  0  0  0  0
 20 22  2  0  0  0  0
 21 20  1  0  0  0  0
 22 24  1  0  0  0  0
 23 22  1  0  0  0  0
 24 26  2  0  0  0  0
 24 25  1  0  0  0  0
 26 27  1  0  0  0  0
 28 29  1  0  0  0  0
 29 30  1  0  0  0  0
 29 31  2  0  0  0  0
 31 32  1  0  0  0  0
 33 34  1  0  0  0  0
 33 31  1  0  0  0  0
 35 33  2  0  0  0  0
 36 35  1  0  0  0  0
 37 35  1  0  0  0  0
 37 28  2  0  0  0  0
 38 37  1  0  0  0  0
 39 48  1  0  0  0  0
 40 42  1  0  0  0  0
 40 39  2  0  0  0  0
 41 40  1  0  0  0  0
 42 44  2  0  0  0  0
 43 42  1  0  0  0  0
 44 45  1  0  0  0  0
 44 46  1  0  0  0  0
 46 47  1  0  0  0  0
 48 46  2  0  0  0  0
 48 49  1  0  0  0  0
 50  2  1  0  0  0  0
 50 59  1  0  0  0  0
 51 50  2  0  0  0  0
 52 51  1  0  0  0  0
 53 51  1  0  0  0  0
 53 55  2  0  0  0  0
 54 53  1  0  0  0  0
 55 57  1  0  0  0  0
 56 55  1  0  0  0  0
 57 59  2  0  0  0  0
 57 58  1  0  0  0  0
 59 60  1  0  0  0  0
M  END
