1,2
q = 0.0, confidence = 0.992

 72 77  0  0  0  0  0  0  0  0999 V2000
   -1.5578   -0.2911    0.0045 P   0  0  0  0  0  0  0  0  0  0  0  0
    1.6848   -0.1486   -0.2132 P   0  0  0  0  0  0  0  0  0  0  0  0
   -1.3835    3.4230   -2.3532 S   0  0  0  0  0  0  0  0  0  0  0  0
    1.1900    2.1045    3.4544 S   0  0  0  0  0  0  0  0  0  0  0  0
   -1.2841    1.3379   -0.8277 C   0  0  0  0  0  0  0  0  0  0  0  0
   -0.4510    2.3588   -0.2022 C   0  0  0  0  0  0  0  0  0  0  0  0
   -0.4267    3.5532   -0.9098 C   0  0  0  0  0  0  0  0  0  0  0  0
   -1.8384    1.7690   -2.0322 C   0  0  0  0  0  0  0  0  0  0  0  0
    0.3617    4.7899   -0.6144 C   0  0  0  0  0  0  0  0  0  0  0  0
   -0.2769    5.6206   -0.2456 H   0  0  0  0  0  0  0  0  0  0  0  0
    0.8949    5.1589   -1.5146 H   0  0  0  0  0  0  0  0  0  0  0  0
    1.1125    4.5718    0.1698 H   0  0  0  0  0  0  0  0  0  0  0  0
   -2.6741    1.0914   -3.0767 C   0  0  0  0  0  0  0  0  0  0  0  0
   -2.1736    0.1752   -3.4464 H   0  0  0  0  0  0  0  0  0  0  0  0
   -2.8286    1.7640   -3.9423 H   0  0  0  0  0  0  0  0  0  0  0  0
   -3.6678    0.7868   -2.6945 H   0  0  0  0  0  0  0  0  0  0  0  0
    1.3669    1.0822    1.0964 C   0  0  0  0  0  0  0  0  0  0  0  0
    0.3630    2.1234    1.0080 C   0  0  0  0  0  0  0  0  0  0  0  0
    0.1875    2.7994    2.2124 C   0  0  0  0  0  0  0  0  0  0  0  0
    1.8728    0.9098    2.3839 C   0  0  0  0  0  0  0  0  0  0  0  0
   -0.7302    3.9407    2.5156 C   0  0  0  0  0  0  0  0  0  0  0  0
   -0.1865    4.9082    2.5732 H   0  0  0  0  0  0  0  0  0  0  0  0
   -1.2615    3.7939    3.4766 H   0  0  0  0  0  0  0  0  0  0  0  0
   -1.4897    4.0271    1.7154 H   0  0  0  0  0  0  0  0  0  0  0  0
    2.7894   -0.1439    2.9269 C   0  0  0  0  0  0  0  0  0  0  0  0
    2.6005   -1.1219    2.4330 H   0  0  0  0  0  0  0  0  0  0  0  0
    2.6337   -0.2765    4.0151 H   0  0  0  0  0  0  0  0  0  0  0  0
    3.8588    0.1042    2.7639 H   0  0  0  0  0  0  0  0  0  0  0  0
   -2.1934    0.2744    1.6413 C   0  0  0  0  0  0  0  0  0  0  0  0
   -1.8625   -0.4410    2.8082 C   0  0  0  0  0  0  0  0  0  0  0  0
   -1.2484   -1.3505    2.7283 H   0  0  0  0  0  0  0  0  0  0  0  0
   -2.3356   -0.0003    4.0534 C   0  0  0  0  0  0  0  0  0  0  0  0
   -2.0657   -0.5592    4.9620 H   0  0  0  0  0  0  0  0  0  0  0  0
   -3.1505    1.1387    4.1421 C   0  0  0  0  0  0  0  0  0  0  0  0
   -3.5228    1.4767    5.1213 H   0  0  0  0  0  0  0  0  0  0  0  0
   -3.4897    1.8481    2.9782 C   0  0  0  0  0  0  0  0  0  0  0  0
   -4.1256    2.7445    3.0411 H   0  0  0  0  0  0  0  0  0  0  0  0
   -3.0041    1.4260    1.7324 C   0  0  0  0  0  0  0  0  0  0  0  0
   -3.2370    2.0067    0.8267 H   0  0  0  0  0  0  0  0  0  0  0  0
   -2.9872   -1.0472   -0.8693 C   0  0  0  0  0  0  0  0  0  0  0  0
   -4.3143   -0.6611   -0.6078 C   0  0  0  0  0  0  0  0  0  0  0  0
   -4.5334    0.0725    0.1811 H   0  0  0  0  0  0  0  0  0  0  0  0
   -5.3657   -1.2219   -1.3502 C   0  0  0  0  0  0  0  0  0  0  0  0
   -6.4028   -0.9200   -1.1387 H   0  0  0  0  0  0  0  0  0  0  0  0
   -5.0970   -2.1690   -2.3508 C   0  0  0  0  0  0  0  0  0  0  0  0
   -5.9233   -2.6078   -2.9304 H   0  0  0  0  0  0  0  0  0  0  0  0
   -3.7739   -2.5735   -2.5942 C   0  0  0  0  0  0  0  0  0  0  0  0
   -3.5601   -3.3370   -3.3573 H   0  0  0  0  0  0  0  0  0  0  0  0
   -2.7227   -2.0236   -1.8497 C   0  0  0  0  0  0  0  0  0  0  0  0
   -1.6874   -2.3639   -2.0035 H   0  0  0  0  0  0  0  0  0  0  0  0
    1.5016    0.6123   -1.8820 C   0  0  0  0  0  0  0  0  0  0  0  0
    2.0294    1.8803   -2.1911 C   0  0  0  0  0  0  0  0  0  0  0  0
    2.4884    2.4937   -1.4010 H   0  0  0  0  0  0  0  0  0  0  0  0
    1.9653    2.3614   -3.5059 C   0  0  0  0  0  0  0  0  0  0  0  0
    2.3676    3.3584   -3.7420 H   0  0  0  0  0  0  0  0  0  0  0  0
    1.3929    1.5755   -4.5203 C   0  0  0  0  0  0  0  0  0  0  0  0
    1.3485    1.9566   -5.5518 H   0  0  0  0  0  0  0  0  0  0  0  0
    0.8813    0.3046   -4.2168 C   0  0  0  0  0  0  0  0  0  0  0  0
    0.4384   -0.3183   -5.0088 H   0  0  0  0  0  0  0  0  0  0  0  0
    0.9323   -0.1763   -2.8995 C   0  0  0  0  0  0  0  0  0  0  0  0
    0.5288   -1.1686   -2.6406 H   0  0  0  0  0  0  0  0  0  0  0  0
    3.5043   -0.4108   -0.2376 C   0  0  0  0  0  0  0  0  0  0  0  0
    4.3741    0.6234    0.1644 C   0  0  0  0  0  0  0  0  0  0  0  0
    3.9651    1.5445    0.6075 H   0  0  0  0  0  0  0  0  0  0  0  0
    5.7600    0.4746    0.0088 C   0  0  0  0  0  0  0  0  0  0  0  0
    6.4347    1.2827    0.3304 H   0  0  0  0  0  0  0  0  0  0  0  0
    6.2826   -0.7011   -0.5535 C   0  0  0  0  0  0  0  0  0  0  0  0
    7.3706   -0.8188   -0.6714 H   0  0  0  0  0  0  0  0  0  0  0  0
    5.4152   -1.7257   -0.9636 C   0  0  0  0  0  0  0  0  0  0  0  0
    5.8205   -2.6502   -1.4018 H   0  0  0  0  0  0  0  0  0  0  0  0
    4.0278   -1.5859   -0.8110 C   0  0  0  0  0  0  0  0  0  0  0  0
    3.3480   -2.3972   -1.1059 H   0  0  0  0  0  0  0  0  0  0  0  0
  1 29  1  0  0  0  0
  2 17  1  0  0  0  0
  3  8  1  0  0  0  0
  3  7  1  0  0  0  0
  5  6  1  0  0  0  0
  5  1  1  0  0  0  0
  6 18  1  0  0  0  0
  7  9  1  0  0  0  0
  7  6  2  0  0  0  0
  8  5  2  0  0  0  0
  9 10  1  0  0  0  0
  9 12  1  0  0  0  0
 11  9  1  0  0  0  0
 13 16  1  0  0  0  0
 13  8  1  0  0  0  0
 14 13  1  0  0  0  0
 15 13  1  0  0  0  0
 17 20  2  0  0  0  0
 18 17  1  0  0  0  0
 18 19  2  0  0  0  0
 19 21  1  0  0  0  0
 19  4  1  0  0  0  0
 20 25  1  0  0  0  0
 20  4  1  0  0  0  0
 21 22  1  0  0  0  0
 21 23  1  0  0  0  0
 24 21  1  0  0  0  0
 25 27  1  0  0  0  0
 26 25  1  0  0  0  0
 28 25  1  0  0  0  0
 29 38  2  0  0  0  0
 29 30  1  0  0  0  0
 30 32  2  0  0  0  0
 31 30  1  0  0  0  0
 32 34  1  0  0  0  0
 32 33  1  0  0  0  0
 34 35  1  0  0  0  0
 36 37  1  0  0  0  0
 36 34  2  0  0  0  0
 38 36  1  0  0  0  0
 39 38  1  0  0  0  0
 40 41  1  0  0  0  0
 40  1  1  0  0  0  0
 41 42  1  0  0  0  0
 43 44  1  0  0  0  0
 43 41  2  0  0  0  0
 45 43  1  0  0  0  0
 46 45  1  0  0  0  0
 47 45  2  0  0  0  0
 47 49  1  0  0  0  0
 48 47  1  0  0  0  0
 49 40  2  0  0  0  0
 50 49  1  0  0  0  0
 51  2  1  0  0  0  0
 52 51  1  0  0  0  0
 52 53  1  0  0  0  0
 54 52  2  0  0  0  0
 55 54  1  0  0  0  0
 56 58  2  0  0  0  0
 56 54  1  0  0  0  0
 57 56  1  0  0  0  0
 58 60  1  0  0  0  0
 59 58  1  0  0  0  0
 60 61  1  0  0  0  0
 60 51  2  0  0  0  0
 62  2  1  0  0  0  0
 62 63  1  0  0  0  0
 63 64  1  0  0  0  0
 65 63  2  0  0  0  0
 65 66  1  0  0  0  0
 67 65  1  0  0  0  0
 68 67  1  0  0  0  0
 69 71  1  0  0  0  0
 69 67  2  0  0  0  0
 70 69  1  0  0  0  0
 71 62  2  0  0  0  0
 72 71  1  0  0  0  0
M  END
