1,2
q = 0.0, confidence = 1.0

 31 31  0  0  1  0  0  0  0  0999 V2000
    0.7975    1.6420    0.1086 P   0  0  0  0  0  0  0  0  0  0  0  0
    0.7731   -1.6265    0.1282 P   0  0  0  0  0  0  0  0  0  0  0  0
    2.3713    0.6806    0.3616 C   0  0  1  0  0  0  0  0  0  0  0  0
    2.2928   -0.6753   -0.3783 C   0  0  1  0  0  0  0  0  0  0  0  0
    3.7049   -1.2673   -0.2164 C   0  0  0  0  0  0  0  0  0  0  0  0
    4.6509   -0.0303   -0.0999 C   0  0  0  0  0  0  0  0  0  0  0  0
    3.7340    1.2215   -0.0918 C   0  0  0  0  0  0  0  0  0  0  0  0
    0.9823    2.6551   -1.4003 C   0  0  0  0  0  0  0  0  0  0  0  0
    0.6912    2.8480    1.4837 C   0  0  0  0  0  0  0  0  0  0  0  0
    1.1411   -2.3183    1.7927 C   0  0  0  0  0  0  0  0  0  0  0  0
    0.7399   -3.0904   -0.9748 C   0  0  0  0  0  0  0  0  0  0  0  0
    3.7674   -1.8807    0.7060 H   0  0  0  0  0  0  0  0  0  0  0  0
    3.9708   -1.9314   -1.0616 H   0  0  0  0  0  0  0  0  0  0  0  0
    5.3836    0.0129   -0.9295 H   0  0  0  0  0  0  0  0  0  0  0  0
    5.2401   -0.0866    0.8371 H   0  0  0  0  0  0  0  0  0  0  0  0
    4.1168    2.0361    0.5542 H   0  0  0  0  0  0  0  0  0  0  0  0
    3.6375    1.6320   -1.1183 H   0  0  0  0  0  0  0  0  0  0  0  0
    1.1322    1.9861   -2.2681 H   0  0  0  0  0  0  0  0  0  0  0  0
    1.8044    3.3907   -1.3074 H   0  0  0  0  0  0  0  0  0  0  0  0
    0.0071    3.1643   -1.5362 H   0  0  0  0  0  0  0  0  0  0  0  0
    0.6360    2.3007    2.4448 H   0  0  0  0  0  0  0  0  0  0  0  0
   -0.2625    3.3948    1.3420 H   0  0  0  0  0  0  0  0  0  0  0  0
    1.5434    3.5554    1.4954 H   0  0  0  0  0  0  0  0  0  0  0  0
    1.2468   -1.4985    2.5291 H   0  0  0  0  0  0  0  0  0  0  0  0
    2.0569   -2.9412    1.7896 H   0  0  0  0  0  0  0  0  0  0  0  0
    0.2802   -2.9403    2.1064 H   0  0  0  0  0  0  0  0  0  0  0  0
    0.5129   -2.7269   -1.9953 H   0  0  0  0  0  0  0  0  0  0  0  0
   -0.0773   -3.7626   -0.6482 H   0  0  0  0  0  0  0  0  0  0  0  0
    1.7045   -3.6352   -0.9566 H   0  0  0  0  0  0  0  0  0  0  0  0
    2.4001    0.4829    1.4596 H   0  0  0  0  0  0  0  0  0  0  0  0
    2.0862   -0.4647   -1.4523 H   0  0  0  0  0  0  0  0  0  0  0  0
  1  3  1  0  0  0  0
  1  9  1  0  0  0  0
  2 10  1  0  0  0  0
  3 30  1  1  0  0  0
  4 31  1  6  0  0  0
  4  5  1  0  0  0  0
  4  2  1  0  0  0  0
  4  3  1  0  0  0  0
  5  6  1  0  0  0  0
  5 12  1  0  0  0  0
  6  7  1  0  0  0  0
  6 15  1  0  0  0  0
  7  3  1  0  0  0  0
  7 16  1  0  0  0  0
  8 19  1  0  0  0  0
  8  1  1  0  0  0  0
  9 23  1  0  0  0  0
  9 21  1  0  0  0  0
 10 26  1  0  0  0  0
 10 24  1  0  0  0  0
 11 29  1  0  0  0  0
 11 28  1  0  0  0  0
 11  2  1  0  0  0  0
 13  5  1  0  0  0  0
 14  6  1  0  0  0  0
 17  7  1  0  0  0  0
 18  8  1  0  0  0  0
 20  8  1  0  0  0  0
 22  9  1  0  0  0  0
 25 10  1  0  0  0  0
 27 11  1  0  0  0  0
M  END
