1,2
q = 0.0, confidence = 0.996

 81 85  0  0  0  0  0  0  0  0999 V2000
   -1.7359   -2.1427    0.0683 P   0  0  0  0  0  0  0  0  0  0  0  0
   -1.8102    2.1137    0.2206 P   0  0  0  0  0  0  0  0  0  0  0  0
    3.1243    0.0375    0.2882 O   0  0  0  0  0  0  0  0  0  0  0  0
    5.1426   -0.7077   -0.5453 C   0  0  0  0  0  0  0  0  0  0  0  0
    3.8944   -1.0765    0.0195 C   0  0  0  0  0  0  0  0  0  0  0  0
    3.5373   -2.4117    0.2913 C   0  0  0  0  0  0  0  0  0  0  0  0
    4.5223   -3.3710   -0.0473 C   0  0  0  0  0  0  0  0  0  0  0  0
    4.2835   -4.4323    0.1154 H   0  0  0  0  0  0  0  0  0  0  0  0
    5.7650   -3.0285   -0.6123 C   0  0  0  0  0  0  0  0  0  0  0  0
    6.4796   -3.8270   -0.8607 H   0  0  0  0  0  0  0  0  0  0  0  0
    6.0920   -1.6920   -0.8698 C   0  0  0  0  0  0  0  0  0  0  0  0
    7.0611   -1.4162   -1.3108 H   0  0  0  0  0  0  0  0  0  0  0  0
    5.1239    0.7400   -0.6239 C   0  0  0  0  0  0  0  0  0  0  0  0
    3.8687    1.1356   -0.0936 C   0  0  0  0  0  0  0  0  0  0  0  0
    3.4874    2.4831    0.0555 C   0  0  0  0  0  0  0  0  0  0  0  0
    4.4432    3.4253   -0.3956 C   0  0  0  0  0  0  0  0  0  0  0  0
    4.1828    4.4921   -0.3324 H   0  0  0  0  0  0  0  0  0  0  0  0
    5.6862    3.0554   -0.9422 C   0  0  0  0  0  0  0  0  0  0  0  0
    6.3775    3.8403   -1.2828 H   0  0  0  0  0  0  0  0  0  0  0  0
    6.0459    1.7076   -1.0587 C   0  0  0  0  0  0  0  0  0  0  0  0
    7.0194    1.4106   -1.4758 H   0  0  0  0  0  0  0  0  0  0  0  0
    2.2407   -2.8508    0.8604 C   0  0  0  0  0  0  0  0  0  0  0  0
    1.0162   -2.2775    0.4559 C   0  0  0  0  0  0  0  0  0  0  0  0
    1.0143   -1.4039   -0.2129 H   0  0  0  0  0  0  0  0  0  0  0  0
   -0.2170   -2.8275    0.8608 C   0  0  0  0  0  0  0  0  0  0  0  0
   -0.2214   -3.9222    1.7482 C   0  0  0  0  0  0  0  0  0  0  0  0
   -1.1680   -4.3705    2.0817 H   0  0  0  0  0  0  0  0  0  0  0  0
    0.9892   -4.4499    2.2216 C   0  0  0  0  0  0  0  0  0  0  0  0
    0.9798   -5.2830    2.9409 H   0  0  0  0  0  0  0  0  0  0  0  0
    2.2081   -3.9318    1.7716 C   0  0  0  0  0  0  0  0  0  0  0  0
    3.1540   -4.3574    2.1380 H   0  0  0  0  0  0  0  0  0  0  0  0
    2.2082    2.9455    0.6450 C   0  0  0  0  0  0  0  0  0  0  0  0
    0.9738    2.3242    0.3545 C   0  0  0  0  0  0  0  0  0  0  0  0
    0.9443    1.4181   -0.2692 H   0  0  0  0  0  0  0  0  0  0  0  0
   -0.2394    2.8646    0.8234 C   0  0  0  0  0  0  0  0  0  0  0  0
   -0.2138    4.0123    1.6425 C   0  0  0  0  0  0  0  0  0  0  0  0
   -1.1490    4.4475    2.0233 H   0  0  0  0  0  0  0  0  0  0  0  0
    1.0098    4.6037    1.9866 C   0  0  0  0  0  0  0  0  0  0  0  0
    1.0285    5.4824    2.6491 H   0  0  0  0  0  0  0  0  0  0  0  0
    2.2077    4.0834    1.4844 C   0  0  0  0  0  0  0  0  0  0  0  0
    3.1652    4.5507    1.7583 H   0  0  0  0  0  0  0  0  0  0  0  0
   -3.1406   -2.8063    1.1205 C   0  0  0  0  0  0  0  0  0  0  0  0
   -2.9287   -3.8880    1.2659 H   0  0  0  0  0  0  0  0  0  0  0  0
   -4.4908   -2.6706    0.4076 C   0  0  0  0  0  0  0  0  0  0  0  0
   -5.3042   -3.0126    1.0810 H   0  0  0  0  0  0  0  0  0  0  0  0
   -4.5427   -3.2774   -0.5173 H   0  0  0  0  0  0  0  0  0  0  0  0
   -4.6885   -1.6187    0.1184 H   0  0  0  0  0  0  0  0  0  0  0  0
   -3.1490   -2.1111    2.4865 C   0  0  0  0  0  0  0  0  0  0  0  0
   -3.8783   -2.6024    3.1638 H   0  0  0  0  0  0  0  0  0  0  0  0
   -3.4520   -1.0510    2.3774 H   0  0  0  0  0  0  0  0  0  0  0  0
   -2.1562   -2.1264    2.9790 H   0  0  0  0  0  0  0  0  0  0  0  0
   -1.8265   -3.1448   -1.5225 C   0  0  0  0  0  0  0  0  0  0  0  0
   -2.7867   -2.7837   -1.9526 H   0  0  0  0  0  0  0  0  0  0  0  0
   -1.8638   -4.6584   -1.3117 C   0  0  0  0  0  0  0  0  0  0  0  0
   -1.9491   -5.1741   -2.2915 H   0  0  0  0  0  0  0  0  0  0  0  0
   -2.7254   -4.9836   -0.6950 H   0  0  0  0  0  0  0  0  0  0  0  0
   -0.9362   -5.0244   -0.8244 H   0  0  0  0  0  0  0  0  0  0  0  0
   -0.7073   -2.7118   -2.4743 C   0  0  0  0  0  0  0  0  0  0  0  0
   -0.8462   -3.1936   -3.4643 H   0  0  0  0  0  0  0  0  0  0  0  0
    0.2930   -3.0072   -2.0957 H   0  0  0  0  0  0  0  0  0  0  0  0
   -0.7231   -1.6137   -2.6253 H   0  0  0  0  0  0  0  0  0  0  0  0
   -3.0567    2.5210    1.5607 C   0  0  0  0  0  0  0  0  0  0  0  0
   -3.0451    3.6255    1.6888 H   0  0  0  0  0  0  0  0  0  0  0  0
   -4.4618    2.0965    1.1163 C   0  0  0  0  0  0  0  0  0  0  0  0
   -5.2001    2.3391    1.9086 H   0  0  0  0  0  0  0  0  0  0  0  0
   -4.5032    1.0064    0.9182 H   0  0  0  0  0  0  0  0  0  0  0  0
   -4.7816    2.6022    0.1842 H   0  0  0  0  0  0  0  0  0  0  0  0
   -2.6413    1.8567    2.8780 C   0  0  0  0  0  0  0  0  0  0  0  0
   -3.3948    2.0592    3.6673 H   0  0  0  0  0  0  0  0  0  0  0  0
   -1.6580    2.2173    3.2382 H   0  0  0  0  0  0  0  0  0  0  0  0
   -2.5604    0.7604    2.7443 H   0  0  0  0  0  0  0  0  0  0  0  0
   -2.2438    3.2324   -1.2286 C   0  0  0  0  0  0  0  0  0  0  0  0
   -3.1878    2.7699   -1.5927 H   0  0  0  0  0  0  0  0  0  0  0  0
   -2.4703    4.7013   -0.8729 C   0  0  0  0  0  0  0  0  0  0  0  0
   -2.7576    5.2670   -1.7843 H   0  0  0  0  0  0  0  0  0  0  0  0
   -1.5494    5.1725   -0.4711 H   0  0  0  0  0  0  0  0  0  0  0  0
   -3.2827    4.8423   -0.1320 H   0  0  0  0  0  0  0  0  0  0  0  0
   -1.1900    3.0497   -2.3260 C   0  0  0  0  0  0  0  0  0  0  0  0
   -1.4994    3.5924   -3.2431 H   0  0  0  0  0  0  0  0  0  0  0  0
   -1.0785    1.9785   -2.5880 H   0  0  0  0  0  0  0  0  0  0  0  0
   -0.2013    3.4465   -2.0149 H   0  0  0  0  0  0  0  0  0  0  0  0
  1 25  1  0  0  0  0
  1 42  1  0  0  0  0
  2 35  1  0  0  0  0
  2 62  1  0  0  0  0
  4  5  2  0  0  0  0
  5  3  1  0  0  0  0
  5  6  1  0  0  0  0
  6 22  1  0  0  0  0
  7  8  1  0  0  0  0
  7  6  2  0  0  0  0
  9  7  1  0  0  0  0
 10  9  1  0  0  0  0
 11  9  2  0  0  0  0
 11  4  1  0  0  0  0
 12 11  1  0  0  0  0
 13  4  1  0  0  0  0
 13 14  1  0  0  0  0
 14 15  2  0  0  0  0
 14  3  1  0  0  0  0
 15 32  1  0  0  0  0
 16 17  1  0  0  0  0
 16 15  1  0  0  0  0
 18 16  2  0  0  0  0
 19 18  1  0  0  0  0
 20 18  1  0  0  0  0
 20 13  2  0  0  0  0
 21 20  1  0  0  0  0
 22 30  1  0  0  0  0
 23 22  2  0  0  0  0
 23 25  1  0  0  0  0
 24 23  1  0  0  0  0
 25 26  2  0  0  0  0
 26 27  1  0  0  0  0
 26 28  1  0  0  0  0
 28 29  1  0  0  0  0
 30 31  1  0  0  0  0
 30 28  2  0  0  0  0
 32 40  1  0  0  0  0
 33 32  2  0  0  0  0
 33 35  1  0  0  0  0
 34 33  1  0  0  0  0
 35 36  2  0  0  0  0
 36 38  1  0  0  0  0
 36 37  1  0  0  0  0
 38 39  1  0  0  0  0
 40 41  1  0  0  0  0
 40 38  2  0  0  0  0
 42 43  1  0  0  0  0
 42 48  1  0  0  0  0
 44 45  1  0  0  0  0
 44 42  1  0  0  0  0
 46 44  1  0  0  0  0
 47 44  1  0  0  0  0
 48 51  1  0  0  0  0
 48 49  1  0  0  0  0
 50 48  1  0  0  0  0
 52 54  1  0  0  0  0
 52  1  1  0  0  0  0
 53 52  1  0  0  0  0
 54 57  1  0  0  0  0
 54 56  1  0  0  0  0
 55 54  1  0  0  0  0
 58 60  1  0  0  0  0
 58 52  1  0  0  0  0
 59 58  1  0  0  0  0
 61 58  1  0  0  0  0
 62 63  1  0  0  0  0
 62 68  1  0  0  0  0
 64 62  1  0  0  0  0
 64 65  1  0  0  0  0
 66 64  1  0  0  0  0
 67 64  1  0  0  0  0
 68 70  1  0  0  0  0
 68 69  1  0  0  0  0
 71 68  1  0  0  0  0
 72 74  1  0  0  0  0
 72  2  1  0  0  0  0
 73 72  1  0  0  0  0
 74 76  1  0  0  0  0
 74 77  1  0  0  0  0
 75 74  1  0  0  0  0
 78 81  1  0  0  0  0
 78 72  1  0  0  0  0
 79 78  1  0  0  0  0
 80 78  1  0  0  0  0
M  END
