1,2
q = 0.0, confidence = 0.99

 63 67  0  0  1  0  0  0  0  0999 V2000
   -1.6092   -0.0618    0.1512 P   0  0  0  0  0  0  0  0  0  0  0  0
    1.6328   -0.0994    0.0595 P   0  0  0  0  0  0  0  0  0  0  0  0
    1.0560   -0.4706    1.5985 O   0  0  0  0  0  0  0  0  0  0  0  0
    0.2151   -1.6393    1.6143 C   0  0  2  0  0  0  0  0  0  0  0  0
   -1.2686   -1.2389    1.5840 C   0  0  2  0  0  0  0  0  0  0  0  0
   -2.1447   -2.5045    1.5874 C   0  0  0  0  0  0  0  0  0  0  0  0
   -1.8187   -3.3838    2.8036 C   0  0  0  0  0  0  0  0  0  0  0  0
   -0.3293   -3.7414    2.8778 C   0  0  0  0  0  0  0  0  0  0  0  0
    0.5505   -2.4861    2.8378 C   0  0  0  0  0  0  0  0  0  0  0  0
    2.4115    1.5016    0.4284 C   0  0  0  0  0  0  0  0  0  0  0  0
    3.4666    1.9697   -0.3817 C   0  0  0  0  0  0  0  0  0  0  0  0
    4.0100    3.2389   -0.1419 C   0  0  0  0  0  0  0  0  0  0  0  0
    3.5020    4.0444    0.8910 C   0  0  0  0  0  0  0  0  0  0  0  0
    2.4468    3.5781    1.6908 C   0  0  0  0  0  0  0  0  0  0  0  0
    1.8975    2.3083    1.4637 C   0  0  0  0  0  0  0  0  0  0  0  0
    2.9772   -1.3275   -0.1274 C   0  0  0  0  0  0  0  0  0  0  0  0
    3.0051   -2.2300   -1.2070 C   0  0  0  0  0  0  0  0  0  0  0  0
    3.9977   -3.2207   -1.2556 C   0  0  0  0  0  0  0  0  0  0  0  0
    4.9565   -3.3121   -0.2342 C   0  0  0  0  0  0  0  0  0  0  0  0
    4.9267   -2.4115    0.8445 C   0  0  0  0  0  0  0  0  0  0  0  0
    3.9371   -1.4207    0.9033 C   0  0  0  0  0  0  0  0  0  0  0  0
   -1.6413    1.6398    0.8563 C   0  0  0  0  0  0  0  0  0  0  0  0
   -1.5996    2.6959   -0.0828 C   0  0  0  0  0  0  0  0  0  0  0  0
   -1.5692    4.0256    0.3571 C   0  0  0  0  0  0  0  0  0  0  0  0
   -1.5768    4.3186    1.7309 C   0  0  0  0  0  0  0  0  0  0  0  0
   -1.6310    3.2745    2.6663 C   0  0  0  0  0  0  0  0  0  0  0  0
   -1.6659    1.9391    2.2323 C   0  0  0  0  0  0  0  0  0  0  0  0
   -3.3492   -0.4190   -0.2923 C   0  0  0  0  0  0  0  0  0  0  0  0
   -4.4070    0.2132    0.3895 C   0  0  0  0  0  0  0  0  0  0  0  0
   -5.7345   -0.1443    0.1058 C   0  0  0  0  0  0  0  0  0  0  0  0
   -6.0074   -1.1301   -0.8552 C   0  0  0  0  0  0  0  0  0  0  0  0
   -4.9521   -1.7542   -1.5407 C   0  0  0  0  0  0  0  0  0  0  0  0
   -3.6243   -1.3977   -1.2687 C   0  0  0  0  0  0  0  0  0  0  0  0
    0.4160   -2.2516    0.7011 H   0  0  0  0  0  0  0  0  0  0  0  0
   -1.4779   -0.6676    2.5132 H   0  0  0  0  0  0  0  0  0  0  0  0
   -3.2169   -2.2286    1.5858 H   0  0  0  0  0  0  0  0  0  0  0  0
   -1.9716   -3.0753    0.6483 H   0  0  0  0  0  0  0  0  0  0  0  0
   -2.1120   -2.8399    3.7294 H   0  0  0  0  0  0  0  0  0  0  0  0
   -2.4375   -4.3044    2.7742 H   0  0  0  0  0  0  0  0  0  0  0  0
   -0.1139   -4.3304    3.7928 H   0  0  0  0  0  0  0  0  0  0  0  0
   -0.0666   -4.3956    2.0170 H   0  0  0  0  0  0  0  0  0  0  0  0
    1.6281   -2.7463    2.8022 H   0  0  0  0  0  0  0  0  0  0  0  0
    0.3947   -1.8676    3.7487 H   0  0  0  0  0  0  0  0  0  0  0  0
    3.8340    1.3478   -1.2107 H   0  0  0  0  0  0  0  0  0  0  0  0
    4.8331    3.6048   -0.7740 H   0  0  0  0  0  0  0  0  0  0  0  0
    3.9291    5.0431    1.0699 H   0  0  0  0  0  0  0  0  0  0  0  0
    2.0399    4.2075    2.4969 H   0  0  0  0  0  0  0  0  0  0  0  0
    1.0693    1.9415    2.0843 H   0  0  0  0  0  0  0  0  0  0  0  0
    2.2692   -2.1207   -2.0174 H   0  0  0  0  0  0  0  0  0  0  0  0
    4.0241   -3.9223   -2.1029 H   0  0  0  0  0  0  0  0  0  0  0  0
    5.7357   -4.0884   -0.2789 H   0  0  0  0  0  0  0  0  0  0  0  0
    5.6804   -2.4804    1.6437 H   0  0  0  0  0  0  0  0  0  0  0  0
    3.9045   -0.7163    1.7487 H   0  0  0  0  0  0  0  0  0  0  0  0
   -1.5816    2.4601   -1.1605 H   0  0  0  0  0  0  0  0  0  0  0  0
   -1.5271    4.8386   -0.3830 H   0  0  0  0  0  0  0  0  0  0  0  0
   -1.5402    5.3640    2.0733 H   0  0  0  0  0  0  0  0  0  0  0  0
   -1.6428    3.4962    3.7443 H   0  0  0  0  0  0  0  0  0  0  0  0
   -1.6996    1.1377    2.9845 H   0  0  0  0  0  0  0  0  0  0  0  0
   -4.1941    0.9921    1.1375 H   0  0  0  0  0  0  0  0  0  0  0  0
   -6.5591    0.3561    0.6358 H   0  0  0  0  0  0  0  0  0  0  0  0
   -7.0491   -1.4059   -1.0798 H   0  0  0  0  0  0  0  0  0  0  0  0
   -5.1643   -2.5135   -2.3083 H   0  0  0  0  0  0  0  0  0  0  0  0
   -2.7965   -1.8508   -1.8325 H   0  0  0  0  0  0  0  0  0  0  0  0
  1 22  1  0  0  0  0
  1  5  1  0  0  0  0
  2 10  1  0  0  0  0
  2  3  1  0  0  0  0
  3  4  1  0  0  0  0
  4 34  1  6  0  0  0
  4  9  1  0  0  0  0
  5  6  1  0  0  0  0
  5  4  1  0  0  0  0
  5 35  1  1  0  0  0
  6  7  1  0  0  0  0
  7  8  1  0  0  0  0
  7 38  1  0  0  0  0
  8 40  1  0  0  0  0
  9  8  1  0  0  0  0
  9 43  1  0  0  0  0
 10 15  1  0  0  0  0
 11 12  1  0  0  0  0
 11 10  2  0  0  0  0
 12 13  2  0  0  0  0
 13 46  1  0  0  0  0
 13 14  1  0  0  0  0
 14 47  1  0  0  0  0
 15 14  2  0  0  0  0
 15 48  1  0  0  0  0
 16  2  1  0  0  0  0
 16 21  1  0  0  0  0
 17 16  2  0  0  0  0
 18 17  1  0  0  0  0
 18 19  2  0  0  0  0
 19 20  1  0  0  0  0
 20 21  2  0  0  0  0
 20 52  1  0  0  0  0
 21 53  1  0  0  0  0
 22 27  1  0  0  0  0
 23 24  1  0  0  0  0
 23 22  2  0  0  0  0
 24 25  2  0  0  0  0
 25 56  1  0  0  0  0
 25 26  1  0  0  0  0
 26 57  1  0  0  0  0
 27 26  2  0  0  0  0
 27 58  1  0  0  0  0
 28  1  1  0  0  0  0
 28 29  1  0  0  0  0
 29 59  1  0  0  0  0
 30 29  2  0  0  0  0
 30 60  1  0  0  0  0
 31 30  1  0  0  0  0
 32 33  1  0  0  0  0
 32 31  2  0  0  0  0
 33 28  2  0  0  0  0
 36  6  1  0  0  0  0
 37  6  1  0  0  0  0
 39  7  1  0  0  0  0
 41  8  1  0  0  0  0
 42  9  1  0  0  0  0
 44 11  1  0  0  0  0
 45 12  1  0  0  0  0
 49 17  1  0  0  0  0
 50 18  1  0  0  0  0
 51 19  1  0  0  0  0
 54 23  1  0  0  0  0
 55 24  1  0  0  0  0
 61 31  1  0  0  0  0
 62 32  1  0  0  0  0
 63 33  1  0  0  0  0
M  END
