1,2
q = 0.0, confidence = 1.0

 51 55  0  0  0  0  0  0  0  0999 V2000
    1.6629    0.0445   -0.5220 P   0  0  0  0  0  0  0  0  0  0  0  0
   -1.4532   -0.1549   -0.3628 P   0  0  0  0  0  0  0  0  0  0  0  0
    3.2000   -0.8118   -1.0803 C   0  0  0  0  0  0  0  0  0  0  0  0
    3.5178   -2.0839   -0.5701 C   0  0  0  0  0  0  0  0  0  0  0  0
    4.6742   -2.7494   -1.0077 C   0  0  0  0  0  0  0  0  0  0  0  0
    5.5176   -2.1478   -1.9535 C   0  0  0  0  0  0  0  0  0  0  0  0
    5.2081   -0.8739   -2.4605 C   0  0  0  0  0  0  0  0  0  0  0  0
    4.0562   -0.2054   -2.0242 C   0  0  0  0  0  0  0  0  0  0  0  0
    2.2533    1.7791   -0.3025 C   0  0  0  0  0  0  0  0  0  0  0  0
    1.7097    2.8625   -1.0185 C   0  0  0  0  0  0  0  0  0  0  0  0
    2.1263    4.1746   -0.7360 C   0  0  0  0  0  0  0  0  0  0  0  0
    3.0866    4.4111    0.2582 C   0  0  0  0  0  0  0  0  0  0  0  0
    3.6320    3.3310    0.9740 C   0  0  0  0  0  0  0  0  0  0  0  0
    3.2169    2.0219    0.6991 C   0  0  0  0  0  0  0  0  0  0  0  0
    0.6810    0.1399   -2.0723 C   0  0  0  0  0  0  0  0  0  0  0  0
   -0.6679    0.0368   -2.0509 C   0  0  0  0  0  0  0  0  0  0  0  0
   -1.5570    0.1193   -3.2550 C   0  0  0  0  0  0  0  0  0  0  0  0
   -2.4277    1.3989   -0.2416 C   0  0  0  0  0  0  0  0  0  0  0  0
   -1.9405    2.6873    0.0103 C   0  0  0  0  0  0  0  0  0  0  0  0
   -2.8504    3.7552    0.0867 C   0  0  0  0  0  0  0  0  0  0  0  0
   -4.2286    3.5261   -0.0799 C   0  0  0  0  0  0  0  0  0  0  0  0
   -4.7165    2.2340   -0.3274 C   0  0  0  0  0  0  0  0  0  0  0  0
   -3.8169    1.1553   -0.4144 C   0  0  0  0  0  0  0  0  0  0  0  0
   -4.1348   -0.2627   -0.6693 C   0  0  0  0  0  0  0  0  0  0  0  0
   -5.4065   -0.8297   -0.8728 C   0  0  0  0  0  0  0  0  0  0  0  0
   -5.5228   -2.2082   -1.1053 C   0  0  0  0  0  0  0  0  0  0  0  0
   -4.3825   -3.0319   -1.1291 C   0  0  0  0  0  0  0  0  0  0  0  0
   -3.1068   -2.4821   -0.9171 C   0  0  0  0  0  0  0  0  0  0  0  0
   -2.9886   -1.1038   -0.6965 C   0  0  0  0  0  0  0  0  0  0  0  0
    2.8598   -2.5470    0.1790 H   0  0  0  0  0  0  0  0  0  0  0  0
    4.9172   -3.7426   -0.6010 H   0  0  0  0  0  0  0  0  0  0  0  0
    6.4253   -2.6693   -2.2936 H   0  0  0  0  0  0  0  0  0  0  0  0
    5.8730   -0.3955   -3.1957 H   0  0  0  0  0  0  0  0  0  0  0  0
    3.8276    0.8018   -2.4071 H   0  0  0  0  0  0  0  0  0  0  0  0
    0.9505    2.6825   -1.7948 H   0  0  0  0  0  0  0  0  0  0  0  0
    1.6950    5.0162   -1.2996 H   0  0  0  0  0  0  0  0  0  0  0  0
    3.4097    5.4393    0.4806 H   0  0  0  0  0  0  0  0  0  0  0  0
    4.3812    3.5114    1.7596 H   0  0  0  0  0  0  0  0  0  0  0  0
    3.6325    1.1790    1.2741 H   0  0  0  0  0  0  0  0  0  0  0  0
    1.2169    0.2981   -3.0260 H   0  0  0  0  0  0  0  0  0  0  0  0
   -2.3297    0.9050   -3.1183 H   0  0  0  0  0  0  0  0  0  0  0  0
   -2.1073   -0.8340   -3.3976 H   0  0  0  0  0  0  0  0  0  0  0  0
   -0.9823    0.3395   -4.1756 H   0  0  0  0  0  0  0  0  0  0  0  0
   -0.8638    2.8607    0.1551 H   0  0  0  0  0  0  0  0  0  0  0  0
   -2.4824    4.7724    0.2878 H   0  0  0  0  0  0  0  0  0  0  0  0
   -4.9336    4.3682   -0.0105 H   0  0  0  0  0  0  0  0  0  0  0  0
   -5.7974    2.0681   -0.4513 H   0  0  0  0  0  0  0  0  0  0  0  0
   -6.3070   -0.1976   -0.8482 H   0  0  0  0  0  0  0  0  0  0  0  0
   -6.5181   -2.6501   -1.2636 H   0  0  0  0  0  0  0  0  0  0  0  0
   -4.4892   -4.1129   -1.3042 H   0  0  0  0  0  0  0  0  0  0  0  0
   -2.2163   -3.1279   -0.9150 H   0  0  0  0  0  0  0  0  0  0  0  0
  1  9  1  0  0  0  0
  2 18  1  0  0  0  0
  3  4  1  0  0  0  0
  3  1  1  0  0  0  0
  4 30  1  0  0  0  0
  5 31  1  0  0  0  0
  5  4  2  0  0  0  0
  6  5  1  0  0  0  0
  7  8  1  0  0  0  0
  7  6  2  0  0  0  0
  8  3  2  0  0  0  0
  9 14  1  0  0  0  0
 10 11  1  0  0  0  0
 10  9  2  0  0  0  0
 11 12  2  0  0  0  0
 12 37  1  0  0  0  0
 12 13  1  0  0  0  0
 13 38  1  0  0  0  0
 14 13  2  0  0  0  0
 14 39  1  0  0  0  0
 15 16  2  0  0  0  0
 15  1  1  0  0  0  0
 16  2  1  0  0  0  0
 17 41  1  0  0  0  0
 17 16  1  0  0  0  0
 18 19  1  0  0  0  0
 19 20  2  0  0  0  0
 19 44  1  0  0  0  0
 20 45  1  0  0  0  0
 21 46  1  0  0  0  0
 21 20  1  0  0  0  0
 22 21  2  0  0  0  0
 23 22  1  0  0  0  0
 23 18  2  0  0  0  0
 24 23  1  0  0  0  0
 25 48  1  0  0  0  0
 25 24  2  0  0  0  0
 26 25  1  0  0  0  0
 27 26  2  0  0  0  0
 27 28  1  0  0  0  0
 28 51  1  0  0  0  0
 28 29  2  0  0  0  0
 29 24  1  0  0  0  0
 29  2  1  0  0  0  0
 32  6  1  0  0  0  0
 33  7  1  0  0  0  0
 34  8  1  0  0  0  0
 35 10  1  0  0  0  0
 36 11  1  0  0  0  0
 40 15  1  0  0  0  0
 42 17  1  0  0  0  0
 43 17  1  0  0  0  0
 47 22  1  0  0  0  0
 49 26  1  0  0  0  0
 50 27  1  0  0  0  0
M  END
