1,2
q = 0.0, confidence = 0.996

 63 67  0  0  0  0  0  0  0  0999 V2000
    1.4760    0.2831   -1.2080 P   0  0  0  0  0  0  0  0  0  0  0  0
   -1.9677    0.3037   -0.5275 P   0  0  0  0  0  0  0  0  0  0  0  0
   -0.6012   -0.7964   -2.7079 N   0  0  0  0  0  0  0  0  0  0  0  0
    0.7743   -2.5841   -2.1748 N   0  0  0  0  0  0  0  0  0  0  0  0
    0.6329   -0.0528   -2.8745 C   0  0  0  0  0  0  0  0  0  0  0  0
    0.4121    0.9083   -3.3763 H   0  0  0  0  0  0  0  0  0  0  0  0
    1.3450   -0.6362   -3.4870 H   0  0  0  0  0  0  0  0  0  0  0  0
   -3.4423   -0.6769   -0.0313 C   0  0  0  0  0  0  0  0  0  0  0  0
   -0.0731   -4.7560   -1.5465 C   0  0  0  0  0  0  0  0  0  0  0  0
    0.1351   -5.8002   -1.2740 H   0  0  0  0  0  0  0  0  0  0  0  0
   -0.4865   -2.1178   -2.2763 C   0  0  0  0  0  0  0  0  0  0  0  0
   -2.5630    2.0434   -0.4406 C   0  0  0  0  0  0  0  0  0  0  0  0
    1.8008    2.0906   -1.2061 C   0  0  0  0  0  0  0  0  0  0  0  0
   -3.1558    2.7397   -1.5141 C   0  0  0  0  0  0  0  0  0  0  0  0
   -3.3288    2.2473   -2.4832 H   0  0  0  0  0  0  0  0  0  0  0  0
   -1.7936   -0.0441   -2.3981 C   0  0  0  0  0  0  0  0  0  0  0  0
   -2.7021   -0.5667   -2.7583 H   0  0  0  0  0  0  0  0  0  0  0  0
   -1.7433    0.9243   -2.9304 H   0  0  0  0  0  0  0  0  0  0  0  0
    2.1085    4.8773   -0.8327 C   0  0  0  0  0  0  0  0  0  0  0  0
    2.2308    5.9614   -0.6903 H   0  0  0  0  0  0  0  0  0  0  0  0
   -3.3217   -1.5524    1.0653 C   0  0  0  0  0  0  0  0  0  0  0  0
   -2.3655   -1.6027    1.6075 H   0  0  0  0  0  0  0  0  0  0  0  0
   -4.6687   -0.5882   -0.7222 C   0  0  0  0  0  0  0  0  0  0  0  0
   -4.7879    0.1164   -1.5608 H   0  0  0  0  0  0  0  0  0  0  0  0
   -1.6151   -2.9292   -1.9776 C   0  0  0  0  0  0  0  0  0  0  0  0
   -2.6409   -2.5426   -2.0290 H   0  0  0  0  0  0  0  0  0  0  0  0
    3.1265   -0.4953   -1.2971 C   0  0  0  0  0  0  0  0  0  0  0  0
    3.0110    2.6167   -0.7062 C   0  0  0  0  0  0  0  0  0  0  0  0
    3.8404    1.9389   -0.4546 H   0  0  0  0  0  0  0  0  0  0  0  0
   -1.3887   -4.2612   -1.6220 C   0  0  0  0  0  0  0  0  0  0  0  0
   -2.2463   -4.9144   -1.4004 H   0  0  0  0  0  0  0  0  0  0  0  0
    0.8982    4.3618   -1.3273 C   0  0  0  0  0  0  0  0  0  0  0  0
    0.0616    5.0353   -1.5674 H   0  0  0  0  0  0  0  0  0  0  0  0
   -5.6247   -2.2668    0.7574 C   0  0  0  0  0  0  0  0  0  0  0  0
   -6.4789   -2.8892    1.0632 H   0  0  0  0  0  0  0  0  0  0  0  0
   -4.4112   -2.3443    1.4586 C   0  0  0  0  0  0  0  0  0  0  0  0
   -4.3119   -3.0250    2.3176 H   0  0  0  0  0  0  0  0  0  0  0  0
    0.7455    2.9804   -1.5104 C   0  0  0  0  0  0  0  0  0  0  0  0
   -0.2227    2.6008   -1.8695 H   0  0  0  0  0  0  0  0  0  0  0  0
    4.0328   -0.2080   -2.3388 C   0  0  0  0  0  0  0  0  0  0  0  0
    3.7717    0.5297   -3.1138 H   0  0  0  0  0  0  0  0  0  0  0  0
    3.4791   -1.4274   -0.3016 C   0  0  0  0  0  0  0  0  0  0  0  0
    2.7624   -1.6500    0.5035 H   0  0  0  0  0  0  0  0  0  0  0  0
   -3.5415    4.0813   -1.3592 C   0  0  0  0  0  0  0  0  0  0  0  0
   -4.0012    4.6164   -2.2037 H   0  0  0  0  0  0  0  0  0  0  0  0
   -5.7535   -1.3856   -0.3301 C   0  0  0  0  0  0  0  0  0  0  0  0
   -6.7089   -1.3137   -0.8712 H   0  0  0  0  0  0  0  0  0  0  0  0
    3.1617    4.0011   -0.5261 C   0  0  0  0  0  0  0  0  0  0  0  0
    4.1143    4.3971   -0.1428 H   0  0  0  0  0  0  0  0  0  0  0  0
    0.9711   -3.8634   -1.8278 C   0  0  0  0  0  0  0  0  0  0  0  0
    2.0254   -4.1857   -1.7611 H   0  0  0  0  0  0  0  0  0  0  0  0
   -2.3805    2.7064    0.7922 C   0  0  0  0  0  0  0  0  0  0  0  0
   -1.9213    2.1628    1.6328 H   0  0  0  0  0  0  0  0  0  0  0  0
    4.7254   -2.0696   -0.3479 C   0  0  0  0  0  0  0  0  0  0  0  0
    4.9976   -2.7964    0.4323 H   0  0  0  0  0  0  0  0  0  0  0  0
    5.2759   -0.8556   -2.3839 C   0  0  0  0  0  0  0  0  0  0  0  0
    5.9801   -0.6314   -3.1992 H   0  0  0  0  0  0  0  0  0  0  0  0
    5.6227   -1.7864   -1.3902 C   0  0  0  0  0  0  0  0  0  0  0  0
    6.5994   -2.2918   -1.4286 H   0  0  0  0  0  0  0  0  0  0  0  0
   -3.3499    4.7350   -0.1320 C   0  0  0  0  0  0  0  0  0  0  0  0
   -3.6538    5.7859   -0.0147 H   0  0  0  0  0  0  0  0  0  0  0  0
   -2.7763    4.0418    0.9467 C   0  0  0  0  0  0  0  0  0  0  0  0
   -2.6310    4.5469    1.9136 H   0  0  0  0  0  0  0  0  0  0  0  0
  1 13  1  0  0  0  0
  2 12  1  0  0  0  0
  2  8  1  0  0  0  0
  3 16  1  0  0  0  0
  3 11  1  0  0  0  0
  4 50  1  0  0  0  0
  5  3  1  0  0  0  0
  5  1  1  0  0  0  0
  6  5  1  0  0  0  0
  7  5  1  0  0  0  0
  8 21  1  0  0  0  0
  9 10  1  0  0  0  0
 11  4  2  0  0  0  0
 11 25  1  0  0  0  0
 12 52  1  0  0  0  0
 13 28  1  0  0  0  0
 14 44  1  0  0  0  0
 14 12  2  0  0  0  0
 15 14  1  0  0  0  0
 16  2  1  0  0  0  0
 17 16  1  0  0  0  0
 18 16  1  0  0  0  0
 19 20  1  0  0  0  0
 19 48  1  0  0  0  0
 21 36  2  0  0  0  0
 21 22  1  0  0  0  0
 23 46  1  0  0  0  0
 23  8  2  0  0  0  0
 24 23  1  0  0  0  0
 25 30  2  0  0  0  0
 26 25  1  0  0  0  0
 27  1  1  0  0  0  0
 27 42  1  0  0  0  0
 28 48  2  0  0  0  0
 28 29  1  0  0  0  0
 30  9  1  0  0  0  0
 30 31  1  0  0  0  0
 32 19  2  0  0  0  0
 33 32  1  0  0  0  0
 34 35  1  0  0  0  0
 34 36  1  0  0  0  0
 36 37  1  0  0  0  0
 38 32  1  0  0  0  0
 38 13  2  0  0  0  0
 39 38  1  0  0  0  0
 40 27  2  0  0  0  0
 41 40  1  0  0  0  0
 42 43  1  0  0  0  0
 44 60  2  0  0  0  0
 45 44  1  0  0  0  0
 46 34  2  0  0  0  0
 47 46  1  0  0  0  0
 48 49  1  0  0  0  0
 50 51  1  0  0  0  0
 50  9  2  0  0  0  0
 52 62  2  0  0  0  0
 52 53  1  0  0  0  0
 54 42  2  0  0  0  0
 54 55  1  0  0  0  0
 56 40  1  0  0  0  0
 56 58  2  0  0  0  0
 57 56  1  0  0  0  0
 58 54  1  0  0  0  0
 59 58  1  0  0  0  0
 60 61  1  0  0  0  0
 60 62  1  0  0  0  0
 62 63  1  0  0  0  0
M  END
