1,3
q = 0.0, confidence = 0.972

 42 42  0  0  0  0  0  0  0  0999 V2000
    2.6297   -0.9720   -0.8813 P   0  0  2  0  0  0  0  0  0  0  0  0
    3.6665    0.8831   -0.0831 P   0  0  2  0  0  0  0  0  0  0  0  0
    1.6457    0.5714    0.7107 P   0  0  2  0  0  0  0  0  0  0  0  0
    3.3969   -2.5143   -0.0400 C   0  0  0  0  0  0  0  0  0  0  0  0
    3.3735   -3.5603   -1.1765 C   0  0  0  0  0  0  0  0  0  0  0  0
    2.3376   -3.7316   -1.5337 H   0  0  0  0  0  0  0  0  0  0  0  0
    3.7769   -4.5250   -0.7992 H   0  0  0  0  0  0  0  0  0  0  0  0
    3.9944   -3.2436   -2.0393 H   0  0  0  0  0  0  0  0  0  0  0  0
    2.5150   -3.0033    1.1162 C   0  0  0  0  0  0  0  0  0  0  0  0
    2.5184   -2.2849    1.9589 H   0  0  0  0  0  0  0  0  0  0  0  0
    2.8969   -3.9778    1.4916 H   0  0  0  0  0  0  0  0  0  0  0  0
    1.4664   -3.1397    0.7830 H   0  0  0  0  0  0  0  0  0  0  0  0
    4.8331   -2.2424    0.4171 C   0  0  0  0  0  0  0  0  0  0  0  0
    5.2926   -3.1863    0.7831 H   0  0  0  0  0  0  0  0  0  0  0  0
    4.8727   -1.5003    1.2393 H   0  0  0  0  0  0  0  0  0  0  0  0
    5.4632   -1.8585   -0.4112 H   0  0  0  0  0  0  0  0  0  0  0  0
    3.4868    2.0658   -1.5924 C   0  0  0  0  0  0  0  0  0  0  0  0
    4.5511    1.5847   -2.5905 C   0  0  0  0  0  0  0  0  0  0  0  0
    4.5833    2.2656   -3.4680 H   0  0  0  0  0  0  0  0  0  0  0  0
    4.3151    0.5650   -2.9597 H   0  0  0  0  0  0  0  0  0  0  0  0
    5.5640    1.5650   -2.1372 H   0  0  0  0  0  0  0  0  0  0  0  0
    3.8462    3.4523   -1.0308 C   0  0  0  0  0  0  0  0  0  0  0  0
    4.8446    3.4570   -0.5465 H   0  0  0  0  0  0  0  0  0  0  0  0
    3.0983    3.7895   -0.2830 H   0  0  0  0  0  0  0  0  0  0  0  0
    3.8624    4.2008   -1.8521 H   0  0  0  0  0  0  0  0  0  0  0  0
    2.1065    2.0973   -2.2490 C   0  0  0  0  0  0  0  0  0  0  0  0
    1.7866    1.0942   -2.5993 H   0  0  0  0  0  0  0  0  0  0  0  0
    2.1294    2.7800   -3.1261 H   0  0  0  0  0  0  0  0  0  0  0  0
    1.3294    2.4591   -1.5471 H   0  0  0  0  0  0  0  0  0  0  0  0
    1.7240    0.7666    2.6101 C   0  0  0  0  0  0  0  0  0  0  0  0
    1.4434    2.2661    2.8325 C   0  0  0  0  0  0  0  0  0  0  0  0
    0.4611    2.5706    2.4198 H   0  0  0  0  0  0  0  0  0  0  0  0
    2.2295    2.8985    2.3708 H   0  0  0  0  0  0  0  0  0  0  0  0
    1.4338    2.4796    3.9234 H   0  0  0  0  0  0  0  0  0  0  0  0
    0.6073   -0.0933    3.2142 C   0  0  0  0  0  0  0  0  0  0  0  0
    0.7859   -1.1719    3.0377 H   0  0  0  0  0  0  0  0  0  0  0  0
   -0.3802    0.1607    2.7838 H   0  0  0  0  0  0  0  0  0  0  0  0
    0.5595    0.0781    4.3109 H   0  0  0  0  0  0  0  0  0  0  0  0
    3.0938    0.3872    3.1803 C   0  0  0  0  0  0  0  0  0  0  0  0
    3.1050    0.5968    4.2716 H   0  0  0  0  0  0  0  0  0  0  0  0
    3.9120    0.9696    2.7115 H   0  0  0  0  0  0  0  0  0  0  0  0
    3.3155   -0.6892    3.0412 H   0  0  0  0  0  0  0  0  0  0  0  0
  1  2  1  0  0  0  0
  1  4  1  1  0  0  0
  1  3  1  0  0  0  0
  2 17  1  6  0  0  0
  2  3  1  0  0  0  0
  3 30  1  1  0  0  0
  4 13  1  0  0  0  0
  4  9  1  0  0  0  0
  5  7  1  0  0  0  0
  5  4  1  0  0  0  0
  6  5  1  0  0  0  0
  8  5  1  0  0  0  0
  9 11  1  0  0  0  0
  9 10  1  0  0  0  0
 12  9  1  0  0  0  0
 13 14  1  0  0  0  0
 13 15  1  0  0  0  0
 16 13  1  0  0  0  0
 17 22  1  0  0  0  0
 18 21  1  0  0  0  0
 18 17  1  0  0  0  0
 19 18  1  0  0  0  0
 20 18  1  0  0  0  0
 22 23  1  0  0  0  0
 22 24  1  0  0  0  0
 25 22  1  0  0  0  0
 26 17  1  0  0  0  0
 26 29  1  0  0  0  0
 27 26  1  0  0  0  0
 28 26  1  0  0  0  0
 30 31  1  0  0  0  0
 30 39  1  0  0  0  0
 30 35  1  0  0  0  0
 31 34  1  0  0  0  0
 32 31  1  0  0  0  0
 33 31  1  0  0  0  0
 35 38  1  0  0  0  0
 36 35  1  0  0  0  0
 37 35  1  0  0  0  0
 39 40  1  0  0  0  0
 41 39  1  0  0  0  0
 42 39  1  0  0  0  0
M  END
