1,18
q = 0.0, confidence = 0.988

 74 78  0  0  1  0  0  0  0  0999 V2000
   -1.7235    0.1495    0.2142 P   0  0  0  0  0  0  0  0  0  0  0  0
   -1.6259   -0.1581    1.9026 N   0  0  0  0  0  0  0  0  0  0  0  0
   -1.9680   -1.4415    2.5358 C   0  0  0  0  0  0  0  0  0  0  0  0
   -2.9807   -1.7792    2.2409 H   0  0  0  0  0  0  0  0  0  0  0  0
   -1.2561   -2.2518    2.2521 H   0  0  0  0  0  0  0  0  0  0  0  0
   -1.8585   -1.1255    4.0314 C   0  0  0  0  0  0  0  0  0  0  0  0
   -1.6883   -2.0331    4.6426 H   0  0  0  0  0  0  0  0  0  0  0  0
   -2.7966   -0.6485    4.3860 H   0  0  0  0  0  0  0  0  0  0  0  0
   -0.6991   -0.1268    4.0830 C   0  0  0  0  0  0  0  0  0  0  0  0
   -0.6657    0.4765    5.0112 H   0  0  0  0  0  0  0  0  0  0  0  0
    0.2697   -0.6575    3.9783 H   0  0  0  0  0  0  0  0  0  0  0  0
   -0.9191    0.7444    2.8347 C   0  0  1  0  0  0  0  0  0  0  0  0
   -1.5690    1.6196    3.0843 H   0  0  0  0  0  0  0  0  0  0  0  0
    0.3654    1.3307    2.2575 C   0  0  0  0  0  0  0  0  0  0  0  0
    0.8092    2.0415    2.9880 H   0  0  0  0  0  0  0  0  0  0  0  0
    0.1335    1.9077    1.3345 H   0  0  0  0  0  0  0  0  0  0  0  0
    1.3193    0.3056    1.9925 O   0  0  0  0  0  0  0  0  0  0  0  0
    1.7554   -0.0499    0.4096 P   0  0  0  0  0  0  0  0  0  0  0  0
   -2.2456    2.7312   -0.8297 C   0  0  0  0  0  0  0  0  0  0  0  0
   -2.8603    3.9920   -0.8200 C   0  0  0  0  0  0  0  0  0  0  0  0
   -3.7525    4.3405    0.2067 C   0  0  0  0  0  0  0  0  0  0  0  0
   -4.0331    3.4232    1.2322 C   0  0  0  0  0  0  0  0  0  0  0  0
   -3.4199    2.1616    1.2309 C   0  0  0  0  0  0  0  0  0  0  0  0
   -2.5265    1.8072    0.1967 C   0  0  0  0  0  0  0  0  0  0  0  0
   -1.5641    2.4409   -1.6437 H   0  0  0  0  0  0  0  0  0  0  0  0
   -2.6405    4.7072   -1.6270 H   0  0  0  0  0  0  0  0  0  0  0  0
   -4.2303    5.3322    0.2097 H   0  0  0  0  0  0  0  0  0  0  0  0
   -4.7303    3.6920    2.0404 H   0  0  0  0  0  0  0  0  0  0  0  0
   -3.6265    1.4403    2.0364 H   0  0  0  0  0  0  0  0  0  0  0  0
   -4.3650   -0.8539   -0.0929 C   0  0  0  0  0  0  0  0  0  0  0  0
   -5.2913   -1.8618   -0.4025 C   0  0  0  0  0  0  0  0  0  0  0  0
   -4.8493   -3.1032   -0.8864 C   0  0  0  0  0  0  0  0  0  0  0  0
   -3.4766   -3.3333   -1.0748 C   0  0  0  0  0  0  0  0  0  0  0  0
   -2.5482   -2.3273   -0.7775 C   0  0  0  0  0  0  0  0  0  0  0  0
   -2.9894   -1.0886   -0.2725 C   0  0  0  0  0  0  0  0  0  0  0  0
   -4.7179    0.1209    0.2734 H   0  0  0  0  0  0  0  0  0  0  0  0
   -6.3673   -1.6709   -0.2717 H   0  0  0  0  0  0  0  0  0  0  0  0
   -5.5788   -3.8904   -1.1303 H   0  0  0  0  0  0  0  0  0  0  0  0
   -3.1263   -4.2977   -1.4723 H   0  0  0  0  0  0  0  0  0  0  0  0
   -1.4736   -2.4835   -0.9572 H   0  0  0  0  0  0  0  0  0  0  0  0
    3.1613    1.1099    0.0773 C   0  0  0  0  0  0  0  0  0  0  0  0
    3.6006    0.6947   -0.8569 H   0  0  0  0  0  0  0  0  0  0  0  0
    2.6526    2.5267   -0.2510 C   0  0  0  0  0  0  0  0  0  0  0  0
    1.9234    2.4723   -1.0849 H   0  0  0  0  0  0  0  0  0  0  0  0
    2.1147    2.9456    0.6289 H   0  0  0  0  0  0  0  0  0  0  0  0
    3.8234    3.4519   -0.6055 C   0  0  0  0  0  0  0  0  0  0  0  0
    4.2929    3.0882   -1.5464 H   0  0  0  0  0  0  0  0  0  0  0  0
    3.4472    4.4744   -0.8180 H   0  0  0  0  0  0  0  0  0  0  0  0
    4.8728    3.4839    0.5127 C   0  0  0  0  0  0  0  0  0  0  0  0
    4.4218    3.9405    1.4232 H   0  0  0  0  0  0  0  0  0  0  0  0
    5.7265    4.1341    0.2283 H   0  0  0  0  0  0  0  0  0  0  0  0
    5.3683    2.0728    0.8527 C   0  0  0  0  0  0  0  0  0  0  0  0
    5.9176    1.6586   -0.0222 H   0  0  0  0  0  0  0  0  0  0  0  0
    6.0943    2.1047    1.6922 H   0  0  0  0  0  0  0  0  0  0  0  0
    4.2082    1.1281    1.2026 C   0  0  0  0  0  0  0  0  0  0  0  0
    4.5989    0.1072    1.3952 H   0  0  0  0  0  0  0  0  0  0  0  0
    3.7206    1.4598    2.1455 H   0  0  0  0  0  0  0  0  0  0  0  0
    2.4853   -1.7195    0.7390 C   0  0  0  0  0  0  0  0  0  0  0  0
    3.0133   -1.5913    1.7120 H   0  0  0  0  0  0  0  0  0  0  0  0
    3.4901   -2.1811   -0.3313 C   0  0  0  0  0  0  0  0  0  0  0  0
    2.9910   -2.1722   -1.3236 H   0  0  0  0  0  0  0  0  0  0  0  0
    4.3322   -1.4632   -0.4082 H   0  0  0  0  0  0  0  0  0  0  0  0
    4.0275   -3.5830   -0.0096 C   0  0  0  0  0  0  0  0  0  0  0  0
    4.6299   -3.5413    0.9266 H   0  0  0  0  0  0  0  0  0  0  0  0
    4.7211   -3.9074   -0.8130 H   0  0  0  0  0  0  0  0  0  0  0  0
    2.8959   -4.6026    0.1676 C   0  0  0  0  0  0  0  0  0  0  0  0
    2.3567   -4.7192   -0.7989 H   0  0  0  0  0  0  0  0  0  0  0  0
    3.3087   -5.6015    0.4212 H   0  0  0  0  0  0  0  0  0  0  0  0
    1.9043   -4.1418    1.2423 C   0  0  0  0  0  0  0  0  0  0  0  0
    1.0659   -4.8633    1.3393 H   0  0  0  0  0  0  0  0  0  0  0  0
    2.4159   -4.1200    2.2312 H   0  0  0  0  0  0  0  0  0  0  0  0
    1.3536   -2.7466    0.9264 C   0  0  0  0  0  0  0  0  0  0  0  0
    0.6654   -2.4024    1.7244 H   0  0  0  0  0  0  0  0  0  0  0  0
    0.7567   -2.7804   -0.0120 H   0  0  0  0  0  0  0  0  0  0  0  0
  1  2  1  0  0  0  0
  2  3  1  0  0  0  0
  2 12  1  0  0  0  0
  3  6  1  0  0  0  0
  4  3  1  0  0  0  0
  5  3  1  0  0  0  0
  6  9  1  0  0  0  0
  6  8  1  0  0  0  0
  6  7  1  0  0  0  0
  9 10  1  0  0  0  0
 11  9  1  0  0  0  0
 12 13  1  1  0  0  0
 12  9  1  0  0  0  0
 14 12  1  0  0  0  0
 14 15  1  0  0  0  0
 16 14  1  0  0  0  0
 17 14  1  0  0  0  0
 18 58  1  0  0  0  0
 18 17  1  0  0  0  0
 19 20  2  0  0  0  0
 19 24  1  0  0  0  0
 20 21  1  0  0  0  0
 21 27  1  0  0  0  0
 21 22  2  0  0  0  0
 22 28  1  0  0  0  0
 23 22  1  0  0  0  0
 23 29  1  0  0  0  0
 24  1  1  0  0  0  0
 24 23  2  0  0  0  0
 25 19  1  0  0  0  0
 26 20  1  0  0  0  0
 30 36  1  0  0  0  0
 31 37  1  0  0  0  0
 31 30  2  0  0  0  0
 32 31  1  0  0  0  0
 33 32  2  0  0  0  0
 33 34  1  0  0  0  0
 34 35  2  0  0  0  0
 35 30  1  0  0  0  0
 35  1  1  0  0  0  0
 38 32  1  0  0  0  0
 39 33  1  0  0  0  0
 40 34  1  0  0  0  0
 41 18  1  0  0  0  0
 41 55  1  0  0  0  0
 42 41  1  0  0  0  0
 43 41  1  0  0  0  0
 43 45  1  0  0  0  0
 44 43  1  0  0  0  0
 46 43  1  0  0  0  0
 46 49  1  0  0  0  0
 47 46  1  0  0  0  0
 48 46  1  0  0  0  0
 49 52  1  0  0  0  0
 49 50  1  0  0  0  0
 51 49  1  0  0  0  0
 52 55  1  0  0  0  0
 52 54  1  0  0  0  0
 53 52  1  0  0  0  0
 55 56  1  0  0  0  0
 55 57  1  0  0  0  0
 58 72  1  0  0  0  0
 58 59  1  0  0  0  0
 60 63  1  0  0  0  0
 60 58  1  0  0  0  0
 61 60  1  0  0  0  0
 62 60  1  0  0  0  0
 63 66  1  0  0  0  0
 63 64  1  0  0  0  0
 65 63  1  0  0  0  0
 66 68  1  0  0  0  0
 66 69  1  0  0  0  0
 67 66  1  0  0  0  0
 69 70  1  0  0  0  0
 69 71  1  0  0  0  0
 72 69  1  0  0  0  0
 72 73  1  0  0  0  0
 74 72  1  0  0  0  0
M  END
