1,2
q = 0.0, confidence = 0.996

 69 72  0  0  0  0  0  0  0  0999 V2000
    1.4082   -0.3971    0.1415 P   0  0  0  0  0  0  0  0  0  0  0  0
   -1.1950    0.4424   -0.5213 P   0  0  0  0  0  0  0  0  0  0  0  0
   -0.1317   -2.9790   -0.4980 N   0  0  0  0  0  0  0  0  0  0  0  0
   -0.4529   -2.1945    0.0924 H   0  0  0  0  0  0  0  0  0  0  0  0
    3.3915    0.0944   -2.2336 N   0  0  0  0  0  0  0  0  0  0  0  0
    2.9073   -0.7876   -2.0444 H   0  0  0  0  0  0  0  0  0  0  0  0
   -3.8859   -0.1778    0.7901 N   0  0  0  0  0  0  0  0  0  0  0  0
   -3.0430    0.2426    1.2053 H   0  0  0  0  0  0  0  0  0  0  0  0
    0.4006    3.0884   -0.2588 N   0  0  0  0  0  0  0  0  0  0  0  0
    0.4913    2.2732    0.3684 H   0  0  0  0  0  0  0  0  0  0  0  0
    0.3999    0.0270   -1.3952 C   0  0  0  0  0  0  0  0  0  0  0  0
    0.8228    0.9000   -1.9278 H   0  0  0  0  0  0  0  0  0  0  0  0
    0.2990   -0.8272   -2.0905 H   0  0  0  0  0  0  0  0  0  0  0  0
    2.1050   -2.0730   -0.1693 C   0  0  0  0  0  0  0  0  0  0  0  0
    1.2285   -3.1760   -0.4579 C   0  0  0  0  0  0  0  0  0  0  0  0
    1.8110   -4.4458   -0.7142 C   0  0  0  0  0  0  0  0  0  0  0  0
    1.1601   -5.2971   -0.9549 H   0  0  0  0  0  0  0  0  0  0  0  0
    3.1943   -4.6325   -0.6376 C   0  0  0  0  0  0  0  0  0  0  0  0
    3.6123   -5.6313   -0.8373 H   0  0  0  0  0  0  0  0  0  0  0  0
    4.0454   -3.5711   -0.2869 C   0  0  0  0  0  0  0  0  0  0  0  0
    5.1308   -3.7239   -0.1998 H   0  0  0  0  0  0  0  0  0  0  0  0
    3.4915   -2.3061   -0.0503 C   0  0  0  0  0  0  0  0  0  0  0  0
    4.1488   -1.4668    0.2252 H   0  0  0  0  0  0  0  0  0  0  0  0
   -1.0836   -4.0591   -0.6300 C   0  0  0  0  0  0  0  0  0  0  0  0
   -2.1036   -3.6377   -0.5624 H   0  0  0  0  0  0  0  0  0  0  0  0
   -0.9719   -4.8384    0.1597 H   0  0  0  0  0  0  0  0  0  0  0  0
   -0.9927   -4.5546   -1.6194 H   0  0  0  0  0  0  0  0  0  0  0  0
    2.8775    0.6991    0.0756 C   0  0  0  0  0  0  0  0  0  0  0  0
    3.6704    0.8456   -1.1104 C   0  0  0  0  0  0  0  0  0  0  0  0
    4.7289    1.7908   -1.0922 C   0  0  0  0  0  0  0  0  0  0  0  0
    5.3414    1.9393   -1.9917 H   0  0  0  0  0  0  0  0  0  0  0  0
    5.0197    2.5226    0.0648 C   0  0  0  0  0  0  0  0  0  0  0  0
    5.8558    3.2387    0.0467 H   0  0  0  0  0  0  0  0  0  0  0  0
    4.2704    2.3465    1.2392 C   0  0  0  0  0  0  0  0  0  0  0  0
    4.5064    2.9140    2.1506 H   0  0  0  0  0  0  0  0  0  0  0  0
    3.1971    1.4439    1.2243 C   0  0  0  0  0  0  0  0  0  0  0  0
    2.5612    1.3225    2.1151 H   0  0  0  0  0  0  0  0  0  0  0  0
    4.2333    0.1034   -3.4077 C   0  0  0  0  0  0  0  0  0  0  0  0
    3.8163   -0.5982   -4.1540 H   0  0  0  0  0  0  0  0  0  0  0  0
    5.2869   -0.1992   -3.1982 H   0  0  0  0  0  0  0  0  0  0  0  0
    4.2583    1.1105   -3.8746 H   0  0  0  0  0  0  0  0  0  0  0  0
   -2.5055   -0.6550   -1.1661 C   0  0  0  0  0  0  0  0  0  0  0  0
   -3.6855   -0.8715   -0.3765 C   0  0  0  0  0  0  0  0  0  0  0  0
   -4.6484   -1.7973   -0.8654 C   0  0  0  0  0  0  0  0  0  0  0  0
   -5.5452   -2.0083   -0.2681 H   0  0  0  0  0  0  0  0  0  0  0  0
   -4.4775   -2.4313   -2.0992 C   0  0  0  0  0  0  0  0  0  0  0  0
   -5.2480   -3.1357   -2.4488 H   0  0  0  0  0  0  0  0  0  0  0  0
   -3.3429   -2.1822   -2.8904 C   0  0  0  0  0  0  0  0  0  0  0  0
   -3.2151   -2.6732   -3.8655 H   0  0  0  0  0  0  0  0  0  0  0  0
   -2.3684   -1.2982   -2.4097 C   0  0  0  0  0  0  0  0  0  0  0  0
   -1.4754   -1.1022   -3.0215 H   0  0  0  0  0  0  0  0  0  0  0  0
   -4.9358   -0.5037    1.7279 C   0  0  0  0  0  0  0  0  0  0  0  0
   -4.8433    0.1611    2.6066 H   0  0  0  0  0  0  0  0  0  0  0  0
   -4.8798   -1.5580    2.0856 H   0  0  0  0  0  0  0  0  0  0  0  0
   -5.9402   -0.3371    1.2843 H   0  0  0  0  0  0  0  0  0  0  0  0
   -1.6964    2.1173   -1.0611 C   0  0  0  0  0  0  0  0  0  0  0  0
   -0.8342    3.2446   -0.8467 C   0  0  0  0  0  0  0  0  0  0  0  0
   -1.2810    4.5153   -1.2988 C   0  0  0  0  0  0  0  0  0  0  0  0
   -0.6433    5.3957   -1.1458 H   0  0  0  0  0  0  0  0  0  0  0  0
   -2.5228    4.6664   -1.9216 C   0  0  0  0  0  0  0  0  0  0  0  0
   -2.8355    5.6681   -2.2551 H   0  0  0  0  0  0  0  0  0  0  0  0
   -3.3714    3.5643   -2.1129 C   0  0  0  0  0  0  0  0  0  0  0  0
   -4.3505    3.6826   -2.5989 H   0  0  0  0  0  0  0  0  0  0  0  0
   -2.9486    2.3017   -1.6795 C   0  0  0  0  0  0  0  0  0  0  0  0
   -3.5974    1.4277   -1.8350 H   0  0  0  0  0  0  0  0  0  0  0  0
    1.2431    4.2131    0.0778 C   0  0  0  0  0  0  0  0  0  0  0  0
    2.1701    3.8316    0.5429 H   0  0  0  0  0  0  0  0  0  0  0  0
    0.7572    4.9264    0.7847 H   0  0  0  0  0  0  0  0  0  0  0  0
    1.5345    4.7786   -0.8323 H   0  0  0  0  0  0  0  0  0  0  0  0
  3 15  1  0  0  0  0
  3  4  1  0  0  0  0
  5  6  1  0  0  0  0
  5 29  1  0  0  0  0
  7  8  1  0  0  0  0
  7 52  1  0  0  0  0
  9 66  1  0  0  0  0
  9 10  1  0  0  0  0
 11  2  1  0  0  0  0
 11  1  1  0  0  0  0
 12 11  1  0  0  0  0
 13 11  1  0  0  0  0
 14 22  1  0  0  0  0
 14  1  1  0  0  0  0
 15 14  2  0  0  0  0
 16 18  2  0  0  0  0
 16 15  1  0  0  0  0
 17 16  1  0  0  0  0
 18 20  1  0  0  0  0
 19 18  1  0  0  0  0
 20 21  1  0  0  0  0
 20 22  2  0  0  0  0
 22 23  1  0  0  0  0
 24 25  1  0  0  0  0
 24  3  1  0  0  0  0
 24 26  1  0  0  0  0
 27 24  1  0  0  0  0
 28  1  1  0  0  0  0
 28 36  1  0  0  0  0
 29 30  1  0  0  0  0
 29 28  2  0  0  0  0
 30 32  2  0  0  0  0
 31 30  1  0  0  0  0
 32 34  1  0  0  0  0
 33 32  1  0  0  0  0
 34 35  1  0  0  0  0
 36 34  2  0  0  0  0
 36 37  1  0  0  0  0
 38 40  1  0  0  0  0
 38  5  1  0  0  0  0
 39 38  1  0  0  0  0
 41 38  1  0  0  0  0
 42  2  1  0  0  0  0
 42 43  1  0  0  0  0
 43  7  1  0  0  0  0
 44 43  2  0  0  0  0
 44 45  1  0  0  0  0
 46 44  1  0  0  0  0
 47 46  1  0  0  0  0
 48 50  1  0  0  0  0
 48 46  2  0  0  0  0
 49 48  1  0  0  0  0
 50 42  2  0  0  0  0
 51 50  1  0  0  0  0
 52 54  1  0  0  0  0
 52 53  1  0  0  0  0
 55 52  1  0  0  0  0
 56 57  1  0  0  0  0
 56  2  1  0  0  0  0
 57  9  1  0  0  0  0
 58 59  1  0  0  0  0
 58 57  2  0  0  0  0
 60 58  1  0  0  0  0
 61 60  1  0  0  0  0
 62 60  2  0  0  0  0
 62 64  1  0  0  0  0
 63 62  1  0  0  0  0
 64 56  2  0  0  0  0
 65 64  1  0  0  0  0
 66 67  1  0  0  0  0
 66 68  1  0  0  0  0
 69 66  1  0  0  0  0
M  END
