1,2
q = 0.0, confidence = 0.978

 70 73  0  0  0  0  0  0  0  0999 V2000
   -1.3818   -0.3972    0.1992 P   0  0  2  0  0  0  0  0  0  0  0  0
    1.2635    1.1677   -0.1833 P   0  0  0  0  0  0  0  0  0  0  0  0
   -3.3427    0.8669   -1.0860 N   0  0  0  0  0  0  0  0  0  0  0  0
   -2.0502    1.0417   -0.6493 N   0  0  0  0  0  0  0  0  0  0  0  0
   -2.9067   -1.3359   -0.2463 C   0  0  0  0  0  0  0  0  0  0  0  0
   -3.8297   -0.3125   -0.8613 C   0  0  0  0  0  0  0  0  0  0  0  0
   -5.2711   -0.6414   -1.2202 C   0  0  0  0  0  0  0  0  0  0  0  0
   -6.0566   -0.8738    0.0930 C   0  0  0  0  0  0  0  0  0  0  0  0
   -5.3044   -1.9275   -2.0754 C   0  0  0  0  0  0  0  0  0  0  0  0
   -5.9108    0.5180   -2.0005 C   0  0  0  0  0  0  0  0  0  0  0  0
   -1.3538    2.2203   -0.9141 C   0  0  0  0  0  0  0  0  0  0  0  0
   -2.1516    3.4266   -1.4750 C   0  0  0  0  0  0  0  0  0  0  0  0
   -3.3264    3.7707   -0.5282 C   0  0  0  0  0  0  0  0  0  0  0  0
   -2.6582    3.1108   -2.9039 C   0  0  0  0  0  0  0  0  0  0  0  0
   -1.2698    4.6875   -1.5771 C   0  0  0  0  0  0  0  0  0  0  0  0
   -0.0066    2.3462   -0.6701 C   0  0  0  0  0  0  0  0  0  0  0  0
    1.6291    1.5211    1.5862 C   0  0  0  0  0  0  0  0  0  0  0  0
    0.8880    2.4801    2.3026 C   0  0  0  0  0  0  0  0  0  0  0  0
    1.1454    2.6895    3.6658 C   0  0  0  0  0  0  0  0  0  0  0  0
    2.1465    1.9512    4.3154 C   0  0  0  0  0  0  0  0  0  0  0  0
    2.8897    0.9969    3.5997 C   0  0  0  0  0  0  0  0  0  0  0  0
    2.6308    0.7728    2.2405 C   0  0  0  0  0  0  0  0  0  0  0  0
    2.6964    1.8196   -1.1255 C   0  0  0  0  0  0  0  0  0  0  0  0
    3.6198    2.7059   -0.5419 C   0  0  0  0  0  0  0  0  0  0  0  0
    4.6563    3.2443   -1.3219 C   0  0  0  0  0  0  0  0  0  0  0  0
    4.7689    2.9037   -2.6780 C   0  0  0  0  0  0  0  0  0  0  0  0
    3.8448    2.0185   -3.2595 C   0  0  0  0  0  0  0  0  0  0  0  0
    2.8132    1.4717   -2.4864 C   0  0  0  0  0  0  0  0  0  0  0  0
   -1.5618    0.0917    1.9554 C   0  0  0  0  0  0  0  0  0  0  0  0
   -2.4846    1.0796    2.3545 C   0  0  0  0  0  0  0  0  0  0  0  0
   -2.5788    1.4339    3.7081 C   0  0  0  0  0  0  0  0  0  0  0  0
   -1.7587    0.8063    4.6603 C   0  0  0  0  0  0  0  0  0  0  0  0
   -0.8414   -0.1787    4.2611 C   0  0  0  0  0  0  0  0  0  0  0  0
   -0.7368   -0.5368    2.9101 C   0  0  0  0  0  0  0  0  0  0  0  0
   -3.3180   -1.8330    0.6533 H   0  0  0  0  0  0  0  0  0  0  0  0
   -2.6231   -2.1462   -0.9524 H   0  0  0  0  0  0  0  0  0  0  0  0
   -7.1151   -1.1122   -0.1362 H   0  0  0  0  0  0  0  0  0  0  0  0
   -6.0381    0.0310    0.7335 H   0  0  0  0  0  0  0  0  0  0  0  0
   -5.6435   -1.7199    0.6783 H   0  0  0  0  0  0  0  0  0  0  0  0
   -6.3505   -2.1708   -2.3504 H   0  0  0  0  0  0  0  0  0  0  0  0
   -4.8910   -2.7994   -1.5303 H   0  0  0  0  0  0  0  0  0  0  0  0
   -4.7250   -1.8005   -3.0121 H   0  0  0  0  0  0  0  0  0  0  0  0
   -5.9039    1.4550   -1.4109 H   0  0  0  0  0  0  0  0  0  0  0  0
   -6.9619    0.2688   -2.2485 H   0  0  0  0  0  0  0  0  0  0  0  0
   -5.3668    0.7143   -2.9452 H   0  0  0  0  0  0  0  0  0  0  0  0
   -4.0525    2.9416   -0.4566 H   0  0  0  0  0  0  0  0  0  0  0  0
   -3.8596    4.6643   -0.9108 H   0  0  0  0  0  0  0  0  0  0  0  0
   -2.9515    4.0101    0.4881 H   0  0  0  0  0  0  0  0  0  0  0  0
   -3.3630    2.2617   -2.9089 H   0  0  0  0  0  0  0  0  0  0  0  0
   -1.8062    2.8707   -3.5714 H   0  0  0  0  0  0  0  0  0  0  0  0
   -3.1748    4.0014   -3.3164 H   0  0  0  0  0  0  0  0  0  0  0  0
   -0.8659    4.9992   -0.5932 H   0  0  0  0  0  0  0  0  0  0  0  0
   -1.8903    5.5208   -1.9617 H   0  0  0  0  0  0  0  0  0  0  0  0
   -0.4248    4.5550   -2.2813 H   0  0  0  0  0  0  0  0  0  0  0  0
    0.4366    3.3224   -0.8995 H   0  0  0  0  0  0  0  0  0  0  0  0
    0.0967    3.0484    1.7912 H   0  0  0  0  0  0  0  0  0  0  0  0
    0.5536    3.4310    4.2235 H   0  0  0  0  0  0  0  0  0  0  0  0
    2.3459    2.1157    5.3854 H   0  0  0  0  0  0  0  0  0  0  0  0
    3.6727    0.4120    4.1057 H   0  0  0  0  0  0  0  0  0  0  0  0
    3.1922    0.0064    1.6802 H   0  0  0  0  0  0  0  0  0  0  0  0
    3.5348    2.9693    0.5228 H   0  0  0  0  0  0  0  0  0  0  0  0
    5.3820    3.9324   -0.8621 H   0  0  0  0  0  0  0  0  0  0  0  0
    5.5853    3.3237   -3.2851 H   0  0  0  0  0  0  0  0  0  0  0  0
    3.9384    1.7388   -4.3196 H   0  0  0  0  0  0  0  0  0  0  0  0
    2.1051    0.7547   -2.9290 H   0  0  0  0  0  0  0  0  0  0  0  0
   -3.1153    1.5828    1.6064 H   0  0  0  0  0  0  0  0  0  0  0  0
   -3.2947    2.2095    4.0202 H   0  0  0  0  0  0  0  0  0  0  0  0
   -1.8303    1.0933    5.7204 H   0  0  0  0  0  0  0  0  0  0  0  0
   -0.1886   -0.6621    5.0027 H   0  0  0  0  0  0  0  0  0  0  0  0
   -0.0077   -1.2955    2.5838 H   0  0  0  0  0  0  0  0  0  0  0  0
  1 29  1  1  0  0  0
  2 17  1  0  0  0  0
  3  6  2  0  0  0  0
  3  4  1  0  0  0  0
  4  1  1  0  0  0  0
  5  1  1  0  0  0  0
  5 35  1  0  0  0  0
  6  5  1  0  0  0  0
  7  6  1  0  0  0  0
  7  8  1  0  0  0  0
  8 39  1  0  0  0  0
  8 38  1  0  0  0  0
  9 41  1  0  0  0  0
  9  7  1  0  0  0  0
 10 43  1  0  0  0  0
 10  7  1  0  0  0  0
 11 16  2  0  0  0  0
 11  4  1  0  0  0  0
 12 11  1  0  0  0  0
 12 13  1  0  0  0  0
 13 46  1  0  0  0  0
 13 48  1  0  0  0  0
 14 12  1  0  0  0  0
 15 12  1  0  0  0  0
 15 52  1  0  0  0  0
 16  2  1  0  0  0  0
 17 22  2  0  0  0  0
 17 18  1  0  0  0  0
 18 19  2  0  0  0  0
 19 57  1  0  0  0  0
 19 20  1  0  0  0  0
 20 58  1  0  0  0  0
 21 59  1  0  0  0  0
 21 20  2  0  0  0  0
 22 21  1  0  0  0  0
 23 24  1  0  0  0  0
 23  2  1  0  0  0  0
 24 61  1  0  0  0  0
 25 62  1  0  0  0  0
 25 24  2  0  0  0  0
 26 25  1  0  0  0  0
 27 26  2  0  0  0  0
 27 28  1  0  0  0  0
 28 23  2  0  0  0  0
 29 30  2  0  0  0  0
 29 34  1  0  0  0  0
 30 31  1  0  0  0  0
 31 67  1  0  0  0  0
 31 32  2  0  0  0  0
 32 68  1  0  0  0  0
 33 32  1  0  0  0  0
 33 69  1  0  0  0  0
 34 33  2  0  0  0  0
 36  5  1  0  0  0  0
 37  8  1  0  0  0  0
 40  9  1  0  0  0  0
 42  9  1  0  0  0  0
 44 10  1  0  0  0  0
 45 10  1  0  0  0  0
 47 13  1  0  0  0  0
 49 14  1  0  0  0  0
 50 14  1  0  0  0  0
 51 14  1  0  0  0  0
 53 15  1  0  0  0  0
 54 15  1  0  0  0  0
 55 16  1  0  0  0  0
 56 18  1  0  0  0  0
 60 22  1  0  0  0  0
 63 26  1  0  0  0  0
 64 27  1  0  0  0  0
 65 28  1  0  0  0  0
 66 30  1  0  0  0  0
 70 34  1  0  0  0  0
M  END
