1,2
q = 0.0, confidence = 0.998

 71 76  0  0  0  0  0  0  0  0999 V2000
   -1.7900    0.3540   -0.2039 P   0  0  0  0  0  0  0  0  0  0  0  0
    1.2518   -0.9893    0.3344 P   0  0  0  0  0  0  0  0  0  0  0  0
    0.7036    1.9130    0.5178 Si  0  0  0  0  0  0  0  0  0  0  0  0
    1.2269    0.4429    1.1944 O   0  0  0  0  0  0  0  0  0  0  0  0
   -0.9584    1.7263    0.2264 O   0  0  0  0  0  0  0  0  0  0  0  0
   -3.0333    1.0938   -1.3147 C   0  0  0  0  0  0  0  0  0  0  0  0
   -4.0919    1.8423   -0.7642 C   0  0  0  0  0  0  0  0  0  0  0  0
   -4.9887    2.5085   -1.6123 C   0  0  0  0  0  0  0  0  0  0  0  0
   -4.8283    2.4316   -3.0050 C   0  0  0  0  0  0  0  0  0  0  0  0
   -3.7728    1.6840   -3.5526 C   0  0  0  0  0  0  0  0  0  0  0  0
   -2.8762    1.0098   -2.7124 C   0  0  0  0  0  0  0  0  0  0  0  0
   -2.6399   -0.0736    1.3576 C   0  0  0  0  0  0  0  0  0  0  0  0
   -2.4987    0.7295    2.5065 C   0  0  0  0  0  0  0  0  0  0  0  0
   -3.0811    0.3190    3.7166 C   0  0  0  0  0  0  0  0  0  0  0  0
   -3.8040   -0.8828    3.7788 C   0  0  0  0  0  0  0  0  0  0  0  0
   -3.9490   -1.6776    2.6284 C   0  0  0  0  0  0  0  0  0  0  0  0
   -3.3653   -1.2828    1.4172 C   0  0  0  0  0  0  0  0  0  0  0  0
    2.8833   -0.9003   -0.4769 C   0  0  0  0  0  0  0  0  0  0  0  0
    2.9969   -0.9453   -1.8784 C   0  0  0  0  0  0  0  0  0  0  0  0
    4.2495   -0.7510   -2.4769 C   0  0  0  0  0  0  0  0  0  0  0  0
    5.3839   -0.5154   -1.6839 C   0  0  0  0  0  0  0  0  0  0  0  0
    5.2692   -0.4695   -0.2843 C   0  0  0  0  0  0  0  0  0  0  0  0
    4.0196   -0.6575    0.3226 C   0  0  0  0  0  0  0  0  0  0  0  0
    1.3709   -2.1577    1.7252 C   0  0  0  0  0  0  0  0  0  0  0  0
    2.1881   -3.3013    1.6532 C   0  0  0  0  0  0  0  0  0  0  0  0
    2.1937   -4.2145    2.7177 C   0  0  0  0  0  0  0  0  0  0  0  0
    1.3805   -3.9967    3.8415 C   0  0  0  0  0  0  0  0  0  0  0  0
    0.5536   -2.8628    3.9033 C   0  0  0  0  0  0  0  0  0  0  0  0
    0.5435   -1.9425    2.8466 C   0  0  0  0  0  0  0  0  0  0  0  0
    0.9467    3.1877    1.8491 C   0  0  0  0  0  0  0  0  0  0  0  0
    1.0818    4.5550    1.5207 C   0  0  0  0  0  0  0  0  0  0  0  0
    1.2266    5.5201    2.5287 C   0  0  0  0  0  0  0  0  0  0  0  0
    1.2430    5.1280    3.8770 C   0  0  0  0  0  0  0  0  0  0  0  0
    1.1184    3.7707    4.2174 C   0  0  0  0  0  0  0  0  0  0  0  0
    0.9729    2.8057    3.2101 C   0  0  0  0  0  0  0  0  0  0  0  0
    1.5726    2.2501   -1.0950 C   0  0  0  0  0  0  0  0  0  0  0  0
    0.9182    2.0800   -2.3347 C   0  0  0  0  0  0  0  0  0  0  0  0
    1.6229    2.2273   -3.5388 C   0  0  0  0  0  0  0  0  0  0  0  0
    2.9892    2.5480   -3.5178 C   0  0  0  0  0  0  0  0  0  0  0  0
    3.6518    2.7261   -2.2920 C   0  0  0  0  0  0  0  0  0  0  0  0
    2.9476    2.5799   -1.0893 C   0  0  0  0  0  0  0  0  0  0  0  0
   -4.2170    1.8992    0.3279 H   0  0  0  0  0  0  0  0  0  0  0  0
   -5.8194    3.0881   -1.1820 H   0  0  0  0  0  0  0  0  0  0  0  0
   -5.5354    2.9521   -3.6689 H   0  0  0  0  0  0  0  0  0  0  0  0
   -3.6542    1.6126   -4.6442 H   0  0  0  0  0  0  0  0  0  0  0  0
   -2.0713    0.3892   -3.1322 H   0  0  0  0  0  0  0  0  0  0  0  0
   -1.9278    1.6681    2.4507 H   0  0  0  0  0  0  0  0  0  0  0  0
   -2.9674    0.9444    4.6153 H   0  0  0  0  0  0  0  0  0  0  0  0
   -4.2557   -1.2041    4.7298 H   0  0  0  0  0  0  0  0  0  0  0  0
   -4.5118   -2.6219    2.6769 H   0  0  0  0  0  0  0  0  0  0  0  0
   -3.4490   -1.9101    0.5141 H   0  0  0  0  0  0  0  0  0  0  0  0
    2.1024   -1.1432   -2.4861 H   0  0  0  0  0  0  0  0  0  0  0  0
    4.3376   -0.7819   -3.5730 H   0  0  0  0  0  0  0  0  0  0  0  0
    6.3657   -0.3658   -2.1588 H   0  0  0  0  0  0  0  0  0  0  0  0
    6.1580   -0.2861    0.3384 H   0  0  0  0  0  0  0  0  0  0  0  0
    3.9221   -0.6111    1.4181 H   0  0  0  0  0  0  0  0  0  0  0  0
    2.8014   -3.4799    0.7585 H   0  0  0  0  0  0  0  0  0  0  0  0
    2.8335   -5.1082    2.6640 H   0  0  0  0  0  0  0  0  0  0  0  0
    1.3849   -4.7200    4.6712 H   0  0  0  0  0  0  0  0  0  0  0  0
   -0.0955   -2.6955    4.7761 H   0  0  0  0  0  0  0  0  0  0  0  0
   -0.1154   -1.0620    2.8853 H   0  0  0  0  0  0  0  0  0  0  0  0
    1.0778    4.8678    0.4640 H   0  0  0  0  0  0  0  0  0  0  0  0
    1.3303    6.5829    2.2619 H   0  0  0  0  0  0  0  0  0  0  0  0
    1.3583    5.8849    4.6681 H   0  0  0  0  0  0  0  0  0  0  0  0
    1.1400    3.4635    5.2742 H   0  0  0  0  0  0  0  0  0  0  0  0
    0.8886    1.7404    3.4770 H   0  0  0  0  0  0  0  0  0  0  0  0
   -0.1509    1.8219   -2.3606 H   0  0  0  0  0  0  0  0  0  0  0  0
    1.1022    2.0870   -4.4982 H   0  0  0  0  0  0  0  0  0  0  0  0
    3.5431    2.6575   -4.4629 H   0  0  0  0  0  0  0  0  0  0  0  0
    4.7246    2.9705   -2.2741 H   0  0  0  0  0  0  0  0  0  0  0  0
    3.4793    2.7090   -0.1327 H   0  0  0  0  0  0  0  0  0  0  0  0
  1  5  1  0  0  0  0
  1 12  1  0  0  0  0
  2  4  1  0  0  0  0
  2 24  1  0  0  0  0
  3  4  1  0  0  0  0
  3 30  1  0  0  0  0
  5  3  1  0  0  0  0
  6  7  1  0  0  0  0
  6  1  1  0  0  0  0
  7 42  1  0  0  0  0
  8 43  1  0  0  0  0
  8  7  2  0  0  0  0
  9  8  1  0  0  0  0
 10  9  2  0  0  0  0
 10 11  1  0  0  0  0
 11  6  2  0  0  0  0
 12 17  2  0  0  0  0
 12 13  1  0  0  0  0
 13 14  2  0  0  0  0
 14 15  1  0  0  0  0
 14 48  1  0  0  0  0
 15 49  1  0  0  0  0
 16 50  1  0  0  0  0
 16 15  2  0  0  0  0
 17 16  1  0  0  0  0
 18 23  1  0  0  0  0
 18  2  1  0  0  0  0
 19 18  2  0  0  0  0
 20 19  1  0  0  0  0
 20 21  2  0  0  0  0
 21 22  1  0  0  0  0
 22 23  2  0  0  0  0
 22 55  1  0  0  0  0
 23 56  1  0  0  0  0
 24 29  1  0  0  0  0
 25 24  2  0  0  0  0
 25 26  1  0  0  0  0
 26 27  2  0  0  0  0
 27 28  1  0  0  0  0
 27 59  1  0  0  0  0
 28 60  1  0  0  0  0
 29 61  1  0  0  0  0
 29 28  2  0  0  0  0
 30 35  1  0  0  0  0
 31 30  2  0  0  0  0
 31 32  1  0  0  0  0
 32 33  2  0  0  0  0
 33 34  1  0  0  0  0
 33 64  1  0  0  0  0
 34 65  1  0  0  0  0
 35 66  1  0  0  0  0
 35 34  2  0  0  0  0
 36 41  1  0  0  0  0
 36  3  1  0  0  0  0
 37 36  2  0  0  0  0
 38 39  2  0  0  0  0
 38 37  1  0  0  0  0
 39 40  1  0  0  0  0
 40 70  1  0  0  0  0
 40 41  2  0  0  0  0
 41 71  1  0  0  0  0
 44  9  1  0  0  0  0
 45 10  1  0  0  0  0
 46 11  1  0  0  0  0
 47 13  1  0  0  0  0
 51 17  1  0  0  0  0
 52 19  1  0  0  0  0
 53 20  1  0  0  0  0
 54 21  1  0  0  0  0
 57 25  1  0  0  0  0
 58 26  1  0  0  0  0
 62 31  1  0  0  0  0
 63 32  1  0  0  0  0
 67 37  1  0  0  0  0
 68 38  1  0  0  0  0
 69 39  1  0  0  0  0
M  END
