1,2
q = 0.0, confidence = 1.0

 36 39  0  0  1  0  0  0  0  0999 V2000
   -1.4893   -0.7630    0.1041 P   0  0  1  0  0  0  0  0  0  0  0  0
    1.6058   -0.7137    0.0531 P   0  0  2  0  0  0  0  0  0  0  0  0
   -1.3431   -1.7245    1.4721 O   0  0  0  0  0  0  0  0  0  0  0  0
   -1.2281   -1.9087   -1.0948 O   0  0  0  0  0  0  0  0  0  0  0  0
   -0.0941   -1.8771    2.1506 C   0  0  0  0  0  0  0  0  0  0  0  0
    0.0700   -1.0225    2.8439 H   0  0  0  0  0  0  0  0  0  0  0  0
   -0.2199   -2.7878    2.7743 H   0  0  0  0  0  0  0  0  0  0  0  0
    1.1357   -2.0511    1.2675 C   0  0  1  0  0  0  0  0  0  0  0  0
    1.9904   -2.4686    1.8294 H   0  0  0  0  0  0  0  0  0  0  0  0
    1.0803   -2.4808   -0.1950 C   0  0  1  0  0  0  0  0  0  0  0  0
    1.8981   -3.1705   -0.4673 H   0  0  0  0  0  0  0  0  0  0  0  0
   -0.1922   -2.8774   -0.9447 C   0  0  0  0  0  0  0  0  0  0  0  0
    0.0944   -3.1626   -1.9774 H   0  0  0  0  0  0  0  0  0  0  0  0
   -0.6126   -3.7833   -0.4490 H   0  0  0  0  0  0  0  0  0  0  0  0
   -3.3056   -0.6549    0.0391 C   0  0  0  0  0  0  0  0  0  0  0  0
   -4.0834   -1.5702   -0.6952 C   0  0  0  0  0  0  0  0  0  0  0  0
   -3.5827   -2.3661   -1.2643 H   0  0  0  0  0  0  0  0  0  0  0  0
   -5.4802   -1.4444   -0.7007 C   0  0  0  0  0  0  0  0  0  0  0  0
   -6.0901   -2.1547   -1.2795 H   0  0  0  0  0  0  0  0  0  0  0  0
   -6.1000   -0.4156    0.0272 C   0  0  0  0  0  0  0  0  0  0  0  0
   -7.1965   -0.3197    0.0183 H   0  0  0  0  0  0  0  0  0  0  0  0
   -5.3228    0.4965    0.7601 C   0  0  0  0  0  0  0  0  0  0  0  0
   -5.8063    1.3067    1.3261 H   0  0  0  0  0  0  0  0  0  0  0  0
   -3.9259    0.3840    0.7611 C   0  0  0  0  0  0  0  0  0  0  0  0
   -3.3119    1.1058    1.3215 H   0  0  0  0  0  0  0  0  0  0  0  0
    3.4367   -0.6640    0.0068 C   0  0  0  0  0  0  0  0  0  0  0  0
    4.0531    0.4425    0.6292 C   0  0  0  0  0  0  0  0  0  0  0  0
    3.4313    1.2116    1.1134 H   0  0  0  0  0  0  0  0  0  0  0  0
    5.4495    0.5649    0.6249 C   0  0  0  0  0  0  0  0  0  0  0  0
    5.9216    1.4286    1.1167 H   0  0  0  0  0  0  0  0  0  0  0  0
    6.2405   -0.4054   -0.0115 C   0  0  0  0  0  0  0  0  0  0  0  0
    7.3363   -0.3048   -0.0201 H   0  0  0  0  0  0  0  0  0  0  0  0
    5.6303   -1.4985   -0.6467 C   0  0  0  0  0  0  0  0  0  0  0  0
    6.2455   -2.2537   -1.1590 H   0  0  0  0  0  0  0  0  0  0  0  0
    4.2332   -1.6288   -0.6408 C   0  0  0  0  0  0  0  0  0  0  0  0
    3.7664   -2.4806   -1.1582 H   0  0  0  0  0  0  0  0  0  0  0  0
  1 15  1  6  0  0  0
  1  3  1  0  0  0  0
  2 26  1  1  0  0  0
  2  8  1  0  0  0  0
  3  5  1  0  0  0  0
  4 12  1  0  0  0  0
  4  1  1  0  0  0  0
  5  7  1  0  0  0  0
  5  6  1  0  0  0  0
  8  9  1  1  0  0  0
  8  5  1  0  0  0  0
 10 11  1  6  0  0  0
 10  2  1  0  0  0  0
 10  8  1  0  0  0  0
 12 14  1  0  0  0  0
 12 10  1  0  0  0  0
 13 12  1  0  0  0  0
 15 24  1  0  0  0  0
 16 15  2  0  0  0  0
 17 16  1  0  0  0  0
 18 16  1  0  0  0  0
 18 20  2  0  0  0  0
 19 18  1  0  0  0  0
 20 22  1  0  0  0  0
 21 20  1  0  0  0  0
 22 24  2  0  0  0  0
 22 23  1  0  0  0  0
 24 25  1  0  0  0  0
 26 27  1  0  0  0  0
 27 28  1  0  0  0  0
 29 27  2  0  0  0  0
 29 30  1  0  0  0  0
 31 29  1  0  0  0  0
 32 31  1  0  0  0  0
 33 35  1  0  0  0  0
 33 31  2  0  0  0  0
 34 33  1  0  0  0  0
 35 26  2  0  0  0  0
 36 35  1  0  0  0  0
M  END
