1,2
q = 0.0, confidence = 1.0

 44 47  0  0  1  0  0  0  0  0999 V2000
   -1.3976   -0.7166    0.0283 P   0  0  1  0  0  0  0  0  0  0  0  0
    1.7012   -0.6604   -0.1111 P   0  0  2  0  0  0  0  0  0  0  0  0
   -1.0710   -1.8221    1.3553 N   0  0  0  0  0  0  0  0  0  0  0  0
   -1.2927   -1.7992   -1.3037 N   0  0  0  0  0  0  0  0  0  0  0  0
   -0.0676   -2.8427    1.0469 C   0  0  0  0  0  0  0  0  0  0  0  0
   -0.5380   -3.6748    0.4757 H   0  0  0  0  0  0  0  0  0  0  0  0
    0.2422   -3.2805    2.0170 H   0  0  0  0  0  0  0  0  0  0  0  0
    1.2118   -2.4278    0.2967 C   0  0  1  0  0  0  0  0  0  0  0  0
    2.0917   -3.0092    0.6248 H   0  0  0  0  0  0  0  0  0  0  0  0
    1.2434   -2.1036   -1.1876 C   0  0  1  0  0  0  0  0  0  0  0  0
    2.0790   -2.5464   -1.7598 H   0  0  0  0  0  0  0  0  0  0  0  0
   -0.0295   -1.9753   -2.0297 C   0  0  0  0  0  0  0  0  0  0  0  0
    0.1212   -1.1634   -2.7739 H   0  0  0  0  0  0  0  0  0  0  0  0
   -0.1367   -2.9100   -2.6183 H   0  0  0  0  0  0  0  0  0  0  0  0
   -0.9274   -1.2200    2.6759 C   0  0  0  0  0  0  0  0  0  0  0  0
   -1.1584   -1.9710    3.4622 H   0  0  0  0  0  0  0  0  0  0  0  0
   -1.6433   -0.3831    2.7934 H   0  0  0  0  0  0  0  0  0  0  0  0
    0.0927   -0.8159    2.8674 H   0  0  0  0  0  0  0  0  0  0  0  0
   -2.2720   -2.8609   -1.4901 C   0  0  0  0  0  0  0  0  0  0  0  0
   -2.5066   -2.9861   -2.5690 H   0  0  0  0  0  0  0  0  0  0  0  0
   -3.2151   -2.6058   -0.9733 H   0  0  0  0  0  0  0  0  0  0  0  0
   -1.9239   -3.8473   -1.0969 H   0  0  0  0  0  0  0  0  0  0  0  0
   -3.2081   -0.4418    0.1842 C   0  0  0  0  0  0  0  0  0  0  0  0
   -3.9960   -1.1271    1.1293 C   0  0  0  0  0  0  0  0  0  0  0  0
   -3.5183   -1.8747    1.7802 H   0  0  0  0  0  0  0  0  0  0  0  0
   -5.3726   -0.8664    1.2144 C   0  0  0  0  0  0  0  0  0  0  0  0
   -5.9848   -1.3987    1.9585 H   0  0  0  0  0  0  0  0  0  0  0  0
   -5.9683    0.0656    0.3500 C   0  0  0  0  0  0  0  0  0  0  0  0
   -7.0477    0.2693    0.4189 H   0  0  0  0  0  0  0  0  0  0  0  0
   -5.1857    0.7399   -0.6027 C   0  0  0  0  0  0  0  0  0  0  0  0
   -5.6493    1.4704   -1.2826 H   0  0  0  0  0  0  0  0  0  0  0  0
   -3.8083    0.4949   -0.6811 C   0  0  0  0  0  0  0  0  0  0  0  0
   -3.1908    1.0309   -1.4179 H   0  0  0  0  0  0  0  0  0  0  0  0
    3.5280   -0.6284    0.0538 C   0  0  0  0  0  0  0  0  0  0  0  0
    4.0922    0.5459    0.5929 C   0  0  0  0  0  0  0  0  0  0  0  0
    3.4344    1.3794    0.8816 H   0  0  0  0  0  0  0  0  0  0  0  0
    5.4812    0.6531    0.7584 C   0  0  0  0  0  0  0  0  0  0  0  0
    5.9080    1.5752    1.1808 H   0  0  0  0  0  0  0  0  0  0  0  0
    6.3197   -0.4076    0.3841 C   0  0  0  0  0  0  0  0  0  0  0  0
    7.4095   -0.3224    0.5106 H   0  0  0  0  0  0  0  0  0  0  0  0
    5.7637   -1.5794   -0.1557 C   0  0  0  0  0  0  0  0  0  0  0  0
    6.4166   -2.4135   -0.4550 H   0  0  0  0  0  0  0  0  0  0  0  0
    4.3760   -1.6919   -0.3202 C   0  0  0  0  0  0  0  0  0  0  0  0
    3.9616   -2.6180   -0.7483 H   0  0  0  0  0  0  0  0  0  0  0  0
  1 23  1  1  0  0  0
  1  3  1  0  0  0  0
  2 34  1  6  0  0  0
  2  8  1  0  0  0  0
  3 15  1  0  0  0  0
  4  1  1  0  0  0  0
  5  3  1  0  0  0  0
  5  7  1  0  0  0  0
  6  5  1  0  0  0  0
  8  9  1  1  0  0  0
  8  5  1  0  0  0  0
 10 11  1  6  0  0  0
 10  2  1  0  0  0  0
 10  8  1  0  0  0  0
 12  4  1  0  0  0  0
 12 10  1  0  0  0  0
 13 12  1  0  0  0  0
 14 12  1  0  0  0  0
 15 17  1  0  0  0  0
 15 18  1  0  0  0  0
 15 16  1  0  0  0  0
 19  4  1  0  0  0  0
 19 22  1  0  0  0  0
 19 21  1  0  0  0  0
 20 19  1  0  0  0  0
 23 24  1  0  0  0  0
 24 26  2  0  0  0  0
 24 25  1  0  0  0  0
 26 27  1  0  0  0  0
 28 29  1  0  0  0  0
 28 26  1  0  0  0  0
 30 28  2  0  0  0  0
 31 30  1  0  0  0  0
 32 30  1  0  0  0  0
 32 23  2  0  0  0  0
 33 32  1  0  0  0  0
 34 35  1  0  0  0  0
 35 37  2  0  0  0  0
 35 36  1  0  0  0  0
 37 38  1  0  0  0  0
 39 40  1  0  0  0  0
 39 37  1  0  0  0  0
 41 39  2  0  0  0  0
 42 41  1  0  0  0  0
 43 41  1  0  0  0  0
 43 34  2  0  0  0  0
 44 43  1  0  0  0  0
M  END
