5,28
q = 0.0, confidence = 0.988

 50 53  0  0  0  0  0  0  0  0999 V2000
   -0.0803    0.2963   -1.5080 C   0  0  0  0  0  0  0  0  0  0  0  0
   -0.1138    1.3573   -1.8397 H   0  0  0  0  0  0  0  0  0  0  0  0
   -0.1332   -0.5888   -2.6424 C   0  0  0  0  0  0  0  0  0  0  0  0
   -0.1953   -1.3294   -3.5519 N   0  0  0  0  0  0  0  0  0  0  0  0
    1.3477    0.2489   -0.2479 P   0  0  0  0  0  0  0  0  0  0  0  0
    2.0228   -1.4463   -0.2094 C   0  0  0  0  0  0  0  0  0  0  0  0
    2.4330   -2.1175   -1.3803 C   0  0  0  0  0  0  0  0  0  0  0  0
    2.3616   -1.6334   -2.3645 H   0  0  0  0  0  0  0  0  0  0  0  0
    2.9284   -3.4253   -1.2895 C   0  0  0  0  0  0  0  0  0  0  0  0
    3.2341   -3.9548   -2.2043 H   0  0  0  0  0  0  0  0  0  0  0  0
    3.0337   -4.0558   -0.0385 C   0  0  0  0  0  0  0  0  0  0  0  0
    3.4242   -5.0828    0.0259 H   0  0  0  0  0  0  0  0  0  0  0  0
    2.6514   -3.3758    1.1284 C   0  0  0  0  0  0  0  0  0  0  0  0
    2.7495   -3.8613    2.1110 H   0  0  0  0  0  0  0  0  0  0  0  0
    2.1431   -2.0712    1.0501 C   0  0  0  0  0  0  0  0  0  0  0  0
    1.8595   -1.5159    1.9595 H   0  0  0  0  0  0  0  0  0  0  0  0
    2.6263    1.3594   -0.9214 C   0  0  0  0  0  0  0  0  0  0  0  0
    3.4023    2.1000   -0.0058 C   0  0  0  0  0  0  0  0  0  0  0  0
    3.1931    2.0119    1.0749 H   0  0  0  0  0  0  0  0  0  0  0  0
    4.4153    2.9407   -0.4904 C   0  0  0  0  0  0  0  0  0  0  0  0
    5.0208    3.5230    0.2202 H   0  0  0  0  0  0  0  0  0  0  0  0
    4.6503    3.0472   -1.8706 C   0  0  0  0  0  0  0  0  0  0  0  0
    5.4440    3.7121   -2.2439 H   0  0  0  0  0  0  0  0  0  0  0  0
    3.8700    2.3125   -2.7790 C   0  0  0  0  0  0  0  0  0  0  0  0
    4.0502    2.3994   -3.8611 H   0  0  0  0  0  0  0  0  0  0  0  0
    2.8555    1.4661   -2.3097 C   0  0  0  0  0  0  0  0  0  0  0  0
    2.2477    0.8949   -3.0291 H   0  0  0  0  0  0  0  0  0  0  0  0
   -1.4127    0.1637   -0.1496 P   0  0  0  0  0  0  0  0  0  0  0  0
   -1.9184   -1.5883   -0.1386 C   0  0  0  0  0  0  0  0  0  0  0  0
   -1.4376   -2.4149    0.8974 C   0  0  0  0  0  0  0  0  0  0  0  0
   -0.8279   -1.9762    1.7023 H   0  0  0  0  0  0  0  0  0  0  0  0
   -1.7505   -3.7813    0.8969 C   0  0  0  0  0  0  0  0  0  0  0  0
   -1.3738   -4.4250    1.7056 H   0  0  0  0  0  0  0  0  0  0  0  0
   -2.5453   -4.3208   -0.1264 C   0  0  0  0  0  0  0  0  0  0  0  0
   -2.7907   -5.3936   -0.1240 H   0  0  0  0  0  0  0  0  0  0  0  0
   -3.0365   -3.4937   -1.1504 C   0  0  0  0  0  0  0  0  0  0  0  0
   -3.6643   -3.9155   -1.9494 H   0  0  0  0  0  0  0  0  0  0  0  0
   -2.7285   -2.1268   -1.1600 C   0  0  0  0  0  0  0  0  0  0  0  0
   -3.1215   -1.4825   -1.9600 H   0  0  0  0  0  0  0  0  0  0  0  0
   -2.8110    1.1732   -0.7315 C   0  0  0  0  0  0  0  0  0  0  0  0
   -3.1126    1.3099   -2.1040 C   0  0  0  0  0  0  0  0  0  0  0  0
   -2.4945    0.8179   -2.8713 H   0  0  0  0  0  0  0  0  0  0  0  0
   -4.2149    2.0835   -2.4957 C   0  0  0  0  0  0  0  0  0  0  0  0
   -4.4521    2.1916   -3.5648 H   0  0  0  0  0  0  0  0  0  0  0  0
   -5.0092    2.7188   -1.5269 C   0  0  0  0  0  0  0  0  0  0  0  0
   -5.8718    3.3268   -1.8395 H   0  0  0  0  0  0  0  0  0  0  0  0
   -4.6996    2.5880   -0.1635 C   0  0  0  0  0  0  0  0  0  0  0  0
   -5.3145    3.0962    0.5944 H   0  0  0  0  0  0  0  0  0  0  0  0
   -3.5995    1.8194    0.2440 C   0  0  0  0  0  0  0  0  0  0  0  0
   -3.3260    1.7226    1.3097 H   0  0  0  0  0  0  0  0  0  0  0  0
  1  5  1  0  0  0  0
  1 28  1  0  0  0  0
  2  1  1  0  0  0  0
  3  1  1  0  0  0  0
  4  3  3  0  0  0  0
  5  6  1  0  0  0  0
  6 15  1  0  0  0  0
  7  9  1  0  0  0  0
  7  6  2  0  0  0  0
  8  7  1  0  0  0  0
  9 11  2  0  0  0  0
 10  9  1  0  0  0  0
 11 12  1  0  0  0  0
 11 13  1  0  0  0  0
 13 14  1  0  0  0  0
 15 13  2  0  0  0  0
 15 16  1  0  0  0  0
 17  5  1  0  0  0  0
 17 18  1  0  0  0  0
 18 19  1  0  0  0  0
 20 18  2  0  0  0  0
 20 21  1  0  0  0  0
 22 20  1  0  0  0  0
 23 22  1  0  0  0  0
 24 26  1  0  0  0  0
 24 22  2  0  0  0  0
 25 24  1  0  0  0  0
 26 17  2  0  0  0  0
 27 26  1  0  0  0  0
 28 29  1  0  0  0  0
 29 30  1  0  0  0  0
 30 31  1  0  0  0  0
 32 30  2  0  0  0  0
 32 33  1  0  0  0  0
 34 35  1  0  0  0  0
 34 32  1  0  0  0  0
 36 34  2  0  0  0  0
 37 36  1  0  0  0  0
 38 36  1  0  0  0  0
 38 29  2  0  0  0  0
 39 38  1  0  0  0  0
 40 28  1  0  0  0  0
 40 49  1  0  0  0  0
 41 40  2  0  0  0  0
 42 41  1  0  0  0  0
 43 41  1  0  0  0  0
 43 45  2  0  0  0  0
 44 43  1  0  0  0  0
 45 47  1  0  0  0  0
 46 45  1  0  0  0  0
 47 49  2  0  0  0  0
 47 48  1  0  0  0  0
 49 50  1  0  0  0  0
M  END
