1,2
q = 0.0, confidence = 0.998

 70 73  0  0  0  0  0  0  0  0999 V2000
    2.2336    0.1833    0.2065 P   0  0  0  0  0  0  0  0  0  0  0  0
   -2.2336    0.1832   -0.2065 P   0  0  0  0  0  0  0  0  0  0  0  0
    1.0522    2.9755   -0.5547 Si  0  0  0  0  0  0  0  0  0  0  0  0
   -1.0521    2.9756    0.5540 Si  0  0  0  0  0  0  0  0  0  0  0  0
    2.3841    1.9952    0.4387 C   0  0  0  0  0  0  0  0  0  0  0  0
    3.4051    2.3746    0.2195 H   0  0  0  0  0  0  0  0  0  0  0  0
    2.1932    2.1803    1.5173 H   0  0  0  0  0  0  0  0  0  0  0  0
    0.9221    2.3674   -2.3463 C   0  0  0  0  0  0  0  0  0  0  0  0
    0.1984    2.9962   -2.9054 H   0  0  0  0  0  0  0  0  0  0  0  0
    0.5774    1.3148   -2.3959 H   0  0  0  0  0  0  0  0  0  0  0  0
    1.9017    2.4306   -2.8626 H   0  0  0  0  0  0  0  0  0  0  0  0
    1.6799    4.7742   -0.5806 C   0  0  0  0  0  0  0  0  0  0  0  0
    1.8098    5.1751    0.4457 H   0  0  0  0  0  0  0  0  0  0  0  0
    0.9664    5.4360   -1.1127 H   0  0  0  0  0  0  0  0  0  0  0  0
    2.6586    4.8420   -1.1005 H   0  0  0  0  0  0  0  0  0  0  0  0
   -1.6799    4.7743    0.5794 C   0  0  0  0  0  0  0  0  0  0  0  0
   -2.6586    4.8421    1.0993 H   0  0  0  0  0  0  0  0  0  0  0  0
   -1.8098    5.1750   -0.4469 H   0  0  0  0  0  0  0  0  0  0  0  0
   -0.9664    5.4362    1.1114 H   0  0  0  0  0  0  0  0  0  0  0  0
   -0.9221    2.3680    2.3457 C   0  0  0  0  0  0  0  0  0  0  0  0
   -0.1984    2.9971    2.9047 H   0  0  0  0  0  0  0  0  0  0  0  0
   -0.5772    1.3155    2.3956 H   0  0  0  0  0  0  0  0  0  0  0  0
   -1.9018    2.4312    2.8620 H   0  0  0  0  0  0  0  0  0  0  0  0
   -2.3840    1.9951   -0.4392 C   0  0  0  0  0  0  0  0  0  0  0  0
   -3.4050    2.3746   -0.2202 H   0  0  0  0  0  0  0  0  0  0  0  0
   -2.1930    2.1798   -1.5178 H   0  0  0  0  0  0  0  0  0  0  0  0
    3.1420   -0.2470   -1.3318 C   0  0  0  0  0  0  0  0  0  0  0  0
    2.8533   -1.5002   -1.9163 C   0  0  0  0  0  0  0  0  0  0  0  0
    2.0913   -2.1601   -1.4614 H   0  0  0  0  0  0  0  0  0  0  0  0
    3.5284   -1.8952   -3.0803 C   0  0  0  0  0  0  0  0  0  0  0  0
    3.2991   -2.8722   -3.5323 H   0  0  0  0  0  0  0  0  0  0  0  0
    4.4802   -1.0490   -3.6726 C   0  0  0  0  0  0  0  0  0  0  0  0
    5.0011   -1.3605   -4.5908 H   0  0  0  0  0  0  0  0  0  0  0  0
    4.7639    0.1979   -3.0937 C   0  0  0  0  0  0  0  0  0  0  0  0
    5.5082    0.8654   -3.5545 H   0  0  0  0  0  0  0  0  0  0  0  0
    4.1002    0.5982   -1.9236 C   0  0  0  0  0  0  0  0  0  0  0  0
    4.3353    1.5765   -1.4783 H   0  0  0  0  0  0  0  0  0  0  0  0
    3.2002   -0.6251    1.5428 C   0  0  0  0  0  0  0  0  0  0  0  0
    2.8627   -1.9493    1.8951 C   0  0  0  0  0  0  0  0  0  0  0  0
    2.0187   -2.4601    1.3933 H   0  0  0  0  0  0  0  0  0  0  0  0
    3.6008   -2.6072    2.8910 C   0  0  0  0  0  0  0  0  0  0  0  0
    3.3356   -3.6397    3.1651 H   0  0  0  0  0  0  0  0  0  0  0  0
    4.6613   -1.9550    3.5402 C   0  0  0  0  0  0  0  0  0  0  0  0
    5.2325   -2.4753    4.3243 H   0  0  0  0  0  0  0  0  0  0  0  0
    4.9913   -0.6350    3.1919 C   0  0  0  0  0  0  0  0  0  0  0  0
    5.8208   -0.1196    3.7000 H   0  0  0  0  0  0  0  0  0  0  0  0
    4.2647    0.0304    2.1935 C   0  0  0  0  0  0  0  0  0  0  0  0
    4.5320    1.0634    1.9230 H   0  0  0  0  0  0  0  0  0  0  0  0
   -3.2001   -0.6256   -1.5427 C   0  0  0  0  0  0  0  0  0  0  0  0
   -2.8624   -1.9498   -1.8949 C   0  0  0  0  0  0  0  0  0  0  0  0
   -2.0183   -2.4604   -1.3929 H   0  0  0  0  0  0  0  0  0  0  0  0
   -3.6004   -2.6079   -2.8907 C   0  0  0  0  0  0  0  0  0  0  0  0
   -3.3351   -3.6404   -3.1646 H   0  0  0  0  0  0  0  0  0  0  0  0
   -4.6610   -1.9559   -3.5399 C   0  0  0  0  0  0  0  0  0  0  0  0
   -5.2322   -2.4764   -4.3240 H   0  0  0  0  0  0  0  0  0  0  0  0
   -4.9912   -0.6359   -3.1918 C   0  0  0  0  0  0  0  0  0  0  0  0
   -5.8208   -0.1207   -3.6998 H   0  0  0  0  0  0  0  0  0  0  0  0
   -4.2647    0.0297   -2.1934 C   0  0  0  0  0  0  0  0  0  0  0  0
   -4.5321    1.0628   -1.9230 H   0  0  0  0  0  0  0  0  0  0  0  0
   -3.1422   -0.2467    1.3318 C   0  0  0  0  0  0  0  0  0  0  0  0
   -2.8533   -1.4997    1.9168 C   0  0  0  0  0  0  0  0  0  0  0  0
   -2.0912   -2.1596    1.4621 H   0  0  0  0  0  0  0  0  0  0  0  0
   -3.5286   -1.8944    3.0808 C   0  0  0  0  0  0  0  0  0  0  0  0
   -3.2992   -2.8712    3.5332 H   0  0  0  0  0  0  0  0  0  0  0  0
   -4.4805   -1.0481    3.6727 C   0  0  0  0  0  0  0  0  0  0  0  0
   -5.0015   -1.3594    4.5910 H   0  0  0  0  0  0  0  0  0  0  0  0
   -4.7643    0.1986    3.0934 C   0  0  0  0  0  0  0  0  0  0  0  0
   -5.5088    0.8661    3.5539 H   0  0  0  0  0  0  0  0  0  0  0  0
   -4.1006    0.5986    1.9232 C   0  0  0  0  0  0  0  0  0  0  0  0
   -4.3357    1.5767    1.4776 H   0  0  0  0  0  0  0  0  0  0  0  0
  1  5  1  0  0  0  0
  1 38  1  0  0  0  0
  2 60  1  0  0  0  0
  3  5  1  0  0  0  0
  3  4  1  0  0  0  0
  4 16  1  0  0  0  0
  4 20  1  0  0  0  0
  5  7  1  0  0  0  0
  6  5  1  0  0  0  0
  8  3  1  0  0  0  0
  9  8  1  0  0  0  0
 10  8  1  0  0  0  0
 11  8  1  0  0  0  0
 12  3  1  0  0  0  0
 12 13  1  0  0  0  0
 14 12  1  0  0  0  0
 15 12  1  0  0  0  0
 16 17  1  0  0  0  0
 16 19  1  0  0  0  0
 18 16  1  0  0  0  0
 20 22  1  0  0  0  0
 20 23  1  0  0  0  0
 20 21  1  0  0  0  0
 24 25  1  0  0  0  0
 24  2  1  0  0  0  0
 24  4  1  0  0  0  0
 26 24  1  0  0  0  0
 27  1  1  0  0  0  0
 28 29  1  0  0  0  0
 28 27  1  0  0  0  0
 30 28  2  0  0  0  0
 31 30  1  0  0  0  0
 32 34  2  0  0  0  0
 32 30  1  0  0  0  0
 33 32  1  0  0  0  0
 34 36  1  0  0  0  0
 35 34  1  0  0  0  0
 36 37  1  0  0  0  0
 36 27  2  0  0  0  0
 38 39  2  0  0  0  0
 38 47  1  0  0  0  0
 39 41  1  0  0  0  0
 40 39  1  0  0  0  0
 41 42  1  0  0  0  0
 41 43  2  0  0  0  0
 43 44  1  0  0  0  0
 45 43  1  0  0  0  0
 45 46  1  0  0  0  0
 47 45  2  0  0  0  0
 48 47  1  0  0  0  0
 49  2  1  0  0  0  0
 50 49  1  0  0  0  0
 50 51  1  0  0  0  0
 52 50  2  0  0  0  0
 53 52  1  0  0  0  0
 54 56  2  0  0  0  0
 54 52  1  0  0  0  0
 55 54  1  0  0  0  0
 56 58  1  0  0  0  0
 57 56  1  0  0  0  0
 58 59  1  0  0  0  0
 58 49  2  0  0  0  0
 60 61  2  0  0  0  0
 60 69  1  0  0  0  0
 61 63  1  0  0  0  0
 62 61  1  0  0  0  0
 63 64  1  0  0  0  0
 63 65  2  0  0  0  0
 65 66  1  0  0  0  0
 67 68  1  0  0  0  0
 67 65  1  0  0  0  0
 69 67  2  0  0  0  0
 70 69  1  0  0  0  0
M  END
