1,2
q = 0.0, confidence = 0.988

 80 84  0  0  1  0  0  0  0  0999 V2000
   -1.5197    0.3042   -0.3606 P   0  0  2  0  0  0  0  0  0  0  0  0
    1.4577    0.1652   -0.2548 P   0  0  1  0  0  0  0  0  0  0  0  0
   -1.9375    0.8958    1.1180 O   0  0  0  0  0  0  0  0  0  0  0  0
    1.5838    0.6263    1.3479 O   0  0  0  0  0  0  0  0  0  0  0  0
   -1.2503    0.5750    2.3627 C   0  0  1  0  0  0  0  0  0  0  0  0
   -0.4317   -0.1388    2.1363 H   0  0  0  0  0  0  0  0  0  0  0  0
    1.7114    1.9969    1.8123 C   0  0  1  0  0  0  0  0  0  0  0  0
    2.2663    2.5900    1.0472 H   0  0  0  0  0  0  0  0  0  0  0  0
   -0.6562    1.8765    2.9152 C   0  0  0  0  0  0  0  0  0  0  0  0
   -0.1634    1.6392    3.8819 H   0  0  0  0  0  0  0  0  0  0  0  0
   -1.4941    2.5637    3.1558 H   0  0  0  0  0  0  0  0  0  0  0  0
    0.3134    2.6083    1.9754 C   0  0  0  0  0  0  0  0  0  0  0  0
   -0.1550    2.6929    0.9739 H   0  0  0  0  0  0  0  0  0  0  0  0
    0.4439    3.6544    2.3197 H   0  0  0  0  0  0  0  0  0  0  0  0
   -2.2525   -0.1191    3.3062 C   0  0  0  0  0  0  0  0  0  0  0  0
   -1.7526   -0.1303    4.3020 H   0  0  0  0  0  0  0  0  0  0  0  0
    2.5806    1.9477    3.0849 C   0  0  0  0  0  0  0  0  0  0  0  0
    2.1215    1.1871    3.7552 H   0  0  0  0  0  0  0  0  0  0  0  0
   -0.6163    1.5563   -1.3910 C   0  0  0  0  0  0  0  0  0  0  0  0
   -1.4396    1.8893   -2.4572 C   0  0  0  0  0  0  0  0  0  0  0  0
   -2.8414    1.4359   -2.3147 C   0  0  0  0  0  0  0  0  0  0  0  0
   -3.0902    0.6043   -1.2416 C   0  0  0  0  0  0  0  0  0  0  0  0
    0.8071    1.5864   -1.2234 C   0  0  2  0  0  3  0  0  0  0  0  0
    1.8756    2.3350   -1.6803 C   0  0  0  0  0  0  0  0  0  0  0  0
    3.1969    1.6859   -1.4568 C   0  0  0  0  0  0  0  0  0  0  0  0
    3.1697    0.4318   -0.8633 C   0  0  1  0  0  3  0  0  0  0  0  0
   -3.5776    0.6447    3.4342 C   0  0  0  0  0  0  0  0  0  0  0  0
   -4.1010    0.6793    2.4577 H   0  0  0  0  0  0  0  0  0  0  0  0
   -3.4346    1.6878    3.7823 H   0  0  0  0  0  0  0  0  0  0  0  0
   -4.2454    0.1397    4.1603 H   0  0  0  0  0  0  0  0  0  0  0  0
   -2.4853   -1.5712    2.8744 C   0  0  0  0  0  0  0  0  0  0  0  0
   -3.1707   -2.0891    3.5751 H   0  0  0  0  0  0  0  0  0  0  0  0
   -1.5377   -2.1440    2.8277 H   0  0  0  0  0  0  0  0  0  0  0  0
   -2.9375   -1.6219    1.8651 H   0  0  0  0  0  0  0  0  0  0  0  0
    2.6007    3.2952    3.8183 C   0  0  0  0  0  0  0  0  0  0  0  0
    2.9448    4.1114    3.1472 H   0  0  0  0  0  0  0  0  0  0  0  0
    3.3056    3.2546    4.6726 H   0  0  0  0  0  0  0  0  0  0  0  0
    1.6090    3.5809    4.2204 H   0  0  0  0  0  0  0  0  0  0  0  0
    4.0048    1.4924    2.7485 C   0  0  0  0  0  0  0  0  0  0  0  0
    4.0106    0.5242    2.2158 H   0  0  0  0  0  0  0  0  0  0  0  0
    4.6135    1.3805    3.6680 H   0  0  0  0  0  0  0  0  0  0  0  0
    4.5118    2.2370    2.0978 H   0  0  0  0  0  0  0  0  0  0  0  0
   -0.9594    2.5155   -3.7321 C   0  0  0  0  0  0  0  0  0  0  0  0
    0.1173    2.3142   -3.8853 H   0  0  0  0  0  0  0  0  0  0  0  0
   -1.0996    3.6185   -3.7392 H   0  0  0  0  0  0  0  0  0  0  0  0
   -1.5123    2.1209   -4.6064 H   0  0  0  0  0  0  0  0  0  0  0  0
   -3.8775    1.8462   -3.3205 C   0  0  0  0  0  0  0  0  0  0  0  0
   -4.8562    1.3787   -3.1119 H   0  0  0  0  0  0  0  0  0  0  0  0
   -3.5664    1.5464   -4.3434 H   0  0  0  0  0  0  0  0  0  0  0  0
   -4.0106    2.9487   -3.3437 H   0  0  0  0  0  0  0  0  0  0  0  0
   -4.3861    0.1976   -0.6855 C   0  0  0  0  0  0  0  0  0  0  0  0
   -4.6159   -1.1255   -0.2413 C   0  0  0  0  0  0  0  0  0  0  0  0
   -3.8204   -1.8797   -0.3700 H   0  0  0  0  0  0  0  0  0  0  0  0
   -5.8417   -1.4750    0.3398 C   0  0  0  0  0  0  0  0  0  0  0  0
   -6.0023   -2.5110    0.6747 H   0  0  0  0  0  0  0  0  0  0  0  0
   -6.8541   -0.5156    0.5016 C   0  0  0  0  0  0  0  0  0  0  0  0
   -7.8121   -0.7925    0.9675 H   0  0  0  0  0  0  0  0  0  0  0  0
   -6.6335    0.8051    0.0756 C   0  0  0  0  0  0  0  0  0  0  0  0
   -7.4141    1.5686    0.2147 H   0  0  0  0  0  0  0  0  0  0  0  0
   -5.4124    1.1604   -0.5109 C   0  0  0  0  0  0  0  0  0  0  0  0
   -5.2288    2.2046   -0.8047 H   0  0  0  0  0  0  0  0  0  0  0  0
    1.7845    3.6959   -2.3066 C   0  0  0  0  0  0  0  0  0  0  0  0
    0.7480    4.0746   -2.3021 H   0  0  0  0  0  0  0  0  0  0  0  0
    2.1646    3.7155   -3.3502 H   0  0  0  0  0  0  0  0  0  0  0  0
    2.4055    4.4214   -1.7388 H   0  0  0  0  0  0  0  0  0  0  0  0
    4.4516    2.4084   -1.8592 C   0  0  0  0  0  0  0  0  0  0  0  0
    5.3352    2.0184   -1.3215 H   0  0  0  0  0  0  0  0  0  0  0  0
    4.3677    3.4937   -1.6526 H   0  0  0  0  0  0  0  0  0  0  0  0
    4.6513    2.3100   -2.9486 H   0  0  0  0  0  0  0  0  0  0  0  0
    4.2575   -0.5002   -0.5758 C   0  0  0  0  0  0  0  0  0  0  0  0
    4.1563   -1.4001    0.5179 C   0  0  0  0  0  0  0  0  0  0  0  0
    3.2479   -1.4049    1.1356 H   0  0  0  0  0  0  0  0  0  0  0  0
    5.1885   -2.2957    0.8120 C   0  0  0  0  0  0  0  0  0  0  0  0
    5.0792   -2.9828    1.6641 H   0  0  0  0  0  0  0  0  0  0  0  0
    6.3418   -2.3368    0.0122 C   0  0  0  0  0  0  0  0  0  0  0  0
    7.1489   -3.0496    0.2389 H   0  0  0  0  0  0  0  0  0  0  0  0
    6.4441   -1.4825   -1.0976 C   0  0  0  0  0  0  0  0  0  0  0  0
    7.3264   -1.5330   -1.7536 H   0  0  0  0  0  0  0  0  0  0  0  0
    5.4169   -0.5778   -1.3915 C   0  0  0  0  0  0  0  0  0  0  0  0
    5.4924    0.0415   -2.2949 H   0  0  0  0  0  0  0  0  0  0  0  0
  1 19  1  6  0  0  0
  1  3  1  0  0  0  0
  2  4  1  1  0  0  0
  3  5  1  0  0  0  0
  4  7  1  0  0  0  0
  5  6  1  6  0  0  0
  5  9  1  0  0  0  0
  5 15  1  0  0  0  0
  7  8  1  6  0  0  0
  7 12  1  0  0  0  0
  7 17  1  0  0  0  0
  9 11  1  0  0  0  0
  9 10  1  0  0  0  0
 12 14  1  0  0  0  0
 12  9  1  0  0  0  0
 13 12  1  0  0  0  0
 15 27  1  0  0  0  0
 15 16  1  0  0  0  0
 17 18  1  0  0  0  0
 17 35  1  0  0  0  0
 19 23  1  0  0  0  0
 20 21  1  0  0  0  0
 20 19  2  0  0  0  0
 21 22  2  0  0  0  0
 22 51  1  0  0  0  0
 22  1  1  0  0  0  0
 23 24  1  6  0  0  0
 23  2  1  0  0  0  0
 24 25  2  0  0  0  0
 25 26  1  0  0  0  0
 26 70  1  1  0  0  0
 26  2  1  0  0  0  0
 27 29  1  0  0  0  0
 27 30  1  0  0  0  0
 28 27  1  0  0  0  0
 31 15  1  0  0  0  0
 31 32  1  0  0  0  0
 33 31  1  0  0  0  0
 34 31  1  0  0  0  0
 35 38  1  0  0  0  0
 35 37  1  0  0  0  0
 36 35  1  0  0  0  0
 39 17  1  0  0  0  0
 39 41  1  0  0  0  0
 40 39  1  0  0  0  0
 42 39  1  0  0  0  0
 43 20  1  0  0  0  0
 44 43  1  0  0  0  0
 45 43  1  0  0  0  0
 46 43  1  0  0  0  0
 47 48  1  0  0  0  0
 47 21  1  0  0  0  0
 49 47  1  0  0  0  0
 50 47  1  0  0  0  0
 51 60  2  0  0  0  0
 51 52  1  0  0  0  0
 52 54  2  0  0  0  0
 53 52  1  0  0  0  0
 54 56  1  0  0  0  0
 54 55  1  0  0  0  0
 56 57  1  0  0  0  0
 58 59  1  0  0  0  0
 58 56  2  0  0  0  0
 60 58  1  0  0  0  0
 61 60  1  0  0  0  0
 62 63  1  0  0  0  0
 62 65  1  0  0  0  0
 62 24  1  0  0  0  0
 64 62  1  0  0  0  0
 66 68  1  0  0  0  0
 66 25  1  0  0  0  0
 66 67  1  0  0  0  0
 69 66  1  0  0  0  0
 70 71  1  0  0  0  0
 71 73  2  0  0  0  0
 71 72  1  0  0  0  0
 73 74  1  0  0  0  0
 75 76  1  0  0  0  0
 75 73  1  0  0  0  0
 77 75  2  0  0  0  0
 78 77  1  0  0  0  0
 79 77  1  0  0  0  0
 79 70  2  0  0  0  0
 80 79  1  0  0  0  0
M  END
