1
q = 0.0, confidence = 0.984

 63 67  0  0  1  0  0  0  0  0999 V2000
   -1.4659    0.2985    0.2557 P   0  0  2  0  0  0  0  0  0  0  0  0
    1.4110    0.3278    0.2643 P   0  0  1  0  0  0  0  0  0  0  0  0
   -1.3879    0.3090    2.1227 C   0  0  1  0  0  0  0  0  0  0  0  0
   -2.2211   -0.3725    2.4054 H   0  0  0  0  0  0  0  0  0  0  0  0
    1.2670    0.2615    2.1618 C   0  0  1  0  0  0  0  0  0  0  0  0
    1.3466    1.3215    2.4868 H   0  0  0  0  0  0  0  0  0  0  0  0
   -0.0806   -0.3479    2.5983 C   0  0  0  0  0  0  0  0  0  0  0  0
   -0.0895   -0.3479    3.7112 H   0  0  0  0  0  0  0  0  0  0  0  0
   -0.0853   -1.4123    2.2800 H   0  0  0  0  0  0  0  0  0  0  0  0
    2.4138   -0.5594    2.7645 C   0  0  0  0  0  0  0  0  0  0  0  0
    2.2505   -0.6719    3.8563 H   0  0  0  0  0  0  0  0  0  0  0  0
    3.4007   -0.0870    2.6136 H   0  0  0  0  0  0  0  0  0  0  0  0
    2.4530   -1.5769    2.3245 H   0  0  0  0  0  0  0  0  0  0  0  0
   -1.6603    1.7002    2.6995 C   0  0  0  0  0  0  0  0  0  0  0  0
   -1.7292    1.6488    3.8058 H   0  0  0  0  0  0  0  0  0  0  0  0
   -2.6157    2.1132    2.3192 H   0  0  0  0  0  0  0  0  0  0  0  0
   -0.8561    2.4165    2.4382 H   0  0  0  0  0  0  0  0  0  0  0  0
   -0.7696    1.8836   -0.3501 C   0  0  0  0  0  0  0  0  0  0  0  0
   -1.7600    2.5526   -1.0548 C   0  0  0  0  0  0  0  0  0  0  0  0
   -3.1048    1.9597   -0.8981 C   0  0  0  0  0  0  0  0  0  0  0  0
   -3.1632    0.7704   -0.1851 C   0  0  0  0  0  0  0  0  0  0  0  0
    0.6602    1.9461   -0.2175 C   0  0  0  0  0  0  0  0  0  0  0  0
    1.6637    2.8769   -0.4196 C   0  0  0  0  0  0  0  0  0  0  0  0
    3.0218    2.3063   -0.3424 C   0  0  0  0  0  0  0  0  0  0  0  0
    3.1108    0.9589   -0.0176 C   0  0  0  0  0  0  0  0  0  0  0  0
   -1.5392    3.6997   -1.9970 C   0  0  0  0  0  0  0  0  0  0  0  0
   -1.8434    4.6738   -1.5553 H   0  0  0  0  0  0  0  0  0  0  0  0
   -2.1415    3.5728   -2.9186 H   0  0  0  0  0  0  0  0  0  0  0  0
   -0.4805    3.7746   -2.2972 H   0  0  0  0  0  0  0  0  0  0  0  0
   -4.2980    2.6152   -1.5326 C   0  0  0  0  0  0  0  0  0  0  0  0
   -4.1038    2.8160   -2.6065 H   0  0  0  0  0  0  0  0  0  0  0  0
   -4.5235    3.5987   -1.0672 H   0  0  0  0  0  0  0  0  0  0  0  0
   -5.1999    1.9817   -1.4625 H   0  0  0  0  0  0  0  0  0  0  0  0
   -4.3284    0.0475    0.3323 C   0  0  0  0  0  0  0  0  0  0  0  0
   -4.3265   -1.3686    0.3988 C   0  0  0  0  0  0  0  0  0  0  0  0
   -3.4726   -1.9267   -0.0260 H   0  0  0  0  0  0  0  0  0  0  0  0
   -5.4203   -2.0546    0.9422 C   0  0  0  0  0  0  0  0  0  0  0  0
   -5.4049   -3.1548    0.9701 H   0  0  0  0  0  0  0  0  0  0  0  0
   -6.5290   -1.3515    1.4412 C   0  0  0  0  0  0  0  0  0  0  0  0
   -7.3844   -1.8952    1.8702 H   0  0  0  0  0  0  0  0  0  0  0  0
   -6.5348    0.0529    1.3998 C   0  0  0  0  0  0  0  0  0  0  0  0
   -7.3900    0.6140    1.8066 H   0  0  0  0  0  0  0  0  0  0  0  0
   -5.4468    0.7469    0.8564 C   0  0  0  0  0  0  0  0  0  0  0  0
   -5.4439    1.8468    0.8669 H   0  0  0  0  0  0  0  0  0  0  0  0
    1.4730    4.3474   -0.6640 C   0  0  0  0  0  0  0  0  0  0  0  0
    1.6859    4.6363   -1.7160 H   0  0  0  0  0  0  0  0  0  0  0  0
    2.1690    4.9389   -0.0340 H   0  0  0  0  0  0  0  0  0  0  0  0
    0.4448    4.6681   -0.4227 H   0  0  0  0  0  0  0  0  0  0  0  0
    4.2052    3.1729   -0.6758 C   0  0  0  0  0  0  0  0  0  0  0  0
    5.1032    2.5688   -0.8984 H   0  0  0  0  0  0  0  0  0  0  0  0
    4.4609    3.8643    0.1562 H   0  0  0  0  0  0  0  0  0  0  0  0
    3.9862    3.8090   -1.5570 H   0  0  0  0  0  0  0  0  0  0  0  0
    4.3215    0.1640    0.2206 C   0  0  0  0  0  0  0  0  0  0  0  0
    5.4471    0.7157    0.8874 C   0  0  0  0  0  0  0  0  0  0  0  0
    5.4129    1.7527    1.2504 H   0  0  0  0  0  0  0  0  0  0  0  0
    6.5843   -0.0620    1.1391 C   0  0  0  0  0  0  0  0  0  0  0  0
    7.4420    0.3833    1.6661 H   0  0  0  0  0  0  0  0  0  0  0  0
    6.6244   -1.4078    0.7377 C   0  0  0  0  0  0  0  0  0  0  0  0
    7.5179   -2.0183    0.9386 H   0  0  0  0  0  0  0  0  0  0  0  0
    5.5107   -1.9695    0.0927 C   0  0  0  0  0  0  0  0  0  0  0  0
    5.5231   -3.0250   -0.2190 H   0  0  0  0  0  0  0  0  0  0  0  0
    4.3686   -1.1992   -0.1592 C   0  0  0  0  0  0  0  0  0  0  0  0
    3.5001   -1.6581   -0.6657 H   0  0  0  0  0  0  0  0  0  0  0  0
  1 18  1  6  0  0  0
  1  3  1  0  0  0  0
  2 22  1  1  0  0  0
  2  5  1  0  0  0  0
  3  4  1  1  0  0  0
  3  7  1  0  0  0  0
  3 14  1  0  0  0  0
  5  6  1  1  0  0  0
  5  7  1  0  0  0  0
  5 10  1  0  0  0  0
  7  8  1  0  0  0  0
  9  7  1  0  0  0  0
 10 11  1  0  0  0  0
 12 10  1  0  0  0  0
 13 10  1  0  0  0  0
 14 15  1  0  0  0  0
 16 14  1  0  0  0  0
 17 14  1  0  0  0  0
 18 22  1  0  0  0  0
 19 20  1  0  0  0  0
 19 18  2  0  0  0  0
 20 21  2  0  0  0  0
 21  1  1  0  0  0  0
 21 34  1  0  0  0  0
 23 24  1  0  0  0  0
 23 22  2  0  0  0  0
 24 25  2  0  0  0  0
 25 53  1  0  0  0  0
 25  2  1  0  0  0  0
 26 27  1  0  0  0  0
 26 19  1  0  0  0  0
 28 26  1  0  0  0  0
 29 26  1  0  0  0  0
 30 33  1  0  0  0  0
 30 32  1  0  0  0  0
 30 20  1  0  0  0  0
 31 30  1  0  0  0  0
 34 35  2  0  0  0  0
 34 43  1  0  0  0  0
 35 37  1  0  0  0  0
 36 35  1  0  0  0  0
 37 38  1  0  0  0  0
 37 39  2  0  0  0  0
 39 40  1  0  0  0  0
 41 39  1  0  0  0  0
 41 42  1  0  0  0  0
 43 44  1  0  0  0  0
 43 41  2  0  0  0  0
 45 48  1  0  0  0  0
 45 23  1  0  0  0  0
 45 47  1  0  0  0  0
 46 45  1  0  0  0  0
 49 24  1  0  0  0  0
 49 51  1  0  0  0  0
 50 49  1  0  0  0  0
 52 49  1  0  0  0  0
 53 54  1  0  0  0  0
 54 56  2  0  0  0  0
 54 55  1  0  0  0  0
 56 57  1  0  0  0  0
 58 59  1  0  0  0  0
 58 56  1  0  0  0  0
 60 58  2  0  0  0  0
 61 60  1  0  0  0  0
 62 60  1  0  0  0  0
 62 53  2  0  0  0  0
 63 62  1  0  0  0  0
M  END
