1,6
q = 0.0, confidence = 1.0

 66 67  0  0  0  0  0  0  0  0999 V2000
   -2.3749   -0.7272    0.3062 P   0  0  0  0  0  0  0  0  0  0  0  0
   -0.5814    1.9322    0.3501 C   0  0  0  0  0  0  0  0  0  0  0  0
   -0.5280    1.9229    1.4548 H   0  0  0  0  0  0  0  0  0  0  0  0
    0.5814    1.9322   -0.3499 C   0  0  0  0  0  0  0  0  0  0  0  0
    0.5280    1.9232   -1.4546 H   0  0  0  0  0  0  0  0  0  0  0  0
    2.3748   -0.7272   -0.3062 P   0  0  0  0  0  0  0  0  0  0  0  0
    2.8750    0.9502    0.2712 C   0  0  0  0  0  0  0  0  0  0  0  0
    1.9387    2.0251    0.2608 C   0  0  0  0  0  0  0  0  0  0  0  0
    2.3257    3.2651    0.8130 C   0  0  0  0  0  0  0  0  0  0  0  0
    1.6021    4.0939    0.8067 H   0  0  0  0  0  0  0  0  0  0  0  0
    3.6074    3.4582    1.3469 C   0  0  0  0  0  0  0  0  0  0  0  0
    3.8812    4.4349    1.7728 H   0  0  0  0  0  0  0  0  0  0  0  0
    4.5349    2.4078    1.3316 C   0  0  0  0  0  0  0  0  0  0  0  0
    5.5461    2.5502    1.7405 H   0  0  0  0  0  0  0  0  0  0  0  0
    4.1650    1.1636    0.8024 C   0  0  0  0  0  0  0  0  0  0  0  0
    4.8947    0.3410    0.8219 H   0  0  0  0  0  0  0  0  0  0  0  0
   -2.8750    0.9503   -0.2711 C   0  0  0  0  0  0  0  0  0  0  0  0
   -1.9387    2.0251   -0.2607 C   0  0  0  0  0  0  0  0  0  0  0  0
   -4.1650    1.1637   -0.8024 C   0  0  0  0  0  0  0  0  0  0  0  0
   -4.8947    0.3411   -0.8219 H   0  0  0  0  0  0  0  0  0  0  0  0
   -4.5348    2.4079   -1.3316 C   0  0  0  0  0  0  0  0  0  0  0  0
   -5.5459    2.5504   -1.7405 H   0  0  0  0  0  0  0  0  0  0  0  0
   -3.6072    3.4583   -1.3468 C   0  0  0  0  0  0  0  0  0  0  0  0
   -3.8809    4.4350   -1.7728 H   0  0  0  0  0  0  0  0  0  0  0  0
   -2.3255    3.2652   -0.8130 C   0  0  0  0  0  0  0  0  0  0  0  0
   -1.6018    4.0939   -0.8066 H   0  0  0  0  0  0  0  0  0  0  0  0
    3.0157   -0.8988   -2.0587 C   0  0  0  0  0  0  0  0  0  0  0  0
    2.7302   -1.9394   -2.3289 H   0  0  0  0  0  0  0  0  0  0  0  0
    3.3139   -1.9472    0.7485 C   0  0  0  0  0  0  0  0  0  0  0  0
    4.3938   -1.7006    0.6613 H   0  0  0  0  0  0  0  0  0  0  0  0
    4.5346   -0.7406   -2.1610 C   0  0  0  0  0  0  0  0  0  0  0  0
    4.8545    0.2772   -1.8592 H   0  0  0  0  0  0  0  0  0  0  0  0
    4.8568   -0.8915   -3.2116 H   0  0  0  0  0  0  0  0  0  0  0  0
    5.0835   -1.4766   -1.5409 H   0  0  0  0  0  0  0  0  0  0  0  0
    2.2646    0.0668   -2.9829 C   0  0  0  0  0  0  0  0  0  0  0  0
    2.4991    1.1227   -2.7356 H   0  0  0  0  0  0  0  0  0  0  0  0
    1.1656   -0.0731   -2.9247 H   0  0  0  0  0  0  0  0  0  0  0  0
    2.5710   -0.1009   -4.0350 H   0  0  0  0  0  0  0  0  0  0  0  0
    3.0852   -3.3676    0.2169 C   0  0  0  0  0  0  0  0  0  0  0  0
    3.4847   -3.5115   -0.8061 H   0  0  0  0  0  0  0  0  0  0  0  0
    2.0041   -3.6223    0.2051 H   0  0  0  0  0  0  0  0  0  0  0  0
    3.5934   -4.1002    0.8759 H   0  0  0  0  0  0  0  0  0  0  0  0
    2.8746   -1.7995    2.2102 C   0  0  0  0  0  0  0  0  0  0  0  0
    3.4378   -2.5092    2.8493 H   0  0  0  0  0  0  0  0  0  0  0  0
    1.7940   -2.0315    2.3229 H   0  0  0  0  0  0  0  0  0  0  0  0
    3.0487   -0.7780    2.6014 H   0  0  0  0  0  0  0  0  0  0  0  0
   -3.3139   -1.9471   -0.7486 C   0  0  0  0  0  0  0  0  0  0  0  0
   -4.3938   -1.7005   -0.6614 H   0  0  0  0  0  0  0  0  0  0  0  0
   -3.0158   -0.8989    2.0586 C   0  0  0  0  0  0  0  0  0  0  0  0
   -2.7303   -1.9395    2.3288 H   0  0  0  0  0  0  0  0  0  0  0  0
   -2.8746   -1.7993   -2.2103 C   0  0  0  0  0  0  0  0  0  0  0  0
   -3.0487   -0.7777   -2.6014 H   0  0  0  0  0  0  0  0  0  0  0  0
   -3.4378   -2.5089   -2.8494 H   0  0  0  0  0  0  0  0  0  0  0  0
   -1.7940   -2.0314   -2.3230 H   0  0  0  0  0  0  0  0  0  0  0  0
   -3.0852   -3.3676   -0.2171 C   0  0  0  0  0  0  0  0  0  0  0  0
   -2.0042   -3.6222   -0.2053 H   0  0  0  0  0  0  0  0  0  0  0  0
   -3.5934   -4.1001   -0.8761 H   0  0  0  0  0  0  0  0  0  0  0  0
   -3.4848   -3.5115    0.8058 H   0  0  0  0  0  0  0  0  0  0  0  0
   -2.2647    0.0666    2.9829 C   0  0  0  0  0  0  0  0  0  0  0  0
   -1.1657   -0.0732    2.9248 H   0  0  0  0  0  0  0  0  0  0  0  0
   -2.5711   -0.1012    4.0350 H   0  0  0  0  0  0  0  0  0  0  0  0
   -2.4991    1.1226    2.7357 H   0  0  0  0  0  0  0  0  0  0  0  0
   -4.5347   -0.7407    2.1610 C   0  0  0  0  0  0  0  0  0  0  0  0
   -4.8546    0.2772    1.8592 H   0  0  0  0  0  0  0  0  0  0  0  0
   -4.8569   -0.8916    3.2115 H   0  0  0  0  0  0  0  0  0  0  0  0
   -5.0835   -1.4766    1.5408 H   0  0  0  0  0  0  0  0  0  0  0  0
  1 49  1  0  0  0  0
  2  3  1  0  0  0  0
  4  8  1  0  0  0  0
  4  2  2  0  0  0  0
  5  4  1  0  0  0  0
  6  7  1  0  0  0  0
  6 29  1  0  0  0  0
  7 15  1  0  0  0  0
  8  7  2  0  0  0  0
  8  9  1  0  0  0  0
  9 11  2  0  0  0  0
 10  9  1  0  0  0  0
 11 12  1  0  0  0  0
 13 11  1  0  0  0  0
 13 14  1  0  0  0  0
 15 16  1  0  0  0  0
 15 13  2  0  0  0  0
 17 18  1  0  0  0  0
 17  1  1  0  0  0  0
 18  2  1  0  0  0  0
 19 17  2  0  0  0  0
 20 19  1  0  0  0  0
 21 19  1  0  0  0  0
 22 21  1  0  0  0  0
 23 21  2  0  0  0  0
 23 25  1  0  0  0  0
 24 23  1  0  0  0  0
 25 26  1  0  0  0  0
 25 18  2  0  0  0  0
 27  6  1  0  0  0  0
 28 27  1  0  0  0  0
 29 43  1  0  0  0  0
 30 29  1  0  0  0  0
 31 27  1  0  0  0  0
 31 32  1  0  0  0  0
 31 34  1  0  0  0  0
 33 31  1  0  0  0  0
 35 37  1  0  0  0  0
 35 36  1  0  0  0  0
 35 27  1  0  0  0  0
 38 35  1  0  0  0  0
 39 29  1  0  0  0  0
 39 42  1  0  0  0  0
 40 39  1  0  0  0  0
 41 39  1  0  0  0  0
 43 45  1  0  0  0  0
 43 46  1  0  0  0  0
 43 44  1  0  0  0  0
 47 48  1  0  0  0  0
 47 55  1  0  0  0  0
 47  1  1  0  0  0  0
 49 63  1  0  0  0  0
 49 50  1  0  0  0  0
 49 59  1  0  0  0  0
 51 47  1  0  0  0  0
 52 51  1  0  0  0  0
 53 51  1  0  0  0  0
 54 51  1  0  0  0  0
 55 56  1  0  0  0  0
 55 58  1  0  0  0  0
 57 55  1  0  0  0  0
 59 61  1  0  0  0  0
 60 59  1  0  0  0  0
 62 59  1  0  0  0  0
 63 65  1  0  0  0  0
 64 63  1  0  0  0  0
 66 63  1  0  0  0  0
M  END
