1,2
q = 0.0, confidence = 0.992

 48 48  0  0  0  0  0  0  0  0999 V2000
    1.3008   -0.0015    0.5707 P   0  0  2  0  0  0  0  0  0  0  0  0
   -1.3010   -0.0019    0.5705 P   0  0  1  0  0  0  0  0  0  0  0  0
   -0.0004    1.2857    1.1989 B   0  0  0  0  0  0  0  0  0  0  0  0
    0.0001   -1.2918    1.1935 B   0  0  0  0  0  0  0  0  0  0  0  0
   -0.0006    2.6074    1.6624 N   0  0  0  0  0  0  0  0  0  0  0  0
    0.0002   -2.6156    1.6510 N   0  0  0  0  0  0  0  0  0  0  0  0
   -1.2163    3.3916    1.8143 C   0  0  0  0  0  0  0  0  0  0  0  0
   -2.0930    2.7252    1.8896 H   0  0  0  0  0  0  0  0  0  0  0  0
   -1.3683    4.0778    0.9506 H   0  0  0  0  0  0  0  0  0  0  0  0
   -1.1694    4.0078    2.7383 H   0  0  0  0  0  0  0  0  0  0  0  0
    1.2150    3.3920    1.8141 C   0  0  0  0  0  0  0  0  0  0  0  0
    2.0919    2.7259    1.8886 H   0  0  0  0  0  0  0  0  0  0  0  0
    1.1683    4.0078    2.7384 H   0  0  0  0  0  0  0  0  0  0  0  0
    1.3663    4.0786    0.9507 H   0  0  0  0  0  0  0  0  0  0  0  0
    1.2159   -3.4003    1.8005 C   0  0  0  0  0  0  0  0  0  0  0  0
    2.0928   -2.7344    1.8768 H   0  0  0  0  0  0  0  0  0  0  0  0
    1.3672   -4.0846    0.9352 H   0  0  0  0  0  0  0  0  0  0  0  0
    1.1694   -4.0187    2.7230 H   0  0  0  0  0  0  0  0  0  0  0  0
   -1.2153   -3.4007    1.7999 C   0  0  0  0  0  0  0  0  0  0  0  0
   -2.0925   -2.7351    1.8746 H   0  0  0  0  0  0  0  0  0  0  0  0
   -1.1695   -4.0183    2.7230 H   0  0  0  0  0  0  0  0  0  0  0  0
   -1.3653   -4.0858    0.9350 H   0  0  0  0  0  0  0  0  0  0  0  0
    3.1896   -0.0018    0.7531 C   0  0  0  0  0  0  0  0  0  0  0  0
    3.7149   -1.2478    0.0182 C   0  0  0  0  0  0  0  0  0  0  0  0
    4.8253   -1.2443    0.0487 H   0  0  0  0  0  0  0  0  0  0  0  0
    3.4017   -1.2476   -1.0439 H   0  0  0  0  0  0  0  0  0  0  0  0
    3.3701   -2.1931    0.4772 H   0  0  0  0  0  0  0  0  0  0  0  0
    3.7152    1.2472    0.0234 C   0  0  0  0  0  0  0  0  0  0  0  0
    4.8255    1.2433    0.0541 H   0  0  0  0  0  0  0  0  0  0  0  0
    3.3704    2.1906    0.4862 H   0  0  0  0  0  0  0  0  0  0  0  0
    3.4021    1.2514   -1.0388 H   0  0  0  0  0  0  0  0  0  0  0  0
    3.5904   -0.0049    2.2343 C   0  0  0  0  0  0  0  0  0  0  0  0
    4.6979   -0.0051    2.3268 H   0  0  0  0  0  0  0  0  0  0  0  0
    3.2062   -0.9006    2.7628 H   0  0  0  0  0  0  0  0  0  0  0  0
    3.2062    0.8887    2.7664 H   0  0  0  0  0  0  0  0  0  0  0  0
   -3.1897   -0.0024    0.7528 C   0  0  0  0  0  0  0  0  0  0  0  0
   -3.7152    1.2468    0.0234 C   0  0  0  0  0  0  0  0  0  0  0  0
   -4.8255    1.2431    0.0540 H   0  0  0  0  0  0  0  0  0  0  0  0
   -3.4021    1.2513   -1.0388 H   0  0  0  0  0  0  0  0  0  0  0  0
   -3.3703    2.1901    0.4865 H   0  0  0  0  0  0  0  0  0  0  0  0
   -3.7151   -1.2482    0.0175 C   0  0  0  0  0  0  0  0  0  0  0  0
   -4.8254   -1.2446    0.0480 H   0  0  0  0  0  0  0  0  0  0  0  0
   -3.3703   -2.1937    0.4763 H   0  0  0  0  0  0  0  0  0  0  0  0
   -3.4017   -1.2478   -1.0446 H   0  0  0  0  0  0  0  0  0  0  0  0
   -3.5906   -0.0059    2.2339 C   0  0  0  0  0  0  0  0  0  0  0  0
   -4.6982   -0.0061    2.3264 H   0  0  0  0  0  0  0  0  0  0  0  0
   -3.2065    0.8876    2.7663 H   0  0  0  0  0  0  0  0  0  0  0  0
   -3.2064   -0.9018    2.7622 H   0  0  0  0  0  0  0  0  0  0  0  0
  1 23  1  1  0  0  0
  1  4  1  0  0  0  0
  1  3  1  0  0  0  0
  2 36  1  1  0  0  0
  2  4  1  0  0  0  0
  2  3  1  0  0  0  0
  3  5  1  0  0  0  0
  4  6  1  0  0  0  0
  5 11  1  0  0  0  0
  5  7  1  0  0  0  0
  6 19  1  0  0  0  0
  6 15  1  0  0  0  0
  7  8  1  0  0  0  0
  7 10  1  0  0  0  0
  9  7  1  0  0  0  0
 11 12  1  0  0  0  0
 11 13  1  0  0  0  0
 14 11  1  0  0  0  0
 15 16  1  0  0  0  0
 15 18  1  0  0  0  0
 17 15  1  0  0  0  0
 19 20  1  0  0  0  0
 19 21  1  0  0  0  0
 22 19  1  0  0  0  0
 23 32  1  0  0  0  0
 24 25  1  0  0  0  0
 24 27  1  0  0  0  0
 24 23  1  0  0  0  0
 26 24  1  0  0  0  0
 28 29  1  0  0  0  0
 28 30  1  0  0  0  0
 28 23  1  0  0  0  0
 31 28  1  0  0  0  0
 32 33  1  0  0  0  0
 32 34  1  0  0  0  0
 32 35  1  0  0  0  0
 36 45  1  0  0  0  0
 37 38  1  0  0  0  0
 37 40  1  0  0  0  0
 37 36  1  0  0  0  0
 39 37  1  0  0  0  0
 41 42  1  0  0  0  0
 41 43  1  0  0  0  0
 41 36  1  0  0  0  0
 44 41  1  0  0  0  0
 45 46  1  0  0  0  0
 45 48  1  0  0  0  0
 45 47  1  0  0  0  0
M  END
