1,2
q = 0.0, confidence = 0.994

 68 71  0  0  0  0  0  0  0  0999 V2000
    1.5805   -0.0789   -0.4283 P   0  0  0  0  0  0  0  0  0  0  0  0
   -1.5379    0.0362   -0.3663 P   0  0  0  0  0  0  0  0  0  0  0  0
    3.9218   -5.5825   -1.0444 O   0  0  0  0  0  0  0  0  0  0  0  0
    6.1718    3.7729   -0.5866 O   0  0  0  0  0  0  0  0  0  0  0  0
   -4.0004    5.4687   -1.1133 O   0  0  0  0  0  0  0  0  0  0  0  0
   -5.9150   -4.0398    0.0097 O   0  0  0  0  0  0  0  0  0  0  0  0
    0.6699    0.2942   -2.0147 C   0  0  0  0  0  0  0  0  0  0  0  0
    0.5582    1.3985   -2.0324 H   0  0  0  0  0  0  0  0  0  0  0  0
    1.2741    0.0143   -2.9018 H   0  0  0  0  0  0  0  0  0  0  0  0
   -0.6916   -0.3980   -1.9728 C   0  0  0  0  0  0  0  0  0  0  0  0
   -0.5786   -1.5021   -1.9486 H   0  0  0  0  0  0  0  0  0  0  0  0
   -1.3332   -0.1563   -2.8446 H   0  0  0  0  0  0  0  0  0  0  0  0
    2.9889    1.0758   -0.4237 C   0  0  0  0  0  0  0  0  0  0  0  0
    4.0792    0.8872   -1.3028 C   0  0  0  0  0  0  0  0  0  0  0  0
    4.1157    0.0009   -1.9558 H   0  0  0  0  0  0  0  0  0  0  0  0
    5.1256    1.8083   -1.3378 C   0  0  0  0  0  0  0  0  0  0  0  0
    5.9849    1.6771   -2.0110 H   0  0  0  0  0  0  0  0  0  0  0  0
    5.1072    2.9364   -0.4849 C   0  0  0  0  0  0  0  0  0  0  0  0
    4.0271    3.1224    0.4038 C   0  0  0  0  0  0  0  0  0  0  0  0
    3.9991    3.9779    1.0913 H   0  0  0  0  0  0  0  0  0  0  0  0
    2.9789    2.1920    0.4319 C   0  0  0  0  0  0  0  0  0  0  0  0
    2.1570    2.3114    1.1535 H   0  0  0  0  0  0  0  0  0  0  0  0
    6.2226    4.9077    0.2598 C   0  0  0  0  0  0  0  0  0  0  0  0
    5.3640    5.5938    0.0846 H   0  0  0  0  0  0  0  0  0  0  0  0
    7.1620    5.4372    0.0156 H   0  0  0  0  0  0  0  0  0  0  0  0
    6.2366    4.6214    1.3350 H   0  0  0  0  0  0  0  0  0  0  0  0
    2.2811   -1.7544   -0.6488 C   0  0  0  0  0  0  0  0  0  0  0  0
    2.3540   -2.4125   -1.8973 C   0  0  0  0  0  0  0  0  0  0  0  0
    1.9767   -1.9314   -2.8120 H   0  0  0  0  0  0  0  0  0  0  0  0
    2.9065   -3.6911   -1.9977 C   0  0  0  0  0  0  0  0  0  0  0  0
    2.9660   -4.2151   -2.9625 H   0  0  0  0  0  0  0  0  0  0  0  0
    3.4041   -4.3434   -0.8479 C   0  0  0  0  0  0  0  0  0  0  0  0
    3.3330   -3.6937    0.4038 C   0  0  0  0  0  0  0  0  0  0  0  0
    3.7044   -4.1784    1.3165 H   0  0  0  0  0  0  0  0  0  0  0  0
    2.7712   -2.4146    0.4976 C   0  0  0  0  0  0  0  0  0  0  0  0
    2.6985   -1.9097    1.4771 H   0  0  0  0  0  0  0  0  0  0  0  0
    4.4310   -6.2876    0.0747 C   0  0  0  0  0  0  0  0  0  0  0  0
    5.2756   -5.7458    0.5555 H   0  0  0  0  0  0  0  0  0  0  0  0
    4.7970   -7.2578   -0.3087 H   0  0  0  0  0  0  0  0  0  0  0  0
    3.6445   -6.4732    0.8395 H   0  0  0  0  0  0  0  0  0  0  0  0
   -2.2767    1.6884   -0.6230 C   0  0  0  0  0  0  0  0  0  0  0  0
   -2.7030    2.4030    0.5163 C   0  0  0  0  0  0  0  0  0  0  0  0
   -2.5623    1.9495    1.5136 H   0  0  0  0  0  0  0  0  0  0  0  0
   -3.2901    3.6681    0.3915 C   0  0  0  0  0  0  0  0  0  0  0  0
   -3.6103    4.1963    1.2994 H   0  0  0  0  0  0  0  0  0  0  0  0
   -3.4515    4.2486   -0.8855 C   0  0  0  0  0  0  0  0  0  0  0  0
   -3.0188    3.5414   -2.0293 C   0  0  0  0  0  0  0  0  0  0  0  0
   -3.1484    4.0119   -3.0145 H   0  0  0  0  0  0  0  0  0  0  0  0
   -2.4407    2.2771   -1.8974 C   0  0  0  0  0  0  0  0  0  0  0  0
   -2.1166    1.7510   -2.8075 H   0  0  0  0  0  0  0  0  0  0  0  0
   -4.4476    6.2270   -0.0025 C   0  0  0  0  0  0  0  0  0  0  0  0
   -5.2508    5.7017    0.5606 H   0  0  0  0  0  0  0  0  0  0  0  0
   -4.8527    7.1705   -0.4121 H   0  0  0  0  0  0  0  0  0  0  0  0
   -3.6165    6.4631    0.6986 H   0  0  0  0  0  0  0  0  0  0  0  0
   -2.9182   -1.1438   -0.2385 C   0  0  0  0  0  0  0  0  0  0  0  0
   -2.7258   -2.3535    0.4668 C   0  0  0  0  0  0  0  0  0  0  0  0
   -1.7746   -2.5296    0.9919 H   0  0  0  0  0  0  0  0  0  0  0  0
   -3.7439   -3.3027    0.5242 C   0  0  0  0  0  0  0  0  0  0  0  0
   -3.6168   -4.2454    1.0754 H   0  0  0  0  0  0  0  0  0  0  0  0
   -4.9841   -3.0585   -0.1097 C   0  0  0  0  0  0  0  0  0  0  0  0
   -5.1882   -1.8455   -0.8016 C   0  0  0  0  0  0  0  0  0  0  0  0
   -6.1468   -1.6253   -1.2897 H   0  0  0  0  0  0  0  0  0  0  0  0
   -4.1551   -0.8979   -0.8592 C   0  0  0  0  0  0  0  0  0  0  0  0
   -4.3258    0.0529   -1.3877 H   0  0  0  0  0  0  0  0  0  0  0  0
   -7.1859   -3.8430   -0.5818 C   0  0  0  0  0  0  0  0  0  0  0  0
   -7.7078   -2.9568   -0.1565 H   0  0  0  0  0  0  0  0  0  0  0  0
   -7.7781   -4.7498   -0.3593 H   0  0  0  0  0  0  0  0  0  0  0  0
   -7.1151   -3.7194   -1.6859 H   0  0  0  0  0  0  0  0  0  0  0  0
  1 13  1  0  0  0  0
  2 55  1  0  0  0  0
  3 32  1  0  0  0  0
  3 37  1  0  0  0  0
  4 18  1  0  0  0  0
  4 23  1  0  0  0  0
  5 46  1  0  0  0  0
  5 51  1  0  0  0  0
  7 10  1  0  0  0  0
  7  1  1  0  0  0  0
  8  7  1  0  0  0  0
  9  7  1  0  0  0  0
 10 11  1  0  0  0  0
 10  2  1  0  0  0  0
 12 10  1  0  0  0  0
 13 21  1  0  0  0  0
 14 13  2  0  0  0  0
 15 14  1  0  0  0  0
 16 14  1  0  0  0  0
 16 18  2  0  0  0  0
 17 16  1  0  0  0  0
 18 19  1  0  0  0  0
 19 21  2  0  0  0  0
 19 20  1  0  0  0  0
 21 22  1  0  0  0  0
 23 26  1  0  0  0  0
 24 23  1  0  0  0  0
 25 23  1  0  0  0  0
 27  1  1  0  0  0  0
 27 35  1  0  0  0  0
 28 27  2  0  0  0  0
 29 28  1  0  0  0  0
 30 28  1  0  0  0  0
 30 32  2  0  0  0  0
 31 30  1  0  0  0  0
 32 33  1  0  0  0  0
 33 35  2  0  0  0  0
 33 34  1  0  0  0  0
 35 36  1  0  0  0  0
 37 38  1  0  0  0  0
 37 40  1  0  0  0  0
 39 37  1  0  0  0  0
 41  2  1  0  0  0  0
 41 42  1  0  0  0  0
 42 43  1  0  0  0  0
 44 42  2  0  0  0  0
 44 45  1  0  0  0  0
 46 44  1  0  0  0  0
 47 49  1  0  0  0  0
 47 46  2  0  0  0  0
 48 47  1  0  0  0  0
 49 41  2  0  0  0  0
 50 49  1  0  0  0  0
 51 52  1  0  0  0  0
 51 54  1  0  0  0  0
 53 51  1  0  0  0  0
 55 56  1  0  0  0  0
 56 58  2  0  0  0  0
 56 57  1  0  0  0  0
 58 59  1  0  0  0  0
 60  6  1  0  0  0  0
 60 58  1  0  0  0  0
 61 60  2  0  0  0  0
 62 61  1  0  0  0  0
 63 61  1  0  0  0  0
 63 55  2  0  0  0  0
 64 63  1  0  0  0  0
 65 67  1  0  0  0  0
 65 66  1  0  0  0  0
 65  6  1  0  0  0  0
 68 65  1  0  0  0  0
M  END
