1,2
q = 0.0, confidence = 0.998

 68 72  0  0  0  0  0  0  0  0999 V2000
   -0.6652    1.4156    0.0370 P   0  0  0  0  0  0  0  0  0  0  0  0
    1.9737   -0.7089   -0.4545 P   0  0  0  0  0  0  0  0  0  0  0  0
   -6.0612   -2.6721   -0.3407 O   0  0  0  0  0  0  0  0  0  0  0  0
   -6.9615   -2.3622   -0.5793 H   0  0  0  0  0  0  0  0  0  0  0  0
   -5.6542   -1.0234   -1.8148 O   0  0  0  0  0  0  0  0  0  0  0  0
   -3.2761   -0.3803   -2.3607 O   0  0  0  0  0  0  0  0  0  0  0  0
   -4.2945   -0.4204   -2.3312 H   0  0  0  0  0  0  0  0  0  0  0  0
   -0.5337   -0.6233   -1.8662 N   0  0  0  0  0  0  0  0  0  0  0  0
   -2.3040    0.9537    0.7290 C   0  0  0  0  0  0  0  0  0  0  0  0
   -3.7927   -2.1923   -0.8611 C   0  0  0  0  0  0  0  0  0  0  0  0
    5.7999    1.3029   -2.1513 C   0  0  0  0  0  0  0  0  0  0  0  0
    6.7038    1.8003   -2.5341 H   0  0  0  0  0  0  0  0  0  0  0  0
   -0.5399    6.0220   -0.6732 C   0  0  0  0  0  0  0  0  0  0  0  0
   -0.5024    7.1086   -0.8447 H   0  0  0  0  0  0  0  0  0  0  0  0
    3.4891    0.0247   -1.1738 C   0  0  0  0  0  0  0  0  0  0  0  0
    4.7662   -0.4210   -0.7766 C   0  0  0  0  0  0  0  0  0  0  0  0
    4.8564   -1.2527   -0.0642 H   0  0  0  0  0  0  0  0  0  0  0  0
   -1.4571   -1.5203   -1.2908 C   0  0  0  0  0  0  0  0  0  0  0  0
    0.1417    5.4545    0.4144 C   0  0  0  0  0  0  0  0  0  0  0  0
    0.7165    6.0935    1.1016 H   0  0  0  0  0  0  0  0  0  0  0  0
    0.8528   -0.9886   -1.9876 C   0  0  0  0  0  0  0  0  0  0  0  0
    1.3056   -0.3953   -2.8086 H   0  0  0  0  0  0  0  0  0  0  0  0
    0.9380   -2.0587   -2.2600 H   0  0  0  0  0  0  0  0  0  0  0  0
   -2.8604   -1.3450   -1.5290 C   0  0  0  0  0  0  0  0  0  0  0  0
    0.0983    4.0707    0.6389 C   0  0  0  0  0  0  0  0  0  0  0  0
    0.6130    3.6229    1.5035 H   0  0  0  0  0  0  0  0  0  0  0  0
   -0.6367    3.2373   -0.2299 C   0  0  0  0  0  0  0  0  0  0  0  0
    3.2856   -4.6106   -0.6703 C   0  0  0  0  0  0  0  0  0  0  0  0
    3.7652   -5.2504   -1.4265 H   0  0  0  0  0  0  0  0  0  0  0  0
   -3.6054   -0.5103    2.1727 C   0  0  0  0  0  0  0  0  0  0  0  0
   -3.6440   -1.3054    2.9318 H   0  0  0  0  0  0  0  0  0  0  0  0
    2.4214   -2.4316    0.0048 C   0  0  0  0  0  0  0  0  0  0  0  0
    2.0817   -2.9612    1.2657 C   0  0  0  0  0  0  0  0  0  0  0  0
    1.6407   -2.3001    2.0255 H   0  0  0  0  0  0  0  0  0  0  0  0
   -4.7923    0.0466    1.6700 C   0  0  0  0  0  0  0  0  0  0  0  0
   -5.7666   -0.3173    2.0301 H   0  0  0  0  0  0  0  0  0  0  0  0
   -1.0551   -2.6137   -0.5036 C   0  0  0  0  0  0  0  0  0  0  0  0
    0.0130   -2.7810   -0.3184 H   0  0  0  0  0  0  0  0  0  0  0  0
   -3.3472   -3.2595   -0.0456 C   0  0  0  0  0  0  0  0  0  0  0  0
   -4.0911   -3.8978    0.4490 H   0  0  0  0  0  0  0  0  0  0  0  0
    2.3352   -4.3117    1.5472 C   0  0  0  0  0  0  0  0  0  0  0  0
    2.0694   -4.7177    2.5349 H   0  0  0  0  0  0  0  0  0  0  0  0
   -5.2156   -1.9085   -1.0570 C   0  0  0  0  0  0  0  0  0  0  0  0
   -1.9821   -3.4809    0.1046 C   0  0  0  0  0  0  0  0  0  0  0  0
   -1.6122   -4.3127    0.7209 H   0  0  0  0  0  0  0  0  0  0  0  0
    3.3783    1.1360   -2.0359 C   0  0  0  0  0  0  0  0  0  0  0  0
    2.3888    1.5344   -2.3100 H   0  0  0  0  0  0  0  0  0  0  0  0
   -1.3162    3.8127   -1.3292 C   0  0  0  0  0  0  0  0  0  0  0  0
   -1.8877    3.1889   -2.0315 H   0  0  0  0  0  0  0  0  0  0  0  0
   -1.2688    5.1981   -1.5446 C   0  0  0  0  0  0  0  0  0  0  0  0
   -1.8051    5.6333   -2.4016 H   0  0  0  0  0  0  0  0  0  0  0  0
    4.5294    1.7667   -2.5280 C   0  0  0  0  0  0  0  0  0  0  0  0
    4.4316    2.6325   -3.2001 H   0  0  0  0  0  0  0  0  0  0  0  0
   -2.3636   -0.0589    1.7075 C   0  0  0  0  0  0  0  0  0  0  0  0
   -1.4286   -0.4847    2.0998 H   0  0  0  0  0  0  0  0  0  0  0  0
   -3.4950    1.5258    0.2398 C   0  0  0  0  0  0  0  0  0  0  0  0
   -3.4616    2.3329   -0.5067 H   0  0  0  0  0  0  0  0  0  0  0  0
   -4.7354    1.0670    0.7072 C   0  0  0  0  0  0  0  0  0  0  0  0
   -5.6627    1.5080    0.3120 H   0  0  0  0  0  0  0  0  0  0  0  0
    3.0263   -3.2633   -0.9624 C   0  0  0  0  0  0  0  0  0  0  0  0
    3.3118   -2.8553   -1.9450 H   0  0  0  0  0  0  0  0  0  0  0  0
    2.9358   -5.1374    0.5833 C   0  0  0  0  0  0  0  0  0  0  0  0
    3.1377   -6.1952    0.8111 H   0  0  0  0  0  0  0  0  0  0  0  0
   -0.7822    0.8003   -1.7427 C   0  0  0  0  0  0  0  0  0  0  0  0
   -1.7870    1.0412   -2.1377 H   0  0  0  0  0  0  0  0  0  0  0  0
   -0.0296    1.3573   -2.3358 H   0  0  0  0  0  0  0  0  0  0  0  0
    5.9137    0.2146   -1.2720 C   0  0  0  0  0  0  0  0  0  0  0  0
    6.9071   -0.1389   -0.9569 H   0  0  0  0  0  0  0  0  0  0  0  0
  1  9  1  0  0  0  0
  2 32  1  0  0  0  0
  4  3  1  0  0  0  0
  5 43  2  0  0  0  0
  6  7  1  0  0  0  0
  6 24  1  0  0  0  0
  8 64  1  0  0  0  0
  8 18  1  0  0  0  0
  9 54  1  0  0  0  0
 10 39  1  0  0  0  0
 11 67  1  0  0  0  0
 12 11  1  0  0  0  0
 13 19  1  0  0  0  0
 14 13  1  0  0  0  0
 15 16  1  0  0  0  0
 15  2  1  0  0  0  0
 16 17  1  0  0  0  0
 18 37  2  0  0  0  0
 19 25  2  0  0  0  0
 19 20  1  0  0  0  0
 21  8  1  0  0  0  0
 21  2  1  0  0  0  0
 22 21  1  0  0  0  0
 23 21  1  0  0  0  0
 24 18  1  0  0  0  0
 24 10  2  0  0  0  0
 25 26  1  0  0  0  0
 27  1  1  0  0  0  0
 27 25  1  0  0  0  0
 28 62  1  0  0  0  0
 29 28  1  0  0  0  0
 30 31  1  0  0  0  0
 32 33  2  0  0  0  0
 33 41  1  0  0  0  0
 33 34  1  0  0  0  0
 35 36  1  0  0  0  0
 35 30  1  0  0  0  0
 37 38  1  0  0  0  0
 37 44  1  0  0  0  0
 39 44  2  0  0  0  0
 39 40  1  0  0  0  0
 41 42  1  0  0  0  0
 43 10  1  0  0  0  0
 43  3  1  0  0  0  0
 44 45  1  0  0  0  0
 46 15  2  0  0  0  0
 47 46  1  0  0  0  0
 48 27  2  0  0  0  0
 49 48  1  0  0  0  0
 50 48  1  0  0  0  0
 50 13  2  0  0  0  0
 51 50  1  0  0  0  0
 52 11  2  0  0  0  0
 52 46  1  0  0  0  0
 53 52  1  0  0  0  0
 54 55  1  0  0  0  0
 54 30  2  0  0  0  0
 56 58  1  0  0  0  0
 56  9  2  0  0  0  0
 57 56  1  0  0  0  0
 58 35  2  0  0  0  0
 59 58  1  0  0  0  0
 60 28  2  0  0  0  0
 60 32  1  0  0  0  0
 61 60  1  0  0  0  0
 62 63  1  0  0  0  0
 62 41  2  0  0  0  0
 64  1  1  0  0  0  0
 65 64  1  0  0  0  0
 66 64  1  0  0  0  0
 67 68  1  0  0  0  0
 67 16  2  0  0  0  0
M  END
