1,2
q = 0.0, confidence = 1.0

 76 80  0  0  0  0  0  0  0  0999 V2000
    1.7081   -0.2977    0.1540 P   0  0  0  0  0  0  0  0  0  0  0  0
   -1.6349   -0.5039   -0.0012 P   0  0  0  0  0  0  0  0  0  0  0  0
   -0.3245    3.3334    2.2044 N   0  0  0  0  0  0  0  0  0  0  0  0
    1.2040    0.9796    1.4063 C   0  0  0  0  0  0  0  0  0  0  0  0
    2.0633    1.1235    2.0960 H   0  0  0  0  0  0  0  0  0  0  0  0
    1.0833    1.9133    0.8194 H   0  0  0  0  0  0  0  0  0  0  0  0
   -1.3683    0.7121    1.3906 C   0  0  0  0  0  0  0  0  0  0  0  0
   -1.4588    1.6756    0.8453 H   0  0  0  0  0  0  0  0  0  0  0  0
   -2.2525    0.6532    2.0609 H   0  0  0  0  0  0  0  0  0  0  0  0
   -0.2300    2.1559    3.0465 C   0  0  0  0  0  0  0  0  0  0  0  0
   -1.1295    2.0662    3.6972 H   0  0  0  0  0  0  0  0  0  0  0  0
    0.6399    2.2356    3.7378 H   0  0  0  0  0  0  0  0  0  0  0  0
   -0.0819    0.8106    2.2445 C   0  0  0  0  0  0  0  0  0  0  0  0
    0.0469   -0.3191    3.2749 C   0  0  0  0  0  0  0  0  0  0  0  0
    0.9819   -0.2060    3.8607 H   0  0  0  0  0  0  0  0  0  0  0  0
    0.0708   -1.3208    2.8107 H   0  0  0  0  0  0  0  0  0  0  0  0
   -0.8023   -0.2927    3.9893 H   0  0  0  0  0  0  0  0  0  0  0  0
    1.3653   -2.9241    1.1402 C   0  0  0  0  0  0  0  0  0  0  0  0
    0.5298   -2.9823    0.4307 H   0  0  0  0  0  0  0  0  0  0  0  0
    1.6276   -4.0004    2.0023 C   0  0  0  0  0  0  0  0  0  0  0  0
    0.9968   -4.9006    1.9515 H   0  0  0  0  0  0  0  0  0  0  0  0
    2.6852   -3.9223    2.9206 C   0  0  0  0  0  0  0  0  0  0  0  0
    2.8939   -4.7655    3.5968 H   0  0  0  0  0  0  0  0  0  0  0  0
    3.4844   -2.7667    2.9710 C   0  0  0  0  0  0  0  0  0  0  0  0
    4.3213   -2.7056    3.6836 H   0  0  0  0  0  0  0  0  0  0  0  0
    3.2195   -1.6891    2.1146 C   0  0  0  0  0  0  0  0  0  0  0  0
    3.8524   -0.7886    2.1538 H   0  0  0  0  0  0  0  0  0  0  0  0
    2.1502   -1.7581    1.1964 C   0  0  0  0  0  0  0  0  0  0  0  0
    4.2879   -0.5983   -0.8994 C   0  0  0  0  0  0  0  0  0  0  0  0
    4.0362   -1.6702   -0.9203 H   0  0  0  0  0  0  0  0  0  0  0  0
    5.5139   -0.1592   -1.4150 C   0  0  0  0  0  0  0  0  0  0  0  0
    6.2218   -0.8908   -1.8332 H   0  0  0  0  0  0  0  0  0  0  0  0
    5.8352    1.2083   -1.4065 C   0  0  0  0  0  0  0  0  0  0  0  0
    6.7966    1.5531   -1.8161 H   0  0  0  0  0  0  0  0  0  0  0  0
    4.9198    2.1329   -0.8830 C   0  0  0  0  0  0  0  0  0  0  0  0
    5.1592    3.2072   -0.8805 H   0  0  0  0  0  0  0  0  0  0  0  0
    3.6902    1.6971   -0.3637 C   0  0  0  0  0  0  0  0  0  0  0  0
    2.9805    2.4414    0.0250 H   0  0  0  0  0  0  0  0  0  0  0  0
    3.3667    0.3254   -0.3608 C   0  0  0  0  0  0  0  0  0  0  0  0
   -2.1181   -3.2543   -0.0770 C   0  0  0  0  0  0  0  0  0  0  0  0
   -1.8697   -3.1386   -1.1425 H   0  0  0  0  0  0  0  0  0  0  0  0
   -2.4554   -4.5158    0.4331 C   0  0  0  0  0  0  0  0  0  0  0  0
   -2.4705   -5.3879   -0.2379 H   0  0  0  0  0  0  0  0  0  0  0  0
   -2.7635   -4.6645    1.7957 C   0  0  0  0  0  0  0  0  0  0  0  0
   -3.0154   -5.6562    2.2011 H   0  0  0  0  0  0  0  0  0  0  0  0
   -2.7578   -3.5406    2.6360 C   0  0  0  0  0  0  0  0  0  0  0  0
   -3.0107   -3.6464    3.7020 H   0  0  0  0  0  0  0  0  0  0  0  0
   -2.4323   -2.2751    2.1220 C   0  0  0  0  0  0  0  0  0  0  0  0
   -2.4504   -1.4047    2.7909 H   0  0  0  0  0  0  0  0  0  0  0  0
   -2.0871   -2.1231    0.7651 C   0  0  0  0  0  0  0  0  0  0  0  0
   -4.5003   -0.5533   -0.2246 C   0  0  0  0  0  0  0  0  0  0  0  0
   -4.4719   -1.4976    0.3382 H   0  0  0  0  0  0  0  0  0  0  0  0
   -5.7359   -0.0276   -0.6361 C   0  0  0  0  0  0  0  0  0  0  0  0
   -6.6634   -0.5686   -0.3935 H   0  0  0  0  0  0  0  0  0  0  0  0
   -5.7904    1.1771   -1.3521 C   0  0  0  0  0  0  0  0  0  0  0  0
   -6.7599    1.5862   -1.6745 H   0  0  0  0  0  0  0  0  0  0  0  0
   -4.5999    1.8536   -1.6644 C   0  0  0  0  0  0  0  0  0  0  0  0
   -4.6298    2.7942   -2.2349 H   0  0  0  0  0  0  0  0  0  0  0  0
   -3.3643    1.3255   -1.2664 C   0  0  0  0  0  0  0  0  0  0  0  0
   -2.4374    1.8493   -1.5420 H   0  0  0  0  0  0  0  0  0  0  0  0
   -3.3026    0.1202   -0.5349 C   0  0  0  0  0  0  0  0  0  0  0  0
    0.8094    4.2519    2.2438 C   0  0  0  0  0  0  0  0  0  0  0  0
    1.7483    3.6626    2.2585 H   0  0  0  0  0  0  0  0  0  0  0  0
    0.8024    4.8652    3.1876 H   0  0  0  0  0  0  0  0  0  0  0  0
    0.7934    5.1872    1.0312 C   0  0  0  0  0  0  0  0  0  0  0  0
    1.6462    5.8948    1.0952 H   0  0  0  0  0  0  0  0  0  0  0  0
    0.9325    4.5789    0.1114 H   0  0  0  0  0  0  0  0  0  0  0  0
   -0.5382    5.9425    0.9450 C   0  0  0  0  0  0  0  0  0  0  0  0
   -0.5787    6.5615    0.0250 H   0  0  0  0  0  0  0  0  0  0  0  0
   -0.6159    6.6462    1.8048 H   0  0  0  0  0  0  0  0  0  0  0  0
   -1.7151    4.9611    0.9907 C   0  0  0  0  0  0  0  0  0  0  0  0
   -1.7144    4.3380    0.0701 H   0  0  0  0  0  0  0  0  0  0  0  0
   -2.6831    5.5032    1.0223 H   0  0  0  0  0  0  0  0  0  0  0  0
   -1.6050    4.0350    2.2050 C   0  0  0  0  0  0  0  0  0  0  0  0
   -1.7375    4.6381    3.1460 H   0  0  0  0  0  0  0  0  0  0  0  0
   -2.4236    3.2881    2.1877 H   0  0  0  0  0  0  0  0  0  0  0  0
  1 28  1  0  0  0  0
  1  4  1  0  0  0  0
  2 50  1  0  0  0  0
  2  7  1  0  0  0  0
  3 74  1  0  0  0  0
  3 62  1  0  0  0  0
  3 10  1  0  0  0  0
  4  5  1  0  0  0  0
  4 13  1  0  0  0  0
  6  4  1  0  0  0  0
  7  9  1  0  0  0  0
  7 13  1  0  0  0  0
  8  7  1  0  0  0  0
 10 11  1  0  0  0  0
 10 12  1  0  0  0  0
 13 10  1  0  0  0  0
 13 14  1  0  0  0  0
 14 15  1  0  0  0  0
 14 17  1  0  0  0  0
 16 14  1  0  0  0  0
 18 28  2  0  0  0  0
 18 20  1  0  0  0  0
 19 18  1  0  0  0  0
 20 22  2  0  0  0  0
 21 20  1  0  0  0  0
 22 24  1  0  0  0  0
 22 23  1  0  0  0  0
 24 25  1  0  0  0  0
 26 27  1  0  0  0  0
 26 24  2  0  0  0  0
 28 26  1  0  0  0  0
 29 39  1  0  0  0  0
 30 29  1  0  0  0  0
 31 33  1  0  0  0  0
 31 29  2  0  0  0  0
 32 31  1  0  0  0  0
 33 35  2  0  0  0  0
 34 33  1  0  0  0  0
 35 36  1  0  0  0  0
 35 37  1  0  0  0  0
 37 39  2  0  0  0  0
 37 38  1  0  0  0  0
 39  1  1  0  0  0  0
 40 42  2  0  0  0  0
 40 50  1  0  0  0  0
 41 40  1  0  0  0  0
 42 44  1  0  0  0  0
 43 42  1  0  0  0  0
 44 45  1  0  0  0  0
 44 46  2  0  0  0  0
 46 47  1  0  0  0  0
 48 46  1  0  0  0  0
 48 49  1  0  0  0  0
 50 48  2  0  0  0  0
 51 52  1  0  0  0  0
 53 54  1  0  0  0  0
 53 51  2  0  0  0  0
 55 53  1  0  0  0  0
 56 55  1  0  0  0  0
 57 55  2  0  0  0  0
 57 59  1  0  0  0  0
 58 57  1  0  0  0  0
 59 61  2  0  0  0  0
 60 59  1  0  0  0  0
 61 51  1  0  0  0  0
 61  2  1  0  0  0  0
 62 63  1  0  0  0  0
 62 64  1  0  0  0  0
 65 66  1  0  0  0  0
 65 62  1  0  0  0  0
 67 65  1  0  0  0  0
 68 71  1  0  0  0  0
 68 65  1  0  0  0  0
 68 70  1  0  0  0  0
 69 68  1  0  0  0  0
 71 73  1  0  0  0  0
 71 74  1  0  0  0  0
 72 71  1  0  0  0  0
 74 75  1  0  0  0  0
 76 74  1  0  0  0  0
M  END
