62,63
q = 0.0, confidence = 0.988

 63 67  0  0  1  0  0  0  0  0999 V2000
    3.3483   -0.6168   -0.1331 C   0  0  0  0  0  0  0  0  0  0  0  0
    4.1370   -0.1577   -1.2090 C   0  0  0  0  0  0  0  0  0  0  0  0
    3.6732    0.4232   -2.0187 H   0  0  0  0  0  0  0  0  0  0  0  0
    5.4987   -0.4877   -1.2588 C   0  0  0  0  0  0  0  0  0  0  0  0
    6.1129   -0.1294   -2.0986 H   0  0  0  0  0  0  0  0  0  0  0  0
    6.0729   -1.2844   -0.2553 C   0  0  0  0  0  0  0  0  0  0  0  0
    7.1411   -1.5453   -0.3036 H   0  0  0  0  0  0  0  0  0  0  0  0
    5.2826   -1.7594    0.8034 C   0  0  0  0  0  0  0  0  0  0  0  0
    5.7269   -2.3930    1.5857 H   0  0  0  0  0  0  0  0  0  0  0  0
    3.9214   -1.4286    0.8662 C   0  0  0  0  0  0  0  0  0  0  0  0
    3.3054   -1.8093    1.6942 H   0  0  0  0  0  0  0  0  0  0  0  0
    0.9590   -0.2822    1.6917 C   0  0  1  0  0  0  0  0  0  0  0  0
    0.8717   -1.2930    2.1316 H   0  0  0  0  0  0  0  0  0  0  0  0
    1.8781    0.6821    2.4271 C   0  0  0  0  0  0  0  0  0  0  0  0
    2.3177    0.4007    3.8277 C   0  0  0  0  0  0  0  0  0  0  0  0
    2.9664    1.2018    4.2297 H   0  0  0  0  0  0  0  0  0  0  0  0
    2.8837   -0.5547    3.8860 H   0  0  0  0  0  0  0  0  0  0  0  0
    1.4475    0.2906    4.5112 H   0  0  0  0  0  0  0  0  0  0  0  0
    2.1717    1.7566    1.6393 C   0  0  0  0  0  0  0  0  0  0  0  0
    3.0324    2.9399    1.9371 C   0  0  0  0  0  0  0  0  0  0  0  0
    3.4381    2.9195    2.9665 H   0  0  0  0  0  0  0  0  0  0  0  0
    2.4672    3.8843    1.7853 H   0  0  0  0  0  0  0  0  0  0  0  0
    3.8918    2.9726    1.2319 H   0  0  0  0  0  0  0  0  0  0  0  0
    1.4232    1.6558    0.3198 C   0  0  2  0  0  0  0  0  0  0  0  0
    1.7478    2.3548   -0.4715 H   0  0  0  0  0  0  0  0  0  0  0  0
   -0.1142    1.7073    0.6150 C   0  0  1  0  0  0  0  0  0  0  0  0
   -0.6463    1.6950   -0.3595 H   0  0  0  0  0  0  0  0  0  0  0  0
   -0.4235    0.3879    1.4103 C   0  0  1  0  0  0  0  0  0  0  0  0
   -0.9796    0.5894    2.3471 H   0  0  0  0  0  0  0  0  0  0  0  0
   -0.5830    2.9702    1.3578 C   0  0  0  0  0  0  0  0  0  0  0  0
   -1.6714    2.8727    1.5457 H   0  0  0  0  0  0  0  0  0  0  0  0
   -0.0520    3.0797    2.3226 H   0  0  0  0  0  0  0  0  0  0  0  0
   -0.3319    4.2035    0.5169 C   0  0  0  0  0  0  0  0  0  0  0  0
   -1.0914    5.4017   -1.3720 C   0  0  0  0  0  0  0  0  0  0  0  0
   -1.0957    6.3784   -0.8481 H   0  0  0  0  0  0  0  0  0  0  0  0
   -1.9332    5.3398   -2.0837 H   0  0  0  0  0  0  0  0  0  0  0  0
   -0.1252    5.2967   -1.9053 H   0  0  0  0  0  0  0  0  0  0  0  0
   -2.9176    0.2682   -0.0489 C   0  0  0  0  0  0  0  0  0  0  0  0
   -3.8372    0.4592    1.0032 C   0  0  0  0  0  0  0  0  0  0  0  0
   -3.6987   -0.0635    1.9627 H   0  0  0  0  0  0  0  0  0  0  0  0
   -4.9402    1.3060    0.8218 C   0  0  0  0  0  0  0  0  0  0  0  0
   -5.6594    1.4506    1.6422 H   0  0  0  0  0  0  0  0  0  0  0  0
   -5.1279    1.9623   -0.4064 C   0  0  0  0  0  0  0  0  0  0  0  0
   -5.9942    2.6266   -0.5465 H   0  0  0  0  0  0  0  0  0  0  0  0
   -4.2196    1.7606   -1.4570 C   0  0  0  0  0  0  0  0  0  0  0  0
   -4.3739    2.2603   -2.4252 H   0  0  0  0  0  0  0  0  0  0  0  0
   -3.1165    0.9105   -1.2866 C   0  0  0  0  0  0  0  0  0  0  0  0
   -2.4191    0.7123   -2.1146 H   0  0  0  0  0  0  0  0  0  0  0  0
   -1.8861   -2.1976    1.1761 C   0  0  0  0  0  0  0  0  0  0  0  0
   -1.9066   -2.2378    2.5863 C   0  0  0  0  0  0  0  0  0  0  0  0
   -1.6136   -1.3572    3.1780 H   0  0  0  0  0  0  0  0  0  0  0  0
   -2.2993   -3.4115    3.2482 C   0  0  0  0  0  0  0  0  0  0  0  0
   -2.3115   -3.4400    4.3484 H   0  0  0  0  0  0  0  0  0  0  0  0
   -2.6738   -4.5441    2.5084 C   0  0  0  0  0  0  0  0  0  0  0  0
   -2.9801   -5.4638    3.0298 H   0  0  0  0  0  0  0  0  0  0  0  0
   -2.6513   -4.5050    1.1043 C   0  0  0  0  0  0  0  0  0  0  0  0
   -2.9386   -5.3937    0.5223 H   0  0  0  0  0  0  0  0  0  0  0  0
   -2.2547   -3.3401    0.4330 C   0  0  0  0  0  0  0  0  0  0  0  0
   -2.2211   -3.2955   -0.6697 H   0  0  0  0  0  0  0  0  0  0  0  0
   -1.2789    4.3250   -0.4435 O   0  0  0  0  0  0  0  0  0  0  0  0
    0.6152    4.9632    0.6266 O   0  0  0  0  0  0  0  0  0  0  0  0
    1.5849   -0.1862   -0.0855 P   0  0  1  0  0  0  0  0  0  0  0  0
   -1.3923   -0.7060    0.2401 P   0  0  0  0  0  0  0  0  0  0  0  0
  1 10  1  0  0  0  0
  2  1  2  0  0  0  0
  3  2  1  0  0  0  0
  4  2  1  0  0  0  0
  4  6  2  0  0  0  0
  5  4  1  0  0  0  0
  6  8  1  0  0  0  0
  7  6  1  0  0  0  0
  8 10  2  0  0  0  0
  8  9  1  0  0  0  0
 10 11  1  0  0  0  0
 12 13  1  1  0  0  0
 12 14  1  0  0  0  0
 14 15  1  0  0  0  0
 15 17  1  0  0  0  0
 15 16  1  0  0  0  0
 15 18  1  0  0  0  0
 19 20  1  0  0  0  0
 19 14  2  0  0  0  0
 20 21  1  0  0  0  0
 22 20  1  0  0  0  0
 23 20  1  0  0  0  0
 24 25  1  6  0  0  0
 24 26  1  0  0  0  0
 24 19  1  0  0  0  0
 26 27  1  6  0  0  0
 26 30  1  0  0  0  0
 26 28  1  0  0  0  0
 28 12  1  0  0  0  0
 28 29  1  1  0  0  0
 30 31  1  0  0  0  0
 30 32  1  0  0  0  0
 33 61  2  0  0  0  0
 33 30  1  0  0  0  0
 34 35  1  0  0  0  0
 34 60  1  0  0  0  0
 36 34  1  0  0  0  0
 37 34  1  0  0  0  0
 38 63  1  0  0  0  0
 38 39  1  0  0  0  0
 39 40  1  0  0  0  0
 41 39  2  0  0  0  0
 41 42  1  0  0  0  0
 43 41  1  0  0  0  0
 44 43  1  0  0  0  0
 45 47  1  0  0  0  0
 45 43  2  0  0  0  0
 46 45  1  0  0  0  0
 47 38  2  0  0  0  0
 48 47  1  0  0  0  0
 49 50  1  0  0  0  0
 50 51  1  0  0  0  0
 50 52  2  0  0  0  0
 52 53  1  0  0  0  0
 54 55  1  0  0  0  0
 54 52  1  0  0  0  0
 56 54  2  0  0  0  0
 57 56  1  0  0  0  0
 58 56  1  0  0  0  0
 58 49  2  0  0  0  0
 59 58  1  0  0  0  0
 60 33  1  0  0  0  0
 62  1  1  1  0  0  0
 62 24  1  0  0  0  0
 62 12  1  0  0  0  0
 63 49  1  0  0  0  0
 63 28  1  0  0  0  0
M  END
