51,52
q = 0.0, confidence = 0.988

 52 54  0  0  1  0  0  0  0  0999 V2000
    0.6027    3.0867    0.6050 C   0  0  0  0  0  0  0  0  0  0  0  0
    0.3781    4.4793    0.6663 C   0  0  0  0  0  0  0  0  0  0  0  0
   -0.2172    4.9889   -0.1080 H   0  0  0  0  0  0  0  0  0  0  0  0
    0.9158    5.2311    1.7203 C   0  0  0  0  0  0  0  0  0  0  0  0
    0.7395    6.3162    1.7623 H   0  0  0  0  0  0  0  0  0  0  0  0
    1.6787    4.6010    2.7180 C   0  0  0  0  0  0  0  0  0  0  0  0
    2.1004    5.1947    3.5428 H   0  0  0  0  0  0  0  0  0  0  0  0
    1.9058    3.2176    2.6599 C   0  0  0  0  0  0  0  0  0  0  0  0
    2.5096    2.7231    3.4354 H   0  0  0  0  0  0  0  0  0  0  0  0
    1.3714    2.4597    1.6068 C   0  0  0  0  0  0  0  0  0  0  0  0
    1.5606    1.3769    1.5416 H   0  0  0  0  0  0  0  0  0  0  0  0
    0.4679    2.8679   -2.2851 C   0  0  0  0  0  0  0  0  0  0  0  0
    0.7144    3.9386   -2.1806 H   0  0  0  0  0  0  0  0  0  0  0  0
    0.5896    2.2743   -3.4942 C   0  0  0  0  0  0  0  0  0  0  0  0
    0.9216    2.9214   -4.3273 H   0  0  0  0  0  0  0  0  0  0  0  0
    0.3478    0.8432   -3.8425 C   0  0  0  0  0  0  0  0  0  0  0  0
    0.1247    0.2270   -2.9459 H   0  0  0  0  0  0  0  0  0  0  0  0
    1.2399    0.4142   -4.3455 H   0  0  0  0  0  0  0  0  0  0  0  0
   -0.4922    0.7531   -4.5644 H   0  0  0  0  0  0  0  0  0  0  0  0
   -1.9248    2.5064   -0.7255 C   0  0  0  0  0  0  0  0  0  0  0  0
   -2.0479    3.6052   -0.6343 H   0  0  0  0  0  0  0  0  0  0  0  0
   -2.3435    2.2079   -1.7109 H   0  0  0  0  0  0  0  0  0  0  0  0
   -2.6148    1.7668    0.4226 C   0  0  1  0  0  0  0  0  0  0  0  0
   -2.0808    2.0170    1.3668 H   0  0  0  0  0  0  0  0  0  0  0  0
   -4.0926    2.1151    0.5827 C   0  0  0  0  0  0  0  0  0  0  0  0
   -4.2049    3.1928    0.8185 H   0  0  0  0  0  0  0  0  0  0  0  0
   -4.5541    1.5430    1.4120 H   0  0  0  0  0  0  0  0  0  0  0  0
   -4.6629    1.9119   -0.3450 H   0  0  0  0  0  0  0  0  0  0  0  0
   -3.4260   -0.6865   -1.0362 C   0  0  0  0  0  0  0  0  0  0  0  0
   -4.8118   -0.8027   -0.7826 C   0  0  0  0  0  0  0  0  0  0  0  0
   -5.2193   -0.5541    0.2075 H   0  0  0  0  0  0  0  0  0  0  0  0
   -5.6773   -1.2411   -1.7952 C   0  0  0  0  0  0  0  0  0  0  0  0
   -6.7543   -1.3317   -1.5889 H   0  0  0  0  0  0  0  0  0  0  0  0
   -5.1758   -1.5607   -3.0681 C   0  0  0  0  0  0  0  0  0  0  0  0
   -5.8603   -1.9042   -3.8580 H   0  0  0  0  0  0  0  0  0  0  0  0
   -3.8025   -1.4416   -3.3306 C   0  0  0  0  0  0  0  0  0  0  0  0
   -3.4058   -1.6895   -4.3266 H   0  0  0  0  0  0  0  0  0  0  0  0
   -2.9320   -1.0088   -2.3192 C   0  0  0  0  0  0  0  0  0  0  0  0
   -1.8532   -0.9089   -2.5179 H   0  0  0  0  0  0  0  0  0  0  0  0
   -2.6178   -0.8063    1.8197 C   0  0  0  0  0  0  0  0  0  0  0  0
   -1.9419   -0.2827    2.9463 C   0  0  0  0  0  0  0  0  0  0  0  0
   -1.2591    0.5754    2.8357 H   0  0  0  0  0  0  0  0  0  0  0  0
   -2.1185   -0.8613    4.2105 C   0  0  0  0  0  0  0  0  0  0  0  0
   -1.5918   -0.4414    5.0804 H   0  0  0  0  0  0  0  0  0  0  0  0
   -2.9588   -1.9765    4.3642 C   0  0  0  0  0  0  0  0  0  0  0  0
   -3.0956   -2.4314    5.3565 H   0  0  0  0  0  0  0  0  0  0  0  0
   -3.6183   -2.5121    3.2472 C   0  0  0  0  0  0  0  0  0  0  0  0
   -4.2719   -3.3899    3.3607 H   0  0  0  0  0  0  0  0  0  0  0  0
   -3.4489   -1.9346    1.9791 C   0  0  0  0  0  0  0  0  0  0  0  0
   -3.9579   -2.3762    1.1104 H   0  0  0  0  0  0  0  0  0  0  0  0
   -2.2198   -0.0639    0.1927 P   0  0  0  0  0  0  0  0  0  0  0  0
   -0.1107    2.0797   -0.7499 P   0  0  2  0  0  0  0  0  0  0  0  0
  1  2  2  0  0  0  0
  1 10  1  0  0  0  0
  2  4  1  0  0  0  0
  3  2  1  0  0  0  0
  4  5  1  0  0  0  0
  4  6  2  0  0  0  0
  6  7  1  0  0  0  0
  8  6  1  0  0  0  0
  8  9  1  0  0  0  0
 10  8  2  0  0  0  0
 11 10  1  0  0  0  0
 12 13  1  0  0  0  0
 14 12  2  0  0  0  0
 15 14  1  0  0  0  0
 16 14  1  0  0  0  0
 16 17  1  0  0  0  0
 18 16  1  0  0  0  0
 19 16  1  0  0  0  0
 20 21  1  0  0  0  0
 20 23  1  0  0  0  0
 22 20  1  0  0  0  0
 23 25  1  0  0  0  0
 23 24  1  1  0  0  0
 25 26  1  0  0  0  0
 25 27  1  0  0  0  0
 28 25  1  0  0  0  0
 29 30  1  0  0  0  0
 29 51  1  0  0  0  0
 30 31  1  0  0  0  0
 32 33  1  0  0  0  0
 32 30  2  0  0  0  0
 34 32  1  0  0  0  0
 35 34  1  0  0  0  0
 36 34  2  0  0  0  0
 36 38  1  0  0  0  0
 37 36  1  0  0  0  0
 38 29  2  0  0  0  0
 39 38  1  0  0  0  0
 40 49  2  0  0  0  0
 40 41  1  0  0  0  0
 41 43  2  0  0  0  0
 42 41  1  0  0  0  0
 43 45  1  0  0  0  0
 43 44  1  0  0  0  0
 45 46  1  0  0  0  0
 47 48  1  0  0  0  0
 47 45  2  0  0  0  0
 49 47  1  0  0  0  0
 50 49  1  0  0  0  0
 51 23  1  0  0  0  0
 51 40  1  0  0  0  0
 52 12  1  6  0  0  0
 52 20  1  0  0  0  0
 52  1  1  0  0  0  0
M  END
