51,52
q = 0.0, confidence = 0.99

 52 54  0  0  1  0  0  0  0  0999 V2000
   -3.1012   -0.4568   -1.5548 C   0  0  0  0  0  0  0  0  0  0  0  0
   -2.6517    0.2779   -2.6773 C   0  0  0  0  0  0  0  0  0  0  0  0
   -1.8577    1.0316   -2.5572 H   0  0  0  0  0  0  0  0  0  0  0  0
   -3.2048    0.0457   -3.9439 C   0  0  0  0  0  0  0  0  0  0  0  0
   -2.8545    0.6292   -4.8085 H   0  0  0  0  0  0  0  0  0  0  0  0
   -4.1960   -0.9362   -4.1095 C   0  0  0  0  0  0  0  0  0  0  0  0
   -4.6248   -1.1238   -5.1051 H   0  0  0  0  0  0  0  0  0  0  0  0
   -4.6311   -1.6829   -3.0039 C   0  0  0  0  0  0  0  0  0  0  0  0
   -5.4002   -2.4594   -3.1311 H   0  0  0  0  0  0  0  0  0  0  0  0
   -4.0890   -1.4478   -1.7303 C   0  0  0  0  0  0  0  0  0  0  0  0
   -4.4294   -2.0487   -0.8749 H   0  0  0  0  0  0  0  0  0  0  0  0
   -2.9607   -1.3074    1.2671 C   0  0  0  0  0  0  0  0  0  0  0  0
   -2.1033   -2.2044    1.9364 C   0  0  0  0  0  0  0  0  0  0  0  0
   -1.0295   -2.2033    1.6957 H   0  0  0  0  0  0  0  0  0  0  0  0
   -2.6074   -3.0803    2.9099 C   0  0  0  0  0  0  0  0  0  0  0  0
   -1.9274   -3.7738    3.4269 H   0  0  0  0  0  0  0  0  0  0  0  0
   -3.9748   -3.0666    3.2240 C   0  0  0  0  0  0  0  0  0  0  0  0
   -4.3722   -3.7521    3.9873 H   0  0  0  0  0  0  0  0  0  0  0  0
   -4.8369   -2.1728    2.5664 C   0  0  0  0  0  0  0  0  0  0  0  0
   -5.9089   -2.1577    2.8136 H   0  0  0  0  0  0  0  0  0  0  0  0
   -4.3352   -1.2948    1.5950 C   0  0  0  0  0  0  0  0  0  0  0  0
   -5.0236   -0.5997    1.0893 H   0  0  0  0  0  0  0  0  0  0  0  0
   -3.0227    2.5997   -0.3893 C   0  0  0  0  0  0  0  0  0  0  0  0
   -3.3096    3.5603    0.0848 H   0  0  0  0  0  0  0  0  0  0  0  0
   -3.8163    2.3244   -1.1092 H   0  0  0  0  0  0  0  0  0  0  0  0
   -2.0904    2.7853   -0.9563 H   0  0  0  0  0  0  0  0  0  0  0  0
   -2.8545    1.5286    0.6896 C   0  0  2  0  0  0  0  0  0  0  0  0
   -3.8425    1.3322    1.1559 H   0  0  0  0  0  0  0  0  0  0  0  0
   -1.8666    1.9050    1.8033 C   0  0  0  0  0  0  0  0  0  0  0  0
   -1.9421    1.1972    2.6560 H   0  0  0  0  0  0  0  0  0  0  0  0
   -2.0661    2.9218    2.2006 H   0  0  0  0  0  0  0  0  0  0  0  0
    0.8734    2.0434    2.7614 C   0  0  0  0  0  0  0  0  0  0  0  0
    1.1408    3.0938    2.9665 H   0  0  0  0  0  0  0  0  0  0  0  0
    1.2850    1.0745    3.6094 C   0  0  0  0  0  0  0  0  0  0  0  0
    1.8684    1.4050    4.4887 H   0  0  0  0  0  0  0  0  0  0  0  0
    1.0592   -0.3951    3.4950 C   0  0  0  0  0  0  0  0  0  0  0  0
    0.4841   -0.6605    2.5858 H   0  0  0  0  0  0  0  0  0  0  0  0
    0.5240   -0.7816    4.3883 H   0  0  0  0  0  0  0  0  0  0  0  0
    2.0328   -0.9287    3.4535 H   0  0  0  0  0  0  0  0  0  0  0  0
    0.2198    3.3112    0.2617 C   0  0  0  0  0  0  0  0  0  0  0  0
    0.6760    3.2079   -1.0684 C   0  0  0  0  0  0  0  0  0  0  0  0
    0.8789    2.2102   -1.4902 H   0  0  0  0  0  0  0  0  0  0  0  0
    0.8758    4.3650   -1.8355 C   0  0  0  0  0  0  0  0  0  0  0  0
    1.2364    4.2784   -2.8713 H   0  0  0  0  0  0  0  0  0  0  0  0
    0.6220    5.6293   -1.2807 C   0  0  0  0  0  0  0  0  0  0  0  0
    0.7787    6.5366   -1.8828 H   0  0  0  0  0  0  0  0  0  0  0  0
    0.1722    5.7375    0.0457 C   0  0  0  0  0  0  0  0  0  0  0  0
   -0.0241    6.7277    0.4832 H   0  0  0  0  0  0  0  0  0  0  0  0
   -0.0283    4.5838    0.8174 C   0  0  0  0  0  0  0  0  0  0  0  0
   -0.3848    4.6851    1.8548 H   0  0  0  0  0  0  0  0  0  0  0  0
   -2.2497   -0.1443    0.0378 P   0  0  0  0  0  0  0  0  0  0  0  0
   -0.0872    1.7883    1.2384 P   0  0  2  0  0  0  0  0  0  0  0  0
  1 51  1  0  0  0  0
  2  3  1  0  0  0  0
  2  1  2  0  0  0  0
  4  2  1  0  0  0  0
  5  4  1  0  0  0  0
  6  4  2  0  0  0  0
  6  8  1  0  0  0  0
  7  6  1  0  0  0  0
  8 10  2  0  0  0  0
  9  8  1  0  0  0  0
 10  1  1  0  0  0  0
 10 11  1  0  0  0  0
 12 21  2  0  0  0  0
 12 13  1  0  0  0  0
 13 15  2  0  0  0  0
 14 13  1  0  0  0  0
 15 17  1  0  0  0  0
 15 16  1  0  0  0  0
 17 18  1  0  0  0  0
 19 20  1  0  0  0  0
 19 17  2  0  0  0  0
 21 19  1  0  0  0  0
 22 21  1  0  0  0  0
 23 24  1  0  0  0  0
 23 27  1  0  0  0  0
 25 23  1  0  0  0  0
 26 23  1  0  0  0  0
 27 28  1  1  0  0  0
 27 29  1  0  0  0  0
 29 31  1  0  0  0  0
 29 30  1  0  0  0  0
 32 33  1  0  0  0  0
 32 34  2  0  0  0  0
 34 35  1  0  0  0  0
 36 34  1  0  0  0  0
 36 38  1  0  0  0  0
 37 36  1  0  0  0  0
 39 36  1  0  0  0  0
 40 49  1  0  0  0  0
 40 52  1  0  0  0  0
 41 40  2  0  0  0  0
 42 41  1  0  0  0  0
 43 45  2  0  0  0  0
 43 41  1  0  0  0  0
 44 43  1  0  0  0  0
 45 47  1  0  0  0  0
 46 45  1  0  0  0  0
 47 48  1  0  0  0  0
 47 49  2  0  0  0  0
 49 50  1  0  0  0  0
 51 27  1  0  0  0  0
 51 12  1  0  0  0  0
 52 29  1  0  0  0  0
 52 32  1  1  0  0  0
M  END
