1,2
q = 0.0, confidence = 0.998

 52 55  0  0  0  0  0  0  0  0999 V2000
   -1.9460   -0.8644   -0.2769 P   0  0  0  0  0  0  0  0  0  0  0  0
    0.7407    0.5694   -0.8719 P   0  0  0  0  0  0  0  0  0  0  0  0
    3.1978    1.4296    0.5399 F   0  0  0  0  0  0  0  0  0  0  0  0
   -2.0441    0.2615    2.4390 F   0  0  0  0  0  0  0  0  0  0  0  0
   -3.5758    4.0659   -1.1682 F   0  0  0  0  0  0  0  0  0  0  0  0
   -3.2133    1.5377   -2.0118 F   0  0  0  0  0  0  0  0  0  0  0  0
    0.2765    2.2743    1.6145 F   0  0  0  0  0  0  0  0  0  0  0  0
   -3.1948    4.7211    1.4546 F   0  0  0  0  0  0  0  0  0  0  0  0
   -2.4633    2.7907    3.2623 F   0  0  0  0  0  0  0  0  0  0  0  0
   -1.8670   -3.7457    0.4766 F   0  0  0  0  0  0  0  0  0  0  0  0
    1.8540   -1.4358   -3.0218 F   0  0  0  0  0  0  0  0  0  0  0  0
   -3.8896   -5.5472    0.6400 F   0  0  0  0  0  0  0  0  0  0  0  0
    6.2882   -1.5419   -1.4254 F   0  0  0  0  0  0  0  0  0  0  0  0
    1.2665    2.6986   -3.0213 F   0  0  0  0  0  0  0  0  0  0  0  0
   -6.4336   -4.8135   -0.0381 F   0  0  0  0  0  0  0  0  0  0  0  0
    5.7037    0.4258    0.3912 F   0  0  0  0  0  0  0  0  0  0  0  0
    4.3492   -2.4410   -3.1337 F   0  0  0  0  0  0  0  0  0  0  0  0
    0.9443    5.3949   -2.8276 F   0  0  0  0  0  0  0  0  0  0  0  0
   -4.9500   -0.4624   -1.0861 F   0  0  0  0  0  0  0  0  0  0  0  0
   -6.9584   -2.2727   -0.8906 F   0  0  0  0  0  0  0  0  0  0  0  0
   -0.1330    4.9353    1.7711 F   0  0  0  0  0  0  0  0  0  0  0  0
    0.2305    6.5148   -0.4404 F   0  0  0  0  0  0  0  0  0  0  0  0
   -3.2193    3.1282   -0.2945 C   0  0  0  0  0  0  0  0  0  0  0  0
   -3.3525   -2.0331   -0.2705 C   0  0  0  0  0  0  0  0  0  0  0  0
   -3.0238    1.8019   -0.7115 C   0  0  0  0  0  0  0  0  0  0  0  0
   -3.1098   -3.3574    0.1506 C   0  0  0  0  0  0  0  0  0  0  0  0
    2.7930   -0.9003   -2.2200 C   0  0  0  0  0  0  0  0  0  0  0  0
   -3.0336    3.4661    1.0588 C   0  0  0  0  0  0  0  0  0  0  0  0
   -4.1412   -4.3041    0.2406 C   0  0  0  0  0  0  0  0  0  0  0  0
    2.4618    0.1233   -1.3126 C   0  0  0  0  0  0  0  0  0  0  0  0
   -2.5979    0.7961    0.1804 C   0  0  0  0  0  0  0  0  0  0  0  0
   -2.6615    2.4764    1.9853 C   0  0  0  0  0  0  0  0  0  0  0  0
    0.2234    4.3945    0.6080 C   0  0  0  0  0  0  0  0  0  0  0  0
   -0.4043    0.3322   -2.3451 C   0  0  0  0  0  0  0  0  0  0  0  0
   -0.9073    1.3064   -2.4882 H   0  0  0  0  0  0  0  0  0  0  0  0
    0.1700    0.1257   -3.2650 H   0  0  0  0  0  0  0  0  0  0  0  0
   -2.4584    1.1648    1.5360 C   0  0  0  0  0  0  0  0  0  0  0  0
    0.7474    2.3985   -0.7211 C   0  0  0  0  0  0  0  0  0  0  0  0
   -5.7213   -2.6164   -0.5479 C   0  0  0  0  0  0  0  0  0  0  0  0
    4.0841   -1.4455   -2.2892 C   0  0  0  0  0  0  0  0  0  0  0  0
   -5.4510   -3.9280   -0.1130 C   0  0  0  0  0  0  0  0  0  0  0  0
    4.7805    0.0230   -0.4803 C   0  0  0  0  0  0  0  0  0  0  0  0
    5.0803   -0.9869   -1.4107 C   0  0  0  0  0  0  0  0  0  0  0  0
   -1.4556   -0.7562   -2.0811 C   0  0  0  0  0  0  0  0  0  0  0  0
   -1.0440   -1.7656   -2.2932 H   0  0  0  0  0  0  0  0  0  0  0  0
   -2.3401   -0.6085   -2.7286 H   0  0  0  0  0  0  0  0  0  0  0  0
    0.9411    3.2343   -1.8382 C   0  0  0  0  0  0  0  0  0  0  0  0
   -4.6692   -1.6915   -0.6383 C   0  0  0  0  0  0  0  0  0  0  0  0
    0.4256    3.0105    0.5023 C   0  0  0  0  0  0  0  0  0  0  0  0
    0.4057    5.2051   -0.5274 C   0  0  0  0  0  0  0  0  0  0  0  0
    0.7669    4.6250   -1.7600 C   0  0  0  0  0  0  0  0  0  0  0  0
    3.4802    0.5434   -0.4298 C   0  0  0  0  0  0  0  0  0  0  0  0
  1 24  1  0  0  0  0
  1 31  1  0  0  0  0
  2 38  1  0  0  0  0
  5 23  1  0  0  0  0
  6 25  1  0  0  0  0
 11 27  1  0  0  0  0
 13 43  1  0  0  0  0
 14 47  1  0  0  0  0
 17 40  1  0  0  0  0
 18 51  1  0  0  0  0
 19 48  1  0  0  0  0
 20 39  1  0  0  0  0
 23 28  1  0  0  0  0
 24 26  1  0  0  0  0
 25 23  2  0  0  0  0
 25 31  1  0  0  0  0
 26 29  2  0  0  0  0
 26 10  1  0  0  0  0
 27 30  1  0  0  0  0
 28  8  1  0  0  0  0
 28 32  2  0  0  0  0
 29 12  1  0  0  0  0
 30  2  1  0  0  0  0
 30 52  2  0  0  0  0
 31 37  2  0  0  0  0
 32  9  1  0  0  0  0
 33 21  1  0  0  0  0
 34 44  1  0  0  0  0
 34  2  1  0  0  0  0
 35 34  1  0  0  0  0
 36 34  1  0  0  0  0
 37 32  1  0  0  0  0
 37  4  1  0  0  0  0
 38 49  2  0  0  0  0
 39 41  2  0  0  0  0
 40 27  2  0  0  0  0
 40 43  1  0  0  0  0
 41 15  1  0  0  0  0
 41 29  1  0  0  0  0
 42 52  1  0  0  0  0
 42 16  1  0  0  0  0
 43 42  2  0  0  0  0
 44  1  1  0  0  0  0
 45 44  1  0  0  0  0
 46 44  1  0  0  0  0
 47 51  2  0  0  0  0
 47 38  1  0  0  0  0
 48 39  1  0  0  0  0
 48 24  2  0  0  0  0
 49 33  1  0  0  0  0
 49  7  1  0  0  0  0
 50 22  1  0  0  0  0
 50 33  2  0  0  0  0
 51 50  1  0  0  0  0
 52  3  1  0  0  0  0
M  END
