1,2
q = 0.0, confidence = 0.968

 66 67  0  0  0  0  0  0  0  0999 V2000
    1.2564   -0.1142   -0.0492 P   0  0  0  0  0  0  0  0  0  0  0  0
   -1.8876   -0.0224    0.1275 P   0  0  0  0  0  0  0  0  0  0  0  0
    2.3238    2.9506   -0.4369 O   0  0  0  0  0  0  0  0  0  0  0  0
    0.8200    3.6003    1.1353 O   0  0  0  0  0  0  0  0  0  0  0  0
   -2.3965    3.3646    0.7985 O   0  0  0  0  0  0  0  0  0  0  0  0
   -1.1490    3.6498   -1.0740 O   0  0  0  0  0  0  0  0  0  0  0  0
    0.4324    1.5384    0.0739 C   0  0  0  0  0  0  0  0  0  0  0  0
   -0.9265    1.5901    0.0233 C   0  0  0  0  0  0  0  0  0  0  0  0
    1.2993    2.7562    0.1903 C   0  0  0  0  0  0  0  0  0  0  0  0
    1.5917    4.7926    1.3403 C   0  0  0  0  0  0  0  0  0  0  0  0
    2.6331    4.5369    1.6194 H   0  0  0  0  0  0  0  0  0  0  0  0
    1.0915    5.3403    2.1578 H   0  0  0  0  0  0  0  0  0  0  0  0
    1.6176    5.4047    0.4162 H   0  0  0  0  0  0  0  0  0  0  0  0
   -1.5881    2.9397   -0.0040 C   0  0  0  0  0  0  0  0  0  0  0  0
   -1.6753    4.9815   -1.1785 C   0  0  0  0  0  0  0  0  0  0  0  0
   -2.7811    4.9586   -1.2512 H   0  0  0  0  0  0  0  0  0  0  0  0
   -1.2330    5.4115   -2.0937 H   0  0  0  0  0  0  0  0  0  0  0  0
   -1.3941    5.5789   -0.2883 H   0  0  0  0  0  0  0  0  0  0  0  0
    2.5256   -0.1169    1.2661 C   0  0  0  0  0  0  0  0  0  0  0  0
    3.7308    0.6026    1.1287 C   0  0  0  0  0  0  0  0  0  0  0  0
    3.9367    1.1593    0.2033 H   0  0  0  0  0  0  0  0  0  0  0  0
    4.6575    0.6055    2.1819 C   0  0  0  0  0  0  0  0  0  0  0  0
    5.6001    1.1636    2.0752 H   0  0  0  0  0  0  0  0  0  0  0  0
    4.3889   -0.1064    3.3625 C   0  0  0  0  0  0  0  0  0  0  0  0
    5.1224   -0.1053    4.1832 H   0  0  0  0  0  0  0  0  0  0  0  0
    3.1930   -0.8311    3.4921 C   0  0  0  0  0  0  0  0  0  0  0  0
    2.9893   -1.4044    4.4088 H   0  0  0  0  0  0  0  0  0  0  0  0
    2.2613   -0.8431    2.4450 C   0  0  0  0  0  0  0  0  0  0  0  0
    1.3369   -1.4368    2.5153 H   0  0  0  0  0  0  0  0  0  0  0  0
    2.1301   -0.0314   -1.6540 C   0  0  0  0  0  0  0  0  0  0  0  0
    1.6935    0.8353   -2.6755 C   0  0  0  0  0  0  0  0  0  0  0  0
    0.8740    1.5455   -2.4911 H   0  0  0  0  0  0  0  0  0  0  0  0
    2.3190    0.8036   -3.9292 C   0  0  0  0  0  0  0  0  0  0  0  0
    1.9796    1.4851   -4.7238 H   0  0  0  0  0  0  0  0  0  0  0  0
    3.3767   -0.0885   -4.1678 C   0  0  0  0  0  0  0  0  0  0  0  0
    3.8661   -0.1106   -5.1533 H   0  0  0  0  0  0  0  0  0  0  0  0
    3.8060   -0.9555   -3.1504 C   0  0  0  0  0  0  0  0  0  0  0  0
    4.6269   -1.6641   -3.3370 H   0  0  0  0  0  0  0  0  0  0  0  0
    3.1849   -0.9354   -1.8936 C   0  0  0  0  0  0  0  0  0  0  0  0
    3.4875   -1.6419   -1.1071 H   0  0  0  0  0  0  0  0  0  0  0  0
   -2.7255    0.0684    1.8574 C   0  0  0  0  0  0  0  0  0  0  0  0
   -1.6697    0.6617    2.8095 C   0  0  0  0  0  0  0  0  0  0  0  0
   -2.0365    0.5540    3.8517 H   0  0  0  0  0  0  0  0  0  0  0  0
   -1.4891    1.7369    2.6197 H   0  0  0  0  0  0  0  0  0  0  0  0
   -0.7060    0.1175    2.7351 H   0  0  0  0  0  0  0  0  0  0  0  0
   -3.0354   -1.3758    2.2899 C   0  0  0  0  0  0  0  0  0  0  0  0
   -2.1180   -1.9897    2.3643 H   0  0  0  0  0  0  0  0  0  0  0  0
   -3.7140   -1.9001    1.5922 H   0  0  0  0  0  0  0  0  0  0  0  0
   -3.5214   -1.3351    3.2877 H   0  0  0  0  0  0  0  0  0  0  0  0
   -4.0103    0.9100    1.8923 C   0  0  0  0  0  0  0  0  0  0  0  0
   -4.8102    0.4769    1.2626 H   0  0  0  0  0  0  0  0  0  0  0  0
   -3.8311    1.9589    1.5990 H   0  0  0  0  0  0  0  0  0  0  0  0
   -4.3867    0.9118    2.9375 H   0  0  0  0  0  0  0  0  0  0  0  0
   -3.0967    0.0194   -1.3462 C   0  0  0  0  0  0  0  0  0  0  0  0
   -4.1899   -1.0427   -1.1334 C   0  0  0  0  0  0  0  0  0  0  0  0
   -4.7770   -1.1289   -2.0721 H   0  0  0  0  0  0  0  0  0  0  0  0
   -4.8949   -0.7644   -0.3267 H   0  0  0  0  0  0  0  0  0  0  0  0
   -3.7486   -2.0343   -0.9060 H   0  0  0  0  0  0  0  0  0  0  0  0
   -3.7282    1.4022   -1.5779 C   0  0  0  0  0  0  0  0  0  0  0  0
   -2.9819    2.1433   -1.9230 H   0  0  0  0  0  0  0  0  0  0  0  0
   -4.2461    1.8013   -0.6868 H   0  0  0  0  0  0  0  0  0  0  0  0
   -4.4813    1.3053   -2.3881 H   0  0  0  0  0  0  0  0  0  0  0  0
   -2.2372   -0.3678   -2.5668 C   0  0  0  0  0  0  0  0  0  0  0  0
   -1.8423   -1.3976   -2.4675 H   0  0  0  0  0  0  0  0  0  0  0  0
   -1.3760    0.3175   -2.7065 H   0  0  0  0  0  0  0  0  0  0  0  0
   -2.8672   -0.3143   -3.4797 H   0  0  0  0  0  0  0  0  0  0  0  0
  1  7  1  0  0  0  0
  1 19  1  0  0  0  0
  2 41  1  0  0  0  0
  3  9  2  0  0  0  0
  4 10  1  0  0  0  0
  6 14  1  0  0  0  0
  7  9  1  0  0  0  0
  8  7  2  0  0  0  0
  8  2  1  0  0  0  0
  9  4  1  0  0  0  0
 10 11  1  0  0  0  0
 10 12  1  0  0  0  0
 13 10  1  0  0  0  0
 14  8  1  0  0  0  0
 14  5  2  0  0  0  0
 15  6  1  0  0  0  0
 15 18  1  0  0  0  0
 16 15  1  0  0  0  0
 17 15  1  0  0  0  0
 19 28  1  0  0  0  0
 20 19  2  0  0  0  0
 20 22  1  0  0  0  0
 21 20  1  0  0  0  0
 22 24  2  0  0  0  0
 23 22  1  0  0  0  0
 24 26  1  0  0  0  0
 24 25  1  0  0  0  0
 26 27  1  0  0  0  0
 28 29  1  0  0  0  0
 28 26  2  0  0  0  0
 30  1  1  0  0  0  0
 31 32  1  0  0  0  0
 31 30  2  0  0  0  0
 33 31  1  0  0  0  0
 34 33  1  0  0  0  0
 35 33  2  0  0  0  0
 35 37  1  0  0  0  0
 36 35  1  0  0  0  0
 37 39  2  0  0  0  0
 38 37  1  0  0  0  0
 39 30  1  0  0  0  0
 39 40  1  0  0  0  0
 41 50  1  0  0  0  0
 41 46  1  0  0  0  0
 41 42  1  0  0  0  0
 42 43  1  0  0  0  0
 44 42  1  0  0  0  0
 45 42  1  0  0  0  0
 46 47  1  0  0  0  0
 46 49  1  0  0  0  0
 48 46  1  0  0  0  0
 50 53  1  0  0  0  0
 51 50  1  0  0  0  0
 52 50  1  0  0  0  0
 54 55  1  0  0  0  0
 54  2  1  0  0  0  0
 55 58  1  0  0  0  0
 55 57  1  0  0  0  0
 56 55  1  0  0  0  0
 59 54  1  0  0  0  0
 59 61  1  0  0  0  0
 60 59  1  0  0  0  0
 62 59  1  0  0  0  0
 63 64  1  0  0  0  0
 63 54  1  0  0  0  0
 65 63  1  0  0  0  0
 66 63  1  0  0  0  0
M  END
