1,2
q = 0.0, confidence = 0.984

 74 77  0  0  0  0  0  0  0  0999 V2000
    1.5179   -0.1653    0.0531 P   0  0  0  0  0  0  0  0  0  0  0  0
   -1.5949    0.0497   -0.1107 P   0  0  0  0  0  0  0  0  0  0  0  0
    2.2599    2.0473    2.4727 O   0  0  0  0  0  0  0  0  0  0  0  0
    1.4050    3.5573    1.0022 O   0  0  0  0  0  0  0  0  0  0  0  0
   -2.2926    3.1948    0.7592 O   0  0  0  0  0  0  0  0  0  0  0  0
   -0.9969    2.8435    2.5933 O   0  0  0  0  0  0  0  0  0  0  0  0
    0.6900    1.3197    0.8082 C   0  0  0  0  0  0  0  0  0  0  0  0
   -0.6642    1.4162    0.7468 C   0  0  0  0  0  0  0  0  0  0  0  0
    1.5301    2.3221    1.5371 C   0  0  0  0  0  0  0  0  0  0  0  0
    2.1674    4.5860    1.6521 C   0  0  0  0  0  0  0  0  0  0  0  0
    1.8290    4.7148    2.6998 H   0  0  0  0  0  0  0  0  0  0  0  0
    1.9923    5.5074    1.0701 H   0  0  0  0  0  0  0  0  0  0  0  0
    3.2452    4.3276    1.6613 H   0  0  0  0  0  0  0  0  0  0  0  0
   -1.4146    2.5775    1.3270 C   0  0  0  0  0  0  0  0  0  0  0  0
   -1.6320    3.9667    3.2217 C   0  0  0  0  0  0  0  0  0  0  0  0
   -1.4137    4.8986    2.6623 H   0  0  0  0  0  0  0  0  0  0  0  0
   -1.2157    4.0187    4.2428 H   0  0  0  0  0  0  0  0  0  0  0  0
   -2.7308    3.8267    3.2529 H   0  0  0  0  0  0  0  0  0  0  0  0
    2.3078   -1.0042    1.5111 C   0  0  0  0  0  0  0  0  0  0  0  0
    2.8940   -0.2140    2.0297 H   0  0  0  0  0  0  0  0  0  0  0  0
    3.2344   -2.1507    1.0665 C   0  0  0  0  0  0  0  0  0  0  0  0
    2.6633   -2.8560    0.4257 H   0  0  0  0  0  0  0  0  0  0  0  0
    4.0555   -1.7626    0.4290 H   0  0  0  0  0  0  0  0  0  0  0  0
    3.8151   -2.8812    2.2857 C   0  0  0  0  0  0  0  0  0  0  0  0
    4.4786   -2.1881    2.8512 H   0  0  0  0  0  0  0  0  0  0  0  0
    4.4558   -3.7197    1.9419 H   0  0  0  0  0  0  0  0  0  0  0  0
    2.7101   -3.3928    3.2171 C   0  0  0  0  0  0  0  0  0  0  0  0
    3.1507   -3.9035    4.0989 H   0  0  0  0  0  0  0  0  0  0  0  0
    2.1049   -4.1557    2.6787 H   0  0  0  0  0  0  0  0  0  0  0  0
    1.7946   -2.2469    3.6634 C   0  0  0  0  0  0  0  0  0  0  0  0
    0.9730   -2.6271    4.3059 H   0  0  0  0  0  0  0  0  0  0  0  0
    2.3766   -1.5303    4.2856 H   0  0  0  0  0  0  0  0  0  0  0  0
    1.2013   -1.5016    2.4611 C   0  0  0  0  0  0  0  0  0  0  0  0
    0.5842   -0.6468    2.8074 H   0  0  0  0  0  0  0  0  0  0  0  0
    0.5211   -2.1768    1.8950 H   0  0  0  0  0  0  0  0  0  0  0  0
    2.8387    0.4947   -1.0648 C   0  0  0  0  0  0  0  0  0  0  0  0
    3.1698   -0.4500   -1.5577 H   0  0  0  0  0  0  0  0  0  0  0  0
    2.2053    1.3908   -2.1463 C   0  0  0  0  0  0  0  0  0  0  0  0
    1.3639    0.8501   -2.6274 H   0  0  0  0  0  0  0  0  0  0  0  0
    1.7753    2.2985   -1.6652 H   0  0  0  0  0  0  0  0  0  0  0  0
    3.2520    1.8036   -3.1889 C   0  0  0  0  0  0  0  0  0  0  0  0
    3.5788    0.8971   -3.7447 H   0  0  0  0  0  0  0  0  0  0  0  0
    2.7912    2.4813   -3.9374 H   0  0  0  0  0  0  0  0  0  0  0  0
    4.4708    2.4687   -2.5368 C   0  0  0  0  0  0  0  0  0  0  0  0
    5.2319    2.7219   -3.3041 H   0  0  0  0  0  0  0  0  0  0  0  0
    4.1580    3.4335   -2.0761 H   0  0  0  0  0  0  0  0  0  0  0  0
    5.0832    1.5722   -1.4529 C   0  0  0  0  0  0  0  0  0  0  0  0
    5.9422    2.0783   -0.9645 H   0  0  0  0  0  0  0  0  0  0  0  0
    5.4877    0.6487   -1.9236 H   0  0  0  0  0  0  0  0  0  0  0  0
    4.0414    1.1771   -0.3945 C   0  0  0  0  0  0  0  0  0  0  0  0
    4.4981    0.5181    0.3713 H   0  0  0  0  0  0  0  0  0  0  0  0
    3.7094    2.0950    0.1362 H   0  0  0  0  0  0  0  0  0  0  0  0
   -2.6505   -0.6571    1.2061 C   0  0  0  0  0  0  0  0  0  0  0  0
   -2.5123   -0.3008    2.5630 C   0  0  0  0  0  0  0  0  0  0  0  0
   -1.7817    0.4600    2.8746 H   0  0  0  0  0  0  0  0  0  0  0  0
   -3.3102   -0.9272    3.5335 C   0  0  0  0  0  0  0  0  0  0  0  0
   -3.2000   -0.6455    4.5917 H   0  0  0  0  0  0  0  0  0  0  0  0
   -4.2394   -1.9087    3.1569 C   0  0  0  0  0  0  0  0  0  0  0  0
   -4.8625   -2.3985    3.9206 H   0  0  0  0  0  0  0  0  0  0  0  0
   -4.3651   -2.2738    1.8057 C   0  0  0  0  0  0  0  0  0  0  0  0
   -5.0803   -3.0556    1.5087 H   0  0  0  0  0  0  0  0  0  0  0  0
   -3.5729   -1.6578    0.8283 C   0  0  0  0  0  0  0  0  0  0  0  0
   -3.6289   -1.9706   -0.2273 H   0  0  0  0  0  0  0  0  0  0  0  0
   -2.7210    0.8637   -1.2965 C   0  0  0  0  0  0  0  0  0  0  0  0
   -2.2691    1.0406   -2.6192 C   0  0  0  0  0  0  0  0  0  0  0  0
   -1.2796    0.6548   -2.9084 H   0  0  0  0  0  0  0  0  0  0  0  0
   -3.0963    1.6721   -3.5571 C   0  0  0  0  0  0  0  0  0  0  0  0
   -2.7456    1.8034   -4.5917 H   0  0  0  0  0  0  0  0  0  0  0  0
   -4.3751    2.1146   -3.1822 C   0  0  0  0  0  0  0  0  0  0  0  0
   -5.0274    2.6012   -3.9232 H   0  0  0  0  0  0  0  0  0  0  0  0
   -4.8286    1.9266   -1.8664 C   0  0  0  0  0  0  0  0  0  0  0  0
   -5.8330    2.2678   -1.5738 H   0  0  0  0  0  0  0  0  0  0  0  0
   -4.0042    1.3043   -0.9195 C   0  0  0  0  0  0  0  0  0  0  0  0
   -4.3578    1.1597    0.1115 H   0  0  0  0  0  0  0  0  0  0  0  0
  1  7  1  0  0  0  0
  1 19  1  0  0  0  0
  2  8  1  0  0  0  0
  2 53  1  0  0  0  0
  4  9  1  0  0  0  0
  4 10  1  0  0  0  0
  5 14  2  0  0  0  0
  6 15  1  0  0  0  0
  7  9  1  0  0  0  0
  8  7  2  0  0  0  0
  8 14  1  0  0  0  0
  9  3  2  0  0  0  0
 10 13  1  0  0  0  0
 10 11  1  0  0  0  0
 12 10  1  0  0  0  0
 14  6  1  0  0  0  0
 15 18  1  0  0  0  0
 15 17  1  0  0  0  0
 16 15  1  0  0  0  0
 19 20  1  0  0  0  0
 19 33  1  0  0  0  0
 21 19  1  0  0  0  0
 21 24  1  0  0  0  0
 22 21  1  0  0  0  0
 23 21  1  0  0  0  0
 24 25  1  0  0  0  0
 24 27  1  0  0  0  0
 26 24  1  0  0  0  0
 27 30  1  0  0  0  0
 27 28  1  0  0  0  0
 29 27  1  0  0  0  0
 30 32  1  0  0  0  0
 30 31  1  0  0  0  0
 33 34  1  0  0  0  0
 33 30  1  0  0  0  0
 35 33  1  0  0  0  0
 36 50  1  0  0  0  0
 36  1  1  0  0  0  0
 37 36  1  0  0  0  0
 38 40  1  0  0  0  0
 38 36  1  0  0  0  0
 39 38  1  0  0  0  0
 41 44  1  0  0  0  0
 41 38  1  0  0  0  0
 42 41  1  0  0  0  0
 43 41  1  0  0  0  0
 44 46  1  0  0  0  0
 44 47  1  0  0  0  0
 45 44  1  0  0  0  0
 47 48  1  0  0  0  0
 47 50  1  0  0  0  0
 49 47  1  0  0  0  0
 50 52  1  0  0  0  0
 50 51  1  0  0  0  0
 53 54  1  0  0  0  0
 54 55  1  0  0  0  0
 54 56  2  0  0  0  0
 56 57  1  0  0  0  0
 58 56  1  0  0  0  0
 58 59  1  0  0  0  0
 60 58  2  0  0  0  0
 61 60  1  0  0  0  0
 62 53  2  0  0  0  0
 62 60  1  0  0  0  0
 63 62  1  0  0  0  0
 64 73  1  0  0  0  0
 64  2  1  0  0  0  0
 65 64  2  0  0  0  0
 66 65  1  0  0  0  0
 67 69  2  0  0  0  0
 67 65  1  0  0  0  0
 68 67  1  0  0  0  0
 69 71  1  0  0  0  0
 70 69  1  0  0  0  0
 71 72  1  0  0  0  0
 71 73  2  0  0  0  0
 73 74  1  0  0  0  0
M  END
