1,2
q = 0.0, confidence = 0.994

 57 60  0  0  0  0  0  0  0  0999 V2000
   -0.9217    0.9844   -0.6617 P   0  0  1  0  0  0  0  0  0  0  0  0
    0.9725   -1.7034   -0.0958 P   0  0  0  0  0  0  0  0  0  0  0  0
    0.6465    1.7595   -0.0502 C   0  0  0  0  0  0  0  0  0  0  0  0
    0.6334    3.1030    0.3457 C   0  0  0  0  0  0  0  0  0  0  0  0
    1.8077    3.8584    0.6089 C   0  0  0  0  0  0  0  0  0  0  0  0
    3.0355    3.2599    0.3857 C   0  0  0  0  0  0  0  0  0  0  0  0
    3.0681    1.8954   -0.0138 C   0  0  0  0  0  0  0  0  0  0  0  0
    4.4005    1.4724   -0.2637 C   0  0  0  0  0  0  0  0  0  0  0  0
    4.6155    0.1707   -0.6872 C   0  0  0  0  0  0  0  0  0  0  0  0
    3.5013   -0.7062   -0.7433 C   0  0  0  0  0  0  0  0  0  0  0  0
    2.1796   -0.3283   -0.4519 C   0  0  0  0  0  0  0  0  0  0  0  0
    1.9104    1.0655   -0.1665 C   0  0  0  0  0  0  0  0  0  0  0  0
    4.4496    3.7941    0.4756 C   0  0  0  0  0  0  0  0  0  0  0  0
    5.3525    2.6249   -0.0254 C   0  0  0  0  0  0  0  0  0  0  0  0
   -2.1832    2.3071   -0.4092 C   0  0  0  0  0  0  0  0  0  0  0  0
   -2.7487    2.4512    0.8764 C   0  0  0  0  0  0  0  0  0  0  0  0
   -3.7277    3.4237    1.1177 C   0  0  0  0  0  0  0  0  0  0  0  0
   -4.1716    4.2530    0.0743 C   0  0  0  0  0  0  0  0  0  0  0  0
   -3.6237    4.1088   -1.2086 C   0  0  0  0  0  0  0  0  0  0  0  0
   -2.6301    3.1460   -1.4496 C   0  0  0  0  0  0  0  0  0  0  0  0
   -0.5909    1.0351   -2.4810 C   0  0  0  0  0  0  0  0  0  0  0  0
    1.7433   -2.4140    1.5016 C   0  0  0  0  0  0  0  0  0  0  0  0
    2.9214   -3.3762    1.3377 C   0  0  0  0  0  0  0  0  0  0  0  0
    2.1036   -1.2728    2.4608 C   0  0  0  0  0  0  0  0  0  0  0  0
    1.3849   -2.9800   -1.4215 C   0  0  0  0  0  0  0  0  0  0  0  0
    0.5533   -4.2516   -1.2213 C   0  0  0  0  0  0  0  0  0  0  0  0
    1.2167   -2.4023   -2.8299 C   0  0  0  0  0  0  0  0  0  0  0  0
   -0.3365    3.6149    0.4257 H   0  0  0  0  0  0  0  0  0  0  0  0
    1.7204    4.9072    0.9307 H   0  0  0  0  0  0  0  0  0  0  0  0
    5.6204   -0.2038   -0.9348 H   0  0  0  0  0  0  0  0  0  0  0  0
    3.7046   -1.7559   -0.9979 H   0  0  0  0  0  0  0  0  0  0  0  0
    4.6933    4.0779    1.5214 H   0  0  0  0  0  0  0  0  0  0  0  0
    4.5780    4.7151   -0.1298 H   0  0  0  0  0  0  0  0  0  0  0  0
    5.8854    2.8916   -0.9626 H   0  0  0  0  0  0  0  0  0  0  0  0
    6.1404    2.3557    0.7084 H   0  0  0  0  0  0  0  0  0  0  0  0
   -2.4216    1.7920    1.6937 H   0  0  0  0  0  0  0  0  0  0  0  0
   -4.1574    3.5237    2.1258 H   0  0  0  0  0  0  0  0  0  0  0  0
   -4.9509    5.0072    0.2610 H   0  0  0  0  0  0  0  0  0  0  0  0
   -3.9709    4.7499   -2.0332 H   0  0  0  0  0  0  0  0  0  0  0  0
   -2.2105    3.0536   -2.4612 H   0  0  0  0  0  0  0  0  0  0  0  0
    0.2268    0.3198   -2.6868 H   0  0  0  0  0  0  0  0  0  0  0  0
   -0.2822    2.0427   -2.8199 H   0  0  0  0  0  0  0  0  0  0  0  0
   -1.4944    0.6992   -3.0255 H   0  0  0  0  0  0  0  0  0  0  0  0
    0.8813   -2.9724    1.9245 H   0  0  0  0  0  0  0  0  0  0  0  0
    3.2253   -3.7513    2.3376 H   0  0  0  0  0  0  0  0  0  0  0  0
    3.8088   -2.8723    0.9039 H   0  0  0  0  0  0  0  0  0  0  0  0
    2.6793   -4.2608    0.7179 H   0  0  0  0  0  0  0  0  0  0  0  0
    3.0250   -0.7530    2.1289 H   0  0  0  0  0  0  0  0  0  0  0  0
    2.2895   -1.6793    3.4763 H   0  0  0  0  0  0  0  0  0  0  0  0
    1.3021   -0.5163    2.5459 H   0  0  0  0  0  0  0  0  0  0  0  0
    2.4541   -3.2414   -1.2739 H   0  0  0  0  0  0  0  0  0  0  0  0
    0.8854   -5.0336   -1.9353 H   0  0  0  0  0  0  0  0  0  0  0  0
   -0.5213   -4.0587   -1.4030 H   0  0  0  0  0  0  0  0  0  0  0  0
    0.6423   -4.6667   -0.1983 H   0  0  0  0  0  0  0  0  0  0  0  0
    0.1662   -2.1129   -3.0252 H   0  0  0  0  0  0  0  0  0  0  0  0
    1.4923   -3.1665   -3.5862 H   0  0  0  0  0  0  0  0  0  0  0  0
    1.8613   -1.5164   -2.9950 H   0  0  0  0  0  0  0  0  0  0  0  0
  1 21  1  6  0  0  0
  1 15  1  0  0  0  0
  1  3  1  0  0  0  0
  2 22  1  0  0  0  0
  3  4  1  0  0  0  0
  4 28  1  0  0  0  0
  4  5  2  0  0  0  0
  5 29  1  0  0  0  0
  6 13  1  0  0  0  0
  6  5  1  0  0  0  0
  7  6  2  0  0  0  0
  8 14  1  0  0  0  0
  8  7  1  0  0  0  0
  9  8  2  0  0  0  0
 10  9  1  0  0  0  0
 10 11  2  0  0  0  0
 11 12  1  0  0  0  0
 11  2  1  0  0  0  0
 12  3  2  0  0  0  0
 12  7  1  0  0  0  0
 13 32  1  0  0  0  0
 14 13  1  0  0  0  0
 14 35  1  0  0  0  0
 15 16  1  0  0  0  0
 16 17  2  0  0  0  0
 16 36  1  0  0  0  0
 17 37  1  0  0  0  0
 18 38  1  0  0  0  0
 18 17  1  0  0  0  0
 19 18  2  0  0  0  0
 20 19  1  0  0  0  0
 20 15  2  0  0  0  0
 22 44  1  0  0  0  0
 22 24  1  0  0  0  0
 23 22  1  0  0  0  0
 23 45  1  0  0  0  0
 24 50  1  0  0  0  0
 24 49  1  0  0  0  0
 25 51  1  0  0  0  0
 25 26  1  0  0  0  0
 25  2  1  0  0  0  0
 26 54  1  0  0  0  0
 27 25  1  0  0  0  0
 30  9  1  0  0  0  0
 31 10  1  0  0  0  0
 33 13  1  0  0  0  0
 34 14  1  0  0  0  0
 39 19  1  0  0  0  0
 40 20  1  0  0  0  0
 41 21  1  0  0  0  0
 42 21  1  0  0  0  0
 43 21  1  0  0  0  0
 46 23  1  0  0  0  0
 47 23  1  0  0  0  0
 48 24  1  0  0  0  0
 52 26  1  0  0  0  0
 53 26  1  0  0  0  0
 55 27  1  0  0  0  0
 56 27  1  0  0  0  0
 57 27  1  0  0  0  0
M  END
