1,2
q = 0.0, confidence = 0.992

 63 66  0  0  0  0  0  0  0  0999 V2000
    0.4402    1.5407   -0.0457 P   0  0  0  0  0  0  0  0  0  0  0  0
    0.3984   -1.5126   -0.0086 P   0  0  0  0  0  0  0  0  0  0  0  0
    6.2749   -0.1107   -1.0995 O   0  0  0  0  0  0  0  0  0  0  0  0
    4.3946   -0.1007   -2.3725 O   0  0  0  0  0  0  0  0  0  0  0  0
    2.7646    0.0170   -0.0265 N   0  0  0  0  0  0  0  0  0  0  0  0
    2.1927    1.2128   -0.6208 C   0  0  0  0  0  0  0  0  0  0  0  0
    2.1570    1.1837   -1.7366 H   0  0  0  0  0  0  0  0  0  0  0  0
    2.8119    2.0891   -0.3433 H   0  0  0  0  0  0  0  0  0  0  0  0
    4.2070    0.0180    0.0614 C   0  0  0  0  0  0  0  0  0  0  0  0
    4.5521   -0.8281    0.6956 H   0  0  0  0  0  0  0  0  0  0  0  0
    4.5564    0.9375    0.5804 H   0  0  0  0  0  0  0  0  0  0  0  0
    4.9359   -0.0711   -1.2836 C   0  0  0  0  0  0  0  0  0  0  0  0
    7.0615   -0.1906   -2.2983 C   0  0  0  0  0  0  0  0  0  0  0  0
    6.8123   -1.1066   -2.8706 H   0  0  0  0  0  0  0  0  0  0  0  0
    8.1163   -0.2130   -1.9727 H   0  0  0  0  0  0  0  0  0  0  0  0
    6.8747    0.6868   -2.9496 H   0  0  0  0  0  0  0  0  0  0  0  0
    2.1940   -1.2452   -0.4691 C   0  0  0  0  0  0  0  0  0  0  0  0
    2.7674   -2.0804   -0.0168 H   0  0  0  0  0  0  0  0  0  0  0  0
    2.2304   -1.3828   -1.5778 H   0  0  0  0  0  0  0  0  0  0  0  0
    0.2126    3.2562   -0.6774 C   0  0  0  0  0  0  0  0  0  0  0  0
    0.0935    3.4453   -2.0713 C   0  0  0  0  0  0  0  0  0  0  0  0
    0.1143    2.5817   -2.7526 H   0  0  0  0  0  0  0  0  0  0  0  0
   -0.0709    4.7358   -2.5933 C   0  0  0  0  0  0  0  0  0  0  0  0
   -0.1595    4.8741   -3.6815 H   0  0  0  0  0  0  0  0  0  0  0  0
   -0.1409    5.8430   -1.7324 C   0  0  0  0  0  0  0  0  0  0  0  0
   -0.2819    6.8540   -2.1443 H   0  0  0  0  0  0  0  0  0  0  0  0
   -0.0432    5.6559   -0.3451 C   0  0  0  0  0  0  0  0  0  0  0  0
   -0.1108    6.5186    0.3352 H   0  0  0  0  0  0  0  0  0  0  0  0
    0.1347    4.3681    0.1836 C   0  0  0  0  0  0  0  0  0  0  0  0
    0.2055    4.2251    1.2719 H   0  0  0  0  0  0  0  0  0  0  0  0
    0.6160    1.7337    1.7776 C   0  0  0  0  0  0  0  0  0  0  0  0
    1.8129    2.1640    2.3857 C   0  0  0  0  0  0  0  0  0  0  0  0
    2.6846    2.4355    1.7723 H   0  0  0  0  0  0  0  0  0  0  0  0
    1.9028    2.2558    3.7824 C   0  0  0  0  0  0  0  0  0  0  0  0
    2.8419    2.5913    4.2487 H   0  0  0  0  0  0  0  0  0  0  0  0
    0.7991    1.9195    4.5830 C   0  0  0  0  0  0  0  0  0  0  0  0
    0.8741    1.9851    5.6792 H   0  0  0  0  0  0  0  0  0  0  0  0
   -0.3959    1.4939    3.9830 C   0  0  0  0  0  0  0  0  0  0  0  0
   -1.2616    1.2203    4.6043 H   0  0  0  0  0  0  0  0  0  0  0  0
   -0.4870    1.3963    2.5874 C   0  0  0  0  0  0  0  0  0  0  0  0
   -1.4156    1.0488    2.1070 H   0  0  0  0  0  0  0  0  0  0  0  0
    0.2248   -3.2309   -0.6588 C   0  0  0  0  0  0  0  0  0  0  0  0
    0.4552   -4.3598    0.1529 C   0  0  0  0  0  0  0  0  0  0  0  0
    0.6998   -4.2294    1.2178 H   0  0  0  0  0  0  0  0  0  0  0  0
    0.3627   -5.6493   -0.3920 C   0  0  0  0  0  0  0  0  0  0  0  0
    0.5374   -6.5260    0.2504 H   0  0  0  0  0  0  0  0  0  0  0  0
    0.0454   -5.8212   -1.7487 C   0  0  0  0  0  0  0  0  0  0  0  0
   -0.0303   -6.8340   -2.1731 H   0  0  0  0  0  0  0  0  0  0  0  0
   -0.1805   -4.6990   -2.5611 C   0  0  0  0  0  0  0  0  0  0  0  0
   -0.4347   -4.8270   -3.6241 H   0  0  0  0  0  0  0  0  0  0  0  0
   -0.0979   -3.4076   -2.0205 C   0  0  0  0  0  0  0  0  0  0  0  0
   -0.2916   -2.5340   -2.6592 H   0  0  0  0  0  0  0  0  0  0  0  0
    0.3935   -1.7291    1.8194 C   0  0  0  0  0  0  0  0  0  0  0  0
   -0.8144   -2.1299    2.4309 C   0  0  0  0  0  0  0  0  0  0  0  0
   -1.7015   -2.3142    1.8030 H   0  0  0  0  0  0  0  0  0  0  0  0
   -0.8858   -2.2727    3.8229 C   0  0  0  0  0  0  0  0  0  0  0  0
   -1.8301   -2.5941    4.2885 H   0  0  0  0  0  0  0  0  0  0  0  0
    0.2359   -1.9922    4.6208 C   0  0  0  0  0  0  0  0  0  0  0  0
    0.1740   -2.0900    5.7155 H   0  0  0  0  0  0  0  0  0  0  0  0
    1.4312   -1.5717    4.0186 C   0  0  0  0  0  0  0  0  0  0  0  0
    2.3072   -1.3293    4.6390 H   0  0  0  0  0  0  0  0  0  0  0  0
    1.5145   -1.4424    2.6239 C   0  0  0  0  0  0  0  0  0  0  0  0
    2.4407   -1.0730    2.1638 H   0  0  0  0  0  0  0  0  0  0  0  0
  1 31  1  0  0  0  0
  2 53  1  0  0  0  0
  4 12  2  0  0  0  0
  5  9  1  0  0  0  0
  6  8  1  0  0  0  0
  6  1  1  0  0  0  0
  6  5  1  0  0  0  0
  7  6  1  0  0  0  0
  9 11  1  0  0  0  0
  9 10  1  0  0  0  0
 12  3  1  0  0  0  0
 12  9  1  0  0  0  0
 13 15  1  0  0  0  0
 13  3  1  0  0  0  0
 14 13  1  0  0  0  0
 16 13  1  0  0  0  0
 17  5  1  0  0  0  0
 17 18  1  0  0  0  0
 17  2  1  0  0  0  0
 19 17  1  0  0  0  0
 20  1  1  0  0  0  0
 20 29  1  0  0  0  0
 21 20  2  0  0  0  0
 22 21  1  0  0  0  0
 23 21  1  0  0  0  0
 23 25  2  0  0  0  0
 24 23  1  0  0  0  0
 25 27  1  0  0  0  0
 26 25  1  0  0  0  0
 27 29  2  0  0  0  0
 27 28  1  0  0  0  0
 29 30  1  0  0  0  0
 31 32  2  0  0  0  0
 31 40  1  0  0  0  0
 32 34  1  0  0  0  0
 33 32  1  0  0  0  0
 34 35  1  0  0  0  0
 34 36  2  0  0  0  0
 36 37  1  0  0  0  0
 38 36  1  0  0  0  0
 38 39  1  0  0  0  0
 40 38  2  0  0  0  0
 41 40  1  0  0  0  0
 42  2  1  0  0  0  0
 42 43  1  0  0  0  0
 43 44  1  0  0  0  0
 45 43  2  0  0  0  0
 45 46  1  0  0  0  0
 47 45  1  0  0  0  0
 48 47  1  0  0  0  0
 49 51  1  0  0  0  0
 49 47  2  0  0  0  0
 50 49  1  0  0  0  0
 51 42  2  0  0  0  0
 52 51  1  0  0  0  0
 53 54  2  0  0  0  0
 53 62  1  0  0  0  0
 54 56  1  0  0  0  0
 55 54  1  0  0  0  0
 56 57  1  0  0  0  0
 56 58  2  0  0  0  0
 58 59  1  0  0  0  0
 60 58  1  0  0  0  0
 60 61  1  0  0  0  0
 62 60  2  0  0  0  0
 63 62  1  0  0  0  0
M  END
