1,2
q = 0.0, confidence = 0.998

 67 66  0  0  0  0  0  0  0  0999 V2000
    2.3154    0.0606    0.2232 P   0  0  0  0  0  0  0  0  0  0  0  0
   -2.3194    0.0514    0.2240 P   0  0  0  0  0  0  0  0  0  0  0  0
   -0.0061   -0.5116    2.0477 O   0  0  0  0  0  0  0  0  0  0  0  0
    2.3908   -0.3016    2.0698 C   0  0  0  0  0  0  0  0  0  0  0  0
    3.3413   -0.7906    2.3639 H   0  0  0  0  0  0  0  0  0  0  0  0
    2.3396    0.6673    2.6059 H   0  0  0  0  0  0  0  0  0  0  0  0
    1.2090   -1.1663    2.4808 C   0  0  0  0  0  0  0  0  0  0  0  0
    1.2537   -2.1752    2.0175 H   0  0  0  0  0  0  0  0  0  0  0  0
    1.1580   -1.2777    3.5875 H   0  0  0  0  0  0  0  0  0  0  0  0
   -1.2083   -1.2007    2.4655 C   0  0  0  0  0  0  0  0  0  0  0  0
   -1.1598   -1.3272    3.5706 H   0  0  0  0  0  0  0  0  0  0  0  0
   -1.2273   -2.2028    1.9857 H   0  0  0  0  0  0  0  0  0  0  0  0
   -2.4069   -0.3568    2.0608 C   0  0  0  0  0  0  0  0  0  0  0  0
   -2.3885    0.5995    2.6206 H   0  0  0  0  0  0  0  0  0  0  0  0
   -3.3476   -0.8774    2.3300 H   0  0  0  0  0  0  0  0  0  0  0  0
    3.0055    1.8482    0.1180 C   0  0  0  0  0  0  0  0  0  0  0  0
    4.2219    2.1299    1.0137 C   0  0  0  0  0  0  0  0  0  0  0  0
    4.4909    3.2050    0.9272 H   0  0  0  0  0  0  0  0  0  0  0  0
    5.1129    1.5440    0.7269 H   0  0  0  0  0  0  0  0  0  0  0  0
    4.0119    1.9362    2.0847 H   0  0  0  0  0  0  0  0  0  0  0  0
    1.8281    2.7349    0.5660 C   0  0  0  0  0  0  0  0  0  0  0  0
    2.1432    3.8007    0.5759 H   0  0  0  0  0  0  0  0  0  0  0  0
    1.4542    2.4855    1.5804 H   0  0  0  0  0  0  0  0  0  0  0  0
    0.9912    2.6421   -0.1544 H   0  0  0  0  0  0  0  0  0  0  0  0
    3.3087    2.1854   -1.3530 C   0  0  0  0  0  0  0  0  0  0  0  0
    3.5149    3.2739   -1.4407 H   0  0  0  0  0  0  0  0  0  0  0  0
    2.4397    1.9460   -2.0002 H   0  0  0  0  0  0  0  0  0  0  0  0
    4.1982    1.6509   -1.7369 H   0  0  0  0  0  0  0  0  0  0  0  0
    3.5510   -1.1728   -0.5781 C   0  0  0  0  0  0  0  0  0  0  0  0
    5.0281   -0.7844   -0.4156 C   0  0  0  0  0  0  0  0  0  0  0  0
    5.6562   -1.5886   -0.8564 H   0  0  0  0  0  0  0  0  0  0  0  0
    5.3225   -0.6901    0.6497 H   0  0  0  0  0  0  0  0  0  0  0  0
    5.2899    0.1554   -0.9367 H   0  0  0  0  0  0  0  0  0  0  0  0
    3.1649   -1.2620   -2.0670 C   0  0  0  0  0  0  0  0  0  0  0  0
    3.8173   -2.0080   -2.5696 H   0  0  0  0  0  0  0  0  0  0  0  0
    3.2842   -0.2958   -2.5921 H   0  0  0  0  0  0  0  0  0  0  0  0
    2.1101   -1.5785   -2.1806 H   0  0  0  0  0  0  0  0  0  0  0  0
    3.3514   -2.5556    0.0740 C   0  0  0  0  0  0  0  0  0  0  0  0
    3.9803   -3.2924   -0.4704 H   0  0  0  0  0  0  0  0  0  0  0  0
    2.2989   -2.8898    0.0058 H   0  0  0  0  0  0  0  0  0  0  0  0
    3.6794   -2.5739    1.1332 H   0  0  0  0  0  0  0  0  0  0  0  0
   -3.0071    1.8418    0.1670 C   0  0  0  0  0  0  0  0  0  0  0  0
   -4.2523    2.0941    1.0316 C   0  0  0  0  0  0  0  0  0  0  0  0
   -4.5035    3.1763    0.9923 H   0  0  0  0  0  0  0  0  0  0  0  0
   -4.0852    1.8411    2.0978 H   0  0  0  0  0  0  0  0  0  0  0  0
   -5.1395    1.5383    0.6814 H   0  0  0  0  0  0  0  0  0  0  0  0
   -1.8474    2.7099    0.6907 C   0  0  0  0  0  0  0  0  0  0  0  0
   -2.1554    3.7777    0.7030 H   0  0  0  0  0  0  0  0  0  0  0  0
   -0.9709    2.6267    0.0187 H   0  0  0  0  0  0  0  0  0  0  0  0
   -1.5296    2.4403    1.7187 H   0  0  0  0  0  0  0  0  0  0  0  0
   -3.2615    2.2299   -1.3005 C   0  0  0  0  0  0  0  0  0  0  0  0
   -3.4702    3.3199   -1.3584 H   0  0  0  0  0  0  0  0  0  0  0  0
   -4.1351    1.7046   -1.7314 H   0  0  0  0  0  0  0  0  0  0  0  0
   -2.3711    2.0139   -1.9271 H   0  0  0  0  0  0  0  0  0  0  0  0
   -3.5464   -1.1609   -0.6215 C   0  0  0  0  0  0  0  0  0  0  0  0
   -3.1354   -1.2203   -2.1052 C   0  0  0  0  0  0  0  0  0  0  0  0
   -3.7871   -1.9472   -2.6359 H   0  0  0  0  0  0  0  0  0  0  0  0
   -2.0821   -1.5450   -2.2086 H   0  0  0  0  0  0  0  0  0  0  0  0
   -3.2344   -0.2408   -2.6097 H   0  0  0  0  0  0  0  0  0  0  0  0
   -3.3616   -2.5569    0.0061 C   0  0  0  0  0  0  0  0  0  0  0  0
   -3.9785   -3.2820   -0.5669 H   0  0  0  0  0  0  0  0  0  0  0  0
   -3.7120   -2.5969    1.0574 H   0  0  0  0  0  0  0  0  0  0  0  0
   -2.3079   -2.8904   -0.0461 H   0  0  0  0  0  0  0  0  0  0  0  0
   -5.0246   -0.7696   -0.4786 C   0  0  0  0  0  0  0  0  0  0  0  0
   -5.6474   -1.5621   -0.9471 H   0  0  0  0  0  0  0  0  0  0  0  0
   -5.2712    0.1814   -0.9869 H   0  0  0  0  0  0  0  0  0  0  0  0
   -5.3386   -0.6942    0.5825 H   0  0  0  0  0  0  0  0  0  0  0  0
  1  4  1  0  0  0  0
  2 13  1  0  0  0  0
  3 10  1  0  0  0  0
  3  7  1  0  0  0  0
  4  5  1  0  0  0  0
  4  7  1  0  0  0  0
  4  6  1  0  0  0  0
  7  9  1  0  0  0  0
  8  7  1  0  0  0  0
 10 11  1  0  0  0  0
 12 10  1  0  0  0  0
 13 15  1  0  0  0  0
 13 10  1  0  0  0  0
 13 14  1  0  0  0  0
 16  1  1  0  0  0  0
 16 21  1  0  0  0  0
 16 17  1  0  0  0  0
 17 20  1  0  0  0  0
 18 17  1  0  0  0  0
 19 17  1  0  0  0  0
 21 22  1  0  0  0  0
 21 23  1  0  0  0  0
 24 21  1  0  0  0  0
 25 16  1  0  0  0  0
 26 25  1  0  0  0  0
 27 25  1  0  0  0  0
 28 25  1  0  0  0  0
 29 30  1  0  0  0  0
 29 38  1  0  0  0  0
 29  1  1  0  0  0  0
 30 32  1  0  0  0  0
 31 30  1  0  0  0  0
 33 30  1  0  0  0  0
 34 29  1  0  0  0  0
 35 34  1  0  0  0  0
 36 34  1  0  0  0  0
 37 34  1  0  0  0  0
 38 41  1  0  0  0  0
 39 38  1  0  0  0  0
 40 38  1  0  0  0  0
 42  2  1  0  0  0  0
 42 47  1  0  0  0  0
 42 43  1  0  0  0  0
 43 45  1  0  0  0  0
 44 43  1  0  0  0  0
 46 43  1  0  0  0  0
 47 48  1  0  0  0  0
 47 50  1  0  0  0  0
 49 47  1  0  0  0  0
 51 42  1  0  0  0  0
 52 51  1  0  0  0  0
 53 51  1  0  0  0  0
 54 51  1  0  0  0  0
 55 64  1  0  0  0  0
 55 60  1  0  0  0  0
 55  2  1  0  0  0  0
 56 55  1  0  0  0  0
 57 56  1  0  0  0  0
 58 56  1  0  0  0  0
 59 56  1  0  0  0  0
 60 62  1  0  0  0  0
 61 60  1  0  0  0  0
 63 60  1  0  0  0  0
 64 67  1  0  0  0  0
 65 64  1  0  0  0  0
 66 64  1  0  0  0  0
M  END
