1,2
q = 0.0, confidence = 0.934

 42 43  0  0  0  0  0  0  0  0999 V2000
   -1.5752   -0.7885    1.2438 P   0  0  0  0  0  2  0  0  0  0  0  0
   -1.9103    1.3360    1.5814 P   0  0  0  0  0  2  0  0  0  0  0  0
    0.3288   -0.7954    3.5023 C   0  0  0  0  0  0  0  0  0  0  0  0
    1.3851   -1.4326    4.1801 C   0  0  0  0  0  0  0  0  0  0  0  0
    1.9548   -2.6368    3.7383 C   0  0  0  0  0  0  0  0  0  0  0  0
    1.4060   -3.2332    2.5890 C   0  0  0  0  0  0  0  0  0  0  0  0
    0.3436   -2.6518    1.8825 C   0  0  0  0  0  0  0  0  0  0  0  0
   -0.1986   -1.3987    2.3207 C   0  0  0  0  0  0  0  0  0  0  0  0
    1.7826   -0.9562    5.0912 H   0  0  0  0  0  0  0  0  0  0  0  0
    1.8188   -4.1888    2.2259 H   0  0  0  0  0  0  0  0  0  0  0  0
   -0.1735    0.5056    4.0688 C   0  0  0  0  0  0  0  0  0  0  0  0
    0.2951    0.7100    5.0507 H   0  0  0  0  0  0  0  0  0  0  0  0
    0.0703    1.3541    3.3956 H   0  0  0  0  0  0  0  0  0  0  0  0
   -1.2737    0.5116    4.1986 H   0  0  0  0  0  0  0  0  0  0  0  0
    3.1210   -3.2655    4.4552 C   0  0  0  0  0  0  0  0  0  0  0  0
    3.2742   -2.8221    5.4582 H   0  0  0  0  0  0  0  0  0  0  0  0
    2.9829   -4.3593    4.5761 H   0  0  0  0  0  0  0  0  0  0  0  0
    4.0620   -3.1239    3.8808 H   0  0  0  0  0  0  0  0  0  0  0  0
   -0.1775   -3.3541    0.6541 C   0  0  0  0  0  0  0  0  0  0  0  0
    0.3458   -4.3158    0.4925 H   0  0  0  0  0  0  0  0  0  0  0  0
   -1.2665   -3.5565    0.7228 H   0  0  0  0  0  0  0  0  0  0  0  0
   -0.0298   -2.7356   -0.2521 H   0  0  0  0  0  0  0  0  0  0  0  0
   -4.6546    0.7423    1.1350 C   0  0  0  0  0  0  0  0  0  0  0  0
   -5.8704    0.8339    0.4328 C   0  0  0  0  0  0  0  0  0  0  0  0
   -5.9911    1.5436   -0.7741 C   0  0  0  0  0  0  0  0  0  0  0  0
   -4.8514    2.2111   -1.2543 C   0  0  0  0  0  0  0  0  0  0  0  0
   -3.6170    2.1591   -0.5835 C   0  0  0  0  0  0  0  0  0  0  0  0
   -3.4972    1.3811    0.6006 C   0  0  0  0  0  0  0  0  0  0  0  0
   -6.7585    0.3331    0.8527 H   0  0  0  0  0  0  0  0  0  0  0  0
   -4.9238    2.8036   -2.1813 H   0  0  0  0  0  0  0  0  0  0  0  0
   -4.6283   -0.0110    2.4436 C   0  0  0  0  0  0  0  0  0  0  0  0
   -4.0834    0.5541    3.2289 H   0  0  0  0  0  0  0  0  0  0  0  0
   -5.6560   -0.2097    2.8047 H   0  0  0  0  0  0  0  0  0  0  0  0
   -4.1053   -0.9858    2.3441 H   0  0  0  0  0  0  0  0  0  0  0  0
   -7.2934    1.5764   -1.5331 C   0  0  0  0  0  0  0  0  0  0  0  0
   -8.1651    1.4954   -0.8538 H   0  0  0  0  0  0  0  0  0  0  0  0
   -7.3997    2.5075   -2.1243 H   0  0  0  0  0  0  0  0  0  0  0  0
   -7.3589    0.7275   -2.2482 H   0  0  0  0  0  0  0  0  0  0  0  0
   -2.4595    2.9630   -1.1103 C   0  0  0  0  0  0  0  0  0  0  0  0
   -2.3090    3.8901   -0.5157 H   0  0  0  0  0  0  0  0  0  0  0  0
   -1.5142    2.3891   -1.0336 H   0  0  0  0  0  0  0  0  0  0  0  0
   -2.6007    3.2515   -2.1697 H   0  0  0  0  0  0  0  0  0  0  0  0
  1  2  1  0  0  0  0
  1  8  1  0  0  0  0
  3 11  1  0  0  0  0
  3  4  1  0  0  0  0
  4  9  1  0  0  0  0
  5  4  2  0  0  0  0
  5 15  1  0  0  0  0
  6  5  1  0  0  0  0
  7  8  1  0  0  0  0
  7  6  2  0  0  0  0
  8  3  2  0  0  0  0
 10  6  1  0  0  0  0
 11 14  1  0  0  0  0
 11 12  1  0  0  0  0
 13 11  1  0  0  0  0
 15 17  1  0  0  0  0
 15 16  1  0  0  0  0
 18 15  1  0  0  0  0
 19 21  1  0  0  0  0
 19  7  1  0  0  0  0
 20 19  1  0  0  0  0
 22 19  1  0  0  0  0
 23 31  1  0  0  0  0
 24 29  1  0  0  0  0
 24 23  2  0  0  0  0
 25 24  1  0  0  0  0
 26 25  2  0  0  0  0
 26 27  1  0  0  0  0
 27 28  2  0  0  0  0
 28 23  1  0  0  0  0
 28  2  1  0  0  0  0
 30 26  1  0  0  0  0
 31 33  1  0  0  0  0
 31 32  1  0  0  0  0
 34 31  1  0  0  0  0
 35 36  1  0  0  0  0
 35 25  1  0  0  0  0
 37 35  1  0  0  0  0
 38 35  1  0  0  0  0
 39 41  1  0  0  0  0
 39 27  1  0  0  0  0
 39 40  1  0  0  0  0
 42 39  1  0  0  0  0
M  END
