2
q = 0.0, confidence = 0.988

 81 86  0  0  1  0  0  0  0  0999 V2000
   -1.5789   -0.4439   -0.0101 P   0  0  1  0  0  0  0  0  0  0  0  0
    1.3966    0.0472   -0.0121 P   0  0  0  0  0  0  0  0  0  0  0  0
   -3.6043    1.2321   -0.6974 O   0  0  0  0  0  0  0  0  0  0  0  0
   -5.3529    0.0120    0.3239 O   0  0  0  0  0  0  0  0  0  0  0  0
   -3.8254   -1.6297    1.0837 O   0  0  0  0  0  0  0  0  0  0  0  0
   -0.7073   -0.8906    1.5622 C   0  0  0  0  0  0  0  0  0  0  0  0
    0.6882   -0.6444    1.5683 C   0  0  0  0  0  0  0  0  0  0  0  0
    1.4676   -1.1032    2.6472 C   0  0  0  0  0  0  0  0  0  0  0  0
    2.5595   -1.0003    2.6132 H   0  0  0  0  0  0  0  0  0  0  0  0
    0.8733   -1.7639    3.7311 C   0  0  0  0  0  0  0  0  0  0  0  0
    1.5008   -2.1289    4.5582 H   0  0  0  0  0  0  0  0  0  0  0  0
   -0.5113   -1.9845    3.7383 C   0  0  0  0  0  0  0  0  0  0  0  0
   -0.9837   -2.5226    4.5742 H   0  0  0  0  0  0  0  0  0  0  0  0
   -1.2972   -1.5586    2.6581 C   0  0  0  0  0  0  0  0  0  0  0  0
   -2.3688   -1.7940    2.6279 H   0  0  0  0  0  0  0  0  0  0  0  0
   -3.0732   -1.6403   -0.1434 C   0  0  1  0  0  0  0  0  0  0  0  0
   -4.6046    0.2132   -0.8810 C   0  0  2  0  0  0  0  0  0  0  0  0
   -4.5179   -0.4049    1.3946 C   0  0  1  0  0  0  0  0  0  0  0  0
   -2.7167    1.0608    0.4070 C   0  0  1  0  0  0  0  0  0  0  0  0
   -3.9676   -1.1207   -1.2699 C   0  0  0  0  0  0  0  0  0  0  0  0
   -3.3761   -1.0170   -2.2020 H   0  0  0  0  0  0  0  0  0  0  0  0
   -4.7794   -1.8615   -1.4257 H   0  0  0  0  0  0  0  0  0  0  0  0
   -3.5210    0.7305    1.6707 C   0  0  0  0  0  0  0  0  0  0  0  0
   -2.8547    0.4881    2.5197 H   0  0  0  0  0  0  0  0  0  0  0  0
   -4.1056    1.6341    1.9421 H   0  0  0  0  0  0  0  0  0  0  0  0
   -2.5758   -3.0536   -0.3879 C   0  0  0  0  0  0  0  0  0  0  0  0
   -2.0148   -3.0681   -1.3431 H   0  0  0  0  0  0  0  0  0  0  0  0
   -1.9127   -3.3973    0.4302 H   0  0  0  0  0  0  0  0  0  0  0  0
   -3.4407   -3.7438   -0.4578 H   0  0  0  0  0  0  0  0  0  0  0  0
   -5.5559    0.7542   -1.9273 C   0  0  0  0  0  0  0  0  0  0  0  0
   -5.0018    0.9355   -2.8670 H   0  0  0  0  0  0  0  0  0  0  0  0
   -6.3693    0.0283   -2.1116 H   0  0  0  0  0  0  0  0  0  0  0  0
   -5.9898    1.7056   -1.5661 H   0  0  0  0  0  0  0  0  0  0  0  0
   -5.4169   -0.7235    2.5735 C   0  0  0  0  0  0  0  0  0  0  0  0
   -4.8118   -1.0245    3.4497 H   0  0  0  0  0  0  0  0  0  0  0  0
   -6.0219    0.1645    2.8342 H   0  0  0  0  0  0  0  0  0  0  0  0
   -6.0927   -1.5536    2.2947 H   0  0  0  0  0  0  0  0  0  0  0  0
   -1.9353    2.3516    0.5512 C   0  0  0  0  0  0  0  0  0  0  0  0
   -1.1274    2.2526    1.3015 H   0  0  0  0  0  0  0  0  0  0  0  0
   -1.4878    2.6373   -0.4153 H   0  0  0  0  0  0  0  0  0  0  0  0
   -2.6239    3.1614    0.8678 H   0  0  0  0  0  0  0  0  0  0  0  0
    1.5570    1.8908    0.2083 C   0  0  0  0  0  0  0  0  0  0  0  0
    2.1258    2.4671    1.3842 C   0  0  0  0  0  0  0  0  0  0  0  0
    2.1180    3.8655    1.5409 C   0  0  0  0  0  0  0  0  0  0  0  0
    2.5605    4.2896    2.4569 H   0  0  0  0  0  0  0  0  0  0  0  0
    1.5958    4.7306    0.5687 C   0  0  0  0  0  0  0  0  0  0  0  0
    1.0979    4.1480   -0.6054 C   0  0  0  0  0  0  0  0  0  0  0  0
    0.7143    4.8011   -1.4053 H   0  0  0  0  0  0  0  0  0  0  0  0
    1.0608    2.7563   -0.8180 C   0  0  0  0  0  0  0  0  0  0  0  0
    2.8023    1.6753    2.4732 C   0  0  0  0  0  0  0  0  0  0  0  0
    3.3979    0.8353    2.0678 H   0  0  0  0  0  0  0  0  0  0  0  0
    2.0710    1.2507    3.1894 H   0  0  0  0  0  0  0  0  0  0  0  0
    3.4862    2.3284    3.0481 H   0  0  0  0  0  0  0  0  0  0  0  0
    1.5651    6.2218    0.7765 C   0  0  0  0  0  0  0  0  0  0  0  0
    1.7023    6.7694   -0.1768 H   0  0  0  0  0  0  0  0  0  0  0  0
    2.3477    6.5533    1.4867 H   0  0  0  0  0  0  0  0  0  0  0  0
    0.5858    6.5399    1.1950 H   0  0  0  0  0  0  0  0  0  0  0  0
    0.5036    2.2989   -2.1394 C   0  0  0  0  0  0  0  0  0  0  0  0
    1.2237    1.6894   -2.7209 H   0  0  0  0  0  0  0  0  0  0  0  0
    0.2009    3.1699   -2.7515 H   0  0  0  0  0  0  0  0  0  0  0  0
   -0.4007    1.6546   -2.0251 H   0  0  0  0  0  0  0  0  0  0  0  0
    3.0429   -0.7865   -0.0834 C   0  0  0  0  0  0  0  0  0  0  0  0
    3.0358   -2.2060    0.0627 C   0  0  0  0  0  0  0  0  0  0  0  0
    4.2642   -2.8841    0.1444 C   0  0  0  0  0  0  0  0  0  0  0  0
    4.2495   -3.9805    0.2572 H   0  0  0  0  0  0  0  0  0  0  0  0
    5.4970   -2.2196    0.0452 C   0  0  0  0  0  0  0  0  0  0  0  0
    5.4682   -0.8431   -0.2325 C   0  0  0  0  0  0  0  0  0  0  0  0
    6.4171   -0.3140   -0.4179 H   0  0  0  0  0  0  0  0  0  0  0  0
    4.2707   -0.1105   -0.3341 C   0  0  0  0  0  0  0  0  0  0  0  0
    1.7710   -3.0330    0.0421 C   0  0  0  0  0  0  0  0  0  0  0  0
    0.9621   -2.5116   -0.5130 H   0  0  0  0  0  0  0  0  0  0  0  0
    1.3900   -3.2650    1.0575 H   0  0  0  0  0  0  0  0  0  0  0  0
    1.9630   -3.9922   -0.4764 H   0  0  0  0  0  0  0  0  0  0  0  0
    6.8004   -2.9606    0.1918 C   0  0  0  0  0  0  0  0  0  0  0  0
    6.7076   -4.0178   -0.1265 H   0  0  0  0  0  0  0  0  0  0  0  0
    7.1353   -2.9677    1.2519 H   0  0  0  0  0  0  0  0  0  0  0  0
    7.6085   -2.4883   -0.4009 H   0  0  0  0  0  0  0  0  0  0  0  0
    4.3617    1.3168   -0.8168 C   0  0  0  0  0  0  0  0  0  0  0  0
    3.6187    1.4978   -1.6174 H   0  0  0  0  0  0  0  0  0  0  0  0
    5.3682    1.5034   -1.2374 H   0  0  0  0  0  0  0  0  0  0  0  0
    4.1843    2.0705   -0.0259 H   0  0  0  0  0  0  0  0  0  0  0  0
  1 19  1  0  0  0  0
  1  6  1  1  0  0  0
  2 42  1  0  0  0  0
  2  7  1  0  0  0  0
  3 19  1  0  0  0  0
  4 18  1  0  0  0  0
  5 18  1  0  0  0  0
  6  7  2  0  0  0  0
  6 14  1  0  0  0  0
  7  8  1  0  0  0  0
  8 10  2  0  0  0  0
  9  8  1  0  0  0  0
 10 12  1  0  0  0  0
 10 11  1  0  0  0  0
 12 13  1  0  0  0  0
 14 12  2  0  0  0  0
 15 14  1  0  0  0  0
 16 26  1  6  0  0  0
 16  1  1  0  0  0  0
 16  5  1  0  0  0  0
 17 30  1  6  0  0  0
 17  3  1  0  0  0  0
 17  4  1  0  0  0  0
 18 23  1  0  0  0  0
 18 34  1  1  0  0  0
 19 38  1  1  0  0  0
 19 23  1  0  0  0  0
 20 17  1  0  0  0  0
 20 16  1  0  0  0  0
 21 20  1  0  0  0  0
 22 20  1  0  0  0  0
 23 25  1  0  0  0  0
 23 24  1  0  0  0  0
 26 28  1  0  0  0  0
 27 26  1  0  0  0  0
 29 26  1  0  0  0  0
 30 33  1  0  0  0  0
 31 30  1  0  0  0  0
 32 30  1  0  0  0  0
 34 36  1  0  0  0  0
 34 35  1  0  0  0  0
 37 34  1  0  0  0  0
 38 41  1  0  0  0  0
 38 39  1  0  0  0  0
 40 38  1  0  0  0  0
 42 43  1  0  0  0  0
 43 44  2  0  0  0  0
 43 50  1  0  0  0  0
 44 45  1  0  0  0  0
 46 54  1  0  0  0  0
 46 44  1  0  0  0  0
 47 46  2  0  0  0  0
 48 47  1  0  0  0  0
 49 47  1  0  0  0  0
 49 42  2  0  0  0  0
 50 53  1  0  0  0  0
 50 52  1  0  0  0  0
 51 50  1  0  0  0  0
 54 57  1  0  0  0  0
 54 56  1  0  0  0  0
 55 54  1  0  0  0  0
 58 61  1  0  0  0  0
 58 49  1  0  0  0  0
 59 58  1  0  0  0  0
 60 58  1  0  0  0  0
 62  2  1  0  0  0  0
 62 63  1  0  0  0  0
 63 64  2  0  0  0  0
 64 65  1  0  0  0  0
 66 64  1  0  0  0  0
 66 74  1  0  0  0  0
 67 66  2  0  0  0  0
 68 67  1  0  0  0  0
 69 67  1  0  0  0  0
 69 62  2  0  0  0  0
 70 63  1  0  0  0  0
 70 72  1  0  0  0  0
 71 70  1  0  0  0  0
 73 70  1  0  0  0  0
 74 76  1  0  0  0  0
 75 74  1  0  0  0  0
 77 74  1  0  0  0  0
 78 69  1  0  0  0  0
 78 81  1  0  0  0  0
 79 78  1  0  0  0  0
 80 78  1  0  0  0  0
M  END
