1
q = 0.0, confidence = 1.0

 79 85  0  0  1  0  0  0  0  0999 V2000
    1.5313    0.0856   -0.5834 P   0  0  1  0  0  0  0  0  0  0  0  0
   -1.1185   -4.8401   -0.2679 O   0  0  0  0  0  0  0  0  0  0  0  0
    1.1177   -4.8403    0.2663 O   0  0  0  0  0  0  0  0  0  0  0  0
   -0.0005   -5.7029   -0.0004 C   0  0  0  0  0  0  0  0  0  0  0  0
   -0.6343   -3.5167   -0.4378 C   0  0  2  0  0  0  0  0  0  0  0  0
   -0.3492   -3.3146   -1.5014 H   0  0  0  0  0  0  0  0  0  0  0  0
    0.6337   -3.5168    0.4365 C   0  0  2  0  0  0  0  0  0  0  0  0
    0.3486   -3.3151    1.5002 H   0  0  0  0  0  0  0  0  0  0  0  0
   -0.3355   -6.5384    1.2316 C   0  0  0  0  0  0  0  0  0  0  0  0
   -0.5156   -5.8728    2.0976 H   0  0  0  0  0  0  0  0  0  0  0  0
    0.5000   -7.2235    1.4720 H   0  0  0  0  0  0  0  0  0  0  0  0
   -1.2499   -7.1367    1.0528 H   0  0  0  0  0  0  0  0  0  0  0  0
    0.3341   -6.5396   -1.2317 C   0  0  0  0  0  0  0  0  0  0  0  0
   -0.5018   -7.2245   -1.4715 H   0  0  0  0  0  0  0  0  0  0  0  0
    1.2481   -7.1382   -1.0523 H   0  0  0  0  0  0  0  0  0  0  0  0
    0.5146   -5.8748   -2.0982 H   0  0  0  0  0  0  0  0  0  0  0  0
    1.3242   -1.2374    0.3975 O   0  0  0  0  0  0  0  0  0  0  0  0
    3.2315    0.3735   -0.5241 N   0  0  0  0  0  0  0  0  0  0  0  0
    1.5671   -0.4018   -2.2023 N   0  0  2  0  0  0  0  0  0  0  0  0
    1.7465   -2.5535    0.0395 C   0  0  0  0  0  0  0  0  0  0  0  0
    2.6781   -2.8114    0.5860 H   0  0  0  0  0  0  0  0  0  0  0  0
    1.9397   -2.6247   -1.0522 H   0  0  0  0  0  0  0  0  0  0  0  0
    3.7396    0.6414   -1.8709 C   0  0  0  0  0  0  0  0  0  0  0  0
    4.8189    0.3894   -1.9184 H   0  0  0  0  0  0  0  0  0  0  0  0
    3.6045    1.7161   -2.1329 H   0  0  0  0  0  0  0  0  0  0  0  0
    2.9218   -0.2603   -2.8121 C   0  0  2  0  0  0  0  0  0  0  0  0
    3.4045   -1.2596   -2.8806 H   0  0  0  0  0  0  0  0  0  0  0  0
    2.6524    0.3384   -4.2086 C   0  0  0  0  0  0  0  0  0  0  0  0
    2.6045   -0.4738   -4.9626 H   0  0  0  0  0  0  0  0  0  0  0  0
    3.4583    1.0333   -4.5184 H   0  0  0  0  0  0  0  0  0  0  0  0
    1.2810    1.0190   -4.0645 C   0  0  0  0  0  0  0  0  0  0  0  0
    1.3787    1.9932   -3.5402 H   0  0  0  0  0  0  0  0  0  0  0  0
    0.7743    1.1888   -5.0344 H   0  0  0  0  0  0  0  0  0  0  0  0
    0.5282    0.0522   -3.1463 C   0  0  0  0  0  0  0  0  0  0  0  0
   -0.3070    0.5309   -2.5959 H   0  0  0  0  0  0  0  0  0  0  0  0
    0.1177   -0.8197   -3.7031 H   0  0  0  0  0  0  0  0  0  0  0  0
    3.8471    0.9455    0.6117 C   0  0  0  0  0  0  0  0  0  0  0  0
    3.3984    0.6062    1.9108 C   0  0  0  0  0  0  0  0  0  0  0  0
    2.5830   -0.1200    2.0298 H   0  0  0  0  0  0  0  0  0  0  0  0
    3.9985    1.1773    3.0387 C   0  0  0  0  0  0  0  0  0  0  0  0
    3.6282    0.9035    4.0386 H   0  0  0  0  0  0  0  0  0  0  0  0
    5.0662    2.0795    2.9053 C   0  0  0  0  0  0  0  0  0  0  0  0
    5.5371    2.5237    3.7944 H   0  0  0  0  0  0  0  0  0  0  0  0
    5.5212    2.4067    1.6200 C   0  0  0  0  0  0  0  0  0  0  0  0
    6.3516    3.1181    1.4937 H   0  0  0  0  0  0  0  0  0  0  0  0
    4.9190    1.8548    0.4806 C   0  0  0  0  0  0  0  0  0  0  0  0
    5.2730    2.1561   -0.5136 H   0  0  0  0  0  0  0  0  0  0  0  0
   -1.5313    0.0856    0.5834 P   0  0  1  0  0  0  0  0  0  0  0  0
   -1.3241   -1.2371   -0.3979 O   0  0  0  0  0  0  0  0  0  0  0  0
   -3.2314    0.3738    0.5239 N   0  0  0  0  0  0  0  0  0  0  0  0
   -1.5674   -0.4022    2.2022 N   0  0  2  0  0  0  0  0  0  0  0  0
   -1.7469   -2.5533   -0.0405 C   0  0  0  0  0  0  0  0  0  0  0  0
   -2.6786   -2.8106   -0.5871 H   0  0  0  0  0  0  0  0  0  0  0  0
   -1.9401   -2.6248    1.0513 H   0  0  0  0  0  0  0  0  0  0  0  0
   -3.7397    0.6414    1.8708 C   0  0  0  0  0  0  0  0  0  0  0  0
   -4.8191    0.3897    1.9180 H   0  0  0  0  0  0  0  0  0  0  0  0
   -3.6044    1.7160    2.1331 H   0  0  0  0  0  0  0  0  0  0  0  0
   -2.9222   -0.2608    2.8118 C   0  0  2  0  0  0  0  0  0  0  0  0
   -3.4051   -1.2601    2.8798 H   0  0  0  0  0  0  0  0  0  0  0  0
   -2.6529    0.3374    4.2085 C   0  0  0  0  0  0  0  0  0  0  0  0
   -2.6053   -0.4752    4.9623 H   0  0  0  0  0  0  0  0  0  0  0  0
   -3.4587    1.0323    4.5184 H   0  0  0  0  0  0  0  0  0  0  0  0
   -1.2814    1.0177    4.0650 C   0  0  0  0  0  0  0  0  0  0  0  0
   -1.3788    1.9922    3.5410 H   0  0  0  0  0  0  0  0  0  0  0  0
   -0.7748    1.1870    5.0350 H   0  0  0  0  0  0  0  0  0  0  0  0
   -0.5286    0.0512    3.1465 C   0  0  0  0  0  0  0  0  0  0  0  0
    0.3067    0.5299    2.5964 H   0  0  0  0  0  0  0  0  0  0  0  0
   -0.1183   -0.8210    3.7030 H   0  0  0  0  0  0  0  0  0  0  0  0
   -3.8467    0.9464   -0.6117 C   0  0  0  0  0  0  0  0  0  0  0  0
   -4.9180    1.8563   -0.4805 C   0  0  0  0  0  0  0  0  0  0  0  0
   -5.2718    2.1577    0.5138 H   0  0  0  0  0  0  0  0  0  0  0  0
   -5.5198    2.4088   -1.6198 C   0  0  0  0  0  0  0  0  0  0  0  0
   -6.3497    3.1208   -1.4934 H   0  0  0  0  0  0  0  0  0  0  0  0
   -5.0650    2.0816   -2.9052 C   0  0  0  0  0  0  0  0  0  0  0  0
   -5.5357    2.5262   -3.7942 H   0  0  0  0  0  0  0  0  0  0  0  0
   -3.9980    1.1787   -3.0387 C   0  0  0  0  0  0  0  0  0  0  0  0
   -3.6278    0.9048   -4.0387 H   0  0  0  0  0  0  0  0  0  0  0  0
   -3.3982    0.6070   -1.9109 C   0  0  0  0  0  0  0  0  0  0  0  0
   -2.5833   -0.1197   -2.0300 H   0  0  0  0  0  0  0  0  0  0  0  0
  1 18  1  0  0  0  0
  1 17  1  1  0  0  0
  2  4  1  0  0  0  0
  3  7  1  0  0  0  0
  4  3  1  0  0  0  0
  4  9  1  0  0  0  0
  5  6  1  6  0  0  0
  5  2  1  0  0  0  0
  5 52  1  0  0  0  0
  5  7  1  0  0  0  0
  7  8  1  1  0  0  0
  9 11  1  0  0  0  0
  9 10  1  0  0  0  0
 12  9  1  0  0  0  0
 13 15  1  0  0  0  0
 13  4  1  0  0  0  0
 14 13  1  0  0  0  0
 16 13  1  0  0  0  0
 18 37  1  0  0  0  0
 19 34  1  6  0  0  0
 19  1  1  0  0  0  0
 20 17  1  0  0  0  0
 20  7  1  0  0  0  0
 20 21  1  0  0  0  0
 22 20  1  0  0  0  0
 23 18  1  0  0  0  0
 24 23  1  0  0  0  0
 25 23  1  0  0  0  0
 26 27  1  6  0  0  0
 26 19  1  0  0  0  0
 26 23  1  0  0  0  0
 28 31  1  0  0  0  0
 28 26  1  0  0  0  0
 29 28  1  0  0  0  0
 30 28  1  0  0  0  0
 31 32  1  0  0  0  0
 31 34  1  0  0  0  0
 33 31  1  0  0  0  0
 34 35  1  0  0  0  0
 36 34  1  0  0  0  0
 37 38  1  0  0  0  0
 38 39  1  0  0  0  0
 38 40  2  0  0  0  0
 40 41  1  0  0  0  0
 42 40  1  0  0  0  0
 42 43  1  0  0  0  0
 44 42  2  0  0  0  0
 45 44  1  0  0  0  0
 46 37  2  0  0  0  0
 46 44  1  0  0  0  0
 47 46  1  0  0  0  0
 48 49  1  6  0  0  0
 48 51  1  0  0  0  0
 49 52  1  0  0  0  0
 50 48  1  0  0  0  0
 50 55  1  0  0  0  0
 51 58  1  0  0  0  0
 51 66  1  1  0  0  0
 52 54  1  0  0  0  0
 53 52  1  0  0  0  0
 55 56  1  0  0  0  0
 55 57  1  0  0  0  0
 55 58  1  0  0  0  0
 58 59  1  1  0  0  0
 58 60  1  0  0  0  0
 60 62  1  0  0  0  0
 60 61  1  0  0  0  0
 63 60  1  0  0  0  0
 63 65  1  0  0  0  0
 64 63  1  0  0  0  0
 66 68  1  0  0  0  0
 66 63  1  0  0  0  0
 67 66  1  0  0  0  0
 69 70  1  0  0  0  0
 69 50  1  0  0  0  0
 70 71  1  0  0  0  0
 72 73  1  0  0  0  0
 72 70  2  0  0  0  0
 74 72  1  0  0  0  0
 75 74  1  0  0  0  0
 76 74  2  0  0  0  0
 76 78  1  0  0  0  0
 77 76  1  0  0  0  0
 78 69  2  0  0  0  0
 79 78  1  0  0  0  0
M  END
