1,2
q = -1.0, confidence = 0.0

 59 62  0  0  0  0  0  0  0  0999 V2000
    1.3937    0.4958   -0.0230 P   0  0  0  0  0  0  0  0  0  0  0  0
   -0.8281   -1.0384   -0.1982 P   0  0  0  0  0  0  0  0  0  0  0  0
   -1.0039    1.2800    1.9077 S   0  0  0  0  0  0  0  0  0  0  0  0
   -2.4697    2.5030   -0.5092 S   0  0  0  0  0  0  0  0  0  0  0  0
   -2.9061    3.1415    2.0729 N   0  0  0  0  0  0  0  0  0  0  0  0
   -0.2571    0.4361    0.5950 C   0  0  0  0  0  3  0  0  0  0  0  0
   -2.2232    2.4250    1.1337 C   0  0  0  0  0  0  0  0  0  0  0  0
   -2.6067    3.0423    3.4970 C   0  0  0  0  0  0  0  0  0  0  0  0
   -1.6515    3.5484    3.7586 H   0  0  0  0  0  0  0  0  0  0  0  0
   -2.5310    1.9821    3.8122 H   0  0  0  0  0  0  0  0  0  0  0  0
   -3.4256    3.5184    4.0677 H   0  0  0  0  0  0  0  0  0  0  0  0
   -3.8912    4.1439    1.6920 C   0  0  0  0  0  0  0  0  0  0  0  0
   -3.5357    5.1642    1.9560 H   0  0  0  0  0  0  0  0  0  0  0  0
   -4.8510    3.9573    2.2185 H   0  0  0  0  0  0  0  0  0  0  0  0
   -4.0436    4.0827    0.5988 H   0  0  0  0  0  0  0  0  0  0  0  0
    1.9537    2.1514   -0.5874 C   0  0  0  0  0  0  0  0  0  0  0  0
    3.3270    2.4504   -0.7159 C   0  0  0  0  0  0  0  0  0  0  0  0
    4.0874    1.7096   -0.4275 H   0  0  0  0  0  0  0  0  0  0  0  0
    3.7278    3.7015   -1.2048 C   0  0  0  0  0  0  0  0  0  0  0  0
    4.8002    3.9284   -1.3056 H   0  0  0  0  0  0  0  0  0  0  0  0
    2.7662    4.6630   -1.5587 C   0  0  0  0  0  0  0  0  0  0  0  0
    3.0849    5.6462   -1.9379 H   0  0  0  0  0  0  0  0  0  0  0  0
    1.4012    4.3662   -1.4256 C   0  0  0  0  0  0  0  0  0  0  0  0
    0.6397    5.1136   -1.6965 H   0  0  0  0  0  0  0  0  0  0  0  0
    0.9906    3.1128   -0.9473 C   0  0  0  0  0  0  0  0  0  0  0  0
   -0.0830    2.8760   -0.8490 H   0  0  0  0  0  0  0  0  0  0  0  0
    2.6531    0.0847    1.2649 C   0  0  0  0  0  0  0  0  0  0  0  0
    2.4202    0.4657    2.6028 C   0  0  0  0  0  0  0  0  0  0  0  0
    1.4941    1.0029    2.8626 H   0  0  0  0  0  0  0  0  0  0  0  0
    3.3605    0.1601    3.5973 C   0  0  0  0  0  0  0  0  0  0  0  0
    3.1678    0.4581    4.6393 H   0  0  0  0  0  0  0  0  0  0  0  0
    4.5433   -0.5216    3.2668 C   0  0  0  0  0  0  0  0  0  0  0  0
    5.2784   -0.7634    4.0494 H   0  0  0  0  0  0  0  0  0  0  0  0
    4.7839   -0.8960    1.9362 C   0  0  0  0  0  0  0  0  0  0  0  0
    5.7068   -1.4334    1.6706 H   0  0  0  0  0  0  0  0  0  0  0  0
    3.8424   -0.5968    0.9389 C   0  0  0  0  0  0  0  0  0  0  0  0
    4.0376   -0.9035   -0.0997 H   0  0  0  0  0  0  0  0  0  0  0  0
   -0.9910   -2.4164    1.0150 C   0  0  0  0  0  0  0  0  0  0  0  0
   -0.3024   -2.3467    2.2404 C   0  0  0  0  0  0  0  0  0  0  0  0
    0.2763   -1.4419    2.4819 H   0  0  0  0  0  0  0  0  0  0  0  0
   -0.3519   -3.4245    3.1369 C   0  0  0  0  0  0  0  0  0  0  0  0
    0.1862   -3.3611    4.0950 H   0  0  0  0  0  0  0  0  0  0  0  0
   -1.0799   -4.5797    2.8115 C   0  0  0  0  0  0  0  0  0  0  0  0
   -1.1152   -5.4261    3.5144 H   0  0  0  0  0  0  0  0  0  0  0  0
   -1.7619   -4.6557    1.5854 C   0  0  0  0  0  0  0  0  0  0  0  0
   -2.3318   -5.5609    1.3257 H   0  0  0  0  0  0  0  0  0  0  0  0
   -1.7200   -3.5784    0.6890 C   0  0  0  0  0  0  0  0  0  0  0  0
   -2.2605   -3.6364   -0.2688 H   0  0  0  0  0  0  0  0  0  0  0  0
   -2.5426   -0.9217   -0.8409 C   0  0  0  0  0  0  0  0  0  0  0  0
   -2.8448   -0.9474   -2.2133 C   0  0  0  0  0  0  0  0  0  0  0  0
   -2.0483   -1.0941   -2.9555 H   0  0  0  0  0  0  0  0  0  0  0  0
   -4.1709   -0.7879   -2.6449 C   0  0  0  0  0  0  0  0  0  0  0  0
   -4.3990   -0.8086   -3.7212 H   0  0  0  0  0  0  0  0  0  0  0  0
   -5.1992   -0.6031   -1.7093 C   0  0  0  0  0  0  0  0  0  0  0  0
   -6.2374   -0.4723   -2.0506 H   0  0  0  0  0  0  0  0  0  0  0  0
   -4.9030   -0.5905   -0.3360 C   0  0  0  0  0  0  0  0  0  0  0  0
   -5.7073   -0.4469    0.4016 H   0  0  0  0  0  0  0  0  0  0  0  0
   -3.5831   -0.7559    0.0994 C   0  0  0  0  0  0  0  0  0  0  0  0
   -3.3489   -0.7408    1.1750 H   0  0  0  0  0  0  0  0  0  0  0  0
  1  6  1  0  0  0  0
  1 27  1  0  0  0  0
  2  6  1  0  0  0  0
  2 38  1  0  0  0  0
  4  7  2  0  0  0  0
  5  8  1  0  0  0  0
  6  3  1  0  0  0  0
  7  3  1  0  0  0  0
  7  5  1  0  0  0  0
  8  9  1  0  0  0  0
  8 10  1  0  0  0  0
  8 11  1  0  0  0  0
 12 13  1  0  0  0  0
 12  5  1  0  0  0  0
 12 14  1  0  0  0  0
 15 12  1  0  0  0  0
 16  1  1  0  0  0  0
 17 16  1  0  0  0  0
 17 18  1  0  0  0  0
 19 17  2  0  0  0  0
 20 19  1  0  0  0  0
 21 23  2  0  0  0  0
 21 19  1  0  0  0  0
 22 21  1  0  0  0  0
 23 25  1  0  0  0  0
 24 23  1  0  0  0  0
 25 26  1  0  0  0  0
 25 16  2  0  0  0  0
 27 28  1  0  0  0  0
 28 29  1  0  0  0  0
 28 30  2  0  0  0  0
 30 31  1  0  0  0  0
 32 30  1  0  0  0  0
 32 33  1  0  0  0  0
 34 32  2  0  0  0  0
 35 34  1  0  0  0  0
 36 27  2  0  0  0  0
 36 34  1  0  0  0  0
 37 36  1  0  0  0  0
 38 39  1  0  0  0  0
 39 40  1  0  0  0  0
 39 41  2  0  0  0  0
 41 42  1  0  0  0  0
 43 41  1  0  0  0  0
 43 44  1  0  0  0  0
 45 43  2  0  0  0  0
 46 45  1  0  0  0  0
 47 38  2  0  0  0  0
 47 45  1  0  0  0  0
 48 47  1  0  0  0  0
 49  2  1  0  0  0  0
 49 58  1  0  0  0  0
 50 49  2  0  0  0  0
 51 50  1  0  0  0  0
 52 50  1  0  0  0  0
 52 54  2  0  0  0  0
 53 52  1  0  0  0  0
 54 56  1  0  0  0  0
 55 54  1  0  0  0  0
 56 58  2  0  0  0  0
 56 57  1  0  0  0  0
 58 59  1  0  0  0  0
M  END
