1,2
q = 0.0, confidence = 1.0

 53 52  0  0  0  0  0  0  0  0999 V2000
    1.6194    0.0747    0.0665 P   0  0  0  0  0  0  0  0  0  0  0  0
   -1.6127    0.0611    0.0876 P   0  0  0  0  0  0  0  0  0  0  0  0
   -0.0088    2.3337    0.5094 N   0  0  0  0  0  0  0  0  0  0  0  0
    1.2305    1.6980    0.9327 C   0  0  0  0  0  0  0  0  0  0  0  0
    1.2370    1.5131    2.0414 H   0  0  0  0  0  0  0  0  0  0  0  0
    2.0707    2.3912    0.7233 H   0  0  0  0  0  0  0  0  0  0  0  0
   -1.1871    1.6407    1.0133 C   0  0  0  0  0  0  0  0  0  0  0  0
   -2.0590    2.3201    0.9248 H   0  0  0  0  0  0  0  0  0  0  0  0
   -1.0840    1.3925    2.1043 H   0  0  0  0  0  0  0  0  0  0  0  0
    2.6758    0.7406   -1.3503 C   0  0  0  0  0  0  0  0  0  0  0  0
    3.3796    1.4585   -0.8718 H   0  0  0  0  0  0  0  0  0  0  0  0
    3.4872   -0.3360   -2.0740 C   0  0  0  0  0  0  0  0  0  0  0  0
    4.1746   -0.8822   -1.3980 H   0  0  0  0  0  0  0  0  0  0  0  0
    4.1038    0.1334   -2.8694 H   0  0  0  0  0  0  0  0  0  0  0  0
    2.8205   -1.0791   -2.5535 H   0  0  0  0  0  0  0  0  0  0  0  0
    1.7795    1.5088   -2.3283 C   0  0  0  0  0  0  0  0  0  0  0  0
    1.0700    0.8143   -2.8224 H   0  0  0  0  0  0  0  0  0  0  0  0
    2.3936    1.9906   -3.1180 H   0  0  0  0  0  0  0  0  0  0  0  0
    1.1779    2.2881   -1.8213 H   0  0  0  0  0  0  0  0  0  0  0  0
    2.8724   -0.6341    1.2837 C   0  0  0  0  0  0  0  0  0  0  0  0
    3.3224   -1.4737    0.7137 H   0  0  0  0  0  0  0  0  0  0  0  0
    2.1267   -1.2397    2.4794 C   0  0  0  0  0  0  0  0  0  0  0  0
    1.6097   -0.4618    3.0804 H   0  0  0  0  0  0  0  0  0  0  0  0
    2.8348   -1.7623    3.1561 H   0  0  0  0  0  0  0  0  0  0  0  0
    1.3640   -1.9682    2.1413 H   0  0  0  0  0  0  0  0  0  0  0  0
    3.9891    0.3229    1.7113 C   0  0  0  0  0  0  0  0  0  0  0  0
    4.5486    0.7358    0.8482 H   0  0  0  0  0  0  0  0  0  0  0  0
    4.7229   -0.2098    2.3525 H   0  0  0  0  0  0  0  0  0  0  0  0
    3.6019    1.1752    2.3067 H   0  0  0  0  0  0  0  0  0  0  0  0
   -2.7624    0.7904   -1.2231 C   0  0  0  0  0  0  0  0  0  0  0  0
   -3.3918    1.5254   -0.6720 H   0  0  0  0  0  0  0  0  0  0  0  0
   -3.6838   -0.2329   -1.8916 C   0  0  0  0  0  0  0  0  0  0  0  0
   -3.1044   -0.9914   -2.4519 H   0  0  0  0  0  0  0  0  0  0  0  0
   -4.3514    0.2846   -2.6126 H   0  0  0  0  0  0  0  0  0  0  0  0
   -4.3294   -0.7667   -1.1662 H   0  0  0  0  0  0  0  0  0  0  0  0
   -1.9217    1.5443   -2.2598 C   0  0  0  0  0  0  0  0  0  0  0  0
   -1.2504    2.2882   -1.7885 H   0  0  0  0  0  0  0  0  0  0  0  0
   -2.5787    2.0659   -2.9872 H   0  0  0  0  0  0  0  0  0  0  0  0
   -1.2836    0.8332   -2.8232 H   0  0  0  0  0  0  0  0  0  0  0  0
   -2.7879   -0.7322    1.3293 C   0  0  0  0  0  0  0  0  0  0  0  0
   -3.2996   -1.5087    0.7222 H   0  0  0  0  0  0  0  0  0  0  0  0
   -1.9734   -1.4567    2.4079 C   0  0  0  0  0  0  0  0  0  0  0  0
   -1.2862   -2.1958    1.9495 H   0  0  0  0  0  0  0  0  0  0  0  0
   -2.6463   -1.9914    3.1110 H   0  0  0  0  0  0  0  0  0  0  0  0
   -1.3606   -0.7509    3.0077 H   0  0  0  0  0  0  0  0  0  0  0  0
   -3.8471    0.2044    1.9182 C   0  0  0  0  0  0  0  0  0  0  0  0
   -3.3981    0.9799    2.5721 H   0  0  0  0  0  0  0  0  0  0  0  0
   -4.5597   -0.3718    2.5456 H   0  0  0  0  0  0  0  0  0  0  0  0
   -4.4411    0.7194    1.1365 H   0  0  0  0  0  0  0  0  0  0  0  0
   -0.0268    3.7473    0.8593 C   0  0  0  0  0  0  0  0  0  0  0  0
    0.0091    3.9298    1.9662 H   0  0  0  0  0  0  0  0  0  0  0  0
   -0.9480    4.2222    0.4650 H   0  0  0  0  0  0  0  0  0  0  0  0
    0.8442    4.2594    0.4022 H   0  0  0  0  0  0  0  0  0  0  0  0
  1  4  1  0  0  0  0
  1 20  1  0  0  0  0
  2  7  1  0  0  0  0
  2 40  1  0  0  0  0
  3 50  1  0  0  0  0
  3  4  1  0  0  0  0
  3  7  1  0  0  0  0
  4  5  1  0  0  0  0
  6  4  1  0  0  0  0
  7  9  1  0  0  0  0
  8  7  1  0  0  0  0
 10 11  1  0  0  0  0
 10  1  1  0  0  0  0
 12 13  1  0  0  0  0
 12 10  1  0  0  0  0
 14 12  1  0  0  0  0
 15 12  1  0  0  0  0
 16 19  1  0  0  0  0
 16 10  1  0  0  0  0
 17 16  1  0  0  0  0
 18 16  1  0  0  0  0
 20 26  1  0  0  0  0
 20 22  1  0  0  0  0
 21 20  1  0  0  0  0
 22 23  1  0  0  0  0
 22 24  1  0  0  0  0
 25 22  1  0  0  0  0
 26 29  1  0  0  0  0
 26 28  1  0  0  0  0
 27 26  1  0  0  0  0
 30 31  1  0  0  0  0
 30  2  1  0  0  0  0
 32 30  1  0  0  0  0
 32 35  1  0  0  0  0
 33 32  1  0  0  0  0
 34 32  1  0  0  0  0
 36 37  1  0  0  0  0
 36 30  1  0  0  0  0
 38 36  1  0  0  0  0
 39 36  1  0  0  0  0
 40 46  1  0  0  0  0
 40 42  1  0  0  0  0
 41 40  1  0  0  0  0
 42 45  1  0  0  0  0
 42 44  1  0  0  0  0
 43 42  1  0  0  0  0
 46 48  1  0  0  0  0
 46 47  1  0  0  0  0
 49 46  1  0  0  0  0
 50 51  1  0  0  0  0
 52 50  1  0  0  0  0
 53 50  1  0  0  0  0
M  END
