1,2
q = 0.0, confidence = 1.0

 61 64  0  0  0  0  0  0  0  0999 V2000
   -1.4568    0.1581    0.1744 P   0  0  0  0  0  0  0  0  0  0  0  0
    1.3369   -0.2065    0.1512 P   0  0  0  0  0  0  0  0  0  0  0  0
   -0.0160    0.2840    1.4572 C   0  0  0  0  0  0  0  0  0  0  0  0
   -0.1532   -0.9037    2.4236 C   0  0  0  0  0  0  0  0  0  0  0  0
   -0.9874   -0.7216    3.1302 H   0  0  0  0  0  0  0  0  0  0  0  0
    0.7772   -1.0421    3.0080 H   0  0  0  0  0  0  0  0  0  0  0  0
   -0.3620   -1.8554    1.8993 H   0  0  0  0  0  0  0  0  0  0  0  0
    0.0593    1.6157    2.2163 C   0  0  0  0  0  0  0  0  0  0  0  0
    0.2542    2.4469    1.5107 H   0  0  0  0  0  0  0  0  0  0  0  0
   -0.9581    1.8256    2.6161 H   0  0  0  0  0  0  0  0  0  0  0  0
    1.0510    1.6746    3.3873 C   0  0  0  0  0  0  0  0  0  0  0  0
    0.7256    0.9790    4.1881 H   0  0  0  0  0  0  0  0  0  0  0  0
    2.0451    1.2960    3.0652 H   0  0  0  0  0  0  0  0  0  0  0  0
    1.1863    3.0864    3.9591 C   0  0  0  0  0  0  0  0  0  0  0  0
    1.8773    3.1142    4.8251 H   0  0  0  0  0  0  0  0  0  0  0  0
    0.2047    3.4770    4.2989 H   0  0  0  0  0  0  0  0  0  0  0  0
    1.5712    3.7987    3.1987 H   0  0  0  0  0  0  0  0  0  0  0  0
   -2.9152   -0.4345    1.1306 C   0  0  0  0  0  0  0  0  0  0  0  0
   -3.5246   -1.6413    0.7369 C   0  0  0  0  0  0  0  0  0  0  0  0
   -3.1370   -2.1751   -0.1432 H   0  0  0  0  0  0  0  0  0  0  0  0
   -4.6151   -2.1546    1.4569 C   0  0  0  0  0  0  0  0  0  0  0  0
   -5.0833   -3.0974    1.1363 H   0  0  0  0  0  0  0  0  0  0  0  0
   -5.1026   -1.4690    2.5792 C   0  0  0  0  0  0  0  0  0  0  0  0
   -5.9551   -1.8732    3.1461 H   0  0  0  0  0  0  0  0  0  0  0  0
   -4.5044   -0.2607    2.9763 C   0  0  0  0  0  0  0  0  0  0  0  0
   -4.8883    0.2842    3.8523 H   0  0  0  0  0  0  0  0  0  0  0  0
   -3.4205    0.2575    2.2546 C   0  0  0  0  0  0  0  0  0  0  0  0
   -2.9728    1.2149    2.5612 H   0  0  0  0  0  0  0  0  0  0  0  0
   -1.9126    1.8868   -0.2816 C   0  0  0  0  0  0  0  0  0  0  0  0
   -3.2489    2.3370   -0.2459 C   0  0  0  0  0  0  0  0  0  0  0  0
   -4.0451    1.6732    0.1194 H   0  0  0  0  0  0  0  0  0  0  0  0
   -3.5749    3.6296   -0.6871 C   0  0  0  0  0  0  0  0  0  0  0  0
   -4.6235    3.9629   -0.6573 H   0  0  0  0  0  0  0  0  0  0  0  0
   -2.5756    4.4893   -1.1657 C   0  0  0  0  0  0  0  0  0  0  0  0
   -2.8341    5.5024   -1.5091 H   0  0  0  0  0  0  0  0  0  0  0  0
   -1.2451    4.0431   -1.2181 C   0  0  0  0  0  0  0  0  0  0  0  0
   -0.4520    4.6997   -1.6065 H   0  0  0  0  0  0  0  0  0  0  0  0
   -0.9177    2.7495   -0.7922 C   0  0  0  0  0  0  0  0  0  0  0  0
    0.1244    2.4095   -0.8727 H   0  0  0  0  0  0  0  0  0  0  0  0
    2.2967    1.2658   -0.4330 C   0  0  0  0  0  0  0  0  0  0  0  0
    2.6651    2.3827    0.3489 C   0  0  0  0  0  0  0  0  0  0  0  0
    2.3733    2.4487    1.4028 H   0  0  0  0  0  0  0  0  0  0  0  0
    3.4126    3.4303   -0.2115 C   0  0  0  0  0  0  0  0  0  0  0  0
    3.6783    4.2983    0.4111 H   0  0  0  0  0  0  0  0  0  0  0  0
    3.8214    3.3716   -1.5524 C   0  0  0  0  0  0  0  0  0  0  0  0
    4.4048    4.1960   -1.9896 H   0  0  0  0  0  0  0  0  0  0  0  0
    3.4855    2.2530   -2.3307 C   0  0  0  0  0  0  0  0  0  0  0  0
    3.8067    2.1902   -3.3811 H   0  0  0  0  0  0  0  0  0  0  0  0
    2.7268    1.2124   -1.7772 C   0  0  0  0  0  0  0  0  0  0  0  0
    2.4535    0.3423   -2.3924 H   0  0  0  0  0  0  0  0  0  0  0  0
    2.6391   -1.1670    1.0509 C   0  0  0  0  0  0  0  0  0  0  0  0
    2.5587   -2.5740    1.0273 C   0  0  0  0  0  0  0  0  0  0  0  0
    1.7526   -3.0583    0.4589 H   0  0  0  0  0  0  0  0  0  0  0  0
    3.5053   -3.3528    1.7098 C   0  0  0  0  0  0  0  0  0  0  0  0
    3.4280   -4.4501    1.6807 H   0  0  0  0  0  0  0  0  0  0  0  0
    4.5502   -2.7354    2.4136 C   0  0  0  0  0  0  0  0  0  0  0  0
    5.2961   -3.3460    2.9449 H   0  0  0  0  0  0  0  0  0  0  0  0
    4.6509   -1.3345    2.4232 C   0  0  0  0  0  0  0  0  0  0  0  0
    5.4785   -0.8433    2.9575 H   0  0  0  0  0  0  0  0  0  0  0  0
    3.7047   -0.5540    1.7435 C   0  0  0  0  0  0  0  0  0  0  0  0
    3.8141    0.5400    1.7355 H   0  0  0  0  0  0  0  0  0  0  0  0
  1 18  1  0  0  0  0
  1  3  1  0  0  0  0
  2 51  1  0  0  0  0
  2  3  1  0  0  0  0
  3  8  1  0  0  0  0
  3  4  1  0  0  0  0
  4  6  1  0  0  0  0
  4  5  1  0  0  0  0
  7  4  1  0  0  0  0
  8 10  1  0  0  0  0
  8 11  1  0  0  0  0
  9  8  1  0  0  0  0
 11 14  1  0  0  0  0
 11 12  1  0  0  0  0
 13 11  1  0  0  0  0
 14 16  1  0  0  0  0
 14 15  1  0  0  0  0
 17 14  1  0  0  0  0
 18 27  1  0  0  0  0
 19 18  2  0  0  0  0
 19 21  1  0  0  0  0
 20 19  1  0  0  0  0
 21 23  2  0  0  0  0
 22 21  1  0  0  0  0
 23 25  1  0  0  0  0
 23 24  1  0  0  0  0
 25 26  1  0  0  0  0
 27 28  1  0  0  0  0
 27 25  2  0  0  0  0
 29 30  1  0  0  0  0
 29  1  1  0  0  0  0
 30 31  1  0  0  0  0
 32 33  1  0  0  0  0
 32 30  2  0  0  0  0
 34 32  1  0  0  0  0
 35 34  1  0  0  0  0
 36 34  2  0  0  0  0
 36 38  1  0  0  0  0
 37 36  1  0  0  0  0
 38 29  2  0  0  0  0
 39 38  1  0  0  0  0
 40  2  1  0  0  0  0
 40 41  1  0  0  0  0
 41 42  1  0  0  0  0
 43 41  2  0  0  0  0
 43 44  1  0  0  0  0
 45 43  1  0  0  0  0
 46 45  1  0  0  0  0
 47 49  1  0  0  0  0
 47 45  2  0  0  0  0
 48 47  1  0  0  0  0
 49 40  2  0  0  0  0
 50 49  1  0  0  0  0
 51 60  1  0  0  0  0
 52 51  2  0  0  0  0
 52 54  1  0  0  0  0
 53 52  1  0  0  0  0
 54 56  2  0  0  0  0
 55 54  1  0  0  0  0
 56 58  1  0  0  0  0
 56 57  1  0  0  0  0
 58 59  1  0  0  0  0
 60 58  2  0  0  0  0
 61 60  1  0  0  0  0
M  END
