1,2
q = 0.0, confidence = 0.994

 66 67  0  0  0  0  0  0  0  0999 V2000
    1.0656   -1.1451    0.9522 P   0  0  0  0  0  0  0  0  0  0  0  0
   -2.1837    0.1574   -0.4746 P   0  0  0  0  0  0  0  0  0  0  0  0
    2.1955    0.1580    1.0750 O   0  0  0  0  0  0  0  0  0  0  0  0
   -2.0368    1.8625   -0.2592 O   0  0  0  0  0  0  0  0  0  0  0  0
    0.2332    2.2513   -1.9961 O   0  0  0  0  0  0  0  0  0  0  0  0
    2.8619    0.6629   -0.0140 C   0  0  0  0  0  0  0  0  0  0  0  0
    4.2337    0.3601   -0.1357 C   0  0  0  0  0  0  0  0  0  0  0  0
    4.7028   -0.2483    0.6501 H   0  0  0  0  0  0  0  0  0  0  0  0
    4.9747    0.8084   -1.2348 C   0  0  0  0  0  0  0  0  0  0  0  0
    6.0451    0.5621   -1.3059 H   0  0  0  0  0  0  0  0  0  0  0  0
    4.3457    1.5503   -2.2496 C   0  0  0  0  0  0  0  0  0  0  0  0
    4.9139    1.8848   -3.1301 H   0  0  0  0  0  0  0  0  0  0  0  0
    2.9938    1.8739   -2.1204 C   0  0  0  0  0  0  0  0  0  0  0  0
    2.4694    2.4638   -2.8866 H   0  0  0  0  0  0  0  0  0  0  0  0
    2.2363    1.4770   -0.9946 C   0  0  0  0  0  0  0  0  0  0  0  0
    0.8269    2.0030   -0.9471 C   0  0  0  0  0  0  0  0  0  0  0  0
    0.2505    2.4315    0.3698 C   0  0  0  0  0  0  0  0  0  0  0  0
    1.0913    3.0583    1.3155 C   0  0  0  0  0  0  0  0  0  0  0  0
    2.1751    3.0732    1.1273 H   0  0  0  0  0  0  0  0  0  0  0  0
    0.5732    3.6854    2.4550 C   0  0  0  0  0  0  0  0  0  0  0  0
    1.2499    4.1808    3.1666 H   0  0  0  0  0  0  0  0  0  0  0  0
   -0.8141    3.6832    2.6748 C   0  0  0  0  0  0  0  0  0  0  0  0
   -1.2363    4.1748    3.5645 H   0  0  0  0  0  0  0  0  0  0  0  0
   -1.6664    3.0465    1.7637 C   0  0  0  0  0  0  0  0  0  0  0  0
   -2.7547    3.0255    1.9201 H   0  0  0  0  0  0  0  0  0  0  0  0
   -1.1498    2.4268    0.6091 C   0  0  0  0  0  0  0  0  0  0  0  0
    2.1934   -2.6526    0.8389 C   0  0  0  0  0  0  0  0  0  0  0  0
    1.4623   -3.4726    1.0255 H   0  0  0  0  0  0  0  0  0  0  0  0
    3.2919   -2.7160    1.9045 C   0  0  0  0  0  0  0  0  0  0  0  0
    2.8861   -2.7922    2.9320 H   0  0  0  0  0  0  0  0  0  0  0  0
    3.9440   -1.8213    1.8697 H   0  0  0  0  0  0  0  0  0  0  0  0
    3.9334   -3.6059    1.7370 H   0  0  0  0  0  0  0  0  0  0  0  0
    2.7391   -2.8502   -0.5817 C   0  0  0  0  0  0  0  0  0  0  0  0
    1.9203   -2.8744   -1.3247 H   0  0  0  0  0  0  0  0  0  0  0  0
    3.2883   -3.8124   -0.6440 H   0  0  0  0  0  0  0  0  0  0  0  0
    3.4374   -2.0425   -0.8757 H   0  0  0  0  0  0  0  0  0  0  0  0
    0.6336   -1.1419    2.7709 C   0  0  0  0  0  0  0  0  0  0  0  0
    1.6148   -1.1036    3.2902 H   0  0  0  0  0  0  0  0  0  0  0  0
   -0.1616    0.1069    3.1463 C   0  0  0  0  0  0  0  0  0  0  0  0
    0.3863    1.0332    2.8972 H   0  0  0  0  0  0  0  0  0  0  0  0
   -0.3738    0.1122    4.2355 H   0  0  0  0  0  0  0  0  0  0  0  0
   -1.1316    0.1324    2.6132 H   0  0  0  0  0  0  0  0  0  0  0  0
   -0.1043   -2.4295    3.1544 C   0  0  0  0  0  0  0  0  0  0  0  0
    0.5128   -3.3394    3.0210 H   0  0  0  0  0  0  0  0  0  0  0  0
   -1.0284   -2.5561    2.5541 H   0  0  0  0  0  0  0  0  0  0  0  0
   -0.4067   -2.3850    4.2209 H   0  0  0  0  0  0  0  0  0  0  0  0
   -3.2189    0.2943   -2.0233 C   0  0  0  0  0  0  0  0  0  0  0  0
   -4.0484    0.9788   -1.7472 H   0  0  0  0  0  0  0  0  0  0  0  0
   -2.4256    0.9347   -3.1666 C   0  0  0  0  0  0  0  0  0  0  0  0
   -1.9236    1.8670   -2.8480 H   0  0  0  0  0  0  0  0  0  0  0  0
   -3.1120    1.1628   -4.0086 H   0  0  0  0  0  0  0  0  0  0  0  0
   -1.6441    0.2495   -3.5485 H   0  0  0  0  0  0  0  0  0  0  0  0
   -3.7866   -1.0746   -2.4143 C   0  0  0  0  0  0  0  0  0  0  0  0
   -4.4599   -1.5004   -1.6444 H   0  0  0  0  0  0  0  0  0  0  0  0
   -2.9683   -1.8021   -2.5925 H   0  0  0  0  0  0  0  0  0  0  0  0
   -4.3689   -0.9852   -3.3545 H   0  0  0  0  0  0  0  0  0  0  0  0
   -3.4379   -0.1317    0.9095 C   0  0  0  0  0  0  0  0  0  0  0  0
   -2.8842    0.3079    1.7705 H   0  0  0  0  0  0  0  0  0  0  0  0
   -3.6702   -1.6120    1.2207 C   0  0  0  0  0  0  0  0  0  0  0  0
   -2.7166   -2.1411    1.4065 H   0  0  0  0  0  0  0  0  0  0  0  0
   -4.1837   -2.1386    0.3919 H   0  0  0  0  0  0  0  0  0  0  0  0
   -4.3034   -1.7172    2.1261 H   0  0  0  0  0  0  0  0  0  0  0  0
   -4.7434    0.6505    0.7440 C   0  0  0  0  0  0  0  0  0  0  0  0
   -4.5543    1.7092    0.4776 H   0  0  0  0  0  0  0  0  0  0  0  0
   -5.3218    0.6341    1.6914 H   0  0  0  0  0  0  0  0  0  0  0  0
   -5.3903    0.2062   -0.0398 H   0  0  0  0  0  0  0  0  0  0  0  0
  1  3  1  0  0  0  0
  1 37  1  0  0  0  0
  2  4  1  0  0  0  0
  2 57  1  0  0  0  0
  4 26  1  0  0  0  0
  5 16  2  0  0  0  0
  6  3  1  0  0  0  0
  7  6  1  0  0  0  0
  7  8  1  0  0  0  0
  9  7  2  0  0  0  0
 10  9  1  0  0  0  0
 11 13  2  0  0  0  0
 11  9  1  0  0  0  0
 12 11  1  0  0  0  0
 13 15  1  0  0  0  0
 14 13  1  0  0  0  0
 15 16  1  0  0  0  0
 15  6  2  0  0  0  0
 16 17  1  0  0  0  0
 17 26  2  0  0  0  0
 17 18  1  0  0  0  0
 18 20  2  0  0  0  0
 19 18  1  0  0  0  0
 20 22  1  0  0  0  0
 20 21  1  0  0  0  0
 22 23  1  0  0  0  0
 24 25  1  0  0  0  0
 24 22  2  0  0  0  0
 26 24  1  0  0  0  0
 27  1  1  0  0  0  0
 27 28  1  0  0  0  0
 27 29  1  0  0  0  0
 29 30  1  0  0  0  0
 31 29  1  0  0  0  0
 32 29  1  0  0  0  0
 33 27  1  0  0  0  0
 34 33  1  0  0  0  0
 35 33  1  0  0  0  0
 36 33  1  0  0  0  0
 37 39  1  0  0  0  0
 37 43  1  0  0  0  0
 37 38  1  0  0  0  0
 39 41  1  0  0  0  0
 40 39  1  0  0  0  0
 42 39  1  0  0  0  0
 43 46  1  0  0  0  0
 44 43  1  0  0  0  0
 45 43  1  0  0  0  0
 47 48  1  0  0  0  0
 47  2  1  0  0  0  0
 49 50  1  0  0  0  0
 49 47  1  0  0  0  0
 51 49  1  0  0  0  0
 52 49  1  0  0  0  0
 53 47  1  0  0  0  0
 53 54  1  0  0  0  0
 55 53  1  0  0  0  0
 56 53  1  0  0  0  0
 57 59  1  0  0  0  0
 57 58  1  0  0  0  0
 59 60  1  0  0  0  0
 59 62  1  0  0  0  0
 61 59  1  0  0  0  0
 63 57  1  0  0  0  0
 63 65  1  0  0  0  0
 64 63  1  0  0  0  0
 66 63  1  0  0  0  0
M  END
