1,2
q = 0.0, confidence = 0.986

 41 42  0  0  0  0  0  0  0  0999 V2000
   -1.7053    0.6437    0.1043 P   0  0  0  0  0  0  0  0  0  0  0  0
    1.7053    0.6437    0.1044 P   0  0  0  0  0  0  0  0  0  0  0  0
   -1.2842    2.4389    0.3115 C   0  0  0  0  0  0  0  0  0  0  0  0
   -2.1533    3.0256   -0.0508 H   0  0  0  0  0  0  0  0  0  0  0  0
   -1.2052    2.6329    1.4027 H   0  0  0  0  0  0  0  0  0  0  0  0
   -4.2696    1.0762    1.2403 C   0  0  0  0  0  0  0  0  0  0  0  0
   -4.1074    2.1701    1.3692 H   0  0  0  0  0  0  0  0  0  0  0  0
   -4.9635    0.7775    2.0545 H   0  0  0  0  0  0  0  0  0  0  0  0
    2.7359    0.5745   -1.4289 C   0  0  0  0  0  0  0  0  0  0  0  0
    2.8671   -0.5167   -1.5916 H   0  0  0  0  0  0  0  0  0  0  0  0
    2.1210    0.9557   -2.2703 H   0  0  0  0  0  0  0  0  0  0  0  0
    2.9496    0.3140    1.4267 C   0  0  0  0  0  0  0  0  0  0  0  0
    2.4671    0.5278    2.4027 H   0  0  0  0  0  0  0  0  0  0  0  0
    3.0995   -0.7852    1.3689 H   0  0  0  0  0  0  0  0  0  0  0  0
   -2.9495    0.3141    1.4267 C   0  0  0  0  0  0  0  0  0  0  0  0
   -3.0994   -0.7851    1.3690 H   0  0  0  0  0  0  0  0  0  0  0  0
   -2.4670    0.5280    2.4027 H   0  0  0  0  0  0  0  0  0  0  0  0
    4.9291    0.8138   -0.1217 C   0  0  0  0  0  0  0  0  0  0  0  0
    5.9219    1.3089   -0.1512 H   0  0  0  0  0  0  0  0  0  0  0  0
    5.1187   -0.2772   -0.2281 H   0  0  0  0  0  0  0  0  0  0  0  0
   -4.0866    1.2942   -1.3121 C   0  0  0  0  0  0  0  0  0  0  0  0
   -4.6491    1.1382   -2.2570 H   0  0  0  0  0  0  0  0  0  0  0  0
   -3.9342    2.3947   -1.2347 H   0  0  0  0  0  0  0  0  0  0  0  0
    4.0865    1.2943   -1.3121 C   0  0  0  0  0  0  0  0  0  0  0  0
    4.6491    1.1383   -2.2570 H   0  0  0  0  0  0  0  0  0  0  0  0
    3.9341    2.3948   -1.2347 H   0  0  0  0  0  0  0  0  0  0  0  0
   -2.7359    0.5745   -1.4289 C   0  0  0  0  0  0  0  0  0  0  0  0
   -2.1210    0.9556   -2.2704 H   0  0  0  0  0  0  0  0  0  0  0  0
   -2.8671   -0.5168   -1.5915 H   0  0  0  0  0  0  0  0  0  0  0  0
    1.2842    2.4388    0.3117 C   0  0  0  0  0  0  0  0  0  0  0  0
    1.2048    2.6325    1.4029 H   0  0  0  0  0  0  0  0  0  0  0  0
    2.1534    3.0255   -0.0502 H   0  0  0  0  0  0  0  0  0  0  0  0
    0.0001    2.8896   -0.3984 C   0  0  0  0  0  0  0  0  0  0  0  0
    0.0002    2.5383   -1.4546 H   0  0  0  0  0  0  0  0  0  0  0  0
    0.0001    3.9986   -0.4532 H   0  0  0  0  0  0  0  0  0  0  0  0
    4.2697    1.0761    1.2402 C   0  0  0  0  0  0  0  0  0  0  0  0
    4.1074    2.1700    1.3693 H   0  0  0  0  0  0  0  0  0  0  0  0
    4.9636    0.7773    2.0544 H   0  0  0  0  0  0  0  0  0  0  0  0
   -4.9291    0.8137   -0.1216 C   0  0  0  0  0  0  0  0  0  0  0  0
   -5.9219    1.3089   -0.1511 H   0  0  0  0  0  0  0  0  0  0  0  0
   -5.1187   -0.2772   -0.2279 H   0  0  0  0  0  0  0  0  0  0  0  0
  1  3  1  0  0  0  0
  1 15  1  0  0  0  0
  2 30  1  0  0  0  0
  2 12  1  0  0  0  0
  3  5  1  0  0  0  0
  4  3  1  0  0  0  0
  6  7  1  0  0  0  0
  6 15  1  0  0  0  0
  6  8  1  0  0  0  0
  9 24  1  0  0  0  0
  9  2  1  0  0  0  0
 10  9  1  0  0  0  0
 11  9  1  0  0  0  0
 12 13  1  0  0  0  0
 14 12  1  0  0  0  0
 15 17  1  0  0  0  0
 16 15  1  0  0  0  0
 18 36  1  0  0  0  0
 19 18  1  0  0  0  0
 20 18  1  0  0  0  0
 21 23  1  0  0  0  0
 21 39  1  0  0  0  0
 22 21  1  0  0  0  0
 24 26  1  0  0  0  0
 24 18  1  0  0  0  0
 25 24  1  0  0  0  0
 27 21  1  0  0  0  0
 27  1  1  0  0  0  0
 28 27  1  0  0  0  0
 29 27  1  0  0  0  0
 30 31  1  0  0  0  0
 32 30  1  0  0  0  0
 33  3  1  0  0  0  0
 33 30  1  0  0  0  0
 34 33  1  0  0  0  0
 35 33  1  0  0  0  0
 36 37  1  0  0  0  0
 36 12  1  0  0  0  0
 36 38  1  0  0  0  0
 39  6  1  0  0  0  0
 40 39  1  0  0  0  0
 41 39  1  0  0  0  0
M  END
