1,2
q = 0.0, confidence = 0.992

 62 66  0  0  1  0  0  0  0  0999 V2000
   -1.8120   -0.2471    0.3461 P   0  0  0  0  0  0  0  0  0  0  0  0
    1.1986    0.1080   -0.4356 P   0  0  0  0  0  0  0  0  0  0  0  0
   -3.1922   -1.4508    0.2360 C   0  0  0  0  0  0  0  0  0  0  0  0
   -4.1691   -1.2719   -0.7658 C   0  0  0  0  0  0  0  0  0  0  0  0
   -4.0539   -0.4417   -1.4847 H   0  0  0  0  0  0  0  0  0  0  0  0
   -5.2532   -2.1578   -0.8451 C   0  0  0  0  0  0  0  0  0  0  0  0
   -6.0100   -2.0149   -1.6312 H   0  0  0  0  0  0  0  0  0  0  0  0
   -5.3712   -3.2225    0.0624 C   0  0  0  0  0  0  0  0  0  0  0  0
   -6.2230   -3.9163   -0.0064 H   0  0  0  0  0  0  0  0  0  0  0  0
   -4.3968   -3.4051    1.0560 C   0  0  0  0  0  0  0  0  0  0  0  0
   -4.4806   -4.2406    1.7676 H   0  0  0  0  0  0  0  0  0  0  0  0
   -3.3088   -2.5240    1.1459 C   0  0  0  0  0  0  0  0  0  0  0  0
   -2.5560   -2.6853    1.9311 H   0  0  0  0  0  0  0  0  0  0  0  0
   -2.4138    1.1042    1.4393 C   0  0  0  0  0  0  0  0  0  0  0  0
   -2.5274    2.4072    0.9132 C   0  0  0  0  0  0  0  0  0  0  0  0
   -2.3039    2.5784   -0.1527 H   0  0  0  0  0  0  0  0  0  0  0  0
   -2.9605    3.4558    1.7403 C   0  0  0  0  0  0  0  0  0  0  0  0
   -3.0520    4.4709    1.3251 H   0  0  0  0  0  0  0  0  0  0  0  0
   -3.2802    3.2115    3.0847 C   0  0  0  0  0  0  0  0  0  0  0  0
   -3.6163    4.0368    3.7307 H   0  0  0  0  0  0  0  0  0  0  0  0
   -3.1819    1.9098    3.6055 C   0  0  0  0  0  0  0  0  0  0  0  0
   -3.4441    1.7132    4.6562 H   0  0  0  0  0  0  0  0  0  0  0  0
   -2.7554    0.8563    2.7850 C   0  0  0  0  0  0  0  0  0  0  0  0
   -2.7011   -0.1641    3.1961 H   0  0  0  0  0  0  0  0  0  0  0  0
   -0.5196   -1.1184    1.3646 C   0  0  0  0  0  0  0  0  0  0  0  0
   -0.8721   -1.3106    2.3981 H   0  0  0  0  0  0  0  0  0  0  0  0
   -0.3583   -2.0999    0.8711 H   0  0  0  0  0  0  0  0  0  0  0  0
    0.7611   -0.2826    1.3836 C   0  0  1  0  0  0  0  0  0  0  0  0
    0.5140    0.7243    1.7840 H   0  0  0  0  0  0  0  0  0  0  0  0
    1.9126   -0.8449    2.1795 C   0  0  0  0  0  0  0  0  0  0  0  0
    2.8838    0.0317    2.7122 C   0  0  0  0  0  0  0  0  0  0  0  0
    2.7596    1.1175    2.5823 H   0  0  0  0  0  0  0  0  0  0  0  0
    4.0086   -0.4668    3.3837 C   0  0  0  0  0  0  0  0  0  0  0  0
    4.7563    0.2332    3.7865 H   0  0  0  0  0  0  0  0  0  0  0  0
    4.1786   -1.8517    3.5471 C   0  0  0  0  0  0  0  0  0  0  0  0
    5.0603   -2.2433    4.0765 H   0  0  0  0  0  0  0  0  0  0  0  0
    3.2110   -2.7309    3.0381 C   0  0  0  0  0  0  0  0  0  0  0  0
    3.3311   -3.8176    3.1639 H   0  0  0  0  0  0  0  0  0  0  0  0
    2.0899   -2.2323    2.3583 C   0  0  0  0  0  0  0  0  0  0  0  0
    1.3539   -2.9387    1.9479 H   0  0  0  0  0  0  0  0  0  0  0  0
    2.3095    1.5519   -0.3090 C   0  0  0  0  0  0  0  0  0  0  0  0
    1.8204    2.6977    0.3547 C   0  0  0  0  0  0  0  0  0  0  0  0
    0.7998    2.7050    0.7706 H   0  0  0  0  0  0  0  0  0  0  0  0
    2.6169    3.8455    0.4543 C   0  0  0  0  0  0  0  0  0  0  0  0
    2.2286    4.7356    0.9718 H   0  0  0  0  0  0  0  0  0  0  0  0
    3.8981    3.8649   -0.1223 C   0  0  0  0  0  0  0  0  0  0  0  0
    4.5217    4.7685   -0.0480 H   0  0  0  0  0  0  0  0  0  0  0  0
    4.3711    2.7387   -0.8125 C   0  0  0  0  0  0  0  0  0  0  0  0
    5.3635    2.7589   -1.2877 H   0  0  0  0  0  0  0  0  0  0  0  0
    3.5792    1.5850   -0.9140 C   0  0  0  0  0  0  0  0  0  0  0  0
    3.9426    0.7148   -1.4782 H   0  0  0  0  0  0  0  0  0  0  0  0
    2.1524   -1.3203   -1.0524 C   0  0  0  0  0  0  0  0  0  0  0  0
    3.3958   -1.6952   -0.4957 C   0  0  0  0  0  0  0  0  0  0  0  0
    3.8487   -1.1025    0.3113 H   0  0  0  0  0  0  0  0  0  0  0  0
    4.0591   -2.8333   -0.9765 C   0  0  0  0  0  0  0  0  0  0  0  0
    5.0266   -3.1216   -0.5384 H   0  0  0  0  0  0  0  0  0  0  0  0
    3.4917   -3.6006   -2.0067 C   0  0  0  0  0  0  0  0  0  0  0  0
    4.0173   -4.4926   -2.3805 H   0  0  0  0  0  0  0  0  0  0  0  0
    2.2601   -3.2251   -2.5662 C   0  0  0  0  0  0  0  0  0  0  0  0
    1.8191   -3.8155   -3.3832 H   0  0  0  0  0  0  0  0  0  0  0  0
    1.5912   -2.0860   -2.0958 C   0  0  0  0  0  0  0  0  0  0  0  0
    0.6418   -1.7611   -2.5489 H   0  0  0  0  0  0  0  0  0  0  0  0
  1 25  1  0  0  0  0
  1 14  1  0  0  0  0
  2 41  1  0  0  0  0
  2 28  1  0  0  0  0
  3  1  1  0  0  0  0
  3 12  1  0  0  0  0
  4  3  2  0  0  0  0
  5  4  1  0  0  0  0
  6  4  1  0  0  0  0
  6  8  2  0  0  0  0
  7  6  1  0  0  0  0
  8 10  1  0  0  0  0
  9  8  1  0  0  0  0
 10 12  2  0  0  0  0
 10 11  1  0  0  0  0
 12 13  1  0  0  0  0
 14 23  1  0  0  0  0
 15 14  2  0  0  0  0
 15 17  1  0  0  0  0
 16 15  1  0  0  0  0
 17 19  2  0  0  0  0
 18 17  1  0  0  0  0
 19 21  1  0  0  0  0
 19 20  1  0  0  0  0
 21 22  1  0  0  0  0
 23 24  1  0  0  0  0
 23 21  2  0  0  0  0
 25 28  1  0  0  0  0
 25 26  1  0  0  0  0
 27 25  1  0  0  0  0
 28 29  1  1  0  0  0
 28 30  1  0  0  0  0
 30 39  2  0  0  0  0
 30 31  1  0  0  0  0
 31 33  2  0  0  0  0
 32 31  1  0  0  0  0
 33 35  1  0  0  0  0
 33 34  1  0  0  0  0
 35 36  1  0  0  0  0
 37 38  1  0  0  0  0
 37 35  2  0  0  0  0
 39 37  1  0  0  0  0
 40 39  1  0  0  0  0
 41 42  1  0  0  0  0
 42 44  2  0  0  0  0
 42 43  1  0  0  0  0
 44 45  1  0  0  0  0
 46 47  1  0  0  0  0
 46 44  1  0  0  0  0
 48 46  2  0  0  0  0
 49 48  1  0  0  0  0
 50 48  1  0  0  0  0
 50 41  2  0  0  0  0
 51 50  1  0  0  0  0
 52 53  1  0  0  0  0
 52  2  1  0  0  0  0
 53 54  1  0  0  0  0
 55 56  1  0  0  0  0
 55 53  2  0  0  0  0
 57 55  1  0  0  0  0
 58 57  1  0  0  0  0
 59 61  1  0  0  0  0
 59 57  2  0  0  0  0
 60 59  1  0  0  0  0
 61 52  2  0  0  0  0
 62 61  1  0  0  0  0
M  END
