1,2
q = 0.0, confidence = 1.0

 33 32  0  0  0  0  0  0  0  0999 V2000
    0.2810   -1.5942    0.4713 P   0  0  0  0  0  0  0  0  0  0  0  0
    0.2796    1.5945    0.4712 P   0  0  0  0  0  0  0  0  0  0  0  0
    2.5566    0.0011   -0.8326 Si  0  0  0  0  0  0  0  0  0  0  0  0
   -0.0889   -3.1257    0.0037 O   0  0  0  0  0  0  0  0  0  0  0  0
   -0.3147   -3.4722   -1.3667 C   0  0  0  0  0  0  0  0  0  0  0  0
    0.8025   -1.9141    1.9868 O   0  0  0  0  0  0  0  0  0  0  0  0
    1.7451   -2.9601    2.2503 C   0  0  0  0  0  0  0  0  0  0  0  0
    1.6778   -1.3811   -0.3750 O   0  0  0  0  0  0  0  0  0  0  0  0
   -0.0916    3.1257    0.0035 O   0  0  0  0  0  0  0  0  0  0  0  0
   -0.3178    3.4717   -1.3670 C   0  0  0  0  0  0  0  0  0  0  0  0
    0.8009    1.9150    1.9867 O   0  0  0  0  0  0  0  0  0  0  0  0
    1.7425    2.9619    2.2501 C   0  0  0  0  0  0  0  0  0  0  0  0
    1.6767    1.3827   -0.3751 O   0  0  0  0  0  0  0  0  0  0  0  0
    2.7891    0.0011   -2.6750 C   0  0  0  0  0  0  0  0  0  0  0  0
    4.1247    0.0017    0.1814 C   0  0  0  0  0  0  0  0  0  0  0  0
   -0.4263   -4.5728   -1.3977 H   0  0  0  0  0  0  0  0  0  0  0  0
    0.5442   -3.1657   -1.9986 H   0  0  0  0  0  0  0  0  0  0  0  0
   -1.2337   -2.9920   -1.7592 H   0  0  0  0  0  0  0  0  0  0  0  0
    1.9771   -2.9111    3.3305 H   0  0  0  0  0  0  0  0  0  0  0  0
    2.6767   -2.8127    1.6644 H   0  0  0  0  0  0  0  0  0  0  0  0
    1.3143   -3.9509    2.0033 H   0  0  0  0  0  0  0  0  0  0  0  0
   -0.4302    4.5722   -1.3983 H   0  0  0  0  0  0  0  0  0  0  0  0
   -1.2365    2.9908   -1.7593 H   0  0  0  0  0  0  0  0  0  0  0  0
    0.5413    3.1657   -1.9990 H   0  0  0  0  0  0  0  0  0  0  0  0
    1.9746    2.9131    3.3303 H   0  0  0  0  0  0  0  0  0  0  0  0
    1.3108    3.9523    2.0030 H   0  0  0  0  0  0  0  0  0  0  0  0
    2.6743    2.8152    1.6642 H   0  0  0  0  0  0  0  0  0  0  0  0
    3.3507   -0.8975   -3.0005 H   0  0  0  0  0  0  0  0  0  0  0  0
    3.3500    0.9002   -3.0006 H   0  0  0  0  0  0  0  0  0  0  0  0
    1.7933    0.0007   -3.1607 H   0  0  0  0  0  0  0  0  0  0  0  0
    4.7392   -0.8960   -0.0326 H   0  0  0  0  0  0  0  0  0  0  0  0
    3.8713    0.0016    1.2610 H   0  0  0  0  0  0  0  0  0  0  0  0
    4.7386    0.8998   -0.0327 H   0  0  0  0  0  0  0  0  0  0  0  0
  1  6  1  0  0  0  0
  2 11  1  0  0  0  0
  3 13  1  0  0  0  0
  3  8  1  0  0  0  0
  3 15  1  0  0  0  0
  4  1  1  0  0  0  0
  5  4  1  0  0  0  0
  6  7  1  0  0  0  0
  7 19  1  0  0  0  0
  8  1  1  0  0  0  0
  9  2  1  0  0  0  0
 10  9  1  0  0  0  0
 11 12  1  0  0  0  0
 12 25  1  0  0  0  0
 13  2  1  0  0  0  0
 14  3  1  0  0  0  0
 15 32  1  0  0  0  0
 16  5  1  0  0  0  0
 17  5  1  0  0  0  0
 18  5  1  0  0  0  0
 20  7  1  0  0  0  0
 21  7  1  0  0  0  0
 22 10  1  0  0  0  0
 23 10  1  0  0  0  0
 24 10  1  0  0  0  0
 26 12  1  0  0  0  0
 27 12  1  0  0  0  0
 28 14  1  0  0  0  0
 29 14  1  0  0  0  0
 30 14  1  0  0  0  0
 31 15  1  0  0  0  0
 33 15  1  0  0  0  0
M  END
