62,63
q = 0.0, confidence = 0.996

 63 66  0  0  1  0  0  0  0  0999 V2000
    1.4209   -1.7932   -0.9565 C   0  0  0  0  0  0  0  0  0  0  0  0
    1.1743   -2.9203   -0.1390 C   0  0  0  0  0  0  0  0  0  0  0  0
    1.0906   -2.7859    0.9530 H   0  0  0  0  0  0  0  0  0  0  0  0
    1.0226   -4.1871   -0.7181 C   0  0  0  0  0  0  0  0  0  0  0  0
    0.8247   -5.0561   -0.0730 H   0  0  0  0  0  0  0  0  0  0  0  0
    1.1041   -4.3444   -2.1122 C   0  0  0  0  0  0  0  0  0  0  0  0
    0.9700   -5.3384   -2.5652 H   0  0  0  0  0  0  0  0  0  0  0  0
    1.3584   -3.2306   -2.9270 C   0  0  0  0  0  0  0  0  0  0  0  0
    1.4297   -3.3479   -4.0190 H   0  0  0  0  0  0  0  0  0  0  0  0
    1.5237   -1.9589   -2.3519 C   0  0  0  0  0  0  0  0  0  0  0  0
    1.7255   -1.0994   -3.0086 H   0  0  0  0  0  0  0  0  0  0  0  0
    3.2564   -0.1482    0.5509 C   0  0  0  0  0  0  0  0  0  0  0  0
    4.2755   -0.8090   -0.1634 C   0  0  0  0  0  0  0  0  0  0  0  0
    4.0260   -1.4240   -1.0415 H   0  0  0  0  0  0  0  0  0  0  0  0
    5.6112   -0.6942    0.2530 C   0  0  0  0  0  0  0  0  0  0  0  0
    6.4031   -1.2175   -0.3041 H   0  0  0  0  0  0  0  0  0  0  0  0
    5.9319    0.0775    1.3805 C   0  0  0  0  0  0  0  0  0  0  0  0
    6.9789    0.1627    1.7093 H   0  0  0  0  0  0  0  0  0  0  0  0
    4.9151    0.7307    2.0966 C   0  0  0  0  0  0  0  0  0  0  0  0
    5.1617    1.3234    2.9902 H   0  0  0  0  0  0  0  0  0  0  0  0
    3.5782    0.6168    1.6909 C   0  0  0  0  0  0  0  0  0  0  0  0
    2.7748    1.0944    2.2688 H   0  0  0  0  0  0  0  0  0  0  0  0
    1.5556    1.1733   -1.3879 C   0  0  2  0  0  0  0  0  0  0  0  0
    2.1010    0.7183   -2.2441 H   0  0  0  0  0  0  0  0  0  0  0  0
    2.3735    2.3818   -0.8774 C   0  0  0  0  0  0  0  0  0  0  0  0
    1.9094    2.7818    0.0473 H   0  0  0  0  0  0  0  0  0  0  0  0
    3.4092    2.0646   -0.6444 H   0  0  0  0  0  0  0  0  0  0  0  0
    2.4083    3.5151   -1.9034 C   0  0  0  0  0  0  0  0  0  0  0  0
    3.3776    3.3428   -3.0596 C   0  0  0  0  0  0  0  0  0  0  0  0
    3.2041    4.1245   -3.8209 H   0  0  0  0  0  0  0  0  0  0  0  0
    3.2898    2.3352   -3.5166 H   0  0  0  0  0  0  0  0  0  0  0  0
    4.4185    3.4244   -2.6808 H   0  0  0  0  0  0  0  0  0  0  0  0
    0.1573    1.6406   -1.8531 C   0  0  0  0  0  0  0  0  0  0  0  0
    0.2808    2.1352   -2.8390 H   0  0  0  0  0  0  0  0  0  0  0  0
   -0.1843    2.4519   -1.1737 H   0  0  0  0  0  0  0  0  0  0  0  0
   -0.9373    0.5736   -1.9635 C   0  0  0  0  0  0  0  0  0  0  0  0
   -0.5523   -0.3800   -2.3733 H   0  0  0  0  0  0  0  0  0  0  0  0
   -1.7499    0.9118   -2.6369 H   0  0  0  0  0  0  0  0  0  0  0  0
   -2.7828    1.7222   -0.1015 C   0  0  0  0  0  0  0  0  0  0  0  0
   -2.5066    2.6610    0.9108 C   0  0  0  0  0  0  0  0  0  0  0  0
   -1.7025    2.4532    1.6320 H   0  0  0  0  0  0  0  0  0  0  0  0
   -3.2793    3.8277    1.0099 C   0  0  0  0  0  0  0  0  0  0  0  0
   -3.0599    4.5587    1.8023 H   0  0  0  0  0  0  0  0  0  0  0  0
   -4.3339    4.0552    0.1122 C   0  0  0  0  0  0  0  0  0  0  0  0
   -4.9423    4.9684    0.1972 H   0  0  0  0  0  0  0  0  0  0  0  0
   -4.6181    3.1148   -0.8919 C   0  0  0  0  0  0  0  0  0  0  0  0
   -5.4496    3.2867   -1.5922 H   0  0  0  0  0  0  0  0  0  0  0  0
   -3.8428    1.9518   -1.0035 C   0  0  0  0  0  0  0  0  0  0  0  0
   -4.0743    1.2131   -1.7872 H   0  0  0  0  0  0  0  0  0  0  0  0
   -2.7886   -1.1923   -0.5794 C   0  0  0  0  0  0  0  0  0  0  0  0
   -4.0627   -1.2583    0.0215 C   0  0  0  0  0  0  0  0  0  0  0  0
   -4.4227   -0.4165    0.6292 H   0  0  0  0  0  0  0  0  0  0  0  0
   -4.8506   -2.4068   -0.1377 C   0  0  0  0  0  0  0  0  0  0  0  0
   -5.8444   -2.4516    0.3326 H   0  0  0  0  0  0  0  0  0  0  0  0
   -4.3711   -3.4999   -0.8773 C   0  0  0  0  0  0  0  0  0  0  0  0
   -4.9913   -4.4017   -0.9934 H   0  0  0  0  0  0  0  0  0  0  0  0
   -3.0939   -3.4451   -1.4570 C   0  0  0  0  0  0  0  0  0  0  0  0
   -2.7025   -4.3031   -2.0243 H   0  0  0  0  0  0  0  0  0  0  0  0
   -2.3015   -2.2981   -1.3078 C   0  0  0  0  0  0  0  0  0  0  0  0
   -1.2928   -2.2844   -1.7463 H   0  0  0  0  0  0  0  0  0  0  0  0
    1.6947    4.4989   -1.7934 O   0  0  0  0  0  0  0  0  0  0  0  0
    1.5292   -0.1808   -0.0681 P   0  0  0  0  0  0  0  0  0  0  0  0
   -1.7049    0.2548   -0.3004 P   0  0  0  0  0  0  0  0  0  0  0  0
  1  2  1  0  0  0  0
  1 62  1  0  0  0  0
  2  3  1  0  0  0  0
  4  2  2  0  0  0  0
  4  5  1  0  0  0  0
  6  4  1  0  0  0  0
  7  6  1  0  0  0  0
  8 10  1  0  0  0  0
  8  6  2  0  0  0  0
  9  8  1  0  0  0  0
 10  1  2  0  0  0  0
 11 10  1  0  0  0  0
 12 21  1  0  0  0  0
 13 15  1  0  0  0  0
 13 12  2  0  0  0  0
 14 13  1  0  0  0  0
 15 17  2  0  0  0  0
 16 15  1  0  0  0  0
 17 18  1  0  0  0  0
 17 19  1  0  0  0  0
 19 20  1  0  0  0  0
 21 19  2  0  0  0  0
 21 22  1  0  0  0  0
 23 24  1  6  0  0  0
 23 25  1  0  0  0  0
 23 62  1  0  0  0  0
 25 27  1  0  0  0  0
 25 26  1  0  0  0  0
 28 61  2  0  0  0  0
 28 25  1  0  0  0  0
 29 32  1  0  0  0  0
 29 28  1  0  0  0  0
 30 29  1  0  0  0  0
 31 29  1  0  0  0  0
 33 23  1  0  0  0  0
 33 35  1  0  0  0  0
 34 33  1  0  0  0  0
 36 33  1  0  0  0  0
 36 63  1  0  0  0  0
 37 36  1  0  0  0  0
 38 36  1  0  0  0  0
 39 40  1  0  0  0  0
 40 42  2  0  0  0  0
 40 41  1  0  0  0  0
 42 43  1  0  0  0  0
 44 45  1  0  0  0  0
 44 42  1  0  0  0  0
 46 44  2  0  0  0  0
 47 46  1  0  0  0  0
 48 46  1  0  0  0  0
 48 39  2  0  0  0  0
 49 48  1  0  0  0  0
 50 63  1  0  0  0  0
 50 51  1  0  0  0  0
 51 52  1  0  0  0  0
 53 51  2  0  0  0  0
 53 54  1  0  0  0  0
 55 53  1  0  0  0  0
 56 55  1  0  0  0  0
 57 59  1  0  0  0  0
 57 55  2  0  0  0  0
 58 57  1  0  0  0  0
 59 50  2  0  0  0  0
 60 59  1  0  0  0  0
 62 12  1  0  0  0  0
 63 39  1  0  0  0  0
M  END
