1,2
q = 0.0, confidence = 0.998

 67 68  0  0  0  0  0  0  0  0999 V2000
    1.9960   -1.0586    0.0539 P   0  0  0  0  0  0  0  0  0  0  0  0
   -2.4902    0.0794   -0.4454 P   0  0  0  0  0  0  0  0  0  0  0  0
    2.8447    0.3474    0.4824 O   0  0  0  0  0  0  0  0  0  0  0  0
   -2.6042    1.7267   -0.1733 O   0  0  0  0  0  0  0  0  0  0  0  0
    0.6981    2.0998    1.4569 C   0  0  0  0  0  0  0  0  0  0  0  0
    4.3070   -1.8040   -1.4415 C   0  0  0  0  0  0  0  0  0  0  0  0
    4.8251   -1.0140   -0.8617 H   0  0  0  0  0  0  0  0  0  0  0  0
    4.7649   -1.8387   -2.4518 H   0  0  0  0  0  0  0  0  0  0  0  0
    4.5156   -2.7792   -0.9551 H   0  0  0  0  0  0  0  0  0  0  0  0
   -4.0529   -2.0415    0.5077 C   0  0  0  0  0  0  0  0  0  0  0  0
   -3.1297   -2.6527    0.4857 H   0  0  0  0  0  0  0  0  0  0  0  0
   -4.6082   -2.1829   -0.4425 H   0  0  0  0  0  0  0  0  0  0  0  0
   -4.6941   -2.4341    1.3237 H   0  0  0  0  0  0  0  0  0  0  0  0
   -3.1886    1.0940   -3.0031 C   0  0  0  0  0  0  0  0  0  0  0  0
   -3.6065    1.9888   -2.5043 H   0  0  0  0  0  0  0  0  0  0  0  0
   -3.7451    0.9272   -3.9489 H   0  0  0  0  0  0  0  0  0  0  0  0
   -2.1290    1.2960   -3.2526 H   0  0  0  0  0  0  0  0  0  0  0  0
    2.6315    1.5778   -0.1185 C   0  0  0  0  0  0  0  0  0  0  0  0
   -3.7380   -0.5647    0.7738 C   0  0  0  0  0  0  0  0  0  0  0  0
   -3.1792   -0.5031    1.7326 H   0  0  0  0  0  0  0  0  0  0  0  0
    2.3294    4.0732   -1.3688 C   0  0  0  0  0  0  0  0  0  0  0  0
    2.2052    5.0549   -1.8493 H   0  0  0  0  0  0  0  0  0  0  0  0
    2.8052   -1.5376   -1.5581 C   0  0  0  0  0  0  0  0  0  0  0  0
    2.6325   -0.6044   -2.1397 H   0  0  0  0  0  0  0  0  0  0  0  0
    3.4908    1.9565   -1.1631 C   0  0  0  0  0  0  0  0  0  0  0  0
    4.2766    1.2550   -1.4770 H   0  0  0  0  0  0  0  0  0  0  0  0
   -4.9929    0.3104    0.8415 C   0  0  0  0  0  0  0  0  0  0  0  0
   -4.7450    1.3724    1.0288 H   0  0  0  0  0  0  0  0  0  0  0  0
   -5.6514   -0.0464    1.6604 H   0  0  0  0  0  0  0  0  0  0  0  0
   -5.5828    0.2603   -0.0978 H   0  0  0  0  0  0  0  0  0  0  0  0
    0.4571    1.4179    3.7994 C   0  0  0  0  0  0  0  0  0  0  0  0
    0.9225    1.1152    4.7494 H   0  0  0  0  0  0  0  0  0  0  0  0
   -3.3049   -0.1511   -2.1177 C   0  0  0  0  0  0  0  0  0  0  0  0
   -4.3787   -0.3087   -1.8714 H   0  0  0  0  0  0  0  0  0  0  0  0
   -1.5114    1.8928    2.4727 C   0  0  0  0  0  0  0  0  0  0  0  0
   -2.6057    1.9508    2.3747 H   0  0  0  0  0  0  0  0  0  0  0  0
    2.5393   -1.5772    2.7749 C   0  0  0  0  0  0  0  0  0  0  0  0
    3.0321   -0.5921    2.8639 H   0  0  0  0  0  0  0  0  0  0  0  0
    3.0052   -2.2657    3.5105 H   0  0  0  0  0  0  0  0  0  0  0  0
    1.4679   -1.4628    3.0274 H   0  0  0  0  0  0  0  0  0  0  0  0
    1.4840    3.6976   -0.3174 C   0  0  0  0  0  0  0  0  0  0  0  0
    0.7133    4.3976    0.0392 H   0  0  0  0  0  0  0  0  0  0  0  0
    2.1525   -3.5833    1.2418 C   0  0  0  0  0  0  0  0  0  0  0  0
    2.3498   -4.0332    0.2494 H   0  0  0  0  0  0  0  0  0  0  0  0
    1.0596   -3.5889    1.4216 H   0  0  0  0  0  0  0  0  0  0  0  0
    2.6337   -4.2321    2.0023 H   0  0  0  0  0  0  0  0  0  0  0  0
    1.6044    2.4487    0.3306 C   0  0  0  0  0  0  0  0  0  0  0  0
    2.7126   -2.1593    1.3675 C   0  0  0  0  0  0  0  0  0  0  0  0
    3.7976   -2.1693    1.1240 H   0  0  0  0  0  0  0  0  0  0  0  0
   -2.7587   -1.4150   -2.7974 C   0  0  0  0  0  0  0  0  0  0  0  0
   -2.7877   -2.2999   -2.1311 H   0  0  0  0  0  0  0  0  0  0  0  0
   -1.7060   -1.2572   -3.1034 H   0  0  0  0  0  0  0  0  0  0  0  0
   -3.3603   -1.6471   -3.7007 H   0  0  0  0  0  0  0  0  0  0  0  0
   -0.9386    1.5068    3.6887 C   0  0  0  0  0  0  0  0  0  0  0  0
   -1.5813    1.2721    4.5504 H   0  0  0  0  0  0  0  0  0  0  0  0
   -0.7189    2.1771    1.3430 C   0  0  0  0  0  0  0  0  0  0  0  0
    1.2601    1.7200    2.6954 C   0  0  0  0  0  0  0  0  0  0  0  0
    2.3548    1.6707    2.7802 H   0  0  0  0  0  0  0  0  0  0  0  0
   -1.4169    2.5190    0.0406 C   0  0  0  0  0  0  0  0  0  0  0  0
   -1.7957    3.5629    0.0576 H   0  0  0  0  0  0  0  0  0  0  0  0
   -0.7274    2.4133   -0.8206 H   0  0  0  0  0  0  0  0  0  0  0  0
    2.0372   -2.6559   -2.2745 C   0  0  0  0  0  0  0  0  0  0  0  0
    0.9514   -2.4379   -2.3067 H   0  0  0  0  0  0  0  0  0  0  0  0
    2.1807   -3.6404   -1.7860 H   0  0  0  0  0  0  0  0  0  0  0  0
    2.3993   -2.7461   -3.3192 H   0  0  0  0  0  0  0  0  0  0  0  0
    3.3417    3.1993   -1.7909 C   0  0  0  0  0  0  0  0  0  0  0  0
    4.0191    3.4829   -2.6102 H   0  0  0  0  0  0  0  0  0  0  0  0
  1  3  1  0  0  0  0
  1 48  1  0  0  0  0
  2  4  1  0  0  0  0
  2 19  1  0  0  0  0
  4 59  1  0  0  0  0
  5 57  1  0  0  0  0
  6  9  1  0  0  0  0
  6  7  1  0  0  0  0
  8  6  1  0  0  0  0
 10 19  1  0  0  0  0
 10 13  1  0  0  0  0
 11 10  1  0  0  0  0
 12 10  1  0  0  0  0
 14 15  1  0  0  0  0
 14 33  1  0  0  0  0
 16 14  1  0  0  0  0
 17 14  1  0  0  0  0
 18 47  1  0  0  0  0
 18  3  1  0  0  0  0
 19 27  1  0  0  0  0
 19 20  1  0  0  0  0
 21 41  1  0  0  0  0
 22 21  1  0  0  0  0
 23  6  1  0  0  0  0
 23  1  1  0  0  0  0
 24 23  1  0  0  0  0
 25 18  2  0  0  0  0
 26 25  1  0  0  0  0
 27 28  1  0  0  0  0
 27 29  1  0  0  0  0
 30 27  1  0  0  0  0
 31 32  1  0  0  0  0
 33 34  1  0  0  0  0
 33  2  1  0  0  0  0
 35 54  2  0  0  0  0
 36 35  1  0  0  0  0
 37 38  1  0  0  0  0
 37 40  1  0  0  0  0
 37 39  1  0  0  0  0
 41 42  1  0  0  0  0
 41 47  2  0  0  0  0
 43 48  1  0  0  0  0
 43 45  1  0  0  0  0
 43 46  1  0  0  0  0
 44 43  1  0  0  0  0
 47  5  1  0  0  0  0
 48 37  1  0  0  0  0
 49 48  1  0  0  0  0
 50 51  1  0  0  0  0
 50 33  1  0  0  0  0
 52 50  1  0  0  0  0
 53 50  1  0  0  0  0
 54 31  1  0  0  0  0
 54 55  1  0  0  0  0
 56  5  2  0  0  0  0
 56 35  1  0  0  0  0
 57 58  1  0  0  0  0
 57 31  2  0  0  0  0
 59 60  1  0  0  0  0
 59 56  1  0  0  0  0
 61 59  1  0  0  0  0
 62 64  1  0  0  0  0
 62 23  1  0  0  0  0
 63 62  1  0  0  0  0
 65 62  1  0  0  0  0
 66 21  2  0  0  0  0
 66 25  1  0  0  0  0
 67 66  1  0  0  0  0
M  END
