1,2
q = 0.0, confidence = 1.0

 76 80  0  0  0  0  0  0  0  0999 V2000
   -1.0544    1.5043    0.5455 P   0  0  0  0  0  0  0  0  0  0  0  0
   -0.3032   -1.8109   -0.5128 P   0  0  0  0  0  0  0  0  0  0  0  0
    3.8335    3.3915    1.9800 O   0  0  0  0  0  0  0  0  0  0  0  0
    4.5455   -2.7967   -1.6186 O   0  0  0  0  0  0  0  0  0  0  0  0
    2.1206    2.5426    0.7060 N   0  0  0  0  0  0  0  0  0  0  0  0
    1.8564    1.9216   -0.0725 H   0  0  0  0  0  0  0  0  0  0  0  0
    2.8866   -2.3757   -0.0848 N   0  0  0  0  0  0  0  0  0  0  0  0
    2.5964   -1.7561    0.6705 H   0  0  0  0  0  0  0  0  0  0  0  0
   -0.0670    2.4257    1.8372 C   0  0  0  0  0  0  0  0  0  0  0  0
   -0.7685    3.0141    2.4635 H   0  0  0  0  0  0  0  0  0  0  0  0
    0.3837    1.6519    2.4917 H   0  0  0  0  0  0  0  0  0  0  0  0
    1.0576    3.3214    1.2945 C   0  0  0  0  0  0  0  0  0  0  0  0
    0.6477    4.0576    0.5674 H   0  0  0  0  0  0  0  0  0  0  0  0
    1.5153    3.8989    2.1234 H   0  0  0  0  0  0  0  0  0  0  0  0
    3.4191    2.5843    1.1439 C   0  0  0  0  0  0  0  0  0  0  0  0
    4.3091    1.5188    0.5522 C   0  0  0  0  0  0  0  0  0  0  0  0
    5.7053    1.6976    0.5573 C   0  0  0  0  0  0  0  0  0  0  0  0
    6.1085    2.6377    0.9625 H   0  0  0  0  0  0  0  0  0  0  0  0
    6.5444    0.6924    0.0517 C   0  0  0  0  0  0  0  0  0  0  0  0
    7.6337    0.8496    0.0317 H   0  0  0  0  0  0  0  0  0  0  0  0
    6.0077   -0.5198   -0.4111 C   0  0  0  0  0  0  0  0  0  0  0  0
    6.6504   -1.3252   -0.7971 H   0  0  0  0  0  0  0  0  0  0  0  0
    4.6181   -0.7330   -0.3621 C   0  0  0  0  0  0  0  0  0  0  0  0
    4.0371   -2.0615   -0.7725 C   0  0  0  0  0  0  0  0  0  0  0  0
    2.0585   -3.5243   -0.3610 C   0  0  0  0  0  0  0  0  0  0  0  0
    1.7911   -4.0175    0.5974 H   0  0  0  0  0  0  0  0  0  0  0  0
    2.6797   -4.2316   -0.9486 H   0  0  0  0  0  0  0  0  0  0  0  0
    0.7818   -3.2068   -1.1550 C   0  0  0  0  0  0  0  0  0  0  0  0
    0.1572   -4.1211   -1.2111 H   0  0  0  0  0  0  0  0  0  0  0  0
    1.0331   -2.9150   -2.1942 H   0  0  0  0  0  0  0  0  0  0  0  0
   -1.9425   -2.3562   -1.1712 C   0  0  0  0  0  0  0  0  0  0  0  0
   -2.4690   -3.6554   -1.0051 C   0  0  0  0  0  0  0  0  0  0  0  0
   -1.8999   -4.4256   -0.4629 H   0  0  0  0  0  0  0  0  0  0  0  0
   -3.7193   -3.9919   -1.5450 C   0  0  0  0  0  0  0  0  0  0  0  0
   -4.1215   -5.0059   -1.3983 H   0  0  0  0  0  0  0  0  0  0  0  0
   -4.4488   -3.0443   -2.2816 C   0  0  0  0  0  0  0  0  0  0  0  0
   -5.4269   -3.3128   -2.7091 H   0  0  0  0  0  0  0  0  0  0  0  0
   -3.9155   -1.7629   -2.4884 C   0  0  0  0  0  0  0  0  0  0  0  0
   -4.4690   -1.0216   -3.0847 H   0  0  0  0  0  0  0  0  0  0  0  0
   -2.6715   -1.4232   -1.9368 C   0  0  0  0  0  0  0  0  0  0  0  0
   -2.2309   -0.4241   -2.0934 H   0  0  0  0  0  0  0  0  0  0  0  0
   -0.2904   -2.1176    1.3161 C   0  0  0  0  0  0  0  0  0  0  0  0
    0.6499   -1.3661    2.0567 C   0  0  0  0  0  0  0  0  0  0  0  0
    1.2207   -0.5714    1.5464 H   0  0  0  0  0  0  0  0  0  0  0  0
    0.8251   -1.5791    3.4313 C   0  0  0  0  0  0  0  0  0  0  0  0
    1.5720   -0.9888    3.9840 H   0  0  0  0  0  0  0  0  0  0  0  0
    0.0348   -2.5291    4.0970 C   0  0  0  0  0  0  0  0  0  0  0  0
    0.1630   -2.6977    5.1769 H   0  0  0  0  0  0  0  0  0  0  0  0
   -0.9354   -3.2464    3.3807 C   0  0  0  0  0  0  0  0  0  0  0  0
   -1.5814   -3.9696    3.9012 H   0  0  0  0  0  0  0  0  0  0  0  0
   -1.0951   -3.0481    1.9997 C   0  0  0  0  0  0  0  0  0  0  0  0
   -1.8730   -3.6081    1.4641 H   0  0  0  0  0  0  0  0  0  0  0  0
    3.7803    0.3048    0.0821 C   0  0  0  0  0  0  0  0  0  0  0  0
    2.6869    0.1641    0.0333 H   0  0  0  0  0  0  0  0  0  0  0  0
   -2.2529    0.5487    1.5853 C   0  0  0  0  0  0  0  0  0  0  0  0
   -2.0639    0.2842    2.9562 C   0  0  0  0  0  0  0  0  0  0  0  0
   -1.1918    0.6830    3.4907 H   0  0  0  0  0  0  0  0  0  0  0  0
   -2.9810   -0.5128    3.6589 C   0  0  0  0  0  0  0  0  0  0  0  0
   -2.8118   -0.7156    4.7272 H   0  0  0  0  0  0  0  0  0  0  0  0
   -4.0971   -1.0559    3.0058 C   0  0  0  0  0  0  0  0  0  0  0  0
   -4.8096   -1.6867    3.5589 H   0  0  0  0  0  0  0  0  0  0  0  0
   -4.3016   -0.7844    1.6435 C   0  0  0  0  0  0  0  0  0  0  0  0
   -5.1753   -1.1983    1.1173 H   0  0  0  0  0  0  0  0  0  0  0  0
   -3.3916    0.0175    0.9432 C   0  0  0  0  0  0  0  0  0  0  0  0
   -3.5726    0.2383   -0.1178 H   0  0  0  0  0  0  0  0  0  0  0  0
   -2.2104    2.7845   -0.1300 C   0  0  0  0  0  0  0  0  0  0  0  0
   -2.5560    2.7406   -1.4950 C   0  0  0  0  0  0  0  0  0  0  0  0
   -2.0664    1.9975   -2.1429 H   0  0  0  0  0  0  0  0  0  0  0  0
   -3.4946    3.6416   -2.0212 C   0  0  0  0  0  0  0  0  0  0  0  0
   -3.7533    3.5975   -3.0901 H   0  0  0  0  0  0  0  0  0  0  0  0
   -4.0920    4.6006   -1.1896 C   0  0  0  0  0  0  0  0  0  0  0  0
   -4.8232    5.3122   -1.6023 H   0  0  0  0  0  0  0  0  0  0  0  0
   -3.7549    4.6495    0.1733 C   0  0  0  0  0  0  0  0  0  0  0  0
   -4.2246    5.3958    0.8320 H   0  0  0  0  0  0  0  0  0  0  0  0
   -2.8250    3.7429    0.7017 C   0  0  0  0  0  0  0  0  0  0  0  0
   -2.5930    3.7776    1.7771 H   0  0  0  0  0  0  0  0  0  0  0  0
  1 55  1  0  0  0  0
  1  9  1  0  0  0  0
  2 42  1  0  0  0  0
  4 24  2  0  0  0  0
  5 15  1  0  0  0  0
  5 12  1  0  0  0  0
  6  5  1  0  0  0  0
  7  8  1  0  0  0  0
  9 10  1  0  0  0  0
  9 11  1  0  0  0  0
 12  9  1  0  0  0  0
 12 14  1  0  0  0  0
 13 12  1  0  0  0  0
 15  3  2  0  0  0  0
 16 17  1  0  0  0  0
 16 15  1  0  0  0  0
 17 18  1  0  0  0  0
 19 17  2  0  0  0  0
 20 19  1  0  0  0  0
 21 23  2  0  0  0  0
 21 19  1  0  0  0  0
 22 21  1  0  0  0  0
 23 53  1  0  0  0  0
 24 23  1  0  0  0  0
 24  7  1  0  0  0  0
 25  7  1  0  0  0  0
 25 26  1  0  0  0  0
 27 25  1  0  0  0  0
 28  2  1  0  0  0  0
 28 25  1  0  0  0  0
 29 28  1  0  0  0  0
 30 28  1  0  0  0  0
 31 32  1  0  0  0  0
 31  2  1  0  0  0  0
 32 33  1  0  0  0  0
 34 35  1  0  0  0  0
 34 32  2  0  0  0  0
 36 34  1  0  0  0  0
 37 36  1  0  0  0  0
 38 36  2  0  0  0  0
 38 40  1  0  0  0  0
 39 38  1  0  0  0  0
 40 31  2  0  0  0  0
 41 40  1  0  0  0  0
 42 51  2  0  0  0  0
 42 43  1  0  0  0  0
 43 45  2  0  0  0  0
 44 43  1  0  0  0  0
 45 46  1  0  0  0  0
 45 47  1  0  0  0  0
 47 48  1  0  0  0  0
 49 50  1  0  0  0  0
 49 47  2  0  0  0  0
 51 49  1  0  0  0  0
 52 51  1  0  0  0  0
 53 16  2  0  0  0  0
 54 53  1  0  0  0  0
 55 56  1  0  0  0  0
 56 57  1  0  0  0  0
 56 58  2  0  0  0  0
 58 59  1  0  0  0  0
 60 61  1  0  0  0  0
 60 58  1  0  0  0  0
 62 60  2  0  0  0  0
 63 62  1  0  0  0  0
 64 55  2  0  0  0  0
 64 62  1  0  0  0  0
 65 64  1  0  0  0  0
 66  1  1  0  0  0  0
 66 75  1  0  0  0  0
 67 66  2  0  0  0  0
 68 67  1  0  0  0  0
 69 67  1  0  0  0  0
 69 71  2  0  0  0  0
 70 69  1  0  0  0  0
 71 73  1  0  0  0  0
 72 71  1  0  0  0  0
 73 75  2  0  0  0  0
 73 74  1  0  0  0  0
 75 76  1  0  0  0  0
M  END
