1,28
q = 0.0, confidence = 0.984

 52 55  0  0  0  0  0  0  0  0999 V2000
    1.5552    0.0116    0.3313 P   0  0  0  0  0  0  0  0  0  0  0  0
    1.3219   -2.9747    0.3806 F   0  0  0  0  0  0  0  0  0  0  0  0
    3.3922    0.9931    2.6005 F   0  0  0  0  0  0  0  0  0  0  0  0
    4.0804    5.3782    1.0244 F   0  0  0  0  0  0  0  0  0  0  0  0
    5.8332   -4.0725   -0.4333 F   0  0  0  0  0  0  0  0  0  0  0  0
    0.6801   -0.3485    1.9459 C   0  0  0  0  0  0  0  0  0  0  0  0
    0.5639   -1.4501    1.9786 H   0  0  0  0  0  0  0  0  0  0  0  0
    1.3138   -0.0416    2.7995 H   0  0  0  0  0  0  0  0  0  0  0  0
    3.1653    1.9414    1.6669 C   0  0  0  0  0  0  0  0  0  0  0  0
    2.3683    1.6332    0.5465 C   0  0  0  0  0  0  0  0  0  0  0  0
    4.2355   -0.8300   -0.0705 C   0  0  0  0  0  0  0  0  0  0  0  0
    4.4894    0.2381   -0.1265 H   0  0  0  0  0  0  0  0  0  0  0  0
    2.1874    2.6385   -0.4294 C   0  0  0  0  0  0  0  0  0  0  0  0
    1.6080    2.3890   -1.3325 H   0  0  0  0  0  0  0  0  0  0  0  0
    2.9019   -1.2063    0.1868 C   0  0  0  0  0  0  0  0  0  0  0  0
    2.6004   -2.5814    0.1885 C   0  0  0  0  0  0  0  0  0  0  0  0
    3.7487    3.1970    1.8507 C   0  0  0  0  0  0  0  0  0  0  0  0
    4.3624    3.4112    2.7355 H   0  0  0  0  0  0  0  0  0  0  0  0
    5.2342   -1.7878   -0.2759 C   0  0  0  0  0  0  0  0  0  0  0  0
    6.2752   -1.5012   -0.4774 H   0  0  0  0  0  0  0  0  0  0  0  0
    3.5292    4.1678    0.8640 C   0  0  0  0  0  0  0  0  0  0  0  0
    3.5698   -3.5650   -0.0098 C   0  0  0  0  0  0  0  0  0  0  0  0
    3.3040   -4.6301    0.0008 H   0  0  0  0  0  0  0  0  0  0  0  0
    4.8861   -3.1447   -0.2392 C   0  0  0  0  0  0  0  0  0  0  0  0
    2.7614    3.9056   -0.2786 C   0  0  0  0  0  0  0  0  0  0  0  0
    2.6270    4.6904   -1.0353 H   0  0  0  0  0  0  0  0  0  0  0  0
   -0.6800    0.3482    1.9460 C   0  0  0  0  0  0  0  0  0  0  0  0
   -1.5551   -0.0118    0.3313 P   0  0  0  0  0  0  0  0  0  0  0  0
   -2.3687   -1.6332    0.5466 C   0  0  0  0  0  0  0  0  0  0  0  0
   -3.1657   -1.9410    1.6670 C   0  0  0  0  0  0  0  0  0  0  0  0
   -3.3926   -0.9927    2.6005 F   0  0  0  0  0  0  0  0  0  0  0  0
   -3.7495   -3.1965    1.8508 C   0  0  0  0  0  0  0  0  0  0  0  0
   -4.3633   -3.4105    2.7356 H   0  0  0  0  0  0  0  0  0  0  0  0
   -3.5302   -4.1674    0.8642 C   0  0  0  0  0  0  0  0  0  0  0  0
   -4.0817   -5.3777    1.0246 F   0  0  0  0  0  0  0  0  0  0  0  0
   -2.7623   -3.9055   -0.2785 C   0  0  0  0  0  0  0  0  0  0  0  0
   -2.1880   -2.6386   -0.4292 C   0  0  0  0  0  0  0  0  0  0  0  0
   -1.6084   -2.3892   -1.3324 H   0  0  0  0  0  0  0  0  0  0  0  0
   -2.6280   -4.6903   -1.0351 H   0  0  0  0  0  0  0  0  0  0  0  0
   -2.9015    1.2064    0.1867 C   0  0  0  0  0  0  0  0  0  0  0  0
   -4.2352    0.8304   -0.0705 C   0  0  0  0  0  0  0  0  0  0  0  0
   -4.4893   -0.2376   -0.1263 H   0  0  0  0  0  0  0  0  0  0  0  0
   -5.2337    1.7884   -0.2760 C   0  0  0  0  0  0  0  0  0  0  0  0
   -6.2748    1.5020   -0.4774 H   0  0  0  0  0  0  0  0  0  0  0  0
   -4.8853    3.1452   -0.2395 C   0  0  0  0  0  0  0  0  0  0  0  0
   -5.8322    4.0732   -0.4338 F   0  0  0  0  0  0  0  0  0  0  0  0
   -3.5689    3.5653   -0.0103 C   0  0  0  0  0  0  0  0  0  0  0  0
   -2.5997    2.5814    0.1881 C   0  0  0  0  0  0  0  0  0  0  0  0
   -1.3211    2.9745    0.3802 F   0  0  0  0  0  0  0  0  0  0  0  0
   -3.3029    4.6303    0.0002 H   0  0  0  0  0  0  0  0  0  0  0  0
   -0.5637    1.4499    1.9786 H   0  0  0  0  0  0  0  0  0  0  0  0
   -1.3136    0.0413    2.7996 H   0  0  0  0  0  0  0  0  0  0  0  0
  1 10  1  0  0  0  0
  1  6  1  0  0  0  0
  5 24  1  0  0  0  0
  6 27  1  0  0  0  0
  6  7  1  0  0  0  0
  6  8  1  0  0  0  0
  9 17  1  0  0  0  0
  9  3  1  0  0  0  0
 10  9  2  0  0  0  0
 11 15  1  0  0  0  0
 12 11  1  0  0  0  0
 13 25  2  0  0  0  0
 13 10  1  0  0  0  0
 14 13  1  0  0  0  0
 15 16  2  0  0  0  0
 15  1  1  0  0  0  0
 16  2  1  0  0  0  0
 17 18  1  0  0  0  0
 19 24  1  0  0  0  0
 19 11  2  0  0  0  0
 20 19  1  0  0  0  0
 21  4  1  0  0  0  0
 21 17  2  0  0  0  0
 22 23  1  0  0  0  0
 22 16  1  0  0  0  0
 24 22  2  0  0  0  0
 25 21  1  0  0  0  0
 26 25  1  0  0  0  0
 27 51  1  0  0  0  0
 27 52  1  0  0  0  0
 28 29  1  0  0  0  0
 28 27  1  0  0  0  0
 29 30  1  0  0  0  0
 30 32  2  0  0  0  0
 30 31  1  0  0  0  0
 32 33  1  0  0  0  0
 34 35  1  0  0  0  0
 34 32  1  0  0  0  0
 36 34  2  0  0  0  0
 37 36  1  0  0  0  0
 37 29  2  0  0  0  0
 38 37  1  0  0  0  0
 39 36  1  0  0  0  0
 40 48  1  0  0  0  0
 40 28  1  0  0  0  0
 41 40  2  0  0  0  0
 42 41  1  0  0  0  0
 43 45  2  0  0  0  0
 43 41  1  0  0  0  0
 44 43  1  0  0  0  0
 45 47  1  0  0  0  0
 46 45  1  0  0  0  0
 47 50  1  0  0  0  0
 47 48  2  0  0  0  0
 48 49  1  0  0  0  0
M  END
