1,38
q = 0.0, confidence = 0.984

 65 66  0  0  0  0  0  0  0  0999 V2000
    1.4207   -0.7782   -0.3202 P   0  0  1  0  0  0  0  0  0  0  0  0
    1.9691   -2.6148   -0.5409 C   0  0  0  0  0  0  0  0  0  0  0  0
    2.8725   -3.0175    0.6355 C   0  0  0  0  0  0  0  0  0  0  0  0
    3.1116   -4.0974    0.5364 H   0  0  0  0  0  0  0  0  0  0  0  0
    2.3614   -2.8650    1.6052 H   0  0  0  0  0  0  0  0  0  0  0  0
    3.8287   -2.4574    0.6288 H   0  0  0  0  0  0  0  0  0  0  0  0
    2.7307   -2.8428   -1.8562 C   0  0  0  0  0  0  0  0  0  0  0  0
    3.0009   -3.9186   -1.9045 H   0  0  0  0  0  0  0  0  0  0  0  0
    3.6687   -2.2632   -1.9083 H   0  0  0  0  0  0  0  0  0  0  0  0
    2.1224   -2.6242   -2.7551 H   0  0  0  0  0  0  0  0  0  0  0  0
    0.6753   -3.4505   -0.5441 C   0  0  0  0  0  0  0  0  0  0  0  0
    0.9447   -4.5150   -0.7098 H   0  0  0  0  0  0  0  0  0  0  0  0
   -0.0163   -3.1504   -1.3563 H   0  0  0  0  0  0  0  0  0  0  0  0
    0.1432   -3.3687    0.4227 H   0  0  0  0  0  0  0  0  0  0  0  0
    2.8700    0.1461    0.4460 C   0  0  0  0  0  0  0  0  0  0  0  0
    3.9886    0.8354   -0.1173 C   0  0  0  0  0  0  0  0  0  0  0  0
    4.9244    1.4614    0.7336 C   0  0  0  0  0  0  0  0  0  0  0  0
    5.7693    1.9968    0.2824 H   0  0  0  0  0  0  0  0  0  0  0  0
    4.8087    1.4092    2.1262 C   0  0  0  0  0  0  0  0  0  0  0  0
    5.5582    1.9088    2.7578 H   0  0  0  0  0  0  0  0  0  0  0  0
    3.7372    0.7114    2.6903 C   0  0  0  0  0  0  0  0  0  0  0  0
    3.6199    0.6366    3.7817 H   0  0  0  0  0  0  0  0  0  0  0  0
    2.7896    0.1027    1.8591 C   0  0  0  0  0  0  0  0  0  0  0  0
    1.9534   -0.4449    2.3281 H   0  0  0  0  0  0  0  0  0  0  0  0
    4.2749    1.0026   -1.5979 C   0  0  0  0  0  0  0  0  0  0  0  0
    3.3904    1.8436   -2.2027 F   0  0  0  0  0  0  0  0  0  0  0  0
    4.2273   -0.1727   -2.2826 F   0  0  0  0  0  0  0  0  0  0  0  0
    5.5012    1.5195   -1.8310 F   0  0  0  0  0  0  0  0  0  0  0  0
    1.1442   -0.2104   -2.0621 C   0  0  0  0  0  0  0  0  0  0  0  0
    2.0890   -0.3214   -2.6193 H   0  0  0  0  0  0  0  0  0  0  0  0
    0.4467   -0.9704   -2.4726 H   0  0  0  0  0  0  0  0  0  0  0  0
    0.5637    1.1940   -2.2795 C   0  0  0  0  0  0  0  0  0  0  0  0
    0.7350    1.4597   -3.3441 H   0  0  0  0  0  0  0  0  0  0  0  0
    1.1362    1.9453   -1.7029 H   0  0  0  0  0  0  0  0  0  0  0  0
   -0.9325    1.3114   -2.0014 C   0  0  0  0  0  0  0  0  0  0  0  0
   -1.4842    0.5293   -2.5554 H   0  0  0  0  0  0  0  0  0  0  0  0
   -1.3300    2.2838   -2.3523 H   0  0  0  0  0  0  0  0  0  0  0  0
   -1.4474    1.1107   -0.2255 P   0  0  1  0  0  0  0  0  0  0  0  0
   -1.0769    2.8309    0.5783 C   0  0  0  0  0  0  0  0  0  0  0  0
   -1.1960    3.9871   -0.4321 C   0  0  0  0  0  0  0  0  0  0  0  0
   -0.4437    3.9189   -1.2421 H   0  0  0  0  0  0  0  0  0  0  0  0
   -1.0075    4.9405    0.1043 H   0  0  0  0  0  0  0  0  0  0  0  0
   -2.1965    4.0685   -0.9007 H   0  0  0  0  0  0  0  0  0  0  0  0
   -1.9377    3.1020    1.8251 C   0  0  0  0  0  0  0  0  0  0  0  0
   -1.5390    4.0106    2.3239 H   0  0  0  0  0  0  0  0  0  0  0  0
   -1.8958    2.2515    2.5313 H   0  0  0  0  0  0  0  0  0  0  0  0
   -3.0027    3.2889    1.5961 H   0  0  0  0  0  0  0  0  0  0  0  0
    0.3916    2.7389    1.0498 C   0  0  0  0  0  0  0  0  0  0  0  0
    0.6836    3.7168    1.4872 H   0  0  0  0  0  0  0  0  0  0  0  0
    1.1016    2.5169    0.2300 H   0  0  0  0  0  0  0  0  0  0  0  0
    0.5177    1.9588    1.8261 H   0  0  0  0  0  0  0  0  0  0  0  0
   -3.2727    0.8619   -0.5017 C   0  0  0  0  0  0  0  0  0  0  0  0
   -3.8629   -0.3845   -0.8664 C   0  0  0  0  0  0  0  0  0  0  0  0
   -5.2527   -0.4617   -1.0720 C   0  0  0  0  0  0  0  0  0  0  0  0
   -5.6917   -1.4314   -1.3408 H   0  0  0  0  0  0  0  0  0  0  0  0
   -6.0775    0.6631   -0.9518 C   0  0  0  0  0  0  0  0  0  0  0  0
   -7.1614    0.5693   -1.1124 H   0  0  0  0  0  0  0  0  0  0  0  0
   -5.5018    1.8984   -0.6431 C   0  0  0  0  0  0  0  0  0  0  0  0
   -6.1222    2.8036   -0.5632 H   0  0  0  0  0  0  0  0  0  0  0  0
   -4.1192    1.9863   -0.4301 C   0  0  0  0  0  0  0  0  0  0  0  0
   -3.6944    2.9665   -0.1897 H   0  0  0  0  0  0  0  0  0  0  0  0
   -3.1049   -1.6926   -1.0514 C   0  0  0  0  0  0  0  0  0  0  0  0
   -2.8055   -2.3127    0.0993 F   0  0  0  0  0  0  0  0  0  0  0  0
   -1.9260   -1.5044   -1.7297 F   0  0  0  0  0  0  0  0  0  0  0  0
   -3.8190   -2.5701   -1.7988 F   0  0  0  0  0  0  0  0  0  0  0  0
  1 29  1  6  0  0  0
  1 15  1  0  0  0  0
  2  1  1  0  0  0  0
  2  3  1  0  0  0  0
  3  5  1  0  0  0  0
  4  3  1  0  0  0  0
  6  3  1  0  0  0  0
  7  2  1  0  0  0  0
  8  7  1  0  0  0  0
  9  7  1  0  0  0  0
 10  7  1  0  0  0  0
 11  2  1  0  0  0  0
 11 14  1  0  0  0  0
 12 11  1  0  0  0  0
 13 11  1  0  0  0  0
 15 23  1  0  0  0  0
 16 15  2  0  0  0  0
 16 17  1  0  0  0  0
 17 19  2  0  0  0  0
 18 17  1  0  0  0  0
 19 21  1  0  0  0  0
 19 20  1  0  0  0  0
 21 22  1  0  0  0  0
 23 24  1  0  0  0  0
 23 21  2  0  0  0  0
 25 16  1  0  0  0  0
 26 25  1  0  0  0  0
 27 25  1  0  0  0  0
 28 25  1  0  0  0  0
 30 29  1  0  0  0  0
 31 29  1  0  0  0  0
 32 29  1  0  0  0  0
 32 35  1  0  0  0  0
 32 34  1  0  0  0  0
 33 32  1  0  0  0  0
 36 35  1  0  0  0  0
 37 35  1  0  0  0  0
 38 35  1  6  0  0  0
 38 39  1  0  0  0  0
 39 48  1  0  0  0  0
 39 44  1  0  0  0  0
 40 42  1  0  0  0  0
 40 39  1  0  0  0  0
 41 40  1  0  0  0  0
 43 40  1  0  0  0  0
 44 45  1  0  0  0  0
 44 46  1  0  0  0  0
 47 44  1  0  0  0  0
 48 49  1  0  0  0  0
 48 51  1  0  0  0  0
 50 48  1  0  0  0  0
 52 60  1  0  0  0  0
 52 38  1  0  0  0  0
 53 52  2  0  0  0  0
 54 56  2  0  0  0  0
 54 53  1  0  0  0  0
 55 54  1  0  0  0  0
 56 58  1  0  0  0  0
 57 56  1  0  0  0  0
 58 59  1  0  0  0  0
 58 60  2  0  0  0  0
 60 61  1  0  0  0  0
 62 53  1  0  0  0  0
 62 63  1  0  0  0  0
 64 62  1  0  0  0  0
 65 62  1  0  0  0  0
M  END
