1,11
q = 0.0, confidence = 0.988

 64 64  0  0  0  0  0  0  0  0999 V2000
   -1.0637    0.7371   -0.6334 P   0  0  2  0  0  0  0  0  0  0  0  0
   -0.7816   -0.2305   -2.1939 C   0  0  0  0  0  0  0  0  0  0  0  0
   -1.7011   -0.2498   -2.8016 H   0  0  0  0  0  0  0  0  0  0  0  0
   -0.0769    0.4610   -2.7024 H   0  0  0  0  0  0  0  0  0  0  0  0
   -0.1840   -1.6447   -2.1148 C   0  0  0  0  0  0  0  0  0  0  0  0
   -0.9932   -2.3789   -2.2874 H   0  0  0  0  0  0  0  0  0  0  0  0
    0.5178   -1.7682   -2.9645 H   0  0  0  0  0  0  0  0  0  0  0  0
    0.4987   -2.0481   -0.8052 C   0  0  0  0  0  0  0  0  0  0  0  0
    0.9065   -3.0717   -0.9085 H   0  0  0  0  0  0  0  0  0  0  0  0
   -0.2639   -2.1011   -0.0035 H   0  0  0  0  0  0  0  0  0  0  0  0
    1.8218   -0.9301   -0.1385 P   0  0  0  0  0  0  0  0  0  0  0  0
   -2.1403   -0.0543    0.6738 C   0  0  0  0  0  0  0  0  0  0  0  0
   -3.0991   -1.1059    0.6550 C   0  0  0  0  0  0  0  0  0  0  0  0
   -3.7667   -1.4698    1.8445 C   0  0  0  0  0  0  0  0  0  0  0  0
   -4.4944   -2.2918    1.8099 H   0  0  0  0  0  0  0  0  0  0  0  0
   -3.5291   -0.8036    3.0501 C   0  0  0  0  0  0  0  0  0  0  0  0
   -4.0672   -1.1074    3.9602 H   0  0  0  0  0  0  0  0  0  0  0  0
   -2.6047    0.2478    3.0778 C   0  0  0  0  0  0  0  0  0  0  0  0
   -2.4000    0.7947    4.0103 H   0  0  0  0  0  0  0  0  0  0  0  0
   -1.9207    0.6042    1.9109 C   0  0  0  0  0  0  0  0  0  0  0  0
   -1.1840    1.4268    1.9497 H   0  0  0  0  0  0  0  0  0  0  0  0
   -3.4294   -1.9707   -0.5425 C   0  0  0  0  0  0  0  0  0  0  0  0
   -2.5417   -3.0027   -0.6645 F   0  0  0  0  0  0  0  0  0  0  0  0
   -4.6527   -2.5348   -0.4419 F   0  0  0  0  0  0  0  0  0  0  0  0
   -3.4105   -1.2970   -1.7194 F   0  0  0  0  0  0  0  0  0  0  0  0
   -2.1013    2.2294   -1.2808 C   0  0  0  0  0  0  0  0  0  0  0  0
   -3.2111    1.7585   -2.2367 C   0  0  0  0  0  0  0  0  0  0  0  0
   -3.8233    2.6444   -2.5062 H   0  0  0  0  0  0  0  0  0  0  0  0
   -3.8868    1.0183   -1.7687 H   0  0  0  0  0  0  0  0  0  0  0  0
   -2.8243    1.3364   -3.1842 H   0  0  0  0  0  0  0  0  0  0  0  0
   -2.7643    2.9666   -0.1056 C   0  0  0  0  0  0  0  0  0  0  0  0
   -3.2794    3.8628   -0.5111 H   0  0  0  0  0  0  0  0  0  0  0  0
   -2.0144    3.3050    0.6337 H   0  0  0  0  0  0  0  0  0  0  0  0
   -3.5280    2.3396    0.3951 H   0  0  0  0  0  0  0  0  0  0  0  0
   -1.1215    3.1628   -2.0151 C   0  0  0  0  0  0  0  0  0  0  0  0
   -1.6925    4.0165   -2.4370 H   0  0  0  0  0  0  0  0  0  0  0  0
   -0.6121    2.6587   -2.8617 H   0  0  0  0  0  0  0  0  0  0  0  0
   -0.3575    3.5595   -1.3192 H   0  0  0  0  0  0  0  0  0  0  0  0
    2.1446   -1.7460    1.5769 C   0  0  0  0  0  0  0  0  0  0  0  0
    0.8593   -1.5249    2.4010 C   0  0  0  0  0  0  0  0  0  0  0  0
    0.9965   -1.9888    3.4002 H   0  0  0  0  0  0  0  0  0  0  0  0
   -0.0450   -1.9787    1.9505 H   0  0  0  0  0  0  0  0  0  0  0  0
    0.6641   -0.4445    2.5504 H   0  0  0  0  0  0  0  0  0  0  0  0
    2.4306   -3.2510    1.4317 C   0  0  0  0  0  0  0  0  0  0  0  0
    2.5875   -3.6801    2.4439 H   0  0  0  0  0  0  0  0  0  0  0  0
    3.3535   -3.4455    0.8508 H   0  0  0  0  0  0  0  0  0  0  0  0
    1.5958   -3.8109    0.9671 H   0  0  0  0  0  0  0  0  0  0  0  0
    3.3007   -1.0751    2.3381 C   0  0  0  0  0  0  0  0  0  0  0  0
    3.2952   -1.4607    3.3795 H   0  0  0  0  0  0  0  0  0  0  0  0
    3.1970    0.0262    2.3616 H   0  0  0  0  0  0  0  0  0  0  0  0
    4.2874   -1.3099    1.9022 H   0  0  0  0  0  0  0  0  0  0  0  0
    3.2785   -1.1501   -1.3746 C   0  0  0  0  0  0  0  0  0  0  0  0
    3.2391   -2.5283   -2.0607 C   0  0  0  0  0  0  0  0  0  0  0  0
    4.1229   -2.6081   -2.7282 H   0  0  0  0  0  0  0  0  0  0  0  0
    2.3433   -2.6758   -2.6931 H   0  0  0  0  0  0  0  0  0  0  0  0
    3.2990   -3.3656   -1.3384 H   0  0  0  0  0  0  0  0  0  0  0  0
    4.6464   -0.9798   -0.6917 C   0  0  0  0  0  0  0  0  0  0  0  0
    5.4267   -0.9533   -1.4820 H   0  0  0  0  0  0  0  0  0  0  0  0
    4.8844   -1.8311   -0.0248 H   0  0  0  0  0  0  0  0  0  0  0  0
    4.6945   -0.0350   -0.1189 H   0  0  0  0  0  0  0  0  0  0  0  0
    3.1011   -0.0326   -2.4223 C   0  0  0  0  0  0  0  0  0  0  0  0
    3.8963   -0.1277   -3.1920 H   0  0  0  0  0  0  0  0  0  0  0  0
    3.1847    0.9635   -1.9452 H   0  0  0  0  0  0  0  0  0  0  0  0
    2.1247   -0.0929   -2.9438 H   0  0  0  0  0  0  0  0  0  0  0  0
  1  2  1  6  0  0  0
  1 12  1  0  0  0  0
  2  5  1  0  0  0  0
  3  2  1  0  0  0  0
  4  2  1  0  0  0  0
  5  8  1  0  0  0  0
  6  5  1  0  0  0  0
  7  5  1  0  0  0  0
  8 11  1  0  0  0  0
  8 10  1  0  0  0  0
  9  8  1  0  0  0  0
 11 39  1  0  0  0  0
 12 20  1  0  0  0  0
 13 12  2  0  0  0  0
 13 14  1  0  0  0  0
 14 16  2  0  0  0  0
 15 14  1  0  0  0  0
 16 18  1  0  0  0  0
 16 17  1  0  0  0  0
 18 19  1  0  0  0  0
 20 21  1  0  0  0  0
 20 18  2  0  0  0  0
 22 24  1  0  0  0  0
 22 13  1  0  0  0  0
 23 22  1  0  0  0  0
 25 22  1  0  0  0  0
 26  1  1  0  0  0  0
 26 31  1  0  0  0  0
 27 29  1  0  0  0  0
 27 26  1  0  0  0  0
 28 27  1  0  0  0  0
 30 27  1  0  0  0  0
 31 34  1  0  0  0  0
 31 33  1  0  0  0  0
 32 31  1  0  0  0  0
 35 38  1  0  0  0  0
 35 26  1  0  0  0  0
 36 35  1  0  0  0  0
 37 35  1  0  0  0  0
 39 48  1  0  0  0  0
 39 40  1  0  0  0  0
 40 43  1  0  0  0  0
 40 41  1  0  0  0  0
 42 40  1  0  0  0  0
 44 39  1  0  0  0  0
 44 45  1  0  0  0  0
 46 44  1  0  0  0  0
 47 44  1  0  0  0  0
 48 50  1  0  0  0  0
 48 49  1  0  0  0  0
 51 48  1  0  0  0  0
 52 57  1  0  0  0  0
 52 11  1  0  0  0  0
 53 52  1  0  0  0  0
 53 56  1  0  0  0  0
 54 53  1  0  0  0  0
 55 53  1  0  0  0  0
 57 60  1  0  0  0  0
 57 59  1  0  0  0  0
 58 57  1  0  0  0  0
 61 63  1  0  0  0  0
 61 52  1  0  0  0  0
 62 61  1  0  0  0  0
 64 61  1  0  0  0  0
M  END
