1,10
q = 0.0, confidence = 0.988

 52 53  0  0  0  0  0  0  0  0999 V2000
   -1.0268   -0.0201   -0.4526 P   0  0  0  0  0  0  0  0  0  0  0  0
   -0.6597    0.0356   -2.2794 C   0  0  0  0  0  0  0  0  0  0  0  0
   -0.5123   -0.9959   -2.6585 H   0  0  0  0  0  0  0  0  0  0  0  0
   -1.5515    0.4513   -2.7901 H   0  0  0  0  0  0  0  0  0  0  0  0
    0.5923    0.8764   -2.5614 C   0  0  0  0  0  0  0  0  0  0  0  0
    0.6489    1.1194   -3.6436 H   0  0  0  0  0  0  0  0  0  0  0  0
    0.5156    1.8540   -2.0387 H   0  0  0  0  0  0  0  0  0  0  0  0
    1.8330    0.2219   -2.1741 N   0  0  0  0  0  0  0  0  0  0  0  0
    2.0827   -0.5554   -2.7930 H   0  0  0  0  0  0  0  0  0  0  0  0
    2.2326   -0.0631   -0.5098 P   0  0  0  0  0  0  0  0  0  0  0  0
   -1.9553    1.5576   -0.2554 C   0  0  0  0  0  0  0  0  0  0  0  0
   -1.4643    2.5362    0.6300 C   0  0  0  0  0  0  0  0  0  0  0  0
   -0.5946    2.2967    1.2599 H   0  0  0  0  0  0  0  0  0  0  0  0
   -2.1141    3.7746    0.7379 C   0  0  0  0  0  0  0  0  0  0  0  0
   -1.7251    4.5339    1.4330 H   0  0  0  0  0  0  0  0  0  0  0  0
   -3.2626    4.0383   -0.0248 C   0  0  0  0  0  0  0  0  0  0  0  0
   -3.7750    5.0082    0.0665 H   0  0  0  0  0  0  0  0  0  0  0  0
   -3.7649    3.0588   -0.8975 C   0  0  0  0  0  0  0  0  0  0  0  0
   -4.6730    3.2564   -1.4873 H   0  0  0  0  0  0  0  0  0  0  0  0
   -3.1120    1.8232   -1.0167 C   0  0  0  0  0  0  0  0  0  0  0  0
   -3.5184    1.0552   -1.6939 H   0  0  0  0  0  0  0  0  0  0  0  0
   -2.2681   -1.3690   -0.3530 C   0  0  0  0  0  0  0  0  0  0  0  0
   -2.0194   -2.6017   -0.9894 C   0  0  0  0  0  0  0  0  0  0  0  0
   -1.0954   -2.7541   -1.5678 H   0  0  0  0  0  0  0  0  0  0  0  0
   -2.9371   -3.6567   -0.8773 C   0  0  0  0  0  0  0  0  0  0  0  0
   -2.7299   -4.6150   -1.3774 H   0  0  0  0  0  0  0  0  0  0  0  0
   -4.1102   -3.4904   -0.1255 C   0  0  0  0  0  0  0  0  0  0  0  0
   -4.8310   -4.3174   -0.0374 H   0  0  0  0  0  0  0  0  0  0  0  0
   -4.3554   -2.2691    0.5225 C   0  0  0  0  0  0  0  0  0  0  0  0
   -5.2665   -2.1373    1.1256 H   0  0  0  0  0  0  0  0  0  0  0  0
   -3.4372   -1.2152    0.4200 C   0  0  0  0  0  0  0  0  0  0  0  0
   -3.6138   -0.2708    0.9528 H   0  0  0  0  0  0  0  0  0  0  0  0
    3.1220   -1.7026   -0.7118 C   0  0  0  0  0  0  0  0  0  0  0  0
    3.5895   -1.6337   -1.7217 H   0  0  0  0  0  0  0  0  0  0  0  0
    4.2224   -1.9640    0.3192 C   0  0  0  0  0  0  0  0  0  0  0  0
    5.0275   -1.2049    0.2747 H   0  0  0  0  0  0  0  0  0  0  0  0
    4.6821   -2.9550    0.1231 H   0  0  0  0  0  0  0  0  0  0  0  0
    3.8046   -1.9554    1.3443 H   0  0  0  0  0  0  0  0  0  0  0  0
    2.0635   -2.8143   -0.7094 C   0  0  0  0  0  0  0  0  0  0  0  0
    1.2764   -2.6406   -1.4714 H   0  0  0  0  0  0  0  0  0  0  0  0
    1.5675   -2.8659    0.2813 H   0  0  0  0  0  0  0  0  0  0  0  0
    2.5301   -3.7984   -0.9210 H   0  0  0  0  0  0  0  0  0  0  0  0
    3.5172    1.2518   -0.1685 C   0  0  0  0  0  0  0  0  0  0  0  0
    3.9668    0.9130    0.7875 H   0  0  0  0  0  0  0  0  0  0  0  0
    2.8080    2.5862    0.0880 C   0  0  0  0  0  0  0  0  0  0  0  0
    2.0882    2.4873    0.9245 H   0  0  0  0  0  0  0  0  0  0  0  0
    2.2629    2.9424   -0.8112 H   0  0  0  0  0  0  0  0  0  0  0  0
    3.5475    3.3676    0.3595 H   0  0  0  0  0  0  0  0  0  0  0  0
    4.5650    1.3354   -1.2777 C   0  0  0  0  0  0  0  0  0  0  0  0
    5.1290    0.3884   -1.3990 H   0  0  0  0  0  0  0  0  0  0  0  0
    5.3014    2.1320   -1.0436 H   0  0  0  0  0  0  0  0  0  0  0  0
    4.0902    1.5756   -2.2503 H   0  0  0  0  0  0  0  0  0  0  0  0
  1 22  1  0  0  0  0
  1 11  1  0  0  0  0
  2  1  1  0  0  0  0
  3  2  1  0  0  0  0
  4  2  1  0  0  0  0
  5  2  1  0  0  0  0
  5  8  1  0  0  0  0
  5  7  1  0  0  0  0
  6  5  1  0  0  0  0
  8 10  1  0  0  0  0
  9  8  1  0  0  0  0
 10 43  1  0  0  0  0
 11 12  1  0  0  0  0
 12 14  2  0  0  0  0
 12 13  1  0  0  0  0
 14 15  1  0  0  0  0
 16 17  1  0  0  0  0
 16 14  1  0  0  0  0
 18 16  2  0  0  0  0
 19 18  1  0  0  0  0
 20 18  1  0  0  0  0
 20 11  2  0  0  0  0
 21 20  1  0  0  0  0
 22 31  1  0  0  0  0
 23 25  1  0  0  0  0
 23 22  2  0  0  0  0
 24 23  1  0  0  0  0
 25 27  2  0  0  0  0
 26 25  1  0  0  0  0
 27 28  1  0  0  0  0
 27 29  1  0  0  0  0
 29 30  1  0  0  0  0
 31 29  2  0  0  0  0
 31 32  1  0  0  0  0
 33 39  1  0  0  0  0
 33 10  1  0  0  0  0
 33 35  1  0  0  0  0
 34 33  1  0  0  0  0
 35 38  1  0  0  0  0
 36 35  1  0  0  0  0
 37 35  1  0  0  0  0
 39 41  1  0  0  0  0
 40 39  1  0  0  0  0
 42 39  1  0  0  0  0
 43 45  1  0  0  0  0
 43 44  1  0  0  0  0
 45 48  1  0  0  0  0
 45 46  1  0  0  0  0
 47 45  1  0  0  0  0
 49 51  1  0  0  0  0
 49 43  1  0  0  0  0
 50 49  1  0  0  0  0
 52 49  1  0  0  0  0
M  END
