1,2
q = 0.0, confidence = 0.998

 65 68  0  0  0  0  0  0  0  0999 V2000
   -0.4874   -1.2682    0.2837 P   0  0  0  0  0  0  0  0  0  0  0  0
   -0.1722    1.4184    0.3302 P   0  0  0  0  0  0  0  0  0  0  0  0
    1.8680   -0.1587   -1.7085 Si  0  0  0  0  0  0  0  0  0  0  0  0
    1.9379   -1.6652   -2.8425 C   0  0  0  0  0  0  0  0  0  0  0  0
    1.8323   -2.6201   -2.2954 H   0  0  0  0  0  0  0  0  0  0  0  0
    2.9078   -1.6774   -3.3823 H   0  0  0  0  0  0  0  0  0  0  0  0
    1.1370   -1.6129   -3.6091 H   0  0  0  0  0  0  0  0  0  0  0  0
    2.9385   -0.3271   -0.4118 O   0  0  0  0  0  0  0  0  0  0  0  0
    2.2716    1.3463   -2.7740 C   0  0  0  0  0  0  0  0  0  0  0  0
    2.2783    2.2953   -2.2069 H   0  0  0  0  0  0  0  0  0  0  0  0
    1.5342    1.4367   -3.5992 H   0  0  0  0  0  0  0  0  0  0  0  0
    3.2696    1.2132   -3.2414 H   0  0  0  0  0  0  0  0  0  0  0  0
    4.3549   -0.3185   -0.5369 C   0  0  0  0  0  0  0  0  0  0  0  0
    4.7261    0.7264   -0.4080 H   0  0  0  0  0  0  0  0  0  0  0  0
    4.6740   -0.6441   -1.5566 H   0  0  0  0  0  0  0  0  0  0  0  0
    4.9701   -1.2286    0.5147 C   0  0  0  0  0  0  0  0  0  0  0  0
    6.0772   -1.1770    0.4800 H   0  0  0  0  0  0  0  0  0  0  0  0
    4.6639   -2.2808    0.3463 H   0  0  0  0  0  0  0  0  0  0  0  0
    4.6305   -0.9301    1.5259 H   0  0  0  0  0  0  0  0  0  0  0  0
    0.1471    0.0328   -0.9310 C   0  0  0  0  0  0  0  0  0  0  0  0
   -0.5195    0.1415   -1.8150 H   0  0  0  0  0  0  0  0  0  0  0  0
    0.2682   -2.8950   -0.1359 C   0  0  0  0  0  0  0  0  0  0  0  0
    1.5278   -3.1773    0.4338 C   0  0  0  0  0  0  0  0  0  0  0  0
    2.0007   -2.4359    1.0943 H   0  0  0  0  0  0  0  0  0  0  0  0
    2.1804   -4.3820    0.1376 C   0  0  0  0  0  0  0  0  0  0  0  0
    3.1674   -4.5901    0.5787 H   0  0  0  0  0  0  0  0  0  0  0  0
    1.5725   -5.3249   -0.7083 C   0  0  0  0  0  0  0  0  0  0  0  0
    2.0829   -6.2734   -0.9350 H   0  0  0  0  0  0  0  0  0  0  0  0
    0.3053   -5.0605   -1.2533 C   0  0  0  0  0  0  0  0  0  0  0  0
   -0.1802   -5.8020   -1.9061 H   0  0  0  0  0  0  0  0  0  0  0  0
   -0.3476   -3.8513   -0.9682 C   0  0  0  0  0  0  0  0  0  0  0  0
   -1.3399   -3.6478   -1.3982 H   0  0  0  0  0  0  0  0  0  0  0  0
   -2.2569   -1.4726   -0.2031 C   0  0  0  0  0  0  0  0  0  0  0  0
   -3.1808   -1.7417    0.8273 C   0  0  0  0  0  0  0  0  0  0  0  0
   -2.8205   -1.8384    1.8631 H   0  0  0  0  0  0  0  0  0  0  0  0
   -4.5499   -1.8526    0.5459 C   0  0  0  0  0  0  0  0  0  0  0  0
   -5.2593   -2.0587    1.3618 H   0  0  0  0  0  0  0  0  0  0  0  0
   -5.0157   -1.6780   -0.7671 C   0  0  0  0  0  0  0  0  0  0  0  0
   -6.0924   -1.7449   -0.9855 H   0  0  0  0  0  0  0  0  0  0  0  0
   -4.1040   -1.4094   -1.7999 C   0  0  0  0  0  0  0  0  0  0  0  0
   -4.4622   -1.2666   -2.8308 H   0  0  0  0  0  0  0  0  0  0  0  0
   -2.7323   -1.3144   -1.5204 C   0  0  0  0  0  0  0  0  0  0  0  0
   -2.0306   -1.1040   -2.3422 H   0  0  0  0  0  0  0  0  0  0  0  0
    0.9905    2.8191    0.0367 C   0  0  0  0  0  0  0  0  0  0  0  0
    2.3021    2.6616    0.5383 C   0  0  0  0  0  0  0  0  0  0  0  0
    2.5758    1.7291    1.0522 H   0  0  0  0  0  0  0  0  0  0  0  0
    3.2531    3.6758    0.3646 C   0  0  0  0  0  0  0  0  0  0  0  0
    4.2745    3.5351    0.7503 H   0  0  0  0  0  0  0  0  0  0  0  0
    2.9009    4.8725   -0.2824 C   0  0  0  0  0  0  0  0  0  0  0  0
    3.6465    5.6717   -0.4125 H   0  0  0  0  0  0  0  0  0  0  0  0
    1.5879    5.0523   -0.7438 C   0  0  0  0  0  0  0  0  0  0  0  0
    1.2982    5.9958   -1.2316 H   0  0  0  0  0  0  0  0  0  0  0  0
    0.6348    4.0334   -0.5848 C   0  0  0  0  0  0  0  0  0  0  0  0
   -0.3919    4.1896   -0.9455 H   0  0  0  0  0  0  0  0  0  0  0  0
   -1.8091    2.0134   -0.2856 C   0  0  0  0  0  0  0  0  0  0  0  0
   -2.9054    1.9850    0.5955 C   0  0  0  0  0  0  0  0  0  0  0  0
   -2.7454    1.6862    1.6424 H   0  0  0  0  0  0  0  0  0  0  0  0
   -4.1948    2.2966    0.1356 C   0  0  0  0  0  0  0  0  0  0  0  0
   -5.0457    2.2572    0.8323 H   0  0  0  0  0  0  0  0  0  0  0  0
   -4.3998    2.6387   -1.2091 C   0  0  0  0  0  0  0  0  0  0  0  0
   -5.4124    2.8730   -1.5714 H   0  0  0  0  0  0  0  0  0  0  0  0
   -3.3106    2.6722   -2.0963 C   0  0  0  0  0  0  0  0  0  0  0  0
   -3.4671    2.9357   -3.1538 H   0  0  0  0  0  0  0  0  0  0  0  0
   -2.0237    2.3574   -1.6386 C   0  0  0  0  0  0  0  0  0  0  0  0
   -1.1793    2.3657   -2.3467 H   0  0  0  0  0  0  0  0  0  0  0  0
  3 20  1  0  0  0  0
  3  8  1  0  0  0  0
  4  5  1  0  0  0  0
  4  3  1  0  0  0  0
  6  4  1  0  0  0  0
  7  4  1  0  0  0  0
  9 10  1  0  0  0  0
  9  3  1  0  0  0  0
 11  9  1  0  0  0  0
 12  9  1  0  0  0  0
 13  8  1  0  0  0  0
 13 14  1  0  0  0  0
 13 16  1  0  0  0  0
 15 13  1  0  0  0  0
 16 19  1  0  0  0  0
 17 16  1  0  0  0  0
 18 16  1  0  0  0  0
 20  1  1  0  0  0  0
 20  2  1  0  0  0  0
 21 20  1  0  0  0  0
 22  1  1  0  0  0  0
 22 23  1  0  0  0  0
 23 24  1  0  0  0  0
 25 23  2  0  0  0  0
 25 26  1  0  0  0  0
 27 25  1  0  0  0  0
 28 27  1  0  0  0  0
 29 31  1  0  0  0  0
 29 27  2  0  0  0  0
 30 29  1  0  0  0  0
 31 22  2  0  0  0  0
 32 31  1  0  0  0  0
 33  1  1  0  0  0  0
 33 34  1  0  0  0  0
 34 35  1  0  0  0  0
 36 34  2  0  0  0  0
 36 37  1  0  0  0  0
 38 36  1  0  0  0  0
 39 38  1  0  0  0  0
 40 42  1  0  0  0  0
 40 38  2  0  0  0  0
 41 40  1  0  0  0  0
 42 33  2  0  0  0  0
 43 42  1  0  0  0  0
 44  2  1  0  0  0  0
 44 45  1  0  0  0  0
 45 46  1  0  0  0  0
 47 45  2  0  0  0  0
 47 48  1  0  0  0  0
 49 47  1  0  0  0  0
 50 49  1  0  0  0  0
 51 53  1  0  0  0  0
 51 49  2  0  0  0  0
 52 51  1  0  0  0  0
 53 44  2  0  0  0  0
 54 53  1  0  0  0  0
 55  2  1  0  0  0  0
 55 56  1  0  0  0  0
 56 57  1  0  0  0  0
 58 56  2  0  0  0  0
 58 59  1  0  0  0  0
 60 58  1  0  0  0  0
 61 60  1  0  0  0  0
 62 64  1  0  0  0  0
 62 60  2  0  0  0  0
 63 62  1  0  0  0  0
 64 55  2  0  0  0  0
 65 64  1  0  0  0  0
M  END
