1,25
q = 0.0, confidence = 0.998

 44 43  0  0  0  0  0  0  0  0999 V2000
   -0.6386   -1.5128   -0.0132 P   0  0  0  0  0  0  0  0  0  0  0  0
   -1.1535   -2.2776   -1.1167 H   0  0  0  0  0  0  0  0  0  0  0  0
   -2.2656   -0.0001    0.3521 P   0  0  0  0  0  0  0  0  0  0  0  0
   -0.8430   -2.8151    1.3495 C   0  0  0  0  0  0  0  0  0  0  0  0
    0.2698   -3.8491    1.1073 C   0  0  0  0  0  0  0  0  0  0  0  0
    0.2224   -4.6392    1.8865 H   0  0  0  0  0  0  0  0  0  0  0  0
    1.2745   -3.3833    1.1510 H   0  0  0  0  0  0  0  0  0  0  0  0
    0.1653   -4.3440    0.1197 H   0  0  0  0  0  0  0  0  0  0  0  0
   -0.6612   -2.1279    2.7099 C   0  0  0  0  0  0  0  0  0  0  0  0
   -0.7468   -2.8822    3.5202 H   0  0  0  0  0  0  0  0  0  0  0  0
   -1.4389   -1.3557    2.8815 H   0  0  0  0  0  0  0  0  0  0  0  0
    0.3310   -1.6472    2.7988 H   0  0  0  0  0  0  0  0  0  0  0  0
   -2.2308   -3.4611    1.2542 C   0  0  0  0  0  0  0  0  0  0  0  0
   -2.3472   -4.2246    2.0528 H   0  0  0  0  0  0  0  0  0  0  0  0
   -2.3847   -3.9682    0.2797 H   0  0  0  0  0  0  0  0  0  0  0  0
   -3.0377   -2.7113    1.3895 H   0  0  0  0  0  0  0  0  0  0  0  0
   -3.3409   -0.0001   -1.2422 C   0  0  0  0  0  0  0  0  0  0  0  0
   -4.2194   -1.2598   -1.1477 C   0  0  0  0  0  0  0  0  0  0  0  0
   -4.9357   -1.2759   -1.9967 H   0  0  0  0  0  0  0  0  0  0  0  0
   -4.8055   -1.2839   -0.2065 H   0  0  0  0  0  0  0  0  0  0  0  0
   -3.6168   -2.1884   -1.2042 H   0  0  0  0  0  0  0  0  0  0  0  0
   -2.5494   -0.0003   -2.5541 C   0  0  0  0  0  0  0  0  0  0  0  0
   -3.2551   -0.0003   -3.4127 H   0  0  0  0  0  0  0  0  0  0  0  0
   -1.9052    0.8942   -2.6577 H   0  0  0  0  0  0  0  0  0  0  0  0
   -0.6388    1.5127   -0.0132 P   0  0  0  0  0  0  0  0  0  0  0  0
   -1.1537    2.2775   -1.1167 H   0  0  0  0  0  0  0  0  0  0  0  0
   -0.8433    2.8150    1.3495 C   0  0  0  0  0  0  0  0  0  0  0  0
    0.2696    3.8490    1.1075 C   0  0  0  0  0  0  0  0  0  0  0  0
    0.2222    4.6390    1.8867 H   0  0  0  0  0  0  0  0  0  0  0  0
    1.2743    3.3831    1.1514 H   0  0  0  0  0  0  0  0  0  0  0  0
    0.1654    4.3439    0.1199 H   0  0  0  0  0  0  0  0  0  0  0  0
   -0.6619    2.1279    2.7099 C   0  0  0  0  0  0  0  0  0  0  0  0
   -0.7476    2.8821    3.5202 H   0  0  0  0  0  0  0  0  0  0  0  0
   -1.4397    1.3557    2.8814 H   0  0  0  0  0  0  0  0  0  0  0  0
    0.3303    1.6471    2.7991 H   0  0  0  0  0  0  0  0  0  0  0  0
   -2.2310    3.4611    1.2539 C   0  0  0  0  0  0  0  0  0  0  0  0
   -2.3475    4.2246    2.0525 H   0  0  0  0  0  0  0  0  0  0  0  0
   -2.3847    3.9683    0.2794 H   0  0  0  0  0  0  0  0  0  0  0  0
   -3.0380    2.7114    1.3890 H   0  0  0  0  0  0  0  0  0  0  0  0
   -4.2193    1.2596   -1.1478 C   0  0  0  0  0  0  0  0  0  0  0  0
   -4.9356    1.2757   -1.9969 H   0  0  0  0  0  0  0  0  0  0  0  0
   -4.8054    1.2840   -0.2066 H   0  0  0  0  0  0  0  0  0  0  0  0
   -3.6166    2.1882   -1.2045 H   0  0  0  0  0  0  0  0  0  0  0  0
   -1.9053   -0.8948   -2.6576 H   0  0  0  0  0  0  0  0  0  0  0  0
  1  3  1  0  0  0  0
  1  4  1  0  0  0  0
  2  1  1  0  0  0  0
  4  9  1  0  0  0  0
  5  7  1  0  0  0  0
  5  4  1  0  0  0  0
  5  6  1  0  0  0  0
  8  5  1  0  0  0  0
  9 12  1  0  0  0  0
  9 11  1  0  0  0  0
  9 10  1  0  0  0  0
 13  4  1  0  0  0  0
 13 16  1  0  0  0  0
 13 14  1  0  0  0  0
 15 13  1  0  0  0  0
 17 40  1  0  0  0  0
 17 18  1  0  0  0  0
 17  3  1  0  0  0  0
 18 20  1  0  0  0  0
 19 18  1  0  0  0  0
 21 18  1  0  0  0  0
 22 17  1  0  0  0  0
 23 22  1  0  0  0  0
 24 22  1  0  0  0  0
 25  3  1  0  0  0  0
 25 27  1  0  0  0  0
 26 25  1  0  0  0  0
 27 32  1  0  0  0  0
 28 30  1  0  0  0  0
 28 27  1  0  0  0  0
 28 29  1  0  0  0  0
 31 28  1  0  0  0  0
 32 35  1  0  0  0  0
 32 34  1  0  0  0  0
 32 33  1  0  0  0  0
 36 27  1  0  0  0  0
 36 39  1  0  0  0  0
 36 37  1  0  0  0  0
 38 36  1  0  0  0  0
 40 42  1  0  0  0  0
 41 40  1  0  0  0  0
 43 40  1  0  0  0  0
 44 22  1  0  0  0  0
M  END
