1,2
q = 0.0, confidence = 0.994

 62 66  0  0  0  0  0  0  0  0999 V2000
    1.6568   -0.1675    0.2882 P   0  0  0  0  0  0  0  0  0  0  0  0
   -1.7087   -0.0631    0.3601 P   0  0  0  0  0  0  0  0  0  0  0  0
    1.2877    0.2270    2.0756 C   0  0  0  0  0  0  0  0  0  0  0  0
    0.0211    1.0421    2.4062 C   0  0  0  0  0  0  0  0  0  0  0  0
   -1.2713    0.2564    2.1482 C   0  0  0  0  0  0  0  0  0  0  0  0
    0.1567    1.6059    3.8645 C   0  0  0  0  0  0  0  0  0  0  0  0
    0.6857    2.9362    3.2746 C   0  0  0  0  0  0  0  0  0  0  0  0
    0.0755    2.5286    1.9136 C   0  0  0  0  0  0  0  0  0  0  0  0
    3.0531   -1.3546    0.5292 C   0  0  0  0  0  0  0  0  0  0  0  0
    4.4142   -0.9997    0.4780 C   0  0  0  0  0  0  0  0  0  0  0  0
    5.4052   -1.9737    0.6837 C   0  0  0  0  0  0  0  0  0  0  0  0
    5.0462   -3.3048    0.9441 C   0  0  0  0  0  0  0  0  0  0  0  0
    3.6891   -3.6662    0.9854 C   0  0  0  0  0  0  0  0  0  0  0  0
    2.6981   -2.6994    0.7693 C   0  0  0  0  0  0  0  0  0  0  0  0
    2.4681    1.3542   -0.3726 C   0  0  0  0  0  0  0  0  0  0  0  0
    3.2756    2.2124    0.4036 C   0  0  0  0  0  0  0  0  0  0  0  0
    3.8450    3.3611   -0.1661 C   0  0  0  0  0  0  0  0  0  0  0  0
    3.6183    3.6631   -1.5190 C   0  0  0  0  0  0  0  0  0  0  0  0
    2.8226    2.8107   -2.3003 C   0  0  0  0  0  0  0  0  0  0  0  0
    2.2487    1.6638   -1.7311 C   0  0  0  0  0  0  0  0  0  0  0  0
   -3.2428   -1.0676    0.5351 C   0  0  0  0  0  0  0  0  0  0  0  0
   -3.1715   -2.2791    1.2565 C   0  0  0  0  0  0  0  0  0  0  0  0
   -4.2827   -3.1291    1.3347 C   0  0  0  0  0  0  0  0  0  0  0  0
   -5.4767   -2.7915    0.6758 C   0  0  0  0  0  0  0  0  0  0  0  0
   -5.5472   -1.6029   -0.0654 C   0  0  0  0  0  0  0  0  0  0  0  0
   -4.4380   -0.7451   -0.1381 C   0  0  0  0  0  0  0  0  0  0  0  0
   -2.3073    1.5910   -0.1944 C   0  0  0  0  0  0  0  0  0  0  0  0
   -1.6743    2.1852   -1.3030 C   0  0  0  0  0  0  0  0  0  0  0  0
   -2.0363    3.4765   -1.7178 C   0  0  0  0  0  0  0  0  0  0  0  0
   -3.0389    4.1795   -1.0327 C   0  0  0  0  0  0  0  0  0  0  0  0
   -3.6850    3.5873    0.0668 C   0  0  0  0  0  0  0  0  0  0  0  0
   -3.3208    2.2997    0.4856 C   0  0  0  0  0  0  0  0  0  0  0  0
    2.1856    0.7116    2.5120 H   0  0  0  0  0  0  0  0  0  0  0  0
    1.2158   -0.7665    2.5678 H   0  0  0  0  0  0  0  0  0  0  0  0
   -1.2057   -0.7396    2.6356 H   0  0  0  0  0  0  0  0  0  0  0  0
   -2.1299    0.7844    2.6134 H   0  0  0  0  0  0  0  0  0  0  0  0
    0.8045    1.0387    4.5646 H   0  0  0  0  0  0  0  0  0  0  0  0
   -0.8407    1.7322    4.3332 H   0  0  0  0  0  0  0  0  0  0  0  0
    1.7936    2.9749    3.2462 H   0  0  0  0  0  0  0  0  0  0  0  0
    0.3236    3.8763    3.7350 H   0  0  0  0  0  0  0  0  0  0  0  0
   -0.9474    2.9338    1.7924 H   0  0  0  0  0  0  0  0  0  0  0  0
    0.6401    2.7480    0.9877 H   0  0  0  0  0  0  0  0  0  0  0  0
    4.7061    0.0388    0.2629 H   0  0  0  0  0  0  0  0  0  0  0  0
    6.4673   -1.6882    0.6344 H   0  0  0  0  0  0  0  0  0  0  0  0
    5.8254   -4.0659    1.1026 H   0  0  0  0  0  0  0  0  0  0  0  0
    3.4011   -4.7124    1.1702 H   0  0  0  0  0  0  0  0  0  0  0  0
    1.6327   -2.9829    0.7532 H   0  0  0  0  0  0  0  0  0  0  0  0
    3.4613    1.9928    1.4661 H   0  0  0  0  0  0  0  0  0  0  0  0
    4.4681    4.0261    0.4514 H   0  0  0  0  0  0  0  0  0  0  0  0
    4.0631    4.5665   -1.9634 H   0  0  0  0  0  0  0  0  0  0  0  0
    2.6429    3.0410   -3.3616 H   0  0  0  0  0  0  0  0  0  0  0  0
    1.6142    0.9892   -2.3283 H   0  0  0  0  0  0  0  0  0  0  0  0
   -2.2291   -2.5738    1.7445 H   0  0  0  0  0  0  0  0  0  0  0  0
   -4.2126   -4.0678    1.9053 H   0  0  0  0  0  0  0  0  0  0  0  0
   -6.3478   -3.4617    0.7322 H   0  0  0  0  0  0  0  0  0  0  0  0
   -6.4735   -1.3385   -0.5980 H   0  0  0  0  0  0  0  0  0  0  0  0
   -4.5024    0.1801   -0.7290 H   0  0  0  0  0  0  0  0  0  0  0  0
   -0.8878    1.6144   -1.8237 H   0  0  0  0  0  0  0  0  0  0  0  0
   -1.5294    3.9352   -2.5804 H   0  0  0  0  0  0  0  0  0  0  0  0
   -3.3228    5.1926   -1.3563 H   0  0  0  0  0  0  0  0  0  0  0  0
   -4.4765    4.1343    0.6016 H   0  0  0  0  0  0  0  0  0  0  0  0
   -3.8325    1.8419    1.3470 H   0  0  0  0  0  0  0  0  0  0  0  0
  1  9  1  0  0  0  0
  1  3  1  0  0  0  0
  2 21  1  0  0  0  0
  2  5  1  0  0  0  0
  3  4  1  0  0  0  0
  3 33  1  0  0  0  0
  3 34  1  0  0  0  0
  4  6  1  0  0  0  0
  5  4  1  0  0  0  0
  5 36  1  0  0  0  0
  5 35  1  0  0  0  0
  6 38  1  0  0  0  0
  6 37  1  0  0  0  0
  7 40  1  0  0  0  0
  7  6  1  0  0  0  0
  8  4  1  0  0  0  0
  8  7  1  0  0  0  0
  9 14  1  0  0  0  0
 10  9  2  0  0  0  0
 10 11  1  0  0  0  0
 11 12  2  0  0  0  0
 12 13  1  0  0  0  0
 12 45  1  0  0  0  0
 13 46  1  0  0  0  0
 14 13  2  0  0  0  0
 15  1  1  0  0  0  0
 15 16  1  0  0  0  0
 16 48  1  0  0  0  0
 17 16  2  0  0  0  0
 17 49  1  0  0  0  0
 18 17  1  0  0  0  0
 19 20  1  0  0  0  0
 19 18  2  0  0  0  0
 20 15  2  0  0  0  0
 21 22  1  0  0  0  0
 22 23  2  0  0  0  0
 22 53  1  0  0  0  0
 23 54  1  0  0  0  0
 24 55  1  0  0  0  0
 24 23  1  0  0  0  0
 25 24  2  0  0  0  0
 26 25  1  0  0  0  0
 26 21  2  0  0  0  0
 27  2  1  0  0  0  0
 27 32  1  0  0  0  0
 28 27  2  0  0  0  0
 29 28  1  0  0  0  0
 29 30  2  0  0  0  0
 30 31  1  0  0  0  0
 31 32  2  0  0  0  0
 31 61  1  0  0  0  0
 32 62  1  0  0  0  0
 39  7  1  0  0  0  0
 41  8  1  0  0  0  0
 42  8  1  0  0  0  0
 43 10  1  0  0  0  0
 44 11  1  0  0  0  0
 47 14  1  0  0  0  0
 50 18  1  0  0  0  0
 51 19  1  0  0  0  0
 52 20  1  0  0  0  0
 56 25  1  0  0  0  0
 57 26  1  0  0  0  0
 58 28  1  0  0  0  0
 59 29  1  0  0  0  0
 60 30  1  0  0  0  0
M  END
