1,2
q = 0.0, confidence = 0.994

 67 70  0  0  0  0  0  0  0  0999 V2000
    1.6967   -0.0616    0.3114 P   0  0  0  0  0  0  0  0  0  0  0  0
   -1.7001   -0.1323    0.1732 P   0  0  0  0  0  0  0  0  0  0  0  0
    1.2180    0.4821    2.0375 C   0  0  0  0  0  0  0  0  0  0  0  0
   -0.1138    1.2560    2.2231 C   0  0  0  0  0  0  0  0  0  0  0  0
   -1.3147    0.3145    1.9435 C   0  0  0  0  0  0  0  0  0  0  0  0
   -0.1841    2.5110    1.3158 C   0  0  0  0  0  0  0  0  0  0  0  0
    0.8377    3.6129    1.5965 C   0  0  0  0  0  0  0  0  0  0  0  0
   -0.1694    1.6477    3.7309 C   0  0  0  0  0  0  0  0  0  0  0  0
   -1.3428    2.5243    4.1714 C   0  0  0  0  0  0  0  0  0  0  0  0
    2.7317    1.3459   -0.2812 C   0  0  0  0  0  0  0  0  0  0  0  0
    2.3315    2.0208   -1.4505 C   0  0  0  0  0  0  0  0  0  0  0  0
    3.0468    3.1419   -1.9002 C   0  0  0  0  0  0  0  0  0  0  0  0
    4.1717    3.5901   -1.1910 C   0  0  0  0  0  0  0  0  0  0  0  0
    4.5841    2.9138   -0.0298 C   0  0  0  0  0  0  0  0  0  0  0  0
    3.8665    1.7983    0.4251 C   0  0  0  0  0  0  0  0  0  0  0  0
    2.9172   -1.3951    0.6756 C   0  0  0  0  0  0  0  0  0  0  0  0
    4.1816   -1.4468    0.0551 C   0  0  0  0  0  0  0  0  0  0  0  0
    5.0258   -2.5510    0.2535 C   0  0  0  0  0  0  0  0  0  0  0  0
    4.6192   -3.6180    1.0679 C   0  0  0  0  0  0  0  0  0  0  0  0
    3.3529   -3.5833    1.6754 C   0  0  0  0  0  0  0  0  0  0  0  0
    2.5060   -2.4857    1.4730 C   0  0  0  0  0  0  0  0  0  0  0  0
   -2.9175   -1.4939    0.4502 C   0  0  0  0  0  0  0  0  0  0  0  0
   -2.3777   -2.7516    0.7984 C   0  0  0  0  0  0  0  0  0  0  0  0
   -3.2190   -3.8498    1.0186 C   0  0  0  0  0  0  0  0  0  0  0  0
   -4.6097   -3.7117    0.8712 C   0  0  0  0  0  0  0  0  0  0  0  0
   -5.1501   -2.4719    0.4996 C   0  0  0  0  0  0  0  0  0  0  0  0
   -4.3099   -1.3654    0.2902 C   0  0  0  0  0  0  0  0  0  0  0  0
   -2.7169    1.2813   -0.4398 C   0  0  0  0  0  0  0  0  0  0  0  0
   -3.6845    1.9367    0.3510 C   0  0  0  0  0  0  0  0  0  0  0  0
   -4.4057    3.0238   -0.1647 C   0  0  0  0  0  0  0  0  0  0  0  0
   -4.1679    3.4677   -1.4761 C   0  0  0  0  0  0  0  0  0  0  0  0
   -3.2083    2.8197   -2.2694 C   0  0  0  0  0  0  0  0  0  0  0  0
   -2.4850    1.7329   -1.7546 C   0  0  0  0  0  0  0  0  0  0  0  0
    1.1810   -0.4399    2.6535 H   0  0  0  0  0  0  0  0  0  0  0  0
    2.0634    1.0802    2.4356 H   0  0  0  0  0  0  0  0  0  0  0  0
   -2.2405    0.7324    2.3870 H   0  0  0  0  0  0  0  0  0  0  0  0
   -1.1470   -0.6589    2.4512 H   0  0  0  0  0  0  0  0  0  0  0  0
   -1.2083    2.9343    1.3797 H   0  0  0  0  0  0  0  0  0  0  0  0
   -0.0830    2.1785    0.2596 H   0  0  0  0  0  0  0  0  0  0  0  0
    0.7409    4.4237    0.8472 H   0  0  0  0  0  0  0  0  0  0  0  0
    0.6984    4.0709    2.5968 H   0  0  0  0  0  0  0  0  0  0  0  0
    1.8807    3.2455    1.5351 H   0  0  0  0  0  0  0  0  0  0  0  0
   -0.1645    0.7083    4.3265 H   0  0  0  0  0  0  0  0  0  0  0  0
    0.7815    2.1629    3.9863 H   0  0  0  0  0  0  0  0  0  0  0  0
   -1.3405    3.5094    3.6632 H   0  0  0  0  0  0  0  0  0  0  0  0
   -1.2950    2.7159    5.2620 H   0  0  0  0  0  0  0  0  0  0  0  0
   -2.3253    2.0507    3.9702 H   0  0  0  0  0  0  0  0  0  0  0  0
    1.4476    1.6477   -1.9943 H   0  0  0  0  0  0  0  0  0  0  0  0
    2.7240    3.6661   -2.8126 H   0  0  0  0  0  0  0  0  0  0  0  0
    4.7334    4.4683   -1.5444 H   0  0  0  0  0  0  0  0  0  0  0  0
    5.4692    3.2600    0.5256 H   0  0  0  0  0  0  0  0  0  0  0  0
    4.1956    1.2721    1.3353 H   0  0  0  0  0  0  0  0  0  0  0  0
    4.5088   -0.6213   -0.5933 H   0  0  0  0  0  0  0  0  0  0  0  0
    6.0102   -2.5760   -0.2384 H   0  0  0  0  0  0  0  0  0  0  0  0
    5.2834   -4.4817    1.2226 H   0  0  0  0  0  0  0  0  0  0  0  0
    3.0180   -4.4224    2.3041 H   0  0  0  0  0  0  0  0  0  0  0  0
    1.5023   -2.4882    1.9271 H   0  0  0  0  0  0  0  0  0  0  0  0
   -1.2830   -2.8677    0.8636 H   0  0  0  0  0  0  0  0  0  0  0  0
   -2.7858   -4.8247    1.2896 H   0  0  0  0  0  0  0  0  0  0  0  0
   -5.2709   -4.5766    1.0332 H   0  0  0  0  0  0  0  0  0  0  0  0
   -6.2372   -2.3618    0.3654 H   0  0  0  0  0  0  0  0  0  0  0  0
   -4.7437   -0.4008   -0.0114 H   0  0  0  0  0  0  0  0  0  0  0  0
   -3.8808    1.6020    1.3815 H   0  0  0  0  0  0  0  0  0  0  0  0
   -5.1568    3.5290    0.4618 H   0  0  0  0  0  0  0  0  0  0  0  0
   -4.7322    4.3229   -1.8786 H   0  0  0  0  0  0  0  0  0  0  0  0
   -3.0174    3.1641   -3.2972 H   0  0  0  0  0  0  0  0  0  0  0  0
   -1.7199    1.2199   -2.3590 H   0  0  0  0  0  0  0  0  0  0  0  0
  1 16  1  0  0  0  0
  1  3  1  0  0  0  0
  2 22  1  0  0  0  0
  2  5  1  0  0  0  0
  3  4  1  0  0  0  0
  3 35  1  0  0  0  0
  3 34  1  0  0  0  0
  4  8  1  0  0  0  0
  5  4  1  0  0  0  0
  5 36  1  0  0  0  0
  5 37  1  0  0  0  0
  6 38  1  0  0  0  0
  6  7  1  0  0  0  0
  6  4  1  0  0  0  0
  7 41  1  0  0  0  0
  8 44  1  0  0  0  0
  8  9  1  0  0  0  0
  8 43  1  0  0  0  0
  9 46  1  0  0  0  0
 10  1  1  0  0  0  0
 10 15  1  0  0  0  0
 11 10  2  0  0  0  0
 12 11  1  0  0  0  0
 12 13  2  0  0  0  0
 13 14  1  0  0  0  0
 14 15  2  0  0  0  0
 14 51  1  0  0  0  0
 15 52  1  0  0  0  0
 16 21  1  0  0  0  0
 17 18  1  0  0  0  0
 17 16  2  0  0  0  0
 18 19  2  0  0  0  0
 19 55  1  0  0  0  0
 19 20  1  0  0  0  0
 20 56  1  0  0  0  0
 21 20  2  0  0  0  0
 21 57  1  0  0  0  0
 22 23  1  0  0  0  0
 23 58  1  0  0  0  0
 23 24  2  0  0  0  0
 24 59  1  0  0  0  0
 25 24  1  0  0  0  0
 25 60  1  0  0  0  0
 26 25  2  0  0  0  0
 27 22  2  0  0  0  0
 27 26  1  0  0  0  0
 28  2  1  0  0  0  0
 28 29  1  0  0  0  0
 29 63  1  0  0  0  0
 30 29  2  0  0  0  0
 30 64  1  0  0  0  0
 31 30  1  0  0  0  0
 32 33  1  0  0  0  0
 32 31  2  0  0  0  0
 33 28  2  0  0  0  0
 39  6  1  0  0  0  0
 40  7  1  0  0  0  0
 42  7  1  0  0  0  0
 45  9  1  0  0  0  0
 47  9  1  0  0  0  0
 48 11  1  0  0  0  0
 49 12  1  0  0  0  0
 50 13  1  0  0  0  0
 53 17  1  0  0  0  0
 54 18  1  0  0  0  0
 61 26  1  0  0  0  0
 62 27  1  0  0  0  0
 65 31  1  0  0  0  0
 66 32  1  0  0  0  0
 67 33  1  0  0  0  0
M  END
