1,2
q = -1.0

 72 76  0  0  0  0  0  0  0  0999 V2000
   -0.2516    1.2203   -0.5100 P   0  0  0  0  0  0  0  0  0  0  0  0
    1.6176   -0.5656    0.2480 P   0  0  0  0  0  0  0  0  0  0  0  0
   -0.1200   -0.3047    0.3844 C   0  0  0  0  0  3  0  0  0  0  0  0
   -1.2891   -1.0676    0.7702 C   0  0  0  0  0  0  0  0  0  0  0  0
   -2.4596   -0.5105    0.5635 N   0  0  0  0  0  0  0  0  0  0  0  0
   -1.2002   -2.4048    1.4181 C   0  0  0  0  0  0  0  0  0  0  0  0
   -2.1784   -2.8088    1.7421 H   0  0  0  0  0  0  0  0  0  0  0  0
   -0.1153   -3.1267    1.6488 C   0  0  0  0  0  0  0  0  0  0  0  0
    0.9449   -3.8694    1.8804 C   0  0  0  0  0  0  0  0  0  0  0  0
    1.5364   -3.7504    2.8047 H   0  0  0  0  0  0  0  0  0  0  0  0
    1.2999   -4.6057    1.1385 H   0  0  0  0  0  0  0  0  0  0  0  0
   -3.6766   -1.1748    0.7055 C   0  0  0  0  0  0  0  0  0  0  0  0
   -4.0692   -2.1805   -0.2293 C   0  0  0  0  0  0  0  0  0  0  0  0
   -5.3452   -2.7597   -0.1052 C   0  0  0  0  0  0  0  0  0  0  0  0
   -5.6483   -3.5303   -0.8323 H   0  0  0  0  0  0  0  0  0  0  0  0
   -6.2288   -2.3712    0.9107 C   0  0  0  0  0  0  0  0  0  0  0  0
   -7.2225   -2.8372    0.9902 H   0  0  0  0  0  0  0  0  0  0  0  0
   -5.8398   -1.3745    1.8177 C   0  0  0  0  0  0  0  0  0  0  0  0
   -6.5289   -1.0564    2.6166 H   0  0  0  0  0  0  0  0  0  0  0  0
   -4.5796   -0.7608    1.7279 C   0  0  0  0  0  0  0  0  0  0  0  0
   -4.1614    0.3224    2.6845 C   0  0  0  0  0  0  0  0  0  0  0  0
   -4.9730    0.5702    3.3955 H   0  0  0  0  0  0  0  0  0  0  0  0
   -3.8732    1.2427    2.1359 H   0  0  0  0  0  0  0  0  0  0  0  0
   -3.2668    0.0257    3.2734 H   0  0  0  0  0  0  0  0  0  0  0  0
   -3.1418   -2.5866   -1.3457 C   0  0  0  0  0  0  0  0  0  0  0  0
   -3.6818   -3.1639   -2.1208 H   0  0  0  0  0  0  0  0  0  0  0  0
   -2.3071   -3.2236   -0.9796 H   0  0  0  0  0  0  0  0  0  0  0  0
   -2.6787   -1.7010   -1.8242 H   0  0  0  0  0  0  0  0  0  0  0  0
    2.0624   -1.9312   -0.9069 C   0  0  0  0  0  0  0  0  0  0  0  0
   -1.3185    0.9854   -1.9912 C   0  0  0  0  0  0  0  0  0  0  0  0
   -0.8988    0.0685   -2.9762 C   0  0  0  0  0  0  0  0  0  0  0  0
    0.0641   -0.4504   -2.8773 H   0  0  0  0  0  0  0  0  0  0  0  0
   -1.7245   -0.2227   -4.0711 C   0  0  0  0  0  0  0  0  0  0  0  0
   -1.3841   -0.9417   -4.8316 H   0  0  0  0  0  0  0  0  0  0  0  0
   -2.9815    0.3915   -4.1886 C   0  0  0  0  0  0  0  0  0  0  0  0
   -3.6321    0.1601   -5.0455 H   0  0  0  0  0  0  0  0  0  0  0  0
   -3.4112    1.2910   -3.2004 C   0  0  0  0  0  0  0  0  0  0  0  0
   -4.4055    1.7572   -3.2723 H   0  0  0  0  0  0  0  0  0  0  0  0
   -2.5866    1.5882   -2.1054 C   0  0  0  0  0  0  0  0  0  0  0  0
   -2.9440    2.2679   -1.3195 H   0  0  0  0  0  0  0  0  0  0  0  0
    2.3963   -0.9670    1.8662 C   0  0  0  0  0  0  0  0  0  0  0  0
    3.6338   -1.6292    1.9845 C   0  0  0  0  0  0  0  0  0  0  0  0
    4.1710   -1.9723    1.0897 H   0  0  0  0  0  0  0  0  0  0  0  0
    4.1758   -1.8853    3.2528 C   0  0  0  0  0  0  0  0  0  0  0  0
    5.1405   -2.4085    3.3357 H   0  0  0  0  0  0  0  0  0  0  0  0
    3.4903   -1.4833    4.4106 C   0  0  0  0  0  0  0  0  0  0  0  0
    3.9160   -1.6901    5.4042 H   0  0  0  0  0  0  0  0  0  0  0  0
    2.2600   -0.8164    4.2951 C   0  0  0  0  0  0  0  0  0  0  0  0
    1.7150   -0.5002    5.1974 H   0  0  0  0  0  0  0  0  0  0  0  0
    1.7166   -0.5546    3.0296 C   0  0  0  0  0  0  0  0  0  0  0  0
    0.7458   -0.0459    2.9306 H   0  0  0  0  0  0  0  0  0  0  0  0
   -1.0310    2.5709    0.4515 C   0  0  0  0  0  0  0  0  0  0  0  0
   -1.1872    3.8524   -0.1166 C   0  0  0  0  0  0  0  0  0  0  0  0
   -0.9143    4.0302   -1.1683 H   0  0  0  0  0  0  0  0  0  0  0  0
   -1.6868    4.9081    0.6598 C   0  0  0  0  0  0  0  0  0  0  0  0
   -1.8094    5.9050    0.2102 H   0  0  0  0  0  0  0  0  0  0  0  0
   -2.0202    4.6954    2.0078 C   0  0  0  0  0  0  0  0  0  0  0  0
   -2.4081    5.5260    2.6166 H   0  0  0  0  0  0  0  0  0  0  0  0
   -1.8522    3.4235    2.5775 C   0  0  0  0  0  0  0  0  0  0  0  0
   -2.1125    3.2516    3.6330 H   0  0  0  0  0  0  0  0  0  0  0  0
   -1.3591    2.3632    1.8030 C   0  0  0  0  0  0  0  0  0  0  0  0
   -1.2312    1.3606    2.2353 H   0  0  0  0  0  0  0  0  0  0  0  0
    3.3854   -2.0820   -1.3742 C   0  0  0  0  0  0  0  0  0  0  0  0
    4.1792   -1.4012   -1.0304 H   0  0  0  0  0  0  0  0  0  0  0  0
    1.0485   -2.7568   -1.4315 C   0  0  0  0  0  0  0  0  0  0  0  0
    0.0090   -2.6153   -1.1039 H   0  0  0  0  0  0  0  0  0  0  0  0
    3.6947   -3.0763   -2.3139 C   0  0  0  0  0  0  0  0  0  0  0  0
    4.7300   -3.1847   -2.6711 H   0  0  0  0  0  0  0  0  0  0  0  0
    1.3609   -3.7452   -2.3771 C   0  0  0  0  0  0  0  0  0  0  0  0
    0.5592   -4.3840   -2.7783 H   0  0  0  0  0  0  0  0  0  0  0  0
    2.6845   -3.9139   -2.8133 C   0  0  0  0  0  0  0  0  0  0  0  0
    2.9274   -4.6879   -3.5568 H   0  0  0  0  0  0  0  0  0  0  0  0
  1  3  1  0  0  0  0
  1 52  1  0  0  0  0
  2  3  1  0  0  0  0
  2 41  1  0  0  0  0
  3  4  1  0  0  0  0
  4  6  1  0  0  0  0
  5 12  1  0  0  0  0
  5  4  2  0  0  0  0
  6  8  2  0  0  0  0
  6  7  1  0  0  0  0
  8  9  2  0  0  0  0
  9 10  1  0  0  0  0
 11  9  1  0  0  0  0
 12 20  1  0  0  0  0
 13 14  1  0  0  0  0
 13 12  2  0  0  0  0
 14 16  2  0  0  0  0
 15 14  1  0  0  0  0
 16 17  1  0  0  0  0
 16 18  1  0  0  0  0
 18 19  1  0  0  0  0
 20 18  2  0  0  0  0
 20 21  1  0  0  0  0
 21 24  1  0  0  0  0
 21 22  1  0  0  0  0
 23 21  1  0  0  0  0
 25 27  1  0  0  0  0
 25 13  1  0  0  0  0
 26 25  1  0  0  0  0
 28 25  1  0  0  0  0
 29  2  1  0  0  0  0
 30  1  1  0  0  0  0
 31 32  1  0  0  0  0
 31 30  2  0  0  0  0
 33 31  1  0  0  0  0
 34 33  1  0  0  0  0
 35 33  2  0  0  0  0
 35 37  1  0  0  0  0
 36 35  1  0  0  0  0
 37 39  2  0  0  0  0
 38 37  1  0  0  0  0
 39 30  1  0  0  0  0
 39 40  1  0  0  0  0
 41 42  2  0  0  0  0
 41 50  1  0  0  0  0
 42 44  1  0  0  0  0
 43 42  1  0  0  0  0
 44 45  1  0  0  0  0
 44 46  2  0  0  0  0
 46 47  1  0  0  0  0
 48 46  1  0  0  0  0
 48 49  1  0  0  0  0
 50 48  2  0  0  0  0
 51 50  1  0  0  0  0
 52 61  1  0  0  0  0
 53 52  2  0  0  0  0
 53 55  1  0  0  0  0
 54 53  1  0  0  0  0
 55 57  2  0  0  0  0
 56 55  1  0  0  0  0
 57 59  1  0  0  0  0
 57 58  1  0  0  0  0
 59 60  1  0  0  0  0
 61 62  1  0  0  0  0
 61 59  2  0  0  0  0
 63 64  1  0  0  0  0
 63 29  1  0  0  0  0
 65 66  1  0  0  0  0
 65 29  2  0  0  0  0
 67 63  2  0  0  0  0
 68 67  1  0  0  0  0
 69 65  1  0  0  0  0
 70 69  1  0  0  0  0
 71 69  2  0  0  0  0
 71 67  1  0  0  0  0
 72 71  1  0  0  0  0
M  END
