1,2
q = 0.0, confidence = 1.0

 42 44  0  0  1  0  0  0  0  0999 V2000
    0.9579   -1.3023    0.0580 P   0  0  2  0  0  0  0  0  0  0  0  0
    0.1570    1.4486   -0.0037 P   0  0  0  0  0  0  0  0  0  0  0  0
    1.3228    3.1900    1.9441 C   0  0  0  0  0  0  0  0  0  0  0  0
    1.2639    4.1663    2.4687 H   0  0  0  0  0  0  0  0  0  0  0  0
    2.2267    3.1865    1.3062 H   0  0  0  0  0  0  0  0  0  0  0  0
    1.4670    2.4138    2.7239 H   0  0  0  0  0  0  0  0  0  0  0  0
    3.0424    0.5774    0.4394 N   0  0  1  0  0  0  0  0  0  0  0  0
    1.6060    0.3877    0.5966 C   0  0  2  0  0  0  0  0  0  0  0  0
    1.3857    0.3953    1.6892 H   0  0  0  0  0  0  0  0  0  0  0  0
    2.1510   -2.2553    1.1963 C   0  0  0  0  0  0  0  0  0  0  0  0
    1.8061   -2.1091    2.2420 H   0  0  0  0  0  0  0  0  0  0  0  0
    2.1052   -3.3423    0.9755 H   0  0  0  0  0  0  0  0  0  0  0  0
    3.7160   -0.3583    1.3730 C   0  0  0  0  0  0  0  0  0  0  0  0
    4.8057   -0.1484    1.3449 H   0  0  0  0  0  0  0  0  0  0  0  0
    3.3467   -0.1663    2.4013 H   0  0  0  0  0  0  0  0  0  0  0  0
    3.5295    0.2670   -0.9237 C   0  0  0  0  0  0  0  0  0  0  0  0
    3.0081    0.9079   -1.6579 H   0  0  0  0  0  0  0  0  0  0  0  0
    4.6096    0.5207   -0.9529 H   0  0  0  0  0  0  0  0  0  0  0  0
    3.5250   -1.7744    1.0367 N   0  0  2  0  0  0  0  0  0  0  0  0
    0.0309    2.9390    1.1557 C   0  0  0  0  0  0  0  0  0  0  0  0
   -0.1290    3.7893    0.4573 H   0  0  0  0  0  0  0  0  0  0  0  0
    0.5834    2.2378   -1.6533 C   0  0  0  0  0  0  0  0  0  0  0  0
    0.8951    1.3705   -2.2759 H   0  0  0  0  0  0  0  0  0  0  0  0
    3.3780   -1.1349   -1.3231 N   0  0  2  0  0  0  0  0  0  0  0  0
    1.9768   -1.4977   -1.5199 C   0  0  0  0  0  0  0  0  0  0  0  0
    1.8971   -2.5524   -1.8596 H   0  0  0  0  0  0  0  0  0  0  0  0
    1.5197   -0.8707   -2.3131 H   0  0  0  0  0  0  0  0  0  0  0  0
    4.0257   -1.9924   -0.3265 C   0  0  0  0  0  0  0  0  0  0  0  0
    3.8816   -3.0560   -0.6071 H   0  0  0  0  0  0  0  0  0  0  0  0
    5.1144   -1.7738   -0.3333 H   0  0  0  0  0  0  0  0  0  0  0  0
   -1.1918    2.8418    2.0731 C   0  0  0  0  0  0  0  0  0  0  0  0
   -1.2986    3.7784    2.6594 H   0  0  0  0  0  0  0  0  0  0  0  0
   -1.0934    2.0062    2.7938 H   0  0  0  0  0  0  0  0  0  0  0  0
   -2.1275    2.6808    1.5043 H   0  0  0  0  0  0  0  0  0  0  0  0
   -0.6963    2.8228   -2.2668 C   0  0  0  0  0  0  0  0  0  0  0  0
   -0.4885    3.2107   -3.2852 H   0  0  0  0  0  0  0  0  0  0  0  0
   -1.0831    3.6708   -1.6638 H   0  0  0  0  0  0  0  0  0  0  0  0
   -1.5000    2.0656   -2.3404 H   0  0  0  0  0  0  0  0  0  0  0  0
    1.7145    3.2719   -1.5993 C   0  0  0  0  0  0  0  0  0  0  0  0
    1.9948    3.5825   -2.6274 H   0  0  0  0  0  0  0  0  0  0  0  0
    2.6231    2.8927   -1.0931 H   0  0  0  0  0  0  0  0  0  0  0  0
    1.3941    4.1877   -1.0626 H   0  0  0  0  0  0  0  0  0  0  0  0
  1 25  1  6  0  0  0
  1  8  1  0  0  0  0
  1 10  1  0  0  0  0
  2  8  1  0  0  0  0
  2 20  1  0  0  0  0
  3  4  1  0  0  0  0
  3  6  1  0  0  0  0
  5  3  1  0  0  0  0
  7 16  1  6  0  0  0
  7  8  1  0  0  0  0
  7 13  1  0  0  0  0
  8  9  1  1  0  0  0
 10 11  1  0  0  0  0
 12 10  1  0  0  0  0
 13 15  1  0  0  0  0
 14 13  1  0  0  0  0
 17 16  1  0  0  0  0
 18 16  1  0  0  0  0
 19 28  1  6  0  0  0
 19 10  1  0  0  0  0
 19 13  1  0  0  0  0
 20  3  1  0  0  0  0
 20 31  1  0  0  0  0
 21 20  1  0  0  0  0
 22 39  1  0  0  0  0
 22  2  1  0  0  0  0
 23 22  1  0  0  0  0
 24 25  1  1  0  0  0
 24 16  1  0  0  0  0
 24 28  1  0  0  0  0
 26 25  1  0  0  0  0
 27 25  1  0  0  0  0
 29 28  1  0  0  0  0
 30 28  1  0  0  0  0
 31 32  1  0  0  0  0
 31 33  1  0  0  0  0
 34 31  1  0  0  0  0
 35 37  1  0  0  0  0
 35 22  1  0  0  0  0
 36 35  1  0  0  0  0
 38 35  1  0  0  0  0
 39 41  1  0  0  0  0
 39 42  1  0  0  0  0
 40 39  1  0  0  0  0
M  END
