1,2
q = 0.0, confidence = 0.998

 49 52  0  0  0  0  0  0  0  0999 V2000
   -1.4208    0.0374    0.4355 P   0  0  0  0  0  0  0  0  0  0  0  0
    1.4785    0.1595    0.3158 P   0  0  0  0  0  0  0  0  0  0  0  0
    0.0792    0.1597    1.6548 C   0  0  0  0  0  0  0  0  0  0  0  0
    0.1499   -0.9902    2.3869 F   0  0  0  0  0  0  0  0  0  0  0  0
    0.1044    1.1990    2.5441 F   0  0  0  0  0  0  0  0  0  0  0  0
   -2.5982   -1.0684    1.3081 C   0  0  0  0  0  0  0  0  0  0  0  0
   -2.9175   -0.9023    2.6720 C   0  0  0  0  0  0  0  0  0  0  0  0
   -2.4469   -0.1022    3.2619 H   0  0  0  0  0  0  0  0  0  0  0  0
   -3.8251   -1.7735    3.2889 C   0  0  0  0  0  0  0  0  0  0  0  0
   -4.0641   -1.6464    4.3556 H   0  0  0  0  0  0  0  0  0  0  0  0
   -4.4243   -2.8080    2.5504 C   0  0  0  0  0  0  0  0  0  0  0  0
   -5.1376   -3.4894    3.0384 H   0  0  0  0  0  0  0  0  0  0  0  0
   -4.1080   -2.9760    1.1939 C   0  0  0  0  0  0  0  0  0  0  0  0
   -4.5709   -3.7876    0.6128 H   0  0  0  0  0  0  0  0  0  0  0  0
   -3.1918   -2.1132    0.5733 C   0  0  0  0  0  0  0  0  0  0  0  0
   -2.9311   -2.2477   -0.4873 H   0  0  0  0  0  0  0  0  0  0  0  0
   -2.2409    1.6853    0.4464 C   0  0  0  0  0  0  0  0  0  0  0  0
   -2.7151    2.1631   -0.7932 C   0  0  0  0  0  0  0  0  0  0  0  0
   -2.5618    1.5555   -1.6981 H   0  0  0  0  0  0  0  0  0  0  0  0
   -3.3699    3.4009   -0.8709 C   0  0  0  0  0  0  0  0  0  0  0  0
   -3.7358    3.7632   -1.8432 H   0  0  0  0  0  0  0  0  0  0  0  0
   -3.5479    4.1745    0.2864 C   0  0  0  0  0  0  0  0  0  0  0  0
   -4.0533    5.1503    0.2253 H   0  0  0  0  0  0  0  0  0  0  0  0
   -3.0793    3.7025    1.5237 C   0  0  0  0  0  0  0  0  0  0  0  0
   -3.2151    4.3081    2.4326 H   0  0  0  0  0  0  0  0  0  0  0  0
   -2.4347    2.4605    1.6103 C   0  0  0  0  0  0  0  0  0  0  0  0
   -2.0605    2.1109    2.5811 H   0  0  0  0  0  0  0  0  0  0  0  0
    2.8056   -0.8110    1.1176 C   0  0  0  0  0  0  0  0  0  0  0  0
    3.2264   -0.5207    2.4338 C   0  0  0  0  0  0  0  0  0  0  0  0
    2.7708    0.3161    2.9849 H   0  0  0  0  0  0  0  0  0  0  0  0
    4.2205   -1.3027    3.0359 C   0  0  0  0  0  0  0  0  0  0  0  0
    4.5426   -1.0805    4.0645 H   0  0  0  0  0  0  0  0  0  0  0  0
    4.8029   -2.3693    2.3292 C   0  0  0  0  0  0  0  0  0  0  0  0
    5.5846   -2.9807    2.8053 H   0  0  0  0  0  0  0  0  0  0  0  0
    4.3867   -2.6586    1.0208 C   0  0  0  0  0  0  0  0  0  0  0  0
    4.8394   -3.4947    0.4672 H   0  0  0  0  0  0  0  0  0  0  0  0
    3.3839   -1.8854    0.4154 C   0  0  0  0  0  0  0  0  0  0  0  0
    3.0422   -2.1123   -0.6058 H   0  0  0  0  0  0  0  0  0  0  0  0
    2.0842    1.8957    0.3378 C   0  0  0  0  0  0  0  0  0  0  0  0
    1.1657    2.9457    0.1251 C   0  0  0  0  0  0  0  0  0  0  0  0
    0.0955    2.7333   -0.0124 H   0  0  0  0  0  0  0  0  0  0  0  0
    1.6110    4.2731    0.0869 C   0  0  0  0  0  0  0  0  0  0  0  0
    0.8827    5.0826   -0.0712 H   0  0  0  0  0  0  0  0  0  0  0  0
    2.9762    4.5660    0.2387 C   0  0  0  0  0  0  0  0  0  0  0  0
    3.3248    5.6091    0.1996 H   0  0  0  0  0  0  0  0  0  0  0  0
    3.8948    3.5237    0.4332 C   0  0  0  0  0  0  0  0  0  0  0  0
    4.9672    3.7450    0.5446 H   0  0  0  0  0  0  0  0  0  0  0  0
    3.4540    2.1921    0.4868 C   0  0  0  0  0  0  0  0  0  0  0  0
    4.1803    1.3811    0.6419 H   0  0  0  0  0  0  0  0  0  0  0  0
  1 17  1  0  0  0  0
  1  6  1  0  0  0  0
  1  3  1  0  0  0  0
  2 39  1  0  0  0  0
  2 28  1  0  0  0  0
  2  3  1  0  0  0  0
  3  4  1  0  0  0  0
  3  5  1  0  0  0  0
  6  7  1  0  0  0  0
  7  8  1  0  0  0  0
  7  9  2  0  0  0  0
  9 10  1  0  0  0  0
 11 12  1  0  0  0  0
 11  9  1  0  0  0  0
 13 11  2  0  0  0  0
 14 13  1  0  0  0  0
 15 13  1  0  0  0  0
 15  6  2  0  0  0  0
 16 15  1  0  0  0  0
 17 26  1  0  0  0  0
 18 17  2  0  0  0  0
 19 18  1  0  0  0  0
 20 18  1  0  0  0  0
 20 22  2  0  0  0  0
 21 20  1  0  0  0  0
 22 24  1  0  0  0  0
 23 22  1  0  0  0  0
 24 26  2  0  0  0  0
 24 25  1  0  0  0  0
 26 27  1  0  0  0  0
 28 29  1  0  0  0  0
 29 30  1  0  0  0  0
 29 31  2  0  0  0  0
 31 32  1  0  0  0  0
 33 34  1  0  0  0  0
 33 31  1  0  0  0  0
 35 33  2  0  0  0  0
 36 35  1  0  0  0  0
 37 35  1  0  0  0  0
 37 28  2  0  0  0  0
 38 37  1  0  0  0  0
 39 48  1  0  0  0  0
 40 39  2  0  0  0  0
 41 40  1  0  0  0  0
 42 40  1  0  0  0  0
 42 44  2  0  0  0  0
 43 42  1  0  0  0  0
 44 46  1  0  0  0  0
 45 44  1  0  0  0  0
 46 48  2  0  0  0  0
 46 47  1  0  0  0  0
 48 49  1  0  0  0  0
M  END
