1,5
q = 0.0, confidence = 0.996

 40 40  0  0  0  0  0  0  0  0999 V2000
   -1.3309    1.0831    0.2052 P   0  0  1  0  0  0  0  0  0  0  0  0
    0.0001    2.1017   -0.6323 C   0  0  0  0  0  0  0  0  0  0  0  0
    0.0001    3.1949   -0.4362 H   0  0  0  0  0  0  0  0  0  0  0  0
    0.0001    1.8947   -1.7201 H   0  0  0  0  0  0  0  0  0  0  0  0
    1.3310    1.0830    0.2053 P   0  0  2  0  0  0  0  0  0  0  0  0
   -1.3036    1.9571    1.8572 C   0  0  0  0  0  0  0  0  0  0  0  0
   -1.4475    3.0435    1.6744 H   0  0  0  0  0  0  0  0  0  0  0  0
   -2.1682    1.6021    2.4538 H   0  0  0  0  0  0  0  0  0  0  0  0
    0.0000    1.6886    2.6291 C   0  0  0  0  0  0  0  0  0  0  0  0
    0.0000    0.6335    2.9623 H   0  0  0  0  0  0  0  0  0  0  0  0
    0.0000    2.3047    3.5537 H   0  0  0  0  0  0  0  0  0  0  0  0
    1.3037    1.9571    1.8573 C   0  0  0  0  0  0  0  0  0  0  0  0
    2.1683    1.6021    2.4539 H   0  0  0  0  0  0  0  0  0  0  0  0
    1.4476    3.0435    1.6744 H   0  0  0  0  0  0  0  0  0  0  0  0
   -3.0169    1.4557   -0.5645 C   0  0  0  0  0  0  0  0  0  0  0  0
   -2.9731    0.9240   -2.0058 C   0  0  0  0  0  0  0  0  0  0  0  0
   -3.9609    1.0812   -2.4878 H   0  0  0  0  0  0  0  0  0  0  0  0
   -2.7472   -0.1599   -2.0297 H   0  0  0  0  0  0  0  0  0  0  0  0
   -2.2134    1.4448   -2.6228 H   0  0  0  0  0  0  0  0  0  0  0  0
   -4.0523    0.6610    0.2511 C   0  0  0  0  0  0  0  0  0  0  0  0
   -5.0558    0.7752   -0.2104 H   0  0  0  0  0  0  0  0  0  0  0  0
   -4.1264    1.0194    1.2978 H   0  0  0  0  0  0  0  0  0  0  0  0
   -3.8077   -0.4203    0.2694 H   0  0  0  0  0  0  0  0  0  0  0  0
   -3.3236    2.9590   -0.5472 C   0  0  0  0  0  0  0  0  0  0  0  0
   -2.5567    3.5419   -1.0972 H   0  0  0  0  0  0  0  0  0  0  0  0
   -3.3943    3.3609    0.4831 H   0  0  0  0  0  0  0  0  0  0  0  0
   -4.3005    3.1469   -1.0416 H   0  0  0  0  0  0  0  0  0  0  0  0
    3.0170    1.4556   -0.5645 C   0  0  0  0  0  0  0  0  0  0  0  0
    4.0523    0.6609    0.2512 C   0  0  0  0  0  0  0  0  0  0  0  0
    5.0558    0.7751   -0.2103 H   0  0  0  0  0  0  0  0  0  0  0  0
    3.8077   -0.4205    0.2695 H   0  0  0  0  0  0  0  0  0  0  0  0
    4.1264    1.0193    1.2979 H   0  0  0  0  0  0  0  0  0  0  0  0
    2.9732    0.9238   -2.0057 C   0  0  0  0  0  0  0  0  0  0  0  0
    3.9610    1.0810   -2.4877 H   0  0  0  0  0  0  0  0  0  0  0  0
    2.2135    1.4446   -2.6228 H   0  0  0  0  0  0  0  0  0  0  0  0
    2.7473   -0.1601   -2.0296 H   0  0  0  0  0  0  0  0  0  0  0  0
    3.3237    2.9588   -0.5472 C   0  0  0  0  0  0  0  0  0  0  0  0
    3.3944    3.3608    0.4831 H   0  0  0  0  0  0  0  0  0  0  0  0
    2.5568    3.5417   -1.0973 H   0  0  0  0  0  0  0  0  0  0  0  0
    4.3006    3.1467   -1.0415 H   0  0  0  0  0  0  0  0  0  0  0  0
  1 15  1  6  0  0  0
  1  6  1  0  0  0  0
  2  3  1  0  0  0  0
  2  1  1  0  0  0  0
  2  5  1  0  0  0  0
  4  2  1  0  0  0  0
  5 28  1  6  0  0  0
  5 12  1  0  0  0  0
  6  8  1  0  0  0  0
  6  9  1  0  0  0  0
  7  6  1  0  0  0  0
  9 10  1  0  0  0  0
  9 11  1  0  0  0  0
 12 13  1  0  0  0  0
 12  9  1  0  0  0  0
 14 12  1  0  0  0  0
 15 24  1  0  0  0  0
 15 20  1  0  0  0  0
 16 15  1  0  0  0  0
 17 16  1  0  0  0  0
 18 16  1  0  0  0  0
 19 16  1  0  0  0  0
 20 23  1  0  0  0  0
 20 22  1  0  0  0  0
 21 20  1  0  0  0  0
 24 26  1  0  0  0  0
 25 24  1  0  0  0  0
 27 24  1  0  0  0  0
 28 37  1  0  0  0  0
 28 29  1  0  0  0  0
 29 31  1  0  0  0  0
 29 32  1  0  0  0  0
 30 29  1  0  0  0  0
 33 28  1  0  0  0  0
 34 33  1  0  0  0  0
 35 33  1  0  0  0  0
 36 33  1  0  0  0  0
 37 38  1  0  0  0  0
 39 37  1  0  0  0  0
 40 37  1  0  0  0  0
M  END
