1,2
q = 0.0, confidence = 0.98

 57 60  0  0  0  0  0  0  0  0999 V2000
   -1.2149    0.0310    0.1450 P   0  0  0  0  0  0  0  0  0  0  0  0
    1.3554   -0.0500    0.0695 P   0  0  0  0  0  0  0  0  0  0  0  0
    0.0379   -0.0340   -1.0675 N   0  0  0  0  0  0  0  0  0  0  0  0
   -2.1829    1.5478   -0.0970 C   0  0  0  0  0  0  0  0  0  0  0  0
   -3.3998    1.7026    0.6018 C   0  0  0  0  0  0  0  0  0  0  0  0
   -3.7664    0.8868    1.2424 H   0  0  0  0  0  0  0  0  0  0  0  0
   -4.1055    2.9094    0.5044 C   0  0  0  0  0  0  0  0  0  0  0  0
   -5.0532    3.0304    1.0506 H   0  0  0  0  0  0  0  0  0  0  0  0
   -3.6017    3.9646   -0.2745 C   0  0  0  0  0  0  0  0  0  0  0  0
   -4.1605    4.9099   -0.3475 H   0  0  0  0  0  0  0  0  0  0  0  0
   -2.3772    3.8198   -0.9468 C   0  0  0  0  0  0  0  0  0  0  0  0
   -1.9713    4.6513   -1.5426 H   0  0  0  0  0  0  0  0  0  0  0  0
   -1.6615    2.6177   -0.8523 C   0  0  0  0  0  0  0  0  0  0  0  0
   -0.6875    2.5133   -1.3527 H   0  0  0  0  0  0  0  0  0  0  0  0
   -2.3555   -1.3782   -0.0690 C   0  0  0  0  0  0  0  0  0  0  0  0
   -2.0345   -2.5554    0.6376 C   0  0  0  0  0  0  0  0  0  0  0  0
   -1.1775   -2.5439    1.3288 H   0  0  0  0  0  0  0  0  0  0  0  0
   -2.8309   -3.6985    0.4870 C   0  0  0  0  0  0  0  0  0  0  0  0
   -2.5808   -4.6148    1.0424 H   0  0  0  0  0  0  0  0  0  0  0  0
   -3.9569   -3.6653   -0.3522 C   0  0  0  0  0  0  0  0  0  0  0  0
   -4.5862   -4.5616   -0.4636 H   0  0  0  0  0  0  0  0  0  0  0  0
   -4.2937   -2.4846   -1.0348 C   0  0  0  0  0  0  0  0  0  0  0  0
   -5.1861   -2.4538   -1.6782 H   0  0  0  0  0  0  0  0  0  0  0  0
   -3.4972   -1.3387   -0.8931 C   0  0  0  0  0  0  0  0  0  0  0  0
   -3.7690   -0.4104   -1.4178 H   0  0  0  0  0  0  0  0  0  0  0  0
    2.3999    1.4021   -0.2827 C   0  0  0  0  0  0  0  0  0  0  0  0
    3.1636    1.4933   -1.4649 C   0  0  0  0  0  0  0  0  0  0  0  0
    3.2176    0.6380   -2.1565 H   0  0  0  0  0  0  0  0  0  0  0  0
    3.8692    2.6726   -1.7463 C   0  0  0  0  0  0  0  0  0  0  0  0
    4.4654    2.7477   -2.6684 H   0  0  0  0  0  0  0  0  0  0  0  0
    3.8215    3.7514   -0.8471 C   0  0  0  0  0  0  0  0  0  0  0  0
    4.3813    4.6731   -1.0682 H   0  0  0  0  0  0  0  0  0  0  0  0
    3.0744    3.6521    0.3382 C   0  0  0  0  0  0  0  0  0  0  0  0
    3.0537    4.4905    1.0506 H   0  0  0  0  0  0  0  0  0  0  0  0
    2.3602    2.4798    0.6245 C   0  0  0  0  0  0  0  0  0  0  0  0
    1.7981    2.3604    1.5641 H   0  0  0  0  0  0  0  0  0  0  0  0
    2.3571   -1.5138   -0.3232 C   0  0  0  0  0  0  0  0  0  0  0  0
    3.6679   -1.6044    0.1894 C   0  0  0  0  0  0  0  0  0  0  0  0
    4.0843   -0.7692    0.7722 H   0  0  0  0  0  0  0  0  0  0  0  0
    4.4144   -2.7716   -0.0219 C   0  0  0  0  0  0  0  0  0  0  0  0
    5.4360   -2.8451    0.3805 H   0  0  0  0  0  0  0  0  0  0  0  0
    3.8593   -3.8473   -0.7353 C   0  0  0  0  0  0  0  0  0  0  0  0
    4.4504   -4.7609   -0.8998 H   0  0  0  0  0  0  0  0  0  0  0  0
    2.5462   -3.7636   -1.2270 C   0  0  0  0  0  0  0  0  0  0  0  0
    2.1056   -4.6110   -1.7738 H   0  0  0  0  0  0  0  0  0  0  0  0
    1.7887   -2.6030   -1.0137 C   0  0  0  0  0  0  0  0  0  0  0  0
    0.7481   -2.5394   -1.3680 H   0  0  0  0  0  0  0  0  0  0  0  0
    0.0985    0.1153   -2.5195 C   0  0  0  0  0  0  0  0  0  0  0  0
    0.9234   -0.5338   -2.8907 H   0  0  0  0  0  0  0  0  0  0  0  0
    0.3827    1.1601   -2.7906 H   0  0  0  0  0  0  0  0  0  0  0  0
   -1.1993   -0.2616   -3.2307 C   0  0  0  0  0  0  0  0  0  0  0  0
   -2.0187    0.3857   -2.8517 H   0  0  0  0  0  0  0  0  0  0  0  0
   -1.4758   -1.3023   -2.9603 H   0  0  0  0  0  0  0  0  0  0  0  0
   -1.0848   -0.1147   -4.7474 C   0  0  0  0  0  0  0  0  0  0  0  0
   -0.8368    0.9279   -5.0361 H   0  0  0  0  0  0  0  0  0  0  0  0
   -2.0345   -0.3833   -5.2502 H   0  0  0  0  0  0  0  0  0  0  0  0
   -0.2907   -0.7714   -5.1595 H   0  0  0  0  0  0  0  0  0  0  0  0
  3  2  1  0  0  0  0
  3  1  1  0  0  0  0
  4  1  1  0  0  0  0
  4  5  1  0  0  0  0
  5  6  1  0  0  0  0
  7  5  2  0  0  0  0
  7  8  1  0  0  0  0
  9  7  1  0  0  0  0
 10  9  1  0  0  0  0
 11 13  1  0  0  0  0
 11  9  2  0  0  0  0
 12 11  1  0  0  0  0
 13  4  2  0  0  0  0
 14 13  1  0  0  0  0
 15  1  1  0  0  0  0
 15 16  1  0  0  0  0
 16 17  1  0  0  0  0
 18 16  2  0  0  0  0
 18 19  1  0  0  0  0
 20 18  1  0  0  0  0
 21 20  1  0  0  0  0
 22 24  1  0  0  0  0
 22 20  2  0  0  0  0
 23 22  1  0  0  0  0
 24 15  2  0  0  0  0
 25 24  1  0  0  0  0
 26  2  1  0  0  0  0
 26 35  1  0  0  0  0
 27 26  2  0  0  0  0
 28 27  1  0  0  0  0
 29 27  1  0  0  0  0
 29 31  2  0  0  0  0
 30 29  1  0  0  0  0
 31 33  1  0  0  0  0
 32 31  1  0  0  0  0
 33 35  2  0  0  0  0
 33 34  1  0  0  0  0
 35 36  1  0  0  0  0
 37  2  1  0  0  0  0
 37 38  1  0  0  0  0
 38 39  1  0  0  0  0
 40 38  2  0  0  0  0
 40 41  1  0  0  0  0
 42 40  1  0  0  0  0
 43 42  1  0  0  0  0
 44 46  1  0  0  0  0
 44 42  2  0  0  0  0
 45 44  1  0  0  0  0
 46 37  2  0  0  0  0
 47 46  1  0  0  0  0
 48  3  1  0  0  0  0
 49 48  1  0  0  0  0
 50 48  1  0  0  0  0
 51 53  1  0  0  0  0
 51 52  1  0  0  0  0
 51 48  1  0  0  0  0
 54 51  1  0  0  0  0
 55 54  1  0  0  0  0
 56 54  1  0  0  0  0
 57 54  1  0  0  0  0
M  END
