1,2
q = 0.0, confidence = 0.992

 61 66  0  0  1  0  0  0  0  0999 V2000
    1.7021   -0.2295    0.0427 P   0  0  0  0  0  0  0  0  0  0  0  0
   -1.6519    0.1081   -0.1530 P   0  0  0  0  0  0  0  0  0  0  0  0
    3.3530   -1.5071    1.9677 N   0  0  0  0  0  0  0  0  0  0  0  0
    1.8605   -2.8148    3.0772 N   0  0  0  0  0  2  0  0  0  0  0  0
    1.2448   -2.1491    2.0735 N   0  0  0  0  0  0  0  0  0  0  0  0
   -0.9604   -1.1780    2.3426 N   0  0  0  0  0  0  0  0  0  0  0  0
   -1.1516   -1.0448    3.6748 N   0  0  0  0  0  0  0  0  0  0  0  0
   -2.1721    0.6528    2.5696 N   0  0  0  0  0  0  0  0  0  0  0  0
    3.1886    0.1112   -0.9647 C   0  0  0  0  0  0  0  0  0  0  0  0
    3.0355    0.2563   -2.3576 C   0  0  0  0  0  0  0  0  0  0  0  0
    2.0646    0.0388   -2.8275 H   0  0  0  0  0  0  0  0  0  0  0  0
    4.1318    0.6495   -3.1381 C   0  0  0  0  0  0  0  0  0  0  0  0
    4.0127    0.7589   -4.2264 H   0  0  0  0  0  0  0  0  0  0  0  0
    5.3781    0.8824   -2.5350 C   0  0  0  0  0  0  0  0  0  0  0  0
    6.2398    1.1808   -3.1514 H   0  0  0  0  0  0  0  0  0  0  0  0
    5.5281    0.7270   -1.1474 C   0  0  0  0  0  0  0  0  0  0  0  0
    6.5071    0.8984   -0.6749 H   0  0  0  0  0  0  0  0  0  0  0  0
    4.4348    0.3522   -0.3530 C   0  0  0  0  0  0  0  0  0  0  0  0
    4.5482    0.2114    0.7312 H   0  0  0  0  0  0  0  0  0  0  0  0
    1.4899    1.3595    0.9572 C   0  0  0  0  0  0  0  0  0  0  0  0
    1.6434    2.5667    0.2428 C   0  0  0  0  0  0  0  0  0  0  0  0
    1.9194    2.5435   -0.8215 H   0  0  0  0  0  0  0  0  0  0  0  0
    1.4554    3.7946    0.8881 C   0  0  0  0  0  0  0  0  0  0  0  0
    1.5755    4.7293    0.3209 H   0  0  0  0  0  0  0  0  0  0  0  0
    1.1111    3.8319    2.2494 C   0  0  0  0  0  0  0  0  0  0  0  0
    0.9617    4.7981    2.7544 H   0  0  0  0  0  0  0  0  0  0  0  0
    0.9647    2.6349    2.9649 C   0  0  0  0  0  0  0  0  0  0  0  0
    0.7050    2.6547    4.0339 H   0  0  0  0  0  0  0  0  0  0  0  0
    1.1567    1.4009    2.3254 C   0  0  0  0  0  0  0  0  0  0  0  0
    1.0572    0.4750    2.9098 H   0  0  0  0  0  0  0  0  0  0  0  0
    2.1574   -1.3654    1.4014 C   0  0  1  0  0  3  0  0  0  0  0  0
    3.1245   -2.4055    2.9691 C   0  0  0  0  0  0  0  0  0  0  0  0
    3.9092   -2.7734    3.6422 H   0  0  0  0  0  0  0  0  0  0  0  0
   -0.1806   -2.3148    1.8646 C   0  0  0  0  0  0  0  0  0  0  0  0
   -0.4803   -3.2074    2.4401 H   0  0  0  0  0  0  0  0  0  0  0  0
   -0.3802   -2.4529    0.7778 H   0  0  0  0  0  0  0  0  0  0  0  0
   -1.8802    0.0683    3.7640 C   0  0  0  0  0  0  0  0  0  0  0  0
   -2.2180    0.4619    4.7313 H   0  0  0  0  0  0  0  0  0  0  0  0
   -1.5704   -0.1313    1.6743 C   0  0  0  0  0  0  0  0  0  0  0  0
   -3.4205   -0.2688   -0.4527 C   0  0  0  0  0  0  0  0  0  0  0  0
   -3.9068   -1.5437   -0.0978 C   0  0  0  0  0  0  0  0  0  0  0  0
   -3.2278   -2.2976    0.3270 H   0  0  0  0  0  0  0  0  0  0  0  0
   -5.2545   -1.8576   -0.3052 C   0  0  0  0  0  0  0  0  0  0  0  0
   -5.6306   -2.8532   -0.0264 H   0  0  0  0  0  0  0  0  0  0  0  0
   -6.1179   -0.9116   -0.8837 C   0  0  0  0  0  0  0  0  0  0  0  0
   -7.1757   -1.1636   -1.0525 H   0  0  0  0  0  0  0  0  0  0  0  0
   -5.6295    0.3501   -1.2520 C   0  0  0  0  0  0  0  0  0  0  0  0
   -6.3010    1.0918   -1.7102 H   0  0  0  0  0  0  0  0  0  0  0  0
   -4.2809    0.6769   -1.0376 C   0  0  0  0  0  0  0  0  0  0  0  0
   -3.9028    1.6684   -1.3245 H   0  0  0  0  0  0  0  0  0  0  0  0
   -1.4900    1.9023   -0.4708 C   0  0  0  0  0  0  0  0  0  0  0  0
   -0.9650    2.2605   -1.7309 C   0  0  0  0  0  0  0  0  0  0  0  0
   -0.6137    1.4736   -2.4181 H   0  0  0  0  0  0  0  0  0  0  0  0
   -0.8885    3.6120   -2.0961 C   0  0  0  0  0  0  0  0  0  0  0  0
   -0.4826    3.8888   -3.0807 H   0  0  0  0  0  0  0  0  0  0  0  0
   -1.3216    4.6050   -1.2029 C   0  0  0  0  0  0  0  0  0  0  0  0
   -1.2558    5.6664   -1.4871 H   0  0  0  0  0  0  0  0  0  0  0  0
   -1.8369    4.2451    0.0530 C   0  0  0  0  0  0  0  0  0  0  0  0
   -2.1704    5.0238    0.7556 H   0  0  0  0  0  0  0  0  0  0  0  0
   -1.9337    2.8959    0.4236 C   0  0  0  0  0  0  0  0  0  0  0  0
   -2.3359    2.5986    1.4034 H   0  0  0  0  0  0  0  0  0  0  0  0
  1 20  1  0  0  0  0
  2 39  1  0  0  0  0
  3 32  2  0  0  0  0
  5  4  1  0  0  0  0
  6  7  1  0  0  0  0
  7 37  2  0  0  0  0
  8 37  1  0  0  0  0
  9 18  1  0  0  0  0
  9  1  1  0  0  0  0
 10  9  2  0  0  0  0
 11 10  1  0  0  0  0
 12 14  2  0  0  0  0
 12 10  1  0  0  0  0
 13 12  1  0  0  0  0
 14 16  1  0  0  0  0
 15 14  1  0  0  0  0
 16 17  1  0  0  0  0
 16 18  2  0  0  0  0
 18 19  1  0  0  0  0
 20 29  1  0  0  0  0
 21 23  1  0  0  0  0
 21 20  2  0  0  0  0
 22 21  1  0  0  0  0
 23 25  2  0  0  0  0
 24 23  1  0  0  0  0
 25 26  1  0  0  0  0
 25 27  1  0  0  0  0
 27 28  1  0  0  0  0
 29 30  1  0  0  0  0
 29 27  2  0  0  0  0
 31  1  1  1  0  0  0
 31  3  1  0  0  0  0
 31  5  1  0  0  0  0
 32  4  1  0  0  0  0
 32 33  1  0  0  0  0
 34  5  1  0  0  0  0
 34  6  1  0  0  0  0
 34 35  1  0  0  0  0
 36 34  1  0  0  0  0
 37 38  1  0  0  0  0
 39  6  1  0  0  0  0
 39  8  2  0  0  0  0
 40  2  1  0  0  0  0
 40 41  1  0  0  0  0
 41 42  1  0  0  0  0
 43 41  2  0  0  0  0
 43 44  1  0  0  0  0
 45 43  1  0  0  0  0
 46 45  1  0  0  0  0
 47 49  1  0  0  0  0
 47 45  2  0  0  0  0
 48 47  1  0  0  0  0
 49 40  2  0  0  0  0
 50 49  1  0  0  0  0
 51  2  1  0  0  0  0
 51 60  1  0  0  0  0
 52 51  2  0  0  0  0
 53 52  1  0  0  0  0
 54 52  1  0  0  0  0
 54 56  2  0  0  0  0
 55 54  1  0  0  0  0
 56 58  1  0  0  0  0
 57 56  1  0  0  0  0
 58 60  2  0  0  0  0
 58 59  1  0  0  0  0
 60 61  1  0  0  0  0
M  END
