1,2
q = -1.0, confidence = 0.004

 48 51  0  0  0  0  0  0  0  0999 V2000
   -1.3587   -0.0192    0.1231 P   0  0  0  0  0  0  0  0  0  0  0  0
    1.3589   -0.0197    0.1245 P   0  0  0  0  0  0  0  0  0  0  0  0
    0.0007    0.4025   -0.8820 C   0  0  0  0  0  3  0  0  0  0  0  0
    0.0027    1.1140   -2.8928 I   0  0  0  0  0  0  0  0  0  0  0  0
   -2.3170   -1.4909   -0.4327 C   0  0  0  0  0  0  0  0  0  0  0  0
   -3.1438   -2.1982    0.4659 C   0  0  0  0  0  0  0  0  0  0  0  0
   -3.8283   -3.3461    0.0405 C   0  0  0  0  0  0  0  0  0  0  0  0
   -3.6846   -3.8029   -1.2794 C   0  0  0  0  0  0  0  0  0  0  0  0
   -2.8493   -3.1116   -2.1709 C   0  0  0  0  0  0  0  0  0  0  0  0
   -2.1635   -1.9616   -1.7512 C   0  0  0  0  0  0  0  0  0  0  0  0
   -2.6055    1.3322    0.1854 C   0  0  0  0  0  0  0  0  0  0  0  0
   -2.1536    2.6528   -0.0145 C   0  0  0  0  0  0  0  0  0  0  0  0
   -3.0509    3.7268    0.0621 C   0  0  0  0  0  0  0  0  0  0  0  0
   -4.4067    3.4937    0.3420 C   0  0  0  0  0  0  0  0  0  0  0  0
   -4.8633    2.1801    0.5352 C   0  0  0  0  0  0  0  0  0  0  0  0
   -3.9702    1.1017    0.4536 C   0  0  0  0  0  0  0  0  0  0  0  0
    2.3161   -1.4928   -0.4296 C   0  0  0  0  0  0  0  0  0  0  0  0
    3.1444   -2.1980    0.4693 C   0  0  0  0  0  0  0  0  0  0  0  0
    3.8272   -3.3476    0.0458 C   0  0  0  0  0  0  0  0  0  0  0  0
    3.6802   -3.8082   -1.2725 C   0  0  0  0  0  0  0  0  0  0  0  0
    2.8433   -3.1190   -2.1641 C   0  0  0  0  0  0  0  0  0  0  0  0
    2.1592   -1.9673   -1.7463 C   0  0  0  0  0  0  0  0  0  0  0  0
    2.6066    1.3310    0.1864 C   0  0  0  0  0  0  0  0  0  0  0  0
    3.9723    1.0997    0.4486 C   0  0  0  0  0  0  0  0  0  0  0  0
    4.8660    2.1777    0.5290 C   0  0  0  0  0  0  0  0  0  0  0  0
    4.4089    3.4917    0.3405 C   0  0  0  0  0  0  0  0  0  0  0  0
    3.0521    3.7258    0.0665 C   0  0  0  0  0  0  0  0  0  0  0  0
    2.1543    2.6522   -0.0090 C   0  0  0  0  0  0  0  0  0  0  0  0
   -3.2419   -1.8656    1.5109 H   0  0  0  0  0  0  0  0  0  0  0  0
   -4.4679   -3.8939    0.7491 H   0  0  0  0  0  0  0  0  0  0  0  0
   -4.2170   -4.7075   -1.6103 H   0  0  0  0  0  0  0  0  0  0  0  0
   -2.7245   -3.4723   -3.2033 H   0  0  0  0  0  0  0  0  0  0  0  0
   -1.4995   -1.4258   -2.4463 H   0  0  0  0  0  0  0  0  0  0  0  0
   -1.0926    2.8257   -0.2456 H   0  0  0  0  0  0  0  0  0  0  0  0
   -2.6878    4.7524   -0.1027 H   0  0  0  0  0  0  0  0  0  0  0  0
   -5.1110    4.3372    0.4030 H   0  0  0  0  0  0  0  0  0  0  0  0
   -5.9268    1.9902    0.7456 H   0  0  0  0  0  0  0  0  0  0  0  0
   -4.3436    0.0764    0.5866 H   0  0  0  0  0  0  0  0  0  0  0  0
    3.2450   -1.8624    1.5131 H   0  0  0  0  0  0  0  0  0  0  0  0
    4.4680   -3.8938    0.7546 H   0  0  0  0  0  0  0  0  0  0  0  0
    4.2112   -4.7141   -1.6019 H   0  0  0  0  0  0  0  0  0  0  0  0
    2.7159   -3.4827   -3.1951 H   0  0  0  0  0  0  0  0  0  0  0  0
    1.4938   -1.4332   -2.4413 H   0  0  0  0  0  0  0  0  0  0  0  0
    4.3461    0.0740    0.5777 H   0  0  0  0  0  0  0  0  0  0  0  0
    5.9303    1.9871    0.7346 H   0  0  0  0  0  0  0  0  0  0  0  0
    5.1137    4.3350    0.4006 H   0  0  0  0  0  0  0  0  0  0  0  0
    2.6885    4.7518   -0.0947 H   0  0  0  0  0  0  0  0  0  0  0  0
    1.0924    2.8258   -0.2356 H   0  0  0  0  0  0  0  0  0  0  0  0
  1 11  1  0  0  0  0
  2 23  1  0  0  0  0
  3  1  1  0  0  0  0
  3  2  1  0  0  0  0
  4  3  1  0  0  0  0
  5  1  1  0  0  0  0
  5  6  1  0  0  0  0
  6 29  1  0  0  0  0
  7  6  2  0  0  0  0
  7 30  1  0  0  0  0
  8  7  1  0  0  0  0
  9 10  1  0  0  0  0
  9  8  2  0  0  0  0
 10  5  2  0  0  0  0
 11 16  1  0  0  0  0
 12 13  1  0  0  0  0
 12 11  2  0  0  0  0
 13 14  2  0  0  0  0
 14 36  1  0  0  0  0
 14 15  1  0  0  0  0
 15 37  1  0  0  0  0
 16 15  2  0  0  0  0
 16 38  1  0  0  0  0
 17  2  1  0  0  0  0
 17 18  1  0  0  0  0
 18 39  1  0  0  0  0
 19 18  2  0  0  0  0
 19 40  1  0  0  0  0
 20 19  1  0  0  0  0
 21 22  1  0  0  0  0
 21 20  2  0  0  0  0
 22 17  2  0  0  0  0
 23 24  1  0  0  0  0
 24 25  2  0  0  0  0
 24 44  1  0  0  0  0
 25 45  1  0  0  0  0
 26 46  1  0  0  0  0
 26 25  1  0  0  0  0
 27 26  2  0  0  0  0
 28 27  1  0  0  0  0
 28 23  2  0  0  0  0
 31  8  1  0  0  0  0
 32  9  1  0  0  0  0
 33 10  1  0  0  0  0
 34 12  1  0  0  0  0
 35 13  1  0  0  0  0
 41 20  1  0  0  0  0
 42 21  1  0  0  0  0
 43 22  1  0  0  0  0
 47 27  1  0  0  0  0
 48 28  1  0  0  0  0
M  END
