1,2
q = -2.0, confidence = 0.66

 56 58  0  0  0  0  0  0  0  0999 V2000
    2.1831   -0.5841   -1.1456 P   0  0  0  0  0  2  0  0  0  0  0  0
   -2.1004   -0.8875   -1.0957 P   0  0  0  0  0  2  0  0  0  0  0  0
   -0.0530    1.1020   -0.2102 O   0  0  0  0  0  0  0  0  0  0  0  0
   -0.2510    3.8471    0.4742 C   0  0  0  0  0  0  0  0  0  0  0  0
   -0.3922    3.5396    1.9920 C   0  0  0  0  0  0  0  0  0  0  0  0
   -1.3530    3.9378    2.3761 H   0  0  0  0  0  0  0  0  0  0  0  0
    0.4414    4.0024    2.5583 H   0  0  0  0  0  0  0  0  0  0  0  0
   -0.3743    2.4482    2.1801 H   0  0  0  0  0  0  0  0  0  0  0  0
   -0.3024    5.3674    0.2678 C   0  0  0  0  0  0  0  0  0  0  0  0
   -1.2545    5.7829    0.6497 H   0  0  0  0  0  0  0  0  0  0  0  0
   -0.2034    5.6387   -0.8015 H   0  0  0  0  0  0  0  0  0  0  0  0
    0.5060    5.8684    0.8338 H   0  0  0  0  0  0  0  0  0  0  0  0
    2.3071    1.1820   -0.6604 C   0  0  0  0  0  0  0  0  0  0  0  0
    1.1253    1.8759   -0.2989 C   0  0  0  0  0  0  0  0  0  0  0  0
    1.0698    3.2478   -0.0100 C   0  0  0  0  0  0  0  0  0  0  0  0
    2.2714    3.9782   -0.0900 C   0  0  0  0  0  0  0  0  0  0  0  0
    2.2728    5.0543    0.1276 H   0  0  0  0  0  0  0  0  0  0  0  0
    3.4694    3.3342   -0.4258 C   0  0  0  0  0  0  0  0  0  0  0  0
    4.4048    3.9115   -0.4799 H   0  0  0  0  0  0  0  0  0  0  0  0
    3.4878    1.9628   -0.7056 C   0  0  0  0  0  0  0  0  0  0  0  0
    4.4352    1.4912   -0.9951 H   0  0  0  0  0  0  0  0  0  0  0  0
    3.8338   -1.4406   -0.6588 C   0  0  0  0  0  0  0  0  0  0  0  0
    4.9261   -1.1258   -1.6992 C   0  0  0  0  0  0  0  0  0  0  0  0
    4.5808   -1.3669   -2.7242 H   0  0  0  0  0  0  0  0  0  0  0  0
    5.8326   -1.7347   -1.4874 H   0  0  0  0  0  0  0  0  0  0  0  0
    5.2380   -0.0641   -1.6930 H   0  0  0  0  0  0  0  0  0  0  0  0
    3.5403   -2.9505   -0.7240 C   0  0  0  0  0  0  0  0  0  0  0  0
    3.1812   -3.2497   -1.7298 H   0  0  0  0  0  0  0  0  0  0  0  0
    2.7712   -3.2485    0.0160 H   0  0  0  0  0  0  0  0  0  0  0  0
    4.4710   -3.5201   -0.5145 H   0  0  0  0  0  0  0  0  0  0  0  0
    4.2945   -1.0715    0.7581 C   0  0  0  0  0  0  0  0  0  0  0  0
    3.5542   -1.4040    1.5138 H   0  0  0  0  0  0  0  0  0  0  0  0
    4.4431    0.0191    0.8841 H   0  0  0  0  0  0  0  0  0  0  0  0
    5.2611   -1.5717    0.9891 H   0  0  0  0  0  0  0  0  0  0  0  0
   -2.3454    0.9247   -0.9120 C   0  0  0  0  0  0  0  0  0  0  0  0
   -1.2816    1.7450   -0.4721 C   0  0  0  0  0  0  0  0  0  0  0  0
   -1.3917    3.1274   -0.2487 C   0  0  0  0  0  0  0  0  0  0  0  0
   -2.6144    3.7429   -0.5776 C   0  0  0  0  0  0  0  0  0  0  0  0
   -2.7397    4.8235   -0.4291 H   0  0  0  0  0  0  0  0  0  0  0  0
   -3.6801    2.9811   -1.0762 C   0  0  0  0  0  0  0  0  0  0  0  0
   -4.6278    3.4729   -1.3430 H   0  0  0  0  0  0  0  0  0  0  0  0
   -3.5509    1.5961   -1.2296 C   0  0  0  0  0  0  0  0  0  0  0  0
   -4.3967    1.0183   -1.6252 H   0  0  0  0  0  0  0  0  0  0  0  0
   -3.7004   -1.7070   -0.4003 C   0  0  0  0  0  0  0  0  0  0  0  0
   -4.2350   -0.9879    0.8457 C   0  0  0  0  0  0  0  0  0  0  0  0
   -3.4773   -0.9655    1.6541 H   0  0  0  0  0  0  0  0  0  0  0  0
   -5.1351   -1.5157    1.2322 H   0  0  0  0  0  0  0  0  0  0  0  0
   -4.5253    0.0590    0.6328 H   0  0  0  0  0  0  0  0  0  0  0  0
   -3.3095   -3.1498   -0.0345 C   0  0  0  0  0  0  0  0  0  0  0  0
   -2.5754   -3.1830    0.7946 H   0  0  0  0  0  0  0  0  0  0  0  0
   -2.8659   -3.6853   -0.8985 H   0  0  0  0  0  0  0  0  0  0  0  0
   -4.2140   -3.7123    0.2826 H   0  0  0  0  0  0  0  0  0  0  0  0
   -4.7800   -1.7698   -1.4980 C   0  0  0  0  0  0  0  0  0  0  0  0
   -5.1391   -0.7670   -1.7995 H   0  0  0  0  0  0  0  0  0  0  0  0
   -5.6627   -2.3381   -1.1298 H   0  0  0  0  0  0  0  0  0  0  0  0
   -4.3973   -2.2758   -2.4066 H   0  0  0  0  0  0  0  0  0  0  0  0
  1 13  1  0  0  0  0
  1 22  1  0  0  0  0
  2 35  1  0  0  0  0
  2 44  1  0  0  0  0
  4  5  1  0  0  0  0
  5  8  1  0  0  0  0
  5  6  1  0  0  0  0
  5  7  1  0  0  0  0
  9  4  1  0  0  0  0
  9 10  1  0  0  0  0
  9 12  1  0  0  0  0
 11  9  1  0  0  0  0
 13 14  1  0  0  0  0
 14  3  1  0  0  0  0
 14 15  2  0  0  0  0
 15  4  1  0  0  0  0
 16 15  1  0  0  0  0
 16 17  1  0  0  0  0
 18 16  2  0  0  0  0
 19 18  1  0  0  0  0
 20 13  2  0  0  0  0
 20 18  1  0  0  0  0
 21 20  1  0  0  0  0
 22 31  1  0  0  0  0
 23 26  1  0  0  0  0
 23 25  1  0  0  0  0
 23 22  1  0  0  0  0
 24 23  1  0  0  0  0
 27 22  1  0  0  0  0
 27 30  1  0  0  0  0
 27 29  1  0  0  0  0
 28 27  1  0  0  0  0
 31 33  1  0  0  0  0
 31 34  1  0  0  0  0
 31 32  1  0  0  0  0
 35 36  1  0  0  0  0
 36 37  2  0  0  0  0
 36  3  1  0  0  0  0
 37  4  1  0  0  0  0
 38 39  1  0  0  0  0
 38 37  1  0  0  0  0
 40 38  2  0  0  0  0
 41 40  1  0  0  0  0
 42 40  1  0  0  0  0
 42 35  2  0  0  0  0
 43 42  1  0  0  0  0
 44 49  1  0  0  0  0
 44 45  1  0  0  0  0
 45 47  1  0  0  0  0
 45 46  1  0  0  0  0
 48 45  1  0  0  0  0
 49 52  1  0  0  0  0
 49 50  1  0  0  0  0
 51 49  1  0  0  0  0
 53 55  1  0  0  0  0
 53 44  1  0  0  0  0
 54 53  1  0  0  0  0
 56 53  1  0  0  0  0
M  END
