4,5
q = 0.0, confidence = 0.99

 60 65  0  0  1  0  0  0  0  0999 V2000
   -2.7041    3.1802   -1.3426 O   0  0  0  0  0  0  0  0  0  0  0  0
   -2.7553    3.5282   -2.2530 H   0  0  0  0  0  0  0  0  0  0  0  0
   -0.3729    3.1949   -1.6080 O   0  0  0  0  0  0  0  0  0  0  0  0
    1.6364    0.1643   -0.1907 P   0  0  2  0  0  0  0  0  0  0  0  0
   -1.3255   -0.0550    0.3211 P   0  0  0  0  0  0  0  0  0  0  0  0
    3.3898   -0.1068    0.1945 C   0  0  0  0  0  0  0  0  0  0  0  0
    3.9119    0.2037    1.4662 C   0  0  0  0  0  0  0  0  0  0  0  0
    3.2610    0.6239    2.2468 H   0  0  0  0  0  0  0  0  0  0  0  0
    5.2662   -0.0317    1.7426 C   0  0  0  0  0  0  0  0  0  0  0  0
    5.6705    0.2115    2.7368 H   0  0  0  0  0  0  0  0  0  0  0  0
    6.1006   -0.5777    0.7542 C   0  0  0  0  0  0  0  0  0  0  0  0
    7.1634   -0.7622    0.9729 H   0  0  0  0  0  0  0  0  0  0  0  0
    5.5770   -0.9011   -0.5077 C   0  0  0  0  0  0  0  0  0  0  0  0
    6.2250   -1.3474   -1.2768 H   0  0  0  0  0  0  0  0  0  0  0  0
    4.2223   -0.6766   -0.7917 C   0  0  0  0  0  0  0  0  0  0  0  0
    3.7973   -0.9788   -1.7596 H   0  0  0  0  0  0  0  0  0  0  0  0
    1.4965    1.6343   -1.3713 C   0  0  2  0  0  0  0  0  0  0  0  0
    1.8806    1.4768   -2.3946 H   0  0  0  0  0  0  0  0  0  0  0  0
    0.9060    1.4527    0.9750 C   0  0  1  0  0  0  0  0  0  0  0  0
    0.7859    1.1436    2.0298 H   0  0  0  0  0  0  0  0  0  0  0  0
    1.8017    2.6582    0.7431 C   0  0  0  0  0  0  0  0  0  0  0  0
    2.1494    2.7488   -0.5722 C   0  0  0  0  0  0  0  0  0  0  0  0
    2.9645    3.7929   -1.2583 C   0  0  0  0  0  0  0  0  0  0  0  0
    3.3853    4.5346   -0.5530 H   0  0  0  0  0  0  0  0  0  0  0  0
    2.3390    4.3330   -2.0009 H   0  0  0  0  0  0  0  0  0  0  0  0
    3.8061    3.3322   -1.8187 H   0  0  0  0  0  0  0  0  0  0  0  0
    2.1787    3.5658    1.8709 C   0  0  0  0  0  0  0  0  0  0  0  0
    2.8340    4.3932    1.5388 H   0  0  0  0  0  0  0  0  0  0  0  0
    2.7163    3.0084    2.6690 H   0  0  0  0  0  0  0  0  0  0  0  0
    1.2849    4.0154    2.3560 H   0  0  0  0  0  0  0  0  0  0  0  0
   -0.0400    1.8454   -1.2997 C   0  0  1  0  0  0  0  0  0  0  0  0
   -0.5670    1.1476   -1.9849 H   0  0  0  0  0  0  0  0  0  0  0  0
   -0.4647    1.6214    0.2138 C   0  0  1  0  0  0  0  0  0  0  0  0
   -1.2870    2.8841    0.5450 C   0  0  0  0  0  0  0  0  0  0  0  0
   -0.7238    3.5423    1.2335 H   0  0  0  0  0  0  0  0  0  0  0  0
   -2.2757    2.6721    0.9903 H   0  0  0  0  0  0  0  0  0  0  0  0
   -1.4730    3.5908   -0.8080 C   0  0  2  0  0  0  0  0  0  0  0  0
   -1.4037    4.7016   -0.7400 H   0  0  0  0  0  0  0  0  0  0  0  0
   -1.7463   -0.3601    2.0794 C   0  0  0  0  0  0  0  0  0  0  0  0
   -1.7300    0.6295    3.0838 C   0  0  0  0  0  0  0  0  0  0  0  0
   -1.4522    1.6660    2.8475 H   0  0  0  0  0  0  0  0  0  0  0  0
   -2.0706    0.2956    4.4046 C   0  0  0  0  0  0  0  0  0  0  0  0
   -2.0524    1.0722    5.1843 H   0  0  0  0  0  0  0  0  0  0  0  0
   -2.4337   -1.0206    4.7276 C   0  0  0  0  0  0  0  0  0  0  0  0
   -2.6998   -1.2793    5.7638 H   0  0  0  0  0  0  0  0  0  0  0  0
   -2.4508   -2.0075    3.7278 C   0  0  0  0  0  0  0  0  0  0  0  0
   -2.7279   -3.0428    3.9774 H   0  0  0  0  0  0  0  0  0  0  0  0
   -2.1040   -1.6868    2.4085 C   0  0  0  0  0  0  0  0  0  0  0  0
   -2.0969   -2.4582    1.6182 H   0  0  0  0  0  0  0  0  0  0  0  0
   -2.9225    0.1199   -0.5406 C   0  0  0  0  0  0  0  0  0  0  0  0
   -4.0533    0.6201    0.1337 C   0  0  0  0  0  0  0  0  0  0  0  0
   -4.0041    0.8331    1.2125 H   0  0  0  0  0  0  0  0  0  0  0  0
   -5.2473    0.8328   -0.5693 C   0  0  0  0  0  0  0  0  0  0  0  0
   -6.1300    1.2234   -0.0407 H   0  0  0  0  0  0  0  0  0  0  0  0
   -5.3168    0.5427   -1.9405 C   0  0  0  0  0  0  0  0  0  0  0  0
   -6.2565    0.7068   -2.4899 H   0  0  0  0  0  0  0  0  0  0  0  0
   -4.1962    0.0204   -2.6075 C   0  0  0  0  0  0  0  0  0  0  0  0
   -4.2586   -0.2367   -3.6757 H   0  0  0  0  0  0  0  0  0  0  0  0
   -3.0011   -0.2008   -1.9108 C   0  0  0  0  0  0  0  0  0  0  0  0
   -2.1329   -0.6556   -2.4114 H   0  0  0  0  0  0  0  0  0  0  0  0
  1 37  1  0  0  0  0
  2  1  1  0  0  0  0
  3 31  1  0  0  0  0
  3 37  1  0  0  0  0
  4  6  1  1  0  0  0
  4 19  1  0  0  0  0
  5 39  1  0  0  0  0
  6  7  1  0  0  0  0
  7  9  2  0  0  0  0
  7  8  1  0  0  0  0
  9 10  1  0  0  0  0
 11 12  1  0  0  0  0
 11  9  1  0  0  0  0
 13 11  2  0  0  0  0
 14 13  1  0  0  0  0
 15 13  1  0  0  0  0
 15  6  2  0  0  0  0
 16 15  1  0  0  0  0
 17 18  1  6  0  0  0
 17 31  1  0  0  0  0
 17 22  1  0  0  0  0
 17  4  1  0  0  0  0
 19 20  1  1  0  0  0
 21 19  1  0  0  0  0
 21 27  1  0  0  0  0
 22 21  2  0  0  0  0
 23 22  1  0  0  0  0
 23 24  1  0  0  0  0
 25 23  1  0  0  0  0
 26 23  1  0  0  0  0
 27 30  1  0  0  0  0
 27 29  1  0  0  0  0
 28 27  1  0  0  0  0
 31 32  1  6  0  0  0
 31 33  1  0  0  0  0
 33  5  1  1  0  0  0
 33 34  1  0  0  0  0
 33 19  1  0  0  0  0
 34 36  1  0  0  0  0
 34 35  1  0  0  0  0
 37 38  1  1  0  0  0
 37 34  1  0  0  0  0
 39 48  2  0  0  0  0
 39 40  1  0  0  0  0
 40 42  2  0  0  0  0
 41 40  1  0  0  0  0
 42 44  1  0  0  0  0
 42 43  1  0  0  0  0
 44 45  1  0  0  0  0
 46 47  1  0  0  0  0
 46 44  2  0  0  0  0
 48 46  1  0  0  0  0
 49 48  1  0  0  0  0
 50 51  1  0  0  0  0
 50  5  1  0  0  0  0
 51 52  1  0  0  0  0
 53 54  1  0  0  0  0
 53 51  2  0  0  0  0
 55 53  1  0  0  0  0
 56 55  1  0  0  0  0
 57 55  2  0  0  0  0
 57 59  1  0  0  0  0
 58 57  1  0  0  0  0
 59 50  2  0  0  0  0
 60 59  1  0  0  0  0
M  END
