1,2
q = 0.0, confidence = 0.972

 53 57  0  0  0  0  0  0  0  0999 V2000
   -1.6478    0.1560    0.2577 P   0  0  0  0  0  0  0  0  0  0  0  0
    1.6026    0.3036    0.1486 P   0  0  0  0  0  0  0  0  0  0  0  0
   -2.2063    1.2623    3.5362 O   0  0  0  0  0  0  0  0  0  0  0  0
    0.0546    1.2919    3.8559 O   0  0  0  0  0  0  0  0  0  0  0  0
    2.2999    1.2050    3.4739 O   0  0  0  0  0  0  0  0  0  0  0  0
   -0.6659    0.6125    1.7406 C   0  0  0  0  0  0  0  0  0  0  0  0
   -1.1053    1.0681    3.0938 C   0  0  0  0  0  0  0  0  0  0  0  0
    1.1786    1.0437    3.0669 C   0  0  0  0  0  0  0  0  0  0  0  0
    0.6927    0.5840    1.7229 C   0  0  0  0  0  0  0  0  0  0  0  0
   -3.1559   -0.6751    0.8927 C   0  0  0  0  0  0  0  0  0  0  0  0
   -3.2139   -2.0831    0.9021 C   0  0  0  0  0  0  0  0  0  0  0  0
   -4.3690   -2.7260    1.3716 C   0  0  0  0  0  0  0  0  0  0  0  0
   -5.4605   -1.9724    1.8297 C   0  0  0  0  0  0  0  0  0  0  0  0
   -5.3989   -0.5688    1.8239 C   0  0  0  0  0  0  0  0  0  0  0  0
   -4.2505    0.0838    1.3575 C   0  0  0  0  0  0  0  0  0  0  0  0
   -2.2486    1.7818   -0.3540 C   0  0  0  0  0  0  0  0  0  0  0  0
   -3.1047    1.7689   -1.4757 C   0  0  0  0  0  0  0  0  0  0  0  0
   -3.5291    2.9745   -2.0481 C   0  0  0  0  0  0  0  0  0  0  0  0
   -3.0977    4.2003   -1.5132 C   0  0  0  0  0  0  0  0  0  0  0  0
   -2.2419    4.2160   -0.4022 C   0  0  0  0  0  0  0  0  0  0  0  0
   -1.8170    3.0107    0.1791 C   0  0  0  0  0  0  0  0  0  0  0  0
    3.1922   -0.5110    0.5319 C   0  0  0  0  0  0  0  0  0  0  0  0
    3.4017   -1.2934    1.6826 C   0  0  0  0  0  0  0  0  0  0  0  0
    4.6288   -1.9485    1.8618 C   0  0  0  0  0  0  0  0  0  0  0  0
    5.6400   -1.8384    0.8953 C   0  0  0  0  0  0  0  0  0  0  0  0
    5.4266   -1.0676   -0.2590 C   0  0  0  0  0  0  0  0  0  0  0  0
    4.2060   -0.4049   -0.4435 C   0  0  0  0  0  0  0  0  0  0  0  0
    2.0836    2.0620   -0.1628 C   0  0  0  0  0  0  0  0  0  0  0  0
    3.1251    2.6534    0.5864 C   0  0  0  0  0  0  0  0  0  0  0  0
    3.4351    4.0069    0.3985 C   0  0  0  0  0  0  0  0  0  0  0  0
    2.7115    4.7771   -0.5283 C   0  0  0  0  0  0  0  0  0  0  0  0
    1.6735    4.1912   -1.2682 C   0  0  0  0  0  0  0  0  0  0  0  0
    1.3562    2.8360   -1.0872 C   0  0  0  0  0  0  0  0  0  0  0  0
   -2.3443   -2.6696    0.5676 H   0  0  0  0  0  0  0  0  0  0  0  0
   -4.4117   -3.8253    1.3777 H   0  0  0  0  0  0  0  0  0  0  0  0
   -6.3658   -2.4806    2.1953 H   0  0  0  0  0  0  0  0  0  0  0  0
   -6.2515    0.0243    2.1873 H   0  0  0  0  0  0  0  0  0  0  0  0
   -4.2025    1.1820    1.3573 H   0  0  0  0  0  0  0  0  0  0  0  0
   -3.4331    0.8098   -1.9061 H   0  0  0  0  0  0  0  0  0  0  0  0
   -4.1943    2.9562   -2.9241 H   0  0  0  0  0  0  0  0  0  0  0  0
   -3.4282    5.1462   -1.9681 H   0  0  0  0  0  0  0  0  0  0  0  0
   -1.8967    5.1719    0.0194 H   0  0  0  0  0  0  0  0  0  0  0  0
   -1.1353    3.0386    1.0412 H   0  0  0  0  0  0  0  0  0  0  0  0
    2.6084   -1.4016    2.4329 H   0  0  0  0  0  0  0  0  0  0  0  0
    4.7905   -2.5550    2.7653 H   0  0  0  0  0  0  0  0  0  0  0  0
    6.5988   -2.3586    1.0399 H   0  0  0  0  0  0  0  0  0  0  0  0
    6.2134   -0.9831   -1.0234 H   0  0  0  0  0  0  0  0  0  0  0  0
    4.0429    0.1998   -1.3494 H   0  0  0  0  0  0  0  0  0  0  0  0
    3.6809    2.0553    1.3234 H   0  0  0  0  0  0  0  0  0  0  0  0
    4.2470    4.4643    0.9839 H   0  0  0  0  0  0  0  0  0  0  0  0
    2.9600    5.8396   -0.6729 H   0  0  0  0  0  0  0  0  0  0  0  0
    1.1021    4.7867   -1.9960 H   0  0  0  0  0  0  0  0  0  0  0  0
    0.5436    2.3861   -1.6708 H   0  0  0  0  0  0  0  0  0  0  0  0
  1 10  1  0  0  0  0
  1  6  1  0  0  0  0
  2 22  1  0  0  0  0
  2  9  1  0  0  0  0
  6  7  1  0  0  0  0
  7  3  2  0  0  0  0
  7  4  1  0  0  0  0
  8  5  2  0  0  0  0
  8  4  1  0  0  0  0
  9  6  2  0  0  0  0
  9  8  1  0  0  0  0
 10 11  2  0  0  0  0
 10 15  1  0  0  0  0
 11 12  1  0  0  0  0
 12 35  1  0  0  0  0
 12 13  2  0  0  0  0
 13 36  1  0  0  0  0
 14 13  1  0  0  0  0
 14 37  1  0  0  0  0
 15 14  2  0  0  0  0
 16 21  1  0  0  0  0
 16  1  1  0  0  0  0
 17 16  2  0  0  0  0
 18 19  2  0  0  0  0
 18 17  1  0  0  0  0
 19 20  1  0  0  0  0
 20 42  1  0  0  0  0
 20 21  2  0  0  0  0
 21 43  1  0  0  0  0
 22 23  1  0  0  0  0
 23 24  2  0  0  0  0
 23 44  1  0  0  0  0
 24 45  1  0  0  0  0
 25 46  1  0  0  0  0
 25 24  1  0  0  0  0
 26 25  2  0  0  0  0
 27 26  1  0  0  0  0
 27 22  2  0  0  0  0
 28  2  1  0  0  0  0
 28 29  1  0  0  0  0
 29 49  1  0  0  0  0
 30 29  2  0  0  0  0
 30 50  1  0  0  0  0
 31 30  1  0  0  0  0
 32 33  1  0  0  0  0
 32 31  2  0  0  0  0
 33 28  2  0  0  0  0
 34 11  1  0  0  0  0
 38 15  1  0  0  0  0
 39 17  1  0  0  0  0
 40 18  1  0  0  0  0
 41 19  1  0  0  0  0
 47 26  1  0  0  0  0
 48 27  1  0  0  0  0
 51 31  1  0  0  0  0
 52 32  1  0  0  0  0
 53 33  1  0  0  0  0
M  END
