1,3
q = 0.0, confidence = 1.0

 74 82  0  0  0  0  0  0  0  0999 V2000
   -1.5162    0.0187   -0.3933 P   0  0  1  0  0  0  0  0  0  0  0  0
    0.0014    2.0982    1.2988 P   0  0  2  0  0  4  0  0  0  0  0  0
    1.5161    0.0167   -0.3938 P   0  0  1  0  0  0  0  0  0  0  0  0
   -0.0014   -2.4029    0.7222 P   0  0  1  0  0  4  0  0  0  0  0  0
    0.0022    2.8852    3.0796 S   0  0  0  0  0  1  0  0  0  0  0  0
   -0.0019   -3.6562    2.2113 S   0  0  0  0  0  1  0  0  0  0  0  0
   -1.4454    1.1429    0.9913 N   0  0  0  0  0  0  0  0  0  0  0  0
   -1.4386   -1.3883    0.6938 N   0  0  0  0  0  0  0  0  0  0  0  0
    1.4373   -1.3903    0.6931 N   0  0  0  0  0  0  0  0  0  0  0  0
    1.4468    1.1410    0.9909 N   0  0  0  0  0  0  0  0  0  0  0  0
   -3.2981    0.0700   -0.8095 C   0  0  0  0  0  0  0  0  0  0  0  0
   -4.2316   -0.9002   -0.3967 C   0  0  0  0  0  0  0  0  0  0  0  0
   -5.5697   -0.7992   -0.8068 C   0  0  0  0  0  0  0  0  0  0  0  0
   -5.9815    0.2645   -1.6250 C   0  0  0  0  0  0  0  0  0  0  0  0
   -5.0490    1.2267   -2.0475 C   0  0  0  0  0  0  0  0  0  0  0  0
   -3.7085    1.1245   -1.6517 C   0  0  0  0  0  0  0  0  0  0  0  0
    0.0019    3.3228   -0.0341 C   0  0  0  0  0  0  0  0  0  0  0  0
   -1.2197    3.8752   -0.4687 C   0  0  0  0  0  0  0  0  0  0  0  0
   -1.2136    4.9591   -1.3567 C   0  0  0  0  0  0  0  0  0  0  0  0
    0.0031    5.5002   -1.8030 C   0  0  0  0  0  0  0  0  0  0  0  0
    1.2192    4.9585   -1.3558 C   0  0  0  0  0  0  0  0  0  0  0  0
    1.2241    3.8747   -0.4679 C   0  0  0  0  0  0  0  0  0  0  0  0
    3.2979    0.0662   -0.8101 C   0  0  0  0  0  0  0  0  0  0  0  0
    3.7100    1.1218   -1.6503 C   0  0  0  0  0  0  0  0  0  0  0  0
    5.0506    1.2223   -2.0461 C   0  0  0  0  0  0  0  0  0  0  0  0
    5.9815    0.2576   -1.6257 C   0  0  0  0  0  0  0  0  0  0  0  0
    5.5680   -0.8069   -0.8095 C   0  0  0  0  0  0  0  0  0  0  0  0
    4.2298   -0.9064   -0.3994 C   0  0  0  0  0  0  0  0  0  0  0  0
   -0.0025   -3.1908   -0.9073 C   0  0  0  0  0  0  0  0  0  0  0  0
   -1.2248   -3.5911   -1.4840 C   0  0  0  0  0  0  0  0  0  0  0  0
   -1.2202   -4.3815   -2.6405 C   0  0  0  0  0  0  0  0  0  0  0  0
   -0.0044   -4.7808   -3.2185 C   0  0  0  0  0  0  0  0  0  0  0  0
    1.2124   -4.3837   -2.6410 C   0  0  0  0  0  0  0  0  0  0  0  0
    1.2189   -3.5933   -1.4845 C   0  0  0  0  0  0  0  0  0  0  0  0
   -2.0674    0.4453    2.0819 C   0  0  0  0  0  0  0  0  0  0  0  0
   -2.0448   -0.9640    1.9284 C   0  0  0  0  0  0  0  0  0  0  0  0
   -2.6643   -1.7938    2.8721 C   0  0  0  0  0  0  0  0  0  0  0  0
   -3.2847   -1.2013    3.9846 C   0  0  0  0  0  0  0  0  0  0  0  0
   -3.3150    0.1950    4.1320 C   0  0  0  0  0  0  0  0  0  0  0  0
   -2.7195    1.0316    3.1738 C   0  0  0  0  0  0  0  0  0  0  0  0
    2.0444   -0.9666    1.9275 C   0  0  0  0  0  0  0  0  0  0  0  0
    2.0684    0.4426    2.0812 C   0  0  0  0  0  0  0  0  0  0  0  0
    2.7213    1.0281    3.1730 C   0  0  0  0  0  0  0  0  0  0  0  0
    3.3165    0.1908    4.1308 C   0  0  0  0  0  0  0  0  0  0  0  0
    3.2849   -1.2055    3.9831 C   0  0  0  0  0  0  0  0  0  0  0  0
    2.6636   -1.7972    2.8708 C   0  0  0  0  0  0  0  0  0  0  0  0
   -3.9109   -1.7291    0.2498 H   0  0  0  0  0  0  0  0  0  0  0  0
   -6.2969   -1.5578   -0.4798 H   0  0  0  0  0  0  0  0  0  0  0  0
   -7.0325    0.3399   -1.9427 H   0  0  0  0  0  0  0  0  0  0  0  0
   -5.3650    2.0546   -2.7001 H   0  0  0  0  0  0  0  0  0  0  0  0
   -2.9688    1.8604   -2.0058 H   0  0  0  0  0  0  0  0  0  0  0  0
   -2.1665    3.4486   -0.1060 H   0  0  0  0  0  0  0  0  0  0  0  0
   -2.1671    5.3845   -1.7046 H   0  0  0  0  0  0  0  0  0  0  0  0
    0.0035    6.3482   -2.5042 H   0  0  0  0  0  0  0  0  0  0  0  0
    2.1731    5.3834   -1.7031 H   0  0  0  0  0  0  0  0  0  0  0  0
    2.1705    3.4476   -0.1045 H   0  0  0  0  0  0  0  0  0  0  0  0
    2.9716    1.8598   -2.0027 H   0  0  0  0  0  0  0  0  0  0  0  0
    5.3680    2.0510   -2.6970 H   0  0  0  0  0  0  0  0  0  0  0  0
    7.0326    0.3319   -1.9434 H   0  0  0  0  0  0  0  0  0  0  0  0
    6.2939   -1.5674   -0.4841 H   0  0  0  0  0  0  0  0  0  0  0  0
    3.9077   -1.7359    0.2456 H   0  0  0  0  0  0  0  0  0  0  0  0
   -2.1730   -3.2744   -1.0259 H   0  0  0  0  0  0  0  0  0  0  0  0
   -2.1745   -4.6835   -3.0975 H   0  0  0  0  0  0  0  0  0  0  0  0
   -0.0051   -5.3977   -4.1296 H   0  0  0  0  0  0  0  0  0  0  0  0
    2.1659   -4.6874   -3.0984 H   0  0  0  0  0  0  0  0  0  0  0  0
    2.1679   -3.2783   -1.0268 H   0  0  0  0  0  0  0  0  0  0  0  0
   -2.6515   -2.8818    2.7314 H   0  0  0  0  0  0  0  0  0  0  0  0
   -3.7695   -1.8434    4.7350 H   0  0  0  0  0  0  0  0  0  0  0  0
   -3.8242    0.6447    4.9974 H   0  0  0  0  0  0  0  0  0  0  0  0
   -2.7465    2.1242    3.2666 H   0  0  0  0  0  0  0  0  0  0  0  0
    2.7494    2.1207    3.2659 H   0  0  0  0  0  0  0  0  0  0  0  0
    3.8264    0.6399    4.9961 H   0  0  0  0  0  0  0  0  0  0  0  0
    3.7694   -1.8481    4.7332 H   0  0  0  0  0  0  0  0  0  0  0  0
    2.6498   -2.8851    2.7298 H   0  0  0  0  0  0  0  0  0  0  0  0
  1 11  1  1  0  0  0
  1  8  1  0  0  0  0
  1  7  1  0  0  0  0
  2  5  1  1  0  0  0
  3 23  1  1  0  0  0
  3  9  1  0  0  0  0
  3 10  1  0  0  0  0
  4  6  1  1  0  0  0
  7  2  1  0  0  0  0
  7 35  1  0  0  0  0
  8  4  1  0  0  0  0
  8 36  1  0  0  0  0
  9  4  1  0  0  0  0
  9 41  1  0  0  0  0
 10  2  1  0  0  0  0
 10 42  1  0  0  0  0
 11 12  1  0  0  0  0
 12 47  1  0  0  0  0
 13 48  1  0  0  0  0
 13 12  2  0  0  0  0
 14 13  1  0  0  0  0
 15 16  1  0  0  0  0
 15 14  2  0  0  0  0
 16 11  2  0  0  0  0
 17  2  1  0  0  0  0
 18 52  1  0  0  0  0
 18 17  2  0  0  0  0
 19 18  1  0  0  0  0
 20 19  2  0  0  0  0
 20 21  1  0  0  0  0
 21 22  2  0  0  0  0
 22 56  1  0  0  0  0
 22 17  1  0  0  0  0
 23 28  1  0  0  0  0
 24 23  2  0  0  0  0
 25 24  1  0  0  0  0
 25 26  2  0  0  0  0
 26 27  1  0  0  0  0
 27 60  1  0  0  0  0
 27 28  2  0  0  0  0
 28 61  1  0  0  0  0
 29  4  1  0  0  0  0
 30 62  1  0  0  0  0
 30 29  1  0  0  0  0
 31 30  2  0  0  0  0
 32 33  2  0  0  0  0
 32 31  1  0  0  0  0
 33 34  1  0  0  0  0
 34 66  1  0  0  0  0
 34 29  2  0  0  0  0
 35 40  1  0  0  0  0
 36 35  2  0  0  0  0
 36 37  1  0  0  0  0
 37 38  2  0  0  0  0
 38 39  1  0  0  0  0
 38 68  1  0  0  0  0
 39 69  1  0  0  0  0
 40 70  1  0  0  0  0
 40 39  2  0  0  0  0
 41 42  2  0  0  0  0
 41 46  1  0  0  0  0
 42 43  1  0  0  0  0
 43 71  1  0  0  0  0
 43 44  2  0  0  0  0
 44 72  1  0  0  0  0
 45 44  1  0  0  0  0
 45 73  1  0  0  0  0
 46 45  2  0  0  0  0
 49 14  1  0  0  0  0
 50 15  1  0  0  0  0
 51 16  1  0  0  0  0
 53 19  1  0  0  0  0
 54 20  1  0  0  0  0
 55 21  1  0  0  0  0
 57 24  1  0  0  0  0
 58 25  1  0  0  0  0
 59 26  1  0  0  0  0
 63 31  1  0  0  0  0
 64 32  1  0  0  0  0
 65 33  1  0  0  0  0
 67 37  1  0  0  0  0
 74 46  1  0  0  0  0
M  END
