3,4
q = 0.0, confidence = 0.996

 69 72  0  0  0  0  0  0  0  0999 V2000
    0.8810   -1.9860   -2.6530 S   0  0  0  0  0  0  0  0  0  0  0  0
   -0.7485   -3.1760    0.7245 S   0  0  0  0  0  0  0  0  0  0  0  0
    2.2822    0.2092   -0.3203 P   0  0  0  0  0  0  0  0  0  0  0  0
   -2.2877   -0.0776    0.2399 P   0  0  0  0  0  0  0  0  0  0  0  0
    3.2326   -0.9125   -1.4473 C   0  0  0  0  0  0  0  0  0  0  0  0
    2.5348   -1.2073   -2.7774 C   0  0  0  0  0  0  0  0  0  0  0  0
    1.3181   -3.5063   -1.7191 C   0  0  0  0  0  0  0  0  0  0  0  0
    0.1174   -4.4464   -1.5986 C   0  0  0  0  0  0  0  0  0  0  0  0
   -1.1231   -3.8284   -0.9517 C   0  0  0  0  0  0  0  0  0  0  0  0
   -2.4355   -2.7121    1.2696 C   0  0  0  0  0  0  0  0  0  0  0  0
   -3.1773   -1.6996    0.3934 C   0  0  0  0  0  0  0  0  0  0  0  0
    2.5653    1.9202   -0.9000 C   0  0  0  0  0  0  0  0  0  0  0  0
    1.6834    2.9188   -0.4301 C   0  0  0  0  0  0  0  0  0  0  0  0
    1.8678    4.2556   -0.8064 C   0  0  0  0  0  0  0  0  0  0  0  0
    2.9219    4.6059   -1.6669 C   0  0  0  0  0  0  0  0  0  0  0  0
    3.7951    3.6168   -2.1444 C   0  0  0  0  0  0  0  0  0  0  0  0
    3.6232    2.2773   -1.7605 C   0  0  0  0  0  0  0  0  0  0  0  0
    3.1345    0.0438    1.2890 C   0  0  0  0  0  0  0  0  0  0  0  0
    4.1815    0.9074    1.6669 C   0  0  0  0  0  0  0  0  0  0  0  0
    4.8255    0.7204    2.8995 C   0  0  0  0  0  0  0  0  0  0  0  0
    4.4324   -0.3237    3.7519 C   0  0  0  0  0  0  0  0  0  0  0  0
    3.3860   -1.1830    3.3772 C   0  0  0  0  0  0  0  0  0  0  0  0
    2.7301   -0.9977    2.1520 C   0  0  0  0  0  0  0  0  0  0  0  0
   -2.5452    0.7017    1.8801 C   0  0  0  0  0  0  0  0  0  0  0  0
   -3.7612    1.3395    2.2009 C   0  0  0  0  0  0  0  0  0  0  0  0
   -3.9498    1.8777    3.4820 C   0  0  0  0  0  0  0  0  0  0  0  0
   -2.9333    1.7794    4.4469 C   0  0  0  0  0  0  0  0  0  0  0  0
   -1.7204    1.1485    4.1289 C   0  0  0  0  0  0  0  0  0  0  0  0
   -1.5210    0.6155    2.8465 C   0  0  0  0  0  0  0  0  0  0  0  0
   -3.2351    0.9012   -0.9738 C   0  0  0  0  0  0  0  0  0  0  0  0
   -2.5664    1.9571   -1.6306 C   0  0  0  0  0  0  0  0  0  0  0  0
   -3.2548    2.7635   -2.5467 C   0  0  0  0  0  0  0  0  0  0  0  0
   -4.6097    2.5171   -2.8226 C   0  0  0  0  0  0  0  0  0  0  0  0
   -5.2768    1.4629   -2.1797 C   0  0  0  0  0  0  0  0  0  0  0  0
   -4.5960    0.6559   -1.2552 C   0  0  0  0  0  0  0  0  0  0  0  0
    0.8495    2.6371    0.2333 H   0  0  0  0  0  0  0  0  0  0  0  0
    1.1808    5.0285   -0.4306 H   0  0  0  0  0  0  0  0  0  0  0  0
    3.0614    5.6546   -1.9689 H   0  0  0  0  0  0  0  0  0  0  0  0
    4.6201    3.8876   -2.8201 H   0  0  0  0  0  0  0  0  0  0  0  0
    4.3240    1.5189   -2.1393 H   0  0  0  0  0  0  0  0  0  0  0  0
    4.4876    1.7301    1.0029 H   0  0  0  0  0  0  0  0  0  0  0  0
    5.6406    1.3974    3.1960 H   0  0  0  0  0  0  0  0  0  0  0  0
    4.9404   -0.4652    4.7175 H   0  0  0  0  0  0  0  0  0  0  0  0
    3.0722   -1.9971    4.0476 H   0  0  0  0  0  0  0  0  0  0  0  0
    1.8940   -1.6569    1.8640 H   0  0  0  0  0  0  0  0  0  0  0  0
   -4.5567    1.4309    1.4452 H   0  0  0  0  0  0  0  0  0  0  0  0
   -4.8964    2.3820    3.7273 H   0  0  0  0  0  0  0  0  0  0  0  0
   -3.0856    2.2051    5.4500 H   0  0  0  0  0  0  0  0  0  0  0  0
   -0.9189    1.0790    4.8794 H   0  0  0  0  0  0  0  0  0  0  0  0
   -0.5607    0.1419    2.5832 H   0  0  0  0  0  0  0  0  0  0  0  0
   -1.4988    2.1366   -1.4248 H   0  0  0  0  0  0  0  0  0  0  0  0
   -2.7276    3.5842   -3.0554 H   0  0  0  0  0  0  0  0  0  0  0  0
   -5.1474    3.1467   -3.5471 H   0  0  0  0  0  0  0  0  0  0  0  0
   -6.3367    1.2649   -2.3983 H   0  0  0  0  0  0  0  0  0  0  0  0
   -5.1356   -0.1649   -0.7604 H   0  0  0  0  0  0  0  0  0  0  0  0
    4.2432   -0.4874   -1.6214 H   0  0  0  0  0  0  0  0  0  0  0  0
    3.3952   -1.8406   -0.8626 H   0  0  0  0  0  0  0  0  0  0  0  0
    3.1775   -1.8639   -3.4002 H   0  0  0  0  0  0  0  0  0  0  0  0
    2.3599   -0.2773   -3.3563 H   0  0  0  0  0  0  0  0  0  0  0  0
    2.1479   -4.0141   -2.2524 H   0  0  0  0  0  0  0  0  0  0  0  0
    1.6791   -3.2205   -0.7083 H   0  0  0  0  0  0  0  0  0  0  0  0
   -0.1737   -4.8125   -2.6058 H   0  0  0  0  0  0  0  0  0  0  0  0
    0.4399   -5.3357   -1.0169 H   0  0  0  0  0  0  0  0  0  0  0  0
   -1.9216   -4.5921   -0.8525 H   0  0  0  0  0  0  0  0  0  0  0  0
   -1.5091   -3.0003   -1.5830 H   0  0  0  0  0  0  0  0  0  0  0  0
   -3.0353   -3.6417    1.3568 H   0  0  0  0  0  0  0  0  0  0  0  0
   -2.2948   -2.3180    2.2974 H   0  0  0  0  0  0  0  0  0  0  0  0
   -4.1787   -1.5082    0.8332 H   0  0  0  0  0  0  0  0  0  0  0  0
   -3.3360   -2.0868   -0.6341 H   0  0  0  0  0  0  0  0  0  0  0  0
  1  7  1  0  0  0  0
  2 10  1  0  0  0  0
  3 18  1  0  0  0  0
  4 11  1  0  0  0  0
  4 24  1  0  0  0  0
  5 57  1  0  0  0  0
  5  3  1  0  0  0  0
  6  1  1  0  0  0  0
  6  5  1  0  0  0  0
  7  8  1  0  0  0  0
  7 61  1  0  0  0  0
  8 63  1  0  0  0  0
  8  9  1  0  0  0  0
  9 64  1  0  0  0  0
  9  2  1  0  0  0  0
 10 66  1  0  0  0  0
 10 67  1  0  0  0  0
 11 68  1  0  0  0  0
 11 10  1  0  0  0  0
 12 13  1  0  0  0  0
 12  3  1  0  0  0  0
 13 36  1  0  0  0  0
 14 37  1  0  0  0  0
 14 13  2  0  0  0  0
 15 14  1  0  0  0  0
 16 17  1  0  0  0  0
 16 15  2  0  0  0  0
 17 12  2  0  0  0  0
 18 19  2  0  0  0  0
 18 23  1  0  0  0  0
 19 20  1  0  0  0  0
 20 42  1  0  0  0  0
 20 21  2  0  0  0  0
 21 43  1  0  0  0  0
 22 21  1  0  0  0  0
 22 44  1  0  0  0  0
 23 22  2  0  0  0  0
 24 25  2  0  0  0  0
 24 29  1  0  0  0  0
 25 26  1  0  0  0  0
 26 47  1  0  0  0  0
 26 27  2  0  0  0  0
 27 48  1  0  0  0  0
 28 27  1  0  0  0  0
 28 49  1  0  0  0  0
 29 28  2  0  0  0  0
 30  4  1  0  0  0  0
 31 51  1  0  0  0  0
 31 30  2  0  0  0  0
 32 31  1  0  0  0  0
 33 32  2  0  0  0  0
 33 34  1  0  0  0  0
 34 35  2  0  0  0  0
 35 30  1  0  0  0  0
 35 55  1  0  0  0  0
 38 15  1  0  0  0  0
 39 16  1  0  0  0  0
 40 17  1  0  0  0  0
 41 19  1  0  0  0  0
 45 23  1  0  0  0  0
 46 25  1  0  0  0  0
 50 29  1  0  0  0  0
 52 32  1  0  0  0  0
 53 33  1  0  0  0  0
 54 34  1  0  0  0  0
 56  5  1  0  0  0  0
 58  6  1  0  0  0  0
 59  6  1  0  0  0  0
 60  7  1  0  0  0  0
 62  8  1  0  0  0  0
 65  9  1  0  0  0  0
 69 11  1  0  0  0  0
M  END
