3,4
q = 0.0, confidence = 0.996

 66 69  0  0  0  0  0  0  0  0999 V2000
    0.6018   -1.6829    2.6749 S   0  0  0  0  0  0  0  0  0  0  0  0
   -0.6022    1.6847    2.6735 S   0  0  0  0  0  0  0  0  0  0  0  0
    2.3304   -0.1497   -0.0026 P   0  0  0  0  0  0  0  0  0  0  0  0
   -2.3303    0.1493   -0.0029 P   0  0  0  0  0  0  0  0  0  0  0  0
    3.0391   -0.5980    1.6554 C   0  0  0  0  0  0  0  0  0  0  0  0
    2.3896   -1.8264    2.2956 C   0  0  0  0  0  0  0  0  0  0  0  0
    0.6240   -0.4375    4.0268 C   0  0  0  0  0  0  0  0  0  0  0  0
   -0.6241    0.4405    4.0265 C   0  0  0  0  0  0  0  0  0  0  0  0
   -2.3901    1.8275    2.2942 C   0  0  0  0  0  0  0  0  0  0  0  0
   -3.0391    0.5985    1.6549 C   0  0  0  0  0  0  0  0  0  0  0  0
    3.1528    1.4307   -0.4149 C   0  0  0  0  0  0  0  0  0  0  0  0
    2.7705    2.5758    0.3191 C   0  0  0  0  0  0  0  0  0  0  0  0
    3.3723    3.8117    0.0489 C   0  0  0  0  0  0  0  0  0  0  0  0
    4.3412    3.9178   -0.9634 C   0  0  0  0  0  0  0  0  0  0  0  0
    4.7059    2.7849   -1.7064 C   0  0  0  0  0  0  0  0  0  0  0  0
    4.1160    1.5399   -1.4364 C   0  0  0  0  0  0  0  0  0  0  0  0
    2.9360   -1.4332   -1.1501 C   0  0  0  0  0  0  0  0  0  0  0  0
    4.2757   -1.8803   -1.1153 C   0  0  0  0  0  0  0  0  0  0  0  0
    4.7088   -2.8655   -2.0136 C   0  0  0  0  0  0  0  0  0  0  0  0
    3.8126   -3.4097   -2.9491 C   0  0  0  0  0  0  0  0  0  0  0  0
    2.4806   -2.9693   -2.9867 C   0  0  0  0  0  0  0  0  0  0  0  0
    2.0404   -1.9850   -2.0895 C   0  0  0  0  0  0  0  0  0  0  0  0
   -3.1529   -1.4311   -0.4146 C   0  0  0  0  0  0  0  0  0  0  0  0
   -2.7706   -2.5759    0.3197 C   0  0  0  0  0  0  0  0  0  0  0  0
   -3.3725   -3.8119    0.0502 C   0  0  0  0  0  0  0  0  0  0  0  0
   -4.3416   -3.9183   -0.9619 C   0  0  0  0  0  0  0  0  0  0  0  0
   -4.7064   -2.7857   -1.7053 C   0  0  0  0  0  0  0  0  0  0  0  0
   -4.1164   -1.5405   -1.4359 C   0  0  0  0  0  0  0  0  0  0  0  0
   -2.9357    1.4326   -1.1508 C   0  0  0  0  0  0  0  0  0  0  0  0
   -2.0399    1.9841   -2.0902 C   0  0  0  0  0  0  0  0  0  0  0  0
   -2.4798    2.9683   -2.9876 C   0  0  0  0  0  0  0  0  0  0  0  0
   -3.8118    3.4089   -2.9503 C   0  0  0  0  0  0  0  0  0  0  0  0
   -4.7082    2.8649   -2.0150 C   0  0  0  0  0  0  0  0  0  0  0  0
   -4.2753    1.8798   -1.1164 C   0  0  0  0  0  0  0  0  0  0  0  0
    4.1320   -0.7585    1.5440 H   0  0  0  0  0  0  0  0  0  0  0  0
    2.9234    0.3054    2.2900 H   0  0  0  0  0  0  0  0  0  0  0  0
    2.9203   -2.0972    3.2314 H   0  0  0  0  0  0  0  0  0  0  0  0
    2.4564   -2.7075    1.6245 H   0  0  0  0  0  0  0  0  0  0  0  0
    0.6897   -0.9763    4.9946 H   0  0  0  0  0  0  0  0  0  0  0  0
    1.5372    0.1852    3.9311 H   0  0  0  0  0  0  0  0  0  0  0  0
   -0.6897    0.9802    4.9938 H   0  0  0  0  0  0  0  0  0  0  0  0
   -1.5374   -0.1823    3.9316 H   0  0  0  0  0  0  0  0  0  0  0  0
   -2.9208    2.0989    3.2298 H   0  0  0  0  0  0  0  0  0  0  0  0
   -2.4571    2.7082    1.6225 H   0  0  0  0  0  0  0  0  0  0  0  0
   -4.1321    0.7584    1.5434 H   0  0  0  0  0  0  0  0  0  0  0  0
   -2.9230   -0.3045    2.2900 H   0  0  0  0  0  0  0  0  0  0  0  0
    1.9897    2.5028    1.0943 H   0  0  0  0  0  0  0  0  0  0  0  0
    3.0757    4.7004    0.6258 H   0  0  0  0  0  0  0  0  0  0  0  0
    4.8078    4.8906   -1.1782 H   0  0  0  0  0  0  0  0  0  0  0  0
    5.4570    2.8674   -2.5062 H   0  0  0  0  0  0  0  0  0  0  0  0
    4.4028    0.6569   -2.0261 H   0  0  0  0  0  0  0  0  0  0  0  0
    4.9909   -1.4568   -0.3934 H   0  0  0  0  0  0  0  0  0  0  0  0
    5.7530   -3.2104   -1.9837 H   0  0  0  0  0  0  0  0  0  0  0  0
    4.1564   -4.1841   -3.6511 H   0  0  0  0  0  0  0  0  0  0  0  0
    1.7772   -3.3968   -3.7164 H   0  0  0  0  0  0  0  0  0  0  0  0
    0.9944   -1.6384   -2.1054 H   0  0  0  0  0  0  0  0  0  0  0  0
   -1.9897   -2.5027    1.0948 H   0  0  0  0  0  0  0  0  0  0  0  0
   -3.0759   -4.7004    0.6273 H   0  0  0  0  0  0  0  0  0  0  0  0
   -4.8084   -4.8912   -1.1763 H   0  0  0  0  0  0  0  0  0  0  0  0
   -5.4577   -2.8684   -2.5049 H   0  0  0  0  0  0  0  0  0  0  0  0
   -4.4032   -0.6578   -2.0259 H   0  0  0  0  0  0  0  0  0  0  0  0
   -0.9939    1.6374   -2.1059 H   0  0  0  0  0  0  0  0  0  0  0  0
   -1.7762    3.3956   -3.7173 H   0  0  0  0  0  0  0  0  0  0  0  0
   -4.1553    4.1831   -3.6526 H   0  0  0  0  0  0  0  0  0  0  0  0
   -5.7524    3.2099   -1.9853 H   0  0  0  0  0  0  0  0  0  0  0  0
   -4.9908    1.4566   -0.3945 H   0  0  0  0  0  0  0  0  0  0  0  0
  1  7  1  0  0  0  0
  2  8  1  0  0  0  0
  3  5  1  0  0  0  0
  4 10  1  0  0  0  0
  5 36  1  0  0  0  0
  5  6  1  0  0  0  0
  6  1  1  0  0  0  0
  6 37  1  0  0  0  0
  7 39  1  0  0  0  0
  8  7  1  0  0  0  0
  8 41  1  0  0  0  0
  9  2  1  0  0  0  0
  9 43  1  0  0  0  0
 10 46  1  0  0  0  0
 10  9  1  0  0  0  0
 11  3  1  0  0  0  0
 11 12  1  0  0  0  0
 12 47  1  0  0  0  0
 13 12  2  0  0  0  0
 13 48  1  0  0  0  0
 14 13  1  0  0  0  0
 15 16  1  0  0  0  0
 15 14  2  0  0  0  0
 16 11  2  0  0  0  0
 17 18  1  0  0  0  0
 17  3  1  0  0  0  0
 18 52  1  0  0  0  0
 19 53  1  0  0  0  0
 19 18  2  0  0  0  0
 20 19  1  0  0  0  0
 21 20  2  0  0  0  0
 21 22  1  0  0  0  0
 22 17  2  0  0  0  0
 23  4  1  0  0  0  0
 23 24  1  0  0  0  0
 24 57  1  0  0  0  0
 25 24  2  0  0  0  0
 25 58  1  0  0  0  0
 26 25  1  0  0  0  0
 27 28  1  0  0  0  0
 27 26  2  0  0  0  0
 28 23  2  0  0  0  0
 29 34  1  0  0  0  0
 29  4  1  0  0  0  0
 30 29  2  0  0  0  0
 31 32  2  0  0  0  0
 31 30  1  0  0  0  0
 32 33  1  0  0  0  0
 33 65  1  0  0  0  0
 33 34  2  0  0  0  0
 34 66  1  0  0  0  0
 35  5  1  0  0  0  0
 38  6  1  0  0  0  0
 40  7  1  0  0  0  0
 42  8  1  0  0  0  0
 44  9  1  0  0  0  0
 45 10  1  0  0  0  0
 49 14  1  0  0  0  0
 50 15  1  0  0  0  0
 51 16  1  0  0  0  0
 54 20  1  0  0  0  0
 55 21  1  0  0  0  0
 56 22  1  0  0  0  0
 59 26  1  0  0  0  0
 60 27  1  0  0  0  0
 61 28  1  0  0  0  0
 62 30  1  0  0  0  0
 63 31  1  0  0  0  0
 64 32  1  0  0  0  0
M  END
