1,2,3
q = -2.0, confidence = 0.81

 19 18  0  0  0  0  0  0  0  0999 V2000
   -0.3228   -2.0132   -0.8958 S   0  0  0  0  0  1  0  0  0  0  0  0
    0.5549    1.8587   -0.7869 S   0  0  0  0  0  1  0  0  0  0  0  0
   -1.9212    0.3565    0.2233 N   0  0  0  0  0  0  0  0  0  0  0  0
   -2.1589   -1.7838   -1.0219 C   0  0  0  0  0  0  0  0  0  0  0  0
   -2.4678   -2.2126   -1.9961 H   0  0  0  0  0  0  0  0  0  0  0  0
   -2.6778   -2.3631   -0.2312 H   0  0  0  0  0  0  0  0  0  0  0  0
   -2.5077   -0.3046   -0.9774 C   0  0  0  0  0  0  0  0  0  0  0  0
   -2.0869    0.1932   -1.8732 H   0  0  0  0  0  0  0  0  0  0  0  0
   -3.6124   -0.1473   -0.9758 H   0  0  0  0  0  0  0  0  0  0  0  0
   -2.0698    1.8401    0.1743 C   0  0  0  0  0  0  0  0  0  0  0  0
   -3.1431    2.0978    0.0105 H   0  0  0  0  0  0  0  0  0  0  0  0
   -1.7817    2.2100    1.1779 H   0  0  0  0  0  0  0  0  0  0  0  0
   -1.1891    2.4962   -0.8701 C   0  0  0  0  0  0  0  0  0  0  0  0
   -1.1653    3.5904   -0.6972 H   0  0  0  0  0  0  0  0  0  0  0  0
   -1.5610    2.3354   -1.9032 H   0  0  0  0  0  0  0  0  0  0  0  0
   -2.5856   -0.1478    1.4512 C   0  0  0  0  0  0  0  0  0  0  0  0
   -2.1322    0.3357    2.3335 H   0  0  0  0  0  0  0  0  0  0  0  0
   -2.4282   -1.2359    1.5473 H   0  0  0  0  0  0  0  0  0  0  0  0
   -3.6765    0.0687    1.4130 H   0  0  0  0  0  0  0  0  0  0  0  0
  3 16  1  0  0  0  0
  4  7  1  0  0  0  0
  4  1  1  0  0  0  0
  4  6  1  0  0  0  0
  5  4  1  0  0  0  0
  7  9  1  0  0  0  0
  7  3  1  0  0  0  0
  8  7  1  0  0  0  0
 10  3  1  0  0  0  0
 10 12  1  0  0  0  0
 11 10  1  0  0  0  0
 13  2  1  0  0  0  0
 13 14  1  0  0  0  0
 13 10  1  0  0  0  0
 15 13  1  0  0  0  0
 16 18  1  0  0  0  0
 16 17  1  0  0  0  0
 19 16  1  0  0  0  0
M  END
