1,2,5
q = -1.0

 53 52  0  0  0  0  0  0  0  0999 V2000
    1.8881   -0.6027   -1.0350 S   0  0  0  0  0  0  0  0  0  0  0  0
   -1.8872   -0.6042   -1.0354 S   0  0  0  0  0  0  0  0  0  0  0  0
    1.5530    2.3432   -0.5412 Si  0  0  0  0  0  0  0  0  0  0  0  0
   -1.5556    2.3419   -0.5400 Si  0  0  0  0  0  0  0  0  0  0  0  0
   -0.0009    1.5793   -0.1445 N   0  0  0  0  0  2  0  0  0  0  0  0
    2.8262    0.9037   -0.6455 C   0  0  0  0  0  0  0  0  0  0  0  0
   -2.8272    0.9010   -0.6457 C   0  0  0  0  0  0  0  0  0  0  0  0
    2.0833    3.5727    0.7837 C   0  0  0  0  0  0  0  0  0  0  0  0
    1.6326    3.1848   -2.2335 C   0  0  0  0  0  0  0  0  0  0  0  0
   -2.0872    3.5696    0.7862 C   0  0  0  0  0  0  0  0  0  0  0  0
   -1.6365    3.1858   -2.2311 C   0  0  0  0  0  0  0  0  0  0  0  0
    3.1437   -2.0104   -0.9124 C   0  0  0  0  0  0  0  0  0  0  0  0
    2.3838   -3.2348   -1.4384 C   0  0  0  0  0  0  0  0  0  0  0  0
    3.6082   -2.2095    0.5299 C   0  0  0  0  0  0  0  0  0  0  0  0
    4.3153   -1.6633   -1.8369 C   0  0  0  0  0  0  0  0  0  0  0  0
   -3.1413   -2.0133   -0.9133 C   0  0  0  0  0  0  0  0  0  0  0  0
   -4.3130   -1.6674   -1.8380 C   0  0  0  0  0  0  0  0  0  0  0  0
   -3.6059   -2.2132    0.5289 C   0  0  0  0  0  0  0  0  0  0  0  0
   -2.3799   -3.2368   -1.4392 C   0  0  0  0  0  0  0  0  0  0  0  0
    3.3483    0.7785    0.3247 H   0  0  0  0  0  0  0  0  0  0  0  0
    3.5628    1.1069   -1.4483 H   0  0  0  0  0  0  0  0  0  0  0  0
   -3.5635    1.1037   -1.4488 H   0  0  0  0  0  0  0  0  0  0  0  0
   -3.3496    0.7748    0.3242 H   0  0  0  0  0  0  0  0  0  0  0  0
    2.0939    3.0839    1.7778 H   0  0  0  0  0  0  0  0  0  0  0  0
    3.0950    3.9784    0.5758 H   0  0  0  0  0  0  0  0  0  0  0  0
    1.3754    4.4262    0.8227 H   0  0  0  0  0  0  0  0  0  0  0  0
    1.0666    4.1346   -2.2761 H   0  0  0  0  0  0  0  0  0  0  0  0
    2.6966    3.4248   -2.4416 H   0  0  0  0  0  0  0  0  0  0  0  0
    1.2669    2.5212   -3.0417 H   0  0  0  0  0  0  0  0  0  0  0  0
   -2.0970    3.0800    1.7798 H   0  0  0  0  0  0  0  0  0  0  0  0
   -1.3804    4.4239    0.8257 H   0  0  0  0  0  0  0  0  0  0  0  0
   -3.0995    3.9740    0.5788 H   0  0  0  0  0  0  0  0  0  0  0  0
   -2.7008    3.4252   -2.4385 H   0  0  0  0  0  0  0  0  0  0  0  0
   -1.0713    4.1362   -2.2725 H   0  0  0  0  0  0  0  0  0  0  0  0
   -1.2705    2.5237   -3.0406 H   0  0  0  0  0  0  0  0  0  0  0  0
    1.5039   -3.4609   -0.8059 H   0  0  0  0  0  0  0  0  0  0  0  0
    2.0471   -3.0824   -2.4835 H   0  0  0  0  0  0  0  0  0  0  0  0
    3.0587   -4.1157   -1.4177 H   0  0  0  0  0  0  0  0  0  0  0  0
    4.3676   -3.0195    0.5578 H   0  0  0  0  0  0  0  0  0  0  0  0
    4.0791   -1.2955    0.9423 H   0  0  0  0  0  0  0  0  0  0  0  0
    2.7666   -2.4955    1.1881 H   0  0  0  0  0  0  0  0  0  0  0  0
    3.9707   -1.4465   -2.8679 H   0  0  0  0  0  0  0  0  0  0  0  0
    4.8938   -0.7949   -1.4651 H   0  0  0  0  0  0  0  0  0  0  0  0
    5.0089   -2.5290   -1.8803 H   0  0  0  0  0  0  0  0  0  0  0  0
   -4.8927   -0.7997   -1.4663 H   0  0  0  0  0  0  0  0  0  0  0  0
   -3.9684   -1.4500   -2.8689 H   0  0  0  0  0  0  0  0  0  0  0  0
   -5.0056   -2.5339   -1.8818 H   0  0  0  0  0  0  0  0  0  0  0  0
   -2.7642   -2.4984    1.1872 H   0  0  0  0  0  0  0  0  0  0  0  0
   -4.0779   -1.2998    0.9414 H   0  0  0  0  0  0  0  0  0  0  0  0
   -4.3645   -3.0240    0.5565 H   0  0  0  0  0  0  0  0  0  0  0  0
   -3.0537   -4.1184   -1.4187 H   0  0  0  0  0  0  0  0  0  0  0  0
   -2.0432   -3.0839   -2.4843 H   0  0  0  0  0  0  0  0  0  0  0  0
   -1.4998   -3.4620   -0.8066 H   0  0  0  0  0  0  0  0  0  0  0  0
  1 12  1  0  0  0  0
  1  6  1  0  0  0  0
  2 16  1  0  0  0  0
  2  7  1  0  0  0  0
  3  5  1  0  0  0  0
  3  8  1  0  0  0  0
  4  5  1  0  0  0  0
  4 10  1  0  0  0  0
  6  3  1  0  0  0  0
  6 20  1  0  0  0  0
  7  4  1  0  0  0  0
  7 23  1  0  0  0  0
  8 26  1  0  0  0  0
  8 24  1  0  0  0  0
  9  3  1  0  0  0  0
 10 31  1  0  0  0  0
 10 30  1  0  0  0  0
 11  4  1  0  0  0  0
 12 14  1  0  0  0  0
 13 38  1  0  0  0  0
 13 12  1  0  0  0  0
 13 36  1  0  0  0  0
 14 39  1  0  0  0  0
 14 40  1  0  0  0  0
 14 41  1  0  0  0  0
 15 43  1  0  0  0  0
 15 12  1  0  0  0  0
 16 18  1  0  0  0  0
 17 45  1  0  0  0  0
 17 16  1  0  0  0  0
 18 50  1  0  0  0  0
 18 49  1  0  0  0  0
 18 48  1  0  0  0  0
 19 51  1  0  0  0  0
 19 16  1  0  0  0  0
 19 53  1  0  0  0  0
 21  6  1  0  0  0  0
 22  7  1  0  0  0  0
 25  8  1  0  0  0  0
 27  9  1  0  0  0  0
 28  9  1  0  0  0  0
 29  9  1  0  0  0  0
 32 10  1  0  0  0  0
 33 11  1  0  0  0  0
 34 11  1  0  0  0  0
 35 11  1  0  0  0  0
 37 13  1  0  0  0  0
 42 15  1  0  0  0  0
 44 15  1  0  0  0  0
 46 17  1  0  0  0  0
 47 17  1  0  0  0  0
 52 19  1  0  0  0  0
M  END
