1,2,3
q = 0.0, confidence = 1.0

 30 29  0  0  0  0  0  0  0  0999 V2000
   -2.3239   -0.1104   -0.4975 S   0  0  0  0  0  0  0  0  0  0  0  0
    2.3240   -0.1104   -0.4975 S   0  0  0  0  0  0  0  0  0  0  0  0
    0.0001    1.8949   -0.2254 N   0  0  0  0  0  0  0  0  0  0  0  0
   -1.2537    2.3021    0.4707 C   0  0  0  0  0  0  0  0  0  0  0  0
   -1.3302    3.4119    0.5191 H   0  0  0  0  0  0  0  0  0  0  0  0
   -1.1876    1.9300    1.5129 H   0  0  0  0  0  0  0  0  0  0  0  0
   -2.4688    1.7182   -0.2344 C   0  0  0  0  0  0  0  0  0  0  0  0
   -2.5971    2.1375   -1.2538 H   0  0  0  0  0  0  0  0  0  0  0  0
   -3.4037    1.9257    0.3230 H   0  0  0  0  0  0  0  0  0  0  0  0
   -2.7954   -0.8116    1.1440 C   0  0  0  0  0  0  0  0  0  0  0  0
   -2.3755   -1.8367    1.0759 H   0  0  0  0  0  0  0  0  0  0  0  0
   -2.2295   -0.2728    1.9309 H   0  0  0  0  0  0  0  0  0  0  0  0
   -4.2996   -0.8003    1.3671 C   0  0  0  0  0  0  0  0  0  0  0  0
   -4.7148    0.2262    1.4239 H   0  0  0  0  0  0  0  0  0  0  0  0
   -4.5243   -1.2977    2.3322 H   0  0  0  0  0  0  0  0  0  0  0  0
   -4.8333   -1.3513    0.5687 H   0  0  0  0  0  0  0  0  0  0  0  0
    1.2538    2.3021    0.4708 C   0  0  0  0  0  0  0  0  0  0  0  0
    1.1876    1.9299    1.5130 H   0  0  0  0  0  0  0  0  0  0  0  0
    1.3302    3.4119    0.5193 H   0  0  0  0  0  0  0  0  0  0  0  0
    2.4689    1.7182   -0.2343 C   0  0  0  0  0  0  0  0  0  0  0  0
    3.4037    1.9256    0.3231 H   0  0  0  0  0  0  0  0  0  0  0  0
    2.5972    2.1376   -1.2537 H   0  0  0  0  0  0  0  0  0  0  0  0
    2.7954   -0.8118    1.1440 C   0  0  0  0  0  0  0  0  0  0  0  0
    2.2295   -0.2731    1.9309 H   0  0  0  0  0  0  0  0  0  0  0  0
    2.3756   -1.8368    1.0758 H   0  0  0  0  0  0  0  0  0  0  0  0
    4.2996   -0.8004    1.3670 C   0  0  0  0  0  0  0  0  0  0  0  0
    4.8334   -1.3514    0.5686 H   0  0  0  0  0  0  0  0  0  0  0  0
    4.5243   -1.2980    2.3321 H   0  0  0  0  0  0  0  0  0  0  0  0
    4.7148    0.2261    1.4239 H   0  0  0  0  0  0  0  0  0  0  0  0
    0.0001    2.3088   -1.1731 H   0  0  0  0  0  0  0  0  0  0  0  0
  1  7  1  0  0  0  0
  1 10  1  0  0  0  0
  2 20  1  0  0  0  0
  2 23  1  0  0  0  0
  3  4  1  0  0  0  0
  3 17  1  0  0  0  0
  4  5  1  0  0  0  0
  4  6  1  0  0  0  0
  7  9  1  0  0  0  0
  7  4  1  0  0  0  0
  8  7  1  0  0  0  0
 10 13  1  0  0  0  0
 10 12  1  0  0  0  0
 11 10  1  0  0  0  0
 13 14  1  0  0  0  0
 13 15  1  0  0  0  0
 16 13  1  0  0  0  0
 17 19  1  0  0  0  0
 17 18  1  0  0  0  0
 20 21  1  0  0  0  0
 20 17  1  0  0  0  0
 22 20  1  0  0  0  0
 23 26  1  0  0  0  0
 23 24  1  0  0  0  0
 25 23  1  0  0  0  0
 26 29  1  0  0  0  0
 26 28  1  0  0  0  0
 27 26  1  0  0  0  0
 30  3  1  0  0  0  0
M  END
