1,2,3
q = 0.0, confidence = 1.0

 42 41  0  0  0  0  0  0  0  0999 V2000
   -2.3250    0.3880   -0.6529 S   0  0  0  0  0  0  0  0  0  0  0  0
    2.3250    0.3880   -0.6529 S   0  0  0  0  0  0  0  0  0  0  0  0
    0.0000    2.3664   -0.2111 N   0  0  0  0  0  0  0  0  0  0  0  0
    0.0000    2.8524   -1.1238 H   0  0  0  0  0  0  0  0  0  0  0  0
   -1.2550    2.7139    0.5104 C   0  0  0  0  0  0  0  0  0  0  0  0
   -1.3331    3.8157    0.6518 H   0  0  0  0  0  0  0  0  0  0  0  0
   -1.1958    2.2553    1.5181 H   0  0  0  0  0  0  0  0  0  0  0  0
   -2.4647    2.1921   -0.2503 C   0  0  0  0  0  0  0  0  0  0  0  0
   -2.5818    2.6927   -1.2336 H   0  0  0  0  0  0  0  0  0  0  0  0
   -3.4042    2.3554    0.3139 H   0  0  0  0  0  0  0  0  0  0  0  0
    1.2550    2.7139    0.5104 C   0  0  0  0  0  0  0  0  0  0  0  0
    1.1959    2.2552    1.5181 H   0  0  0  0  0  0  0  0  0  0  0  0
    1.3331    3.8157    0.6519 H   0  0  0  0  0  0  0  0  0  0  0  0
    2.4648    2.1921   -0.2503 C   0  0  0  0  0  0  0  0  0  0  0  0
    3.4043    2.3554    0.3139 H   0  0  0  0  0  0  0  0  0  0  0  0
    2.5818    2.6927   -1.2336 H   0  0  0  0  0  0  0  0  0  0  0  0
   -2.7971   -0.4075    0.9429 C   0  0  0  0  0  0  0  0  0  0  0  0
   -2.3811   -1.4315    0.8308 H   0  0  0  0  0  0  0  0  0  0  0  0
   -2.2379    0.0938    1.7593 H   0  0  0  0  0  0  0  0  0  0  0  0
   -4.3109   -0.4313    1.1953 C   0  0  0  0  0  0  0  0  0  0  0  0
   -4.6795    0.6210    1.2148 H   0  0  0  0  0  0  0  0  0  0  0  0
   -5.0672   -1.1953    0.1034 C   0  0  0  0  0  0  0  0  0  0  0  0
   -4.9090   -0.7552   -0.9017 H   0  0  0  0  0  0  0  0  0  0  0  0
   -6.1559   -1.1890    0.3056 H   0  0  0  0  0  0  0  0  0  0  0  0
   -4.7372   -2.2543    0.0638 H   0  0  0  0  0  0  0  0  0  0  0  0
   -4.5551   -1.0336    2.5875 C   0  0  0  0  0  0  0  0  0  0  0  0
   -4.1965   -2.0828    2.6329 H   0  0  0  0  0  0  0  0  0  0  0  0
   -5.6379   -1.0398    2.8204 H   0  0  0  0  0  0  0  0  0  0  0  0
   -4.0406   -0.4610    3.3857 H   0  0  0  0  0  0  0  0  0  0  0  0
    2.7971   -0.4075    0.9429 C   0  0  0  0  0  0  0  0  0  0  0  0
    2.2379    0.0937    1.7592 H   0  0  0  0  0  0  0  0  0  0  0  0
    2.3811   -1.4315    0.8307 H   0  0  0  0  0  0  0  0  0  0  0  0
    4.3109   -0.4313    1.1953 C   0  0  0  0  0  0  0  0  0  0  0  0
    4.6795    0.6210    1.2148 H   0  0  0  0  0  0  0  0  0  0  0  0
    5.0672   -1.1953    0.1034 C   0  0  0  0  0  0  0  0  0  0  0  0
    4.7372   -2.2543    0.0638 H   0  0  0  0  0  0  0  0  0  0  0  0
    6.1559   -1.1890    0.3056 H   0  0  0  0  0  0  0  0  0  0  0  0
    4.9091   -0.7551   -0.9017 H   0  0  0  0  0  0  0  0  0  0  0  0
    4.5551   -1.0337    2.5875 C   0  0  0  0  0  0  0  0  0  0  0  0
    4.0405   -0.4611    3.3857 H   0  0  0  0  0  0  0  0  0  0  0  0
    5.6379   -1.0399    2.8204 H   0  0  0  0  0  0  0  0  0  0  0  0
    4.1965   -2.0828    2.6329 H   0  0  0  0  0  0  0  0  0  0  0  0
  1  8  1  0  0  0  0
  1 17  1  0  0  0  0
  2 14  1  0  0  0  0
  2 30  1  0  0  0  0
  3  5  1  0  0  0  0
  3 11  1  0  0  0  0
  4  3  1  0  0  0  0
  5  6  1  0  0  0  0
  5  7  1  0  0  0  0
  8 10  1  0  0  0  0
  8  5  1  0  0  0  0
  9  8  1  0  0  0  0
 11 13  1  0  0  0  0
 11 12  1  0  0  0  0
 14 15  1  0  0  0  0
 14 11  1  0  0  0  0
 16 14  1  0  0  0  0
 17 20  1  0  0  0  0
 17 19  1  0  0  0  0
 18 17  1  0  0  0  0
 20 21  1  0  0  0  0
 20 26  1  0  0  0  0
 22 24  1  0  0  0  0
 22 20  1  0  0  0  0
 23 22  1  0  0  0  0
 25 22  1  0  0  0  0
 26 27  1  0  0  0  0
 26 28  1  0  0  0  0
 26 29  1  0  0  0  0
 30 33  1  0  0  0  0
 30 31  1  0  0  0  0
 32 30  1  0  0  0  0
 33 34  1  0  0  0  0
 33 39  1  0  0  0  0
 35 37  1  0  0  0  0
 35 33  1  0  0  0  0
 36 35  1  0  0  0  0
 38 35  1  0  0  0  0
 39 42  1  0  0  0  0
 39 41  1  0  0  0  0
 39 40  1  0  0  0  0
M  END
