1,2,6
q = 0.0, confidence = 0.998

 45 47  0  0  1  0  0  0  0  0999 V2000
   -1.9159   -0.5697   -1.7664 S   0  0  0  0  0  1  0  0  0  0  0  0
    1.9159   -0.5691   -1.7667 S   0  0  0  0  0  1  0  0  0  0  0  0
   -2.3519    1.3531    0.1971 N   0  0  0  0  0  0  0  0  0  0  0  0
    2.3515    1.3531    0.1974 N   0  0  0  0  0  0  0  0  0  0  0  0
    3.8697   -0.2285    0.1412 N   0  0  0  0  0  0  0  0  0  0  0  0
   -0.0002    1.4116    0.0246 N   0  0  0  0  0  2  0  0  0  0  0  0
   -1.2105    3.4990   -0.0689 C   0  0  0  0  0  0  0  0  0  0  0  0
   -2.1791    4.0156   -0.1060 H   0  0  0  0  0  0  0  0  0  0  0  0
    4.2482    0.6712    1.1272 C   0  0  0  0  0  0  0  0  0  0  0  0
    5.1471    0.5288    1.7328 H   0  0  0  0  0  0  0  0  0  0  0  0
   -1.1557    2.0988    0.0125 C   0  0  2  0  0  3  0  0  0  0  0  0
    4.5098   -1.5433   -0.1271 C   0  0  0  0  0  0  0  0  0  0  0  0
    4.1550   -1.8075   -1.1440 H   0  0  0  0  0  0  0  0  0  0  0  0
    2.7063    0.1745   -0.4432 C   0  0  2  0  0  3  0  0  0  0  0  0
   -3.8700   -0.2287    0.1411 N   0  0  0  0  0  0  0  0  0  0  0  0
   -3.3113    1.6645    1.1666 C   0  0  0  0  0  0  0  0  0  0  0  0
   -3.2147    2.5346    1.8215 H   0  0  0  0  0  0  0  0  0  0  0  0
    3.9688   -2.5701    0.8718 C   0  0  0  0  0  0  0  0  0  0  0  0
    4.3007   -2.3351    1.9039 H   0  0  0  0  0  0  0  0  0  0  0  0
    4.3489   -3.5771    0.6117 H   0  0  0  0  0  0  0  0  0  0  0  0
    2.8607   -2.5978    0.8602 H   0  0  0  0  0  0  0  0  0  0  0  0
    1.2101    3.4990   -0.0687 C   0  0  0  0  0  0  0  0  0  0  0  0
    2.1787    4.0157   -0.1056 H   0  0  0  0  0  0  0  0  0  0  0  0
   -2.7065    0.1742   -0.4433 C   0  0  1  0  0  3  0  0  0  0  0  0
    1.1553    2.0989    0.0127 C   0  0  0  0  0  0  0  0  0  0  0  0
   -0.0002    4.2025   -0.1182 C   0  0  0  0  0  0  0  0  0  0  0  0
   -0.0002    5.2989   -0.2011 H   0  0  0  0  0  0  0  0  0  0  0  0
    3.3107    1.6644    1.1671 C   0  0  0  0  0  0  0  0  0  0  0  0
    3.2140    2.5343    1.8223 H   0  0  0  0  0  0  0  0  0  0  0  0
   -4.2487    0.6714    1.1267 C   0  0  0  0  0  0  0  0  0  0  0  0
   -5.1477    0.5291    1.7322 H   0  0  0  0  0  0  0  0  0  0  0  0
    6.0302   -1.4202   -0.1347 C   0  0  0  0  0  0  0  0  0  0  0  0
    6.3758   -0.6366   -0.8369 H   0  0  0  0  0  0  0  0  0  0  0  0
    6.4667   -2.3843   -0.4588 H   0  0  0  0  0  0  0  0  0  0  0  0
    6.4386   -1.2049    0.8739 H   0  0  0  0  0  0  0  0  0  0  0  0
   -4.5098   -1.5437   -0.1269 C   0  0  0  0  0  0  0  0  0  0  0  0
   -4.1554   -1.8077   -1.1440 H   0  0  0  0  0  0  0  0  0  0  0  0
   -6.0303   -1.4210   -0.1339 C   0  0  0  0  0  0  0  0  0  0  0  0
   -6.4383   -1.2058    0.8749 H   0  0  0  0  0  0  0  0  0  0  0  0
   -6.4667   -2.3851   -0.4579 H   0  0  0  0  0  0  0  0  0  0  0  0
   -6.3765   -0.6374   -0.8359 H   0  0  0  0  0  0  0  0  0  0  0  0
   -3.9682   -2.5703    0.8718 C   0  0  0  0  0  0  0  0  0  0  0  0
   -2.8601   -2.5977    0.8597 H   0  0  0  0  0  0  0  0  0  0  0  0
   -4.3481   -3.5773    0.6119 H   0  0  0  0  0  0  0  0  0  0  0  0
   -4.2997   -2.3353    1.9039 H   0  0  0  0  0  0  0  0  0  0  0  0
  3 16  1  0  0  0  0
  4 28  1  0  0  0  0
  5  9  1  0  0  0  0
  7 11  1  0  0  0  0
  8  7  1  0  0  0  0
  9 28  2  0  0  0  0
  9 10  1  0  0  0  0
 11  6  1  0  0  0  0
 11  3  1  1  0  0  0
 12  5  1  0  0  0  0
 12 18  1  0  0  0  0
 13 12  1  0  0  0  0
 14  2  1  6  0  0  0
 14  5  1  0  0  0  0
 14  4  1  0  0  0  0
 15 30  1  0  0  0  0
 16 17  1  0  0  0  0
 18 19  1  0  0  0  0
 20 18  1  0  0  0  0
 21 18  1  0  0  0  0
 22 25  2  0  0  0  0
 23 22  1  0  0  0  0
 24  1  1  6  0  0  0
 24 15  1  0  0  0  0
 24  3  1  0  0  0  0
 25  6  1  0  0  0  0
 25  4  1  0  0  0  0
 26  7  2  0  0  0  0
 26 22  1  0  0  0  0
 27 26  1  0  0  0  0
 28 29  1  0  0  0  0
 30 16  2  0  0  0  0
 30 31  1  0  0  0  0
 32 12  1  0  0  0  0
 32 35  1  0  0  0  0
 33 32  1  0  0  0  0
 34 32  1  0  0  0  0
 36 15  1  0  0  0  0
 36 42  1  0  0  0  0
 37 36  1  0  0  0  0
 38 36  1  0  0  0  0
 38 39  1  0  0  0  0
 40 38  1  0  0  0  0
 41 38  1  0  0  0  0
 42 45  1  0  0  0  0
 43 42  1  0  0  0  0
 44 42  1  0  0  0  0
M  END
