1,2,3
q = -2.0, confidence = 0.596

 29 29  0  0  0  0  0  0  0  0999 V2000
    0.7036   -1.9941    0.7151 S   0  0  0  0  0  1  0  0  0  0  0  0
    1.0981    1.9487    1.0058 S   0  0  0  0  0  1  0  0  0  0  0  0
   -1.3343    0.2421    0.3341 N   0  0  0  0  0  0  0  0  0  0  0  0
   -1.0437   -2.0216    1.3398 C   0  0  0  0  0  0  0  0  0  0  0  0
   -1.6880   -2.6033    0.6495 H   0  0  0  0  0  0  0  0  0  0  0  0
   -1.0330   -2.5615    2.3075 H   0  0  0  0  0  0  0  0  0  0  0  0
   -1.5445   -0.6040    1.5527 C   0  0  0  0  0  0  0  0  0  0  0  0
   -2.6224   -0.5811    1.8263 H   0  0  0  0  0  0  0  0  0  0  0  0
   -0.9671   -0.1353    2.3732 H   0  0  0  0  0  0  0  0  0  0  0  0
   -1.6533    1.6813    0.6112 C   0  0  0  0  0  0  0  0  0  0  0  0
   -1.6451    2.1894   -0.3732 H   0  0  0  0  0  0  0  0  0  0  0  0
   -2.6817    1.7553    1.0280 H   0  0  0  0  0  0  0  0  0  0  0  0
   -0.6445    2.3455    1.5241 C   0  0  0  0  0  0  0  0  0  0  0  0
   -0.7654    2.0441    2.5851 H   0  0  0  0  0  0  0  0  0  0  0  0
   -0.7783    3.4447    1.4798 H   0  0  0  0  0  0  0  0  0  0  0  0
   -2.1854   -0.2546   -0.8259 C   0  0  0  0  0  0  0  0  0  0  0  0
   -1.9056    0.3716   -1.6922 H   0  0  0  0  0  0  0  0  0  0  0  0
   -1.8435   -1.2807   -1.0530 H   0  0  0  0  0  0  0  0  0  0  0  0
   -3.6796   -0.2134   -0.5976 C   0  0  0  0  0  0  0  0  0  0  0  0
   -4.3682   -1.3163   -0.0496 C   0  0  0  0  0  0  0  0  0  0  0  0
   -3.8139   -2.2340    0.2007 H   0  0  0  0  0  0  0  0  0  0  0  0
   -5.7539   -1.2677    0.1627 C   0  0  0  0  0  0  0  0  0  0  0  0
   -6.2726   -2.1400    0.5881 H   0  0  0  0  0  0  0  0  0  0  0  0
   -6.4775   -0.1143   -0.1774 C   0  0  0  0  0  0  0  0  0  0  0  0
   -7.5651   -0.0760   -0.0143 H   0  0  0  0  0  0  0  0  0  0  0  0
   -5.8101    0.9837   -0.7427 C   0  0  0  0  0  0  0  0  0  0  0  0
   -6.3736    1.8839   -1.0310 H   0  0  0  0  0  0  0  0  0  0  0  0
   -4.4249    0.9312   -0.9532 C   0  0  0  0  0  0  0  0  0  0  0  0
   -3.9125    1.7885   -1.4170 H   0  0  0  0  0  0  0  0  0  0  0  0
  1  4  1  0  0  0  0
  2 13  1  0  0  0  0
  3 10  1  0  0  0  0
  3  7  1  0  0  0  0
  4  7  1  0  0  0  0
  4  6  1  0  0  0  0
  5  4  1  0  0  0  0
  7  8  1  0  0  0  0
  7  9  1  0  0  0  0
 10 12  1  0  0  0  0
 10 13  1  0  0  0  0
 11 10  1  0  0  0  0
 13 14  1  0  0  0  0
 15 13  1  0  0  0  0
 16 19  1  0  0  0  0
 16  3  1  0  0  0  0
 17 16  1  0  0  0  0
 18 16  1  0  0  0  0
 19 20  1  0  0  0  0
 20 22  2  0  0  0  0
 20 21  1  0  0  0  0
 22 23  1  0  0  0  0
 24 25  1  0  0  0  0
 24 22  1  0  0  0  0
 26 24  2  0  0  0  0
 27 26  1  0  0  0  0
 28 26  1  0  0  0  0
 28 19  2  0  0  0  0
 29 28  1  0  0  0  0
M  END
