1,2,3
q = 0.0, confidence = 0.996

 31 31  0  0  1  0  0  0  0  0999 V2000
   -2.1064   -1.0532   -1.1289 S   0  0  0  0  0  0  0  0  0  0  0  0
    2.3029    0.4598    1.2333 S   0  0  0  0  0  0  0  0  0  0  0  0
   -0.4186    1.2420    0.0251 N   0  0  0  0  0  2  0  0  0  0  0  0
    0.0613    2.1146    0.9351 C   0  0  1  0  0  3  0  0  0  0  0  0
   -0.3768    3.4502    0.9551 C   0  0  0  0  0  0  0  0  0  0  0  0
   -1.3348    3.8633    0.0204 C   0  0  0  0  0  0  0  0  0  0  0  0
   -1.8266    2.9404   -0.9117 C   0  0  0  0  0  0  0  0  0  0  0  0
   -1.3373    1.6229   -0.8877 C   0  0  0  0  0  0  0  0  0  0  0  0
   -1.7899    0.5847   -1.8804 C   0  0  0  0  0  0  0  0  0  0  0  0
    1.0518    1.5855    1.9413 C   0  0  0  0  0  0  0  0  0  0  0  0
   -3.2707   -0.6314    0.2222 C   0  0  0  0  0  0  0  0  0  0  0  0
    3.0322    1.5177   -0.0812 C   0  0  0  0  0  0  0  0  0  0  0  0
   -4.5990   -0.0528   -0.2434 C   0  0  0  0  0  0  0  0  0  0  0  0
    4.2647    0.8260   -0.6513 C   0  0  0  0  0  0  0  0  0  0  0  0
    0.0261    4.1465    1.7044 H   0  0  0  0  0  0  0  0  0  0  0  0
   -1.6976    4.9022    0.0186 H   0  0  0  0  0  0  0  0  0  0  0  0
   -2.5750    3.2316   -1.6628 H   0  0  0  0  0  0  0  0  0  0  0  0
   -2.6626    0.9409   -2.4606 H   0  0  0  0  0  0  0  0  0  0  0  0
   -0.9539    0.3607   -2.5832 H   0  0  0  0  0  0  0  0  0  0  0  0
    1.5348    2.4140    2.4956 H   0  0  0  0  0  0  0  0  0  0  0  0
    0.5174    0.9261    2.6639 H   0  0  0  0  0  0  0  0  0  0  0  0
   -2.7413    0.0247    0.9433 H   0  0  0  0  0  0  0  0  0  0  0  0
   -3.3940   -1.6023    0.7434 H   0  0  0  0  0  0  0  0  0  0  0  0
    3.2786    2.5017    0.3698 H   0  0  0  0  0  0  0  0  0  0  0  0
    2.2661    1.6576   -0.8716 H   0  0  0  0  0  0  0  0  0  0  0  0
   -5.2770    0.0916    0.6231 H   0  0  0  0  0  0  0  0  0  0  0  0
   -5.1031   -0.7233   -0.9677 H   0  0  0  0  0  0  0  0  0  0  0  0
   -4.4705    0.9379   -0.7257 H   0  0  0  0  0  0  0  0  0  0  0  0
    3.9833   -0.1455   -1.1050 H   0  0  0  0  0  0  0  0  0  0  0  0
    5.0341    0.6535    0.1277 H   0  0  0  0  0  0  0  0  0  0  0  0
    4.7120    1.4534   -1.4484 H   0  0  0  0  0  0  0  0  0  0  0  0
  1 11  1  0  0  0  0
  2 10  1  0  0  0  0
  3  4  1  0  0  0  0
  4  5  1  0  0  0  0
  4 10  1  1  0  0  0
  5 15  1  0  0  0  0
  6  5  2  0  0  0  0
  7  8  2  0  0  0  0
  7  6  1  0  0  0  0
  8  3  1  0  0  0  0
  9  1  1  0  0  0  0
  9  8  1  0  0  0  0
 10 20  1  0  0  0  0
 10 21  1  0  0  0  0
 11 23  1  0  0  0  0
 11 22  1  0  0  0  0
 12 24  1  0  0  0  0
 12  2  1  0  0  0  0
 13 11  1  0  0  0  0
 13 26  1  0  0  0  0
 14 12  1  0  0  0  0
 14 30  1  0  0  0  0
 16  6  1  0  0  0  0
 17  7  1  0  0  0  0
 18  9  1  0  0  0  0
 19  9  1  0  0  0  0
 25 12  1  0  0  0  0
 27 13  1  0  0  0  0
 28 13  1  0  0  0  0
 29 14  1  0  0  0  0
 31 14  1  0  0  0  0
M  END
