1,2,6
q = 0.0, confidence = 0.99

 55 57  0  0  1  0  0  0  0  0999 V2000
   -1.9682   -1.2183   -0.4151 S   0  0  0  0  0  1  0  0  0  0  0  0
    1.8859   -1.4680   -0.0142 S   0  0  0  0  0  1  0  0  0  0  0  0
   -4.2297    0.1227    0.3962 N   0  0  0  0  0  0  0  0  0  0  0  0
   -4.8607    1.3267    0.3079 N   0  0  0  0  0  0  0  0  0  0  0  0
   -2.8960    1.3986   -0.7304 N   0  0  0  0  0  0  0  0  0  0  0  0
    0.1323    1.7849    0.0564 N   0  0  0  0  0  2  0  0  0  0  0  0
    4.2649   -0.2342   -0.6721 N   0  0  0  0  0  0  0  0  0  0  0  0
    5.0084    0.8765   -0.4079 N   0  0  0  0  0  0  0  0  0  0  0  0
    3.0830    0.9484    0.6994 N   0  0  0  0  0  0  0  0  0  0  0  0
   -3.0199    0.1095   -0.2334 C   0  0  2  0  0  3  0  0  0  0  0  0
   -4.0356    2.0876   -0.3667 C   0  0  0  0  0  0  0  0  0  0  0  0
   -4.2196    3.1386   -0.6188 H   0  0  0  0  0  0  0  0  0  0  0  0
   -1.7612    1.9037   -1.4968 C   0  0  0  0  0  0  0  0  0  0  0  0
   -2.1478    2.6026   -2.2621 H   0  0  0  0  0  0  0  0  0  0  0  0
   -1.3067    1.0285   -2.0072 H   0  0  0  0  0  0  0  0  0  0  0  0
   -0.7285    2.5879   -0.6229 C   0  0  1  0  0  3  0  0  0  0  0  0
   -0.6912    3.9849   -0.5009 C   0  0  0  0  0  0  0  0  0  0  0  0
   -1.4005    4.6042   -1.0694 H   0  0  0  0  0  0  0  0  0  0  0  0
    0.2556    4.5756    0.3457 C   0  0  0  0  0  0  0  0  0  0  0  0
    0.3038    5.6684    0.4592 H   0  0  0  0  0  0  0  0  0  0  0  0
    1.1407    3.7438    1.0437 C   0  0  0  0  0  0  0  0  0  0  0  0
    1.8972    4.1692    1.7193 H   0  0  0  0  0  0  0  0  0  0  0  0
    1.0552    2.3536    0.8765 C   0  0  0  0  0  0  0  0  0  0  0  0
    2.0183    1.4180    1.5803 C   0  0  0  0  0  0  0  0  0  0  0  0
    2.4857    1.9215    2.4472 H   0  0  0  0  0  0  0  0  0  0  0  0
    1.4806    0.5146    1.9379 H   0  0  0  0  0  0  0  0  0  0  0  0
    3.0708   -0.2429   -0.0123 C   0  0  2  0  0  3  0  0  0  0  0  0
    4.2753    1.5825    0.4152 C   0  0  0  0  0  0  0  0  0  0  0  0
    4.5644    2.5540    0.8334 H   0  0  0  0  0  0  0  0  0  0  0  0
   -4.8853   -1.0193    1.0282 C   0  0  0  0  0  0  0  0  0  0  0  0
   -5.4780   -0.6112    1.8698 H   0  0  0  0  0  0  0  0  0  0  0  0
   -4.0760   -1.6578    1.4369 H   0  0  0  0  0  0  0  0  0  0  0  0
   -5.7623   -1.8044    0.0510 C   0  0  0  0  0  0  0  0  0  0  0  0
   -6.5174   -1.1154   -0.3855 H   0  0  0  0  0  0  0  0  0  0  0  0
   -5.1289   -2.1631   -0.7896 H   0  0  0  0  0  0  0  0  0  0  0  0
   -6.4578   -2.9918    0.7235 C   0  0  0  0  0  0  0  0  0  0  0  0
   -7.0715   -2.6221    1.5746 H   0  0  0  0  0  0  0  0  0  0  0  0
   -5.6890   -3.6595    1.1715 H   0  0  0  0  0  0  0  0  0  0  0  0
   -7.3365   -3.7885   -0.2409 C   0  0  0  0  0  0  0  0  0  0  0  0
   -8.1356   -3.1541   -0.6768 H   0  0  0  0  0  0  0  0  0  0  0  0
   -7.8272   -4.6397    0.2703 H   0  0  0  0  0  0  0  0  0  0  0  0
   -6.7420   -4.2006   -1.0821 H   0  0  0  0  0  0  0  0  0  0  0  0
    4.8024   -1.2891   -1.5326 C   0  0  0  0  0  0  0  0  0  0  0  0
    5.1695   -0.7922   -2.4518 H   0  0  0  0  0  0  0  0  0  0  0  0
    3.9379   -1.9317   -1.7939 H   0  0  0  0  0  0  0  0  0  0  0  0
    5.9149   -2.0891   -0.8525 C   0  0  0  0  0  0  0  0  0  0  0  0
    6.3181   -2.7935   -1.6113 H   0  0  0  0  0  0  0  0  0  0  0  0
    6.7484   -1.3976   -0.6020 H   0  0  0  0  0  0  0  0  0  0  0  0
    5.4707   -2.8607    0.3939 C   0  0  0  0  0  0  0  0  0  0  0  0
    4.6258   -3.5327    0.1281 H   0  0  0  0  0  0  0  0  0  0  0  0
    5.0597   -2.1490    1.1446 H   0  0  0  0  0  0  0  0  0  0  0  0
    6.6051   -3.6672    1.0263 C   0  0  0  0  0  0  0  0  0  0  0  0
    7.0103   -4.4175    0.3166 H   0  0  0  0  0  0  0  0  0  0  0  0
    6.2617   -4.2121    1.9275 H   0  0  0  0  0  0  0  0  0  0  0  0
    7.4469   -3.0113    1.3307 H   0  0  0  0  0  0  0  0  0  0  0  0
  3 30  1  0  0  0  0
  4  3  1  0  0  0  0
  5 11  1  0  0  0  0
  5 10  1  0  0  0  0
  6 23  1  0  0  0  0
  7  8  1  0  0  0  0
  7 27  1  0  0  0  0
  8 28  2  0  0  0  0
  9 24  1  0  0  0  0
 10  1  1  6  0  0  0
 10  3  1  0  0  0  0
 11  4  2  0  0  0  0
 12 11  1  0  0  0  0
 13  5  1  0  0  0  0
 14 13  1  0  0  0  0
 15 13  1  0  0  0  0
 16 13  1  1  0  0  0
 16 17  1  0  0  0  0
 16  6  1  0  0  0  0
 17 19  2  0  0  0  0
 18 17  1  0  0  0  0
 19 20  1  0  0  0  0
 19 21  1  0  0  0  0
 21 22  1  0  0  0  0
 23 21  2  0  0  0  0
 23 24  1  0  0  0  0
 24 26  1  0  0  0  0
 24 25  1  0  0  0  0
 27  2  1  1  0  0  0
 27  9  1  0  0  0  0
 28  9  1  0  0  0  0
 28 29  1  0  0  0  0
 30 32  1  0  0  0  0
 30 31  1  0  0  0  0
 33 36  1  0  0  0  0
 33 30  1  0  0  0  0
 34 33  1  0  0  0  0
 35 33  1  0  0  0  0
 36 38  1  0  0  0  0
 36 37  1  0  0  0  0
 39 41  1  0  0  0  0
 39 36  1  0  0  0  0
 40 39  1  0  0  0  0
 42 39  1  0  0  0  0
 43 46  1  0  0  0  0
 43  7  1  0  0  0  0
 44 43  1  0  0  0  0
 45 43  1  0  0  0  0
 46 48  1  0  0  0  0
 46 49  1  0  0  0  0
 47 46  1  0  0  0  0
 49 52  1  0  0  0  0
 49 51  1  0  0  0  0
 50 49  1  0  0  0  0
 52 55  1  0  0  0  0
 52 54  1  0  0  0  0
 53 52  1  0  0  0  0
M  END
