1,2,5
q = -1.0

 34 36  0  0  1  0  0  0  0  0999 V2000
   -2.2252    0.7225    0.5231 S   0  0  0  0  0  1  0  0  0  0  0  0
    0.5586    0.2209   -1.7225 S   0  0  0  0  0  1  0  0  0  0  0  0
    1.1422    1.2220    1.4424 B   0  0  2  0  0  0  0  0  0  0  0  0
    1.7311    1.8581    2.3097 H   0  0  0  0  0  0  0  0  0  0  0  0
    0.0939   -1.1323    1.4877 N   0  0  0  0  0  2  0  0  0  0  0  0
    0.5583   -0.0269    2.1307 N   0  0  0  0  0  0  0  0  0  0  0  0
   -1.5284    3.2445   -0.2248 N   0  0  0  0  0  0  0  0  0  0  0  0
    0.1431    2.1968    0.7573 N   0  0  0  0  0  0  0  0  0  0  0  0
    3.2484   -0.1392   -1.3159 N   0  0  0  0  0  0  0  0  0  0  0  0
    2.2295    0.7542    0.4220 N   0  0  0  0  0  0  0  0  0  0  0  0
    0.0513   -2.1240    2.3983 C   0  0  0  0  0  3  0  0  0  0  0  0
   -0.3156   -3.1158    2.1119 H   0  0  0  0  0  0  0  0  0  0  0  0
    0.4881   -1.6651    3.6566 C   0  0  0  0  0  0  0  0  0  0  0  0
    0.5588   -2.2287    4.5916 H   0  0  0  0  0  0  0  0  0  0  0  0
    0.8076   -0.3276    3.4383 C   0  0  0  0  0  0  0  0  0  0  0  0
    1.2146    0.4367    4.1081 H   0  0  0  0  0  0  0  0  0  0  0  0
   -1.1551    2.0510    0.3542 C   0  0  1  0  0  3  0  0  0  0  0  0
   -2.8310    3.5032   -0.8081 C   0  0  0  0  0  0  0  0  0  0  0  0
   -3.2761    2.5274   -1.0848 H   0  0  0  0  0  0  0  0  0  0  0  0
   -2.7135    4.1408   -1.7043 H   0  0  0  0  0  0  0  0  0  0  0  0
   -3.5046    4.0042   -0.0830 H   0  0  0  0  0  0  0  0  0  0  0  0
   -0.4654    4.1327   -0.1844 C   0  0  0  0  0  0  0  0  0  0  0  0
   -0.5403    5.1492   -0.5805 H   0  0  0  0  0  0  0  0  0  0  0  0
    0.5704    3.4733    0.4223 C   0  0  0  0  0  0  0  0  0  0  0  0
    1.5852    3.8102    0.6501 H   0  0  0  0  0  0  0  0  0  0  0  0
    2.0246    0.2746   -0.8391 C   0  0  1  0  0  3  0  0  0  0  0  0
    3.4615   -0.7409   -2.6191 C   0  0  0  0  0  0  0  0  0  0  0  0
    2.4876   -1.1365   -2.9676 H   0  0  0  0  0  0  0  0  0  0  0  0
    4.1965   -1.5631   -2.5325 H   0  0  0  0  0  0  0  0  0  0  0  0
    3.8264    0.0068   -3.3524 H   0  0  0  0  0  0  0  0  0  0  0  0
    4.2169    0.0858   -0.3482 C   0  0  0  0  0  0  0  0  0  0  0  0
    5.2697   -0.1612   -0.5118 H   0  0  0  0  0  0  0  0  0  0  0  0
    3.5732    0.6330    0.7333 C   0  0  0  0  0  0  0  0  0  0  0  0
    3.9617    0.9466    1.7063 H   0  0  0  0  0  0  0  0  0  0  0  0
  3  6  1  0  0  0  0
  3  4  1  1  0  0  0
  5  6  1  0  0  0  0
  5 11  1  0  0  0  0
  6 15  1  0  0  0  0
  7 22  1  0  0  0  0
  7 17  1  0  0  0  0
  8  3  1  0  0  0  0
  9 26  1  0  0  0  0
  9 31  1  0  0  0  0
 10 33  1  0  0  0  0
 10  3  1  0  0  0  0
 11 13  1  0  0  0  0
 12 11  1  0  0  0  0
 13 14  1  0  0  0  0
 15 13  2  0  0  0  0
 15 16  1  0  0  0  0
 17  1  1  1  0  0  0
 17  8  1  0  0  0  0
 18  7  1  0  0  0  0
 18 21  1  0  0  0  0
 19 18  1  0  0  0  0
 20 18  1  0  0  0  0
 22 24  2  0  0  0  0
 23 22  1  0  0  0  0
 24 25  1  0  0  0  0
 24  8  1  0  0  0  0
 26  2  1  6  0  0  0
 26 10  1  0  0  0  0
 27 29  1  0  0  0  0
 27  9  1  0  0  0  0
 28 27  1  0  0  0  0
 30 27  1  0  0  0  0
 31 33  2  0  0  0  0
 32 31  1  0  0  0  0
 33 34  1  0  0  0  0
M  END
