2,4,6
q = -1.0

 64 68  0  0  0  0  0  0  0  0999 V2000
   -2.5821    0.4098   -0.3617 P   0  0  0  0  0  4  0  0  0  0  0  0
   -1.8531   -0.9518   -1.6825 S   0  0  0  0  0  1  0  0  0  0  0  0
    2.5962    0.6031    0.0079 P   0  0  0  0  0  4  0  0  0  0  0  0
    1.3617   -0.0291   -1.4619 S   0  0  0  0  0  1  0  0  0  0  0  0
    0.3014    1.1213    2.8693 O   0  0  0  0  0  0  0  0  0  0  0  0
   -0.2991   -0.5549    1.3827 N   0  0  0  0  0  2  0  0  0  0  0  0
   -1.5725   -0.6285    1.9987 C   0  0  0  0  0  0  0  0  0  0  0  0
   -2.7553   -0.2539    1.3116 C   0  0  0  0  0  0  0  0  0  0  0  0
   -4.0248   -0.4151    1.9069 C   0  0  0  0  0  0  0  0  0  0  0  0
   -4.9287   -0.1294    1.3495 H   0  0  0  0  0  0  0  0  0  0  0  0
   -4.1292   -0.9292    3.2031 C   0  0  0  0  0  0  0  0  0  0  0  0
   -5.1185   -1.0564    3.6664 H   0  0  0  0  0  0  0  0  0  0  0  0
   -2.9614   -1.2807    3.9043 C   0  0  0  0  0  0  0  0  0  0  0  0
   -3.0349   -1.6870    4.9246 H   0  0  0  0  0  0  0  0  0  0  0  0
   -1.7044   -1.1317    3.3124 C   0  0  0  0  0  0  0  0  0  0  0  0
   -0.7921   -1.4188    3.8540 H   0  0  0  0  0  0  0  0  0  0  0  0
   -1.6335    1.9622   -0.2729 C   0  0  0  0  0  0  0  0  0  0  0  0
   -1.0634    2.4658   -1.4580 C   0  0  0  0  0  0  0  0  0  0  0  0
   -1.0890    1.8541   -2.3722 H   0  0  0  0  0  0  0  0  0  0  0  0
   -0.4585    3.7292   -1.4515 C   0  0  0  0  0  0  0  0  0  0  0  0
   -0.0048    4.1231   -2.3731 H   0  0  0  0  0  0  0  0  0  0  0  0
   -0.4241    4.4859   -0.2688 C   0  0  0  0  0  0  0  0  0  0  0  0
    0.0530    5.4768   -0.2675 H   0  0  0  0  0  0  0  0  0  0  0  0
   -0.9672    3.9679    0.9171 C   0  0  0  0  0  0  0  0  0  0  0  0
   -0.9077    4.5439    1.8527 H   0  0  0  0  0  0  0  0  0  0  0  0
   -1.5715    2.7018    0.9246 C   0  0  0  0  0  0  0  0  0  0  0  0
   -1.9660    2.2816    1.8605 H   0  0  0  0  0  0  0  0  0  0  0  0
   -4.2599    0.8955   -0.9129 C   0  0  0  0  0  0  0  0  0  0  0  0
   -5.0738   -0.0564   -1.5589 C   0  0  0  0  0  0  0  0  0  0  0  0
   -4.6703   -1.0599   -1.7646 H   0  0  0  0  0  0  0  0  0  0  0  0
   -6.3777    0.2882   -1.9425 C   0  0  0  0  0  0  0  0  0  0  0  0
   -7.0108   -0.4558   -2.4491 H   0  0  0  0  0  0  0  0  0  0  0  0
   -6.8712    1.5778   -1.6858 C   0  0  0  0  0  0  0  0  0  0  0  0
   -7.8942    1.8462   -1.9908 H   0  0  0  0  0  0  0  0  0  0  0  0
   -6.0582    2.5272   -1.0462 C   0  0  0  0  0  0  0  0  0  0  0  0
   -6.4404    3.5404   -0.8505 H   0  0  0  0  0  0  0  0  0  0  0  0
   -4.7525    2.1912   -0.6590 C   0  0  0  0  0  0  0  0  0  0  0  0
   -4.1127    2.9375   -0.1647 H   0  0  0  0  0  0  0  0  0  0  0  0
    0.5928    0.2589    2.0220 C   0  0  0  0  0  0  0  0  0  0  0  0
    2.0738    0.0573    1.6717 C   0  0  0  0  0  0  0  0  0  0  0  0
    2.3546   -1.0112    1.7215 H   0  0  0  0  0  0  0  0  0  0  0  0
    2.6862    0.6106    2.4091 H   0  0  0  0  0  0  0  0  0  0  0  0
    2.7577    2.4170    0.0548 C   0  0  0  0  0  0  0  0  0  0  0  0
    3.3017    3.0662   -1.0739 C   0  0  0  0  0  0  0  0  0  0  0  0
    3.5838    2.4800   -1.9624 H   0  0  0  0  0  0  0  0  0  0  0  0
    3.4874    4.4540   -1.0564 C   0  0  0  0  0  0  0  0  0  0  0  0
    3.9150    4.9595   -1.9354 H   0  0  0  0  0  0  0  0  0  0  0  0
    3.1388    5.1957    0.0862 C   0  0  0  0  0  0  0  0  0  0  0  0
    3.2977    6.2848    0.1031 H   0  0  0  0  0  0  0  0  0  0  0  0
    2.5807    4.5500    1.1991 C   0  0  0  0  0  0  0  0  0  0  0  0
    2.2867    5.1314    2.0861 H   0  0  0  0  0  0  0  0  0  0  0  0
    2.3760    3.1607    1.1890 C   0  0  0  0  0  0  0  0  0  0  0  0
    1.8883    2.6712    2.0480 H   0  0  0  0  0  0  0  0  0  0  0  0
    4.2999   -0.0377   -0.1877 C   0  0  0  0  0  0  0  0  0  0  0  0
    5.3749    0.5840    0.4801 C   0  0  0  0  0  0  0  0  0  0  0  0
    5.2082    1.4999    1.0684 H   0  0  0  0  0  0  0  0  0  0  0  0
    6.6613    0.0359    0.3794 C   0  0  0  0  0  0  0  0  0  0  0  0
    7.5039    0.5209    0.8951 H   0  0  0  0  0  0  0  0  0  0  0  0
    6.8742   -1.1264   -0.3811 C   0  0  0  0  0  0  0  0  0  0  0  0
    7.8856   -1.5535   -0.4578 H   0  0  0  0  0  0  0  0  0  0  0  0
    5.8015   -1.7409   -1.0467 C   0  0  0  0  0  0  0  0  0  0  0  0
    5.9681   -2.6497   -1.6441 H   0  0  0  0  0  0  0  0  0  0  0  0
    4.5117   -1.1980   -0.9548 C   0  0  0  0  0  0  0  0  0  0  0  0
    3.6596   -1.6586   -1.4793 H   0  0  0  0  0  0  0  0  0  0  0  0
  1 17  1  0  0  0  0
  1  8  1  0  0  0  0
  2  1  1  0  0  0  0
  3 43  1  0  0  0  0
  3 40  1  0  0  0  0
  4  3  1  0  0  0  0
  6  7  1  0  0  0  0
  6 39  1  0  0  0  0
  7 15  1  0  0  0  0
  8  9  1  0  0  0  0
  8  7  2  0  0  0  0
  9 11  2  0  0  0  0
 10  9  1  0  0  0  0
 11 12  1  0  0  0  0
 11 13  1  0  0  0  0
 13 14  1  0  0  0  0
 15 16  1  0  0  0  0
 15 13  2  0  0  0  0
 17 26  1  0  0  0  0
 18 20  1  0  0  0  0
 18 17  2  0  0  0  0
 19 18  1  0  0  0  0
 20 22  2  0  0  0  0
 21 20  1  0  0  0  0
 22 23  1  0  0  0  0
 22 24  1  0  0  0  0
 24 26  2  0  0  0  0
 24 25  1  0  0  0  0
 26 27  1  0  0  0  0
 28 37  1  0  0  0  0
 28  1  1  0  0  0  0
 29 28  2  0  0  0  0
 30 29  1  0  0  0  0
 31 33  2  0  0  0  0
 31 29  1  0  0  0  0
 32 31  1  0  0  0  0
 33 35  1  0  0  0  0
 34 33  1  0  0  0  0
 35 36  1  0  0  0  0
 35 37  2  0  0  0  0
 37 38  1  0  0  0  0
 39  5  2  0  0  0  0
 40 41  1  0  0  0  0
 40 39  1  0  0  0  0
 40 42  1  0  0  0  0
 43 52  1  0  0  0  0
 44 46  1  0  0  0  0
 44 43  2  0  0  0  0
 45 44  1  0  0  0  0
 46 48  2  0  0  0  0
 47 46  1  0  0  0  0
 48 49  1  0  0  0  0
 48 50  1  0  0  0  0
 50 51  1  0  0  0  0
 52 50  2  0  0  0  0
 52 53  1  0  0  0  0
 54  3  1  0  0  0  0
 54 55  1  0  0  0  0
 55 56  1  0  0  0  0
 57 55  2  0  0  0  0
 57 58  1  0  0  0  0
 59 57  1  0  0  0  0
 60 59  1  0  0  0  0
 61 63  1  0  0  0  0
 61 59  2  0  0  0  0
 62 61  1  0  0  0  0
 63 54  2  0  0  0  0
 64 63  1  0  0  0  0
M  END
