1,2,3
q = 0.0, confidence = 1.0

 25 25  0  0  1  0  0  0  0  0999 V2000
    2.6027   -0.6450    0.2365 S   0  0  0  0  0  0  0  0  0  0  0  0
   -2.6064   -0.6300   -0.2371 S   0  0  0  0  0  0  0  0  0  0  0  0
    0.0024    0.9956    0.0015 N   0  0  0  0  0  2  0  0  0  0  0  0
    2.9795    0.1021   -1.3784 C   0  0  0  0  0  0  0  0  0  0  0  0
    3.7556    0.8871   -1.2889 H   0  0  0  0  0  0  0  0  0  0  0  0
    2.0561    0.4817   -1.8566 H   0  0  0  0  0  0  0  0  0  0  0  0
    3.3591   -0.7280   -2.0029 H   0  0  0  0  0  0  0  0  0  0  0  0
    2.0994    0.8120    1.2230 C   0  0  0  0  0  0  0  0  0  0  0  0
    1.6719    0.3292    2.1327 H   0  0  0  0  0  0  0  0  0  0  0  0
    2.9766    1.4268    1.5038 H   0  0  0  0  0  0  0  0  0  0  0  0
    1.0302    1.6530    0.5750 C   0  0  2  0  0  3  0  0  0  0  0  0
    1.0699    3.0581    0.5844 C   0  0  0  0  0  0  0  0  0  0  0  0
    1.9162    3.5796    1.0542 H   0  0  0  0  0  0  0  0  0  0  0  0
    0.0116    3.7681    0.0018 C   0  0  0  0  0  0  0  0  0  0  0  0
    0.0152    4.8686    0.0019 H   0  0  0  0  0  0  0  0  0  0  0  0
   -1.0514    3.0653   -0.5808 C   0  0  0  0  0  0  0  0  0  0  0  0
   -1.8943    3.5924   -1.0506 H   0  0  0  0  0  0  0  0  0  0  0  0
   -1.0210    1.6599   -0.5717 C   0  0  0  0  0  0  0  0  0  0  0  0
   -2.0955    0.8263   -1.2205 C   0  0  0  0  0  0  0  0  0  0  0  0
   -1.6714    0.3431   -2.1315 H   0  0  0  0  0  0  0  0  0  0  0  0
   -2.9694    1.4467   -1.4994 H   0  0  0  0  0  0  0  0  0  0  0  0
   -2.9785    0.1153    1.3797 C   0  0  0  0  0  0  0  0  0  0  0  0
   -3.7511    0.9039    1.2927 H   0  0  0  0  0  0  0  0  0  0  0  0
   -2.0531    0.4896    1.8581 H   0  0  0  0  0  0  0  0  0  0  0  0
   -3.3612   -0.7146    2.0028 H   0  0  0  0  0  0  0  0  0  0  0  0
  1  8  1  0  0  0  0
  2 22  1  0  0  0  0
  3 11  1  0  0  0  0
  4  5  1  0  0  0  0
  4  1  1  0  0  0  0
  6  4  1  0  0  0  0
  7  4  1  0  0  0  0
  8 10  1  0  0  0  0
  8  9  1  0  0  0  0
 11 12  1  0  0  0  0
 11  8  1  1  0  0  0
 12 13  1  0  0  0  0
 14 15  1  0  0  0  0
 14 12  2  0  0  0  0
 16 18  2  0  0  0  0
 16 14  1  0  0  0  0
 17 16  1  0  0  0  0
 18  3  1  0  0  0  0
 19 18  1  0  0  0  0
 19  2  1  0  0  0  0
 20 19  1  0  0  0  0
 21 19  1  0  0  0  0
 22 24  1  0  0  0  0
 22 25  1  0  0  0  0
 23 22  1  0  0  0  0
M  END
