1,3,10
q = -2.0, confidence = 0.78

 15 15  0  0  1  0  0  0  0  0999 V2000
    0.6551    2.2049    0.0003 S   0  0  0  0  0  1  0  0  0  0  0  0
   -1.6598    3.5503   -0.0007 O   0  0  0  0  0  0  0  0  0  0  0  0
   -1.1699   -0.0000    0.0000 N   0  0  0  0  0  2  0  0  0  0  0  0
   -1.0881    2.4561    0.0006 C   0  0  0  0  0  0  0  0  0  0  0  0
   -1.8697    1.1731    0.0001 C   0  0  2  0  0  3  0  0  0  0  0  0
   -3.2712    1.2023    0.0001 C   0  0  0  0  0  0  0  0  0  0  0  0
   -3.7380    2.1986    0.0002 H   0  0  0  0  0  0  0  0  0  0  0  0
   -3.9919   -0.0000   -0.0000 C   0  0  0  0  0  0  0  0  0  0  0  0
   -5.0930   -0.0000   -0.0000 H   0  0  0  0  0  0  0  0  0  0  0  0
    0.6551   -2.2049   -0.0003 S   0  0  0  0  0  1  0  0  0  0  0  0
   -1.6598   -3.5503    0.0006 O   0  0  0  0  0  0  0  0  0  0  0  0
   -1.0881   -2.4561   -0.0005 C   0  0  0  0  0  0  0  0  0  0  0  0
   -1.8697   -1.1731   -0.0001 C   0  0  0  0  0  0  0  0  0  0  0  0
   -3.2712   -1.2023   -0.0001 C   0  0  0  0  0  0  0  0  0  0  0  0
   -3.7380   -2.1986   -0.0002 H   0  0  0  0  0  0  0  0  0  0  0  0
  1  4  1  0  0  0  0
  2  4  2  0  0  0  0
  3  5  1  0  0  0  0
  5  4  1  1  0  0  0
  6  5  1  0  0  0  0
  6  7  1  0  0  0  0
  8  6  2  0  0  0  0
  9  8  1  0  0  0  0
 12 10  1  0  0  0  0
 12 13  1  0  0  0  0
 12 11  2  0  0  0  0
 13 14  2  0  0  0  0
 13  3  1  0  0  0  0
 14  8  1  0  0  0  0
 15 14  1  0  0  0  0
M  END
