1,3,35
q = -1.0

 67 70  0  0  0  0  0  0  0  0999 V2000
   -2.3145   -1.9679    1.3800 S   0  0  0  0  0  1  0  0  0  0  0  0
   -1.4398    0.5916    0.0223 P   0  0  0  0  0  4  0  0  0  0  0  0
   -0.0682   -0.3120    0.0090 N   0  0  0  0  0  2  0  0  0  0  0  0
   -3.5944    0.5018    1.5235 N   0  0  0  0  0  0  0  0  0  0  0  0
   -1.1613    2.2728    0.6485 C   0  0  0  0  0  0  0  0  0  0  0  0
   -0.9351    2.4361    2.0313 C   0  0  0  0  0  0  0  0  0  0  0  0
   -0.9975    1.5694    2.7057 H   0  0  0  0  0  0  0  0  0  0  0  0
   -0.6425    3.7075    2.5407 C   0  0  0  0  0  0  0  0  0  0  0  0
   -0.4698    3.8366    3.6196 H   0  0  0  0  0  0  0  0  0  0  0  0
   -0.5818    4.8153    1.6778 C   0  0  0  0  0  0  0  0  0  0  0  0
   -0.3566    5.8138    2.0822 H   0  0  0  0  0  0  0  0  0  0  0  0
   -0.8086    4.6512    0.3027 C   0  0  0  0  0  0  0  0  0  0  0  0
   -0.7535    5.5162   -0.3746 H   0  0  0  0  0  0  0  0  0  0  0  0
   -1.0979    3.3810   -0.2167 C   0  0  0  0  0  0  0  0  0  0  0  0
   -1.2653    3.2487   -1.2954 H   0  0  0  0  0  0  0  0  0  0  0  0
   -2.1389    0.7014   -1.6438 C   0  0  0  0  0  0  0  0  0  0  0  0
   -3.3577    1.3866   -1.8313 C   0  0  0  0  0  0  0  0  0  0  0  0
   -3.8631    1.8461   -0.9675 H   0  0  0  0  0  0  0  0  0  0  0  0
   -3.9181    1.4473   -3.1147 C   0  0  0  0  0  0  0  0  0  0  0  0
   -4.8697    1.9773   -3.2711 H   0  0  0  0  0  0  0  0  0  0  0  0
   -3.2715    0.8238   -4.1961 C   0  0  0  0  0  0  0  0  0  0  0  0
   -3.7178    0.8710   -5.2011 H   0  0  0  0  0  0  0  0  0  0  0  0
   -2.0677    0.1282   -3.9977 C   0  0  0  0  0  0  0  0  0  0  0  0
   -1.5747   -0.3776   -4.8413 H   0  0  0  0  0  0  0  0  0  0  0  0
   -1.4955    0.0582   -2.7185 C   0  0  0  0  0  0  0  0  0  0  0  0
   -0.5757   -0.5219   -2.5383 H   0  0  0  0  0  0  0  0  0  0  0  0
   -2.6424   -0.2693    1.1118 C   0  0  0  0  0  0  0  0  0  0  0  0
   -4.6657   -0.0682    2.3265 C   0  0  0  0  0  0  0  0  0  0  0  0
   -4.2681   -0.8362    3.0318 H   0  0  0  0  0  0  0  0  0  0  0  0
   -5.1106    0.7485    2.9339 H   0  0  0  0  0  0  0  0  0  0  0  0
   -5.7459   -0.7043    1.4436 C   0  0  0  0  0  0  0  0  0  0  0  0
   -6.5799   -1.0898    2.0639 H   0  0  0  0  0  0  0  0  0  0  0  0
   -5.3245   -1.5506    0.8652 H   0  0  0  0  0  0  0  0  0  0  0  0
   -6.1564    0.0372    0.7289 H   0  0  0  0  0  0  0  0  0  0  0  0
    1.4024   -2.6085   -1.4632 S   0  0  0  0  0  1  0  0  0  0  0  0
    1.5413    0.0106    0.0535 P   0  0  0  0  0  4  0  0  0  0  0  0
    3.5493   -0.8570   -1.4114 N   0  0  0  0  0  0  0  0  0  0  0  0
    1.9310    1.6913   -0.5128 C   0  0  0  0  0  0  0  0  0  0  0  0
    1.7952    1.9707   -1.8889 C   0  0  0  0  0  0  0  0  0  0  0  0
    1.5225    1.1675   -2.5895 H   0  0  0  0  0  0  0  0  0  0  0  0
    2.0174    3.2714   -2.3579 C   0  0  0  0  0  0  0  0  0  0  0  0
    1.9154    3.4896   -3.4316 H   0  0  0  0  0  0  0  0  0  0  0  0
    2.3804    4.2910   -1.4611 C   0  0  0  0  0  0  0  0  0  0  0  0
    2.5589    5.3112   -1.8336 H   0  0  0  0  0  0  0  0  0  0  0  0
    2.5163    4.0110   -0.0929 C   0  0  0  0  0  0  0  0  0  0  0  0
    2.7924    4.8101    0.6110 H   0  0  0  0  0  0  0  0  0  0  0  0
    2.2915    2.7122    0.3862 C   0  0  0  0  0  0  0  0  0  0  0  0
    2.3867    2.4937    1.4597 H   0  0  0  0  0  0  0  0  0  0  0  0
    2.1901   -0.2040    1.7296 C   0  0  0  0  0  0  0  0  0  0  0  0
    3.5708   -0.0269    1.9590 C   0  0  0  0  0  0  0  0  0  0  0  0
    4.2332    0.2380    1.1201 H   0  0  0  0  0  0  0  0  0  0  0  0
    4.0802   -0.2202    3.2505 C   0  0  0  0  0  0  0  0  0  0  0  0
    5.1560   -0.0864    3.4393 H   0  0  0  0  0  0  0  0  0  0  0  0
    3.2210   -0.5943    4.2983 C   0  0  0  0  0  0  0  0  0  0  0  0
    3.6268   -0.7483    5.3098 H   0  0  0  0  0  0  0  0  0  0  0  0
    1.8511   -0.7883    4.0575 C   0  0  0  0  0  0  0  0  0  0  0  0
    1.1842   -1.1037    4.8738 H   0  0  0  0  0  0  0  0  0  0  0  0
    1.3271   -0.5990    2.7698 C   0  0  0  0  0  0  0  0  0  0  0  0
    0.2631   -0.7922    2.5562 H   0  0  0  0  0  0  0  0  0  0  0  0
    2.3523   -1.1977   -1.0641 C   0  0  0  0  0  0  0  0  0  0  0  0
    4.3130   -1.7581   -2.2528 C   0  0  0  0  0  0  0  0  0  0  0  0
    4.3142   -2.7820   -1.8036 H   0  0  0  0  0  0  0  0  0  0  0  0
    3.7864   -1.8858   -3.2303 H   0  0  0  0  0  0  0  0  0  0  0  0
    5.7332   -1.2492   -2.4700 C   0  0  0  0  0  0  0  0  0  0  0  0
    6.3065   -1.9335   -3.1270 H   0  0  0  0  0  0  0  0  0  0  0  0
    6.2717   -1.1647   -1.5043 H   0  0  0  0  0  0  0  0  0  0  0  0
    5.7223   -0.2435   -2.9367 H   0  0  0  0  0  0  0  0  0  0  0  0
  2  5  1  0  0  0  0
  2 27  1  0  0  0  0
  3  2  1  0  0  0  0
  3 36  1  0  0  0  0
  4 28  1  0  0  0  0
  5  6  1  0  0  0  0
  6  8  2  0  0  0  0
  6  7  1  0  0  0  0
  8  9  1  0  0  0  0
 10 11  1  0  0  0  0
 10  8  1  0  0  0  0
 12 10  2  0  0  0  0
 13 12  1  0  0  0  0
 14 12  1  0  0  0  0
 14  5  2  0  0  0  0
 15 14  1  0  0  0  0
 16  2  1  0  0  0  0
 17 16  1  0  0  0  0
 17 18  1  0  0  0  0
 19 17  2  0  0  0  0
 20 19  1  0  0  0  0
 21 23  2  0  0  0  0
 21 19  1  0  0  0  0
 22 21  1  0  0  0  0
 23 25  1  0  0  0  0
 24 23  1  0  0  0  0
 25 26  1  0  0  0  0
 25 16  2  0  0  0  0
 27  1  1  0  0  0  0
 27  4  2  0  0  0  0
 28 30  1  0  0  0  0
 28 29  1  0  0  0  0
 31 32  1  0  0  0  0
 31 28  1  0  0  0  0
 33 31  1  0  0  0  0
 34 31  1  0  0  0  0
 35 60  1  0  0  0  0
 36 49  1  0  0  0  0
 37 60  2  0  0  0  0
 38 36  1  0  0  0  0
 38 47  1  0  0  0  0
 39 38  2  0  0  0  0
 40 39  1  0  0  0  0
 41 39  1  0  0  0  0
 41 43  2  0  0  0  0
 42 41  1  0  0  0  0
 43 45  1  0  0  0  0
 44 43  1  0  0  0  0
 45 47  2  0  0  0  0
 45 46  1  0  0  0  0
 47 48  1  0  0  0  0
 49 50  2  0  0  0  0
 49 58  1  0  0  0  0
 50 52  1  0  0  0  0
 51 50  1  0  0  0  0
 52 53  1  0  0  0  0
 52 54  2  0  0  0  0
 54 55  1  0  0  0  0
 56 54  1  0  0  0  0
 56 57  1  0  0  0  0
 58 56  2  0  0  0  0
 59 58  1  0  0  0  0
 60 36  1  0  0  0  0
 61 62  1  0  0  0  0
 61 37  1  0  0  0  0
 63 61  1  0  0  0  0
 64 61  1  0  0  0  0
 64 66  1  0  0  0  0
 65 64  1  0  0  0  0
 67 64  1  0  0  0  0
M  END
