33,36,37
q = -1.0, confidence = 0.0

 37 37  0  0  0  0  0  0  0  0999 V2000
    3.9002    1.2954    0.4418 C   0  0  0  0  0  0  0  0  0  0  0  0
    2.7101    0.4497    0.6798 C   0  0  0  0  0  0  0  0  0  0  0  0
    1.9091    1.1469   -0.2716 C   0  0  0  0  0  0  0  0  0  0  0  0
    3.0382    2.1318   -0.5214 C   0  0  0  0  0  0  0  0  0  0  0  0
    1.4597   -1.2310    2.0778 C   0  0  0  0  0  0  0  0  0  0  0  0
    0.6164   -0.5054    2.0879 H   0  0  0  0  0  0  0  0  0  0  0  0
    1.6488   -1.5291    3.1302 H   0  0  0  0  0  0  0  0  0  0  0  0
    1.0055   -2.4771    1.3058 C   0  0  0  0  0  0  0  0  0  0  0  0
    0.0354   -2.8443    1.6998 H   0  0  0  0  0  0  0  0  0  0  0  0
    1.7707   -3.2784    1.3366 H   0  0  0  0  0  0  0  0  0  0  0  0
   -0.2167   -3.4629   -1.0726 C   0  0  0  0  0  0  0  0  0  0  0  0
   -1.1532   -3.4965   -0.4793 H   0  0  0  0  0  0  0  0  0  0  0  0
   -0.4865   -3.1520   -2.1020 H   0  0  0  0  0  0  0  0  0  0  0  0
    0.5849   -4.7563   -1.0580 C   0  0  0  0  0  0  0  0  0  0  0  0
    1.5403   -4.6586   -1.6117 H   0  0  0  0  0  0  0  0  0  0  0  0
   -0.0077   -5.5596   -1.5409 H   0  0  0  0  0  0  0  0  0  0  0  0
    0.8125   -5.0930   -0.0270 H   0  0  0  0  0  0  0  0  0  0  0  0
    0.1908    2.2056   -1.5767 C   0  0  0  0  0  0  0  0  0  0  0  0
   -0.1791    1.8577   -2.5662 H   0  0  0  0  0  0  0  0  0  0  0  0
    1.0176    2.9300   -1.7517 H   0  0  0  0  0  0  0  0  0  0  0  0
   -0.9449    2.8859   -0.8118 C   0  0  0  0  0  0  0  0  0  0  0  0
   -1.4663    3.6585   -1.4103 H   0  0  0  0  0  0  0  0  0  0  0  0
   -0.5734    3.3314    0.1328 H   0  0  0  0  0  0  0  0  0  0  0  0
   -2.6135    1.9941    1.3794 C   0  0  0  0  0  0  0  0  0  0  0  0
   -3.1132    1.0659    1.7253 H   0  0  0  0  0  0  0  0  0  0  0  0
   -1.6612    2.0953    1.9376 H   0  0  0  0  0  0  0  0  0  0  0  0
   -3.5025    3.2242    1.4840 C   0  0  0  0  0  0  0  0  0  0  0  0
   -2.9886    4.1385    1.1244 H   0  0  0  0  0  0  0  0  0  0  0  0
   -3.7811    3.3947    2.5438 H   0  0  0  0  0  0  0  0  0  0  0  0
   -4.4362    3.0991    0.9007 H   0  0  0  0  0  0  0  0  0  0  0  0
    2.6468   -0.5910    1.5484 N   0  0  0  0  0  0  0  0  0  0  0  0
    3.5389   -0.7653    2.0210 H   0  0  0  0  0  0  0  0  0  0  0  0
    0.6844    1.0720   -0.7960 N   0  0  0  0  0  2  0  0  0  0  0  0
    5.0394    1.2749    0.8901 O   0  0  0  0  0  0  0  0  0  0  0  0
    3.1309    3.1533   -1.1868 O   0  0  0  0  0  0  0  0  0  0  0  0
    0.7465   -2.0210   -0.4560 S   0  0  0  0  0  0  0  0  0  0  0  0
   -2.1886    1.5781   -0.3626 S   0  0  0  0  0  0  0  0  0  0  0  0
  1  2  1  0  0  0  0
  1 34  2  0  0  0  0
  2 31  1  0  0  0  0
  3  2  2  0  0  0  0
  4  3  1  0  0  0  0
  4  1  1  0  0  0  0
  5  6  1  0  0  0  0
  5  7  1  0  0  0  0
  8 10  1  0  0  0  0
  8  9  1  0  0  0  0
  8  5  1  0  0  0  0
 11 14  1  0  0  0  0
 11 12  1  0  0  0  0
 11 36  1  0  0  0  0
 13 11  1  0  0  0  0
 14 17  1  0  0  0  0
 15 14  1  0  0  0  0
 16 14  1  0  0  0  0
 18 21  1  0  0  0  0
 18 33  1  0  0  0  0
 19 18  1  0  0  0  0
 20 18  1  0  0  0  0
 21 37  1  0  0  0  0
 21 23  1  0  0  0  0
 22 21  1  0  0  0  0
 24 27  1  0  0  0  0
 24 25  1  0  0  0  0
 24 26  1  0  0  0  0
 27 29  1  0  0  0  0
 28 27  1  0  0  0  0
 30 27  1  0  0  0  0
 31 32  1  0  0  0  0
 31  5  1  0  0  0  0
 33  3  1  0  0  0  0
 35  4  2  0  0  0  0
 36  8  1  0  0  0  0
 37 24  1  0  0  0  0
M  END
