1,2,3
q = -2.0, confidence = 0.54

 38 38  0  0  0  0  0  0  0  0999 V2000
    1.5140   -0.0359    1.3873 S   0  0  0  0  0  1  0  0  0  0  0  0
    1.5687   -3.5582   -0.4028 S   0  0  0  0  0  1  0  0  0  0  0  0
   -0.7769   -1.8437    0.5342 N   0  0  0  0  0  0  0  0  0  0  0  0
    0.0164   -0.4313    2.4012 C   0  0  0  0  0  0  0  0  0  0  0  0
    0.3406   -0.4527    3.4609 H   0  0  0  0  0  0  0  0  0  0  0  0
   -0.7441    0.3715    2.3081 H   0  0  0  0  0  0  0  0  0  0  0  0
   -0.5331   -1.7893    2.0014 C   0  0  0  0  0  0  0  0  0  0  0  0
    0.2189   -2.5669    2.2390 H   0  0  0  0  0  0  0  0  0  0  0  0
   -1.4688   -2.0349    2.5535 H   0  0  0  0  0  0  0  0  0  0  0  0
   -0.0505   -4.2246    0.2125 C   0  0  0  0  0  0  0  0  0  0  0  0
   -0.3044   -5.1278   -0.3778 H   0  0  0  0  0  0  0  0  0  0  0  0
    0.0919   -4.5533    1.2632 H   0  0  0  0  0  0  0  0  0  0  0  0
   -1.1670   -3.2074    0.0734 C   0  0  0  0  0  0  0  0  0  0  0  0
   -1.4382   -3.1022   -0.9956 H   0  0  0  0  0  0  0  0  0  0  0  0
   -2.0726   -3.5512    0.6247 H   0  0  0  0  0  0  0  0  0  0  0  0
   -1.7983   -0.8343    0.1005 C   0  0  0  0  0  0  0  0  0  0  0  0
   -1.9005   -0.9528   -0.9949 H   0  0  0  0  0  0  0  0  0  0  0  0
   -1.3520    0.1686    0.2456 H   0  0  0  0  0  0  0  0  0  0  0  0
   -3.1679   -0.9070    0.7785 C   0  0  0  0  0  0  0  0  0  0  0  0
   -3.6094   -1.9212    0.6682 H   0  0  0  0  0  0  0  0  0  0  0  0
   -3.0780   -0.7238    1.8710 H   0  0  0  0  0  0  0  0  0  0  0  0
   -4.1276    0.1272    0.1813 C   0  0  0  0  0  0  0  0  0  0  0  0
   -3.6869    1.1442    0.2736 H   0  0  0  0  0  0  0  0  0  0  0  0
   -4.2405   -0.0500   -0.9105 H   0  0  0  0  0  0  0  0  0  0  0  0
   -5.5177    0.1203    0.8402 C   0  0  0  0  0  0  0  0  0  0  0  0
   -5.9637   -0.8924    0.7372 H   0  0  0  0  0  0  0  0  0  0  0  0
   -5.4038    0.3036    1.9304 H   0  0  0  0  0  0  0  0  0  0  0  0
   -6.4491    1.1511    0.2449 C   0  0  0  0  0  0  0  0  0  0  0  0
   -7.2535    0.8396   -0.8699 C   0  0  0  0  0  0  0  0  0  0  0  0
   -7.2346   -0.1834   -1.2795 H   0  0  0  0  0  0  0  0  0  0  0  0
   -8.0786    1.8100   -1.4578 C   0  0  0  0  0  0  0  0  0  0  0  0
   -8.7028    1.5453   -2.3251 H   0  0  0  0  0  0  0  0  0  0  0  0
   -8.1118    3.1140   -0.9392 C   0  0  0  0  0  0  0  0  0  0  0  0
   -8.7603    3.8760   -1.3975 H   0  0  0  0  0  0  0  0  0  0  0  0
   -7.3157    3.4386    0.1705 C   0  0  0  0  0  0  0  0  0  0  0  0
   -7.3386    4.4574    0.5868 H   0  0  0  0  0  0  0  0  0  0  0  0
   -6.4923    2.4645    0.7548 C   0  0  0  0  0  0  0  0  0  0  0  0
   -5.8724    2.7246    1.6282 H   0  0  0  0  0  0  0  0  0  0  0  0
  1  4  1  0  0  0  0
  2 10  1  0  0  0  0
  3  7  1  0  0  0  0
  4  5  1  0  0  0  0
  6  4  1  0  0  0  0
  7  8  1  0  0  0  0
  7  4  1  0  0  0  0
  7  9  1  0  0  0  0
 10 12  1  0  0  0  0
 11 10  1  0  0  0  0
 13 10  1  0  0  0  0
 13  3  1  0  0  0  0
 13 15  1  0  0  0  0
 14 13  1  0  0  0  0
 16 18  1  0  0  0  0
 16  3  1  0  0  0  0
 16 19  1  0  0  0  0
 17 16  1  0  0  0  0
 19 21  1  0  0  0  0
 20 19  1  0  0  0  0
 22 23  1  0  0  0  0
 22 19  1  0  0  0  0
 22 25  1  0  0  0  0
 24 22  1  0  0  0  0
 25 27  1  0  0  0  0
 26 25  1  0  0  0  0
 28 37  1  0  0  0  0
 28 25  1  0  0  0  0
 29 28  2  0  0  0  0
 30 29  1  0  0  0  0
 31 33  2  0  0  0  0
 31 29  1  0  0  0  0
 32 31  1  0  0  0  0
 33 35  1  0  0  0  0
 34 33  1  0  0  0  0
 35 36  1  0  0  0  0
 35 37  2  0  0  0  0
 37 38  1  0  0  0  0
M  END
