1,2,3
q = 0.0, confidence = 0.998

 59 62  0  0  1  0  0  0  0  0999 V2000
   -0.0191   -2.0923    0.8157 S   0  0  0  0  0  0  0  0  0  0  0  0
   -2.1739    1.5059   -1.6826 S   0  0  0  0  0  0  0  0  0  0  0  0
    1.3916    1.5716   -0.1128 N   0  0  0  0  0  2  0  0  0  0  0  0
   -1.7561   -1.7523   -1.9588 N   0  0  0  0  0  0  0  0  0  0  0  0
   -1.4493   -1.7983   -2.9376 H   0  0  0  0  0  0  0  0  0  0  0  0
   -1.0792    2.0719    1.3648 O   0  0  0  0  0  0  0  0  0  0  0  0
    2.3141   -0.6380   -1.4999 O   0  0  0  0  0  0  0  0  0  0  0  0
    0.2195    2.0868    1.9526 C   0  0  0  0  0  0  0  0  0  0  0  0
    0.4880    1.0772    2.3320 H   0  0  0  0  0  0  0  0  0  0  0  0
    0.2483    2.8037    2.8003 H   0  0  0  0  0  0  0  0  0  0  0  0
    1.2299    2.4608    0.8905 C   0  0  1  0  0  3  0  0  0  0  0  0
    1.9926    3.6360    0.9614 C   0  0  0  0  0  0  0  0  0  0  0  0
    1.8334    4.3485    1.7837 H   0  0  0  0  0  0  0  0  0  0  0  0
    2.9587    3.8762   -0.0275 C   0  0  0  0  0  0  0  0  0  0  0  0
    3.5677    4.7919   -0.0015 H   0  0  0  0  0  0  0  0  0  0  0  0
    3.1572    2.9189   -1.0293 C   0  0  0  0  0  0  0  0  0  0  0  0
    3.9386    3.0510   -1.7928 H   0  0  0  0  0  0  0  0  0  0  0  0
    2.3517    1.7668   -1.0335 C   0  0  0  0  0  0  0  0  0  0  0  0
    2.5424    0.6534   -2.0534 C   0  0  0  0  0  0  0  0  0  0  0  0
    1.7921    0.7499   -2.8657 H   0  0  0  0  0  0  0  0  0  0  0  0
    3.5492    0.7261   -2.5193 H   0  0  0  0  0  0  0  0  0  0  0  0
    3.1214   -1.0600   -0.4642 C   0  0  0  0  0  0  0  0  0  0  0  0
    4.3318   -0.4333   -0.1181 C   0  0  0  0  0  0  0  0  0  0  0  0
    4.6911    0.4429   -0.6725 H   0  0  0  0  0  0  0  0  0  0  0  0
    5.1001   -0.9298    0.9462 C   0  0  0  0  0  0  0  0  0  0  0  0
    6.0464   -0.4311    1.2031 H   0  0  0  0  0  0  0  0  0  0  0  0
    4.6707   -2.0483    1.6729 C   0  0  0  0  0  0  0  0  0  0  0  0
    5.2720   -2.4368    2.5071 H   0  0  0  0  0  0  0  0  0  0  0  0
    3.4664   -2.6718    1.3200 C   0  0  0  0  0  0  0  0  0  0  0  0
    3.1197   -3.5545    1.8798 H   0  0  0  0  0  0  0  0  0  0  0  0
    2.6786   -2.2011    0.2534 C   0  0  0  0  0  0  0  0  0  0  0  0
    1.3898   -2.8835   -0.1016 C   0  0  0  0  0  0  0  0  0  0  0  0
    1.4106   -3.9502    0.1969 H   0  0  0  0  0  0  0  0  0  0  0  0
    1.1880   -2.8075   -1.1863 H   0  0  0  0  0  0  0  0  0  0  0  0
   -1.4449   -3.0523    0.1795 C   0  0  0  0  0  0  0  0  0  0  0  0
   -1.3545   -4.0939    0.5501 H   0  0  0  0  0  0  0  0  0  0  0  0
   -2.3174   -2.5972    0.6935 H   0  0  0  0  0  0  0  0  0  0  0  0
   -1.6178   -3.0721   -1.3446 C   0  0  0  0  0  0  0  0  0  0  0  0
   -0.7446   -3.5751   -1.8055 H   0  0  0  0  0  0  0  0  0  0  0  0
   -2.4983   -3.7252   -1.5635 H   0  0  0  0  0  0  0  0  0  0  0  0
   -3.1047   -1.1929   -1.8916 C   0  0  0  0  0  0  0  0  0  0  0  0
   -3.4177   -1.1572   -0.8287 H   0  0  0  0  0  0  0  0  0  0  0  0
   -3.8490   -1.8368   -2.4236 H   0  0  0  0  0  0  0  0  0  0  0  0
   -3.1820    0.2073   -2.4960 C   0  0  0  0  0  0  0  0  0  0  0  0
   -4.2320    0.5618   -2.5215 H   0  0  0  0  0  0  0  0  0  0  0  0
   -2.8269    0.1996   -3.5488 H   0  0  0  0  0  0  0  0  0  0  0  0
   -3.2591    1.9997   -0.2562 C   0  0  0  0  0  0  0  0  0  0  0  0
   -2.9078    3.0228   -0.0211 H   0  0  0  0  0  0  0  0  0  0  0  0
   -4.2912    2.0684   -0.6516 H   0  0  0  0  0  0  0  0  0  0  0  0
   -3.1756    1.1040    0.9428 C   0  0  0  0  0  0  0  0  0  0  0  0
   -4.1913    0.1909    1.2722 C   0  0  0  0  0  0  0  0  0  0  0  0
   -5.1010    0.1620    0.6513 H   0  0  0  0  0  0  0  0  0  0  0  0
   -4.0690   -0.6690    2.3763 C   0  0  0  0  0  0  0  0  0  0  0  0
   -4.8768   -1.3734    2.6215 H   0  0  0  0  0  0  0  0  0  0  0  0
   -2.9202   -0.5993    3.1773 C   0  0  0  0  0  0  0  0  0  0  0  0
   -2.8170   -1.2542    4.0552 H   0  0  0  0  0  0  0  0  0  0  0  0
   -1.8983    0.3207    2.8873 C   0  0  0  0  0  0  0  0  0  0  0  0
   -1.0202    0.3768    3.5442 H   0  0  0  0  0  0  0  0  0  0  0  0
   -2.0190    1.1606    1.7669 C   0  0  0  0  0  0  0  0  0  0  0  0
  2 47  1  0  0  0  0
  4 41  1  0  0  0  0
  4 38  1  0  0  0  0
  5  4  1  0  0  0  0
  6 59  1  0  0  0  0
  6  8  1  0  0  0  0
  7 22  1  0  0  0  0
  8  9  1  0  0  0  0
  8 10  1  0  0  0  0
 11  3  1  1  0  0  0
 11 12  1  0  0  0  0
 11  8  1  0  0  0  0
 12 13  1  0  0  0  0
 14 15  1  0  0  0  0
 14 12  2  0  0  0  0
 16 14  1  0  0  0  0
 17 16  1  0  0  0  0
 18 16  2  0  0  0  0
 18  3  1  0  0  0  0
 19  7  1  0  0  0  0
 19 18  1  0  0  0  0
 20 19  1  0  0  0  0
 21 19  1  0  0  0  0
 22 23  2  0  0  0  0
 22 31  1  0  0  0  0
 23 25  1  0  0  0  0
 24 23  1  0  0  0  0
 25 26  1  0  0  0  0
 25 27  2  0  0  0  0
 27 28  1  0  0  0  0
 29 27  1  0  0  0  0
 29 30  1  0  0  0  0
 31 29  2  0  0  0  0
 32 33  1  0  0  0  0
 32 31  1  0  0  0  0
 32  1  1  0  0  0  0
 34 32  1  0  0  0  0
 35 36  1  0  0  0  0
 35 37  1  0  0  0  0
 35  1  1  0  0  0  0
 38 35  1  0  0  0  0
 39 38  1  0  0  0  0
 40 38  1  0  0  0  0
 41 42  1  0  0  0  0
 43 41  1  0  0  0  0
 44 41  1  0  0  0  0
 44  2  1  0  0  0  0
 45 44  1  0  0  0  0
 46 44  1  0  0  0  0
 47 48  1  0  0  0  0
 47 50  1  0  0  0  0
 49 47  1  0  0  0  0
 50 51  2  0  0  0  0
 50 59  1  0  0  0  0
 51 53  1  0  0  0  0
 52 51  1  0  0  0  0
 53 54  1  0  0  0  0
 53 55  2  0  0  0  0
 55 56  1  0  0  0  0
 57 55  1  0  0  0  0
 57 58  1  0  0  0  0
 59 57  2  0  0  0  0
M  END
