3,4,6
q = -1.0

 73 78  0  0  1  0  0  0  0  0999 V2000
    0.2723    0.3528    2.6080 B   0  0  2  0  0  0  0  0  0  0  0  0
    0.4052    0.4585    3.8219 H   0  0  0  0  0  0  0  0  0  0  0  0
    2.2931    1.0800   -0.1826 S   0  0  0  0  0  1  0  0  0  0  0  0
   -0.5285   -1.5315   -0.1557 S   0  0  0  0  0  1  0  0  0  0  0  0
    0.0636    1.7577    2.0193 N   0  0  0  0  0  0  0  0  0  0  0  0
   -0.6472    1.9662    0.8712 N   0  0  0  0  0  2  0  0  0  0  0  0
    1.5350   -0.3970    2.0755 N   0  0  0  0  0  0  0  0  0  0  0  0
    3.2999   -1.1605    0.9975 N   0  0  0  0  0  0  0  0  0  0  0  0
   -1.0185   -0.4974    2.3831 N   0  0  0  0  0  0  0  0  0  0  0  0
   -2.6584   -1.7086    1.5431 N   0  0  0  0  0  0  0  0  0  0  0  0
    1.2569    3.0512    3.8173 C   0  0  0  0  0  0  0  0  0  0  0  0
    2.2245    2.5190    3.7168 H   0  0  0  0  0  0  0  0  0  0  0  0
    0.7301    2.6082    4.6867 H   0  0  0  0  0  0  0  0  0  0  0  0
    1.4689    4.1126    4.0420 H   0  0  0  0  0  0  0  0  0  0  0  0
    0.4509    2.9480    2.5648 C   0  0  1  0  0  3  0  0  0  0  0  0
   -0.0431    3.9637    1.7431 C   0  0  0  0  0  0  0  0  0  0  0  0
    0.0520    5.0410    1.9093 H   0  0  0  0  0  0  0  0  0  0  0  0
   -0.7328    3.3104    0.6942 C   0  0  0  0  0  0  0  0  0  0  0  0
   -1.4720    3.9133   -0.4226 C   0  0  0  0  0  0  0  0  0  0  0  0
   -2.5228    3.2168   -1.0567 C   0  0  0  0  0  0  0  0  0  0  0  0
   -2.7760    2.2048   -0.7168 H   0  0  0  0  0  0  0  0  0  0  0  0
   -3.2343    3.8057   -2.1081 C   0  0  0  0  0  0  0  0  0  0  0  0
   -4.0404    3.2410   -2.5999 H   0  0  0  0  0  0  0  0  0  0  0  0
   -2.9144    5.1017   -2.5401 C   0  0  0  0  0  0  0  0  0  0  0  0
   -3.4732    5.5627   -3.3687 H   0  0  0  0  0  0  0  0  0  0  0  0
   -1.8714    5.8059   -1.9154 C   0  0  0  0  0  0  0  0  0  0  0  0
   -1.6074    6.8187   -2.2558 H   0  0  0  0  0  0  0  0  0  0  0  0
   -1.1552    5.2167   -0.8665 C   0  0  0  0  0  0  0  0  0  0  0  0
   -0.3223    5.7617   -0.3974 H   0  0  0  0  0  0  0  0  0  0  0  0
    2.3401   -0.1697    0.9919 C   0  0  2  0  0  3  0  0  0  0  0  0
    1.9965   -1.5228    2.7456 C   0  0  0  0  0  0  0  0  0  0  0  0
    1.4940   -1.8921    3.6438 H   0  0  0  0  0  0  0  0  0  0  0  0
    3.0953   -2.0022    2.0861 C   0  0  0  0  0  0  0  0  0  0  0  0
    3.7452   -2.8605    2.2752 H   0  0  0  0  0  0  0  0  0  0  0  0
    4.3610   -1.2986    0.0419 C   0  0  0  0  0  0  0  0  0  0  0  0
    4.0893   -1.7511   -1.2714 C   0  0  0  0  0  0  0  0  0  0  0  0
    5.1896   -1.8861   -2.1383 C   0  0  0  0  0  0  0  0  0  0  0  0
    4.9988   -2.2389   -3.1649 H   0  0  0  0  0  0  0  0  0  0  0  0
    6.5129   -1.5989   -1.7508 C   0  0  0  0  0  0  0  0  0  0  0  0
    6.7402   -1.1656   -0.4302 C   0  0  0  0  0  0  0  0  0  0  0  0
    7.7643   -0.9384   -0.0962 H   0  0  0  0  0  0  0  0  0  0  0  0
    5.6701   -1.0139    0.4586 C   0  0  0  0  0  0  0  0  0  0  0  0
    5.8383   -0.6630    1.4875 H   0  0  0  0  0  0  0  0  0  0  0  0
    2.6958   -2.0665   -1.7351 C   0  0  0  0  0  0  0  0  0  0  0  0
    2.0905   -2.5478   -0.9417 H   0  0  0  0  0  0  0  0  0  0  0  0
    2.7107   -2.7255   -2.6237 H   0  0  0  0  0  0  0  0  0  0  0  0
    2.1596   -1.1312   -2.0069 H   0  0  0  0  0  0  0  0  0  0  0  0
    7.6465   -1.7318   -2.7362 C   0  0  0  0  0  0  0  0  0  0  0  0
    8.6276   -1.7950   -2.2268 H   0  0  0  0  0  0  0  0  0  0  0  0
    7.6824   -0.8545   -3.4172 H   0  0  0  0  0  0  0  0  0  0  0  0
    7.5283   -2.6299   -3.3749 H   0  0  0  0  0  0  0  0  0  0  0  0
   -1.3986   -1.2131    1.2829 C   0  0  2  0  0  3  0  0  0  0  0  0
   -2.0396   -0.5487    3.3232 C   0  0  0  0  0  0  0  0  0  0  0  0
   -1.9499   -0.0329    4.2832 H   0  0  0  0  0  0  0  0  0  0  0  0
   -3.0618   -1.3044    2.8130 C   0  0  0  0  0  0  0  0  0  0  0  0
   -4.0378   -1.5832    3.2186 H   0  0  0  0  0  0  0  0  0  0  0  0
   -3.4415   -2.4902    0.6308 C   0  0  0  0  0  0  0  0  0  0  0  0
   -3.9968   -1.8871   -0.5231 C   0  0  0  0  0  0  0  0  0  0  0  0
   -4.7675   -2.7123   -1.3635 C   0  0  0  0  0  0  0  0  0  0  0  0
   -5.2104   -2.2616   -2.2665 H   0  0  0  0  0  0  0  0  0  0  0  0
   -5.0006   -4.0751   -1.0967 C   0  0  0  0  0  0  0  0  0  0  0  0
   -4.4432   -4.6302    0.0721 C   0  0  0  0  0  0  0  0  0  0  0  0
   -4.6146   -5.6912    0.3108 H   0  0  0  0  0  0  0  0  0  0  0  0
   -3.6652   -3.8430    0.9279 C   0  0  0  0  0  0  0  0  0  0  0  0
   -3.2141   -4.2729    1.8344 H   0  0  0  0  0  0  0  0  0  0  0  0
   -3.7787   -0.4378   -0.8551 C   0  0  0  0  0  0  0  0  0  0  0  0
   -3.6832    0.1821    0.0584 H   0  0  0  0  0  0  0  0  0  0  0  0
   -4.6154   -0.0408   -1.4617 H   0  0  0  0  0  0  0  0  0  0  0  0
   -2.8428   -0.2960   -1.4410 H   0  0  0  0  0  0  0  0  0  0  0  0
   -5.8056   -4.9179   -2.0532 C   0  0  0  0  0  0  0  0  0  0  0  0
   -6.2182   -5.8189   -1.5589 H   0  0  0  0  0  0  0  0  0  0  0  0
   -5.1743   -5.2651   -2.8993 H   0  0  0  0  0  0  0  0  0  0  0  0
   -6.6470   -4.3460   -2.4926 H   0  0  0  0  0  0  0  0  0  0  0  0
  1  2  1  1  0  0  0
  5 15  1  0  0  0  0
  5  1  1  0  0  0  0
  6  5  1  0  0  0  0
  7  1  1  0  0  0  0
  7 31  1  0  0  0  0
  8 33  1  0  0  0  0
  9  1  1  0  0  0  0
  9 53  1  0  0  0  0
 10 55  1  0  0  0  0
 11 14  1  0  0  0  0
 11 13  1  0  0  0  0
 12 11  1  0  0  0  0
 15 11  1  6  0  0  0
 16 17  1  0  0  0  0
 16 15  1  0  0  0  0
 18  6  1  0  0  0  0
 18 16  2  0  0  0  0
 19 18  1  0  0  0  0
 20 21  1  0  0  0  0
 20 19  2  0  0  0  0
 22 20  1  0  0  0  0
 23 22  1  0  0  0  0
 24 22  2  0  0  0  0
 24 26  1  0  0  0  0
 25 24  1  0  0  0  0
 26 28  2  0  0  0  0
 27 26  1  0  0  0  0
 28 19  1  0  0  0  0
 28 29  1  0  0  0  0
 30  3  1  1  0  0  0
 30  8  1  0  0  0  0
 30  7  1  0  0  0  0
 31 32  1  0  0  0  0
 33 34  1  0  0  0  0
 33 31  2  0  0  0  0
 35 42  1  0  0  0  0
 35  8  1  0  0  0  0
 36 35  2  0  0  0  0
 37 39  2  0  0  0  0
 37 36  1  0  0  0  0
 38 37  1  0  0  0  0
 39 40  1  0  0  0  0
 40 41  1  0  0  0  0
 40 42  2  0  0  0  0
 42 43  1  0  0  0  0
 44 36  1  0  0  0  0
 44 45  1  0  0  0  0
 46 44  1  0  0  0  0
 47 44  1  0  0  0  0
 48 49  1  0  0  0  0
 48 39  1  0  0  0  0
 50 48  1  0  0  0  0
 51 48  1  0  0  0  0
 52  4  1  1  0  0  0
 52 10  1  0  0  0  0
 52  9  1  0  0  0  0
 53 54  1  0  0  0  0
 55 56  1  0  0  0  0
 55 53  2  0  0  0  0
 57 64  1  0  0  0  0
 57 10  1  0  0  0  0
 58 57  2  0  0  0  0
 59 61  2  0  0  0  0
 59 58  1  0  0  0  0
 60 59  1  0  0  0  0
 61 62  1  0  0  0  0
 62 63  1  0  0  0  0
 62 64  2  0  0  0  0
 64 65  1  0  0  0  0
 66 58  1  0  0  0  0
 66 67  1  0  0  0  0
 68 66  1  0  0  0  0
 69 66  1  0  0  0  0
 70 71  1  0  0  0  0
 70 61  1  0  0  0  0
 72 70  1  0  0  0  0
 73 70  1  0  0  0  0
M  END
