1,2,3
q = -1.0

 54 55  0  0  0  0  0  0  0  0999 V2000
    0.1640    2.0408    0.4853 S   0  0  0  0  0  0  0  0  0  0  0  0
   -0.3400   -0.8511   -1.6196 S   0  0  0  0  0  0  0  0  0  0  0  0
    0.2917   -0.5211    1.6213 N   0  0  0  0  0  2  0  0  0  0  0  0
    1.5894   -0.5555    1.2212 N   0  0  0  0  0  0  0  0  0  0  0  0
    2.0796   -0.0617   -0.2115 B   0  0  0  0  0  0  0  0  0  0  0  0
    1.6235    1.5132   -0.4675 C   0  0  0  0  0  0  0  0  0  0  0  0
    1.4076    1.6554   -1.5461 H   0  0  0  0  0  0  0  0  0  0  0  0
    2.4299    2.2167   -0.1827 H   0  0  0  0  0  0  0  0  0  0  0  0
   -0.5310    3.4822   -0.5159 C   0  0  0  0  0  0  0  0  0  0  0  0
    0.5823    4.5371   -0.5764 C   0  0  0  0  0  0  0  0  0  0  0  0
    0.1833    5.4520   -1.0631 H   0  0  0  0  0  0  0  0  0  0  0  0
    1.4492    4.1912   -1.1718 H   0  0  0  0  0  0  0  0  0  0  0  0
    0.9373    4.8130    0.4368 H   0  0  0  0  0  0  0  0  0  0  0  0
   -1.7114    4.0059    0.3115 C   0  0  0  0  0  0  0  0  0  0  0  0
   -2.1463    4.8947   -0.1918 H   0  0  0  0  0  0  0  0  0  0  0  0
   -1.3830    4.3126    1.3250 H   0  0  0  0  0  0  0  0  0  0  0  0
   -2.4975    3.2359    0.4103 H   0  0  0  0  0  0  0  0  0  0  0  0
   -0.9552    3.0455   -1.9187 C   0  0  0  0  0  0  0  0  0  0  0  0
   -1.3656    3.9219   -2.4640 H   0  0  0  0  0  0  0  0  0  0  0  0
   -1.7233    2.2541   -1.8701 H   0  0  0  0  0  0  0  0  0  0  0  0
   -0.0960    2.6659   -2.5061 H   0  0  0  0  0  0  0  0  0  0  0  0
    1.4485   -1.0794   -1.3335 C   0  0  0  0  0  0  0  0  0  0  0  0
    1.6184   -2.1253   -1.0039 H   0  0  0  0  0  0  0  0  0  0  0  0
    1.9600   -0.9521   -2.3104 H   0  0  0  0  0  0  0  0  0  0  0  0
   -0.9980   -2.5853   -1.8671 C   0  0  0  0  0  0  0  0  0  0  0  0
   -2.4928   -2.3794   -2.1458 C   0  0  0  0  0  0  0  0  0  0  0  0
   -2.9875   -3.3612   -2.2998 H   0  0  0  0  0  0  0  0  0  0  0  0
   -2.6487   -1.7669   -3.0568 H   0  0  0  0  0  0  0  0  0  0  0  0
   -2.9918   -1.8713   -1.2972 H   0  0  0  0  0  0  0  0  0  0  0  0
   -0.7941   -3.4114   -0.5919 C   0  0  0  0  0  0  0  0  0  0  0  0
   -1.2403   -4.4213   -0.7195 H   0  0  0  0  0  0  0  0  0  0  0  0
   -1.2610   -2.9158    0.2806 H   0  0  0  0  0  0  0  0  0  0  0  0
    0.2814   -3.5541   -0.3644 H   0  0  0  0  0  0  0  0  0  0  0  0
   -0.3042   -3.2312   -3.0705 C   0  0  0  0  0  0  0  0  0  0  0  0
   -0.7181   -4.2473   -3.2490 H   0  0  0  0  0  0  0  0  0  0  0  0
    0.7856   -3.3390   -2.9007 H   0  0  0  0  0  0  0  0  0  0  0  0
   -0.4532   -2.6270   -3.9874 H   0  0  0  0  0  0  0  0  0  0  0  0
    0.2027   -1.1186    2.8316 C   0  0  0  0  0  3  0  0  0  0  0  0
   -0.7692   -1.1992    3.3258 H   0  0  0  0  0  0  0  0  0  0  0  0
    1.4738   -1.5667    3.2221 C   0  0  0  0  0  0  0  0  0  0  0  0
    1.7459   -2.0875    4.1452 H   0  0  0  0  0  0  0  0  0  0  0  0
    2.3200   -1.1917    2.1727 C   0  0  0  0  0  0  0  0  0  0  0  0
    3.3955   -1.3320    2.0303 H   0  0  0  0  0  0  0  0  0  0  0  0
    3.7131   -0.1258   -0.2106 C   0  0  0  0  0  0  0  0  0  0  0  0
    4.4552   -1.0373   -0.9937 C   0  0  0  0  0  0  0  0  0  0  0  0
    3.9270   -1.7436   -1.6537 H   0  0  0  0  0  0  0  0  0  0  0  0
    5.8602   -1.0790   -0.9617 C   0  0  0  0  0  0  0  0  0  0  0  0
    6.4020   -1.8028   -1.5911 H   0  0  0  0  0  0  0  0  0  0  0  0
    6.5723   -0.2028   -0.1297 C   0  0  0  0  0  0  0  0  0  0  0  0
    7.6726   -0.2317   -0.1007 H   0  0  0  0  0  0  0  0  0  0  0  0
    5.8641    0.7126    0.6667 C   0  0  0  0  0  0  0  0  0  0  0  0
    6.4090    1.4053    1.3278 H   0  0  0  0  0  0  0  0  0  0  0  0
    4.4626    0.7458    0.6173 C   0  0  0  0  0  0  0  0  0  0  0  0
    3.9303    1.4685    1.2594 H   0  0  0  0  0  0  0  0  0  0  0  0
  2 22  1  0  0  0  0
  3 38  1  0  0  0  0
  4  3  1  0  0  0  0
  4 42  1  0  0  0  0
  5 44  1  0  0  0  0
  5  4  1  0  0  0  0
  6  5  1  0  0  0  0
  6  8  1  0  0  0  0
  6  1  1  0  0  0  0
  7  6  1  0  0  0  0
  9 14  1  0  0  0  0
  9  1  1  0  0  0  0
 10  9  1  0  0  0  0
 10 13  1  0  0  0  0
 11 10  1  0  0  0  0
 12 10  1  0  0  0  0
 14 17  1  0  0  0  0
 14 16  1  0  0  0  0
 15 14  1  0  0  0  0
 18 20  1  0  0  0  0
 18  9  1  0  0  0  0
 19 18  1  0  0  0  0
 21 18  1  0  0  0  0
 22 23  1  0  0  0  0
 22  5  1  0  0  0  0
 24 22  1  0  0  0  0
 25  2  1  0  0  0  0
 25 30  1  0  0  0  0
 26 25  1  0  0  0  0
 26 29  1  0  0  0  0
 27 26  1  0  0  0  0
 28 26  1  0  0  0  0
 30 33  1  0  0  0  0
 30 32  1  0  0  0  0
 31 30  1  0  0  0  0
 34 36  1  0  0  0  0
 34 25  1  0  0  0  0
 35 34  1  0  0  0  0
 37 34  1  0  0  0  0
 38 40  1  0  0  0  0
 38 39  1  0  0  0  0
 40 41  1  0  0  0  0
 42 40  2  0  0  0  0
 43 42  1  0  0  0  0
 44 53  1  0  0  0  0
 45 47  1  0  0  0  0
 45 44  2  0  0  0  0
 46 45  1  0  0  0  0
 47 49  2  0  0  0  0
 48 47  1  0  0  0  0
 49 50  1  0  0  0  0
 49 51  1  0  0  0  0
 51 52  1  0  0  0  0
 53 51  2  0  0  0  0
 53 54  1  0  0  0  0
M  END
