1,2,5
q = -1.0

 43 45  0  0  1  0  0  0  0  0999 V2000
    2.3773    0.6973   -0.2754 S   0  0  0  0  0  1  0  0  0  0  0  0
   -2.3773    0.6975   -0.2755 S   0  0  0  0  0  1  0  0  0  0  0  0
    3.5269   -1.0711   -1.9490 N   0  0  0  0  0  0  0  0  0  0  0  0
   -3.5269   -1.0710   -1.9492 N   0  0  0  0  0  0  0  0  0  0  0  0
    0.0000   -0.4498   -1.4149 N   0  0  0  0  0  0  0  0  0  0  0  0
    6.5093   -2.6612   -1.0116 C   0  0  0  0  0  0  0  0  0  0  0  0
    7.0020   -3.6995   -0.2048 C   0  0  0  0  0  0  0  0  0  0  0  0
   -2.3788   -0.5550   -1.4769 C   0  0  1  0  0  3  0  0  0  0  0  0
   -1.1118   -1.0341   -1.9620 C   0  0  0  0  0  0  0  0  0  0  0  0
   -0.6992   -2.0325   -2.9037 C   0  0  0  0  0  0  0  0  0  0  0  0
    2.3788   -0.5551   -1.4768 C   0  0  2  0  0  3  0  0  0  0  0  0
    1.1118   -1.0341   -1.9619 C   0  0  0  0  0  3  0  0  0  0  0  0
   -4.8718   -0.7708   -1.4597 C   0  0  0  0  0  0  0  0  0  0  0  0
   -5.3169   -3.1903    1.4699 C   0  0  0  0  0  0  0  0  0  0  0  0
    5.4216   -1.8786   -0.5828 C   0  0  0  0  0  0  0  0  0  0  0  0
   -4.8272   -2.1516    0.6674 C   0  0  0  0  0  0  0  0  0  0  0  0
    4.8718   -0.7711   -1.4595 C   0  0  0  0  0  0  0  0  0  0  0  0
    0.6993   -2.0325   -2.9037 C   0  0  0  0  0  0  0  0  0  0  0  0
   -5.4218   -1.8782   -0.5830 C   0  0  0  0  0  0  0  0  0  0  0  0
   -6.5101   -2.6601   -1.0114 C   0  0  0  0  0  0  0  0  0  0  0  0
    6.4053   -3.9666    1.0360 C   0  0  0  0  0  0  0  0  0  0  0  0
   -6.4059   -3.9658    1.0360 C   0  0  0  0  0  0  0  0  0  0  0  0
    4.8275   -2.1514    0.6679 C   0  0  0  0  0  0  0  0  0  0  0  0
    5.3169   -3.1904    1.4702 C   0  0  0  0  0  0  0  0  0  0  0  0
   -7.0031   -3.6982   -0.2045 C   0  0  0  0  0  0  0  0  0  0  0  0
    6.9813   -2.4520   -1.9851 H   0  0  0  0  0  0  0  0  0  0  0  0
    7.8565   -4.3014   -0.5484 H   0  0  0  0  0  0  0  0  0  0  0  0
   -4.8520   -3.3931    2.4466 H   0  0  0  0  0  0  0  0  0  0  0  0
   -3.9806   -1.5359    1.0112 H   0  0  0  0  0  0  0  0  0  0  0  0
   -6.9825   -2.4506   -1.9846 H   0  0  0  0  0  0  0  0  0  0  0  0
    6.7912   -4.7791    1.6697 H   0  0  0  0  0  0  0  0  0  0  0  0
   -6.7921   -4.7782    1.6698 H   0  0  0  0  0  0  0  0  0  0  0  0
    3.9814   -1.5352    1.0120 H   0  0  0  0  0  0  0  0  0  0  0  0
    4.8524   -3.3927    2.4473 H   0  0  0  0  0  0  0  0  0  0  0  0
   -7.8581   -4.2995   -0.5477 H   0  0  0  0  0  0  0  0  0  0  0  0
   -4.8059    0.1869   -0.9053 H   0  0  0  0  0  0  0  0  0  0  0  0
   -5.5335   -0.6061   -2.3344 H   0  0  0  0  0  0  0  0  0  0  0  0
    5.5335   -0.6063   -2.3341 H   0  0  0  0  0  0  0  0  0  0  0  0
    4.8059    0.1866   -0.9050 H   0  0  0  0  0  0  0  0  0  0  0  0
    3.4442   -1.8653   -2.5893 H   0  0  0  0  0  0  0  0  0  0  0  0
   -1.3437   -2.6768   -3.5142 H   0  0  0  0  0  0  0  0  0  0  0  0
    1.3438   -2.6768   -3.5142 H   0  0  0  0  0  0  0  0  0  0  0  0
   -3.4441   -1.8652   -2.5894 H   0  0  0  0  0  0  0  0  0  0  0  0
  3 11  1  0  0  0  0
  3 17  1  0  0  0  0
  4  8  1  0  0  0  0
  4 13  1  0  0  0  0
  6 15  2  0  0  0  0
  6  7  1  0  0  0  0
  7 21  2  0  0  0  0
  8  2  1  6  0  0  0
  9  8  1  0  0  0  0
  9  5  2  0  0  0  0
 10 18  2  0  0  0  0
 10  9  1  0  0  0  0
 11  1  1  6  0  0  0
 12 11  1  0  0  0  0
 12  5  1  0  0  0  0
 13 36  1  0  0  0  0
 13 19  1  0  0  0  0
 14 28  1  0  0  0  0
 15 23  1  0  0  0  0
 16 29  1  0  0  0  0
 16 14  2  0  0  0  0
 17 39  1  0  0  0  0
 17 15  1  0  0  0  0
 18 12  1  0  0  0  0
 19 16  1  0  0  0  0
 20 19  2  0  0  0  0
 20 25  1  0  0  0  0
 21 24  1  0  0  0  0
 21 31  1  0  0  0  0
 22 14  1  0  0  0  0
 22 32  1  0  0  0  0
 23 33  1  0  0  0  0
 23 24  2  0  0  0  0
 24 34  1  0  0  0  0
 25 22  2  0  0  0  0
 26  6  1  0  0  0  0
 27  7  1  0  0  0  0
 30 20  1  0  0  0  0
 35 25  1  0  0  0  0
 37 13  1  0  0  0  0
 38 17  1  0  0  0  0
 40  3  1  0  0  0  0
 41 10  1  0  0  0  0
 42 18  1  0  0  0  0
 43  4  1  0  0  0  0
M  END
