1,2,3
q = -1.0

 38 40  0  0  1  0  0  0  0  0999 V2000
   -2.2901   -1.1462   -0.0722 S   0  0  0  0  0  1  0  0  0  0  0  0
    2.3066   -1.2098    0.0330 S   0  0  0  0  0  1  0  0  0  0  0  0
    0.0251    0.6737   -0.0644 N   0  0  0  0  0  2  0  0  0  0  0  0
   -1.1621    1.3633   -0.1158 C   0  0  0  0  0  0  0  0  0  0  0  0
   -1.1568    2.7654   -0.2450 C   0  0  0  0  0  0  0  0  0  0  0  0
   -2.0942    3.3302   -0.3555 H   0  0  0  0  0  0  0  0  0  0  0  0
    0.0606    3.4589   -0.2737 C   0  0  0  0  0  0  0  0  0  0  0  0
    0.0706    4.5537   -0.3770 H   0  0  0  0  0  0  0  0  0  0  0  0
    1.2532    2.7402   -0.1818 C   0  0  0  0  0  0  0  0  0  0  0  0
    2.2510    3.2003   -0.1938 H   0  0  0  0  0  0  0  0  0  0  0  0
    1.2157    1.3368   -0.0873 C   0  0  0  0  0  0  0  0  0  0  0  0
   -2.3971    0.5518   -0.0492 C   0  0  2  0  0  3  0  0  0  0  0  0
   -3.5646    1.2430    0.0566 N   0  0  0  0  0  0  0  0  0  0  0  0
   -3.4421    2.2441    0.2268 H   0  0  0  0  0  0  0  0  0  0  0  0
   -4.9176    0.8594    0.0771 C   0  0  0  0  0  0  0  0  0  0  0  0
   -5.8434    1.8638    0.4505 C   0  0  0  0  0  0  0  0  0  0  0  0
   -5.4766    2.8688    0.7171 H   0  0  0  0  0  0  0  0  0  0  0  0
   -7.2124    1.5898    0.4876 C   0  0  0  0  0  0  0  0  0  0  0  0
   -7.9156    2.3822    0.7837 H   0  0  0  0  0  0  0  0  0  0  0  0
   -7.6850    0.3099    0.1505 C   0  0  0  0  0  0  0  0  0  0  0  0
   -8.7621    0.0904    0.1820 H   0  0  0  0  0  0  0  0  0  0  0  0
   -6.7697   -0.6831   -0.2280 C   0  0  0  0  0  0  0  0  0  0  0  0
   -7.1273   -1.6873   -0.5001 H   0  0  0  0  0  0  0  0  0  0  0  0
   -5.3924   -0.4245   -0.2689 C   0  0  0  0  0  0  0  0  0  0  0  0
   -4.6938   -1.2131   -0.5705 H   0  0  0  0  0  0  0  0  0  0  0  0
    2.4793    0.5492   -0.0168 C   0  0  0  0  0  0  0  0  0  0  0  0
    3.5694    1.2645   -0.0162 N   0  0  0  0  0  2  0  0  0  0  0  0
    4.8930    0.8712    0.0534 C   0  0  0  0  0  0  0  0  0  0  0  0
    5.8457    1.9220   -0.0724 C   0  0  0  0  0  0  0  0  0  0  0  0
    5.4585    2.9415   -0.2157 H   0  0  0  0  0  0  0  0  0  0  0  0
    7.2177    1.6698   -0.0188 C   0  0  0  0  0  0  0  0  0  0  0  0
    7.9321    2.5006   -0.1236 H   0  0  0  0  0  0  0  0  0  0  0  0
    7.6845    0.3567    0.1721 C   0  0  0  0  0  0  0  0  0  0  0  0
    8.7651    0.1530    0.2165 H   0  0  0  0  0  0  0  0  0  0  0  0
    6.7614   -0.6933    0.3072 C   0  0  0  0  0  0  0  0  0  0  0  0
    7.1195   -1.7230    0.4601 H   0  0  0  0  0  0  0  0  0  0  0  0
    5.3837   -0.4515    0.2471 C   0  0  0  0  0  0  0  0  0  0  0  0
    4.6788   -1.2860    0.3568 H   0  0  0  0  0  0  0  0  0  0  0  0
  4  3  1  0  0  0  0
  4 12  1  0  0  0  0
  5  4  2  0  0  0  0
  6  5  1  0  0  0  0
  7  5  1  0  0  0  0
  7  9  2  0  0  0  0
  8  7  1  0  0  0  0
  9 11  1  0  0  0  0
 10  9  1  0  0  0  0
 11  3  1  0  0  0  0
 11 26  2  0  0  0  0
 12  1  1  1  0  0  0
 12 13  1  0  0  0  0
 13 15  1  0  0  0  0
 13 14  1  0  0  0  0
 15 16  1  0  0  0  0
 16 18  2  0  0  0  0
 16 17  1  0  0  0  0
 18 19  1  0  0  0  0
 20 21  1  0  0  0  0
 20 18  1  0  0  0  0
 22 20  2  0  0  0  0
 23 22  1  0  0  0  0
 24 22  1  0  0  0  0
 24 15  2  0  0  0  0
 25 24  1  0  0  0  0
 26 27  1  0  0  0  0
 26  2  1  0  0  0  0
 27 28  1  0  0  0  0
 28 37  1  0  0  0  0
 29 31  1  0  0  0  0
 29 28  2  0  0  0  0
 30 29  1  0  0  0  0
 31 33  2  0  0  0  0
 32 31  1  0  0  0  0
 33 34  1  0  0  0  0
 33 35  1  0  0  0  0
 35 36  1  0  0  0  0
 37 35  2  0  0  0  0
 37 38  1  0  0  0  0
M  END
