1,2,3
q = -2.0, confidence = 0.894

 37 39  0  0  0  0  0  0  0  0999 V2000
    2.3382    0.6479   -0.0830 S   0  0  0  0  0  1  0  0  0  0  0  0
   -2.3283    0.6397    0.2097 S   0  0  0  0  0  1  0  0  0  0  0  0
    0.0092   -1.2195    0.0228 N   0  0  0  0  0  2  0  0  0  0  0  0
    1.1966   -1.8915   -0.0017 C   0  0  0  0  0  0  0  0  0  0  0  0
    1.2153   -3.2955   -0.0201 C   0  0  0  0  0  0  0  0  0  0  0  0
    2.2037   -3.7746   -0.0283 H   0  0  0  0  0  0  0  0  0  0  0  0
    0.0085   -4.0018   -0.0323 C   0  0  0  0  0  0  0  0  0  0  0  0
    0.0081   -5.1019   -0.0519 H   0  0  0  0  0  0  0  0  0  0  0  0
   -1.1976   -3.2948   -0.0219 C   0  0  0  0  0  0  0  0  0  0  0  0
   -2.1866   -3.7725   -0.0376 H   0  0  0  0  0  0  0  0  0  0  0  0
   -1.1793   -1.8907    0.0122 C   0  0  0  0  0  0  0  0  0  0  0  0
    2.4727   -1.1197   -0.0224 C   0  0  0  0  0  0  0  0  0  0  0  0
    3.5624   -1.8223    0.0277 N   0  0  0  0  0  0  0  0  0  0  0  0
    4.8763   -1.3814   -0.0210 C   0  0  0  0  0  0  0  0  0  0  0  0
    5.8424   -2.2116    0.6069 C   0  0  0  0  0  0  0  0  0  0  0  0
    5.4858   -3.1265    1.1025 H   0  0  0  0  0  0  0  0  0  0  0  0
    7.1972   -1.8685    0.6043 C   0  0  0  0  0  0  0  0  0  0  0  0
    7.9257   -2.5181    1.1133 H   0  0  0  0  0  0  0  0  0  0  0  0
    7.6310   -0.7072   -0.0592 C   0  0  0  0  0  0  0  0  0  0  0  0
    8.6987   -0.4411   -0.0716 H   0  0  0  0  0  0  0  0  0  0  0  0
    6.6915    0.1052   -0.7152 C   0  0  0  0  0  0  0  0  0  0  0  0
    7.0254    1.0069   -1.2516 H   0  0  0  0  0  0  0  0  0  0  0  0
    5.3280   -0.2134   -0.6917 C   0  0  0  0  0  0  0  0  0  0  0  0
    4.6038    0.4254   -1.2150 H   0  0  0  0  0  0  0  0  0  0  0  0
   -2.4562   -1.1202    0.0421 C   0  0  0  0  0  0  0  0  0  0  0  0
   -3.5423   -1.8238   -0.0632 N   0  0  0  0  0  2  0  0  0  0  0  0
   -4.8588   -1.3902   -0.0295 C   0  0  0  0  0  0  0  0  0  0  0  0
   -5.8073   -2.2174   -0.6887 C   0  0  0  0  0  0  0  0  0  0  0  0
   -5.4346   -3.1235   -1.1885 H   0  0  0  0  0  0  0  0  0  0  0  0
   -7.1637   -1.8824   -0.7102 C   0  0  0  0  0  0  0  0  0  0  0  0
   -7.8777   -2.5295   -1.2423 H   0  0  0  0  0  0  0  0  0  0  0  0
   -7.6177   -0.7317   -0.0412 C   0  0  0  0  0  0  0  0  0  0  0  0
   -8.6870   -0.4717   -0.0476 H   0  0  0  0  0  0  0  0  0  0  0  0
   -6.6970    0.0771    0.6451 C   0  0  0  0  0  0  0  0  0  0  0  0
   -7.0465    0.9699    1.1864 H   0  0  0  0  0  0  0  0  0  0  0  0
   -5.3314   -0.2336    0.6475 C   0  0  0  0  0  0  0  0  0  0  0  0
   -4.6252    0.4022    1.1984 H   0  0  0  0  0  0  0  0  0  0  0  0
  1 12  1  0  0  0  0
  4  3  1  0  0  0  0
  5  4  2  0  0  0  0
  6  5  1  0  0  0  0
  7  9  2  0  0  0  0
  7  5  1  0  0  0  0
  8  7  1  0  0  0  0
  9 11  1  0  0  0  0
 10  9  1  0  0  0  0
 11  3  1  0  0  0  0
 11 25  2  0  0  0  0
 12  4  1  0  0  0  0
 12 13  2  0  0  0  0
 14 13  1  0  0  0  0
 14 15  1  0  0  0  0
 15 16  1  0  0  0  0
 17 15  2  0  0  0  0
 17 18  1  0  0  0  0
 19 17  1  0  0  0  0
 20 19  1  0  0  0  0
 21 23  1  0  0  0  0
 21 19  2  0  0  0  0
 22 21  1  0  0  0  0
 23 14  2  0  0  0  0
 24 23  1  0  0  0  0
 25  2  1  0  0  0  0
 26 27  1  0  0  0  0
 26 25  1  0  0  0  0
 27 36  1  0  0  0  0
 28 27  2  0  0  0  0
 29 28  1  0  0  0  0
 30 28  1  0  0  0  0
 30 32  2  0  0  0  0
 31 30  1  0  0  0  0
 32 34  1  0  0  0  0
 33 32  1  0  0  0  0
 34 36  2  0  0  0  0
 34 35  1  0  0  0  0
 36 37  1  0  0  0  0
M  END
