1,2,6
q = -1.0

 38 38  0  0  1  0  0  0  0  0999 V2000
   -1.9221   -0.1030   -2.0104 S   0  0  0  0  0  0  0  0  0  0  0  0
    1.3240   -1.1067    1.1389 S   0  0  0  0  0  0  0  0  0  0  0  0
    1.2157    3.1319    0.4593 O   0  0  0  0  0  0  0  0  0  0  0  0
   -3.2091    0.8787    1.5212 O   0  0  0  0  0  0  0  0  0  0  0  0
   -1.1947    0.7025    2.5355 O   0  0  0  0  0  0  0  0  0  0  0  0
   -0.0496    1.2497    0.1010 N   0  0  0  0  0  2  0  0  0  0  0  0
    2.4003    1.1416   -0.0871 C   0  0  0  0  0  0  0  0  0  0  0  0
    2.6265   -0.2136    0.2580 C   0  0  0  0  0  0  0  0  0  0  0  0
    3.8695   -0.8194    0.0044 C   0  0  0  0  0  0  0  0  0  0  0  0
    4.0545   -1.8642    0.2857 H   0  0  0  0  0  0  0  0  0  0  0  0
    4.8952   -0.0851   -0.6100 C   0  0  0  0  0  0  0  0  0  0  0  0
    5.8597   -0.5737   -0.8146 H   0  0  0  0  0  0  0  0  0  0  0  0
    4.6928    1.2609   -0.9447 C   0  0  0  0  0  0  0  0  0  0  0  0
    5.4989    1.8436   -1.4147 H   0  0  0  0  0  0  0  0  0  0  0  0
    3.4593    1.8632   -0.6680 C   0  0  0  0  0  0  0  0  0  0  0  0
    3.2753    2.9254   -0.8862 H   0  0  0  0  0  0  0  0  0  0  0  0
    1.1313    1.9206    0.1894 C   0  0  0  0  0  0  0  0  0  0  0  0
   -1.2439    1.9669    0.5232 C   0  0  1  0  0  0  0  0  0  0  0  0
   -0.8848    2.8767    1.0576 H   0  0  0  0  0  0  0  0  0  0  0  0
   -2.1576    2.4201   -0.6396 C   0  0  0  0  0  0  0  0  0  0  0  0
   -3.2134    2.2987   -0.3263 H   0  0  0  0  0  0  0  0  0  0  0  0
   -1.9967    3.5023   -0.8227 H   0  0  0  0  0  0  0  0  0  0  0  0
   -1.9071    1.7285   -1.9779 C   0  0  0  0  0  0  0  0  0  0  0  0
   -0.8924    1.9592   -2.3602 H   0  0  0  0  0  0  0  0  0  0  0  0
   -2.6403    2.0623   -2.7404 H   0  0  0  0  0  0  0  0  0  0  0  0
   -2.0124    1.1245    1.5504 C   0  0  0  0  0  0  0  0  0  0  0  0
   -1.7829   -0.1870    3.4917 C   0  0  0  0  0  0  0  0  0  0  0  0
   -1.0080   -0.3661    4.2578 H   0  0  0  0  0  0  0  0  0  0  0  0
   -2.0644   -1.1414    3.0006 H   0  0  0  0  0  0  0  0  0  0  0  0
   -2.6896    0.2590    3.9461 H   0  0  0  0  0  0  0  0  0  0  0  0
   -3.5783   -0.5296   -1.3858 C   0  0  0  0  0  0  0  0  0  0  0  0
   -4.3303   -0.2200   -2.1372 H   0  0  0  0  0  0  0  0  0  0  0  0
   -3.7627   -0.0626   -0.3996 H   0  0  0  0  0  0  0  0  0  0  0  0
   -3.5564   -1.6314   -1.2882 H   0  0  0  0  0  0  0  0  0  0  0  0
    1.8258   -2.8454    0.9801 C   0  0  0  0  0  0  0  0  0  0  0  0
    2.6455   -3.0593    1.6913 H   0  0  0  0  0  0  0  0  0  0  0  0
    2.1065   -3.0774   -0.0629 H   0  0  0  0  0  0  0  0  0  0  0  0
    0.9188   -3.4258    1.2311 H   0  0  0  0  0  0  0  0  0  0  0  0
  1 23  1  0  0  0  0
  1 31  1  0  0  0  0
  4 26  2  0  0  0  0
  5 27  1  0  0  0  0
  6 17  1  0  0  0  0
  6 18  1  0  0  0  0
  7 17  1  0  0  0  0
  7  8  1  0  0  0  0
  8  2  1  0  0  0  0
  9  8  2  0  0  0  0
  9 10  1  0  0  0  0
 11  9  1  0  0  0  0
 12 11  1  0  0  0  0
 13 15  1  0  0  0  0
 13 11  2  0  0  0  0
 14 13  1  0  0  0  0
 15  7  2  0  0  0  0
 16 15  1  0  0  0  0
 17  3  2  0  0  0  0
 18 19  1  1  0  0  0
 18 26  1  0  0  0  0
 20 21  1  0  0  0  0
 20 18  1  0  0  0  0
 22 20  1  0  0  0  0
 23 20  1  0  0  0  0
 24 23  1  0  0  0  0
 25 23  1  0  0  0  0
 26  5  1  0  0  0  0
 27 30  1  0  0  0  0
 27 28  1  0  0  0  0
 29 27  1  0  0  0  0
 31 34  1  0  0  0  0
 31 33  1  0  0  0  0
 32 31  1  0  0  0  0
 35  2  1  0  0  0  0
 35 38  1  0  0  0  0
 35 36  1  0  0  0  0
 37 35  1  0  0  0  0
M  END
