1,2,4
q = -1.0

 54 55  0  0  1  0  0  0  0  0999 V2000
    0.9973   -2.1329   -1.1766 S   0  0  0  0  0  1  0  0  0  0  0  0
   -2.8613    0.0131    0.7547 S   0  0  0  0  0  1  0  0  0  0  0  0
   -1.3708    2.3118    0.3429 N   0  0  0  0  0  2  0  0  0  0  0  0
    0.1152    0.6762   -0.5072 N   0  0  0  0  0  2  0  0  0  0  0  0
    1.4254    0.5160   -0.9611 N   0  0  0  0  0  0  0  0  0  0  0  0
    2.0398    1.3271   -0.8221 H   0  0  0  0  0  0  0  0  0  0  0  0
    3.2080   -0.7105   -1.7895 N   0  0  0  0  0  0  0  0  0  0  0  0
   -3.6467    2.5402    0.2778 N   0  0  0  0  0  0  0  0  0  0  0  0
   -2.5613    1.7283    0.4119 C   0  0  2  0  0  3  0  0  0  0  0  0
   -0.1529    1.8452    0.1132 C   0  0  1  0  0  3  0  0  0  0  0  0
    1.9381   -0.6851   -1.3101 C   0  0  2  0  0  3  0  0  0  0  0  0
    2.9944    4.5097    1.3869 C   0  0  0  0  0  0  0  0  0  0  0  0
    3.7863    5.1963    1.7224 H   0  0  0  0  0  0  0  0  0  0  0  0
    0.9649    2.7548    0.5315 C   0  0  0  0  0  0  0  0  0  0  0  0
    1.0283    4.0698    0.0244 C   0  0  0  0  0  0  0  0  0  0  0  0
    0.2672    4.4017   -0.6976 H   0  0  0  0  0  0  0  0  0  0  0  0
    2.0458    4.9383    0.4429 C   0  0  0  0  0  0  0  0  0  0  0  0
    2.0942    5.9600    0.0367 H   0  0  0  0  0  0  0  0  0  0  0  0
    2.9241    3.2077    1.9075 C   0  0  0  0  0  0  0  0  0  0  0  0
    3.6519    2.8670    2.6593 H   0  0  0  0  0  0  0  0  0  0  0  0
    1.9205    2.3254    1.4796 C   0  0  0  0  0  0  0  0  0  0  0  0
    1.8726    1.3101    1.9042 H   0  0  0  0  0  0  0  0  0  0  0  0
    3.9813    0.5109   -2.0144 C   0  0  0  0  0  0  0  0  0  0  0  0
    3.3369    1.2497   -2.5378 H   0  0  0  0  0  0  0  0  0  0  0  0
    4.7710    0.2299   -2.7375 H   0  0  0  0  0  0  0  0  0  0  0  0
    4.6276    1.1312   -0.7530 C   0  0  0  0  0  0  0  0  0  0  0  0
    5.5452    1.6600   -1.0885 H   0  0  0  0  0  0  0  0  0  0  0  0
    3.9787    1.9252   -0.3243 H   0  0  0  0  0  0  0  0  0  0  0  0
    4.9680    0.1316    0.3641 C   0  0  0  0  0  0  0  0  0  0  0  0
    4.0461   -0.1331    0.9280 H   0  0  0  0  0  0  0  0  0  0  0  0
    5.6092    0.6643    1.0967 H   0  0  0  0  0  0  0  0  0  0  0  0
    5.6615   -1.1751   -0.0691 C   0  0  0  0  0  0  0  0  0  0  0  0
    6.4312   -0.9670   -0.8479 H   0  0  0  0  0  0  0  0  0  0  0  0
    6.2206   -1.5752    0.8015 H   0  0  0  0  0  0  0  0  0  0  0  0
    4.7009   -2.2770   -0.5451 C   0  0  0  0  0  0  0  0  0  0  0  0
    3.9512   -2.4710    0.2526 H   0  0  0  0  0  0  0  0  0  0  0  0
    5.2572   -3.2273   -0.6910 H   0  0  0  0  0  0  0  0  0  0  0  0
    3.9555   -1.9741   -1.8477 C   0  0  0  0  0  0  0  0  0  0  0  0
    4.6630   -1.8871   -2.6988 H   0  0  0  0  0  0  0  0  0  0  0  0
    3.2441   -2.7874   -2.0904 H   0  0  0  0  0  0  0  0  0  0  0  0
   -5.0196    2.0268    0.3518 C   0  0  0  0  0  0  0  0  0  0  0  0
   -5.6503    2.8571    0.7300 H   0  0  0  0  0  0  0  0  0  0  0  0
   -5.0489    1.2262    1.1165 H   0  0  0  0  0  0  0  0  0  0  0  0
   -5.5566    1.4981   -0.9793 C   0  0  0  0  0  0  0  0  0  0  0  0
   -5.6019    2.2923   -1.7504 H   0  0  0  0  0  0  0  0  0  0  0  0
   -6.5808    1.0983   -0.8403 H   0  0  0  0  0  0  0  0  0  0  0  0
   -4.9163    0.6756   -1.3548 H   0  0  0  0  0  0  0  0  0  0  0  0
   -3.4393    3.9565   -0.0499 C   0  0  0  0  0  0  0  0  0  0  0  0
   -2.5932    4.3146    0.5707 H   0  0  0  0  0  0  0  0  0  0  0  0
   -4.3531    4.4979    0.2665 H   0  0  0  0  0  0  0  0  0  0  0  0
   -3.1387    4.2211   -1.5263 C   0  0  0  0  0  0  0  0  0  0  0  0
   -2.2277    3.6755   -1.8413 H   0  0  0  0  0  0  0  0  0  0  0  0
   -2.9652    5.3041   -1.6893 H   0  0  0  0  0  0  0  0  0  0  0  0
   -3.9734    3.9061   -2.1824 H   0  0  0  0  0  0  0  0  0  0  0  0
  3  9  1  0  0  0  0
  5  6  1  0  0  0  0
  5  4  1  0  0  0  0
  7 11  1  0  0  0  0
  8 41  1  0  0  0  0
  8  9  1  0  0  0  0
  9  2  1  1  0  0  0
 10  4  1  6  0  0  0
 10  3  1  0  0  0  0
 10 14  1  0  0  0  0
 11  1  1  6  0  0  0
 11  5  1  0  0  0  0
 12 13  1  0  0  0  0
 12 19  1  0  0  0  0
 14 21  1  0  0  0  0
 15 17  1  0  0  0  0
 15 14  2  0  0  0  0
 16 15  1  0  0  0  0
 17 12  2  0  0  0  0
 18 17  1  0  0  0  0
 19 20  1  0  0  0  0
 21 22  1  0  0  0  0
 21 19  2  0  0  0  0
 23  7  1  0  0  0  0
 23 26  1  0  0  0  0
 24 23  1  0  0  0  0
 25 23  1  0  0  0  0
 26 28  1  0  0  0  0
 26 29  1  0  0  0  0
 27 26  1  0  0  0  0
 29 30  1  0  0  0  0
 29 31  1  0  0  0  0
 32 29  1  0  0  0  0
 32 34  1  0  0  0  0
 33 32  1  0  0  0  0
 35 32  1  0  0  0  0
 35 36  1  0  0  0  0
 37 35  1  0  0  0  0
 38  7  1  0  0  0  0
 38 35  1  0  0  0  0
 39 38  1  0  0  0  0
 40 38  1  0  0  0  0
 41 42  1  0  0  0  0
 41 43  1  0  0  0  0
 44 46  1  0  0  0  0
 44 41  1  0  0  0  0
 45 44  1  0  0  0  0
 47 44  1  0  0  0  0
 48 50  1  0  0  0  0
 48  8  1  0  0  0  0
 48 49  1  0  0  0  0
 51 48  1  0  0  0  0
 52 51  1  0  0  0  0
 53 51  1  0  0  0  0
 54 51  1  0  0  0  0
M  END
