1,10,11
q = -1.0

 15 14  0  0  0  0  0  0  0  0999 V2000
    0.0918    1.9917    0.2945 N   0  0  0  0  0  2  0  0  0  0  0  0
    0.1072    2.8769   -0.7030 N   0  0  0  0  0  0  0  0  0  0  0  0
    0.0524    3.2273   -2.9616 N   0  0  0  0  0  0  0  0  0  0  0  0
   -0.1574    4.2000   -2.7317 H   0  0  0  0  0  0  0  0  0  0  0  0
   -0.1819    2.8894   -3.8940 H   0  0  0  0  0  0  0  0  0  0  0  0
    0.0470    2.5730    1.5556 C   0  0  0  0  0  0  0  0  0  0  0  0
    0.0166    1.6772    2.6401 C   0  0  0  0  0  0  0  0  0  0  0  0
    0.0113    2.0726    3.6684 H   0  0  0  0  0  0  0  0  0  0  0  0
    0.0666    2.3417   -1.9339 C   0  0  0  0  0  0  0  0  0  0  0  0
    0.0240    0.0047    2.4181 S   0  0  0  0  0  1  0  0  0  0  0  0
    0.0662    0.6389   -2.2625 S   0  0  0  0  0  1  0  0  0  0  0  0
    0.2001    4.0477    1.7155 C   0  0  0  0  0  0  0  0  0  0  0  0
    1.0682    4.4122    1.1318 H   0  0  0  0  0  0  0  0  0  0  0  0
    0.3307    4.3113    2.7815 H   0  0  0  0  0  0  0  0  0  0  0  0
   -0.6980    4.5840    1.3229 H   0  0  0  0  0  0  0  0  0  0  0  0
  1  6  1  0  0  0  0
  2  1  1  0  0  0  0
  3  4  1  0  0  0  0
  3  9  1  0  0  0  0
  5  3  1  0  0  0  0
  6 12  1  0  0  0  0
  6  7  2  0  0  0  0
  7  8  1  0  0  0  0
  9  2  2  0  0  0  0
 10  7  1  0  0  0  0
 11  9  1  0  0  0  0
 12 14  1  0  0  0  0
 13 12  1  0  0  0  0
 15 12  1  0  0  0  0
M  END
