1,2,3
q = 0.0, confidence = 0.998

 32 34  0  0  1  0  0  0  0  0999 V2000
    0.9491   -2.3289   -0.2593 S   0  0  0  0  0  0  0  0  0  0  0  0
    0.9476    2.3298   -0.2591 S   0  0  0  0  0  0  0  0  0  0  0  0
   -0.7697   -0.0001   -1.1421 N   0  0  0  0  0  2  0  0  0  0  0  0
    0.1748    0.0001    1.7897 N   0  0  0  0  0  0  0  0  0  0  0  0
   -1.4389    1.1831   -1.2540 C   0  0  2  0  0  3  0  0  0  0  0  0
   -2.8231    1.2071   -1.4739 C   0  0  0  0  0  0  0  0  0  0  0  0
   -3.3433    2.1714   -1.5608 H   0  0  0  0  0  0  0  0  0  0  0  0
   -3.5231   -0.0009   -1.5829 C   0  0  0  0  0  0  0  0  0  0  0  0
   -4.6094   -0.0012   -1.7542 H   0  0  0  0  0  0  0  0  0  0  0  0
   -2.8224   -1.2085   -1.4740 C   0  0  0  0  0  0  0  0  0  0  0  0
   -3.3420   -2.1732   -1.5609 H   0  0  0  0  0  0  0  0  0  0  0  0
   -1.4382   -1.1837   -1.2540 C   0  0  0  0  0  0  0  0  0  0  0  0
   -0.6260   -2.4503   -1.2063 C   0  0  0  0  0  0  0  0  0  0  0  0
   -0.2844   -2.7121   -2.2321 H   0  0  0  0  0  0  0  0  0  0  0  0
   -1.2154   -3.3106   -0.8323 H   0  0  0  0  0  0  0  0  0  0  0  0
    0.3484   -2.3700    1.5093 C   0  0  0  0  0  0  0  0  0  0  0  0
   -0.1793   -3.3347    1.6396 H   0  0  0  0  0  0  0  0  0  0  0  0
    1.3004   -2.3986    2.0772 H   0  0  0  0  0  0  0  0  0  0  0  0
   -0.4764   -1.1649    1.8978 C   0  0  0  0  0  0  0  0  0  0  0  0
   -1.8414   -1.2157    2.2364 C   0  0  0  0  0  0  0  0  0  0  0  0
   -2.3649   -2.1779    2.3396 H   0  0  0  0  0  0  0  0  0  0  0  0
   -2.5198   -0.0008    2.4330 C   0  0  0  0  0  0  0  0  0  0  0  0
   -3.5843   -0.0011    2.7103 H   0  0  0  0  0  0  0  0  0  0  0  0
   -1.8422    1.2146    2.2364 C   0  0  0  0  0  0  0  0  0  0  0  0
   -2.3663    2.1765    2.3396 H   0  0  0  0  0  0  0  0  0  0  0  0
   -0.4771    1.1646    1.8979 C   0  0  0  0  0  0  0  0  0  0  0  0
    0.3469    2.3703    1.5094 C   0  0  0  0  0  0  0  0  0  0  0  0
    1.2989    2.3994    2.0773 H   0  0  0  0  0  0  0  0  0  0  0  0
   -0.1814    3.3347    1.6399 H   0  0  0  0  0  0  0  0  0  0  0  0
   -0.6274    2.4502   -1.2063 C   0  0  0  0  0  0  0  0  0  0  0  0
   -1.2174    3.3102   -0.8325 H   0  0  0  0  0  0  0  0  0  0  0  0
   -0.2859    2.7120   -2.2321 H   0  0  0  0  0  0  0  0  0  0  0  0
  1 16  1  0  0  0  0
  2 27  1  0  0  0  0
  4 19  2  0  0  0  0
  4 26  1  0  0  0  0
  5  6  1  6  0  0  0
  5 30  1  0  0  0  0
  5  3  1  0  0  0  0
  7  6  1  0  0  0  0
  8 10  1  0  0  0  0
  8  6  2  0  0  0  0
  9  8  1  0  0  0  0
 10 12  2  0  0  0  0
 11 10  1  0  0  0  0
 12 13  1  0  0  0  0
 12  3  1  0  0  0  0
 13 15  1  0  0  0  0
 13  1  1  0  0  0  0
 14 13  1  0  0  0  0
 16 17  1  0  0  0  0
 16 19  1  0  0  0  0
 16 18  1  0  0  0  0
 19 20  1  0  0  0  0
 20 21  1  0  0  0  0
 20 22  2  0  0  0  0
 22 23  1  0  0  0  0
 24 25  1  0  0  0  0
 24 22  1  0  0  0  0
 26 24  2  0  0  0  0
 27 29  1  0  0  0  0
 27 26  1  0  0  0  0
 27 28  1  0  0  0  0
 30 31  1  0  0  0  0
 30  2  1  0  0  0  0
 32 30  1  0  0  0  0
M  END
