4,24,31
q = 0.0, confidence = 0.998

 35 36  0  0  0  0  0  0  0  0999 V2000
   -3.2162   -1.6669   -1.1982 N   0  0  0  0  0  0  0  0  0  0  0  0
   -1.9114   -1.5118   -1.0606 C   0  0  0  0  0  3  0  0  0  0  0  0
   -1.2458   -2.2347   -1.5581 H   0  0  0  0  0  0  0  0  0  0  0  0
   -1.2810   -0.5280   -0.3503 N   0  0  0  0  0  2  0  0  0  0  0  0
   -2.1244    0.3345    0.2767 C   0  0  0  0  0  0  0  0  0  0  0  0
   -3.5301    0.2505    0.1938 C   0  0  0  0  0  0  0  0  0  0  0  0
   -5.3934   -0.9975   -0.7263 N   0  0  0  0  0  0  0  0  0  0  0  0
   -5.7314   -1.7874   -1.2773 H   0  0  0  0  0  0  0  0  0  0  0  0
   -6.0505   -0.3763   -0.2545 H   0  0  0  0  0  0  0  0  0  0  0  0
   -4.0743   -0.8124   -0.5838 C   0  0  0  0  0  0  0  0  0  0  0  0
   -4.1267    1.2486    0.9296 N   0  0  0  0  0  0  0  0  0  0  0  0
   -3.1222    1.9221    1.4475 C   0  0  0  0  0  0  0  0  0  0  0  0
   -3.2059    2.7936    2.1117 H   0  0  0  0  0  0  0  0  0  0  0  0
   -1.8686    1.4184    1.0916 N   0  0  0  0  0  0  0  0  0  0  0  0
   -0.5764    1.9596    1.4934 C   0  0  0  0  0  0  0  0  0  0  0  0
    0.1340    1.1031    1.5561 H   0  0  0  0  0  0  0  0  0  0  0  0
   -0.6830    2.3754    2.5140 H   0  0  0  0  0  0  0  0  0  0  0  0
   -0.0410    3.0425    0.5459 C   0  0  0  0  0  0  0  0  0  0  0  0
   -0.6969    3.9377    0.6074 H   0  0  0  0  0  0  0  0  0  0  0  0
    0.9468    3.3780    0.9262 H   0  0  0  0  0  0  0  0  0  0  0  0
    0.0341    2.6836   -0.9367 C   0  0  0  0  0  0  0  0  0  0  0  0
    0.3689    3.5519   -1.5399 H   0  0  0  0  0  0  0  0  0  0  0  0
   -0.9567    2.3833   -1.3361 H   0  0  0  0  0  0  0  0  0  0  0  0
    1.1191    1.2907   -1.4756 S   0  0  0  0  0  0  0  0  0  0  0  0
    2.7857    1.8341   -0.8796 C   0  0  0  0  0  0  0  0  0  0  0  0
    3.1521    2.6128   -1.5795 H   0  0  0  0  0  0  0  0  0  0  0  0
    2.6786    2.2783    0.1295 H   0  0  0  0  0  0  0  0  0  0  0  0
    3.7115    0.6305   -0.8697 C   0  0  0  0  0  0  0  0  0  0  0  0
    4.7122    0.8893   -0.4690 H   0  0  0  0  0  0  0  0  0  0  0  0
    3.8522    0.2110   -1.8867 H   0  0  0  0  0  0  0  0  0  0  0  0
    3.0610   -0.7871    0.1259 S   0  0  0  0  0  0  0  0  0  0  0  0
    3.3721   -0.2321    1.8350 C   0  0  0  0  0  0  0  0  0  0  0  0
    4.4622   -0.2601    2.0231 H   0  0  0  0  0  0  0  0  0  0  0  0
    2.8531   -0.9782    2.4669 H   0  0  0  0  0  0  0  0  0  0  0  0
    2.9531    0.7740    2.0214 H   0  0  0  0  0  0  0  0  0  0  0  0
  1  2  1  0  0  0  0
  1 10  2  0  0  0  0
  2  4  1  0  0  0  0
  3  2  1  0  0  0  0
  4  5  1  0  0  0  0
  5 14  1  0  0  0  0
  6  5  2  0  0  0  0
  6 11  1  0  0  0  0
  7 10  1  0  0  0  0
  7  9  1  0  0  0  0
  8  7  1  0  0  0  0
 10  6  1  0  0  0  0
 11 12  2  0  0  0  0
 12 13  1  0  0  0  0
 14 12  1  0  0  0  0
 14 15  1  0  0  0  0
 15 16  1  0  0  0  0
 15 17  1  0  0  0  0
 18 19  1  0  0  0  0
 18 20  1  0  0  0  0
 18 15  1  0  0  0  0
 21 18  1  0  0  0  0
 22 21  1  0  0  0  0
 23 21  1  0  0  0  0
 24 21  1  0  0  0  0
 24 25  1  0  0  0  0
 25 28  1  0  0  0  0
 25 27  1  0  0  0  0
 26 25  1  0  0  0  0
 28 29  1  0  0  0  0
 28 31  1  0  0  0  0
 30 28  1  0  0  0  0
 31 32  1  0  0  0  0
 32 35  1  0  0  0  0
 32 33  1  0  0  0  0
 32 34  1  0  0  0  0
M  END
