1,2,3
q = -1.0

 38 40  0  0  0  0  0  0  0  0999 V2000
   -2.3335   -0.9980    0.3119 S   0  0  0  0  0  1  0  0  0  0  0  0
    2.3579   -1.0466   -0.1587 S   0  0  0  0  0  1  0  0  0  0  0  0
    0.0271    0.8099    0.1984 N   0  0  0  0  0  2  0  0  0  0  0  0
   -3.5504    1.3895   -0.0284 N   0  0  0  0  0  0  0  0  0  0  0  0
    3.5644    1.4286    0.0664 N   0  0  0  0  0  0  0  0  0  0  0  0
   -2.3991    0.6900    0.1669 C   0  0  0  0  0  0  0  0  0  0  0  0
    2.4832    0.6999    0.0316 C   0  0  0  0  0  0  0  0  0  0  0  0
   -1.1559    1.4935    0.2188 C   0  0  0  0  0  0  0  0  0  0  0  0
   -1.1592    2.8986    0.3109 C   0  0  0  0  0  0  0  0  0  0  0  0
    0.0581    3.5936    0.3227 C   0  0  0  0  0  0  0  0  0  0  0  0
    1.2502    2.8781    0.2312 C   0  0  0  0  0  0  0  0  0  0  0  0
    1.2107    1.4697    0.1654 C   0  0  0  0  0  0  0  0  0  0  0  0
   -4.9038    1.0104   -0.0767 C   0  0  0  0  0  0  0  0  0  0  0  0
   -5.7951    1.9367   -0.6691 C   0  0  0  0  0  0  0  0  0  0  0  0
   -7.1612    1.6558   -0.7468 C   0  0  0  0  0  0  0  0  0  0  0  0
   -7.6639    0.4481   -0.2333 C   0  0  0  0  0  0  0  0  0  0  0  0
   -6.7830   -0.4652    0.3639 C   0  0  0  0  0  0  0  0  0  0  0  0
   -5.4094   -0.1980    0.4495 C   0  0  0  0  0  0  0  0  0  0  0  0
    4.8818    1.0351   -0.0903 C   0  0  0  0  0  0  0  0  0  0  0  0
    5.8612    1.9320    0.4192 C   0  0  0  0  0  0  0  0  0  0  0  0
    7.2246    1.6480    0.3161 C   0  0  0  0  0  0  0  0  0  0  0  0
    7.6536    0.4746   -0.3303 C   0  0  0  0  0  0  0  0  0  0  0  0
    6.7011   -0.4066   -0.8679 C   0  0  0  0  0  0  0  0  0  0  0  0
    5.3310   -0.1443   -0.7461 C   0  0  0  0  0  0  0  0  0  0  0  0
   -3.4026    2.3619   -0.3090 H   0  0  0  0  0  0  0  0  0  0  0  0
   -2.0988    3.4609    0.4088 H   0  0  0  0  0  0  0  0  0  0  0  0
    0.0665    4.6905    0.4032 H   0  0  0  0  0  0  0  0  0  0  0  0
    2.2459    3.3417    0.2154 H   0  0  0  0  0  0  0  0  0  0  0  0
   -5.4032    2.8823   -1.0781 H   0  0  0  0  0  0  0  0  0  0  0  0
   -7.8381    2.3851   -1.2158 H   0  0  0  0  0  0  0  0  0  0  0  0
   -8.7384    0.2228   -0.2980 H   0  0  0  0  0  0  0  0  0  0  0  0
   -7.1658   -1.4104    0.7770 H   0  0  0  0  0  0  0  0  0  0  0  0
   -4.7384   -0.9200    0.9282 H   0  0  0  0  0  0  0  0  0  0  0  0
    5.5050    2.8517    0.9063 H   0  0  0  0  0  0  0  0  0  0  0  0
    7.9628    2.3500    0.7332 H   0  0  0  0  0  0  0  0  0  0  0  0
    8.7275    0.2518   -0.4204 H   0  0  0  0  0  0  0  0  0  0  0  0
    7.0294   -1.3193   -1.3888 H   0  0  0  0  0  0  0  0  0  0  0  0
    4.6004   -0.8381   -1.1826 H   0  0  0  0  0  0  0  0  0  0  0  0
  2  7  1  0  0  0  0
  3  8  1  0  0  0  0
  4  6  1  0  0  0  0
  6  8  2  0  0  0  0
  6  1  1  0  0  0  0
  7  5  2  0  0  0  0
  7 12  1  0  0  0  0
  8  9  1  0  0  0  0
  9 10  2  0  0  0  0
  9 26  1  0  0  0  0
 10 27  1  0  0  0  0
 11 10  1  0  0  0  0
 12  3  1  0  0  0  0
 12 11  2  0  0  0  0
 13  4  1  0  0  0  0
 13 18  1  0  0  0  0
 14 13  2  0  0  0  0
 15 14  1  0  0  0  0
 15 16  2  0  0  0  0
 16 17  1  0  0  0  0
 17 18  2  0  0  0  0
 17 32  1  0  0  0  0
 18 33  1  0  0  0  0
 19  5  1  0  0  0  0
 19 20  1  0  0  0  0
 20 34  1  0  0  0  0
 21 20  2  0  0  0  0
 21 35  1  0  0  0  0
 22 21  1  0  0  0  0
 23 24  1  0  0  0  0
 23 22  2  0  0  0  0
 24 19  2  0  0  0  0
 25  4  1  0  0  0  0
 28 11  1  0  0  0  0
 29 14  1  0  0  0  0
 30 15  1  0  0  0  0
 31 16  1  0  0  0  0
 36 22  1  0  0  0  0
 37 23  1  0  0  0  0
 38 24  1  0  0  0  0
M  END
