1,2,3
q = -2.0, confidence = 0.518

 31 31  0  0  0  0  0  0  0  0999 V2000
    0.4515    0.4382    1.1842 S   0  0  0  0  0  1  0  0  0  0  0  0
   -1.1709   -3.1187    0.3919 S   0  0  0  0  0  1  0  0  0  0  0  0
   -2.3945   -0.3149    0.3278 N   0  0  0  0  0  0  0  0  0  0  0  0
   -4.6270    2.2152   -1.2142 N   0  0  0  0  0  0  0  0  0  0  0  0
   -1.0935    1.3033    1.7429 C   0  0  0  0  0  0  0  0  0  0  0  0
   -2.2417    1.1038    0.7735 C   0  0  0  0  0  0  0  0  0  0  0  0
   -2.8648   -1.1954    1.4346 C   0  0  0  0  0  0  0  0  0  0  0  0
   -2.8568   -2.6552    1.0154 C   0  0  0  0  0  0  0  0  0  0  0  0
   -3.2928   -0.4081   -0.8759 C   0  0  0  0  0  0  0  0  0  0  0  0
   -4.7904   -0.1474   -0.6629 C   0  0  0  0  0  0  0  0  0  0  0  0
   -5.1655    1.2941   -0.3904 C   0  0  0  0  0  0  0  0  0  0  0  0
   -6.0393    1.6467    0.6580 C   0  0  0  0  0  0  0  0  0  0  0  0
   -6.3548    2.9984    0.8553 C   0  0  0  0  0  0  0  0  0  0  0  0
   -5.7890    3.9547    0.0008 C   0  0  0  0  0  0  0  0  0  0  0  0
   -4.9340    3.5052   -1.0197 C   0  0  0  0  0  0  0  0  0  0  0  0
   -1.3316    0.9415    2.7648 H   0  0  0  0  0  0  0  0  0  0  0  0
   -0.8709    2.3858    1.8259 H   0  0  0  0  0  0  0  0  0  0  0  0
   -3.1927    1.4580    1.2293 H   0  0  0  0  0  0  0  0  0  0  0  0
   -2.0731    1.6977   -0.1448 H   0  0  0  0  0  0  0  0  0  0  0  0
   -2.1652   -1.0593    2.2826 H   0  0  0  0  0  0  0  0  0  0  0  0
   -3.8742   -0.8685    1.7727 H   0  0  0  0  0  0  0  0  0  0  0  0
   -3.6320   -2.8816    0.2547 H   0  0  0  0  0  0  0  0  0  0  0  0
   -3.0592   -3.3007    1.8931 H   0  0  0  0  0  0  0  0  0  0  0  0
   -3.1511   -1.4160   -1.3068 H   0  0  0  0  0  0  0  0  0  0  0  0
   -2.9049    0.3121   -1.6189 H   0  0  0  0  0  0  0  0  0  0  0  0
   -5.2707   -0.4393   -1.6223 H   0  0  0  0  0  0  0  0  0  0  0  0
   -5.2293   -0.8127    0.1067 H   0  0  0  0  0  0  0  0  0  0  0  0
   -6.4639    0.8676    1.3097 H   0  0  0  0  0  0  0  0  0  0  0  0
   -7.0329    3.3007    1.6680 H   0  0  0  0  0  0  0  0  0  0  0  0
   -6.0042    5.0270    0.1174 H   0  0  0  0  0  0  0  0  0  0  0  0
   -4.4717    4.2276   -1.7161 H   0  0  0  0  0  0  0  0  0  0  0  0
  1  5  1  0  0  0  0
  2  8  1  0  0  0  0
  3  6  1  0  0  0  0
  3  7  1  0  0  0  0
  4 15  2  0  0  0  0
  4 11  1  0  0  0  0
  5 17  1  0  0  0  0
  5 16  1  0  0  0  0
  6 18  1  0  0  0  0
  6  5  1  0  0  0  0
  7 21  1  0  0  0  0
  7 20  1  0  0  0  0
  8  7  1  0  0  0  0
  8 23  1  0  0  0  0
  9 10  1  0  0  0  0
  9  3  1  0  0  0  0
 10 11  1  0  0  0  0
 10 27  1  0  0  0  0
 11 12  2  0  0  0  0
 12 13  1  0  0  0  0
 12 28  1  0  0  0  0
 13 29  1  0  0  0  0
 14 30  1  0  0  0  0
 14 13  2  0  0  0  0
 15 14  1  0  0  0  0
 19  6  1  0  0  0  0
 22  8  1  0  0  0  0
 24  9  1  0  0  0  0
 25  9  1  0  0  0  0
 26 10  1  0  0  0  0
 31 15  1  0  0  0  0
M  END
