1,2,4
q = -1.0, confidence = 0.026

 43 45  0  0  0  0  0  0  0  0999 V2000
   -2.2010    1.1945   -0.8293 S   0  0  0  0  0  1  0  0  0  0  0  0
    2.2009    1.1953    0.8293 S   0  0  0  0  0  1  0  0  0  0  0  0
   -3.2992   -1.2300   -1.2454 N   0  0  0  0  0  0  0  0  0  0  0  0
    0.0001   -0.4619    0.0005 N   0  0  0  0  0  2  0  0  0  0  0  0
    3.2997   -1.2288    1.2463 N   0  0  0  0  0  0  0  0  0  0  0  0
   -1.0415   -1.2455   -0.3934 C   0  0  0  0  0  0  0  0  0  0  0  0
   -0.6556   -2.6162   -0.2478 C   0  0  0  0  0  0  0  0  0  0  0  0
    0.6564   -2.6159    0.2492 C   0  0  0  0  0  0  0  0  0  0  0  0
    1.0419   -1.2451    0.3946 C   0  0  0  0  0  0  0  0  0  0  0  0
   -2.2193   -0.5368   -0.8356 C   0  0  0  0  0  0  0  0  0  0  0  0
   -4.5815   -0.6565   -1.6410 C   0  0  0  0  0  0  0  0  0  0  0  0
   -5.6376   -0.7942   -0.5622 C   0  0  0  0  0  0  0  0  0  0  0  0
   -6.7730   -1.5998   -0.7650 C   0  0  0  0  0  0  0  0  0  0  0  0
   -7.7405   -1.7366    0.2436 C   0  0  0  0  0  0  0  0  0  0  0  0
   -7.5753   -1.0715    1.4674 C   0  0  0  0  0  0  0  0  0  0  0  0
   -6.4425   -0.2666    1.6782 C   0  0  0  0  0  0  0  0  0  0  0  0
   -5.4790   -0.1261    0.6707 C   0  0  0  0  0  0  0  0  0  0  0  0
    2.2196   -0.5359    0.8363 C   0  0  0  0  0  0  0  0  0  0  0  0
    4.5820   -0.6549    1.6410 C   0  0  0  0  0  0  0  0  0  0  0  0
    5.6378   -0.7935    0.5620 C   0  0  0  0  0  0  0  0  0  0  0  0
    6.7728   -1.5998    0.7647 C   0  0  0  0  0  0  0  0  0  0  0  0
    7.7398   -1.7375   -0.2441 C   0  0  0  0  0  0  0  0  0  0  0  0
    7.5747   -1.0727   -1.4681 C   0  0  0  0  0  0  0  0  0  0  0  0
    6.4423   -0.2672   -1.6788 C   0  0  0  0  0  0  0  0  0  0  0  0
    5.4792   -0.1257   -0.6711 C   0  0  0  0  0  0  0  0  0  0  0  0
   -3.2671   -2.2455   -1.1266 H   0  0  0  0  0  0  0  0  0  0  0  0
    3.2679   -2.2443    1.1275 H   0  0  0  0  0  0  0  0  0  0  0  0
   -1.2572   -3.5046   -0.4768 H   0  0  0  0  0  0  0  0  0  0  0  0
    1.2582   -3.5041    0.4785 H   0  0  0  0  0  0  0  0  0  0  0  0
   -4.9177   -1.1546   -2.5737 H   0  0  0  0  0  0  0  0  0  0  0  0
   -4.3922    0.4102   -1.8794 H   0  0  0  0  0  0  0  0  0  0  0  0
   -6.9040   -2.1224   -1.7265 H   0  0  0  0  0  0  0  0  0  0  0  0
   -8.6263   -2.3667    0.0713 H   0  0  0  0  0  0  0  0  0  0  0  0
   -8.3322   -1.1772    2.2594 H   0  0  0  0  0  0  0  0  0  0  0  0
   -6.3117    0.2621    2.6345 H   0  0  0  0  0  0  0  0  0  0  0  0
   -4.5955    0.5124    0.8312 H   0  0  0  0  0  0  0  0  0  0  0  0
    4.9186   -1.1521    2.5741 H   0  0  0  0  0  0  0  0  0  0  0  0
    4.3928    0.4121    1.8784 H   0  0  0  0  0  0  0  0  0  0  0  0
    6.9038   -2.1220    1.7264 H   0  0  0  0  0  0  0  0  0  0  0  0
    8.6253   -2.3681   -0.0719 H   0  0  0  0  0  0  0  0  0  0  0  0
    8.3312   -1.1791   -2.2603 H   0  0  0  0  0  0  0  0  0  0  0  0
    6.3116    0.2614   -2.6352 H   0  0  0  0  0  0  0  0  0  0  0  0
    4.5961    0.5132   -0.8315 H   0  0  0  0  0  0  0  0  0  0  0  0
  2 18  1  0  0  0  0
  3 26  1  0  0  0  0
  3 10  1  0  0  0  0
  4  9  1  0  0  0  0
  5 19  1  0  0  0  0
  6  7  1  0  0  0  0
  6  4  1  0  0  0  0
  7  8  2  0  0  0  0
  8  9  1  0  0  0  0
  8 29  1  0  0  0  0
  9 18  2  0  0  0  0
 10  1  1  0  0  0  0
 10  6  2  0  0  0  0
 11  3  1  0  0  0  0
 11 12  1  0  0  0  0
 12 17  1  0  0  0  0
 13 12  2  0  0  0  0
 13 14  1  0  0  0  0
 14 15  2  0  0  0  0
 15 16  1  0  0  0  0
 15 34  1  0  0  0  0
 16 35  1  0  0  0  0
 17 36  1  0  0  0  0
 17 16  2  0  0  0  0
 18  5  1  0  0  0  0
 19 38  1  0  0  0  0
 19 37  1  0  0  0  0
 20 21  1  0  0  0  0
 20 19  1  0  0  0  0
 21 39  1  0  0  0  0
 22 40  1  0  0  0  0
 22 21  2  0  0  0  0
 23 22  1  0  0  0  0
 24 23  2  0  0  0  0
 24 25  1  0  0  0  0
 25 20  2  0  0  0  0
 27  5  1  0  0  0  0
 28  7  1  0  0  0  0
 30 11  1  0  0  0  0
 31 11  1  0  0  0  0
 32 13  1  0  0  0  0
 33 14  1  0  0  0  0
 41 23  1  0  0  0  0
 42 24  1  0  0  0  0
 43 25  1  0  0  0  0
M  END
