1,2,3
q = -2.0, confidence = 0.948

 46 46  0  0  1  0  0  0  0  0999 V2000
    2.2589   -1.7233   -1.7008 S   0  0  0  0  0  1  0  0  0  0  0  0
    1.9722    1.3317    1.8257 S   0  0  0  0  0  1  0  0  0  0  0  0
    0.9685   -1.3176    1.2699 N   0  0  0  0  0  2  0  0  0  0  0  0
    0.4228   -3.0893   -0.2193 N   0  0  0  0  0  2  0  0  0  0  0  0
    1.8528   -4.3894   -1.4731 N   0  0  0  0  0  0  0  0  0  0  0  0
    0.5724   -0.8923    2.5316 N   0  0  0  0  0  0  0  0  0  0  0  0
    2.9416   -4.5688   -2.4342 C   0  0  0  0  0  0  0  0  0  0  0  0
    3.4538   -5.5191   -2.1761 H   0  0  0  0  0  0  0  0  0  0  0  0
    3.6722   -3.7498   -2.2767 H   0  0  0  0  0  0  0  0  0  0  0  0
    0.0769   -2.1524    0.6577 C   0  0  2  0  0  3  0  0  0  0  0  0
    2.4662   -4.5811   -3.8868 C   0  0  0  0  0  0  0  0  0  0  0  0
    3.3218   -4.7531   -4.5702 H   0  0  0  0  0  0  0  0  0  0  0  0
    2.0052   -3.6086   -4.1504 H   0  0  0  0  0  0  0  0  0  0  0  0
    1.7195   -5.3815   -4.0655 H   0  0  0  0  0  0  0  0  0  0  0  0
   -6.3718   -2.6544    1.1321 F   0  0  0  0  0  0  0  0  0  0  0  0
    0.5440    0.8110    4.0996 N   0  0  0  0  0  0  0  0  0  0  0  0
   -6.1294   -0.5478    1.6639 F   0  0  0  0  0  0  0  0  0  0  0  0
   -6.0134   -1.1682   -0.4246 F   0  0  0  0  0  0  0  0  0  0  0  0
    1.4562   -3.1650   -1.0362 C   0  0  1  0  0  3  0  0  0  0  0  0
    0.9581    0.3027    2.8932 C   0  0  0  0  0  0  0  0  0  0  0  0
    1.1876    1.9523    4.7179 C   0  0  0  0  0  0  0  0  0  0  0  0
    0.4303    2.5764    5.2364 H   0  0  0  0  0  0  0  0  0  0  0  0
    1.6868    2.5706    3.9490 H   0  0  0  0  0  0  0  0  0  0  0  0
    1.9548    1.6455    5.4678 H   0  0  0  0  0  0  0  0  0  0  0  0
   -4.1880   -1.7275    0.9708 C   0  0  0  0  0  0  0  0  0  0  0  0
   -1.3840   -2.0333    0.9250 C   0  0  0  0  0  0  0  0  0  0  0  0
   -3.3539   -0.6161    1.1871 C   0  0  0  0  0  0  0  0  0  0  0  0
   -3.7990    0.3793    1.3274 H   0  0  0  0  0  0  0  0  0  0  0  0
    1.1828   -5.5885   -0.9604 C   0  0  0  0  0  0  0  0  0  0  0  0
    1.2817   -6.3771   -1.7341 H   0  0  0  0  0  0  0  0  0  0  0  0
    0.1048   -5.3515   -0.8579 H   0  0  0  0  0  0  0  0  0  0  0  0
   -1.9656   -0.7689    1.1724 C   0  0  0  0  0  0  0  0  0  0  0  0
   -1.3215    0.1108    1.2863 H   0  0  0  0  0  0  0  0  0  0  0  0
   -5.6778   -1.5263    0.8477 C   0  0  0  0  0  0  0  0  0  0  0  0
   -3.6225   -2.9981    0.7650 C   0  0  0  0  0  0  0  0  0  0  0  0
   -4.2777   -3.8673    0.6115 H   0  0  0  0  0  0  0  0  0  0  0  0
   -2.2313   -3.1455    0.7363 C   0  0  0  0  0  0  0  0  0  0  0  0
   -1.7789   -4.1282    0.5438 H   0  0  0  0  0  0  0  0  0  0  0  0
    1.7497   -6.0600    0.3780 C   0  0  0  0  0  0  0  0  0  0  0  0
    1.2277   -6.9769    0.7182 H   0  0  0  0  0  0  0  0  0  0  0  0
    1.6157   -5.2788    1.1519 H   0  0  0  0  0  0  0  0  0  0  0  0
    2.8317   -6.2904    0.3013 H   0  0  0  0  0  0  0  0  0  0  0  0
   -0.2730   -0.0236    4.9650 C   0  0  0  0  0  0  0  0  0  0  0  0
   -0.8752    0.6254    5.6319 H   0  0  0  0  0  0  0  0  0  0  0  0
    0.3466   -0.7025    5.5959 H   0  0  0  0  0  0  0  0  0  0  0  0
   -0.9408   -0.6517    4.3489 H   0  0  0  0  0  0  0  0  0  0  0  0
  2 20  1  0  0  0  0
  3  6  1  0  0  0  0
  5 19  1  0  0  0  0
  5 29  1  0  0  0  0
  6 20  2  0  0  0  0
  7  9  1  0  0  0  0
  7  8  1  0  0  0  0
  7  5  1  0  0  0  0
 10  4  1  6  0  0  0
 10 26  1  0  0  0  0
 10  3  1  0  0  0  0
 11  7  1  0  0  0  0
 12 11  1  0  0  0  0
 13 11  1  0  0  0  0
 14 11  1  0  0  0  0
 16 21  1  0  0  0  0
 16 43  1  0  0  0  0
 18 34  1  0  0  0  0
 19  1  1  6  0  0  0
 19  4  1  0  0  0  0
 20 16  1  0  0  0  0
 21 22  1  0  0  0  0
 21 24  1  0  0  0  0
 23 21  1  0  0  0  0
 25 27  1  0  0  0  0
 26 32  1  0  0  0  0
 27 28  1  0  0  0  0
 29 31  1  0  0  0  0
 29 39  1  0  0  0  0
 30 29  1  0  0  0  0
 32 27  2  0  0  0  0
 32 33  1  0  0  0  0
 34 25  1  0  0  0  0
 34 15  1  0  0  0  0
 34 17  1  0  0  0  0
 35 25  2  0  0  0  0
 36 35  1  0  0  0  0
 37 35  1  0  0  0  0
 37 26  2  0  0  0  0
 38 37  1  0  0  0  0
 39 40  1  0  0  0  0
 39 41  1  0  0  0  0
 42 39  1  0  0  0  0
 43 45  1  0  0  0  0
 43 44  1  0  0  0  0
 46 43  1  0  0  0  0
M  END
