1,2,3
q = -2.0, confidence = 0.982

 43 43  0  0  1  0  0  0  0  0999 V2000
    1.4216   -0.8445    1.9219 S   0  0  0  0  0  1  0  0  0  0  0  0
   -1.4803   -1.5798   -1.6835 S   0  0  0  0  0  1  0  0  0  0  0  0
   -1.3283   -0.1893    1.2726 N   0  0  0  0  0  2  0  0  0  0  0  0
   -0.9699    0.3144    2.5142 N   0  0  0  0  0  0  0  0  0  0  0  0
   -4.1709   -1.7096   -1.4658 N   0  0  0  0  0  0  0  0  0  0  0  0
   -3.1939   -0.0541   -0.2011 N   0  0  0  0  0  2  0  0  0  0  0  0
   -3.0526   -1.0713   -1.0294 C   0  0  2  0  0  3  0  0  0  0  0  0
   -4.1278   -2.7879   -2.4556 C   0  0  0  0  0  0  0  0  0  0  0  0
   -3.2965   -2.5876   -3.1594 H   0  0  0  0  0  0  0  0  0  0  0  0
   -5.0674   -2.7287   -3.0443 H   0  0  0  0  0  0  0  0  0  0  0  0
   -2.3499    0.4868    0.6722 C   0  0  1  0  0  3  0  0  0  0  0  0
    0.6789    0.6241    4.1055 N   0  0  0  0  0  0  0  0  0  0  0  0
    0.2541    0.0925    2.9103 C   0  0  0  0  0  0  0  0  0  0  0  0
   -5.4810   -1.3392   -0.9192 C   0  0  0  0  0  0  0  0  0  0  0  0
   -5.3459   -1.0628    0.1441 H   0  0  0  0  0  0  0  0  0  0  0  0
   -6.1176   -2.2479   -0.9437 H   0  0  0  0  0  0  0  0  0  0  0  0
   -0.2745    1.3686    4.9109 C   0  0  0  0  0  0  0  0  0  0  0  0
   -0.9137    0.6977    5.5312 H   0  0  0  0  0  0  0  0  0  0  0  0
    0.2782    2.0524    5.5858 H   0  0  0  0  0  0  0  0  0  0  0  0
   -0.9420    1.9510    4.2504 H   0  0  0  0  0  0  0  0  0  0  0  0
    1.8656    0.1422    4.7814 C   0  0  0  0  0  0  0  0  0  0  0  0
    1.6305   -0.6393    5.5428 H   0  0  0  0  0  0  0  0  0  0  0  0
    2.5696   -0.2944    4.0486 H   0  0  0  0  0  0  0  0  0  0  0  0
    2.3717    0.9841    5.2982 H   0  0  0  0  0  0  0  0  0  0  0  0
   -2.5995    1.9191    0.9944 C   0  0  0  0  0  0  0  0  0  0  0  0
   -1.5186    2.8112    1.1772 C   0  0  0  0  0  0  0  0  0  0  0  0
   -0.4912    2.4237    1.1601 H   0  0  0  0  0  0  0  0  0  0  0  0
   -6.1357   -0.1913   -1.6877 C   0  0  0  0  0  0  0  0  0  0  0  0
   -7.1306    0.0439   -1.2586 H   0  0  0  0  0  0  0  0  0  0  0  0
   -5.5053    0.7172   -1.6271 H   0  0  0  0  0  0  0  0  0  0  0  0
   -6.2780   -0.4480   -2.7571 H   0  0  0  0  0  0  0  0  0  0  0  0
   -3.9634   -4.1691   -1.8213 C   0  0  0  0  0  0  0  0  0  0  0  0
   -3.9619   -4.9554   -2.6025 H   0  0  0  0  0  0  0  0  0  0  0  0
   -3.0041   -4.2239   -1.2694 H   0  0  0  0  0  0  0  0  0  0  0  0
   -4.7878   -4.3915   -1.1136 H   0  0  0  0  0  0  0  0  0  0  0  0
   -3.9144    2.4284    0.9806 C   0  0  0  0  0  0  0  0  0  0  0  0
   -4.7490    1.7301    0.8239 H   0  0  0  0  0  0  0  0  0  0  0  0
   -1.7539    4.1823    1.3308 C   0  0  0  0  0  0  0  0  0  0  0  0
   -0.9025    4.8708    1.4409 H   0  0  0  0  0  0  0  0  0  0  0  0
   -4.1481    3.7979    1.1663 C   0  0  0  0  0  0  0  0  0  0  0  0
   -5.1797    4.1816    1.1682 H   0  0  0  0  0  0  0  0  0  0  0  0
   -3.0690    4.6792    1.3380 C   0  0  0  0  0  0  0  0  0  0  0  0
   -3.2511    5.7567    1.4699 H   0  0  0  0  0  0  0  0  0  0  0  0
  1 13  1  0  0  0  0
  3  4  1  0  0  0  0
  4 13  2  0  0  0  0
  5  7  1  0  0  0  0
  5 14  1  0  0  0  0
  7  2  1  6  0  0  0
  7  6  1  0  0  0  0
  8 32  1  0  0  0  0
  8  5  1  0  0  0  0
  9  8  1  0  0  0  0
 10  8  1  0  0  0  0
 11  6  1  1  0  0  0
 11 25  1  0  0  0  0
 11  3  1  0  0  0  0
 12 21  1  0  0  0  0
 12 17  1  0  0  0  0
 13 12  1  0  0  0  0
 14 15  1  0  0  0  0
 16 14  1  0  0  0  0
 17 18  1  0  0  0  0
 17 19  1  0  0  0  0
 20 17  1  0  0  0  0
 21 24  1  0  0  0  0
 21 22  1  0  0  0  0
 23 21  1  0  0  0  0
 25 26  1  0  0  0  0
 26 38  2  0  0  0  0
 27 26  1  0  0  0  0
 28 30  1  0  0  0  0
 28 29  1  0  0  0  0
 28 14  1  0  0  0  0
 31 28  1  0  0  0  0
 32 34  1  0  0  0  0
 32 35  1  0  0  0  0
 33 32  1  0  0  0  0
 36 25  2  0  0  0  0
 36 40  1  0  0  0  0
 37 36  1  0  0  0  0
 38 42  1  0  0  0  0
 38 39  1  0  0  0  0
 40 41  1  0  0  0  0
 40 42  2  0  0  0  0
 42 43  1  0  0  0  0
M  END
