1,2,6
q = -2.0, confidence = 0.956

 43 43  0  0  1  0  0  0  0  0999 V2000
    0.6503   -3.0366    0.3853 S   0  0  0  0  0  1  0  0  0  0  0  0
    2.5086    0.6890   -0.6177 S   0  0  0  0  0  1  0  0  0  0  0  0
   -6.1034    2.0233   -1.1698 F   0  0  0  0  0  0  0  0  0  0  0  0
    1.9949    3.1485    0.3356 N   0  0  0  0  0  0  0  0  0  0  0  0
    0.1034    1.9314   -0.1245 N   0  0  0  0  0  0  0  0  0  0  0  0
   -0.2962   -0.4005    0.2107 N   0  0  0  0  0  2  0  0  0  0  0  0
   -1.1940   -1.1473    0.9373 N   0  0  0  0  0  2  0  0  0  0  0  0
   -1.6273   -3.2197    1.8908 N   0  0  0  0  0  0  0  0  0  0  0  0
    0.6161    3.9942    2.2655 C   0  0  0  0  0  0  0  0  0  0  0  0
    0.0189    3.0630    2.3200 H   0  0  0  0  0  0  0  0  0  0  0  0
   -0.0360    4.8370    2.5716 H   0  0  0  0  0  0  0  0  0  0  0  0
    1.4445    3.9196    2.9968 H   0  0  0  0  0  0  0  0  0  0  0  0
    1.1309    4.2214    0.8433 C   0  0  0  0  0  0  0  0  0  0  0  0
    0.2735    4.3111    0.1453 H   0  0  0  0  0  0  0  0  0  0  0  0
    1.7174    5.1599    0.7843 H   0  0  0  0  0  0  0  0  0  0  0  0
    3.4483    3.3347    0.3680 C   0  0  0  0  0  0  0  0  0  0  0  0
    3.6388    4.4127    0.1872 H   0  0  0  0  0  0  0  0  0  0  0  0
    3.8850    2.7843   -0.4895 H   0  0  0  0  0  0  0  0  0  0  0  0
    4.1065    2.8804    1.6718 C   0  0  0  0  0  0  0  0  0  0  0  0
    3.7291    3.4516    2.5430 H   0  0  0  0  0  0  0  0  0  0  0  0
    5.2030    3.0301    1.6144 H   0  0  0  0  0  0  0  0  0  0  0  0
    3.9175    1.8028    1.8462 H   0  0  0  0  0  0  0  0  0  0  0  0
    1.4249    1.9861   -0.0875 C   0  0  1  0  0  3  0  0  0  0  0  0
   -0.7049    0.8755   -0.0811 C   0  0  0  0  0  0  0  0  0  0  0  0
   -2.1444    1.1474   -0.3201 C   0  0  0  0  0  0  0  0  0  0  0  0
   -2.6730    2.4262   -0.0407 C   0  0  0  0  0  0  0  0  0  0  0  0
   -2.0142    3.1820    0.4084 H   0  0  0  0  0  0  0  0  0  0  0  0
   -4.0110    2.7285   -0.3168 C   0  0  0  0  0  0  0  0  0  0  0  0
   -4.4412    3.7144   -0.0909 H   0  0  0  0  0  0  0  0  0  0  0  0
   -4.8181    1.7425   -0.8980 C   0  0  0  0  0  0  0  0  0  0  0  0
   -4.3173    0.4691   -1.2074 C   0  0  0  0  0  0  0  0  0  0  0  0
   -4.9791   -0.2695   -1.6814 H   0  0  0  0  0  0  0  0  0  0  0  0
   -2.9847    0.1744   -0.9101 C   0  0  0  0  0  0  0  0  0  0  0  0
   -2.5790   -0.8163   -1.1537 H   0  0  0  0  0  0  0  0  0  0  0  0
   -0.8564   -2.4001    1.1080 C   0  0  2  0  0  3  0  0  0  0  0  0
   -2.8881   -2.7204    2.4126 C   0  0  0  0  0  0  0  0  0  0  0  0
   -2.8198   -1.6261    2.5459 H   0  0  0  0  0  0  0  0  0  0  0  0
   -3.1009   -3.2064    3.3862 H   0  0  0  0  0  0  0  0  0  0  0  0
   -3.7369   -2.9328    1.7218 H   0  0  0  0  0  0  0  0  0  0  0  0
   -1.4115   -4.6508    1.9536 C   0  0  0  0  0  0  0  0  0  0  0  0
   -2.0681   -5.2076    1.2445 H   0  0  0  0  0  0  0  0  0  0  0  0
   -1.6259   -5.0149    2.9795 H   0  0  0  0  0  0  0  0  0  0  0  0
   -0.3601   -4.8927    1.7101 H   0  0  0  0  0  0  0  0  0  0  0  0
  3 30  1  0  0  0  0
  4 16  1  0  0  0  0
  4 13  1  0  0  0  0
  5 23  1  0  0  0  0
  5 24  2  0  0  0  0
  6  7  1  0  0  0  0
  7 35  1  0  0  0  0
  8 40  1  0  0  0  0
  8 36  1  0  0  0  0
  9 10  1  0  0  0  0
  9 11  1  0  0  0  0
  9 12  1  0  0  0  0
 13  9  1  0  0  0  0
 14 13  1  0  0  0  0
 15 13  1  0  0  0  0
 16 19  1  0  0  0  0
 17 16  1  0  0  0  0
 18 16  1  0  0  0  0
 19 22  1  0  0  0  0
 19 20  1  0  0  0  0
 21 19  1  0  0  0  0
 23  2  1  6  0  0  0
 23  4  1  0  0  0  0
 24  6  1  0  0  0  0
 25 24  1  0  0  0  0
 25 26  1  0  0  0  0
 26 27  1  0  0  0  0
 28 29  1  0  0  0  0
 28 26  2  0  0  0  0
 30 28  1  0  0  0  0
 31 33  1  0  0  0  0
 31 30  2  0  0  0  0
 32 31  1  0  0  0  0
 33 25  2  0  0  0  0
 34 33  1  0  0  0  0
 35  1  1  1  0  0  0
 35  8  1  0  0  0  0
 36 37  1  0  0  0  0
 36 38  1  0  0  0  0
 39 36  1  0  0  0  0
 40 42  1  0  0  0  0
 41 40  1  0  0  0  0
 43 40  1  0  0  0  0
M  END
