1,5,8
q = -2.0, confidence = 0.95

 50 51  0  0  1  0  0  0  0  0999 V2000
   -2.1726   -1.8753   -0.2825 S   0  0  0  0  0  1  0  0  0  0  0  0
   -2.9564   -0.5086    0.5520 C   0  0  1  0  0  3  0  0  0  0  0  0
   -2.6011    0.7543    0.4021 N   0  0  0  0  0  0  0  0  0  0  0  0
   -1.4123    1.2701    0.0978 C   0  0  0  0  0  0  0  0  0  0  0  0
   -0.2353    0.5597    0.1437 N   0  0  0  0  0  2  0  0  0  0  0  0
    0.8481    1.2521    0.6501 N   0  0  0  0  0  2  0  0  0  0  0  0
    1.9865    0.6226    0.5402 C   0  0  1  0  0  3  0  0  0  0  0  0
    2.0683   -0.9904   -0.2379 S   0  0  0  0  0  1  0  0  0  0  0  0
   -1.3872    2.7100   -0.2580 C   0  0  0  0  0  0  0  0  0  0  0  0
   -0.3899    3.2304   -1.1144 C   0  0  0  0  0  0  0  0  0  0  0  0
    0.3984    2.5664   -1.4940 H   0  0  0  0  0  0  0  0  0  0  0  0
   -0.4243    4.5745   -1.5005 C   0  0  0  0  0  0  0  0  0  0  0  0
    0.3475    4.9655   -2.1804 H   0  0  0  0  0  0  0  0  0  0  0  0
   -1.4427    5.4217   -1.0295 C   0  0  0  0  0  0  0  0  0  0  0  0
   -1.4611    6.4809   -1.3285 H   0  0  0  0  0  0  0  0  0  0  0  0
   -2.4400    4.9116   -0.1828 C   0  0  0  0  0  0  0  0  0  0  0  0
   -3.2408    5.5702    0.1863 H   0  0  0  0  0  0  0  0  0  0  0  0
   -2.4177    3.5629    0.1938 C   0  0  0  0  0  0  0  0  0  0  0  0
   -3.1937    3.1473    0.8520 H   0  0  0  0  0  0  0  0  0  0  0  0
   -4.0160   -0.7913    1.3511 N   0  0  0  0  0  0  0  0  0  0  0  0
   -4.5757   -2.1402    1.4784 C   0  0  0  0  0  0  0  0  0  0  0  0
   -4.4373   -2.6723    0.5167 H   0  0  0  0  0  0  0  0  0  0  0  0
   -5.6703   -2.0242    1.6220 H   0  0  0  0  0  0  0  0  0  0  0  0
   -3.9564   -2.9390    2.6248 C   0  0  0  0  0  0  0  0  0  0  0  0
   -4.4376   -3.9341    2.7026 H   0  0  0  0  0  0  0  0  0  0  0  0
   -4.0842   -2.4205    3.5967 H   0  0  0  0  0  0  0  0  0  0  0  0
   -2.8737   -3.0920    2.4476 H   0  0  0  0  0  0  0  0  0  0  0  0
   -4.6618    0.2835    2.1155 C   0  0  0  0  0  0  0  0  0  0  0  0
   -3.8796    0.9992    2.4325 H   0  0  0  0  0  0  0  0  0  0  0  0
   -5.0793   -0.1754    3.0354 H   0  0  0  0  0  0  0  0  0  0  0  0
   -5.7506    1.0007    1.3179 C   0  0  0  0  0  0  0  0  0  0  0  0
   -6.2277    1.7857    1.9382 H   0  0  0  0  0  0  0  0  0  0  0  0
   -6.5433    0.2983    0.9896 H   0  0  0  0  0  0  0  0  0  0  0  0
   -5.3146    1.4804    0.4202 H   0  0  0  0  0  0  0  0  0  0  0  0
    3.1330    1.2382    0.9896 N   0  0  0  0  0  0  0  0  0  0  0  0
    3.0180    2.6389    1.3941 C   0  0  0  0  0  0  0  0  0  0  0  0
    3.9767    2.9632    1.8349 H   0  0  0  0  0  0  0  0  0  0  0  0
    2.2079    2.7488    2.1425 H   0  0  0  0  0  0  0  0  0  0  0  0
    2.7584    3.2897    0.5330 H   0  0  0  0  0  0  0  0  0  0  0  0
    4.3911    0.5816    1.0607 C   0  0  0  0  0  0  0  0  0  0  0  0
    4.5151   -0.6839    1.6727 C   0  0  0  0  0  0  0  0  0  0  0  0
    3.6275   -1.1676    2.1037 H   0  0  0  0  0  0  0  0  0  0  0  0
    5.7652   -1.3129    1.7378 C   0  0  0  0  0  0  0  0  0  0  0  0
    5.8461   -2.3020    2.2134 H   0  0  0  0  0  0  0  0  0  0  0  0
    6.9090   -0.6825    1.2225 C   0  0  0  0  0  0  0  0  0  0  0  0
    7.8897   -1.1773    1.2829 H   0  0  0  0  0  0  0  0  0  0  0  0
    6.7916    0.5861    0.6330 C   0  0  0  0  0  0  0  0  0  0  0  0
    7.6800    1.0887    0.2213 H   0  0  0  0  0  0  0  0  0  0  0  0
    5.5419    1.2135    0.5436 C   0  0  0  0  0  0  0  0  0  0  0  0
    5.4492    2.1932    0.0522 H   0  0  0  0  0  0  0  0  0  0  0  0
  2  1  1  6  0  0  0
  2 20  1  0  0  0  0
  3  2  1  0  0  0  0
  4  5  1  0  0  0  0
  4  3  2  0  0  0  0
  5  6  1  0  0  0  0
  7  8  1  6  0  0  0
  7  6  1  0  0  0  0
  7 35  1  0  0  0  0
  9  4  1  0  0  0  0
  9 18  1  0  0  0  0
 10  9  2  0  0  0  0
 11 10  1  0  0  0  0
 12 10  1  0  0  0  0
 12 14  2  0  0  0  0
 13 12  1  0  0  0  0
 14 16  1  0  0  0  0
 15 14  1  0  0  0  0
 16 17  1  0  0  0  0
 16 18  2  0  0  0  0
 18 19  1  0  0  0  0
 20 21  1  0  0  0  0
 20 28  1  0  0  0  0
 21 23  1  0  0  0  0
 21 24  1  0  0  0  0
 22 21  1  0  0  0  0
 24 25  1  0  0  0  0
 24 26  1  0  0  0  0
 27 24  1  0  0  0  0
 28 29  1  0  0  0  0
 28 30  1  0  0  0  0
 31 32  1  0  0  0  0
 31 28  1  0  0  0  0
 33 31  1  0  0  0  0
 34 31  1  0  0  0  0
 35 40  1  0  0  0  0
 35 36  1  0  0  0  0
 36 37  1  0  0  0  0
 36 38  1  0  0  0  0
 39 36  1  0  0  0  0
 40 41  1  0  0  0  0
 41 43  2  0  0  0  0
 41 42  1  0  0  0  0
 43 44  1  0  0  0  0
 45 46  1  0  0  0  0
 45 43  1  0  0  0  0
 47 45  2  0  0  0  0
 48 47  1  0  0  0  0
 49 47  1  0  0  0  0
 49 40  2  0  0  0  0
 50 49  1  0  0  0  0
M  END
