4,5,6,32,33,49
q = -2.0, confidence = 0.686

 60 61  0  0  0  0  0  0  0  0999 V2000
   -2.3823    0.9077    1.2751 O   0  0  0  0  0  0  0  0  0  0  0  0
    2.2441   -1.5345   -1.0807 O   0  0  0  0  0  0  0  0  0  0  0  0
    2.7591    0.7701   -0.4614 O   0  0  0  0  0  0  0  0  0  0  0  0
   -1.1017    0.5076    1.3918 N   0  0  0  0  0  2  0  0  0  0  0  0
    0.9047   -1.3898   -1.0453 N   0  0  0  0  0  2  0  0  0  0  0  0
    1.4665    1.1111   -0.6079 N   0  0  0  0  0  2  0  0  0  0  0  0
   -2.9647    0.6673   -0.0886 B   0  0  1  0  0  0  0  0  0  0  0  0
    0.8492   -3.5847   -2.1569 C   0  0  0  0  0  0  0  0  0  0  0  0
    0.1865   -2.3982   -1.5367 C   0  0  0  0  0  0  0  0  0  0  0  0
    1.2209    2.1966   -1.3395 C   0  0  0  0  0  0  0  0  0  0  0  0
    2.3401    3.0163   -1.8938 C   0  0  0  0  0  0  0  0  0  0  0  0
   -0.6668    0.2655    2.6270 C   0  0  0  0  0  0  0  0  0  0  0  0
   -1.5474    0.4946    3.8118 C   0  0  0  0  0  0  0  0  0  0  0  0
   -4.5305    1.0176   -0.0889 C   0  0  0  0  0  0  0  0  0  0  0  0
   -5.3159    0.1505    0.8457 C   0  0  0  0  0  0  0  0  0  0  0  0
   -6.2202   -0.7823    0.4939 C   0  0  0  0  0  0  0  0  0  0  0  0
    1.5518   -4.0484   -1.4339 H   0  0  0  0  0  0  0  0  0  0  0  0
    0.1122   -4.3410   -2.4796 H   0  0  0  0  0  0  0  0  0  0  0  0
    1.4614   -3.2822   -3.0310 H   0  0  0  0  0  0  0  0  0  0  0  0
    2.9763    2.3936   -2.5567 H   0  0  0  0  0  0  0  0  0  0  0  0
    1.9669    3.8845   -2.4652 H   0  0  0  0  0  0  0  0  0  0  0  0
    3.0040    3.3732   -1.0805 H   0  0  0  0  0  0  0  0  0  0  0  0
   -1.0432    0.2175    4.7543 H   0  0  0  0  0  0  0  0  0  0  0  0
   -1.8624    1.5565    3.8701 H   0  0  0  0  0  0  0  0  0  0  0  0
   -2.4794   -0.0997    3.7118 H   0  0  0  0  0  0  0  0  0  0  0  0
   -4.9134    0.9291   -1.1275 H   0  0  0  0  0  0  0  0  0  0  0  0
   -4.6216    2.0869    0.2057 H   0  0  0  0  0  0  0  0  0  0  0  0
   -5.0873    0.2794    1.9206 H   0  0  0  0  0  0  0  0  0  0  0  0
   -6.4809   -0.9574   -0.5639 H   0  0  0  0  0  0  0  0  0  0  0  0
   -6.7310   -1.4045    1.2455 H   0  0  0  0  0  0  0  0  0  0  0  0
   -2.2441    1.5345   -1.0807 O   0  0  0  0  0  0  0  0  0  0  0  0
   -0.9046    1.3898   -1.0453 N   0  0  0  0  0  2  0  0  0  0  0  0
    1.1017   -0.5076    1.3918 N   0  0  0  0  0  2  0  0  0  0  0  0
    2.3823   -0.9077    1.2751 O   0  0  0  0  0  0  0  0  0  0  0  0
    2.9647   -0.6673   -0.0886 B   0  0  1  0  0  0  0  0  0  0  0  0
    4.5305   -1.0176   -0.0889 C   0  0  0  0  0  0  0  0  0  0  0  0
    5.3159   -0.1506    0.8457 C   0  0  0  0  0  0  0  0  0  0  0  0
    6.2202    0.7823    0.4939 C   0  0  0  0  0  0  0  0  0  0  0  0
    6.4809    0.9575   -0.5639 H   0  0  0  0  0  0  0  0  0  0  0  0
    6.7310    1.4046    1.2455 H   0  0  0  0  0  0  0  0  0  0  0  0
    5.0874   -0.2795    1.9206 H   0  0  0  0  0  0  0  0  0  0  0  0
    4.9134   -0.9291   -1.1275 H   0  0  0  0  0  0  0  0  0  0  0  0
    4.6216   -2.0869    0.2057 H   0  0  0  0  0  0  0  0  0  0  0  0
   -0.1865    2.3982   -1.5367 C   0  0  0  0  0  0  0  0  0  0  0  0
   -0.8492    3.5847   -2.1568 C   0  0  0  0  0  0  0  0  0  0  0  0
   -1.5518    4.0484   -1.4338 H   0  0  0  0  0  0  0  0  0  0  0  0
   -0.1122    4.3410   -2.4795 H   0  0  0  0  0  0  0  0  0  0  0  0
   -1.4614    3.2823   -3.0310 H   0  0  0  0  0  0  0  0  0  0  0  0
   -1.4665   -1.1111   -0.6079 N   0  0  0  0  0  2  0  0  0  0  0  0
   -2.7591   -0.7701   -0.4614 O   0  0  0  0  0  0  0  0  0  0  0  0
   -1.2209   -2.1966   -1.3395 C   0  0  0  0  0  0  0  0  0  0  0  0
   -2.3401   -3.0163   -1.8939 C   0  0  0  0  0  0  0  0  0  0  0  0
   -2.9763   -2.3936   -2.5568 H   0  0  0  0  0  0  0  0  0  0  0  0
   -1.9669   -3.8844   -2.4652 H   0  0  0  0  0  0  0  0  0  0  0  0
   -3.0040   -3.3732   -1.0805 H   0  0  0  0  0  0  0  0  0  0  0  0
    0.6668   -0.2656    2.6270 C   0  0  0  0  0  0  0  0  0  0  0  0
    1.5474   -0.4947    3.8118 C   0  0  0  0  0  0  0  0  0  0  0  0
    1.0432   -0.2176    4.7543 H   0  0  0  0  0  0  0  0  0  0  0  0
    1.8624   -1.5566    3.8701 H   0  0  0  0  0  0  0  0  0  0  0  0
    2.4794    0.0997    3.7119 H   0  0  0  0  0  0  0  0  0  0  0  0
  1  4  1  0  0  0  0
  2  5  1  0  0  0  0
  2 35  1  0  0  0  0
  3 35  1  0  0  0  0
  4 12  1  0  0  0  0
  6  3  1  0  0  0  0
  7 14  1  1  0  0  0
  7  1  1  0  0  0  0
  8  9  1  0  0  0  0
  8 17  1  0  0  0  0
  9 51  2  0  0  0  0
  9  5  1  0  0  0  0
 10  6  1  0  0  0  0
 11 10  1  0  0  0  0
 11 22  1  0  0  0  0
 12 13  1  0  0  0  0
 13 24  1  0  0  0  0
 13 23  1  0  0  0  0
 14 27  1  0  0  0  0
 14 15  1  0  0  0  0
 15 28  1  0  0  0  0
 16 15  2  0  0  0  0
 16 30  1  0  0  0  0
 18  8  1  0  0  0  0
 19  8  1  0  0  0  0
 20 11  1  0  0  0  0
 21 11  1  0  0  0  0
 25 13  1  0  0  0  0
 26 14  1  0  0  0  0
 29 16  1  0  0  0  0
 31 32  1  0  0  0  0
 31  7  1  0  0  0  0
 33 56  1  0  0  0  0
 34 33  1  0  0  0  0
 35 36  1  1  0  0  0
 35 34  1  0  0  0  0
 36 43  1  0  0  0  0
 36 37  1  0  0  0  0
 37 41  1  0  0  0  0
 38 37  2  0  0  0  0
 38 40  1  0  0  0  0
 39 38  1  0  0  0  0
 42 36  1  0  0  0  0
 44 10  2  0  0  0  0
 44 32  1  0  0  0  0
 45 44  1  0  0  0  0
 45 46  1  0  0  0  0
 47 45  1  0  0  0  0
 48 45  1  0  0  0  0
 49 50  1  0  0  0  0
 50  7  1  0  0  0  0
 51 49  1  0  0  0  0
 52 51  1  0  0  0  0
 52 55  1  0  0  0  0
 53 52  1  0  0  0  0
 54 52  1  0  0  0  0
 56 12  2  0  0  0  0
 56 57  1  0  0  0  0
 57 59  1  0  0  0  0
 57 58  1  0  0  0  0
 60 57  1  0  0  0  0
M  END
