2,3,5,6,8,9
q = -3.0, confidence = 0.466

 58 60  0  0  0  0  0  0  0  0999 V2000
    3.6817    0.0005   -0.0001 N   0  0  0  0  0  0  0  0  0  0  0  0
    1.1622   -1.3382    0.9851 N   0  0  0  0  0  2  0  0  0  0  0  0
   -0.9158    0.0775    1.6372 N   0  0  0  0  0  0  0  0  0  0  0  0
   -2.1998    0.2539    3.4842 N   0  0  0  0  0  0  0  0  0  0  0  0
    1.1619   -0.1845   -1.6518 N   0  0  0  0  0  2  0  0  0  0  0  0
   -0.9163   -1.4567   -0.7513 N   0  0  0  0  0  0  0  0  0  0  0  0
   -2.2004   -3.1445   -1.5216 N   0  0  0  0  0  0  0  0  0  0  0  0
    1.1617    1.5227    0.6658 N   0  0  0  0  0  2  0  0  0  0  0  0
   -0.9167    1.3789   -0.8858 N   0  0  0  0  0  0  0  0  0  0  0  0
   -2.2015    2.8900   -1.9615 N   0  0  0  0  0  0  0  0  0  0  0  0
    3.6325   -1.3161    0.5799 C   0  0  0  0  0  0  0  0  0  0  0  0
    2.2913   -2.0820    0.4726 C   0  0  0  0  0  0  0  0  0  0  0  0
    0.6942   -1.5695    2.1916 C   0  0  0  0  0  3  0  0  0  0  0  0
   -0.4177   -0.7969    2.6012 C   0  0  0  0  0  3  0  0  0  0  0  0
   -1.2433   -0.6643    3.7375 C   0  0  0  0  0  0  0  0  0  0  0  0
   -1.9814    0.6867    2.2069 C   0  0  0  0  0  0  0  0  0  0  0  0
   -2.8711    1.6939    1.5585 C   0  0  0  0  0  0  0  0  0  0  0  0
    3.6323    0.1563   -1.4303 C   0  0  0  0  0  0  0  0  0  0  0  0
    2.2907    0.6313   -2.0402 C   0  0  0  0  0  0  0  0  0  0  0  0
    0.6936   -1.1139   -2.4550 C   0  0  0  0  0  3  0  0  0  0  0  0
   -0.4183   -1.8545   -1.9906 C   0  0  0  0  0  0  0  0  0  0  0  0
   -1.2440   -2.9049   -2.4436 C   0  0  0  0  0  0  0  0  0  0  0  0
   -1.9818   -2.2545   -0.5083 C   0  0  0  0  0  3  0  0  0  0  0  0
   -2.8714   -2.1965    0.6883 C   0  0  0  0  0  0  0  0  0  0  0  0
    3.6322    1.1611    0.8499 C   0  0  0  0  0  0  0  0  0  0  0  0
    2.2907    1.4514    1.5663 C   0  0  0  0  0  0  0  0  0  0  0  0
    0.6934    2.6830    0.2625 C   0  0  0  0  0  3  0  0  0  0  0  0
   -0.4186    2.6511   -0.6110 C   0  0  0  0  0  3  0  0  0  0  0  0
   -1.2446    3.5686   -1.2938 C   0  0  0  0  0  0  0  0  0  0  0  0
   -1.9828    1.5674   -1.6975 C   0  0  0  0  0  0  0  0  0  0  0  0
   -2.8731    0.5024   -2.2449 C   0  0  0  0  0  0  0  0  0  0  0  0
    4.4127   -1.9747    0.1241 H   0  0  0  0  0  0  0  0  0  0  0  0
    3.8965   -1.2221    1.6555 H   0  0  0  0  0  0  0  0  0  0  0  0
    2.3988   -3.0450    1.0212 H   0  0  0  0  0  0  0  0  0  0  0  0
    2.0910   -2.3391   -0.5871 H   0  0  0  0  0  0  0  0  0  0  0  0
    1.1515   -2.3385    2.8424 H   0  0  0  0  0  0  0  0  0  0  0  0
   -1.1703   -1.1884    4.7004 H   0  0  0  0  0  0  0  0  0  0  0  0
   -2.3087    2.5679    1.1755 H   0  0  0  0  0  0  0  0  0  0  0  0
   -3.4159    1.2638    0.6936 H   0  0  0  0  0  0  0  0  0  0  0  0
   -3.6106    2.0343    2.3049 H   0  0  0  0  0  0  0  0  0  0  0  0
    4.4120    0.8808   -1.7729 H   0  0  0  0  0  0  0  0  0  0  0  0
    3.8968   -0.8221   -1.8866 H   0  0  0  0  0  0  0  0  0  0  0  0
    2.3983    0.6369   -3.1485 H   0  0  0  0  0  0  0  0  0  0  0  0
    2.0902    1.6776   -1.7340 H   0  0  0  0  0  0  0  0  0  0  0  0
    1.1509   -1.2932   -3.4464 H   0  0  0  0  0  0  0  0  0  0  0  0
   -1.1711   -3.4770   -3.3788 H   0  0  0  0  0  0  0  0  0  0  0  0
   -2.3090   -2.3018    1.6367 H   0  0  0  0  0  0  0  0  0  0  0  0
   -3.4163   -1.2324    0.7484 H   0  0  0  0  0  0  0  0  0  0  0  0
   -3.6109   -3.0131    0.6101 H   0  0  0  0  0  0  0  0  0  0  0  0
    4.4119    1.0955    1.6486 H   0  0  0  0  0  0  0  0  0  0  0  0
    3.8967    2.0455    0.2308 H   0  0  0  0  0  0  0  0  0  0  0  0
    2.3982    2.4083    2.1254 H   0  0  0  0  0  0  0  0  0  0  0  0
    2.0904    0.6628    2.3192 H   0  0  0  0  0  0  0  0  0  0  0  0
    1.1506    3.6313    0.6029 H   0  0  0  0  0  0  0  0  0  0  0  0
   -1.1716    4.6646   -1.3216 H   0  0  0  0  0  0  0  0  0  0  0  0
   -3.6139    0.9788   -2.9112 H   0  0  0  0  0  0  0  0  0  0  0  0
   -2.3115   -0.2656   -2.8121 H   0  0  0  0  0  0  0  0  0  0  0  0
   -3.4163   -0.0324   -1.4394 H   0  0  0  0  0  0  0  0  0  0  0  0
  1 11  1  0  0  0  0
  1 25  1  0  0  0  0
  2 13  1  0  0  0  0
  3 16  2  0  0  0  0
  3 14  1  0  0  0  0
  4 15  2  0  0  0  0
  6 23  1  0  0  0  0
  7 23  1  0  0  0  0
  8 26  1  0  0  0  0
  9 28  1  0  0  0  0
 10 30  1  0  0  0  0
 10 29  2  0  0  0  0
 11 33  1  0  0  0  0
 12 11  1  0  0  0  0
 12  2  1  0  0  0  0
 12 34  1  0  0  0  0
 13 14  1  0  0  0  0
 13 36  1  0  0  0  0
 14 15  1  0  0  0  0
 15 37  1  0  0  0  0
 16  4  1  0  0  0  0
 17 16  1  0  0  0  0
 17 40  1  0  0  0  0
 18  1  1  0  0  0  0
 19 44  1  0  0  0  0
 19  5  1  0  0  0  0
 19 18  1  0  0  0  0
 20 21  1  0  0  0  0
 20  5  1  0  0  0  0
 21  6  2  0  0  0  0
 22 21  1  0  0  0  0
 22  7  2  0  0  0  0
 23 24  1  0  0  0  0
 24 48  1  0  0  0  0
 24 47  1  0  0  0  0
 25 26  1  0  0  0  0
 25 50  1  0  0  0  0
 26 52  1  0  0  0  0
 26 53  1  0  0  0  0
 27 54  1  0  0  0  0
 27  8  1  0  0  0  0
 28 27  1  0  0  0  0
 29 28  1  0  0  0  0
 30  9  2  0  0  0  0
 31 30  1  0  0  0  0
 31 58  1  0  0  0  0
 32 11  1  0  0  0  0
 35 12  1  0  0  0  0
 38 17  1  0  0  0  0
 39 17  1  0  0  0  0
 41 18  1  0  0  0  0
 42 18  1  0  0  0  0
 43 19  1  0  0  0  0
 45 20  1  0  0  0  0
 46 22  1  0  0  0  0
 49 24  1  0  0  0  0
 51 25  1  0  0  0  0
 55 29  1  0  0  0  0
 56 31  1  0  0  0  0
 57 31  1  0  0  0  0
M  END
