1,3,5,7,9,11
q = -2.0, confidence = 0.722

 82 87  0  0  1  0  0  0  0  0999 V2000
    1.5754    0.9865   -0.6697 N   0  0  0  0  0  2  0  0  0  0  0  0
    1.5229    1.9735   -1.5812 O   0  0  0  0  0  0  0  0  0  0  0  0
   -0.8656    0.2833   -1.3397 N   0  0  0  0  0  2  0  0  0  0  0  0
   -0.6239    1.1156   -2.3665 O   0  0  0  0  0  0  0  0  0  0  0  0
   -0.4971    2.2858    0.2978 N   0  0  0  0  0  2  0  0  0  0  0  0
   -0.5567    3.0223   -0.8337 O   0  0  0  0  0  0  0  0  0  0  0  0
    1.2620   -0.9828    0.7337 N   0  0  0  0  0  2  0  0  0  0  0  0
    1.0198   -1.8923    1.6959 O   0  0  0  0  0  0  0  0  0  0  0  0
   -1.3541   -0.7772    0.7994 N   0  0  0  0  0  2  0  0  0  0  0  0
   -1.3662   -1.4438    1.9722 O   0  0  0  0  0  0  0  0  0  0  0  0
    0.1095    0.8509    2.2179 N   0  0  0  0  0  2  0  0  0  0  0  0
    0.2863   -0.0903    3.1716 O   0  0  0  0  0  0  0  0  0  0  0  0
    0.1325    2.3495   -1.9797 B   0  0  1  0  0  0  0  0  0  0  0  0
    0.1771    3.2001   -3.0329 F   0  0  0  0  0  0  0  0  0  0  0  0
   -0.0332   -1.4642    2.6610 B   0  0  2  0  0  0  0  0  0  0  0  0
   -0.0828   -2.3285    3.7046 F   0  0  0  0  0  0  0  0  0  0  0  0
   -0.5379    2.5132    3.8203 O   0  0  0  0  0  0  0  0  0  0  0  0
   -0.8479    4.2036    1.6743 O   0  0  0  0  0  0  0  0  0  0  0  0
    2.6488    0.1902   -0.6841 C   0  0  2  0  0  3  0  0  0  0  0  0
    3.7872    0.3581   -1.6090 C   0  0  0  0  0  0  0  0  0  0  0  0
    4.3436    1.6306   -1.8729 C   0  0  0  0  0  0  0  0  0  0  0  0
    3.9132    2.5197   -1.3942 H   0  0  0  0  0  0  0  0  0  0  0  0
    5.4374    1.7583   -2.7383 C   0  0  0  0  0  0  0  0  0  0  0  0
    5.8633    2.7547   -2.9302 H   0  0  0  0  0  0  0  0  0  0  0  0
    5.9861    0.6262   -3.3620 C   0  0  0  0  0  0  0  0  0  0  0  0
    6.8431    0.7317   -4.0445 H   0  0  0  0  0  0  0  0  0  0  0  0
    5.4331   -0.6405   -3.1148 C   0  0  0  0  0  0  0  0  0  0  0  0
    5.8510   -1.5324   -3.6055 H   0  0  0  0  0  0  0  0  0  0  0  0
    4.3456   -0.7758   -2.2437 C   0  0  0  0  0  0  0  0  0  0  0  0
    3.9157   -1.7698   -2.0544 H   0  0  0  0  0  0  0  0  0  0  0  0
    2.5024   -0.9141    0.2427 C   0  0  1  0  0  3  0  0  0  0  0  0
    3.6068   -1.7954    0.6701 C   0  0  0  0  0  0  0  0  0  0  0  0
    4.8890   -1.2447    0.9007 C   0  0  0  0  0  0  0  0  0  0  0  0
    5.0453   -0.1637    0.7757 H   0  0  0  0  0  0  0  0  0  0  0  0
    5.9542   -2.0632    1.2945 C   0  0  0  0  0  0  0  0  0  0  0  0
    6.9436   -1.6176    1.4771 H   0  0  0  0  0  0  0  0  0  0  0  0
    5.7605   -3.4444    1.4568 C   0  0  0  0  0  0  0  0  0  0  0  0
    6.5991   -4.0879    1.7631 H   0  0  0  0  0  0  0  0  0  0  0  0
    4.4907   -4.0000    1.2317 C   0  0  0  0  0  0  0  0  0  0  0  0
    4.3308   -5.0811    1.3609 H   0  0  0  0  0  0  0  0  0  0  0  0
    3.4184   -3.1851    0.8474 C   0  0  0  0  0  0  0  0  0  0  0  0
    2.4256   -3.6229    0.6812 H   0  0  0  0  0  0  0  0  0  0  0  0
   -1.9669   -0.4726   -1.3986 C   0  0  2  0  0  3  0  0  0  0  0  0
   -2.8995   -0.4771   -2.5429 C   0  0  0  0  0  0  0  0  0  0  0  0
   -4.2946   -0.4711   -2.3094 C   0  0  0  0  0  0  0  0  0  0  0  0
   -4.6716   -0.4472   -1.2770 H   0  0  0  0  0  0  0  0  0  0  0  0
   -5.1957   -0.4876   -3.3807 C   0  0  0  0  0  0  0  0  0  0  0  0
   -6.2779   -0.4762   -3.1813 H   0  0  0  0  0  0  0  0  0  0  0  0
   -4.7211   -0.5173   -4.7018 C   0  0  0  0  0  0  0  0  0  0  0  0
   -5.4299   -0.5335   -5.5436 H   0  0  0  0  0  0  0  0  0  0  0  0
   -3.3380   -0.5212   -4.9439 C   0  0  0  0  0  0  0  0  0  0  0  0
   -2.9587   -0.5404   -5.9768 H   0  0  0  0  0  0  0  0  0  0  0  0
   -2.4313   -0.4955   -3.8767 C   0  0  0  0  0  0  0  0  0  0  0  0
   -1.3511   -0.4898   -4.0718 H   0  0  0  0  0  0  0  0  0  0  0  0
   -2.1844   -1.1948   -0.1606 C   0  0  1  0  0  3  0  0  0  0  0  0
   -3.1303   -2.3171   -0.0044 C   0  0  0  0  0  0  0  0  0  0  0  0
   -3.9087   -2.4731    1.1654 C   0  0  0  0  0  0  0  0  0  0  0  0
   -3.8023   -1.7535    1.9874 H   0  0  0  0  0  0  0  0  0  0  0  0
   -4.8132   -3.5366    1.2766 C   0  0  0  0  0  0  0  0  0  0  0  0
   -5.4160   -3.6425    2.1911 H   0  0  0  0  0  0  0  0  0  0  0  0
   -4.9489   -4.4661    0.2329 C   0  0  0  0  0  0  0  0  0  0  0  0
   -5.6577   -5.3028    0.3263 H   0  0  0  0  0  0  0  0  0  0  0  0
   -4.1722   -4.3258   -0.9284 C   0  0  0  0  0  0  0  0  0  0  0  0
   -4.2656   -5.0539   -1.7481 H   0  0  0  0  0  0  0  0  0  0  0  0
   -3.2732   -3.2596   -1.0493 C   0  0  0  0  0  0  0  0  0  0  0  0
   -2.6665   -3.1547   -1.9601 H   0  0  0  0  0  0  0  0  0  0  0  0
   -0.3282    2.0437    2.5916 C   0  0  0  0  0  0  0  0  0  0  0  0
   -1.1287    1.6722    4.8529 C   0  0  0  0  0  0  0  0  0  0  0  0
   -1.2589    2.3756    5.6977 H   0  0  0  0  0  0  0  0  0  0  0  0
   -0.4072    0.8848    5.1421 H   0  0  0  0  0  0  0  0  0  0  0  0
   -2.4525    1.0740    4.4150 C   0  0  0  0  0  0  0  0  0  0  0  0
   -2.9058    0.5217    5.2624 H   0  0  0  0  0  0  0  0  0  0  0  0
   -2.3108    0.3516    3.5865 H   0  0  0  0  0  0  0  0  0  0  0  0
   -3.1626    1.8629    4.0948 H   0  0  0  0  0  0  0  0  0  0  0  0
   -0.5903    2.9156    1.4555 C   0  0  0  0  0  0  0  0  0  0  0  0
   -1.7981    4.9097    0.8306 C   0  0  0  0  0  0  0  0  0  0  0  0
   -2.6397    4.2236    0.5953 H   0  0  0  0  0  0  0  0  0  0  0  0
   -1.3074    5.1766   -0.1253 H   0  0  0  0  0  0  0  0  0  0  0  0
   -2.2604    6.1270    1.6024 C   0  0  0  0  0  0  0  0  0  0  0  0
   -2.9774    6.7085    0.9897 H   0  0  0  0  0  0  0  0  0  0  0  0
   -1.4031    6.7844    1.8482 H   0  0  0  0  0  0  0  0  0  0  0  0
   -2.7581    5.8364    2.5485 H   0  0  0  0  0  0  0  0  0  0  0  0
  2  1  1  0  0  0  0
  4 13  1  0  0  0  0
  4  3  1  0  0  0  0
  5 75  1  0  0  0  0
  6  5  1  0  0  0  0
  7  8  1  0  0  0  0
  8 15  1  0  0  0  0
  9 10  1  0  0  0  0
 10 15  1  0  0  0  0
 11 67  1  0  0  0  0
 11 12  1  0  0  0  0
 13 14  1  6  0  0  0
 13  2  1  0  0  0  0
 13  6  1  0  0  0  0
 15 12  1  0  0  0  0
 15 16  1  1  0  0  0
 17 68  1  0  0  0  0
 19 20  1  6  0  0  0
 19  1  1  0  0  0  0
 19 31  1  0  0  0  0
 21 20  1  0  0  0  0
 21 22  1  0  0  0  0
 23 21  2  0  0  0  0
 24 23  1  0  0  0  0
 25 27  2  0  0  0  0
 25 23  1  0  0  0  0
 26 25  1  0  0  0  0
 27 29  1  0  0  0  0
 28 27  1  0  0  0  0
 29 30  1  0  0  0  0
 29 20  2  0  0  0  0
 31 32  1  1  0  0  0
 31  7  1  0  0  0  0
 32 41  2  0  0  0  0
 32 33  1  0  0  0  0
 33 35  2  0  0  0  0
 34 33  1  0  0  0  0
 35 37  1  0  0  0  0
 35 36  1  0  0  0  0
 37 38  1  0  0  0  0
 39 40  1  0  0  0  0
 39 37  2  0  0  0  0
 41 39  1  0  0  0  0
 42 41  1  0  0  0  0
 43 44  1  1  0  0  0
 43  3  1  0  0  0  0
 43 55  1  0  0  0  0
 44 45  1  0  0  0  0
 45 46  1  0  0  0  0
 47 48  1  0  0  0  0
 47 45  2  0  0  0  0
 49 47  1  0  0  0  0
 50 49  1  0  0  0  0
 51 49  2  0  0  0  0
 51 53  1  0  0  0  0
 52 51  1  0  0  0  0
 53 44  2  0  0  0  0
 54 53  1  0  0  0  0
 55 56  1  6  0  0  0
 55  9  1  0  0  0  0
 56 57  1  0  0  0  0
 57 59  2  0  0  0  0
 57 58  1  0  0  0  0
 59 60  1  0  0  0  0
 61 62  1  0  0  0  0
 61 59  1  0  0  0  0
 63 61  2  0  0  0  0
 64 63  1  0  0  0  0
 65 63  1  0  0  0  0
 65 56  2  0  0  0  0
 66 65  1  0  0  0  0
 67 17  1  0  0  0  0
 68 70  1  0  0  0  0
 68 69  1  0  0  0  0
 71 68  1  0  0  0  0
 71 72  1  0  0  0  0
 73 71  1  0  0  0  0
 74 71  1  0  0  0  0
 75 18  1  0  0  0  0
 75 67  2  0  0  0  0
 76 79  1  0  0  0  0
 76 18  1  0  0  0  0
 77 76  1  0  0  0  0
 78 76  1  0  0  0  0
 79 81  1  0  0  0  0
 79 82  1  0  0  0  0
 80 79  1  0  0  0  0
M  END
