4,11,18,31,40,59
q = -3.0, confidence = 0.318

 84 87  0  0  0  0  0  0  0  0999 V2000
   -1.1591    2.2910    1.7399 Si  0  0  0  0  0  0  0  0  0  0  0  0
   -1.1536    0.3629   -2.8556 Si  0  0  0  0  0  0  0  0  0  0  0  0
   -1.1592   -2.6534    1.1125 Si  0  0  0  0  0  0  0  0  0  0  0  0
   -2.4927    0.0977   -1.6168 N   0  0  0  0  0  0  0  0  0  0  0  0
    1.2513   -0.9215   -2.1107 C   0  0  0  0  0  0  0  0  0  0  0  0
    1.3353   -3.7175    1.5059 F   0  0  0  0  0  0  0  0  0  0  0  0
   -3.5156    1.1342   -1.3684 C   0  0  0  0  0  0  0  0  0  0  0  0
   -3.7596    1.7142   -2.2846 H   0  0  0  0  0  0  0  0  0  0  0  0
   -4.4616    0.6408   -1.0674 H   0  0  0  0  0  0  0  0  0  0  0  0
    1.3422    0.5559   -3.9693 F   0  0  0  0  0  0  0  0  0  0  0  0
   -2.4958   -1.4459    0.7197 N   0  0  0  0  0  0  0  0  0  0  0  0
    1.9381   -0.4490   -3.2552 C   0  0  0  0  0  0  0  0  0  0  0  0
   -3.0495   -0.8118    1.9384 C   0  0  0  0  0  0  0  0  0  0  0  0
   -3.8784   -1.4160    2.3718 H   0  0  0  0  0  0  0  0  0  0  0  0
   -2.2458   -0.7826    2.6992 H   0  0  0  0  0  0  0  0  0  0  0  0
    1.8947   -0.2344    2.3955 C   0  0  0  0  0  0  0  0  0  0  0  0
    1.4004    0.7362    2.3079 H   0  0  0  0  0  0  0  0  0  0  0  0
    0.0077   -1.3169    1.1952 N   0  0  0  0  0  2  0  0  0  0  0  0
    3.1345   -0.3333    3.0388 C   0  0  0  0  0  0  0  0  0  0  0  0
    3.6011    0.5775    3.4418 H   0  0  0  0  0  0  0  0  0  0  0  0
    3.1641   -2.7248    2.6534 C   0  0  0  0  0  0  0  0  0  0  0  0
    3.6239   -3.7203    2.7311 H   0  0  0  0  0  0  0  0  0  0  0  0
    3.1390   -2.4641   -1.8037 C   0  0  0  0  0  0  0  0  0  0  0  0
    3.6047   -3.2690   -1.2163 H   0  0  0  0  0  0  0  0  0  0  0  0
   -1.0530    1.6412    3.4972 C   0  0  0  0  0  0  0  0  0  0  0  0
   -2.0192    1.7577    4.0293 H   0  0  0  0  0  0  0  0  0  0  0  0
   -0.2932    2.2221    4.0534 H   0  0  0  0  0  0  0  0  0  0  0  0
   -0.7473    0.5778    3.5309 H   0  0  0  0  0  0  0  0  0  0  0  0
    3.1710   -0.9338   -3.6813 C   0  0  0  0  0  0  0  0  0  0  0  0
    3.6319   -0.5029   -4.5816 H   0  0  0  0  0  0  0  0  0  0  0  0
   -2.4956    1.3492    0.8883 N   0  0  0  0  0  0  0  0  0  0  0  0
   -3.0461    2.0883   -0.2713 C   0  0  0  0  0  0  0  0  0  0  0  0
   -3.8744    2.7670    0.0338 H   0  0  0  0  0  0  0  0  0  0  0  0
   -2.2407    2.7311   -0.6758 H   0  0  0  0  0  0  0  0  0  0  0  0
    3.7788   -1.5735    3.1698 C   0  0  0  0  0  0  0  0  0  0  0  0
    4.7536   -1.6508    3.6720 H   0  0  0  0  0  0  0  0  0  0  0  0
   -3.0448   -1.2753   -1.6780 C   0  0  0  0  0  0  0  0  0  0  0  0
   -2.2396   -1.9478   -2.0316 H   0  0  0  0  0  0  0  0  0  0  0  0
   -3.8721   -1.3493   -2.4196 H   0  0  0  0  0  0  0  0  0  0  0  0
    0.0118   -0.3760   -1.7374 N   0  0  0  0  0  2  0  0  0  0  0  0
   -1.0453    2.2096   -3.1715 C   0  0  0  0  0  0  0  0  0  0  0  0
   -2.0110    2.6127   -3.5394 H   0  0  0  0  0  0  0  0  0  0  0  0
   -0.2848    2.4002   -3.9522 H   0  0  0  0  0  0  0  0  0  0  0  0
   -0.7400    2.7705   -2.2673 H   0  0  0  0  0  0  0  0  0  0  0  0
   -1.0494   -3.8506   -0.3286 C   0  0  0  0  0  0  0  0  0  0  0  0
   -2.0155   -4.3687   -0.4968 H   0  0  0  0  0  0  0  0  0  0  0  0
   -0.2910   -4.6234   -0.1014 H   0  0  0  0  0  0  0  0  0  0  0  0
   -0.7403   -3.3483   -1.2654 H   0  0  0  0  0  0  0  0  0  0  0  0
   -1.4858   -0.6116   -4.4221 C   0  0  0  0  0  0  0  0  0  0  0  0
   -2.4982   -0.3820   -4.8137 H   0  0  0  0  0  0  0  0  0  0  0  0
   -1.4083   -1.7051   -4.2663 H   0  0  0  0  0  0  0  0  0  0  0  0
   -0.7483   -0.3251   -5.1970 H   0  0  0  0  0  0  0  0  0  0  0  0
   -1.4964   -3.5218    2.7392 C   0  0  0  0  0  0  0  0  0  0  0  0
   -2.5108   -3.9714    2.7351 H   0  0  0  0  0  0  0  0  0  0  0  0
   -1.4169   -2.8405    3.6084 H   0  0  0  0  0  0  0  0  0  0  0  0
   -0.7626   -4.3393    2.8791 H   0  0  0  0  0  0  0  0  0  0  0  0
    1.8986   -1.9567   -1.3979 C   0  0  0  0  0  0  0  0  0  0  0  0
    1.4030   -2.3671   -0.5147 H   0  0  0  0  0  0  0  0  0  0  0  0
    0.0093    1.6928    0.5433 N   0  0  0  0  0  2  0  0  0  0  0  0
   -3.5193    0.6152    1.6599 C   0  0  0  0  0  0  0  0  0  0  0  0
   -4.4643    0.6005    1.0806 H   0  0  0  0  0  0  0  0  0  0  0  0
   -3.7654    1.1185    2.6199 H   0  0  0  0  0  0  0  0  0  0  0  0
    1.2487    2.2900    0.2598 C   0  0  0  0  0  0  0  0  0  0  0  0
   -3.5171   -1.7480   -0.3040 C   0  0  0  0  0  0  0  0  0  0  0  0
   -4.4632   -1.2398   -0.0292 H   0  0  0  0  0  0  0  0  0  0  0  0
   -3.7621   -2.8313   -0.3487 H   0  0  0  0  0  0  0  0  0  0  0  0
    1.3355    3.1605    2.4691 F   0  0  0  0  0  0  0  0  0  0  0  0
    1.8987    2.1899   -0.9917 C   0  0  0  0  0  0  0  0  0  0  0  0
    1.4054    1.6287   -1.7891 H   0  0  0  0  0  0  0  0  0  0  0  0
    1.9332    3.0456    1.2425 C   0  0  0  0  0  0  0  0  0  0  0  0
   -1.4936    4.1344    1.6784 C   0  0  0  0  0  0  0  0  0  0  0  0
   -2.5077    4.3573    2.0694 H   0  0  0  0  0  0  0  0  0  0  0  0
   -1.4130    4.5465    0.6538 H   0  0  0  0  0  0  0  0  0  0  0  0
   -0.7592    4.6632    2.3167 H   0  0  0  0  0  0  0  0  0  0  0  0
    3.1389    2.7962   -1.2262 C   0  0  0  0  0  0  0  0  0  0  0  0
    3.6067    2.6897   -2.2158 H   0  0  0  0  0  0  0  0  0  0  0  0
    1.2464   -1.3690    1.8555 C   0  0  0  0  0  0  0  0  0  0  0  0
    3.7849   -1.9568   -2.9421 C   0  0  0  0  0  0  0  0  0  0  0  0
    4.7601   -2.3528   -3.2591 H   0  0  0  0  0  0  0  0  0  0  0  0
    3.7821    3.5295   -0.2168 C   0  0  0  0  0  0  0  0  0  0  0  0
    4.7573    4.0029   -0.3996 H   0  0  0  0  0  0  0  0  0  0  0  0
    1.9318   -2.5971    2.0196 C   0  0  0  0  0  0  0  0  0  0  0  0
    3.1660    3.6580    1.0377 C   0  0  0  0  0  0  0  0  0  0  0  0
    3.6250    4.2226    1.8617 H   0  0  0  0  0  0  0  0  0  0  0  0
  1 25  1  0  0  0  0
  2 40  1  0  0  0  0
  2  4  1  0  0  0  0
  3 18  1  0  0  0  0
  3 53  1  0  0  0  0
  4  7  1  0  0  0  0
  5 40  1  0  0  0  0
  5 57  1  0  0  0  0
  6 82  1  0  0  0  0
  7  9  1  0  0  0  0
  7 32  1  0  0  0  0
  8  7  1  0  0  0  0
 10 12  1  0  0  0  0
 11  3  1  0  0  0  0
 11 13  1  0  0  0  0
 12  5  2  0  0  0  0
 13 14  1  0  0  0  0
 13 15  1  0  0  0  0
 16 19  1  0  0  0  0
 17 16  1  0  0  0  0
 18 77  1  0  0  0  0
 19 35  2  0  0  0  0
 19 20  1  0  0  0  0
 21 22  1  0  0  0  0
 21 35  1  0  0  0  0
 23 57  2  0  0  0  0
 23 24  1  0  0  0  0
 25 28  1  0  0  0  0
 25 26  1  0  0  0  0
 25 27  1  0  0  0  0
 29 12  1  0  0  0  0
 29 78  2  0  0  0  0
 30 29  1  0  0  0  0
 31 60  1  0  0  0  0
 31  1  1  0  0  0  0
 32 33  1  0  0  0  0
 32 31  1  0  0  0  0
 34 32  1  0  0  0  0
 35 36  1  0  0  0  0
 37  4  1  0  0  0  0
 37 64  1  0  0  0  0
 38 37  1  0  0  0  0
 39 37  1  0  0  0  0
 41  2  1  0  0  0  0
 41 44  1  0  0  0  0
 42 41  1  0  0  0  0
 43 41  1  0  0  0  0
 45 47  1  0  0  0  0
 45  3  1  0  0  0  0
 46 45  1  0  0  0  0
 48 45  1  0  0  0  0
 49 51  1  0  0  0  0
 49  2  1  0  0  0  0
 50 49  1  0  0  0  0
 52 49  1  0  0  0  0
 53 56  1  0  0  0  0
 53 55  1  0  0  0  0
 54 53  1  0  0  0  0
 57 58  1  0  0  0  0
 59  1  1  0  0  0  0
 60 13  1  0  0  0  0
 60 62  1  0  0  0  0
 61 60  1  0  0  0  0
 63 59  1  0  0  0  0
 63 70  1  0  0  0  0
 64 65  1  0  0  0  0
 64 11  1  0  0  0  0
 66 64  1  0  0  0  0
 68 63  2  0  0  0  0
 69 68  1  0  0  0  0
 70 67  1  0  0  0  0
 71  1  1  0  0  0  0
 71 72  1  0  0  0  0
 71 74  1  0  0  0  0
 73 71  1  0  0  0  0
 75 68  1  0  0  0  0
 75 80  2  0  0  0  0
 76 75  1  0  0  0  0
 77 82  1  0  0  0  0
 77 16  2  0  0  0  0
 78 23  1  0  0  0  0
 79 78  1  0  0  0  0
 80 83  1  0  0  0  0
 81 80  1  0  0  0  0
 82 21  2  0  0  0  0
 83 70  2  0  0  0  0
 83 84  1  0  0  0  0
M  END
