4,5,6,7,8,9
q = -2.0, confidence = 0.79

 48 51  0  0  0  0  0  0  0  0999 V2000
   -1.3987    3.5655   -2.0546 Cl  0  0  0  0  0  0  0  0  0  0  0  0
   -1.3739    0.0150    4.1101 Cl  0  0  0  0  0  0  0  0  0  0  0  0
   -1.3697   -3.5987   -2.0255 Cl  0  0  0  0  0  0  0  0  0  0  0  0
    1.4669    1.4295   -0.4694 N   0  0  0  0  0  2  0  0  0  0  0  0
   -0.9473    1.1716   -0.9412 N   0  0  0  0  0  2  0  0  0  0  0  0
    1.4742   -0.3099    1.4528 N   0  0  0  0  0  2  0  0  0  0  0  0
   -0.9429    0.2207    1.4745 N   0  0  0  0  0  2  0  0  0  0  0  0
    1.4732   -1.1142   -1.0102 N   0  0  0  0  0  2  0  0  0  0  0  0
   -0.9415   -1.4037   -0.5514 N   0  0  0  0  0  2  0  0  0  0  0  0
    2.7958    1.3841   -0.3254 O   0  0  0  0  0  0  0  0  0  0  0  0
   -2.2700    1.0042   -0.9929 O   0  0  0  0  0  0  0  0  0  0  0  0
    2.8031   -0.4130    1.3307 O   0  0  0  0  0  0  0  0  0  0  0  0
   -2.2683    0.3371    1.3579 O   0  0  0  0  0  0  0  0  0  0  0  0
    2.8009   -0.9519   -1.0514 O   0  0  0  0  0  0  0  0  0  0  0  0
   -2.2660   -1.3673   -0.3930 O   0  0  0  0  0  0  0  0  0  0  0  0
    3.3279    0.0102   -0.0219 B   0  0  1  0  0  0  0  0  0  0  0  0
   -2.7944   -0.0102   -0.0154 B   0  0  2  0  0  0  0  0  0  0  0  0
    0.9650    2.4442   -1.1547 C   0  0  0  0  0  0  0  0  0  0  0  0
    1.5997    3.2520   -1.5430 H   0  0  0  0  0  0  0  0  0  0  0  0
   -0.4388    2.3211   -1.3662 C   0  0  0  0  0  0  0  0  0  0  0  0
    0.9790   -0.2135    2.6753 C   0  0  0  0  0  0  0  0  0  0  0  0
    1.6190   -0.2733    3.5659 H   0  0  0  0  0  0  0  0  0  0  0  0
   -0.4262    0.0275    2.6810 C   0  0  0  0  0  0  0  0  0  0  0  0
    0.9796   -2.2265   -1.5292 C   0  0  0  0  0  0  0  0  0  0  0  0
    1.6192   -2.9683   -2.0260 H   0  0  0  0  0  0  0  0  0  0  0  0
   -0.4235   -2.3567   -1.3161 C   0  0  0  0  0  0  0  0  0  0  0  0
    4.9145    0.0139   -0.0197 C   0  0  0  0  0  0  0  0  0  0  0  0
    5.6399    1.1880    0.2763 C   0  0  0  0  0  0  0  0  0  0  0  0
    5.0934    2.1225    0.4791 H   0  0  0  0  0  0  0  0  0  0  0  0
    7.0427    1.1854    0.3083 C   0  0  0  0  0  0  0  0  0  0  0  0
    7.5902    2.1124    0.5400 H   0  0  0  0  0  0  0  0  0  0  0  0
    7.7486    0.0009    0.0427 C   0  0  0  0  0  0  0  0  0  0  0  0
    8.8495   -0.0040    0.0664 H   0  0  0  0  0  0  0  0  0  0  0  0
    7.0446   -1.1767   -0.2560 C   0  0  0  0  0  0  0  0  0  0  0  0
    7.5933   -2.1076   -0.4680 H   0  0  0  0  0  0  0  0  0  0  0  0
    5.6416   -1.1663   -0.2859 C   0  0  0  0  0  0  0  0  0  0  0  0
    5.0964   -2.0922   -0.5275 H   0  0  0  0  0  0  0  0  0  0  0  0
   -4.3795   -0.0079   -0.0159 C   0  0  0  0  0  0  0  0  0  0  0  0
   -5.1080   -1.1773    0.2904 C   0  0  0  0  0  0  0  0  0  0  0  0
   -4.5640   -2.1116    0.5011 H   0  0  0  0  0  0  0  0  0  0  0  0
   -6.5108   -1.1696    0.3187 C   0  0  0  0  0  0  0  0  0  0  0  0
   -7.0622   -2.0923    0.5582 H   0  0  0  0  0  0  0  0  0  0  0  0
   -7.2118    0.0146    0.0386 C   0  0  0  0  0  0  0  0  0  0  0  0
   -8.3128    0.0233    0.0599 H   0  0  0  0  0  0  0  0  0  0  0  0
   -6.5036    1.1866   -0.2724 C   0  0  0  0  0  0  0  0  0  0  0  0
   -7.0491    2.1163   -0.4974 H   0  0  0  0  0  0  0  0  0  0  0  0
   -5.1006    1.1721   -0.2988 C   0  0  0  0  0  0  0  0  0  0  0  0
   -4.5488    2.0909   -0.5528 H   0  0  0  0  0  0  0  0  0  0  0  0
  1 20  1  0  0  0  0
  3 26  1  0  0  0  0
  4 10  1  0  0  0  0
  6 21  1  0  0  0  0
  7 23  1  0  0  0  0
  9 15  1  0  0  0  0
 10 16  1  0  0  0  0
 11  5  1  0  0  0  0
 11 17  1  0  0  0  0
 12  6  1  0  0  0  0
 13  7  1  0  0  0  0
 14  8  1  0  0  0  0
 14 16  1  0  0  0  0
 15 17  1  0  0  0  0
 16 27  1  6  0  0  0
 16 12  1  0  0  0  0
 17 38  1  6  0  0  0
 17 13  1  0  0  0  0
 18  4  1  0  0  0  0
 19 18  1  0  0  0  0
 20 18  2  0  0  0  0
 20  5  1  0  0  0  0
 21 23  2  0  0  0  0
 21 22  1  0  0  0  0
 23  2  1  0  0  0  0
 24 26  2  0  0  0  0
 24  8  1  0  0  0  0
 25 24  1  0  0  0  0
 26  9  1  0  0  0  0
 27 28  1  0  0  0  0
 28 30  2  0  0  0  0
 28 29  1  0  0  0  0
 30 31  1  0  0  0  0
 32 33  1  0  0  0  0
 32 30  1  0  0  0  0
 34 32  2  0  0  0  0
 35 34  1  0  0  0  0
 36 34  1  0  0  0  0
 36 27  2  0  0  0  0
 37 36  1  0  0  0  0
 38 39  1  0  0  0  0
 39 41  2  0  0  0  0
 39 40  1  0  0  0  0
 41 42  1  0  0  0  0
 43 44  1  0  0  0  0
 43 41  1  0  0  0  0
 45 43  2  0  0  0  0
 46 45  1  0  0  0  0
 47 45  1  0  0  0  0
 47 38  2  0  0  0  0
 48 47  1  0  0  0  0
M  END
