7,8,9,10,11,12
q = -2.0, confidence = 0.786

 56 59  0  0  0  0  0  0  0  0999 V2000
   -2.5494    1.6542    0.2340 O   0  0  0  0  0  0  0  0  0  0  0  0
    2.5494    1.6541   -0.2343 O   0  0  0  0  0  0  0  0  0  0  0  0
   -2.5722   -0.6782    0.9569 O   0  0  0  0  0  0  0  0  0  0  0  0
    2.4981   -0.1364    1.4204 O   0  0  0  0  0  0  0  0  0  0  0  0
   -2.4981   -0.1367   -1.4203 O   0  0  0  0  0  0  0  0  0  0  0  0
    2.5721   -0.6785   -0.9566 O   0  0  0  0  0  0  0  0  0  0  0  0
   -1.2164    1.7600    0.1776 N   0  0  0  0  0  2  0  0  0  0  0  0
    1.2164    1.7599   -0.1780 N   0  0  0  0  0  2  0  0  0  0  0  0
   -1.2462   -0.6507    1.1346 N   0  0  0  0  0  2  0  0  0  0  0  0
    1.1665   -0.2723    1.4262 N   0  0  0  0  0  2  0  0  0  0  0  0
   -1.1666   -0.2727   -1.4261 N   0  0  0  0  0  2  0  0  0  0  0  0
    1.2462   -0.6510   -1.1344 N   0  0  0  0  0  2  0  0  0  0  0  0
   -0.7039    2.9791    0.0764 C   0  0  0  0  0  0  0  0  0  0  0  0
   -1.3551    3.8643    0.0886 H   0  0  0  0  0  0  0  0  0  0  0  0
    0.7039    2.9790   -0.0771 C   0  0  0  0  0  0  0  0  0  0  0  0
    1.3552    3.8643   -0.0895 H   0  0  0  0  0  0  0  0  0  0  0  0
   -0.7710   -1.1574    2.2642 C   0  0  0  0  0  0  0  0  0  0  0  0
   -1.4448   -1.6256    2.9956 H   0  0  0  0  0  0  0  0  0  0  0  0
    0.6278   -0.9853    2.4060 C   0  0  0  0  0  0  0  0  0  0  0  0
    1.2554   -1.4015    3.2066 H   0  0  0  0  0  0  0  0  0  0  0  0
   -0.6278   -0.9859   -2.4057 C   0  0  0  0  0  0  0  0  0  0  0  0
   -1.2555   -1.4023   -3.2062 H   0  0  0  0  0  0  0  0  0  0  0  0
    0.7709   -1.1580   -2.2639 C   0  0  0  0  0  0  0  0  0  0  0  0
    1.4448   -1.6263   -2.9951 H   0  0  0  0  0  0  0  0  0  0  0  0
   -4.6529    0.2781   -0.1408 C   0  0  0  0  0  0  0  0  0  0  0  0
   -5.3832   -0.8788    0.1939 C   0  0  0  0  0  0  0  0  0  0  0  0
   -4.8401   -1.7786    0.5264 H   0  0  0  0  0  0  0  0  0  0  0  0
   -6.7940   -0.9303    0.1288 C   0  0  0  0  0  0  0  0  0  0  0  0
   -7.4811    0.2342   -0.2899 C   0  0  0  0  0  0  0  0  0  0  0  0
   -8.5799    0.2300   -0.3515 H   0  0  0  0  0  0  0  0  0  0  0  0
   -6.7755    1.3945   -0.6243 C   0  0  0  0  0  0  0  0  0  0  0  0
   -7.3253    2.2931   -0.9452 H   0  0  0  0  0  0  0  0  0  0  0  0
   -5.3721    1.4190   -0.5512 C   0  0  0  0  0  0  0  0  0  0  0  0
   -4.8265    2.3396   -0.8105 H   0  0  0  0  0  0  0  0  0  0  0  0
   -7.4809   -2.1787    0.4968 C   0  0  0  0  0  0  0  0  0  0  0  0
   -6.8049   -2.9964    0.8051 H   0  0  0  0  0  0  0  0  0  0  0  0
   -8.8093   -2.4206    0.4960 C   0  0  0  0  0  0  0  0  0  0  0  0
   -9.5482   -1.6583    0.2015 H   0  0  0  0  0  0  0  0  0  0  0  0
   -9.2055   -3.4027    0.7938 H   0  0  0  0  0  0  0  0  0  0  0  0
    4.6529    0.2780    0.1408 C   0  0  0  0  0  0  0  0  0  0  0  0
    5.3832   -0.8788   -0.1939 C   0  0  0  0  0  0  0  0  0  0  0  0
    4.8401   -1.7786   -0.5265 H   0  0  0  0  0  0  0  0  0  0  0  0
    6.7941   -0.9303   -0.1288 C   0  0  0  0  0  0  0  0  0  0  0  0
    7.4811    0.2343    0.2899 C   0  0  0  0  0  0  0  0  0  0  0  0
    8.5799    0.2301    0.3516 H   0  0  0  0  0  0  0  0  0  0  0  0
    6.7755    1.3945    0.6244 C   0  0  0  0  0  0  0  0  0  0  0  0
    7.3252    2.2930    0.9453 H   0  0  0  0  0  0  0  0  0  0  0  0
    5.3720    1.4190    0.5513 C   0  0  0  0  0  0  0  0  0  0  0  0
    4.8264    2.3395    0.8106 H   0  0  0  0  0  0  0  0  0  0  0  0
    7.4809   -2.1786   -0.4968 C   0  0  0  0  0  0  0  0  0  0  0  0
    6.8049   -2.9964   -0.8051 H   0  0  0  0  0  0  0  0  0  0  0  0
    8.8093   -2.4205   -0.4960 C   0  0  0  0  0  0  0  0  0  0  0  0
    9.5482   -1.6583   -0.2015 H   0  0  0  0  0  0  0  0  0  0  0  0
    9.2056   -3.4027   -0.7938 H   0  0  0  0  0  0  0  0  0  0  0  0
   -3.0653    0.2817   -0.0873 B   0  0  2  0  0  0  0  0  0  0  0  0
    3.0653    0.2817    0.0873 B   0  0  1  0  0  0  0  0  0  0  0  0
  2  8  1  0  0  0  0
  2 56  1  0  0  0  0
  3  9  1  0  0  0  0
  4 10  1  0  0  0  0
  5 55  1  0  0  0  0
  6 56  1  0  0  0  0
  7  1  1  0  0  0  0
  8 15  1  0  0  0  0
  9 17  1  0  0  0  0
 10 19  1  0  0  0  0
 11  5  1  0  0  0  0
 12  6  1  0  0  0  0
 13 14  1  0  0  0  0
 13  7  1  0  0  0  0
 15 13  2  0  0  0  0
 16 15  1  0  0  0  0
 17 19  2  0  0  0  0
 17 18  1  0  0  0  0
 19 20  1  0  0  0  0
 21 23  2  0  0  0  0
 21 11  1  0  0  0  0
 22 21  1  0  0  0  0
 23 12  1  0  0  0  0
 24 23  1  0  0  0  0
 25 26  1  0  0  0  0
 26 27  1  0  0  0  0
 28 26  2  0  0  0  0
 28 35  1  0  0  0  0
 29 28  1  0  0  0  0
 30 29  1  0  0  0  0
 31 33  1  0  0  0  0
 31 29  2  0  0  0  0
 32 31  1  0  0  0  0
 33 25  2  0  0  0  0
 34 33  1  0  0  0  0
 35 36  1  0  0  0  0
 37 35  2  0  0  0  0
 37 39  1  0  0  0  0
 38 37  1  0  0  0  0
 40 48  1  0  0  0  0
 41 43  1  0  0  0  0
 41 40  2  0  0  0  0
 42 41  1  0  0  0  0
 43 44  2  0  0  0  0
 44 45  1  0  0  0  0
 44 46  1  0  0  0  0
 46 47  1  0  0  0  0
 48 46  2  0  0  0  0
 48 49  1  0  0  0  0
 50 52  2  0  0  0  0
 50 43  1  0  0  0  0
 51 50  1  0  0  0  0
 52 53  1  0  0  0  0
 54 52  1  0  0  0  0
 55 25  1  6  0  0  0
 55  1  1  0  0  0  0
 55  3  1  0  0  0  0
 56 40  1  1  0  0  0
 56  4  1  0  0  0  0
M  END
