7,8,9,10,11,12
q = -2.0, confidence = 0.796

 46 49  0  0  0  0  0  0  0  0999 V2000
    2.5461   -1.0142   -0.9689 O   0  0  0  0  0  0  0  0  0  0  0  0
   -2.5328   -1.3618   -0.4248 O   0  0  0  0  0  0  0  0  0  0  0  0
    2.5424   -0.3042    1.3639 O   0  0  0  0  0  0  0  0  0  0  0  0
   -2.5425    0.2959    1.3657 O   0  0  0  0  0  0  0  0  0  0  0  0
    2.5328    1.3647   -0.4162 O   0  0  0  0  0  0  0  0  0  0  0  0
   -2.5461    1.0205   -0.9627 O   0  0  0  0  0  0  0  0  0  0  0  0
    1.2162   -1.1640   -0.9374 N   0  0  0  0  0  2  0  0  0  0  0  0
   -1.2014   -1.3980   -0.5594 N   0  0  0  0  0  2  0  0  0  0  0  0
    1.2107   -0.2171    1.4732 N   0  0  0  0  0  2  0  0  0  0  0  0
   -1.2107    0.2080    1.4745 N   0  0  0  0  0  2  0  0  0  0  0  0
    1.2014    1.4018   -0.5506 N   0  0  0  0  0  2  0  0  0  0  0  0
   -1.2161    1.1701   -0.9302 N   0  0  0  0  0  2  0  0  0  0  0  0
    6.7266   -1.2593   -0.0558 N   0  0  0  0  0  0  0  0  0  0  0  0
   -6.7273    1.2584   -0.0555 N   0  0  0  0  0  0  0  0  0  0  0  0
    0.7147   -2.2807   -1.4471 C   0  0  0  0  0  0  0  0  0  0  0  0
    1.3704   -3.0261   -1.9190 H   0  0  0  0  0  0  0  0  0  0  0  0
   -0.6868   -2.3892   -1.2747 C   0  0  0  0  0  0  0  0  0  0  0  0
   -1.3328   -3.1738   -1.6930 H   0  0  0  0  0  0  0  0  0  0  0  0
    0.7018   -0.1044    2.6922 C   0  0  0  0  0  0  0  0  0  0  0  0
    1.3536   -0.1348    3.5768 H   0  0  0  0  0  0  0  0  0  0  0  0
   -0.7019    0.0874    2.6928 C   0  0  0  0  0  0  0  0  0  0  0  0
   -1.3537    0.1122    3.5776 H   0  0  0  0  0  0  0  0  0  0  0  0
    0.6869    2.3974   -1.2597 C   0  0  0  0  0  0  0  0  0  0  0  0
    1.3329    3.1847   -1.6730 H   0  0  0  0  0  0  0  0  0  0  0  0
   -0.7147    2.2900   -1.4328 C   0  0  0  0  0  0  0  0  0  0  0  0
   -1.3703    3.0383   -1.9000 H   0  0  0  0  0  0  0  0  0  0  0  0
    4.6506    0.0274   -0.0102 C   0  0  0  0  0  0  0  0  0  0  0  0
    5.4000    1.2172    0.0771 C   0  0  0  0  0  0  0  0  0  0  0  0
    4.8831    2.1890    0.1224 H   0  0  0  0  0  0  0  0  0  0  0  0
    6.7999    1.1547    0.0987 C   0  0  0  0  0  0  0  0  0  0  0  0
    7.4122    2.0671    0.1650 H   0  0  0  0  0  0  0  0  0  0  0  0
    7.4118   -0.1078    0.0315 C   0  0  0  0  0  0  0  0  0  0  0  0
    8.5142   -0.1921    0.0473 H   0  0  0  0  0  0  0  0  0  0  0  0
    5.3864   -1.1766   -0.0753 C   0  0  0  0  0  0  0  0  0  0  0  0
    4.8464   -2.1379   -0.1547 H   0  0  0  0  0  0  0  0  0  0  0  0
   -4.6506   -0.0272   -0.0105 C   0  0  0  0  0  0  0  0  0  0  0  0
   -5.3993   -1.2174    0.0768 C   0  0  0  0  0  0  0  0  0  0  0  0
   -4.8820   -2.1890    0.1218 H   0  0  0  0  0  0  0  0  0  0  0  0
   -6.7993   -1.1556    0.0986 C   0  0  0  0  0  0  0  0  0  0  0  0
   -7.4110   -2.0684    0.1649 H   0  0  0  0  0  0  0  0  0  0  0  0
   -7.4119    0.1065    0.0318 C   0  0  0  0  0  0  0  0  0  0  0  0
   -8.5143    0.1903    0.0478 H   0  0  0  0  0  0  0  0  0  0  0  0
   -5.3870    1.1764   -0.0753 C   0  0  0  0  0  0  0  0  0  0  0  0
   -4.8475    2.1380   -0.1546 H   0  0  0  0  0  0  0  0  0  0  0  0
    3.0620    0.0206   -0.0121 B   0  0  2  0  0  0  0  0  0  0  0  0
   -3.0620   -0.0201   -0.0124 B   0  0  1  0  0  0  0  0  0  0  0  0
  1  7  1  0  0  0  0
  1 45  1  0  0  0  0
  2 46  1  0  0  0  0
  3  9  1  0  0  0  0
  4 10  1  0  0  0  0
  5 45  1  0  0  0  0
  6 12  1  0  0  0  0
  6 46  1  0  0  0  0
  8  2  1  0  0  0  0
  9 19  1  0  0  0  0
 10 21  1  0  0  0  0
 11  5  1  0  0  0  0
 13 32  1  0  0  0  0
 14 41  1  0  0  0  0
 15 17  2  0  0  0  0
 15  7  1  0  0  0  0
 16 15  1  0  0  0  0
 17  8  1  0  0  0  0
 18 17  1  0  0  0  0
 19 21  2  0  0  0  0
 19 20  1  0  0  0  0
 21 22  1  0  0  0  0
 23 11  1  0  0  0  0
 24 23  1  0  0  0  0
 25 23  2  0  0  0  0
 25 12  1  0  0  0  0
 26 25  1  0  0  0  0
 27 28  2  0  0  0  0
 28 30  1  0  0  0  0
 28 29  1  0  0  0  0
 30 31  1  0  0  0  0
 32 33  1  0  0  0  0
 32 30  2  0  0  0  0
 34 13  2  0  0  0  0
 34 27  1  0  0  0  0
 35 34  1  0  0  0  0
 36 37  2  0  0  0  0
 37 39  1  0  0  0  0
 37 38  1  0  0  0  0
 39 40  1  0  0  0  0
 41 42  1  0  0  0  0
 41 39  2  0  0  0  0
 43 14  2  0  0  0  0
 43 36  1  0  0  0  0
 44 43  1  0  0  0  0
 45 27  1  6  0  0  0
 45  3  1  0  0  0  0
 46 36  1  6  0  0  0
 46  4  1  0  0  0  0
M  END
