9,10,11,12,13,14
q = -2.0, confidence = 0.844

 80 86  0  0  1  0  0  0  0  0999 V2000
    0.3064    0.7952   -3.0155 O   0  0  0  0  0  0  0  0  0  0  0  0
   -0.8147   -0.1778    2.5243 O   0  0  0  0  0  0  0  0  0  0  0  0
    1.0816   -1.4160   -2.3129 O   0  0  0  0  0  0  0  0  0  0  0  0
    1.3692    0.8665    2.2315 O   0  0  0  0  0  0  0  0  0  0  0  0
   -0.6657    2.1524    1.8114 O   0  0  0  0  0  0  0  0  0  0  0  0
    0.2731    5.2175   -0.4729 O   0  0  0  0  0  0  0  0  0  0  0  0
   -2.2461    6.2142    0.3526 O   0  0  0  0  0  0  0  0  0  0  0  0
   -1.3073   -0.9557   -2.4845 O   0  0  0  0  0  0  0  0  0  0  0  0
   -1.3586   -0.7598   -1.1578 N   0  0  0  0  0  2  0  0  0  0  0  0
   -0.9976   -0.5534    1.2479 N   0  0  0  0  0  2  0  0  0  0  0  0
   -0.5081    1.9136    0.5000 N   0  0  0  0  0  2  0  0  0  0  0  0
    1.4712    0.2911    1.0219 N   0  0  0  0  0  2  0  0  0  0  0  0
    0.1469    1.2888   -1.7849 N   0  0  0  0  0  2  0  0  0  0  0  0
    1.2517   -0.9696   -1.0587 N   0  0  0  0  0  2  0  0  0  0  0  0
    0.0352   -0.6773   -3.0838 B   0  0  1  0  0  0  0  0  0  0  0  0
   -0.0416    1.0898    2.6718 B   0  0  1  0  0  0  0  0  0  0  0  0
   -0.0581    1.4909    3.9628 F   0  0  0  0  0  0  0  0  0  0  0  0
    0.0491   -1.0810   -4.3733 F   0  0  0  0  0  0  0  0  0  0  0  0
   -3.1559   -2.4689   -1.0629 C   0  0  0  0  0  0  0  0  0  0  0  0
   -2.2314   -1.4892   -0.4586 C   0  0  1  0  0  3  0  0  0  0  0  0
   -2.0870   -1.2724    0.9669 C   0  0  2  0  0  3  0  0  0  0  0  0
    3.6268   -0.6912    1.7615 C   0  0  0  0  0  0  0  0  0  0  0  0
    2.5415   -0.4706    0.7854 C   0  0  1  0  0  3  0  0  0  0  0  0
   -3.8749   -2.1765   -2.2442 C   0  0  0  0  0  0  0  0  0  0  0  0
   -3.7359   -1.2060   -2.7380 H   0  0  0  0  0  0  0  0  0  0  0  0
    4.8794   -1.2198   -1.1059 C   0  0  0  0  0  0  0  0  0  0  0  0
    5.0239   -0.2725   -0.5671 H   0  0  0  0  0  0  0  0  0  0  0  0
    2.4564   -1.1256   -0.5051 C   0  0  2  0  0  3  0  0  0  0  0  0
    3.5888   -1.7939   -1.1763 C   0  0  0  0  0  0  0  0  0  0  0  0
   -3.0717   -1.7028    1.9793 C   0  0  0  0  0  0  0  0  0  0  0  0
   -0.4693    2.9667   -0.3111 C   0  0  0  0  0  0  0  0  0  0  0  0
   -0.1822    2.5677   -1.6617 C   0  0  0  0  0  0  0  0  0  0  0  0
   -3.3366   -3.7289   -0.4462 C   0  0  0  0  0  0  0  0  0  0  0  0
   -2.7760   -3.9716    0.4678 H   0  0  0  0  0  0  0  0  0  0  0  0
    3.4163   -3.0051   -1.8843 C   0  0  0  0  0  0  0  0  0  0  0  0
    2.4174   -3.4549   -1.9549 H   0  0  0  0  0  0  0  0  0  0  0  0
   -0.6691    4.3709    0.1774 C   0  0  2  0  0  0  0  0  0  0  0  0
   -0.4927    4.3712    1.2789 H   0  0  0  0  0  0  0  0  0  0  0  0
   -4.2158   -4.6695   -0.9957 C   0  0  0  0  0  0  0  0  0  0  0  0
   -4.3394   -5.6481   -0.5080 H   0  0  0  0  0  0  0  0  0  0  0  0
    5.9689   -1.8435   -1.7252 C   0  0  0  0  0  0  0  0  0  0  0  0
    6.9651   -1.3798   -1.6686 H   0  0  0  0  0  0  0  0  0  0  0  0
   -4.9347   -4.3658   -2.1629 C   0  0  0  0  0  0  0  0  0  0  0  0
   -5.6285   -5.1043   -2.5924 H   0  0  0  0  0  0  0  0  0  0  0  0
   -4.7610   -3.1179   -2.7828 C   0  0  0  0  0  0  0  0  0  0  0  0
   -5.3183   -2.8750   -3.6999 H   0  0  0  0  0  0  0  0  0  0  0  0
    5.7906   -3.0527   -2.4161 C   0  0  0  0  0  0  0  0  0  0  0  0
    6.6482   -3.5442   -2.8999 H   0  0  0  0  0  0  0  0  0  0  0  0
   -4.4536   -1.5955    1.6977 C   0  0  0  0  0  0  0  0  0  0  0  0
   -4.7809   -1.1779    0.7349 H   0  0  0  0  0  0  0  0  0  0  0  0
    4.5126   -3.6295   -2.4923 C   0  0  0  0  0  0  0  0  0  0  0  0
    4.3652   -4.5747   -3.0360 H   0  0  0  0  0  0  0  0  0  0  0  0
    4.1665    0.3722    2.5203 C   0  0  0  0  0  0  0  0  0  0  0  0
    3.7641    1.3860    2.3965 H   0  0  0  0  0  0  0  0  0  0  0  0
    4.1488   -1.9935    1.9403 C   0  0  0  0  0  0  0  0  0  0  0  0
    3.7314   -2.8299    1.3617 H   0  0  0  0  0  0  0  0  0  0  0  0
    5.1849   -2.2246    2.8528 C   0  0  0  0  0  0  0  0  0  0  0  0
    5.5749   -3.2448    2.9857 H   0  0  0  0  0  0  0  0  0  0  0  0
    5.2103    0.1359    3.4237 C   0  0  0  0  0  0  0  0  0  0  0  0
    5.6252    0.9739    4.0038 H   0  0  0  0  0  0  0  0  0  0  0  0
    0.1100    6.5715   -0.0669 C   0  0  0  0  0  0  0  0  0  0  0  0
    0.3408    6.6779    1.0219 H   0  0  0  0  0  0  0  0  0  0  0  0
    0.8441    7.1673   -0.6460 H   0  0  0  0  0  0  0  0  0  0  0  0
   -3.6233   -2.6521    4.1586 C   0  0  0  0  0  0  0  0  0  0  0  0
   -3.2941   -3.0662    5.1235 H   0  0  0  0  0  0  0  0  0  0  0  0
   -2.1101    4.8695   -0.0655 C   0  0  0  0  0  0  0  0  0  0  0  0
   -2.3492    4.7628   -1.1518 H   0  0  0  0  0  0  0  0  0  0  0  0
   -2.8243    4.2619    0.5248 H   0  0  0  0  0  0  0  0  0  0  0  0
   -1.3147    7.0467   -0.3264 C   0  0  0  0  0  0  0  0  0  0  0  0
   -1.4646    8.0787    0.0505 H   0  0  0  0  0  0  0  0  0  0  0  0
   -1.5130    7.0356   -1.4270 H   0  0  0  0  0  0  0  0  0  0  0  0
   -4.9931   -2.5428    3.8698 C   0  0  0  0  0  0  0  0  0  0  0  0
   -5.7412   -2.8705    4.6074 H   0  0  0  0  0  0  0  0  0  0  0  0
   -5.4045   -2.0086    2.6382 C   0  0  0  0  0  0  0  0  0  0  0  0
   -6.4759   -1.9113    2.4071 H   0  0  0  0  0  0  0  0  0  0  0  0
    5.7226   -1.1603    3.5942 C   0  0  0  0  0  0  0  0  0  0  0  0
    6.5398   -1.3420    4.3086 H   0  0  0  0  0  0  0  0  0  0  0  0
   -2.6668   -2.2308    3.2264 C   0  0  0  0  0  0  0  0  0  0  0  0
   -1.5973   -2.3100    3.4608 H   0  0  0  0  0  0  0  0  0  0  0  0
   -0.3528    3.5879   -3.0313 Cl  0  0  0  0  0  0  0  0  0  0  0  0
  1 13  1  0  0  0  0
  2 16  1  0  0  0  0
  3 14  1  0  0  0  0
  4 16  1  0  0  0  0
  5 16  1  0  0  0  0
  6 61  1  0  0  0  0
  6 37  1  0  0  0  0
  8  9  1  0  0  0  0
  9 20  1  0  0  0  0
 10  2  1  0  0  0  0
 11  5  1  0  0  0  0
 12  4  1  0  0  0  0
 13 32  1  0  0  0  0
 14 28  1  0  0  0  0
 15 18  1  6  0  0  0
 15  1  1  0  0  0  0
 15  8  1  0  0  0  0
 15  3  1  0  0  0  0
 16 17  1  1  0  0  0
 19 33  1  0  0  0  0
 20 19  1  1  0  0  0
 20 21  1  0  0  0  0
 21 10  1  0  0  0  0
 21 30  1  6  0  0  0
 22 55  2  0  0  0  0
 22 53  1  0  0  0  0
 23 12  1  0  0  0  0
 23 22  1  1  0  0  0
 24 19  2  0  0  0  0
 25 24  1  0  0  0  0
 26 27  1  0  0  0  0
 28 29  1  6  0  0  0
 28 23  1  0  0  0  0
 29 26  1  0  0  0  0
 30 78  1  0  0  0  0
 31 37  1  0  0  0  0
 31 11  1  0  0  0  0
 32 31  2  0  0  0  0
 33 34  1  0  0  0  0
 35 29  2  0  0  0  0
 36 35  1  0  0  0  0
 37 38  1  1  0  0  0
 39 40  1  0  0  0  0
 39 33  2  0  0  0  0
 41 42  1  0  0  0  0
 41 26  2  0  0  0  0
 43 39  1  0  0  0  0
 44 43  1  0  0  0  0
 45 24  1  0  0  0  0
 45 43  2  0  0  0  0
 46 45  1  0  0  0  0
 47 41  1  0  0  0  0
 48 47  1  0  0  0  0
 49 30  2  0  0  0  0
 49 74  1  0  0  0  0
 50 49  1  0  0  0  0
 51 47  2  0  0  0  0
 51 35  1  0  0  0  0
 52 51  1  0  0  0  0
 53 59  2  0  0  0  0
 54 53  1  0  0  0  0
 55 57  1  0  0  0  0
 56 55  1  0  0  0  0
 57 58  1  0  0  0  0
 57 76  2  0  0  0  0
 59 76  1  0  0  0  0
 59 60  1  0  0  0  0
 61 62  1  0  0  0  0
 63 61  1  0  0  0  0
 64 65  1  0  0  0  0
 66 37  1  0  0  0  0
 66  7  1  0  0  0  0
 66 68  1  0  0  0  0
 67 66  1  0  0  0  0
 69 61  1  0  0  0  0
 69 70  1  0  0  0  0
 69  7  1  0  0  0  0
 71 69  1  0  0  0  0
 72 64  1  0  0  0  0
 72 73  1  0  0  0  0
 74 72  2  0  0  0  0
 75 74  1  0  0  0  0
 76 77  1  0  0  0  0
 78 79  1  0  0  0  0
 78 64  2  0  0  0  0
 80 32  1  0  0  0  0
M  END
