11,12,13,14,15,16
q = -2.0, confidence = 0.714

 68 73  0  0  1  0  0  0  0  0999 V2000
    0.1354   -4.3684    1.2295 F   0  0  0  0  0  0  0  0  0  0  0  0
   -0.1354    4.3683    1.2299 F   0  0  0  0  0  0  0  0  0  0  0  0
   -0.3459   -2.5306    2.5805 O   0  0  0  0  0  0  0  0  0  0  0  0
    0.3459    2.5303    2.5807 O   0  0  0  0  0  0  0  0  0  0  0  0
    1.4468   -2.4673    0.9272 O   0  0  0  0  0  0  0  0  0  0  0  0
    0.8745    2.5429    0.1944 O   0  0  0  0  0  0  0  0  0  0  0  0
   -0.8745   -2.5430    0.1942 O   0  0  0  0  0  0  0  0  0  0  0  0
   -1.4468    2.4671    0.9275 O   0  0  0  0  0  0  0  0  0  0  0  0
    0.0883   -3.0173    1.2328 B   0  0  1  0  0  0  0  0  0  0  0  0
   -0.0883    3.0171    1.2330 B   0  0  2  0  0  0  0  0  0  0  0  0
   -0.2532   -1.2007    2.6960 N   0  0  0  0  0  2  0  0  0  0  0  0
    0.2532    1.2004    2.6961 N   0  0  0  0  0  2  0  0  0  0  0  0
    1.4675   -1.1395    0.7354 N   0  0  0  0  0  2  0  0  0  0  0  0
    1.0934    1.2191    0.2162 N   0  0  0  0  0  2  0  0  0  0  0  0
   -1.0934   -1.2192    0.2161 N   0  0  0  0  0  2  0  0  0  0  0  0
   -1.4675    1.1394    0.7355 N   0  0  0  0  0  2  0  0  0  0  0  0
   -0.1142   -0.6999    3.9158 C   0  0  0  0  0  0  0  0  0  0  0  0
   -0.1420   -1.3543    4.7985 H   0  0  0  0  0  0  0  0  0  0  0  0
    0.1143    0.6994    3.9158 C   0  0  0  0  0  0  0  0  0  0  0  0
    0.1421    1.3538    4.7986 H   0  0  0  0  0  0  0  0  0  0  0  0
    2.4252   -0.6428   -0.0513 C   0  0  2  0  0  3  0  0  0  0  0  0
    2.2599    0.7805   -0.2633 C   0  0  2  0  0  3  0  0  0  0  0  0
   -2.2600   -0.7805   -0.2633 C   0  0  2  0  0  3  0  0  0  0  0  0
   -2.4252    0.6427   -0.0513 C   0  0  2  0  0  3  0  0  0  0  0  0
    3.4653   -1.4656   -0.7009 C   0  0  0  0  0  0  0  0  0  0  0  0
    3.7995   -1.2235   -2.0537 C   0  0  0  0  0  0  0  0  0  0  0  0
    3.2717   -0.4362   -2.6108 H   0  0  0  0  0  0  0  0  0  0  0  0
    4.7895   -1.9830   -2.6883 C   0  0  0  0  0  0  0  0  0  0  0  0
    5.0324   -1.7870   -3.7434 H   0  0  0  0  0  0  0  0  0  0  0  0
    5.4677   -2.9894   -1.9822 C   0  0  0  0  0  0  0  0  0  0  0  0
    6.2486   -3.5837   -2.4804 H   0  0  0  0  0  0  0  0  0  0  0  0
    5.1419   -3.2377   -0.6391 C   0  0  0  0  0  0  0  0  0  0  0  0
    5.6669   -4.0275   -0.0810 H   0  0  0  0  0  0  0  0  0  0  0  0
    4.1449   -2.4887   -0.0015 C   0  0  0  0  0  0  0  0  0  0  0  0
    3.8877   -2.6931    1.0459 H   0  0  0  0  0  0  0  0  0  0  0  0
    3.2929    1.6619   -0.8437 C   0  0  0  0  0  0  0  0  0  0  0  0
    2.9585    2.6933   -1.7504 C   0  0  0  0  0  0  0  0  0  0  0  0
    1.9072    2.8598   -2.0192 H   0  0  0  0  0  0  0  0  0  0  0  0
    3.9613    3.4989   -2.3043 C   0  0  0  0  0  0  0  0  0  0  0  0
    3.6874    4.2949   -3.0130 H   0  0  0  0  0  0  0  0  0  0  0  0
    5.3067    3.2991   -1.9553 C   0  0  0  0  0  0  0  0  0  0  0  0
    6.0908    3.9379   -2.3892 H   0  0  0  0  0  0  0  0  0  0  0  0
    5.6468    2.2846   -1.0462 C   0  0  0  0  0  0  0  0  0  0  0  0
    6.6976    2.1267   -0.7603 H   0  0  0  0  0  0  0  0  0  0  0  0
    4.6504    1.4689   -0.4971 C   0  0  0  0  0  0  0  0  0  0  0  0
    4.9217    0.6760    0.2144 H   0  0  0  0  0  0  0  0  0  0  0  0
   -3.2930   -1.6618   -0.8437 C   0  0  0  0  0  0  0  0  0  0  0  0
   -2.9587   -2.6933   -1.7505 C   0  0  0  0  0  0  0  0  0  0  0  0
   -1.9075   -2.8598   -2.0194 H   0  0  0  0  0  0  0  0  0  0  0  0
   -3.9616   -3.4988   -2.3045 C   0  0  0  0  0  0  0  0  0  0  0  0
   -3.6878   -4.2948   -3.0132 H   0  0  0  0  0  0  0  0  0  0  0  0
   -5.3069   -3.2988   -1.9554 C   0  0  0  0  0  0  0  0  0  0  0  0
   -6.0912   -3.9375   -2.3893 H   0  0  0  0  0  0  0  0  0  0  0  0
   -5.6470   -2.2844   -1.0463 C   0  0  0  0  0  0  0  0  0  0  0  0
   -6.6977   -2.1264   -0.7604 H   0  0  0  0  0  0  0  0  0  0  0  0
   -4.6504   -1.4687   -0.4972 C   0  0  0  0  0  0  0  0  0  0  0  0
   -4.9217   -0.6758    0.2143 H   0  0  0  0  0  0  0  0  0  0  0  0
   -3.4652    1.4657   -0.7008 C   0  0  0  0  0  0  0  0  0  0  0  0
   -3.7994    1.2237   -2.0537 C   0  0  0  0  0  0  0  0  0  0  0  0
   -3.2716    0.4364   -2.6107 H   0  0  0  0  0  0  0  0  0  0  0  0
   -4.7892    1.9833   -2.6882 C   0  0  0  0  0  0  0  0  0  0  0  0
   -5.0322    1.7874   -3.7434 H   0  0  0  0  0  0  0  0  0  0  0  0
   -5.4674    2.9897   -1.9821 C   0  0  0  0  0  0  0  0  0  0  0  0
   -6.2482    3.5841   -2.4803 H   0  0  0  0  0  0  0  0  0  0  0  0
   -5.1417    3.2380   -0.6390 C   0  0  0  0  0  0  0  0  0  0  0  0
   -5.6666    4.0278   -0.0808 H   0  0  0  0  0  0  0  0  0  0  0  0
   -4.1447    2.4888   -0.0014 C   0  0  0  0  0  0  0  0  0  0  0  0
   -3.8876    2.6931    1.0460 H   0  0  0  0  0  0  0  0  0  0  0  0
  3 11  1  0  0  0  0
  4 12  1  0  0  0  0
  5  9  1  0  0  0  0
  6 14  1  0  0  0  0
  6 10  1  0  0  0  0
  7 15  1  0  0  0  0
  7  9  1  0  0  0  0
  8 10  1  0  0  0  0
  9  1  1  6  0  0  0
  9  3  1  0  0  0  0
 10  2  1  6  0  0  0
 10  4  1  0  0  0  0
 11 17  1  0  0  0  0
 12 19  1  0  0  0  0
 13  5  1  0  0  0  0
 16  8  1  0  0  0  0
 17 19  2  0  0  0  0
 17 18  1  0  0  0  0
 19 20  1  0  0  0  0
 21 25  1  6  0  0  0
 21 13  1  0  0  0  0
 22 36  1  1  0  0  0
 22 21  1  0  0  0  0
 22 14  1  0  0  0  0
 23 47  1  1  0  0  0
 23 24  1  0  0  0  0
 23 15  1  0  0  0  0
 24 58  1  6  0  0  0
 24 16  1  0  0  0  0
 25 34  1  0  0  0  0
 26 25  2  0  0  0  0
 27 26  1  0  0  0  0
 28 26  1  0  0  0  0
 28 30  2  0  0  0  0
 29 28  1  0  0  0  0
 30 32  1  0  0  0  0
 31 30  1  0  0  0  0
 32 33  1  0  0  0  0
 32 34  2  0  0  0  0
 34 35  1  0  0  0  0
 36 45  1  0  0  0  0
 37 36  2  0  0  0  0
 38 37  1  0  0  0  0
 39 41  2  0  0  0  0
 39 37  1  0  0  0  0
 40 39  1  0  0  0  0
 41 43  1  0  0  0  0
 42 41  1  0  0  0  0
 43 44  1  0  0  0  0
 43 45  2  0  0  0  0
 45 46  1  0  0  0  0
 47 56  1  0  0  0  0
 48 47  2  0  0  0  0
 49 48  1  0  0  0  0
 50 52  2  0  0  0  0
 50 48  1  0  0  0  0
 51 50  1  0  0  0  0
 52 54  1  0  0  0  0
 53 52  1  0  0  0  0
 54 55  1  0  0  0  0
 54 56  2  0  0  0  0
 56 57  1  0  0  0  0
 58 67  1  0  0  0  0
 59 58  2  0  0  0  0
 60 59  1  0  0  0  0
 61 59  1  0  0  0  0
 61 63  2  0  0  0  0
 62 61  1  0  0  0  0
 63 65  1  0  0  0  0
 64 63  1  0  0  0  0
 65 66  1  0  0  0  0
 65 67  2  0  0  0  0
 67 68  1  0  0  0  0
M  END
