11,12,13,14,15,16
q = -2.0, confidence = 0.734

 71 76  0  0  1  0  0  0  0  0999 V2000
    0.1311   -4.4188    0.6511 F   0  0  0  0  0  0  0  0  0  0  0  0
   -0.1290    4.2666    1.5618 F   0  0  0  0  0  0  0  0  0  0  0  0
   -0.3600   -2.7309    2.1817 O   0  0  0  0  0  0  0  0  0  0  0  0
    0.3478    2.2950    2.7107 O   0  0  0  0  0  0  0  0  0  0  0  0
   -0.8702   -2.4943   -0.1964 O   0  0  0  0  0  0  0  0  0  0  0  0
   -1.4431    2.4109    1.0574 O   0  0  0  0  0  0  0  0  0  0  0  0
    1.4464   -2.4989    0.5580 O   0  0  0  0  0  0  0  0  0  0  0  0
    0.8800    2.5600    0.3394 O   0  0  0  0  0  0  0  0  0  0  0  0
    0.0844   -3.0744    0.7950 B   0  0  2  0  0  0  0  0  0  0  0  0
   -0.0841    2.9224    1.4212 B   0  0  1  0  0  0  0  0  0  0  0  0
   -0.2634   -1.4159    2.4377 N   0  0  0  0  0  2  0  0  0  0  0  0
    0.2527    0.9598    2.6850 N   0  0  0  0  0  2  0  0  0  0  0  0
   -1.0906   -1.1798   -0.0357 N   0  0  0  0  0  2  0  0  0  0  0  0
   -1.4656    1.1098    0.7290 N   0  0  0  0  0  2  0  0  0  0  0  0
    1.4693   -1.1582    0.5024 N   0  0  0  0  0  2  0  0  0  0  0  0
    1.0979    1.2405    0.2239 N   0  0  0  0  0  2  0  0  0  0  0  0
   -0.1218   -1.0659    3.7140 C   0  0  0  0  0  0  0  0  0  0  0  0
    0.1105    0.3346    3.8434 C   0  0  0  0  0  0  0  0  0  0  0  0
    0.1381    0.8949    4.7890 H   0  0  0  0  0  0  0  0  0  0  0  0
   -2.2579   -0.6941   -0.4662 C   0  0  2  0  0  3  0  0  0  0  0  0
   -2.4238    0.6988   -0.1060 C   0  0  2  0  0  3  0  0  0  0  0  0
    2.4313   -0.5850   -0.2252 C   0  0  2  0  0  3  0  0  0  0  0  0
    2.2670    0.8524   -0.2922 C   0  0  2  0  0  3  0  0  0  0  0  0
   -0.1558   -2.0663    4.8215 C   0  0  0  0  0  0  0  0  0  0  0  0
    0.6453   -2.8211    4.6800 H   0  0  0  0  0  0  0  0  0  0  0  0
   -1.1134   -2.6254    4.8172 H   0  0  0  0  0  0  0  0  0  0  0  0
   -0.0246   -1.5764    5.8033 H   0  0  0  0  0  0  0  0  0  0  0  0
   -3.2910   -1.5107   -1.1345 C   0  0  0  0  0  0  0  0  0  0  0  0
   -4.6486   -1.3538   -0.7704 C   0  0  0  0  0  0  0  0  0  0  0  0
   -4.9197   -0.6378    0.0185 H   0  0  0  0  0  0  0  0  0  0  0  0
   -5.6454   -2.1081   -1.4007 C   0  0  0  0  0  0  0  0  0  0  0  0
   -6.6962   -1.9794   -1.1007 H   0  0  0  0  0  0  0  0  0  0  0  0
   -5.3057   -3.0244   -2.4088 C   0  0  0  0  0  0  0  0  0  0  0  0
   -6.0901   -3.6148   -2.9062 H   0  0  0  0  0  0  0  0  0  0  0  0
   -3.9602   -3.1883   -2.7758 C   0  0  0  0  0  0  0  0  0  0  0  0
   -3.6864   -3.9077   -3.5622 H   0  0  0  0  0  0  0  0  0  0  0  0
   -2.9572   -2.4441   -2.1420 C   0  0  0  0  0  0  0  0  0  0  0  0
   -1.9059   -2.5827   -2.4262 H   0  0  0  0  0  0  0  0  0  0  0  0
   -3.4627    1.5861   -0.6664 C   0  0  0  0  0  0  0  0  0  0  0  0
   -3.7986    1.4864   -2.0367 C   0  0  0  0  0  0  0  0  0  0  0  0
   -3.2727    0.7603   -2.6730 H   0  0  0  0  0  0  0  0  0  0  0  0
   -4.7876    2.3095   -2.5882 C   0  0  0  0  0  0  0  0  0  0  0  0
   -5.0318    2.2241   -3.6578 H   0  0  0  0  0  0  0  0  0  0  0  0
   -5.4629    3.2391   -1.7813 C   0  0  0  0  0  0  0  0  0  0  0  0
   -6.2427    3.8836   -2.2146 H   0  0  0  0  0  0  0  0  0  0  0  0
   -5.1354    3.3463   -0.4201 C   0  0  0  0  0  0  0  0  0  0  0  0
   -5.6579    4.0753    0.2174 H   0  0  0  0  0  0  0  0  0  0  0  0
   -4.1398    2.5328    0.1355 C   0  0  0  0  0  0  0  0  0  0  0  0
   -3.8814    2.6270    1.1982 H   0  0  0  0  0  0  0  0  0  0  0  0
    3.4749   -1.3386   -0.9491 C   0  0  0  0  0  0  0  0  0  0  0  0
    4.1503   -2.4275   -0.3526 C   0  0  0  0  0  0  0  0  0  0  0  0
    3.8865   -2.7361    0.6673 H   0  0  0  0  0  0  0  0  0  0  0  0
    5.1510   -3.1093   -1.0563 C   0  0  0  0  0  0  0  0  0  0  0  0
    5.6724   -3.9519   -0.5775 H   0  0  0  0  0  0  0  0  0  0  0  0
    5.4852   -2.7271   -2.3654 C   0  0  0  0  0  0  0  0  0  0  0  0
    6.2690   -3.2687   -2.9163 H   0  0  0  0  0  0  0  0  0  0  0  0
    4.8114   -1.6540   -2.9704 C   0  0  0  0  0  0  0  0  0  0  0  0
    5.0610   -1.3526   -3.9988 H   0  0  0  0  0  0  0  0  0  0  0  0
    3.8175   -0.9617   -2.2686 C   0  0  0  0  0  0  0  0  0  0  0  0
    3.2930   -0.1221   -2.7466 H   0  0  0  0  0  0  0  0  0  0  0  0
    3.3023    1.7882   -0.7755 C   0  0  0  0  0  0  0  0  0  0  0  0
    2.9707    2.9067   -1.5736 C   0  0  0  0  0  0  0  0  0  0  0  0
    1.9202    3.1000   -1.8269 H   0  0  0  0  0  0  0  0  0  0  0  0
    3.9751    3.7641   -2.0401 C   0  0  0  0  0  0  0  0  0  0  0  0
    3.7031    4.6281   -2.6649 H   0  0  0  0  0  0  0  0  0  0  0  0
    5.3195    3.5291   -1.7100 C   0  0  0  0  0  0  0  0  0  0  0  0
    6.1050    4.2081   -2.0749 H   0  0  0  0  0  0  0  0  0  0  0  0
    5.6569    2.4274   -0.9077 C   0  0  0  0  0  0  0  0  0  0  0  0
    6.7069    2.2405   -0.6368 H   0  0  0  0  0  0  0  0  0  0  0  0
    4.6587    1.5608   -0.4466 C   0  0  0  0  0  0  0  0  0  0  0  0
    4.9280    0.6997    0.1816 H   0  0  0  0  0  0  0  0  0  0  0  0
  3 11  1  0  0  0  0
  5 13  1  0  0  0  0
  5  9  1  0  0  0  0
  6 10  1  0  0  0  0
  7  9  1  0  0  0  0
  8 10  1  0  0  0  0
  9  1  1  6  0  0  0
  9  3  1  0  0  0  0
 10  2  1  1  0  0  0
 10  4  1  0  0  0  0
 11 17  1  0  0  0  0
 12  4  1  0  0  0  0
 12 18  1  0  0  0  0
 14  6  1  0  0  0  0
 15  7  1  0  0  0  0
 16  8  1  0  0  0  0
 17 18  2  0  0  0  0
 17 24  1  0  0  0  0
 18 19  1  0  0  0  0
 20 28  1  1  0  0  0
 20 21  1  0  0  0  0
 20 13  1  0  0  0  0
 21 39  1  6  0  0  0
 21 14  1  0  0  0  0
 22 50  1  6  0  0  0
 22 15  1  0  0  0  0
 23 61  1  1  0  0  0
 23 22  1  0  0  0  0
 23 16  1  0  0  0  0
 24 27  1  0  0  0  0
 25 24  1  0  0  0  0
 26 24  1  0  0  0  0
 28 29  1  0  0  0  0
 29 30  1  0  0  0  0
 31 32  1  0  0  0  0
 31 29  2  0  0  0  0
 33 31  1  0  0  0  0
 34 33  1  0  0  0  0
 35 33  2  0  0  0  0
 35 37  1  0  0  0  0
 36 35  1  0  0  0  0
 37 28  2  0  0  0  0
 38 37  1  0  0  0  0
 39 48  1  0  0  0  0
 40 39  2  0  0  0  0
 41 40  1  0  0  0  0
 42 40  1  0  0  0  0
 42 44  2  0  0  0  0
 43 42  1  0  0  0  0
 44 46  1  0  0  0  0
 45 44  1  0  0  0  0
 46 48  2  0  0  0  0
 46 47  1  0  0  0  0
 48 49  1  0  0  0  0
 50 51  1  0  0  0  0
 51 52  1  0  0  0  0
 53 54  1  0  0  0  0
 53 51  2  0  0  0  0
 55 53  1  0  0  0  0
 56 55  1  0  0  0  0
 57 55  2  0  0  0  0
 57 59  1  0  0  0  0
 58 57  1  0  0  0  0
 59 50  2  0  0  0  0
 60 59  1  0  0  0  0
 61 70  1  0  0  0  0
 62 61  2  0  0  0  0
 63 62  1  0  0  0  0
 64 66  2  0  0  0  0
 64 62  1  0  0  0  0
 65 64  1  0  0  0  0
 66 68  1  0  0  0  0
 67 66  1  0  0  0  0
 68 69  1  0  0  0  0
 68 70  2  0  0  0  0
 70 71  1  0  0  0  0
M  END
