4,5,6,7,8,9
 OpenBabel05122313063D

 84 87  0  0  0  0  0  0  0  0999 V2000
    1.2081   -3.0147    0.4580 Si  0  0  0  0  0  0  0  0  0  0  0  0
    1.2036    1.9064    2.3808 Si  0  0  0  0  0  0  0  0  0  0  0  0
    1.1975    1.1117   -2.8420 Si  0  0  0  0  0  0  0  0  0  0  0  0
   -0.1366   -2.0057    0.8452 N   0  0  0  0  0  2  0  0  0  0  0  0
   -0.1413    1.7321    1.3144 N   0  0  0  0  0  2  0  0  0  0  0  0
   -0.1440    0.2702   -2.1575 N   0  0  0  0  0  2  0  0  0  0  0  0
    2.4454    1.1500    1.2490 N   0  0  0  0  0  0  0  0  0  0  0  0
    2.4422    0.5132   -1.6223 N   0  0  0  0  0  0  0  0  0  0  0  0
    2.4480   -1.6549    0.3645 N   0  0  0  0  0  0  0  0  0  0  0  0
    2.9658    2.0994    0.2448 C   0  0  0  0  0  0  0  0  0  0  0  0
    2.1411    2.8008    0.0011 H   0  0  0  0  0  0  0  0  0  0  0  0
    3.7983    2.7235    0.6519 H   0  0  0  0  0  0  0  0  0  0  0  0
    3.4417    1.4358   -1.0581 C   0  0  0  0  0  0  0  0  0  0  0  0
    4.3822    0.8777   -0.8706 H   0  0  0  0  0  0  0  0  0  0  0  0
    3.7214    2.2447   -1.7704 H   0  0  0  0  0  0  0  0  0  0  0  0
    2.9661   -0.8297   -1.9432 C   0  0  0  0  0  0  0  0  0  0  0  0
    2.1423   -1.3940   -2.4274 H   0  0  0  0  0  0  0  0  0  0  0  0
    3.7973   -0.7869   -2.6886 H   0  0  0  0  0  0  0  0  0  0  0  0
    3.4460   -1.6247   -0.7177 C   0  0  0  0  0  0  0  0  0  0  0  0
    3.7284   -2.6452   -1.0623 H   0  0  0  0  0  0  0  0  0  0  0  0
    4.3857   -1.1802   -0.3294 H   0  0  0  0  0  0  0  0  0  0  0  0
    2.9719   -1.2594    1.6874 C   0  0  0  0  0  0  0  0  0  0  0  0
    2.1492   -1.3989    2.4189 H   0  0  0  0  0  0  0  0  0  0  0  0
    3.8055   -1.9236    2.0224 H   0  0  0  0  0  0  0  0  0  0  0  0
    3.4470    0.2008    1.7630 C   0  0  0  0  0  0  0  0  0  0  0  0
    4.3858    0.3181    1.1832 H   0  0  0  0  0  0  0  0  0  0  0  0
    3.7295    0.4133    2.8188 H   0  0  0  0  0  0  0  0  0  0  0  0
    1.1496   -3.8506   -1.2365 C   0  0  0  0  0  0  0  0  0  0  0  0
    2.1192   -4.2886   -1.5512 H   0  0  0  0  0  0  0  0  0  0  0  0
    0.7965   -3.1491   -2.0192 H   0  0  0  0  0  0  0  0  0  0  0  0
    0.4127   -4.6787   -1.1931 H   0  0  0  0  0  0  0  0  0  0  0  0
    1.7086   -4.2836    1.7624 C   0  0  0  0  0  0  0  0  0  0  0  0
    2.6794   -4.7609    1.5151 H   0  0  0  0  0  0  0  0  0  0  0  0
    0.9414   -5.0830    1.8144 H   0  0  0  0  0  0  0  0  0  0  0  0
    1.7820   -3.8321    2.7712 H   0  0  0  0  0  0  0  0  0  0  0  0
   -1.4421   -2.3428    1.1946 C   0  0  0  0  0  0  0  0  0  0  0  0
   -2.2968   -1.3465    1.7446 C   0  0  0  0  0  0  0  0  0  0  0  0
   -1.8880   -0.3427    1.9421 H   0  0  0  0  0  0  0  0  0  0  0  0
   -3.6403   -1.6131    2.0322 C   0  0  0  0  0  0  0  0  0  0  0  0
   -4.2688   -0.8043    2.4364 H   0  0  0  0  0  0  0  0  0  0  0  0
   -4.1802   -2.8914    1.8095 C   0  0  0  0  0  0  0  0  0  0  0  0
   -5.2355   -3.1023    2.0378 H   0  0  0  0  0  0  0  0  0  0  0  0
   -3.3472   -3.8976    1.2916 C   0  0  0  0  0  0  0  0  0  0  0  0
   -3.7503   -4.9071    1.1124 H   0  0  0  0  0  0  0  0  0  0  0  0
   -2.0054   -3.6316    0.9859 C   0  0  0  0  0  0  0  0  0  0  0  0
   -1.3793   -4.4294    0.5545 H   0  0  0  0  0  0  0  0  0  0  0  0
    1.1504    0.8571    3.9522 C   0  0  0  0  0  0  0  0  0  0  0  0
    2.1212    0.8054    4.4869 H   0  0  0  0  0  0  0  0  0  0  0  0
    0.7988   -0.1723    3.7369 H   0  0  0  0  0  0  0  0  0  0  0  0
    0.4141    1.3075    4.6491 H   0  0  0  0  0  0  0  0  0  0  0  0
    1.6971    3.6728    2.8264 C   0  0  0  0  0  0  0  0  0  0  0  0
    2.6674    3.7016    3.3643 H   0  0  0  0  0  0  0  0  0  0  0  0
    0.9275    4.1151    3.4916 H   0  0  0  0  0  0  0  0  0  0  0  0
    1.7689    4.3203    1.9305 H   0  0  0  0  0  0  0  0  0  0  0  0
   -1.4473    2.2019    1.4315 C   0  0  0  0  0  0  0  0  0  0  0  0
   -2.0117    2.6623    2.6527 C   0  0  0  0  0  0  0  0  0  0  0  0
   -1.3862    2.6851    3.5598 H   0  0  0  0  0  0  0  0  0  0  0  0
   -3.3536    3.0594    2.7302 C   0  0  0  0  0  0  0  0  0  0  0  0
   -3.7576    3.4064    3.6946 H   0  0  0  0  0  0  0  0  0  0  0  0
   -4.1858    3.0072    1.5992 C   0  0  0  0  0  0  0  0  0  0  0  0
   -5.2412    3.3099    1.6676 H   0  0  0  0  0  0  0  0  0  0  0  0
   -3.6448    2.5640    0.3800 C   0  0  0  0  0  0  0  0  0  0  0  0
   -4.2727    2.5115   -0.5231 H   0  0  0  0  0  0  0  0  0  0  0  0
   -2.3012    2.1823    0.2930 C   0  0  0  0  0  0  0  0  0  0  0  0
   -1.8914    1.8541   -0.6755 H   0  0  0  0  0  0  0  0  0  0  0  0
    1.6917    0.6179   -4.5953 C   0  0  0  0  0  0  0  0  0  0  0  0
    2.6603    1.0729   -4.8891 H   0  0  0  0  0  0  0  0  0  0  0  0
    0.9205    0.9711   -5.3101 H   0  0  0  0  0  0  0  0  0  0  0  0
    1.7671   -0.4813   -4.7094 H   0  0  0  0  0  0  0  0  0  0  0  0
    1.1379    2.9969   -2.7173 C   0  0  0  0  0  0  0  0  0  0  0  0
    2.1072    3.4891   -2.9390 H   0  0  0  0  0  0  0  0  0  0  0  0
    0.7849    3.3226   -1.7179 H   0  0  0  0  0  0  0  0  0  0  0  0
    0.4007    3.3737   -3.4557 H   0  0  0  0  0  0  0  0  0  0  0  0
   -1.4506    0.1345   -2.6207 C   0  0  0  0  0  0  0  0  0  0  0  0
   -2.3017   -0.8429   -2.0329 C   0  0  0  0  0  0  0  0  0  0  0  0
   -1.8894   -1.5172   -1.2653 H   0  0  0  0  0  0  0  0  0  0  0  0
   -3.6461   -0.9602   -2.4039 C   0  0  0  0  0  0  0  0  0  0  0  0
   -4.2718   -1.7169   -1.9056 H   0  0  0  0  0  0  0  0  0  0  0  0
   -4.1903   -0.1266   -3.3960 C   0  0  0  0  0  0  0  0  0  0  0  0
   -5.2463   -0.2200   -3.6900 H   0  0  0  0  0  0  0  0  0  0  0  0
   -3.3609    0.8280   -4.0084 C   0  0  0  0  0  0  0  0  0  0  0  0
   -3.7674    1.4893   -4.7901 H   0  0  0  0  0  0  0  0  0  0  0  0
   -2.0182    0.9613   -3.6287 C   0  0  0  0  0  0  0  0  0  0  0  0
   -1.3948    1.7363   -4.1033 H   0  0  0  0  0  0  0  0  0  0  0  0
  1  4  1  0  0  0  0
  1 32  1  0  0  0  0
  2 51  1  0  0  0  0
  2 47  1  0  0  0  0
  3 70  1  0  0  0  0
  3  6  1  0  0  0  0
  3  8  1  0  0  0  0
  4 36  1  0  0  0  0
  5 55  1  0  0  0  0
  5  2  1  0  0  0  0
  7 25  1  0  0  0  0
  7  2  1  0  0  0  0
  8 13  1  0  0  0  0
  9  1  1  0  0  0  0
  9 22  1  0  0  0  0
 10 12  1  0  0  0  0
 10  7  1  0  0  0  0
 11 10  1  0  0  0  0
 13 14  1  0  0  0  0
 13 10  1  0  0  0  0
 15 13  1  0  0  0  0
 16  8  1  0  0  0  0
 16 19  1  0  0  0  0
 17 16  1  0  0  0  0
 18 16  1  0  0  0  0
 19 21  1  0  0  0  0
 19  9  1  0  0  0  0
 20 19  1  0  0  0  0
 22 25  1  0  0  0  0
 22 24  1  0  0  0  0
 22 23  1  0  0  0  0
 25 27  1  0  0  0  0
 26 25  1  0  0  0  0
 28 31  1  0  0  0  0
 28  1  1  0  0  0  0
 29 28  1  0  0  0  0
 30 28  1  0  0  0  0
 32 34  1  0  0  0  0
 32 35  1  0  0  0  0
 33 32  1  0  0  0  0
 36 37  1  0  0  0  0
 37 38  1  0  0  0  0
 37 39  2  0  0  0  0
 39 40  1  0  0  0  0
 41 39  1  0  0  0  0
 41 42  1  0  0  0  0
 43 41  2  0  0  0  0
 44 43  1  0  0  0  0
 45 36  2  0  0  0  0
 45 43  1  0  0  0  0
 46 45  1  0  0  0  0
 47 48  1  0  0  0  0
 47 50  1  0  0  0  0
 49 47  1  0  0  0  0
 51 52  1  0  0  0  0
 51 53  1  0  0  0  0
 54 51  1  0  0  0  0
 55 56  1  0  0  0  0
 56 58  2  0  0  0  0
 56 57  1  0  0  0  0
 58 59  1  0  0  0  0
 60 61  1  0  0  0  0
 60 58  1  0  0  0  0
 62 60  2  0  0  0  0
 63 62  1  0  0  0  0
 64 62  1  0  0  0  0
 64 55  2  0  0  0  0
 65 64  1  0  0  0  0
 66  3  1  0  0  0  0
 67 66  1  0  0  0  0
 68 66  1  0  0  0  0
 69 66  1  0  0  0  0
 70 72  1  0  0  0  0
 71 70  1  0  0  0  0
 73 70  1  0  0  0  0
 74  6  1  0  0  0  0
 74 75  1  0  0  0  0
 75 76  1  0  0  0  0
 77 75  2  0  0  0  0
 77 78  1  0  0  0  0
 79 77  1  0  0  0  0
 80 79  1  0  0  0  0
 81 83  1  0  0  0  0
 81 79  2  0  0  0  0
 82 81  1  0  0  0  0
 83 74  2  0  0  0  0
 84 83  1  0  0  0  0
M  END
