7,8,9,48,49,50
 OpenBabel05122313063D

 82 89  0  0  1  0  0  0  0  0999 V2000
    2.9203    2.0860   -2.8259 S   0  0  0  0  0  0  0  0  0  0  0  0
    3.8746    2.3378    0.5775 S   0  0  0  0  0  0  0  0  0  0  0  0
   -0.7315   -3.8104   -1.6488 S   0  0  0  0  0  0  0  0  0  0  0  0
    0.4914    0.5514   -2.8372 O   0  0  0  0  0  0  0  0  0  0  0  0
   -1.7087    1.3022   -2.0752 O   0  0  0  0  0  0  0  0  0  0  0  0
   -1.2195   -1.1028   -2.2441 O   0  0  0  0  0  0  0  0  0  0  0  0
    0.9756    0.6854   -1.5903 N   0  0  0  0  0  2  0  0  0  0  0  0
   -1.4447    1.2354   -0.7569 N   0  0  0  0  0  2  0  0  0  0  0  0
   -0.6853   -1.2204   -1.0132 N   0  0  0  0  0  2  0  0  0  0  0  0
   -0.9911    0.2507   -2.8859 B   0  0  2  0  0  0  0  0  0  0  0  0
    2.0908    1.3912   -1.4445 C   0  0  2  0  0  3  0  0  0  0  0  0
    2.4052    1.6345   -0.0656 C   0  0  1  0  0  3  0  0  0  0  0  0
    4.5777    2.2751   -2.1972 C   0  0  0  0  0  0  0  0  0  0  0  0
    5.5714    2.3751   -3.1946 C   0  0  0  0  0  0  0  0  0  0  0  0
    5.2719    2.2813   -4.2500 H   0  0  0  0  0  0  0  0  0  0  0  0
    6.9134    2.5853   -2.8604 C   0  0  0  0  0  0  0  0  0  0  0  0
    7.6667    2.6664   -3.6574 H   0  0  0  0  0  0  0  0  0  0  0  0
    7.2889    2.6702   -1.5103 C   0  0  0  0  0  0  0  0  0  0  0  0
    8.3420    2.8178   -1.2300 H   0  0  0  0  0  0  0  0  0  0  0  0
    6.3172    2.5489   -0.5117 C   0  0  0  0  0  0  0  0  0  0  0  0
    6.6065    2.5946    0.5500 H   0  0  0  0  0  0  0  0  0  0  0  0
    4.9555    2.3672   -0.8373 C   0  0  0  0  0  0  0  0  0  0  0  0
   -0.3664   -2.4457   -0.6173 C   0  0  0  0  0  0  0  0  0  0  0  0
   -0.2865   -5.2126   -0.6462 C   0  0  0  0  0  0  0  0  0  0  0  0
   -0.5620   -6.4489   -1.2731 C   0  0  0  0  0  0  0  0  0  0  0  0
   -1.0097   -6.4416   -2.2795 H   0  0  0  0  0  0  0  0  0  0  0  0
   -0.2818   -7.6638   -0.6425 C   0  0  0  0  0  0  0  0  0  0  0  0
   -0.5080   -8.6094   -1.1563 H   0  0  0  0  0  0  0  0  0  0  0  0
   -1.5246    0.2546   -4.3910 C   0  0  0  0  0  0  0  0  0  0  0  0
   -0.9233    0.9920   -4.9650 H   0  0  0  0  0  0  0  0  0  0  0  0
   -1.2990   -0.7369   -4.8427 H   0  0  0  0  0  0  0  0  0  0  0  0
   -3.0213    0.5780   -4.5424 C   0  0  0  0  0  0  0  0  0  0  0  0
   -3.2187    1.5881   -4.1200 H   0  0  0  0  0  0  0  0  0  0  0  0
   -3.2871    0.6467   -5.6216 H   0  0  0  0  0  0  0  0  0  0  0  0
   -3.9645   -0.4242   -3.8661 C   0  0  0  0  0  0  0  0  0  0  0  0
   -3.6881   -0.5238   -2.7951 H   0  0  0  0  0  0  0  0  0  0  0  0
   -3.8053   -1.4335   -4.3080 H   0  0  0  0  0  0  0  0  0  0  0  0
   -5.4378   -0.0314   -3.9752 C   0  0  0  0  0  0  0  0  0  0  0  0
   -6.1027   -0.7816   -3.5003 H   0  0  0  0  0  0  0  0  0  0  0  0
   -5.7555    0.0747   -5.0342 H   0  0  0  0  0  0  0  0  0  0  0  0
   -5.6253    0.9436   -3.4767 H   0  0  0  0  0  0  0  0  0  0  0  0
   -2.9207    2.0860    2.8257 S   0  0  0  0  0  0  0  0  0  0  0  0
   -3.8750    2.3373   -0.5777 S   0  0  0  0  0  0  0  0  0  0  0  0
    0.7318   -3.8101    1.6493 S   0  0  0  0  0  0  0  0  0  0  0  0
   -0.4916    0.5517    2.8372 O   0  0  0  0  0  0  0  0  0  0  0  0
    1.7084    1.3026    2.0751 O   0  0  0  0  0  0  0  0  0  0  0  0
    1.2195   -1.1024    2.2443 O   0  0  0  0  0  0  0  0  0  0  0  0
   -0.9758    0.6855    1.5903 N   0  0  0  0  0  2  0  0  0  0  0  0
    1.4444    1.2356    0.7568 N   0  0  0  0  0  2  0  0  0  0  0  0
    0.6854   -1.2202    1.0134 N   0  0  0  0  0  2  0  0  0  0  0  0
    0.9910    0.2511    2.8859 B   0  0  2  0  0  0  0  0  0  0  0  0
   -2.0910    1.3911    1.4444 C   0  0  2  0  0  3  0  0  0  0  0  0
   -2.4055    1.6341    0.0654 C   0  0  1  0  0  3  0  0  0  0  0  0
   -4.5782    2.2746    2.1970 C   0  0  0  0  0  0  0  0  0  0  0  0
   -5.5719    2.3744    3.1944 C   0  0  0  0  0  0  0  0  0  0  0  0
   -5.2724    2.2808    4.2498 H   0  0  0  0  0  0  0  0  0  0  0  0
   -6.9139    2.5842    2.8601 C   0  0  0  0  0  0  0  0  0  0  0  0
   -7.6673    2.6652    3.6571 H   0  0  0  0  0  0  0  0  0  0  0  0
   -7.2894    2.6689    1.5100 C   0  0  0  0  0  0  0  0  0  0  0  0
   -8.3426    2.8162    1.2296 H   0  0  0  0  0  0  0  0  0  0  0  0
   -6.3177    2.5478    0.5114 C   0  0  0  0  0  0  0  0  0  0  0  0
   -6.6070    2.5933   -0.5502 H   0  0  0  0  0  0  0  0  0  0  0  0
   -4.9560    2.3664    0.8370 C   0  0  0  0  0  0  0  0  0  0  0  0
    0.3666   -2.4456    0.6176 C   0  0  0  0  0  0  0  0  0  0  0  0
    0.2878   -5.2125    0.6465 C   0  0  0  0  0  0  0  0  0  0  0  0
    0.5641   -6.4487    1.2732 C   0  0  0  0  0  0  0  0  0  0  0  0
    1.0118   -6.4412    2.2796 H   0  0  0  0  0  0  0  0  0  0  0  0
    0.2846   -7.6637    0.6425 C   0  0  0  0  0  0  0  0  0  0  0  0
    0.5114   -8.6092    1.1562 H   0  0  0  0  0  0  0  0  0  0  0  0
    1.5244    0.2553    4.3910 C   0  0  0  0  0  0  0  0  0  0  0  0
    0.9231    0.9928    4.9649 H   0  0  0  0  0  0  0  0  0  0  0  0
    1.2989   -0.7361    4.8429 H   0  0  0  0  0  0  0  0  0  0  0  0
    3.0211    0.5789    4.5424 C   0  0  0  0  0  0  0  0  0  0  0  0
    3.2184    1.5889    4.1198 H   0  0  0  0  0  0  0  0  0  0  0  0
    3.2870    0.6478    5.6215 H   0  0  0  0  0  0  0  0  0  0  0  0
    3.9644   -0.4233    3.8662 C   0  0  0  0  0  0  0  0  0  0  0  0
    3.6880   -0.5231    2.7952 H   0  0  0  0  0  0  0  0  0  0  0  0
    3.8053   -1.4326    4.3082 H   0  0  0  0  0  0  0  0  0  0  0  0
    5.4376   -0.0304    3.9752 C   0  0  0  0  0  0  0  0  0  0  0  0
    6.1027   -0.7806    3.5004 H   0  0  0  0  0  0  0  0  0  0  0  0
    5.7554    0.0759    5.0342 H   0  0  0  0  0  0  0  0  0  0  0  0
    5.6251    0.9446    3.4766 H   0  0  0  0  0  0  0  0  0  0  0  0
  1 13  1  0  0  0  0
  3 24  1  0  0  0  0
  3 23  1  0  0  0  0
  4  7  1  0  0  0  0
  5  8  1  0  0  0  0
  6  9  1  0  0  0  0
  7 11  1  0  0  0  0
  9 23  1  0  0  0  0
 10 29  1  6  0  0  0
 10  4  1  0  0  0  0
 10  6  1  0  0  0  0
 10  5  1  0  0  0  0
 11  1  1  6  0  0  0
 11 12  1  0  0  0  0
 12  2  1  1  0  0  0
 12 49  1  0  0  0  0
 13 22  1  0  0  0  0
 14 16  1  0  0  0  0
 14 13  2  0  0  0  0
 15 14  1  0  0  0  0
 16 18  2  0  0  0  0
 17 16  1  0  0  0  0
 18 19  1  0  0  0  0
 18 20  1  0  0  0  0
 20 21  1  0  0  0  0
 22 20  2  0  0  0  0
 22  2  1  0  0  0  0
 23 64  2  0  0  0  0
 24 65  1  0  0  0  0
 25 24  2  0  0  0  0
 25 27  1  0  0  0  0
 26 25  1  0  0  0  0
 27 68  2  0  0  0  0
 28 27  1  0  0  0  0
 30 29  1  0  0  0  0
 31 29  1  0  0  0  0
 32 29  1  0  0  0  0
 32 33  1  0  0  0  0
 32 35  1  0  0  0  0
 34 32  1  0  0  0  0
 35 36  1  0  0  0  0
 37 35  1  0  0  0  0
 38 35  1  0  0  0  0
 38 39  1  0  0  0  0
 38 41  1  0  0  0  0
 40 38  1  0  0  0  0
 43 53  1  0  0  0  0
 43 63  1  0  0  0  0
 45 51  1  0  0  0  0
 46 51  1  0  0  0  0
 47 51  1  0  0  0  0
 48 45  1  0  0  0  0
 49 46  1  0  0  0  0
 50 47  1  0  0  0  0
 51 70  1  1  0  0  0
 52 48  1  6  0  0  0
 52 42  1  0  0  0  0
 53  8  1  6  0  0  0
 53 52  1  0  0  0  0
 54 42  1  0  0  0  0
 54 55  1  0  0  0  0
 55 56  1  0  0  0  0
 57 55  2  0  0  0  0
 57 58  1  0  0  0  0
 59 57  1  0  0  0  0
 60 59  1  0  0  0  0
 61 63  1  0  0  0  0
 61 59  2  0  0  0  0
 62 61  1  0  0  0  0
 63 54  2  0  0  0  0
 64 50  1  0  0  0  0
 64 44  1  0  0  0  0
 65 66  2  0  0  0  0
 65 44  1  0  0  0  0
 66 67  1  0  0  0  0
 68 69  1  0  0  0  0
 68 66  1  0  0  0  0
 70 73  1  0  0  0  0
 70 72  1  0  0  0  0
 70 71  1  0  0  0  0
 73 75  1  0  0  0  0
 74 73  1  0  0  0  0
 76 79  1  0  0  0  0
 76 78  1  0  0  0  0
 76 73  1  0  0  0  0
 77 76  1  0  0  0  0
 79 81  1  0  0  0  0
 80 79  1  0  0  0  0
 82 79  1  0  0  0  0
M  END
