11,12,13,14,15,16
 OpenBabel05122313063D

 76 82  0  0  1  0  0  0  0  0999 V2000
    0.0838    3.8491    2.1887 F   0  0  0  0  0  0  0  0  0  0  0  0
   -0.0898   -4.3516   -0.8285 F   0  0  0  0  0  0  0  0  0  0  0  0
    0.0470    2.5692    1.7409 B   0  0  1  0  0  0  0  0  0  0  0  0
   -0.0552   -3.0826   -0.3509 B   0  0  2  0  0  0  0  0  0  0  0  0
   -0.8773    2.4839    0.5612 O   0  0  0  0  0  0  0  0  0  0  0  0
   -1.4276   -2.4875   -0.4190 O   0  0  0  0  0  0  0  0  0  0  0  0
    1.4216    2.1542    1.3108 O   0  0  0  0  0  0  0  0  0  0  0  0
    0.8808   -2.2591   -1.1805 O   0  0  0  0  0  0  0  0  0  0  0  0
   -0.4454    1.6701    2.8316 O   0  0  0  0  0  0  0  0  0  0  0  0
    0.4244   -3.1041    1.0725 O   0  0  0  0  0  0  0  0  0  0  0  0
   -1.1019    1.2295    0.1264 N   0  0  0  0  0  2  0  0  0  0  0  0
   -1.4630   -1.1673   -0.1578 N   0  0  0  0  0  2  0  0  0  0  0  0
    1.4411    0.9954    0.6278 N   0  0  0  0  0  2  0  0  0  0  0  0
    1.1147   -1.0387   -0.6664 N   0  0  0  0  0  2  0  0  0  0  0  0
   -0.3228    0.3706    2.4561 N   0  0  0  0  0  2  0  0  0  0  0  0
    0.2972   -1.8736    1.6346 N   0  0  0  0  0  2  0  0  0  0  0  0
   -0.2714   -0.2681    4.7714 N   0  0  0  0  0  0  0  0  0  0  0  0
   -0.2380    0.7159    5.0498 H   0  0  0  0  0  0  0  0  0  0  0  0
    0.2057   -2.8912    3.8093 N   0  0  0  0  0  0  0  0  0  0  0  0
    0.1740   -3.8209    3.3832 H   0  0  0  0  0  0  0  0  0  0  0  0
   -2.2806    0.9670   -0.4484 C   0  0  1  0  0  3  0  0  0  0  0  0
   -2.4385   -0.4470   -0.7237 C   0  0  1  0  0  3  0  0  0  0  0  0
    2.4421    0.7934   -0.2335 C   0  0  0  0  0  0  0  0  0  0  0  0
    2.2798   -0.4514   -0.9509 C   0  0  0  0  0  0  0  0  0  0  0  0
   -0.1678   -0.5073    3.4290 C   0  0  0  0  0  0  0  0  0  0  0  0
    0.1198   -1.8379    2.9414 C   0  0  0  0  0  0  0  0  0  0  0  0
   -3.3293    1.9825   -0.6700 C   0  0  0  0  0  0  0  0  0  0  0  0
   -3.0179    3.2722   -1.1578 C   0  0  0  0  0  0  0  0  0  0  0  0
   -1.9719    3.5349   -1.3623 H   0  0  0  0  0  0  0  0  0  0  0  0
   -4.0346    4.2097   -1.3797 C   0  0  0  0  0  0  0  0  0  0  0  0
   -3.7769    5.2080   -1.7646 H   0  0  0  0  0  0  0  0  0  0  0  0
   -5.3734    3.8835   -1.1098 C   0  0  0  0  0  0  0  0  0  0  0  0
   -6.1688    4.6244   -1.2821 H   0  0  0  0  0  0  0  0  0  0  0  0
   -5.6916    2.6088   -0.6142 C   0  0  0  0  0  0  0  0  0  0  0  0
   -6.7369    2.3464   -0.3919 H   0  0  0  0  0  0  0  0  0  0  0  0
   -4.6806    1.6647   -0.3986 C   0  0  0  0  0  0  0  0  0  0  0  0
   -4.9351    0.6685   -0.0096 H   0  0  0  0  0  0  0  0  0  0  0  0
   -3.4816   -1.0142   -1.6012 C   0  0  0  0  0  0  0  0  0  0  0  0
   -4.1381   -2.2257   -1.2852 C   0  0  0  0  0  0  0  0  0  0  0  0
   -3.8570   -2.7713   -0.3752 H   0  0  0  0  0  0  0  0  0  0  0  0
   -5.1394   -2.7287   -2.1256 C   0  0  0  0  0  0  0  0  0  0  0  0
   -5.6441   -3.6710   -1.8639 H   0  0  0  0  0  0  0  0  0  0  0  0
   -5.4955   -2.0417   -3.2972 C   0  0  0  0  0  0  0  0  0  0  0  0
   -6.2798   -2.4427   -3.9571 H   0  0  0  0  0  0  0  0  0  0  0  0
   -4.8413   -0.8436   -3.6258 C   0  0  0  0  0  0  0  0  0  0  0  0
   -5.1063   -0.3027   -4.5467 H   0  0  0  0  0  0  0  0  0  0  0  0
   -3.8453   -0.3318   -2.7856 C   0  0  0  0  0  0  0  0  0  0  0  0
   -3.3342    0.6051   -3.0494 H   0  0  0  0  0  0  0  0  0  0  0  0
    3.5703    1.7353   -0.4086 C   0  0  0  0  0  0  0  0  0  0  0  0
    4.9016    1.2671   -0.3481 C   0  0  0  0  0  0  0  0  0  0  0  0
    5.0939    0.2026   -0.1511 H   0  0  0  0  0  0  0  0  0  0  0  0
    5.9732    2.1503   -0.5353 C   0  0  0  0  0  0  0  0  0  0  0  0
    7.0054    1.7723   -0.4827 H   0  0  0  0  0  0  0  0  0  0  0  0
    5.7312    3.5096   -0.7884 C   0  0  0  0  0  0  0  0  0  0  0  0
    6.5734    4.2023   -0.9380 H   0  0  0  0  0  0  0  0  0  0  0  0
    4.4102    3.9834   -0.8457 C   0  0  0  0  0  0  0  0  0  0  0  0
    4.2137    5.0486   -1.0404 H   0  0  0  0  0  0  0  0  0  0  0  0
    3.3350    3.1067   -0.6522 C   0  0  0  0  0  0  0  0  0  0  0  0
    2.3021    3.4787   -0.6899 H   0  0  0  0  0  0  0  0  0  0  0  0
    3.2740   -1.0275   -1.8843 C   0  0  0  0  0  0  0  0  0  0  0  0
    3.7283   -2.3557   -1.7282 C   0  0  0  0  0  0  0  0  0  0  0  0
    3.3188   -2.9744   -0.9182 H   0  0  0  0  0  0  0  0  0  0  0  0
    4.6940   -2.8768   -2.5988 C   0  0  0  0  0  0  0  0  0  0  0  0
    5.0443   -3.9114   -2.4646 H   0  0  0  0  0  0  0  0  0  0  0  0
    5.2096   -2.0880   -3.6404 C   0  0  0  0  0  0  0  0  0  0  0  0
    5.9651   -2.5026   -4.3250 H   0  0  0  0  0  0  0  0  0  0  0  0
    4.7542   -0.7710   -3.8083 C   0  0  0  0  0  0  0  0  0  0  0  0
    5.1482   -0.1490   -4.6262 H   0  0  0  0  0  0  0  0  0  0  0  0
    3.7943   -0.2413   -2.9357 C   0  0  0  0  0  0  0  0  0  0  0  0
    3.4397    0.7911   -3.0678 H   0  0  0  0  0  0  0  0  0  0  0  0
    0.1927   -1.3106    5.6774 C   0  0  0  0  0  0  0  0  0  0  0  0
   -0.2343   -1.1307    6.6834 H   0  0  0  0  0  0  0  0  0  0  0  0
    1.3047   -1.3169    5.7746 H   0  0  0  0  0  0  0  0  0  0  0  0
   -0.2737   -2.6825    5.1694 C   0  0  0  0  0  0  0  0  0  0  0  0
    0.1419   -3.4736    5.8239 H   0  0  0  0  0  0  0  0  0  0  0  0
   -1.3868   -2.7357    5.2341 H   0  0  0  0  0  0  0  0  0  0  0  0
  3  1  1  1  0  0  0
  3  9  1  0  0  0  0
  4  2  1  6  0  0  0
  4 10  1  0  0  0  0
  5  3  1  0  0  0  0
  6  4  1  0  0  0  0
  6 12  1  0  0  0  0
  7  3  1  0  0  0  0
  8 14  1  0  0  0  0
  8  4  1  0  0  0  0
 10 16  1  0  0  0  0
 11  5  1  0  0  0  0
 13  7  1  0  0  0  0
 15  9  1  0  0  0  0
 15 25  1  0  0  0  0
 16 26  1  0  0  0  0
 17 18  1  0  0  0  0
 17 71  1  0  0  0  0
 19 74  1  0  0  0  0
 20 19  1  0  0  0  0
 21 27  1  1  0  0  0
 21 11  1  0  0  0  0
 22 38  1  6  0  0  0
 22 21  1  0  0  0  0
 22 12  1  0  0  0  0
 23 13  1  0  0  0  0
 24 14  1  0  0  0  0
 24 23  2  0  0  0  0
 25 17  1  0  0  0  0
 26 25  2  0  0  0  0
 26 19  1  0  0  0  0
 27 36  1  0  0  0  0
 28 27  2  0  0  0  0
 29 28  1  0  0  0  0
 30 28  1  0  0  0  0
 30 32  2  0  0  0  0
 31 30  1  0  0  0  0
 32 34  1  0  0  0  0
 33 32  1  0  0  0  0
 34 36  2  0  0  0  0
 34 35  1  0  0  0  0
 36 37  1  0  0  0  0
 38 39  1  0  0  0  0
 39 40  1  0  0  0  0
 41 42  1  0  0  0  0
 41 39  2  0  0  0  0
 43 41  1  0  0  0  0
 44 43  1  0  0  0  0
 45 43  2  0  0  0  0
 45 47  1  0  0  0  0
 46 45  1  0  0  0  0
 47 38  2  0  0  0  0
 48 47  1  0  0  0  0
 49 50  1  0  0  0  0
 49 23  1  0  0  0  0
 50 51  1  0  0  0  0
 52 53  1  0  0  0  0
 52 50  2  0  0  0  0
 54 52  1  0  0  0  0
 55 54  1  0  0  0  0
 56 54  2  0  0  0  0
 56 58  1  0  0  0  0
 57 56  1  0  0  0  0
 58 49  2  0  0  0  0
 59 58  1  0  0  0  0
 60 61  1  0  0  0  0
 60 24  1  0  0  0  0
 61 62  1  0  0  0  0
 63 64  1  0  0  0  0
 63 61  2  0  0  0  0
 65 63  1  0  0  0  0
 66 65  1  0  0  0  0
 67 65  2  0  0  0  0
 67 69  1  0  0  0  0
 68 67  1  0  0  0  0
 69 60  2  0  0  0  0
 70 69  1  0  0  0  0
 71 73  1  0  0  0  0
 71 72  1  0  0  0  0
 74 76  1  0  0  0  0
 74 71  1  0  0  0  0
 74 75  1  0  0  0  0
M  END
