4,6,8,9,25,41
 OpenBabel05122313063D

 56 58  0  0  1  0  0  0  0  0999 V2000
    2.7662    0.0936   -1.3957 N   0  0  0  0  0  0  0  0  0  0  0  0
    3.1791   -0.0002    0.0006 C   0  0  1  0  0  0  0  0  0  0  0  0
    4.2870   -0.0002    0.0008 H   0  0  0  0  0  0  0  0  0  0  0  0
    1.5025   -0.2429   -1.6370 N   0  0  0  0  0  2  0  0  0  0  0  0
    2.7657    1.1620    0.7799 N   0  0  0  0  0  0  0  0  0  0  0  0
    1.5020    1.5391    0.6087 N   0  0  0  0  0  2  0  0  0  0  0  0
    2.7657   -1.2562    0.6173 N   0  0  0  0  0  0  0  0  0  0  0  0
    1.5019   -1.2967    1.0291 N   0  0  0  0  0  2  0  0  0  0  0  0
   -1.1443   -0.6909   -1.7657 N   0  0  0  0  0  2  0  0  0  0  0  0
    3.5273    0.9313   -2.3094 C   0  0  0  0  0  0  0  0  0  0  0  0
    3.6995    0.4089   -3.2734 H   0  0  0  0  0  0  0  0  0  0  0  0
    4.5112    1.1624   -1.8626 H   0  0  0  0  0  0  0  0  0  0  0  0
    2.9931    1.8861   -2.5142 H   0  0  0  0  0  0  0  0  0  0  0  0
    0.9458   -0.1143   -2.8094 C   0  0  0  0  0  3  0  0  0  0  0  0
    1.4689    0.2559   -3.7099 H   0  0  0  0  0  0  0  0  0  0  0  0
   -0.4522   -0.5235   -2.9280 C   0  0  1  0  0  3  0  0  0  0  0  0
   -1.0572   -0.7410   -4.1837 C   0  0  0  0  0  0  0  0  0  0  0  0
   -0.4708   -0.5929   -5.1028 H   0  0  0  0  0  0  0  0  0  0  0  0
   -2.3905   -1.1596   -4.2395 C   0  0  0  0  0  0  0  0  0  0  0  0
   -2.8800   -1.3340   -5.2091 H   0  0  0  0  0  0  0  0  0  0  0  0
   -3.0869   -1.3647   -3.0370 C   0  0  0  0  0  0  0  0  0  0  0  0
   -4.1332   -1.7015   -3.0297 H   0  0  0  0  0  0  0  0  0  0  0  0
   -2.4180   -1.1203   -1.8304 C   0  0  0  0  0  0  0  0  0  0  0  0
   -2.9270   -1.2722   -0.8635 H   0  0  0  0  0  0  0  0  0  0  0  0
   -1.1448    1.8751    0.2845 N   0  0  0  0  0  2  0  0  0  0  0  0
    3.5264    1.5346    1.9624 C   0  0  0  0  0  0  0  0  0  0  0  0
    3.6989    2.6307    1.9918 H   0  0  0  0  0  0  0  0  0  0  0  0
    4.5102    1.0319    1.9397 H   0  0  0  0  0  0  0  0  0  0  0  0
    2.9917    1.2350    2.8916 H   0  0  0  0  0  0  0  0  0  0  0  0
    0.9453    2.4903    1.3061 C   0  0  0  0  0  3  0  0  0  0  0  0
    1.4684    3.0850    2.0769 H   0  0  0  0  0  0  0  0  0  0  0  0
   -0.4526    2.7979    1.0107 C   0  0  1  0  0  3  0  0  0  0  0  0
   -1.0574    3.9943    1.4499 C   0  0  0  0  0  0  0  0  0  0  0  0
   -0.4709    4.7161    2.0379 H   0  0  0  0  0  0  0  0  0  0  0  0
   -2.3905    4.2524    1.1148 C   0  0  0  0  0  0  0  0  0  0  0  0
   -2.8798    5.1795    1.4482 H   0  0  0  0  0  0  0  0  0  0  0  0
   -3.0869    3.3137    0.3357 C   0  0  0  0  0  0  0  0  0  0  0  0
   -4.1330    3.4761    0.0399 H   0  0  0  0  0  0  0  0  0  0  0  0
   -2.4182    2.1463   -0.0556 C   0  0  0  0  0  0  0  0  0  0  0  0
   -2.9273    1.3849   -0.6706 H   0  0  0  0  0  0  0  0  0  0  0  0
   -1.1450   -1.1838    1.4814 N   0  0  0  0  0  2  0  0  0  0  0  0
    3.5262   -2.4666    0.3477 C   0  0  0  0  0  0  0  0  0  0  0  0
    3.6981   -3.0411    1.2817 H   0  0  0  0  0  0  0  0  0  0  0  0
    4.5102   -2.1954   -0.0756 H   0  0  0  0  0  0  0  0  0  0  0  0
    2.9917   -3.1205   -0.3773 H   0  0  0  0  0  0  0  0  0  0  0  0
    0.9449   -2.3765    1.5032 C   0  0  0  0  0  3  0  0  0  0  0  0
    1.4678   -3.3416    1.6322 H   0  0  0  0  0  0  0  0  0  0  0  0
   -0.4531   -2.2746    1.9168 C   0  0  1  0  0  3  0  0  0  0  0  0
   -1.0583   -3.2538    2.7324 C   0  0  0  0  0  0  0  0  0  0  0  0
   -0.4721   -4.1242    3.0629 H   0  0  0  0  0  0  0  0  0  0  0  0
   -2.3915   -3.0927    3.1230 C   0  0  0  0  0  0  0  0  0  0  0  0
   -2.8812   -3.8456    3.7583 H   0  0  0  0  0  0  0  0  0  0  0  0
   -3.0877   -1.9483    2.7002 C   0  0  0  0  0  0  0  0  0  0  0  0
   -4.1339   -1.7735    2.9885 H   0  0  0  0  0  0  0  0  0  0  0  0
   -2.4185   -1.0251    1.8859 C   0  0  0  0  0  0  0  0  0  0  0  0
   -2.9273   -0.1114    1.5348 H   0  0  0  0  0  0  0  0  0  0  0  0
  1  2  1  0  0  0  0
  2  3  1  1  0  0  0
  2  7  1  0  0  0  0
  2  5  1  0  0  0  0
  4  1  1  0  0  0  0
  5 26  1  0  0  0  0
  6  5  1  0  0  0  0
  6 30  1  0  0  0  0
  7  8  1  0  0  0  0
  8 46  1  0  0  0  0
 10 12  1  0  0  0  0
 10  1  1  0  0  0  0
 11 10  1  0  0  0  0
 13 10  1  0  0  0  0
 14  4  1  0  0  0  0
 15 14  1  0  0  0  0
 16 14  1  1  0  0  0
 16  9  1  0  0  0  0
 17 16  1  0  0  0  0
 18 17  1  0  0  0  0
 19 17  2  0  0  0  0
 19 21  1  0  0  0  0
 20 19  1  0  0  0  0
 21 22  1  0  0  0  0
 21 23  2  0  0  0  0
 23  9  1  0  0  0  0
 23 24  1  0  0  0  0
 25 32  1  0  0  0  0
 26 27  1  0  0  0  0
 26 29  1  0  0  0  0
 28 26  1  0  0  0  0
 30 31  1  0  0  0  0
 32 30  1  6  0  0  0
 32 33  1  0  0  0  0
 33 34  1  0  0  0  0
 35 36  1  0  0  0  0
 35 33  2  0  0  0  0
 37 35  1  0  0  0  0
 38 37  1  0  0  0  0
 39 25  1  0  0  0  0
 39 37  2  0  0  0  0
 40 39  1  0  0  0  0
 41 55  1  0  0  0  0
 41 48  1  0  0  0  0
 42  7  1  0  0  0  0
 42 43  1  0  0  0  0
 44 42  1  0  0  0  0
 45 42  1  0  0  0  0
 46 47  1  0  0  0  0
 48 46  1  1  0  0  0
 48 49  1  0  0  0  0
 49 50  1  0  0  0  0
 49 51  2  0  0  0  0
 51 52  1  0  0  0  0
 53 54  1  0  0  0  0
 53 51  1  0  0  0  0
 55 53  2  0  0  0  0
 56 55  1  0  0  0  0
M  END
