1,4,5,6,7,8
 OpenBabel05122313063D

 56 57  0  0  0  0  0  0  0  0999 V2000
    1.3498   -0.4433   -2.0013 N   0  0  0  0  0  0  0  0  0  0  0  0
    0.9163   -0.3014   -2.9264 H   0  0  0  0  0  0  0  0  0  0  0  0
    2.0877    0.2769   -1.9371 H   0  0  0  0  0  0  0  0  0  0  0  0
   -0.7304   -1.7886   -0.5434 N   0  0  0  0  0  2  0  0  0  0  0  0
   -1.2364    0.3095    0.9116 N   0  0  0  0  0  2  0  0  0  0  0  0
    1.2369   -0.3447    0.8979 N   0  0  0  0  0  2  0  0  0  0  0  0
    0.7301    1.8097   -0.4716 N   0  0  0  0  0  2  0  0  0  0  0  0
   -1.3493    0.5236   -1.9824 N   0  0  0  0  0  0  0  0  0  0  0  0
   -0.9152    0.4187   -2.9121 H   0  0  0  0  0  0  0  0  0  0  0  0
   -2.0873   -0.1984   -1.9476 H   0  0  0  0  0  0  0  0  0  0  0  0
   -1.3853    0.2770    3.2357 O   0  0  0  0  0  0  0  0  0  0  0  0
    1.3835   -0.4192    3.2213 O   0  0  0  0  0  0  0  0  0  0  0  0
    2.0117   -1.7724   -2.0117 C   0  0  0  0  0  0  0  0  0  0  0  0
    2.6834   -1.8117   -1.1317 H   0  0  0  0  0  0  0  0  0  0  0  0
    2.6507   -1.8667   -2.9155 H   0  0  0  0  0  0  0  0  0  0  0  0
    1.0039   -2.9093   -1.9517 C   0  0  0  0  0  0  0  0  0  0  0  0
    1.5583   -3.8671   -2.0196 H   0  0  0  0  0  0  0  0  0  0  0  0
    0.3252   -2.8842   -2.8335 H   0  0  0  0  0  0  0  0  0  0  0  0
    0.1809   -2.9242   -0.6640 C   0  0  0  0  0  0  0  0  0  0  0  0
   -0.3960   -3.8699   -0.5923 H   0  0  0  0  0  0  0  0  0  0  0  0
    0.8621   -2.8816    0.2140 H   0  0  0  0  0  0  0  0  0  0  0  0
   -2.0107   -2.0304   -0.4251 C   0  0  0  0  0  3  0  0  0  0  0  0
   -2.3565   -3.0751   -0.5598 H   0  0  0  0  0  0  0  0  0  0  0  0
   -3.0099   -1.0540   -0.0458 C   0  0  0  0  0  0  0  0  0  0  0  0
   -4.3906   -1.3232   -0.2284 C   0  0  0  0  0  0  0  0  0  0  0  0
   -4.6943   -2.2099   -0.8066 H   0  0  0  0  0  0  0  0  0  0  0  0
   -5.3540   -0.4867    0.3344 C   0  0  0  0  0  0  0  0  0  0  0  0
   -6.4231   -0.6919    0.1818 H   0  0  0  0  0  0  0  0  0  0  0  0
   -4.9464    0.6017    1.1334 C   0  0  0  0  0  0  0  0  0  0  0  0
   -5.7048    1.2407    1.6106 H   0  0  0  0  0  0  0  0  0  0  0  0
   -3.5900    0.8822    1.3374 C   0  0  0  0  0  0  0  0  0  0  0  0
   -3.2751    1.7138    1.9808 H   0  0  0  0  0  0  0  0  0  0  0  0
   -2.5982    0.0910    0.7167 C   0  0  0  0  0  0  0  0  0  0  0  0
   -0.7411    0.1540    2.2065 C   0  0  0  0  0  0  0  0  0  0  0  0
    0.7404   -0.2492    2.1981 C   0  0  0  0  0  0  0  0  0  0  0  0
    2.5985   -0.1178    0.7129 C   0  0  0  0  0  0  0  0  0  0  0  0
    3.5907   -0.9322    1.3024 C   0  0  0  0  0  0  0  0  0  0  0  0
    3.2763   -1.7884    1.9129 H   0  0  0  0  0  0  0  0  0  0  0  0
    4.9470   -0.6432    1.1096 C   0  0  0  0  0  0  0  0  0  0  0  0
    5.7056   -1.3001    1.5615 H   0  0  0  0  0  0  0  0  0  0  0  0
    5.3542    0.4756    0.3536 C   0  0  0  0  0  0  0  0  0  0  0  0
    6.4232    0.6870    0.2092 H   0  0  0  0  0  0  0  0  0  0  0  0
    4.3905    1.3331   -0.1761 C   0  0  0  0  0  0  0  0  0  0  0  0
    4.6939    2.2418   -0.7192 H   0  0  0  0  0  0  0  0  0  0  0  0
    3.0099    1.0564   -0.0042 C   0  0  0  0  0  0  0  0  0  0  0  0
    2.0104    2.0469   -0.3444 C   0  0  0  0  0  3  0  0  0  0  0  0
    2.3560    3.0961   -0.4377 H   0  0  0  0  0  0  0  0  0  0  0  0
   -0.1816    2.9488   -0.5468 C   0  0  0  0  0  0  0  0  0  0  0  0
    0.3948    3.8911   -0.4361 H   0  0  0  0  0  0  0  0  0  0  0  0
   -0.8636    2.8698    0.3280 H   0  0  0  0  0  0  0  0  0  0  0  0
   -1.0035    2.9857   -1.8348 C   0  0  0  0  0  0  0  0  0  0  0  0
   -1.5578    3.9456   -1.8648 H   0  0  0  0  0  0  0  0  0  0  0  0
   -0.3241    2.9957   -2.7163 H   0  0  0  0  0  0  0  0  0  0  0  0
   -2.0113    1.8522   -1.9407 C   0  0  0  0  0  0  0  0  0  0  0  0
   -2.6838    1.8567   -1.0604 H   0  0  0  0  0  0  0  0  0  0  0  0
   -2.6495    1.9822   -2.8406 H   0  0  0  0  0  0  0  0  0  0  0  0
  1  3  1  0  0  0  0
  2  1  1  0  0  0  0
  4 22  1  0  0  0  0
  5 34  1  0  0  0  0
  6 35  1  0  0  0  0
  7 46  1  0  0  0  0
  8 10  1  0  0  0  0
  8 54  1  0  0  0  0
  9  8  1  0  0  0  0
 13  1  1  0  0  0  0
 13 16  1  0  0  0  0
 13 14  1  0  0  0  0
 15 13  1  0  0  0  0
 16 19  1  0  0  0  0
 17 16  1  0  0  0  0
 18 16  1  0  0  0  0
 19 20  1  0  0  0  0
 19  4  1  0  0  0  0
 19 21  1  0  0  0  0
 22 24  1  0  0  0  0
 23 22  1  0  0  0  0
 24 33  1  0  0  0  0
 25 24  2  0  0  0  0
 25 27  1  0  0  0  0
 26 25  1  0  0  0  0
 27 29  2  0  0  0  0
 28 27  1  0  0  0  0
 29 31  1  0  0  0  0
 29 30  1  0  0  0  0
 31 32  1  0  0  0  0
 33  5  1  0  0  0  0
 33 31  2  0  0  0  0
 34 11  2  0  0  0  0
 35 34  1  0  0  0  0
 35 12  2  0  0  0  0
 36  6  1  0  0  0  0
 36 37  1  0  0  0  0
 37 38  1  0  0  0  0
 39 37  2  0  0  0  0
 39 40  1  0  0  0  0
 41 39  1  0  0  0  0
 42 41  1  0  0  0  0
 43 45  1  0  0  0  0
 43 41  2  0  0  0  0
 44 43  1  0  0  0  0
 45 36  2  0  0  0  0
 46 45  1  0  0  0  0
 47 46  1  0  0  0  0
 48  7  1  0  0  0  0
 48 49  1  0  0  0  0
 48 50  1  0  0  0  0
 51 48  1  0  0  0  0
 52 51  1  0  0  0  0
 53 51  1  0  0  0  0
 54 51  1  0  0  0  0
 54 55  1  0  0  0  0
 56 54  1  0  0  0  0
M  END
