49,52,56,59,62,76
 OpenBabel05122313063D

 76 82  0  0  0  0  0  0  0  0999 V2000
    1.4903    3.5209    1.8494 C   0  0  0  0  0  0  0  0  0  0  0  0
    1.8410    4.1801    1.0229 H   0  0  0  0  0  0  0  0  0  0  0  0
    2.4143    3.1031    2.3014 H   0  0  0  0  0  0  0  0  0  0  0  0
   -1.5589    3.3363    2.1149 C   0  0  0  0  0  0  0  0  0  0  0  0
   -1.9187    2.9378    3.0905 H   0  0  0  0  0  0  0  0  0  0  0  0
   -2.4784    3.5111    1.5178 H   0  0  0  0  0  0  0  0  0  0  0  0
   -1.5268    0.1402   -3.9534 C   0  0  0  0  0  0  0  0  0  0  0  0
   -1.8956    1.1803   -4.1030 H   0  0  0  0  0  0  0  0  0  0  0  0
   -2.4414   -0.4727   -3.8109 H   0  0  0  0  0  0  0  0  0  0  0  0
   -0.6990   -0.3183   -5.1649 C   0  0  0  0  0  0  0  0  0  0  0  0
   -0.5963   -1.4257   -5.1466 H   0  0  0  0  0  0  0  0  0  0  0  0
   -1.2409   -0.0694   -6.0991 H   0  0  0  0  0  0  0  0  0  0  0  0
    1.5268   -0.1419   -3.9534 C   0  0  0  0  0  0  0  0  0  0  0  0
    1.8954   -1.1821   -4.1026 H   0  0  0  0  0  0  0  0  0  0  0  0
    2.4415    0.4710   -3.8111 H   0  0  0  0  0  0  0  0  0  0  0  0
    1.5588   -3.3355    2.1161 C   0  0  0  0  0  0  0  0  0  0  0  0
    1.9187   -2.9367    3.0915 H   0  0  0  0  0  0  0  0  0  0  0  0
    2.4784   -3.5105    1.5191 H   0  0  0  0  0  0  0  0  0  0  0  0
    0.6990    0.3163   -5.1650 C   0  0  0  0  0  0  0  0  0  0  0  0
    0.5964    1.4237   -5.1469 H   0  0  0  0  0  0  0  0  0  0  0  0
    1.2410    0.0671   -6.0991 H   0  0  0  0  0  0  0  0  0  0  0  0
    0.6586    4.3248    2.8619 C   0  0  0  0  0  0  0  0  0  0  0  0
    0.5712    3.7492    3.8097 H   0  0  0  0  0  0  0  0  0  0  0  0
    1.1893    5.2646    3.1140 H   0  0  0  0  0  0  0  0  0  0  0  0
   -0.7474    4.6250    2.3236 C   0  0  0  0  0  0  0  0  0  0  0  0
   -0.6593    5.1687    1.3572 H   0  0  0  0  0  0  0  0  0  0  0  0
   -1.2940    5.2989    3.0132 H   0  0  0  0  0  0  0  0  0  0  0  0
   -0.6586   -4.3237    2.8635 C   0  0  0  0  0  0  0  0  0  0  0  0
   -0.5712   -3.7477    3.8110 H   0  0  0  0  0  0  0  0  0  0  0  0
   -1.1894   -5.2635    3.1159 H   0  0  0  0  0  0  0  0  0  0  0  0
   -1.4904   -3.5202    1.8507 C   0  0  0  0  0  0  0  0  0  0  0  0
   -1.8411   -4.1797    1.0244 H   0  0  0  0  0  0  0  0  0  0  0  0
   -2.4143   -3.1022    2.3025 H   0  0  0  0  0  0  0  0  0  0  0  0
    0.7474   -4.6242    2.3253 C   0  0  0  0  0  0  0  0  0  0  0  0
    0.6592   -5.1682    1.3591 H   0  0  0  0  0  0  0  0  0  0  0  0
    1.2939   -5.2978    3.0151 H   0  0  0  0  0  0  0  0  0  0  0  0
   -4.6422   -0.0424    0.0065 C   0  0  0  0  0  0  0  0  0  0  0  0
   -6.7201    1.2454   -0.0026 N   0  0  0  0  0  0  0  0  0  0  0  0
   -5.3795    1.1623    0.0170 C   0  0  0  0  0  0  0  0  0  0  0  0
   -4.8387    2.1264    0.0475 H   0  0  0  0  0  0  0  0  0  0  0  0
   -7.4055    0.0910   -0.0344 C   0  0  0  0  0  0  0  0  0  0  0  0
   -8.5081    0.1743   -0.0506 H   0  0  0  0  0  0  0  0  0  0  0  0
   -6.7932   -1.1729   -0.0456 C   0  0  0  0  0  0  0  0  0  0  0  0
   -7.4058   -2.0875   -0.0690 H   0  0  0  0  0  0  0  0  0  0  0  0
   -5.3928   -1.2340   -0.0247 C   0  0  0  0  0  0  0  0  0  0  0  0
   -4.8741   -2.2060   -0.0286 H   0  0  0  0  0  0  0  0  0  0  0  0
   -3.0497   -0.0323    0.0089 B   0  0  2  0  0  0  0  0  0  0  0  0
   -2.5462    0.9820    0.9938 O   0  0  0  0  0  0  0  0  0  0  0  0
   -1.2099    1.1488    0.9496 N   0  0  0  0  0  2  0  0  0  0  0  0
   -0.7294    2.2837    1.4444 C   0  0  0  0  0  0  0  0  0  0  0  0
    0.6835    2.4027    1.2625 C   0  0  0  0  0  0  0  0  0  0  0  0
    1.1857    1.4134    0.5321 N   0  0  0  0  0  2  0  0  0  0  0  0
    2.5242    1.3862    0.3808 O   0  0  0  0  0  0  0  0  0  0  0  0
    3.0498    0.0323    0.0089 B   0  0  2  0  0  0  0  0  0  0  0  0
   -2.5407    0.3299   -1.3604 O   0  0  0  0  0  0  0  0  0  0  0  0
   -1.2012    0.2305   -1.4734 N   0  0  0  0  0  2  0  0  0  0  0  0
   -0.7081    0.0982   -2.6991 C   0  0  0  0  0  0  0  0  0  0  0  0
    0.7082   -0.0994   -2.6990 C   0  0  0  0  0  0  0  0  0  0  0  0
    1.2012   -0.2310   -1.4733 N   0  0  0  0  0  2  0  0  0  0  0  0
    2.5407   -0.3304   -1.3602 O   0  0  0  0  0  0  0  0  0  0  0  0
   -2.5242   -1.3861    0.3812 O   0  0  0  0  0  0  0  0  0  0  0  0
   -1.1857   -1.4132    0.5326 N   0  0  0  0  0  2  0  0  0  0  0  0
   -0.6835   -2.4022    1.2633 C   0  0  0  0  0  0  0  0  0  0  0  0
    0.7294   -2.2832    1.4452 C   0  0  0  0  0  0  0  0  0  0  0  0
    2.5462   -0.9816    0.9942 O   0  0  0  0  0  0  0  0  0  0  0  0
    4.6423    0.0424    0.0066 C   0  0  0  0  0  0  0  0  0  0  0  0
    5.3795   -1.1622    0.0175 C   0  0  0  0  0  0  0  0  0  0  0  0
    4.8389   -2.1264    0.0484 H   0  0  0  0  0  0  0  0  0  0  0  0
    6.7201   -1.2453   -0.0021 N   0  0  0  0  0  0  0  0  0  0  0  0
    7.4056   -0.0908   -0.0344 C   0  0  0  0  0  0  0  0  0  0  0  0
    8.5082   -0.1741   -0.0507 H   0  0  0  0  0  0  0  0  0  0  0  0
    6.7931    1.1730   -0.0460 C   0  0  0  0  0  0  0  0  0  0  0  0
    7.4057    2.0876   -0.0698 H   0  0  0  0  0  0  0  0  0  0  0  0
    5.3927    1.2340   -0.0251 C   0  0  0  0  0  0  0  0  0  0  0  0
    4.8740    2.2060   -0.0294 H   0  0  0  0  0  0  0  0  0  0  0  0
    1.2099   -1.1485    0.9500 N   0  0  0  0  0  2  0  0  0  0  0  0
  1  3  1  0  0  0  0
  1 22  1  0  0  0  0
  2  1  1  0  0  0  0
  4 25  1  0  0  0  0
  4  5  1  0  0  0  0
  6  4  1  0  0  0  0
  7  9  1  0  0  0  0
  7 57  1  0  0  0  0
  8  7  1  0  0  0  0
 10 11  1  0  0  0  0
 10  7  1  0  0  0  0
 12 10  1  0  0  0  0
 13 15  1  0  0  0  0
 13 58  1  0  0  0  0
 14 13  1  0  0  0  0
 16 34  1  0  0  0  0
 16 17  1  0  0  0  0
 18 16  1  0  0  0  0
 19 10  1  0  0  0  0
 19 20  1  0  0  0  0
 19 13  1  0  0  0  0
 21 19  1  0  0  0  0
 22 24  1  0  0  0  0
 22 23  1  0  0  0  0
 25 22  1  0  0  0  0
 25 27  1  0  0  0  0
 26 25  1  0  0  0  0
 28 30  1  0  0  0  0
 28 29  1  0  0  0  0
 31 33  1  0  0  0  0
 31 28  1  0  0  0  0
 32 31  1  0  0  0  0
 34 28  1  0  0  0  0
 34 36  1  0  0  0  0
 35 34  1  0  0  0  0
 37 39  1  0  0  0  0
 38 39  2  0  0  0  0
 39 40  1  0  0  0  0
 41 38  1  0  0  0  0
 42 41  1  0  0  0  0
 43 41  2  0  0  0  0
 43 45  1  0  0  0  0
 44 43  1  0  0  0  0
 45 37  2  0  0  0  0
 46 45  1  0  0  0  0
 47 37  1  1  0  0  0
 47 61  1  0  0  0  0
 47 48  1  0  0  0  0
 49 48  1  0  0  0  0
 49 50  1  0  0  0  0
 50  4  1  0  0  0  0
 51 50  2  0  0  0  0
 51  1  1  0  0  0  0
 52 51  1  0  0  0  0
 53 52  1  0  0  0  0
 54 66  1  1  0  0  0
 54 53  1  0  0  0  0
 54 65  1  0  0  0  0
 55 47  1  0  0  0  0
 56 55  1  0  0  0  0
 57 58  2  0  0  0  0
 57 56  1  0  0  0  0
 58 59  1  0  0  0  0
 59 60  1  0  0  0  0
 60 54  1  0  0  0  0
 61 62  1  0  0  0  0
 62 63  1  0  0  0  0
 63 64  2  0  0  0  0
 63 31  1  0  0  0  0
 64 16  1  0  0  0  0
 66 67  1  0  0  0  0
 67 68  1  0  0  0  0
 69 67  2  0  0  0  0
 70 69  1  0  0  0  0
 71 70  1  0  0  0  0
 72 70  2  0  0  0  0
 72 74  1  0  0  0  0
 73 72  1  0  0  0  0
 74 66  2  0  0  0  0
 75 74  1  0  0  0  0
 76 65  1  0  0  0  0
 76 64  1  0  0  0  0
M  END
