1,2,3,4,5,6
 OpenBabel05122313063D

 50 54  0  0  0  0  0  0  0  0999 V2000
    2.6688    0.9725    0.1490 N   0  0  0  0  0  2  0  0  0  0  0  0
    1.9909   -1.6242    0.3281 N   0  0  0  0  0  2  0  0  0  0  0  0
   -0.4657   -2.3326   -0.6865 N   0  0  0  0  0  2  0  0  0  0  0  0
   -2.5422   -0.5441   -0.5847 N   0  0  0  0  0  2  0  0  0  0  0  0
   -1.9323    2.0549   -0.6497 N   0  0  0  0  0  2  0  0  0  0  0  0
    0.7518    2.6842   -0.8619 N   0  0  0  0  0  2  0  0  0  0  0  0
    3.5772    0.1302    0.7930 C   0  0  0  0  0  0  0  0  0  0  0  0
    4.7845    0.5707    1.3770 C   0  0  0  0  0  0  0  0  0  0  0  0
    5.6264   -0.3319    2.0340 C   0  0  0  0  0  0  0  0  0  0  0  0
    5.2724   -1.6911    2.1176 C   0  0  0  0  0  0  0  0  0  0  0  0
    4.0765   -2.1443    1.5496 C   0  0  0  0  0  0  0  0  0  0  0  0
    3.2147   -1.2466    0.8856 C   0  0  0  0  0  0  0  0  0  0  0  0
    1.8729   -2.7482   -0.3099 C   0  0  0  0  0  0  0  0  0  0  0  0
    0.5719   -3.1868   -0.8248 C   0  0  0  0  0  0  0  0  0  0  0  0
    0.4352   -4.4539   -1.4297 C   0  0  0  0  0  0  0  0  0  0  0  0
   -0.8267   -4.8542   -1.8830 C   0  0  0  0  0  0  0  0  0  0  0  0
   -1.9036   -3.9760   -1.7295 C   0  0  0  0  0  0  0  0  0  0  0  0
   -1.6820   -2.7143   -1.1348 C   0  0  0  0  0  0  0  0  0  0  0  0
   -2.7827   -1.7591   -0.9822 C   0  0  0  0  0  3  0  0  0  0  0  0
   -3.5761    0.3438   -0.2941 C   0  0  0  0  0  0  0  0  0  0  0  0
   -4.8709   -0.0535    0.1082 C   0  0  0  0  0  0  0  0  0  0  0  0
   -5.8375    0.9099    0.4161 C   0  0  0  0  0  0  0  0  0  0  0  0
   -5.5308    2.2821    0.3375 C   0  0  0  0  0  0  0  0  0  0  0  0
   -4.2477    2.6935   -0.0370 C   0  0  0  0  0  0  0  0  0  0  0  0
   -3.2577    1.7370   -0.3515 C   0  0  0  0  0  0  0  0  0  0  0  0
   -1.5853    3.1674   -1.2052 C   0  0  0  0  0  0  0  0  0  0  0  0
   -0.1715    3.5103   -1.3937 C   0  0  0  0  0  0  0  0  0  0  0  0
    0.1821    4.6747   -2.1147 C   0  0  0  0  0  0  0  0  0  0  0  0
    1.5365    4.9740   -2.2961 C   0  0  0  0  0  0  0  0  0  0  0  0
    2.4929    4.1093   -1.7526 C   0  0  0  0  0  0  0  0  0  0  0  0
    2.0580    2.9689   -1.0387 C   0  0  0  0  0  0  0  0  0  0  0  0
    3.0421    2.0497   -0.4573 C   0  0  0  0  0  3  0  0  0  0  0  0
    5.0358    1.6411    1.3537 H   0  0  0  0  0  0  0  0  0  0  0  0
    6.5516    0.0280    2.5078 H   0  0  0  0  0  0  0  0  0  0  0  0
    5.9232   -2.3979    2.6537 H   0  0  0  0  0  0  0  0  0  0  0  0
    3.7745   -3.1964    1.6547 H   0  0  0  0  0  0  0  0  0  0  0  0
    2.7368   -3.4229   -0.4724 H   0  0  0  0  0  0  0  0  0  0  0  0
    1.3160   -5.1023   -1.5395 H   0  0  0  0  0  0  0  0  0  0  0  0
   -0.9681   -5.8391   -2.3514 H   0  0  0  0  0  0  0  0  0  0  0  0
   -2.9163   -4.2495   -2.0584 H   0  0  0  0  0  0  0  0  0  0  0  0
   -3.7949   -2.0953   -1.2812 H   0  0  0  0  0  0  0  0  0  0  0  0
   -5.0813   -1.1241    0.2470 H   0  0  0  0  0  0  0  0  0  0  0  0
   -6.8354    0.5895    0.7513 H   0  0  0  0  0  0  0  0  0  0  0  0
   -6.2882    3.0330    0.6070 H   0  0  0  0  0  0  0  0  0  0  0  0
   -3.9857    3.7615   -0.0309 H   0  0  0  0  0  0  0  0  0  0  0  0
   -2.3331    3.8999   -1.5794 H   0  0  0  0  0  0  0  0  0  0  0  0
   -0.6053    5.3242   -2.5244 H   0  0  0  0  0  0  0  0  0  0  0  0
    1.8433    5.8695   -2.8561 H   0  0  0  0  0  0  0  0  0  0  0  0
    3.5691    4.3016   -1.8720 H   0  0  0  0  0  0  0  0  0  0  0  0
    4.1132    2.3180   -0.5836 H   0  0  0  0  0  0  0  0  0  0  0  0
  1  7  1  0  0  0  0
  2 12  1  0  0  0  0
  4 20  1  0  0  0  0
  5 25  1  0  0  0  0
  7 12  2  0  0  0  0
  7  8  1  0  0  0  0
  8  9  2  0  0  0  0
  9 10  1  0  0  0  0
  9 34  1  0  0  0  0
 10 35  1  0  0  0  0
 11 36  1  0  0  0  0
 11 10  2  0  0  0  0
 12 11  1  0  0  0  0
 13  2  1  0  0  0  0
 14  3  1  0  0  0  0
 14 13  2  0  0  0  0
 15 14  1  0  0  0  0
 16 17  1  0  0  0  0
 16 15  2  0  0  0  0
 17 18  2  0  0  0  0
 18 19  1  0  0  0  0
 18  3  1  0  0  0  0
 19  4  1  0  0  0  0
 20 21  1  0  0  0  0
 21 42  1  0  0  0  0
 21 22  2  0  0  0  0
 22 43  1  0  0  0  0
 23 22  1  0  0  0  0
 23 44  1  0  0  0  0
 24 45  1  0  0  0  0
 24 23  2  0  0  0  0
 25 20  2  0  0  0  0
 25 24  1  0  0  0  0
 26  5  1  0  0  0  0
 27 26  2  0  0  0  0
 27  6  1  0  0  0  0
 28 27  1  0  0  0  0
 29 28  2  0  0  0  0
 29 30  1  0  0  0  0
 30 31  2  0  0  0  0
 31  6  1  0  0  0  0
 31 32  1  0  0  0  0
 32  1  1  0  0  0  0
 33  8  1  0  0  0  0
 37 13  1  0  0  0  0
 38 15  1  0  0  0  0
 39 16  1  0  0  0  0
 40 17  1  0  0  0  0
 41 19  1  0  0  0  0
 46 26  1  0  0  0  0
 47 28  1  0  0  0  0
 48 29  1  0  0  0  0
 49 30  1  0  0  0  0
 50 32  1  0  0  0  0
M  END
