1,2,3,4,5,6
 OpenBabel05122313063D

 76 81  0  0  1  0  0  0  0  0999 V2000
    1.0752    0.4268    1.1364 N   0  0  0  0  0  2  0  0  0  0  0  0
   -1.4779    0.8672    0.7143 N   0  0  0  0  0  2  0  0  0  0  0  0
    0.3406    2.3447   -0.4860 N   0  0  0  0  0  2  0  0  0  0  0  0
    1.4527   -0.6480   -1.0214 N   0  0  0  0  0  2  0  0  0  0  0  0
   -1.1149   -1.0912   -0.6983 N   0  0  0  0  0  2  0  0  0  0  0  0
   -0.3109    0.8109   -2.3045 N   0  0  0  0  0  2  0  0  0  0  0  0
    0.3366    4.3447   -1.8310 N   0  0  0  0  0  0  0  0  0  0  0  0
    0.8494    1.2525    2.1705 O   0  0  0  0  0  0  0  0  0  0  0  0
   -1.4382    1.8772    1.5981 O   0  0  0  0  0  0  0  0  0  0  0  0
    0.4389    3.1061    0.6298 O   0  0  0  0  0  0  0  0  0  0  0  0
    1.4135   -1.3530   -2.1654 O   0  0  0  0  0  0  0  0  0  0  0  0
   -0.8971   -1.9767   -1.6859 O   0  0  0  0  0  0  0  0  0  0  0  0
   -0.4194   -0.1421   -3.2344 O   0  0  0  0  0  0  0  0  0  0  0  0
   -0.0567    2.4013    1.8443 B   0  0  2  0  0  0  0  0  0  0  0  0
   -0.0833    3.2641    2.8886 F   0  0  0  0  0  0  0  0  0  0  0  0
    0.0397   -1.4855   -2.7399 B   0  0  1  0  0  0  0  0  0  0  0  0
    0.0620   -2.3570   -3.7735 F   0  0  0  0  0  0  0  0  0  0  0  0
   -2.4548   -0.0334    0.8498 C   0  0  2  0  0  3  0  0  0  0  0  0
   -3.5021    0.0356    1.8881 C   0  0  0  0  0  0  0  0  0  0  0  0
   -4.1539    1.2497    2.2036 C   0  0  0  0  0  0  0  0  0  0  0  0
   -3.8682    2.1702    1.6785 H   0  0  0  0  0  0  0  0  0  0  0  0
   -5.1583    1.2800    3.1792 C   0  0  0  0  0  0  0  0  0  0  0  0
   -5.6607    2.2314    3.4106 H   0  0  0  0  0  0  0  0  0  0  0  0
   -5.5204    0.1083    3.8631 C   0  0  0  0  0  0  0  0  0  0  0  0
   -6.3070    0.1378    4.6322 H   0  0  0  0  0  0  0  0  0  0  0  0
   -4.8705   -1.1000    3.5648 C   0  0  0  0  0  0  0  0  0  0  0  0
   -5.1417   -2.0217    4.1014 H   0  0  0  0  0  0  0  0  0  0  0  0
   -3.8730   -1.1390    2.5835 C   0  0  0  0  0  0  0  0  0  0  0  0
   -3.3671   -2.0878    2.3541 H   0  0  0  0  0  0  0  0  0  0  0  0
   -2.2973   -1.1349   -0.0796 C   0  0  1  0  0  3  0  0  0  0  0  0
   -3.3499   -2.1234   -0.3864 C   0  0  0  0  0  0  0  0  0  0  0  0
   -4.6968   -1.7024   -0.4829 C   0  0  0  0  0  0  0  0  0  0  0  0
   -4.9445   -0.6403   -0.3446 H   0  0  0  0  0  0  0  0  0  0  0  0
   -5.7120   -2.6251   -0.7613 C   0  0  0  0  0  0  0  0  0  0  0  0
   -6.7538   -2.2799   -0.8408 H   0  0  0  0  0  0  0  0  0  0  0  0
   -5.4021   -3.9829   -0.9395 C   0  0  0  0  0  0  0  0  0  0  0  0
   -6.2010   -4.7085   -1.1552 H   0  0  0  0  0  0  0  0  0  0  0  0
   -4.0677   -4.4102   -0.8467 C   0  0  0  0  0  0  0  0  0  0  0  0
   -3.8172   -5.4722   -0.9894 H   0  0  0  0  0  0  0  0  0  0  0  0
   -3.0461   -3.4905   -0.5788 C   0  0  0  0  0  0  0  0  0  0  0  0
   -2.0034   -3.8282   -0.5165 H   0  0  0  0  0  0  0  0  0  0  0  0
    2.4107   -0.9507   -0.1408 C   0  0  2  0  0  3  0  0  0  0  0  0
    3.4402   -1.9845   -0.3652 C   0  0  0  0  0  0  0  0  0  0  0  0
    3.7782   -2.8714    0.6837 C   0  0  0  0  0  0  0  0  0  0  0  0
    3.2595   -2.7917    1.6498 H   0  0  0  0  0  0  0  0  0  0  0  0
    4.7594   -3.8523    0.4977 C   0  0  0  0  0  0  0  0  0  0  0  0
    5.0050   -4.5388    1.3219 H   0  0  0  0  0  0  0  0  0  0  0  0
    5.4250   -3.9603   -0.7339 C   0  0  0  0  0  0  0  0  0  0  0  0
    6.1986   -4.7297   -0.8786 H   0  0  0  0  0  0  0  0  0  0  0  0
    5.0952   -3.0857   -1.7817 C   0  0  0  0  0  0  0  0  0  0  0  0
    5.6098   -3.1672   -2.7510 H   0  0  0  0  0  0  0  0  0  0  0  0
    4.1076   -2.1084   -1.6052 C   0  0  0  0  0  0  0  0  0  0  0  0
    3.8476   -1.4331   -2.4306 H   0  0  0  0  0  0  0  0  0  0  0  0
    2.2466   -0.2141    1.0969 C   0  0  1  0  0  3  0  0  0  0  0  0
    3.2838   -0.0949    2.1406 C   0  0  0  0  0  0  0  0  0  0  0  0
    4.6406    0.0403    1.7644 C   0  0  0  0  0  0  0  0  0  0  0  0
    4.9075    0.0712    0.6983 H   0  0  0  0  0  0  0  0  0  0  0  0
    5.6418    0.1429    2.7374 C   0  0  0  0  0  0  0  0  0  0  0  0
    6.6918    0.2545    2.4275 H   0  0  0  0  0  0  0  0  0  0  0  0
    5.3077    0.1048    4.1006 C   0  0  0  0  0  0  0  0  0  0  0  0
    6.0956    0.1821    4.8652 H   0  0  0  0  0  0  0  0  0  0  0  0
    3.9633   -0.0273    4.4839 C   0  0  0  0  0  0  0  0  0  0  0  0
    3.6938   -0.0540    5.5505 H   0  0  0  0  0  0  0  0  0  0  0  0
    2.9559   -0.1207    3.5155 C   0  0  0  0  0  0  0  0  0  0  0  0
    1.9057   -0.2149    3.8206 H   0  0  0  0  0  0  0  0  0  0  0  0
   -0.1066    2.0524   -2.7093 C   0  0  0  0  0  0  0  0  0  0  0  0
   -0.0041    2.4632   -4.3762 Cl  0  0  0  0  0  0  0  0  0  0  0  0
    0.1932    2.9909   -1.6439 C   0  0  0  0  0  0  0  0  0  0  0  0
   -0.6895    5.1146   -2.5162 C   0  0  0  0  0  0  0  0  0  0  0  0
   -1.3405    4.4519   -3.1135 H   0  0  0  0  0  0  0  0  0  0  0  0
   -0.2255    5.8530   -3.2040 H   0  0  0  0  0  0  0  0  0  0  0  0
   -1.3281    5.6695   -1.7899 H   0  0  0  0  0  0  0  0  0  0  0  0
    1.2914    5.1124   -1.0471 C   0  0  0  0  0  0  0  0  0  0  0  0
    2.1062    4.4581   -0.6915 H   0  0  0  0  0  0  0  0  0  0  0  0
    0.8312    5.5968   -0.1585 H   0  0  0  0  0  0  0  0  0  0  0  0
    1.7281    5.8995   -1.6989 H   0  0  0  0  0  0  0  0  0  0  0  0
  1  8  1  0  0  0  0
  2 18  1  0  0  0  0
  2  9  1  0  0  0  0
  3 10  1  0  0  0  0
  4 42  1  0  0  0  0
  5 30  1  0  0  0  0
  7 68  1  0  0  0  0
  7 73  1  0  0  0  0
  9 14  1  0  0  0  0
 10 14  1  0  0  0  0
 11  4  1  0  0  0  0
 12  5  1  0  0  0  0
 13 16  1  0  0  0  0
 13  6  1  0  0  0  0
 14  8  1  0  0  0  0
 14 15  1  1  0  0  0
 16 17  1  6  0  0  0
 16 11  1  0  0  0  0
 16 12  1  0  0  0  0
 18 19  1  1  0  0  0
 19 20  2  0  0  0  0
 19 28  1  0  0  0  0
 20 22  1  0  0  0  0
 21 20  1  0  0  0  0
 22 23  1  0  0  0  0
 22 24  2  0  0  0  0
 24 25  1  0  0  0  0
 26 24  1  0  0  0  0
 26 27  1  0  0  0  0
 28 26  2  0  0  0  0
 29 28  1  0  0  0  0
 30 31  1  6  0  0  0
 30 18  1  0  0  0  0
 32 31  1  0  0  0  0
 32 33  1  0  0  0  0
 34 32  2  0  0  0  0
 35 34  1  0  0  0  0
 36 38  2  0  0  0  0
 36 34  1  0  0  0  0
 37 36  1  0  0  0  0
 38 40  1  0  0  0  0
 39 38  1  0  0  0  0
 40 41  1  0  0  0  0
 40 31  2  0  0  0  0
 42 43  1  1  0  0  0
 42 54  1  0  0  0  0
 43 44  1  0  0  0  0
 44 45  1  0  0  0  0
 46 44  2  0  0  0  0
 46 47  1  0  0  0  0
 48 46  1  0  0  0  0
 49 48  1  0  0  0  0
 50 52  1  0  0  0  0
 50 48  2  0  0  0  0
 51 50  1  0  0  0  0
 52 43  2  0  0  0  0
 53 52  1  0  0  0  0
 54  1  1  0  0  0  0
 54 55  1  6  0  0  0
 55 64  1  0  0  0  0
 56 55  2  0  0  0  0
 56 58  1  0  0  0  0
 57 56  1  0  0  0  0
 58 60  2  0  0  0  0
 59 58  1  0  0  0  0
 60 62  1  0  0  0  0
 60 61  1  0  0  0  0
 62 63  1  0  0  0  0
 64 65  1  0  0  0  0
 64 62  2  0  0  0  0
 66  6  1  0  0  0  0
 66 68  2  0  0  0  0
 67 66  1  0  0  0  0
 68  3  1  0  0  0  0
 69  7  1  0  0  0  0
 69 72  1  0  0  0  0
 70 69  1  0  0  0  0
 71 69  1  0  0  0  0
 73 74  1  0  0  0  0
 73 75  1  0  0  0  0
 76 73  1  0  0  0  0
M  END
