1,2,5,7,9,11
 OpenBabel05122313063D

 70 75  0  0  1  0  0  0  0  0999 V2000
   -1.1037    1.2410    0.0903 N   0  0  0  0  0  2  0  0  0  0  0  0
    1.4614    1.0741    0.6013 N   0  0  0  0  0  2  0  0  0  0  0  0
   -0.8690    2.5458    0.3057 O   0  0  0  0  0  0  0  0  0  0  0  0
    1.4393    2.3351    1.0631 O   0  0  0  0  0  0  0  0  0  0  0  0
   -0.2903    0.7609    2.5183 N   0  0  0  0  0  2  0  0  0  0  0  0
   -0.3983    2.1091    2.6669 O   0  0  0  0  0  0  0  0  0  0  0  0
    0.3250   -1.5845    2.0637 N   0  0  0  0  0  2  0  0  0  0  0  0
    0.4132   -2.8626    1.6972 O   0  0  0  0  0  0  0  0  0  0  0  0
   -1.4830   -1.1675    0.2060 N   0  0  0  0  0  2  0  0  0  0  0  0
   -1.4502   -2.5111    0.1509 O   0  0  0  0  0  0  0  0  0  0  0  0
    1.0676   -1.1181   -0.3996 N   0  0  0  0  0  2  0  0  0  0  0  0
    0.8456   -2.4160   -0.6725 O   0  0  0  0  0  0  0  0  0  0  0  0
   -0.0300    0.6498    4.8697 N   0  0  0  0  0  0  0  0  0  0  0  0
   -0.0122    1.6718    4.8877 H   0  0  0  0  0  0  0  0  0  0  0  0
    0.4206    0.1377    5.6263 H   0  0  0  0  0  0  0  0  0  0  0  0
    0.0701    2.8207    1.4408 B   0  0  2  0  0  0  0  0  0  0  0  0
    0.1179    4.1538    1.6759 F   0  0  0  0  0  0  0  0  0  0  0  0
   -0.0790   -3.0862    0.2883 B   0  0  1  0  0  0  0  0  0  0  0  0
   -0.1147   -4.4144    0.0399 F   0  0  0  0  0  0  0  0  0  0  0  0
   -2.2874    0.8972   -0.4244 C   0  0  2  0  0  3  0  0  0  0  0  0
   -3.3313    1.8695   -0.8043 C   0  0  0  0  0  0  0  0  0  0  0  0
   -3.0161    3.0560   -1.5052 C   0  0  0  0  0  0  0  0  0  0  0  0
   -1.9709    3.2730   -1.7611 H   0  0  0  0  0  0  0  0  0  0  0  0
   -4.0297    3.9502   -1.8720 C   0  0  0  0  0  0  0  0  0  0  0  0
   -3.7704    4.8675   -2.4218 H   0  0  0  0  0  0  0  0  0  0  0  0
   -5.3672    3.6843   -1.5373 C   0  0  0  0  0  0  0  0  0  0  0  0
   -6.1599    4.3921   -1.8237 H   0  0  0  0  0  0  0  0  0  0  0  0
   -5.6883    2.5141   -0.8309 C   0  0  0  0  0  0  0  0  0  0  0  0
   -6.7326    2.3018   -0.5566 H   0  0  0  0  0  0  0  0  0  0  0  0
   -4.6811    1.6114   -0.4699 C   0  0  0  0  0  0  0  0  0  0  0  0
   -4.9375    0.6973    0.0844 H   0  0  0  0  0  0  0  0  0  0  0  0
   -2.4561   -0.5421   -0.4633 C   0  0  1  0  0  3  0  0  0  0  0  0
   -3.5074   -1.2381   -1.2309 C   0  0  0  0  0  0  0  0  0  0  0  0
   -3.8747   -0.7538   -2.5082 C   0  0  0  0  0  0  0  0  0  0  0  0
   -3.3630    0.1268   -2.9222 H   0  0  0  0  0  0  0  0  0  0  0  0
   -4.8765   -1.3911   -3.2497 C   0  0  0  0  0  0  0  0  0  0  0  0
   -5.1452   -1.0053   -4.2447 H   0  0  0  0  0  0  0  0  0  0  0  0
   -5.5334   -2.5167   -2.7274 C   0  0  0  0  0  0  0  0  0  0  0  0
   -6.3231   -3.0155   -3.3094 H   0  0  0  0  0  0  0  0  0  0  0  0
   -5.1746   -3.0060   -1.4611 C   0  0  0  0  0  0  0  0  0  0  0  0
   -5.6827   -3.8900   -1.0469 H   0  0  0  0  0  0  0  0  0  0  0  0
   -4.1667   -2.3786   -0.7181 C   0  0  0  0  0  0  0  0  0  0  0  0
   -3.8847   -2.7702    0.2678 H   0  0  0  0  0  0  0  0  0  0  0  0
    2.4105    0.7523   -0.2821 C   0  0  2  0  0  3  0  0  0  0  0  0
    3.4443    1.6906   -0.7625 C   0  0  0  0  0  0  0  0  0  0  0  0
    4.1241    2.5607    0.1201 C   0  0  0  0  0  0  0  0  0  0  0  0
    3.8715    2.5546    1.1882 H   0  0  0  0  0  0  0  0  0  0  0  0
    5.1143    3.4254   -0.3629 C   0  0  0  0  0  0  0  0  0  0  0  0
    5.6389    4.0936    0.3366 H   0  0  0  0  0  0  0  0  0  0  0  0
    5.4340    3.4468   -1.7300 C   0  0  0  0  0  0  0  0  0  0  0  0
    6.2096    4.1312   -2.1058 H   0  0  0  0  0  0  0  0  0  0  0  0
    4.7560    2.5945   -2.6162 C   0  0  0  0  0  0  0  0  0  0  0  0
    4.9938    2.6101   -3.6904 H   0  0  0  0  0  0  0  0  0  0  0  0
    3.7724    1.7207   -2.1381 C   0  0  0  0  0  0  0  0  0  0  0  0
    3.2442    1.0559   -2.8364 H   0  0  0  0  0  0  0  0  0  0  0  0
    2.2376   -0.5980   -0.7805 C   0  0  1  0  0  3  0  0  0  0  0  0
    3.2674   -1.3506   -1.5240 C   0  0  0  0  0  0  0  0  0  0  0  0
    4.6268   -1.2283   -1.1534 C   0  0  0  0  0  0  0  0  0  0  0  0
    4.9021   -0.5871   -0.3038 H   0  0  0  0  0  0  0  0  0  0  0  0
    5.6201   -1.9229   -1.8537 C   0  0  0  0  0  0  0  0  0  0  0  0
    6.6723   -1.8227   -1.5478 H   0  0  0  0  0  0  0  0  0  0  0  0
    5.2751   -2.7440   -2.9391 C   0  0  0  0  0  0  0  0  0  0  0  0
    6.0567   -3.2874   -3.4914 H   0  0  0  0  0  0  0  0  0  0  0  0
    3.9279   -2.8731   -3.3136 C   0  0  0  0  0  0  0  0  0  0  0  0
    3.6500   -3.5181   -4.1607 H   0  0  0  0  0  0  0  0  0  0  0  0
    2.9284   -2.1887   -2.6107 C   0  0  0  0  0  0  0  0  0  0  0  0
    1.8758   -2.3001   -2.9019 H   0  0  0  0  0  0  0  0  0  0  0  0
   -0.0304    0.0877    3.6312 C   0  0  0  0  0  0  0  0  0  0  0  0
    0.2423   -1.3014    3.3522 C   0  0  0  0  0  0  0  0  0  0  0  0
    0.3673   -2.4786    4.6003 Cl  0  0  0  0  0  0  0  0  0  0  0  0
  1  3  1  0  0  0  0
  2  4  1  0  0  0  0
  3 16  1  0  0  0  0
  4 16  1  0  0  0  0
  5  6  1  0  0  0  0
  5 68  1  0  0  0  0
  7 69  1  0  0  0  0
  8  7  1  0  0  0  0
 10  9  1  0  0  0  0
 10 18  1  0  0  0  0
 12 11  1  0  0  0  0
 12 18  1  0  0  0  0
 13 14  1  0  0  0  0
 13 15  1  0  0  0  0
 16 17  1  1  0  0  0
 16  6  1  0  0  0  0
 18 19  1  6  0  0  0
 18  8  1  0  0  0  0
 20 21  1  1  0  0  0
 20  1  1  0  0  0  0
 21 30  1  0  0  0  0
 22 21  2  0  0  0  0
 23 22  1  0  0  0  0
 24 26  2  0  0  0  0
 24 22  1  0  0  0  0
 25 24  1  0  0  0  0
 26 28  1  0  0  0  0
 27 26  1  0  0  0  0
 28 29  1  0  0  0  0
 28 30  2  0  0  0  0
 30 31  1  0  0  0  0
 32 33  1  6  0  0  0
 32 20  1  0  0  0  0
 32  9  1  0  0  0  0
 33 42  1  0  0  0  0
 34 33  2  0  0  0  0
 35 34  1  0  0  0  0
 36 38  2  0  0  0  0
 36 34  1  0  0  0  0
 37 36  1  0  0  0  0
 38 40  1  0  0  0  0
 39 38  1  0  0  0  0
 40 41  1  0  0  0  0
 40 42  2  0  0  0  0
 42 43  1  0  0  0  0
 44 45  1  6  0  0  0
 44  2  1  0  0  0  0
 45 46  1  0  0  0  0
 46 47  1  0  0  0  0
 48 46  2  0  0  0  0
 48 49  1  0  0  0  0
 50 48  1  0  0  0  0
 51 50  1  0  0  0  0
 52 54  1  0  0  0  0
 52 50  2  0  0  0  0
 53 52  1  0  0  0  0
 54 45  2  0  0  0  0
 55 54  1  0  0  0  0
 56 57  1  1  0  0  0
 56 11  1  0  0  0  0
 56 44  1  0  0  0  0
 57 58  1  0  0  0  0
 58 59  1  0  0  0  0
 60 61  1  0  0  0  0
 60 58  2  0  0  0  0
 62 60  1  0  0  0  0
 63 62  1  0  0  0  0
 64 62  2  0  0  0  0
 64 66  1  0  0  0  0
 65 64  1  0  0  0  0
 66 57  2  0  0  0  0
 67 66  1  0  0  0  0
 68 13  1  0  0  0  0
 69 68  2  0  0  0  0
 69 70  1  0  0  0  0
M  END
