10,19,30,43,53,60
 OpenBabel05122313063D

 66 69  0  0  1  0  0  0  0  0999 V2000
   -2.1339   -1.2030   -0.6720 C   0  0  0  0  0  0  0  0  0  0  0  0
   -2.9553   -2.1799   -1.3237 C   0  0  0  0  0  0  0  0  0  0  0  0
   -4.2860   -2.3602   -0.8518 C   0  0  0  0  0  3  0  0  0  0  0  0
   -4.9356   -3.0978   -1.3448 H   0  0  0  0  0  0  0  0  0  0  0  0
   -4.7405   -1.6132    0.2302 C   0  0  0  0  0  0  0  0  0  0  0  0
   -5.7675   -1.7626    0.5958 H   0  0  0  0  0  0  0  0  0  0  0  0
   -3.9219   -0.6638    0.8930 C   0  0  0  0  0  0  0  0  0  0  0  0
   -4.2870   -0.1023    1.7611 H   0  0  0  0  0  0  0  0  0  0  0  0
   -2.6109   -0.4457    0.4449 C   0  0  0  0  0  0  0  0  0  0  0  0
   -1.6434    0.4027    0.9686 N   0  0  0  0  0  2  0  0  0  0  0  0
   -1.6907    0.9708    2.2141 C   0  0  0  0  0  0  0  0  0  0  0  0
   -2.6503    0.9776    2.9845 O   0  0  0  0  0  0  0  0  0  0  0  0
   -0.3148    1.5497    2.6122 C   0  0  2  0  0  0  0  0  0  0  0  0
    0.2473    0.7056    3.0659 H   0  0  0  0  0  0  0  0  0  0  0  0
   -0.4360    2.6561    3.6534 C   0  0  0  0  0  0  0  0  0  0  0  0
    0.5435    2.9642    4.0652 H   0  0  0  0  0  0  0  0  0  0  0  0
   -1.0526    2.2552    4.4802 H   0  0  0  0  0  0  0  0  0  0  0  0
   -0.9680    3.5471    3.2687 H   0  0  0  0  0  0  0  0  0  0  0  0
    0.4397    1.8952    1.3565 N   0  0  0  0  0  0  0  0  0  0  0  0
    1.8865    2.0518    1.6207 C   0  0  0  0  0  0  0  0  0  0  0  0
    2.0663    2.8782    2.3383 H   0  0  0  0  0  0  0  0  0  0  0  0
    2.4224    2.2625    0.6789 H   0  0  0  0  0  0  0  0  0  0  0  0
    2.2883    1.1144    2.0442 H   0  0  0  0  0  0  0  0  0  0  0  0
   -0.1312    3.1320    0.7495 C   0  0  0  0  0  0  0  0  0  0  0  0
    0.2985    4.0367    1.2280 H   0  0  0  0  0  0  0  0  0  0  0  0
   -1.2201    3.1426    0.9498 H   0  0  0  0  0  0  0  0  0  0  0  0
    0.1316    3.1356   -0.7344 C   0  0  0  0  0  0  0  0  0  0  0  0
   -0.2979    4.0426   -1.2085 H   0  0  0  0  0  0  0  0  0  0  0  0
    1.2206    3.1470   -0.9346 H   0  0  0  0  0  0  0  0  0  0  0  0
   -0.4394    1.9018   -1.3474 N   0  0  0  0  0  0  0  0  0  0  0  0
   -1.8862    2.0600   -1.6110 C   0  0  0  0  0  0  0  0  0  0  0  0
   -2.4221    2.2662   -0.6682 H   0  0  0  0  0  0  0  0  0  0  0  0
   -2.2881    1.1247   -2.0390 H   0  0  0  0  0  0  0  0  0  0  0  0
   -2.0658    2.8899   -2.3246 H   0  0  0  0  0  0  0  0  0  0  0  0
    0.3151    1.5623   -2.6048 C   0  0  1  0  0  0  0  0  0  0  0  0
   -0.2471    0.7206   -3.0626 H   0  0  0  0  0  0  0  0  0  0  0  0
    0.4365    2.6737   -3.6405 C   0  0  0  0  0  0  0  0  0  0  0  0
   -0.5430    2.9840   -4.0508 H   0  0  0  0  0  0  0  0  0  0  0  0
    1.0531    2.2768   -4.4692 H   0  0  0  0  0  0  0  0  0  0  0  0
    0.9686    3.5628   -3.2515 H   0  0  0  0  0  0  0  0  0  0  0  0
    1.6909    0.9813   -2.2094 C   0  0  0  0  0  0  0  0  0  0  0  0
    2.6506    0.9918   -2.9797 O   0  0  0  0  0  0  0  0  0  0  0  0
    1.6434    0.4072   -0.9667 N   0  0  0  0  0  2  0  0  0  0  0  0
    2.6108   -0.4438   -0.4470 C   0  0  0  0  0  0  0  0  0  0  0  0
    3.9219   -0.6599   -0.8961 C   0  0  0  0  0  0  0  0  0  0  0  0
    4.2870   -0.0943   -1.7615 H   0  0  0  0  0  0  0  0  0  0  0  0
    4.7403   -1.6126   -0.2379 C   0  0  0  0  0  0  0  0  0  0  0  0
    5.7673   -1.7604   -0.6042 H   0  0  0  0  0  0  0  0  0  0  0  0
    4.2857   -2.3648    0.8406 C   0  0  0  0  0  0  0  0  0  0  0  0
    4.9352   -3.1047    1.3300 H   0  0  0  0  0  0  0  0  0  0  0  0
    2.9549   -2.1866    1.3132 C   0  0  0  0  0  0  0  0  0  0  0  0
    2.1337   -1.2065    0.6662 C   0  0  2  0  0  3  0  0  0  0  0  0
   -0.8346   -0.9654   -1.0658 N   0  0  0  0  0  2  0  0  0  0  0  0
   -0.2937   -1.6986   -2.0453 C   0  0  0  0  0  0  0  0  0  0  0  0
    0.7593   -1.5032   -2.2937 H   0  0  0  0  0  0  0  0  0  0  0  0
   -1.0384   -2.6833   -2.7357 C   0  0  0  0  0  0  0  0  0  0  0  0
   -0.5496   -3.2503   -3.5400 H   0  0  0  0  0  0  0  0  0  0  0  0
   -2.3630   -2.9150   -2.3888 C   0  0  0  0  0  0  0  0  0  0  0  0
   -2.9587   -3.6737   -2.9190 H   0  0  0  0  0  0  0  0  0  0  0  0
    0.8343   -0.9706    1.0610 N   0  0  0  0  0  2  0  0  0  0  0  0
    0.2934   -1.7085    2.0370 C   0  0  0  0  0  0  0  0  0  0  0  0
   -0.7596   -1.5142    2.2864 H   0  0  0  0  0  0  0  0  0  0  0  0
    1.0380   -2.6966    2.7227 C   0  0  0  0  0  0  0  0  0  0  0  0
    0.5491   -3.2674    3.5242 H   0  0  0  0  0  0  0  0  0  0  0  0
    2.3625   -2.9268    2.3748 C   0  0  0  0  0  0  0  0  0  0  0  0
    2.9582   -3.6880    2.9014 H   0  0  0  0  0  0  0  0  0  0  0  0
  1  9  2  0  0  0  0
  2  3  1  0  0  0  0
  2  1  1  0  0  0  0
  3  5  1  0  0  0  0
  4  3  1  0  0  0  0
  5  6  1  0  0  0  0
  5  7  2  0  0  0  0
  7  8  1  0  0  0  0
  9  7  1  0  0  0  0
  9 10  1  0  0  0  0
 10 11  1  0  0  0  0
 11 13  1  0  0  0  0
 11 12  2  0  0  0  0
 13 14  1  1  0  0  0
 13 15  1  0  0  0  0
 15 16  1  0  0  0  0
 15 17  1  0  0  0  0
 18 15  1  0  0  0  0
 19 20  1  0  0  0  0
 19 13  1  0  0  0  0
 20 23  1  0  0  0  0
 20 21  1  0  0  0  0
 22 20  1  0  0  0  0
 24 26  1  0  0  0  0
 24 25  1  0  0  0  0
 24 19  1  0  0  0  0
 27 24  1  0  0  0  0
 28 27  1  0  0  0  0
 29 27  1  0  0  0  0
 30 27  1  0  0  0  0
 31 30  1  0  0  0  0
 31 32  1  0  0  0  0
 33 31  1  0  0  0  0
 34 31  1  0  0  0  0
 35 36  1  6  0  0  0
 35 41  1  0  0  0  0
 35 30  1  0  0  0  0
 37 40  1  0  0  0  0
 37 35  1  0  0  0  0
 38 37  1  0  0  0  0
 39 37  1  0  0  0  0
 41 43  1  0  0  0  0
 42 41  2  0  0  0  0
 43 44  1  0  0  0  0
 45 44  2  0  0  0  0
 45 47  1  0  0  0  0
 46 45  1  0  0  0  0
 47 49  2  0  0  0  0
 48 47  1  0  0  0  0
 49 51  1  0  0  0  0
 49 50  1  0  0  0  0
 51 65  2  0  0  0  0
 52 44  1  6  0  0  0
 52 60  1  0  0  0  0
 52 51  1  0  0  0  0
 53  1  1  0  0  0  0
 54 53  1  0  0  0  0
 55 54  1  0  0  0  0
 56 58  1  0  0  0  0
 56 54  2  0  0  0  0
 57 56  1  0  0  0  0
 58  2  2  0  0  0  0
 59 58  1  0  0  0  0
 60 61  1  0  0  0  0
 61 62  1  0  0  0  0
 61 63  2  0  0  0  0
 63 64  1  0  0  0  0
 65 63  1  0  0  0  0
 65 66  1  0  0  0  0
M  END
