7,8,9,46,47,76
 OpenBabel05122313063D

 82 89  0  0  0  0  0  0  0  0999 V2000
   -1.3124    1.2478    2.3718 O   0  0  0  0  0  0  0  0  0  0  0  0
    2.8306    0.4590   -0.6064 O   0  0  0  0  0  0  0  0  0  0  0  0
    1.0064    2.2522    3.3580 O   0  0  0  0  0  0  0  0  0  0  0  0
    3.3035    1.9037    1.6401 O   0  0  0  0  0  0  0  0  0  0  0  0
   -1.6217   -1.1635    2.0059 O   0  0  0  0  0  0  0  0  0  0  0  0
   -0.9520   -3.6272    1.0873 O   0  0  0  0  0  0  0  0  0  0  0  0
   -0.1939    1.1968    1.6270 N   0  0  0  0  0  2  0  0  0  0  0  0
    1.8499    0.6260    0.2965 N   0  0  0  0  0  2  0  0  0  0  0  0
   -0.6982   -1.2851    1.0379 N   0  0  0  0  0  2  0  0  0  0  0  0
    0.9292    1.6460    2.1495 C   0  0  0  0  0  0  0  0  0  0  0  0
    2.2612    2.7394    3.6950 C   0  0  0  0  0  0  0  0  0  0  0  0
    2.3936    3.4176    4.9118 C   0  0  0  0  0  0  0  0  0  0  0  0
    1.5016    3.5235    5.5454 H   0  0  0  0  0  0  0  0  0  0  0  0
    3.6396    3.9395    5.2878 C   0  0  0  0  0  0  0  0  0  0  0  0
    3.7375    4.4709    6.2454 H   0  0  0  0  0  0  0  0  0  0  0  0
    4.7522    3.7858    4.4445 C   0  0  0  0  0  0  0  0  0  0  0  0
    5.7303    4.1954    4.7351 H   0  0  0  0  0  0  0  0  0  0  0  0
    4.6229    3.1051    3.2254 C   0  0  0  0  0  0  0  0  0  0  0  0
    5.4736    2.9628    2.5438 H   0  0  0  0  0  0  0  0  0  0  0  0
    3.3812    2.5815    2.8483 C   0  0  0  0  0  0  0  0  0  0  0  0
    2.0900    1.3749    1.3537 C   0  0  0  0  0  0  0  0  0  0  0  0
   -3.5233    0.1685    3.0387 C   0  0  0  0  0  0  0  0  0  0  0  0
   -3.1118   -0.0528    4.0487 H   0  0  0  0  0  0  0  0  0  0  0  0
   -3.9444    1.1965    3.1020 H   0  0  0  0  0  0  0  0  0  0  0  0
   -4.6310   -0.8347    2.6934 C   0  0  0  0  0  0  0  0  0  0  0  0
   -5.0280   -0.6110    1.6778 H   0  0  0  0  0  0  0  0  0  0  0  0
   -4.1925   -1.8553    2.6205 H   0  0  0  0  0  0  0  0  0  0  0  0
   -5.7922   -0.8561    3.6929 C   0  0  0  0  0  0  0  0  0  0  0  0
   -6.2290    0.1655    3.7643 H   0  0  0  0  0  0  0  0  0  0  0  0
   -5.3934   -1.0789    4.7082 H   0  0  0  0  0  0  0  0  0  0  0  0
   -6.8879   -1.8617    3.3371 C   0  0  0  0  0  0  0  0  0  0  0  0
   -7.3284   -1.6411    2.3417 H   0  0  0  0  0  0  0  0  0  0  0  0
   -7.7145   -1.8561    4.0767 H   0  0  0  0  0  0  0  0  0  0  0  0
   -6.4855   -2.8958    3.2932 H   0  0  0  0  0  0  0  0  0  0  0  0
   -0.4271   -2.4887    0.5754 C   0  0  0  0  0  0  0  0  0  0  0  0
   -0.4710   -4.8019    0.5266 C   0  0  0  0  0  0  0  0  0  0  0  0
   -0.9385   -6.0136    1.0474 C   0  0  0  0  0  0  0  0  0  0  0  0
   -1.6700   -5.9771    1.8671 H   0  0  0  0  0  0  0  0  0  0  0  0
   -0.4697   -7.2263    0.5221 C   0  0  0  0  0  0  0  0  0  0  0  0
   -0.8412   -8.1751    0.9352 H   0  0  0  0  0  0  0  0  0  0  0  0
   -2.3156    0.1808    2.0015 B   0  0  1  0  0  0  0  0  0  0  0  0
    1.3124    1.2478   -2.3718 O   0  0  0  0  0  0  0  0  0  0  0  0
   -2.8306    0.4590    0.6064 O   0  0  0  0  0  0  0  0  0  0  0  0
   -1.0064    2.2522   -3.3580 O   0  0  0  0  0  0  0  0  0  0  0  0
   -3.3035    1.9037   -1.6401 O   0  0  0  0  0  0  0  0  0  0  0  0
    0.1939    1.1968   -1.6270 N   0  0  0  0  0  2  0  0  0  0  0  0
   -1.8499    0.6260   -0.2965 N   0  0  0  0  0  2  0  0  0  0  0  0
   -0.9292    1.6460   -2.1495 C   0  0  0  0  0  0  0  0  0  0  0  0
   -2.2612    2.7394   -3.6950 C   0  0  0  0  0  0  0  0  0  0  0  0
   -2.3936    3.4176   -4.9118 C   0  0  0  0  0  0  0  0  0  0  0  0
   -1.5016    3.5235   -5.5454 H   0  0  0  0  0  0  0  0  0  0  0  0
   -3.6396    3.9395   -5.2879 C   0  0  0  0  0  0  0  0  0  0  0  0
   -3.7375    4.4709   -6.2454 H   0  0  0  0  0  0  0  0  0  0  0  0
   -4.7522    3.7858   -4.4445 C   0  0  0  0  0  0  0  0  0  0  0  0
   -5.7303    4.1954   -4.7351 H   0  0  0  0  0  0  0  0  0  0  0  0
   -4.6229    3.1051   -3.2254 C   0  0  0  0  0  0  0  0  0  0  0  0
   -5.4736    2.9628   -2.5438 H   0  0  0  0  0  0  0  0  0  0  0  0
   -3.3812    2.5815   -2.8483 C   0  0  0  0  0  0  0  0  0  0  0  0
   -2.0900    1.3749   -1.3537 C   0  0  0  0  0  0  0  0  0  0  0  0
    3.5233    0.1685   -3.0387 C   0  0  0  0  0  0  0  0  0  0  0  0
    3.1118   -0.0528   -4.0487 H   0  0  0  0  0  0  0  0  0  0  0  0
    3.9444    1.1965   -3.1020 H   0  0  0  0  0  0  0  0  0  0  0  0
    4.6310   -0.8347   -2.6934 C   0  0  0  0  0  0  0  0  0  0  0  0
    5.0280   -0.6110   -1.6778 H   0  0  0  0  0  0  0  0  0  0  0  0
    4.1925   -1.8553   -2.6205 H   0  0  0  0  0  0  0  0  0  0  0  0
    5.7922   -0.8561   -3.6929 C   0  0  0  0  0  0  0  0  0  0  0  0
    6.2290    0.1655   -3.7643 H   0  0  0  0  0  0  0  0  0  0  0  0
    5.3934   -1.0789   -4.7082 H   0  0  0  0  0  0  0  0  0  0  0  0
    6.8879   -1.8617   -3.3371 C   0  0  0  0  0  0  0  0  0  0  0  0
    7.3284   -1.6411   -2.3417 H   0  0  0  0  0  0  0  0  0  0  0  0
    7.7145   -1.8561   -4.0767 H   0  0  0  0  0  0  0  0  0  0  0  0
    6.4855   -2.8958   -3.2932 H   0  0  0  0  0  0  0  0  0  0  0  0
    2.3156    0.1808   -2.0015 B   0  0  1  0  0  0  0  0  0  0  0  0
    1.6217   -1.1635   -2.0059 O   0  0  0  0  0  0  0  0  0  0  0  0
    0.9520   -3.6272   -1.0873 O   0  0  0  0  0  0  0  0  0  0  0  0
    0.6982   -1.2851   -1.0379 N   0  0  0  0  0  2  0  0  0  0  0  0
    0.4271   -2.4887   -0.5754 C   0  0  0  0  0  0  0  0  0  0  0  0
    0.4710   -4.8019   -0.5266 C   0  0  0  0  0  0  0  0  0  0  0  0
    0.9385   -6.0136   -1.0474 C   0  0  0  0  0  0  0  0  0  0  0  0
    1.6700   -5.9771   -1.8671 H   0  0  0  0  0  0  0  0  0  0  0  0
    0.4697   -7.2263   -0.5221 C   0  0  0  0  0  0  0  0  0  0  0  0
    0.8412   -8.1751   -0.9352 H   0  0  0  0  0  0  0  0  0  0  0  0
  2  8  1  0  0  0  0
  3 11  1  0  0  0  0
  4 20  1  0  0  0  0
  7 10  1  0  0  0  0
  7  1  1  0  0  0  0
  8 21  1  0  0  0  0
  9  5  1  0  0  0  0
 10  3  1  0  0  0  0
 11 12  1  0  0  0  0
 12 14  2  0  0  0  0
 12 13  1  0  0  0  0
 14 15  1  0  0  0  0
 16 17  1  0  0  0  0
 16 14  1  0  0  0  0
 18 16  2  0  0  0  0
 19 18  1  0  0  0  0
 20 18  1  0  0  0  0
 20 11  2  0  0  0  0
 21  4  1  0  0  0  0
 21 10  2  0  0  0  0
 22 24  1  0  0  0  0
 22 23  1  0  0  0  0
 25 22  1  0  0  0  0
 25 28  1  0  0  0  0
 26 25  1  0  0  0  0
 27 25  1  0  0  0  0
 28 29  1  0  0  0  0
 28 30  1  0  0  0  0
 31 28  1  0  0  0  0
 31 33  1  0  0  0  0
 32 31  1  0  0  0  0
 34 31  1  0  0  0  0
 35  9  1  0  0  0  0
 35  6  1  0  0  0  0
 36 37  1  0  0  0  0
 36  6  1  0  0  0  0
 37 38  1  0  0  0  0
 39 40  1  0  0  0  0
 39 37  2  0  0  0  0
 41  5  1  0  0  0  0
 41  1  1  0  0  0  0
 41 22  1  1  0  0  0
 42 73  1  0  0  0  0
 42 46  1  0  0  0  0
 43 41  1  0  0  0  0
 44 48  1  0  0  0  0
 45 59  1  0  0  0  0
 47 43  1  0  0  0  0
 48 46  1  0  0  0  0
 48 59  2  0  0  0  0
 49 44  1  0  0  0  0
 49 58  1  0  0  0  0
 50 49  2  0  0  0  0
 51 50  1  0  0  0  0
 52 50  1  0  0  0  0
 52 54  2  0  0  0  0
 53 52  1  0  0  0  0
 54 56  1  0  0  0  0
 55 54  1  0  0  0  0
 56 58  2  0  0  0  0
 56 57  1  0  0  0  0
 58 45  1  0  0  0  0
 59 47  1  0  0  0  0
 60 63  1  0  0  0  0
 61 60  1  0  0  0  0
 62 60  1  0  0  0  0
 63 65  1  0  0  0  0
 63 64  1  0  0  0  0
 66 69  1  0  0  0  0
 66 63  1  0  0  0  0
 67 66  1  0  0  0  0
 68 66  1  0  0  0  0
 69 72  1  0  0  0  0
 69 70  1  0  0  0  0
 71 69  1  0  0  0  0
 73 60  1  6  0  0  0
 73  2  1  0  0  0  0
 74 73  1  0  0  0  0
 74 76  1  0  0  0  0
 75 77  1  0  0  0  0
 75 78  1  0  0  0  0
 76 77  1  0  0  0  0
 77 35  2  0  0  0  0
 78 36  2  0  0  0  0
 79 78  1  0  0  0  0
 79 81  2  0  0  0  0
 80 79  1  0  0  0  0
 81 39  1  0  0  0  0
 82 81  1  0  0  0  0
M  END
