5,6,7,8,9,10
 OpenBabel05122313063D

 82 89  0  0  1  0  0  0  0  0999 V2000
    0.0702    0.2104   -4.3608 F   0  0  0  0  0  0  0  0  0  0  0  0
   -0.0702    0.2107    4.3608 F   0  0  0  0  0  0  0  0  0  0  0  0
    0.0509    0.2103   -3.0105 B   0  0  2  0  0  0  0  0  0  0  0  0
   -0.0509    0.2105    3.0105 B   0  0  1  0  0  0  0  0  0  0  0  0
   -0.3096    1.6827   -1.1905 N   0  0  0  0  0  2  0  0  0  0  0  0
    0.3095    1.6829    1.1903 N   0  0  0  0  0  2  0  0  0  0  0  0
    1.4618   -0.2526   -1.1562 N   0  0  0  0  0  2  0  0  0  0  0  0
    1.0970   -0.8140    1.1927 N   0  0  0  0  0  2  0  0  0  0  0  0
   -1.0969   -0.8142   -1.1926 N   0  0  0  0  0  2  0  0  0  0  0  0
   -1.4616   -0.2527    1.1562 N   0  0  0  0  0  2  0  0  0  0  0  0
   -0.0770    4.0591   -1.5034 N   0  0  0  0  0  0  0  0  0  0  0  0
    0.6073    6.0567   -2.2532 N   0  0  0  0  0  0  0  0  0  0  0  0
    0.0766    4.0592    1.5031 N   0  0  0  0  0  0  0  0  0  0  0  0
   -0.6080    6.0568    2.2527 N   0  0  0  0  0  0  0  0  0  0  0  0
   -0.4143    1.5542   -2.5201 O   0  0  0  0  0  0  0  0  0  0  0  0
    0.4142    1.5545    2.5199 O   0  0  0  0  0  0  0  0  0  0  0  0
    1.4237   -0.0505   -2.4831 O   0  0  0  0  0  0  0  0  0  0  0  0
    0.8827   -0.8454    2.5176 O   0  0  0  0  0  0  0  0  0  0  0  0
   -0.8825   -0.8457   -2.5175 O   0  0  0  0  0  0  0  0  0  0  0  0
   -1.4236   -0.0504    2.4831 O   0  0  0  0  0  0  0  0  0  0  0  0
   -0.1251    2.9104   -0.7097 C   0  0  2  0  0  3  0  0  0  0  0  0
    0.1248    2.9105    0.7095 C   0  0  2  0  0  3  0  0  0  0  0  0
    2.4239   -1.0439   -0.6778 C   0  0  1  0  0  3  0  0  0  0  0  0
    2.2667   -1.2754    0.7454 C   0  0  1  0  0  3  0  0  0  0  0  0
   -2.2665   -1.2757   -0.7453 C   0  0  1  0  0  3  0  0  0  0  0  0
   -2.4237   -1.0440    0.6779 C   0  0  1  0  0  3  0  0  0  0  0  0
    3.4593   -1.6807   -1.5152 C   0  0  0  0  0  0  0  0  0  0  0  0
    4.1251   -0.9682   -2.5385 C   0  0  0  0  0  0  0  0  0  0  0  0
    3.8616    0.0799   -2.7312 H   0  0  0  0  0  0  0  0  0  0  0  0
    5.1180   -1.5941   -3.3025 C   0  0  0  0  0  0  0  0  0  0  0  0
    5.6327   -1.0263   -4.0921 H   0  0  0  0  0  0  0  0  0  0  0  0
    5.4524   -2.9377   -3.0692 C   0  0  0  0  0  0  0  0  0  0  0  0
    6.2299   -3.4267   -3.6754 H   0  0  0  0  0  0  0  0  0  0  0  0
    4.7879   -3.6565   -2.0625 C   0  0  0  0  0  0  0  0  0  0  0  0
    5.0381   -4.7120   -1.8786 H   0  0  0  0  0  0  0  0  0  0  0  0
    3.8027   -3.0338   -1.2873 C   0  0  0  0  0  0  0  0  0  0  0  0
    3.2858   -3.6006   -0.4997 H   0  0  0  0  0  0  0  0  0  0  0  0
    3.3098   -1.8531    1.6156 C   0  0  0  0  0  0  0  0  0  0  0  0
    4.6631   -1.4946    1.4141 C   0  0  0  0  0  0  0  0  0  0  0  0
    4.9238   -0.7785    0.6217 H   0  0  0  0  0  0  0  0  0  0  0  0
    5.6692   -2.0377    2.2218 C   0  0  0  0  0  0  0  0  0  0  0  0
    6.7164   -1.7424    2.0581 H   0  0  0  0  0  0  0  0  0  0  0  0
    5.3432   -2.9532    3.2351 C   0  0  0  0  0  0  0  0  0  0  0  0
    6.1351   -3.3827    3.8671 H   0  0  0  0  0  0  0  0  0  0  0  0
    4.0023   -3.3149    3.4425 C   0  0  0  0  0  0  0  0  0  0  0  0
    3.7399   -4.0291    4.2373 H   0  0  0  0  0  0  0  0  0  0  0  0
    2.9895   -2.7665    2.6458 C   0  0  0  0  0  0  0  0  0  0  0  0
    1.9418   -3.0456    2.8181 H   0  0  0  0  0  0  0  0  0  0  0  0
   -3.3095   -1.8536   -1.6155 C   0  0  0  0  0  0  0  0  0  0  0  0
   -4.6629   -1.4952   -1.4139 C   0  0  0  0  0  0  0  0  0  0  0  0
   -4.9236   -0.7792   -0.6215 H   0  0  0  0  0  0  0  0  0  0  0  0
   -5.6690   -2.0385   -2.2214 C   0  0  0  0  0  0  0  0  0  0  0  0
   -6.7162   -1.7434   -2.0577 H   0  0  0  0  0  0  0  0  0  0  0  0
   -5.3428   -2.9541   -3.2348 C   0  0  0  0  0  0  0  0  0  0  0  0
   -6.1348   -3.3837   -3.8667 H   0  0  0  0  0  0  0  0  0  0  0  0
   -4.0019   -3.3156   -3.4421 C   0  0  0  0  0  0  0  0  0  0  0  0
   -3.7394   -4.0298   -4.2370 H   0  0  0  0  0  0  0  0  0  0  0  0
   -2.9891   -2.7670   -2.6455 C   0  0  0  0  0  0  0  0  0  0  0  0
   -1.9414   -3.0460   -2.8179 H   0  0  0  0  0  0  0  0  0  0  0  0
   -3.4592   -1.6808    1.5153 C   0  0  0  0  0  0  0  0  0  0  0  0
   -4.1250   -0.9683    2.5386 C   0  0  0  0  0  0  0  0  0  0  0  0
   -3.8615    0.0798    2.7313 H   0  0  0  0  0  0  0  0  0  0  0  0
   -5.1179   -1.5941    3.3026 C   0  0  0  0  0  0  0  0  0  0  0  0
   -5.6327   -1.0262    4.0921 H   0  0  0  0  0  0  0  0  0  0  0  0
   -5.4524   -2.9377    3.0692 C   0  0  0  0  0  0  0  0  0  0  0  0
   -6.2299   -3.4267    3.6754 H   0  0  0  0  0  0  0  0  0  0  0  0
   -4.7878   -3.6565    2.0626 C   0  0  0  0  0  0  0  0  0  0  0  0
   -5.0382   -4.7121    1.8786 H   0  0  0  0  0  0  0  0  0  0  0  0
   -3.8026   -3.0339    1.2874 C   0  0  0  0  0  0  0  0  0  0  0  0
   -3.2858   -3.6007    0.4998 H   0  0  0  0  0  0  0  0  0  0  0  0
    0.8237    5.1189   -1.3618 C   0  0  0  0  0  0  0  0  0  0  0  0
    1.5996    5.1124   -0.5855 H   0  0  0  0  0  0  0  0  0  0  0  0
   -0.4681    5.6229   -3.0068 C   0  0  0  0  0  0  0  0  0  0  0  0
   -0.8702    6.2224   -3.8329 H   0  0  0  0  0  0  0  0  0  0  0  0
   -0.9104    4.3894   -2.5746 C   0  0  0  0  0  0  0  0  0  0  0  0
   -1.6941    3.7102   -2.9190 H   0  0  0  0  0  0  0  0  0  0  0  0
   -0.8243    5.1189    1.3614 C   0  0  0  0  0  0  0  0  0  0  0  0
   -1.6002    5.1122    0.5851 H   0  0  0  0  0  0  0  0  0  0  0  0
    0.4675    5.6232    3.0063 C   0  0  0  0  0  0  0  0  0  0  0  0
    0.8695    6.2228    3.8324 H   0  0  0  0  0  0  0  0  0  0  0  0
    0.9099    4.3897    2.5742 C   0  0  0  0  0  0  0  0  0  0  0  0
    1.6938    3.7107    2.9186 H   0  0  0  0  0  0  0  0  0  0  0  0
  3  1  1  6  0  0  0
  3 15  1  0  0  0  0
  3 19  1  0  0  0  0
  3 17  1  0  0  0  0
  4  2  1  1  0  0  0
  5 21  1  0  0  0  0
  6 16  1  0  0  0  0
  7 23  1  0  0  0  0
  8 18  1  0  0  0  0
  9 25  1  0  0  0  0
 10 20  1  0  0  0  0
 11 71  1  0  0  0  0
 12 71  2  0  0  0  0
 13 81  1  0  0  0  0
 14 79  1  0  0  0  0
 15  5  1  0  0  0  0
 16  4  1  0  0  0  0
 17  7  1  0  0  0  0
 18  4  1  0  0  0  0
 19  9  1  0  0  0  0
 20  4  1  0  0  0  0
 21 11  1  6  0  0  0
 21 22  1  0  0  0  0
 22  6  1  0  0  0  0
 22 13  1  1  0  0  0
 23 27  1  6  0  0  0
 23 24  1  0  0  0  0
 24  8  1  0  0  0  0
 24 38  1  1  0  0  0
 25 49  1  6  0  0  0
 25 26  1  0  0  0  0
 26 10  1  0  0  0  0
 26 60  1  1  0  0  0
 27 36  1  0  0  0  0
 28 27  2  0  0  0  0
 29 28  1  0  0  0  0
 30 32  2  0  0  0  0
 30 28  1  0  0  0  0
 31 30  1  0  0  0  0
 32 34  1  0  0  0  0
 33 32  1  0  0  0  0
 34 35  1  0  0  0  0
 34 36  2  0  0  0  0
 36 37  1  0  0  0  0
 38 47  1  0  0  0  0
 39 38  2  0  0  0  0
 39 41  1  0  0  0  0
 40 39  1  0  0  0  0
 41 43  2  0  0  0  0
 42 41  1  0  0  0  0
 43 45  1  0  0  0  0
 43 44  1  0  0  0  0
 45 46  1  0  0  0  0
 47 48  1  0  0  0  0
 47 45  2  0  0  0  0
 49 50  1  0  0  0  0
 50 51  1  0  0  0  0
 52 53  1  0  0  0  0
 52 50  2  0  0  0  0
 54 52  1  0  0  0  0
 55 54  1  0  0  0  0
 56 54  2  0  0  0  0
 56 58  1  0  0  0  0
 57 56  1  0  0  0  0
 58 49  2  0  0  0  0
 59 58  1  0  0  0  0
 60 61  1  0  0  0  0
 61 62  1  0  0  0  0
 61 63  2  0  0  0  0
 63 64  1  0  0  0  0
 65 63  1  0  0  0  0
 65 66  1  0  0  0  0
 67 65  2  0  0  0  0
 68 67  1  0  0  0  0
 69 60  2  0  0  0  0
 69 67  1  0  0  0  0
 70 69  1  0  0  0  0
 71 72  1  0  0  0  0
 73 75  2  0  0  0  0
 73 12  1  0  0  0  0
 74 73  1  0  0  0  0
 75 11  1  0  0  0  0
 76 75  1  0  0  0  0
 77 13  1  0  0  0  0
 77 14  2  0  0  0  0
 78 77  1  0  0  0  0
 79 80  1  0  0  0  0
 81 82  1  0  0  0  0
 81 79  2  0  0  0  0
M  END
