8,9,10,11,12,13
 OpenBabel05122313063D

 64 66  0  0  0  0  0  0  0  0999 V2000
    3.5764    0.4284    1.2956 O   0  0  0  0  0  0  0  0  0  0  0  0
   -1.4992    0.8316    1.0718 O   0  0  0  0  0  0  0  0  0  0  0  0
    3.6217   -1.1619   -0.5555 O   0  0  0  0  0  0  0  0  0  0  0  0
   -1.3971   -1.4767    0.2705 O   0  0  0  0  0  0  0  0  0  0  0  0
    3.5003    1.2412   -1.0132 O   0  0  0  0  0  0  0  0  0  0  0  0
   -1.5168    0.3702   -1.3252 O   0  0  0  0  0  0  0  0  0  0  0  0
    5.4752    0.3115   -0.1688 O   0  0  0  0  0  0  0  0  0  0  0  0
    2.2385    0.5068    1.3814 N   0  0  0  0  0  2  0  0  0  0  0  0
   -0.1580    0.8533    1.1978 N   0  0  0  0  0  2  0  0  0  0  0  0
    2.2995   -1.3584   -0.4243 N   0  0  0  0  0  2  0  0  0  0  0  0
   -0.0581   -1.5158    0.1266 N   0  0  0  0  0  2  0  0  0  0  0  0
    2.1662    1.1385   -1.1419 N   0  0  0  0  0  2  0  0  0  0  0  0
   -0.1891    0.5947   -1.3845 N   0  0  0  0  0  2  0  0  0  0  0  0
    2.6473    1.6837    3.5039 C   0  0  0  0  0  0  0  0  0  0  0  0
    3.4156    2.3439    3.0513 H   0  0  0  0  0  0  0  0  0  0  0  0
    3.2010    0.8621    4.0033 H   0  0  0  0  0  0  0  0  0  0  0  0
    2.0855    2.2509    4.2669 H   0  0  0  0  0  0  0  0  0  0  0  0
    1.7456    1.1499    2.4392 C   0  0  0  0  0  0  0  0  0  0  0  0
    0.3187    1.2855    2.3637 C   0  0  0  0  0  0  0  0  0  0  0  0
   -0.5979    1.7862    3.4319 C   0  0  0  0  0  0  0  0  0  0  0  0
   -1.3599    1.0151    3.6680 H   0  0  0  0  0  0  0  0  0  0  0  0
   -1.1602    2.6773    3.0847 H   0  0  0  0  0  0  0  0  0  0  0  0
   -0.0473    2.0464    4.3530 H   0  0  0  0  0  0  0  0  0  0  0  0
    2.8513   -3.7543   -0.5129 C   0  0  0  0  0  0  0  0  0  0  0  0
    3.3748   -3.7018   -1.4893 H   0  0  0  0  0  0  0  0  0  0  0  0
    2.3489   -4.7339   -0.4265 H   0  0  0  0  0  0  0  0  0  0  0  0
    3.6402   -3.6840    0.2648 H   0  0  0  0  0  0  0  0  0  0  0  0
    1.8858   -2.6237   -0.3681 C   0  0  0  0  0  0  0  0  0  0  0  0
    0.4762   -2.7121   -0.1124 C   0  0  0  0  0  0  0  0  0  0  0  0
   -0.3716   -3.9417   -0.1467 C   0  0  0  0  0  0  0  0  0  0  0  0
   -0.9022   -4.0810    0.8172 H   0  0  0  0  0  0  0  0  0  0  0  0
    0.2275   -4.8442   -0.3609 H   0  0  0  0  0  0  0  0  0  0  0  0
   -1.1588   -3.8401   -0.9227 H   0  0  0  0  0  0  0  0  0  0  0  0
    2.4854    2.4466   -3.2010 C   0  0  0  0  0  0  0  0  0  0  0  0
    3.3109    1.7976   -3.5594 H   0  0  0  0  0  0  0  0  0  0  0  0
    2.9697    3.3169   -2.7125 H   0  0  0  0  0  0  0  0  0  0  0  0
    1.8992    2.8003   -4.0674 H   0  0  0  0  0  0  0  0  0  0  0  0
    1.6349    1.6975   -2.2281 C   0  0  0  0  0  0  0  0  0  0  0  0
    0.2271    1.4353   -2.3294 C   0  0  0  0  0  0  0  0  0  0  0  0
   -0.7332    2.0282   -3.3082 C   0  0  0  0  0  0  0  0  0  0  0  0
   -1.2198    1.2358   -3.9130 H   0  0  0  0  0  0  0  0  0  0  0  0
   -0.2353    2.7433   -3.9864 H   0  0  0  0  0  0  0  0  0  0  0  0
   -1.5518    2.5473   -2.7683 H   0  0  0  0  0  0  0  0  0  0  0  0
    6.2516   -0.5294    0.6507 C   0  0  0  0  0  0  0  0  0  0  0  0
    6.0977   -1.6085    0.4157 H   0  0  0  0  0  0  0  0  0  0  0  0
    6.0317   -0.3848    1.7341 H   0  0  0  0  0  0  0  0  0  0  0  0
    7.3231   -0.2938    0.4847 H   0  0  0  0  0  0  0  0  0  0  0  0
   -3.5756   -0.1858    0.0438 C   0  0  0  0  0  0  0  0  0  0  0  0
   -4.3361    1.0024    0.1450 C   0  0  0  0  0  0  0  0  0  0  0  0
   -3.8123    1.9683    0.2268 H   0  0  0  0  0  0  0  0  0  0  0  0
   -5.7333    0.9813    0.1518 C   0  0  0  0  0  0  0  0  0  0  0  0
   -6.2891    1.9280    0.2330 H   0  0  0  0  0  0  0  0  0  0  0  0
   -6.4411   -0.2414    0.0574 C   0  0  0  0  0  0  0  0  0  0  0  0
   -5.6830   -1.4307   -0.0412 C   0  0  0  0  0  0  0  0  0  0  0  0
   -6.2133   -2.3944   -0.1136 H   0  0  0  0  0  0  0  0  0  0  0  0
   -4.2822   -1.4016   -0.0480 C   0  0  0  0  0  0  0  0  0  0  0  0
   -3.7196   -2.3452   -0.1231 H   0  0  0  0  0  0  0  0  0  0  0  0
   -7.9095   -0.3242    0.0588 C   0  0  0  0  0  0  0  0  0  0  0  0
   -8.3093   -1.3513   -0.0190 H   0  0  0  0  0  0  0  0  0  0  0  0
   -8.7930    0.6940    0.1423 C   0  0  0  0  0  0  0  0  0  0  0  0
   -8.4750    1.7458    0.2220 H   0  0  0  0  0  0  0  0  0  0  0  0
   -9.8767    0.5048    0.1333 H   0  0  0  0  0  0  0  0  0  0  0  0
    4.0875    0.2061   -0.1104 B   0  0  1  0  0  0  0  0  0  0  0  0
   -1.9851   -0.1235    0.0175 B   0  0  2  0  0  0  0  0  0  0  0  0
  1  8  1  0  0  0  0
  2  9  1  0  0  0  0
  3 10  1  0  0  0  0
  3 63  1  0  0  0  0
  5 63  1  0  0  0  0
  6 64  1  0  0  0  0
  7 44  1  0  0  0  0
  8 18  1  0  0  0  0
  9 19  1  0  0  0  0
 10 28  1  0  0  0  0
 11  4  1  0  0  0  0
 12  5  1  0  0  0  0
 13  6  1  0  0  0  0
 14 16  1  0  0  0  0
 14 17  1  0  0  0  0
 15 14  1  0  0  0  0
 18 14  1  0  0  0  0
 19 18  2  0  0  0  0
 19 20  1  0  0  0  0
 20 21  1  0  0  0  0
 20 23  1  0  0  0  0
 22 20  1  0  0  0  0
 24 26  1  0  0  0  0
 24 28  1  0  0  0  0
 24 27  1  0  0  0  0
 25 24  1  0  0  0  0
 28 29  2  0  0  0  0
 29 11  1  0  0  0  0
 30 29  1  0  0  0  0
 30 31  1  0  0  0  0
 32 30  1  0  0  0  0
 33 30  1  0  0  0  0
 34 36  1  0  0  0  0
 34 38  1  0  0  0  0
 35 34  1  0  0  0  0
 37 34  1  0  0  0  0
 38 12  1  0  0  0  0
 39 38  2  0  0  0  0
 39 13  1  0  0  0  0
 40 43  1  0  0  0  0
 40 39  1  0  0  0  0
 41 40  1  0  0  0  0
 42 40  1  0  0  0  0
 44 46  1  0  0  0  0
 45 44  1  0  0  0  0
 47 44  1  0  0  0  0
 48 49  1  0  0  0  0
 49 51  2  0  0  0  0
 49 50  1  0  0  0  0
 51 52  1  0  0  0  0
 53 58  1  0  0  0  0
 53 51  1  0  0  0  0
 54 53  2  0  0  0  0
 55 54  1  0  0  0  0
 56 54  1  0  0  0  0
 56 48  2  0  0  0  0
 57 56  1  0  0  0  0
 58 60  2  0  0  0  0
 59 58  1  0  0  0  0
 60 61  1  0  0  0  0
 62 60  1  0  0  0  0
 63  7  1  6  0  0  0
 63  1  1  0  0  0  0
 64 48  1  1  0  0  0
 64  4  1  0  0  0  0
 64  2  1  0  0  0  0
M  END
