11,12,13,14,15,16
 OpenBabel05122313063D

 74 79  0  0  1  0  0  0  0  0999 V2000
    0.1203   -4.3627    0.9957 F   0  0  0  0  0  0  0  0  0  0  0  0
   -0.1203    4.3627    0.9958 F   0  0  0  0  0  0  0  0  0  0  0  0
    0.0781   -3.0100    0.9935 B   0  0  2  0  0  0  0  0  0  0  0  0
   -0.0780    3.0099    0.9936 B   0  0  1  0  0  0  0  0  0  0  0  0
   -0.3672   -2.5190    2.3351 O   0  0  0  0  0  0  0  0  0  0  0  0
    0.3673    2.5189    2.3352 O   0  0  0  0  0  0  0  0  0  0  0  0
   -0.8745   -2.5377   -0.0554 O   0  0  0  0  0  0  0  0  0  0  0  0
   -1.4420    2.4685    0.6985 O   0  0  0  0  0  0  0  0  0  0  0  0
    1.4421   -2.4685    0.6984 O   0  0  0  0  0  0  0  0  0  0  0  0
    0.8745    2.5376   -0.0553 O   0  0  0  0  0  0  0  0  0  0  0  0
   -0.2659   -1.1839    2.4547 N   0  0  0  0  0  2  0  0  0  0  0  0
    0.2657    1.1839    2.4547 N   0  0  0  0  0  2  0  0  0  0  0  0
   -1.0943   -1.2131   -0.0305 N   0  0  0  0  0  2  0  0  0  0  0  0
   -1.4679    1.1401    0.5044 N   0  0  0  0  0  2  0  0  0  0  0  0
    1.4679   -1.1401    0.5044 N   0  0  0  0  0  2  0  0  0  0  0  0
    1.0944    1.2131   -0.0304 N   0  0  0  0  0  2  0  0  0  0  0  0
   -0.1175   -0.7090    3.6885 C   0  0  0  0  0  0  0  0  0  0  0  0
    0.1168    0.7090    3.6885 C   0  0  0  0  0  0  0  0  0  0  0  0
   -2.2647   -0.7738   -0.5012 C   0  0  2  0  0  3  0  0  0  0  0  0
   -2.4292    0.6484   -0.2822 C   0  0  2  0  0  3  0  0  0  0  0  0
    2.4293   -0.6484   -0.2821 C   0  0  2  0  0  3  0  0  0  0  0  0
    2.2647    0.7738   -0.5011 C   0  0  2  0  0  3  0  0  0  0  0  0
   -0.1463   -1.6178    4.8729 C   0  0  0  0  0  0  0  0  0  0  0  0
    0.6125   -2.4182    4.7517 H   0  0  0  0  0  0  0  0  0  0  0  0
   -1.1260   -2.1321    4.9514 H   0  0  0  0  0  0  0  0  0  0  0  0
    0.0494   -1.0710    5.8118 H   0  0  0  0  0  0  0  0  0  0  0  0
    0.1455    1.6177    4.8729 C   0  0  0  0  0  0  0  0  0  0  0  0
   -0.6103    2.4206    4.7496 H   0  0  0  0  0  0  0  0  0  0  0  0
    1.1267    2.1288    4.9543 H   0  0  0  0  0  0  0  0  0  0  0  0
   -0.0545    1.0716    5.8114 H   0  0  0  0  0  0  0  0  0  0  0  0
   -3.3012   -1.6540   -1.0770 C   0  0  0  0  0  0  0  0  0  0  0  0
   -4.6573   -1.4589   -0.7263 C   0  0  0  0  0  0  0  0  0  0  0  0
   -4.9248   -0.6645   -0.0149 H   0  0  0  0  0  0  0  0  0  0  0  0
   -5.6571   -2.2735   -1.2709 C   0  0  0  0  0  0  0  0  0  0  0  0
   -6.7067   -2.1131   -0.9819 H   0  0  0  0  0  0  0  0  0  0  0  0
   -5.3220   -3.2900   -2.1796 C   0  0  0  0  0  0  0  0  0  0  0  0
   -6.1087   -3.9281   -2.6099 H   0  0  0  0  0  0  0  0  0  0  0  0
   -3.9781   -3.4924   -2.5326 C   0  0  0  0  0  0  0  0  0  0  0  0
   -3.7078   -4.2900   -3.2411 H   0  0  0  0  0  0  0  0  0  0  0  0
   -2.9721   -2.6875   -1.9836 C   0  0  0  0  0  0  0  0  0  0  0  0
   -1.9220   -2.8558   -2.2559 H   0  0  0  0  0  0  0  0  0  0  0  0
   -3.4687    1.4755   -0.9271 C   0  0  0  0  0  0  0  0  0  0  0  0
   -4.1423    2.5006   -0.2248 C   0  0  0  0  0  0  0  0  0  0  0  0
   -3.8801    2.7031    0.8217 H   0  0  0  0  0  0  0  0  0  0  0  0
   -5.1388    3.2541   -0.8578 C   0  0  0  0  0  0  0  0  0  0  0  0
   -5.6585    4.0456   -0.2971 H   0  0  0  0  0  0  0  0  0  0  0  0
   -5.4711    3.0081   -2.1997 C   0  0  0  0  0  0  0  0  0  0  0  0
   -6.2516    3.6058   -2.6945 H   0  0  0  0  0  0  0  0  0  0  0  0
   -4.7992    1.9997   -2.9090 C   0  0  0  0  0  0  0  0  0  0  0  0
   -5.0469    1.8053   -3.9634 H   0  0  0  0  0  0  0  0  0  0  0  0
   -3.8092    1.2364   -2.2790 C   0  0  0  0  0  0  0  0  0  0  0  0
   -3.2860    0.4482   -2.8389 H   0  0  0  0  0  0  0  0  0  0  0  0
    3.4688   -1.4754   -0.9270 C   0  0  0  0  0  0  0  0  0  0  0  0
    3.8094   -1.2363   -2.2788 C   0  0  0  0  0  0  0  0  0  0  0  0
    3.2862   -0.4480   -2.8388 H   0  0  0  0  0  0  0  0  0  0  0  0
    4.7994   -1.9996   -2.9089 C   0  0  0  0  0  0  0  0  0  0  0  0
    5.0472   -1.8051   -3.9632 H   0  0  0  0  0  0  0  0  0  0  0  0
    5.4713   -3.0080   -2.1996 C   0  0  0  0  0  0  0  0  0  0  0  0
    6.2519   -3.6057   -2.6943 H   0  0  0  0  0  0  0  0  0  0  0  0
    5.1389   -3.2541   -0.8577 C   0  0  0  0  0  0  0  0  0  0  0  0
    5.6585   -4.0456   -0.2969 H   0  0  0  0  0  0  0  0  0  0  0  0
    4.1423   -2.5006   -0.2247 C   0  0  0  0  0  0  0  0  0  0  0  0
    3.8800   -2.7032    0.8218 H   0  0  0  0  0  0  0  0  0  0  0  0
    3.3012    1.6540   -1.0769 C   0  0  0  0  0  0  0  0  0  0  0  0
    2.9722    2.6875   -1.9833 C   0  0  0  0  0  0  0  0  0  0  0  0
    1.9221    2.8559   -2.2556 H   0  0  0  0  0  0  0  0  0  0  0  0
    3.9782    3.4926   -2.5324 C   0  0  0  0  0  0  0  0  0  0  0  0
    3.7079    4.2901   -3.2407 H   0  0  0  0  0  0  0  0  0  0  0  0
    5.3221    3.2901   -2.1793 C   0  0  0  0  0  0  0  0  0  0  0  0
    6.1088    3.9282   -2.6096 H   0  0  0  0  0  0  0  0  0  0  0  0
    5.6572    2.2735   -1.2707 C   0  0  0  0  0  0  0  0  0  0  0  0
    6.7067    2.1131   -0.9817 H   0  0  0  0  0  0  0  0  0  0  0  0
    4.6574    1.4589   -0.7261 C   0  0  0  0  0  0  0  0  0  0  0  0
    4.9249    0.6644   -0.0148 H   0  0  0  0  0  0  0  0  0  0  0  0
  3  1  1  1  0  0  0
  3  5  1  0  0  0  0
  4  2  1  1  0  0  0
  4  6  1  0  0  0  0
  5 11  1  0  0  0  0
  6 12  1  0  0  0  0
  7 13  1  0  0  0  0
  7  3  1  0  0  0  0
  8  4  1  0  0  0  0
  9  3  1  0  0  0  0
 10 16  1  0  0  0  0
 10  4  1  0  0  0  0
 11 17  1  0  0  0  0
 12 18  1  0  0  0  0
 14  8  1  0  0  0  0
 15  9  1  0  0  0  0
 17 18  2  0  0  0  0
 17 23  1  0  0  0  0
 18 27  1  0  0  0  0
 19 31  1  1  0  0  0
 19 20  1  0  0  0  0
 19 13  1  0  0  0  0
 20 42  1  6  0  0  0
 20 14  1  0  0  0  0
 21 53  1  6  0  0  0
 21 15  1  0  0  0  0
 22 64  1  1  0  0  0
 22 21  1  0  0  0  0
 22 16  1  0  0  0  0
 23 25  1  0  0  0  0
 23 26  1  0  0  0  0
 24 23  1  0  0  0  0
 27 29  1  0  0  0  0
 27 30  1  0  0  0  0
 28 27  1  0  0  0  0
 31 32  1  0  0  0  0
 32 33  1  0  0  0  0
 34 35  1  0  0  0  0
 34 32  2  0  0  0  0
 36 34  1  0  0  0  0
 37 36  1  0  0  0  0
 38 36  2  0  0  0  0
 38 40  1  0  0  0  0
 39 38  1  0  0  0  0
 40 31  2  0  0  0  0
 41 40  1  0  0  0  0
 42 43  1  0  0  0  0
 43 44  1  0  0  0  0
 45 46  1  0  0  0  0
 45 43  2  0  0  0  0
 47 45  1  0  0  0  0
 48 47  1  0  0  0  0
 49 51  1  0  0  0  0
 49 47  2  0  0  0  0
 50 49  1  0  0  0  0
 51 42  2  0  0  0  0
 52 51  1  0  0  0  0
 53 62  1  0  0  0  0
 54 53  2  0  0  0  0
 55 54  1  0  0  0  0
 56 54  1  0  0  0  0
 56 58  2  0  0  0  0
 57 56  1  0  0  0  0
 58 60  1  0  0  0  0
 59 58  1  0  0  0  0
 60 61  1  0  0  0  0
 60 62  2  0  0  0  0
 62 63  1  0  0  0  0
 64 73  1  0  0  0  0
 65 64  2  0  0  0  0
 66 65  1  0  0  0  0
 67 69  2  0  0  0  0
 67 65  1  0  0  0  0
 68 67  1  0  0  0  0
 69 71  1  0  0  0  0
 70 69  1  0  0  0  0
 71 72  1  0  0  0  0
 71 73  2  0  0  0  0
 73 74  1  0  0  0  0
M  END
