7,8,9,10,11,12
 OpenBabel05122313063D

 78 84  0  0  0  0  0  0  0  0999 V2000
   -2.5409   -1.0767   -0.8931 O   0  0  0  0  0  0  0  0  0  0  0  0
    2.5345   -0.5152   -1.3214 O   0  0  0  0  0  0  0  0  0  0  0  0
   -2.5351   -0.2199    1.3933 O   0  0  0  0  0  0  0  0  0  0  0  0
    2.5386   -0.8717    1.0948 O   0  0  0  0  0  0  0  0  0  0  0  0
   -2.5358    1.3358   -0.4939 O   0  0  0  0  0  0  0  0  0  0  0  0
    2.5397    1.4023    0.1968 O   0  0  0  0  0  0  0  0  0  0  0  0
   -1.2034   -1.0548   -1.0515 N   0  0  0  0  0  2  0  0  0  0  0  0
    1.1967   -0.6712   -1.3403 N   0  0  0  0  0  2  0  0  0  0  0  0
   -1.1976   -0.3710    1.4459 N   0  0  0  0  0  2  0  0  0  0  0  0
    1.2011   -0.8134    1.2455 N   0  0  0  0  0  2  0  0  0  0  0  0
   -1.1981    1.4538   -0.3963 N   0  0  0  0  0  2  0  0  0  0  0  0
    1.2023    1.5008    0.0794 N   0  0  0  0  0  2  0  0  0  0  0  0
   -4.6475    0.0100    0.0091 C   0  0  0  0  0  0  0  0  0  0  0  0
   -5.3481   -1.0556    0.6151 C   0  0  0  0  0  0  0  0  0  0  0  0
   -6.7507   -1.0964    0.6207 C   0  0  0  0  0  0  0  0  0  0  0  0
   -7.4847   -0.0632    0.0152 C   0  0  0  0  0  0  0  0  0  0  0  0
   -6.8068    1.0057   -0.5926 C   0  0  0  0  0  0  0  0  0  0  0  0
   -5.4032    1.0378   -0.5932 C   0  0  0  0  0  0  0  0  0  0  0  0
   -0.7141   -1.6680   -2.1232 C   0  0  0  0  0  0  0  0  0  0  0  0
   -1.5370   -2.4432   -3.1069 C   0  0  0  0  0  0  0  0  0  0  0  0
   -0.7182   -2.7772   -4.3641 C   0  0  0  0  0  0  0  0  0  0  0  0
    0.6854   -3.2845   -4.0040 C   0  0  0  0  0  0  0  0  0  0  0  0
    1.5139   -2.1995   -3.2970 C   0  0  0  0  0  0  0  0  0  0  0  0
    0.6999   -1.5012   -2.2502 C   0  0  0  0  0  0  0  0  0  0  0  0
    4.6479    0.0003   -0.0143 C   0  0  0  0  0  0  0  0  0  0  0  0
    5.3594   -1.0960   -0.5477 C   0  0  0  0  0  0  0  0  0  0  0  0
    6.7624   -1.1307   -0.5350 C   0  0  0  0  0  0  0  0  0  0  0  0
    7.4854   -0.0604    0.0164 C   0  0  0  0  0  0  0  0  0  0  0  0
    6.7965    1.0402    0.5513 C   0  0  0  0  0  0  0  0  0  0  0  0
    5.3931    1.0660    0.5338 C   0  0  0  0  0  0  0  0  0  0  0  0
   -0.7030   -0.9916    2.5107 C   0  0  0  0  0  0  0  0  0  0  0  0
   -1.5192   -1.4503    3.6808 C   0  0  0  0  0  0  0  0  0  0  0  0
   -0.6942   -2.3640    4.6015 C   0  0  0  0  0  0  0  0  0  0  0  0
    0.7115   -1.7969    4.8465 C   0  0  0  0  0  0  0  0  0  0  0  0
    1.5311   -1.7388    3.5474 C   0  0  0  0  0  0  0  0  0  0  0  0
    0.7105   -1.1856    2.4222 C   0  0  0  0  0  0  0  0  0  0  0  0
   -0.7036    2.6868   -0.3885 C   0  0  0  0  0  0  0  0  0  0  0  0
   -1.5211    3.9304   -0.5639 C   0  0  0  0  0  0  0  0  0  0  0  0
   -0.6946    5.1824   -0.2286 C   0  0  0  0  0  0  0  0  0  0  0  0
    0.7067    5.1162   -0.8524 C   0  0  0  0  0  0  0  0  0  0  0  0
    1.5306    3.9581   -0.2665 C   0  0  0  0  0  0  0  0  0  0  0  0
    0.7102    2.7068   -0.1820 C   0  0  0  0  0  0  0  0  0  0  0  0
   -3.0554    0.0208    0.0027 B   0  0  1  0  0  0  0  0  0  0  0  0
    3.0557    0.0096   -0.0133 B   0  0  2  0  0  0  0  0  0  0  0  0
   -4.7802   -1.8693    1.0943 H   0  0  0  0  0  0  0  0  0  0  0  0
   -7.2767   -1.9371    1.1000 H   0  0  0  0  0  0  0  0  0  0  0  0
   -8.5856   -0.0911    0.0179 H   0  0  0  0  0  0  0  0  0  0  0  0
   -7.3771    1.8193   -1.0682 H   0  0  0  0  0  0  0  0  0  0  0  0
   -4.8770    1.8796   -1.0702 H   0  0  0  0  0  0  0  0  0  0  0  0
   -1.8959   -3.3759   -2.6153 H   0  0  0  0  0  0  0  0  0  0  0  0
   -2.4570   -1.8685   -3.3426 H   0  0  0  0  0  0  0  0  0  0  0  0
   -0.6253   -1.8683   -4.9987 H   0  0  0  0  0  0  0  0  0  0  0  0
   -1.2611   -3.5290   -4.9713 H   0  0  0  0  0  0  0  0  0  0  0  0
    0.5921   -4.1717   -3.3395 H   0  0  0  0  0  0  0  0  0  0  0  0
    1.2217   -3.6276   -4.9113 H   0  0  0  0  0  0  0  0  0  0  0  0
    2.4329   -2.6111   -2.8293 H   0  0  0  0  0  0  0  0  0  0  0  0
    1.8758   -1.4435   -4.0301 H   0  0  0  0  0  0  0  0  0  0  0  0
    4.7995   -1.9377   -0.9858 H   0  0  0  0  0  0  0  0  0  0  0  0
    7.2970   -1.9959   -0.9579 H   0  0  0  0  0  0  0  0  0  0  0  0
    8.5863   -0.0835    0.0280 H   0  0  0  0  0  0  0  0  0  0  0  0
    7.3581    1.8836    0.9832 H   0  0  0  0  0  0  0  0  0  0  0  0
    4.8584    1.9340    0.9509 H   0  0  0  0  0  0  0  0  0  0  0  0
   -2.4401   -1.9471    3.3099 H   0  0  0  0  0  0  0  0  0  0  0  0
   -1.8780   -0.5550    4.2375 H   0  0  0  0  0  0  0  0  0  0  0  0
   -1.2310   -2.5053    5.5609 H   0  0  0  0  0  0  0  0  0  0  0  0
   -0.6045   -3.3722    4.1401 H   0  0  0  0  0  0  0  0  0  0  0  0
    1.2521   -2.4053    5.5990 H   0  0  0  0  0  0  0  0  0  0  0  0
    0.6219   -0.7742    5.2747 H   0  0  0  0  0  0  0  0  0  0  0  0
    2.4534   -1.1308    3.6571 H   0  0  0  0  0  0  0  0  0  0  0  0
    1.8862   -2.7555    3.2639 H   0  0  0  0  0  0  0  0  0  0  0  0
   -1.8844    3.9735   -1.6159 H   0  0  0  0  0  0  0  0  0  0  0  0
   -2.4378    3.8529    0.0577 H   0  0  0  0  0  0  0  0  0  0  0  0
   -0.5979    5.2780    0.8754 H   0  0  0  0  0  0  0  0  0  0  0  0
   -1.2341    6.0865   -0.5752 H   0  0  0  0  0  0  0  0  0  0  0  0
    1.2481    6.0712   -0.6989 H   0  0  0  0  0  0  0  0  0  0  0  0
    0.6099    4.9830   -1.9524 H   0  0  0  0  0  0  0  0  0  0  0  0
    2.4471    3.7519   -0.8582 H   0  0  0  0  0  0  0  0  0  0  0  0
    1.8943    4.2161    0.7541 H   0  0  0  0  0  0  0  0  0  0  0  0
  1 43  1  0  0  0  0
  2 44  1  0  0  0  0
  3  9  1  0  0  0  0
  4 10  1  0  0  0  0
  5 11  1  0  0  0  0
  5 43  1  0  0  0  0
  7  1  1  0  0  0  0
  8  2  1  0  0  0  0
  9 31  1  0  0  0  0
 10 36  1  0  0  0  0
 11 37  1  0  0  0  0
 12  6  1  0  0  0  0
 13 14  1  0  0  0  0
 14 15  2  0  0  0  0
 14 45  1  0  0  0  0
 15 46  1  0  0  0  0
 16 47  1  0  0  0  0
 16 15  1  0  0  0  0
 17 16  2  0  0  0  0
 18 17  1  0  0  0  0
 18 13  2  0  0  0  0
 19  7  1  0  0  0  0
 20 50  1  0  0  0  0
 20 19  1  0  0  0  0
 21 22  1  0  0  0  0
 21 20  1  0  0  0  0
 22 54  1  0  0  0  0
 22 23  1  0  0  0  0
 23 56  1  0  0  0  0
 23 24  1  0  0  0  0
 24 19  2  0  0  0  0
 24  8  1  0  0  0  0
 25 30  1  0  0  0  0
 26 27  1  0  0  0  0
 26 25  2  0  0  0  0
 27 28  2  0  0  0  0
 28 60  1  0  0  0  0
 28 29  1  0  0  0  0
 29 61  1  0  0  0  0
 30 29  2  0  0  0  0
 30 62  1  0  0  0  0
 31 32  1  0  0  0  0
 32 64  1  0  0  0  0
 32 33  1  0  0  0  0
 33 34  1  0  0  0  0
 33 65  1  0  0  0  0
 34 68  1  0  0  0  0
 34 67  1  0  0  0  0
 35 69  1  0  0  0  0
 35 34  1  0  0  0  0
 36 31  2  0  0  0  0
 36 35  1  0  0  0  0
 37 42  2  0  0  0  0
 38 37  1  0  0  0  0
 38 39  1  0  0  0  0
 38 72  1  0  0  0  0
 39 73  1  0  0  0  0
 40 75  1  0  0  0  0
 40 41  1  0  0  0  0
 40 39  1  0  0  0  0
 41 42  1  0  0  0  0
 41 78  1  0  0  0  0
 42 12  1  0  0  0  0
 43 13  1  1  0  0  0
 43  3  1  0  0  0  0
 44 25  1  6  0  0  0
 44  6  1  0  0  0  0
 44  4  1  0  0  0  0
 48 17  1  0  0  0  0
 49 18  1  0  0  0  0
 51 20  1  0  0  0  0
 52 21  1  0  0  0  0
 53 21  1  0  0  0  0
 55 22  1  0  0  0  0
 57 23  1  0  0  0  0
 58 26  1  0  0  0  0
 59 27  1  0  0  0  0
 63 32  1  0  0  0  0
 66 33  1  0  0  0  0
 70 35  1  0  0  0  0
 71 38  1  0  0  0  0
 74 39  1  0  0  0  0
 76 40  1  0  0  0  0
 77 41  1  0  0  0  0
M  END
