7,8,9,27,31,34
 OpenBabel05122313063D

 52 53  0  0  0  0  0  0  0  0999 V2000
   -2.5857   -3.0091    2.2235 Cl  0  0  0  0  0  0  0  0  0  0  0  0
   -0.5866    3.9838    2.1170 Cl  0  0  0  0  0  0  0  0  0  0  0  0
   -1.6126    0.3899   -4.0870 Cl  0  0  0  0  0  0  0  0  0  0  0  0
   -2.7747   -0.3339    1.0358 O   0  0  0  0  0  0  0  0  0  0  0  0
   -2.1134    2.0097    0.5685 O   0  0  0  0  0  0  0  0  0  0  0  0
   -2.5530    0.4503   -1.3074 O   0  0  0  0  0  0  0  0  0  0  0  0
   -1.5376   -0.8360    1.0683 N   0  0  0  0  0  2  0  0  0  0  0  0
   -0.8072    1.7427    0.6702 N   0  0  0  0  0  2  0  0  0  0  0  0
   -1.2660    0.1210   -1.4475 N   0  0  0  0  0  2  0  0  0  0  0  0
   -1.3297   -2.0637    1.5493 C   0  0  0  0  0  0  0  0  0  0  0  0
   -0.0176    2.5453    1.3876 C   0  0  0  0  0  0  0  0  0  0  0  0
   -0.7114    0.1046   -2.6616 C   0  0  0  0  0  0  0  0  0  0  0  0
   -4.5013    1.2672    0.0993 C   0  0  0  0  0  0  0  0  0  0  0  0
   -5.4506    0.1645   -0.3891 C   0  0  0  0  0  0  0  0  0  0  0  0
   -6.9297    0.5639   -0.3766 C   0  0  0  0  0  0  0  0  0  0  0  0
   -7.8647   -0.5428   -0.8654 C   0  0  0  0  0  0  0  0  0  0  0  0
   -2.9696    0.8471    0.0993 B   0  0  1  0  0  0  0  0  0  0  0  0
   -4.6163    2.1776   -0.5296 H   0  0  0  0  0  0  0  0  0  0  0  0
   -4.7764    1.5767    1.1320 H   0  0  0  0  0  0  0  0  0  0  0  0
   -5.1636   -0.1395   -1.4207 H   0  0  0  0  0  0  0  0  0  0  0  0
   -5.3119   -0.7452    0.2371 H   0  0  0  0  0  0  0  0  0  0  0  0
   -7.2147    0.8683    0.6556 H   0  0  0  0  0  0  0  0  0  0  0  0
   -7.0653    1.4745   -1.0024 H   0  0  0  0  0  0  0  0  0  0  0  0
   -7.6245   -0.8413   -1.9076 H   0  0  0  0  0  0  0  0  0  0  0  0
   -8.9275   -0.2268   -0.8450 H   0  0  0  0  0  0  0  0  0  0  0  0
   -7.7743   -1.4529   -0.2357 H   0  0  0  0  0  0  0  0  0  0  0  0
    1.5376    0.8376    1.0670 N   0  0  0  0  0  2  0  0  0  0  0  0
    2.7747    0.3354    1.0353 O   0  0  0  0  0  0  0  0  0  0  0  0
    2.9696   -0.8470    0.1006 B   0  0  1  0  0  0  0  0  0  0  0  0
    2.1134   -2.0088    0.5715 O   0  0  0  0  0  0  0  0  0  0  0  0
    0.8072   -1.7417    0.6728 N   0  0  0  0  0  2  0  0  0  0  0  0
    0.7114   -0.1085   -2.6615 C   0  0  0  0  0  0  0  0  0  0  0  0
    1.6126   -0.3961   -4.0864 Cl  0  0  0  0  0  0  0  0  0  0  0  0
    1.2660   -0.1231   -1.4473 N   0  0  0  0  0  2  0  0  0  0  0  0
    2.5530   -0.4523   -1.3068 O   0  0  0  0  0  0  0  0  0  0  0  0
    4.5014   -1.2670    0.1012 C   0  0  0  0  0  0  0  0  0  0  0  0
    5.4506   -0.1650   -0.3889 C   0  0  0  0  0  0  0  0  0  0  0  0
    6.9297   -0.5644   -0.3758 C   0  0  0  0  0  0  0  0  0  0  0  0
    7.8647    0.5415   -0.8662 C   0  0  0  0  0  0  0  0  0  0  0  0
    7.6245    0.8385   -1.9089 H   0  0  0  0  0  0  0  0  0  0  0  0
    8.9275    0.2256   -0.8454 H   0  0  0  0  0  0  0  0  0  0  0  0
    7.7743    1.4526   -0.2379 H   0  0  0  0  0  0  0  0  0  0  0  0
    7.2147   -0.8673    0.6569 H   0  0  0  0  0  0  0  0  0  0  0  0
    7.0653   -1.4760   -1.0002 H   0  0  0  0  0  0  0  0  0  0  0  0
    5.1636    0.1374   -1.4209 H   0  0  0  0  0  0  0  0  0  0  0  0
    5.3119    0.7456    0.2360 H   0  0  0  0  0  0  0  0  0  0  0  0
    4.6163   -2.1784   -0.5264 H   0  0  0  0  0  0  0  0  0  0  0  0
    4.7764   -1.5750    1.1343 H   0  0  0  0  0  0  0  0  0  0  0  0
    0.0176   -2.5432    1.3914 C   0  0  0  0  0  0  0  0  0  0  0  0
    0.5866   -3.9807    2.1229 Cl  0  0  0  0  0  0  0  0  0  0  0  0
    1.3298    2.0660    1.5463 C   0  0  0  0  0  0  0  0  0  0  0  0
    2.5857    3.0124    2.2191 Cl  0  0  0  0  0  0  0  0  0  0  0  0
  3 12  1  0  0  0  0
  4  7  1  0  0  0  0
  5  8  1  0  0  0  0
  6 17  1  0  0  0  0
  7 10  1  0  0  0  0
  8 11  1  0  0  0  0
  9  6  1  0  0  0  0
 10  1  1  0  0  0  0
 11 51  2  0  0  0  0
 11  2  1  0  0  0  0
 12 32  2  0  0  0  0
 12  9  1  0  0  0  0
 13 19  1  0  0  0  0
 14 15  1  0  0  0  0
 14 13  1  0  0  0  0
 14 21  1  0  0  0  0
 15 22  1  0  0  0  0
 16 25  1  0  0  0  0
 16 15  1  0  0  0  0
 16 26  1  0  0  0  0
 17 13  1  6  0  0  0
 17  5  1  0  0  0  0
 17  4  1  0  0  0  0
 18 13  1  0  0  0  0
 20 14  1  0  0  0  0
 23 15  1  0  0  0  0
 24 16  1  0  0  0  0
 27 51  1  0  0  0  0
 28 27  1  0  0  0  0
 29 36  1  1  0  0  0
 29 30  1  0  0  0  0
 29 28  1  0  0  0  0
 30 31  1  0  0  0  0
 31 49  1  0  0  0  0
 32 34  1  0  0  0  0
 33 32  1  0  0  0  0
 34 35  1  0  0  0  0
 35 29  1  0  0  0  0
 36 48  1  0  0  0  0
 37 38  1  0  0  0  0
 37 36  1  0  0  0  0
 37 46  1  0  0  0  0
 38 43  1  0  0  0  0
 39 41  1  0  0  0  0
 39 38  1  0  0  0  0
 39 42  1  0  0  0  0
 40 39  1  0  0  0  0
 44 38  1  0  0  0  0
 45 37  1  0  0  0  0
 47 36  1  0  0  0  0
 49 10  2  0  0  0  0
 49 50  1  0  0  0  0
 51 52  1  0  0  0  0
M  END
