2,3,5,6,8,9
 OpenBabel05122313063D

 58 60  0  0  0  0  0  0  0  0999 V2000
   -0.0069    0.0078    3.5402 N   0  0  0  0  0  0  0  0  0  0  0  0
   -0.3008    1.6611    1.0352 N   0  0  0  0  0  2  0  0  0  0  0  0
    1.1209    1.1198   -1.0347 N   0  0  0  0  0  0  0  0  0  0  0  0
    2.4551    2.2739   -2.4355 N   0  0  0  0  0  0  0  0  0  0  0  0
    1.5838   -0.5685    1.0438 N   0  0  0  0  0  2  0  0  0  0  0  0
    0.4140   -1.5331   -1.0299 N   0  0  0  0  0  0  0  0  0  0  0  0
    0.7551   -3.2663   -2.4276 N   0  0  0  0  0  0  0  0  0  0  0  0
   -1.2899   -1.0856    1.0396 N   0  0  0  0  0  2  0  0  0  0  0  0
   -1.5301    0.4058   -1.0379 N   0  0  0  0  0  0  0  0  0  0  0  0
   -0.5427    1.3433    3.5048 C   0  0  0  0  0  0  0  0  0  0  0  0
    0.2793    2.0461    3.7606 H   0  0  0  0  0  0  0  0  0  0  0  0
   -1.3232    1.4762    4.2948 H   0  0  0  0  0  0  0  0  0  0  0  0
   -1.1807    1.8045    2.1721 C   0  0  0  0  0  0  0  0  0  0  0  0
   -2.1000    1.2137    1.9779 H   0  0  0  0  0  0  0  0  0  0  0  0
   -1.4972    2.8660    2.2883 H   0  0  0  0  0  0  0  0  0  0  0  0
    0.3076    2.7016    0.5058 C   0  0  0  0  0  3  0  0  0  0  0  0
    0.1669    3.7154    0.9261 H   0  0  0  0  0  0  0  0  0  0  0  0
    1.1262    2.4493   -0.6231 C   0  0  0  0  0  3  0  0  0  0  0  0
    1.9698    3.1530   -1.5209 C   0  0  0  0  0  0  0  0  0  0  0  0
    2.3248    4.6056   -1.5321 C   0  0  0  0  0  0  0  0  0  0  0  0
    2.0835    5.0596   -2.5150 H   0  0  0  0  0  0  0  0  0  0  0  0
    3.4145    4.7485   -1.3760 H   0  0  0  0  0  0  0  0  0  0  0  0
    1.7861    5.1694   -0.7462 H   0  0  0  0  0  0  0  0  0  0  0  0
    1.9214    1.0689   -2.1121 C   0  0  0  0  0  0  0  0  0  0  0  0
    2.1094    0.1405   -2.6679 H   0  0  0  0  0  0  0  0  0  0  0  0
    1.4178   -0.1959    3.5119 C   0  0  0  0  0  0  0  0  0  0  0  0
    1.6142   -1.2588    3.7704 H   0  0  0  0  0  0  0  0  0  0  0  0
    1.9193    0.4148    4.3034 H   0  0  0  0  0  0  0  0  0  0  0  0
    2.1424    0.1240    2.1821 C   0  0  0  0  0  0  0  0  0  0  0  0
    2.0910    1.2151    1.9858 H   0  0  0  0  0  0  0  0  0  0  0  0
    3.2195   -0.1321    2.3039 H   0  0  0  0  0  0  0  0  0  0  0  0
    2.1839   -1.6159    0.5185 C   0  0  0  0  0  3  0  0  0  0  0  0
    3.1305   -1.9997    0.9436 H   0  0  0  0  0  0  0  0  0  0  0  0
    1.5616   -2.2007   -0.6123 C   0  0  0  0  0  3  0  0  0  0  0  0
    1.7547   -3.2837   -1.5082 C   0  0  0  0  0  0  0  0  0  0  0  0
    2.8361   -4.3165   -1.5131 C   0  0  0  0  0  0  0  0  0  0  0  0
    3.5943   -4.1255   -0.7294 H   0  0  0  0  0  0  0  0  0  0  0  0
    3.3487   -4.3410   -2.4965 H   0  0  0  0  0  0  0  0  0  0  0  0
    2.4163   -5.3310   -1.3492 H   0  0  0  0  0  0  0  0  0  0  0  0
   -0.0244   -2.2023   -2.1089 C   0  0  0  0  0  0  0  0  0  0  0  0
   -0.9202   -1.9026   -2.6691 H   0  0  0  0  0  0  0  0  0  0  0  0
   -0.8955   -1.1242    3.5096 C   0  0  0  0  0  0  0  0  0  0  0  0
   -1.9153   -0.7626    3.7629 H   0  0  0  0  0  0  0  0  0  0  0  0
   -0.6208   -1.8626    4.3034 H   0  0  0  0  0  0  0  0  0  0  0  0
   -0.9747   -1.9138    2.1806 C   0  0  0  0  0  0  0  0  0  0  0  0
   -0.0033   -2.4153    1.9894 H   0  0  0  0  0  0  0  0  0  0  0  0
   -1.7357   -2.7182    2.3003 H   0  0  0  0  0  0  0  0  0  0  0  0
   -2.4947   -1.0817    0.5092 C   0  0  0  0  0  3  0  0  0  0  0  0
   -3.3026   -1.7084    0.9318 H   0  0  0  0  0  0  0  0  0  0  0  0
   -2.6845   -0.2524   -0.6241 C   0  0  0  0  0  3  0  0  0  0  0  0
   -3.7146    0.1208   -1.5254 C   0  0  0  0  0  0  0  0  0  0  0  0
   -5.1500   -0.2981   -1.5358 C   0  0  0  0  0  0  0  0  0  0  0  0
   -5.4242   -0.7287   -2.5206 H   0  0  0  0  0  0  0  0  0  0  0  0
   -5.8188    0.5731   -1.3735 H   0  0  0  0  0  0  0  0  0  0  0  0
   -5.3672   -1.0507   -0.7534 H   0  0  0  0  0  0  0  0  0  0  0  0
   -1.8851    1.1182   -2.1199 C   0  0  0  0  0  0  0  0  0  0  0  0
   -1.1745    1.7422   -2.6784 H   0  0  0  0  0  0  0  0  0  0  0  0
   -3.1950    0.9755   -2.4442 N   0  0  0  0  0  0  0  0  0  0  0  0
  2 13  1  0  0  0  0
  3 18  1  0  0  0  0
  4 24  1  0  0  0  0
  4 19  2  0  0  0  0
  5 29  1  0  0  0  0
  6 34  1  0  0  0  0
  7 40  1  0  0  0  0
  7 35  2  0  0  0  0
  8 45  1  0  0  0  0
  9 50  1  0  0  0  0
 10  1  1  0  0  0  0
 10 11  1  0  0  0  0
 10 12  1  0  0  0  0
 13 15  1  0  0  0  0
 13 10  1  0  0  0  0
 14 13  1  0  0  0  0
 16 17  1  0  0  0  0
 16  2  1  0  0  0  0
 18 16  1  0  0  0  0
 19 18  1  0  0  0  0
 20 19  1  0  0  0  0
 20 22  1  0  0  0  0
 20 23  1  0  0  0  0
 21 20  1  0  0  0  0
 24  3  2  0  0  0  0
 25 24  1  0  0  0  0
 26  1  1  0  0  0  0
 26 27  1  0  0  0  0
 26 28  1  0  0  0  0
 29 31  1  0  0  0  0
 29 26  1  0  0  0  0
 30 29  1  0  0  0  0
 32 33  1  0  0  0  0
 32  5  1  0  0  0  0
 34 32  1  0  0  0  0
 35 34  1  0  0  0  0
 36 35  1  0  0  0  0
 36 39  1  0  0  0  0
 36 37  1  0  0  0  0
 38 36  1  0  0  0  0
 40  6  2  0  0  0  0
 41 40  1  0  0  0  0
 42  1  1  0  0  0  0
 42 43  1  0  0  0  0
 42 44  1  0  0  0  0
 45 47  1  0  0  0  0
 45 42  1  0  0  0  0
 46 45  1  0  0  0  0
 48 49  1  0  0  0  0
 48  8  1  0  0  0  0
 50 48  1  0  0  0  0
 51 50  1  0  0  0  0
 52 51  1  0  0  0  0
 52 54  1  0  0  0  0
 52 55  1  0  0  0  0
 53 52  1  0  0  0  0
 56  9  2  0  0  0  0
 57 56  1  0  0  0  0
 58 56  1  0  0  0  0
 58 51  2  0  0  0  0
M  END
