7,8,9,10,11,12
 OpenBabel05122313063D

 46 49  0  0  0  0  0  0  0  0999 V2000
    2.5419    1.0358   -0.9636 O   0  0  0  0  0  0  0  0  0  0  0  0
   -2.5394    1.3500   -0.4241 O   0  0  0  0  0  0  0  0  0  0  0  0
    2.5394   -1.3471   -0.4320 O   0  0  0  0  0  0  0  0  0  0  0  0
   -2.5419   -1.0298   -0.9697 O   0  0  0  0  0  0  0  0  0  0  0  0
    2.5414    0.3057    1.3626 O   0  0  0  0  0  0  0  0  0  0  0  0
   -2.5413   -0.3135    1.3607 O   0  0  0  0  0  0  0  0  0  0  0  0
    1.2109    1.1774   -0.9331 N   0  0  0  0  0  2  0  0  0  0  0  0
   -1.2083    1.3946   -0.5569 N   0  0  0  0  0  2  0  0  0  0  0  0
    1.2083   -1.3910   -0.5651 N   0  0  0  0  0  2  0  0  0  0  0  0
   -1.2109   -1.1715   -0.9400 N   0  0  0  0  0  2  0  0  0  0  0  0
    1.2098    0.2120    1.4711 N   0  0  0  0  0  2  0  0  0  0  0  0
   -1.2097   -0.2205    1.4698 N   0  0  0  0  0  2  0  0  0  0  0  0
    7.4978    0.0048    0.0524 N   0  0  0  0  0  0  0  0  0  0  0  0
   -7.4978   -0.0062    0.0523 N   0  0  0  0  0  0  0  0  0  0  0  0
    0.7032    2.2938   -1.4372 C   0  0  0  0  0  0  0  0  0  0  0  0
    1.3542    3.0456   -1.9052 H   0  0  0  0  0  0  0  0  0  0  0  0
   -0.6992    2.3930   -1.2659 C   0  0  0  0  0  0  0  0  0  0  0  0
   -1.3497    3.1758   -1.6806 H   0  0  0  0  0  0  0  0  0  0  0  0
    0.6991   -2.3852   -1.2799 C   0  0  0  0  0  0  0  0  0  0  0  0
    1.3497   -3.1655   -1.6992 H   0  0  0  0  0  0  0  0  0  0  0  0
   -0.7033   -2.2850   -1.4506 C   0  0  0  0  0  0  0  0  0  0  0  0
   -1.3543   -3.0340   -1.9231 H   0  0  0  0  0  0  0  0  0  0  0  0
    0.7016    0.0901    2.6895 C   0  0  0  0  0  0  0  0  0  0  0  0
    1.3532    0.1174    3.5743 H   0  0  0  0  0  0  0  0  0  0  0  0
   -0.7015   -0.1061    2.6889 C   0  0  0  0  0  0  0  0  0  0  0  0
   -1.3531   -0.1389    3.5735 H   0  0  0  0  0  0  0  0  0  0  0  0
    4.6514   -0.0059   -0.0104 C   0  0  0  0  0  0  0  0  0  0  0  0
    5.3932   -1.1869    0.1911 C   0  0  0  0  0  0  0  0  0  0  0  0
    4.8799   -2.1521    0.3237 H   0  0  0  0  0  0  0  0  0  0  0  0
    6.7957   -1.1288    0.2141 C   0  0  0  0  0  0  0  0  0  0  0  0
    7.3855   -2.0509    0.3711 H   0  0  0  0  0  0  0  0  0  0  0  0
    6.7952    1.1329   -0.1424 C   0  0  0  0  0  0  0  0  0  0  0  0
    7.3845    2.0588   -0.2768 H   0  0  0  0  0  0  0  0  0  0  0  0
    5.3926    1.1803   -0.1817 C   0  0  0  0  0  0  0  0  0  0  0  0
    4.8790    2.1393   -0.3522 H   0  0  0  0  0  0  0  0  0  0  0  0
   -4.6514    0.0060   -0.0102 C   0  0  0  0  0  0  0  0  0  0  0  0
   -5.3920   -1.1805   -0.1820 C   0  0  0  0  0  0  0  0  0  0  0  0
   -4.8779   -2.1392   -0.3528 H   0  0  0  0  0  0  0  0  0  0  0  0
   -6.7946   -1.1338   -0.1428 C   0  0  0  0  0  0  0  0  0  0  0  0
   -7.3834   -2.0600   -0.2775 H   0  0  0  0  0  0  0  0  0  0  0  0
   -6.7963    1.1278    0.2144 C   0  0  0  0  0  0  0  0  0  0  0  0
   -7.3866    2.0495    0.3716 H   0  0  0  0  0  0  0  0  0  0  0  0
   -5.3938    1.1866    0.1915 C   0  0  0  0  0  0  0  0  0  0  0  0
   -4.8810    2.1520    0.3245 H   0  0  0  0  0  0  0  0  0  0  0  0
    3.0598   -0.0044   -0.0157 B   0  0  2  0  0  0  0  0  0  0  0  0
   -3.0598    0.0049   -0.0156 B   0  0  1  0  0  0  0  0  0  0  0  0
  1  7  1  0  0  0  0
  1 45  1  0  0  0  0
  2 46  1  0  0  0  0
  3 45  1  0  0  0  0
  4 10  1  0  0  0  0
  4 46  1  0  0  0  0
  5 11  1  0  0  0  0
  6 12  1  0  0  0  0
  8  2  1  0  0  0  0
  9  3  1  0  0  0  0
 11 23  1  0  0  0  0
 12 25  1  0  0  0  0
 13 30  1  0  0  0  0
 14 41  1  0  0  0  0
 15 17  2  0  0  0  0
 15  7  1  0  0  0  0
 16 15  1  0  0  0  0
 17  8  1  0  0  0  0
 18 17  1  0  0  0  0
 19  9  1  0  0  0  0
 20 19  1  0  0  0  0
 21 19  2  0  0  0  0
 21 10  1  0  0  0  0
 22 21  1  0  0  0  0
 23 24  1  0  0  0  0
 25 23  2  0  0  0  0
 25 26  1  0  0  0  0
 27 28  1  0  0  0  0
 28 30  2  0  0  0  0
 28 29  1  0  0  0  0
 30 31  1  0  0  0  0
 32 13  2  0  0  0  0
 33 32  1  0  0  0  0
 34 32  1  0  0  0  0
 34 27  2  0  0  0  0
 35 34  1  0  0  0  0
 36 43  1  0  0  0  0
 37 39  1  0  0  0  0
 37 36  2  0  0  0  0
 38 37  1  0  0  0  0
 39 14  2  0  0  0  0
 40 39  1  0  0  0  0
 41 42  1  0  0  0  0
 43 41  2  0  0  0  0
 43 44  1  0  0  0  0
 45 27  1  6  0  0  0
 45  5  1  0  0  0  0
 46 36  1  6  0  0  0
 46  6  1  0  0  0  0
M  END
