1,2,3,4,5,6
q = 0.0, confidence = 0.956

 59 62  0  0  1  0  0  0  0  0999 V2000
   -1.7955    1.5436    1.5685 N   0  0  0  0  0  0  0  0  0  0  0  0
    1.7951    1.5434    1.5689 N   0  0  0  0  0  0  0  0  0  0  0  0
   -1.6869   -1.3919    1.4068 N   0  0  0  0  0  2  0  0  0  0  0  0
   -2.6651    0.1440   -0.9468 N   0  0  0  0  0  2  0  0  0  0  0  0
    1.6866   -1.3923    1.4069 N   0  0  0  0  0  2  0  0  0  0  0  0
    2.6650    0.1441   -0.9465 N   0  0  0  0  0  2  0  0  0  0  0  0
   -3.8972   -2.7548    2.4836 N   0  0  0  0  0  0  0  0  0  0  0  0
   -5.4584   -0.0747   -1.2379 N   0  0  0  0  0  0  0  0  0  0  0  0
    3.8973   -2.7547    2.4835 N   0  0  0  0  0  0  0  0  0  0  0  0
    5.4584   -0.0743   -1.2376 N   0  0  0  0  0  0  0  0  0  0  0  0
   -2.2608    0.6483    2.6496 C   0  0  0  0  0  0  0  0  0  0  0  0
   -3.1546    1.0798    3.1594 H   0  0  0  0  0  0  0  0  0  0  0  0
   -1.4630    0.6039    3.4212 H   0  0  0  0  0  0  0  0  0  0  0  0
   -2.5538   -0.7699    2.2374 C   0  0  2  0  0  3  0  0  0  0  0  0
   -3.6649   -1.4655    2.7554 C   0  0  0  0  0  0  0  0  0  0  0  0
   -4.3895   -0.9479    3.4088 H   0  0  0  0  0  0  0  0  0  0  0  0
   -3.0179   -3.3696    1.6817 C   0  0  0  0  0  0  0  0  0  0  0  0
   -3.1915   -4.4340    1.4504 H   0  0  0  0  0  0  0  0  0  0  0  0
   -1.9184   -2.6907    1.1294 C   0  0  0  0  0  0  0  0  0  0  0  0
   -1.2335   -3.1817    0.4186 H   0  0  0  0  0  0  0  0  0  0  0  0
   -2.9324    1.9468    0.6990 C   0  0  0  0  0  0  0  0  0  0  0  0
   -2.5453    2.7477    0.0293 H   0  0  0  0  0  0  0  0  0  0  0  0
   -3.7447    2.3940    1.3185 H   0  0  0  0  0  0  0  0  0  0  0  0
   -3.5102    0.8887   -0.1950 C   0  0  1  0  0  3  0  0  0  0  0  0
   -4.9048    0.7505   -0.3416 C   0  0  0  0  0  0  0  0  0  0  0  0
   -5.5894    1.3371    0.2966 H   0  0  0  0  0  0  0  0  0  0  0  0
   -4.6138   -0.7683   -2.0118 C   0  0  0  0  0  0  0  0  0  0  0  0
   -5.0480   -1.4387   -2.7726 H   0  0  0  0  0  0  0  0  0  0  0  0
   -3.2192   -0.6753   -1.8624 C   0  0  0  0  0  0  0  0  0  0  0  0
   -2.5295   -1.2830   -2.4702 H   0  0  0  0  0  0  0  0  0  0  0  0
    2.2599    0.6479    2.6501 C   0  0  0  0  0  0  0  0  0  0  0  0
    1.4617    0.6033    3.4212 H   0  0  0  0  0  0  0  0  0  0  0  0
    3.1534    1.0794    3.1605 H   0  0  0  0  0  0  0  0  0  0  0  0
    2.5533   -0.7702    2.2377 C   0  0  1  0  0  3  0  0  0  0  0  0
    3.6646   -1.4656    2.7556 C   0  0  0  0  0  0  0  0  0  0  0  0
    4.3890   -0.9479    3.4091 H   0  0  0  0  0  0  0  0  0  0  0  0
    3.0181   -3.3696    1.6814 C   0  0  0  0  0  0  0  0  0  0  0  0
    3.1921   -4.4339    1.4499 H   0  0  0  0  0  0  0  0  0  0  0  0
    1.9185   -2.6909    1.1293 C   0  0  0  0  0  0  0  0  0  0  0  0
    1.2338   -3.1820    0.4184 H   0  0  0  0  0  0  0  0  0  0  0  0
    2.9324    1.9465    0.6998 C   0  0  0  0  0  0  0  0  0  0  0  0
    3.7446    2.3933    1.3196 H   0  0  0  0  0  0  0  0  0  0  0  0
    2.5456    2.7477    0.0302 H   0  0  0  0  0  0  0  0  0  0  0  0
    3.5102    0.8886   -0.1944 C   0  0  2  0  0  3  0  0  0  0  0  0
    4.9048    0.7504   -0.3409 C   0  0  0  0  0  0  0  0  0  0  0  0
    5.5893    1.3365    0.2976 H   0  0  0  0  0  0  0  0  0  0  0  0
    4.6139   -0.7676   -2.0119 C   0  0  0  0  0  0  0  0  0  0  0  0
    5.0481   -1.4375   -2.7731 H   0  0  0  0  0  0  0  0  0  0  0  0
    3.2192   -0.6747   -1.8625 C   0  0  0  0  0  0  0  0  0  0  0  0
    2.5296   -1.2823   -2.4704 H   0  0  0  0  0  0  0  0  0  0  0  0
   -1.2967    2.8108    2.1799 C   0  0  0  0  0  0  0  0  0  0  0  0
   -2.1057    3.2187    2.8317 H   0  0  0  0  0  0  0  0  0  0  0  0
   -1.1604    3.5305    1.3481 H   0  0  0  0  0  0  0  0  0  0  0  0
   -0.0003    2.7459    2.9836 C   0  0  0  0  0  0  0  0  0  0  0  0
   -0.0005    1.9037    3.7091 H   0  0  0  0  0  0  0  0  0  0  0  0
   -0.0003    3.6476    3.6294 H   0  0  0  0  0  0  0  0  0  0  0  0
    1.2963    2.8106    2.1802 C   0  0  0  0  0  0  0  0  0  0  0  0
    1.1603    3.5303    1.3484 H   0  0  0  0  0  0  0  0  0  0  0  0
    2.1052    3.2184    2.8322 H   0  0  0  0  0  0  0  0  0  0  0  0
  1 51  1  0  0  0  0
  1 11  1  0  0  0  0
  2 57  1  0  0  0  0
  2 31  1  0  0  0  0
  3 14  1  0  0  0  0
  4 24  1  0  0  0  0
  5 34  1  0  0  0  0
  6 44  1  0  0  0  0
  7 15  2  0  0  0  0
  8 25  2  0  0  0  0
  9 35  2  0  0  0  0
 10 45  2  0  0  0  0
 11 12  1  0  0  0  0
 11 13  1  0  0  0  0
 14 11  1  1  0  0  0
 14 15  1  0  0  0  0
 15 16  1  0  0  0  0
 17  7  1  0  0  0  0
 18 17  1  0  0  0  0
 19  3  1  0  0  0  0
 19 17  2  0  0  0  0
 20 19  1  0  0  0  0
 21 23  1  0  0  0  0
 21  1  1  0  0  0  0
 22 21  1  0  0  0  0
 24 21  1  6  0  0  0
 25 24  1  0  0  0  0
 25 26  1  0  0  0  0
 27 29  2  0  0  0  0
 27  8  1  0  0  0  0
 28 27  1  0  0  0  0
 29  4  1  0  0  0  0
 30 29  1  0  0  0  0
 31 33  1  0  0  0  0
 31 32  1  0  0  0  0
 34 31  1  1  0  0  0
 34 35  1  0  0  0  0
 35 36  1  0  0  0  0
 37  9  1  0  0  0  0
 38 37  1  0  0  0  0
 39  5  1  0  0  0  0
 39 37  2  0  0  0  0
 40 39  1  0  0  0  0
 41 42  1  0  0  0  0
 41  2  1  0  0  0  0
 43 41  1  0  0  0  0
 44 41  1  6  0  0  0
 45 44  1  0  0  0  0
 45 46  1  0  0  0  0
 47 49  2  0  0  0  0
 47 10  1  0  0  0  0
 48 47  1  0  0  0  0
 49  6  1  0  0  0  0
 50 49  1  0  0  0  0
 51 52  1  0  0  0  0
 51 54  1  0  0  0  0
 53 51  1  0  0  0  0
 54 56  1  0  0  0  0
 54 55  1  0  0  0  0
 57 59  1  0  0  0  0
 57 54  1  0  0  0  0
 58 57  1  0  0  0  0
M  END
