15,16,17,18,19,20
q = -2.0, confidence = 0.77

 52 53  0  0  1  0  0  0  0  0999 V2000
    2.3874   -3.5427   -1.6484 S   0  0  0  0  0  0  0  0  0  0  0  0
    1.8713    3.8395   -1.6503 S   0  0  0  0  0  0  0  0  0  0  0  0
   -4.2634   -0.2985   -1.6437 S   0  0  0  0  0  0  0  0  0  0  0  0
    2.4327   -3.5124    1.6467 S   0  0  0  0  0  0  0  0  0  0  0  0
    1.8297    3.8617    1.6447 S   0  0  0  0  0  0  0  0  0  0  0  0
   -4.2567   -0.3474    1.6515 S   0  0  0  0  0  0  0  0  0  0  0  0
   -0.0040   -0.0017   -4.3972 F   0  0  0  0  0  0  0  0  0  0  0  0
    0.0039    0.0015    4.3972 F   0  0  0  0  0  0  0  0  0  0  0  0
    0.5801   -1.3060   -2.5702 O   0  0  0  0  0  0  0  0  0  0  0  0
    0.8363    1.1559   -2.5713 O   0  0  0  0  0  0  0  0  0  0  0  0
   -1.4238    0.1468   -2.5689 O   0  0  0  0  0  0  0  0  0  0  0  0
    1.0058   -1.0164    2.5696 O   0  0  0  0  0  0  0  0  0  0  0  0
    0.3814    1.3786    2.5692 O   0  0  0  0  0  0  0  0  0  0  0  0
   -1.3805   -0.3598    2.5715 O   0  0  0  0  0  0  0  0  0  0  0  0
    0.6663   -1.4280   -1.2315 N   0  0  0  0  0  2  0  0  0  0  0  0
    0.9013    1.2913   -1.2326 N   0  0  0  0  0  2  0  0  0  0  0  0
   -1.5711    0.1349   -1.2300 N   0  0  0  0  0  2  0  0  0  0  0  0
    1.0877   -1.1407    1.2308 N   0  0  0  0  0  2  0  0  0  0  0  0
    0.4458    1.5121    1.2303 N   0  0  0  0  0  2  0  0  0  0  0  0
   -1.5305   -0.3704    1.2329 N   0  0  0  0  0  2  0  0  0  0  0  0
   -0.0029   -0.0012   -3.0424 B   0  0  1  0  0  0  0  0  0  0  0  0
    0.0026    0.0010    3.0424 B   0  0  2  0  0  0  0  0  0  0  0  0
    1.4824   -2.3596   -0.7159 C   0  0  2  0  0  3  0  0  0  0  0  0
    1.6589   -2.2393    0.7147 C   0  0  2  0  0  3  0  0  0  0  0  0
   -2.7854   -0.1051   -0.7128 C   0  0  2  0  0  3  0  0  0  0  0  0
   -2.7681   -0.3161    0.7180 C   0  0  2  0  0  3  0  0  0  0  0  0
    1.3011    2.4636   -0.7174 C   0  0  2  0  0  3  0  0  0  0  0  0
    1.1113    2.5559    0.7135 C   0  0  2  0  0  3  0  0  0  0  0  0
    1.1327   -4.1718   -2.8174 C   0  0  0  0  0  0  0  0  0  0  0  0
    3.0398    3.0683   -2.8235 C   0  0  0  0  0  0  0  0  0  0  0  0
   -4.1824    1.1015   -2.8141 C   0  0  0  0  0  0  0  0  0  0  0  0
    3.4756   -2.5721    2.8149 C   0  0  0  0  0  0  0  0  0  0  0  0
    0.4971    4.2945    2.8166 C   0  0  0  0  0  0  0  0  0  0  0  0
   -3.9631   -1.7180    2.8228 C   0  0  0  0  0  0  0  0  0  0  0  0
    1.6367   -4.9982   -3.3536 H   0  0  0  0  0  0  0  0  0  0  0  0
    0.8159   -3.3865   -3.5267 H   0  0  0  0  0  0  0  0  0  0  0  0
    0.2599   -4.5711   -2.2666 H   0  0  0  0  0  0  0  0  0  0  0  0
    3.8231    2.5106   -2.2757 H   0  0  0  0  0  0  0  0  0  0  0  0
    3.5027    3.9184   -3.3596 H   0  0  0  0  0  0  0  0  0  0  0  0
    2.5158    2.4027   -3.5324 H   0  0  0  0  0  0  0  0  0  0  0  0
   -3.3443    0.9830   -3.5240 H   0  0  0  0  0  0  0  0  0  0  0  0
   -4.0919    2.0576   -2.2643 H   0  0  0  0  0  0  0  0  0  0  0  0
   -5.1504    1.0772   -3.3496 H   0  0  0  0  0  0  0  0  0  0  0  0
    4.1646   -1.9044    2.2636 H   0  0  0  0  0  0  0  0  0  0  0  0
    4.0625   -3.3419    3.3510 H   0  0  0  0  0  0  0  0  0  0  0  0
    2.8597   -1.9913    3.5245 H   0  0  0  0  0  0  0  0  0  0  0  0
   -0.4272    4.5575    2.2679 H   0  0  0  0  0  0  0  0  0  0  0  0
    0.8718    5.1876    3.3519 H   0  0  0  0  0  0  0  0  0  0  0  0
    0.3041    3.4705    3.5265 H   0  0  0  0  0  0  0  0  0  0  0  0
   -3.7289   -2.6497    2.2736 H   0  0  0  0  0  0  0  0  0  0  0  0
   -3.1522   -1.4729    3.5317 H   0  0  0  0  0  0  0  0  0  0  0  0
   -4.9231   -1.8405    3.3592 H   0  0  0  0  0  0  0  0  0  0  0  0
  4 32  1  0  0  0  0
  5 33  1  0  0  0  0
  6 34  1  0  0  0  0
  9 15  1  0  0  0  0
 10 16  1  0  0  0  0
 11 17  1  0  0  0  0
 12 22  1  0  0  0  0
 13 22  1  0  0  0  0
 14 22  1  0  0  0  0
 15 23  1  0  0  0  0
 16 27  1  0  0  0  0
 17 25  1  0  0  0  0
 18 12  1  0  0  0  0
 19 13  1  0  0  0  0
 20 14  1  0  0  0  0
 21  7  1  6  0  0  0
 21 10  1  0  0  0  0
 21  9  1  0  0  0  0
 21 11  1  0  0  0  0
 22  8  1  1  0  0  0
 23  1  1  6  0  0  0
 23 24  1  0  0  0  0
 24 18  1  0  0  0  0
 24  4  1  1  0  0  0
 25  3  1  6  0  0  0
 25 26  1  0  0  0  0
 26 20  1  0  0  0  0
 26  6  1  1  0  0  0
 27  2  1  6  0  0  0
 27 28  1  0  0  0  0
 28 19  1  0  0  0  0
 28  5  1  1  0  0  0
 29 37  1  0  0  0  0
 29  1  1  0  0  0  0
 30 38  1  0  0  0  0
 30  2  1  0  0  0  0
 31 42  1  0  0  0  0
 31  3  1  0  0  0  0
 32 45  1  0  0  0  0
 32 46  1  0  0  0  0
 33 48  1  0  0  0  0
 33 49  1  0  0  0  0
 34 52  1  0  0  0  0
 34 51  1  0  0  0  0
 35 29  1  0  0  0  0
 36 29  1  0  0  0  0
 39 30  1  0  0  0  0
 40 30  1  0  0  0  0
 41 31  1  0  0  0  0
 43 31  1  0  0  0  0
 44 32  1  0  0  0  0
 47 33  1  0  0  0  0
 50 34  1  0  0  0  0
M  END
