6,7,8,40,41,51
q = -2.0, confidence = 0.75

 76 81  0  0  1  0  0  0  0  0999 V2000
    0.2595    4.7416   -1.6151 S   0  0  0  0  0  0  0  0  0  0  0  0
    0.1258    0.5433   -4.3582 F   0  0  0  0  0  0  0  0  0  0  0  0
    0.9925   -0.5214   -2.4760 O   0  0  0  0  0  0  0  0  0  0  0  0
    1.3107    0.2795    2.5431 O   0  0  0  0  0  0  0  0  0  0  0  0
    0.5329    1.8789   -2.4990 O   0  0  0  0  0  0  0  0  0  0  0  0
    1.1519   -0.4826   -1.1423 N   0  0  0  0  0  2  0  0  0  0  0  0
    1.4106    0.0857    1.2176 N   0  0  0  0  0  2  0  0  0  0  0  0
    0.3690    2.0162   -1.1722 N   0  0  0  0  0  2  0  0  0  0  0  0
    0.0858    0.5423   -3.0050 B   0  0  1  0  0  0  0  0  0  0  0  0
    2.3082   -0.9295   -0.6454 C   0  0  2  0  0  3  0  0  0  0  0  0
    2.4028   -0.6949    0.7815 C   0  0  2  0  0  3  0  0  0  0  0  0
    3.3938   -1.4950   -1.4708 C   0  0  0  0  0  0  0  0  0  0  0  0
    3.1287   -2.4099   -2.5153 C   0  0  0  0  0  0  0  0  0  0  0  0
    2.0923   -2.6984   -2.7334 H   0  0  0  0  0  0  0  0  0  0  0  0
    4.1807   -2.9470   -3.2679 C   0  0  0  0  0  0  0  0  0  0  0  0
    3.9600   -3.6623   -4.0745 H   0  0  0  0  0  0  0  0  0  0  0  0
    5.5079   -2.5736   -3.0017 C   0  0  0  0  0  0  0  0  0  0  0  0
    6.3310   -2.9948   -3.5986 H   0  0  0  0  0  0  0  0  0  0  0  0
    5.7799   -1.6566   -1.9738 C   0  0  0  0  0  0  0  0  0  0  0  0
    6.8161   -1.3519   -1.7634 H   0  0  0  0  0  0  0  0  0  0  0  0
    4.7338   -1.1239   -1.2110 C   0  0  0  0  0  0  0  0  0  0  0  0
    4.9520   -0.4065   -0.4071 H   0  0  0  0  0  0  0  0  0  0  0  0
    3.4068   -1.3214    1.6642 C   0  0  0  0  0  0  0  0  0  0  0  0
    3.7772   -2.6700    1.4526 C   0  0  0  0  0  0  0  0  0  0  0  0
    3.3019   -3.2427    0.6434 H   0  0  0  0  0  0  0  0  0  0  0  0
    4.7359   -3.2808    2.2697 C   0  0  0  0  0  0  0  0  0  0  0  0
    5.0074   -4.3329    2.0962 H   0  0  0  0  0  0  0  0  0  0  0  0
    5.3463   -2.5550    3.3051 C   0  0  0  0  0  0  0  0  0  0  0  0
    6.1025   -3.0347    3.9450 H   0  0  0  0  0  0  0  0  0  0  0  0
    4.9840   -1.2161    3.5238 C   0  0  0  0  0  0  0  0  0  0  0  0
    5.4555   -0.6425    4.3360 H   0  0  0  0  0  0  0  0  0  0  0  0
    4.0182   -0.6022    2.7164 C   0  0  0  0  0  0  0  0  0  0  0  0
    3.7321    0.4420    2.8972 H   0  0  0  0  0  0  0  0  0  0  0  0
    0.1924    3.2453   -0.6970 C   0  0  0  0  0  0  0  0  0  0  0  0
    1.7301    4.5061   -2.6712 C   0  0  0  0  0  0  0  0  0  0  0  0
    1.8790    5.4849   -3.1654 H   0  0  0  0  0  0  0  0  0  0  0  0
    1.5638    3.7118   -3.4202 H   0  0  0  0  0  0  0  0  0  0  0  0
    2.6154    4.2708   -2.0505 H   0  0  0  0  0  0  0  0  0  0  0  0
   -1.3107    0.2797   -2.5430 O   0  0  0  0  0  0  0  0  0  0  0  0
   -1.4106    0.0858   -1.2175 N   0  0  0  0  0  2  0  0  0  0  0  0
   -1.1519   -0.4828    1.1422 N   0  0  0  0  0  2  0  0  0  0  0  0
   -0.9924   -0.5217    2.4759 O   0  0  0  0  0  0  0  0  0  0  0  0
   -0.0858    0.5419    3.0051 B   0  0  1  0  0  0  0  0  0  0  0  0
   -0.1258    0.5428    4.3582 F   0  0  0  0  0  0  0  0  0  0  0  0
   -0.1924    3.2452    0.6973 C   0  0  0  0  0  0  0  0  0  0  0  0
   -0.2596    4.7415    1.6156 S   0  0  0  0  0  0  0  0  0  0  0  0
   -1.7303    4.5059    2.6716 C   0  0  0  0  0  0  0  0  0  0  0  0
   -1.8793    5.4848    3.1657 H   0  0  0  0  0  0  0  0  0  0  0  0
   -1.5640    3.7116    3.4206 H   0  0  0  0  0  0  0  0  0  0  0  0
   -2.6155    4.2707    2.0507 H   0  0  0  0  0  0  0  0  0  0  0  0
   -0.3690    2.0161    1.1724 N   0  0  0  0  0  2  0  0  0  0  0  0
   -0.5329    1.8786    2.4992 O   0  0  0  0  0  0  0  0  0  0  0  0
   -2.3082   -0.9296    0.6453 C   0  0  2  0  0  3  0  0  0  0  0  0
   -2.4028   -0.6948   -0.7816 C   0  0  2  0  0  3  0  0  0  0  0  0
   -3.4068   -1.3213   -1.6643 C   0  0  0  0  0  0  0  0  0  0  0  0
   -3.7772   -2.6699   -1.4529 C   0  0  0  0  0  0  0  0  0  0  0  0
   -3.3019   -3.2427   -0.6438 H   0  0  0  0  0  0  0  0  0  0  0  0
   -4.7359   -3.2806   -2.2700 C   0  0  0  0  0  0  0  0  0  0  0  0
   -5.0074   -4.3327   -2.0966 H   0  0  0  0  0  0  0  0  0  0  0  0
   -5.3463   -2.5547   -3.3054 C   0  0  0  0  0  0  0  0  0  0  0  0
   -6.1024   -3.0343   -3.9453 H   0  0  0  0  0  0  0  0  0  0  0  0
   -4.9840   -1.2158   -3.5239 C   0  0  0  0  0  0  0  0  0  0  0  0
   -5.4555   -0.6422   -4.3360 H   0  0  0  0  0  0  0  0  0  0  0  0
   -4.0182   -0.6020   -2.7164 C   0  0  0  0  0  0  0  0  0  0  0  0
   -3.7321    0.4423   -2.8972 H   0  0  0  0  0  0  0  0  0  0  0  0
   -3.3938   -1.4952    1.4707 C   0  0  0  0  0  0  0  0  0  0  0  0
   -3.1287   -2.4102    2.5151 C   0  0  0  0  0  0  0  0  0  0  0  0
   -2.0922   -2.6987    2.7332 H   0  0  0  0  0  0  0  0  0  0  0  0
   -4.1807   -2.9474    3.2676 C   0  0  0  0  0  0  0  0  0  0  0  0
   -3.9599   -3.6628    4.0741 H   0  0  0  0  0  0  0  0  0  0  0  0
   -5.5079   -2.5739    3.0014 C   0  0  0  0  0  0  0  0  0  0  0  0
   -6.3309   -2.9952    3.5983 H   0  0  0  0  0  0  0  0  0  0  0  0
   -5.7798   -1.6568    1.9736 C   0  0  0  0  0  0  0  0  0  0  0  0
   -6.8161   -1.3522    1.7632 H   0  0  0  0  0  0  0  0  0  0  0  0
   -4.7338   -1.1241    1.2109 C   0  0  0  0  0  0  0  0  0  0  0  0
   -4.9520   -0.4065    0.4071 H   0  0  0  0  0  0  0  0  0  0  0  0
  1 34  1  0  0  0  0
  3  6  1  0  0  0  0
  4 43  1  0  0  0  0
  5  8  1  0  0  0  0
  6 10  1  0  0  0  0
  7  4  1  0  0  0  0
  8 34  1  0  0  0  0
  9  2  1  6  0  0  0
  9 39  1  0  0  0  0
  9  5  1  0  0  0  0
  9  3  1  0  0  0  0
 10 12  1  6  0  0  0
 10 11  1  0  0  0  0
 11  7  1  0  0  0  0
 11 23  1  1  0  0  0
 12 21  1  0  0  0  0
 13 12  2  0  0  0  0
 14 13  1  0  0  0  0
 15 17  2  0  0  0  0
 15 13  1  0  0  0  0
 16 15  1  0  0  0  0
 17 19  1  0  0  0  0
 18 17  1  0  0  0  0
 19 20  1  0  0  0  0
 19 21  2  0  0  0  0
 21 22  1  0  0  0  0
 23 32  1  0  0  0  0
 24 23  2  0  0  0  0
 24 26  1  0  0  0  0
 25 24  1  0  0  0  0
 26 28  2  0  0  0  0
 27 26  1  0  0  0  0
 28 30  1  0  0  0  0
 28 29  1  0  0  0  0
 30 31  1  0  0  0  0
 32 33  1  0  0  0  0
 32 30  2  0  0  0  0
 34 45  2  0  0  0  0
 35 38  1  0  0  0  0
 35  1  1  0  0  0  0
 36 35  1  0  0  0  0
 37 35  1  0  0  0  0
 39 40  1  0  0  0  0
 40 54  1  0  0  0  0
 41 42  1  0  0  0  0
 42 43  1  0  0  0  0
 43 44  1  1  0  0  0
 45 51  1  0  0  0  0
 45 46  1  0  0  0  0
 46 47  1  0  0  0  0
 47 48  1  0  0  0  0
 47 49  1  0  0  0  0
 50 47  1  0  0  0  0
 51 52  1  0  0  0  0
 52 43  1  0  0  0  0
 53 41  1  0  0  0  0
 53 66  1  1  0  0  0
 54 55  1  6  0  0  0
 54 53  1  0  0  0  0
 55 56  1  0  0  0  0
 56 57  1  0  0  0  0
 58 59  1  0  0  0  0
 58 56  2  0  0  0  0
 60 58  1  0  0  0  0
 61 60  1  0  0  0  0
 62 60  2  0  0  0  0
 62 64  1  0  0  0  0
 63 62  1  0  0  0  0
 64 55  2  0  0  0  0
 65 64  1  0  0  0  0
 66 67  1  0  0  0  0
 67 68  1  0  0  0  0
 67 69  2  0  0  0  0
 69 70  1  0  0  0  0
 71 69  1  0  0  0  0
 71 72  1  0  0  0  0
 73 71  2  0  0  0  0
 74 73  1  0  0  0  0
 75 66  2  0  0  0  0
 75 73  1  0  0  0  0
 76 75  1  0  0  0  0
M  END
