12,13,14,15,16,17
q = -2.0, confidence = 0.86

 82 87  0  0  1  0  0  0  0  0999 V2000
   -0.0012    3.1950   -3.6261 Cl  0  0  0  0  0  0  0  0  0  0  0  0
   -0.0187    2.2012    3.6128 F   0  0  0  0  0  0  0  0  0  0  0  0
   -0.0078   -1.6109   -4.2226 F   0  0  0  0  0  0  0  0  0  0  0  0
   -0.0128    1.6120    2.3915 B   0  0  2  0  0  0  0  0  0  0  0  0
   -0.0087   -1.0221   -3.0054 B   0  0  1  0  0  0  0  0  0  0  0  0
    0.5069    2.5778    1.3845 O   0  0  0  0  0  0  0  0  0  0  0  0
   -0.4455    0.4096   -3.1487 O   0  0  0  0  0  0  0  0  0  0  0  0
   -1.4069    1.1999    2.0325 O   0  0  0  0  0  0  0  0  0  0  0  0
   -0.9505   -1.7429   -2.0972 O   0  0  0  0  0  0  0  0  0  0  0  0
    0.8635    0.3969    2.4231 O   0  0  0  0  0  0  0  0  0  0  0  0
    1.3695   -1.0582   -2.4290 O   0  0  0  0  0  0  0  0  0  0  0  0
    0.3741    2.1270    0.1140 N   0  0  0  0  0  2  0  0  0  0  0  0
   -0.3200    1.1022   -2.0133 N   0  0  0  0  0  2  0  0  0  0  0  0
   -1.4703    0.4367    0.9290 N   0  0  0  0  0  2  0  0  0  0  0  0
   -1.1487   -1.1242   -0.9203 N   0  0  0  0  0  2  0  0  0  0  0  0
    1.0738   -0.1470    1.2130 N   0  0  0  0  0  2  0  0  0  0  0  0
    1.4262   -0.6568   -1.1469 N   0  0  0  0  0  2  0  0  0  0  0  0
    0.3340    4.4058   -0.6659 N   0  0  0  0  0  0  0  0  0  0  0  0
    0.2116    3.0504   -0.8376 C   0  0  1  0  0  3  0  0  0  0  0  0
   -0.1052    2.4032   -2.1009 C   0  0  1  0  0  3  0  0  0  0  0  0
   -2.4647   -0.4510    0.8478 C   0  0  1  0  0  3  0  0  0  0  0  0
   -2.3312   -1.2947   -0.3240 C   0  0  1  0  0  3  0  0  0  0  0  0
    2.2339   -0.7762    1.0071 C   0  0  1  0  0  3  0  0  0  0  0  0
    2.3816   -1.1842   -0.3761 C   0  0  1  0  0  3  0  0  0  0  0  0
   -0.6603    5.3203   -1.2364 C   0  0  0  0  0  0  0  0  0  0  0  0
   -1.2745    5.7461   -0.4093 H   0  0  0  0  0  0  0  0  0  0  0  0
   -1.3578    4.7195   -1.8500 H   0  0  0  0  0  0  0  0  0  0  0  0
   -0.0649    6.4479   -2.0758 C   0  0  0  0  0  0  0  0  0  0  0  0
   -0.8776    7.0617   -2.5124 H   0  0  0  0  0  0  0  0  0  0  0  0
    0.5475    6.0390   -2.9033 H   0  0  0  0  0  0  0  0  0  0  0  0
    0.5713    7.1266   -1.4734 H   0  0  0  0  0  0  0  0  0  0  0  0
    1.3556    4.9659    0.2286 C   0  0  0  0  0  0  0  0  0  0  0  0
    1.9665    5.6814   -0.3671 H   0  0  0  0  0  0  0  0  0  0  0  0
    2.0332    4.1430    0.5177 H   0  0  0  0  0  0  0  0  0  0  0  0
    0.8126    5.6569    1.4777 C   0  0  0  0  0  0  0  0  0  0  0  0
    1.6545    6.0531    2.0799 H   0  0  0  0  0  0  0  0  0  0  0  0
    0.2469    4.9398    2.1024 H   0  0  0  0  0  0  0  0  0  0  0  0
    0.1565    6.5155    1.2283 H   0  0  0  0  0  0  0  0  0  0  0  0
   -3.5077   -0.6183    1.8791 C   0  0  0  0  0  0  0  0  0  0  0  0
   -4.1331    0.4937    2.4878 C   0  0  0  0  0  0  0  0  0  0  0  0
   -3.8300    1.5092    2.2019 H   0  0  0  0  0  0  0  0  0  0  0  0
   -5.1336    0.3033    3.4492 C   0  0  0  0  0  0  0  0  0  0  0  0
   -5.6153    1.1783    3.9110 H   0  0  0  0  0  0  0  0  0  0  0  0
   -5.5178   -0.9931    3.8278 C   0  0  0  0  0  0  0  0  0  0  0  0
   -6.3013   -1.1380    4.5870 H   0  0  0  0  0  0  0  0  0  0  0  0
   -4.8943   -2.1038    3.2370 C   0  0  0  0  0  0  0  0  0  0  0  0
   -5.1830   -3.1235    3.5333 H   0  0  0  0  0  0  0  0  0  0  0  0
   -3.9007   -1.9202    2.2681 C   0  0  0  0  0  0  0  0  0  0  0  0
   -3.4154   -2.7933    1.8090 H   0  0  0  0  0  0  0  0  0  0  0  0
   -3.4047   -2.1564   -0.8571 C   0  0  0  0  0  0  0  0  0  0  0  0
   -4.7427   -1.6983   -0.8371 C   0  0  0  0  0  0  0  0  0  0  0  0
   -4.9680   -0.6982   -0.4401 H   0  0  0  0  0  0  0  0  0  0  0  0
   -5.7776   -2.5039   -1.3266 C   0  0  0  0  0  0  0  0  0  0  0  0
   -6.8121   -2.1293   -1.3111 H   0  0  0  0  0  0  0  0  0  0  0  0
   -5.4964   -3.7818   -1.8359 C   0  0  0  0  0  0  0  0  0  0  0  0
   -6.3108   -4.4161   -2.2176 H   0  0  0  0  0  0  0  0  0  0  0  0
   -4.1710   -4.2448   -1.8611 C   0  0  0  0  0  0  0  0  0  0  0  0
   -3.9430   -5.2436   -2.2627 H   0  0  0  0  0  0  0  0  0  0  0  0
   -3.1299   -3.4397   -1.3825 C   0  0  0  0  0  0  0  0  0  0  0  0
   -2.0943   -3.8027   -1.4130 H   0  0  0  0  0  0  0  0  0  0  0  0
    3.3910   -2.1476   -0.8578 C   0  0  0  0  0  0  0  0  0  0  0  0
    4.0525   -1.9708   -2.0946 C   0  0  0  0  0  0  0  0  0  0  0  0
    3.8030   -1.1068   -2.7240 H   0  0  0  0  0  0  0  0  0  0  0  0
    5.0207   -2.8908   -2.5161 C   0  0  0  0  0  0  0  0  0  0  0  0
    5.5309   -2.7377   -3.4791 H   0  0  0  0  0  0  0  0  0  0  0  0
    5.3367   -4.0045   -1.7213 C   0  0  0  0  0  0  0  0  0  0  0  0
    6.0951   -4.7272   -2.0587 H   0  0  0  0  0  0  0  0  0  0  0  0
    4.6769   -4.1945   -0.4966 C   0  0  0  0  0  0  0  0  0  0  0  0
    4.9116   -5.0688    0.1290 H   0  0  0  0  0  0  0  0  0  0  0  0
    3.7150   -3.2735   -0.0651 C   0  0  0  0  0  0  0  0  0  0  0  0
    3.2005   -3.4278    0.8941 H   0  0  0  0  0  0  0  0  0  0  0  0
    3.2761   -0.9383    2.0399 C   0  0  0  0  0  0  0  0  0  0  0  0
    4.6338   -0.7359    1.6990 C   0  0  0  0  0  0  0  0  0  0  0  0
    4.8976   -0.4447    0.6722 H   0  0  0  0  0  0  0  0  0  0  0  0
    5.6398   -0.8954    2.6593 C   0  0  0  0  0  0  0  0  0  0  0  0
    6.6906   -0.7273    2.3790 H   0  0  0  0  0  0  0  0  0  0  0  0
    5.3095   -1.2667    3.9725 C   0  0  0  0  0  0  0  0  0  0  0  0
    6.1011   -1.3955    4.7262 H   0  0  0  0  0  0  0  0  0  0  0  0
    3.9643   -1.4684    4.3209 C   0  0  0  0  0  0  0  0  0  0  0  0
    3.6978   -1.7558    5.3491 H   0  0  0  0  0  0  0  0  0  0  0  0
    2.9522   -1.3007    3.3674 C   0  0  0  0  0  0  0  0  0  0  0  0
    1.9014   -1.4510    3.6472 H   0  0  0  0  0  0  0  0  0  0  0  0
  4 10  1  0  0  0  0
  4  2  1  1  0  0  0
  5  3  1  6  0  0  0
  5 11  1  0  0  0  0
  5  9  1  0  0  0  0
  6  4  1  0  0  0  0
  7  5  1  0  0  0  0
  7 13  1  0  0  0  0
  8  4  1  0  0  0  0
  9 15  1  0  0  0  0
 11 17  1  0  0  0  0
 12  6  1  0  0  0  0
 14  8  1  0  0  0  0
 15 22  1  0  0  0  0
 16 10  1  0  0  0  0
 17 24  1  0  0  0  0
 18 32  1  0  0  0  0
 19 18  1  6  0  0  0
 19 12  1  0  0  0  0
 20  1  1  6  0  0  0
 20 13  1  0  0  0  0
 20 19  1  0  0  0  0
 21 14  1  0  0  0  0
 21 39  1  1  0  0  0
 22 50  1  6  0  0  0
 22 21  1  0  0  0  0
 23 16  1  0  0  0  0
 23 72  1  6  0  0  0
 24 61  1  1  0  0  0
 24 23  1  0  0  0  0
 25 18  1  0  0  0  0
 25 26  1  0  0  0  0
 27 25  1  0  0  0  0
 28 31  1  0  0  0  0
 28 25  1  0  0  0  0
 29 28  1  0  0  0  0
 30 28  1  0  0  0  0
 32 34  1  0  0  0  0
 32 35  1  0  0  0  0
 33 32  1  0  0  0  0
 35 36  1  0  0  0  0
 35 37  1  0  0  0  0
 38 35  1  0  0  0  0
 39 48  2  0  0  0  0
 39 40  1  0  0  0  0
 40 42  2  0  0  0  0
 41 40  1  0  0  0  0
 42 44  1  0  0  0  0
 42 43  1  0  0  0  0
 44 45  1  0  0  0  0
 46 47  1  0  0  0  0
 46 44  2  0  0  0  0
 48 46  1  0  0  0  0
 49 48  1  0  0  0  0
 50 51  1  0  0  0  0
 51 52  1  0  0  0  0
 53 54  1  0  0  0  0
 53 51  2  0  0  0  0
 55 53  1  0  0  0  0
 56 55  1  0  0  0  0
 57 55  2  0  0  0  0
 57 59  1  0  0  0  0
 58 57  1  0  0  0  0
 59 50  2  0  0  0  0
 60 59  1  0  0  0  0
 61 70  1  0  0  0  0
 62 61  2  0  0  0  0
 63 62  1  0  0  0  0
 64 62  1  0  0  0  0
 64 66  2  0  0  0  0
 65 64  1  0  0  0  0
 66 68  1  0  0  0  0
 67 66  1  0  0  0  0
 68 70  2  0  0  0  0
 68 69  1  0  0  0  0
 70 71  1  0  0  0  0
 72 81  1  0  0  0  0
 73 72  2  0  0  0  0
 73 75  1  0  0  0  0
 74 73  1  0  0  0  0
 75 77  2  0  0  0  0
 76 75  1  0  0  0  0
 77 79  1  0  0  0  0
 77 78  1  0  0  0  0
 79 80  1  0  0  0  0
 81 82  1  0  0  0  0
 81 79  2  0  0  0  0
M  END
