7,8,9,10,11,12
q = -2.0, confidence = 0.822

 70 73  0  0  0  0  0  0  0  0999 V2000
   -2.5334   -0.3467   -1.3431 O   0  0  0  0  0  0  0  0  0  0  0  0
    2.5168   -0.9773   -1.0249 O   0  0  0  0  0  0  0  0  0  0  0  0
   -2.5212    1.3738    0.3892 O   0  0  0  0  0  0  0  0  0  0  0  0
    2.5207    1.3795   -0.3719 O   0  0  0  0  0  0  0  0  0  0  0  0
   -2.5164   -0.9910    1.0127 O   0  0  0  0  0  0  0  0  0  0  0  0
    2.5335   -0.3627    1.3388 O   0  0  0  0  0  0  0  0  0  0  0  0
   -1.1956   -0.4980   -1.4019 N   0  0  0  0  0  2  0  0  0  0  0  0
    1.1778   -0.9424   -1.1673 N   0  0  0  0  0  2  0  0  0  0  0  0
   -1.1842    1.4900    0.2710 N   0  0  0  0  0  2  0  0  0  0  0  0
    1.1836    1.4937   -0.2521 N   0  0  0  0  0  2  0  0  0  0  0  0
   -1.1775   -0.9573    1.1556 N   0  0  0  0  0  2  0  0  0  0  0  0
    1.1958   -0.5151    1.3957 N   0  0  0  0  0  2  0  0  0  0  0  0
   -0.7267   -1.2324   -2.4087 C   0  0  0  0  0  0  0  0  0  0  0  0
    0.6920   -1.4295   -2.3076 C   0  0  0  0  0  0  0  0  0  0  0  0
   -1.6433   -1.7891   -3.4485 C   0  0  0  0  0  0  0  0  0  0  0  0
   -1.1001   -2.4147   -4.1784 H   0  0  0  0  0  0  0  0  0  0  0  0
   -2.1667   -0.9746   -3.9899 H   0  0  0  0  0  0  0  0  0  0  0  0
   -2.4370   -2.3970   -2.9673 H   0  0  0  0  0  0  0  0  0  0  0  0
    1.5918   -2.0453   -3.3285 C   0  0  0  0  0  0  0  0  0  0  0  0
    2.4051   -1.3380   -3.5909 H   0  0  0  0  0  0  0  0  0  0  0  0
    1.0403   -2.3207   -4.2446 H   0  0  0  0  0  0  0  0  0  0  0  0
    2.0892   -2.9509   -2.9238 H   0  0  0  0  0  0  0  0  0  0  0  0
   -0.7082    2.7267    0.1371 C   0  0  0  0  0  0  0  0  0  0  0  0
    0.7073    2.7285   -0.1021 C   0  0  0  0  0  0  0  0  0  0  0  0
   -1.6166    3.9115    0.1883 C   0  0  0  0  0  0  0  0  0  0  0  0
   -2.3662    3.8547   -0.6286 H   0  0  0  0  0  0  0  0  0  0  0  0
   -1.0574    4.8587    0.0932 H   0  0  0  0  0  0  0  0  0  0  0  0
   -2.1915    3.9238    1.1363 H   0  0  0  0  0  0  0  0  0  0  0  0
    1.6154    3.9141   -0.1379 C   0  0  0  0  0  0  0  0  0  0  0  0
    2.3652    3.8467    0.6780 H   0  0  0  0  0  0  0  0  0  0  0  0
    1.0559    4.8598   -0.0301 H   0  0  0  0  0  0  0  0  0  0  0  0
    2.1899    3.9391   -1.0858 H   0  0  0  0  0  0  0  0  0  0  0  0
   -0.6915   -1.4585    2.2898 C   0  0  0  0  0  0  0  0  0  0  0  0
    0.7271   -1.2621    2.3933 C   0  0  0  0  0  0  0  0  0  0  0  0
   -1.5910   -2.0874    3.3029 C   0  0  0  0  0  0  0  0  0  0  0  0
   -2.4054   -1.3843    3.5730 H   0  0  0  0  0  0  0  0  0  0  0  0
   -1.0396   -2.3727    4.2160 H   0  0  0  0  0  0  0  0  0  0  0  0
   -2.0868   -2.9890    2.8874 H   0  0  0  0  0  0  0  0  0  0  0  0
    1.6440   -1.8314    3.4260 C   0  0  0  0  0  0  0  0  0  0  0  0
    2.1693   -1.0236    3.9755 H   0  0  0  0  0  0  0  0  0  0  0  0
    2.4363   -2.4353    2.9374 H   0  0  0  0  0  0  0  0  0  0  0  0
    1.1007   -2.4642    4.1496 H   0  0  0  0  0  0  0  0  0  0  0  0
   -4.6305    0.0063    0.0367 C   0  0  0  0  0  0  0  0  0  0  0  0
   -5.3491   -1.1751    0.3219 C   0  0  0  0  0  0  0  0  0  0  0  0
   -4.7943   -2.0937    0.5695 H   0  0  0  0  0  0  0  0  0  0  0  0
   -6.7474   -1.2045    0.3055 C   0  0  0  0  0  0  0  0  0  0  0  0
   -7.2924   -2.1330    0.5309 H   0  0  0  0  0  0  0  0  0  0  0  0
   -7.4836   -0.0328   -0.0016 C   0  0  0  0  0  0  0  0  0  0  0  0
   -6.7719    1.1591   -0.2863 C   0  0  0  0  0  0  0  0  0  0  0  0
   -7.3359    2.0735   -0.5226 H   0  0  0  0  0  0  0  0  0  0  0  0
   -5.3731    1.1680   -0.2652 C   0  0  0  0  0  0  0  0  0  0  0  0
   -4.8374    2.1050   -0.4839 H   0  0  0  0  0  0  0  0  0  0  0  0
   -8.9130   -0.0527   -0.0215 C   0  0  0  0  0  0  0  0  0  0  0  0
  -10.1391   -0.0698   -0.0388 C   0  0  0  0  0  0  0  0  0  0  0  0
  -11.2194   -0.0849   -0.0541 H   0  0  0  0  0  0  0  0  0  0  0  0
    4.6304    0.0081   -0.0365 C   0  0  0  0  0  0  0  0  0  0  0  0
    5.3481   -1.1743   -0.3205 C   0  0  0  0  0  0  0  0  0  0  0  0
    4.7926   -2.0928   -0.5667 H   0  0  0  0  0  0  0  0  0  0  0  0
    6.7464   -1.2046   -0.3047 C   0  0  0  0  0  0  0  0  0  0  0  0
    7.2907   -2.1338   -0.5291 H   0  0  0  0  0  0  0  0  0  0  0  0
    7.4835   -0.0330    0.0004 C   0  0  0  0  0  0  0  0  0  0  0  0
    6.7728    1.1598    0.2838 C   0  0  0  0  0  0  0  0  0  0  0  0
    7.3375    2.0741    0.5185 H   0  0  0  0  0  0  0  0  0  0  0  0
    5.3739    1.1697    0.2633 C   0  0  0  0  0  0  0  0  0  0  0  0
    4.8390    2.1072    0.4811 H   0  0  0  0  0  0  0  0  0  0  0  0
    8.9129   -0.0538    0.0197 C   0  0  0  0  0  0  0  0  0  0  0  0
   10.1391   -0.0718    0.0364 C   0  0  0  0  0  0  0  0  0  0  0  0
   11.2194   -0.0876    0.0512 H   0  0  0  0  0  0  0  0  0  0  0  0
   -3.0375    0.0140    0.0285 B   0  0  2  0  0  0  0  0  0  0  0  0
    3.0375    0.0157   -0.0281 B   0  0  1  0  0  0  0  0  0  0  0  0
  1 69  1  0  0  0  0
  2 70  1  0  0  0  0
  4 10  1  0  0  0  0
  4 70  1  0  0  0  0
  5 11  1  0  0  0  0
  6 12  1  0  0  0  0
  7  1  1  0  0  0  0
  8  2  1  0  0  0  0
  9  3  1  0  0  0  0
 10 24  1  0  0  0  0
 11 33  1  0  0  0  0
 12 34  1  0  0  0  0
 13 14  2  0  0  0  0
 13  7  1  0  0  0  0
 14  8  1  0  0  0  0
 15 18  1  0  0  0  0
 15 13  1  0  0  0  0
 16 15  1  0  0  0  0
 17 15  1  0  0  0  0
 19 22  1  0  0  0  0
 19 14  1  0  0  0  0
 20 19  1  0  0  0  0
 21 19  1  0  0  0  0
 23 25  1  0  0  0  0
 23  9  1  0  0  0  0
 24 23  2  0  0  0  0
 25 28  1  0  0  0  0
 26 25  1  0  0  0  0
 27 25  1  0  0  0  0
 29 24  1  0  0  0  0
 29 31  1  0  0  0  0
 29 30  1  0  0  0  0
 32 29  1  0  0  0  0
 33 34  2  0  0  0  0
 33 35  1  0  0  0  0
 34 39  1  0  0  0  0
 35 36  1  0  0  0  0
 35 37  1  0  0  0  0
 38 35  1  0  0  0  0
 39 40  1  0  0  0  0
 39 42  1  0  0  0  0
 41 39  1  0  0  0  0
 43 44  1  0  0  0  0
 44 45  1  0  0  0  0
 46 44  2  0  0  0  0
 46 47  1  0  0  0  0
 48 46  1  0  0  0  0
 49 51  1  0  0  0  0
 49 48  2  0  0  0  0
 50 49  1  0  0  0  0
 51 43  2  0  0  0  0
 52 51  1  0  0  0  0
 53 48  1  0  0  0  0
 54 53  3  0  0  0  0
 55 54  1  0  0  0  0
 56 64  1  0  0  0  0
 57 59  1  0  0  0  0
 57 56  2  0  0  0  0
 58 57  1  0  0  0  0
 59 61  2  0  0  0  0
 60 59  1  0  0  0  0
 61 66  1  0  0  0  0
 61 62  1  0  0  0  0
 62 63  1  0  0  0  0
 64 62  2  0  0  0  0
 64 65  1  0  0  0  0
 66 67  3  0  0  0  0
 67 68  1  0  0  0  0
 69 43  1  1  0  0  0
 69  3  1  0  0  0  0
 69  5  1  0  0  0  0
 70 56  1  6  0  0  0
 70  6  1  0  0  0  0
M  END
