1,2,3
q = -1.0, confidence = 0.01

 66 67  0  0  1  0  0  0  0  0999 V2000
    0.4304   -2.0897   -0.2219 S   0  0  0  0  0  0  0  0  0  0  0  0
   -0.0984   -0.0188    2.3032 S   0  0  0  0  0  0  0  0  0  0  0  0
   -1.1009    1.1459   -0.9103 N   0  0  0  0  0  2  0  0  0  0  0  0
   -2.2141    0.5742   -0.3695 N   0  0  0  0  0  0  0  0  0  0  0  0
   -1.3636   -1.9397   -0.5626 C   0  0  0  0  0  0  0  0  0  0  0  0
   -1.4876   -1.6755   -1.6336 H   0  0  0  0  0  0  0  0  0  0  0  0
   -1.7857   -2.9529   -0.4157 H   0  0  0  0  0  0  0  0  0  0  0  0
   -1.7747   -0.6839    1.9183 C   0  0  0  0  0  0  0  0  0  0  0  0
   -1.8155   -1.6565    2.4495 H   0  0  0  0  0  0  0  0  0  0  0  0
   -2.4904   -0.0131    2.4375 H   0  0  0  0  0  0  0  0  0  0  0  0
   -1.4569    2.3310   -1.4738 C   0  0  1  0  0  3  0  0  0  0  0  0
   -2.8405    2.5232   -1.2778 C   0  0  0  0  0  0  0  0  0  0  0  0
   -3.4556    3.3598   -1.6194 H   0  0  0  0  0  0  0  0  0  0  0  0
   -3.2733    1.3929   -0.5773 C   0  0  0  0  0  0  0  0  0  0  0  0
   -4.2720    1.0991   -0.2404 H   0  0  0  0  0  0  0  0  0  0  0  0
    1.1985   -2.7597   -1.8071 C   0  0  0  0  0  0  0  0  0  0  0  0
    2.6501   -3.0734   -1.4248 C   0  0  0  0  0  0  0  0  0  0  0  0
    3.1832   -3.4753   -2.3115 H   0  0  0  0  0  0  0  0  0  0  0  0
    2.7023   -3.8300   -0.6174 H   0  0  0  0  0  0  0  0  0  0  0  0
    3.1921   -2.1689   -1.0852 H   0  0  0  0  0  0  0  0  0  0  0  0
    0.4443   -4.0321   -2.2054 C   0  0  0  0  0  0  0  0  0  0  0  0
    0.9373   -4.4889   -3.0890 H   0  0  0  0  0  0  0  0  0  0  0  0
   -0.6080   -3.8217   -2.4795 H   0  0  0  0  0  0  0  0  0  0  0  0
    0.4505   -4.7764   -1.3845 H   0  0  0  0  0  0  0  0  0  0  0  0
    1.1386   -1.6981   -2.9087 C   0  0  0  0  0  0  0  0  0  0  0  0
    1.5396   -2.1162   -3.8561 H   0  0  0  0  0  0  0  0  0  0  0  0
    1.7540   -0.8149   -2.6412 H   0  0  0  0  0  0  0  0  0  0  0  0
    0.1010   -1.3600   -3.1047 H   0  0  0  0  0  0  0  0  0  0  0  0
   -0.3637    1.6375    3.1499 C   0  0  0  0  0  0  0  0  0  0  0  0
    1.0622    2.1705    3.3505 C   0  0  0  0  0  0  0  0  0  0  0  0
    1.0192    3.1570    3.8564 H   0  0  0  0  0  0  0  0  0  0  0  0
    1.5933    2.3026    2.3847 H   0  0  0  0  0  0  0  0  0  0  0  0
    1.6644    1.4875    3.9827 H   0  0  0  0  0  0  0  0  0  0  0  0
   -1.1878    2.5837    2.2756 C   0  0  0  0  0  0  0  0  0  0  0  0
   -1.3355    3.5455    2.8103 H   0  0  0  0  0  0  0  0  0  0  0  0
   -2.1890    2.1728    2.0413 H   0  0  0  0  0  0  0  0  0  0  0  0
   -0.6777    2.8008    1.3182 H   0  0  0  0  0  0  0  0  0  0  0  0
   -1.0489    1.3806    4.4966 C   0  0  0  0  0  0  0  0  0  0  0  0
   -1.1652    2.3395    5.0441 H   0  0  0  0  0  0  0  0  0  0  0  0
   -0.4533    0.6894    5.1246 H   0  0  0  0  0  0  0  0  0  0  0  0
   -2.0611    0.9483    4.3655 H   0  0  0  0  0  0  0  0  0  0  0  0
   -0.4591    3.2416   -2.1769 C   0  0  0  0  0  0  0  0  0  0  0  0
    0.4424    2.4225   -3.1247 C   0  0  0  0  0  0  0  0  0  0  0  0
   -0.1633    1.8528   -3.8574 H   0  0  0  0  0  0  0  0  0  0  0  0
    1.0850    1.7053   -2.5759 H   0  0  0  0  0  0  0  0  0  0  0  0
    1.1222    3.0980   -3.6824 H   0  0  0  0  0  0  0  0  0  0  0  0
   -1.2264    4.2899   -3.0050 C   0  0  0  0  0  0  0  0  0  0  0  0
   -1.8852    3.8086   -3.7553 H   0  0  0  0  0  0  0  0  0  0  0  0
   -0.5114    4.9435   -3.5437 H   0  0  0  0  0  0  0  0  0  0  0  0
   -1.8529    4.9394   -2.3615 H   0  0  0  0  0  0  0  0  0  0  0  0
    0.4094    3.9803   -1.1323 C   0  0  0  0  0  0  0  0  0  0  0  0
    1.0002    3.2777   -0.5098 H   0  0  0  0  0  0  0  0  0  0  0  0
   -0.2206    4.5904   -0.4544 H   0  0  0  0  0  0  0  0  0  0  0  0
    1.1319    4.6548   -1.6357 H   0  0  0  0  0  0  0  0  0  0  0  0
   -4.4087   -1.5645   -0.9858 C   0  0  0  0  0  0  0  0  0  0  0  0
   -3.8655   -1.2795   -1.9025 H   0  0  0  0  0  0  0  0  0  0  0  0
   -5.7112   -2.0690   -1.1092 C   0  0  0  0  0  0  0  0  0  0  0  0
   -6.1652   -2.1827   -2.1065 H   0  0  0  0  0  0  0  0  0  0  0  0
   -6.4371   -2.4287    0.0387 C   0  0  0  0  0  0  0  0  0  0  0  0
   -7.4603   -2.8253   -0.0504 H   0  0  0  0  0  0  0  0  0  0  0  0
   -5.8415   -2.2757    1.2986 C   0  0  0  0  0  0  0  0  0  0  0  0
   -6.3977   -2.5531    2.2081 H   0  0  0  0  0  0  0  0  0  0  0  0
   -4.5347   -1.7675    1.4061 C   0  0  0  0  0  0  0  0  0  0  0  0
   -4.1012   -1.6642    2.4134 H   0  0  0  0  0  0  0  0  0  0  0  0
   -3.7786   -1.3948    0.2727 C   0  0  0  0  0  0  0  0  0  0  0  0
   -2.2335   -0.8516    0.3449 B   0  0  0  0  0  0  0  0  0  0  0  0
  2 29  1  0  0  0  0
  3  4  1  0  0  0  0
  4 66  1  0  0  0  0
  5  7  1  0  0  0  0
  5  1  1  0  0  0  0
  5 66  1  0  0  0  0
  6  5  1  0  0  0  0
  8  2  1  0  0  0  0
  8 10  1  0  0  0  0
  8  9  1  0  0  0  0
 11 42  1  1  0  0  0
 11 12  1  0  0  0  0
 11  3  1  0  0  0  0
 12 14  2  0  0  0  0
 13 12  1  0  0  0  0
 14  4  1  0  0  0  0
 14 15  1  0  0  0  0
 16 17  1  0  0  0  0
 16  1  1  0  0  0  0
 17 20  1  0  0  0  0
 17 19  1  0  0  0  0
 18 17  1  0  0  0  0
 21 16  1  0  0  0  0
 21 24  1  0  0  0  0
 22 21  1  0  0  0  0
 23 21  1  0  0  0  0
 25 27  1  0  0  0  0
 25 16  1  0  0  0  0
 26 25  1  0  0  0  0
 28 25  1  0  0  0  0
 29 30  1  0  0  0  0
 29 38  1  0  0  0  0
 30 31  1  0  0  0  0
 30 33  1  0  0  0  0
 32 30  1  0  0  0  0
 34 35  1  0  0  0  0
 34 29  1  0  0  0  0
 36 34  1  0  0  0  0
 37 34  1  0  0  0  0
 38 39  1  0  0  0  0
 38 40  1  0  0  0  0
 41 38  1  0  0  0  0
 42 51  1  0  0  0  0
 43 45  1  0  0  0  0
 43 42  1  0  0  0  0
 44 43  1  0  0  0  0
 46 43  1  0  0  0  0
 47 50  1  0  0  0  0
 47 42  1  0  0  0  0
 48 47  1  0  0  0  0
 49 47  1  0  0  0  0
 51 52  1  0  0  0  0
 51 53  1  0  0  0  0
 54 51  1  0  0  0  0
 55 65  1  0  0  0  0
 56 55  1  0  0  0  0
 57 55  2  0  0  0  0
 57 59  1  0  0  0  0
 58 57  1  0  0  0  0
 59 61  2  0  0  0  0
 60 59  1  0  0  0  0
 61 63  1  0  0  0  0
 61 62  1  0  0  0  0
 63 64  1  0  0  0  0
 65 66  1  0  0  0  0
 65 63  2  0  0  0  0
 66  8  1  0  0  0  0
M  END
