4,21,28
q = 0.0, confidence = 1.0

 32 33  0  0  0  0  0  0  0  0999 V2000
   -1.9836   -1.5648   -0.9076 N   0  0  0  0  0  0  0  0  0  0  0  0
   -0.9939   -0.7941   -1.3532 C   0  0  0  0  0  3  0  0  0  0  0  0
   -1.2789    0.2218   -1.6779 H   0  0  0  0  0  0  0  0  0  0  0  0
    0.3287   -1.0900   -1.4441 N   0  0  0  0  0  2  0  0  0  0  0  0
    0.5776   -2.3664   -1.0774 C   0  0  0  0  0  0  0  0  0  0  0  0
   -0.3670   -3.2830   -0.5666 C   0  0  0  0  0  0  0  0  0  0  0  0
   -1.7139   -2.8214   -0.4650 C   0  0  0  0  0  0  0  0  0  0  0  0
   -2.7087   -3.5609    0.0510 N   0  0  0  0  0  0  0  0  0  0  0  0
   -3.6258   -3.1056    0.2263 H   0  0  0  0  0  0  0  0  0  0  0  0
   -2.5004   -4.4965    0.3977 H   0  0  0  0  0  0  0  0  0  0  0  0
    0.2273   -4.4893   -0.2550 N   0  0  0  0  0  0  0  0  0  0  0  0
    1.4915   -4.3276   -0.5933 C   0  0  0  0  0  0  0  0  0  0  0  0
    2.2738   -5.0966   -0.5240 H   0  0  0  0  0  0  0  0  0  0  0  0
    1.7776   -3.0588   -1.0979 N   0  0  0  0  0  0  0  0  0  0  0  0
    3.0178   -2.6420   -1.7359 C   0  0  0  0  0  0  0  0  0  0  0  0
    2.7766   -1.7765   -2.3849 H   0  0  0  0  0  0  0  0  0  0  0  0
    3.3552   -3.4637   -2.4023 H   0  0  0  0  0  0  0  0  0  0  0  0
    4.1582   -2.2943   -0.7781 C   0  0  0  0  0  0  0  0  0  0  0  0
    5.1004   -2.2357   -1.3595 H   0  0  0  0  0  0  0  0  0  0  0  0
    4.2965   -3.0837   -0.0116 H   0  0  0  0  0  0  0  0  0  0  0  0
    3.9880   -0.6769    0.0778 S   0  0  0  0  0  0  0  0  0  0  0  0
    3.7936   -1.1613    1.8362 C   0  0  0  0  0  0  0  0  0  0  0  0
    4.5463   -1.9474    2.0495 H   0  0  0  0  0  0  0  0  0  0  0  0
    4.1063   -0.2620    2.4069 H   0  0  0  0  0  0  0  0  0  0  0  0
    2.4090   -1.6268    2.2696 C   0  0  0  0  0  0  0  0  0  0  0  0
    2.4666   -2.0183    3.3070 H   0  0  0  0  0  0  0  0  0  0  0  0
    2.0279   -2.4377    1.6137 H   0  0  0  0  0  0  0  0  0  0  0  0
    1.2015   -0.2448    2.2666 S   0  0  0  0  0  0  0  0  0  0  0  0
   -0.3414   -1.1717    2.5318 C   0  0  0  0  0  0  0  0  0  0  0  0
   -0.4373   -1.9863    1.7893 H   0  0  0  0  0  0  0  0  0  0  0  0
   -1.1885   -0.4666    2.4054 H   0  0  0  0  0  0  0  0  0  0  0  0
   -0.3561   -1.5846    3.5590 H   0  0  0  0  0  0  0  0  0  0  0  0
  1  7  2  0  0  0  0
  2  1  1  0  0  0  0
  3  2  1  0  0  0  0
  4  2  1  0  0  0  0
  4  5  1  0  0  0  0
  5  6  2  0  0  0  0
  6  7  1  0  0  0  0
  6 11  1  0  0  0  0
  7  8  1  0  0  0  0
  8  9  1  0  0  0  0
  8 10  1  0  0  0  0
 12 13  1  0  0  0  0
 12 11  2  0  0  0  0
 14  5  1  0  0  0  0
 14 12  1  0  0  0  0
 15 14  1  0  0  0  0
 15 18  1  0  0  0  0
 16 15  1  0  0  0  0
 17 15  1  0  0  0  0
 18 20  1  0  0  0  0
 18 21  1  0  0  0  0
 19 18  1  0  0  0  0
 21 22  1  0  0  0  0
 22 23  1  0  0  0  0
 22 25  1  0  0  0  0
 22 24  1  0  0  0  0
 25 26  1  0  0  0  0
 27 25  1  0  0  0  0
 28 25  1  0  0  0  0
 28 29  1  0  0  0  0
 29 32  1  0  0  0  0
 30 29  1  0  0  0  0
 31 29  1  0  0  0  0
M  END
