1,2,3
q = -1.0, confidence = 0.0

 29 30  0  0  0  0  0  0  0  0999 V2000
    1.8993    0.6522   -2.1965 S   0  0  0  0  0  1  0  0  0  0  0  0
    1.0973   -2.3892    1.1264 S   0  0  0  0  0  0  0  0  0  0  0  0
    1.7035    0.5472    0.7109 N   0  0  0  0  0  2  0  0  0  0  0  0
    2.6955    1.7780   -1.1210 C   0  0  0  0  0  0  0  0  0  0  0  0
    3.4454    2.8855   -1.5844 C   0  0  0  0  0  0  0  0  0  0  0  0
    3.5308    3.0473   -2.6693 H   0  0  0  0  0  0  0  0  0  0  0  0
    4.0885    3.7398   -0.6844 C   0  0  0  0  0  0  0  0  0  0  0  0
    4.6862    4.5808   -1.0682 H   0  0  0  0  0  0  0  0  0  0  0  0
    4.0055    3.5136    0.7052 C   0  0  0  0  0  0  0  0  0  0  0  0
    4.5510    4.1605    1.4079 H   0  0  0  0  0  0  0  0  0  0  0  0
    3.2430    2.4445    1.1867 C   0  0  0  0  0  0  0  0  0  0  0  0
    3.1899    2.2435    2.2675 H   0  0  0  0  0  0  0  0  0  0  0  0
    2.5728    1.5873    0.2885 C   0  0  0  0  0  0  0  0  0  0  0  0
    0.9766    0.7573    1.7997 C   0  0  0  0  0  3  0  0  0  0  0  0
    1.0228    1.7676    2.2451 H   0  0  0  0  0  0  0  0  0  0  0  0
   -0.0473   -1.5508    2.2153 C   0  0  0  0  0  0  0  0  0  0  0  0
    0.0368   -0.1454    2.4347 C   0  0  0  0  0  0  0  0  0  0  0  0
   -0.8916    0.4196    3.3520 C   0  0  0  0  0  0  0  0  0  0  0  0
   -0.8459    1.5027    3.5412 H   0  0  0  0  0  0  0  0  0  0  0  0
   -1.8782   -0.3533    3.9677 C   0  0  0  0  0  0  0  0  0  0  0  0
   -2.5934    0.1239    4.6543 H   0  0  0  0  0  0  0  0  0  0  0  0
   -1.9661   -1.7322    3.7025 C   0  0  0  0  0  0  0  0  0  0  0  0
   -2.7506   -2.3441    4.1715 H   0  0  0  0  0  0  0  0  0  0  0  0
   -1.0382   -2.3260    2.8339 C   0  0  0  0  0  0  0  0  0  0  0  0
   -1.0808   -3.4032    2.6151 H   0  0  0  0  0  0  0  0  0  0  0  0
    2.6030   -2.3322    2.1675 C   0  0  0  0  0  0  0  0  0  0  0  0
    2.4220   -2.9134    3.0909 H   0  0  0  0  0  0  0  0  0  0  0  0
    2.8720   -1.2857    2.4032 H   0  0  0  0  0  0  0  0  0  0  0  0
    3.4114   -2.7982    1.5737 H   0  0  0  0  0  0  0  0  0  0  0  0
  1  4  1  0  0  0  0
  2 26  1  0  0  0  0
  2 16  1  0  0  0  0
  3 14  1  0  0  0  0
  4 13  1  0  0  0  0
  5  4  2  0  0  0  0
  5  7  1  0  0  0  0
  6  5  1  0  0  0  0
  7  9  2  0  0  0  0
  8  7  1  0  0  0  0
  9 11  1  0  0  0  0
  9 10  1  0  0  0  0
 11 12  1  0  0  0  0
 13  3  1  0  0  0  0
 13 11  2  0  0  0  0
 14 15  1  0  0  0  0
 14 17  1  0  0  0  0
 16 17  2  0  0  0  0
 16 24  1  0  0  0  0
 17 18  1  0  0  0  0
 18 19  1  0  0  0  0
 18 20  2  0  0  0  0
 20 21  1  0  0  0  0
 22 20  1  0  0  0  0
 22 23  1  0  0  0  0
 24 22  2  0  0  0  0
 25 24  1  0  0  0  0
 26 28  1  0  0  0  0
 26 27  1  0  0  0  0
 29 26  1  0  0  0  0
M  END
