1,2,5
q = 0.0, confidence = 0.998

 51 54  0  0  1  0  0  0  0  0999 V2000
   -1.6355   -2.3990    0.6680 S   0  0  0  0  0  0  0  0  0  0  0  0
    1.6361   -2.3992   -0.6676 S   0  0  0  0  0  0  0  0  0  0  0  0
   -2.0597    0.3821   -1.4899 O   0  0  0  0  0  0  0  0  0  0  0  0
    2.0595    0.3825    1.4899 O   0  0  0  0  0  0  0  0  0  0  0  0
   -0.0003    1.6938    0.0000 N   0  0  0  0  0  2  0  0  0  0  0  0
   -1.4604    1.5714   -1.9804 C   0  0  0  0  0  0  0  0  0  0  0  0
   -2.2063    2.2168   -2.4912 H   0  0  0  0  0  0  0  0  0  0  0  0
   -0.7360    1.2256   -2.7477 H   0  0  0  0  0  0  0  0  0  0  0  0
   -3.1672    0.4700   -0.6717 C   0  0  0  0  0  0  0  0  0  0  0  0
   -3.7893    1.6793   -0.3201 C   0  0  0  0  0  0  0  0  0  0  0  0
   -3.4062    2.6406   -0.6853 H   0  0  0  0  0  0  0  0  0  0  0  0
   -4.9188    1.6634    0.5146 C   0  0  0  0  0  0  0  0  0  0  0  0
   -5.4005    2.6154    0.7825 H   0  0  0  0  0  0  0  0  0  0  0  0
   -5.4292    0.4530    1.0015 C   0  0  0  0  0  0  0  0  0  0  0  0
   -6.3138    0.4435    1.6539 H   0  0  0  0  0  0  0  0  0  0  0  0
   -4.8022   -0.7494    0.6458 C   0  0  0  0  0  0  0  0  0  0  0  0
   -5.1956   -1.7071    1.0205 H   0  0  0  0  0  0  0  0  0  0  0  0
   -3.6735   -0.7668   -0.1931 C   0  0  0  0  0  0  0  0  0  0  0  0
   -2.9984   -2.0574   -0.5524 C   0  0  0  0  0  0  0  0  0  0  0  0
   -2.5406   -2.0154   -1.5594 H   0  0  0  0  0  0  0  0  0  0  0  0
   -3.7051   -2.9074   -0.4980 H   0  0  0  0  0  0  0  0  0  0  0  0
   -0.7474   -3.7920   -0.1532 C   0  0  0  0  0  0  0  0  0  0  0  0
   -1.1927   -4.7402    0.2104 H   0  0  0  0  0  0  0  0  0  0  0  0
   -0.9330   -3.7254   -1.2454 H   0  0  0  0  0  0  0  0  0  0  0  0
    0.7482   -3.7918    0.1543 C   0  0  0  0  0  0  0  0  0  0  0  0
    1.1936   -4.7401   -0.2088 H   0  0  0  0  0  0  0  0  0  0  0  0
    0.9338   -3.7247    1.2465 H   0  0  0  0  0  0  0  0  0  0  0  0
    2.9990   -2.0567    0.5527 C   0  0  0  0  0  0  0  0  0  0  0  0
    2.5411   -2.0147    1.5597 H   0  0  0  0  0  0  0  0  0  0  0  0
    3.7060   -2.9066    0.4984 H   0  0  0  0  0  0  0  0  0  0  0  0
    3.6737   -0.7660    0.1932 C   0  0  0  0  0  0  0  0  0  0  0  0
    4.8022   -0.7483   -0.6458 C   0  0  0  0  0  0  0  0  0  0  0  0
    5.1960   -1.7059   -1.0204 H   0  0  0  0  0  0  0  0  0  0  0  0
    5.4289    0.4543   -1.0016 C   0  0  0  0  0  0  0  0  0  0  0  0
    6.3134    0.4450   -1.6541 H   0  0  0  0  0  0  0  0  0  0  0  0
    4.9181    1.6646   -0.5148 C   0  0  0  0  0  0  0  0  0  0  0  0
    5.3995    2.6167   -0.7829 H   0  0  0  0  0  0  0  0  0  0  0  0
    3.7886    1.6802    0.3200 C   0  0  0  0  0  0  0  0  0  0  0  0
    3.4052    2.6414    0.6850 H   0  0  0  0  0  0  0  0  0  0  0  0
    3.1669    0.4707    0.6717 C   0  0  0  0  0  0  0  0  0  0  0  0
    1.4599    1.5716    1.9805 C   0  0  0  0  0  0  0  0  0  0  0  0
    2.2056    2.2172    2.4912 H   0  0  0  0  0  0  0  0  0  0  0  0
    0.7357    1.2255    2.7479 H   0  0  0  0  0  0  0  0  0  0  0  0
    0.7137    2.3740    0.9257 C   0  0  2  0  0  3  0  0  0  0  0  0
    0.7381    3.7772    0.9513 C   0  0  0  0  0  0  0  0  0  0  0  0
    1.3368    4.3001    1.7119 H   0  0  0  0  0  0  0  0  0  0  0  0
   -0.0011    4.4908    0.0005 C   0  0  0  0  0  0  0  0  0  0  0  0
   -0.0014    5.5908    0.0007 H   0  0  0  0  0  0  0  0  0  0  0  0
   -0.7399    3.7771   -0.9505 C   0  0  0  0  0  0  0  0  0  0  0  0
   -1.3388    4.3000   -1.7109 H   0  0  0  0  0  0  0  0  0  0  0  0
   -0.7147    2.3739   -0.9254 C   0  0  0  0  0  0  0  0  0  0  0  0
  2 25  1  0  0  0  0
  2 28  1  0  0  0  0
  3  9  1  0  0  0  0
  4 41  1  0  0  0  0
  6  3  1  0  0  0  0
  6 51  1  0  0  0  0
  7  6  1  0  0  0  0
  8  6  1  0  0  0  0
  9 10  2  0  0  0  0
  9 18  1  0  0  0  0
 10 12  1  0  0  0  0
 11 10  1  0  0  0  0
 12 13  1  0  0  0  0
 12 14  2  0  0  0  0
 14 15  1  0  0  0  0
 16 14  1  0  0  0  0
 16 17  1  0  0  0  0
 18 16  2  0  0  0  0
 19 21  1  0  0  0  0
 19 18  1  0  0  0  0
 19  1  1  0  0  0  0
 20 19  1  0  0  0  0
 22 25  1  0  0  0  0
 22 23  1  0  0  0  0
 22  1  1  0  0  0  0
 24 22  1  0  0  0  0
 25 27  1  0  0  0  0
 26 25  1  0  0  0  0
 28 29  1  0  0  0  0
 30 28  1  0  0  0  0
 31 28  1  0  0  0  0
 31 40  1  0  0  0  0
 32 31  2  0  0  0  0
 33 32  1  0  0  0  0
 34 32  1  0  0  0  0
 34 36  2  0  0  0  0
 35 34  1  0  0  0  0
 36 38  1  0  0  0  0
 37 36  1  0  0  0  0
 38 40  2  0  0  0  0
 38 39  1  0  0  0  0
 40  4  1  0  0  0  0
 41 42  1  0  0  0  0
 41 43  1  0  0  0  0
 44  5  1  1  0  0  0
 44 45  1  0  0  0  0
 44 41  1  0  0  0  0
 45 46  1  0  0  0  0
 47 48  1  0  0  0  0
 47 45  2  0  0  0  0
 49 51  2  0  0  0  0
 49 47  1  0  0  0  0
 50 49  1  0  0  0  0
 51  5  1  0  0  0  0
M  END
