1,2,3
q = 0.0, confidence = 1.0

 44 45  0  0  0  0  0  0  0  0999 V2000
    2.3220   -0.7498    0.7090 S   0  0  0  0  0  0  0  0  0  0  0  0
   -2.3220   -0.7500    0.7089 S   0  0  0  0  0  0  0  0  0  0  0  0
   -0.0001    0.9798    1.7502 N   0  0  0  0  0  0  0  0  0  0  0  0
    1.2543    1.7323    1.4625 C   0  0  0  0  0  0  0  0  0  0  0  0
    1.3297    2.6288    2.1186 H   0  0  0  0  0  0  0  0  0  0  0  0
    1.1890    2.0937    0.4164 H   0  0  0  0  0  0  0  0  0  0  0  0
    2.4702    0.8372    1.6451 C   0  0  0  0  0  0  0  0  0  0  0  0
    2.6074    0.5295    2.7021 H   0  0  0  0  0  0  0  0  0  0  0  0
    3.4045    1.3394    1.3188 H   0  0  0  0  0  0  0  0  0  0  0  0
    2.7814   -0.2308   -1.0250 C   0  0  0  0  0  0  0  0  0  0  0  0
    2.5937   -1.1665   -1.5895 H   0  0  0  0  0  0  0  0  0  0  0  0
    2.0567    0.5318   -1.3691 H   0  0  0  0  0  0  0  0  0  0  0  0
    4.2010    0.2456   -1.0709 C   0  0  0  0  0  0  0  0  0  0  0  0
    4.4845    1.6228   -1.1889 C   0  0  0  0  0  0  0  0  0  0  0  0
    3.6573    2.3433   -1.2984 H   0  0  0  0  0  0  0  0  0  0  0  0
    5.8122    2.0772   -1.2042 C   0  0  0  0  0  0  0  0  0  0  0  0
    6.0233    3.1515   -1.3117 H   0  0  0  0  0  0  0  0  0  0  0  0
    6.8674    1.1588   -1.0927 C   0  0  0  0  0  0  0  0  0  0  0  0
    7.9089    1.5130   -1.1070 H   0  0  0  0  0  0  0  0  0  0  0  0
    6.5938   -0.2144   -0.9710 C   0  0  0  0  0  0  0  0  0  0  0  0
    7.4204   -0.9358   -0.8918 H   0  0  0  0  0  0  0  0  0  0  0  0
    5.2694   -0.6701   -0.9578 C   0  0  0  0  0  0  0  0  0  0  0  0
    5.0584   -1.7469   -0.8646 H   0  0  0  0  0  0  0  0  0  0  0  0
   -1.2546    1.7321    1.4625 C   0  0  0  0  0  0  0  0  0  0  0  0
   -1.1893    2.0936    0.4163 H   0  0  0  0  0  0  0  0  0  0  0  0
   -1.3301    2.6286    2.1185 H   0  0  0  0  0  0  0  0  0  0  0  0
   -2.4704    0.8370    1.6450 C   0  0  0  0  0  0  0  0  0  0  0  0
   -3.4047    1.3391    1.3187 H   0  0  0  0  0  0  0  0  0  0  0  0
   -2.6077    0.5293    2.7020 H   0  0  0  0  0  0  0  0  0  0  0  0
   -2.7814   -0.2310   -1.0251 C   0  0  0  0  0  0  0  0  0  0  0  0
   -2.0567    0.5315   -1.3691 H   0  0  0  0  0  0  0  0  0  0  0  0
   -2.5938   -1.1667   -1.5896 H   0  0  0  0  0  0  0  0  0  0  0  0
   -4.2010    0.2455   -1.0710 C   0  0  0  0  0  0  0  0  0  0  0  0
   -4.4843    1.6227   -1.1894 C   0  0  0  0  0  0  0  0  0  0  0  0
   -3.6571    2.3431   -1.2991 H   0  0  0  0  0  0  0  0  0  0  0  0
   -5.8120    2.0772   -1.2046 C   0  0  0  0  0  0  0  0  0  0  0  0
   -6.0230    3.1515   -1.3125 H   0  0  0  0  0  0  0  0  0  0  0  0
   -6.8673    1.1590   -1.0928 C   0  0  0  0  0  0  0  0  0  0  0  0
   -7.9087    1.5133   -1.1071 H   0  0  0  0  0  0  0  0  0  0  0  0
   -6.5938   -0.2142   -0.9707 C   0  0  0  0  0  0  0  0  0  0  0  0
   -7.4205   -0.9355   -0.8911 H   0  0  0  0  0  0  0  0  0  0  0  0
   -5.2695   -0.6700   -0.9574 C   0  0  0  0  0  0  0  0  0  0  0  0
   -5.0585   -1.7469   -0.8639 H   0  0  0  0  0  0  0  0  0  0  0  0
   -0.0001    0.7116    2.7489 H   0  0  0  0  0  0  0  0  0  0  0  0
  1  7  1  0  0  0  0
  2 27  1  0  0  0  0
  3 44  1  0  0  0  0
  4  7  1  0  0  0  0
  4  3  1  0  0  0  0
  4  5  1  0  0  0  0
  6  4  1  0  0  0  0
  7  8  1  0  0  0  0
  9  7  1  0  0  0  0
 10  1  1  0  0  0  0
 11 10  1  0  0  0  0
 12 10  1  0  0  0  0
 13 10  1  0  0  0  0
 13 22  1  0  0  0  0
 14 13  2  0  0  0  0
 15 14  1  0  0  0  0
 16 14  1  0  0  0  0
 16 18  2  0  0  0  0
 17 16  1  0  0  0  0
 18 20  1  0  0  0  0
 19 18  1  0  0  0  0
 20 22  2  0  0  0  0
 20 21  1  0  0  0  0
 22 23  1  0  0  0  0
 24 27  1  0  0  0  0
 24  3  1  0  0  0  0
 24 26  1  0  0  0  0
 25 24  1  0  0  0  0
 27 29  1  0  0  0  0
 28 27  1  0  0  0  0
 30  2  1  0  0  0  0
 31 30  1  0  0  0  0
 32 30  1  0  0  0  0
 33 30  1  0  0  0  0
 33 42  1  0  0  0  0
 34 33  2  0  0  0  0
 35 34  1  0  0  0  0
 36 34  1  0  0  0  0
 36 38  2  0  0  0  0
 37 36  1  0  0  0  0
 38 40  1  0  0  0  0
 39 38  1  0  0  0  0
 40 42  2  0  0  0  0
 40 41  1  0  0  0  0
 42 43  1  0  0  0  0
M  END
