1,2,4
q = -2.0, confidence = 0.946

 43 43  0  0  1  0  0  0  0  0999 V2000
   -1.9907   -1.4482   -0.5319 S   0  0  0  0  0  1  0  0  0  0  0  0
    2.1282   -2.1022    0.4512 S   0  0  0  0  0  1  0  0  0  0  0  0
   -1.5529    1.2503   -0.2188 N   0  0  0  0  0  0  0  0  0  0  0  0
    0.5658    0.2094    0.1502 N   0  0  0  0  0  2  0  0  0  0  0  0
   -3.6489    0.4868    0.3223 N   0  0  0  0  0  0  0  0  0  0  0  0
    1.7118    0.5347    0.8362 N   0  0  0  0  0  2  0  0  0  0  0  0
    3.6583   -0.2817    1.8046 N   0  0  0  0  0  0  0  0  0  0  0  0
   -2.3818    0.2254   -0.1040 C   0  0  1  0  0  3  0  0  0  0  0  0
   -0.2234    1.2754   -0.1966 C   0  0  0  0  0  0  0  0  0  0  0  0
    2.5241   -0.4669    1.0574 C   0  0  1  0  0  3  0  0  0  0  0  0
    0.4099    2.5789   -0.5288 C   0  0  0  0  0  0  0  0  0  0  0  0
    1.6660    2.6330   -1.1745 C   0  0  0  0  0  0  0  0  0  0  0  0
    2.2034    1.6998   -1.3905 H   0  0  0  0  0  0  0  0  0  0  0  0
    2.2087    3.8644   -1.5570 C   0  0  0  0  0  0  0  0  0  0  0  0
    3.1796    3.8944   -2.0741 H   0  0  0  0  0  0  0  0  0  0  0  0
    1.5175    5.0587   -1.2868 C   0  0  0  0  0  0  0  0  0  0  0  0
    1.9526    6.0262   -1.5804 H   0  0  0  0  0  0  0  0  0  0  0  0
    0.2687    5.0132   -0.6472 C   0  0  0  0  0  0  0  0  0  0  0  0
   -0.2771    5.9448   -0.4343 H   0  0  0  0  0  0  0  0  0  0  0  0
   -0.2868    3.7804   -0.2802 C   0  0  0  0  0  0  0  0  0  0  0  0
   -1.2669    3.7283    0.2143 H   0  0  0  0  0  0  0  0  0  0  0  0
   -4.6618   -0.5657    0.4393 C   0  0  0  0  0  0  0  0  0  0  0  0
   -4.4930   -1.2979   -0.3760 H   0  0  0  0  0  0  0  0  0  0  0  0
   -5.6448   -0.0897    0.2439 H   0  0  0  0  0  0  0  0  0  0  0  0
   -4.6664   -1.2803    1.7917 C   0  0  0  0  0  0  0  0  0  0  0  0
   -5.4385   -2.0753    1.7971 H   0  0  0  0  0  0  0  0  0  0  0  0
   -3.6843   -1.7567    1.9813 H   0  0  0  0  0  0  0  0  0  0  0  0
   -4.8882   -0.5832    2.6238 H   0  0  0  0  0  0  0  0  0  0  0  0
   -3.9893    1.8504    0.7466 C   0  0  0  0  0  0  0  0  0  0  0  0
   -3.5557    2.5450   -0.0016 H   0  0  0  0  0  0  0  0  0  0  0  0
   -5.0930    1.9366    0.6931 H   0  0  0  0  0  0  0  0  0  0  0  0
   -3.4849    2.2185    2.1427 C   0  0  0  0  0  0  0  0  0  0  0  0
   -3.7666    3.2633    2.3841 H   0  0  0  0  0  0  0  0  0  0  0  0
   -3.9131    1.5597    2.9234 H   0  0  0  0  0  0  0  0  0  0  0  0
   -2.3809    2.1431    2.1904 H   0  0  0  0  0  0  0  0  0  0  0  0
    4.6791   -1.3024    1.9222 C   0  0  0  0  0  0  0  0  0  0  0  0
    5.1174   -1.2751    2.9412 H   0  0  0  0  0  0  0  0  0  0  0  0
    4.2424   -2.3050    1.7568 H   0  0  0  0  0  0  0  0  0  0  0  0
    5.5051   -1.1588    1.1866 H   0  0  0  0  0  0  0  0  0  0  0  0
    4.0204    1.0610    2.2257 C   0  0  0  0  0  0  0  0  0  0  0  0
    4.5328    1.0133    3.2082 H   0  0  0  0  0  0  0  0  0  0  0  0
    4.7056    1.5530    1.4969 H   0  0  0  0  0  0  0  0  0  0  0  0
    3.1065    1.6756    2.3078 H   0  0  0  0  0  0  0  0  0  0  0  0
  3  9  2  0  0  0  0
  3  8  1  0  0  0  0
  4  6  1  0  0  0  0
  5 22  1  0  0  0  0
  5 29  1  0  0  0  0
  6 10  1  0  0  0  0
  7 36  1  0  0  0  0
  7 40  1  0  0  0  0
  8  1  1  6  0  0  0
  8  5  1  0  0  0  0
  9  4  1  0  0  0  0
 10  2  1  1  0  0  0
 10  7  1  0  0  0  0
 11 20  1  0  0  0  0
 11  9  1  0  0  0  0
 12 11  2  0  0  0  0
 13 12  1  0  0  0  0
 14 16  2  0  0  0  0
 14 12  1  0  0  0  0
 15 14  1  0  0  0  0
 16 18  1  0  0  0  0
 17 16  1  0  0  0  0
 18 19  1  0  0  0  0
 18 20  2  0  0  0  0
 20 21  1  0  0  0  0
 22 25  1  0  0  0  0
 23 22  1  0  0  0  0
 24 22  1  0  0  0  0
 25 26  1  0  0  0  0
 25 27  1  0  0  0  0
 25 28  1  0  0  0  0
 29 32  1  0  0  0  0
 30 29  1  0  0  0  0
 31 29  1  0  0  0  0
 32 35  1  0  0  0  0
 32 33  1  0  0  0  0
 32 34  1  0  0  0  0
 36 37  1  0  0  0  0
 38 36  1  0  0  0  0
 39 36  1  0  0  0  0
 40 43  1  0  0  0  0
 40 41  1  0  0  0  0
 42 40  1  0  0  0  0
M  END
