1,2,4
q = -2.0, confidence = 0.8

 35 36  0  0  1  0  0  0  0  0999 V2000
   -2.2985   -0.7183   -1.6712 S   0  0  0  0  0  1  0  0  0  0  0  0
    0.0387   -1.4962    2.3203 S   0  0  0  0  0  1  0  0  0  0  0  0
    2.3675    0.2336    2.6780 S   0  0  0  0  0  0  0  0  0  0  0  0
   -0.9489    0.7224    0.6574 N   0  0  0  0  0  2  0  0  0  0  0  0
    0.2832    0.9922    1.1934 N   0  0  0  0  0  2  0  0  0  0  0  0
   -3.3635    0.6235   -1.2189 C   0  0  0  0  0  0  0  0  0  0  0  0
   -4.6271    0.6708   -1.8450 C   0  0  0  0  0  0  0  0  0  0  0  0
   -4.8893   -0.1332   -2.5481 H   0  0  0  0  0  0  0  0  0  0  0  0
   -5.5391    1.6929   -1.5644 C   0  0  0  0  0  0  0  0  0  0  0  0
   -6.5244    1.6952   -2.0546 H   0  0  0  0  0  0  0  0  0  0  0  0
   -5.1976    2.6994   -0.6459 C   0  0  0  0  0  0  0  0  0  0  0  0
   -5.9146    3.4946   -0.3945 H   0  0  0  0  0  0  0  0  0  0  0  0
   -3.9354    2.6861   -0.0500 C   0  0  0  0  0  0  0  0  0  0  0  0
   -3.6808    3.4753    0.6717 H   0  0  0  0  0  0  0  0  0  0  0  0
   -2.9851    1.6652   -0.3154 C   0  0  0  0  0  0  0  0  0  0  0  0
   -1.6587    1.7827    0.3139 C   0  0  1  0  0  3  0  0  0  0  0  0
   -1.0963    3.1544    0.5833 C   0  0  0  0  0  0  0  0  0  0  0  0
   -0.0519    3.1856    0.2179 H   0  0  0  0  0  0  0  0  0  0  0  0
   -1.0389    3.3522    1.6739 H   0  0  0  0  0  0  0  0  0  0  0  0
   -1.6838    3.9483    0.0935 H   0  0  0  0  0  0  0  0  0  0  0  0
    0.7828    0.0395    1.9369 C   0  0  2  0  0  3  0  0  0  0  0  0
    2.8669    1.9012    2.0860 C   0  0  0  0  0  0  0  0  0  0  0  0
    1.9780    2.5562    2.1524 H   0  0  0  0  0  0  0  0  0  0  0  0
    3.6061    2.2287    2.8462 H   0  0  0  0  0  0  0  0  0  0  0  0
    3.4737    1.9243    0.7038 C   0  0  0  0  0  0  0  0  0  0  0  0
    2.9507    2.7677   -0.2949 C   0  0  0  0  0  0  0  0  0  0  0  0
    2.0658    3.3816   -0.0695 H   0  0  0  0  0  0  0  0  0  0  0  0
    3.5537    2.8453   -1.5606 C   0  0  0  0  0  0  0  0  0  0  0  0
    3.1327    3.5150   -2.3260 H   0  0  0  0  0  0  0  0  0  0  0  0
    4.6921    2.0758   -1.8459 C   0  0  0  0  0  0  0  0  0  0  0  0
    5.1719    2.1411   -2.8344 H   0  0  0  0  0  0  0  0  0  0  0  0
    5.2150    1.2209   -0.8605 C   0  0  0  0  0  0  0  0  0  0  0  0
    6.1073    0.6135   -1.0755 H   0  0  0  0  0  0  0  0  0  0  0  0
    4.6073    1.1424    0.3996 C   0  0  0  0  0  0  0  0  0  0  0  0
    5.0138    0.4623    1.1647 H   0  0  0  0  0  0  0  0  0  0  0  0
  1  6  1  0  0  0  0
  4  5  1  0  0  0  0
  5 21  1  0  0  0  0
  6 15  1  0  0  0  0
  7  9  1  0  0  0  0
  7  6  2  0  0  0  0
  8  7  1  0  0  0  0
  9 11  2  0  0  0  0
 10  9  1  0  0  0  0
 11 12  1  0  0  0  0
 11 13  1  0  0  0  0
 13 14  1  0  0  0  0
 15 13  2  0  0  0  0
 15 16  1  0  0  0  0
 16 17  1  0  0  0  0
 16  4  1  1  0  0  0
 17 19  1  0  0  0  0
 18 17  1  0  0  0  0
 20 17  1  0  0  0  0
 21  2  1  1  0  0  0
 21  3  1  0  0  0  0
 22 23  1  0  0  0  0
 22  3  1  0  0  0  0
 22 24  1  0  0  0  0
 25 22  1  0  0  0  0
 26 27  1  0  0  0  0
 26 25  2  0  0  0  0
 28 26  1  0  0  0  0
 29 28  1  0  0  0  0
 30 28  2  0  0  0  0
 30 32  1  0  0  0  0
 31 30  1  0  0  0  0
 32 34  2  0  0  0  0
 33 32  1  0  0  0  0
 34 25  1  0  0  0  0
 34 35  1  0  0  0  0
M  END
