2,3,4
q = -1.0, confidence = 0.0

 45 47  0  0  0  0  0  0  0  0999 V2000
   -1.4460   -0.2467   -0.1495 P   0  0  0  0  0  4  0  0  0  0  0  0
    3.7781   -0.3048    0.0939 S   0  0  0  0  0  0  0  0  0  0  0  0
   -0.4675   -1.6574   -1.2474 S   0  0  0  0  0  1  0  0  0  0  0  0
    1.2090    1.1026   -0.0729 N   0  0  0  0  0  2  0  0  0  0  0  0
    1.7478    2.7536    1.4731 O   0  0  0  0  0  0  0  0  0  0  0  0
    0.2079    1.9010   -0.6517 C   0  0  0  0  0  0  0  0  0  0  0  0
   -1.1247    1.4189   -0.7678 C   0  0  0  0  0  0  0  0  0  0  0  0
   -2.1335    2.1930   -1.3763 C   0  0  0  0  0  0  0  0  0  0  0  0
   -3.1531    1.7890   -1.4622 H   0  0  0  0  0  0  0  0  0  0  0  0
   -1.8362    3.4719   -1.8587 C   0  0  0  0  0  0  0  0  0  0  0  0
   -2.6214    4.0786   -2.3327 H   0  0  0  0  0  0  0  0  0  0  0  0
   -0.5273    3.9719   -1.7281 C   0  0  0  0  0  0  0  0  0  0  0  0
   -0.2858    4.9788   -2.1017 H   0  0  0  0  0  0  0  0  0  0  0  0
    0.4779    3.2038   -1.1337 C   0  0  0  0  0  0  0  0  0  0  0  0
    1.4946    3.6054   -1.0275 H   0  0  0  0  0  0  0  0  0  0  0  0
    1.9636    1.6677    0.9295 C   0  0  0  0  0  0  0  0  0  0  0  0
    3.1421    0.8084    1.4018 C   0  0  0  0  0  0  0  0  0  0  0  0
    2.8110    0.1323    2.2175 H   0  0  0  0  0  0  0  0  0  0  0  0
    3.9475    1.4625    1.7882 H   0  0  0  0  0  0  0  0  0  0  0  0
    4.4142    0.9308   -1.0902 C   0  0  0  0  0  0  0  0  0  0  0  0
    5.3154    1.4159   -0.6672 H   0  0  0  0  0  0  0  0  0  0  0  0
    3.6281    1.6739   -1.3202 H   0  0  0  0  0  0  0  0  0  0  0  0
    4.6788    0.3725   -2.0072 H   0  0  0  0  0  0  0  0  0  0  0  0
   -0.9699   -0.2824    1.6143 C   0  0  0  0  0  0  0  0  0  0  0  0
   -0.5922   -1.5098    2.1918 C   0  0  0  0  0  0  0  0  0  0  0  0
   -0.5773   -2.4195    1.5716 H   0  0  0  0  0  0  0  0  0  0  0  0
   -0.1964   -1.5466    3.5359 C   0  0  0  0  0  0  0  0  0  0  0  0
    0.1053   -2.5032    3.9883 H   0  0  0  0  0  0  0  0  0  0  0  0
   -0.1666   -0.3642    4.2958 C   0  0  0  0  0  0  0  0  0  0  0  0
    0.1591   -0.3950    5.3467 H   0  0  0  0  0  0  0  0  0  0  0  0
   -0.5372    0.8585    3.7134 C   0  0  0  0  0  0  0  0  0  0  0  0
   -0.4896    1.7898    4.2969 H   0  0  0  0  0  0  0  0  0  0  0  0
   -0.9452    0.9045    2.3719 C   0  0  0  0  0  0  0  0  0  0  0  0
   -1.1937    1.8690    1.9048 H   0  0  0  0  0  0  0  0  0  0  0  0
   -3.2445   -0.5340   -0.2507 C   0  0  0  0  0  0  0  0  0  0  0  0
   -3.7916   -1.0619   -1.4379 C   0  0  0  0  0  0  0  0  0  0  0  0
   -3.1249   -1.3286   -2.2725 H   0  0  0  0  0  0  0  0  0  0  0  0
   -5.1770   -1.2516   -1.5395 C   0  0  0  0  0  0  0  0  0  0  0  0
   -5.6034   -1.6669   -2.4649 H   0  0  0  0  0  0  0  0  0  0  0  0
   -6.0153   -0.9182   -0.4630 C   0  0  0  0  0  0  0  0  0  0  0  0
   -7.1020   -1.0714   -0.5450 H   0  0  0  0  0  0  0  0  0  0  0  0
   -5.4687   -0.3962    0.7204 C   0  0  0  0  0  0  0  0  0  0  0  0
   -6.1240   -0.1412    1.5667 H   0  0  0  0  0  0  0  0  0  0  0  0
   -4.0838   -0.2032    0.8317 C   0  0  0  0  0  0  0  0  0  0  0  0
   -3.6532    0.1981    1.7615 H   0  0  0  0  0  0  0  0  0  0  0  0
  1 24  1  0  0  0  0
  2 17  1  0  0  0  0
  3  1  1  0  0  0  0
  4 16  1  0  0  0  0
  6  4  1  0  0  0  0
  7  6  1  0  0  0  0
  7  1  1  0  0  0  0
  8  7  2  0  0  0  0
  9  8  1  0  0  0  0
 10 12  2  0  0  0  0
 10  8  1  0  0  0  0
 11 10  1  0  0  0  0
 12 14  1  0  0  0  0
 13 12  1  0  0  0  0
 14 15  1  0  0  0  0
 14  6  2  0  0  0  0
 16 17  1  0  0  0  0
 16  5  2  0  0  0  0
 17 19  1  0  0  0  0
 17 18  1  0  0  0  0
 20 21  1  0  0  0  0
 20  2  1  0  0  0  0
 22 20  1  0  0  0  0
 23 20  1  0  0  0  0
 24 25  2  0  0  0  0
 24 33  1  0  0  0  0
 25 27  1  0  0  0  0
 26 25  1  0  0  0  0
 27 28  1  0  0  0  0
 27 29  2  0  0  0  0
 29 30  1  0  0  0  0
 31 29  1  0  0  0  0
 31 32  1  0  0  0  0
 33 31  2  0  0  0  0
 34 33  1  0  0  0  0
 35  1  1  0  0  0  0
 35 44  1  0  0  0  0
 36 35  2  0  0  0  0
 37 36  1  0  0  0  0
 38 36  1  0  0  0  0
 38 40  2  0  0  0  0
 39 38  1  0  0  0  0
 40 42  1  0  0  0  0
 41 40  1  0  0  0  0
 42 44  2  0  0  0  0
 42 43  1  0  0  0  0
 44 45  1  0  0  0  0
M  END
