1,2,7
q = 0.0, confidence = 0.988

 65 68  0  0  1  0  0  0  0  0999 V2000
    1.4331   -1.5385    1.6273 S   0  0  0  0  0  0  0  0  0  0  0  0
   -0.6059   -1.0457   -2.2710 S   0  0  0  0  0  0  0  0  0  0  0  0
   -2.1064    1.5445   -0.5582 O   0  0  0  0  0  0  0  0  0  0  0  0
    2.9486    1.0120   -0.0818 O   0  0  0  0  0  0  0  0  0  0  0  0
   -1.3040   -0.1332    2.3125 O   0  0  0  0  0  0  0  0  0  0  0  0
   -1.8649   -2.1595    0.3556 O   0  0  0  0  0  0  0  0  0  0  0  0
    0.4351    2.3690   -0.1082 N   0  0  0  0  0  2  0  0  0  0  0  0
   -3.2190    0.7553   -0.6103 C   0  0  0  0  0  0  0  0  0  0  0  0
   -1.9236    2.4434    0.5259 C   0  0  0  0  0  0  0  0  0  0  0  0
   -1.9184    1.8749    1.4853 H   0  0  0  0  0  0  0  0  0  0  0  0
   -2.7391    3.1986    0.5612 H   0  0  0  0  0  0  0  0  0  0  0  0
   -0.5961    3.1329    0.3093 C   0  0  2  0  0  3  0  0  0  0  0  0
   -0.4603    4.5177    0.5104 C   0  0  0  0  0  0  0  0  0  0  0  0
   -1.3258    5.1113    0.8392 H   0  0  0  0  0  0  0  0  0  0  0  0
    0.7778    5.1218    0.2668 C   0  0  0  0  0  0  0  0  0  0  0  0
    0.9150    6.2019    0.4234 H   0  0  0  0  0  0  0  0  0  0  0  0
    1.8320    4.3298   -0.2075 C   0  0  0  0  0  0  0  0  0  0  0  0
    2.8135    4.7692   -0.4368 H   0  0  0  0  0  0  0  0  0  0  0  0
    1.6180    2.9554   -0.3958 C   0  0  0  0  0  0  0  0  0  0  0  0
    2.6906    2.0727   -0.9874 C   0  0  0  0  0  0  0  0  0  0  0  0
    2.3230    1.6677   -1.9597 H   0  0  0  0  0  0  0  0  0  0  0  0
    3.6137    2.6602   -1.1850 H   0  0  0  0  0  0  0  0  0  0  0  0
    3.7303   -0.0378   -0.4873 C   0  0  0  0  0  0  0  0  0  0  0  0
    4.3609   -0.1220   -1.7398 C   0  0  0  0  0  0  0  0  0  0  0  0
    4.2703    0.6874   -2.4762 H   0  0  0  0  0  0  0  0  0  0  0  0
    5.1242   -1.2597   -2.0516 C   0  0  0  0  0  0  0  0  0  0  0  0
    5.6161   -1.3217   -3.0338 H   0  0  0  0  0  0  0  0  0  0  0  0
    5.2663   -2.3027   -1.1264 C   0  0  0  0  0  0  0  0  0  0  0  0
    5.8676   -3.1886   -1.3753 H   0  0  0  0  0  0  0  0  0  0  0  0
    4.6409   -2.2037    0.1257 C   0  0  0  0  0  0  0  0  0  0  0  0
    4.7506   -3.0144    0.8630 H   0  0  0  0  0  0  0  0  0  0  0  0
    3.8757   -1.0763    0.4682 C   0  0  0  0  0  0  0  0  0  0  0  0
    3.1878   -0.9561    1.7940 C   0  0  0  0  0  0  0  0  0  0  0  0
    3.1650    0.0929    2.1457 H   0  0  0  0  0  0  0  0  0  0  0  0
    3.6666   -1.6023    2.5548 H   0  0  0  0  0  0  0  0  0  0  0  0
    0.7512   -1.1310    3.2894 C   0  0  0  0  0  0  0  0  0  0  0  0
    0.3132   -2.0663    3.6906 H   0  0  0  0  0  0  0  0  0  0  0  0
    1.6011   -0.8665    3.9505 H   0  0  0  0  0  0  0  0  0  0  0  0
   -0.2712    0.0049    3.2761 C   0  0  0  0  0  0  0  0  0  0  0  0
   -0.7042    0.1041    4.3008 H   0  0  0  0  0  0  0  0  0  0  0  0
    0.2347    0.9597    3.0236 H   0  0  0  0  0  0  0  0  0  0  0  0
   -2.2399   -1.1975    2.5057 C   0  0  0  0  0  0  0  0  0  0  0  0
   -3.2109   -0.8188    2.1268 H   0  0  0  0  0  0  0  0  0  0  0  0
   -2.3540   -1.4337    3.5878 H   0  0  0  0  0  0  0  0  0  0  0  0
   -1.8935   -2.4644    1.7342 C   0  0  0  0  0  0  0  0  0  0  0  0
   -0.9129   -2.8878    2.0573 H   0  0  0  0  0  0  0  0  0  0  0  0
   -2.6675   -3.2390    1.9612 H   0  0  0  0  0  0  0  0  0  0  0  0
   -1.2093   -3.1299   -0.4341 C   0  0  0  0  0  0  0  0  0  0  0  0
   -1.6999   -4.1294   -0.3340 H   0  0  0  0  0  0  0  0  0  0  0  0
   -0.1491   -3.2494   -0.1014 H   0  0  0  0  0  0  0  0  0  0  0  0
   -1.2686   -2.7228   -1.8970 C   0  0  0  0  0  0  0  0  0  0  0  0
   -2.3152   -2.7336   -2.2581 H   0  0  0  0  0  0  0  0  0  0  0  0
   -0.6867   -3.4416   -2.5067 H   0  0  0  0  0  0  0  0  0  0  0  0
   -2.1649   -0.1303   -2.7304 C   0  0  0  0  0  0  0  0  0  0  0  0
   -1.7913    0.8925   -2.9320 H   0  0  0  0  0  0  0  0  0  0  0  0
   -2.4993   -0.5754   -3.6873 H   0  0  0  0  0  0  0  0  0  0  0  0
   -3.2684   -0.1290   -1.7191 C   0  0  0  0  0  0  0  0  0  0  0  0
   -4.3811   -0.9785   -1.8409 C   0  0  0  0  0  0  0  0  0  0  0  0
   -4.4451   -1.6484   -2.7133 H   0  0  0  0  0  0  0  0  0  0  0  0
   -5.4184   -0.9683   -0.8946 C   0  0  0  0  0  0  0  0  0  0  0  0
   -6.2818   -1.6381   -1.0141 H   0  0  0  0  0  0  0  0  0  0  0  0
   -5.3540   -0.0802    0.1865 C   0  0  0  0  0  0  0  0  0  0  0  0
   -6.1687   -0.0481    0.9254 H   0  0  0  0  0  0  0  0  0  0  0  0
   -4.2591    0.7901    0.3323 C   0  0  0  0  0  0  0  0  0  0  0  0
   -4.2291    1.4912    1.1771 H   0  0  0  0  0  0  0  0  0  0  0  0
  1 33  1  0  0  0  0
  1 36  1  0  0  0  0
  2 51  1  0  0  0  0
  3  9  1  0  0  0  0
  5 42  1  0  0  0  0
  5 39  1  0  0  0  0
  6 45  1  0  0  0  0
  8  3  1  0  0  0  0
  8 64  1  0  0  0  0
  9 11  1  0  0  0  0
  9 10  1  0  0  0  0
 12  7  1  6  0  0  0
 12 13  1  0  0  0  0
 12  9  1  0  0  0  0
 13 14  1  0  0  0  0
 15 16  1  0  0  0  0
 15 13  2  0  0  0  0
 17 15  1  0  0  0  0
 18 17  1  0  0  0  0
 19 17  2  0  0  0  0
 19  7  1  0  0  0  0
 20 19  1  0  0  0  0
 20  4  1  0  0  0  0
 21 20  1  0  0  0  0
 22 20  1  0  0  0  0
 23  4  1  0  0  0  0
 23 32  1  0  0  0  0
 24 23  2  0  0  0  0
 25 24  1  0  0  0  0
 26 24  1  0  0  0  0
 26 28  2  0  0  0  0
 27 26  1  0  0  0  0
 28 30  1  0  0  0  0
 29 28  1  0  0  0  0
 30 32  2  0  0  0  0
 30 31  1  0  0  0  0
 32 33  1  0  0  0  0
 33 34  1  0  0  0  0
 33 35  1  0  0  0  0
 36 37  1  0  0  0  0
 36 38  1  0  0  0  0
 39 36  1  0  0  0  0
 39 40  1  0  0  0  0
 41 39  1  0  0  0  0
 42 44  1  0  0  0  0
 43 42  1  0  0  0  0
 45 47  1  0  0  0  0
 45 46  1  0  0  0  0
 45 42  1  0  0  0  0
 48 49  1  0  0  0  0
 48 50  1  0  0  0  0
 48  6  1  0  0  0  0
 51 48  1  0  0  0  0
 52 51  1  0  0  0  0
 53 51  1  0  0  0  0
 54  2  1  0  0  0  0
 54 57  1  0  0  0  0
 55 54  1  0  0  0  0
 56 54  1  0  0  0  0
 57  8  2  0  0  0  0
 58 57  1  0  0  0  0
 58 60  2  0  0  0  0
 59 58  1  0  0  0  0
 60 62  1  0  0  0  0
 61 60  1  0  0  0  0
 62 64  2  0  0  0  0
 62 63  1  0  0  0  0
 64 65  1  0  0  0  0
M  END
