1,2,3
q = 0.0, confidence = 0.998

 39 41  0  0  1  0  0  0  0  0999 V2000
   -2.1928   -0.9377   -0.9180 S   0  0  0  0  0  0  0  0  0  0  0  0
    1.1684    1.5763    1.0737 S   0  0  0  0  0  0  0  0  0  0  0  0
   -1.1407   -0.0492    1.6935 N   0  0  0  0  0  2  0  0  0  0  0  0
   -3.7384   -0.0283   -1.0747 C   0  0  0  0  0  0  0  0  0  0  0  0
   -3.8543    0.7189   -2.2616 C   0  0  0  0  0  0  0  0  0  0  0  0
   -3.0064    0.7612   -2.9631 H   0  0  0  0  0  0  0  0  0  0  0  0
   -5.0277    1.4410   -2.5053 C   0  0  0  0  0  0  0  0  0  0  0  0
   -5.1154    2.0339   -3.4282 H   0  0  0  0  0  0  0  0  0  0  0  0
   -6.0804    1.4217   -1.5747 C   0  0  0  0  0  0  0  0  0  0  0  0
   -7.0016    1.9908   -1.7701 H   0  0  0  0  0  0  0  0  0  0  0  0
   -5.9466    0.6876   -0.3878 C   0  0  0  0  0  0  0  0  0  0  0  0
   -6.7581    0.6852    0.3558 H   0  0  0  0  0  0  0  0  0  0  0  0
   -4.7718   -0.0362   -0.1266 C   0  0  0  0  0  0  0  0  0  0  0  0
   -4.6674   -0.5737    0.8255 H   0  0  0  0  0  0  0  0  0  0  0  0
   -2.3862   -1.8793    0.6471 C   0  0  0  0  0  0  0  0  0  0  0  0
   -3.3995   -2.3192    0.7181 H   0  0  0  0  0  0  0  0  0  0  0  0
   -1.6716   -2.7180    0.5163 H   0  0  0  0  0  0  0  0  0  0  0  0
   -2.0135   -1.0879    1.8691 C   0  0  1  0  0  3  0  0  0  0  0  0
   -2.5000   -1.4252    3.1380 C   0  0  0  0  0  0  0  0  0  0  0  0
   -3.1955   -2.2705    3.2392 H   0  0  0  0  0  0  0  0  0  0  0  0
   -2.0803   -0.6968    4.2589 C   0  0  0  0  0  0  0  0  0  0  0  0
   -2.4339   -0.9621    5.2656 H   0  0  0  0  0  0  0  0  0  0  0  0
   -1.2158    0.3889    4.0671 C   0  0  0  0  0  0  0  0  0  0  0  0
   -0.8862    1.0078    4.9136 H   0  0  0  0  0  0  0  0  0  0  0  0
   -0.7850    0.7172    2.7751 C   0  0  0  0  0  0  0  0  0  0  0  0
    0.0226    1.9478    2.4906 C   0  0  0  0  0  0  0  0  0  0  0  0
    0.5860    2.3064    3.3731 H   0  0  0  0  0  0  0  0  0  0  0  0
   -0.6663    2.7273    2.0939 H   0  0  0  0  0  0  0  0  0  0  0  0
    1.6846    3.2112    0.5224 C   0  0  0  0  0  0  0  0  0  0  0  0
    0.8809    4.0073   -0.3113 C   0  0  0  0  0  0  0  0  0  0  0  0
   -0.1308    3.6615   -0.5784 H   0  0  0  0  0  0  0  0  0  0  0  0
    1.3959    5.2292   -0.7699 C   0  0  0  0  0  0  0  0  0  0  0  0
    0.7756    5.8619   -1.4228 H   0  0  0  0  0  0  0  0  0  0  0  0
    2.6922    5.6393   -0.4166 C   0  0  0  0  0  0  0  0  0  0  0  0
    3.0869    6.5970   -0.7895 H   0  0  0  0  0  0  0  0  0  0  0  0
    3.4917    4.8245    0.4019 C   0  0  0  0  0  0  0  0  0  0  0  0
    4.5121    5.1375    0.6708 H   0  0  0  0  0  0  0  0  0  0  0  0
    2.9922    3.6000    0.8693 C   0  0  0  0  0  0  0  0  0  0  0  0
    3.6133    2.9351    1.4886 H   0  0  0  0  0  0  0  0  0  0  0  0
  1 15  1  0  0  0  0
  2 26  1  0  0  0  0
  3 18  1  0  0  0  0
  3 25  1  0  0  0  0
  4  1  1  0  0  0  0
  4 13  1  0  0  0  0
  5  4  2  0  0  0  0
  6  5  1  0  0  0  0
  7  5  1  0  0  0  0
  7  9  2  0  0  0  0
  8  7  1  0  0  0  0
  9 11  1  0  0  0  0
 10  9  1  0  0  0  0
 11 13  2  0  0  0  0
 11 12  1  0  0  0  0
 13 14  1  0  0  0  0
 15 16  1  0  0  0  0
 17 15  1  0  0  0  0
 18 15  1  1  0  0  0
 18 19  1  0  0  0  0
 19 20  1  0  0  0  0
 19 21  2  0  0  0  0
 21 22  1  0  0  0  0
 23 21  1  0  0  0  0
 23 24  1  0  0  0  0
 25 23  2  0  0  0  0
 26 25  1  0  0  0  0
 26 27  1  0  0  0  0
 28 26  1  0  0  0  0
 29 38  1  0  0  0  0
 29  2  1  0  0  0  0
 30 29  2  0  0  0  0
 31 30  1  0  0  0  0
 32 34  2  0  0  0  0
 32 30  1  0  0  0  0
 33 32  1  0  0  0  0
 34 36  1  0  0  0  0
 35 34  1  0  0  0  0
 36 37  1  0  0  0  0
 36 38  2  0  0  0  0
 38 39  1  0  0  0  0
M  END
