1,2,6
q = -1.0, confidence = 0.0

 35 35  0  0  1  0  0  0  0  0999 V2000
    2.2231    0.4354   -1.7378 S   0  0  0  0  0  0  0  0  0  0  0  0
   -1.2857    0.9291    1.2413 S   0  0  0  0  0  0  0  0  0  0  0  0
   -1.1312   -3.0600   -0.6325 O   0  0  0  0  0  0  0  0  0  0  0  0
    3.2927   -1.8077    0.9248 O   0  0  0  0  0  0  0  0  0  0  0  0
    1.2428   -1.8903    1.8828 O   0  0  0  0  0  0  0  0  0  0  0  0
    0.0741   -1.1215   -0.4449 N   0  0  0  0  0  2  0  0  0  0  0  0
   -2.3952   -1.0638   -0.3701 C   0  0  0  0  0  0  0  0  0  0  0  0
   -2.6211    0.1646    0.2993 C   0  0  0  0  0  0  0  0  0  0  0  0
   -3.9075    0.7354    0.3325 C   0  0  0  0  0  0  0  0  0  0  0  0
   -4.0889    1.6757    0.8693 H   0  0  0  0  0  0  0  0  0  0  0  0
   -4.9785    0.1022   -0.3128 C   0  0  0  0  0  0  0  0  0  0  0  0
   -5.9755    0.5671   -0.2875 H   0  0  0  0  0  0  0  0  0  0  0  0
   -4.7756   -1.1196   -0.9695 C   0  0  0  0  0  0  0  0  0  0  0  0
   -5.6131   -1.6289   -1.4689 H   0  0  0  0  0  0  0  0  0  0  0  0
   -3.4996   -1.6925   -0.9800 C   0  0  0  0  0  0  0  0  0  0  0  0
   -3.3055   -2.6621   -1.4612 H   0  0  0  0  0  0  0  0  0  0  0  0
   -1.0898   -1.8262   -0.4722 C   0  0  0  0  0  0  0  0  0  0  0  0
    1.3047   -1.8920   -0.4964 C   0  0  1  0  0  0  0  0  0  0  0  0
    1.0085   -2.9586   -0.6573 H   0  0  0  0  0  0  0  0  0  0  0  0
    2.1813   -1.4168   -1.6542 C   0  0  0  0  0  0  0  0  0  0  0  0
    1.7486   -1.7371   -2.6204 H   0  0  0  0  0  0  0  0  0  0  0  0
    3.2227   -1.7796   -1.5653 H   0  0  0  0  0  0  0  0  0  0  0  0
    2.0756   -1.8464    0.8289 C   0  0  0  0  0  0  0  0  0  0  0  0
    1.8695   -1.8544    3.1714 C   0  0  0  0  0  0  0  0  0  0  0  0
    1.0544   -1.9576    3.9087 H   0  0  0  0  0  0  0  0  0  0  0  0
    2.4000   -0.8915    3.3160 H   0  0  0  0  0  0  0  0  0  0  0  0
    2.6016   -2.6795    3.2780 H   0  0  0  0  0  0  0  0  0  0  0  0
    3.7486    0.8719   -0.8354 C   0  0  0  0  0  0  0  0  0  0  0  0
    3.6090    1.9325   -0.5510 H   0  0  0  0  0  0  0  0  0  0  0  0
    4.6073    0.7560   -1.5237 H   0  0  0  0  0  0  0  0  0  0  0  0
    3.8650    0.2327    0.0576 H   0  0  0  0  0  0  0  0  0  0  0  0
   -1.8194    2.6597    1.4065 C   0  0  0  0  0  0  0  0  0  0  0  0
   -0.8885    3.2164    1.6274 H   0  0  0  0  0  0  0  0  0  0  0  0
   -2.5503    2.7454    2.2318 H   0  0  0  0  0  0  0  0  0  0  0  0
   -2.2313    3.0285    0.4499 H   0  0  0  0  0  0  0  0  0  0  0  0
  1 20  1  0  0  0  0
  1 28  1  0  0  0  0
  2 32  1  0  0  0  0
  3 17  2  0  0  0  0
  5 24  1  0  0  0  0
  7  8  1  0  0  0  0
  8  9  2  0  0  0  0
  8  2  1  0  0  0  0
  9 10  1  0  0  0  0
 11 12  1  0  0  0  0
 11  9  1  0  0  0  0
 13 11  2  0  0  0  0
 14 13  1  0  0  0  0
 15 13  1  0  0  0  0
 15  7  2  0  0  0  0
 16 15  1  0  0  0  0
 17  6  1  0  0  0  0
 17  7  1  0  0  0  0
 18 19  1  6  0  0  0
 18  6  1  0  0  0  0
 18 23  1  0  0  0  0
 20 22  1  0  0  0  0
 20 18  1  0  0  0  0
 21 20  1  0  0  0  0
 23  4  2  0  0  0  0
 23  5  1  0  0  0  0
 24 27  1  0  0  0  0
 24 26  1  0  0  0  0
 24 25  1  0  0  0  0
 28 29  1  0  0  0  0
 28 31  1  0  0  0  0
 30 28  1  0  0  0  0
 32 33  1  0  0  0  0
 32 34  1  0  0  0  0
 35 32  1  0  0  0  0
M  END
