37,40,41
q = -2.0, confidence = 0.894

 41 41  0  0  0  0  0  0  0  0999 V2000
    1.3194    2.9102   -0.3065 C   0  0  0  0  0  0  0  0  0  0  0  0
    1.4692    4.3053   -0.3781 C   0  0  0  0  0  0  0  0  0  0  0  0
    2.4936    4.6980   -0.3142 H   0  0  0  0  0  0  0  0  0  0  0  0
    0.3328    5.1086   -0.5227 C   0  0  0  0  0  0  0  0  0  0  0  0
    0.4299    6.2033   -0.5837 H   0  0  0  0  0  0  0  0  0  0  0  0
   -0.9286    4.5060   -0.5864 C   0  0  0  0  0  0  0  0  0  0  0  0
   -1.8687    5.0646   -0.6950 H   0  0  0  0  0  0  0  0  0  0  0  0
   -1.0257    3.1070   -0.5068 C   0  0  0  0  0  0  0  0  0  0  0  0
   -2.3509    2.4274   -0.5552 C   0  0  0  0  0  0  0  0  0  0  0  0
   -4.7121    2.5566   -0.6699 C   0  0  0  0  0  0  0  0  0  0  0  0
   -4.7719    1.7147    0.0647 H   0  0  0  0  0  0  0  0  0  0  0  0
   -4.8597    2.0671   -1.6632 H   0  0  0  0  0  0  0  0  0  0  0  0
   -5.8197    3.5837   -0.4194 C   0  0  0  0  0  0  0  0  0  0  0  0
   -5.7690    4.3536   -1.2189 H   0  0  0  0  0  0  0  0  0  0  0  0
   -6.8047    3.0777   -0.5264 H   0  0  0  0  0  0  0  0  0  0  0  0
   -5.7276    4.2702    0.9503 C   0  0  0  0  0  0  0  0  0  0  0  0
   -4.7337    4.7632    1.0212 H   0  0  0  0  0  0  0  0  0  0  0  0
   -6.4819    5.0851    0.9962 H   0  0  0  0  0  0  0  0  0  0  0  0
   -5.9194    3.3299    2.1426 C   0  0  0  0  0  0  0  0  0  0  0  0
   -6.8992    2.8086    2.0951 H   0  0  0  0  0  0  0  0  0  0  0  0
   -5.8824    3.8823    3.1034 H   0  0  0  0  0  0  0  0  0  0  0  0
   -5.1315    2.5498    2.1847 H   0  0  0  0  0  0  0  0  0  0  0  0
    2.5084    2.0250   -0.1495 C   0  0  0  0  0  0  0  0  0  0  0  0
    4.8477    1.7705    0.0946 C   0  0  0  0  0  0  0  0  0  0  0  0
    4.9559    1.0870   -0.7851 H   0  0  0  0  0  0  0  0  0  0  0  0
    4.7237    1.0758    0.9641 H   0  0  0  0  0  0  0  0  0  0  0  0
    6.1073    2.6184    0.2630 C   0  0  0  0  0  0  0  0  0  0  0  0
    5.9714    3.2858    1.1425 H   0  0  0  0  0  0  0  0  0  0  0  0
    6.2018    3.2930   -0.6164 H   0  0  0  0  0  0  0  0  0  0  0  0
    7.3810    1.7870    0.4272 C   0  0  0  0  0  0  0  0  0  0  0  0
    7.2650    1.1083    1.3019 H   0  0  0  0  0  0  0  0  0  0  0  0
    7.4967    1.1168   -0.4541 H   0  0  0  0  0  0  0  0  0  0  0  0
    8.6425    2.6341    0.5979 C   0  0  0  0  0  0  0  0  0  0  0  0
    8.8041    3.2963   -0.2784 H   0  0  0  0  0  0  0  0  0  0  0  0
    9.5488    2.0061    0.7143 H   0  0  0  0  0  0  0  0  0  0  0  0
    8.5704    3.2873    1.4927 H   0  0  0  0  0  0  0  0  0  0  0  0
    0.0884    2.3407   -0.3755 N   0  0  0  0  0  2  0  0  0  0  0  0
    3.6683    2.5856   -0.0621 N   0  0  0  0  0  2  0  0  0  0  0  0
   -3.4058    3.1695   -0.6314 N   0  0  0  0  0  0  0  0  0  0  0  0
   -2.3723    0.6520   -0.5143 S   0  0  0  0  0  1  0  0  0  0  0  0
    2.2402    0.2683   -0.1172 S   0  0  0  0  0  1  0  0  0  0  0  0
  1 23  2  0  0  0  0
  2  3  1  0  0  0  0
  2  1  1  0  0  0  0
  4  2  2  0  0  0  0
  5  4  1  0  0  0  0
  6  4  1  0  0  0  0
  6  8  2  0  0  0  0
  7  6  1  0  0  0  0
  8 37  1  0  0  0  0
  9 40  1  0  0  0  0
  9  8  1  0  0  0  0
 10 39  1  0  0  0  0
 10 13  1  0  0  0  0
 10 11  1  0  0  0  0
 12 10  1  0  0  0  0
 13 16  1  0  0  0  0
 14 13  1  0  0  0  0
 15 13  1  0  0  0  0
 16 18  1  0  0  0  0
 16 17  1  0  0  0  0
 16 19  1  0  0  0  0
 19 22  1  0  0  0  0
 19 21  1  0  0  0  0
 20 19  1  0  0  0  0
 23 41  1  0  0  0  0
 23 38  1  0  0  0  0
 24 27  1  0  0  0  0
 24 26  1  0  0  0  0
 25 24  1  0  0  0  0
 27 30  1  0  0  0  0
 27 28  1  0  0  0  0
 29 27  1  0  0  0  0
 30 33  1  0  0  0  0
 30 31  1  0  0  0  0
 32 30  1  0  0  0  0
 33 35  1  0  0  0  0
 33 36  1  0  0  0  0
 34 33  1  0  0  0  0
 37  1  1  0  0  0  0
 38 24  1  0  0  0  0
 39  9  2  0  0  0  0
M  END
