1,2,4
q = -2.0, confidence = 0.982

 53 54  0  0  1  0  0  0  0  0999 V2000
    2.6221   -0.4407    0.4553 S   0  0  0  0  0  1  0  0  0  0  0  0
   -1.4367   -2.0252   -0.1782 S   0  0  0  0  0  1  0  0  0  0  0  0
    1.5681    2.0083   -0.1356 N   0  0  0  0  0  2  0  0  0  0  0  0
   -0.2344    0.5057   -0.5758 N   0  0  0  0  0  2  0  0  0  0  0  0
   -1.5860    0.5860   -0.8836 N   0  0  0  0  0  0  0  0  0  0  0  0
   -3.5657   -0.6053   -1.1286 N   0  0  0  0  0  0  0  0  0  0  0  0
    3.8295    1.7706   -0.5213 N   0  0  0  0  0  0  0  0  0  0  0  0
    2.6404    1.2404   -0.1298 C   0  0  1  0  0  3  0  0  0  0  0  0
    0.2814    1.6805   -0.1046 C   0  0  2  0  0  3  0  0  0  0  0  0
   -2.2511   -0.5331   -0.7723 C   0  0  0  0  0  0  0  0  0  0  0  0
   -0.6224    2.7201    0.4621 C   0  0  0  0  0  0  0  0  0  0  0  0
   -0.3924    4.0820    0.1803 C   0  0  0  0  0  0  0  0  0  0  0  0
    0.4126    4.3496   -0.5191 H   0  0  0  0  0  0  0  0  0  0  0  0
   -1.1868    5.0733    0.7735 C   0  0  0  0  0  0  0  0  0  0  0  0
   -1.0107    6.1324    0.5313 H   0  0  0  0  0  0  0  0  0  0  0  0
   -2.1999    4.7171    1.6771 C   0  0  0  0  0  0  0  0  0  0  0  0
   -2.8196    5.4954    2.1477 H   0  0  0  0  0  0  0  0  0  0  0  0
   -2.4148    3.3623    1.9860 C   0  0  0  0  0  0  0  0  0  0  0  0
   -3.1944    3.0773    2.7089 H   0  0  0  0  0  0  0  0  0  0  0  0
   -1.6399    2.3688    1.3768 C   0  0  0  0  0  0  0  0  0  0  0  0
   -1.8058    1.3103    1.6225 H   0  0  0  0  0  0  0  0  0  0  0  0
   -4.2484    0.5953   -1.6156 C   0  0  0  0  0  0  0  0  0  0  0  0
   -5.0344    0.2498   -2.3217 H   0  0  0  0  0  0  0  0  0  0  0  0
   -3.5113    1.1935   -2.1848 H   0  0  0  0  0  0  0  0  0  0  0  0
   -4.8726    1.4517   -0.5082 C   0  0  0  0  0  0  0  0  0  0  0  0
   -4.0528    1.9330    0.0659 H   0  0  0  0  0  0  0  0  0  0  0  0
   -5.4343    2.2768   -0.9972 H   0  0  0  0  0  0  0  0  0  0  0  0
   -5.7936    0.6986    0.4650 C   0  0  0  0  0  0  0  0  0  0  0  0
   -6.6334    0.2171   -0.0868 H   0  0  0  0  0  0  0  0  0  0  0  0
   -6.2699    1.4505    1.1287 H   0  0  0  0  0  0  0  0  0  0  0  0
   -5.0687   -0.3410    1.3427 C   0  0  0  0  0  0  0  0  0  0  0  0
   -4.0827    0.0833    1.6350 H   0  0  0  0  0  0  0  0  0  0  0  0
   -5.6233   -0.4756    2.2946 H   0  0  0  0  0  0  0  0  0  0  0  0
   -4.8540   -1.7358    0.7282 C   0  0  0  0  0  0  0  0  0  0  0  0
   -5.7916   -2.3293    0.7911 H   0  0  0  0  0  0  0  0  0  0  0  0
   -4.1052   -2.2788    1.3417 H   0  0  0  0  0  0  0  0  0  0  0  0
   -4.4030   -1.7376   -0.7480 C   0  0  0  0  0  0  0  0  0  0  0  0
   -3.8663   -2.6807   -0.9823 H   0  0  0  0  0  0  0  0  0  0  0  0
   -5.2854   -1.7010   -1.4176 H   0  0  0  0  0  0  0  0  0  0  0  0
    3.8680    3.1691   -0.9736 C   0  0  0  0  0  0  0  0  0  0  0  0
    4.7622    3.2712   -1.6209 H   0  0  0  0  0  0  0  0  0  0  0  0
    2.9775    3.3426   -1.6093 H   0  0  0  0  0  0  0  0  0  0  0  0
    3.9001    4.1900    0.1650 C   0  0  0  0  0  0  0  0  0  0  0  0
    4.8001    4.0710    0.7994 H   0  0  0  0  0  0  0  0  0  0  0  0
    3.0006    4.0842    0.8016 H   0  0  0  0  0  0  0  0  0  0  0  0
    3.9097    5.2178   -0.2507 H   0  0  0  0  0  0  0  0  0  0  0  0
    5.0838    1.0195   -0.4223 C   0  0  0  0  0  0  0  0  0  0  0  0
    5.7601    1.4187   -1.2053 H   0  0  0  0  0  0  0  0  0  0  0  0
    4.8661   -0.0364   -0.6854 H   0  0  0  0  0  0  0  0  0  0  0  0
    5.7524    1.0819    0.9522 C   0  0  0  0  0  0  0  0  0  0  0  0
    5.0825    0.6683    1.7322 H   0  0  0  0  0  0  0  0  0  0  0  0
    6.0211    2.1187    1.2350 H   0  0  0  0  0  0  0  0  0  0  0  0
    6.6806    0.4761    0.9478 H   0  0  0  0  0  0  0  0  0  0  0  0
  3  8  1  0  0  0  0
  3  9  1  0  0  0  0
  5 10  2  0  0  0  0
  5  4  1  0  0  0  0
  6 10  1  0  0  0  0
  6 37  1  0  0  0  0
  7 47  1  0  0  0  0
  7  8  1  0  0  0  0
  8  1  1  1  0  0  0
  9  4  1  6  0  0  0
  9 11  1  0  0  0  0
 10  2  1  0  0  0  0
 11 20  1  0  0  0  0
 12 11  2  0  0  0  0
 12 14  1  0  0  0  0
 13 12  1  0  0  0  0
 14 16  2  0  0  0  0
 15 14  1  0  0  0  0
 16 18  1  0  0  0  0
 16 17  1  0  0  0  0
 18 19  1  0  0  0  0
 20 21  1  0  0  0  0
 20 18  2  0  0  0  0
 22  6  1  0  0  0  0
 22 25  1  0  0  0  0
 23 22  1  0  0  0  0
 24 22  1  0  0  0  0
 25 26  1  0  0  0  0
 25 28  1  0  0  0  0
 27 25  1  0  0  0  0
 28 30  1  0  0  0  0
 28 31  1  0  0  0  0
 29 28  1  0  0  0  0
 31 32  1  0  0  0  0
 31 33  1  0  0  0  0
 34 35  1  0  0  0  0
 34 36  1  0  0  0  0
 34 31  1  0  0  0  0
 37 34  1  0  0  0  0
 38 37  1  0  0  0  0
 39 37  1  0  0  0  0
 40  7  1  0  0  0  0
 40 43  1  0  0  0  0
 41 40  1  0  0  0  0
 42 40  1  0  0  0  0
 43 44  1  0  0  0  0
 43 45  1  0  0  0  0
 46 43  1  0  0  0  0
 47 50  1  0  0  0  0
 48 47  1  0  0  0  0
 49 47  1  0  0  0  0
 50 52  1  0  0  0  0
 50 51  1  0  0  0  0
 53 50  1  0  0  0  0
M  END
