1,2,3
q = -2.0, confidence = 0.862

 42 44  0  0  1  0  0  0  0  0999 V2000
    1.2599    1.6375   -0.5674 S   0  0  0  0  0  1  0  0  0  0  0  0
   -1.0268   -1.9943   -0.6377 S   0  0  0  0  0  1  0  0  0  0  0  0
   -1.6905    0.7428   -0.1835 N   0  0  0  0  0  2  0  0  0  0  0  0
   -2.8021   -0.0399   -0.1851 N   0  0  0  0  0  0  0  0  0  0  0  0
    0.3540    3.0753   -0.3110 C   0  0  1  0  0  3  0  0  0  0  0  0
    2.5002    4.3833   -0.0550 C   0  0  0  0  0  0  0  0  0  0  0  0
    3.2254    5.5781   -0.1348 C   0  0  0  0  0  0  0  0  0  0  0  0
    2.6015    6.7607   -0.5649 C   0  0  0  0  0  0  0  0  0  0  0  0
    1.2435    6.7333   -0.9210 C   0  0  0  0  0  0  0  0  0  0  0  0
    0.5155    5.5391   -0.8430 C   0  0  0  0  0  0  0  0  0  0  0  0
    1.1276    4.3417   -0.4007 C   0  0  0  0  0  0  0  0  0  0  0  0
    2.9905    3.4588    0.2854 H   0  0  0  0  0  0  0  0  0  0  0  0
    4.2898    5.5865    0.1464 H   0  0  0  0  0  0  0  0  0  0  0  0
    3.1727    7.6994   -0.6279 H   0  0  0  0  0  0  0  0  0  0  0  0
    0.7471    7.6497   -1.2753 H   0  0  0  0  0  0  0  0  0  0  0  0
   -0.5384    5.5244   -1.1576 H   0  0  0  0  0  0  0  0  0  0  0  0
   -1.0138    3.1086   -0.0368 C   0  0  0  0  0  0  0  0  0  0  0  0
   -1.4421    4.0999    0.1692 H   0  0  0  0  0  0  0  0  0  0  0  0
   -1.9640    2.0591   -0.0019 C   0  0  0  0  0  0  0  0  0  0  0  0
   -4.4020    2.2740   -0.6971 C   0  0  0  0  0  0  0  0  0  0  0  0
   -5.6991    2.7458   -0.4612 C   0  0  0  0  0  0  0  0  0  0  0  0
   -5.9992    3.4361    0.7264 C   0  0  0  0  0  0  0  0  0  0  0  0
   -4.9875    3.6631    1.6701 C   0  0  0  0  0  0  0  0  0  0  0  0
   -3.6830    3.2030    1.4284 C   0  0  0  0  0  0  0  0  0  0  0  0
   -3.3774    2.4950    0.2489 C   0  0  0  0  0  0  0  0  0  0  0  0
   -4.1718    1.7271   -1.6217 H   0  0  0  0  0  0  0  0  0  0  0  0
   -6.4857    2.5711   -1.2112 H   0  0  0  0  0  0  0  0  0  0  0  0
   -7.0218    3.7982    0.9125 H   0  0  0  0  0  0  0  0  0  0  0  0
   -5.2116    4.2011    2.6039 H   0  0  0  0  0  0  0  0  0  0  0  0
   -2.8900    3.3782    2.1715 H   0  0  0  0  0  0  0  0  0  0  0  0
   -2.6271   -1.3224   -0.3659 C   0  0  0  0  0  0  0  0  0  0  0  0
   -5.1025   -1.6517   -0.1659 C   0  0  0  0  0  0  0  0  0  0  0  0
   -6.2335   -2.4750   -0.1631 C   0  0  0  0  0  0  0  0  0  0  0  0
   -6.1057   -3.8615   -0.3588 C   0  0  0  0  0  0  0  0  0  0  0  0
   -4.8320   -4.4186   -0.5560 C   0  0  0  0  0  0  0  0  0  0  0  0
   -3.6956   -3.5992   -0.5578 C   0  0  0  0  0  0  0  0  0  0  0  0
   -3.8139   -2.2046   -0.3655 C   0  0  0  0  0  0  0  0  0  0  0  0
   -5.1889   -0.5664   -0.0125 H   0  0  0  0  0  0  0  0  0  0  0  0
   -7.2284   -2.0307   -0.0053 H   0  0  0  0  0  0  0  0  0  0  0  0
   -6.9978   -4.5063   -0.3560 H   0  0  0  0  0  0  0  0  0  0  0  0
   -4.7211   -5.5030   -0.7086 H   0  0  0  0  0  0  0  0  0  0  0  0
   -2.6961   -4.0354   -0.7073 H   0  0  0  0  0  0  0  0  0  0  0  0
  2 31  1  0  0  0  0
  3 19  1  0  0  0  0
  4  3  1  0  0  0  0
  5  1  1  6  0  0  0
  5 17  1  0  0  0  0
  6 12  1  0  0  0  0
  7  6  1  0  0  0  0
  7 13  1  0  0  0  0
  8  7  2  0  0  0  0
  9 10  2  0  0  0  0
  9  8  1  0  0  0  0
 10 11  1  0  0  0  0
 11  5  1  0  0  0  0
 11  6  2  0  0  0  0
 14  8  1  0  0  0  0
 15  9  1  0  0  0  0
 16 10  1  0  0  0  0
 17 19  2  0  0  0  0
 17 18  1  0  0  0  0
 19 25  1  0  0  0  0
 20 21  2  0  0  0  0
 20 25  1  0  0  0  0
 21 22  1  0  0  0  0
 22 28  1  0  0  0  0
 22 23  2  0  0  0  0
 23 29  1  0  0  0  0
 24 23  1  0  0  0  0
 24 30  1  0  0  0  0
 25 24  2  0  0  0  0
 26 20  1  0  0  0  0
 27 21  1  0  0  0  0
 31 37  1  0  0  0  0
 31  4  2  0  0  0  0
 32 33  1  0  0  0  0
 32 38  1  0  0  0  0
 33 39  1  0  0  0  0
 34 40  1  0  0  0  0
 34 33  2  0  0  0  0
 35 34  1  0  0  0  0
 36 35  2  0  0  0  0
 36 37  1  0  0  0  0
 37 32  2  0  0  0  0
 41 35  1  0  0  0  0
 42 36  1  0  0  0  0
M  END
