1,2,5
 OpenBabel05122313063D

 51 53  0  0  1  0  0  0  0  0999 V2000
   -1.7093   -1.1914   -0.8866 S   0  0  0  0  0  1  0  0  0  0  0  0
    1.8177   -0.1923   -1.8985 S   0  0  0  0  0  1  0  0  0  0  0  0
   -3.6967   -0.6650    0.9006 N   0  0  0  0  0  0  0  0  0  0  0  0
   -2.3754    1.0707    0.6388 N   0  0  0  0  0  0  0  0  0  0  0  0
   -0.1083    1.5324    0.1057 N   0  0  0  0  0  2  0  0  0  0  0  0
    2.2061    1.9394   -0.1564 N   0  0  0  0  0  0  0  0  0  0  0  0
    4.0000    0.7298   -0.4970 N   0  0  0  0  0  0  0  0  0  0  0  0
   -2.5714   -0.2504    0.2471 C   0  0  2  0  0  3  0  0  0  0  0  0
   -4.2067    0.3598    1.6833 C   0  0  0  0  0  0  0  0  0  0  0  0
   -5.0948    0.2234    2.3072 H   0  0  0  0  0  0  0  0  0  0  0  0
   -3.3903    1.4426    1.5311 C   0  0  0  0  0  0  0  0  0  0  0  0
   -3.4031    2.4196    2.0205 H   0  0  0  0  0  0  0  0  0  0  0  0
   -1.3700    1.9813    0.2112 C   0  0  2  0  0  3  0  0  0  0  0  0
   -1.7178    3.3276   -0.0022 C   0  0  0  0  0  0  0  0  0  0  0  0
   -2.7675    3.6466    0.0422 H   0  0  0  0  0  0  0  0  0  0  0  0
   -0.6954    4.2368   -0.2934 C   0  0  0  0  0  0  0  0  0  0  0  0
   -0.9320    5.2946   -0.4783 H   0  0  0  0  0  0  0  0  0  0  0  0
    0.6286    3.7858   -0.3645 C   0  0  0  0  0  0  0  0  0  0  0  0
    1.4584    4.4658   -0.5991 H   0  0  0  0  0  0  0  0  0  0  0  0
    0.8708    2.4199   -0.1594 C   0  0  0  0  0  0  0  0  0  0  0  0
    2.6819    0.8197   -0.8259 C   0  0  2  0  0  3  0  0  0  0  0  0
    3.2405    2.5177    0.5865 C   0  0  0  0  0  0  0  0  0  0  0  0
    3.0796    3.3879    1.2284 H   0  0  0  0  0  0  0  0  0  0  0  0
    4.3519    1.7527    0.3718 C   0  0  0  0  0  0  0  0  0  0  0  0
    5.3633    1.8423    0.7791 H   0  0  0  0  0  0  0  0  0  0  0  0
   -4.2908   -2.0013    0.7519 C   0  0  0  0  0  0  0  0  0  0  0  0
   -4.8243   -2.2155    1.6993 H   0  0  0  0  0  0  0  0  0  0  0  0
   -3.4447   -2.7107    0.6596 H   0  0  0  0  0  0  0  0  0  0  0  0
   -5.2273   -2.1135   -0.4537 C   0  0  0  0  0  0  0  0  0  0  0  0
   -5.5457   -3.1764   -0.5116 H   0  0  0  0  0  0  0  0  0  0  0  0
   -4.6442   -1.9225   -1.3806 H   0  0  0  0  0  0  0  0  0  0  0  0
   -6.4587   -1.2046   -0.4005 C   0  0  0  0  0  0  0  0  0  0  0  0
   -7.0155   -1.3963    0.5444 H   0  0  0  0  0  0  0  0  0  0  0  0
   -6.1369   -0.1400   -0.3549 H   0  0  0  0  0  0  0  0  0  0  0  0
   -7.3902   -1.3991   -1.5976 C   0  0  0  0  0  0  0  0  0  0  0  0
   -6.8682   -1.1850   -2.5528 H   0  0  0  0  0  0  0  0  0  0  0  0
   -8.2708   -0.7300   -1.5390 H   0  0  0  0  0  0  0  0  0  0  0  0
   -7.7648   -2.4418   -1.6507 H   0  0  0  0  0  0  0  0  0  0  0  0
    4.8591   -0.4028   -0.8649 C   0  0  0  0  0  0  0  0  0  0  0  0
    5.8877   -0.0103   -0.9924 H   0  0  0  0  0  0  0  0  0  0  0  0
    4.5057   -0.7619   -1.8513 H   0  0  0  0  0  0  0  0  0  0  0  0
    4.7934   -1.5213    0.1776 C   0  0  0  0  0  0  0  0  0  0  0  0
    3.7283   -1.7878    0.3487 H   0  0  0  0  0  0  0  0  0  0  0  0
    5.1667   -1.1371    1.1523 H   0  0  0  0  0  0  0  0  0  0  0  0
    5.5952   -2.7555   -0.2440 C   0  0  0  0  0  0  0  0  0  0  0  0
    6.6530   -2.4675   -0.4346 H   0  0  0  0  0  0  0  0  0  0  0  0
    5.2029   -3.1279   -1.2161 H   0  0  0  0  0  0  0  0  0  0  0  0
    5.5412   -3.8730    0.7981 C   0  0  0  0  0  0  0  0  0  0  0  0
    5.9659   -3.5413    1.7679 H   0  0  0  0  0  0  0  0  0  0  0  0
    6.1144   -4.7613    0.4677 H   0  0  0  0  0  0  0  0  0  0  0  0
    4.4967   -4.1950    0.9873 H   0  0  0  0  0  0  0  0  0  0  0  0
  3  9  1  0  0  0  0
  4 11  1  0  0  0  0
  5 13  1  0  0  0  0
  6 22  1  0  0  0  0
  7 24  1  0  0  0  0
  8  1  1  6  0  0  0
  8  4  1  0  0  0  0
  8  3  1  0  0  0  0
  9 10  1  0  0  0  0
 11  9  2  0  0  0  0
 11 12  1  0  0  0  0
 13  4  1  1  0  0  0
 14 15  1  0  0  0  0
 14 13  1  0  0  0  0
 16 14  2  0  0  0  0
 17 16  1  0  0  0  0
 18 16  1  0  0  0  0
 18 20  2  0  0  0  0
 19 18  1  0  0  0  0
 20  6  1  0  0  0  0
 20  5  1  0  0  0  0
 21  2  1  6  0  0  0
 21  7  1  0  0  0  0
 21  6  1  0  0  0  0
 22 23  1  0  0  0  0
 24 22  2  0  0  0  0
 24 25  1  0  0  0  0
 26  3  1  0  0  0  0
 26 27  1  0  0  0  0
 28 26  1  0  0  0  0
 29 32  1  0  0  0  0
 29 26  1  0  0  0  0
 30 29  1  0  0  0  0
 31 29  1  0  0  0  0
 32 34  1  0  0  0  0
 32 33  1  0  0  0  0
 35 37  1  0  0  0  0
 35 32  1  0  0  0  0
 36 35  1  0  0  0  0
 38 35  1  0  0  0  0
 39  7  1  0  0  0  0
 39 42  1  0  0  0  0
 40 39  1  0  0  0  0
 41 39  1  0  0  0  0
 42 43  1  0  0  0  0
 42 44  1  0  0  0  0
 45 42  1  0  0  0  0
 45 48  1  0  0  0  0
 46 45  1  0  0  0  0
 47 45  1  0  0  0  0
 48 51  1  0  0  0  0
 48 49  1  0  0  0  0
 50 48  1  0  0  0  0
M  END
