1,2,3
 OpenBabel05122313063D

 29 28  0  0  0  0  0  0  0  0999 V2000
   -0.2030   -2.2959   -0.9133 S   0  0  0  0  0  1  0  0  0  0  0  0
   -0.8478    1.6576    1.5755 S   0  0  0  0  0  1  0  0  0  0  0  0
   -2.4113   -0.8766    0.7295 N   0  0  0  0  0  0  0  0  0  0  0  0
   -1.8730   -2.9823   -0.5134 C   0  0  0  0  0  0  0  0  0  0  0  0
   -2.5801   -2.8296   -1.3569 H   0  0  0  0  0  0  0  0  0  0  0  0
   -1.7676   -4.0775   -0.3777 H   0  0  0  0  0  0  0  0  0  0  0  0
   -2.3870   -2.3749    0.7801 C   0  0  0  0  0  0  0  0  0  0  0  0
   -3.4016   -2.7507    1.0437 H   0  0  0  0  0  0  0  0  0  0  0  0
   -1.6946   -2.6338    1.6047 H   0  0  0  0  0  0  0  0  0  0  0  0
   -2.6977   -0.3283    2.0946 C   0  0  0  0  0  0  0  0  0  0  0  0
   -1.9497   -0.7941    2.7651 H   0  0  0  0  0  0  0  0  0  0  0  0
   -3.7120   -0.6546    2.4164 H   0  0  0  0  0  0  0  0  0  0  0  0
   -2.5410    1.1803    2.1468 C   0  0  0  0  0  0  0  0  0  0  0  0
   -2.6514    1.5164    3.1972 H   0  0  0  0  0  0  0  0  0  0  0  0
   -3.3250    1.7040    1.5573 H   0  0  0  0  0  0  0  0  0  0  0  0
   -3.3725   -0.3590   -0.3079 C   0  0  0  0  0  0  0  0  0  0  0  0
   -3.0696   -0.7782   -1.2851 H   0  0  0  0  0  0  0  0  0  0  0  0
   -3.2094    0.7327   -0.3738 H   0  0  0  0  0  0  0  0  0  0  0  0
   -4.8524   -0.6552   -0.0629 C   0  0  0  0  0  0  0  0  0  0  0  0
   -5.2247   -0.1922    0.8736 H   0  0  0  0  0  0  0  0  0  0  0  0
   -5.0464   -1.7444    0.0099 H   0  0  0  0  0  0  0  0  0  0  0  0
   -5.8886   -0.1259   -1.4721 S   0  0  0  0  0  0  0  0  0  0  0  0
   -5.6241    1.6902   -1.4799 C   0  0  0  0  0  0  0  0  0  0  0  0
   -4.5660    1.9133   -1.7320 H   0  0  0  0  0  0  0  0  0  0  0  0
   -6.2258    2.0191   -2.3523 H   0  0  0  0  0  0  0  0  0  0  0  0
   -6.0648    2.4113   -0.2117 C   0  0  0  0  0  0  0  0  0  0  0  0
   -5.9568    3.5091   -0.3318 H   0  0  0  0  0  0  0  0  0  0  0  0
   -5.4483    2.1203    0.6638 H   0  0  0  0  0  0  0  0  0  0  0  0
   -7.1229    2.1864    0.0286 H   0  0  0  0  0  0  0  0  0  0  0  0
  1  4  1  0  0  0  0
  2 13  1  0  0  0  0
  3  7  1  0  0  0  0
  3 10  1  0  0  0  0
  4  6  1  0  0  0  0
  4  7  1  0  0  0  0
  5  4  1  0  0  0  0
  7  8  1  0  0  0  0
  7  9  1  0  0  0  0
 10 13  1  0  0  0  0
 10 12  1  0  0  0  0
 10 11  1  0  0  0  0
 13 14  1  0  0  0  0
 15 13  1  0  0  0  0
 16 19  1  0  0  0  0
 16  3  1  0  0  0  0
 17 16  1  0  0  0  0
 18 16  1  0  0  0  0
 19 21  1  0  0  0  0
 19 20  1  0  0  0  0
 22 19  1  0  0  0  0
 23 22  1  0  0  0  0
 23 26  1  0  0  0  0
 24 23  1  0  0  0  0
 25 23  1  0  0  0  0
 26 29  1  0  0  0  0
 26 28  1  0  0  0  0
 27 26  1  0  0  0  0
M  END
