1,2,3
 OpenBabel05122313063D

 30 31  0  0  0  0  0  0  0  0999 V2000
    1.2962   -1.8144    0.3421 S   0  0  0  0  0  1  0  0  0  0  0  0
   -0.2622    1.5338   -2.1200 S   0  0  0  0  0  1  0  0  0  0  0  0
    2.2128    0.3597   -1.3960 N   0  0  0  0  0  0  0  0  0  0  0  0
    2.2022    0.5372   -2.4165 H   0  0  0  0  0  0  0  0  0  0  0  0
    2.9853   -1.5308   -0.0893 C   0  0  0  0  0  0  0  0  0  0  0  0
    4.0345   -2.3401    0.4007 C   0  0  0  0  0  0  0  0  0  0  0  0
    3.7931   -3.1494    1.1074 H   0  0  0  0  0  0  0  0  0  0  0  0
    5.3624   -2.1507   -0.0191 C   0  0  0  0  0  0  0  0  0  0  0  0
    5.6469   -1.1221   -0.9475 C   0  0  0  0  0  0  0  0  0  0  0  0
    6.6807   -0.9674   -1.2924 H   0  0  0  0  0  0  0  0  0  0  0  0
    4.6231   -0.2925   -1.4240 C   0  0  0  0  0  0  0  0  0  0  0  0
    4.8452    0.5241   -2.1289 H   0  0  0  0  0  0  0  0  0  0  0  0
    3.3062   -0.4945   -0.9901 C   0  0  0  0  0  0  0  0  0  0  0  0
    2.0686    1.6455   -0.7056 C   0  0  0  0  0  0  0  0  0  0  0  0
    2.9693    2.1403    0.2345 C   0  0  0  0  0  0  0  0  0  0  0  0
    3.8692    1.5634    0.4906 H   0  0  0  0  0  0  0  0  0  0  0  0
    2.6969    3.3727    0.8658 C   0  0  0  0  0  0  0  0  0  0  0  0
    3.3988    3.7557    1.6226 H   0  0  0  0  0  0  0  0  0  0  0  0
    1.5437    4.1108    0.5518 C   0  0  0  0  0  0  0  0  0  0  0  0
    0.6417    3.5848   -0.4037 C   0  0  0  0  0  0  0  0  0  0  0  0
   -0.2950    4.1179   -0.6284 H   0  0  0  0  0  0  0  0  0  0  0  0
    0.8774    2.3523   -1.0248 C   0  0  0  0  0  0  0  0  0  0  0  0
    6.4691   -3.0409    0.4909 C   0  0  0  0  0  0  0  0  0  0  0  0
    6.1068   -3.7386    1.2701 H   0  0  0  0  0  0  0  0  0  0  0  0
    7.2987   -2.4444    0.9241 H   0  0  0  0  0  0  0  0  0  0  0  0
    6.9061   -3.6478   -0.3300 H   0  0  0  0  0  0  0  0  0  0  0  0
    1.2239    5.4090    1.2487 C   0  0  0  0  0  0  0  0  0  0  0  0
    1.0539    6.2301    0.5218 H   0  0  0  0  0  0  0  0  0  0  0  0
    2.0385    5.7197    1.9312 H   0  0  0  0  0  0  0  0  0  0  0  0
    0.2934    5.3152    1.8490 H   0  0  0  0  0  0  0  0  0  0  0  0
  2 22  1  0  0  0  0
  3 13  1  0  0  0  0
  3 14  1  0  0  0  0
  4  3  1  0  0  0  0
  5  1  1  0  0  0  0
  5  6  1  0  0  0  0
  6  7  1  0  0  0  0
  8  6  2  0  0  0  0
  8 23  1  0  0  0  0
  9  8  1  0  0  0  0
 10  9  1  0  0  0  0
 11 13  1  0  0  0  0
 11  9  2  0  0  0  0
 12 11  1  0  0  0  0
 13  5  2  0  0  0  0
 14 15  1  0  0  0  0
 15 16  1  0  0  0  0
 15 17  2  0  0  0  0
 17 18  1  0  0  0  0
 19 17  1  0  0  0  0
 19 27  1  0  0  0  0
 20 19  2  0  0  0  0
 21 20  1  0  0  0  0
 22 14  2  0  0  0  0
 22 20  1  0  0  0  0
 23 25  1  0  0  0  0
 23 24  1  0  0  0  0
 26 23  1  0  0  0  0
 27 30  1  0  0  0  0
 27 29  1  0  0  0  0
 28 27  1  0  0  0  0
M  END
