1,2,3
 OpenBabel05122313063D

 29 30  0  0  0  0  0  0  0  0999 V2000
    0.5525    2.3089    0.1884 S   0  0  0  0  0  1  0  0  0  0  0  0
    0.3707   -1.9744    1.0177 S   0  0  0  0  0  1  0  0  0  0  0  0
    2.2950    0.0120    0.1788 N   0  0  0  0  0  2  0  0  0  0  0  0
    2.3064    2.4092    0.0994 C   0  0  0  0  0  0  0  0  0  0  0  0
    2.9733    3.6441    0.0142 C   0  0  0  0  0  0  0  0  0  0  0  0
    2.3654    4.5572   -0.1026 H   0  0  0  0  0  0  0  0  0  0  0  0
    4.3739    3.7400    0.1264 C   0  0  0  0  0  0  0  0  0  0  0  0
    5.0888    2.5457    0.3568 C   0  0  0  0  0  0  0  0  0  0  0  0
    6.1805    2.5886    0.5106 H   0  0  0  0  0  0  0  0  0  0  0  0
    4.4455    1.3007    0.4044 C   0  0  0  0  0  0  0  0  0  0  0  0
    5.0385    0.4060    0.6323 H   0  0  0  0  0  0  0  0  0  0  0  0
    3.0425    1.1825    0.2097 C   0  0  0  0  0  0  0  0  0  0  0  0
    2.8388   -1.2644    0.0637 C   0  0  0  0  0  0  0  0  0  0  0  0
    4.1031   -1.6012   -0.4925 C   0  0  0  0  0  0  0  0  0  0  0  0
    4.7451   -0.8088   -0.8967 H   0  0  0  0  0  0  0  0  0  0  0  0
    4.5242   -2.9348   -0.6026 C   0  0  0  0  0  0  0  0  0  0  0  0
    5.5059   -3.1466   -1.0594 H   0  0  0  0  0  0  0  0  0  0  0  0
    3.7195   -4.0059   -0.1648 C   0  0  0  0  0  0  0  0  0  0  0  0
    2.4437   -3.6875    0.3424 C   0  0  0  0  0  0  0  0  0  0  0  0
    1.7565   -4.4923    0.6537 H   0  0  0  0  0  0  0  0  0  0  0  0
    1.9959   -2.3602    0.4426 C   0  0  0  0  0  0  0  0  0  0  0  0
    5.0791    5.0686   -0.0007 C   0  0  0  0  0  0  0  0  0  0  0  0
    6.0259    5.0860    0.5789 H   0  0  0  0  0  0  0  0  0  0  0  0
    4.4460    5.9054    0.3613 H   0  0  0  0  0  0  0  0  0  0  0  0
    5.3455    5.3032   -1.0570 H   0  0  0  0  0  0  0  0  0  0  0  0
    4.2011   -5.4351   -0.2265 C   0  0  0  0  0  0  0  0  0  0  0  0
    3.3717   -6.1393   -0.4477 H   0  0  0  0  0  0  0  0  0  0  0  0
    4.6528   -5.7681    0.7361 H   0  0  0  0  0  0  0  0  0  0  0  0
    4.9769   -5.5708   -1.0087 H   0  0  0  0  0  0  0  0  0  0  0  0
  3 12  1  0  0  0  0
  4  1  1  0  0  0  0
  4 12  1  0  0  0  0
  5  4  2  0  0  0  0
  5  7  1  0  0  0  0
  6  5  1  0  0  0  0
  7  8  2  0  0  0  0
  8 10  1  0  0  0  0
  8  9  1  0  0  0  0
 10 11  1  0  0  0  0
 12 10  2  0  0  0  0
 13  3  1  0  0  0  0
 13 21  1  0  0  0  0
 14 13  2  0  0  0  0
 15 14  1  0  0  0  0
 16 14  1  0  0  0  0
 16 18  2  0  0  0  0
 17 16  1  0  0  0  0
 18 19  1  0  0  0  0
 19 21  2  0  0  0  0
 19 20  1  0  0  0  0
 21  2  1  0  0  0  0
 22  7  1  0  0  0  0
 22 24  1  0  0  0  0
 22 23  1  0  0  0  0
 25 22  1  0  0  0  0
 26 18  1  0  0  0  0
 26 28  1  0  0  0  0
 27 26  1  0  0  0  0
 29 26  1  0  0  0  0
M  END
