1,2,4
 OpenBabel05122313063D

 53 54  0  0  1  0  0  0  0  0999 V2000
    2.6667   -1.3838   -0.0552 S   0  0  0  0  0  1  0  0  0  0  0  0
   -1.9718   -2.0681   -0.3656 S   0  0  0  0  0  1  0  0  0  0  0  0
    1.9543    1.2768    0.2749 N   0  0  0  0  0  0  0  0  0  0  0  0
   -0.2003    0.3223   -0.2101 N   0  0  0  0  0  2  0  0  0  0  0  0
   -1.5110    0.6348   -0.3463 N   0  0  0  0  0  0  0  0  0  0  0  0
   -3.7048   -0.0024   -0.6139 N   0  0  0  0  0  0  0  0  0  0  0  0
    4.0516    0.6589    0.9489 N   0  0  0  0  0  0  0  0  0  0  0  0
    2.8369    0.3054    0.4173 C   0  0  0  0  0  0  0  0  0  0  0  0
    0.6775    1.3422   -0.1047 C   0  0  1  0  0  3  0  0  0  0  0  0
   -2.3864   -0.3352   -0.4435 C   0  0  0  0  0  0  0  0  0  0  0  0
    0.1972    2.7380   -0.3762 C   0  0  0  0  0  0  0  0  0  0  0  0
   -0.5530    3.0562   -1.5282 C   0  0  0  0  0  0  0  0  0  0  0  0
   -0.8430    2.2567   -2.2234 H   0  0  0  0  0  0  0  0  0  0  0  0
   -0.9164    4.3828   -1.7905 C   0  0  0  0  0  0  0  0  0  0  0  0
   -1.4884    4.6206   -2.7004 H   0  0  0  0  0  0  0  0  0  0  0  0
   -0.5556    5.4071   -0.8981 C   0  0  0  0  0  0  0  0  0  0  0  0
   -0.8544    6.4469   -1.1004 H   0  0  0  0  0  0  0  0  0  0  0  0
    0.1938    5.0984    0.2474 C   0  0  0  0  0  0  0  0  0  0  0  0
    0.4837    5.8948    0.9497 H   0  0  0  0  0  0  0  0  0  0  0  0
    0.5804    3.7740    0.4989 C   0  0  0  0  0  0  0  0  0  0  0  0
    1.1798    3.5229    1.3855 H   0  0  0  0  0  0  0  0  0  0  0  0
   -4.7730   -0.9825   -0.4453 C   0  0  0  0  0  0  0  0  0  0  0  0
   -4.4321   -1.9526   -0.8645 H   0  0  0  0  0  0  0  0  0  0  0  0
   -5.6237   -0.6437   -1.0748 H   0  0  0  0  0  0  0  0  0  0  0  0
   -5.2283   -1.1638    1.0086 C   0  0  0  0  0  0  0  0  0  0  0  0
   -6.0904   -1.8654    1.0105 H   0  0  0  0  0  0  0  0  0  0  0  0
   -4.4124   -1.6711    1.5684 H   0  0  0  0  0  0  0  0  0  0  0  0
   -5.6022    0.1347    1.7416 C   0  0  0  0  0  0  0  0  0  0  0  0
   -6.0296   -0.1477    2.7264 H   0  0  0  0  0  0  0  0  0  0  0  0
   -6.4229    0.6610    1.2021 H   0  0  0  0  0  0  0  0  0  0  0  0
   -4.4163    1.0931    1.9748 C   0  0  0  0  0  0  0  0  0  0  0  0
   -3.5197    0.4827    2.2210 H   0  0  0  0  0  0  0  0  0  0  0  0
   -4.6108    1.7074    2.8786 H   0  0  0  0  0  0  0  0  0  0  0  0
   -4.0688    2.0510    0.8227 C   0  0  0  0  0  0  0  0  0  0  0  0
   -3.0647    2.4817    1.0096 H   0  0  0  0  0  0  0  0  0  0  0  0
   -4.7816    2.9038    0.8074 H   0  0  0  0  0  0  0  0  0  0  0  0
   -4.0885    1.4091   -0.5794 C   0  0  0  0  0  0  0  0  0  0  0  0
   -5.1098    1.4530   -1.0083 H   0  0  0  0  0  0  0  0  0  0  0  0
   -3.4170    1.9736   -1.2560 H   0  0  0  0  0  0  0  0  0  0  0  0
    4.3232    2.0735    1.2395 C   0  0  0  0  0  0  0  0  0  0  0  0
    5.1811    2.0892    1.9416 H   0  0  0  0  0  0  0  0  0  0  0  0
    3.4470    2.4898    1.7742 H   0  0  0  0  0  0  0  0  0  0  0  0
    4.6214    2.9242    0.0042 C   0  0  0  0  0  0  0  0  0  0  0  0
    3.7487    2.9281   -0.6763 H   0  0  0  0  0  0  0  0  0  0  0  0
    5.5045    2.5493   -0.5496 H   0  0  0  0  0  0  0  0  0  0  0  0
    4.8247    3.9713    0.3070 H   0  0  0  0  0  0  0  0  0  0  0  0
    5.1244   -0.3133    1.1527 C   0  0  0  0  0  0  0  0  0  0  0  0
    4.6553   -1.2827    1.4230 H   0  0  0  0  0  0  0  0  0  0  0  0
    5.7064    0.0216    2.0363 H   0  0  0  0  0  0  0  0  0  0  0  0
    6.0467   -0.5013   -0.0550 C   0  0  0  0  0  0  0  0  0  0  0  0
    6.5787    0.4355   -0.3144 H   0  0  0  0  0  0  0  0  0  0  0  0
    5.4696   -0.8332   -0.9407 H   0  0  0  0  0  0  0  0  0  0  0  0
    6.8077   -1.2766    0.1656 H   0  0  0  0  0  0  0  0  0  0  0  0
  1  8  1  0  0  0  0
  3  8  2  0  0  0  0
  5  4  1  0  0  0  0
  6 37  1  0  0  0  0
  6 22  1  0  0  0  0
  6 10  1  0  0  0  0
  7 47  1  0  0  0  0
  7 40  1  0  0  0  0
  8  7  1  0  0  0  0
  9  4  1  1  0  0  0
  9  3  1  0  0  0  0
 10  2  1  0  0  0  0
 10  5  2  0  0  0  0
 11  9  1  0  0  0  0
 11 20  1  0  0  0  0
 12 11  2  0  0  0  0
 13 12  1  0  0  0  0
 14 12  1  0  0  0  0
 14 16  2  0  0  0  0
 15 14  1  0  0  0  0
 16 18  1  0  0  0  0
 17 16  1  0  0  0  0
 18 20  2  0  0  0  0
 18 19  1  0  0  0  0
 20 21  1  0  0  0  0
 22 25  1  0  0  0  0
 23 22  1  0  0  0  0
 24 22  1  0  0  0  0
 25 26  1  0  0  0  0
 25 27  1  0  0  0  0
 25 28  1  0  0  0  0
 28 31  1  0  0  0  0
 28 29  1  0  0  0  0
 30 28  1  0  0  0  0
 31 32  1  0  0  0  0
 31 33  1  0  0  0  0
 34 35  1  0  0  0  0
 34 31  1  0  0  0  0
 36 34  1  0  0  0  0
 37 34  1  0  0  0  0
 38 37  1  0  0  0  0
 39 37  1  0  0  0  0
 40 42  1  0  0  0  0
 40 41  1  0  0  0  0
 43 46  1  0  0  0  0
 43 40  1  0  0  0  0
 44 43  1  0  0  0  0
 45 43  1  0  0  0  0
 47 48  1  0  0  0  0
 47 49  1  0  0  0  0
 50 53  1  0  0  0  0
 50 47  1  0  0  0  0
 51 50  1  0  0  0  0
 52 50  1  0  0  0  0
M  END
