1,2,4
 OpenBabel05122313063D

 43 43  0  0  1  0  0  0  0  0999 V2000
   -1.7230   -1.8109    0.2293 S   0  0  0  0  0  1  0  0  0  0  0  0
    2.9339   -1.3039   -0.1018 S   0  0  0  0  0  1  0  0  0  0  0  0
   -1.7582    0.9138   -0.2749 N   0  0  0  0  0  0  0  0  0  0  0  0
    0.6140    0.5566   -0.1324 N   0  0  0  0  0  2  0  0  0  0  0  0
    1.8059    1.1880   -0.2571 N   0  0  0  0  0  0  0  0  0  0  0  0
    4.1132    1.1272   -0.2739 N   0  0  0  0  0  0  0  0  0  0  0  0
   -3.6933   -0.2484   -0.6532 N   0  0  0  0  0  0  0  0  0  0  0  0
   -2.3747   -0.2529   -0.2741 C   0  0  0  0  0  0  0  0  0  0  0  0
   -0.5001    1.3187   -0.0963 C   0  0  1  0  0  3  0  0  0  0  0  0
    2.9040    0.4750   -0.2169 C   0  0  0  0  0  0  0  0  0  0  0  0
   -0.3623    2.7970    0.1143 C   0  0  0  0  0  0  0  0  0  0  0  0
   -1.1712    3.6748   -0.6353 C   0  0  0  0  0  0  0  0  0  0  0  0
   -1.8378    3.2542   -1.4013 H   0  0  0  0  0  0  0  0  0  0  0  0
   -1.1187    5.0581   -0.4129 C   0  0  0  0  0  0  0  0  0  0  0  0
   -1.7429    5.7328   -1.0184 H   0  0  0  0  0  0  0  0  0  0  0  0
   -0.2771    5.5796    0.5814 C   0  0  0  0  0  0  0  0  0  0  0  0
   -0.2398    6.6646    0.7623 H   0  0  0  0  0  0  0  0  0  0  0  0
    0.5128    4.7084    1.3515 C   0  0  0  0  0  0  0  0  0  0  0  0
    1.1606    5.1087    2.1462 H   0  0  0  0  0  0  0  0  0  0  0  0
    0.4797    3.3286    1.1148 C   0  0  0  0  0  0  0  0  0  0  0  0
    1.1001    2.6508    1.7170 H   0  0  0  0  0  0  0  0  0  0  0  0
    5.3457    0.4023   -0.5122 C   0  0  0  0  0  0  0  0  0  0  0  0
    6.1937    0.9762   -0.0885 H   0  0  0  0  0  0  0  0  0  0  0  0
    5.5444    0.2324   -1.5966 H   0  0  0  0  0  0  0  0  0  0  0  0
    5.3131   -0.5837   -0.0086 H   0  0  0  0  0  0  0  0  0  0  0  0
    4.1248    2.5611   -0.5181 C   0  0  0  0  0  0  0  0  0  0  0  0
    3.2761    3.0374    0.0043 H   0  0  0  0  0  0  0  0  0  0  0  0
    4.0316    2.8026   -1.6025 H   0  0  0  0  0  0  0  0  0  0  0  0
    5.0779    2.9830   -0.1430 H   0  0  0  0  0  0  0  0  0  0  0  0
   -4.4993   -1.4681   -0.6799 C   0  0  0  0  0  0  0  0  0  0  0  0
   -3.8342   -2.3062   -0.9768 H   0  0  0  0  0  0  0  0  0  0  0  0
   -5.2486   -1.3478   -1.4896 H   0  0  0  0  0  0  0  0  0  0  0  0
   -5.1920   -1.7987    0.6450 C   0  0  0  0  0  0  0  0  0  0  0  0
   -4.4476   -1.9182    1.4570 H   0  0  0  0  0  0  0  0  0  0  0  0
   -5.7518   -2.7510    0.5534 H   0  0  0  0  0  0  0  0  0  0  0  0
   -5.9093   -1.0078    0.9412 H   0  0  0  0  0  0  0  0  0  0  0  0
   -4.3492    1.0318   -0.9532 C   0  0  0  0  0  0  0  0  0  0  0  0
   -5.2598    0.7876   -1.5363 H   0  0  0  0  0  0  0  0  0  0  0  0
   -3.6788    1.6159   -1.6139 H   0  0  0  0  0  0  0  0  0  0  0  0
   -4.7057    1.8614    0.2812 C   0  0  0  0  0  0  0  0  0  0  0  0
   -5.3933    1.3164    0.9574 H   0  0  0  0  0  0  0  0  0  0  0  0
   -5.2024    2.8034   -0.0275 H   0  0  0  0  0  0  0  0  0  0  0  0
   -3.7888    2.1252    0.8420 H   0  0  0  0  0  0  0  0  0  0  0  0
  3  8  2  0  0  0  0
  4  9  1  0  0  0  0
  5 10  2  0  0  0  0
  5  4  1  0  0  0  0
  6 10  1  0  0  0  0
  7  8  1  0  0  0  0
  8  1  1  0  0  0  0
  9  3  1  6  0  0  0
  9 11  1  0  0  0  0
 10  2  1  0  0  0  0
 11 20  1  0  0  0  0
 12 14  1  0  0  0  0
 12 11  2  0  0  0  0
 13 12  1  0  0  0  0
 14 16  2  0  0  0  0
 15 14  1  0  0  0  0
 16 17  1  0  0  0  0
 16 18  1  0  0  0  0
 18 19  1  0  0  0  0
 20 18  2  0  0  0  0
 20 21  1  0  0  0  0
 22  6  1  0  0  0  0
 22 23  1  0  0  0  0
 22 25  1  0  0  0  0
 24 22  1  0  0  0  0
 26  6  1  0  0  0  0
 26 29  1  0  0  0  0
 26 27  1  0  0  0  0
 28 26  1  0  0  0  0
 30  7  1  0  0  0  0
 30 33  1  0  0  0  0
 31 30  1  0  0  0  0
 32 30  1  0  0  0  0
 33 36  1  0  0  0  0
 33 34  1  0  0  0  0
 35 33  1  0  0  0  0
 37  7  1  0  0  0  0
 37 40  1  0  0  0  0
 38 37  1  0  0  0  0
 39 37  1  0  0  0  0
 40 43  1  0  0  0  0
 40 41  1  0  0  0  0
 42 40  1  0  0  0  0
M  END
