1,2,5
 OpenBabel05122313063D

 61 65  0  0  1  0  0  0  0  0999 V2000
   -2.1028    0.5668   -1.7075 S   0  0  0  0  0  0  0  0  0  0  0  0
   -0.3958   -1.1721    1.7702 S   0  0  0  0  0  0  0  0  0  0  0  0
   -0.2064    2.9817   -0.1576 O   0  0  0  0  0  0  0  0  0  0  0  0
    1.9987   -1.5727   -0.8322 O   0  0  0  0  0  0  0  0  0  0  0  0
    1.8966    1.2244   -0.9345 N   0  0  0  0  0  2  0  0  0  0  0  0
    2.7615    0.5806   -1.7427 C   0  0  2  0  0  3  0  0  0  0  0  0
    3.8347    1.2503   -2.3552 C   0  0  0  0  0  0  0  0  0  0  0  0
    4.5297    0.6968   -3.0042 H   0  0  0  0  0  0  0  0  0  0  0  0
    4.0065    2.6182   -2.1161 C   0  0  0  0  0  0  0  0  0  0  0  0
    4.8325    3.1693   -2.5894 H   0  0  0  0  0  0  0  0  0  0  0  0
    3.1183    3.2722   -1.2496 C   0  0  0  0  0  0  0  0  0  0  0  0
    3.2302    4.3424   -1.0240 H   0  0  0  0  0  0  0  0  0  0  0  0
    2.0757    2.5381   -0.6670 C   0  0  0  0  0  0  0  0  0  0  0  0
    1.1198    3.1564    0.3273 C   0  0  0  0  0  0  0  0  0  0  0  0
    1.2466    2.6316    1.3023 H   0  0  0  0  0  0  0  0  0  0  0  0
    1.3469    4.2335    0.4788 H   0  0  0  0  0  0  0  0  0  0  0  0
   -1.2645    3.0106    0.7167 C   0  0  0  0  0  0  0  0  0  0  0  0
   -1.1588    3.3491    2.0756 C   0  0  0  0  0  0  0  0  0  0  0  0
   -0.1969    3.6526    2.5096 H   0  0  0  0  0  0  0  0  0  0  0  0
   -2.3035    3.3128    2.8905 C   0  0  0  0  0  0  0  0  0  0  0  0
   -2.2127    3.5788    3.9541 H   0  0  0  0  0  0  0  0  0  0  0  0
   -3.5490    2.9590    2.3560 C   0  0  0  0  0  0  0  0  0  0  0  0
   -4.4446    2.9442    2.9932 H   0  0  0  0  0  0  0  0  0  0  0  0
   -3.6482    2.6440    0.9912 C   0  0  0  0  0  0  0  0  0  0  0  0
   -4.6282    2.3922    0.5557 H   0  0  0  0  0  0  0  0  0  0  0  0
   -2.5204    2.6618    0.1510 C   0  0  0  0  0  0  0  0  0  0  0  0
   -2.6203    2.3047   -1.3005 C   0  0  0  0  0  0  0  0  0  0  0  0
   -1.9496    2.9218   -1.9288 H   0  0  0  0  0  0  0  0  0  0  0  0
   -3.6559    2.4149   -1.6776 H   0  0  0  0  0  0  0  0  0  0  0  0
   -3.3423   -0.4050   -0.7408 C   0  0  0  0  0  0  0  0  0  0  0  0
   -3.3638    0.0029    0.2871 H   0  0  0  0  0  0  0  0  0  0  0  0
   -4.3303   -0.2256   -1.2121 H   0  0  0  0  0  0  0  0  0  0  0  0
   -2.9759   -1.8652   -0.8008 C   0  0  0  0  0  0  0  0  0  0  0  0
   -3.2165   -2.5543   -2.0083 C   0  0  0  0  0  0  0  0  0  0  0  0
   -3.6661   -2.0054   -2.8507 H   0  0  0  0  0  0  0  0  0  0  0  0
   -2.9047   -3.9113   -2.1530 C   0  0  0  0  0  0  0  0  0  0  0  0
   -3.1062   -4.4242   -3.1050 H   0  0  0  0  0  0  0  0  0  0  0  0
   -2.3556   -4.6130   -1.0697 C   0  0  0  0  0  0  0  0  0  0  0  0
   -2.1251   -5.6849   -1.1589 H   0  0  0  0  0  0  0  0  0  0  0  0
   -2.1167   -3.9439    0.1367 C   0  0  0  0  0  0  0  0  0  0  0  0
   -1.7121   -4.5037    0.9942 H   0  0  0  0  0  0  0  0  0  0  0  0
   -2.4019   -2.5691    0.2935 C   0  0  0  0  0  0  0  0  0  0  0  0
   -2.0886   -1.9291    1.6172 C   0  0  0  0  0  0  0  0  0  0  0  0
   -2.1569   -2.6691    2.4392 H   0  0  0  0  0  0  0  0  0  0  0  0
   -2.7615   -1.0881    1.8739 H   0  0  0  0  0  0  0  0  0  0  0  0
    0.6940   -2.6283    1.3986 C   0  0  0  0  0  0  0  0  0  0  0  0
    0.4773   -3.3896    2.1734 H   0  0  0  0  0  0  0  0  0  0  0  0
    0.4091   -3.0211    0.4042 H   0  0  0  0  0  0  0  0  0  0  0  0
    2.1341   -2.2094    1.4483 C   0  0  0  0  0  0  0  0  0  0  0  0
    2.8754   -2.3284    2.6381 C   0  0  0  0  0  0  0  0  0  0  0  0
    2.3765   -2.7397    3.5295 H   0  0  0  0  0  0  0  0  0  0  0  0
    4.2221   -1.9456    2.7039 C   0  0  0  0  0  0  0  0  0  0  0  0
    4.7832   -2.0541    3.6428 H   0  0  0  0  0  0  0  0  0  0  0  0
    4.8439   -1.4297    1.5593 C   0  0  0  0  0  0  0  0  0  0  0  0
    5.9018   -1.1296    1.5903 H   0  0  0  0  0  0  0  0  0  0  0  0
    4.1278   -1.2893    0.3599 C   0  0  0  0  0  0  0  0  0  0  0  0
    4.6373   -0.8804   -0.5218 H   0  0  0  0  0  0  0  0  0  0  0  0
    2.7768   -1.6725    0.3027 C   0  0  0  0  0  0  0  0  0  0  0  0
    2.5275   -0.9057   -1.9695 C   0  0  0  0  0  0  0  0  0  0  0  0
    1.7609   -1.0454   -2.7604 H   0  0  0  0  0  0  0  0  0  0  0  0
    3.4638   -1.3889   -2.3231 H   0  0  0  0  0  0  0  0  0  0  0  0
  1 27  1  0  0  0  0
  1 30  1  0  0  0  0
  3 14  1  0  0  0  0
  3 17  1  0  0  0  0
  4 58  1  0  0  0  0
  5 13  1  0  0  0  0
  6  7  1  6  0  0  0
  6  5  1  0  0  0  0
  7  9  2  0  0  0  0
  8  7  1  0  0  0  0
  9 11  1  0  0  0  0
 10  9  1  0  0  0  0
 11 12  1  0  0  0  0
 11 13  2  0  0  0  0
 13 14  1  0  0  0  0
 14 16  1  0  0  0  0
 14 15  1  0  0  0  0
 17 18  1  0  0  0  0
 18 19  1  0  0  0  0
 18 20  2  0  0  0  0
 20 21  1  0  0  0  0
 22 20  1  0  0  0  0
 22 23  1  0  0  0  0
 24 22  2  0  0  0  0
 25 24  1  0  0  0  0
 26 17  2  0  0  0  0
 26 24  1  0  0  0  0
 27 26  1  0  0  0  0
 28 27  1  0  0  0  0
 29 27  1  0  0  0  0
 30 31  1  0  0  0  0
 32 30  1  0  0  0  0
 33 30  1  0  0  0  0
 33 42  1  0  0  0  0
 34 33  2  0  0  0  0
 35 34  1  0  0  0  0
 36 34  1  0  0  0  0
 36 38  2  0  0  0  0
 37 36  1  0  0  0  0
 38 40  1  0  0  0  0
 39 38  1  0  0  0  0
 40 42  2  0  0  0  0
 40 41  1  0  0  0  0
 42 43  1  0  0  0  0
 43  2  1  0  0  0  0
 43 45  1  0  0  0  0
 43 44  1  0  0  0  0
 46 49  1  0  0  0  0
 46  2  1  0  0  0  0
 46 47  1  0  0  0  0
 48 46  1  0  0  0  0
 49 50  1  0  0  0  0
 50 52  2  0  0  0  0
 50 51  1  0  0  0  0
 52 53  1  0  0  0  0
 54 55  1  0  0  0  0
 54 52  1  0  0  0  0
 56 54  2  0  0  0  0
 57 56  1  0  0  0  0
 58 56  1  0  0  0  0
 58 49  2  0  0  0  0
 59  6  1  0  0  0  0
 59  4  1  0  0  0  0
 60 59  1  0  0  0  0
 61 59  1  0  0  0  0
M  END
