1,2,3
 OpenBabel05122313063D

 21 21  0  0  0  0  0  0  0  0999 V2000
    0.8998    0.9991    1.8704 S   0  0  0  0  0  1  0  0  0  0  0  0
   -0.0277    1.7121   -1.1588 S   0  0  0  0  0  0  0  0  0  0  0  0
   -1.4575   -0.3827    0.2432 N   0  0  0  0  0  2  0  0  0  0  0  0
   -1.9766   -1.1298    1.2353 C   0  0  0  0  0  3  0  0  0  0  0  0
   -1.2414   -1.6133    1.8970 H   0  0  0  0  0  0  0  0  0  0  0  0
   -3.3574   -1.2868    1.4082 C   0  0  0  0  0  0  0  0  0  0  0  0
   -3.7356   -1.9097    2.2309 H   0  0  0  0  0  0  0  0  0  0  0  0
   -4.2271   -0.6299    0.5279 C   0  0  0  0  0  0  0  0  0  0  0  0
   -5.3179   -0.7227    0.6392 H   0  0  0  0  0  0  0  0  0  0  0  0
   -3.6839    0.1582   -0.4960 C   0  0  0  0  0  0  0  0  0  0  0  0
   -4.3304    0.6951   -1.2054 H   0  0  0  0  0  0  0  0  0  0  0  0
   -2.2882    0.2509   -0.6141 C   0  0  0  0  0  0  0  0  0  0  0  0
   -1.6342    1.0371   -1.7180 C   0  0  0  0  0  0  0  0  0  0  0  0
   -2.2730    1.8496   -2.1133 H   0  0  0  0  0  0  0  0  0  0  0  0
   -1.3344    0.3410   -2.5348 H   0  0  0  0  0  0  0  0  0  0  0  0
   -0.5756    2.7910    0.2668 C   0  0  0  0  0  0  0  0  0  0  0  0
   -0.7151    3.8095   -0.1482 H   0  0  0  0  0  0  0  0  0  0  0  0
   -1.5471    2.3981    0.6283 H   0  0  0  0  0  0  0  0  0  0  0  0
    0.4805    2.7374    1.3528 C   0  0  0  0  0  0  0  0  0  0  0  0
    0.1098    3.2655    2.2549 H   0  0  0  0  0  0  0  0  0  0  0  0
    1.4155    3.2392    1.0273 H   0  0  0  0  0  0  0  0  0  0  0  0
  2 16  1  0  0  0  0
  3  4  1  0  0  0  0
  4  6  1  0  0  0  0
  4  5  1  0  0  0  0
  6  7  1  0  0  0  0
  8  9  1  0  0  0  0
  8  6  2  0  0  0  0
 10  8  1  0  0  0  0
 11 10  1  0  0  0  0
 12 10  2  0  0  0  0
 12  3  1  0  0  0  0
 13  2  1  0  0  0  0
 13 12  1  0  0  0  0
 14 13  1  0  0  0  0
 15 13  1  0  0  0  0
 16 18  1  0  0  0  0
 16 19  1  0  0  0  0
 17 16  1  0  0  0  0
 19  1  1  0  0  0  0
 19 20  1  0  0  0  0
 21 19  1  0  0  0  0
M  END
