1,2,3
 OpenBabel05122313063D

 36 37  0  0  0  0  0  0  0  0999 V2000
    1.4741   -1.3205   -1.7430 S   0  0  0  0  0  0  0  0  0  0  0  0
    1.2906    1.9446   -1.5867 S   0  0  0  0  0  0  0  0  0  0  0  0
    1.3058   -0.4567    0.9891 N   0  0  0  0  0  2  0  0  0  0  0  0
    2.6358   -0.1717    0.9772 N   0  0  0  0  0  0  0  0  0  0  0  0
    1.7352   -2.8902   -0.8616 C   0  0  0  0  0  0  0  0  0  0  0  0
    3.1251   -0.5354   -1.5863 C   0  0  0  0  0  0  0  0  0  0  0  0
    0.4940    3.5364   -1.2297 C   0  0  0  0  0  0  0  0  0  0  0  0
    2.7836    1.9736   -0.5437 C   0  0  0  0  0  0  0  0  0  0  0  0
    5.6855    1.6668    0.3275 C   0  0  0  0  0  0  0  0  0  0  0  0
    7.0522    1.6635    0.6551 C   0  0  0  0  0  0  0  0  0  0  0  0
    7.7562    0.4525    0.7280 C   0  0  0  0  0  0  0  0  0  0  0  0
    7.0771   -0.7502    0.4739 C   0  0  0  0  0  0  0  0  0  0  0  0
    5.7131   -0.7279    0.1459 C   0  0  0  0  0  0  0  0  0  0  0  0
    4.9730    0.4765    0.0592 C   0  0  0  0  0  0  0  0  0  0  0  0
    3.1577   -0.4797    2.1935 C   0  0  0  0  0  3  0  0  0  0  0  0
    2.1391   -0.9849    3.0100 C   0  0  0  0  0  0  0  0  0  0  0  0
    0.9873   -0.9514    2.2077 C   0  0  0  0  0  0  0  0  0  0  0  0
    3.3750    0.4562   -0.2821 B   0  0  0  0  0  0  0  0  0  0  0  0
    0.7361   -3.3513   -0.7406 H   0  0  0  0  0  0  0  0  0  0  0  0
    2.1814   -2.7041    0.1331 H   0  0  0  0  0  0  0  0  0  0  0  0
    2.3918   -3.5363   -1.4760 H   0  0  0  0  0  0  0  0  0  0  0  0
    3.8346   -1.3862   -1.6223 H   0  0  0  0  0  0  0  0  0  0  0  0
    3.2474    0.0297   -2.5328 H   0  0  0  0  0  0  0  0  0  0  0  0
   -0.4106    3.5950   -1.8660 H   0  0  0  0  0  0  0  0  0  0  0  0
    1.1671    4.3797   -1.4830 H   0  0  0  0  0  0  0  0  0  0  0  0
    0.1859    3.6024   -0.1667 H   0  0  0  0  0  0  0  0  0  0  0  0
    3.5348    2.6085   -1.0583 H   0  0  0  0  0  0  0  0  0  0  0  0
    2.5375    2.4645    0.4225 H   0  0  0  0  0  0  0  0  0  0  0  0
    5.1614    2.6347    0.2854 H   0  0  0  0  0  0  0  0  0  0  0  0
    7.5702    2.6146    0.8560 H   0  0  0  0  0  0  0  0  0  0  0  0
    8.8275    0.4444    0.9821 H   0  0  0  0  0  0  0  0  0  0  0  0
    7.6147   -1.7099    0.5308 H   0  0  0  0  0  0  0  0  0  0  0  0
    5.2041   -1.6904   -0.0340 H   0  0  0  0  0  0  0  0  0  0  0  0
    4.2217   -0.3156    2.3881 H   0  0  0  0  0  0  0  0  0  0  0  0
    2.2241   -1.3315    4.0444 H   0  0  0  0  0  0  0  0  0  0  0  0
   -0.0428   -1.2710    2.4039 H   0  0  0  0  0  0  0  0  0  0  0  0
  1  6  1  0  0  0  0
  1  5  1  0  0  0  0
  2  7  1  0  0  0  0
  2  8  1  0  0  0  0
  3 17  1  0  0  0  0
  4  3  1  0  0  0  0
  4 15  1  0  0  0  0
  5 19  1  0  0  0  0
  5 20  1  0  0  0  0
  6 18  1  0  0  0  0
  7 26  1  0  0  0  0
  8 18  1  0  0  0  0
  8 28  1  0  0  0  0
  9 10  1  0  0  0  0
 10 11  2  0  0  0  0
 10 30  1  0  0  0  0
 11 31  1  0  0  0  0
 12 32  1  0  0  0  0
 12 11  1  0  0  0  0
 13 12  2  0  0  0  0
 14 13  1  0  0  0  0
 14  9  2  0  0  0  0
 15 34  1  0  0  0  0
 15 16  1  0  0  0  0
 16 35  1  0  0  0  0
 17 36  1  0  0  0  0
 17 16  2  0  0  0  0
 18 14  1  0  0  0  0
 18  4  1  0  0  0  0
 21  5  1  0  0  0  0
 22  6  1  0  0  0  0
 23  6  1  0  0  0  0
 24  7  1  0  0  0  0
 25  7  1  0  0  0  0
 27  8  1  0  0  0  0
 29  9  1  0  0  0  0
 33 13  1  0  0  0  0
M  END
