1,3,4
 OpenBabel05122313063D

 14 13  0  0  0  0  0  0  0  0999 V2000
   -2.4575   -0.7949   -0.0123 N   0  0  0  0  0  2  0  0  0  0  0  0
   -4.7379   -0.6205    0.3461 O   0  0  0  0  0  0  0  0  0  0  0  0
    0.0830   -1.7241    0.9085 S   0  0  0  0  0  1  0  0  0  0  0  0
   -1.7536    1.9829    0.1438 S   0  0  0  0  0  1  0  0  0  0  0  0
   -1.4915   -2.6729    1.2106 C   0  0  0  0  0  0  0  0  0  0  0  0
   -2.5197   -2.2550    0.1753 C   0  0  0  0  0  0  0  0  0  0  0  0
   -3.6460   -0.0904    0.1577 C   0  0  0  0  0  0  0  0  0  0  0  0
   -3.5043    1.4266    0.0905 C   0  0  0  0  0  0  0  0  0  0  0  0
   -1.2560   -3.7540    1.1557 H   0  0  0  0  0  0  0  0  0  0  0  0
   -1.8266   -2.4349    2.2407 H   0  0  0  0  0  0  0  0  0  0  0  0
   -2.3101   -2.7552   -0.7952 H   0  0  0  0  0  0  0  0  0  0  0  0
   -3.5509   -2.5213    0.4864 H   0  0  0  0  0  0  0  0  0  0  0  0
   -4.0703    1.8672    0.9346 H   0  0  0  0  0  0  0  0  0  0  0  0
   -3.9743    1.7884   -0.8474 H   0  0  0  0  0  0  0  0  0  0  0  0
  1  7  1  0  0  0  0
  1  6  1  0  0  0  0
  3  5  1  0  0  0  0
  5 10  1  0  0  0  0
  6 12  1  0  0  0  0
  6  5  1  0  0  0  0
  7  2  2  0  0  0  0
  8  4  1  0  0  0  0
  8  7  1  0  0  0  0
  8 13  1  0  0  0  0
  9  5  1  0  0  0  0
 11  6  1  0  0  0  0
 14  8  1  0  0  0  0
M  END
