1,2,3
 OpenBabel05122313063D

 25 24  0  0  0  0  0  0  0  0999 V2000
    1.9559   -2.3125    0.1125 S   0  0  0  0  0  1  0  0  0  0  0  0
   -0.3659    0.6386    1.3499 S   0  0  0  0  0  1  0  0  0  0  0  0
    2.5593    0.6552    0.4731 N   0  0  0  0  0  0  0  0  0  0  0  0
    3.5008   -1.6036    0.8474 C   0  0  0  0  0  0  0  0  0  0  0  0
    3.8394   -2.3109    1.6308 H   0  0  0  0  0  0  0  0  0  0  0  0
    4.3083   -1.5445    0.0886 H   0  0  0  0  0  0  0  0  0  0  0  0
    3.1968   -0.2515    1.4682 C   0  0  0  0  0  0  0  0  0  0  0  0
    2.4753   -0.3901    2.2970 H   0  0  0  0  0  0  0  0  0  0  0  0
    4.1127    0.2251    1.8860 H   0  0  0  0  0  0  0  0  0  0  0  0
    0.9459    1.7422    2.0542 C   0  0  0  0  0  0  0  0  0  0  0  0
    0.4899    2.7275    2.2780 H   0  0  0  0  0  0  0  0  0  0  0  0
    1.2760    1.3114    3.0225 H   0  0  0  0  0  0  0  0  0  0  0  0
    2.0976    1.9326    1.0867 C   0  0  0  0  0  0  0  0  0  0  0  0
    2.9488    2.4419    1.5947 H   0  0  0  0  0  0  0  0  0  0  0  0
    1.7684    2.5740    0.2454 H   0  0  0  0  0  0  0  0  0  0  0  0
    3.4694    0.9359   -0.6865 C   0  0  0  0  0  0  0  0  0  0  0  0
    3.5970   -0.0125   -1.2435 H   0  0  0  0  0  0  0  0  0  0  0  0
    2.9019    1.5997   -1.3665 H   0  0  0  0  0  0  0  0  0  0  0  0
    4.8363    1.5444   -0.3611 C   0  0  0  0  0  0  0  0  0  0  0  0
    4.7169    2.4750    0.2339 H   0  0  0  0  0  0  0  0  0  0  0  0
    5.4349    0.8488    0.2644 H   0  0  0  0  0  0  0  0  0  0  0  0
    5.6055    1.8552   -1.6474 C   0  0  0  0  0  0  0  0  0  0  0  0
    6.6027    2.2848   -1.4284 H   0  0  0  0  0  0  0  0  0  0  0  0
    5.0561    2.5819   -2.2806 H   0  0  0  0  0  0  0  0  0  0  0  0
    5.7597    0.9397   -2.2551 H   0  0  0  0  0  0  0  0  0  0  0  0
  1  4  1  0  0  0  0
  2 10  1  0  0  0  0
  3 13  1  0  0  0  0
  3  7  1  0  0  0  0
  4  7  1  0  0  0  0
  4  5  1  0  0  0  0
  6  4  1  0  0  0  0
  7  9  1  0  0  0  0
  7  8  1  0  0  0  0
 10 11  1  0  0  0  0
 10 12  1  0  0  0  0
 13 14  1  0  0  0  0
 13 10  1  0  0  0  0
 15 13  1  0  0  0  0
 16 19  1  0  0  0  0
 16  3  1  0  0  0  0
 17 16  1  0  0  0  0
 18 16  1  0  0  0  0
 19 20  1  0  0  0  0
 19 21  1  0  0  0  0
 22 23  1  0  0  0  0
 22 19  1  0  0  0  0
 24 22  1  0  0  0  0
 25 22  1  0  0  0  0
M  END
