1,2,4
 OpenBabel05122313063D

 26 25  0  0  0  0  0  0  0  0999 V2000
   -0.7089   -2.2860    0.3825 S   0  0  0  0  0  1  0  0  0  0  0  0
   -2.1666    1.8165   -0.5294 S   0  0  0  0  0  1  0  0  0  0  0  0
    3.8553    0.4866   -1.0495 S   0  0  0  0  0  0  0  0  0  0  0  0
    0.1461    0.5187    0.8661 N   0  0  0  0  0  0  0  0  0  0  0  0
    0.4089   -0.3717    2.0268 C   0  0  0  0  0  0  0  0  0  0  0  0
    0.6092   -1.8111    1.5869 C   0  0  0  0  0  0  0  0  0  0  0  0
   -0.1426    1.9027    1.3216 C   0  0  0  0  0  0  0  0  0  0  0  0
   -0.7408    2.7282    0.1981 C   0  0  0  0  0  0  0  0  0  0  0  0
    1.2020    0.4528   -0.1809 C   0  0  0  0  0  0  0  0  0  0  0  0
    2.6177    0.8520    0.2495 C   0  0  0  0  0  0  0  0  0  0  0  0
    3.7887   -1.3343   -1.0477 C   0  0  0  0  0  0  0  0  0  0  0  0
   -0.4936   -0.3070    2.6671 H   0  0  0  0  0  0  0  0  0  0  0  0
    1.2776    0.0095    2.6243 H   0  0  0  0  0  0  0  0  0  0  0  0
    1.6276   -1.9457    1.1525 H   0  0  0  0  0  0  0  0  0  0  0  0
    0.5678   -2.4671    2.4832 H   0  0  0  0  0  0  0  0  0  0  0  0
    0.7802    2.3679    1.7554 H   0  0  0  0  0  0  0  0  0  0  0  0
   -0.8929    1.8112    2.1329 H   0  0  0  0  0  0  0  0  0  0  0  0
   -1.0852    3.7039    0.6050 H   0  0  0  0  0  0  0  0  0  0  0  0
    0.0380    2.9683   -0.5638 H   0  0  0  0  0  0  0  0  0  0  0  0
    0.8686    1.0792   -1.0293 H   0  0  0  0  0  0  0  0  0  0  0  0
    1.1758   -0.5887   -0.5561 H   0  0  0  0  0  0  0  0  0  0  0  0
    2.7095    1.9442    0.4244 H   0  0  0  0  0  0  0  0  0  0  0  0
    2.9294    0.3399    1.1846 H   0  0  0  0  0  0  0  0  0  0  0  0
    4.5014   -1.6778   -1.8224 H   0  0  0  0  0  0  0  0  0  0  0  0
    4.1005   -1.7475   -0.0660 H   0  0  0  0  0  0  0  0  0  0  0  0
    2.7797   -1.7183   -1.3005 H   0  0  0  0  0  0  0  0  0  0  0  0
  1  6  1  0  0  0  0
  2  8  1  0  0  0  0
  3 11  1  0  0  0  0
  3 10  1  0  0  0  0
  4  7  1  0  0  0  0
  4  5  1  0  0  0  0
  5 13  1  0  0  0  0
  5 12  1  0  0  0  0
  6  5  1  0  0  0  0
  6 15  1  0  0  0  0
  7 16  1  0  0  0  0
  7 17  1  0  0  0  0
  8 18  1  0  0  0  0
  8  7  1  0  0  0  0
  9 10  1  0  0  0  0
  9  4  1  0  0  0  0
 10 22  1  0  0  0  0
 10 23  1  0  0  0  0
 11 25  1  0  0  0  0
 14  6  1  0  0  0  0
 19  8  1  0  0  0  0
 20  9  1  0  0  0  0
 21  9  1  0  0  0  0
 24 11  1  0  0  0  0
 26 11  1  0  0  0  0
M  END
