1,2,3
 OpenBabel05122313063D

 40 41  0  0  0  0  0  0  0  0999 V2000
   -2.5072    1.5839    1.6909 S   0  0  0  0  0  0  0  0  0  0  0  0
   -0.8036    1.4697   -1.0905 S   0  0  0  0  0  0  0  0  0  0  0  0
   -3.3052   -0.2578   -0.7985 N   0  0  0  0  0  2  0  0  0  0  0  0
    3.6261    1.7507   -0.7126 N   0  0  0  0  0  0  0  0  0  0  0  0
   -3.0971   -0.5033   -2.1226 C   0  0  0  0  0  3  0  0  0  0  0  0
   -2.0470   -0.5246   -2.4440 H   0  0  0  0  0  0  0  0  0  0  0  0
   -4.1225   -0.7112   -3.0446 C   0  0  0  0  0  0  0  0  0  0  0  0
   -3.8720   -0.9106   -4.0959 H   0  0  0  0  0  0  0  0  0  0  0  0
   -5.4489   -0.6583   -2.5966 C   0  0  0  0  0  0  0  0  0  0  0  0
   -6.2904   -0.8292   -3.2838 H   0  0  0  0  0  0  0  0  0  0  0  0
   -5.6734   -0.3582   -1.2498 C   0  0  0  0  0  0  0  0  0  0  0  0
   -6.6975   -0.2768   -0.8584 H   0  0  0  0  0  0  0  0  0  0  0  0
   -4.5991   -0.1454   -0.3652 C   0  0  0  0  0  0  0  0  0  0  0  0
   -4.8779    0.2675    1.0546 C   0  0  0  0  0  0  0  0  0  0  0  0
   -4.4415   -0.4890    1.7463 H   0  0  0  0  0  0  0  0  0  0  0  0
   -5.9737    0.2755    1.2128 H   0  0  0  0  0  0  0  0  0  0  0  0
   -1.7883    2.9748   -0.6459 C   0  0  0  0  0  0  0  0  0  0  0  0
   -1.2979    3.8539   -1.1112 H   0  0  0  0  0  0  0  0  0  0  0  0
   -2.7634    2.8227   -1.1515 H   0  0  0  0  0  0  0  0  0  0  0  0
   -1.9459    3.1386    0.8522 C   0  0  0  0  0  0  0  0  0  0  0  0
   -2.6635    3.9434    1.1111 H   0  0  0  0  0  0  0  0  0  0  0  0
   -0.9822    3.3885    1.3405 H   0  0  0  0  0  0  0  0  0  0  0  0
   -4.3334    1.6569    1.3917 C   0  0  0  0  0  0  0  0  0  0  0  0
   -4.7808    2.0366    2.3305 H   0  0  0  0  0  0  0  0  0  0  0  0
   -4.5368    2.3888    0.5841 H   0  0  0  0  0  0  0  0  0  0  0  0
    0.8904    1.9791   -0.6236 C   0  0  0  0  0  0  0  0  0  0  0  0
    0.8700    2.4585    0.3752 H   0  0  0  0  0  0  0  0  0  0  0  0
    1.4494    1.0324   -0.4990 H   0  0  0  0  0  0  0  0  0  0  0  0
    1.6382    2.8160   -1.6549 C   0  0  0  0  0  0  0  0  0  0  0  0
    1.5029    2.3623   -2.6621 H   0  0  0  0  0  0  0  0  0  0  0  0
    1.2488    3.8523   -1.7241 H   0  0  0  0  0  0  0  0  0  0  0  0
    3.1250    2.8431   -1.3215 C   0  0  0  0  0  0  0  0  0  0  0  0
    3.9297    3.9510   -1.6502 C   0  0  0  0  0  0  0  0  0  0  0  0
    3.4890    4.8318   -2.1416 H   0  0  0  0  0  0  0  0  0  0  0  0
    5.2961    3.9104   -1.3417 C   0  0  0  0  0  0  0  0  0  0  0  0
    5.9482    4.7616   -1.5894 H   0  0  0  0  0  0  0  0  0  0  0  0
    5.8140    2.7732   -0.7047 C   0  0  0  0  0  0  0  0  0  0  0  0
    6.8780    2.7028   -0.4357 H   0  0  0  0  0  0  0  0  0  0  0  0
    4.9336    1.7214   -0.4094 C   0  0  0  0  0  0  0  0  0  0  0  0
    5.2926    0.8126    0.1067 H   0  0  0  0  0  0  0  0  0  0  0  0
  2 17  1  0  0  0  0
  2 26  1  0  0  0  0
  3 13  1  0  0  0  0
  4 39  1  0  0  0  0
  5  3  1  0  0  0  0
  6  5  1  0  0  0  0
  7  9  2  0  0  0  0
  7  5  1  0  0  0  0
  8  7  1  0  0  0  0
  9 11  1  0  0  0  0
 10  9  1  0  0  0  0
 11 12  1  0  0  0  0
 11 13  2  0  0  0  0
 13 14  1  0  0  0  0
 14 16  1  0  0  0  0
 14 23  1  0  0  0  0
 14 15  1  0  0  0  0
 17 20  1  0  0  0  0
 18 17  1  0  0  0  0
 19 17  1  0  0  0  0
 20 21  1  0  0  0  0
 20 22  1  0  0  0  0
 20  1  1  0  0  0  0
 23  1  1  0  0  0  0
 23 24  1  0  0  0  0
 25 23  1  0  0  0  0
 26 28  1  0  0  0  0
 26 27  1  0  0  0  0
 29 32  1  0  0  0  0
 29 26  1  0  0  0  0
 30 29  1  0  0  0  0
 31 29  1  0  0  0  0
 32  4  2  0  0  0  0
 33 35  2  0  0  0  0
 33 32  1  0  0  0  0
 34 33  1  0  0  0  0
 35 37  1  0  0  0  0
 36 35  1  0  0  0  0
 37 38  1  0  0  0  0
 37 39  2  0  0  0  0
 39 40  1  0  0  0  0
M  END
