4,21,28
 OpenBabel05122313063D

 51 53  0  0  0  0  0  0  0  0999 V2000
    2.8671   -2.7753    0.2539 N   0  0  0  0  0  0  0  0  0  0  0  0
    1.8246   -1.9705    0.1150 C   0  0  0  0  0  3  0  0  0  0  0  0
    0.8170   -2.4124    0.2166 H   0  0  0  0  0  0  0  0  0  0  0  0
    1.8879   -0.6294   -0.1532 N   0  0  0  0  0  2  0  0  0  0  0  0
    3.1434   -0.1519   -0.3282 C   0  0  0  0  0  0  0  0  0  0  0  0
    4.3123   -0.9271   -0.1944 C   0  0  0  0  0  0  0  0  0  0  0  0
    4.1325   -2.3059    0.1206 C   0  0  0  0  0  0  0  0  0  0  0  0
    5.1612   -3.1499    0.2808 N   0  0  0  0  0  0  0  0  0  0  0  0
    4.9723   -4.1330    0.4806 H   0  0  0  0  0  0  0  0  0  0  0  0
    6.1188   -2.8198    0.1638 H   0  0  0  0  0  0  0  0  0  0  0  0
    5.4360   -0.1681   -0.4355 N   0  0  0  0  0  0  0  0  0  0  0  0
    4.9751    1.0302   -0.7159 C   0  0  0  0  0  0  0  0  0  0  0  0
    5.5802    1.9085   -0.9812 H   0  0  0  0  0  0  0  0  0  0  0  0
    3.5793    1.1142   -0.6689 N   0  0  0  0  0  0  0  0  0  0  0  0
    2.7645    2.2631   -1.0311 C   0  0  0  0  0  0  0  0  0  0  0  0
    1.9117    1.9096   -1.6502 H   0  0  0  0  0  0  0  0  0  0  0  0
    3.3843    2.9271   -1.6670 H   0  0  0  0  0  0  0  0  0  0  0  0
    2.2506    3.0800    0.1523 C   0  0  0  0  0  0  0  0  0  0  0  0
    1.6560    3.9333   -0.2292 H   0  0  0  0  0  0  0  0  0  0  0  0
    3.0830    3.4759    0.7680 H   0  0  0  0  0  0  0  0  0  0  0  0
    1.1758    2.1112    1.3215 S   0  0  0  0  0  0  0  0  0  0  0  0
   -0.1973    3.3281    1.5829 C   0  0  0  0  0  0  0  0  0  0  0  0
   -0.6727    3.0054    2.5312 H   0  0  0  0  0  0  0  0  0  0  0  0
    0.2681    4.3183    1.7607 H   0  0  0  0  0  0  0  0  0  0  0  0
   -1.2012    3.3566    0.4386 C   0  0  0  0  0  0  0  0  0  0  0  0
   -0.7532    3.7014   -0.5154 H   0  0  0  0  0  0  0  0  0  0  0  0
   -2.0600    4.0135    0.6890 H   0  0  0  0  0  0  0  0  0  0  0  0
   -1.8164    1.6336    0.2537 S   0  0  0  0  0  0  0  0  0  0  0  0
   -2.9279    1.6215   -1.2134 C   0  0  0  0  0  0  0  0  0  0  0  0
   -2.7007    2.5154   -1.8262 H   0  0  0  0  0  0  0  0  0  0  0  0
   -2.5698    0.7323   -1.7752 H   0  0  0  0  0  0  0  0  0  0  0  0
   -4.4110    1.5099   -0.8600 C   0  0  0  0  0  0  0  0  0  0  0  0
   -4.9095    1.2154   -1.8053 H   0  0  0  0  0  0  0  0  0  0  0  0
   -4.8268    2.4951   -0.5636 H   0  0  0  0  0  0  0  0  0  0  0  0
   -4.7856    0.4871    0.2402 C   0  0  0  0  0  0  0  0  0  0  0  0
   -4.7698    0.9707    1.2355 H   0  0  0  0  0  0  0  0  0  0  0  0
   -5.8214    0.1386    0.0560 H   0  0  0  0  0  0  0  0  0  0  0  0
   -3.8987   -0.6750    0.3417 N   0  0  0  0  0  0  0  0  0  0  0  0
   -3.8575   -1.5566   -0.7559 C   0  0  0  0  0  0  0  0  0  0  0  0
   -4.5358   -1.3751   -1.7577 O   0  0  0  0  0  0  0  0  0  0  0  0
   -2.9744   -2.6129   -0.5856 N   0  0  0  0  0  0  0  0  0  0  0  0
   -2.8635   -3.2177   -1.4060 H   0  0  0  0  0  0  0  0  0  0  0  0
   -2.0195   -2.7841    0.4339 C   0  0  0  0  0  0  0  0  0  0  0  0
   -1.1306   -3.6279    0.3386 O   0  0  0  0  0  0  0  0  0  0  0  0
   -2.1985   -1.8812    1.5787 C   0  0  0  0  0  0  0  0  0  0  0  0
   -1.3250   -2.0808    2.7795 C   0  0  0  0  0  0  0  0  0  0  0  0
   -1.5938   -1.3876    3.5995 H   0  0  0  0  0  0  0  0  0  0  0  0
   -0.2560   -1.9233    2.5223 H   0  0  0  0  0  0  0  0  0  0  0  0
   -1.3978   -3.1215    3.1548 H   0  0  0  0  0  0  0  0  0  0  0  0
   -3.1303   -0.8899    1.4739 C   0  0  0  0  0  0  0  0  0  0  0  0
   -3.3057   -0.1779    2.2942 H   0  0  0  0  0  0  0  0  0  0  0  0
  2  3  1  0  0  0  0
  2  1  1  0  0  0  0
  4  2  1  0  0  0  0
  5  6  2  0  0  0  0
  5  4  1  0  0  0  0
  6  7  1  0  0  0  0
  7  1  2  0  0  0  0
  7  8  1  0  0  0  0
  8  9  1  0  0  0  0
 10  8  1  0  0  0  0
 11  6  1  0  0  0  0
 12 14  1  0  0  0  0
 12 11  2  0  0  0  0
 13 12  1  0  0  0  0
 14  5  1  0  0  0  0
 15 14  1  0  0  0  0
 15 18  1  0  0  0  0
 16 15  1  0  0  0  0
 17 15  1  0  0  0  0
 18 20  1  0  0  0  0
 18 21  1  0  0  0  0
 19 18  1  0  0  0  0
 21 22  1  0  0  0  0
 22 24  1  0  0  0  0
 22 23  1  0  0  0  0
 25 27  1  0  0  0  0
 25 22  1  0  0  0  0
 26 25  1  0  0  0  0
 28 25  1  0  0  0  0
 29 32  1  0  0  0  0
 29 28  1  0  0  0  0
 30 29  1  0  0  0  0
 31 29  1  0  0  0  0
 32 34  1  0  0  0  0
 32 35  1  0  0  0  0
 33 32  1  0  0  0  0
 35 38  1  0  0  0  0
 35 36  1  0  0  0  0
 37 35  1  0  0  0  0
 38 50  1  0  0  0  0
 39 41  1  0  0  0  0
 39 38  1  0  0  0  0
 40 39  2  0  0  0  0
 41 43  1  0  0  0  0
 42 41  1  0  0  0  0
 43 45  1  0  0  0  0
 44 43  2  0  0  0  0
 45 46  1  0  0  0  0
 46 49  1  0  0  0  0
 46 47  1  0  0  0  0
 48 46  1  0  0  0  0
 50 45  2  0  0  0  0
 50 51  1  0  0  0  0
M  END
