1,2,3
 OpenBabel05122313063D

 53 54  0  0  0  0  0  0  0  0999 V2000
    2.7624   -1.3069   -2.2973 S   0  0  0  0  0  1  0  0  0  0  0  0
    3.9770   -0.8508    1.4714 S   0  0  0  0  0  1  0  0  0  0  0  0
    1.1558   -0.9148    0.2752 N   0  0  0  0  0  0  0  0  0  0  0  0
    1.2031   -2.2060   -1.8425 C   0  0  0  0  0  0  0  0  0  0  0  0
    1.0712   -2.2757   -0.3311 C   0  0  0  0  0  0  0  0  0  0  0  0
    1.9112   -2.8707    0.0781 H   0  0  0  0  0  0  0  0  0  0  0  0
    0.1202   -2.7660   -0.0248 H   0  0  0  0  0  0  0  0  0  0  0  0
    1.1931   -0.9663    1.7664 C   0  0  0  0  0  0  0  0  0  0  0  0
    1.0976    0.0825    2.1105 H   0  0  0  0  0  0  0  0  0  0  0  0
    0.3151   -1.5349    2.1488 H   0  0  0  0  0  0  0  0  0  0  0  0
    2.4785   -1.5598    2.3096 C   0  0  0  0  0  0  0  0  0  0  0  0
    2.5156   -2.6633    2.1981 H   0  0  0  0  0  0  0  0  0  0  0  0
    2.5535   -1.3403    3.3933 H   0  0  0  0  0  0  0  0  0  0  0  0
    0.0256   -0.0389   -0.1854 C   0  0  0  0  0  0  0  0  0  0  0  0
    0.1795    0.1572   -1.2641 H   0  0  0  0  0  0  0  0  0  0  0  0
    0.1712    0.9376    0.3147 H   0  0  0  0  0  0  0  0  0  0  0  0
   -1.3878   -0.5678    0.0602 C   0  0  0  0  0  0  0  0  0  0  0  0
   -1.5972   -1.4755   -0.5430 H   0  0  0  0  0  0  0  0  0  0  0  0
   -1.5149   -0.8522    1.1255 H   0  0  0  0  0  0  0  0  0  0  0  0
   -2.4260    0.4924   -0.3268 C   0  0  0  0  0  0  0  0  0  0  0  0
   -3.7909   -0.0073   -0.3127 N   0  0  0  0  0  0  0  0  0  0  0  0
   -4.7138    0.8592   -1.0390 C   0  0  0  0  0  0  0  0  0  0  0  0
   -6.1026    0.2348   -1.1099 C   0  0  0  0  0  0  0  0  0  0  0  0
   -6.6041   -0.0464    0.2357 N   0  0  0  0  0  0  0  0  0  0  0  0
   -5.6930   -0.9019    0.9749 C   0  0  0  0  0  0  0  0  0  0  0  0
   -4.3013   -0.2708    1.0271 C   0  0  0  0  0  0  0  0  0  0  0  0
   -7.9880   -0.2311    0.4107 C   0  0  0  0  0  0  0  0  0  0  0  0
   -8.5277   -1.3988    0.9892 C   0  0  0  0  0  0  0  0  0  0  0  0
   -9.9070   -1.5453    1.2146 C   0  0  0  0  0  0  0  0  0  0  0  0
  -10.2883   -2.4712    1.6704 H   0  0  0  0  0  0  0  0  0  0  0  0
  -10.7849   -0.5231    0.8439 C   0  0  0  0  0  0  0  0  0  0  0  0
  -10.2790    0.6541    0.2624 C   0  0  0  0  0  0  0  0  0  0  0  0
   -8.8998    0.8168    0.0567 C   0  0  0  0  0  0  0  0  0  0  0  0
   -8.3387    1.9546   -0.4551 O   0  0  0  0  0  0  0  0  0  0  0  0
   -9.1857    3.0397   -0.7766 C   0  0  0  0  0  0  0  0  0  0  0  0
   -8.5295    3.8488   -1.1481 H   0  0  0  0  0  0  0  0  0  0  0  0
   -9.7438    3.4063    0.1141 H   0  0  0  0  0  0  0  0  0  0  0  0
   -9.9201    2.7761   -1.5709 H   0  0  0  0  0  0  0  0  0  0  0  0
    0.3216   -1.7315   -2.3208 H   0  0  0  0  0  0  0  0  0  0  0  0
    1.2923   -3.2284   -2.2603 H   0  0  0  0  0  0  0  0  0  0  0  0
   -2.2087    0.8371   -1.3611 H   0  0  0  0  0  0  0  0  0  0  0  0
   -2.2999    1.3975    0.3298 H   0  0  0  0  0  0  0  0  0  0  0  0
   -4.8023    1.8700   -0.5572 H   0  0  0  0  0  0  0  0  0  0  0  0
   -4.3264    1.0108   -2.0683 H   0  0  0  0  0  0  0  0  0  0  0  0
   -6.0470   -0.7101   -1.7081 H   0  0  0  0  0  0  0  0  0  0  0  0
   -6.7932    0.9299   -1.6176 H   0  0  0  0  0  0  0  0  0  0  0  0
   -6.0719   -1.0269    2.0087 H   0  0  0  0  0  0  0  0  0  0  0  0
   -5.6062   -1.9219    0.5170 H   0  0  0  0  0  0  0  0  0  0  0  0
   -4.3540    0.6720    1.6372 H   0  0  0  0  0  0  0  0  0  0  0  0
   -3.6197   -0.9691    1.5542 H   0  0  0  0  0  0  0  0  0  0  0  0
   -7.8514   -2.2211    1.2600 H   0  0  0  0  0  0  0  0  0  0  0  0
  -11.8680   -0.6256    1.0066 H   0  0  0  0  0  0  0  0  0  0  0  0
  -10.9725    1.4610   -0.0090 H   0  0  0  0  0  0  0  0  0  0  0  0
  1  4  1  0  0  0  0
  2 11  1  0  0  0  0
  3  8  1  0  0  0  0
  4  5  1  0  0  0  0
  5  7  1  0  0  0  0
  5  6  1  0  0  0  0
  5  3  1  0  0  0  0
  8  9  1  0  0  0  0
  8 10  1  0  0  0  0
  8 11  1  0  0  0  0
 11 13  1  0  0  0  0
 12 11  1  0  0  0  0
 14 17  1  0  0  0  0
 14  3  1  0  0  0  0
 14 16  1  0  0  0  0
 15 14  1  0  0  0  0
 17 19  1  0  0  0  0
 18 17  1  0  0  0  0
 20 21  1  0  0  0  0
 20 17  1  0  0  0  0
 20 42  1  0  0  0  0
 21 26  1  0  0  0  0
 22 43  1  0  0  0  0
 22 21  1  0  0  0  0
 23 22  1  0  0  0  0
 23 24  1  0  0  0  0
 24 27  1  0  0  0  0
 24 25  1  0  0  0  0
 25 26  1  0  0  0  0
 25 47  1  0  0  0  0
 26 50  1  0  0  0  0
 26 49  1  0  0  0  0
 27 28  1  0  0  0  0
 28 29  2  0  0  0  0
 28 51  1  0  0  0  0
 29 30  1  0  0  0  0
 31 52  1  0  0  0  0
 31 29  1  0  0  0  0
 32 31  2  0  0  0  0
 33 32  1  0  0  0  0
 33 27  2  0  0  0  0
 34 33  1  0  0  0  0
 35 34  1  0  0  0  0
 35 37  1  0  0  0  0
 36 35  1  0  0  0  0
 38 35  1  0  0  0  0
 39  4  1  0  0  0  0
 40  4  1  0  0  0  0
 41 20  1  0  0  0  0
 44 22  1  0  0  0  0
 45 23  1  0  0  0  0
 46 23  1  0  0  0  0
 48 25  1  0  0  0  0
 53 32  1  0  0  0  0
M  END
