2,3,5
 OpenBabel05122313063D

 52 55  0  0  0  0  0  0  0  0999 V2000
   -2.0126    0.0931   -0.3026 P   0  0  0  0  0  4  0  0  0  0  0  0
    2.9810   -1.4492    0.1722 S   0  0  0  0  0  0  0  0  0  0  0  0
   -1.0671   -0.6081   -1.9690 S   0  0  0  0  0  1  0  0  0  0  0  0
    1.2759    0.5853    3.0293 O   0  0  0  0  0  0  0  0  0  0  0  0
    0.7385    0.3427    0.7799 N   0  0  0  0  0  2  0  0  0  0  0  0
    0.0597    1.5716    0.7461 C   0  0  0  0  0  0  0  0  0  0  0  0
   -1.2790    1.6386    0.2725 C   0  0  0  0  0  0  0  0  0  0  0  0
   -1.9704    2.8650    0.2033 C   0  0  0  0  0  0  0  0  0  0  0  0
   -3.0025    2.8890   -0.1767 H   0  0  0  0  0  0  0  0  0  0  0  0
   -1.3425    4.0424    0.6234 C   0  0  0  0  0  0  0  0  0  0  0  0
   -1.8791    5.0011    0.5727 H   0  0  0  0  0  0  0  0  0  0  0  0
   -0.0214    3.9877    1.1059 C   0  0  0  0  0  0  0  0  0  0  0  0
    0.4804    4.9116    1.4320 H   0  0  0  0  0  0  0  0  0  0  0  0
    0.6708    2.7752    1.1695 C   0  0  0  0  0  0  0  0  0  0  0  0
    1.7030    2.7387    1.5418 H   0  0  0  0  0  0  0  0  0  0  0  0
    1.3770    0.0021    1.9461 C   0  0  0  0  0  0  0  0  0  0  0  0
    2.2644   -1.2447    1.8399 C   0  0  0  0  0  0  0  0  0  0  0  0
    1.6550   -2.1619    1.9786 H   0  0  0  0  0  0  0  0  0  0  0  0
    3.0495   -1.2258    2.6188 H   0  0  0  0  0  0  0  0  0  0  0  0
    3.9949    0.0261   -0.0175 C   0  0  0  0  0  0  0  0  0  0  0  0
    4.4972    0.2441   -1.3160 C   0  0  0  0  0  0  0  0  0  0  0  0
    4.2192   -0.4437   -2.1305 H   0  0  0  0  0  0  0  0  0  0  0  0
    5.3112    1.3572   -1.5574 C   0  0  0  0  0  0  0  0  0  0  0  0
    5.6973    1.5330   -2.5727 H   0  0  0  0  0  0  0  0  0  0  0  0
    5.6243    2.2486   -0.5166 C   0  0  0  0  0  0  0  0  0  0  0  0
    6.2618    3.1238   -0.7121 H   0  0  0  0  0  0  0  0  0  0  0  0
    5.1153    2.0229    0.7702 C   0  0  0  0  0  0  0  0  0  0  0  0
    5.3503    2.7198    1.5890 H   0  0  0  0  0  0  0  0  0  0  0  0
    4.2975    0.9105    1.0320 C   0  0  0  0  0  0  0  0  0  0  0  0
    3.8947    0.7620    2.0431 H   0  0  0  0  0  0  0  0  0  0  0  0
   -1.9633   -1.0980    1.0817 C   0  0  0  0  0  0  0  0  0  0  0  0
   -1.8945   -0.6443    2.4131 C   0  0  0  0  0  0  0  0  0  0  0  0
   -1.8493    0.4328    2.6326 H   0  0  0  0  0  0  0  0  0  0  0  0
   -1.8208   -1.5783    3.4573 C   0  0  0  0  0  0  0  0  0  0  0  0
   -1.7391   -1.2244    4.4956 H   0  0  0  0  0  0  0  0  0  0  0  0
   -1.8249   -2.9537    3.1743 C   0  0  0  0  0  0  0  0  0  0  0  0
   -1.7605   -3.6832    3.9961 H   0  0  0  0  0  0  0  0  0  0  0  0
   -1.8964   -3.4011    1.8437 C   0  0  0  0  0  0  0  0  0  0  0  0
   -1.8880   -4.4787    1.6207 H   0  0  0  0  0  0  0  0  0  0  0  0
   -1.9600   -2.4759    0.7926 C   0  0  0  0  0  0  0  0  0  0  0  0
   -1.9716   -2.8099   -0.2566 H   0  0  0  0  0  0  0  0  0  0  0  0
   -3.7629    0.4239   -0.6941 C   0  0  0  0  0  0  0  0  0  0  0  0
   -4.7602    0.2536    0.2867 C   0  0  0  0  0  0  0  0  0  0  0  0
   -4.4924   -0.1175    1.2874 H   0  0  0  0  0  0  0  0  0  0  0  0
   -6.0955    0.5519   -0.0224 C   0  0  0  0  0  0  0  0  0  0  0  0
   -6.8750    0.4160    0.7423 H   0  0  0  0  0  0  0  0  0  0  0  0
   -6.4365    1.0158   -1.3030 C   0  0  0  0  0  0  0  0  0  0  0  0
   -7.4859    1.2455   -1.5424 H   0  0  0  0  0  0  0  0  0  0  0  0
   -5.4419    1.1809   -2.2809 C   0  0  0  0  0  0  0  0  0  0  0  0
   -5.7089    1.5382   -3.2868 H   0  0  0  0  0  0  0  0  0  0  0  0
   -4.1045    0.8858   -1.9816 C   0  0  0  0  0  0  0  0  0  0  0  0
   -3.3185    1.0030   -2.7437 H   0  0  0  0  0  0  0  0  0  0  0  0
  1  7  1  0  0  0  0
  1 31  1  0  0  0  0
  2 17  1  0  0  0  0
  3  1  1  0  0  0  0
  5 16  1  0  0  0  0
  6  5  1  0  0  0  0
  6 14  1  0  0  0  0
  7  6  2  0  0  0  0
  8  7  1  0  0  0  0
  8 10  2  0  0  0  0
  9  8  1  0  0  0  0
 10 12  1  0  0  0  0
 11 10  1  0  0  0  0
 12 14  2  0  0  0  0
 12 13  1  0  0  0  0
 14 15  1  0  0  0  0
 16  4  2  0  0  0  0
 17 16  1  0  0  0  0
 17 18  1  0  0  0  0
 17 19  1  0  0  0  0
 20  2  1  0  0  0  0
 20 29  1  0  0  0  0
 21 20  2  0  0  0  0
 22 21  1  0  0  0  0
 23 21  1  0  0  0  0
 23 25  2  0  0  0  0
 24 23  1  0  0  0  0
 25 27  1  0  0  0  0
 26 25  1  0  0  0  0
 27 29  2  0  0  0  0
 27 28  1  0  0  0  0
 29 30  1  0  0  0  0
 31 32  1  0  0  0  0
 32 33  1  0  0  0  0
 32 34  2  0  0  0  0
 34 35  1  0  0  0  0
 36 34  1  0  0  0  0
 36 37  1  0  0  0  0
 38 36  2  0  0  0  0
 39 38  1  0  0  0  0
 40 31  2  0  0  0  0
 40 38  1  0  0  0  0
 41 40  1  0  0  0  0
 42  1  1  0  0  0  0
 42 43  1  0  0  0  0
 43 44  1  0  0  0  0
 45 43  2  0  0  0  0
 45 46  1  0  0  0  0
 47 45  1  0  0  0  0
 48 47  1  0  0  0  0
 49 51  1  0  0  0  0
 49 47  2  0  0  0  0
 50 49  1  0  0  0  0
 51 42  2  0  0  0  0
 52 51  1  0  0  0  0
M  END
