1,2,3
 OpenBabel05122313063D

 63 67  0  0  1  0  0  0  0  0999 V2000
    2.0355   -1.1417    1.2349 S   0  0  0  0  0  1  0  0  0  0  0  0
   -2.0354   -1.1417   -1.2348 S   0  0  0  0  0  1  0  0  0  0  0  0
    0.0000    0.5403    0.0001 N   0  0  0  0  0  2  0  0  0  0  0  0
    6.4441   -1.8932   -0.5260 C   0  0  0  0  0  0  0  0  0  0  0  0
    7.4833   -1.8033   -0.1703 H   0  0  0  0  0  0  0  0  0  0  0  0
   -3.2482    1.5709   -1.9741 C   0  0  0  0  0  0  0  0  0  0  0  0
   -2.5550    0.9230   -2.5344 H   0  0  0  0  0  0  0  0  0  0  0  0
   -3.6293    1.1412   -0.6914 C   0  0  0  0  0  0  0  0  0  0  0  0
   -4.1326   -1.0749    0.4877 C   0  0  0  0  0  0  0  0  0  0  0  0
    3.6294    1.1412    0.6914 C   0  0  0  0  0  0  0  0  0  0  0  0
   -3.7841   -2.1189    1.3774 C   0  0  0  0  0  0  0  0  0  0  0  0
   -2.7268   -2.2757    1.6474 H   0  0  0  0  0  0  0  0  0  0  0  0
    3.2484    1.5708    1.9742 C   0  0  0  0  0  0  0  0  0  0  0  0
    2.5554    0.9228    2.5345 H   0  0  0  0  0  0  0  0  0  0  0  0
    3.0480   -0.1265    0.0401 C   0  0  0  0  0  0  0  0  0  0  0  0
    1.0095    1.2123   -0.6069 C   0  0  2  0  0  3  0  0  0  0  0  0
   -4.7551   -3.0114    1.8479 C   0  0  0  0  0  0  0  0  0  0  0  0
   -4.4535   -3.8176    2.5352 H   0  0  0  0  0  0  0  0  0  0  0  0
    2.1298    0.3698   -1.1354 C   0  0  0  0  0  0  0  0  0  0  0  0
    2.7393    0.9475   -1.8587 H   0  0  0  0  0  0  0  0  0  0  0  0
    1.7111   -0.5137   -1.6604 H   0  0  0  0  0  0  0  0  0  0  0  0
    4.1326   -1.0749   -0.4877 C   0  0  0  0  0  0  0  0  0  0  0  0
    1.0279    2.6156   -0.6310 C   0  0  0  0  0  0  0  0  0  0  0  0
    1.8680    3.1319   -1.1165 H   0  0  0  0  0  0  0  0  0  0  0  0
    3.7840   -2.1189   -1.3774 C   0  0  0  0  0  0  0  0  0  0  0  0
    2.7267   -2.2757   -1.6473 H   0  0  0  0  0  0  0  0  0  0  0  0
   -4.9751    3.1809   -0.4697 C   0  0  0  0  0  0  0  0  0  0  0  0
   -5.6560    3.8054    0.1306 H   0  0  0  0  0  0  0  0  0  0  0  0
   -3.7172    2.7859   -2.5004 C   0  0  0  0  0  0  0  0  0  0  0  0
   -3.3964    3.1007   -3.5063 H   0  0  0  0  0  0  0  0  0  0  0  0
   -1.0279    2.6156    0.6311 C   0  0  0  0  0  0  0  0  0  0  0  0
   -1.8680    3.1319    1.1166 H   0  0  0  0  0  0  0  0  0  0  0  0
    4.9749    3.1810    0.4695 C   0  0  0  0  0  0  0  0  0  0  0  0
    5.6557    3.8056   -0.1309 H   0  0  0  0  0  0  0  0  0  0  0  0
   -5.4741   -0.9907    0.0584 C   0  0  0  0  0  0  0  0  0  0  0  0
   -5.7653   -0.2139   -0.6628 H   0  0  0  0  0  0  0  0  0  0  0  0
    0.0000    3.3274    0.0001 C   0  0  0  0  0  0  0  0  0  0  0  0
    0.0000    4.4279    0.0001 H   0  0  0  0  0  0  0  0  0  0  0  0
    5.4741   -0.9908   -0.0586 C   0  0  0  0  0  0  0  0  0  0  0  0
    5.7654   -0.2140    0.6627 H   0  0  0  0  0  0  0  0  0  0  0  0
    6.0947   -2.9010   -1.4352 C   0  0  0  0  0  0  0  0  0  0  0  0
    6.8547   -3.6065   -1.8069 H   0  0  0  0  0  0  0  0  0  0  0  0
   -3.0479   -0.1265   -0.0401 C   0  0  0  0  0  0  0  0  0  0  0  0
   -6.0948   -2.9009    1.4351 C   0  0  0  0  0  0  0  0  0  0  0  0
   -6.8549   -3.6064    1.8067 H   0  0  0  0  0  0  0  0  0  0  0  0
    4.5016    1.9693   -0.0525 C   0  0  0  0  0  0  0  0  0  0  0  0
    4.8202    1.6531   -1.0581 H   0  0  0  0  0  0  0  0  0  0  0  0
   -6.4442   -1.8931    0.5258 C   0  0  0  0  0  0  0  0  0  0  0  0
   -7.4833   -1.8033    0.1701 H   0  0  0  0  0  0  0  0  0  0  0  0
   -1.0095    1.2123    0.6070 C   0  0  0  0  0  0  0  0  0  0  0  0
   -2.1298    0.3699    1.1354 C   0  0  0  0  0  0  0  0  0  0  0  0
   -2.7393    0.9476    1.8587 H   0  0  0  0  0  0  0  0  0  0  0  0
   -1.7111   -0.5137    1.6604 H   0  0  0  0  0  0  0  0  0  0  0  0
    4.7550   -3.0114   -1.8480 C   0  0  0  0  0  0  0  0  0  0  0  0
    4.4533   -3.8176   -2.5353 H   0  0  0  0  0  0  0  0  0  0  0  0
    4.5821    3.5980    1.7530 C   0  0  0  0  0  0  0  0  0  0  0  0
    4.9496    4.5514    2.1646 H   0  0  0  0  0  0  0  0  0  0  0  0
    3.7174    2.7858    2.5005 C   0  0  0  0  0  0  0  0  0  0  0  0
    3.3967    3.1006    3.5064 H   0  0  0  0  0  0  0  0  0  0  0  0
   -4.5821    3.5980   -1.7531 C   0  0  0  0  0  0  0  0  0  0  0  0
   -4.9497    4.5513   -2.1647 H   0  0  0  0  0  0  0  0  0  0  0  0
   -4.5017    1.9692    0.0523 C   0  0  0  0  0  0  0  0  0  0  0  0
   -4.8205    1.6530    1.0579 H   0  0  0  0  0  0  0  0  0  0  0  0
  2 43  1  0  0  0  0
  3 50  1  0  0  0  0
  4  5  1  0  0  0  0
  4 39  1  0  0  0  0
  6  8  1  0  0  0  0
  7  6  1  0  0  0  0
  8 43  1  0  0  0  0
  8 62  2  0  0  0  0
  9 11  1  0  0  0  0
 10 13  1  0  0  0  0
 11 12  1  0  0  0  0
 11 17  2  0  0  0  0
 13 58  2  0  0  0  0
 13 14  1  0  0  0  0
 15 10  1  0  0  0  0
 15  1  1  0  0  0  0
 16 19  1  1  0  0  0
 16  3  1  0  0  0  0
 17 18  1  0  0  0  0
 19 15  1  0  0  0  0
 20 19  1  0  0  0  0
 21 19  1  0  0  0  0
 22 39  2  0  0  0  0
 22 15  1  0  0  0  0
 23 16  1  0  0  0  0
 23 37  2  0  0  0  0
 24 23  1  0  0  0  0
 25 22  1  0  0  0  0
 26 25  1  0  0  0  0
 27 62  1  0  0  0  0
 27 28  1  0  0  0  0
 29  6  2  0  0  0  0
 29 60  1  0  0  0  0
 30 29  1  0  0  0  0
 31 32  1  0  0  0  0
 33 56  2  0  0  0  0
 34 33  1  0  0  0  0
 35  9  2  0  0  0  0
 35 48  1  0  0  0  0
 36 35  1  0  0  0  0
 37 38  1  0  0  0  0
 37 31  1  0  0  0  0
 39 40  1  0  0  0  0
 41  4  2  0  0  0  0
 42 41  1  0  0  0  0
 43  9  1  0  0  0  0
 43 51  1  0  0  0  0
 44 45  1  0  0  0  0
 44 17  1  0  0  0  0
 46 33  1  0  0  0  0
 46 10  2  0  0  0  0
 47 46  1  0  0  0  0
 48 44  2  0  0  0  0
 49 48  1  0  0  0  0
 50 31  2  0  0  0  0
 50 51  1  0  0  0  0
 51 53  1  0  0  0  0
 51 52  1  0  0  0  0
 54 41  1  0  0  0  0
 54 25  2  0  0  0  0
 55 54  1  0  0  0  0
 56 57  1  0  0  0  0
 56 58  1  0  0  0  0
 58 59  1  0  0  0  0
 60 27  2  0  0  0  0
 61 60  1  0  0  0  0
 62 63  1  0  0  0  0
M  END
