1,2,4
 OpenBabel05122313063D

 39 40  0  0  1  0  0  0  0  0999 V2000
    2.0087   -1.3968    2.0636 S   0  0  0  0  0  1  0  0  0  0  0  0
    1.6785   -2.1797   -1.4405 S   0  0  0  0  0  1  0  0  0  0  0  0
   -5.9955   -0.1565    0.6914 O   0  0  0  0  0  0  0  0  0  0  0  0
    0.4462    0.3418   -0.2576 N   0  0  0  0  0  2  0  0  0  0  0  0
    0.2209   -1.8639    1.9134 C   0  0  0  0  0  0  0  0  0  0  0  0
   -0.2237   -2.6355    0.6672 C   0  0  0  0  0  0  0  0  0  0  0  0
   -0.0527   -2.0138   -0.7342 C   0  0  1  0  0  0  0  0  0  0  0  0
   -0.5173   -0.5386   -0.9265 C   0  0  1  0  0  0  0  0  0  0  0  0
   -1.9718   -0.3775   -0.4971 C   0  0  0  0  0  0  0  0  0  0  0  0
   -2.3682    0.1948    0.7305 C   0  0  0  0  0  0  0  0  0  0  0  0
   -3.7137    0.2553    1.0988 C   0  0  0  0  0  0  0  0  0  0  0  0
   -4.7133   -0.2577    0.2450 C   0  0  0  0  0  0  0  0  0  0  0  0
   -4.3375   -0.8195   -0.9927 C   0  0  0  0  0  0  0  0  0  0  0  0
   -2.9803   -0.8649   -1.3472 C   0  0  0  0  0  0  0  0  0  0  0  0
   -7.0338   -0.6475   -0.1333 C   0  0  0  0  0  0  0  0  0  0  0  0
    0.1885    1.7118   -0.1494 C   0  0  0  0  0  0  0  0  0  0  0  0
   -0.5987    2.4317   -1.0830 C   0  0  0  0  0  0  0  0  0  0  0  0
   -0.7725    3.8150   -0.9434 C   0  0  0  0  0  0  0  0  0  0  0  0
   -0.1800    4.5136    0.1219 C   0  0  0  0  0  0  0  0  0  0  0  0
    0.5825    3.8046    1.0661 C   0  0  0  0  0  0  0  0  0  0  0  0
    0.7542    2.4211    0.9424 C   0  0  0  0  0  0  0  0  0  0  0  0
   -0.3587   -0.9285    2.0232 H   0  0  0  0  0  0  0  0  0  0  0  0
    0.0079   -2.4944    2.8012 H   0  0  0  0  0  0  0  0  0  0  0  0
    0.2729   -3.6278    0.6478 H   0  0  0  0  0  0  0  0  0  0  0  0
   -1.3116   -2.8309    0.8001 H   0  0  0  0  0  0  0  0  0  0  0  0
   -0.6588   -2.6332   -1.4260 H   0  0  0  0  0  0  0  0  0  0  0  0
   -0.4769   -0.3646   -2.0305 H   0  0  0  0  0  0  0  0  0  0  0  0
   -1.6127    0.6257    1.4020 H   0  0  0  0  0  0  0  0  0  0  0  0
   -4.0240    0.7089    2.0511 H   0  0  0  0  0  0  0  0  0  0  0  0
   -5.0896   -1.2140   -1.6888 H   0  0  0  0  0  0  0  0  0  0  0  0
   -2.7027   -1.2951   -2.3237 H   0  0  0  0  0  0  0  0  0  0  0  0
   -7.0769   -0.1148   -1.1102 H   0  0  0  0  0  0  0  0  0  0  0  0
   -6.9294   -1.7387   -0.3294 H   0  0  0  0  0  0  0  0  0  0  0  0
   -7.9790   -0.4707    0.4128 H   0  0  0  0  0  0  0  0  0  0  0  0
   -1.0697    1.9034   -1.9235 H   0  0  0  0  0  0  0  0  0  0  0  0
   -1.3831    4.3569   -1.6823 H   0  0  0  0  0  0  0  0  0  0  0  0
   -0.3242    5.5993    0.2239 H   0  0  0  0  0  0  0  0  0  0  0  0
    1.0316    4.3323    1.9218 H   0  0  0  0  0  0  0  0  0  0  0  0
    1.3049    1.8452    1.7036 H   0  0  0  0  0  0  0  0  0  0  0  0
  2  7  1  0  0  0  0
  4 16  1  0  0  0  0
  5 22  1  0  0  0  0
  5  1  1  0  0  0  0
  5 23  1  0  0  0  0
  6 25  1  0  0  0  0
  6  5  1  0  0  0  0
  7 26  1  6  0  0  0
  7  6  1  0  0  0  0
  8 27  1  6  0  0  0
  8  7  1  0  0  0  0
  8  9  1  0  0  0  0
  8  4  1  0  0  0  0
  9 10  1  0  0  0  0
 10 11  2  0  0  0  0
 10 28  1  0  0  0  0
 11 29  1  0  0  0  0
 12  3  1  0  0  0  0
 12 11  1  0  0  0  0
 13 12  2  0  0  0  0
 14 13  1  0  0  0  0
 14  9  2  0  0  0  0
 15 34  1  0  0  0  0
 15  3  1  0  0  0  0
 16 21  1  0  0  0  0
 17 18  1  0  0  0  0
 17 16  2  0  0  0  0
 18 19  2  0  0  0  0
 19 37  1  0  0  0  0
 19 20  1  0  0  0  0
 20 38  1  0  0  0  0
 21 20  2  0  0  0  0
 21 39  1  0  0  0  0
 24  6  1  0  0  0  0
 30 13  1  0  0  0  0
 31 14  1  0  0  0  0
 32 15  1  0  0  0  0
 33 15  1  0  0  0  0
 35 17  1  0  0  0  0
 36 18  1  0  0  0  0
M  END
