1,2,3
 OpenBabel05122313063D

 43 43  0  0  1  0  0  0  0  0999 V2000
   -2.3061   -0.9630   -0.0156 S   0  0  0  0  0  1  0  0  0  0  0  0
    2.3062   -0.9629   -0.0157 S   0  0  0  0  0  1  0  0  0  0  0  0
   -0.0000    0.8829   -0.0327 N   0  0  0  0  0  2  0  0  0  0  0  0
   -3.6085    1.3814    0.0581 N   0  0  0  0  0  0  0  0  0  0  0  0
   -3.5680    2.4014    0.1185 H   0  0  0  0  0  0  0  0  0  0  0  0
    3.6085    1.3815    0.0581 N   0  0  0  0  0  0  0  0  0  0  0  0
    3.5680    2.4016    0.1187 H   0  0  0  0  0  0  0  0  0  0  0  0
   -2.4327    0.7460   -0.0016 C   0  0  2  0  0  3  0  0  0  0  0  0
   -1.1951    1.5678   -0.0587 C   0  0  0  0  0  0  0  0  0  0  0  0
   -1.2038    2.9697   -0.1552 C   0  0  0  0  0  0  0  0  0  0  0  0
   -2.1489    3.5277   -0.2116 H   0  0  0  0  0  0  0  0  0  0  0  0
   -0.0001    3.6791   -0.2081 C   0  0  0  0  0  0  0  0  0  0  0  0
   -0.0002    4.7742   -0.2970 H   0  0  0  0  0  0  0  0  0  0  0  0
    1.2036    2.9698   -0.1552 C   0  0  0  0  0  0  0  0  0  0  0  0
    2.1487    3.5279   -0.2118 H   0  0  0  0  0  0  0  0  0  0  0  0
    1.1950    1.5679   -0.0587 C   0  0  0  0  0  0  0  0  0  0  0  0
    2.4327    0.7461   -0.0016 C   0  0  0  0  0  0  0  0  0  0  0  0
   -5.0066    0.8405    0.1027 C   0  0  0  0  0  0  0  0  0  0  0  0
   -5.2899    0.0174   -1.1655 C   0  0  0  0  0  0  0  0  0  0  0  0
   -5.1363    0.6274   -2.0772 H   0  0  0  0  0  0  0  0  0  0  0  0
   -4.6554   -0.8863   -1.2330 H   0  0  0  0  0  0  0  0  0  0  0  0
   -6.3453   -0.3163   -1.1467 H   0  0  0  0  0  0  0  0  0  0  0  0
   -5.9125    2.0810    0.1351 C   0  0  0  0  0  0  0  0  0  0  0  0
   -6.9728    1.7688    0.1712 H   0  0  0  0  0  0  0  0  0  0  0  0
   -5.7787    2.7036   -0.7734 H   0  0  0  0  0  0  0  0  0  0  0  0
   -5.7182    2.7007    1.0351 H   0  0  0  0  0  0  0  0  0  0  0  0
   -5.2039    0.0099    1.3828 C   0  0  0  0  0  0  0  0  0  0  0  0
   -5.0007    0.6181    2.2860 H   0  0  0  0  0  0  0  0  0  0  0  0
   -4.5556   -0.8864    1.4066 H   0  0  0  0  0  0  0  0  0  0  0  0
   -6.2548   -0.3356    1.4280 H   0  0  0  0  0  0  0  0  0  0  0  0
    5.0066    0.8405    0.1027 C   0  0  0  0  0  0  0  0  0  0  0  0
    5.2038    0.0100    1.3829 C   0  0  0  0  0  0  0  0  0  0  0  0
    4.5555   -0.8861    1.4068 H   0  0  0  0  0  0  0  0  0  0  0  0
    6.2547   -0.3356    1.4281 H   0  0  0  0  0  0  0  0  0  0  0  0
    5.0007    0.6184    2.2860 H   0  0  0  0  0  0  0  0  0  0  0  0
    5.9126    2.0809    0.1349 C   0  0  0  0  0  0  0  0  0  0  0  0
    6.9728    1.7687    0.1709 H   0  0  0  0  0  0  0  0  0  0  0  0
    5.7787    2.7035   -0.7736 H   0  0  0  0  0  0  0  0  0  0  0  0
    5.7185    2.7008    1.0349 H   0  0  0  0  0  0  0  0  0  0  0  0
    5.2895    0.0173   -1.1654 C   0  0  0  0  0  0  0  0  0  0  0  0
    5.1360    0.6272   -2.0772 H   0  0  0  0  0  0  0  0  0  0  0  0
    6.3449   -0.3167   -1.1467 H   0  0  0  0  0  0  0  0  0  0  0  0
    4.6548   -0.8863   -1.2327 H   0  0  0  0  0  0  0  0  0  0  0  0
  2 17  1  0  0  0  0
  4 18  1  0  0  0  0
  4  5  1  0  0  0  0
  6 31  1  0  0  0  0
  6  7  1  0  0  0  0
  8  1  1  6  0  0  0
  8  4  1  0  0  0  0
  9  3  1  0  0  0  0
  9  8  1  0  0  0  0
 10  9  2  0  0  0  0
 11 10  1  0  0  0  0
 12 14  2  0  0  0  0
 12 10  1  0  0  0  0
 13 12  1  0  0  0  0
 14 16  1  0  0  0  0
 15 14  1  0  0  0  0
 16  3  1  0  0  0  0
 16 17  2  0  0  0  0
 17  6  1  0  0  0  0
 18 23  1  0  0  0  0
 18 27  1  0  0  0  0
 19 22  1  0  0  0  0
 19 18  1  0  0  0  0
 20 19  1  0  0  0  0
 21 19  1  0  0  0  0
 23 24  1  0  0  0  0
 23 26  1  0  0  0  0
 25 23  1  0  0  0  0
 27 29  1  0  0  0  0
 27 30  1  0  0  0  0
 27 28  1  0  0  0  0
 31 36  1  0  0  0  0
 31 32  1  0  0  0  0
 32 33  1  0  0  0  0
 32 34  1  0  0  0  0
 32 35  1  0  0  0  0
 36 37  1  0  0  0  0
 36 39  1  0  0  0  0
 38 36  1  0  0  0  0
 40 42  1  0  0  0  0
 40 31  1  0  0  0  0
 41 40  1  0  0  0  0
 43 40  1  0  0  0  0
M  END
