1,2,3
 OpenBabel05122313063D

 30 29  0  0  0  0  0  0  0  0999 V2000
    1.3082   -2.4171    0.4826 S   0  0  0  0  0  1  0  0  0  0  0  0
   -0.7362    0.9061    1.1826 S   0  0  0  0  0  1  0  0  0  0  0  0
    2.1740    0.5300    0.2248 N   0  0  0  0  0  0  0  0  0  0  0  0
    5.3074    1.1707   -0.0406 N   0  0  0  0  0  0  0  0  0  0  0  0
    2.9631   -1.7246    0.9482 C   0  0  0  0  0  0  0  0  0  0  0  0
    2.8531   -0.2534    1.3083 C   0  0  0  0  0  0  0  0  0  0  0  0
    1.8323    1.9094    0.6801 C   0  0  0  0  0  0  0  0  0  0  0  0
    0.7083    1.9511    1.6963 C   0  0  0  0  0  0  0  0  0  0  0  0
    3.0229    0.5999   -1.0155 C   0  0  0  0  0  0  0  0  0  0  0  0
    4.2507    1.5180   -0.9858 C   0  0  0  0  0  0  0  0  0  0  0  0
    6.1754    2.3005    0.2488 C   0  0  0  0  0  0  0  0  0  0  0  0
    6.0719    0.0062   -0.4572 C   0  0  0  0  0  0  0  0  0  0  0  0
    3.3141   -2.2977    1.8299 H   0  0  0  0  0  0  0  0  0  0  0  0
    3.6929   -1.9103    0.1336 H   0  0  0  0  0  0  0  0  0  0  0  0
    3.8528    0.1981    1.4899 H   0  0  0  0  0  0  0  0  0  0  0  0
    2.2284   -0.1566    2.2181 H   0  0  0  0  0  0  0  0  0  0  0  0
    1.5236    2.4671   -0.2271 H   0  0  0  0  0  0  0  0  0  0  0  0
    2.7391    2.4009    1.0990 H   0  0  0  0  0  0  0  0  0  0  0  0
    1.0358    1.6091    2.6999 H   0  0  0  0  0  0  0  0  0  0  0  0
    0.3572    2.9965    1.8084 H   0  0  0  0  0  0  0  0  0  0  0  0
    2.3603    0.9481   -1.8298 H   0  0  0  0  0  0  0  0  0  0  0  0
    3.2964   -0.4372   -1.2846 H   0  0  0  0  0  0  0  0  0  0  0  0
    3.9268    2.5548   -0.7646 H   0  0  0  0  0  0  0  0  0  0  0  0
    4.6354    1.5516   -2.0420 H   0  0  0  0  0  0  0  0  0  0  0  0
    5.5805    3.1491    0.6441 H   0  0  0  0  0  0  0  0  0  0  0  0
    6.7413    2.6668   -0.6487 H   0  0  0  0  0  0  0  0  0  0  0  0
    6.9190    2.0175    1.0208 H   0  0  0  0  0  0  0  0  0  0  0  0
    5.4068   -0.8653   -0.6140 H   0  0  0  0  0  0  0  0  0  0  0  0
    6.8024   -0.2708    0.3292 H   0  0  0  0  0  0  0  0  0  0  0  0
    6.6379    0.1767   -1.4113 H   0  0  0  0  0  0  0  0  0  0  0  0
  1  5  1  0  0  0  0
  2  8  1  0  0  0  0
  3  7  1  0  0  0  0
  3  6  1  0  0  0  0
  4 11  1  0  0  0  0
  5  6  1  0  0  0  0
  5 13  1  0  0  0  0
  6 15  1  0  0  0  0
  6 16  1  0  0  0  0
  7 18  1  0  0  0  0
  7  8  1  0  0  0  0
  8 20  1  0  0  0  0
  8 19  1  0  0  0  0
  9 10  1  0  0  0  0
  9  3  1  0  0  0  0
 10 23  1  0  0  0  0
 10  4  1  0  0  0  0
 11 25  1  0  0  0  0
 11 27  1  0  0  0  0
 12  4  1  0  0  0  0
 12 29  1  0  0  0  0
 14  5  1  0  0  0  0
 17  7  1  0  0  0  0
 21  9  1  0  0  0  0
 22  9  1  0  0  0  0
 24 10  1  0  0  0  0
 26 11  1  0  0  0  0
 28 12  1  0  0  0  0
 30 12  1  0  0  0  0
M  END
