1,2,3
 OpenBabel05122313063D

 16 15  0  0  0  0  0  0  0  0999 V2000
    1.5484    2.1095    0.3915 S   0  0  0  0  0  1  0  0  0  0  0  0
    1.5336   -2.1869    0.3643 S   0  0  0  0  0  1  0  0  0  0  0  0
    3.5066   -0.0496   -0.5458 N   0  0  0  0  0  0  0  0  0  0  0  0
    3.7214   -0.4356   -1.4768 H   0  0  0  0  0  0  0  0  0  0  0  0
    3.3977    2.1646    0.5894 C   0  0  0  0  0  0  0  0  0  0  0  0
    3.7290    3.2188    0.5003 H   0  0  0  0  0  0  0  0  0  0  0  0
    3.6657    1.8224    1.6113 H   0  0  0  0  0  0  0  0  0  0  0  0
    4.0816    1.3265   -0.4751 C   0  0  0  0  0  0  0  0  0  0  0  0
    5.1803    1.2635   -0.2994 H   0  0  0  0  0  0  0  0  0  0  0  0
    3.9123    1.7886   -1.4677 H   0  0  0  0  0  0  0  0  0  0  0  0
    4.0433   -1.0075    0.4601 C   0  0  0  0  0  0  0  0  0  0  0  0
    3.8142   -0.6031    1.4672 H   0  0  0  0  0  0  0  0  0  0  0  0
    5.1510   -1.0747    0.3543 H   0  0  0  0  0  0  0  0  0  0  0  0
    3.3775   -2.3619    0.2831 C   0  0  0  0  0  0  0  0  0  0  0  0
    3.6973   -3.0521    1.0894 H   0  0  0  0  0  0  0  0  0  0  0  0
    3.6742   -2.8211   -0.6858 H   0  0  0  0  0  0  0  0  0  0  0  0
  1  5  1  0  0  0  0
  3  8  1  0  0  0  0
  3 11  1  0  0  0  0
  4  3  1  0  0  0  0
  5  7  1  0  0  0  0
  6  5  1  0  0  0  0
  8  9  1  0  0  0  0
  8  5  1  0  0  0  0
 10  8  1  0  0  0  0
 11 12  1  0  0  0  0
 13 11  1  0  0  0  0
 14  2  1  0  0  0  0
 14 11  1  0  0  0  0
 14 15  1  0  0  0  0
 16 14  1  0  0  0  0
M  END
