1,2,5
 OpenBabel05122313063D

 75 76  0  0  0  0  0  0  0  0999 V2000
   -2.2411   -1.3995    0.4994 S   0  0  1  0  0  3  0  0  0  0  0  0
    2.2320   -1.4356   -0.4848 S   0  0  1  0  0  3  0  0  0  0  0  0
   -3.3852   -2.1999   -0.0689 O   0  0  0  0  0  1  0  0  0  0  0  0
    3.3609   -2.2458    0.0997 O   0  0  0  0  0  1  0  0  0  0  0  0
    0.0081    0.4225   -0.0039 N   0  0  0  0  0  2  0  0  0  0  0  0
   -1.2034    1.0596   -0.1973 C   0  0  0  0  0  0  0  0  0  0  0  0
   -2.4065    0.3225    0.0038 C   0  0  0  0  0  0  0  0  0  0  0  0
   -3.6809    0.8264   -0.2557 C   0  0  0  0  0  0  0  0  0  0  0  0
   -4.5352    0.1426   -0.1383 H   0  0  0  0  0  0  0  0  0  0  0  0
   -3.8563    2.1527   -0.6977 C   0  0  0  0  0  0  0  0  0  0  0  0
   -2.6774    2.9035   -0.8965 C   0  0  0  0  0  0  0  0  0  0  0  0
   -2.7459    3.9321   -1.2771 H   0  0  0  0  0  0  0  0  0  0  0  0
   -1.3953    2.3868   -0.6674 C   0  0  0  0  0  0  0  0  0  0  0  0
   -0.5232    3.0074   -0.9089 H   0  0  0  0  0  0  0  0  0  0  0  0
   -5.2700    2.6909   -0.9670 C   0  0  0  0  0  0  0  0  0  0  0  0
   -5.2489    4.1627   -1.4134 C   0  0  0  0  0  0  0  0  0  0  0  0
   -4.7903    4.8194   -0.6465 H   0  0  0  0  0  0  0  0  0  0  0  0
   -6.2849    4.5191   -1.5820 H   0  0  0  0  0  0  0  0  0  0  0  0
   -4.6928    4.2982   -2.3630 H   0  0  0  0  0  0  0  0  0  0  0  0
   -5.9328    1.8475   -2.0801 C   0  0  0  0  0  0  0  0  0  0  0  0
   -6.9612    2.2118   -2.2833 H   0  0  0  0  0  0  0  0  0  0  0  0
   -6.0041    0.7780   -1.7985 H   0  0  0  0  0  0  0  0  0  0  0  0
   -5.3516    1.9090   -3.0221 H   0  0  0  0  0  0  0  0  0  0  0  0
   -6.1072    2.5831    0.3281 C   0  0  0  0  0  0  0  0  0  0  0  0
   -5.6536    3.1814    1.1444 H   0  0  0  0  0  0  0  0  0  0  0  0
   -6.1855    1.5349    0.6798 H   0  0  0  0  0  0  0  0  0  0  0  0
   -7.1379    2.9571    0.1578 H   0  0  0  0  0  0  0  0  0  0  0  0
   -2.4309   -1.4128    2.3994 C   0  0  0  0  0  0  0  0  0  0  0  0
   -3.8328   -0.8905    2.7016 C   0  0  0  0  0  0  0  0  0  0  0  0
   -4.0396   -1.0282    3.7830 H   0  0  0  0  0  0  0  0  0  0  0  0
   -4.5932   -1.4604    2.1316 H   0  0  0  0  0  0  0  0  0  0  0  0
   -3.9345    0.1877    2.4684 H   0  0  0  0  0  0  0  0  0  0  0  0
   -2.2756   -2.8915    2.7624 C   0  0  0  0  0  0  0  0  0  0  0  0
   -1.2915   -3.2888    2.4416 H   0  0  0  0  0  0  0  0  0  0  0  0
   -3.0642   -3.5014    2.2812 H   0  0  0  0  0  0  0  0  0  0  0  0
   -2.3660   -3.0001    3.8628 H   0  0  0  0  0  0  0  0  0  0  0  0
   -1.3243   -0.5430    2.9860 C   0  0  0  0  0  0  0  0  0  0  0  0
   -1.4042   -0.5681    4.0926 H   0  0  0  0  0  0  0  0  0  0  0  0
   -1.4092    0.5131    2.6614 H   0  0  0  0  0  0  0  0  0  0  0  0
   -0.3185   -0.9198    2.7087 H   0  0  0  0  0  0  0  0  0  0  0  0
    1.2293    1.0429    0.1740 C   0  0  0  0  0  0  0  0  0  0  0  0
    2.4213    0.2897   -0.0160 C   0  0  0  0  0  0  0  0  0  0  0  0
    3.7077    0.7804    0.2346 C   0  0  0  0  0  0  0  0  0  0  0  0
    4.5489    0.0830    0.1244 H   0  0  0  0  0  0  0  0  0  0  0  0
    3.8972    2.1060    0.6586 C   0  0  0  0  0  0  0  0  0  0  0  0
    2.7234    2.8756    0.8472 C   0  0  0  0  0  0  0  0  0  0  0  0
    2.8109    3.9090    1.2174 H   0  0  0  0  0  0  0  0  0  0  0  0
    1.4375    2.3780    0.6246 C   0  0  0  0  0  0  0  0  0  0  0  0
    0.5726    3.0124    0.8557 H   0  0  0  0  0  0  0  0  0  0  0  0
    5.2831    2.7038    0.9440 C   0  0  0  0  0  0  0  0  0  0  0  0
    5.3603    3.1373    2.4257 C   0  0  0  0  0  0  0  0  0  0  0  0
    6.3534    3.5791    2.6499 H   0  0  0  0  0  0  0  0  0  0  0  0
    5.2080    2.2703    3.0995 H   0  0  0  0  0  0  0  0  0  0  0  0
    4.5920    3.8969    2.6732 H   0  0  0  0  0  0  0  0  0  0  0  0
    6.4076    1.6903    0.6717 C   0  0  0  0  0  0  0  0  0  0  0  0
    6.4097    1.3521   -0.3844 H   0  0  0  0  0  0  0  0  0  0  0  0
    6.3228    0.7951    1.3200 H   0  0  0  0  0  0  0  0  0  0  0  0
    7.3924    2.1567    0.8747 H   0  0  0  0  0  0  0  0  0  0  0  0
    5.5000    3.9342    0.0338 C   0  0  0  0  0  0  0  0  0  0  0  0
    4.7318    4.7144    0.2061 H   0  0  0  0  0  0  0  0  0  0  0  0
    5.4561    3.6477   -1.0365 H   0  0  0  0  0  0  0  0  0  0  0  0
    6.4924    4.3910    0.2283 H   0  0  0  0  0  0  0  0  0  0  0  0
    2.4241   -1.4871   -2.3838 C   0  0  0  0  0  0  0  0  0  0  0  0
    1.3273   -0.6162   -2.9870 C   0  0  0  0  0  0  0  0  0  0  0  0
    1.4215    0.4441   -2.6787 H   0  0  0  0  0  0  0  0  0  0  0  0
    0.3173   -0.9792   -2.7061 H   0  0  0  0  0  0  0  0  0  0  0  0
    1.4091   -0.6594   -4.0929 H   0  0  0  0  0  0  0  0  0  0  0  0
    3.8317   -0.9852   -2.6936 C   0  0  0  0  0  0  0  0  0  0  0  0
    4.5854   -1.5530   -2.1128 H   0  0  0  0  0  0  0  0  0  0  0  0
    3.9439    0.0957   -2.4783 H   0  0  0  0  0  0  0  0  0  0  0  0
    4.0380   -1.1436   -3.7723 H   0  0  0  0  0  0  0  0  0  0  0  0
    2.2536   -2.9703   -2.7206 C   0  0  0  0  0  0  0  0  0  0  0  0
    2.3444   -3.0994   -3.8188 H   0  0  0  0  0  0  0  0  0  0  0  0
    1.2651   -3.3515   -2.3943 H   0  0  0  0  0  0  0  0  0  0  0  0
    3.0352   -3.5795   -2.2274 H   0  0  0  0  0  0  0  0  0  0  0  0
  1  3  1  6  0  0  0
  1 28  1  0  0  0  0
  2 42  1  0  0  0  0
  2  4  1  1  0  0  0
  5 41  1  0  0  0  0
  6  5  1  0  0  0  0
  6  7  1  0  0  0  0
  7  1  1  0  0  0  0
  8  9  1  0  0  0  0
  8  7  2  0  0  0  0
 10  8  1  0  0  0  0
 11 10  2  0  0  0  0
 11 13  1  0  0  0  0
 12 11  1  0  0  0  0
 13  6  2  0  0  0  0
 14 13  1  0  0  0  0
 15 10  1  0  0  0  0
 15 24  1  0  0  0  0
 16 15  1  0  0  0  0
 16 17  1  0  0  0  0
 18 16  1  0  0  0  0
 19 16  1  0  0  0  0
 20 22  1  0  0  0  0
 20 15  1  0  0  0  0
 21 20  1  0  0  0  0
 23 20  1  0  0  0  0
 24 26  1  0  0  0  0
 24 25  1  0  0  0  0
 27 24  1  0  0  0  0
 28 29  1  0  0  0  0
 28 33  1  0  0  0  0
 28 37  1  0  0  0  0
 29 30  1  0  0  0  0
 31 29  1  0  0  0  0
 32 29  1  0  0  0  0
 33 36  1  0  0  0  0
 34 33  1  0  0  0  0
 35 33  1  0  0  0  0
 37 38  1  0  0  0  0
 39 37  1  0  0  0  0
 40 37  1  0  0  0  0
 41 48  1  0  0  0  0
 42 41  2  0  0  0  0
 42 43  1  0  0  0  0
 43 45  2  0  0  0  0
 44 43  1  0  0  0  0
 45 46  1  0  0  0  0
 45 50  1  0  0  0  0
 46 47  1  0  0  0  0
 48 46  2  0  0  0  0
 48 49  1  0  0  0  0
 50 51  1  0  0  0  0
 51 52  1  0  0  0  0
 51 54  1  0  0  0  0
 51 53  1  0  0  0  0
 55 58  1  0  0  0  0
 55 50  1  0  0  0  0
 55 57  1  0  0  0  0
 56 55  1  0  0  0  0
 59 60  1  0  0  0  0
 59 62  1  0  0  0  0
 59 50  1  0  0  0  0
 61 59  1  0  0  0  0
 63  2  1  0  0  0  0
 64 66  1  0  0  0  0
 64 65  1  0  0  0  0
 64 63  1  0  0  0  0
 67 64  1  0  0  0  0
 68 70  1  0  0  0  0
 68 63  1  0  0  0  0
 68 69  1  0  0  0  0
 71 68  1  0  0  0  0
 72 74  1  0  0  0  0
 72 63  1  0  0  0  0
 72 75  1  0  0  0  0
 73 72  1  0  0  0  0
M  END
