1,2,4
 OpenBabel05122313063D

 42 43  0  0  1  0  0  0  0  0999 V2000
   -2.2128   -0.9772   -0.5774 S   0  0  0  0  0  1  0  0  0  0  0  0
    1.5907   -2.7182    0.3442 S   0  0  0  0  0  1  0  0  0  0  0  0
   -1.1560    1.4885   -0.0580 N   0  0  0  0  0  2  0  0  0  0  0  0
    0.6252   -0.0440    0.3200 N   0  0  0  0  0  2  0  0  0  0  0  0
   -3.2904    1.1164    0.7309 N   0  0  0  0  0  0  0  0  0  0  0  0
   -2.1838    0.6630    0.0986 C   0  0  1  0  0  3  0  0  0  0  0  0
    0.1312    1.1718   -0.0996 C   0  0  1  0  0  3  0  0  0  0  0  0
    1.0595    2.1985   -0.6353 C   0  0  0  0  0  0  0  0  0  0  0  0
    0.6780    3.5580   -0.6587 C   0  0  0  0  0  0  0  0  0  0  0  0
   -0.2939    3.8405   -0.2293 H   0  0  0  0  0  0  0  0  0  0  0  0
    1.5312    4.5212   -1.2098 C   0  0  0  0  0  0  0  0  0  0  0  0
    1.2317    5.5802   -1.2141 H   0  0  0  0  0  0  0  0  0  0  0  0
    2.7673    4.1365   -1.7557 C   0  0  0  0  0  0  0  0  0  0  0  0
    3.4372    4.8938   -2.1906 H   0  0  0  0  0  0  0  0  0  0  0  0
    3.1450    2.7828   -1.7520 C   0  0  0  0  0  0  0  0  0  0  0  0
    4.1043    2.4758   -2.1946 H   0  0  0  0  0  0  0  0  0  0  0  0
    2.3012    1.8172   -1.1928 C   0  0  0  0  0  0  0  0  0  0  0  0
    2.5883    0.7564   -1.2071 H   0  0  0  0  0  0  0  0  0  0  0  0
   -3.2934    2.4549    1.3367 C   0  0  0  0  0  0  0  0  0  0  0  0
   -2.2760    2.6626    1.7186 H   0  0  0  0  0  0  0  0  0  0  0  0
   -3.9711    2.4149    2.2143 H   0  0  0  0  0  0  0  0  0  0  0  0
   -3.7294    3.5417    0.3548 C   0  0  0  0  0  0  0  0  0  0  0  0
   -3.7392    4.5303    0.8559 H   0  0  0  0  0  0  0  0  0  0  0  0
   -4.7483    3.3500   -0.0382 H   0  0  0  0  0  0  0  0  0  0  0  0
   -3.0289    3.5899   -0.5015 H   0  0  0  0  0  0  0  0  0  0  0  0
   -4.5220    0.3256    0.8303 C   0  0  0  0  0  0  0  0  0  0  0  0
   -5.3690    1.0425    0.8083 H   0  0  0  0  0  0  0  0  0  0  0  0
   -4.6111   -0.3013   -0.0788 H   0  0  0  0  0  0  0  0  0  0  0  0
   -4.5709   -0.5429    2.0864 C   0  0  0  0  0  0  0  0  0  0  0  0
   -5.5314   -1.0931    2.1338 H   0  0  0  0  0  0  0  0  0  0  0  0
   -4.4811    0.0683    3.0072 H   0  0  0  0  0  0  0  0  0  0  0  0
   -3.7482   -1.2845    2.0740 H   0  0  0  0  0  0  0  0  0  0  0  0
    1.7380   -0.1385    1.1764 C   0  0  0  0  0  0  0  0  0  0  0  0
    2.2083    0.9177    1.9854 C   0  0  0  0  0  0  0  0  0  0  0  0
    1.7058    1.8951    1.9589 H   0  0  0  0  0  0  0  0  0  0  0  0
    3.3183    0.7155    2.8149 C   0  0  0  0  0  0  0  0  0  0  0  0
    3.6886    1.5458    3.4344 H   0  0  0  0  0  0  0  0  0  0  0  0
    3.9509   -0.5406    2.8672 C   0  0  0  0  0  0  0  0  0  0  0  0
    4.8207   -0.6941    3.5231 H   0  0  0  0  0  0  0  0  0  0  0  0
    3.4599   -1.6073    2.1011 C   0  0  0  0  0  0  0  0  0  0  0  0
    3.9272   -2.6021    2.1549 H   0  0  0  0  0  0  0  0  0  0  0  0
    2.3487   -1.4114    1.2621 C   0  0  0  0  0  0  0  0  0  0  0  0
  2 42  1  0  0  0  0
  3  6  1  0  0  0  0
  4 33  1  0  0  0  0
  5 26  1  0  0  0  0
  5 19  1  0  0  0  0
  6  1  1  6  0  0  0
  6  5  1  0  0  0  0
  7  3  1  6  0  0  0
  7  4  1  0  0  0  0
  8  7  1  0  0  0  0
  9  8  1  0  0  0  0
  9 10  1  0  0  0  0
 11  9  2  0  0  0  0
 12 11  1  0  0  0  0
 13 15  2  0  0  0  0
 13 11  1  0  0  0  0
 14 13  1  0  0  0  0
 15 17  1  0  0  0  0
 16 15  1  0  0  0  0
 17  8  2  0  0  0  0
 18 17  1  0  0  0  0
 19 20  1  0  0  0  0
 19 21  1  0  0  0  0
 22 23  1  0  0  0  0
 22 19  1  0  0  0  0
 24 22  1  0  0  0  0
 25 22  1  0  0  0  0
 26 29  1  0  0  0  0
 27 26  1  0  0  0  0
 28 26  1  0  0  0  0
 29 30  1  0  0  0  0
 29 31  1  0  0  0  0
 32 29  1  0  0  0  0
 33 42  2  0  0  0  0
 33 34  1  0  0  0  0
 34 36  2  0  0  0  0
 35 34  1  0  0  0  0
 36 38  1  0  0  0  0
 36 37  1  0  0  0  0
 38 39  1  0  0  0  0
 40 41  1  0  0  0  0
 40 38  2  0  0  0  0
 42 40  1  0  0  0  0
M  END
