1,3,6
 OpenBabel05122313063D

 31 31  0  0  1  0  0  0  0  0999 V2000
   -2.4952   -1.2004   -0.7032 S   0  0  0  0  0  1  0  0  0  0  0  0
   -4.1029    1.3053   -1.1038 S   0  0  0  0  0  0  0  0  0  0  0  0
    1.7198   -1.5597    0.0406 S   0  0  0  0  0  1  0  0  0  0  0  0
    3.8941    0.2229   -1.0717 S   0  0  0  0  0  0  0  0  0  0  0  0
   -1.6541    1.2457    0.0184 N   0  0  0  0  0  0  0  0  0  0  0  0
   -0.5870    0.5039    0.4650 N   0  0  0  0  0  2  0  0  0  0  0  0
    2.3294    2.3595   -0.2635 N   0  0  0  0  0  0  0  0  0  0  0  0
    1.7552    1.1577    0.1024 N   0  0  0  0  0  0  0  0  0  0  0  0
   -2.6204    0.5632   -0.5121 C   0  0  0  0  0  0  0  0  0  0  0  0
   -3.7562    3.0555   -0.7649 C   0  0  0  0  0  0  0  0  0  0  0  0
   -4.6599    3.6131   -1.0760 H   0  0  0  0  0  0  0  0  0  0  0  0
   -2.8808    3.4012   -1.3480 H   0  0  0  0  0  0  0  0  0  0  0  0
   -3.5670    3.2103    0.3146 H   0  0  0  0  0  0  0  0  0  0  0  0
    0.5227    1.3158    0.9780 C   0  0  2  0  0  0  0  0  0  0  0  0
    0.8931    0.9274    2.4142 C   0  0  0  0  0  0  0  0  0  0  0  0
    1.7130    1.5742    2.7854 H   0  0  0  0  0  0  0  0  0  0  0  0
    1.2104   -0.1287    2.4823 H   0  0  0  0  0  0  0  0  0  0  0  0
    0.0016    1.0596    3.0573 H   0  0  0  0  0  0  0  0  0  0  0  0
    0.3173    2.8437    0.8444 C   0  0  0  0  0  0  0  0  0  0  0  0
   -0.5788    3.0345    0.2148 H   0  0  0  0  0  0  0  0  0  0  0  0
    0.1403    3.3319    1.8226 H   0  0  0  0  0  0  0  0  0  0  0  0
    1.5665    3.3185    0.1660 C   0  0  0  0  0  0  0  0  0  0  0  0
    1.9062    4.7479   -0.0686 C   0  0  0  0  0  0  0  0  0  0  0  0
    2.8565    4.8374   -0.6252 H   0  0  0  0  0  0  0  0  0  0  0  0
    1.9931    5.2914    0.8958 H   0  0  0  0  0  0  0  0  0  0  0  0
    1.0968    5.2484   -0.6411 H   0  0  0  0  0  0  0  0  0  0  0  0
    2.3650    0.0141   -0.2324 C   0  0  1  0  0  3  0  0  0  0  0  0
    4.3694   -1.4971   -1.4232 C   0  0  0  0  0  0  0  0  0  0  0  0
    5.3100   -1.4058   -1.9998 H   0  0  0  0  0  0  0  0  0  0  0  0
    3.5996   -2.0075   -2.0327 H   0  0  0  0  0  0  0  0  0  0  0  0
    4.5551   -2.0679   -0.4943 H   0  0  0  0  0  0  0  0  0  0  0  0
  1  9  1  0  0  0  0
  2 10  1  0  0  0  0
  2  9  1  0  0  0  0
  4 27  1  0  0  0  0
  5  6  1  0  0  0  0
  7  8  1  0  0  0  0
  7 22  2  0  0  0  0
  8 14  1  0  0  0  0
  9  5  2  0  0  0  0
 10 13  1  0  0  0  0
 11 10  1  0  0  0  0
 12 10  1  0  0  0  0
 14  6  1  6  0  0  0
 14 15  1  0  0  0  0
 15 17  1  0  0  0  0
 15 16  1  0  0  0  0
 15 18  1  0  0  0  0
 19 14  1  0  0  0  0
 19 21  1  0  0  0  0
 20 19  1  0  0  0  0
 22 19  1  0  0  0  0
 23 22  1  0  0  0  0
 23 25  1  0  0  0  0
 24 23  1  0  0  0  0
 26 23  1  0  0  0  0
 27  3  1  6  0  0  0
 27  8  1  0  0  0  0
 28  4  1  0  0  0  0
 28 31  1  0  0  0  0
 29 28  1  0  0  0  0
 30 28  1  0  0  0  0
M  END
