1,2,4
 OpenBabel05122313063D

 77 80  0  0  0  0  0  0  0  0999 V2000
    1.3281   -0.4409   -0.8303 S   0  0  1  0  0  3  0  0  0  0  0  0
   -1.8385   -0.7066   -0.8083 S   0  0  0  0  0  0  0  0  0  0  0  0
    0.7746    0.1913   -2.0876 O   0  0  0  0  0  1  0  0  0  0  0  0
   -0.1636    0.8714    1.2620 N   0  0  0  0  0  0  0  0  0  0  0  0
   -0.4774    0.7426    2.2466 H   0  0  0  0  0  0  0  0  0  0  0  0
    2.7575   -1.4322   -1.3103 C   0  0  0  0  0  0  0  0  0  0  0  0
    3.2564   -1.2085   -2.6008 C   0  0  0  0  0  0  0  0  0  0  0  0
    2.7672   -0.4651   -3.2474 H   0  0  0  0  0  0  0  0  0  0  0  0
    4.3607   -1.9570   -3.0305 C   0  0  0  0  0  0  0  0  0  0  0  0
    4.7681   -1.7890   -4.0399 H   0  0  0  0  0  0  0  0  0  0  0  0
    4.9503   -2.9293   -2.1965 C   0  0  0  0  0  0  0  0  0  0  0  0
    4.4018   -3.1351   -0.9107 C   0  0  0  0  0  0  0  0  0  0  0  0
    4.8416   -3.8998   -0.2512 H   0  0  0  0  0  0  0  0  0  0  0  0
    3.3025   -2.4000   -0.4531 C   0  0  0  0  0  0  0  0  0  0  0  0
    2.8723   -2.5522    0.5499 H   0  0  0  0  0  0  0  0  0  0  0  0
    6.1189   -3.7551   -2.6683 C   0  0  0  0  0  0  0  0  0  0  0  0
    6.9222   -3.7926   -1.9048 H   0  0  0  0  0  0  0  0  0  0  0  0
    6.5504   -3.3594   -3.6077 H   0  0  0  0  0  0  0  0  0  0  0  0
    5.8083   -4.8048   -2.8569 H   0  0  0  0  0  0  0  0  0  0  0  0
    2.0480    0.8890    0.1902 C   0  0  0  0  0  0  0  0  0  0  0  0
    3.3526    1.3569    0.0305 C   0  0  0  0  0  0  0  0  0  0  0  0
    3.9808    0.9037   -0.7476 H   0  0  0  0  0  0  0  0  0  0  0  0
    3.8659    2.3434    0.8969 C   0  0  0  0  0  0  0  0  0  0  0  0
    3.0133    2.8228    1.9152 C   0  0  0  0  0  0  0  0  0  0  0  0
    3.3879    3.5667    2.6338 H   0  0  0  0  0  0  0  0  0  0  0  0
    1.6951    2.3660    2.0600 C   0  0  0  0  0  0  0  0  0  0  0  0
    1.0672    2.7394    2.8828 H   0  0  0  0  0  0  0  0  0  0  0  0
    1.1923    1.4023    1.1790 C   0  0  0  0  0  0  0  0  0  0  0  0
    5.3100    2.8589    0.7881 C   0  0  0  0  0  0  0  0  0  0  0  0
    6.0617    2.5251    2.0972 C   0  0  0  0  0  0  0  0  0  0  0  0
    5.5900    3.0033    2.9784 H   0  0  0  0  0  0  0  0  0  0  0  0
    7.1097    2.8844    2.0403 H   0  0  0  0  0  0  0  0  0  0  0  0
    6.0795    1.4313    2.2757 H   0  0  0  0  0  0  0  0  0  0  0  0
    6.0630    2.2121   -0.3874 C   0  0  0  0  0  0  0  0  0  0  0  0
    5.5736    2.4259   -1.3590 H   0  0  0  0  0  0  0  0  0  0  0  0
    6.1417    1.1122   -0.2739 H   0  0  0  0  0  0  0  0  0  0  0  0
    7.0940    2.6154   -0.4376 H   0  0  0  0  0  0  0  0  0  0  0  0
    5.2861    4.3895    0.5754 C   0  0  0  0  0  0  0  0  0  0  0  0
    4.7498    4.6528   -0.3587 H   0  0  0  0  0  0  0  0  0  0  0  0
    6.3207    4.7829    0.5014 H   0  0  0  0  0  0  0  0  0  0  0  0
    4.7869    4.9158    1.4132 H   0  0  0  0  0  0  0  0  0  0  0  0
   -1.1703    1.6511    0.5230 C   0  0  0  0  0  0  0  0  0  0  0  0
   -1.3106    3.0284    0.7434 C   0  0  0  0  0  0  0  0  0  0  0  0
   -0.6432    3.5340    1.4549 H   0  0  0  0  0  0  0  0  0  0  0  0
   -2.2910    3.7698    0.0705 C   0  0  0  0  0  0  0  0  0  0  0  0
   -2.3695    4.8436    0.2846 H   0  0  0  0  0  0  0  0  0  0  0  0
   -3.1597    3.1650   -0.8603 C   0  0  0  0  0  0  0  0  0  0  0  0
   -2.9903    1.7872   -1.0951 C   0  0  0  0  0  0  0  0  0  0  0  0
   -3.6288    1.2652   -1.8228 H   0  0  0  0  0  0  0  0  0  0  0  0
   -2.0247    1.0348   -0.4120 C   0  0  0  0  0  0  0  0  0  0  0  0
   -4.2614    3.9316   -1.6090 C   0  0  0  0  0  0  0  0  0  0  0  0
   -4.2725    5.4262   -1.2459 C   0  0  0  0  0  0  0  0  0  0  0  0
   -5.0789    5.9404   -1.8057 H   0  0  0  0  0  0  0  0  0  0  0  0
   -3.3165    5.9223   -1.5091 H   0  0  0  0  0  0  0  0  0  0  0  0
   -4.4634    5.5886   -0.1658 H   0  0  0  0  0  0  0  0  0  0  0  0
   -5.6314    3.3212   -1.2320 C   0  0  0  0  0  0  0  0  0  0  0  0
   -6.4475    3.8465   -1.7693 H   0  0  0  0  0  0  0  0  0  0  0  0
   -5.8207    3.4135   -0.1433 H   0  0  0  0  0  0  0  0  0  0  0  0
   -5.6917    2.2462   -1.4941 H   0  0  0  0  0  0  0  0  0  0  0  0
   -4.0320    3.7967   -3.1315 C   0  0  0  0  0  0  0  0  0  0  0  0
   -4.8214    4.3430   -3.6871 H   0  0  0  0  0  0  0  0  0  0  0  0
   -4.0595    2.7402   -3.4636 H   0  0  0  0  0  0  0  0  0  0  0  0
   -3.0491    4.2174   -3.4243 H   0  0  0  0  0  0  0  0  0  0  0  0
   -3.3968   -1.4169   -0.2680 C   0  0  0  0  0  0  0  0  0  0  0  0
   -4.3341   -0.7559    0.5392 C   0  0  0  0  0  0  0  0  0  0  0  0
   -4.1384    0.2596    0.9075 H   0  0  0  0  0  0  0  0  0  0  0  0
   -5.5206   -1.4163    0.8828 C   0  0  0  0  0  0  0  0  0  0  0  0
   -6.2585   -0.8969    1.5143 H   0  0  0  0  0  0  0  0  0  0  0  0
   -5.7771   -2.7369    0.4624 C   0  0  0  0  0  0  0  0  0  0  0  0
   -4.8038   -3.3830   -0.3285 C   0  0  0  0  0  0  0  0  0  0  0  0
   -4.9744   -4.4189   -0.6610 H   0  0  0  0  0  0  0  0  0  0  0  0
   -3.6212   -2.7357   -0.7011 C   0  0  0  0  0  0  0  0  0  0  0  0
   -2.8538   -3.2567   -1.2923 H   0  0  0  0  0  0  0  0  0  0  0  0
   -7.0356   -3.4566    0.8735 C   0  0  0  0  0  0  0  0  0  0  0  0
   -7.8068   -2.7552    1.2467 H   0  0  0  0  0  0  0  0  0  0  0  0
   -6.8249   -4.1830    1.6874 H   0  0  0  0  0  0  0  0  0  0  0  0
   -7.4690   -4.0337    0.0320 H   0  0  0  0  0  0  0  0  0  0  0  0
  1  3  1  6  0  0  0
  1 20  1  0  0  0  0
  2 50  1  0  0  0  0
  2 64  1  0  0  0  0
  4  5  1  0  0  0  0
  6  1  1  0  0  0  0
  6 14  1  0  0  0  0
  7  6  2  0  0  0  0
  8  7  1  0  0  0  0
  9  7  1  0  0  0  0
  9 11  2  0  0  0  0
 10  9  1  0  0  0  0
 11 12  1  0  0  0  0
 12 14  2  0  0  0  0
 12 13  1  0  0  0  0
 14 15  1  0  0  0  0
 16 11  1  0  0  0  0
 16 17  1  0  0  0  0
 18 16  1  0  0  0  0
 19 16  1  0  0  0  0
 20 28  1  0  0  0  0
 21 20  2  0  0  0  0
 21 23  1  0  0  0  0
 22 21  1  0  0  0  0
 23 24  2  0  0  0  0
 24 26  1  0  0  0  0
 24 25  1  0  0  0  0
 26 27  1  0  0  0  0
 28  4  1  0  0  0  0
 28 26  2  0  0  0  0
 29 23  1  0  0  0  0
 29 30  1  0  0  0  0
 30 33  1  0  0  0  0
 30 31  1  0  0  0  0
 32 30  1  0  0  0  0
 34 36  1  0  0  0  0
 34 29  1  0  0  0  0
 35 34  1  0  0  0  0
 37 34  1  0  0  0  0
 38 29  1  0  0  0  0
 38 41  1  0  0  0  0
 39 38  1  0  0  0  0
 40 38  1  0  0  0  0
 42 43  1  0  0  0  0
 42  4  1  0  0  0  0
 43 44  1  0  0  0  0
 45 46  1  0  0  0  0
 45 43  2  0  0  0  0
 47 45  1  0  0  0  0
 48 47  2  0  0  0  0
 48 50  1  0  0  0  0
 49 48  1  0  0  0  0
 50 42  2  0  0  0  0
 51 52  1  0  0  0  0
 51 56  1  0  0  0  0
 51 47  1  0  0  0  0
 52 55  1  0  0  0  0
 53 52  1  0  0  0  0
 54 52  1  0  0  0  0
 56 58  1  0  0  0  0
 57 56  1  0  0  0  0
 59 56  1  0  0  0  0
 60 51  1  0  0  0  0
 61 60  1  0  0  0  0
 62 60  1  0  0  0  0
 63 60  1  0  0  0  0
 64 65  1  0  0  0  0
 65 67  2  0  0  0  0
 65 66  1  0  0  0  0
 67 68  1  0  0  0  0
 69 74  1  0  0  0  0
 69 67  1  0  0  0  0
 70 69  2  0  0  0  0
 71 70  1  0  0  0  0
 72 70  1  0  0  0  0
 72 64  2  0  0  0  0
 73 72  1  0  0  0  0
 74 75  1  0  0  0  0
 74 76  1  0  0  0  0
 77 74  1  0  0  0  0
M  END
