1,7,9
 OpenBabel05122313063D

 53 56  0  0  0  0  0  0  0  0999 V2000
   -2.0601    2.0351    0.7505 S   0  0  0  0  0  1  0  0  0  0  0  0
   -2.3094    0.4179   -0.4162 P   0  0  0  0  0  4  0  0  0  0  0  0
   -1.1951    0.2924   -1.7101 N   0  0  0  0  0  0  0  0  0  0  0  0
   -1.5614    0.1347   -2.6527 H   0  0  0  0  0  0  0  0  0  0  0  0
    0.2061    0.1313   -1.6093 C   0  0  0  0  0  0  0  0  0  0  0  0
    0.8468   -0.2610   -2.5897 O   0  0  0  0  0  0  0  0  0  0  0  0
    0.7220    0.4195   -0.3779 N   0  0  0  0  0  2  0  0  0  0  0  0
    2.2991   -0.0046    0.0237 P   0  0  0  0  0  4  0  0  0  0  0  0
    2.2185    0.4007    2.0301 S   0  0  0  0  0  1  0  0  0  0  0  0
   -3.8886    0.4944   -1.3192 C   0  0  0  0  0  0  0  0  0  0  0  0
   -4.9167   -0.4421   -1.0952 C   0  0  0  0  0  0  0  0  0  0  0  0
   -4.7643   -1.2694   -0.3864 H   0  0  0  0  0  0  0  0  0  0  0  0
   -6.1340   -0.3130   -1.7808 C   0  0  0  0  0  0  0  0  0  0  0  0
   -6.9372   -1.0443   -1.6061 H   0  0  0  0  0  0  0  0  0  0  0  0
   -6.3276    0.7448   -2.6830 C   0  0  0  0  0  0  0  0  0  0  0  0
   -7.2841    0.8420   -3.2183 H   0  0  0  0  0  0  0  0  0  0  0  0
   -5.3053    1.6842   -2.8989 C   0  0  0  0  0  0  0  0  0  0  0  0
   -5.4600    2.5190   -3.5989 H   0  0  0  0  0  0  0  0  0  0  0  0
   -4.0877    1.5671   -2.2156 C   0  0  0  0  0  0  0  0  0  0  0  0
   -3.2926    2.3143   -2.3640 H   0  0  0  0  0  0  0  0  0  0  0  0
   -2.2358   -1.1639    0.4879 C   0  0  0  0  0  0  0  0  0  0  0  0
   -2.2442   -1.1859    1.8965 C   0  0  0  0  0  0  0  0  0  0  0  0
   -2.2731   -0.2421    2.4645 H   0  0  0  0  0  0  0  0  0  0  0  0
   -2.1605   -2.4172    2.5635 C   0  0  0  0  0  0  0  0  0  0  0  0
   -2.1453   -2.4338    3.6632 H   0  0  0  0  0  0  0  0  0  0  0  0
   -2.0779   -3.6151    1.8349 C   0  0  0  0  0  0  0  0  0  0  0  0
   -2.0067   -4.5767    2.3657 H   0  0  0  0  0  0  0  0  0  0  0  0
   -2.0754   -3.5894    0.4300 C   0  0  0  0  0  0  0  0  0  0  0  0
   -2.0029   -4.5262   -0.1430 H   0  0  0  0  0  0  0  0  0  0  0  0
   -2.1468   -2.3638   -0.2481 C   0  0  0  0  0  0  0  0  0  0  0  0
   -2.1122   -2.3387   -1.3479 H   0  0  0  0  0  0  0  0  0  0  0  0
    2.5632   -1.7725   -0.3130 C   0  0  0  0  0  0  0  0  0  0  0  0
    1.5306   -2.6514    0.0778 C   0  0  0  0  0  0  0  0  0  0  0  0
    0.6073   -2.2475    0.5204 H   0  0  0  0  0  0  0  0  0  0  0  0
    1.6894   -4.0301   -0.0990 C   0  0  0  0  0  0  0  0  0  0  0  0
    0.8796   -4.7121    0.2016 H   0  0  0  0  0  0  0  0  0  0  0  0
    2.8784   -4.5383   -0.6515 C   0  0  0  0  0  0  0  0  0  0  0  0
    3.0023   -5.6236   -0.7866 H   0  0  0  0  0  0  0  0  0  0  0  0
    3.9101   -3.6642   -1.0263 C   0  0  0  0  0  0  0  0  0  0  0  0
    4.8426   -4.0616   -1.4547 H   0  0  0  0  0  0  0  0  0  0  0  0
    3.7577   -2.2788   -0.8577 C   0  0  0  0  0  0  0  0  0  0  0  0
    4.5655   -1.5932   -1.1528 H   0  0  0  0  0  0  0  0  0  0  0  0
    3.5813    0.9444   -0.8528 C   0  0  0  0  0  0  0  0  0  0  0  0
    4.3960    1.8296   -0.1203 C   0  0  0  0  0  0  0  0  0  0  0  0
    4.2375    1.9308    0.9650 H   0  0  0  0  0  0  0  0  0  0  0  0
    5.3843    2.5720   -0.7832 C   0  0  0  0  0  0  0  0  0  0  0  0
    6.0212    3.2639   -0.2119 H   0  0  0  0  0  0  0  0  0  0  0  0
    5.5547    2.4355   -2.1698 C   0  0  0  0  0  0  0  0  0  0  0  0
    6.3298    3.0207   -2.6880 H   0  0  0  0  0  0  0  0  0  0  0  0
    4.7323    1.5602   -2.9000 C   0  0  0  0  0  0  0  0  0  0  0  0
    4.8584    1.4646   -3.9891 H   0  0  0  0  0  0  0  0  0  0  0  0
    3.7419    0.8108   -2.2505 C   0  0  0  0  0  0  0  0  0  0  0  0
    3.0656    0.1484   -2.8106 H   0  0  0  0  0  0  0  0  0  0  0  0
  2 21  1  0  0  0  0
  2  1  1  0  0  0  0
  3  5  1  0  0  0  0
  3  2  1  0  0  0  0
  4  3  1  0  0  0  0
  5  7  1  0  0  0  0
  6  5  2  0  0  0  0
  7  8  1  0  0  0  0
  8  9  1  0  0  0  0
 10 11  1  0  0  0  0
 10  2  1  0  0  0  0
 11 12  1  0  0  0  0
 13 14  1  0  0  0  0
 13 11  2  0  0  0  0
 15 13  1  0  0  0  0
 16 15  1  0  0  0  0
 17 15  2  0  0  0  0
 17 19  1  0  0  0  0
 18 17  1  0  0  0  0
 19 10  2  0  0  0  0
 20 19  1  0  0  0  0
 21 22  1  0  0  0  0
 22 23  1  0  0  0  0
 22 24  2  0  0  0  0
 24 25  1  0  0  0  0
 26 27  1  0  0  0  0
 26 24  1  0  0  0  0
 28 26  2  0  0  0  0
 29 28  1  0  0  0  0
 30 28  1  0  0  0  0
 30 21  2  0  0  0  0
 31 30  1  0  0  0  0
 32  8  1  0  0  0  0
 32 33  1  0  0  0  0
 33 34  1  0  0  0  0
 35 33  2  0  0  0  0
 35 36  1  0  0  0  0
 37 35  1  0  0  0  0
 38 37  1  0  0  0  0
 39 41  1  0  0  0  0
 39 37  2  0  0  0  0
 40 39  1  0  0  0  0
 41 32  2  0  0  0  0
 42 41  1  0  0  0  0
 43 44  1  0  0  0  0
 43  8  1  0  0  0  0
 44 45  1  0  0  0  0
 46 47  1  0  0  0  0
 46 44  2  0  0  0  0
 48 46  1  0  0  0  0
 49 48  1  0  0  0  0
 50 52  1  0  0  0  0
 50 48  2  0  0  0  0
 51 50  1  0  0  0  0
 52 43  2  0  0  0  0
 53 52  1  0  0  0  0
M  END
