1,2,3
 OpenBabel05122313063D

 28 28  0  0  0  0  0  0  0  0999 V2000
    1.6516   -2.4200    0.6966 S   0  0  0  0  0  1  0  0  0  0  0  0
   -0.5549    0.8589    1.1246 S   0  0  0  0  0  1  0  0  0  0  0  0
    2.3737    0.5227    0.3155 N   0  0  0  0  0  0  0  0  0  0  0  0
    4.9916    1.9948    0.0472 N   0  0  0  0  0  0  0  0  0  0  0  0
    3.2139   -1.6004    1.2783 C   0  0  0  0  0  0  0  0  0  0  0  0
    2.9673   -0.1220    1.5241 C   0  0  0  0  0  0  0  0  0  0  0  0
    1.9651    1.9438    0.5610 C   0  0  0  0  0  0  0  0  0  0  0  0
    0.8087    2.0570    1.5308 C   0  0  0  0  0  0  0  0  0  0  0  0
    3.3114    0.4349   -0.8529 C   0  0  0  0  0  0  0  0  0  0  0  0
    4.7519    0.8357   -0.5987 C   0  0  0  0  0  0  0  0  0  0  0  0
    5.7956    0.0147   -1.0719 C   0  0  0  0  0  0  0  0  0  0  0  0
    7.1228    0.4234   -0.8836 C   0  0  0  0  0  0  0  0  0  0  0  0
    7.3679    1.6296   -0.2135 C   0  0  0  0  0  0  0  0  0  0  0  0
    6.2645    2.3720    0.2371 C   0  0  0  0  0  0  0  0  0  0  0  0
    3.4980   -2.0972    2.2272 H   0  0  0  0  0  0  0  0  0  0  0  0
    4.0406   -1.7737    0.5591 H   0  0  0  0  0  0  0  0  0  0  0  0
    2.2364   -0.0074    2.3482 H   0  0  0  0  0  0  0  0  0  0  0  0
    3.9010    0.4105    1.8085 H   0  0  0  0  0  0  0  0  0  0  0  0
    2.8538    2.5221    0.8900 H   0  0  0  0  0  0  0  0  0  0  0  0
    1.6538    2.3382   -0.4266 H   0  0  0  0  0  0  0  0  0  0  0  0
    0.3891    3.0814    1.4823 H   0  0  0  0  0  0  0  0  0  0  0  0
    1.1128    1.8792    2.5832 H   0  0  0  0  0  0  0  0  0  0  0  0
    2.8743    1.0644   -1.6528 H   0  0  0  0  0  0  0  0  0  0  0  0
    3.2817   -0.6014   -1.2356 H   0  0  0  0  0  0  0  0  0  0  0  0
    5.5641   -0.9303   -1.5865 H   0  0  0  0  0  0  0  0  0  0  0  0
    7.9547   -0.1968   -1.2502 H   0  0  0  0  0  0  0  0  0  0  0  0
    8.3920    1.9904   -0.0380 H   0  0  0  0  0  0  0  0  0  0  0  0
    6.4161    3.3231    0.7776 H   0  0  0  0  0  0  0  0  0  0  0  0
  1  5  1  0  0  0  0
  2  8  1  0  0  0  0
  3  7  1  0  0  0  0
  3  6  1  0  0  0  0
  4 14  1  0  0  0  0
  5  6  1  0  0  0  0
  5 15  1  0  0  0  0
  6 18  1  0  0  0  0
  6 17  1  0  0  0  0
  7 19  1  0  0  0  0
  7  8  1  0  0  0  0
  8 22  1  0  0  0  0
  9 10  1  0  0  0  0
  9  3  1  0  0  0  0
 10  4  2  0  0  0  0
 11 12  2  0  0  0  0
 11 10  1  0  0  0  0
 12 13  1  0  0  0  0
 13 27  1  0  0  0  0
 13 14  2  0  0  0  0
 14 28  1  0  0  0  0
 16  5  1  0  0  0  0
 20  7  1  0  0  0  0
 21  8  1  0  0  0  0
 23  9  1  0  0  0  0
 24  9  1  0  0  0  0
 25 11  1  0  0  0  0
 26 12  1  0  0  0  0
M  END
