1,2,4
 OpenBabel05122313063D

 61 60  0  0  0  0  0  0  0  0999 V2000
   -0.6071    2.5534    0.8249 S   0  0  0  0  0  0  0  0  0  0  0  0
   -2.4687   -1.6970    0.5843 S   0  0  0  0  0  0  0  0  0  0  0  0
    3.4574   -2.0968   -0.3473 S   0  0  0  0  0  0  0  0  0  0  0  0
    0.1577   -0.3608    1.5155 N   0  0  0  0  0  0  0  0  0  0  0  0
    0.6778    0.7233    2.4046 C   0  0  0  0  0  0  0  0  0  0  0  0
    0.9607    1.9995    1.6311 C   0  0  0  0  0  0  0  0  0  0  0  0
   -0.0226    3.4698   -0.7410 C   0  0  0  0  0  0  0  0  0  0  0  0
    1.0897    4.4325   -0.3139 C   0  0  0  0  0  0  0  0  0  0  0  0
   -1.2709    4.2343   -1.1964 C   0  0  0  0  0  0  0  0  0  0  0  0
    0.4429    2.4655   -1.7931 C   0  0  0  0  0  0  0  0  0  0  0  0
   -0.3587   -1.5012    2.3355 C   0  0  0  0  0  0  0  0  0  0  0  0
   -1.0857   -2.5305    1.4873 C   0  0  0  0  0  0  0  0  0  0  0  0
   -2.5760   -2.6568   -1.0592 C   0  0  0  0  0  0  0  0  0  0  0  0
   -1.3595   -2.3625   -1.9342 C   0  0  0  0  0  0  0  0  0  0  0  0
   -3.8701   -2.1407   -1.6979 C   0  0  0  0  0  0  0  0  0  0  0  0
   -2.6931   -4.1407   -0.6963 C   0  0  0  0  0  0  0  0  0  0  0  0
    1.1731   -0.8001    0.4967 C   0  0  0  0  0  0  0  0  0  0  0  0
    2.4747   -1.4076    1.0328 C   0  0  0  0  0  0  0  0  0  0  0  0
    4.7303   -0.7664   -0.7064 C   0  0  0  0  0  0  0  0  0  0  0  0
    4.0619    0.5731   -1.0331 C   0  0  0  0  0  0  0  0  0  0  0  0
    5.4588   -1.3181   -1.9415 C   0  0  0  0  0  0  0  0  0  0  0  0
    5.6947   -0.6324    0.4764 C   0  0  0  0  0  0  0  0  0  0  0  0
   -0.0911    0.9088    3.1809 H   0  0  0  0  0  0  0  0  0  0  0  0
    1.5979    0.3808    2.9275 H   0  0  0  0  0  0  0  0  0  0  0  0
    1.7420    1.8540    0.8601 H   0  0  0  0  0  0  0  0  0  0  0  0
    1.3016    2.7994    2.3165 H   0  0  0  0  0  0  0  0  0  0  0  0
    0.7716    5.0896    0.5197 H   0  0  0  0  0  0  0  0  0  0  0  0
    2.0258    3.9126   -0.0305 H   0  0  0  0  0  0  0  0  0  0  0  0
    1.3298    5.0853   -1.1781 H   0  0  0  0  0  0  0  0  0  0  0  0
   -2.1061    3.5440   -1.4232 H   0  0  0  0  0  0  0  0  0  0  0  0
   -1.6036    4.9619   -0.4305 H   0  0  0  0  0  0  0  0  0  0  0  0
   -1.0193    4.7968   -2.1187 H   0  0  0  0  0  0  0  0  0  0  0  0
    0.7589    3.0190   -2.7014 H   0  0  0  0  0  0  0  0  0  0  0  0
    1.3179    1.8742   -1.4552 H   0  0  0  0  0  0  0  0  0  0  0  0
   -0.3788    1.7782   -2.0738 H   0  0  0  0  0  0  0  0  0  0  0  0
    0.4755   -1.9860    2.8893 H   0  0  0  0  0  0  0  0  0  0  0  0
   -1.0470   -1.0721    3.0906 H   0  0  0  0  0  0  0  0  0  0  0  0
   -1.5206   -3.3187    2.1319 H   0  0  0  0  0  0  0  0  0  0  0  0
   -0.4143   -3.0220    0.7572 H   0  0  0  0  0  0  0  0  0  0  0  0
   -1.2689   -1.2781   -2.1412 H   0  0  0  0  0  0  0  0  0  0  0  0
   -0.4115   -2.7319   -1.4923 H   0  0  0  0  0  0  0  0  0  0  0  0
   -1.4820   -2.8891   -2.9030 H   0  0  0  0  0  0  0  0  0  0  0  0
   -4.0206   -2.6736   -2.6589 H   0  0  0  0  0  0  0  0  0  0  0  0
   -4.7489   -2.3409   -1.0542 H   0  0  0  0  0  0  0  0  0  0  0  0
   -3.8188   -1.0536   -1.9001 H   0  0  0  0  0  0  0  0  0  0  0  0
   -2.8971   -4.7086   -1.6273 H   0  0  0  0  0  0  0  0  0  0  0  0
   -1.7620   -4.5549   -0.2620 H   0  0  0  0  0  0  0  0  0  0  0  0
   -3.5337   -4.3296    0.0002 H   0  0  0  0  0  0  0  0  0  0  0  0
    0.6754   -1.5273   -0.1679 H   0  0  0  0  0  0  0  0  0  0  0  0
    1.3967    0.0692   -0.1465 H   0  0  0  0  0  0  0  0  0  0  0  0
    2.2804   -2.2542    1.7221 H   0  0  0  0  0  0  0  0  0  0  0  0
    3.0950   -0.6766    1.5904 H   0  0  0  0  0  0  0  0  0  0  0  0
    3.3367    0.4711   -1.8645 H   0  0  0  0  0  0  0  0  0  0  0  0
    3.5406    0.9981   -0.1496 H   0  0  0  0  0  0  0  0  0  0  0  0
    4.8316    1.3144   -1.3343 H   0  0  0  0  0  0  0  0  0  0  0  0
    6.2729   -0.6231   -2.2318 H   0  0  0  0  0  0  0  0  0  0  0  0
    5.9151   -2.3061   -1.7320 H   0  0  0  0  0  0  0  0  0  0  0  0
    4.7717   -1.4247   -2.8042 H   0  0  0  0  0  0  0  0  0  0  0  0
    5.1842   -0.2738    1.3942 H   0  0  0  0  0  0  0  0  0  0  0  0
    6.1804   -1.5997    0.7076 H   0  0  0  0  0  0  0  0  0  0  0  0
    6.4869    0.1074    0.2360 H   0  0  0  0  0  0  0  0  0  0  0  0
  1  6  1  0  0  0  0
  2 12  1  0  0  0  0
  3 18  1  0  0  0  0
  4 11  1  0  0  0  0
  4  5  1  0  0  0  0
  5 24  1  0  0  0  0
  5 23  1  0  0  0  0
  6 26  1  0  0  0  0
  6  5  1  0  0  0  0
  7  8  1  0  0  0  0
  7  1  1  0  0  0  0
  8 28  1  0  0  0  0
  8 27  1  0  0  0  0
  9  7  1  0  0  0  0
  9 31  1  0  0  0  0
 10 34  1  0  0  0  0
 10  7  1  0  0  0  0
 11 36  1  0  0  0  0
 11 37  1  0  0  0  0
 12 38  1  0  0  0  0
 12 11  1  0  0  0  0
 13 16  1  0  0  0  0
 13  2  1  0  0  0  0
 14 41  1  0  0  0  0
 14 13  1  0  0  0  0
 15 13  1  0  0  0  0
 15 44  1  0  0  0  0
 16 47  1  0  0  0  0
 16 48  1  0  0  0  0
 17 18  1  0  0  0  0
 17  4  1  0  0  0  0
 18 52  1  0  0  0  0
 18 51  1  0  0  0  0
 19  3  1  0  0  0  0
 19 22  1  0  0  0  0
 20 19  1  0  0  0  0
 20 54  1  0  0  0  0
 21 57  1  0  0  0  0
 21 19  1  0  0  0  0
 22 60  1  0  0  0  0
 22 59  1  0  0  0  0
 25  6  1  0  0  0  0
 29  8  1  0  0  0  0
 30  9  1  0  0  0  0
 32  9  1  0  0  0  0
 33 10  1  0  0  0  0
 35 10  1  0  0  0  0
 39 12  1  0  0  0  0
 40 14  1  0  0  0  0
 42 14  1  0  0  0  0
 43 15  1  0  0  0  0
 45 15  1  0  0  0  0
 46 16  1  0  0  0  0
 49 17  1  0  0  0  0
 50 17  1  0  0  0  0
 53 20  1  0  0  0  0
 55 20  1  0  0  0  0
 56 21  1  0  0  0  0
 58 21  1  0  0  0  0
 61 22  1  0  0  0  0
M  END
