1,2,3
 OpenBabel05122313063D

 31 33  0  0  1  0  0  0  0  0999 V2000
    1.3780   -0.4004    2.1032 S   0  0  0  0  0  1  0  0  0  0  0  0
   -1.3776   -0.4010   -2.1031 S   0  0  0  0  0  1  0  0  0  0  0  0
    0.0002    1.3981   -0.0002 N   0  0  0  0  0  2  0  0  0  0  0  0
    2.6440    0.2242    1.0282 C   0  0  0  0  0  0  0  0  0  0  0  0
    3.9300   -0.3741    1.0806 C   0  0  0  0  0  0  0  0  0  0  0  0
    4.9754    0.0553    0.2597 C   0  0  0  0  0  0  0  0  0  0  0  0
    4.7767    1.1111   -0.6495 C   0  0  0  0  0  0  0  0  0  0  0  0
    3.5265    1.7310   -0.7059 C   0  0  0  0  0  0  0  0  0  0  0  0
    2.4519    1.3123    0.1164 C   0  0  0  0  0  0  0  0  0  0  0  0
    1.1822    2.0740    0.0475 C   0  0  2  0  0  3  0  0  0  0  0  0
    1.2040    3.4825    0.0440 C   0  0  0  0  0  0  0  0  0  0  0  0
    0.0001    4.1915   -0.0001 C   0  0  0  0  0  0  0  0  0  0  0  0
   -1.2038    3.4824   -0.0443 C   0  0  0  0  0  0  0  0  0  0  0  0
   -1.1819    2.0738   -0.0480 C   0  0  0  0  0  0  0  0  0  0  0  0
   -2.4516    1.3122   -0.1169 C   0  0  0  0  0  0  0  0  0  0  0  0
   -3.5262    1.7310    0.7053 C   0  0  0  0  0  0  0  0  0  0  0  0
   -4.7765    1.1113    0.6488 C   0  0  0  0  0  0  0  0  0  0  0  0
   -4.9753    0.0556   -0.2604 C   0  0  0  0  0  0  0  0  0  0  0  0
   -3.9298   -0.3741   -1.0811 C   0  0  0  0  0  0  0  0  0  0  0  0
   -2.6438    0.2241   -1.0286 C   0  0  0  0  0  0  0  0  0  0  0  0
    4.0810   -1.2003    1.7907 H   0  0  0  0  0  0  0  0  0  0  0  0
    5.9555   -0.4422    0.3240 H   0  0  0  0  0  0  0  0  0  0  0  0
    5.5898    1.4432   -1.3113 H   0  0  0  0  0  0  0  0  0  0  0  0
    3.3548    2.5498   -1.4214 H   0  0  0  0  0  0  0  0  0  0  0  0
    2.1695    4.0014    0.1094 H   0  0  0  0  0  0  0  0  0  0  0  0
    0.0000    5.2918   -0.0001 H   0  0  0  0  0  0  0  0  0  0  0  0
   -2.1693    4.0012   -0.1097 H   0  0  0  0  0  0  0  0  0  0  0  0
   -3.3545    2.5498    1.4209 H   0  0  0  0  0  0  0  0  0  0  0  0
   -5.5896    1.4435    1.3105 H   0  0  0  0  0  0  0  0  0  0  0  0
   -5.9554   -0.4418   -0.3249 H   0  0  0  0  0  0  0  0  0  0  0  0
   -4.0809   -1.2003   -1.7912 H   0  0  0  0  0  0  0  0  0  0  0  0
  2 20  1  0  0  0  0
  3 10  1  0  0  0  0
  4  5  1  0  0  0  0
  4  1  1  0  0  0  0
  5 21  1  0  0  0  0
  6 22  1  0  0  0  0
  6  5  2  0  0  0  0
  7  6  1  0  0  0  0
  8  7  2  0  0  0  0
  8  9  1  0  0  0  0
  9  4  2  0  0  0  0
 10  9  1  1  0  0  0
 11 10  1  0  0  0  0
 11 25  1  0  0  0  0
 12 26  1  0  0  0  0
 12 11  2  0  0  0  0
 13 12  1  0  0  0  0
 14 13  2  0  0  0  0
 14  3  1  0  0  0  0
 15 14  1  0  0  0  0
 15 16  1  0  0  0  0
 16 28  1  0  0  0  0
 17 16  2  0  0  0  0
 17 29  1  0  0  0  0
 18 17  1  0  0  0  0
 19 20  1  0  0  0  0
 19 18  2  0  0  0  0
 20 15  2  0  0  0  0
 23  7  1  0  0  0  0
 24  8  1  0  0  0  0
 27 13  1  0  0  0  0
 30 18  1  0  0  0  0
 31 19  1  0  0  0  0
M  END
