1,2,6
 OpenBabel05122313063D

 43 43  0  0  1  0  0  0  0  0999 V2000
    0.9179   -2.2093   -1.5673 S   0  0  0  0  0  1  0  0  0  0  0  0
   -1.6855   -0.5152    1.9474 S   0  0  0  0  0  1  0  0  0  0  0  0
    5.9776    2.9751    0.5694 F   0  0  0  0  0  0  0  0  0  0  0  0
    1.5618    4.6470    0.7234 F   0  0  0  0  0  0  0  0  0  0  0  0
    0.9110    0.1559    2.4198 N   0  0  0  0  0  0  0  0  0  0  0  0
    1.1293   -0.5508    1.2476 N   0  0  0  0  0  2  0  0  0  0  0  0
    2.9434   -0.9496   -0.2436 N   0  0  0  0  0  2  0  0  0  0  0  0
   -0.5783    0.7949    4.0727 N   0  0  0  0  0  0  0  0  0  0  0  0
   -0.3176    0.1992    2.8626 C   0  0  0  0  0  0  0  0  0  0  0  0
    2.7889    1.2177    0.7292 C   0  0  0  0  0  0  0  0  0  0  0  0
    3.5314   -2.8727   -1.3629 N   0  0  0  0  0  0  0  0  0  0  0  0
    4.6504    2.7590    0.6308 C   0  0  0  0  0  0  0  0  0  0  0  0
    1.8980    2.3106    0.7858 C   0  0  0  0  0  0  0  0  0  0  0  0
    0.8136    2.1582    0.8306 H   0  0  0  0  0  0  0  0  0  0  0  0
    4.1767    1.4436    0.6472 C   0  0  0  0  0  0  0  0  0  0  0  0
    4.8789    0.6027    0.5854 H   0  0  0  0  0  0  0  0  0  0  0  0
    3.7908    3.8632    0.6615 C   0  0  0  0  0  0  0  0  0  0  0  0
    4.1778    4.8898    0.6251 H   0  0  0  0  0  0  0  0  0  0  0  0
    0.5076    1.4552    4.7776 C   0  0  0  0  0  0  0  0  0  0  0  0
    0.2928    1.4516    5.8652 H   0  0  0  0  0  0  0  0  0  0  0  0
    1.4522    0.9186    4.5780 H   0  0  0  0  0  0  0  0  0  0  0  0
    0.6397    2.5116    4.4468 H   0  0  0  0  0  0  0  0  0  0  0  0
    2.2518   -0.1658    0.5743 C   0  0  2  0  0  3  0  0  0  0  0  0
   -1.9251    1.1200    4.4928 C   0  0  0  0  0  0  0  0  0  0  0  0
   -2.0007    1.0341    5.5965 H   0  0  0  0  0  0  0  0  0  0  0  0
   -2.2225    2.1570    4.2065 H   0  0  0  0  0  0  0  0  0  0  0  0
   -2.6461    0.4154    4.0374 H   0  0  0  0  0  0  0  0  0  0  0  0
    3.3899   -3.7146   -3.7102 C   0  0  0  0  0  0  0  0  0  0  0  0
    3.1907   -4.6237   -4.3124 H   0  0  0  0  0  0  0  0  0  0  0  0
    2.6685   -2.9322   -4.0187 H   0  0  0  0  0  0  0  0  0  0  0  0
    4.4130   -3.3612   -3.9523 H   0  0  0  0  0  0  0  0  0  0  0  0
    3.2380   -4.0213   -2.2203 C   0  0  0  0  0  0  0  0  0  0  0  0
    2.2031   -4.3536   -2.0014 H   0  0  0  0  0  0  0  0  0  0  0  0
    3.9185   -4.8427   -1.9132 H   0  0  0  0  0  0  0  0  0  0  0  0
    2.4147    3.6052    0.7256 C   0  0  0  0  0  0  0  0  0  0  0  0
    2.5756   -1.9881   -0.9707 C   0  0  2  0  0  3  0  0  0  0  0  0
    4.9132   -2.6889   -0.9087 C   0  0  0  0  0  0  0  0  0  0  0  0
    5.5742   -3.1531   -1.6690 H   0  0  0  0  0  0  0  0  0  0  0  0
    5.1206   -1.6001   -0.9017 H   0  0  0  0  0  0  0  0  0  0  0  0
    5.1688   -3.2840    0.4754 C   0  0  0  0  0  0  0  0  0  0  0  0
    6.2276   -3.1384    0.7700 H   0  0  0  0  0  0  0  0  0  0  0  0
    4.5282   -2.7909    1.2327 H   0  0  0  0  0  0  0  0  0  0  0  0
    4.9543   -4.3718    0.4954 H   0  0  0  0  0  0  0  0  0  0  0  0
  2  9  1  0  0  0  0
  3 12  1  0  0  0  0
  4 35  1  0  0  0  0
  5  9  2  0  0  0  0
  6  5  1  0  0  0  0
  8 24  1  0  0  0  0
  8 19  1  0  0  0  0
  9  8  1  0  0  0  0
 10 13  1  0  0  0  0
 11 36  1  0  0  0  0
 11 37  1  0  0  0  0
 12 15  1  0  0  0  0
 12 17  2  0  0  0  0
 13 14  1  0  0  0  0
 15 10  2  0  0  0  0
 16 15  1  0  0  0  0
 17 35  1  0  0  0  0
 18 17  1  0  0  0  0
 19 20  1  0  0  0  0
 21 19  1  0  0  0  0
 22 19  1  0  0  0  0
 23  7  1  1  0  0  0
 23 10  1  0  0  0  0
 23  6  1  0  0  0  0
 24 25  1  0  0  0  0
 26 24  1  0  0  0  0
 27 24  1  0  0  0  0
 28 32  1  0  0  0  0
 29 28  1  0  0  0  0
 30 28  1  0  0  0  0
 31 28  1  0  0  0  0
 32 33  1  0  0  0  0
 32 34  1  0  0  0  0
 32 11  1  0  0  0  0
 35 13  2  0  0  0  0
 36  1  1  6  0  0  0
 36  7  1  0  0  0  0
 37 39  1  0  0  0  0
 37 40  1  0  0  0  0
 38 37  1  0  0  0  0
 40 43  1  0  0  0  0
 40 41  1  0  0  0  0
 40 42  1  0  0  0  0
M  END
