4,9,20
 OpenBabel05122313063D

 75 78  0  0  1  0  0  0  0  0999 V2000
   -4.9555    1.5121   -0.0153 C   0  0  0  0  0  0  0  0  0  0  0  0
   -5.8490    1.9859   -0.4669 H   0  0  0  0  0  0  0  0  0  0  0  0
   -5.1720    1.2505    1.0400 H   0  0  0  0  0  0  0  0  0  0  0  0
   -4.8067   -0.1741   -0.7962 S   0  0  0  0  0  0  0  0  0  0  0  0
   -3.4961   -0.0026   -2.0533 C   0  0  0  0  0  0  0  0  0  0  0  0
   -3.5370   -1.0121   -2.5228 H   0  0  0  0  0  0  0  0  0  0  0  0
   -3.7574    0.7596   -2.8117 H   0  0  0  0  0  0  0  0  0  0  0  0
   -2.0953    0.2126   -1.5273 C   0  0  1  0  0  3  0  0  0  0  0  0
   -1.7416   -0.4420   -0.4035 N   0  0  0  0  0  2  0  0  0  0  0  0
   -0.4901   -0.3590    0.0896 C   0  0  0  0  0  0  0  0  0  0  0  0
    0.4997    0.3815   -0.5766 C   0  0  0  0  0  0  0  0  0  0  0  0
    1.5235    0.4095   -0.1780 H   0  0  0  0  0  0  0  0  0  0  0  0
    0.1513    1.0732   -1.7439 C   0  0  0  0  0  0  0  0  0  0  0  0
    0.9019    1.6766   -2.2757 H   0  0  0  0  0  0  0  0  0  0  0  0
   -1.1612    0.9983   -2.2242 C   0  0  0  0  0  0  0  0  0  0  0  0
   -1.4679    1.5382   -3.1306 H   0  0  0  0  0  0  0  0  0  0  0  0
   -0.2169   -1.0601    1.3957 C   0  0  0  0  0  0  0  0  0  0  0  0
   -0.7423   -0.5242    2.2180 H   0  0  0  0  0  0  0  0  0  0  0  0
    0.8695   -1.0913    1.6060 H   0  0  0  0  0  0  0  0  0  0  0  0
   -0.9402   -2.7354    1.5193 S   0  0  0  0  0  0  0  0  0  0  0  0
   -0.2552   -3.5411    0.0034 C   0  0  0  0  0  0  0  0  0  0  0  0
   -0.4905   -4.6121    0.1721 H   0  0  0  0  0  0  0  0  0  0  0  0
   -0.8709   -3.2164   -0.8592 H   0  0  0  0  0  0  0  0  0  0  0  0
    1.2140   -3.2909   -0.1891 C   0  0  0  0  0  0  0  0  0  0  0  0
    1.6901   -2.6699   -1.3562 C   0  0  0  0  0  0  0  0  0  0  0  0
    0.9763   -2.4018   -2.1508 H   0  0  0  0  0  0  0  0  0  0  0  0
    3.0536   -2.3774   -1.5354 C   0  0  0  0  0  0  0  0  0  0  0  0
    3.3856   -1.9050   -2.4696 H   0  0  0  0  0  0  0  0  0  0  0  0
    3.9723   -2.6951   -0.5154 C   0  0  0  0  0  0  0  0  0  0  0  0
    3.5094   -3.3377    0.6566 C   0  0  0  0  0  0  0  0  0  0  0  0
    4.2429   -3.5875    1.4369 H   0  0  0  0  0  0  0  0  0  0  0  0
    2.1550   -3.6285    0.8113 C   0  0  0  0  0  0  0  0  0  0  0  0
    1.8035   -4.1050    1.7401 H   0  0  0  0  0  0  0  0  0  0  0  0
    5.3033   -2.4216   -0.5545 O   0  0  0  0  0  0  0  0  0  0  0  0
    5.8325   -1.6315   -1.6166 C   0  0  0  0  0  0  0  0  0  0  0  0
    5.1396   -0.7892   -1.8415 H   0  0  0  0  0  0  0  0  0  0  0  0
    5.9193   -2.2438   -2.5436 H   0  0  0  0  0  0  0  0  0  0  0  0
    7.1920   -1.1004   -1.1743 C   0  0  0  0  0  0  0  0  0  0  0  0
    7.8896   -1.9561   -1.0570 H   0  0  0  0  0  0  0  0  0  0  0  0
    7.5945   -0.4764   -2.0019 H   0  0  0  0  0  0  0  0  0  0  0  0
    7.1395   -0.2981    0.1346 C   0  0  0  0  0  0  0  0  0  0  0  0
    8.1726   -0.0121    0.4274 H   0  0  0  0  0  0  0  0  0  0  0  0
    6.7666   -0.9698    0.9371 H   0  0  0  0  0  0  0  0  0  0  0  0
    6.2565    0.9525    0.0824 C   0  0  0  0  0  0  0  0  0  0  0  0
    6.6785    1.6832   -0.6455 H   0  0  0  0  0  0  0  0  0  0  0  0
    5.2558    0.6768   -0.3143 H   0  0  0  0  0  0  0  0  0  0  0  0
    6.0714    1.6264    1.4459 C   0  0  0  0  0  0  0  0  0  0  0  0
    5.5992    0.8950    2.1404 H   0  0  0  0  0  0  0  0  0  0  0  0
    7.0680    1.8546    1.8833 H   0  0  0  0  0  0  0  0  0  0  0  0
    5.2295    2.9097    1.4174 C   0  0  0  0  0  0  0  0  0  0  0  0
    5.7678    3.6957    0.8408 H   0  0  0  0  0  0  0  0  0  0  0  0
    5.1402    3.3052    2.4530 H   0  0  0  0  0  0  0  0  0  0  0  0
    3.8270    2.7352    0.8246 C   0  0  0  0  0  0  0  0  0  0  0  0
    3.9081    2.4806   -0.2552 H   0  0  0  0  0  0  0  0  0  0  0  0
    3.3290    1.8595    1.3016 H   0  0  0  0  0  0  0  0  0  0  0  0
    2.9261    3.9659    0.9706 C   0  0  0  0  0  0  0  0  0  0  0  0
    3.4778    4.8732    0.6366 H   0  0  0  0  0  0  0  0  0  0  0  0
    2.6997    4.1316    2.0480 H   0  0  0  0  0  0  0  0  0  0  0  0
    1.6260    3.8366    0.1741 C   0  0  0  0  0  0  0  0  0  0  0  0
    1.1344    2.8710    0.4133 H   0  0  0  0  0  0  0  0  0  0  0  0
    1.8542    3.8017   -0.9136 H   0  0  0  0  0  0  0  0  0  0  0  0
    0.6423    4.9803    0.4084 C   0  0  0  0  0  0  0  0  0  0  0  0
    0.2737    4.9866    1.4598 H   0  0  0  0  0  0  0  0  0  0  0  0
    1.1419    5.9550    0.2323 H   0  0  0  0  0  0  0  0  0  0  0  0
   -0.4518    4.9641   -0.5071 O   0  0  0  0  0  0  0  0  0  0  0  0
   -1.4843    4.0954   -0.3228 C   0  0  0  0  0  0  0  0  0  0  0  0
   -1.6053    3.1875    0.7520 C   0  0  0  0  0  0  0  0  0  0  0  0
   -0.8289    3.1200    1.5259 H   0  0  0  0  0  0  0  0  0  0  0  0
   -2.7290    2.3552    0.8434 C   0  0  0  0  0  0  0  0  0  0  0  0
   -2.8141    1.6283    1.6690 H   0  0  0  0  0  0  0  0  0  0  0  0
   -3.7584    2.4077   -0.1176 C   0  0  0  0  0  0  0  0  0  0  0  0
   -3.6278    3.3235   -1.1844 C   0  0  0  0  0  0  0  0  0  0  0  0
   -4.4273    3.3955   -1.9395 H   0  0  0  0  0  0  0  0  0  0  0  0
   -2.5093    4.1526   -1.2929 C   0  0  0  0  0  0  0  0  0  0  0  0
   -2.4067    4.8764   -2.1144 H   0  0  0  0  0  0  0  0  0  0  0  0
  1  3  1  0  0  0  0
  2  1  1  0  0  0  0
  4  1  1  0  0  0  0
  5  8  1  0  0  0  0
  5  4  1  0  0  0  0
  6  5  1  0  0  0  0
  7  5  1  0  0  0  0
  8 15  1  6  0  0  0
  8  9  1  0  0  0  0
  9 10  1  0  0  0  0
 10 17  1  0  0  0  0
 11 12  1  0  0  0  0
 11 10  2  0  0  0  0
 13 11  1  0  0  0  0
 14 13  1  0  0  0  0
 15 13  2  0  0  0  0
 16 15  1  0  0  0  0
 17 20  1  0  0  0  0
 17 19  1  0  0  0  0
 17 18  1  0  0  0  0
 21 22  1  0  0  0  0
 21 20  1  0  0  0  0
 23 21  1  0  0  0  0
 24 21  1  0  0  0  0
 24 32  1  0  0  0  0
 25 24  2  0  0  0  0
 26 25  1  0  0  0  0
 27 25  1  0  0  0  0
 27 29  2  0  0  0  0
 28 27  1  0  0  0  0
 29 30  1  0  0  0  0
 30 32  2  0  0  0  0
 30 31  1  0  0  0  0
 32 33  1  0  0  0  0
 34 29  1  0  0  0  0
 35 38  1  0  0  0  0
 35 34  1  0  0  0  0
 36 35  1  0  0  0  0
 37 35  1  0  0  0  0
 38 39  1  0  0  0  0
 38 41  1  0  0  0  0
 40 38  1  0  0  0  0
 41 42  1  0  0  0  0
 41 43  1  0  0  0  0
 44 41  1  0  0  0  0
 44 47  1  0  0  0  0
 45 44  1  0  0  0  0
 46 44  1  0  0  0  0
 47 49  1  0  0  0  0
 47 48  1  0  0  0  0
 50 47  1  0  0  0  0
 50 52  1  0  0  0  0
 51 50  1  0  0  0  0
 53 56  1  0  0  0  0
 53 55  1  0  0  0  0
 53 50  1  0  0  0  0
 54 53  1  0  0  0  0
 56 58  1  0  0  0  0
 57 56  1  0  0  0  0
 59 62  1  0  0  0  0
 59 60  1  0  0  0  0
 59 56  1  0  0  0  0
 61 59  1  0  0  0  0
 62 63  1  0  0  0  0
 64 62  1  0  0  0  0
 65 66  1  0  0  0  0
 65 62  1  0  0  0  0
 66 67  1  0  0  0  0
 67 69  2  0  0  0  0
 67 68  1  0  0  0  0
 69 70  1  0  0  0  0
 71  1  1  0  0  0  0
 71 69  1  0  0  0  0
 72 71  2  0  0  0  0
 73 72  1  0  0  0  0
 74 72  1  0  0  0  0
 74 66  2  0  0  0  0
 75 74  1  0  0  0  0
M  END
