1,2,3
 OpenBabel05122313063D

 36 37  0  0  0  0  0  0  0  0999 V2000
   -2.0937   -0.2900   -1.3724 S   0  0  0  0  0  0  0  0  0  0  0  0
    2.0032    1.4416   -0.0843 S   0  0  0  0  0  3  0  0  0  0  0  0
    0.5118   -1.4383   -0.2562 N   0  0  0  0  0  2  0  0  0  0  0  0
   -4.5760   -0.6216   -0.2654 C   0  0  0  0  0  0  0  0  0  0  0  0
   -4.8931   -0.8284   -1.2989 H   0  0  0  0  0  0  0  0  0  0  0  0
   -5.5079   -0.6460    0.7821 C   0  0  0  0  0  0  0  0  0  0  0  0
   -6.5599   -0.8840    0.5663 H   0  0  0  0  0  0  0  0  0  0  0  0
   -5.1041   -0.3494    2.0939 C   0  0  0  0  0  0  0  0  0  0  0  0
   -5.8419   -0.3590    2.9097 H   0  0  0  0  0  0  0  0  0  0  0  0
   -3.7652   -0.0255    2.3654 C   0  0  0  0  0  0  0  0  0  0  0  0
   -3.4530    0.2227    3.3905 H   0  0  0  0  0  0  0  0  0  0  0  0
   -2.8198   -0.0056    1.3296 C   0  0  0  0  0  0  0  0  0  0  0  0
   -1.7724    0.2722    1.5248 H   0  0  0  0  0  0  0  0  0  0  0  0
   -3.2319   -0.3170    0.0212 C   0  0  0  0  0  0  0  0  0  0  0  0
   -1.5591   -2.0609   -1.4496 C   0  0  0  0  0  0  0  0  0  0  0  0
   -2.4663   -2.6957   -1.4356 H   0  0  0  0  0  0  0  0  0  0  0  0
   -1.0632   -2.1625   -2.4361 H   0  0  0  0  0  0  0  0  0  0  0  0
   -0.6238   -2.3858   -0.3011 C   0  0  0  0  0  0  0  0  0  0  0  0
   -1.1753   -2.2990    0.6612 H   0  0  0  0  0  0  0  0  0  0  0  0
   -0.2526   -3.4303   -0.3821 H   0  0  0  0  0  0  0  0  0  0  0  0
    1.6841   -1.9176    0.0415 C   0  0  0  0  0  0  0  0  0  0  0  0
    1.7446   -3.0164    0.1739 H   0  0  0  0  0  0  0  0  0  0  0  0
    2.9606   -1.2417    0.2330 C   0  0  0  0  0  0  0  0  0  0  0  0
    4.0617   -2.1134    0.4572 C   0  0  0  0  0  0  0  0  0  0  0  0
    3.8773   -3.1986    0.4704 H   0  0  0  0  0  0  0  0  0  0  0  0
    5.3579   -1.6349    0.6562 C   0  0  0  0  0  0  0  0  0  0  0  0
    6.1842   -2.3400    0.8259 H   0  0  0  0  0  0  0  0  0  0  0  0
    5.5962   -0.2527    0.6283 C   0  0  0  0  0  0  0  0  0  0  0  0
    6.6126    0.1427    0.7716 H   0  0  0  0  0  0  0  0  0  0  0  0
    4.5325    0.6333    0.4020 C   0  0  0  0  0  0  0  0  0  0  0  0
    4.7258    1.7161    0.3554 H   0  0  0  0  0  0  0  0  0  0  0  0
    3.2220    0.1586    0.2237 C   0  0  0  0  0  0  0  0  0  0  0  0
    1.7681    2.1415    1.5934 C   0  0  0  0  0  0  0  0  0  0  0  0
    1.4770    1.3513    2.3084 H   0  0  0  0  0  0  0  0  0  0  0  0
    0.9576    2.8846    1.4655 H   0  0  0  0  0  0  0  0  0  0  0  0
    2.7085    2.6358    1.9008 H   0  0  0  0  0  0  0  0  0  0  0  0
  1 14  1  0  0  0  0
  2 32  2  0  0  0  0
  2 33  1  0  0  0  0
  3 21  1  0  0  0  0
  4 14  2  0  0  0  0
  4  6  1  0  0  0  0
  5  4  1  0  0  0  0
  6  8  2  0  0  0  0
  7  6  1  0  0  0  0
  8 10  1  0  0  0  0
  8  9  1  0  0  0  0
 10 11  1  0  0  0  0
 12 13  1  0  0  0  0
 12 10  2  0  0  0  0
 14 12  1  0  0  0  0
 15 16  1  0  0  0  0
 15  1  1  0  0  0  0
 15 18  1  0  0  0  0
 17 15  1  0  0  0  0
 18  3  1  0  0  0  0
 18 19  1  0  0  0  0
 20 18  1  0  0  0  0
 21 22  1  0  0  0  0
 21 23  2  0  0  0  0
 23 24  1  0  0  0  0
 24 25  1  0  0  0  0
 24 26  2  0  0  0  0
 26 27  1  0  0  0  0
 28 26  1  0  0  0  0
 28 29  1  0  0  0  0
 30 28  2  0  0  0  0
 31 30  1  0  0  0  0
 32 23  1  0  0  0  0
 32 30  1  0  0  0  0
 33 36  1  0  0  0  0
 33 34  1  0  0  0  0
 35 33  1  0  0  0  0
M  END
