1,2,3
 OpenBabel05122313063D

 34 35  0  0  0  0  0  0  0  0999 V2000
    1.7844   -0.5120    2.0156 S   0  0  0  0  0  0  0  0  0  0  0  0
   -0.7984    0.3930   -1.5384 S   0  0  0  0  0  0  0  0  0  0  0  0
    1.9408    0.7996   -0.4779 N   0  0  0  0  0  2  0  0  0  0  0  0
    3.1748    0.3317   -0.1350 C   0  0  0  0  0  0  0  0  0  0  0  0
    3.3060   -0.4389    1.0724 C   0  0  0  0  0  0  0  0  0  0  0  0
    4.5269   -0.9488    1.5200 C   0  0  0  0  0  0  0  0  0  0  0  0
    4.5751   -1.5022    2.4704 H   0  0  0  0  0  0  0  0  0  0  0  0
    5.6948   -0.7630    0.7593 C   0  0  0  0  0  0  0  0  0  0  0  0
    6.6523   -1.1850    1.0957 H   0  0  0  0  0  0  0  0  0  0  0  0
    5.6024   -0.0348   -0.4396 C   0  0  0  0  0  0  0  0  0  0  0  0
    6.5025    0.1128   -1.0576 H   0  0  0  0  0  0  0  0  0  0  0  0
    4.3875    0.5002   -0.8841 C   0  0  0  0  0  0  0  0  0  0  0  0
    4.3676    1.0387   -1.8411 H   0  0  0  0  0  0  0  0  0  0  0  0
    1.8222   -2.2196    2.6642 C   0  0  0  0  0  0  0  0  0  0  0  0
    2.6714   -2.3191    3.3658 H   0  0  0  0  0  0  0  0  0  0  0  0
    1.9086   -2.9512    1.8382 H   0  0  0  0  0  0  0  0  0  0  0  0
    0.8775   -2.3588    3.2218 H   0  0  0  0  0  0  0  0  0  0  0  0
    1.8862    1.6640   -1.6449 C   0  0  0  0  0  0  0  0  0  0  0  0
    1.8638    1.0685   -2.6000 H   0  0  0  0  0  0  0  0  0  0  0  0
    2.8082    2.2821   -1.7074 H   0  0  0  0  0  0  0  0  0  0  0  0
    0.7190    2.6270   -1.6808 C   0  0  0  0  0  0  0  0  0  0  0  0
   -0.6183    2.1646   -1.6964 C   0  0  0  0  0  0  0  0  0  0  0  0
   -1.6968    3.0620   -1.7497 C   0  0  0  0  0  0  0  0  0  0  0  0
   -2.7323    2.6980   -1.7363 H   0  0  0  0  0  0  0  0  0  0  0  0
   -1.4497    4.4428   -1.7968 C   0  0  0  0  0  0  0  0  0  0  0  0
   -2.2976    5.1433   -1.8368 H   0  0  0  0  0  0  0  0  0  0  0  0
    0.9355    4.0139   -1.7220 C   0  0  0  0  0  0  0  0  0  0  0  0
    1.9723    4.3854   -1.7016 H   0  0  0  0  0  0  0  0  0  0  0  0
   -2.6057    0.1738   -1.5903 C   0  0  0  0  0  0  0  0  0  0  0  0
   -2.9648    0.4860   -2.5891 H   0  0  0  0  0  0  0  0  0  0  0  0
   -3.1078    0.7338   -0.7806 H   0  0  0  0  0  0  0  0  0  0  0  0
   -2.7801   -0.9072   -1.4526 H   0  0  0  0  0  0  0  0  0  0  0  0
   -0.1332    4.9221   -1.7811 C   0  0  0  0  0  0  0  0  0  0  0  0
    0.0645    6.0041   -1.8083 H   0  0  0  0  0  0  0  0  0  0  0  0
  1 14  1  0  0  0  0
  3  4  1  0  0  0  0
  4  5  1  0  0  0  0
  5  6  2  0  0  0  0
  5  1  1  0  0  0  0
  6  7  1  0  0  0  0
  8  9  1  0  0  0  0
  8  6  1  0  0  0  0
 10  8  2  0  0  0  0
 11 10  1  0  0  0  0
 12 10  1  0  0  0  0
 12  4  2  0  0  0  0
 13 12  1  0  0  0  0
 14 17  1  0  0  0  0
 14 15  1  0  0  0  0
 16 14  1  0  0  0  0
 18  3  1  0  0  0  0
 19 18  1  0  0  0  0
 20 18  1  0  0  0  0
 21 18  1  0  0  0  0
 22 21  1  0  0  0  0
 22  2  1  0  0  0  0
 23 24  1  0  0  0  0
 23 22  2  0  0  0  0
 25 33  2  0  0  0  0
 25 23  1  0  0  0  0
 26 25  1  0  0  0  0
 27 28  1  0  0  0  0
 27 21  2  0  0  0  0
 29  2  1  0  0  0  0
 29 32  1  0  0  0  0
 29 31  1  0  0  0  0
 30 29  1  0  0  0  0
 33 27  1  0  0  0  0
 34 33  1  0  0  0  0
M  END
