3,6,9
q = -2.0, confidence = 0.972

 43 43  0  0  1  0  0  0  0  0999 V2000
    0.5875   -2.2133   -3.4134 N   0  0  0  0  0  0  0  0  0  0  0  0
    0.2559   -1.5775   -2.2527 C   0  0  1  0  0  3  0  0  0  0  0  0
    1.5694   -1.0161   -1.2123 S   0  0  0  0  0  1  0  0  0  0  0  0
   -1.0227   -1.3423   -2.0249 N   0  0  0  0  0  2  0  0  0  0  0  0
   -1.7136   -1.0954   -0.9159 C   0  0  2  0  0  3  0  0  0  0  0  0
   -1.3186   -1.4534    0.3406 N   0  0  0  0  0  2  0  0  0  0  0  0
   -2.3629   -1.6705    1.2279 N   0  0  0  0  0  0  0  0  0  0  0  0
   -2.0904   -1.4840    2.4918 C   0  0  0  0  0  0  0  0  0  0  0  0
   -0.4516   -0.9927    3.0420 S   0  0  0  0  0  1  0  0  0  0  0  0
   -3.0884   -1.6236    3.4253 N   0  0  0  0  0  0  0  0  0  0  0  0
   -3.0170   -0.4071   -1.1270 C   0  0  0  0  0  0  0  0  0  0  0  0
   -2.8072   -1.7728    4.8390 C   0  0  0  0  0  0  0  0  0  0  0  0
   -2.7983   -2.8435    5.1528 H   0  0  0  0  0  0  0  0  0  0  0  0
   -1.8205   -1.3359    5.0794 H   0  0  0  0  0  0  0  0  0  0  0  0
   -3.5816   -1.2462    5.4348 H   0  0  0  0  0  0  0  0  0  0  0  0
   -3.7195   -0.5762   -2.3383 C   0  0  0  0  0  0  0  0  0  0  0  0
   -3.3418   -1.3039   -3.0699 H   0  0  0  0  0  0  0  0  0  0  0  0
   -3.5000    0.5350   -0.1895 C   0  0  0  0  0  0  0  0  0  0  0  0
   -2.9611    0.6770    0.7563 H   0  0  0  0  0  0  0  0  0  0  0  0
   -4.6344    1.3047   -0.4608 C   0  0  0  0  0  0  0  0  0  0  0  0
   -4.9894    2.0725    0.2407 H   0  0  0  0  0  0  0  0  0  0  0  0
   -4.4083   -2.0369    2.9793 C   0  0  0  0  0  0  0  0  0  0  0  0
   -4.4911   -3.1455    2.8923 H   0  0  0  0  0  0  0  0  0  0  0  0
   -5.1651   -1.6840    3.7084 H   0  0  0  0  0  0  0  0  0  0  0  0
   -4.6151   -1.6048    1.9839 H   0  0  0  0  0  0  0  0  0  0  0  0
    1.9723   -2.4979   -3.7867 C   0  0  0  0  0  0  0  0  0  0  0  0
    1.9707   -3.4503   -4.3568 H   0  0  0  0  0  0  0  0  0  0  0  0
    2.5469   -2.6740   -2.8549 H   0  0  0  0  0  0  0  0  0  0  0  0
   -4.8778    0.1618   -2.6101 C   0  0  0  0  0  0  0  0  0  0  0  0
   -5.4429    0.0298   -3.5437 H   0  0  0  0  0  0  0  0  0  0  0  0
   -5.3167    1.1012   -1.6689 C   0  0  0  0  0  0  0  0  0  0  0  0
   -0.4709   -2.6405   -4.3325 C   0  0  0  0  0  0  0  0  0  0  0  0
   -1.2551   -1.8574   -4.3256 H   0  0  0  0  0  0  0  0  0  0  0  0
   -0.0312   -2.6679   -5.3507 H   0  0  0  0  0  0  0  0  0  0  0  0
   -6.4179    1.8271   -1.9305 F   0  0  0  0  0  0  0  0  0  0  0  0
    2.6208   -1.3779   -4.6013 C   0  0  0  0  0  0  0  0  0  0  0  0
    3.6551   -1.6578   -4.8863 H   0  0  0  0  0  0  0  0  0  0  0  0
    2.0548   -1.1692   -5.5320 H   0  0  0  0  0  0  0  0  0  0  0  0
    2.6683   -0.4448   -4.0057 H   0  0  0  0  0  0  0  0  0  0  0  0
   -1.0747   -3.9948   -3.9628 C   0  0  0  0  0  0  0  0  0  0  0  0
   -1.8530   -4.2858   -4.6968 H   0  0  0  0  0  0  0  0  0  0  0  0
   -0.3040   -4.7920   -3.9474 H   0  0  0  0  0  0  0  0  0  0  0  0
   -1.5440   -3.9477   -2.9605 H   0  0  0  0  0  0  0  0  0  0  0  0
  1  2  1  0  0  0  0
  2  4  1  0  0  0  0
  2  3  1  6  0  0  0
  5  4  1  6  0  0  0
  5  6  1  0  0  0  0
  6  7  1  0  0  0  0
  7  8  2  0  0  0  0
  8  9  1  0  0  0  0
  8 10  1  0  0  0  0
 10 12  1  0  0  0  0
 11  5  1  0  0  0  0
 11 18  1  0  0  0  0
 12 14  1  0  0  0  0
 12 13  1  0  0  0  0
 12 15  1  0  0  0  0
 16 11  2  0  0  0  0
 17 16  1  0  0  0  0
 18 19  1  0  0  0  0
 20 18  2  0  0  0  0
 20 21  1  0  0  0  0
 22 10  1  0  0  0  0
 22 24  1  0  0  0  0
 23 22  1  0  0  0  0
 25 22  1  0  0  0  0
 26  1  1  0  0  0  0
 26 28  1  0  0  0  0
 27 26  1  0  0  0  0
 29 16  1  0  0  0  0
 29 31  2  0  0  0  0
 30 29  1  0  0  0  0
 31 20  1  0  0  0  0
 32 33  1  0  0  0  0
 32 40  1  0  0  0  0
 32  1  1  0  0  0  0
 34 32  1  0  0  0  0
 35 31  1  0  0  0  0
 36 39  1  0  0  0  0
 36 26  1  0  0  0  0
 37 36  1  0  0  0  0
 38 36  1  0  0  0  0
 40 42  1  0  0  0  0
 40 43  1  0  0  0  0
 41 40  1  0  0  0  0
M  END
