1,2,4
q = -2.0, confidence = 0.918

 47 48  0  0  1  0  0  0  0  0999 V2000
   -2.3567   -1.2806    0.0114 S   0  0  0  0  0  1  0  0  0  0  0  0
    1.9381   -1.9222    0.2109 S   0  0  0  0  0  1  0  0  0  0  0  0
   -1.8316    1.4145    0.1274 N   0  0  0  0  0  0  0  0  0  0  0  0
    0.3169    0.3707    0.0974 N   0  0  0  0  0  2  0  0  0  0  0  0
   -3.7290    0.6993    1.2118 N   0  0  0  0  0  0  0  0  0  0  0  0
    1.5764    0.7443    0.5322 N   0  0  0  0  0  2  0  0  0  0  0  0
    3.6865   -0.0327    1.0694 N   0  0  0  0  0  0  0  0  0  0  0  0
   -2.6148    0.4159    0.4857 C   0  0  1  0  0  3  0  0  0  0  0  0
   -0.5345    1.4159   -0.1728 C   0  0  0  0  0  0  0  0  0  0  0  0
    2.4228   -0.2496    0.6233 C   0  0  1  0  0  3  0  0  0  0  0  0
    0.0026    2.6615   -0.7760 C   0  0  0  0  0  0  0  0  0  0  0  0
    1.1072    2.6242   -1.6574 C   0  0  0  0  0  0  0  0  0  0  0  0
    1.6006    1.6653   -1.8659 H   0  0  0  0  0  0  0  0  0  0  0  0
    1.5522    3.7955   -2.2791 C   0  0  0  0  0  0  0  0  0  0  0  0
    2.4028    3.7524   -2.9760 H   0  0  0  0  0  0  0  0  0  0  0  0
    0.9153    5.0221   -2.0204 C   0  0  0  0  0  0  0  0  0  0  0  0
    1.2745    5.9431   -2.5046 H   0  0  0  0  0  0  0  0  0  0  0  0
   -0.1831    5.0676   -1.1473 C   0  0  0  0  0  0  0  0  0  0  0  0
   -0.6858    6.0248   -0.9417 H   0  0  0  0  0  0  0  0  0  0  0  0
   -0.6423    3.8937   -0.5362 C   0  0  0  0  0  0  0  0  0  0  0  0
   -1.5030    3.9127    0.1469 H   0  0  0  0  0  0  0  0  0  0  0  0
   -4.0040    2.0875    1.5970 C   0  0  0  0  0  0  0  0  0  0  0  0
   -5.1023    2.1816    1.7177 H   0  0  0  0  0  0  0  0  0  0  0  0
   -3.7000    2.7351    0.7505 H   0  0  0  0  0  0  0  0  0  0  0  0
   -3.2759    2.5096    2.8723 C   0  0  0  0  0  0  0  0  0  0  0  0
   -3.5348    3.5547    3.1362 H   0  0  0  0  0  0  0  0  0  0  0  0
   -2.1790    2.4516    2.7290 H   0  0  0  0  0  0  0  0  0  0  0  0
   -3.5501    1.8626    3.7300 H   0  0  0  0  0  0  0  0  0  0  0  0
   -4.6937   -0.3267    1.6124 C   0  0  0  0  0  0  0  0  0  0  0  0
   -4.1403   -1.2700    1.7959 H   0  0  0  0  0  0  0  0  0  0  0  0
   -5.1214   -0.0089    2.5858 H   0  0  0  0  0  0  0  0  0  0  0  0
   -5.7971   -0.5529    0.5788 C   0  0  0  0  0  0  0  0  0  0  0  0
   -6.5149   -1.3138    0.9448 H   0  0  0  0  0  0  0  0  0  0  0  0
   -5.3661   -0.9173   -0.3747 H   0  0  0  0  0  0  0  0  0  0  0  0
   -6.3607    0.3800    0.3743 H   0  0  0  0  0  0  0  0  0  0  0  0
    4.1446    1.3012    1.4673 C   0  0  0  0  0  0  0  0  0  0  0  0
    3.3889    1.7884    2.1169 H   0  0  0  0  0  0  0  0  0  0  0  0
    4.2592    1.9523    0.5704 H   0  0  0  0  0  0  0  0  0  0  0  0
    5.4836    1.0171    2.1606 C   0  0  0  0  0  0  0  0  0  0  0  0
    5.3144    0.7989    3.2361 H   0  0  0  0  0  0  0  0  0  0  0  0
    6.1845    1.8719    2.0988 H   0  0  0  0  0  0  0  0  0  0  0  0
    5.9914   -0.2427    1.4413 C   0  0  0  0  0  0  0  0  0  0  0  0
    6.4286    0.0293    0.4577 H   0  0  0  0  0  0  0  0  0  0  0  0
    6.7619   -0.7979    2.0100 H   0  0  0  0  0  0  0  0  0  0  0  0
    4.7115   -1.0638    1.2320 C   0  0  0  0  0  0  0  0  0  0  0  0
    4.7555   -1.7261    0.3429 H   0  0  0  0  0  0  0  0  0  0  0  0
    4.4898   -1.7111    2.1130 H   0  0  0  0  0  0  0  0  0  0  0  0
  3  8  1  0  0  0  0
  4  6  1  0  0  0  0
  5 22  1  0  0  0  0
  5 29  1  0  0  0  0
  6 10  1  0  0  0  0
  7 45  1  0  0  0  0
  7 36  1  0  0  0  0
  8  1  1  6  0  0  0
  8  5  1  0  0  0  0
  9  4  1  0  0  0  0
  9  3  2  0  0  0  0
 10  2  1  1  0  0  0
 10  7  1  0  0  0  0
 11 20  1  0  0  0  0
 11  9  1  0  0  0  0
 12 11  2  0  0  0  0
 13 12  1  0  0  0  0
 14 16  2  0  0  0  0
 14 12  1  0  0  0  0
 15 14  1  0  0  0  0
 16 18  1  0  0  0  0
 17 16  1  0  0  0  0
 18 19  1  0  0  0  0
 18 20  2  0  0  0  0
 20 21  1  0  0  0  0
 22 23  1  0  0  0  0
 22 25  1  0  0  0  0
 24 22  1  0  0  0  0
 25 26  1  0  0  0  0
 25 28  1  0  0  0  0
 27 25  1  0  0  0  0
 29 30  1  0  0  0  0
 29 31  1  0  0  0  0
 32 33  1  0  0  0  0
 32 29  1  0  0  0  0
 34 32  1  0  0  0  0
 35 32  1  0  0  0  0
 36 37  1  0  0  0  0
 36 39  1  0  0  0  0
 38 36  1  0  0  0  0
 39 40  1  0  0  0  0
 41 39  1  0  0  0  0
 42 44  1  0  0  0  0
 42 39  1  0  0  0  0
 43 42  1  0  0  0  0
 45 42  1  0  0  0  0
 45 47  1  0  0  0  0
 46 45  1  0  0  0  0
M  END
