1,5,8
q = -2.0, confidence = 0.978

 53 54  0  0  1  0  0  0  0  0999 V2000
    2.6069   -0.8488    0.8063 S   0  0  0  0  0  1  0  0  0  0  0  0
    2.8236    0.6794   -0.0784 C   0  0  1  0  0  3  0  0  0  0  0  0
    1.8505    1.5614   -0.2209 N   0  0  0  0  0  2  0  0  0  0  0  0
    0.5366    1.3931   -0.1631 C   0  0  2  0  0  3  0  0  0  0  0  0
   -0.1130    0.2203   -0.4465 N   0  0  0  0  0  2  0  0  0  0  0  0
   -1.4332    0.4037   -0.8372 N   0  0  0  0  0  2  0  0  0  0  0  0
   -2.2249   -0.6115   -0.6018 C   0  0  2  0  0  3  0  0  0  0  0  0
   -1.6102   -2.0651    0.2607 S   0  0  0  0  0  1  0  0  0  0  0  0
   -0.2452    2.6046    0.2082 C   0  0  0  0  0  0  0  0  0  0  0  0
   -1.3076    2.5183    1.1345 C   0  0  0  0  0  0  0  0  0  0  0  0
   -1.5995    1.5361    1.5326 H   0  0  0  0  0  0  0  0  0  0  0  0
   -1.9693    3.6760    1.5592 C   0  0  0  0  0  0  0  0  0  0  0  0
   -2.7886    3.5966    2.2898 H   0  0  0  0  0  0  0  0  0  0  0  0
   -1.5936    4.9327    1.0526 C   0  0  0  0  0  0  0  0  0  0  0  0
   -2.1244    5.8401    1.3784 H   0  0  0  0  0  0  0  0  0  0  0  0
   -0.5352    5.0260    0.1355 C   0  0  0  0  0  0  0  0  0  0  0  0
   -0.2341    6.0072   -0.2618 H   0  0  0  0  0  0  0  0  0  0  0  0
    0.1450    3.8705   -0.2742 C   0  0  0  0  0  0  0  0  0  0  0  0
    0.9836    3.9319   -0.9825 H   0  0  0  0  0  0  0  0  0  0  0  0
    4.0582    0.9839   -0.5587 N   0  0  0  0  0  0  0  0  0  0  0  0
    5.2130    0.1127   -0.3272 C   0  0  0  0  0  0  0  0  0  0  0  0
    5.9138    0.2754   -1.1712 H   0  0  0  0  0  0  0  0  0  0  0  0
    4.8589   -0.9372   -0.3917 H   0  0  0  0  0  0  0  0  0  0  0  0
    5.9179    0.3378    1.0116 C   0  0  0  0  0  0  0  0  0  0  0  0
    6.7645   -0.3700    1.1161 H   0  0  0  0  0  0  0  0  0  0  0  0
    5.2211    0.1589    1.8546 H   0  0  0  0  0  0  0  0  0  0  0  0
    6.3187    1.3668    1.1006 H   0  0  0  0  0  0  0  0  0  0  0  0
    4.2545    2.2613   -1.2590 C   0  0  0  0  0  0  0  0  0  0  0  0
    5.1372    2.1335   -1.9176 H   0  0  0  0  0  0  0  0  0  0  0  0
    3.3754    2.4264   -1.9125 H   0  0  0  0  0  0  0  0  0  0  0  0
    4.4399    3.4592   -0.3260 C   0  0  0  0  0  0  0  0  0  0  0  0
    4.5615    4.3863   -0.9217 H   0  0  0  0  0  0  0  0  0  0  0  0
    5.3357    3.3467    0.3155 H   0  0  0  0  0  0  0  0  0  0  0  0
    3.5517    3.5808    0.3237 H   0  0  0  0  0  0  0  0  0  0  0  0
   -3.5201   -0.5838   -1.0284 N   0  0  0  0  0  0  0  0  0  0  0  0
   -4.5027   -1.5782   -0.6105 C   0  0  0  0  0  0  0  0  0  0  0  0
   -3.9889   -2.5537   -0.4902 H   0  0  0  0  0  0  0  0  0  0  0  0
   -5.2240   -1.6934   -1.4483 H   0  0  0  0  0  0  0  0  0  0  0  0
   -5.2486   -1.2102    0.6781 C   0  0  0  0  0  0  0  0  0  0  0  0
   -4.5330   -1.2719    1.5275 H   0  0  0  0  0  0  0  0  0  0  0  0
   -6.0165   -1.9925    0.8618 H   0  0  0  0  0  0  0  0  0  0  0  0
   -5.9038    0.1806    0.6801 C   0  0  0  0  0  0  0  0  0  0  0  0
   -6.6281    0.2664   -0.1620 H   0  0  0  0  0  0  0  0  0  0  0  0
   -6.5130    0.2642    1.6043 H   0  0  0  0  0  0  0  0  0  0  0  0
   -4.9007    1.3507    0.6424 C   0  0  0  0  0  0  0  0  0  0  0  0
   -5.3537    2.2431    1.1231 H   0  0  0  0  0  0  0  0  0  0  0  0
   -4.0340    1.0802    1.2851 H   0  0  0  0  0  0  0  0  0  0  0  0
   -4.3835    1.7771   -0.7420 C   0  0  0  0  0  0  0  0  0  0  0  0
   -5.1459    2.4029   -1.2544 H   0  0  0  0  0  0  0  0  0  0  0  0
   -3.4921    2.4198   -0.5984 H   0  0  0  0  0  0  0  0  0  0  0  0
   -4.0260    0.6160   -1.6920 C   0  0  0  0  0  0  0  0  0  0  0  0
   -4.9226    0.2939   -2.2597 H   0  0  0  0  0  0  0  0  0  0  0  0
   -3.2644    0.9522   -2.4233 H   0  0  0  0  0  0  0  0  0  0  0  0
  2  1  1  1  0  0  0
  3  4  1  0  0  0  0
  3  2  1  0  0  0  0
  4  5  1  6  0  0  0
  4  9  1  0  0  0  0
  6  7  1  0  0  0  0
  6  5  1  0  0  0  0
  7  8  1  6  0  0  0
  9 10  1  0  0  0  0
 10 11  1  0  0  0  0
 10 12  2  0  0  0  0
 12 13  1  0  0  0  0
 14 15  1  0  0  0  0
 14 12  1  0  0  0  0
 16 14  2  0  0  0  0
 17 16  1  0  0  0  0
 18 16  1  0  0  0  0
 18  9  2  0  0  0  0
 19 18  1  0  0  0  0
 20 21  1  0  0  0  0
 20  2  1  0  0  0  0
 21 24  1  0  0  0  0
 22 21  1  0  0  0  0
 23 21  1  0  0  0  0
 24 27  1  0  0  0  0
 24 25  1  0  0  0  0
 24 26  1  0  0  0  0
 28 20  1  0  0  0  0
 28 31  1  0  0  0  0
 29 28  1  0  0  0  0
 30 28  1  0  0  0  0
 31 33  1  0  0  0  0
 31 34  1  0  0  0  0
 32 31  1  0  0  0  0
 35 36  1  0  0  0  0
 35  7  1  0  0  0  0
 36 37  1  0  0  0  0
 36 39  1  0  0  0  0
 38 36  1  0  0  0  0
 39 42  1  0  0  0  0
 39 41  1  0  0  0  0
 39 40  1  0  0  0  0
 42 44  1  0  0  0  0
 43 42  1  0  0  0  0
 45 42  1  0  0  0  0
 45 46  1  0  0  0  0
 45 47  1  0  0  0  0
 48 50  1  0  0  0  0
 48 45  1  0  0  0  0
 49 48  1  0  0  0  0
 51 35  1  0  0  0  0
 51 48  1  0  0  0  0
 52 51  1  0  0  0  0
 53 51  1  0  0  0  0
M  END
