1,2,3
q = -2.0, confidence = 0.796

 27 28  0  0  0  0  0  0  0  0999 V2000
    0.5919    0.8853   -2.3312 S   0  0  0  0  0  1  0  0  0  0  0  0
    0.5131    0.7725    2.0766 S   0  0  0  0  0  1  0  0  0  0  0  0
   -1.3185    1.5117   -0.1765 N   0  0  0  0  0  0  0  0  0  0  0  0
    0.0151    2.5218   -1.9890 C   0  0  0  0  0  0  0  0  0  0  0  0
   -0.8291    2.7347   -0.8637 C   0  0  0  0  0  0  0  0  0  0  0  0
   -1.2117    4.0271   -0.4885 C   0  0  0  0  0  0  0  0  0  0  0  0
   -0.7876    5.1333   -1.2487 C   0  0  0  0  0  0  0  0  0  0  0  0
   -0.0030    4.9340   -2.3932 C   0  0  0  0  0  0  0  0  0  0  0  0
    0.3952    3.6385   -2.7600 C   0  0  0  0  0  0  0  0  0  0  0  0
   -1.0682    1.4930    2.2883 C   0  0  0  0  0  0  0  0  0  0  0  0
   -1.8828    1.7617    1.1634 C   0  0  0  0  0  0  0  0  0  0  0  0
   -3.1844    2.2644    1.3314 C   0  0  0  0  0  0  0  0  0  0  0  0
   -3.6859    2.5321    2.6137 C   0  0  0  0  0  0  0  0  0  0  0  0
   -2.8718    2.2968    3.7364 C   0  0  0  0  0  0  0  0  0  0  0  0
   -1.5814    1.7846    3.5766 C   0  0  0  0  0  0  0  0  0  0  0  0
   -2.3383    0.8487   -1.0509 C   0  0  0  0  0  0  0  0  0  0  0  0
    1.0457    3.4763   -3.6327 H   0  0  0  0  0  0  0  0  0  0  0  0
    0.3255    5.7948   -2.9958 H   0  0  0  0  0  0  0  0  0  0  0  0
   -1.0741    6.1484   -0.9365 H   0  0  0  0  0  0  0  0  0  0  0  0
   -1.8277    4.1773    0.4081 H   0  0  0  0  0  0  0  0  0  0  0  0
   -0.9474    1.5783    4.4522 H   0  0  0  0  0  0  0  0  0  0  0  0
   -3.2529    2.5050    4.7481 H   0  0  0  0  0  0  0  0  0  0  0  0
   -4.7064    2.9243    2.7325 H   0  0  0  0  0  0  0  0  0  0  0  0
   -3.8156    2.4626    0.4542 H   0  0  0  0  0  0  0  0  0  0  0  0
   -3.1706    1.5471   -1.2680 H   0  0  0  0  0  0  0  0  0  0  0  0
   -2.7290   -0.0420   -0.5302 H   0  0  0  0  0  0  0  0  0  0  0  0
   -1.8523    0.5534   -1.9980 H   0  0  0  0  0  0  0  0  0  0  0  0
  1  4  1  0  0  0  0
  2 10  1  0  0  0  0
  3 11  1  0  0  0  0
  4  5  1  0  0  0  0
  5  6  2  0  0  0  0
  5  3  1  0  0  0  0
  6 20  1  0  0  0  0
  7 19  1  0  0  0  0
  7  6  1  0  0  0  0
  8  7  2  0  0  0  0
  9  8  1  0  0  0  0
  9  4  2  0  0  0  0
 10 15  1  0  0  0  0
 11 12  1  0  0  0  0
 11 10  2  0  0  0  0
 12 13  2  0  0  0  0
 13 23  1  0  0  0  0
 13 14  1  0  0  0  0
 14 22  1  0  0  0  0
 15 14  2  0  0  0  0
 15 21  1  0  0  0  0
 16 26  1  0  0  0  0
 16  3  1  0  0  0  0
 17  9  1  0  0  0  0
 18  8  1  0  0  0  0
 24 12  1  0  0  0  0
 25 16  1  0  0  0  0
 27 16  1  0  0  0  0
M  END
