1,2,3,4,5
q = -2.0, confidence = 0.818

 37 38  0  0  0  0  0  0  0  0999 V2000
    0.0001    1.1714    1.6502 S   0  0  0  0  0  0  0  0  0  0  0  0
   -1.6107    0.8555   -1.1454 S   0  0  0  0  0  0  0  0  0  0  0  0
    1.5816   -1.4292    1.1205 S   0  0  0  0  0  1  0  0  0  0  0  0
    1.6107    0.8555   -1.1455 S   0  0  0  0  0  0  0  0  0  0  0  0
   -1.5816   -1.4292    1.1205 S   0  0  0  0  0  1  0  0  0  0  0  0
   -1.4542    2.2489    1.2867 C   0  0  0  0  0  0  0  0  0  0  0  0
   -1.7285    2.4495   -0.1918 C   0  0  0  0  0  0  0  0  0  0  0  0
    1.4542    2.2490    1.2866 C   0  0  0  0  0  0  0  0  0  0  0  0
    1.7284    2.4495   -0.1919 C   0  0  0  0  0  0  0  0  0  0  0  0
   -3.1461    0.0807   -0.6166 C   0  0  0  0  0  0  0  0  0  0  0  0
   -4.3563    0.4669   -1.2185 C   0  0  0  0  0  0  0  0  0  0  0  0
   -5.5589   -0.1128   -0.7967 C   0  0  0  0  0  0  0  0  0  0  0  0
   -5.5277   -1.0905    0.2190 C   0  0  0  0  0  0  0  0  0  0  0  0
   -4.3214   -1.4884    0.7997 C   0  0  0  0  0  0  0  0  0  0  0  0
   -3.0872   -0.9140    0.3910 C   0  0  0  0  0  0  0  0  0  0  0  0
    3.0872   -0.9140    0.3910 C   0  0  0  0  0  0  0  0  0  0  0  0
    4.3214   -1.4884    0.7997 C   0  0  0  0  0  0  0  0  0  0  0  0
    5.5277   -1.0905    0.2190 C   0  0  0  0  0  0  0  0  0  0  0  0
    5.5589   -0.1128   -0.7966 C   0  0  0  0  0  0  0  0  0  0  0  0
    4.3563    0.4669   -1.2185 C   0  0  0  0  0  0  0  0  0  0  0  0
    3.1461    0.0807   -0.6166 C   0  0  0  0  0  0  0  0  0  0  0  0
   -1.3305    3.2099    1.8276 H   0  0  0  0  0  0  0  0  0  0  0  0
   -2.2870    1.6914    1.7623 H   0  0  0  0  0  0  0  0  0  0  0  0
   -2.7485    2.8468   -0.3680 H   0  0  0  0  0  0  0  0  0  0  0  0
   -1.0079    3.1387   -0.6740 H   0  0  0  0  0  0  0  0  0  0  0  0
    1.3305    3.2100    1.8274 H   0  0  0  0  0  0  0  0  0  0  0  0
    2.2871    1.6916    1.7622 H   0  0  0  0  0  0  0  0  0  0  0  0
    2.7484    2.8468   -0.3682 H   0  0  0  0  0  0  0  0  0  0  0  0
    1.0078    3.1387   -0.6741 H   0  0  0  0  0  0  0  0  0  0  0  0
   -4.3461    1.2217   -2.0208 H   0  0  0  0  0  0  0  0  0  0  0  0
   -6.5102    0.1823   -1.2626 H   0  0  0  0  0  0  0  0  0  0  0  0
   -6.4656   -1.5598    0.5542 H   0  0  0  0  0  0  0  0  0  0  0  0
   -4.3072   -2.2631    1.5812 H   0  0  0  0  0  0  0  0  0  0  0  0
    4.3072   -2.2631    1.5812 H   0  0  0  0  0  0  0  0  0  0  0  0
    6.4656   -1.5598    0.5543 H   0  0  0  0  0  0  0  0  0  0  0  0
    6.5102    0.1824   -1.2625 H   0  0  0  0  0  0  0  0  0  0  0  0
    4.3461    1.2217   -2.0208 H   0  0  0  0  0  0  0  0  0  0  0  0
  2 10  1  0  0  0  0
  2  7  1  0  0  0  0
  4 21  1  0  0  0  0
  4  9  1  0  0  0  0
  6  1  1  0  0  0  0
  6 23  1  0  0  0  0
  6 22  1  0  0  0  0
  7  6  1  0  0  0  0
  8  1  1  0  0  0  0
  8 27  1  0  0  0  0
  8 26  1  0  0  0  0
  9  8  1  0  0  0  0
 10 15  1  0  0  0  0
 11 12  1  0  0  0  0
 11 10  2  0  0  0  0
 12 13  2  0  0  0  0
 13 32  1  0  0  0  0
 13 14  1  0  0  0  0
 14 33  1  0  0  0  0
 15 14  2  0  0  0  0
 15  5  1  0  0  0  0
 16 17  1  0  0  0  0
 16  3  1  0  0  0  0
 17 34  1  0  0  0  0
 18 35  1  0  0  0  0
 18 17  2  0  0  0  0
 19 18  1  0  0  0  0
 20 19  2  0  0  0  0
 20 21  1  0  0  0  0
 21 16  2  0  0  0  0
 24  7  1  0  0  0  0
 25  7  1  0  0  0  0
 28  9  1  0  0  0  0
 29  9  1  0  0  0  0
 30 11  1  0  0  0  0
 31 12  1  0  0  0  0
 36 19  1  0  0  0  0
 37 20  1  0  0  0  0
M  END
