1,3
 OpenBabel05122313063D

  4  3  0  0  0  0  0  0  0  0999 V2000
   -1.9661   -2.2778   -0.8262 Se  0  0  0  0  0  0  0  0  0  0  0  0
    0.6159   -3.3471   -1.7083 S   0  0  0  0  0  0  0  0  0  0  0  0
    1.1720   -2.0383   -0.9945 N   0  0  0  0  0  0  0  0  0  0  0  0
   -0.9594   -3.5830   -1.6796 N   0  0  0  0  0  0  0  0  0  0  0  0
  2  4  1  0  0  0  0
  2  3  1  0  0  0  0
  4  1  1  0  0  0  0
M  END
