1,2,3,4,14
q = -1.0, confidence = 0.0

 47 48  0  0  1  0  0  0  0  0999 V2000
    1.1704   -1.0961   -1.3632 N   0  0  2  0  0  0  0  0  0  0  0  0
   -0.3752    1.1987   -1.4197 N   0  0  0  0  0  0  0  0  0  0  0  0
   -0.3795    1.1649    1.4452 N   0  0  0  0  0  0  0  0  0  0  0  0
    1.1659   -1.1282    1.3388 N   0  0  1  0  0  0  0  0  0  0  0  0
    0.3027   -0.8413   -2.5575 C   0  0  0  0  0  0  0  0  0  0  0  0
    0.0771    0.6589   -2.7304 C   0  0  0  0  0  0  0  0  0  0  0  0
   -0.3475    2.6691   -1.2745 C   0  0  0  0  0  0  0  0  0  0  0  0
   -1.0142    3.1083    0.0344 C   0  0  0  0  0  0  0  0  0  0  0  0
   -0.3517    2.6383    1.3347 C   0  0  0  0  0  0  0  0  0  0  0  0
    0.0700    0.5946    2.7440 C   0  0  0  0  0  0  0  0  0  0  0  0
    0.2948   -0.9012    2.5362 C   0  0  0  0  0  0  0  0  0  0  0  0
    2.6127   -0.8188    1.6275 C   0  0  0  0  0  0  0  0  0  0  0  0
    2.9151    0.6378    1.2988 C   0  0  0  0  0  0  0  0  0  0  0  0
    2.1847    1.0490    0.0151 C   0  0  0  0  0  3  0  0  0  0  0  0
    2.9184    0.6694   -1.2764 C   0  0  0  0  0  0  0  0  0  0  0  0
    2.6178   -0.7792   -1.6403 C   0  0  0  0  0  0  0  0  0  0  0  0
    1.0127   -2.4817   -0.8084 C   0  0  0  0  0  0  0  0  0  0  0  0
    1.0089   -2.5001    0.7509 C   0  0  0  0  0  0  0  0  0  0  0  0
   -1.3780    0.9149   -1.3432 H   0  0  0  0  0  0  0  0  0  0  0  0
   -1.3819    0.8822    1.3610 H   0  0  0  0  0  0  0  0  0  0  0  0
    0.7428   -1.2933   -3.4721 H   0  0  0  0  0  0  0  0  0  0  0  0
   -0.6710   -1.3268   -2.3599 H   0  0  0  0  0  0  0  0  0  0  0  0
    0.9941    1.1872   -3.0485 H   0  0  0  0  0  0  0  0  0  0  0  0
   -0.6898    0.8380   -3.5144 H   0  0  0  0  0  0  0  0  0  0  0  0
    0.7041    3.0163   -1.3315 H   0  0  0  0  0  0  0  0  0  0  0  0
   -0.8885    3.1334   -2.1284 H   0  0  0  0  0  0  0  0  0  0  0  0
   -1.0486    4.2160    0.0474 H   0  0  0  0  0  0  0  0  0  0  0  0
   -2.0754    2.7736    0.0285 H   0  0  0  0  0  0  0  0  0  0  0  0
    0.6996    2.9839    1.4032 H   0  0  0  0  0  0  0  0  0  0  0  0
   -0.8955    3.0823    2.1976 H   0  0  0  0  0  0  0  0  0  0  0  0
    0.9866    1.1148    3.0761 H   0  0  0  0  0  0  0  0  0  0  0  0
   -0.6986    0.7558    3.5303 H   0  0  0  0  0  0  0  0  0  0  0  0
    0.7314   -1.3755    3.4412 H   0  0  0  0  0  0  0  0  0  0  0  0
   -0.6790   -1.3805    2.3240 H   0  0  0  0  0  0  0  0  0  0  0  0
    3.2242   -1.4861    0.9935 H   0  0  0  0  0  0  0  0  0  0  0  0
    2.8441   -1.0902    2.6797 H   0  0  0  0  0  0  0  0  0  0  0  0
    4.0156    0.7717    1.1999 H   0  0  0  0  0  0  0  0  0  0  0  0
    2.6191    1.2985    2.1354 H   0  0  0  0  0  0  0  0  0  0  0  0
    2.0174    2.1441    0.0283 H   0  0  0  0  0  0  0  0  0  0  0  0
    4.0185    0.8017   -1.1717 H   0  0  0  0  0  0  0  0  0  0  0  0
    2.6239    1.3497   -2.0977 H   0  0  0  0  0  0  0  0  0  0  0  0
    2.8525   -1.0256   -2.6979 H   0  0  0  0  0  0  0  0  0  0  0  0
    3.2280   -1.4608   -1.0204 H   0  0  0  0  0  0  0  0  0  0  0  0
    1.8042   -3.1380   -1.2246 H   0  0  0  0  0  0  0  0  0  0  0  0
    0.0416   -2.8723   -1.1564 H   0  0  0  0  0  0  0  0  0  0  0  0
    1.7975   -3.1673    1.1554 H   0  0  0  0  0  0  0  0  0  0  0  0
    0.0355   -2.8970    1.0851 H   0  0  0  0  0  0  0  0  0  0  0  0
  1  5  1  6  0  0  0
  1 17  1  0  0  0  0
  2 19  1  0  0  0  0
  2  7  1  0  0  0  0
  3 10  1  0  0  0  0
  4 18  1  1  0  0  0
  4 12  1  0  0  0  0
  4 11  1  0  0  0  0
  5 22  1  0  0  0  0
  6  5  1  0  0  0  0
  6  2  1  0  0  0  0
  7  8  1  0  0  0  0
  8 27  1  0  0  0  0
  8  9  1  0  0  0  0
  9 29  1  0  0  0  0
  9  3  1  0  0  0  0
  9 30  1  0  0  0  0
 10 31  1  0  0  0  0
 10 32  1  0  0  0  0
 11 10  1  0  0  0  0
 11 33  1  0  0  0  0
 12 36  1  0  0  0  0
 13 12  1  0  0  0  0
 13 38  1  0  0  0  0
 14 39  1  0  0  0  0
 14 13  1  0  0  0  0
 15 40  1  0  0  0  0
 15 14  1  0  0  0  0
 16  1  1  0  0  0  0
 16 15  1  0  0  0  0
 16 43  1  0  0  0  0
 17 18  1  0  0  0  0
 18 47  1  0  0  0  0
 18 46  1  0  0  0  0
 20  3  1  0  0  0  0
 21  5  1  0  0  0  0
 23  6  1  0  0  0  0
 24  6  1  0  0  0  0
 25  7  1  0  0  0  0
 26  7  1  0  0  0  0
 28  8  1  0  0  0  0
 34 11  1  0  0  0  0
 35 12  1  0  0  0  0
 37 13  1  0  0  0  0
 41 15  1  0  0  0  0
 42 16  1  0  0  0  0
 44 17  1  0  0  0  0
 45 17  1  0  0  0  0
M  END
