1,2,3
q = 0.0, confidence = 1.0

 59 62  0  0  0  0  0  0  0  0999 V2000
    0.2141   -2.0966    2.3000 S   0  0  0  0  0  0  0  0  0  0  0  0
    1.6848    0.1805    0.2559 P   0  0  0  0  0  0  0  0  0  0  0  0
   -1.8737   -0.2461    0.4285 P   0  0  0  0  0  0  0  0  0  0  0  0
    1.7089    0.2912    2.1061 C   0  0  0  0  0  0  0  0  0  0  0  0
    2.5946    0.8612    2.4545 H   0  0  0  0  0  0  0  0  0  0  0  0
    0.8165    0.8927    2.3809 H   0  0  0  0  0  0  0  0  0  0  0  0
    1.6741   -1.0891    2.7589 C   0  0  0  0  0  0  0  0  0  0  0  0
    1.7365   -1.0157    3.8640 H   0  0  0  0  0  0  0  0  0  0  0  0
    2.5209   -1.7161    2.4104 H   0  0  0  0  0  0  0  0  0  0  0  0
   -1.1629   -1.1260    3.0492 C   0  0  0  0  0  0  0  0  0  0  0  0
   -1.4971   -1.6527    3.9662 H   0  0  0  0  0  0  0  0  0  0  0  0
   -0.7672   -0.1388    3.3583 H   0  0  0  0  0  0  0  0  0  0  0  0
   -2.3287   -0.9944    2.0678 C   0  0  0  0  0  0  0  0  0  0  0  0
   -3.1717   -0.4303    2.5183 H   0  0  0  0  0  0  0  0  0  0  0  0
   -2.7024   -1.9988    1.7765 H   0  0  0  0  0  0  0  0  0  0  0  0
    1.5285    1.9263   -0.3122 C   0  0  0  0  0  0  0  0  0  0  0  0
    1.3513    2.1459   -1.6944 C   0  0  0  0  0  0  0  0  0  0  0  0
    1.2011    1.2870   -2.3665 H   0  0  0  0  0  0  0  0  0  0  0  0
    1.3489    3.4501   -2.2063 C   0  0  0  0  0  0  0  0  0  0  0  0
    1.2159    3.6092   -3.2871 H   0  0  0  0  0  0  0  0  0  0  0  0
    1.5096    4.5479   -1.3450 C   0  0  0  0  0  0  0  0  0  0  0  0
    1.5067    5.5723   -1.7477 H   0  0  0  0  0  0  0  0  0  0  0  0
    1.6672    4.3341    0.0321 C   0  0  0  0  0  0  0  0  0  0  0  0
    1.7805    5.1893    0.7154 H   0  0  0  0  0  0  0  0  0  0  0  0
    1.6834    3.0292    0.5489 C   0  0  0  0  0  0  0  0  0  0  0  0
    1.8162    2.8868    1.6305 H   0  0  0  0  0  0  0  0  0  0  0  0
    3.4318   -0.1458   -0.2486 C   0  0  0  0  0  0  0  0  0  0  0  0
    3.6435   -0.6924   -1.5311 C   0  0  0  0  0  0  0  0  0  0  0  0
    2.7795   -0.9951   -2.1408 H   0  0  0  0  0  0  0  0  0  0  0  0
    4.9474   -0.8708   -2.0114 C   0  0  0  0  0  0  0  0  0  0  0  0
    5.1032   -1.3013   -3.0120 H   0  0  0  0  0  0  0  0  0  0  0  0
    6.0495   -0.5239   -1.2127 C   0  0  0  0  0  0  0  0  0  0  0  0
    7.0729   -0.6761   -1.5879 H   0  0  0  0  0  0  0  0  0  0  0  0
    5.8433    0.0128    0.0668 C   0  0  0  0  0  0  0  0  0  0  0  0
    6.7024    0.2856    0.6984 H   0  0  0  0  0  0  0  0  0  0  0  0
    4.5379    0.2084    0.5455 C   0  0  0  0  0  0  0  0  0  0  0  0
    4.3976    0.6458    1.5456 H   0  0  0  0  0  0  0  0  0  0  0  0
   -1.7840    1.5714    0.7180 C   0  0  0  0  0  0  0  0  0  0  0  0
   -1.8203    2.1706    1.9923 C   0  0  0  0  0  0  0  0  0  0  0  0
   -1.9121    1.5558    2.8994 H   0  0  0  0  0  0  0  0  0  0  0  0
   -1.7708    3.5696    2.1210 C   0  0  0  0  0  0  0  0  0  0  0  0
   -1.8036    4.0257    3.1223 H   0  0  0  0  0  0  0  0  0  0  0  0
   -1.7002    4.3793    0.9792 C   0  0  0  0  0  0  0  0  0  0  0  0
   -1.6687    5.4747    1.0800 H   0  0  0  0  0  0  0  0  0  0  0  0
   -1.6677    3.7876   -0.2949 C   0  0  0  0  0  0  0  0  0  0  0  0
   -1.6055    4.4167   -1.1947 H   0  0  0  0  0  0  0  0  0  0  0  0
   -1.6979    2.3950   -0.4257 C   0  0  0  0  0  0  0  0  0  0  0  0
   -1.6650    1.9336   -1.4247 H   0  0  0  0  0  0  0  0  0  0  0  0
   -3.4412   -0.3412   -0.5385 C   0  0  0  0  0  0  0  0  0  0  0  0
   -4.5793    0.3517   -0.0744 C   0  0  0  0  0  0  0  0  0  0  0  0
   -4.5270    0.9463    0.8514 H   0  0  0  0  0  0  0  0  0  0  0  0
   -5.7767    0.3059   -0.8017 C   0  0  0  0  0  0  0  0  0  0  0  0
   -6.6620    0.8458   -0.4326 H   0  0  0  0  0  0  0  0  0  0  0  0
   -5.8397   -0.4195   -2.0030 C   0  0  0  0  0  0  0  0  0  0  0  0
   -6.7785   -0.4522   -2.5770 H   0  0  0  0  0  0  0  0  0  0  0  0
   -4.7043   -1.0974   -2.4722 C   0  0  0  0  0  0  0  0  0  0  0  0
   -4.7490   -1.6647   -3.4141 H   0  0  0  0  0  0  0  0  0  0  0  0
   -3.5048   -1.0644   -1.7441 C   0  0  0  0  0  0  0  0  0  0  0  0
   -2.6200   -1.6133   -2.0953 H   0  0  0  0  0  0  0  0  0  0  0  0
  1  7  1  0  0  0  0
  1 10  1  0  0  0  0
  2  4  1  0  0  0  0
  3 38  1  0  0  0  0
  3 13  1  0  0  0  0
  4  6  1  0  0  0  0
  4  5  1  0  0  0  0
  4  7  1  0  0  0  0
  7  8  1  0  0  0  0
  9  7  1  0  0  0  0
 10 12  1  0  0  0  0
 10 11  1  0  0  0  0
 13 14  1  0  0  0  0
 13 10  1  0  0  0  0
 15 13  1  0  0  0  0
 16  2  1  0  0  0  0
 16 25  1  0  0  0  0
 17 16  2  0  0  0  0
 18 17  1  0  0  0  0
 19 17  1  0  0  0  0
 19 21  2  0  0  0  0
 20 19  1  0  0  0  0
 21 23  1  0  0  0  0
 22 21  1  0  0  0  0
 23 25  2  0  0  0  0
 23 24  1  0  0  0  0
 25 26  1  0  0  0  0
 27  2  1  0  0  0  0
 27 36  1  0  0  0  0
 28 27  2  0  0  0  0
 29 28  1  0  0  0  0
 30 28  1  0  0  0  0
 30 32  2  0  0  0  0
 31 30  1  0  0  0  0
 32 34  1  0  0  0  0
 33 32  1  0  0  0  0
 34 36  2  0  0  0  0
 34 35  1  0  0  0  0
 36 37  1  0  0  0  0
 38 39  1  0  0  0  0
 39 41  2  0  0  0  0
 39 40  1  0  0  0  0
 41 42  1  0  0  0  0
 43 44  1  0  0  0  0
 43 41  1  0  0  0  0
 45 43  2  0  0  0  0
 46 45  1  0  0  0  0
 47 45  1  0  0  0  0
 47 38  2  0  0  0  0
 48 47  1  0  0  0  0
 49 50  1  0  0  0  0
 49  3  1  0  0  0  0
 50 51  1  0  0  0  0
 52 53  1  0  0  0  0
 52 50  2  0  0  0  0
 54 52  1  0  0  0  0
 55 54  1  0  0  0  0
 56 54  2  0  0  0  0
 56 58  1  0  0  0  0
 57 56  1  0  0  0  0
 58 49  2  0  0  0  0
 59 58  1  0  0  0  0
M  END
