1,2,3
 OpenBabel05122313063D

 72 76  0  0  0  0  0  0  0  0999 V2000
   -0.7880   -2.3576   -0.0722 S   0  0  0  0  0  0  0  0  0  0  0  0
   -1.1099    1.0706   -0.3613 P   0  0  0  0  0  0  0  0  0  0  0  0
    1.8912   -0.3857   -0.2353 P   0  0  0  0  0  0  0  0  0  0  0  0
   -0.0413   -0.8710   -3.9313 C   0  0  0  0  0  0  0  0  0  0  0  0
    0.2019    0.0958   -4.4174 H   0  0  0  0  0  0  0  0  0  0  0  0
   -1.0379   -1.1973   -4.2931 H   0  0  0  0  0  0  0  0  0  0  0  0
    0.7088   -1.6183   -4.2632 H   0  0  0  0  0  0  0  0  0  0  0  0
   -0.0330   -0.7202   -2.3927 C   0  0  0  0  0  0  0  0  0  0  0  0
   -0.2211   -2.1509   -1.8281 C   0  0  0  0  0  0  0  0  0  0  0  0
    0.7298   -2.7163   -1.8909 H   0  0  0  0  0  0  0  0  0  0  0  0
   -0.9718   -2.6953   -2.4328 H   0  0  0  0  0  0  0  0  0  0  0  0
   -1.2271    0.1994   -2.0138 C   0  0  0  0  0  0  0  0  0  0  0  0
   -2.1543   -0.4084   -1.9935 H   0  0  0  0  0  0  0  0  0  0  0  0
   -1.3603    0.9687   -2.8013 H   0  0  0  0  0  0  0  0  0  0  0  0
    1.3435   -0.1068   -2.0059 C   0  0  0  0  0  0  0  0  0  0  0  0
    1.3012    0.9898   -2.1665 H   0  0  0  0  0  0  0  0  0  0  0  0
    2.1309   -0.5073   -2.6771 H   0  0  0  0  0  0  0  0  0  0  0  0
   -2.5682   -2.5582   -0.3403 C   0  0  0  0  0  0  0  0  0  0  0  0
   -3.0140   -3.6663   -1.0898 C   0  0  0  0  0  0  0  0  0  0  0  0
   -2.2860   -4.3787   -1.5077 H   0  0  0  0  0  0  0  0  0  0  0  0
   -4.3872   -3.8666   -1.2860 C   0  0  0  0  0  0  0  0  0  0  0  0
   -4.7314   -4.7306   -1.8748 H   0  0  0  0  0  0  0  0  0  0  0  0
   -5.3200   -2.9820   -0.7166 C   0  0  0  0  0  0  0  0  0  0  0  0
   -6.3976   -3.1456   -0.8676 H   0  0  0  0  0  0  0  0  0  0  0  0
   -4.8717   -1.8992    0.0534 C   0  0  0  0  0  0  0  0  0  0  0  0
   -5.5890   -1.1992    0.5075 H   0  0  0  0  0  0  0  0  0  0  0  0
   -3.4970   -1.6854    0.2444 C   0  0  0  0  0  0  0  0  0  0  0  0
   -3.1422   -0.8375    0.8428 H   0  0  0  0  0  0  0  0  0  0  0  0
   -2.8454    1.6440   -0.0720 C   0  0  0  0  0  0  0  0  0  0  0  0
   -3.8960    1.5199   -1.0021 C   0  0  0  0  0  0  0  0  0  0  0  0
   -3.7239    1.0634   -1.9873 H   0  0  0  0  0  0  0  0  0  0  0  0
   -5.1876    1.9641   -0.6740 C   0  0  0  0  0  0  0  0  0  0  0  0
   -6.0027    1.8531   -1.4057 H   0  0  0  0  0  0  0  0  0  0  0  0
   -5.4395    2.5416    0.5795 C   0  0  0  0  0  0  0  0  0  0  0  0
   -6.4532    2.8849    0.8359 H   0  0  0  0  0  0  0  0  0  0  0  0
   -4.3928    2.6773    1.5072 C   0  0  0  0  0  0  0  0  0  0  0  0
   -4.5819    3.1256    2.4942 H   0  0  0  0  0  0  0  0  0  0  0  0
   -3.1052    2.2285    1.1857 C   0  0  0  0  0  0  0  0  0  0  0  0
   -2.2880    2.3156    1.9188 H   0  0  0  0  0  0  0  0  0  0  0  0
   -0.3411    2.6944   -0.8514 C   0  0  0  0  0  0  0  0  0  0  0  0
   -0.9007    3.4709   -1.8898 C   0  0  0  0  0  0  0  0  0  0  0  0
   -1.8160    3.1331   -2.4016 H   0  0  0  0  0  0  0  0  0  0  0  0
   -0.3147    4.6879   -2.2615 C   0  0  0  0  0  0  0  0  0  0  0  0
   -0.7609    5.2846   -3.0719 H   0  0  0  0  0  0  0  0  0  0  0  0
    0.8331    5.1506   -1.5932 C   0  0  0  0  0  0  0  0  0  0  0  0
    1.2921    6.1076   -1.8853 H   0  0  0  0  0  0  0  0  0  0  0  0
    1.3819    4.3946   -0.5484 C   0  0  0  0  0  0  0  0  0  0  0  0
    2.2769    4.7462   -0.0137 H   0  0  0  0  0  0  0  0  0  0  0  0
    0.7954    3.1731   -0.1766 C   0  0  0  0  0  0  0  0  0  0  0  0
    1.2260    2.5877    0.6450 H   0  0  0  0  0  0  0  0  0  0  0  0
    3.2289    0.8656   -0.0006 C   0  0  0  0  0  0  0  0  0  0  0  0
    3.7303    1.6961   -1.0218 C   0  0  0  0  0  0  0  0  0  0  0  0
    3.3310    1.6335   -2.0441 H   0  0  0  0  0  0  0  0  0  0  0  0
    4.7385    2.6326   -0.7405 C   0  0  0  0  0  0  0  0  0  0  0  0
    5.1154    3.2831   -1.5446 H   0  0  0  0  0  0  0  0  0  0  0  0
    5.2571    2.7436    0.5582 C   0  0  0  0  0  0  0  0  0  0  0  0
    6.0435    3.4818    0.7775 H   0  0  0  0  0  0  0  0  0  0  0  0
    4.7666    1.9113    1.5785 C   0  0  0  0  0  0  0  0  0  0  0  0
    5.1643    1.9949    2.6010 H   0  0  0  0  0  0  0  0  0  0  0  0
    3.7572    0.9797    1.3026 C   0  0  0  0  0  0  0  0  0  0  0  0
    3.3585    0.3398    2.1049 H   0  0  0  0  0  0  0  0  0  0  0  0
    2.9262   -1.9242   -0.4243 C   0  0  0  0  0  0  0  0  0  0  0  0
    4.0865   -1.9093   -1.2282 C   0  0  0  0  0  0  0  0  0  0  0  0
    4.4054   -0.9752   -1.7171 H   0  0  0  0  0  0  0  0  0  0  0  0
    4.8528   -3.0713   -1.3911 C   0  0  0  0  0  0  0  0  0  0  0  0
    5.7582   -3.0455   -2.0168 H   0  0  0  0  0  0  0  0  0  0  0  0
    4.4727   -4.2623   -0.7485 C   0  0  0  0  0  0  0  0  0  0  0  0
    5.0776   -5.1734   -0.8729 H   0  0  0  0  0  0  0  0  0  0  0  0
    3.3267   -4.2817    0.0594 C   0  0  0  0  0  0  0  0  0  0  0  0
    3.0269   -5.2065    0.5752 H   0  0  0  0  0  0  0  0  0  0  0  0
    2.5581   -3.1175    0.2245 C   0  0  0  0  0  0  0  0  0  0  0  0
    1.6637   -3.1352    0.8631 H   0  0  0  0  0  0  0  0  0  0  0  0
  2 29  1  0  0  0  0
  3 51  1  0  0  0  0
  4  8  1  0  0  0  0
  5  4  1  0  0  0  0
  6  4  1  0  0  0  0
  7  4  1  0  0  0  0
  8 12  1  0  0  0  0
  8 15  1  0  0  0  0
  8  9  1  0  0  0  0
  9  1  1  0  0  0  0
 10  9  1  0  0  0  0
 11  9  1  0  0  0  0
 12 13  1  0  0  0  0
 12  2  1  0  0  0  0
 14 12  1  0  0  0  0
 15  3  1  0  0  0  0
 16 15  1  0  0  0  0
 17 15  1  0  0  0  0
 18  1  1  0  0  0  0
 18 27  1  0  0  0  0
 19 18  2  0  0  0  0
 20 19  1  0  0  0  0
 21 19  1  0  0  0  0
 21 23  2  0  0  0  0
 22 21  1  0  0  0  0
 23 25  1  0  0  0  0
 24 23  1  0  0  0  0
 25 27  2  0  0  0  0
 25 26  1  0  0  0  0
 27 28  1  0  0  0  0
 29 38  1  0  0  0  0
 30 32  1  0  0  0  0
 30 29  2  0  0  0  0
 31 30  1  0  0  0  0
 32 34  2  0  0  0  0
 33 32  1  0  0  0  0
 34 35  1  0  0  0  0
 34 36  1  0  0  0  0
 36 37  1  0  0  0  0
 38 36  2  0  0  0  0
 38 39  1  0  0  0  0
 40  2  1  0  0  0  0
 40 49  1  0  0  0  0
 41 40  2  0  0  0  0
 42 41  1  0  0  0  0
 43 41  1  0  0  0  0
 43 45  2  0  0  0  0
 44 43  1  0  0  0  0
 45 47  1  0  0  0  0
 46 45  1  0  0  0  0
 47 49  2  0  0  0  0
 47 48  1  0  0  0  0
 49 50  1  0  0  0  0
 51 60  1  0  0  0  0
 52 54  1  0  0  0  0
 52 51  2  0  0  0  0
 53 52  1  0  0  0  0
 54 56  2  0  0  0  0
 55 54  1  0  0  0  0
 56 57  1  0  0  0  0
 56 58  1  0  0  0  0
 58 59  1  0  0  0  0
 60 58  2  0  0  0  0
 60 61  1  0  0  0  0
 62  3  1  0  0  0  0
 62 71  1  0  0  0  0
 63 62  2  0  0  0  0
 64 63  1  0  0  0  0
 65 63  1  0  0  0  0
 65 67  2  0  0  0  0
 66 65  1  0  0  0  0
 67 69  1  0  0  0  0
 68 67  1  0  0  0  0
 69 71  2  0  0  0  0
 69 70  1  0  0  0  0
 71 72  1  0  0  0  0
M  END
