1,2,3
 OpenBabel05122313063D

 65 69  0  0  0  0  0  0  0  0999 V2000
    0.1306   -2.2178   -1.0339 S   0  0  0  0  0  0  0  0  0  0  0  0
   -2.2416    0.1161   -0.5971 P   0  0  0  0  0  0  0  0  0  0  0  0
    2.3124   -0.1878    0.4396 P   0  0  0  0  0  0  0  0  0  0  0  0
   -2.6805   -1.0535   -1.9821 C   0  0  0  0  0  0  0  0  0  0  0  0
   -2.6658   -2.5247   -1.5394 C   0  0  0  0  0  0  0  0  0  0  0  0
   -1.4613   -2.9586   -0.7569 C   0  0  0  0  0  0  0  0  0  0  0  0
   -1.3398   -3.9498    0.1843 C   0  0  0  0  0  0  0  0  0  0  0  0
   -0.0099   -4.1063    0.7121 C   0  0  0  0  0  0  0  0  0  0  0  0
    0.9132   -3.2311    0.1951 C   0  0  0  0  0  0  0  0  0  0  0  0
    2.3641   -3.0525    0.5218 C   0  0  0  0  0  0  0  0  0  0  0  0
    2.6905   -1.7805    1.3275 C   0  0  0  0  0  0  0  0  0  0  0  0
   -3.3773    2.6559   -0.2062 C   0  0  0  0  0  0  0  0  0  0  0  0
   -3.7770    3.9360   -0.6154 C   0  0  0  0  0  0  0  0  0  0  0  0
   -3.6649    4.3149   -1.9625 C   0  0  0  0  0  0  0  0  0  0  0  0
   -3.1478    3.4109   -2.9039 C   0  0  0  0  0  0  0  0  0  0  0  0
   -2.7434    2.1295   -2.5026 C   0  0  0  0  0  0  0  0  0  0  0  0
   -2.8644    1.7426   -1.1511 C   0  0  0  0  0  0  0  0  0  0  0  0
   -2.7312   -0.9500    1.9395 C   0  0  0  0  0  0  0  0  0  0  0  0
   -3.5400   -1.4192    2.9856 C   0  0  0  0  0  0  0  0  0  0  0  0
   -4.9377   -1.3486    2.8767 C   0  0  0  0  0  0  0  0  0  0  0  0
   -5.5308   -0.8067    1.7229 C   0  0  0  0  0  0  0  0  0  0  0  0
   -4.7285   -0.3359    0.6742 C   0  0  0  0  0  0  0  0  0  0  0  0
   -3.3230   -0.4077    0.7813 C   0  0  0  0  0  0  0  0  0  0  0  0
    2.3791    1.2511    2.8272 C   0  0  0  0  0  0  0  0  0  0  0  0
    2.8695    2.2077    3.7254 C   0  0  0  0  0  0  0  0  0  0  0  0
    3.9724    3.0037    3.3729 C   0  0  0  0  0  0  0  0  0  0  0  0
    4.5831    2.8407    2.1207 C   0  0  0  0  0  0  0  0  0  0  0  0
    4.1039    1.8776    1.2184 C   0  0  0  0  0  0  0  0  0  0  0  0
    3.0026    1.0746    1.5729 C   0  0  0  0  0  0  0  0  0  0  0  0
    4.7076   -0.7036   -0.9999 C   0  0  0  0  0  0  0  0  0  0  0  0
    5.4931   -0.7007   -2.1613 C   0  0  0  0  0  0  0  0  0  0  0  0
    4.9680   -0.2064   -3.3674 C   0  0  0  0  0  0  0  0  0  0  0  0
    3.6546    0.2863   -3.4141 C   0  0  0  0  0  0  0  0  0  0  0  0
    2.8621    0.2812   -2.2565 C   0  0  0  0  0  0  0  0  0  0  0  0
    3.3840   -0.2132   -1.0427 C   0  0  0  0  0  0  0  0  0  0  0  0
   -1.9442   -0.8743   -2.7933 H   0  0  0  0  0  0  0  0  0  0  0  0
   -3.6787   -0.7826   -2.3808 H   0  0  0  0  0  0  0  0  0  0  0  0
   -2.7717   -3.1580   -2.4485 H   0  0  0  0  0  0  0  0  0  0  0  0
   -3.5554   -2.7356   -0.9110 H   0  0  0  0  0  0  0  0  0  0  0  0
   -2.1954   -4.5588    0.5092 H   0  0  0  0  0  0  0  0  0  0  0  0
    0.2551   -4.8555    1.4720 H   0  0  0  0  0  0  0  0  0  0  0  0
    2.6795   -3.9341    1.1165 H   0  0  0  0  0  0  0  0  0  0  0  0
    2.9749   -3.0693   -0.4063 H   0  0  0  0  0  0  0  0  0  0  0  0
    2.1051   -1.7537    2.2694 H   0  0  0  0  0  0  0  0  0  0  0  0
    3.7625   -1.7632    1.6124 H   0  0  0  0  0  0  0  0  0  0  0  0
   -3.4701    2.3648    0.8511 H   0  0  0  0  0  0  0  0  0  0  0  0
   -4.1801    4.6422    0.1256 H   0  0  0  0  0  0  0  0  0  0  0  0
   -3.9808    5.3197   -2.2802 H   0  0  0  0  0  0  0  0  0  0  0  0
   -3.0576    3.7045   -3.9604 H   0  0  0  0  0  0  0  0  0  0  0  0
   -2.3299    1.4367   -3.2510 H   0  0  0  0  0  0  0  0  0  0  0  0
   -1.6305   -0.9953    2.0037 H   0  0  0  0  0  0  0  0  0  0  0  0
   -3.0771   -1.8383    3.8915 H   0  0  0  0  0  0  0  0  0  0  0  0
   -5.5722   -1.7138    3.6982 H   0  0  0  0  0  0  0  0  0  0  0  0
   -6.6265   -0.7471    1.6423 H   0  0  0  0  0  0  0  0  0  0  0  0
   -5.1964    0.1000   -0.2225 H   0  0  0  0  0  0  0  0  0  0  0  0
    1.4962    0.6493    3.0978 H   0  0  0  0  0  0  0  0  0  0  0  0
    2.3824    2.3396    4.7030 H   0  0  0  0  0  0  0  0  0  0  0  0
    4.3518    3.7597    4.0764 H   0  0  0  0  0  0  0  0  0  0  0  0
    5.4408    3.4692    1.8384 H   0  0  0  0  0  0  0  0  0  0  0  0
    4.5853    1.7570    0.2370 H   0  0  0  0  0  0  0  0  0  0  0  0
    5.1361   -1.0804   -0.0586 H   0  0  0  0  0  0  0  0  0  0  0  0
    6.5236   -1.0843   -2.1243 H   0  0  0  0  0  0  0  0  0  0  0  0
    5.5887   -0.2060   -4.2760 H   0  0  0  0  0  0  0  0  0  0  0  0
    3.2438    0.6756   -4.3574 H   0  0  0  0  0  0  0  0  0  0  0  0
    1.8264    0.6598   -2.2788 H   0  0  0  0  0  0  0  0  0  0  0  0
  1  6  1  0  0  0  0
  1  9  1  0  0  0  0
  2 23  1  0  0  0  0
  3 11  1  0  0  0  0
  3 29  1  0  0  0  0
  4  5  1  0  0  0  0
  4  2  1  0  0  0  0
  5 39  1  0  0  0  0
  5  6  1  0  0  0  0
  6  7  2  0  0  0  0
  7 40  1  0  0  0  0
  7  8  1  0  0  0  0
  8 41  1  0  0  0  0
  9 10  1  0  0  0  0
  9  8  2  0  0  0  0
 10 42  1  0  0  0  0
 10 11  1  0  0  0  0
 11 45  1  0  0  0  0
 11 44  1  0  0  0  0
 12 46  1  0  0  0  0
 13 12  1  0  0  0  0
 13 47  1  0  0  0  0
 14 13  2  0  0  0  0
 15 16  2  0  0  0  0
 15 14  1  0  0  0  0
 16 17  1  0  0  0  0
 17  2  1  0  0  0  0
 17 12  2  0  0  0  0
 18 51  1  0  0  0  0
 18 19  1  0  0  0  0
 19 52  1  0  0  0  0
 20 19  2  0  0  0  0
 20 53  1  0  0  0  0
 21 20  1  0  0  0  0
 22 23  1  0  0  0  0
 22 21  2  0  0  0  0
 23 18  2  0  0  0  0
 24 56  1  0  0  0  0
 24 25  1  0  0  0  0
 25 57  1  0  0  0  0
 26 25  2  0  0  0  0
 26 58  1  0  0  0  0
 27 26  1  0  0  0  0
 28 29  1  0  0  0  0
 28 27  2  0  0  0  0
 29 24  2  0  0  0  0
 30 61  1  0  0  0  0
 31 62  1  0  0  0  0
 31 30  2  0  0  0  0
 32 31  1  0  0  0  0
 33 32  2  0  0  0  0
 33 34  1  0  0  0  0
 34 35  2  0  0  0  0
 35 30  1  0  0  0  0
 35  3  1  0  0  0  0
 36  4  1  0  0  0  0
 37  4  1  0  0  0  0
 38  5  1  0  0  0  0
 43 10  1  0  0  0  0
 48 14  1  0  0  0  0
 49 15  1  0  0  0  0
 50 16  1  0  0  0  0
 54 21  1  0  0  0  0
 55 22  1  0  0  0  0
 59 27  1  0  0  0  0
 60 28  1  0  0  0  0
 63 32  1  0  0  0  0
 64 33  1  0  0  0  0
 65 34  1  0  0  0  0
M  END
