1,2,3
 OpenBabel05122313063D

 59 58  0  0  0  0  0  0  0  0999 V2000
   -0.1580    2.2473    0.1951 S   0  0  0  0  0  0  0  0  0  0  0  0
    2.3166   -0.2823   -0.0159 P   0  0  0  0  0  0  0  0  0  0  0  0
   -2.3354   -0.2387    0.0781 P   0  0  0  0  0  0  0  0  0  0  0  0
    3.0964    1.2268    0.1684 N   0  0  0  0  0  0  0  0  0  0  0  0
    3.9406    1.3920   -0.3844 H   0  0  0  0  0  0  0  0  0  0  0  0
   -2.8447    1.1216   -0.8237 N   0  0  0  0  0  0  0  0  0  0  0  0
   -3.7703    1.5255   -0.6654 H   0  0  0  0  0  0  0  0  0  0  0  0
    2.7725   -0.7248   -1.7747 C   0  0  0  0  0  0  0  0  0  0  0  0
    3.8736   -0.5626   -1.8279 H   0  0  0  0  0  0  0  0  0  0  0  0
    3.2645   -1.4414    1.1006 C   0  0  0  0  0  0  0  0  0  0  0  0
    2.7872   -2.4346    0.9613 H   0  0  0  0  0  0  0  0  0  0  0  0
   -3.0850   -1.7201   -0.7870 C   0  0  0  0  0  0  0  0  0  0  0  0
   -2.8370   -2.5891   -0.1404 H   0  0  0  0  0  0  0  0  0  0  0  0
   -3.2558   -0.0527    1.6867 C   0  0  0  0  0  0  0  0  0  0  0  0
   -4.3234    0.0811    1.3986 H   0  0  0  0  0  0  0  0  0  0  0  0
    2.5336    2.3950    0.8186 C   0  0  0  0  0  0  0  0  0  0  0  0
    3.3559    3.1141    1.0102 H   0  0  0  0  0  0  0  0  0  0  0  0
    2.1344    2.1288    1.8223 H   0  0  0  0  0  0  0  0  0  0  0  0
    1.4467    3.1174    0.0094 C   0  0  0  0  0  0  0  0  0  0  0  0
    1.7251    3.1639   -1.0628 H   0  0  0  0  0  0  0  0  0  0  0  0
    1.2906    4.1482    0.3868 H   0  0  0  0  0  0  0  0  0  0  0  0
   -1.9983    1.7538   -1.8210 C   0  0  0  0  0  0  0  0  0  0  0  0
   -2.6281    2.1811   -2.6298 H   0  0  0  0  0  0  0  0  0  0  0  0
   -1.3564    0.9826   -2.2970 H   0  0  0  0  0  0  0  0  0  0  0  0
   -1.0951    2.8604   -1.2676 C   0  0  0  0  0  0  0  0  0  0  0  0
   -1.6844    3.7376   -0.9319 H   0  0  0  0  0  0  0  0  0  0  0  0
   -0.3672    3.1930   -2.0353 H   0  0  0  0  0  0  0  0  0  0  0  0
    2.0792    0.2339   -2.7505 C   0  0  0  0  0  0  0  0  0  0  0  0
    2.4107    0.0313   -3.7888 H   0  0  0  0  0  0  0  0  0  0  0  0
    2.3053    1.2942   -2.5232 H   0  0  0  0  0  0  0  0  0  0  0  0
    0.9777    0.1001   -2.7098 H   0  0  0  0  0  0  0  0  0  0  0  0
    2.4759   -2.1895   -2.1126 C   0  0  0  0  0  0  0  0  0  0  0  0
    2.8437   -2.4196   -3.1328 H   0  0  0  0  0  0  0  0  0  0  0  0
    1.3852   -2.3869   -2.1005 H   0  0  0  0  0  0  0  0  0  0  0  0
    2.9636   -2.9005   -1.4175 H   0  0  0  0  0  0  0  0  0  0  0  0
    4.7502   -1.5239    0.7379 C   0  0  0  0  0  0  0  0  0  0  0  0
    5.2824   -2.1696    1.4657 H   0  0  0  0  0  0  0  0  0  0  0  0
    5.2254   -0.5220    0.7829 H   0  0  0  0  0  0  0  0  0  0  0  0
    4.9253   -1.9511   -0.2689 H   0  0  0  0  0  0  0  0  0  0  0  0
    3.0511   -0.9821    2.5494 C   0  0  0  0  0  0  0  0  0  0  0  0
    3.5246   -1.6962    3.2527 H   0  0  0  0  0  0  0  0  0  0  0  0
    1.9759   -0.9071    2.8099 H   0  0  0  0  0  0  0  0  0  0  0  0
    3.5158    0.0109    2.7182 H   0  0  0  0  0  0  0  0  0  0  0  0
   -2.3953   -1.9041   -2.1445 C   0  0  0  0  0  0  0  0  0  0  0  0
   -2.7495   -2.8343   -2.6326 H   0  0  0  0  0  0  0  0  0  0  0  0
   -1.2929   -1.9675   -2.0399 H   0  0  0  0  0  0  0  0  0  0  0  0
   -2.6323   -1.0631   -2.8281 H   0  0  0  0  0  0  0  0  0  0  0  0
   -4.6059   -1.6013   -0.9183 C   0  0  0  0  0  0  0  0  0  0  0  0
   -5.0065   -2.4650   -1.4867 H   0  0  0  0  0  0  0  0  0  0  0  0
   -4.8847   -0.6834   -1.4761 H   0  0  0  0  0  0  0  0  0  0  0  0
   -5.1216   -1.5861    0.0620 H   0  0  0  0  0  0  0  0  0  0  0  0
   -2.7805    1.1932    2.4421 C   0  0  0  0  0  0  0  0  0  0  0  0
   -3.4005    1.3425    3.3488 H   0  0  0  0  0  0  0  0  0  0  0  0
   -2.8492    2.1105    1.8257 H   0  0  0  0  0  0  0  0  0  0  0  0
   -1.7251    1.0822    2.7642 H   0  0  0  0  0  0  0  0  0  0  0  0
   -3.1230   -1.3242    2.5349 C   0  0  0  0  0  0  0  0  0  0  0  0
   -3.6733   -1.1948    3.4884 H   0  0  0  0  0  0  0  0  0  0  0  0
   -2.0618   -1.5262    2.7862 H   0  0  0  0  0  0  0  0  0  0  0  0
   -3.5374   -2.2212    2.0348 H   0  0  0  0  0  0  0  0  0  0  0  0
  2  4  1  0  0  0  0
  2 10  1  0  0  0  0
  3 14  1  0  0  0  0
  4 16  1  0  0  0  0
  5  4  1  0  0  0  0
  6  7  1  0  0  0  0
  6  3  1  0  0  0  0
  8  2  1  0  0  0  0
  9  8  1  0  0  0  0
 10 40  1  0  0  0  0
 11 10  1  0  0  0  0
 12 13  1  0  0  0  0
 12  3  1  0  0  0  0
 14 52  1  0  0  0  0
 14 56  1  0  0  0  0
 15 14  1  0  0  0  0
 16 17  1  0  0  0  0
 16 18  1  0  0  0  0
 19  1  1  0  0  0  0
 19 21  1  0  0  0  0
 19 16  1  0  0  0  0
 20 19  1  0  0  0  0
 22 25  1  0  0  0  0
 22  6  1  0  0  0  0
 23 22  1  0  0  0  0
 24 22  1  0  0  0  0
 25 26  1  0  0  0  0
 25  1  1  0  0  0  0
 27 25  1  0  0  0  0
 28 31  1  0  0  0  0
 28 30  1  0  0  0  0
 28  8  1  0  0  0  0
 29 28  1  0  0  0  0
 32 34  1  0  0  0  0
 32  8  1  0  0  0  0
 32 35  1  0  0  0  0
 33 32  1  0  0  0  0
 36 38  1  0  0  0  0
 36 10  1  0  0  0  0
 36 37  1  0  0  0  0
 39 36  1  0  0  0  0
 40 43  1  0  0  0  0
 40 42  1  0  0  0  0
 40 41  1  0  0  0  0
 44 46  1  0  0  0  0
 44 12  1  0  0  0  0
 45 44  1  0  0  0  0
 47 44  1  0  0  0  0
 48 12  1  0  0  0  0
 48 51  1  0  0  0  0
 49 48  1  0  0  0  0
 50 48  1  0  0  0  0
 52 55  1  0  0  0  0
 52 53  1  0  0  0  0
 54 52  1  0  0  0  0
 56 58  1  0  0  0  0
 56 57  1  0  0  0  0
 59 56  1  0  0  0  0
M  END
