1,4,7
 OpenBabel05122313063D

 60 63  0  0  0  0  0  0  0  0999 V2000
   -2.3518   -0.0778    0.3674 P   0  0  0  0  0  0  0  0  0  0  0  0
   -2.6569   -0.0537    2.2219 C   0  0  0  0  0  0  0  0  0  0  0  0
   -1.4762    0.5790    2.9525 C   0  0  0  0  0  0  0  0  0  0  0  0
    0.0080   -0.3660    2.4058 S   0  0  0  0  0  3  0  0  0  0  0  0
    1.5018    0.5842    2.9136 C   0  0  0  0  0  0  0  0  0  0  0  0
    2.6627   -0.0833    2.1818 C   0  0  0  0  0  0  0  0  0  0  0  0
    2.3374   -0.1045    0.3335 P   0  0  0  0  0  0  0  0  0  0  0  0
    0.0188   -1.6988    3.0880 O   0  0  0  0  0  1  0  0  0  0  0  0
   -2.9309    1.5470   -0.2279 C   0  0  0  0  0  0  0  0  0  0  0  0
   -2.0542    2.6514   -0.1627 C   0  0  0  0  0  0  0  0  0  0  0  0
   -2.4963    3.9195   -0.5628 C   0  0  0  0  0  0  0  0  0  0  0  0
   -3.8058    4.0873   -1.0424 C   0  0  0  0  0  0  0  0  0  0  0  0
   -4.6734    2.9863   -1.1226 C   0  0  0  0  0  0  0  0  0  0  0  0
   -4.2418    1.7145   -0.7174 C   0  0  0  0  0  0  0  0  0  0  0  0
   -3.4475   -1.3536   -0.3159 C   0  0  0  0  0  0  0  0  0  0  0  0
   -3.1405   -1.8760   -1.5913 C   0  0  0  0  0  0  0  0  0  0  0  0
   -3.9838   -2.8379   -2.1642 C   0  0  0  0  0  0  0  0  0  0  0  0
   -5.1242   -3.2815   -1.4752 C   0  0  0  0  0  0  0  0  0  0  0  0
   -5.4282   -2.7619   -0.2067 C   0  0  0  0  0  0  0  0  0  0  0  0
   -4.5942   -1.7977    0.3777 C   0  0  0  0  0  0  0  0  0  0  0  0
    3.3910   -1.4118   -0.3623 C   0  0  0  0  0  0  0  0  0  0  0  0
    4.4471   -2.0011    0.3643 C   0  0  0  0  0  0  0  0  0  0  0  0
    5.2477   -2.9784   -0.2455 C   0  0  0  0  0  0  0  0  0  0  0  0
    4.9980   -3.3688   -1.5703 C   0  0  0  0  0  0  0  0  0  0  0  0
    3.9438   -2.7836   -2.2910 C   0  0  0  0  0  0  0  0  0  0  0  0
    3.1364   -1.8065   -1.6943 C   0  0  0  0  0  0  0  0  0  0  0  0
    2.9797    1.4962   -0.2698 C   0  0  0  0  0  0  0  0  0  0  0  0
    4.3633    1.7615   -0.1746 C   0  0  0  0  0  0  0  0  0  0  0  0
    4.8658    2.9969   -0.6031 C   0  0  0  0  0  0  0  0  0  0  0  0
    3.9968    3.9649   -1.1360 C   0  0  0  0  0  0  0  0  0  0  0  0
    2.6248    3.6942   -1.2479 C   0  0  0  0  0  0  0  0  0  0  0  0
    2.1112    2.4610   -0.8178 C   0  0  0  0  0  0  0  0  0  0  0  0
   -2.7880   -1.1044    2.5530 H   0  0  0  0  0  0  0  0  0  0  0  0
   -3.5900    0.5041    2.4367 H   0  0  0  0  0  0  0  0  0  0  0  0
   -1.5307    0.4620    4.0535 H   0  0  0  0  0  0  0  0  0  0  0  0
   -1.3136    1.6425    2.6804 H   0  0  0  0  0  0  0  0  0  0  0  0
    1.5724    0.4995    4.0167 H   0  0  0  0  0  0  0  0  0  0  0  0
    1.3424    1.6394    2.6084 H   0  0  0  0  0  0  0  0  0  0  0  0
    2.7652   -1.1337    2.5231 H   0  0  0  0  0  0  0  0  0  0  0  0
    3.6123    0.4489    2.3889 H   0  0  0  0  0  0  0  0  0  0  0  0
   -1.0168    2.5050    0.1793 H   0  0  0  0  0  0  0  0  0  0  0  0
   -1.8111    4.7790   -0.5137 H   0  0  0  0  0  0  0  0  0  0  0  0
   -4.1489    5.0813   -1.3659 H   0  0  0  0  0  0  0  0  0  0  0  0
   -5.6947    3.1158   -1.5105 H   0  0  0  0  0  0  0  0  0  0  0  0
   -4.9200    0.8510   -0.7923 H   0  0  0  0  0  0  0  0  0  0  0  0
   -2.2423   -1.5271   -2.1250 H   0  0  0  0  0  0  0  0  0  0  0  0
   -3.7433   -3.2474   -3.1564 H   0  0  0  0  0  0  0  0  0  0  0  0
   -5.7803   -4.0398   -1.9279 H   0  0  0  0  0  0  0  0  0  0  0  0
   -6.3209   -3.1090    0.3344 H   0  0  0  0  0  0  0  0  0  0  0  0
   -4.8498   -1.3980    1.3700 H   0  0  0  0  0  0  0  0  0  0  0  0
    4.6577   -1.7088    1.4035 H   0  0  0  0  0  0  0  0  0  0  0  0
    6.0709   -3.4380    0.3213 H   0  0  0  0  0  0  0  0  0  0  0  0
    5.6274   -4.1375   -2.0429 H   0  0  0  0  0  0  0  0  0  0  0  0
    3.7438   -3.0935   -3.3274 H   0  0  0  0  0  0  0  0  0  0  0  0
    2.3010   -1.3529   -2.2511 H   0  0  0  0  0  0  0  0  0  0  0  0
    5.0531    0.9967    0.2165 H   0  0  0  0  0  0  0  0  0  0  0  0
    5.9442    3.2022   -0.5309 H   0  0  0  0  0  0  0  0  0  0  0  0
    4.3967    4.9312   -1.4777 H   0  0  0  0  0  0  0  0  0  0  0  0
    1.9474    4.4429   -1.6850 H   0  0  0  0  0  0  0  0  0  0  0  0
    1.0434    2.2283   -0.9419 H   0  0  0  0  0  0  0  0  0  0  0  0
  1  2  1  0  0  0  0
  2 34  1  0  0  0  0
  2 33  1  0  0  0  0
  2  3  1  0  0  0  0
  3 35  1  0  0  0  0
  4  5  1  0  0  0  0
  4  3  1  0  0  0  0
  4  8  1  0  0  0  0
  5 37  1  0  0  0  0
  6 40  1  0  0  0  0
  6 39  1  0  0  0  0
  6  5  1  0  0  0  0
  7  6  1  0  0  0  0
  9 10  1  0  0  0  0
  9  1  1  0  0  0  0
 10 41  1  0  0  0  0
 11 42  1  0  0  0  0
 11 10  2  0  0  0  0
 12 11  1  0  0  0  0
 13 12  2  0  0  0  0
 13 14  1  0  0  0  0
 14  9  2  0  0  0  0
 15  1  1  0  0  0  0
 15 20  1  0  0  0  0
 16 15  2  0  0  0  0
 17 16  1  0  0  0  0
 17 18  2  0  0  0  0
 18 19  1  0  0  0  0
 19 49  1  0  0  0  0
 19 20  2  0  0  0  0
 20 50  1  0  0  0  0
 21  7  1  0  0  0  0
 21 22  1  0  0  0  0
 22 51  1  0  0  0  0
 23 52  1  0  0  0  0
 23 22  2  0  0  0  0
 24 23  1  0  0  0  0
 25 26  1  0  0  0  0
 25 24  2  0  0  0  0
 26 21  2  0  0  0  0
 27 28  1  0  0  0  0
 27  7  1  0  0  0  0
 28 56  1  0  0  0  0
 29 57  1  0  0  0  0
 29 28  2  0  0  0  0
 30 29  1  0  0  0  0
 31 30  2  0  0  0  0
 31 32  1  0  0  0  0
 32 27  2  0  0  0  0
 36  3  1  0  0  0  0
 38  5  1  0  0  0  0
 43 12  1  0  0  0  0
 44 13  1  0  0  0  0
 45 14  1  0  0  0  0
 46 16  1  0  0  0  0
 47 17  1  0  0  0  0
 48 18  1  0  0  0  0
 53 24  1  0  0  0  0
 54 25  1  0  0  0  0
 55 26  1  0  0  0  0
 58 30  1  0  0  0  0
 59 31  1  0  0  0  0
 60 32  1  0  0  0  0
M  END
