1,2,9,21
q = -1.0, confidence = 0.02

 74 73  0  0  1  0  0  0  0  0999 V2000
   -2.2493   -0.1253   -0.1640 P   0  0  0  0  0  0  0  0  0  0  0  0
    2.3695   -0.0673   -0.2163 P   0  0  0  0  0  0  0  0  0  0  0  0
   -0.7496    2.6341   -0.5341 N   0  0  0  0  0  0  0  0  0  0  0  0
   -2.4977    1.1786   -1.4975 C   0  0  0  0  0  0  0  0  0  0  0  0
   -2.8489    0.7088   -2.4379 H   0  0  0  0  0  0  0  0  0  0  0  0
   -3.2663    1.9201   -1.2042 H   0  0  0  0  0  0  0  0  0  0  0  0
   -1.1233    1.8509   -1.7217 C   0  0  2  0  0  0  0  0  0  0  0  0
   -1.1823    2.5466   -2.5941 H   0  0  0  0  0  0  0  0  0  0  0  0
   -0.0039    0.7948   -1.8215 C   0  0  0  0  0  3  0  0  0  0  0  0
   -0.2981    0.0168   -2.5568 H   0  0  0  0  0  0  0  0  0  0  0  0
    1.3218    1.4294   -2.2850 C   0  0  0  0  0  0  0  0  0  0  0  0
    1.2931    1.6634   -3.3756 H   0  0  0  0  0  0  0  0  0  0  0  0
    1.4613    2.4025   -1.7685 H   0  0  0  0  0  0  0  0  0  0  0  0
    2.5200    0.5250   -1.9862 C   0  0  0  0  0  0  0  0  0  0  0  0
    3.4993    1.0044   -2.1948 H   0  0  0  0  0  0  0  0  0  0  0  0
    2.4665   -0.3836   -2.6215 H   0  0  0  0  0  0  0  0  0  0  0  0
   -1.1305    4.0198   -0.3891 C   0  0  0  0  0  0  0  0  0  0  0  0
   -0.7293    4.4089    0.5672 H   0  0  0  0  0  0  0  0  0  0  0  0
   -2.2372    4.1468   -0.3770 H   0  0  0  0  0  0  0  0  0  0  0  0
   -0.7269    4.6348   -1.2221 H   0  0  0  0  0  0  0  0  0  0  0  0
   -0.1556    1.8608    0.4080 C   0  0  0  0  0  2  0  0  0  0  0  0
    0.1537    2.4221    1.3222 H   0  0  0  0  0  0  0  0  0  0  0  0
   -3.4882    0.3703    1.2313 C   0  0  0  0  0  0  0  0  0  0  0  0
   -3.6378   -0.8018    2.2175 C   0  0  0  0  0  0  0  0  0  0  0  0
   -4.1473   -0.4365    3.1351 H   0  0  0  0  0  0  0  0  0  0  0  0
   -2.6490   -1.2112    2.5101 H   0  0  0  0  0  0  0  0  0  0  0  0
   -4.2605   -1.6179    1.8043 H   0  0  0  0  0  0  0  0  0  0  0  0
   -2.8383    1.5412    1.9901 C   0  0  0  0  0  0  0  0  0  0  0  0
   -3.5073    1.8447    2.8234 H   0  0  0  0  0  0  0  0  0  0  0  0
   -2.6911    2.4293    1.3446 H   0  0  0  0  0  0  0  0  0  0  0  0
   -1.8597    1.2439    2.4129 H   0  0  0  0  0  0  0  0  0  0  0  0
   -4.8679    0.8217    0.7235 C   0  0  0  0  0  0  0  0  0  0  0  0
   -5.5000    1.0953    1.5960 H   0  0  0  0  0  0  0  0  0  0  0  0
   -5.4034    0.0342    0.1635 H   0  0  0  0  0  0  0  0  0  0  0  0
   -4.8080    1.7208    0.0777 H   0  0  0  0  0  0  0  0  0  0  0  0
   -2.8082   -1.7897   -0.9587 C   0  0  0  0  0  0  0  0  0  0  0  0
   -4.2863   -1.8090   -1.3737 C   0  0  0  0  0  0  0  0  0  0  0  0
   -4.4950   -2.7419   -1.9409 H   0  0  0  0  0  0  0  0  0  0  0  0
   -4.5539   -0.9564   -2.0312 H   0  0  0  0  0  0  0  0  0  0  0  0
   -4.9650   -1.8025   -0.4999 H   0  0  0  0  0  0  0  0  0  0  0  0
   -2.5041   -2.9482    0.0128 C   0  0  0  0  0  0  0  0  0  0  0  0
   -2.5286   -3.9067   -0.5480 H   0  0  0  0  0  0  0  0  0  0  0  0
   -3.2468   -3.0233    0.8262 H   0  0  0  0  0  0  0  0  0  0  0  0
   -1.5082   -2.8385    0.4880 H   0  0  0  0  0  0  0  0  0  0  0  0
   -1.9331   -1.9986   -2.2090 C   0  0  0  0  0  0  0  0  0  0  0  0
   -2.1921   -2.9775   -2.6651 H   0  0  0  0  0  0  0  0  0  0  0  0
   -0.8579   -2.0127   -1.9456 H   0  0  0  0  0  0  0  0  0  0  0  0
   -2.0905   -1.2221   -2.9833 H   0  0  0  0  0  0  0  0  0  0  0  0
    3.5397    1.0474    0.8113 C   0  0  0  0  0  0  0  0  0  0  0  0
    3.2615    2.5042    0.3972 C   0  0  0  0  0  0  0  0  0  0  0  0
    3.8219    3.1847    1.0731 H   0  0  0  0  0  0  0  0  0  0  0  0
    2.1875    2.7587    0.4784 H   0  0  0  0  0  0  0  0  0  0  0  0
    3.5923    2.7178   -0.6384 H   0  0  0  0  0  0  0  0  0  0  0  0
    3.1540    0.8690    2.2911 C   0  0  0  0  0  0  0  0  0  0  0  0
    3.7206    1.5941    2.9140 H   0  0  0  0  0  0  0  0  0  0  0  0
    3.3767   -0.1480    2.6628 H   0  0  0  0  0  0  0  0  0  0  0  0
    2.0686    1.0312    2.4427 H   0  0  0  0  0  0  0  0  0  0  0  0
    5.0330    0.7605    0.5972 C   0  0  0  0  0  0  0  0  0  0  0  0
    5.6339    1.5068    1.1609 H   0  0  0  0  0  0  0  0  0  0  0  0
    5.3255    0.8415   -0.4695 H   0  0  0  0  0  0  0  0  0  0  0  0
    5.3269   -0.2406    0.9652 H   0  0  0  0  0  0  0  0  0  0  0  0
    3.0401   -1.8620   -0.2999 C   0  0  0  0  0  0  0  0  0  0  0  0
    3.3122   -2.3947    1.1168 C   0  0  0  0  0  0  0  0  0  0  0  0
    3.5239   -3.4843    1.0589 H   0  0  0  0  0  0  0  0  0  0  0  0
    2.4298   -2.2489    1.7736 H   0  0  0  0  0  0  0  0  0  0  0  0
    4.1956   -1.9155    1.5820 H   0  0  0  0  0  0  0  0  0  0  0  0
    4.2862   -2.0232   -1.1865 C   0  0  0  0  0  0  0  0  0  0  0  0
    4.5555   -3.1006   -1.2345 H   0  0  0  0  0  0  0  0  0  0  0  0
    5.1650   -1.4822   -0.7914 H   0  0  0  0  0  0  0  0  0  0  0  0
    4.1131   -1.6852   -2.2273 H   0  0  0  0  0  0  0  0  0  0  0  0
    1.8782   -2.6749   -0.9094 C   0  0  0  0  0  0  0  0  0  0  0  0
    2.1829   -3.7392   -1.0067 H   0  0  0  0  0  0  0  0  0  0  0  0
    1.5935   -2.3159   -1.9196 H   0  0  0  0  0  0  0  0  0  0  0  0
    0.9844   -2.6384   -0.2533 H   0  0  0  0  0  0  0  0  0  0  0  0
  1 23  1  0  0  0  0
  2 49  1  0  0  0  0
  3 17  1  0  0  0  0
  3 21  1  0  0  0  0
  4  6  1  0  0  0  0
  4  1  1  0  0  0  0
  5  4  1  0  0  0  0
  7  8  1  6  0  0  0
  7  4  1  0  0  0  0
  7  3  1  0  0  0  0
  9  7  1  0  0  0  0
 10  9  1  0  0  0  0
 11 14  1  0  0  0  0
 11  9  1  0  0  0  0
 11 13  1  0  0  0  0
 12 11  1  0  0  0  0
 14  2  1  0  0  0  0
 15 14  1  0  0  0  0
 16 14  1  0  0  0  0
 17 19  1  0  0  0  0
 17 18  1  0  0  0  0
 20 17  1  0  0  0  0
 21 22  1  0  0  0  0
 23 28  1  0  0  0  0
 23 24  1  0  0  0  0
 24 26  1  0  0  0  0
 24 25  1  0  0  0  0
 27 24  1  0  0  0  0
 28 31  1  0  0  0  0
 28 29  1  0  0  0  0
 30 28  1  0  0  0  0
 32 23  1  0  0  0  0
 32 33  1  0  0  0  0
 34 32  1  0  0  0  0
 35 32  1  0  0  0  0
 36  1  1  0  0  0  0
 36 41  1  0  0  0  0
 37 36  1  0  0  0  0
 37 40  1  0  0  0  0
 38 37  1  0  0  0  0
 39 37  1  0  0  0  0
 41 44  1  0  0  0  0
 41 43  1  0  0  0  0
 42 41  1  0  0  0  0
 45 47  1  0  0  0  0
 45 36  1  0  0  0  0
 46 45  1  0  0  0  0
 48 45  1  0  0  0  0
 49 54  1  0  0  0  0
 50 52  1  0  0  0  0
 50 49  1  0  0  0  0
 50 51  1  0  0  0  0
 53 50  1  0  0  0  0
 54 57  1  0  0  0  0
 54 56  1  0  0  0  0
 54 55  1  0  0  0  0
 58 49  1  0  0  0  0
 58 61  1  0  0  0  0
 58 59  1  0  0  0  0
 60 58  1  0  0  0  0
 62  2  1  0  0  0  0
 62 63  1  0  0  0  0
 63 66  1  0  0  0  0
 63 65  1  0  0  0  0
 64 63  1  0  0  0  0
 67 69  1  0  0  0  0
 67 62  1  0  0  0  0
 68 67  1  0  0  0  0
 70 67  1  0  0  0  0
 71 62  1  0  0  0  0
 71 74  1  0  0  0  0
 72 71  1  0  0  0  0
 73 71  1  0  0  0  0
M  END
