1,2,7,10
q = 0.0, confidence = 0.974

 82 86  0  0  1  0  0  0  0  0999 V2000
    0.3032   -0.4378   -1.6122 P   0  0  0  0  0  0  0  0  0  0  0  0
    0.3032    0.4379    1.6123 P   0  0  0  0  0  0  0  0  0  0  0  0
   -2.9516   -0.9490   -2.5958 O   0  0  0  0  0  0  0  0  0  0  0  0
   -2.9517    0.9493    2.5957 O   0  0  0  0  0  0  0  0  0  0  0  0
   -0.5682   -0.8205   -3.2217 C   0  0  0  0  0  0  0  0  0  0  0  0
   -1.8099   -1.6937   -3.0555 C   0  0  0  0  0  0  0  0  0  0  0  0
   -2.9664   -0.5033   -1.3028 C   0  0  1  0  0  3  0  0  0  0  0  0
   -3.0515    0.9335   -1.1109 C   0  0  0  0  0  0  0  0  0  0  0  0
   -3.1159    1.4439    0.2156 C   0  0  0  0  0  0  0  0  0  0  0  0
   -2.9665    0.5037    1.3027 C   0  0  2  0  0  3  0  0  0  0  0  0
   -3.0515   -0.9331    1.1107 C   0  0  0  0  0  0  0  0  0  0  0  0
   -3.1158   -1.4436   -0.2157 C   0  0  0  0  0  0  0  0  0  0  0  0
   -3.1420    1.8545   -2.2954 C   0  0  0  0  0  0  0  0  0  0  0  0
   -3.3593    2.9045    0.4800 C   0  0  0  0  0  0  0  0  0  0  0  0
   -3.1420   -1.8542    2.2953 C   0  0  0  0  0  0  0  0  0  0  0  0
   -3.3591   -2.9042   -0.4802 C   0  0  0  0  0  0  0  0  0  0  0  0
   -1.8099    1.6941    3.0553 C   0  0  0  0  0  0  0  0  0  0  0  0
   -0.5683    0.8208    3.2216 C   0  0  0  0  0  0  0  0  0  0  0  0
    1.4848    0.8828   -2.0982 C   0  0  0  0  0  0  0  0  0  0  0  0
    1.0091    1.9868   -2.8390 C   0  0  0  0  0  0  0  0  0  0  0  0
    1.8567    3.0632   -3.1333 C   0  0  0  0  0  0  0  0  0  0  0  0
    3.1843    3.0618   -2.6749 C   0  0  0  0  0  0  0  0  0  0  0  0
    3.6607    1.9749   -1.9270 C   0  0  0  0  0  0  0  0  0  0  0  0
    2.8185    0.8896   -1.6423 C   0  0  0  0  0  0  0  0  0  0  0  0
    1.2928   -1.9719   -1.3891 C   0  0  0  0  0  0  0  0  0  0  0  0
    2.3885   -2.2895   -2.2202 C   0  0  0  0  0  0  0  0  0  0  0  0
    3.0558   -3.5125   -2.0610 C   0  0  0  0  0  0  0  0  0  0  0  0
    2.6280   -4.4296   -1.0858 C   0  0  0  0  0  0  0  0  0  0  0  0
    1.5279   -4.1247   -0.2700 C   0  0  0  0  0  0  0  0  0  0  0  0
    0.8632   -2.8988   -0.4200 C   0  0  0  0  0  0  0  0  0  0  0  0
    1.4845   -0.8829    2.0984 C   0  0  0  0  0  0  0  0  0  0  0  0
    2.8182   -0.8901    1.6424 C   0  0  0  0  0  0  0  0  0  0  0  0
    3.6601   -1.9756    1.9272 C   0  0  0  0  0  0  0  0  0  0  0  0
    3.1835   -3.0623    2.6751 C   0  0  0  0  0  0  0  0  0  0  0  0
    1.8559   -3.0634    3.1335 C   0  0  0  0  0  0  0  0  0  0  0  0
    1.0085   -1.9869    2.8392 C   0  0  0  0  0  0  0  0  0  0  0  0
    1.2931    1.9717    1.3891 C   0  0  0  0  0  0  0  0  0  0  0  0
    0.8636    2.8987    0.4200 C   0  0  0  0  0  0  0  0  0  0  0  0
    1.5286    4.1245    0.2701 C   0  0  0  0  0  0  0  0  0  0  0  0
    2.6288    4.4292    1.0859 C   0  0  0  0  0  0  0  0  0  0  0  0
    3.0564    3.5120    2.0610 C   0  0  0  0  0  0  0  0  0  0  0  0
    2.3889    2.2891    2.2202 C   0  0  0  0  0  0  0  0  0  0  0  0
   -0.8366    0.1218   -3.7381 H   0  0  0  0  0  0  0  0  0  0  0  0
    0.1694   -1.3483   -3.8598 H   0  0  0  0  0  0  0  0  0  0  0  0
   -1.5979   -2.5579   -2.3885 H   0  0  0  0  0  0  0  0  0  0  0  0
   -2.1226   -2.0968   -4.0378 H   0  0  0  0  0  0  0  0  0  0  0  0
   -2.4554    2.7170   -2.1942 H   0  0  0  0  0  0  0  0  0  0  0  0
   -2.9225    1.3159   -3.2327 H   0  0  0  0  0  0  0  0  0  0  0  0
   -4.1710    2.2642   -2.3843 H   0  0  0  0  0  0  0  0  0  0  0  0
   -3.6817    3.0666    1.5243 H   0  0  0  0  0  0  0  0  0  0  0  0
   -2.4600    3.5266    0.2910 H   0  0  0  0  0  0  0  0  0  0  0  0
   -4.1595    3.2849   -0.1851 H   0  0  0  0  0  0  0  0  0  0  0  0
   -4.1712   -2.2634    2.3846 H   0  0  0  0  0  0  0  0  0  0  0  0
   -2.4557   -2.7169    2.1940 H   0  0  0  0  0  0  0  0  0  0  0  0
   -2.9220   -1.3156    3.2325 H   0  0  0  0  0  0  0  0  0  0  0  0
   -4.1586   -3.2850    0.1855 H   0  0  0  0  0  0  0  0  0  0  0  0
   -3.6825   -3.0660   -1.5243 H   0  0  0  0  0  0  0  0  0  0  0  0
   -2.4595   -3.5261   -0.2923 H   0  0  0  0  0  0  0  0  0  0  0  0
   -1.5979    2.5581    2.3882 H   0  0  0  0  0  0  0  0  0  0  0  0
   -2.1226    2.0973    4.0375 H   0  0  0  0  0  0  0  0  0  0  0  0
   -0.8368   -0.1215    3.7381 H   0  0  0  0  0  0  0  0  0  0  0  0
    0.1693    1.3486    3.8597 H   0  0  0  0  0  0  0  0  0  0  0  0
   -0.0370    2.0187   -3.1808 H   0  0  0  0  0  0  0  0  0  0  0  0
    1.4766    3.9114   -3.7224 H   0  0  0  0  0  0  0  0  0  0  0  0
    3.8477    3.9095   -2.9018 H   0  0  0  0  0  0  0  0  0  0  0  0
    4.6990    1.9678   -1.5631 H   0  0  0  0  0  0  0  0  0  0  0  0
    3.2053    0.0367   -1.0674 H   0  0  0  0  0  0  0  0  0  0  0  0
    2.7257   -1.5811   -2.9927 H   0  0  0  0  0  0  0  0  0  0  0  0
    3.9140   -3.7538   -2.7060 H   0  0  0  0  0  0  0  0  0  0  0  0
    3.1552   -5.3879   -0.9651 H   0  0  0  0  0  0  0  0  0  0  0  0
    1.1911   -4.8396    0.4950 H   0  0  0  0  0  0  0  0  0  0  0  0
    0.0093   -2.6289    0.2226 H   0  0  0  0  0  0  0  0  0  0  0  0
    3.2051   -0.0373    1.0676 H   0  0  0  0  0  0  0  0  0  0  0  0
    4.6984   -1.9687    1.5633 H   0  0  0  0  0  0  0  0  0  0  0  0
    3.8466   -3.9102    2.9020 H   0  0  0  0  0  0  0  0  0  0  0  0
    1.4755   -3.9115    3.7227 H   0  0  0  0  0  0  0  0  0  0  0  0
   -0.0376   -2.0185    3.1810 H   0  0  0  0  0  0  0  0  0  0  0  0
    0.0097    2.6291   -0.2225 H   0  0  0  0  0  0  0  0  0  0  0  0
    1.1919    4.8396   -0.4949 H   0  0  0  0  0  0  0  0  0  0  0  0
    3.1561    5.3874    0.9652 H   0  0  0  0  0  0  0  0  0  0  0  0
    3.9147    3.7532    2.7060 H   0  0  0  0  0  0  0  0  0  0  0  0
    2.7260    1.5807    2.9927 H   0  0  0  0  0  0  0  0  0  0  0  0
  1 25  1  0  0  0  0
  2 31  1  0  0  0  0
  2 18  1  0  0  0  0
  4 17  1  0  0  0  0
  5  6  1  0  0  0  0
  5  1  1  0  0  0  0
  6  3  1  0  0  0  0
  6 45  1  0  0  0  0
  7  3  1  6  0  0  0
  7  8  1  0  0  0  0
  7 12  1  0  0  0  0
  8  9  2  0  0  0  0
  9 14  1  0  0  0  0
  9 10  1  0  0  0  0
 10  4  1  1  0  0  0
 11 10  1  0  0  0  0
 11 15  1  0  0  0  0
 12 11  2  0  0  0  0
 13 47  1  0  0  0  0
 13  8  1  0  0  0  0
 14 50  1  0  0  0  0
 15 53  1  0  0  0  0
 15 55  1  0  0  0  0
 16 58  1  0  0  0  0
 16 12  1  0  0  0  0
 16 56  1  0  0  0  0
 17 18  1  0  0  0  0
 17 60  1  0  0  0  0
 18 61  1  0  0  0  0
 18 62  1  0  0  0  0
 19 24  1  0  0  0  0
 19  1  1  0  0  0  0
 20 19  2  0  0  0  0
 21 20  1  0  0  0  0
 21 22  2  0  0  0  0
 22 23  1  0  0  0  0
 23 24  2  0  0  0  0
 23 66  1  0  0  0  0
 24 67  1  0  0  0  0
 25 30  1  0  0  0  0
 26 27  1  0  0  0  0
 26 25  2  0  0  0  0
 27 28  2  0  0  0  0
 28 70  1  0  0  0  0
 28 29  1  0  0  0  0
 29 71  1  0  0  0  0
 30 29  2  0  0  0  0
 30 72  1  0  0  0  0
 31 36  1  0  0  0  0
 32 33  1  0  0  0  0
 32 31  2  0  0  0  0
 33 34  2  0  0  0  0
 34 75  1  0  0  0  0
 34 35  1  0  0  0  0
 35 76  1  0  0  0  0
 36 35  2  0  0  0  0
 36 77  1  0  0  0  0
 37  2  1  0  0  0  0
 37 42  1  0  0  0  0
 38 37  2  0  0  0  0
 39 38  1  0  0  0  0
 39 40  2  0  0  0  0
 40 41  1  0  0  0  0
 41 42  2  0  0  0  0
 41 81  1  0  0  0  0
 42 82  1  0  0  0  0
 43  5  1  0  0  0  0
 44  5  1  0  0  0  0
 46  6  1  0  0  0  0
 48 13  1  0  0  0  0
 49 13  1  0  0  0  0
 51 14  1  0  0  0  0
 52 14  1  0  0  0  0
 54 15  1  0  0  0  0
 57 16  1  0  0  0  0
 59 17  1  0  0  0  0
 63 20  1  0  0  0  0
 64 21  1  0  0  0  0
 65 22  1  0  0  0  0
 68 26  1  0  0  0  0
 69 27  1  0  0  0  0
 73 32  1  0  0  0  0
 74 33  1  0  0  0  0
 78 38  1  0  0  0  0
 79 39  1  0  0  0  0
 80 40  1  0  0  0  0
M  END
