1,2,5,15
q = -2.0, confidence = 0.872

 64 64  0  0  0  0  0  0  0  0999 V2000
    2.3564    0.0340    0.0527 P   0  0  2  0  0  0  0  0  0  0  0  0
   -2.2429    0.0032    0.0932 P   0  0  0  0  0  0  0  0  0  0  0  0
    2.4805    1.6931   -0.2967 O   0  0  0  0  0  0  0  0  0  0  0  0
   -2.2966    1.6924    0.2993 O   0  0  0  0  0  0  0  0  0  0  0  0
    0.0776    1.6580   -0.1548 C   0  0  0  0  0  3  0  0  0  0  0  0
    1.2796    2.3898   -0.2271 C   0  0  0  0  0  0  0  0  0  0  0  0
    1.3026    3.7926   -0.1828 C   0  0  0  0  0  0  0  0  0  0  0  0
    2.2611    4.3257   -0.2506 H   0  0  0  0  0  0  0  0  0  0  0  0
    0.0849    4.4769   -0.0255 C   0  0  0  0  0  0  0  0  0  0  0  0
    0.0837    5.5766    0.0073 H   0  0  0  0  0  0  0  0  0  0  0  0
   -1.1269    3.7819    0.1197 C   0  0  0  0  0  0  0  0  0  0  0  0
   -2.0780    4.3087    0.2795 H   0  0  0  0  0  0  0  0  0  0  0  0
   -1.1111    2.3768    0.0767 C   0  0  0  0  0  0  0  0  0  0  0  0
    2.3329   -0.0994    1.9092 C   0  0  0  0  0  0  0  0  0  0  0  0
    0.7642   -0.0616    1.9608 C   0  0  0  0  0  3  0  0  0  0  0  0
    0.4059    0.9063    2.3621 H   0  0  0  0  0  0  0  0  0  0  0  0
    0.3943   -0.8888    2.5916 H   0  0  0  0  0  0  0  0  0  0  0  0
    3.0190    1.0540    2.6418 C   0  0  0  0  0  0  0  0  0  0  0  0
    2.7717    0.9897    3.7228 H   0  0  0  0  0  0  0  0  0  0  0  0
    2.6764    2.0400    2.2726 H   0  0  0  0  0  0  0  0  0  0  0  0
    4.1230    1.0099    2.5425 H   0  0  0  0  0  0  0  0  0  0  0  0
    2.8426   -1.4662    2.3867 C   0  0  0  0  0  0  0  0  0  0  0  0
    2.6035   -1.5659    3.4667 H   0  0  0  0  0  0  0  0  0  0  0  0
    3.9411   -1.5707    2.2756 H   0  0  0  0  0  0  0  0  0  0  0  0
    2.3299   -2.2955    1.8580 H   0  0  0  0  0  0  0  0  0  0  0  0
    3.8253   -0.6088   -0.9107 C   0  0  0  0  0  0  0  0  0  0  0  0
    3.6725   -0.1170   -2.3615 C   0  0  0  0  0  0  0  0  0  0  0  0
    4.5402   -0.4792   -2.9520 H   0  0  0  0  0  0  0  0  0  0  0  0
    3.6489    0.9878   -2.4167 H   0  0  0  0  0  0  0  0  0  0  0  0
    2.7557   -0.5137   -2.8380 H   0  0  0  0  0  0  0  0  0  0  0  0
    5.1162   -0.0514   -0.2865 C   0  0  0  0  0  0  0  0  0  0  0  0
    5.9890   -0.3966   -0.8803 H   0  0  0  0  0  0  0  0  0  0  0  0
    5.2583   -0.4034    0.7543 H   0  0  0  0  0  0  0  0  0  0  0  0
    5.1187    1.0564   -0.2863 H   0  0  0  0  0  0  0  0  0  0  0  0
    3.7788   -2.1472   -0.8628 C   0  0  0  0  0  0  0  0  0  0  0  0
    4.5381   -2.5520   -1.5640 H   0  0  0  0  0  0  0  0  0  0  0  0
    2.7853   -2.5405   -1.1589 H   0  0  0  0  0  0  0  0  0  0  0  0
    4.0060   -2.5411    0.1451 H   0  0  0  0  0  0  0  0  0  0  0  0
   -3.2578   -0.5937    1.5785 C   0  0  0  0  0  0  0  0  0  0  0  0
   -2.2897   -0.6474    2.7720 C   0  0  0  0  0  0  0  0  0  0  0  0
   -2.8612   -0.9407    3.6774 H   0  0  0  0  0  0  0  0  0  0  0  0
   -1.8187    0.3347    2.9697 H   0  0  0  0  0  0  0  0  0  0  0  0
   -1.4974   -1.3985    2.5996 H   0  0  0  0  0  0  0  0  0  0  0  0
   -3.7434   -2.0257    1.2876 C   0  0  0  0  0  0  0  0  0  0  0  0
   -4.1692   -2.4509    2.2207 H   0  0  0  0  0  0  0  0  0  0  0  0
   -2.9015   -2.6781    0.9746 H   0  0  0  0  0  0  0  0  0  0  0  0
   -4.5376   -2.0609    0.5176 H   0  0  0  0  0  0  0  0  0  0  0  0
   -4.4148    0.3605    1.9210 C   0  0  0  0  0  0  0  0  0  0  0  0
   -4.8696    0.0265    2.8774 H   0  0  0  0  0  0  0  0  0  0  0  0
   -5.2133    0.3709    1.1594 H   0  0  0  0  0  0  0  0  0  0  0  0
   -4.0506    1.3967    2.0584 H   0  0  0  0  0  0  0  0  0  0  0  0
   -3.2410   -0.1589   -1.5267 C   0  0  0  0  0  0  0  0  0  0  0  0
   -2.6187    0.8477   -2.5164 C   0  0  0  0  0  0  0  0  0  0  0  0
   -3.0857    0.6985   -3.5120 H   0  0  0  0  0  0  0  0  0  0  0  0
   -1.5277    0.7228   -2.6369 H   0  0  0  0  0  0  0  0  0  0  0  0
   -2.8062    1.8912   -2.1997 H   0  0  0  0  0  0  0  0  0  0  0  0
   -4.7228    0.2180   -1.3601 C   0  0  0  0  0  0  0  0  0  0  0  0
   -5.1975    0.2292   -2.3640 H   0  0  0  0  0  0  0  0  0  0  0  0
   -4.8413    1.2286   -0.9232 H   0  0  0  0  0  0  0  0  0  0  0  0
   -5.2827   -0.5095   -0.7431 H   0  0  0  0  0  0  0  0  0  0  0  0
   -3.1137   -1.5981   -2.0581 C   0  0  0  0  0  0  0  0  0  0  0  0
   -3.5260   -1.6407   -3.0880 H   0  0  0  0  0  0  0  0  0  0  0  0
   -3.6777   -2.3213   -1.4406 H   0  0  0  0  0  0  0  0  0  0  0  0
   -2.0652   -1.9474   -2.0979 H   0  0  0  0  0  0  0  0  0  0  0  0
  1  3  1  1  0  0  0
  1 14  1  0  0  0  0
  2  4  1  0  0  0  0
  2 39  1  0  0  0  0
  3  6  1  0  0  0  0
  5 13  1  0  0  0  0
  6  7  1  0  0  0  0
  6  5  2  0  0  0  0
  7  9  2  0  0  0  0
  8  7  1  0  0  0  0
  9 10  1  0  0  0  0
  9 11  1  0  0  0  0
 11 12  1  0  0  0  0
 13 11  2  0  0  0  0
 13  4  1  0  0  0  0
 14 15  1  0  0  0  0
 14 22  1  0  0  0  0
 14 18  1  0  0  0  0
 15 16  1  0  0  0  0
 15 17  1  0  0  0  0
 18 19  1  0  0  0  0
 20 18  1  0  0  0  0
 21 18  1  0  0  0  0
 22 23  1  0  0  0  0
 24 22  1  0  0  0  0
 25 22  1  0  0  0  0
 26 35  1  0  0  0  0
 26 31  1  0  0  0  0
 26  1  1  0  0  0  0
 27 26  1  0  0  0  0
 28 27  1  0  0  0  0
 29 27  1  0  0  0  0
 30 27  1  0  0  0  0
 31 34  1  0  0  0  0
 31 33  1  0  0  0  0
 32 31  1  0  0  0  0
 35 38  1  0  0  0  0
 36 35  1  0  0  0  0
 37 35  1  0  0  0  0
 39 48  1  0  0  0  0
 39 40  1  0  0  0  0
 40 42  1  0  0  0  0
 40 41  1  0  0  0  0
 43 40  1  0  0  0  0
 44 39  1  0  0  0  0
 44 45  1  0  0  0  0
 46 44  1  0  0  0  0
 47 44  1  0  0  0  0
 48 51  1  0  0  0  0
 48 49  1  0  0  0  0
 50 48  1  0  0  0  0
 52 57  1  0  0  0  0
 52  2  1  0  0  0  0
 53 56  1  0  0  0  0
 53 52  1  0  0  0  0
 54 53  1  0  0  0  0
 55 53  1  0  0  0  0
 57 59  1  0  0  0  0
 57 60  1  0  0  0  0
 58 57  1  0  0  0  0
 61 52  1  0  0  0  0
 61 63  1  0  0  0  0
 62 61  1  0  0  0  0
 64 61  1  0  0  0  0
M  END
