1,2,15
 OpenBabel05122313063D

 76 78  0  0  1  0  0  0  0  0999 V2000
   -2.3265   -0.2565   -0.1833 P   0  0  0  0  0  0  0  0  0  0  0  0
    1.8682   -1.4262   -0.0759 P   0  0  0  0  0  0  0  0  0  0  0  0
    0.2347    0.9416   -2.7573 O   0  0  0  0  0  0  0  0  0  0  0  0
    0.3315    0.3320    1.3701 C   0  0  2  0  0  3  0  0  0  0  0  0
   -1.0912    3.6237    0.1915 C   0  0  0  0  0  0  0  0  0  0  0  0
   -0.1233    4.1445    0.2578 H   0  0  0  0  0  0  0  0  0  0  0  0
   -1.0977    2.2162    0.0753 C   0  0  0  0  0  0  0  0  0  0  0  0
   -0.3723    0.7108    2.5567 C   0  0  0  0  0  0  0  0  0  0  0  0
   -1.0454    1.5803    2.5037 H   0  0  0  0  0  0  0  0  0  0  0  0
   -2.3667    1.5791   -0.0095 C   0  0  0  0  0  0  0  0  0  0  0  0
   -2.2796    4.3701    0.2198 C   0  0  0  0  0  0  0  0  0  0  0  0
   -2.2367    5.4673    0.3058 H   0  0  0  0  0  0  0  0  0  0  0  0
   -3.5621    2.3243    0.0142 C   0  0  0  0  0  0  0  0  0  0  0  0
   -4.5385    1.8244   -0.0811 H   0  0  0  0  0  0  0  0  0  0  0  0
    0.1031    0.4191   -1.7016 C   0  0  0  0  0  3  0  0  0  0  0  0
    1.2235   -0.8037    1.5067 C   0  0  1  0  0  3  0  0  0  0  0  0
   -3.0621   -0.9315    1.4185 C   0  0  0  0  0  0  0  0  0  0  0  0
   -2.5432   -0.2959    2.1657 H   0  0  0  0  0  0  0  0  0  0  0  0
    1.6188    2.2257   -0.0581 C   0  0  0  0  0  0  0  0  0  0  0  0
    1.3828   -1.4678    2.7516 C   0  0  0  0  0  0  0  0  0  0  0  0
    2.0744   -2.3195    2.8318 H   0  0  0  0  0  0  0  0  0  0  0  0
   -3.5210    3.7225    0.1288 C   0  0  0  0  0  0  0  0  0  0  0  0
   -4.4568    4.3022    0.1354 H   0  0  0  0  0  0  0  0  0  0  0  0
    2.4543    2.4281    1.0701 C   0  0  0  0  0  0  0  0  0  0  0  0
    2.2029    1.9314    2.0203 H   0  0  0  0  0  0  0  0  0  0  0  0
   -3.5859   -0.5839   -1.5350 C   0  0  0  0  0  0  0  0  0  0  0  0
   -4.4820   -0.0109   -1.2081 H   0  0  0  0  0  0  0  0  0  0  0  0
   -0.1803    0.0738    3.7811 C   0  0  0  0  0  0  0  0  0  0  0  0
   -0.7075    0.4380    4.6766 H   0  0  0  0  0  0  0  0  0  0  0  0
    0.7040   -1.0229    3.8840 C   0  0  0  0  0  0  0  0  0  0  0  0
    0.8661   -1.5165    4.8544 H   0  0  0  0  0  0  0  0  0  0  0  0
    3.1269    3.7208   -1.3083 C   0  0  0  0  0  0  0  0  0  0  0  0
    3.3802    4.2308   -2.2514 H   0  0  0  0  0  0  0  0  0  0  0  0
    1.9779    2.9174   -1.2406 C   0  0  0  0  0  0  0  0  0  0  0  0
    1.3522    2.8077   -2.1379 H   0  0  0  0  0  0  0  0  0  0  0  0
    2.3387   -3.2253    0.1521 C   0  0  0  0  0  0  0  0  0  0  0  0
    3.1682   -3.2128    0.8945 H   0  0  0  0  0  0  0  0  0  0  0  0
   -2.6113   -2.3767    1.6636 C   0  0  0  0  0  0  0  0  0  0  0  0
   -2.9258   -2.7065    2.6759 H   0  0  0  0  0  0  0  0  0  0  0  0
   -1.5086   -2.4607    1.5938 H   0  0  0  0  0  0  0  0  0  0  0  0
   -3.0448   -3.0832    0.9274 H   0  0  0  0  0  0  0  0  0  0  0  0
   -3.0834    0.0073   -2.8573 C   0  0  0  0  0  0  0  0  0  0  0  0
   -2.2076   -0.5552   -3.2355 H   0  0  0  0  0  0  0  0  0  0  0  0
   -2.7820    1.0678   -2.7524 H   0  0  0  0  0  0  0  0  0  0  0  0
   -3.8835   -0.0500   -3.6242 H   0  0  0  0  0  0  0  0  0  0  0  0
    3.4106   -0.5006   -0.5773 C   0  0  0  0  0  0  0  0  0  0  0  0
    3.1347    0.5235   -0.2555 H   0  0  0  0  0  0  0  0  0  0  0  0
   -4.5703   -0.7291    1.5863 C   0  0  0  0  0  0  0  0  0  0  0  0
   -5.1613   -1.3182    0.8568 H   0  0  0  0  0  0  0  0  0  0  0  0
   -4.8607    0.3348    1.4897 H   0  0  0  0  0  0  0  0  0  0  0  0
   -4.8790   -1.0625    2.5995 H   0  0  0  0  0  0  0  0  0  0  0  0
    3.6032    3.2337    1.0139 C   0  0  0  0  0  0  0  0  0  0  0  0
    4.2282    3.3595    1.9122 H   0  0  0  0  0  0  0  0  0  0  0  0
    3.9521    3.8779   -0.1829 C   0  0  0  0  0  0  0  0  0  0  0  0
    4.8548    4.5063   -0.2362 H   0  0  0  0  0  0  0  0  0  0  0  0
    1.1919   -4.0881    0.6946 C   0  0  0  0  0  0  0  0  0  0  0  0
    0.3975   -4.2172   -0.0638 H   0  0  0  0  0  0  0  0  0  0  0  0
    0.7250   -3.6703    1.6057 H   0  0  0  0  0  0  0  0  0  0  0  0
    1.5839   -5.0959    0.9453 H   0  0  0  0  0  0  0  0  0  0  0  0
   -3.9841   -2.0569   -1.6842 C   0  0  0  0  0  0  0  0  0  0  0  0
   -4.7574   -2.1477   -2.4755 H   0  0  0  0  0  0  0  0  0  0  0  0
   -4.4122   -2.4809   -0.7559 H   0  0  0  0  0  0  0  0  0  0  0  0
   -3.1269   -2.6869   -1.9858 H   0  0  0  0  0  0  0  0  0  0  0  0
    2.8682   -3.8029   -1.1702 C   0  0  0  0  0  0  0  0  0  0  0  0
    3.1161   -4.8760   -1.0358 H   0  0  0  0  0  0  0  0  0  0  0  0
    3.7831   -3.2920   -1.5247 H   0  0  0  0  0  0  0  0  0  0  0  0
    2.1007   -3.7349   -1.9678 H   0  0  0  0  0  0  0  0  0  0  0  0
    3.6132   -0.4572   -2.0960 C   0  0  0  0  0  0  0  0  0  0  0  0
    4.4150    0.2714   -2.3355 H   0  0  0  0  0  0  0  0  0  0  0  0
    2.6954   -0.1219   -2.6163 H   0  0  0  0  0  0  0  0  0  0  0  0
    3.9129   -1.4371   -2.5182 H   0  0  0  0  0  0  0  0  0  0  0  0
    4.6503   -0.9268    0.2126 C   0  0  0  0  0  0  0  0  0  0  0  0
    5.0113   -1.9363   -0.0724 H   0  0  0  0  0  0  0  0  0  0  0  0
    4.4627   -0.9193    1.3058 H   0  0  0  0  0  0  0  0  0  0  0  0
    5.4771   -0.2132    0.0149 H   0  0  0  0  0  0  0  0  0  0  0  0
    0.2682    1.3442    0.0894 B   0  0  2  0  0  0  0  0  0  0  0  0
  1 10  1  0  0  0  0
  1 17  1  0  0  0  0
  2 36  1  0  0  0  0
  3 15  2  0  0  0  0
  4 76  1  1  0  0  0
  4 16  1  0  0  0  0
  4  8  1  0  0  0  0
  5 11  1  0  0  0  0
  5  6  1  0  0  0  0
  7 76  1  0  0  0  0
  7  5  2  0  0  0  0
  8 28  2  0  0  0  0
  9  8  1  0  0  0  0
 10 13  2  0  0  0  0
 10  7  1  0  0  0  0
 11 12  1  0  0  0  0
 13 22  1  0  0  0  0
 14 13  1  0  0  0  0
 16  2  1  6  0  0  0
 16 20  1  0  0  0  0
 17 48  1  0  0  0  0
 17 38  1  0  0  0  0
 17 18  1  0  0  0  0
 19 76  1  0  0  0  0
 19 24  1  0  0  0  0
 20 21  1  0  0  0  0
 20 30  2  0  0  0  0
 22 23  1  0  0  0  0
 22 11  2  0  0  0  0
 24 25  1  0  0  0  0
 26 27  1  0  0  0  0
 26  1  1  0  0  0  0
 28 30  1  0  0  0  0
 28 29  1  0  0  0  0
 30 31  1  0  0  0  0
 32 34  1  0  0  0  0
 32 54  2  0  0  0  0
 33 32  1  0  0  0  0
 34 19  2  0  0  0  0
 35 34  1  0  0  0  0
 36 56  1  0  0  0  0
 36 37  1  0  0  0  0
 38 39  1  0  0  0  0
 40 38  1  0  0  0  0
 41 38  1  0  0  0  0
 42 44  1  0  0  0  0
 42 26  1  0  0  0  0
 43 42  1  0  0  0  0
 45 42  1  0  0  0  0
 46 47  1  0  0  0  0
 46  2  1  0  0  0  0
 46 72  1  0  0  0  0
 48 51  1  0  0  0  0
 49 48  1  0  0  0  0
 50 48  1  0  0  0  0
 52 24  2  0  0  0  0
 52 53  1  0  0  0  0
 54 52  1  0  0  0  0
 55 54  1  0  0  0  0
 56 59  1  0  0  0  0
 56 58  1  0  0  0  0
 57 56  1  0  0  0  0
 60 26  1  0  0  0  0
 60 62  1  0  0  0  0
 61 60  1  0  0  0  0
 63 60  1  0  0  0  0
 64 65  1  0  0  0  0
 64 36  1  0  0  0  0
 66 64  1  0  0  0  0
 67 64  1  0  0  0  0
 68 46  1  0  0  0  0
 69 68  1  0  0  0  0
 70 68  1  0  0  0  0
 71 68  1  0  0  0  0
 72 74  1  0  0  0  0
 73 72  1  0  0  0  0
 75 72  1  0  0  0  0
 76 15  1  6  0  0  0
M  END
