1,2,6,10
 OpenBabel05122313063D

 72 74  0  0  1  0  0  0  0  0999 V2000
    1.9917    0.9836    0.2173 P   0  0  0  0  0  0  0  0  0  0  0  0
   -1.9917    0.9836   -0.2172 P   0  0  0  0  0  0  0  0  0  0  0  0
    1.7254   -2.5778    2.0697 O   0  0  0  0  0  0  0  0  0  0  0  0
   -1.7254   -2.5777   -2.0697 O   0  0  0  0  0  0  0  0  0  0  0  0
    0.9136   -2.3041    1.1771 C   0  0  0  0  0  0  0  0  0  0  0  0
    1.3663   -1.9388   -0.2392 C   0  0  2  0  0  3  0  0  0  0  0  0
    0.5314   -2.1348   -1.3602 C   0  0  0  0  0  3  0  0  0  0  0  0
    0.9317   -2.1273   -2.3859 H   0  0  0  0  0  0  0  0  0  0  0  0
   -0.9136   -2.3040   -1.1771 C   0  0  0  0  0  0  0  0  0  0  0  0
   -1.3663   -1.9388    0.2392 C   0  0  2  0  0  3  0  0  0  0  0  0
   -0.5315   -2.1348    1.3602 C   0  0  0  0  0  3  0  0  0  0  0  0
   -0.9317   -2.1274    2.3859 H   0  0  0  0  0  0  0  0  0  0  0  0
    2.8222   -1.6276   -0.3589 C   0  0  0  0  0  0  0  0  0  0  0  0
    3.2816   -0.3104   -0.1005 C   0  0  0  0  0  0  0  0  0  0  0  0
    4.6673   -0.0503   -0.0799 C   0  0  0  0  0  0  0  0  0  0  0  0
    5.0375    0.9581    0.1557 H   0  0  0  0  0  0  0  0  0  0  0  0
    5.5879   -1.0734   -0.3488 C   0  0  0  0  0  0  0  0  0  0  0  0
    6.6670   -0.8578   -0.3333 H   0  0  0  0  0  0  0  0  0  0  0  0
    5.1296   -2.3699   -0.6312 C   0  0  0  0  0  0  0  0  0  0  0  0
    5.8493   -3.1762   -0.8390 H   0  0  0  0  0  0  0  0  0  0  0  0
    3.7558   -2.6468   -0.6234 C   0  0  0  0  0  0  0  0  0  0  0  0
    3.3920   -3.6690   -0.8045 H   0  0  0  0  0  0  0  0  0  0  0  0
   -2.8222   -1.6276    0.3588 C   0  0  0  0  0  0  0  0  0  0  0  0
   -3.2816   -0.3104    0.1005 C   0  0  0  0  0  0  0  0  0  0  0  0
   -4.6673   -0.0503    0.0798 C   0  0  0  0  0  0  0  0  0  0  0  0
   -5.0375    0.9581   -0.1558 H   0  0  0  0  0  0  0  0  0  0  0  0
   -5.5879   -1.0734    0.3488 C   0  0  0  0  0  0  0  0  0  0  0  0
   -6.6670   -0.8578    0.3332 H   0  0  0  0  0  0  0  0  0  0  0  0
   -5.1296   -2.3699    0.6311 C   0  0  0  0  0  0  0  0  0  0  0  0
   -5.8493   -3.1762    0.8389 H   0  0  0  0  0  0  0  0  0  0  0  0
   -3.7558   -2.6469    0.6234 C   0  0  0  0  0  0  0  0  0  0  0  0
   -3.3920   -3.6690    0.8044 H   0  0  0  0  0  0  0  0  0  0  0  0
    2.5224    1.7512    1.8382 C   0  0  0  0  0  0  0  0  0  0  0  0
    3.5990    2.0119    1.7341 H   0  0  0  0  0  0  0  0  0  0  0  0
    2.3593    0.6964    2.9392 C   0  0  0  0  0  0  0  0  0  0  0  0
    1.2901    0.4281    3.0648 H   0  0  0  0  0  0  0  0  0  0  0  0
    2.7334    1.0893    3.9069 H   0  0  0  0  0  0  0  0  0  0  0  0
    2.8966   -0.2445    2.7088 H   0  0  0  0  0  0  0  0  0  0  0  0
    1.7147    3.0204    2.1274 C   0  0  0  0  0  0  0  0  0  0  0  0
    1.8753    3.8132    1.3696 H   0  0  0  0  0  0  0  0  0  0  0  0
    1.9989    3.4385    3.1152 H   0  0  0  0  0  0  0  0  0  0  0  0
    0.6296    2.7930    2.1611 H   0  0  0  0  0  0  0  0  0  0  0  0
    2.2456    2.2868   -1.1149 C   0  0  0  0  0  0  0  0  0  0  0  0
    1.3989    2.9820   -0.9139 H   0  0  0  0  0  0  0  0  0  0  0  0
    2.0199    1.6313   -2.4827 C   0  0  0  0  0  0  0  0  0  0  0  0
    2.8459    0.9311   -2.7242 H   0  0  0  0  0  0  0  0  0  0  0  0
    1.9776    2.3995   -3.2821 H   0  0  0  0  0  0  0  0  0  0  0  0
    1.0754    1.0499   -2.4991 H   0  0  0  0  0  0  0  0  0  0  0  0
    3.5573    3.0745   -1.0669 C   0  0  0  0  0  0  0  0  0  0  0  0
    3.7539    3.5269   -0.0746 H   0  0  0  0  0  0  0  0  0  0  0  0
    3.5272    3.9009   -1.8077 H   0  0  0  0  0  0  0  0  0  0  0  0
    4.4203    2.4328   -1.3331 H   0  0  0  0  0  0  0  0  0  0  0  0
   -2.2456    2.2868    1.1149 C   0  0  0  0  0  0  0  0  0  0  0  0
   -1.3988    2.9818    0.9142 H   0  0  0  0  0  0  0  0  0  0  0  0
   -2.0202    1.6311    2.4828 C   0  0  0  0  0  0  0  0  0  0  0  0
   -2.8464    0.9311    2.7241 H   0  0  0  0  0  0  0  0  0  0  0  0
   -1.9778    2.3993    3.2822 H   0  0  0  0  0  0  0  0  0  0  0  0
   -1.0758    1.0496    2.4993 H   0  0  0  0  0  0  0  0  0  0  0  0
   -3.5572    3.0746    1.0668 C   0  0  0  0  0  0  0  0  0  0  0  0
   -3.7536    3.5271    0.0745 H   0  0  0  0  0  0  0  0  0  0  0  0
   -3.5271    3.9010    1.8077 H   0  0  0  0  0  0  0  0  0  0  0  0
   -4.4203    2.4331    1.3329 H   0  0  0  0  0  0  0  0  0  0  0  0
   -2.5223    1.7513   -1.8381 C   0  0  0  0  0  0  0  0  0  0  0  0
   -3.5989    2.0119   -1.7340 H   0  0  0  0  0  0  0  0  0  0  0  0
   -2.3592    0.6965   -2.9391 C   0  0  0  0  0  0  0  0  0  0  0  0
   -1.2901    0.4282   -3.0648 H   0  0  0  0  0  0  0  0  0  0  0  0
   -2.7333    1.0895   -3.9069 H   0  0  0  0  0  0  0  0  0  0  0  0
   -2.8965   -0.2444   -2.7089 H   0  0  0  0  0  0  0  0  0  0  0  0
   -1.7147    3.0205   -2.1272 C   0  0  0  0  0  0  0  0  0  0  0  0
   -1.8753    3.8133   -1.3695 H   0  0  0  0  0  0  0  0  0  0  0  0
   -1.9988    3.4386   -3.1150 H   0  0  0  0  0  0  0  0  0  0  0  0
   -0.6295    2.7931   -2.1609 H   0  0  0  0  0  0  0  0  0  0  0  0
  1 33  1  0  0  0  0
  2 24  1  0  0  0  0
  2 53  1  0  0  0  0
  4  9  2  0  0  0  0
  5 11  1  0  0  0  0
  5  3  2  0  0  0  0
  6 13  1  6  0  0  0
  6  5  1  0  0  0  0
  7  9  1  0  0  0  0
  7  6  1  0  0  0  0
  8  7  1  0  0  0  0
  9 10  1  0  0  0  0
 10 23  1  1  0  0  0
 10 11  1  0  0  0  0
 11 12  1  0  0  0  0
 13 14  1  0  0  0  0
 14 15  2  0  0  0  0
 14  1  1  0  0  0  0
 15 16  1  0  0  0  0
 17 18  1  0  0  0  0
 17 15  1  0  0  0  0
 19 21  1  0  0  0  0
 19 17  2  0  0  0  0
 20 19  1  0  0  0  0
 21 13  2  0  0  0  0
 22 21  1  0  0  0  0
 23 31  1  0  0  0  0
 24 23  2  0  0  0  0
 25 24  1  0  0  0  0
 25 27  2  0  0  0  0
 26 25  1  0  0  0  0
 27 29  1  0  0  0  0
 28 27  1  0  0  0  0
 29 30  1  0  0  0  0
 31 29  2  0  0  0  0
 31 32  1  0  0  0  0
 33 39  1  0  0  0  0
 33 35  1  0  0  0  0
 34 33  1  0  0  0  0
 35 36  1  0  0  0  0
 35 37  1  0  0  0  0
 38 35  1  0  0  0  0
 39 42  1  0  0  0  0
 39 41  1  0  0  0  0
 40 39  1  0  0  0  0
 43 49  1  0  0  0  0
 43 44  1  0  0  0  0
 43  1  1  0  0  0  0
 45 43  1  0  0  0  0
 46 45  1  0  0  0  0
 47 45  1  0  0  0  0
 48 45  1  0  0  0  0
 49 50  1  0  0  0  0
 51 49  1  0  0  0  0
 52 49  1  0  0  0  0
 53 55  1  0  0  0  0
 54 53  1  0  0  0  0
 55 58  1  0  0  0  0
 55 56  1  0  0  0  0
 55 57  1  0  0  0  0
 59 53  1  0  0  0  0
 59 62  1  0  0  0  0
 59 61  1  0  0  0  0
 60 59  1  0  0  0  0
 63 64  1  0  0  0  0
 63  2  1  0  0  0  0
 65 68  1  0  0  0  0
 65 63  1  0  0  0  0
 66 65  1  0  0  0  0
 67 65  1  0  0  0  0
 69 63  1  0  0  0  0
 69 70  1  0  0  0  0
 71 69  1  0  0  0  0
 72 69  1  0  0  0  0
M  END
