1,2,31,59
 OpenBabel05122313063D

 72 72  0  0  0  0  0  0  0  0999 V2000
    2.1407   -0.6939    0.0382 P   0  0  0  0  0  0  0  0  0  0  0  0
   -2.3894    0.0652   -0.0652 P   0  0  1  0  0  0  0  0  0  0  0  0
    0.7226    5.6504   -0.0953 O   0  0  0  0  0  0  0  0  0  0  0  0
    3.0802   -1.6409    1.3954 C   0  0  0  0  0  0  0  0  0  0  0  0
    2.6399   -1.0142    2.7341 C   0  0  0  0  0  0  0  0  0  0  0  0
    3.1206   -1.5739    3.5640 H   0  0  0  0  0  0  0  0  0  0  0  0
    1.5445   -1.0781    2.8720 H   0  0  0  0  0  0  0  0  0  0  0  0
    2.9402    0.0473    2.8374 H   0  0  0  0  0  0  0  0  0  0  0  0
    2.6352   -3.1160    1.3907 C   0  0  0  0  0  0  0  0  0  0  0  0
    3.0875   -3.6849    0.5584 H   0  0  0  0  0  0  0  0  0  0  0  0
    1.5339   -3.2154    1.2993 H   0  0  0  0  0  0  0  0  0  0  0  0
    2.9632   -3.5956    2.3373 H   0  0  0  0  0  0  0  0  0  0  0  0
    4.6043   -1.5246    1.2434 C   0  0  0  0  0  0  0  0  0  0  0  0
    5.0999   -2.0006    2.1169 H   0  0  0  0  0  0  0  0  0  0  0  0
    4.9463   -0.4701    1.2024 H   0  0  0  0  0  0  0  0  0  0  0  0
    4.9697   -2.0445    0.3366 H   0  0  0  0  0  0  0  0  0  0  0  0
    2.6904   -1.1755   -1.7315 C   0  0  0  0  0  0  0  0  0  0  0  0
    2.6182   -2.7018   -1.9063 C   0  0  0  0  0  0  0  0  0  0  0  0
    2.6801   -2.9420   -2.9894 H   0  0  0  0  0  0  0  0  0  0  0  0
    1.6666   -3.1169   -1.5130 H   0  0  0  0  0  0  0  0  0  0  0  0
    3.4663   -3.2120   -1.4097 H   0  0  0  0  0  0  0  0  0  0  0  0
    4.0736   -0.6577   -2.1495 C   0  0  0  0  0  0  0  0  0  0  0  0
    4.8859   -1.0633   -1.5170 H   0  0  0  0  0  0  0  0  0  0  0  0
    4.1379    0.4485   -2.1304 H   0  0  0  0  0  0  0  0  0  0  0  0
    4.2779   -0.9751   -3.1946 H   0  0  0  0  0  0  0  0  0  0  0  0
    1.6067   -0.5205   -2.6181 C   0  0  0  0  0  0  0  0  0  0  0  0
    1.5821    0.5826   -2.5204 H   0  0  0  0  0  0  0  0  0  0  0  0
    0.5871   -0.9142   -2.3756 H   0  0  0  0  0  0  0  0  0  0  0  0
    1.7927   -0.7739   -3.6843 H   0  0  0  0  0  0  0  0  0  0  0  0
   -2.3424   -0.1341    1.8345 C   0  0  0  0  0  0  0  0  0  0  0  0
   -0.8025   -0.3580    1.8761 C   0  0  0  0  0  3  0  0  0  0  0  0
   -0.5428   -1.3119    2.3790 H   0  0  0  0  0  0  0  0  0  0  0  0
   -0.2745    0.4905    2.3560 H   0  0  0  0  0  0  0  0  0  0  0  0
   -2.7947    1.1071    2.6078 C   0  0  0  0  0  0  0  0  0  0  0  0
   -3.8762    1.3093    2.4625 H   0  0  0  0  0  0  0  0  0  0  0  0
   -2.2234    2.0102    2.3154 H   0  0  0  0  0  0  0  0  0  0  0  0
   -2.6277    0.9467    3.6945 H   0  0  0  0  0  0  0  0  0  0  0  0
   -3.0729   -1.3899    2.3233 C   0  0  0  0  0  0  0  0  0  0  0  0
   -2.8489   -1.5334    3.4019 H   0  0  0  0  0  0  0  0  0  0  0  0
   -2.7243   -2.2917    1.7825 H   0  0  0  0  0  0  0  0  0  0  0  0
   -4.1733   -1.3018    2.2219 H   0  0  0  0  0  0  0  0  0  0  0  0
   -3.8973   -0.6021   -0.9968 C   0  0  0  0  0  0  0  0  0  0  0  0
   -4.0859   -2.1047   -0.7199 C   0  0  0  0  0  0  0  0  0  0  0  0
   -4.8032   -2.5149   -1.4624 H   0  0  0  0  0  0  0  0  0  0  0  0
   -4.5065   -2.2938    0.2838 H   0  0  0  0  0  0  0  0  0  0  0  0
   -3.1284   -2.6588   -0.8059 H   0  0  0  0  0  0  0  0  0  0  0  0
   -5.1557    0.1939   -0.6166 C   0  0  0  0  0  0  0  0  0  0  0  0
   -5.0637    1.2712   -0.8616 H   0  0  0  0  0  0  0  0  0  0  0  0
   -5.3858    0.1035    0.4644 H   0  0  0  0  0  0  0  0  0  0  0  0
   -6.0302   -0.2010   -1.1776 H   0  0  0  0  0  0  0  0  0  0  0  0
   -3.5626   -0.4284   -2.4923 C   0  0  0  0  0  0  0  0  0  0  0  0
   -2.6505   -0.9983   -2.7601 H   0  0  0  0  0  0  0  0  0  0  0  0
   -3.4111    0.6303   -2.7826 H   0  0  0  0  0  0  0  0  0  0  0  0
   -4.4048   -0.8213   -3.1004 H   0  0  0  0  0  0  0  0  0  0  0  0
   -2.3434    1.8874   -0.4173 C   0  0  0  0  0  0  0  0  0  0  0  0
   -2.6528    2.0074   -1.4779 H   0  0  0  0  0  0  0  0  0  0  0  0
   -3.0782    2.4558    0.1888 H   0  0  0  0  0  0  0  0  0  0  0  0
   -0.9251    2.3906   -0.2341 C   0  0  0  0  0  0  0  0  0  0  0  0
    0.1528    1.4498   -0.1226 C   0  0  0  0  0  3  0  0  0  0  0  0
    1.4605    1.9995    0.0235 C   0  0  0  0  0  0  0  0  0  0  0  0
    2.6549    1.0870    0.2267 C   0  0  0  0  0  0  0  0  0  0  0  0
    3.0661    1.2191    1.2494 H   0  0  0  0  0  0  0  0  0  0  0  0
    3.4875    1.3363   -0.4625 H   0  0  0  0  0  0  0  0  0  0  0  0
   -0.6982    3.7735   -0.2109 C   0  0  0  0  0  0  0  0  0  0  0  0
   -1.5293    4.4902   -0.2970 H   0  0  0  0  0  0  0  0  0  0  0  0
    0.6078    4.2867   -0.0929 C   0  0  0  0  0  0  0  0  0  0  0  0
    1.6862    3.3929    0.0209 C   0  0  0  0  0  0  0  0  0  0  0  0
    2.7150    3.7656    0.1273 H   0  0  0  0  0  0  0  0  0  0  0  0
    2.0129    6.2073    0.0247 C   0  0  0  0  0  0  0  0  0  0  0  0
    2.5046    5.9254    0.9844 H   0  0  0  0  0  0  0  0  0  0  0  0
    1.8877    7.3063   -0.0022 H   0  0  0  0  0  0  0  0  0  0  0  0
    2.6819    5.9014   -0.8126 H   0  0  0  0  0  0  0  0  0  0  0  0
  1 61  1  0  0  0  0
  1  4  1  0  0  0  0
  2 42  1  1  0  0  0
  2 30  1  0  0  0  0
  3 66  1  0  0  0  0
  3 69  1  0  0  0  0
  4  5  1  0  0  0  0
  5  8  1  0  0  0  0
  5  7  1  0  0  0  0
  5  6  1  0  0  0  0
  9  4  1  0  0  0  0
  9 12  1  0  0  0  0
 10  9  1  0  0  0  0
 11  9  1  0  0  0  0
 13  4  1  0  0  0  0
 13 14  1  0  0  0  0
 15 13  1  0  0  0  0
 16 13  1  0  0  0  0
 17  1  1  0  0  0  0
 18 17  1  0  0  0  0
 18 20  1  0  0  0  0
 18 21  1  0  0  0  0
 19 18  1  0  0  0  0
 22 24  1  0  0  0  0
 22 17  1  0  0  0  0
 22 23  1  0  0  0  0
 25 22  1  0  0  0  0
 26 27  1  0  0  0  0
 26 28  1  0  0  0  0
 26 17  1  0  0  0  0
 29 26  1  0  0  0  0
 30 31  1  0  0  0  0
 30 38  1  0  0  0  0
 30 34  1  0  0  0  0
 31 33  1  0  0  0  0
 31 32  1  0  0  0  0
 34 37  1  0  0  0  0
 35 34  1  0  0  0  0
 36 34  1  0  0  0  0
 38 39  1  0  0  0  0
 40 38  1  0  0  0  0
 41 38  1  0  0  0  0
 42 43  1  0  0  0  0
 42 47  1  0  0  0  0
 43 45  1  0  0  0  0
 44 43  1  0  0  0  0
 46 43  1  0  0  0  0
 47 49  1  0  0  0  0
 48 47  1  0  0  0  0
 50 47  1  0  0  0  0
 51 42  1  0  0  0  0
 52 51  1  0  0  0  0
 53 51  1  0  0  0  0
 54 51  1  0  0  0  0
 55 58  1  0  0  0  0
 55  2  1  0  0  0  0
 55 57  1  0  0  0  0
 56 55  1  0  0  0  0
 58 64  2  0  0  0  0
 58 59  1  0  0  0  0
 59 60  2  0  0  0  0
 60 61  1  0  0  0  0
 61 62  1  0  0  0  0
 63 61  1  0  0  0  0
 64 66  1  0  0  0  0
 65 64  1  0  0  0  0
 66 67  2  0  0  0  0
 67 60  1  0  0  0  0
 67 68  1  0  0  0  0
 69 70  1  0  0  0  0
 71 69  1  0  0  0  0
 72 69  1  0  0  0  0
M  END
