1,46,64
 OpenBabel05122313063D

 72 75  0  0  0  0  0  0  0  0999 V2000
    0.0189    1.5998    0.2039 P   0  0  0  0  0  0  0  0  0  0  0  0
   -1.1910    1.6643    1.6020 C   0  0  0  0  0  0  0  0  0  0  0  0
   -2.0509    1.1319    1.1381 H   0  0  0  0  0  0  0  0  0  0  0  0
   -0.7265    0.8021    2.7888 C   0  0  0  0  0  0  0  0  0  0  0  0
   -0.3488   -0.1731    2.4178 H   0  0  0  0  0  0  0  0  0  0  0  0
    0.1209    1.3048    3.3076 H   0  0  0  0  0  0  0  0  0  0  0  0
   -1.8994    0.5896    3.7555 C   0  0  0  0  0  0  0  0  0  0  0  0
   -1.5716   -0.0139    4.6278 H   0  0  0  0  0  0  0  0  0  0  0  0
   -2.6764   -0.0057    3.2273 H   0  0  0  0  0  0  0  0  0  0  0  0
   -2.4948    1.9254    4.2212 C   0  0  0  0  0  0  0  0  0  0  0  0
   -3.3738    1.7500    4.8764 H   0  0  0  0  0  0  0  0  0  0  0  0
   -1.7427    2.4616    4.8441 H   0  0  0  0  0  0  0  0  0  0  0  0
   -2.8897    2.8160    3.0350 C   0  0  0  0  0  0  0  0  0  0  0  0
   -3.2712    3.7953    3.3935 H   0  0  0  0  0  0  0  0  0  0  0  0
   -3.7185    2.3333    2.4726 H   0  0  0  0  0  0  0  0  0  0  0  0
   -1.7098    3.0321    2.0717 C   0  0  0  0  0  0  0  0  0  0  0  0
   -0.9042    3.5884    2.5995 H   0  0  0  0  0  0  0  0  0  0  0  0
   -2.0316    3.6563    1.2124 H   0  0  0  0  0  0  0  0  0  0  0  0
   -0.6400    2.7122   -1.1374 C   0  0  0  0  0  0  0  0  0  0  0  0
   -0.7018    3.7260   -0.6767 H   0  0  0  0  0  0  0  0  0  0  0  0
   -2.0398    2.2765   -1.6028 C   0  0  0  0  0  0  0  0  0  0  0  0
   -2.7596    2.2538   -0.7619 H   0  0  0  0  0  0  0  0  0  0  0  0
   -1.9911    1.2298   -1.9751 H   0  0  0  0  0  0  0  0  0  0  0  0
   -2.5590    3.1884   -2.7224 C   0  0  0  0  0  0  0  0  0  0  0  0
   -3.5543    2.8292   -3.0559 H   0  0  0  0  0  0  0  0  0  0  0  0
   -2.7138    4.2152   -2.3193 H   0  0  0  0  0  0  0  0  0  0  0  0
   -1.5822    3.2505   -3.9021 C   0  0  0  0  0  0  0  0  0  0  0  0
   -1.9594    3.9394   -4.6868 H   0  0  0  0  0  0  0  0  0  0  0  0
   -1.5172    2.2433   -4.3713 H   0  0  0  0  0  0  0  0  0  0  0  0
   -0.1844    3.6789   -3.4393 C   0  0  0  0  0  0  0  0  0  0  0  0
   -0.2243    4.7278   -3.0674 H   0  0  0  0  0  0  0  0  0  0  0  0
    0.5291    3.6774   -4.2902 H   0  0  0  0  0  0  0  0  0  0  0  0
    0.3416    2.7690   -2.3210 C   0  0  0  0  0  0  0  0  0  0  0  0
    0.4683    1.7343   -2.7107 H   0  0  0  0  0  0  0  0  0  0  0  0
    1.3422    3.1091   -1.9820 H   0  0  0  0  0  0  0  0  0  0  0  0
    1.6244    2.3739    0.6701 C   0  0  0  0  0  0  0  0  0  0  0  0
    1.7118    3.6378    1.2880 C   0  0  0  0  0  0  0  0  0  0  0  0
    0.8008    4.1899    1.5611 H   0  0  0  0  0  0  0  0  0  0  0  0
    2.9692    4.2014    1.5510 C   0  0  0  0  0  0  0  0  0  0  0  0
    3.0367    5.1829    2.0445 H   0  0  0  0  0  0  0  0  0  0  0  0
    4.1380    3.5196    1.1742 C   0  0  0  0  0  0  0  0  0  0  0  0
    5.1239    3.9678    1.3725 H   0  0  0  0  0  0  0  0  0  0  0  0
    4.0482    2.2736    0.5343 C   0  0  0  0  0  0  0  0  0  0  0  0
    4.9735    1.7636    0.2197 H   0  0  0  0  0  0  0  0  0  0  0  0
    2.7954    1.6738    0.2839 C   0  0  0  0  0  0  0  0  0  0  0  0
    2.5382    0.0298   -0.6487 Si  0  0  1  0  0  3  0  0  0  0  0  0
    3.2799    0.2758   -2.3849 C   0  0  0  0  0  0  0  0  0  0  0  0
    2.7948    1.1313   -2.8940 H   0  0  0  0  0  0  0  0  0  0  0  0
    3.1697   -0.6167   -3.0319 H   0  0  0  0  0  0  0  0  0  0  0  0
    4.3644    0.4949   -2.2925 H   0  0  0  0  0  0  0  0  0  0  0  0
    3.4433   -1.4137    0.2020 C   0  0  0  0  0  0  0  0  0  0  0  0
    4.3607   -1.2361    1.2579 C   0  0  0  0  0  0  0  0  0  0  0  0
    4.5986   -0.2183    1.6051 H   0  0  0  0  0  0  0  0  0  0  0  0
    4.9745   -2.3323    1.8859 C   0  0  0  0  0  0  0  0  0  0  0  0
    5.6905   -2.1667    2.7057 H   0  0  0  0  0  0  0  0  0  0  0  0
    4.6710   -3.6356    1.4681 C   0  0  0  0  0  0  0  0  0  0  0  0
    5.1470   -4.5012    1.9533 H   0  0  0  0  0  0  0  0  0  0  0  0
    3.7444   -3.8329    0.4327 C   0  0  0  0  0  0  0  0  0  0  0  0
    3.4923   -4.8566    0.1113 H   0  0  0  0  0  0  0  0  0  0  0  0
    3.1233   -2.7401   -0.1998 C   0  0  0  0  0  0  0  0  0  0  0  0
    2.1073   -2.9942   -1.2923 C   0  0  0  0  0  0  0  0  0  0  0  0
    2.1470   -4.0664   -1.5927 H   0  0  0  0  0  0  0  0  0  0  0  0
    2.3364   -2.3939   -2.1947 H   0  0  0  0  0  0  0  0  0  0  0  0
    0.6893   -2.6771   -0.9214 N   0  0  0  0  0  0  0  0  0  0  0  0
   -0.1805   -2.9520   -2.0917 C   0  0  0  0  0  0  0  0  0  0  0  0
   -0.1195   -4.0283   -2.3725 H   0  0  0  0  0  0  0  0  0  0  0  0
    0.1539   -2.3334   -2.9456 H   0  0  0  0  0  0  0  0  0  0  0  0
   -1.2265   -2.6846   -1.8560 H   0  0  0  0  0  0  0  0  0  0  0  0
    0.2744   -3.5208    0.2247 C   0  0  0  0  0  0  0  0  0  0  0  0
   -0.7817   -3.3078    0.4589 H   0  0  0  0  0  0  0  0  0  0  0  0
    0.9027   -3.2831    1.1022 H   0  0  0  0  0  0  0  0  0  0  0  0
    0.3968   -4.5978   -0.0322 H   0  0  0  0  0  0  0  0  0  0  0  0
  1 36  1  0  0  0  0
  1  2  1  0  0  0  0
  2 16  1  0  0  0  0
  2  4  1  0  0  0  0
  3  2  1  0  0  0  0
  4  6  1  0  0  0  0
  4  7  1  0  0  0  0
  5  4  1  0  0  0  0
  7 10  1  0  0  0  0
  7  8  1  0  0  0  0
  9  7  1  0  0  0  0
 10 12  1  0  0  0  0
 10 11  1  0  0  0  0
 13 14  1  0  0  0  0
 13 10  1  0  0  0  0
 15 13  1  0  0  0  0
 16 17  1  0  0  0  0
 16 13  1  0  0  0  0
 18 16  1  0  0  0  0
 19 20  1  0  0  0  0
 19  1  1  0  0  0  0
 21 19  1  0  0  0  0
 21 22  1  0  0  0  0
 23 21  1  0  0  0  0
 24 26  1  0  0  0  0
 24 21  1  0  0  0  0
 25 24  1  0  0  0  0
 27 30  1  0  0  0  0
 27 24  1  0  0  0  0
 28 27  1  0  0  0  0
 29 27  1  0  0  0  0
 30 31  1  0  0  0  0
 30 33  1  0  0  0  0
 32 30  1  0  0  0  0
 33 35  1  0  0  0  0
 33 19  1  0  0  0  0
 34 33  1  0  0  0  0
 36 37  1  0  0  0  0
 37 39  2  0  0  0  0
 37 38  1  0  0  0  0
 39 40  1  0  0  0  0
 41 42  1  0  0  0  0
 41 39  1  0  0  0  0
 43 41  2  0  0  0  0
 44 43  1  0  0  0  0
 45 43  1  0  0  0  0
 45 36  2  0  0  0  0
 46 47  1  6  0  0  0
 46 51  1  0  0  0  0
 46 45  1  0  0  0  0
 47 50  1  0  0  0  0
 48 47  1  0  0  0  0
 49 47  1  0  0  0  0
 51 52  1  0  0  0  0
 52 53  1  0  0  0  0
 52 54  2  0  0  0  0
 54 55  1  0  0  0  0
 56 54  1  0  0  0  0
 56 57  1  0  0  0  0
 58 56  2  0  0  0  0
 59 58  1  0  0  0  0
 60 51  2  0  0  0  0
 60 58  1  0  0  0  0
 61 64  1  0  0  0  0
 61 60  1  0  0  0  0
 62 61  1  0  0  0  0
 63 61  1  0  0  0  0
 64 69  1  0  0  0  0
 65 68  1  0  0  0  0
 65 64  1  0  0  0  0
 66 65  1  0  0  0  0
 67 65  1  0  0  0  0
 69 70  1  0  0  0  0
 69 71  1  0  0  0  0
 72 69  1  0  0  0  0
M  END
