1,2
q = 0.0, confidence = 1.0

 39 41  0  0  1  0  0  0  0  0999 V2000
   -1.6650   -0.2341   -1.6321 Se  0  0  0  0  0  1  0  0  0  0  0  0
    1.8448   -0.3637   -1.3859 Se  0  0  0  0  0  1  0  0  0  0  0  0
   -3.9405    0.4137    0.0483 N   0  0  0  0  0  0  0  0  0  0  0  0
   -2.3229    1.8692    0.2858 N   0  0  0  0  0  0  0  0  0  0  0  0
    0.0301    1.8594    0.4148 N   0  0  0  0  0  0  0  0  0  0  0  0
    2.3722    1.7049    0.6173 N   0  0  0  0  0  0  0  0  0  0  0  0
    3.8974    0.1382    0.5926 N   0  0  0  0  0  0  0  0  0  0  0  0
   -5.4441   -1.4311    0.8017 C   0  0  0  0  0  0  0  0  0  0  0  0
   -5.9151   -2.3656    0.4410 H   0  0  0  0  0  0  0  0  0  0  0  0
   -4.7401   -1.6937    1.6149 H   0  0  0  0  0  0  0  0  0  0  0  0
   -6.2554   -0.7932    1.2051 H   0  0  0  0  0  0  0  0  0  0  0  0
   -4.7002   -0.7863   -0.3575 C   0  0  0  0  0  0  0  0  0  0  0  0
   -3.9447   -1.4772   -0.7790 H   0  0  0  0  0  0  0  0  0  0  0  0
   -5.3875   -0.4881   -1.1766 H   0  0  0  0  0  0  0  0  0  0  0  0
   -2.6745    0.7041   -0.3549 C   0  0  2  0  0  3  0  0  0  0  0  0
   -4.3821    1.3758    0.9377 C   0  0  0  0  0  0  0  0  0  0  0  0
   -5.3686    1.3297    1.4068 H   0  0  0  0  0  0  0  0  0  0  0  0
   -3.3720    2.2908    1.0922 C   0  0  0  0  0  0  0  0  0  0  0  0
   -3.2983    3.1782    1.7275 H   0  0  0  0  0  0  0  0  0  0  0  0
   -1.0723    2.5636    0.1658 C   0  0  0  0  0  0  0  0  0  0  0  0
   -1.0716    3.9309   -0.1568 C   0  0  0  0  0  0  0  0  0  0  0  0
   -2.0095    4.4632   -0.3686 H   0  0  0  0  0  0  0  0  0  0  0  0
    0.1698    4.5791   -0.2228 C   0  0  0  0  0  0  0  0  0  0  0  0
    0.2252    5.6460   -0.4828 H   0  0  0  0  0  0  0  0  0  0  0  0
    1.3417    3.8480    0.0174 C   0  0  0  0  0  0  0  0  0  0  0  0
    2.3343    4.3139   -0.0551 H   0  0  0  0  0  0  0  0  0  0  0  0
    1.2023    2.4853    0.3293 C   0  0  0  0  0  0  0  0  0  0  0  0
    3.3293    2.0536    1.5621 C   0  0  0  0  0  0  0  0  0  0  0  0
    3.2300    2.9437    2.1903 H   0  0  0  0  0  0  0  0  0  0  0  0
    4.2844    1.0688    1.5380 C   0  0  0  0  0  0  0  0  0  0  0  0
    5.1948    0.9478    2.1329 H   0  0  0  0  0  0  0  0  0  0  0  0
    2.7243    0.5163    0.0217 C   0  0  2  0  0  3  0  0  0  0  0  0
    4.6258   -1.1039    0.2773 C   0  0  0  0  0  0  0  0  0  0  0  0
    3.8470   -1.8735    0.1078 H   0  0  0  0  0  0  0  0  0  0  0  0
    5.1704   -1.3822    1.2001 H   0  0  0  0  0  0  0  0  0  0  0  0
    5.5650   -0.9506   -0.9121 C   0  0  0  0  0  0  0  0  0  0  0  0
    6.0969   -1.9069   -1.0812 H   0  0  0  0  0  0  0  0  0  0  0  0
    5.0029   -0.7094   -1.8360 H   0  0  0  0  0  0  0  0  0  0  0  0
    6.3247   -0.1623   -0.7406 H   0  0  0  0  0  0  0  0  0  0  0  0
  3 16  1  0  0  0  0
  4 18  1  0  0  0  0
  6 28  1  0  0  0  0
  7 30  1  0  0  0  0
  8 11  1  0  0  0  0
  8 10  1  0  0  0  0
  9  8  1  0  0  0  0
 12  3  1  0  0  0  0
 12  8  1  0  0  0  0
 13 12  1  0  0  0  0
 14 12  1  0  0  0  0
 15  1  1  6  0  0  0
 15  3  1  0  0  0  0
 15  4  1  0  0  0  0
 16 18  2  0  0  0  0
 16 17  1  0  0  0  0
 18 19  1  0  0  0  0
 20  4  1  0  0  0  0
 20  5  2  0  0  0  0
 21 20  1  0  0  0  0
 22 21  1  0  0  0  0
 23 21  2  0  0  0  0
 23 25  1  0  0  0  0
 24 23  1  0  0  0  0
 25 27  2  0  0  0  0
 26 25  1  0  0  0  0
 27  5  1  0  0  0  0
 27  6  1  0  0  0  0
 28 29  1  0  0  0  0
 30 28  2  0  0  0  0
 30 31  1  0  0  0  0
 32  2  1  6  0  0  0
 32  7  1  0  0  0  0
 32  6  1  0  0  0  0
 33  7  1  0  0  0  0
 33 35  1  0  0  0  0
 34 33  1  0  0  0  0
 36 39  1  0  0  0  0
 36 33  1  0  0  0  0
 37 36  1  0  0  0  0
 38 36  1  0  0  0  0
M  END
