1,2
q = -2.0, confidence = 0.54

  6  5  0  0  0  0  0  0  0  0999 V2000
   -2.5765    1.0522    0.7952 Se  0  0  0  0  0  0  0  0  0  0  0  0
   -2.3588   -1.4504   -1.0384 Se  0  0  0  0  0  0  0  0  0  0  0  0
   -3.5774   -0.2747   -0.1673 C   0  0  0  0  0  0  0  0  0  0  0  0
   -4.8588   -0.4107   -0.2560 N   0  0  0  0  0  0  0  0  0  0  0  0
   -5.7472    0.3731    0.3343 C   0  0  0  0  0  0  0  0  0  0  0  0
   -6.6285    1.0028    0.8098 N   0  0  0  0  0  0  0  0  0  0  0  0
  2  3  1  0  0  0  0
  3  1  1  0  0  0  0
  4  3  2  0  0  0  0
  4  5  1  0  0  0  0
  5  6  3  0  0  0  0
M  END
