1,2
q = 0.0, confidence = 0.506

  4  3  0  0  0  0  0  0  0  0999 V2000
   -2.2918   -1.2322    0.9142 Se  0  0  0  0  0  0  0  0  0  0  0  0
   -2.2921    1.2321   -0.9140 Se  0  0  0  0  0  0  0  0  0  0  0  0
   -3.4144   -0.0002    0.0001 C   0  0  0  0  0  0  0  0  0  0  0  0
   -5.1976   -0.0004    0.0001 Se  0  0  0  0  0  0  0  0  0  0  0  0
  2  3  1  0  0  0  0
  3  4  2  0  0  0  0
  3  1  1  0  0  0  0
M  END
