1,2
q = -1.0, confidence = 0.0

 49 52  0  0  0  0  0  0  0  0999 V2000
   -0.2783   -2.2062    0.4238 Se  0  0  0  0  0  1  0  0  0  0  0  0
    0.1265    1.4127    1.5324 Se  0  0  0  0  0  1  0  0  0  0  0  0
    1.6627   -1.2632   -0.1393 P   0  0  0  0  0  4  0  0  0  0  0  0
    0.8759    1.4393   -0.5379 P   0  0  0  0  0  4  0  0  0  0  0  0
    1.6091    0.0746   -1.0738 N   0  0  0  0  0  2  0  0  0  0  0  0
    2.7396   -1.0155    1.3275 C   0  0  0  0  0  0  0  0  0  0  0  0
    2.4877   -1.6648    2.5486 C   0  0  0  0  0  0  0  0  0  0  0  0
    3.3524   -1.4627    3.6349 C   0  0  0  0  0  0  0  0  0  0  0  0
    4.4619   -0.6125    3.5043 C   0  0  0  0  0  0  0  0  0  0  0  0
    4.7096    0.0385    2.2838 C   0  0  0  0  0  0  0  0  0  0  0  0
    3.8522   -0.1607    1.1936 C   0  0  0  0  0  0  0  0  0  0  0  0
    2.5099   -2.5202   -1.1534 C   0  0  0  0  0  0  0  0  0  0  0  0
    3.0208   -3.6885   -0.5548 C   0  0  0  0  0  0  0  0  0  0  0  0
    3.6296   -4.6684   -1.3514 C   0  0  0  0  0  0  0  0  0  0  0  0
    3.7323   -4.4839   -2.7403 C   0  0  0  0  0  0  0  0  0  0  0  0
    3.2258   -3.3161   -3.3338 C   0  0  0  0  0  0  0  0  0  0  0  0
    2.6122   -2.3323   -2.5446 C   0  0  0  0  0  0  0  0  0  0  0  0
    2.0781    2.8103   -0.7062 C   0  0  0  0  0  0  0  0  0  0  0  0
    3.1293    2.6701   -1.6342 C   0  0  0  0  0  0  0  0  0  0  0  0
    4.0573    3.7089   -1.7977 C   0  0  0  0  0  0  0  0  0  0  0  0
    3.9401    4.8856   -1.0393 C   0  0  0  0  0  0  0  0  0  0  0  0
    2.8960    5.0221   -0.1102 C   0  0  0  0  0  0  0  0  0  0  0  0
    1.9655    3.9858    0.0606 C   0  0  0  0  0  0  0  0  0  0  0  0
   -0.4889    1.8130   -1.7034 C   0  0  0  0  0  0  0  0  0  0  0  0
   -1.2034    0.7275   -2.2493 C   0  0  0  0  0  0  0  0  0  0  0  0
   -2.3323    0.9662   -3.0466 C   0  0  0  0  0  0  0  0  0  0  0  0
   -2.7388    2.2836   -3.3169 C   0  0  0  0  0  0  0  0  0  0  0  0
   -2.0135    3.3657   -2.7897 C   0  0  0  0  0  0  0  0  0  0  0  0
   -0.8921    3.1337   -1.9781 C   0  0  0  0  0  0  0  0  0  0  0  0
    1.5928   -2.3010    2.6417 H   0  0  0  0  0  0  0  0  0  0  0  0
    3.1511   -1.9646    4.5937 H   0  0  0  0  0  0  0  0  0  0  0  0
    5.1344   -0.4496    4.3605 H   0  0  0  0  0  0  0  0  0  0  0  0
    5.5735    0.7132    2.1828 H   0  0  0  0  0  0  0  0  0  0  0  0
    4.0276    0.3612    0.2406 H   0  0  0  0  0  0  0  0  0  0  0  0
    2.9482   -3.8275    0.5349 H   0  0  0  0  0  0  0  0  0  0  0  0
    4.0304   -5.5807   -0.8842 H   0  0  0  0  0  0  0  0  0  0  0  0
    4.2126   -5.2541   -3.3629 H   0  0  0  0  0  0  0  0  0  0  0  0
    3.3095   -3.1695   -4.4216 H   0  0  0  0  0  0  0  0  0  0  0  0
    2.2108   -1.4077   -2.9857 H   0  0  0  0  0  0  0  0  0  0  0  0
    3.2131    1.7353   -2.2093 H   0  0  0  0  0  0  0  0  0  0  0  0
    4.8808    3.5975   -2.5195 H   0  0  0  0  0  0  0  0  0  0  0  0
    4.6717    5.6979   -1.1678 H   0  0  0  0  0  0  0  0  0  0  0  0
    2.8102    5.9385    0.4934 H   0  0  0  0  0  0  0  0  0  0  0  0
    1.1577    4.0699    0.8048 H   0  0  0  0  0  0  0  0  0  0  0  0
   -0.8743   -0.3002   -2.0349 H   0  0  0  0  0  0  0  0  0  0  0  0
   -2.9009    0.1138   -3.4477 H   0  0  0  0  0  0  0  0  0  0  0  0
   -3.6237    2.4688   -3.9448 H   0  0  0  0  0  0  0  0  0  0  0  0
   -2.3234    4.3986   -3.0109 H   0  0  0  0  0  0  0  0  0  0  0  0
   -0.3282    3.9817   -1.5600 H   0  0  0  0  0  0  0  0  0  0  0  0
  3  1  1  0  0  0  0
  3  6  1  0  0  0  0
  4  2  1  0  0  0  0
  5  4  1  0  0  0  0
  5  3  1  0  0  0  0
  6  7  1  0  0  0  0
  7 30  1  0  0  0  0
  7  8  2  0  0  0  0
  8 31  1  0  0  0  0
  9  8  1  0  0  0  0
  9 32  1  0  0  0  0
 10  9  2  0  0  0  0
 11  6  2  0  0  0  0
 11 10  1  0  0  0  0
 12 13  1  0  0  0  0
 12  3  1  0  0  0  0
 13 35  1  0  0  0  0
 14 36  1  0  0  0  0
 14 13  2  0  0  0  0
 15 14  1  0  0  0  0
 16 15  2  0  0  0  0
 16 17  1  0  0  0  0
 17 12  2  0  0  0  0
 18  4  1  0  0  0  0
 18 23  1  0  0  0  0
 19 18  2  0  0  0  0
 20 19  1  0  0  0  0
 20 21  2  0  0  0  0
 21 22  1  0  0  0  0
 22 23  2  0  0  0  0
 22 43  1  0  0  0  0
 23 44  1  0  0  0  0
 24  4  1  0  0  0  0
 25 45  1  0  0  0  0
 25 24  2  0  0  0  0
 26 25  1  0  0  0  0
 27 26  2  0  0  0  0
 27 28  1  0  0  0  0
 28 29  2  0  0  0  0
 29 24  1  0  0  0  0
 29 49  1  0  0  0  0
 33 10  1  0  0  0  0
 34 11  1  0  0  0  0
 37 15  1  0  0  0  0
 38 16  1  0  0  0  0
 39 17  1  0  0  0  0
 40 19  1  0  0  0  0
 41 20  1  0  0  0  0
 42 21  1  0  0  0  0
 46 26  1  0  0  0  0
 47 27  1  0  0  0  0
 48 28  1  0  0  0  0
M  END
