1,2
q = 0.0, confidence = 0.64

  8  8  0  0  0  0  0  0  0  0999 V2000
   -1.3370   -1.7394    0.1713 Se  0  0  0  0  0  0  0  0  0  0  0  0
   -1.3370    1.7395   -0.1710 Se  0  0  0  0  0  0  0  0  0  0  0  0
   -4.5024   -1.4446    0.1423 S   0  0  0  0  0  0  0  0  0  0  0  0
   -4.5024    1.4446   -0.1425 S   0  0  0  0  0  0  0  0  0  0  0  0
   -7.1647   -0.0000   -0.0005 S   0  0  0  0  0  0  0  0  0  0  0  0
   -2.9141    0.6852   -0.0673 C   0  0  0  0  0  0  0  0  0  0  0  0
   -2.9141   -0.6852    0.0674 C   0  0  0  0  0  0  0  0  0  0  0  0
   -5.5019   -0.0000   -0.0002 C   0  0  0  0  0  0  0  0  0  0  0  0
  2  6  1  0  0  0  0
  4  6  1  0  0  0  0
  4  8  1  0  0  0  0
  5  8  2  0  0  0  0
  6  7  2  0  0  0  0
  7  3  1  0  0  0  0
  7  1  1  0  0  0  0
  8  3  1  0  0  0  0
M  END
