1,2
 OpenBabel05122313063D

  5  4  0  0  0  0  0  0  0  0999 V2000
   -2.3032   -0.2828    0.1340 Se  0  0  0  0  0  0  0  0  0  0  0  0
    0.6203   -2.4285   -0.4723 Se  0  0  0  0  0  0  0  0  0  0  0  0
   -2.7656   -2.1096    0.0329 C   0  0  0  0  0  0  0  0  0  0  0  0
   -4.5001   -2.6197    0.1972 Se  0  0  0  0  0  0  0  0  0  0  0  0
   -1.5087   -3.4795   -0.1606 Se  0  0  0  0  0  0  0  0  0  0  0  0
  2  5  1  0  0  0  0
  3  1  1  0  0  0  0
  3  4  1  0  0  0  0
  5  3  1  0  0  0  0
M  END
