1,2
 OpenBabel05122313063D

 19 19  0  0  0  0  0  0  0  0999 V2000
    1.3896   -1.7014   -0.1755 Se  0  0  0  0  0  1  0  0  0  0  0  0
    1.3938    1.6773   -0.3248 Se  0  0  0  0  0  1  0  0  0  0  0  0
    2.9929   -0.6998   -0.4003 C   0  0  0  0  0  0  0  0  0  0  0  0
    2.9962    0.6565   -0.4453 C   0  0  0  0  0  0  0  0  0  0  0  0
    4.2600    1.4841   -0.5567 C   0  0  0  0  0  0  0  0  0  0  0  0
    3.9832    2.5551   -0.6465 H   0  0  0  0  0  0  0  0  0  0  0  0
    4.7900    1.2312   -1.5054 H   0  0  0  0  0  0  0  0  0  0  0  0
    5.2337    1.3105    0.6241 C   0  0  0  0  0  0  0  0  0  0  0  0
    5.9557    2.1562    0.6164 H   0  0  0  0  0  0  0  0  0  0  0  0
    4.6593    1.3970    1.5722 H   0  0  0  0  0  0  0  0  0  0  0  0
    6.0360    0.0022    0.6110 C   0  0  0  0  0  0  0  0  0  0  0  0
    6.7712    0.0263    1.4448 H   0  0  0  0  0  0  0  0  0  0  0  0
    6.6429   -0.0280   -0.3237 H   0  0  0  0  0  0  0  0  0  0  0  0
    5.2280   -1.2991    0.7047 C   0  0  0  0  0  0  0  0  0  0  0  0
    4.6541   -1.3249    1.6567 H   0  0  0  0  0  0  0  0  0  0  0  0
    5.9460   -2.1472    0.7480 H   0  0  0  0  0  0  0  0  0  0  0  0
    4.2521   -1.5395   -0.4626 C   0  0  0  0  0  0  0  0  0  0  0  0
    4.7824   -1.3479   -1.4253 H   0  0  0  0  0  0  0  0  0  0  0  0
    3.9691   -2.6125   -0.4861 H   0  0  0  0  0  0  0  0  0  0  0  0
  3  1  1  0  0  0  0
  4  3  2  0  0  0  0
  4  2  1  0  0  0  0
  5  4  1  0  0  0  0
  5  8  1  0  0  0  0
  6  5  1  0  0  0  0
  7  5  1  0  0  0  0
  8 10  1  0  0  0  0
  9  8  1  0  0  0  0
 11  8  1  0  0  0  0
 11 14  1  0  0  0  0
 11 12  1  0  0  0  0
 13 11  1  0  0  0  0
 14 16  1  0  0  0  0
 14 15  1  0  0  0  0
 17  3  1  0  0  0  0
 17 14  1  0  0  0  0
 18 17  1  0  0  0  0
 19 17  1  0  0  0  0
M  END
