2,3
 OpenBabel05122313063D

  4  3  0  0  0  0  0  0  0  0999 V2000
   -3.4057    0.1380   -1.1816 Se  0  0  0  0  0  0  0  0  0  0  0  0
   -1.3522    0.9692    1.5888 Se  0  0  0  0  0  0  0  0  0  0  0  0
   -1.3571   -0.9618   -1.5890 Se  0  0  0  0  0  0  0  0  0  0  0  0
   -3.4060   -0.1209    1.1820 Se  0  0  0  0  0  0  0  0  0  0  0  0
  1  4  1  0  0  0  0
  3  1  1  0  0  0  0
  4  2  1  0  0  0  0
M  END
