1,2
 OpenBabel05122313063D

  6  5  0  0  0  0  0  0  0  0999 V2000
   -1.8666   -2.6027   -0.0623 Se  0  0  0  0  0  0  0  0  0  0  0  0
    1.5925   -2.7268   -0.1450 Se  0  0  0  0  0  0  0  0  0  0  0  0
   -1.5978   -5.3379    0.1732 O   0  0  0  0  0  0  0  0  0  0  0  0
    1.1488   -5.4319    0.1956 O   0  0  0  0  0  0  0  0  0  0  0  0
   -0.9650   -4.3055    0.0911 C   0  0  0  0  0  0  0  0  0  0  0  0
    0.5879   -4.3612    0.0925 C   0  0  0  0  0  0  0  0  0  0  0  0
  1  5  1  0  0  0  0
  2  6  1  0  0  0  0
  5  6  1  0  0  0  0
  5  3  2  0  0  0  0
  6  4  2  0  0  0  0
M  END
