1,2
q = -1.0, confidence = 0.008

 25 24  0  0  0  0  0  0  0  0999 V2000
    1.8234   -0.1311   -1.7037 Se  0  0  0  0  0  1  0  0  0  0  0  0
    1.8232   -0.1309    1.7034 Se  0  0  0  0  0  1  0  0  0  0  0  0
    3.2058    0.0634   -0.0001 P   0  0  0  0  0  4  0  0  0  0  0  0
    4.4578   -0.9713    0.0000 O   0  0  0  0  0  0  0  0  0  0  0  0
    4.1086    1.4146   -0.0002 O   0  0  0  0  0  0  0  0  0  0  0  0
    4.1665   -2.4111    0.0005 C   0  0  0  0  0  0  0  0  0  0  0  0
    3.0605   -2.5397    0.0006 H   0  0  0  0  0  0  0  0  0  0  0  0
    4.7452   -2.9898    1.2813 C   0  0  0  0  0  0  0  0  0  0  0  0
    4.2704   -2.5191    2.1643 H   0  0  0  0  0  0  0  0  0  0  0  0
    4.5601   -4.0816    1.3259 H   0  0  0  0  0  0  0  0  0  0  0  0
    5.8390   -2.8154    1.3293 H   0  0  0  0  0  0  0  0  0  0  0  0
    4.7450   -2.9906   -1.2800 C   0  0  0  0  0  0  0  0  0  0  0  0
    4.2701   -2.5204   -2.1632 H   0  0  0  0  0  0  0  0  0  0  0  0
    5.8388   -2.8163   -1.3283 H   0  0  0  0  0  0  0  0  0  0  0  0
    4.5598   -4.0824   -1.3240 H   0  0  0  0  0  0  0  0  0  0  0  0
    3.4151    2.7097   -0.0002 C   0  0  0  0  0  0  0  0  0  0  0  0
    2.3187    2.5154   -0.0004 H   0  0  0  0  0  0  0  0  0  0  0  0
    3.8019    3.4296    1.2814 C   0  0  0  0  0  0  0  0  0  0  0  0
    3.4838    2.8389    2.1625 H   0  0  0  0  0  0  0  0  0  0  0  0
    4.8994    3.5799    1.3293 H   0  0  0  0  0  0  0  0  0  0  0  0
    3.3083    4.4208    1.3278 H   0  0  0  0  0  0  0  0  0  0  0  0
    3.8025    3.4298   -1.2814 C   0  0  0  0  0  0  0  0  0  0  0  0
    3.4847    2.8393   -2.1627 H   0  0  0  0  0  0  0  0  0  0  0  0
    3.3088    4.4211   -1.3277 H   0  0  0  0  0  0  0  0  0  0  0  0
    4.8999    3.5801   -1.3288 H   0  0  0  0  0  0  0  0  0  0  0  0
  1  3  1  0  0  0  0
  3  4  1  0  0  0  0
  3  2  1  0  0  0  0
  4  6  1  0  0  0  0
  5 16  1  0  0  0  0
  5  3  1  0  0  0  0
  6  7  1  0  0  0  0
  6  8  1  0  0  0  0
  8 10  1  0  0  0  0
  8 11  1  0  0  0  0
  8  9  1  0  0  0  0
 12  6  1  0  0  0  0
 13 12  1  0  0  0  0
 14 12  1  0  0  0  0
 15 12  1  0  0  0  0
 16 18  1  0  0  0  0
 17 16  1  0  0  0  0
 18 21  1  0  0  0  0
 18 20  1  0  0  0  0
 18 19  1  0  0  0  0
 22 16  1  0  0  0  0
 23 22  1  0  0  0  0
 24 22  1  0  0  0  0
 25 22  1  0  0  0  0
M  END
