1,2
q = -1.0, confidence = 0.004

 29 28  0  0  0  0  0  0  0  0999 V2000
   -2.2984   -1.5127    1.1137 Se  0  0  0  0  0  1  0  0  0  0  0  0
   -1.7154    0.9850   -1.5297 Se  0  0  0  0  0  1  0  0  0  0  0  0
   -3.1299    0.2464   -0.0194 P   0  0  0  0  0  4  0  0  0  0  0  0
   -2.0768    1.8897    1.9446 C   0  0  0  0  0  0  0  0  0  0  0  0
   -2.1920    2.7287    2.6622 H   0  0  0  0  0  0  0  0  0  0  0  0
   -1.2921    2.1642    1.2116 H   0  0  0  0  0  0  0  0  0  0  0  0
   -1.7364    0.9959    2.5028 H   0  0  0  0  0  0  0  0  0  0  0  0
   -3.8682    2.9312    0.5346 C   0  0  0  0  0  0  0  0  0  0  0  0
   -4.8823    2.8556    0.1010 H   0  0  0  0  0  0  0  0  0  0  0  0
   -3.1557    3.1931   -0.2729 H   0  0  0  0  0  0  0  0  0  0  0  0
   -3.8792    3.7644    1.2683 H   0  0  0  0  0  0  0  0  0  0  0  0
   -4.4721    1.2138    2.3039 C   0  0  0  0  0  0  0  0  0  0  0  0
   -4.4784    1.9552    3.1303 H   0  0  0  0  0  0  0  0  0  0  0  0
   -4.2242    0.2257    2.7418 H   0  0  0  0  0  0  0  0  0  0  0  0
   -5.4973    1.1762    1.8884 H   0  0  0  0  0  0  0  0  0  0  0  0
   -4.7090   -0.4102   -0.8870 C   0  0  0  0  0  0  0  0  0  0  0  0
   -3.4339    1.6470    1.2592 C   0  0  0  0  0  0  0  0  0  0  0  0
   -4.2138   -1.4201   -1.9392 C   0  0  0  0  0  0  0  0  0  0  0  0
   -5.0972   -1.8472   -2.4588 H   0  0  0  0  0  0  0  0  0  0  0  0
   -3.6494   -2.2484   -1.4673 H   0  0  0  0  0  0  0  0  0  0  0  0
   -3.5576   -0.9360   -2.6877 H   0  0  0  0  0  0  0  0  0  0  0  0
   -5.4402    0.7472   -1.5848 C   0  0  0  0  0  0  0  0  0  0  0  0
   -4.7503    1.3442   -2.2144 H   0  0  0  0  0  0  0  0  0  0  0  0
   -5.9418    1.4221   -0.8651 H   0  0  0  0  0  0  0  0  0  0  0  0
   -6.2257    0.3259   -2.2467 H   0  0  0  0  0  0  0  0  0  0  0  0
   -5.6294   -1.1306    0.1109 C   0  0  0  0  0  0  0  0  0  0  0  0
   -6.0808   -0.4455    0.8511 H   0  0  0  0  0  0  0  0  0  0  0  0
   -5.0902   -1.9326    0.6544 H   0  0  0  0  0  0  0  0  0  0  0  0
   -6.4588   -1.6060   -0.4538 H   0  0  0  0  0  0  0  0  0  0  0  0
  2  3  1  0  0  0  0
  3  1  1  0  0  0  0
  3 17  1  0  0  0  0
  4  7  1  0  0  0  0
  4  5  1  0  0  0  0
  6  4  1  0  0  0  0
  8 17  1  0  0  0  0
  8 11  1  0  0  0  0
  9  8  1  0  0  0  0
 10  8  1  0  0  0  0
 12 14  1  0  0  0  0
 12 13  1  0  0  0  0
 15 12  1  0  0  0  0
 16  3  1  0  0  0  0
 16 26  1  0  0  0  0
 17  4  1  0  0  0  0
 17 12  1  0  0  0  0
 18 20  1  0  0  0  0
 18 16  1  0  0  0  0
 19 18  1  0  0  0  0
 21 18  1  0  0  0  0
 22 16  1  0  0  0  0
 22 24  1  0  0  0  0
 23 22  1  0  0  0  0
 25 22  1  0  0  0  0
 26 28  1  0  0  0  0
 26 27  1  0  0  0  0
 29 26  1  0  0  0  0
M  END
