1,5
q = -2.0, confidence = 0.664

  5  4  0  0  0  0  0  0  0  0999 V2000
   -0.9626    1.9693    0.6906 Se  0  0  0  0  0  0  0  0  0  0  0  0
   -3.0872    1.9251   -0.3839 Se  0  0  0  0  0  0  0  0  0  0  0  0
   -4.0279    0.0060    0.6154 Se  0  0  0  0  0  0  0  0  0  0  0  0
   -3.1122   -1.8879   -0.4549 Se  0  0  0  0  0  0  0  0  0  0  0  0
   -0.9895   -1.9798    0.6227 Se  0  0  0  0  0  0  0  0  0  0  0  0
  2  3  1  0  0  0  0
  2  1  1  0  0  0  0
  4  3  1  0  0  0  0
  4  5  1  0  0  0  0
M  END
