1,27
q = -1.0, confidence = 0.0

 27 28  0  0  1  0  0  0  0  0999 V2000
    0.5263   -1.9617   -2.0677 S   0  0  0  0  0  1  0  0  0  0  0  0
    1.5782   -1.9730   -0.6830 C   0  0  1  0  0  3  0  0  0  0  0  0
    2.7716   -4.2049   -0.8047 C   0  0  0  0  0  0  0  0  0  0  0  0
    2.0068   -4.8483   -1.8028 C   0  0  0  0  0  0  0  0  0  0  0  0
    1.1336   -4.3425   -2.2357 H   0  0  0  0  0  0  0  0  0  0  0  0
    2.3658   -6.1336   -2.2320 C   0  0  0  0  0  0  0  0  0  0  0  0
    1.7602   -6.6191   -3.0124 H   0  0  0  0  0  0  0  0  0  0  0  0
    3.4708   -6.8025   -1.6839 C   0  0  0  0  0  0  0  0  0  0  0  0
    3.7414   -7.8108   -2.0298 H   0  0  0  0  0  0  0  0  0  0  0  0
    4.2266   -6.1654   -0.6860 C   0  0  0  0  0  0  0  0  0  0  0  0
    5.0969   -6.6712   -0.2410 H   0  0  0  0  0  0  0  0  0  0  0  0
    3.8846   -4.8809   -0.2509 C   0  0  0  0  0  0  0  0  0  0  0  0
    4.4851   -4.3840    0.5283 H   0  0  0  0  0  0  0  0  0  0  0  0
    2.1134   -0.4774    1.1714 C   0  0  0  0  0  0  0  0  0  0  0  0
    3.0653    0.5659    1.1029 C   0  0  0  0  0  0  0  0  0  0  0  0
    3.2715    1.0172    0.1209 H   0  0  0  0  0  0  0  0  0  0  0  0
    3.7075    1.0076    2.2678 C   0  0  0  0  0  0  0  0  0  0  0  0
    4.4414    1.8258    2.2050 H   0  0  0  0  0  0  0  0  0  0  0  0
    3.4182    0.4118    3.5083 C   0  0  0  0  0  0  0  0  0  0  0  0
    3.9230    0.7621    4.4213 H   0  0  0  0  0  0  0  0  0  0  0  0
    2.4834   -0.6347    3.5761 C   0  0  0  0  0  0  0  0  0  0  0  0
    2.2471   -1.1036    4.5436 H   0  0  0  0  0  0  0  0  0  0  0  0
    1.8277   -1.0792    2.4184 C   0  0  0  0  0  0  0  0  0  0  0  0
    1.0704   -1.8742    2.4711 H   0  0  0  0  0  0  0  0  0  0  0  0
    2.4846   -2.9278   -0.3034 N   0  0  0  0  0  0  0  0  0  0  0  0
    3.0441   -2.6477    0.5092 H   0  0  0  0  0  0  0  0  0  0  0  0
    1.4187   -0.8545    0.0074 N   0  0  0  0  0  2  0  0  0  0  0  0
  2  1  1  6  0  0  0
  2 25  1  0  0  0  0
  2 27  1  0  0  0  0
  3 25  1  0  0  0  0
  3 12  1  0  0  0  0
  4  3  2  0  0  0  0
  5  4  1  0  0  0  0
  6  4  1  0  0  0  0
  6  8  2  0  0  0  0
  7  6  1  0  0  0  0
  8 10  1  0  0  0  0
  9  8  1  0  0  0  0
 10 12  2  0  0  0  0
 10 11  1  0  0  0  0
 12 13  1  0  0  0  0
 14 23  1  0  0  0  0
 15 14  2  0  0  0  0
 15 17  1  0  0  0  0
 16 15  1  0  0  0  0
 17 19  2  0  0  0  0
 18 17  1  0  0  0  0
 19 21  1  0  0  0  0
 19 20  1  0  0  0  0
 21 22  1  0  0  0  0
 23 24  1  0  0  0  0
 23 21  2  0  0  0  0
 25 26  1  0  0  0  0
 27 14  1  0  0  0  0
M  END
