1,8
q = -1.0, confidence = 0.058

 39 41  0  0  1  0  0  0  0  0999 V2000
    0.5968   -2.0592   -0.9388 S   0  0  0  0  0  1  0  0  0  0  0  0
   -6.3948    4.5242   -1.2986 O   0  0  0  0  0  0  0  0  0  0  0  0
   -9.0361    1.8625    1.3339 O   0  0  0  0  0  0  0  0  0  0  0  0
   -5.7262    2.3313   -1.1096 N   0  0  0  0  0  2  0  0  0  0  0  0
   -7.6802    3.1538    0.0015 N   0  0  0  0  0  0  0  0  0  0  0  0
   -7.3188   -0.3360    0.8347 N   0  0  0  0  0  0  0  0  0  0  0  0
   -5.1429    0.0915   -0.8956 N   0  0  0  0  0  0  0  0  0  0  0  0
   -1.6799   -0.2569   -1.1491 N   0  0  0  0  0  2  0  0  0  0  0  0
   -1.7556   -1.2658   -2.0636 N   0  0  0  0  0  0  0  0  0  0  0  0
   -0.8576   -3.2251   -2.8478 N   0  0  0  0  0  0  0  0  0  0  0  0
   -6.5676    3.4025   -0.8458 C   0  0  0  0  0  0  0  0  0  0  0  0
   -8.0520    1.9647    0.6184 C   0  0  0  0  0  0  0  0  0  0  0  0
   -7.1059    0.8401    0.3002 C   0  0  0  0  0  0  0  0  0  0  0  0
   -6.4484   -1.3503    0.5447 C   0  0  0  0  0  0  0  0  0  0  0  0
   -6.6517   -2.6259    1.1297 C   0  0  0  0  0  0  0  0  0  0  0  0
   -5.7960   -3.6984    0.8871 C   0  0  0  0  0  0  0  0  0  0  0  0
   -6.0298   -5.0386    1.5316 C   0  0  0  0  0  0  0  0  0  0  0  0
   -3.7198   -4.6223   -0.2649 C   0  0  0  0  0  0  0  0  0  0  0  0
   -4.6785   -3.4963    0.0119 C   0  0  0  0  0  0  0  0  0  0  0  0
   -4.4633   -2.2464   -0.5832 C   0  0  0  0  0  0  0  0  0  0  0  0
   -5.3293   -1.1636   -0.3307 C   0  0  2  0  0  3  0  0  0  0  0  0
   -5.9877    1.1543   -0.5913 C   0  0  0  0  0  0  0  0  0  0  0  0
   -4.0073    0.3491   -1.8002 C   0  0  0  0  0  0  0  0  0  0  0  0
   -2.7352    0.5149   -1.0291 C   0  0  0  0  0  3  0  0  0  0  0  0
   -0.7663   -2.1460   -2.0206 C   0  0  0  0  0  0  0  0  0  0  0  0
   -8.2857    3.9621    0.1775 H   0  0  0  0  0  0  0  0  0  0  0  0
   -7.5228   -2.7265    1.7939 H   0  0  0  0  0  0  0  0  0  0  0  0
   -5.1647   -5.3466    2.1560 H   0  0  0  0  0  0  0  0  0  0  0  0
   -6.1679   -5.8382    0.7734 H   0  0  0  0  0  0  0  0  0  0  0  0
   -6.9276   -5.0236    2.1774 H   0  0  0  0  0  0  0  0  0  0  0  0
   -3.2200   -4.9585    0.6684 H   0  0  0  0  0  0  0  0  0  0  0  0
   -2.9327   -4.3259   -0.9841 H   0  0  0  0  0  0  0  0  0  0  0  0
   -4.2471   -5.5118   -0.6694 H   0  0  0  0  0  0  0  0  0  0  0  0
   -3.5891   -2.1178   -1.2395 H   0  0  0  0  0  0  0  0  0  0  0  0
   -4.2542    1.3119   -2.2955 H   0  0  0  0  0  0  0  0  0  0  0  0
   -3.9211   -0.4652   -2.5397 H   0  0  0  0  0  0  0  0  0  0  0  0
   -2.6800    1.3285   -0.2922 H   0  0  0  0  0  0  0  0  0  0  0  0
   -1.5658   -3.2030   -3.5820 H   0  0  0  0  0  0  0  0  0  0  0  0
   -0.0395   -3.8168   -2.9813 H   0  0  0  0  0  0  0  0  0  0  0  0
  2 11  2  0  0  0  0
  4 11  1  0  0  0  0
  4 22  1  0  0  0  0
  5 26  1  0  0  0  0
  5 12  1  0  0  0  0
  7 22  1  0  0  0  0
  7 21  1  0  0  0  0
  8 24  1  0  0  0  0
  9 25  2  0  0  0  0
  9  8  1  0  0  0  0
 10 25  1  0  0  0  0
 11  5  1  0  0  0  0
 12  3  2  0  0  0  0
 13 12  1  0  0  0  0
 13  6  1  0  0  0  0
 14  6  2  0  0  0  0
 14 15  1  0  0  0  0
 15 27  1  0  0  0  0
 16 15  2  0  0  0  0
 16 17  1  0  0  0  0
 17 28  1  0  0  0  0
 17 30  1  0  0  0  0
 18 19  1  0  0  0  0
 18 31  1  0  0  0  0
 19 16  1  0  0  0  0
 20 19  2  0  0  0  0
 21 20  1  1  0  0  0
 21 14  1  0  0  0  0
 22 13  2  0  0  0  0
 23 24  1  0  0  0  0
 23  7  1  0  0  0  0
 24 37  1  0  0  0  0
 25  1  1  0  0  0  0
 29 17  1  0  0  0  0
 32 18  1  0  0  0  0
 33 18  1  0  0  0  0
 34 20  1  0  0  0  0
 35 23  1  0  0  0  0
 36 23  1  0  0  0  0
 38 10  1  0  0  0  0
 39 10  1  0  0  0  0
M  END
