3,4
q = -1.0, confidence = 0.0

 25 26  0  0  0  0  0  0  0  0999 V2000
    0.8508    3.4813   -1.6187 Cl  0  0  0  0  0  0  0  0  0  0  0  0
    5.7777    1.2746   -1.1933 Cl  0  0  0  0  0  0  0  0  0  0  0  0
   -1.3579   -3.2164   -0.8054 S   0  0  0  0  0  1  0  0  0  0  0  0
   -0.8172   -0.4350   -1.1796 N   0  0  0  0  0  2  0  0  0  0  0  0
   -0.1805    0.5989   -1.6789 C   0  0  0  0  0  3  0  0  0  0  0  0
    1.2587    0.7698   -1.5823 C   0  0  0  0  0  0  0  0  0  0  0  0
    1.8585    2.0566   -1.5629 C   0  0  0  0  0  0  0  0  0  0  0  0
    3.2435    2.2201   -1.4488 C   0  0  0  0  0  0  0  0  0  0  0  0
    4.0594    1.0763   -1.3783 C   0  0  0  0  0  0  0  0  0  0  0  0
    3.5090   -0.2135   -1.4474 C   0  0  0  0  0  0  0  0  0  0  0  0
    2.1245   -0.3534   -1.5464 C   0  0  0  0  0  0  0  0  0  0  0  0
   -2.5551   -2.0569   -1.3603 C   0  0  0  0  0  0  0  0  0  0  0  0
   -2.1743   -0.6919   -1.4859 C   0  0  0  0  0  0  0  0  0  0  0  0
   -3.1095    0.2864   -1.8762 C   0  0  0  0  0  0  0  0  0  0  0  0
   -4.4316   -0.0842   -2.1389 C   0  0  0  0  0  0  0  0  0  0  0  0
   -4.8121   -1.4397   -2.0463 C   0  0  0  0  0  0  0  0  0  0  0  0
   -3.8858   -2.4184   -1.6714 C   0  0  0  0  0  0  0  0  0  0  0  0
   -0.7436    1.3530   -2.2578 H   0  0  0  0  0  0  0  0  0  0  0  0
    3.6819    3.2250   -1.4000 H   0  0  0  0  0  0  0  0  0  0  0  0
    4.1603   -1.0961   -1.3991 H   0  0  0  0  0  0  0  0  0  0  0  0
    1.6807   -1.3618   -1.6052 H   0  0  0  0  0  0  0  0  0  0  0  0
   -2.8176    1.3462   -1.9158 H   0  0  0  0  0  0  0  0  0  0  0  0
   -5.1754    0.6839   -2.3944 H   0  0  0  0  0  0  0  0  0  0  0  0
   -5.8531   -1.7304   -2.2538 H   0  0  0  0  0  0  0  0  0  0  0  0
   -4.1867   -3.4732   -1.5857 H   0  0  0  0  0  0  0  0  0  0  0  0
  1  7  1  0  0  0  0
  5  6  1  0  0  0  0
  5  4  1  0  0  0  0
  6  7  2  0  0  0  0
  6 11  1  0  0  0  0
  7  8  1  0  0  0  0
  8 19  1  0  0  0  0
  8  9  2  0  0  0  0
  9  2  1  0  0  0  0
 10 20  1  0  0  0  0
 10  9  1  0  0  0  0
 11 10  2  0  0  0  0
 12  3  1  0  0  0  0
 13 12  1  0  0  0  0
 13  4  1  0  0  0  0
 14 13  2  0  0  0  0
 15 16  2  0  0  0  0
 15 14  1  0  0  0  0
 16 17  1  0  0  0  0
 17 25  1  0  0  0  0
 17 12  2  0  0  0  0
 18  5  1  0  0  0  0
 21 11  1  0  0  0  0
 22 14  1  0  0  0  0
 23 15  1  0  0  0  0
 24 16  1  0  0  0  0
M  END
