3,4
q = 0.0, confidence = 1.0

 37 37  0  0  1  0  0  0  0  0999 V2000
   -1.9026   -0.4689   -0.0013 N   0  0  0  0  0  0  0  0  0  0  0  0
   -1.8915   -1.4484    0.3571 H   0  0  0  0  0  0  0  0  0  0  0  0
   -0.7113   -0.0331   -0.4218 N   0  0  0  0  0  2  0  0  0  0  0  0
    1.9274    1.0593   -0.9135 S   0  0  0  0  0  0  0  0  0  0  0  0
   -2.8629    0.4828   -0.1469 C   0  0  1  0  0  3  0  0  0  0  0  0
   -2.2169    1.6061   -0.7003 C   0  0  0  0  0  0  0  0  0  0  0  0
   -2.6791    2.5632   -0.9615 H   0  0  0  0  0  0  0  0  0  0  0  0
   -0.8611    1.2341   -0.8569 C   0  0  0  0  0  0  0  0  0  0  0  0
    0.3489    1.9092   -1.4185 C   0  0  0  0  0  0  0  0  0  0  0  0
    0.4146    2.9789   -1.1411 H   0  0  0  0  0  0  0  0  0  0  0  0
    0.3605    1.8563   -2.5274 H   0  0  0  0  0  0  0  0  0  0  0  0
   -4.3124    0.2597    0.2378 C   0  0  0  0  0  0  0  0  0  0  0  0
   -4.7227    1.3301    1.2731 C   0  0  0  0  0  0  0  0  0  0  0  0
   -4.1045    1.2563    2.1900 H   0  0  0  0  0  0  0  0  0  0  0  0
   -5.7857    1.1967    1.5599 H   0  0  0  0  0  0  0  0  0  0  0  0
   -4.6066    2.3535    0.8639 H   0  0  0  0  0  0  0  0  0  0  0  0
   -5.1896    0.3949   -1.0272 C   0  0  0  0  0  0  0  0  0  0  0  0
   -4.9097   -0.3595   -1.7892 H   0  0  0  0  0  0  0  0  0  0  0  0
   -5.0841    1.3985   -1.4854 H   0  0  0  0  0  0  0  0  0  0  0  0
   -6.2582    0.2472   -0.7693 H   0  0  0  0  0  0  0  0  0  0  0  0
   -4.4972   -1.1434    0.8453 C   0  0  0  0  0  0  0  0  0  0  0  0
   -3.8854   -1.2792    1.7603 H   0  0  0  0  0  0  0  0  0  0  0  0
   -4.2293   -1.9424    0.1244 H   0  0  0  0  0  0  0  0  0  0  0  0
   -5.5575   -1.2941    1.1279 H   0  0  0  0  0  0  0  0  0  0  0  0
    2.3987    1.9583    0.6968 C   0  0  0  0  0  0  0  0  0  0  0  0
    1.2999    1.8098    1.7490 C   0  0  0  0  0  0  0  0  0  0  0  0
    1.6149    2.3375    2.6738 H   0  0  0  0  0  0  0  0  0  0  0  0
    1.1292    0.7430    1.9951 H   0  0  0  0  0  0  0  0  0  0  0  0
    0.3379    2.2519    1.4209 H   0  0  0  0  0  0  0  0  0  0  0  0
    2.6622    3.4260    0.3435 C   0  0  0  0  0  0  0  0  0  0  0  0
    3.0770    3.9369    1.2370 H   0  0  0  0  0  0  0  0  0  0  0  0
    1.7400    3.9726    0.0603 H   0  0  0  0  0  0  0  0  0  0  0  0
    3.4008    3.5223   -0.4767 H   0  0  0  0  0  0  0  0  0  0  0  0
    3.6939    1.2658    1.1365 C   0  0  0  0  0  0  0  0  0  0  0  0
    4.0281    1.7182    2.0929 H   0  0  0  0  0  0  0  0  0  0  0  0
    4.5004    1.4039    0.3891 H   0  0  0  0  0  0  0  0  0  0  0  0
    3.5489    0.1759    1.2800 H   0  0  0  0  0  0  0  0  0  0  0  0
  1  2  1  0  0  0  0
  3  1  1  0  0  0  0
  4 25  1  0  0  0  0
  5  1  1  0  0  0  0
  5 12  1  6  0  0  0
  6  5  1  0  0  0  0
  7  6  1  0  0  0  0
  8  6  2  0  0  0  0
  8  3  1  0  0  0  0
  9 10  1  0  0  0  0
  9  4  1  0  0  0  0
  9  8  1  0  0  0  0
 11  9  1  0  0  0  0
 12 21  1  0  0  0  0
 12 13  1  0  0  0  0
 13 15  1  0  0  0  0
 13 14  1  0  0  0  0
 16 13  1  0  0  0  0
 17 20  1  0  0  0  0
 17 12  1  0  0  0  0
 18 17  1  0  0  0  0
 19 17  1  0  0  0  0
 21 24  1  0  0  0  0
 21 22  1  0  0  0  0
 23 21  1  0  0  0  0
 25 34  1  0  0  0  0
 25 26  1  0  0  0  0
 26 28  1  0  0  0  0
 26 27  1  0  0  0  0
 29 26  1  0  0  0  0
 30 25  1  0  0  0  0
 30 31  1  0  0  0  0
 32 30  1  0  0  0  0
 33 30  1  0  0  0  0
 34 37  1  0  0  0  0
 34 35  1  0  0  0  0
 36 34  1  0  0  0  0
M  END
