1,3
q = 0.0, confidence = 1.0

 32 32  0  0  1  0  0  0  0  0999 V2000
   -2.0817    0.9587   -0.7884 S   0  0  0  0  0  0  0  0  0  0  0  0
   -2.2279    3.9758    0.6846 O   0  0  0  0  0  0  0  0  0  0  0  0
    0.6061   -0.0274   -0.3976 N   0  0  0  0  0  2  0  0  0  0  0  0
   -1.6701    4.0307    1.4830 H   0  0  0  0  0  0  0  0  0  0  0  0
    1.8275   -0.4542   -0.0617 N   0  0  0  0  0  0  0  0  0  0  0  0
    1.8540   -1.4538    0.2363 H   0  0  0  0  0  0  0  0  0  0  0  0
    0.6878    1.2869   -0.6917 C   0  0  1  0  0  3  0  0  0  0  0  0
    2.0352    1.6968   -0.5334 C   0  0  0  0  0  0  0  0  0  0  0  0
    2.4497    2.6948   -0.7004 H   0  0  0  0  0  0  0  0  0  0  0  0
    2.7431    0.5522   -0.1247 C   0  0  0  0  0  0  0  0  0  0  0  0
    4.2041    0.3256    0.2053 C   0  0  0  0  0  0  0  0  0  0  0  0
    4.3218   -0.2072    1.6517 C   0  0  0  0  0  0  0  0  0  0  0  0
    3.7876   -1.1704    1.7801 H   0  0  0  0  0  0  0  0  0  0  0  0
    3.8996    0.5152    2.3784 H   0  0  0  0  0  0  0  0  0  0  0  0
    5.3864   -0.3775    1.9104 H   0  0  0  0  0  0  0  0  0  0  0  0
    4.9697    1.6530    0.0790 C   0  0  0  0  0  0  0  0  0  0  0  0
    4.5711    2.4183    0.7749 H   0  0  0  0  0  0  0  0  0  0  0  0
    4.9131    2.0568   -0.9517 H   0  0  0  0  0  0  0  0  0  0  0  0
    6.0393    1.4974    0.3228 H   0  0  0  0  0  0  0  0  0  0  0  0
    4.7919   -0.7094   -0.7815 C   0  0  0  0  0  0  0  0  0  0  0  0
    4.2667   -1.6833   -0.7124 H   0  0  0  0  0  0  0  0  0  0  0  0
    5.8631   -0.8867   -0.5562 H   0  0  0  0  0  0  0  0  0  0  0  0
    4.7113   -0.3530   -1.8276 H   0  0  0  0  0  0  0  0  0  0  0  0
   -0.5598    1.9831   -1.1345 C   0  0  0  0  0  0  0  0  0  0  0  0
   -0.5739    2.1329   -2.2344 H   0  0  0  0  0  0  0  0  0  0  0  0
   -0.7321    2.9662   -0.6529 H   0  0  0  0  0  0  0  0  0  0  0  0
   -2.5955    1.5396    0.8827 C   0  0  0  0  0  0  0  0  0  0  0  0
   -3.3436    0.7665    1.1610 H   0  0  0  0  0  0  0  0  0  0  0  0
   -1.7357    1.4298    1.5760 H   0  0  0  0  0  0  0  0  0  0  0  0
   -3.1842    2.9466    0.9032 C   0  0  0  0  0  0  0  0  0  0  0  0
   -3.9441    3.0477    0.1007 H   0  0  0  0  0  0  0  0  0  0  0  0
   -3.7200    3.0815    1.8733 H   0  0  0  0  0  0  0  0  0  0  0  0
  1 27  1  0  0  0  0
  2 30  1  0  0  0  0
  2  4  1  0  0  0  0
  3  5  1  0  0  0  0
  5  6  1  0  0  0  0
  7 24  1  6  0  0  0
  7  8  1  0  0  0  0
  7  3  1  0  0  0  0
  8 10  2  0  0  0  0
  9  8  1  0  0  0  0
 10  5  1  0  0  0  0
 10 11  1  0  0  0  0
 11 12  1  0  0  0  0
 12 13  1  0  0  0  0
 12 15  1  0  0  0  0
 12 14  1  0  0  0  0
 16 11  1  0  0  0  0
 16 19  1  0  0  0  0
 16 17  1  0  0  0  0
 18 16  1  0  0  0  0
 20 21  1  0  0  0  0
 20 22  1  0  0  0  0
 20 11  1  0  0  0  0
 23 20  1  0  0  0  0
 24  1  1  0  0  0  0
 24 26  1  0  0  0  0
 25 24  1  0  0  0  0
 27 30  1  0  0  0  0
 27 28  1  0  0  0  0
 27 29  1  0  0  0  0
 30 32  1  0  0  0  0
 31 30  1  0  0  0  0
M  END
