1,4
q = -1.0, confidence = 0.048

 39 41  0  0  1  0  0  0  0  0999 V2000
   -0.0532    0.5045   -2.4894 S   0  0  0  0  0  1  0  0  0  0  0  0
   -0.4268   -1.1406    2.2487 O   0  0  0  0  0  0  0  0  0  0  0  0
    2.1632   -0.1040   -1.0250 N   0  0  0  0  0  2  0  0  0  0  0  0
    1.2690   -0.4468   -0.1051 N   0  0  0  0  0  2  0  0  0  0  0  0
    1.5004   -2.2458    2.9658 N   0  0  0  0  0  0  0  0  0  0  0  0
    2.4955    0.8787   -3.1145 N   0  0  0  0  0  0  0  0  0  0  0  0
    2.0077    1.1575   -3.9685 H   0  0  0  0  0  0  0  0  0  0  0  0
    0.7393   -1.4830    2.0664 C   0  0  0  0  0  0  0  0  0  0  0  0
    4.4802    1.3160   -4.3976 C   0  0  0  0  0  0  0  0  0  0  0  0
    3.8403    1.3878   -5.2919 H   0  0  0  0  0  0  0  0  0  0  0  0
    1.6382    0.4183   -2.1461 C   0  0  1  0  0  3  0  0  0  0  0  0
    1.6512   -1.2090    0.9131 C   0  0  2  0  0  3  0  0  0  0  0  0
    3.8900    1.0331   -3.1426 C   0  0  0  0  0  0  0  0  0  0  0  0
    4.1219   -1.9832    0.4668 C   0  0  0  0  0  0  0  0  0  0  0  0
    4.2214   -1.5060   -0.5163 H   0  0  0  0  0  0  0  0  0  0  0  0
    5.1722   -2.7270    1.0327 C   0  0  0  0  0  0  0  0  0  0  0  0
    6.1193   -2.8328    0.4833 H   0  0  0  0  0  0  0  0  0  0  0  0
    4.7168    0.9476   -1.9995 C   0  0  0  0  0  0  0  0  0  0  0  0
    4.2605    0.7440   -1.0244 H   0  0  0  0  0  0  0  0  0  0  0  0
    2.7820   -2.4859    2.4598 C   0  0  0  0  0  0  0  0  0  0  0  0
    2.9187   -1.8582    1.1816 C   0  0  0  0  0  0  0  0  0  0  0  0
    6.1006    1.1262   -2.1295 C   0  0  0  0  0  0  0  0  0  0  0  0
    6.7302    1.0551   -1.2291 H   0  0  0  0  0  0  0  0  0  0  0  0
    5.0248   -3.3328    2.2935 C   0  0  0  0  0  0  0  0  0  0  0  0
    5.8617   -3.9037    2.7237 H   0  0  0  0  0  0  0  0  0  0  0  0
    3.8258   -3.2226    3.0264 C   0  0  0  0  0  0  0  0  0  0  0  0
    3.7210   -3.6871    4.0161 H   0  0  0  0  0  0  0  0  0  0  0  0
    5.8625    1.4976   -4.5094 C   0  0  0  0  0  0  0  0  0  0  0  0
    6.2997    1.7153   -5.4957 H   0  0  0  0  0  0  0  0  0  0  0  0
    0.9640   -2.7232    4.2259 C   0  0  0  0  0  0  0  0  0  0  0  0
    1.0390   -3.8317    4.2781 H   0  0  0  0  0  0  0  0  0  0  0  0
   -0.1146   -2.4535    4.1905 H   0  0  0  0  0  0  0  0  0  0  0  0
    6.6861    1.3985   -3.3759 C   0  0  0  0  0  0  0  0  0  0  0  0
    7.7738    1.5366   -3.4641 H   0  0  0  0  0  0  0  0  0  0  0  0
    2.1245   -2.7736    6.4666 C   0  0  0  0  0  0  0  0  0  0  0  0
    2.1103   -3.8769    6.4900 H   0  0  0  0  0  0  0  0  0  0  0  0
    2.5647   -2.2602    7.3349 H   0  0  0  0  0  0  0  0  0  0  0  0
    1.6158   -2.0909    5.4280 C   0  0  0  0  0  0  0  0  0  0  0  0
    1.6450   -0.9867    5.4218 H   0  0  0  0  0  0  0  0  0  0  0  0
  3  4  1  0  0  0  0
  5 30  1  0  0  0  0
  6 11  1  0  0  0  0
  7  6  1  0  0  0  0
  8  2  2  0  0  0  0
  8  5  1  0  0  0  0
  9 13  1  0  0  0  0
 10  9  1  0  0  0  0
 11  1  1  6  0  0  0
 11  3  1  0  0  0  0
 12  4  1  1  0  0  0
 12 21  1  0  0  0  0
 12  8  1  0  0  0  0
 13  6  1  0  0  0  0
 13 18  2  0  0  0  0
 14 16  2  0  0  0  0
 14 21  1  0  0  0  0
 15 14  1  0  0  0  0
 16 24  1  0  0  0  0
 17 16  1  0  0  0  0
 18 19  1  0  0  0  0
 20  5  1  0  0  0  0
 20 26  1  0  0  0  0
 21 20  2  0  0  0  0
 22 18  1  0  0  0  0
 22 23  1  0  0  0  0
 24 25  1  0  0  0  0
 24 26  2  0  0  0  0
 26 27  1  0  0  0  0
 28  9  2  0  0  0  0
 28 33  1  0  0  0  0
 29 28  1  0  0  0  0
 30 31  1  0  0  0  0
 30 38  1  0  0  0  0
 32 30  1  0  0  0  0
 33 22  2  0  0  0  0
 34 33  1  0  0  0  0
 35 36  1  0  0  0  0
 35 37  1  0  0  0  0
 38 35  2  0  0  0  0
 39 38  1  0  0  0  0
M  END
