1,4
q = -1.0, confidence = 0.0

 20 20  0  0  1  0  0  0  0  0999 V2000
   -1.4165   -1.5208   -1.8307 S   0  0  0  0  0  1  0  0  0  0  0  0
   -2.8838   -0.8622   -1.2439 C   0  0  2  0  0  3  0  0  0  0  0  0
   -2.8985    0.1811   -0.3493 N   0  0  0  0  0  0  0  0  0  0  0  0
   -1.7370    0.7414    0.0969 N   0  0  0  0  0  2  0  0  0  0  0  0
   -2.0836    1.6515    1.0224 C   0  0  0  0  0  0  0  0  0  0  0  0
   -0.9582    2.4273    1.6420 C   0  0  0  0  0  0  0  0  0  0  0  0
    0.2112    1.6370    1.5576 O   0  0  0  0  0  0  0  0  0  0  0  0
    1.4021    2.3333    1.8557 C   0  0  0  0  0  0  0  0  0  0  0  0
    2.2306    1.6022    1.7937 H   0  0  0  0  0  0  0  0  0  0  0  0
    1.3813    2.7625    2.8848 H   0  0  0  0  0  0  0  0  0  0  0  0
    1.5922    3.1566    1.1275 H   0  0  0  0  0  0  0  0  0  0  0  0
   -0.8230    3.3918    1.0893 H   0  0  0  0  0  0  0  0  0  0  0  0
   -1.2023    2.6913    2.6992 H   0  0  0  0  0  0  0  0  0  0  0  0
   -3.4719    1.7228    1.2026 C   0  0  0  0  0  0  0  0  0  0  0  0
   -4.0316    2.3689    1.8846 H   0  0  0  0  0  0  0  0  0  0  0  0
   -4.0619    0.7711    0.3114 C   0  0  0  0  0  0  0  0  0  0  0  0
   -5.2237    0.4028    0.0481 O   0  0  0  0  0  0  0  0  0  0  0  0
   -4.0969   -1.3051   -1.5951 N   0  0  0  0  0  0  0  0  0  0  0  0
   -4.9057   -0.8229   -1.1244 H   0  0  0  0  0  0  0  0  0  0  0  0
   -4.1669   -2.0880   -2.2421 H   0  0  0  0  0  0  0  0  0  0  0  0
  2  1  1  1  0  0  0
  2  3  1  0  0  0  0
  3  4  1  0  0  0  0
  3 16  1  0  0  0  0
  4  5  1  0  0  0  0
  5 14  2  0  0  0  0
  5  6  1  0  0  0  0
  6 13  1  0  0  0  0
  7  6  1  0  0  0  0
  7  8  1  0  0  0  0
  8 10  1  0  0  0  0
  9  8  1  0  0  0  0
 11  8  1  0  0  0  0
 12  6  1  0  0  0  0
 14 15  1  0  0  0  0
 16 14  1  0  0  0  0
 17 16  2  0  0  0  0
 18  2  1  0  0  0  0
 18 19  1  0  0  0  0
 20 18  1  0  0  0  0
M  END
