1,2
q = -1.0, confidence = 0.0

 23 24  0  0  0  0  0  0  0  0999 V2000
   -1.5827    0.2132    0.0712 S   0  0  0  0  0  1  0  0  0  0  0  0
   -1.3450   -2.7389   -0.0511 N   0  0  0  0  0  2  0  0  0  0  0  0
   -4.2007   -0.5418    0.0133 N   0  0  0  0  0  2  0  0  0  0  0  0
   -5.6813    3.4245   -0.0750 N   0  0  0  0  0  0  0  0  0  0  0  0
   -1.0396   -4.0524   -0.1053 C   0  0  0  0  0  0  0  0  0  0  0  0
    0.0406   -4.2787   -0.0991 H   0  0  0  0  0  0  0  0  0  0  0  0
   -2.0266   -5.0419   -0.1655 C   0  0  0  0  0  0  0  0  0  0  0  0
   -1.7290   -6.0992   -0.2081 H   0  0  0  0  0  0  0  0  0  0  0  0
   -3.3762   -4.6564   -0.1689 C   0  0  0  0  0  0  0  0  0  0  0  0
   -4.1768   -5.4103   -0.2133 H   0  0  0  0  0  0  0  0  0  0  0  0
   -3.6871   -3.2952   -0.1150 C   0  0  0  0  0  0  0  0  0  0  0  0
   -4.7158   -2.9080   -0.1118 H   0  0  0  0  0  0  0  0  0  0  0  0
   -2.6479   -2.3503   -0.0586 C   0  0  0  0  0  0  0  0  0  0  0  0
   -2.9503   -0.8933   -0.0061 C   0  0  0  0  0  0  0  0  0  0  0  0
   -4.6392    0.7758   -0.0186 C   0  0  0  0  0  0  0  0  0  0  0  0
   -5.6055    1.2112    0.9174 C   0  0  0  0  0  0  0  0  0  0  0  0
   -5.9669    0.5142    1.6874 H   0  0  0  0  0  0  0  0  0  0  0  0
   -6.0719    2.5302    0.8495 C   0  0  0  0  0  0  0  0  0  0  0  0
   -6.8143    2.8829    1.5888 H   0  0  0  0  0  0  0  0  0  0  0  0
   -4.7820    2.9978   -0.9790 C   0  0  0  0  0  0  0  0  0  0  0  0
   -4.4720    3.7327   -1.7451 H   0  0  0  0  0  0  0  0  0  0  0  0
   -4.2275    1.7123   -0.9989 C   0  0  0  0  0  0  0  0  0  0  0  0
   -3.4910    1.4290   -1.7640 H   0  0  0  0  0  0  0  0  0  0  0  0
  4 18  1  0  0  0  0
  5  6  1  0  0  0  0
  5  2  1  0  0  0  0
  7  5  2  0  0  0  0
  8  7  1  0  0  0  0
  9  7  1  0  0  0  0
  9 11  2  0  0  0  0
 10  9  1  0  0  0  0
 11 12  1  0  0  0  0
 11 13  1  0  0  0  0
 13  2  1  0  0  0  0
 13 14  2  0  0  0  0
 14  3  1  0  0  0  0
 14  1  1  0  0  0  0
 15  3  1  0  0  0  0
 15 16  1  0  0  0  0
 16 17  1  0  0  0  0
 18 16  2  0  0  0  0
 18 19  1  0  0  0  0
 20  4  2  0  0  0  0
 21 20  1  0  0  0  0
 22 20  1  0  0  0  0
 22 15  2  0  0  0  0
 23 22  1  0  0  0  0
M  END
