3,6
q = -1.0, confidence = 0.0

 36 36  0  0  1  0  0  0  0  0999 V2000
    1.3305   -0.7665   -2.2613 S   0  0  0  0  0  0  0  0  0  0  0  0
    2.5167    1.6932   -1.5334 S   0  0  0  0  0  0  0  0  0  0  0  0
    1.7849    0.9905    1.2804 S   0  0  0  0  0  1  0  0  0  0  0  0
    0.0372   -1.4771   -2.1150 O   0  0  0  0  0  0  0  0  0  0  0  0
    1.9310   -0.5650   -3.5980 O   0  0  0  0  0  0  0  0  0  0  0  0
    1.0758    0.7725   -1.5529 N   0  0  0  0  0  2  0  0  0  0  0  0
    4.2531    1.7464    0.5276 N   0  0  0  0  0  0  0  0  0  0  0  0
    2.5691   -1.5883   -1.2455 C   0  0  0  0  0  0  0  0  0  0  0  0
    2.2171   -2.0884    0.0179 C   0  0  0  0  0  0  0  0  0  0  0  0
    1.1903   -2.0076    0.4024 H   0  0  0  0  0  0  0  0  0  0  0  0
    3.2112   -2.6602    0.8192 C   0  0  0  0  0  0  0  0  0  0  0  0
    2.9310   -3.0437    1.8129 H   0  0  0  0  0  0  0  0  0  0  0  0
    4.5543   -2.7316    0.3882 C   0  0  0  0  0  0  0  0  0  0  0  0
    4.8764   -2.2160   -0.8840 C   0  0  0  0  0  0  0  0  0  0  0  0
    5.9177   -2.2674   -1.2407 H   0  0  0  0  0  0  0  0  0  0  0  0
    3.8926   -1.6457   -1.7056 C   0  0  0  0  0  0  0  0  0  0  0  0
    4.1282   -1.2512   -2.7045 H   0  0  0  0  0  0  0  0  0  0  0  0
    5.6080   -3.3457    1.2740 C   0  0  0  0  0  0  0  0  0  0  0  0
    6.6203   -3.2523    0.8353 H   0  0  0  0  0  0  0  0  0  0  0  0
    5.4100   -4.4252    1.4418 H   0  0  0  0  0  0  0  0  0  0  0  0
    5.6204   -2.8661    2.2749 H   0  0  0  0  0  0  0  0  0  0  0  0
    2.9862    1.4707    0.1617 C   0  0  2  0  0  3  0  0  0  0  0  0
    4.6491    1.7190    1.9422 C   0  0  0  0  0  0  0  0  0  0  0  0
    3.7854    2.0782    2.5388 H   0  0  0  0  0  0  0  0  0  0  0  0
    5.4699    2.4552    2.0685 H   0  0  0  0  0  0  0  0  0  0  0  0
    5.0746    0.3262    2.4044 C   0  0  0  0  0  0  0  0  0  0  0  0
    4.2360   -0.3877    2.2889 H   0  0  0  0  0  0  0  0  0  0  0  0
    5.3720    0.3533    3.4714 H   0  0  0  0  0  0  0  0  0  0  0  0
    5.9337   -0.0528    1.8146 H   0  0  0  0  0  0  0  0  0  0  0  0
    5.3021    2.0201   -0.4620 C   0  0  0  0  0  0  0  0  0  0  0  0
    5.0713    1.4244   -1.3700 H   0  0  0  0  0  0  0  0  0  0  0  0
    6.2522    1.6216   -0.0502 H   0  0  0  0  0  0  0  0  0  0  0  0
    5.4347    3.5042   -0.8026 C   0  0  0  0  0  0  0  0  0  0  0  0
    4.4963    3.8951   -1.2438 H   0  0  0  0  0  0  0  0  0  0  0  0
    6.2483    3.6563   -1.5394 H   0  0  0  0  0  0  0  0  0  0  0  0
    5.6704    4.1072    0.0974 H   0  0  0  0  0  0  0  0  0  0  0  0
  1  4  2  0  0  0  0
  1  6  1  0  0  0  0
  1  8  1  0  0  0  0
  2 22  1  0  0  0  0
  5  1  2  0  0  0  0
  6  2  1  0  0  0  0
  7 23  1  0  0  0  0
  8  9  1  0  0  0  0
  9 10  1  0  0  0  0
  9 11  2  0  0  0  0
 11 12  1  0  0  0  0
 13 11  1  0  0  0  0
 13 18  1  0  0  0  0
 14 13  2  0  0  0  0
 15 14  1  0  0  0  0
 16  8  2  0  0  0  0
 16 14  1  0  0  0  0
 17 16  1  0  0  0  0
 18 20  1  0  0  0  0
 18 21  1  0  0  0  0
 19 18  1  0  0  0  0
 22  7  1  0  0  0  0
 22  3  1  1  0  0  0
 23 25  1  0  0  0  0
 23 26  1  0  0  0  0
 23 24  1  0  0  0  0
 26 28  1  0  0  0  0
 27 26  1  0  0  0  0
 29 26  1  0  0  0  0
 30 32  1  0  0  0  0
 30  7  1  0  0  0  0
 31 30  1  0  0  0  0
 33 30  1  0  0  0  0
 33 36  1  0  0  0  0
 34 33  1  0  0  0  0
 35 33  1  0  0  0  0
M  END
