4,6
q = -1.0, confidence = 0.0

 32 33  0  0  0  0  0  0  0  0999 V2000
   -1.5380    2.7710    1.8011 Cl  0  0  0  0  0  0  0  0  0  0  0  0
    3.8761    2.6726    1.8289 Cl  0  0  0  0  0  0  0  0  0  0  0  0
   -4.5341   -3.5036   -0.0292 S   0  0  0  0  0  0  0  0  0  0  0  0
   -1.8902   -3.2455   -1.2779 S   0  0  0  0  0  1  0  0  0  0  0  0
   -2.6971   -1.9349    1.0330 N   0  0  0  0  0  0  0  0  0  0  0  0
   -1.4649   -1.3651    1.0619 N   0  0  0  0  0  2  0  0  0  0  0  0
   -5.6548   -1.1982    1.1578 C   0  0  0  0  0  0  0  0  0  0  0  0
   -6.3569   -0.7360    0.0270 C   0  0  0  0  0  0  0  0  0  0  0  0
   -6.7120   -1.4618   -0.7217 H   0  0  0  0  0  0  0  0  0  0  0  0
   -6.5828    0.6347   -0.1616 C   0  0  0  0  0  0  0  0  0  0  0  0
   -7.1223    0.9830   -1.0550 H   0  0  0  0  0  0  0  0  0  0  0  0
   -6.1061    1.5656    0.7762 C   0  0  0  0  0  0  0  0  0  0  0  0
   -6.2663    2.6417    0.6143 H   0  0  0  0  0  0  0  0  0  0  0  0
   -5.4112    1.1153    1.9086 C   0  0  0  0  0  0  0  0  0  0  0  0
   -5.0275    1.8373    2.6457 H   0  0  0  0  0  0  0  0  0  0  0  0
   -5.1895   -0.2573    2.0964 C   0  0  0  0  0  0  0  0  0  0  0  0
   -4.6348   -0.6133    2.9779 H   0  0  0  0  0  0  0  0  0  0  0  0
   -5.4002   -2.6706    1.3679 C   0  0  0  0  0  0  0  0  0  0  0  0
   -6.3493   -3.2429    1.4343 H   0  0  0  0  0  0  0  0  0  0  0  0
   -4.8176   -2.8520    2.2903 H   0  0  0  0  0  0  0  0  0  0  0  0
   -2.9357   -2.7686    0.0399 C   0  0  0  0  0  0  0  0  0  0  0  0
   -1.3617   -0.2706    1.7738 C   0  0  0  0  0  3  0  0  0  0  0  0
   -2.2854    0.1548    2.2051 H   0  0  0  0  0  0  0  0  0  0  0  0
   -0.0973    0.4363    1.9156 C   0  0  0  0  0  0  0  0  0  0  0  0
   -0.0538    1.8546    1.8943 C   0  0  0  0  0  0  0  0  0  0  0  0
    1.1622    2.5485    1.8800 C   0  0  0  0  0  0  0  0  0  0  0  0
    1.1740    3.6432    1.8089 H   0  0  0  0  0  0  0  0  0  0  0  0
    2.3606    1.8152    1.9176 C   0  0  0  0  0  0  0  0  0  0  0  0
    2.3572    0.4144    2.0109 C   0  0  0  0  0  0  0  0  0  0  0  0
    3.3000   -0.1484    2.0519 H   0  0  0  0  0  0  0  0  0  0  0  0
    1.1328   -0.2555    2.0107 C   0  0  0  0  0  0  0  0  0  0  0  0
    1.1269   -1.3547    2.0620 H   0  0  0  0  0  0  0  0  0  0  0  0
  1 25  1  0  0  0  0
  2 28  1  0  0  0  0
  3 21  1  0  0  0  0
  3 18  1  0  0  0  0
  4 21  1  0  0  0  0
  5  6  1  0  0  0  0
  6 22  1  0  0  0  0
  7 18  1  0  0  0  0
  7 16  1  0  0  0  0
  8  7  2  0  0  0  0
  9  8  1  0  0  0  0
 10  8  1  0  0  0  0
 10 12  2  0  0  0  0
 11 10  1  0  0  0  0
 12 14  1  0  0  0  0
 13 12  1  0  0  0  0
 14 16  2  0  0  0  0
 14 15  1  0  0  0  0
 16 17  1  0  0  0  0
 18 19  1  0  0  0  0
 18 20  1  0  0  0  0
 21  5  2  0  0  0  0
 22 24  1  0  0  0  0
 22 23  1  0  0  0  0
 24 31  1  0  0  0  0
 25 24  2  0  0  0  0
 26 25  1  0  0  0  0
 26 28  2  0  0  0  0
 27 26  1  0  0  0  0
 28 29  1  0  0  0  0
 29 30  1  0  0  0  0
 31 29  2  0  0  0  0
 31 32  1  0  0  0  0
M  END
