1,3
q = 0.0, confidence = 1.0

 34 33  0  0  1  0  0  0  0  0999 V2000
    1.9060    1.8715   -0.7535 S   0  0  0  0  0  0  0  0  0  0  0  0
   -2.9535   -0.0803   -0.5636 P   0  0  0  0  0  0  0  0  0  0  0  0
   -0.4109   -0.0304    0.4202 N   0  0  0  0  0  0  0  0  0  0  0  0
   -0.6402   -0.9929    0.7503 H   0  0  0  0  0  0  0  0  0  0  0  0
   -0.7084    0.6054    1.1781 H   0  0  0  0  0  0  0  0  0  0  0  0
   -3.2312    0.9368    0.6870 O   0  0  0  0  0  0  0  0  0  0  0  0
   -2.9444   -1.5215    0.2162 O   0  0  0  0  0  0  0  0  0  0  0  0
   -3.8288    0.0154   -1.7774 O   0  0  0  0  0  0  0  0  0  0  0  0
   -1.1617    0.2946   -0.8099 C   0  0  2  0  0  0  0  0  0  0  0  0
   -0.8245   -0.4115   -1.5974 H   0  0  0  0  0  0  0  0  0  0  0  0
   -0.9436    1.7368   -1.2771 C   0  0  0  0  0  0  0  0  0  0  0  0
   -1.6890    1.9396   -2.0756 H   0  0  0  0  0  0  0  0  0  0  0  0
   -1.2001    2.4310   -0.4485 H   0  0  0  0  0  0  0  0  0  0  0  0
    0.4386    2.0470   -1.8560 C   0  0  0  0  0  0  0  0  0  0  0  0
    0.4706    3.0848   -2.2478 H   0  0  0  0  0  0  0  0  0  0  0  0
    0.6780    1.3651   -2.6973 H   0  0  0  0  0  0  0  0  0  0  0  0
   -4.5468    0.9577    1.2981 C   0  0  0  0  0  0  0  0  0  0  0  0
   -4.6492    0.0543    1.9368 H   0  0  0  0  0  0  0  0  0  0  0  0
   -5.3138    0.9018    0.4961 H   0  0  0  0  0  0  0  0  0  0  0  0
   -4.6813    2.2315    2.1051 C   0  0  0  0  0  0  0  0  0  0  0  0
   -5.6724    2.2642    2.5997 H   0  0  0  0  0  0  0  0  0  0  0  0
   -4.5876    3.1234    1.4544 H   0  0  0  0  0  0  0  0  0  0  0  0
   -3.9018    2.2866    2.8909 H   0  0  0  0  0  0  0  0  0  0  0  0
   -3.1599   -2.7640   -0.5071 C   0  0  0  0  0  0  0  0  0  0  0  0
   -4.0122   -2.6229   -1.2043 H   0  0  0  0  0  0  0  0  0  0  0  0
   -3.4608   -3.4886    0.2748 H   0  0  0  0  0  0  0  0  0  0  0  0
    1.5219    3.1297    0.5161 C   0  0  0  0  0  0  0  0  0  0  0  0
    1.5122    4.1330    0.0464 H   0  0  0  0  0  0  0  0  0  0  0  0
    2.3429    3.0661    1.2540 H   0  0  0  0  0  0  0  0  0  0  0  0
    0.5605    2.9257    1.0237 H   0  0  0  0  0  0  0  0  0  0  0  0
   -1.9107   -3.2270   -1.2368 C   0  0  0  0  0  0  0  0  0  0  0  0
   -1.6794   -2.5684   -2.0991 H   0  0  0  0  0  0  0  0  0  0  0  0
   -2.0686   -4.2470   -1.6413 H   0  0  0  0  0  0  0  0  0  0  0  0
   -1.0285   -3.2540   -0.5637 H   0  0  0  0  0  0  0  0  0  0  0  0
  1 27  1  0  0  0  0
  2  7  1  0  0  0  0
  2  6  1  0  0  0  0
  3  4  1  0  0  0  0
  3  5  1  0  0  0  0
  6 17  1  0  0  0  0
  8  2  2  0  0  0  0
  9 10  1  6  0  0  0
  9  2  1  0  0  0  0
  9  3  1  0  0  0  0
 11  9  1  0  0  0  0
 11 13  1  0  0  0  0
 12 11  1  0  0  0  0
 14 11  1  0  0  0  0
 14  1  1  0  0  0  0
 15 14  1  0  0  0  0
 16 14  1  0  0  0  0
 17 18  1  0  0  0  0
 17 20  1  0  0  0  0
 19 17  1  0  0  0  0
 20 21  1  0  0  0  0
 20 23  1  0  0  0  0
 22 20  1  0  0  0  0
 24  7  1  0  0  0  0
 24 26  1  0  0  0  0
 25 24  1  0  0  0  0
 27 30  1  0  0  0  0
 27 29  1  0  0  0  0
 28 27  1  0  0  0  0
 31 34  1  0  0  0  0
 31 24  1  0  0  0  0
 32 31  1  0  0  0  0
 33 31  1  0  0  0  0
M  END
