1,3
q = -1.0, confidence = 0.0

 29 30  0  0  0  0  0  0  0  0999 V2000
    0.9117   -2.5756   -2.0285 S   0  0  0  0  0  1  0  0  0  0  0  0
   -1.7715    3.1166    0.8672 S   0  0  0  0  0  0  0  0  0  0  0  0
   -0.5063   -0.4936   -0.6550 N   0  0  0  0  0  2  0  0  0  0  0  0
   -0.7284   -2.7488   -1.4452 C   0  0  0  0  0  0  0  0  0  0  0  0
   -1.4994   -3.9227   -1.6226 C   0  0  0  0  0  0  0  0  0  0  0  0
   -1.0600   -4.7658   -2.1763 H   0  0  0  0  0  0  0  0  0  0  0  0
   -2.7769   -4.0227   -1.0638 C   0  0  0  0  0  0  0  0  0  0  0  0
   -3.3518   -4.9532   -1.1888 H   0  0  0  0  0  0  0  0  0  0  0  0
   -3.3178   -2.9593   -0.3088 C   0  0  0  0  0  0  0  0  0  0  0  0
   -4.3008   -3.0639    0.1734 H   0  0  0  0  0  0  0  0  0  0  0  0
   -2.5918   -1.7739   -0.1595 C   0  0  0  0  0  0  0  0  0  0  0  0
   -2.9931   -0.9419    0.4358 H   0  0  0  0  0  0  0  0  0  0  0  0
   -1.3158   -1.6541   -0.7455 C   0  0  0  0  0  0  0  0  0  0  0  0
   -0.9626    0.7306   -0.7001 C   0  0  0  0  0  3  0  0  0  0  0  0
   -0.2129    1.5213   -0.5215 H   0  0  0  0  0  0  0  0  0  0  0  0
   -2.7740    2.4201   -0.4227 C   0  0  0  0  0  0  0  0  0  0  0  0
   -2.3008    1.2222   -1.0405 C   0  0  0  0  0  0  0  0  0  0  0  0
   -3.0781    0.6303   -2.0638 C   0  0  0  0  0  0  0  0  0  0  0  0
   -2.6960   -0.2720   -2.5615 H   0  0  0  0  0  0  0  0  0  0  0  0
   -4.2910    1.1932   -2.4670 C   0  0  0  0  0  0  0  0  0  0  0  0
   -4.8722    0.7250   -3.2747 H   0  0  0  0  0  0  0  0  0  0  0  0
   -4.7546    2.3643   -1.8431 C   0  0  0  0  0  0  0  0  0  0  0  0
   -5.7115    2.8135   -2.1498 H   0  0  0  0  0  0  0  0  0  0  0  0
   -4.0045    2.9748   -0.8297 C   0  0  0  0  0  0  0  0  0  0  0  0
   -4.3889    3.8868   -0.3540 H   0  0  0  0  0  0  0  0  0  0  0  0
   -2.4833    4.7700    1.0950 C   0  0  0  0  0  0  0  0  0  0  0  0
   -1.8073    5.2849    1.8037 H   0  0  0  0  0  0  0  0  0  0  0  0
   -3.4978    4.7293    1.5383 H   0  0  0  0  0  0  0  0  0  0  0  0
   -2.5042    5.3339    0.1419 H   0  0  0  0  0  0  0  0  0  0  0  0
  1  4  1  0  0  0  0
  2 26  1  0  0  0  0
  4 13  1  0  0  0  0
  5  4  2  0  0  0  0
  5  7  1  0  0  0  0
  6  5  1  0  0  0  0
  7  9  2  0  0  0  0
  8  7  1  0  0  0  0
  9 11  1  0  0  0  0
  9 10  1  0  0  0  0
 11 12  1  0  0  0  0
 13  3  1  0  0  0  0
 13 11  2  0  0  0  0
 14  3  1  0  0  0  0
 14 15  1  0  0  0  0
 16  2  1  0  0  0  0
 17 14  1  0  0  0  0
 17 16  2  0  0  0  0
 18 17  1  0  0  0  0
 19 18  1  0  0  0  0
 20 18  2  0  0  0  0
 20 22  1  0  0  0  0
 21 20  1  0  0  0  0
 22 24  2  0  0  0  0
 23 22  1  0  0  0  0
 24 16  1  0  0  0  0
 24 25  1  0  0  0  0
 26 28  1  0  0  0  0
 26 27  1  0  0  0  0
 29 26  1  0  0  0  0
M  END
