2,3
q = 0.0, confidence = 1.0

 35 36  0  0  1  0  0  0  0  0999 V2000
    3.2904    0.8902   -1.7504 S   0  0  0  0  0  0  0  0  0  0  0  0
    3.0574   -0.0293    0.1121 S   0  0  0  0  0  0  0  0  0  0  0  0
   -1.7709    0.3696   -0.1689 N   0  0  0  0  0  2  0  0  0  0  0  0
   -3.7439    1.0734   -0.8172 N   0  0  0  0  0  0  0  0  0  0  0  0
    0.6462    1.9454   -0.0884 N   0  0  0  0  0  0  0  0  0  0  0  0
   -2.9483   -0.0275   -0.6440 C   0  0  2  0  0  3  0  0  0  0  0  0
   -3.0408    2.2175   -0.4521 C   0  0  0  0  0  0  0  0  0  0  0  0
   -1.8021    1.7442   -0.0387 C   0  0  0  0  0  0  0  0  0  0  0  0
   -0.6029    2.4617    0.5005 C   0  0  0  0  0  0  0  0  0  0  0  0
   -3.6199    3.5890   -0.5309 C   0  0  0  0  0  0  0  0  0  0  0  0
   -3.3567   -1.4418   -0.8981 C   0  0  0  0  0  0  0  0  0  0  0  0
   -3.5487   -2.2475    0.3972 C   0  0  0  0  0  0  0  0  0  0  0  0
    0.7147    2.1462   -1.5479 C   0  0  0  0  0  0  0  0  0  0  0  0
    1.5454    1.1019   -2.2917 C   0  0  0  0  0  0  0  0  0  0  0  0
    1.8457    2.4585    0.6072 C   0  0  0  0  0  0  0  0  0  0  0  0
    2.7431    1.3911    1.2333 C   0  0  0  0  0  0  0  0  0  0  0  0
   -4.7014    1.0543   -1.1704 H   0  0  0  0  0  0  0  0  0  0  0  0
   -0.5358    2.2761    1.5947 H   0  0  0  0  0  0  0  0  0  0  0  0
   -0.7187    3.5641    0.3502 H   0  0  0  0  0  0  0  0  0  0  0  0
   -2.8410    4.3433   -0.3116 H   0  0  0  0  0  0  0  0  0  0  0  0
   -4.4415    3.7419    0.2013 H   0  0  0  0  0  0  0  0  0  0  0  0
   -4.0265    3.8108   -1.5402 H   0  0  0  0  0  0  0  0  0  0  0  0
   -2.5510   -1.9137   -1.5026 H   0  0  0  0  0  0  0  0  0  0  0  0
   -4.2830   -1.4511   -1.5094 H   0  0  0  0  0  0  0  0  0  0  0  0
   -3.7924   -3.3021    0.1636 H   0  0  0  0  0  0  0  0  0  0  0  0
   -4.3641   -1.8302    1.0220 H   0  0  0  0  0  0  0  0  0  0  0  0
   -2.6215   -2.2401    1.0041 H   0  0  0  0  0  0  0  0  0  0  0  0
   -0.3192    2.0779   -1.9469 H   0  0  0  0  0  0  0  0  0  0  0  0
    1.0846    3.1750   -1.7803 H   0  0  0  0  0  0  0  0  0  0  0  0
    1.0665    0.0987   -2.2674 H   0  0  0  0  0  0  0  0  0  0  0  0
    1.6377    1.3959   -3.3593 H   0  0  0  0  0  0  0  0  0  0  0  0
    1.5421    3.1617    1.4122 H   0  0  0  0  0  0  0  0  0  0  0  0
    2.4541    3.0485   -0.1115 H   0  0  0  0  0  0  0  0  0  0  0  0
    3.7069    1.8416    1.5439 H   0  0  0  0  0  0  0  0  0  0  0  0
    2.2581    0.9108    2.1127 H   0  0  0  0  0  0  0  0  0  0  0  0
  1  2  1  0  0  0  0
  2 16  1  0  0  0  0
  3  8  1  0  0  0  0
  4  6  1  0  0  0  0
  4  7  1  0  0  0  0
  5  9  1  0  0  0  0
  5 15  1  0  0  0  0
  6 11  1  1  0  0  0
  6  3  1  0  0  0  0
  7  8  2  0  0  0  0
  8  9  1  0  0  0  0
  9 18  1  0  0  0  0
 10  7  1  0  0  0  0
 10 20  1  0  0  0  0
 10 21  1  0  0  0  0
 11 12  1  0  0  0  0
 12 27  1  0  0  0  0
 12 26  1  0  0  0  0
 13  5  1  0  0  0  0
 14 30  1  0  0  0  0
 14  1  1  0  0  0  0
 14 13  1  0  0  0  0
 15 16  1  0  0  0  0
 15 32  1  0  0  0  0
 16 34  1  0  0  0  0
 16 35  1  0  0  0  0
 17  4  1  0  0  0  0
 19  9  1  0  0  0  0
 22 10  1  0  0  0  0
 23 11  1  0  0  0  0
 24 11  1  0  0  0  0
 25 12  1  0  0  0  0
 28 13  1  0  0  0  0
 29 13  1  0  0  0  0
 31 14  1  0  0  0  0
 33 15  1  0  0  0  0
M  END
