1,3
q = 0.0, confidence = 0.998

 38 39  0  0  0  0  0  0  0  0999 V2000
   -0.3288    1.0402   -0.1654 N   0  0  0  0  0  0  0  0  0  0  0  0
   -1.0129    0.6984   -0.8688 H   0  0  0  0  0  0  0  0  0  0  0  0
    2.2911   -0.2483   -1.2442 S   0  0  0  0  0  0  0  0  0  0  0  0
   -3.0827    2.3987   -0.9393 S   0  0  0  0  0  0  0  0  0  0  0  0
   -1.0821    1.7010    0.9179 C   0  0  0  0  0  0  0  0  0  0  0  0
   -0.3599    2.0546    1.6839 H   0  0  0  0  0  0  0  0  0  0  0  0
   -1.7131    0.9307    1.4017 H   0  0  0  0  0  0  0  0  0  0  0  0
   -1.9775    2.8567    0.4600 C   0  0  0  0  0  0  0  0  0  0  0  0
   -1.3975    3.7267    0.0891 H   0  0  0  0  0  0  0  0  0  0  0  0
   -2.5871    3.2138    1.3149 H   0  0  0  0  0  0  0  0  0  0  0  0
    0.6149    1.9381   -0.8539 C   0  0  0  0  0  0  0  0  0  0  0  0
    1.3040    2.3660   -0.0956 H   0  0  0  0  0  0  0  0  0  0  0  0
    0.0781    2.7853   -1.3390 H   0  0  0  0  0  0  0  0  0  0  0  0
    1.3870    1.1890   -1.9262 C   0  0  0  0  0  0  0  0  0  0  0  0
    2.0844    1.8415   -2.4855 H   0  0  0  0  0  0  0  0  0  0  0  0
    0.6979    0.7114   -2.6520 H   0  0  0  0  0  0  0  0  0  0  0  0
   -4.0579    1.1190   -0.1387 C   0  0  0  0  0  0  0  0  0  0  0  0
   -5.0489    1.4776    0.7978 C   0  0  0  0  0  0  0  0  0  0  0  0
   -5.2298    2.5412    1.0164 H   0  0  0  0  0  0  0  0  0  0  0  0
   -5.7970    0.4796    1.4383 C   0  0  0  0  0  0  0  0  0  0  0  0
   -6.5667    0.7615    2.1729 H   0  0  0  0  0  0  0  0  0  0  0  0
   -5.5705   -0.8745    1.1375 C   0  0  0  0  0  0  0  0  0  0  0  0
   -6.1562   -1.6559    1.6448 H   0  0  0  0  0  0  0  0  0  0  0  0
   -4.5959   -1.2284    0.1930 C   0  0  0  0  0  0  0  0  0  0  0  0
   -4.4008   -2.2859   -0.0394 H   0  0  0  0  0  0  0  0  0  0  0  0
   -3.8393   -0.2361   -0.4503 C   0  0  0  0  0  0  0  0  0  0  0  0
   -3.0599   -0.5256   -1.1735 H   0  0  0  0  0  0  0  0  0  0  0  0
    3.6765    0.4983   -0.3659 C   0  0  0  0  0  0  0  0  0  0  0  0
    4.0996    1.8279   -0.5375 C   0  0  0  0  0  0  0  0  0  0  0  0
    3.5688    2.5113   -1.2143 H   0  0  0  0  0  0  0  0  0  0  0  0
    5.2239    2.2961    0.1624 C   0  0  0  0  0  0  0  0  0  0  0  0
    5.5455    3.3398    0.0265 H   0  0  0  0  0  0  0  0  0  0  0  0
    5.9308    1.4470    1.0248 C   0  0  0  0  0  0  0  0  0  0  0  0
    6.8084    1.8204    1.5727 H   0  0  0  0  0  0  0  0  0  0  0  0
    5.5099    0.1167    1.1851 C   0  0  0  0  0  0  0  0  0  0  0  0
    6.0556   -0.5600    1.8595 H   0  0  0  0  0  0  0  0  0  0  0  0
    4.3884   -0.3601    0.4961 C   0  0  0  0  0  0  0  0  0  0  0  0
    4.0594   -1.4015    0.6320 H   0  0  0  0  0  0  0  0  0  0  0  0
  1  5  1  0  0  0  0
  2  1  1  0  0  0  0
  3 28  1  0  0  0  0
  4 17  1  0  0  0  0
  4  8  1  0  0  0  0
  5  7  1  0  0  0  0
  5  6  1  0  0  0  0
  8  5  1  0  0  0  0
  8 10  1  0  0  0  0
  9  8  1  0  0  0  0
 11  1  1  0  0  0  0
 11 12  1  0  0  0  0
 13 11  1  0  0  0  0
 14  3  1  0  0  0  0
 14 11  1  0  0  0  0
 15 14  1  0  0  0  0
 16 14  1  0  0  0  0
 17 18  1  0  0  0  0
 18 19  1  0  0  0  0
 18 20  2  0  0  0  0
 20 21  1  0  0  0  0
 22 20  1  0  0  0  0
 22 23  1  0  0  0  0
 24 22  2  0  0  0  0
 25 24  1  0  0  0  0
 26 17  2  0  0  0  0
 26 24  1  0  0  0  0
 27 26  1  0  0  0  0
 28 37  1  0  0  0  0
 29 28  2  0  0  0  0
 29 31  1  0  0  0  0
 30 29  1  0  0  0  0
 31 33  2  0  0  0  0
 32 31  1  0  0  0  0
 33 35  1  0  0  0  0
 33 34  1  0  0  0  0
 35 36  1  0  0  0  0
 37 38  1  0  0  0  0
 37 35  2  0  0  0  0
M  END
