1,6
q = -1.0, confidence = 0.0

 26 27  0  0  0  0  0  0  0  0999 V2000
    0.6238    2.6574   -0.0842 S   0  0  0  0  0  1  0  0  0  0  0  0
   -2.1209    2.5358   -0.1041 N   0  0  0  0  0  0  0  0  0  0  0  0
   -1.1692    4.6277   -0.1626 N   0  0  0  0  0  0  0  0  0  0  0  0
   -2.0981    5.0089   -0.3387 H   0  0  0  0  0  0  0  0  0  0  0  0
   -0.3564    5.2073   -0.3591 H   0  0  0  0  0  0  0  0  0  0  0  0
   -1.9099    1.2004   -0.0416 N   0  0  0  0  0  2  0  0  0  0  0  0
   -5.2292   -0.5809    0.0141 C   0  0  0  0  0  0  0  0  0  0  0  0
   -4.3593    0.5871    0.0575 C   0  0  0  0  0  0  0  0  0  0  0  0
   -6.6593   -0.3844    0.0836 C   0  0  0  0  0  0  0  0  0  0  0  0
   -2.9233    0.3612    0.0239 C   0  0  0  0  0  3  0  0  0  0  0  0
   -2.5697   -0.6783    0.0635 H   0  0  0  0  0  0  0  0  0  0  0  0
   -4.7507   -1.9207   -0.1028 C   0  0  0  0  0  0  0  0  0  0  0  0
   -3.6731   -2.1224   -0.1751 H   0  0  0  0  0  0  0  0  0  0  0  0
   -1.0272    3.2726   -0.1272 C   0  0  0  0  0  0  0  0  0  0  0  0
   -4.9408    1.8635    0.1476 C   0  0  0  0  0  0  0  0  0  0  0  0
   -4.2662    2.7272    0.1706 H   0  0  0  0  0  0  0  0  0  0  0  0
   -5.6251   -2.9991   -0.1375 C   0  0  0  0  0  0  0  0  0  0  0  0
   -5.2211   -4.0187   -0.2290 H   0  0  0  0  0  0  0  0  0  0  0  0
   -7.1865    0.9356    0.1841 C   0  0  0  0  0  0  0  0  0  0  0  0
   -8.2791    1.0641    0.2365 H   0  0  0  0  0  0  0  0  0  0  0  0
   -6.3411    2.0342    0.2123 C   0  0  0  0  0  0  0  0  0  0  0  0
   -6.7574    3.0503    0.2885 H   0  0  0  0  0  0  0  0  0  0  0  0
   -7.5295   -1.5141    0.0465 C   0  0  0  0  0  0  0  0  0  0  0  0
   -8.6154   -1.3391    0.1028 H   0  0  0  0  0  0  0  0  0  0  0  0
   -7.0270   -2.8005   -0.0600 C   0  0  0  0  0  0  0  0  0  0  0  0
   -7.7088   -3.6640   -0.0880 H   0  0  0  0  0  0  0  0  0  0  0  0
  2  6  1  0  0  0  0
  3 14  1  0  0  0  0
  4  3  1  0  0  0  0
  5  3  1  0  0  0  0
  6 10  1  0  0  0  0
  7  8  2  0  0  0  0
  7  9  1  0  0  0  0
  8 15  1  0  0  0  0
  9 19  2  0  0  0  0
 10  8  1  0  0  0  0
 10 11  1  0  0  0  0
 12  7  1  0  0  0  0
 13 12  1  0  0  0  0
 14  2  2  0  0  0  0
 14  1  1  0  0  0  0
 15 16  1  0  0  0  0
 15 21  2  0  0  0  0
 17 12  2  0  0  0  0
 17 25  1  0  0  0  0
 18 17  1  0  0  0  0
 19 21  1  0  0  0  0
 19 20  1  0  0  0  0
 21 22  1  0  0  0  0
 23  9  1  0  0  0  0
 23 24  1  0  0  0  0
 25 23  2  0  0  0  0
 26 25  1  0  0  0  0
M  END
