1,7
q = -1.0, confidence = 0.018

 41 42  0  0  1  0  0  0  0  0999 V2000
    2.5934    0.3699    1.1461 S   0  0  0  0  0  1  0  0  0  0  0  0
   -5.1981    2.1336   -0.6066 O   0  0  0  0  0  0  0  0  0  0  0  0
   -5.0908    0.1573    0.5065 O   0  0  0  0  0  0  0  0  0  0  0  0
    3.3211    2.9208    0.5181 N   0  0  0  0  0  0  0  0  0  0  0  0
    1.8431    2.1018   -0.9007 N   0  0  0  0  0  0  0  0  0  0  0  0
   -0.4836    1.1114   -0.5999 N   0  0  0  0  0  0  0  0  0  0  0  0
   -0.5196    0.0516    0.2514 N   0  0  0  0  0  2  0  0  0  0  0  0
    2.5570    1.8175    0.2269 C   0  0  1  0  0  3  0  0  0  0  0  0
    3.0861    3.9027   -0.4397 C   0  0  0  0  0  0  0  0  0  0  0  0
    3.5962    4.8698   -0.4132 H   0  0  0  0  0  0  0  0  0  0  0  0
    2.1691    3.3854   -1.3178 C   0  0  0  0  0  0  0  0  0  0  0  0
    1.7146    3.8234   -2.2106 H   0  0  0  0  0  0  0  0  0  0  0  0
    4.2383    2.9946    1.6389 C   0  0  0  0  0  0  0  0  0  0  0  0
    3.6845    2.9610    2.5989 H   0  0  0  0  0  0  0  0  0  0  0  0
    4.8121    3.9364    1.5756 H   0  0  0  0  0  0  0  0  0  0  0  0
    4.9323    2.1307    1.6148 H   0  0  0  0  0  0  0  0  0  0  0  0
   -1.7914    3.1774   -1.1652 C   0  0  0  0  0  0  0  0  0  0  0  0
   -1.2568    4.0475   -0.7269 H   0  0  0  0  0  0  0  0  0  0  0  0
   -2.8734    3.4089   -1.1880 H   0  0  0  0  0  0  0  0  0  0  0  0
   -1.4377    3.0634   -2.2084 H   0  0  0  0  0  0  0  0  0  0  0  0
   -1.5498    1.9298   -0.3823 C   0  0  2  0  0  3  0  0  0  0  0  0
   -2.2936    1.3642    0.6682 C   0  0  0  0  0  0  0  0  0  0  0  0
   -1.6160    0.1677    1.0245 C   0  0  0  0  0  0  0  0  0  0  0  0
   -1.9990   -0.8500    2.0457 C   0  0  0  0  0  0  0  0  0  0  0  0
   -1.3239   -1.7238    2.0047 H   0  0  0  0  0  0  0  0  0  0  0  0
   -3.0398   -1.1925    1.8772 H   0  0  0  0  0  0  0  0  0  0  0  0
   -1.9493   -0.4299    3.0721 H   0  0  0  0  0  0  0  0  0  0  0  0
   -3.6038    1.8595    1.2164 C   0  0  0  0  0  0  0  0  0  0  0  0
   -3.6207    2.9633    1.2892 H   0  0  0  0  0  0  0  0  0  0  0  0
   -3.7820    1.4348    2.2232 H   0  0  0  0  0  0  0  0  0  0  0  0
   -4.7287    1.4422    0.2788 C   0  0  0  0  0  0  0  0  0  0  0  0
   -6.0457   -0.4094   -0.4196 C   0  0  0  0  0  0  0  0  0  0  0  0
   -5.6920   -0.2196   -1.4547 H   0  0  0  0  0  0  0  0  0  0  0  0
   -7.0118    0.1274   -0.3075 H   0  0  0  0  0  0  0  0  0  0  0  0
   -6.1711   -1.8870   -0.1133 C   0  0  0  0  0  0  0  0  0  0  0  0
   -5.1989   -2.4030   -0.2426 H   0  0  0  0  0  0  0  0  0  0  0  0
   -6.9040   -2.3553   -0.7997 H   0  0  0  0  0  0  0  0  0  0  0  0
   -6.5174   -2.0518    0.9264 H   0  0  0  0  0  0  0  0  0  0  0  0
    0.7467    1.2029   -1.5201 B   0  0  0  0  0  0  0  0  0  0  0  0
    0.4737    1.6016   -2.6423 H   0  0  0  0  0  0  0  0  0  0  0  0
    1.2243    0.0208   -1.7219 H   0  0  0  0  0  0  0  0  0  0  0  0
  2 31  2  0  0  0  0
  4 13  1  0  0  0  0
  5  8  1  0  0  0  0
  6 21  1  0  0  0  0
  6  7  1  0  0  0  0
  7 23  1  0  0  0  0
  8  4  1  0  0  0  0
  8  1  1  6  0  0  0
  9 10  1  0  0  0  0
  9  4  1  0  0  0  0
 11  5  1  0  0  0  0
 11  9  2  0  0  0  0
 12 11  1  0  0  0  0
 13 14  1  0  0  0  0
 15 13  1  0  0  0  0
 16 13  1  0  0  0  0
 17 18  1  0  0  0  0
 19 17  1  0  0  0  0
 20 17  1  0  0  0  0
 21 17  1  1  0  0  0
 21 22  1  0  0  0  0
 22 23  2  0  0  0  0
 22 28  1  0  0  0  0
 23 24  1  0  0  0  0
 24 27  1  0  0  0  0
 25 24  1  0  0  0  0
 26 24  1  0  0  0  0
 28 29  1  0  0  0  0
 28 30  1  0  0  0  0
 31  3  1  0  0  0  0
 31 28  1  0  0  0  0
 32 34  1  0  0  0  0
 32 35  1  0  0  0  0
 32  3  1  0  0  0  0
 33 32  1  0  0  0  0
 35 38  1  0  0  0  0
 36 35  1  0  0  0  0
 37 35  1  0  0  0  0
 39  5  1  0  0  0  0
 39  6  1  0  0  0  0
 40 39  1  0  0  0  0
 41 39  1  0  0  0  0
M  END
