2,5
q = -1.0, confidence = 0.0

 18 18  0  0  1  0  0  0  0  0999 V2000
    4.9200    0.4852    0.1288 N   0  0  0  0  0  0  0  0  0  0  0  0
    1.9043    0.2322    0.0532 N   0  0  0  0  0  2  0  0  0  0  0  0
    2.4384    1.4898    0.2487 N   0  0  0  0  0  2  0  0  0  0  0  0
    1.9942    3.7568    0.1118 N   0  0  0  0  0  0  0  0  0  0  0  0
   -0.0729    2.1559   -0.4674 S   0  0  0  0  0  1  0  0  0  0  0  0
    6.2555    0.2258    0.0989 C   0  0  0  0  0  0  0  0  0  0  0  0
    6.4316   -1.1480   -0.1324 C   0  0  0  0  0  0  0  0  0  0  0  0
    5.1445   -1.7221   -0.2421 C   0  0  0  0  0  0  0  0  0  0  0  0
    4.2030   -0.6798   -0.0753 C   0  0  0  0  0  0  0  0  0  0  0  0
    2.7763   -0.7541   -0.0990 C   0  0  0  0  0  3  0  0  0  0  0  0
    1.5735    2.4608    0.0278 C   0  0  1  0  0  3  0  0  0  0  0  0
    4.8970   -2.7747   -0.4203 H   0  0  0  0  0  0  0  0  0  0  0  0
    4.3769    1.3522    0.2764 H   0  0  0  0  0  0  0  0  0  0  0  0
    2.3414   -1.7497   -0.2666 H   0  0  0  0  0  0  0  0  0  0  0  0
    7.3946   -1.6645   -0.2112 H   0  0  0  0  0  0  0  0  0  0  0  0
    6.9958    1.0212    0.2408 H   0  0  0  0  0  0  0  0  0  0  0  0
    2.9027    3.9402    0.5370 H   0  0  0  0  0  0  0  0  0  0  0  0
    1.2876    4.4868    0.1759 H   0  0  0  0  0  0  0  0  0  0  0  0
  1 13  1  0  0  0  0
  2  3  1  0  0  0  0
  4 18  1  0  0  0  0
  4 17  1  0  0  0  0
  6  1  1  0  0  0  0
  6 16  1  0  0  0  0
  7  6  2  0  0  0  0
  8  7  1  0  0  0  0
  8  9  2  0  0  0  0
  9  1  1  0  0  0  0
 10  9  1  0  0  0  0
 10  2  1  0  0  0  0
 11  5  1  6  0  0  0
 11  4  1  0  0  0  0
 11  3  1  0  0  0  0
 12  8  1  0  0  0  0
 14 10  1  0  0  0  0
 15  7  1  0  0  0  0
M  END
