1,7
q = 0.0, confidence = 0.976

 11 11  0  0  1  0  0  0  0  0999 V2000
   -1.2799   -2.4952    0.3296 N   0  0  0  0  0  2  0  0  0  0  0  0
   -2.8437   -3.6942   -0.9735 N   0  0  0  0  0  0  0  0  0  0  0  0
   -1.7537   -2.8439   -0.9192 C   0  0  1  0  0  3  0  0  0  0  0  0
   -1.9512   -2.8707    1.4227 C   0  0  0  0  0  3  0  0  0  0  0  0
   -3.5424   -4.0877    0.1256 C   0  0  0  0  0  0  0  0  0  0  0  0
   -3.1172   -3.6677    1.3739 C   0  0  0  0  0  0  0  0  0  0  0  0
   -1.0462   -2.1733   -2.2866 S   0  0  0  0  0  1  0  0  0  0  0  0
   -1.5422   -2.5280    2.3874 H   0  0  0  0  0  0  0  0  0  0  0  0
   -3.6591   -3.9518    2.2835 H   0  0  0  0  0  0  0  0  0  0  0  0
   -4.4189   -4.7273   -0.0461 H   0  0  0  0  0  0  0  0  0  0  0  0
   -3.1589   -3.9597   -1.9133 H   0  0  0  0  0  0  0  0  0  0  0  0
  1  4  1  0  0  0  0
  2  3  1  0  0  0  0
  2  5  1  0  0  0  0
  3  7  1  1  0  0  0
  3  1  1  0  0  0  0
  4  8  1  0  0  0  0
  5  6  2  0  0  0  0
  6  4  1  0  0  0  0
  6  9  1  0  0  0  0
 10  5  1  0  0  0  0
 11  2  1  0  0  0  0
M  END
