1,3
q = -1.0, confidence = 0.0

 13 13  0  0  1  0  0  0  0  0999 V2000
   -1.1068    2.1890   -0.0014 S   0  0  0  0  0  1  0  0  0  0  0  0
   -3.7650    1.4702   -0.0005 N   0  0  0  0  0  0  0  0  0  0  0  0
   -2.0348   -0.1708   -0.0003 N   0  0  0  0  0  2  0  0  0  0  0  0
   -2.4786    1.1265   -0.0008 C   0  0  2  0  0  3  0  0  0  0  0  0
   -2.8909   -1.2112    0.0002 C   0  0  0  0  0  0  0  0  0  0  0  0
   -4.2636   -0.9005    0.0005 C   0  0  0  0  0  0  0  0  0  0  0  0
   -4.6397    0.4544    0.0001 C   0  0  0  0  0  0  0  0  0  0  0  0
   -2.3320   -2.5947    0.0005 C   0  0  0  0  0  0  0  0  0  0  0  0
   -5.0127   -1.7034    0.0008 H   0  0  0  0  0  0  0  0  0  0  0  0
   -5.7092    0.7303    0.0003 H   0  0  0  0  0  0  0  0  0  0  0  0
   -1.6872   -2.7393   -0.8912 H   0  0  0  0  0  0  0  0  0  0  0  0
   -1.6900   -2.7400    0.8940 H   0  0  0  0  0  0  0  0  0  0  0  0
   -3.1352   -3.3524   -0.0010 H   0  0  0  0  0  0  0  0  0  0  0  0
  2  7  2  0  0  0  0
  3  5  1  0  0  0  0
  4  1  1  1  0  0  0
  4  2  1  0  0  0  0
  4  3  1  0  0  0  0
  5  6  2  0  0  0  0
  5  8  1  0  0  0  0
  6  9  1  0  0  0  0
  7 10  1  0  0  0  0
  7  6  1  0  0  0  0
  8 12  1  0  0  0  0
 11  8  1  0  0  0  0
 13  8  1  0  0  0  0
M  END
