1,2
q = -1.0, confidence = 0.0

 43 43  0  0  1  0  0  0  0  0999 V2000
   -2.1505    1.8373   -0.2309 S   0  0  0  0  0  1  0  0  0  0  0  0
    0.9439    0.7522   -0.1808 N   0  0  0  0  0  2  0  0  0  0  0  0
   -1.0959    3.1523   -0.5105 C   0  0  1  0  0  3  0  0  0  0  0  0
    0.2929    3.1120   -0.5562 C   0  0  0  0  0  0  0  0  0  0  0  0
    0.7733    4.0847   -0.7431 H   0  0  0  0  0  0  0  0  0  0  0  0
    1.2263    2.0435   -0.3935 C   0  0  0  0  0  0  0  0  0  0  0  0
   -1.7918    4.4788   -0.7296 C   0  0  0  0  0  0  0  0  0  0  0  0
   -1.0661    5.3063   -0.8524 H   0  0  0  0  0  0  0  0  0  0  0  0
   -2.4607    4.7163    0.1227 H   0  0  0  0  0  0  0  0  0  0  0  0
   -2.4340    4.4370   -1.6337 H   0  0  0  0  0  0  0  0  0  0  0  0
    2.6833    2.4772   -0.4375 C   0  0  0  0  0  0  0  0  0  0  0  0
    3.1057    2.5112    0.5885 H   0  0  0  0  0  0  0  0  0  0  0  0
    2.7772    3.4868   -0.8765 H   0  0  0  0  0  0  0  0  0  0  0  0
    3.3151    1.7721   -1.0081 H   0  0  0  0  0  0  0  0  0  0  0  0
    2.0713   -0.1224   -0.0352 C   0  0  0  0  0  0  0  0  0  0  0  0
    2.7089   -0.2313    1.2288 C   0  0  0  0  0  0  0  0  0  0  0  0
    3.8036   -1.1084    1.3437 C   0  0  0  0  0  0  0  0  0  0  0  0
    4.3124   -1.2114    2.3139 H   0  0  0  0  0  0  0  0  0  0  0  0
    4.2564   -1.8514    0.2465 C   0  0  0  0  0  0  0  0  0  0  0  0
    5.1187   -2.5267    0.3558 H   0  0  0  0  0  0  0  0  0  0  0  0
    3.6013   -1.7439   -0.9867 C   0  0  0  0  0  0  0  0  0  0  0  0
    3.9509   -2.3460   -1.8380 H   0  0  0  0  0  0  0  0  0  0  0  0
    2.4951   -0.8903   -1.1529 C   0  0  0  0  0  0  0  0  0  0  0  0
    2.1959    0.5370    2.4447 C   0  0  0  0  0  0  0  0  0  0  0  0
    1.6173    1.4056    2.0704 H   0  0  0  0  0  0  0  0  0  0  0  0
    1.2113   -0.3210    3.2612 C   0  0  0  0  0  0  0  0  0  0  0  0
    1.6983   -1.2528    3.6171 H   0  0  0  0  0  0  0  0  0  0  0  0
    0.3309   -0.5996    2.6475 H   0  0  0  0  0  0  0  0  0  0  0  0
    0.8491    0.2394    4.1480 H   0  0  0  0  0  0  0  0  0  0  0  0
    3.3255    1.0813    3.3314 C   0  0  0  0  0  0  0  0  0  0  0  0
    3.8796    0.2684    3.8447 H   0  0  0  0  0  0  0  0  0  0  0  0
    2.9112    1.7394    4.1219 H   0  0  0  0  0  0  0  0  0  0  0  0
    4.0617    1.6692    2.7457 H   0  0  0  0  0  0  0  0  0  0  0  0
    1.7540   -0.8004   -2.4838 C   0  0  0  0  0  0  0  0  0  0  0  0
    0.6970   -0.5619   -2.2314 H   0  0  0  0  0  0  0  0  0  0  0  0
    1.7566   -2.1217   -3.2646 C   0  0  0  0  0  0  0  0  0  0  0  0
    1.0739   -2.0509   -4.1356 H   0  0  0  0  0  0  0  0  0  0  0  0
    1.4217   -2.9695   -2.6338 H   0  0  0  0  0  0  0  0  0  0  0  0
    2.7627   -2.3712   -3.6622 H   0  0  0  0  0  0  0  0  0  0  0  0
    2.2809    0.3446   -3.3684 C   0  0  0  0  0  0  0  0  0  0  0  0
    2.1493    1.3332   -2.8899 H   0  0  0  0  0  0  0  0  0  0  0  0
    1.7360    0.3701   -4.3347 H   0  0  0  0  0  0  0  0  0  0  0  0
    3.3606    0.2103   -3.5900 H   0  0  0  0  0  0  0  0  0  0  0  0
  2 15  1  0  0  0  0
  3  1  1  6  0  0  0
  4  3  1  0  0  0  0
  4  6  2  0  0  0  0
  5  4  1  0  0  0  0
  6  2  1  0  0  0  0
  7  3  1  0  0  0  0
  7  9  1  0  0  0  0
  8  7  1  0  0  0  0
 10  7  1  0  0  0  0
 11  6  1  0  0  0  0
 11 12  1  0  0  0  0
 13 11  1  0  0  0  0
 14 11  1  0  0  0  0
 15 16  1  0  0  0  0
 16 17  2  0  0  0  0
 16 24  1  0  0  0  0
 17 18  1  0  0  0  0
 19 20  1  0  0  0  0
 19 17  1  0  0  0  0
 21 19  2  0  0  0  0
 22 21  1  0  0  0  0
 23 21  1  0  0  0  0
 23 15  2  0  0  0  0
 24 26  1  0  0  0  0
 24 30  1  0  0  0  0
 25 24  1  0  0  0  0
 26 27  1  0  0  0  0
 26 29  1  0  0  0  0
 28 26  1  0  0  0  0
 30 31  1  0  0  0  0
 30 32  1  0  0  0  0
 33 30  1  0  0  0  0
 34 35  1  0  0  0  0
 34 23  1  0  0  0  0
 36 38  1  0  0  0  0
 36 34  1  0  0  0  0
 37 36  1  0  0  0  0
 39 36  1  0  0  0  0
 40 41  1  0  0  0  0
 40 34  1  0  0  0  0
 42 40  1  0  0  0  0
 43 40  1  0  0  0  0
M  END
