1,2
q = 0.0, confidence = 1.0

 32 33  0  0  0  0  0  0  0  0999 V2000
    1.2581    0.1052   -1.4982 S   0  0  0  0  0  0  0  0  0  0  0  0
   -1.3888   -0.8018   -0.0830 N   0  0  0  0  0  0  0  0  0  0  0  0
   -1.7322   -1.1298    1.3390 C   0  0  0  0  0  0  0  0  0  0  0  0
   -2.1919   -0.2113    1.7570 H   0  0  0  0  0  0  0  0  0  0  0  0
   -0.7896   -1.3252    1.8877 H   0  0  0  0  0  0  0  0  0  0  0  0
   -2.7064   -2.3022    1.4455 C   0  0  0  0  0  0  0  0  0  0  0  0
   -2.2389   -3.2589    1.0970 H   0  0  0  0  0  0  0  0  0  0  0  0
   -2.9871   -2.4425    2.5085 H   0  0  0  0  0  0  0  0  0  0  0  0
   -3.6315   -1.8100   -0.6389 C   0  0  0  0  0  0  0  0  0  0  0  0
   -4.5973   -1.5730   -1.1285 H   0  0  0  0  0  0  0  0  0  0  0  0
   -3.2367   -2.7399   -1.1248 H   0  0  0  0  0  0  0  0  0  0  0  0
   -2.6759   -0.6308   -0.8339 C   0  0  0  0  0  0  0  0  0  0  0  0
   -2.4523   -0.4653   -1.9064 H   0  0  0  0  0  0  0  0  0  0  0  0
   -3.1288    0.2985   -0.4326 H   0  0  0  0  0  0  0  0  0  0  0  0
   -0.5116   -1.8592   -0.6717 C   0  0  0  0  0  0  0  0  0  0  0  0
    0.2175   -2.1559    0.1090 H   0  0  0  0  0  0  0  0  0  0  0  0
   -1.1017   -2.7661   -0.9273 H   0  0  0  0  0  0  0  0  0  0  0  0
    0.2442   -1.3817   -1.8958 C   0  0  0  0  0  0  0  0  0  0  0  0
   -0.4260   -1.0326   -2.7067 H   0  0  0  0  0  0  0  0  0  0  0  0
    0.8819   -2.1825   -2.3184 H   0  0  0  0  0  0  0  0  0  0  0  0
    2.4793   -0.5727   -0.3432 C   0  0  0  0  0  0  0  0  0  0  0  0
    3.0707   -1.8312   -0.5546 C   0  0  0  0  0  0  0  0  0  0  0  0
    2.7823   -2.4592   -1.4102 H   0  0  0  0  0  0  0  0  0  0  0  0
    4.0529   -2.2899    0.3375 C   0  0  0  0  0  0  0  0  0  0  0  0
    4.5080   -3.2792    0.1782 H   0  0  0  0  0  0  0  0  0  0  0  0
    4.4581   -1.4903    1.4170 C   0  0  0  0  0  0  0  0  0  0  0  0
    5.2292   -1.8536    2.1125 H   0  0  0  0  0  0  0  0  0  0  0  0
    3.8799   -0.2239    1.6021 C   0  0  0  0  0  0  0  0  0  0  0  0
    4.1969    0.4127    2.4418 H   0  0  0  0  0  0  0  0  0  0  0  0
    2.8872    0.2433    0.7288 C   0  0  0  0  0  0  0  0  0  0  0  0
    2.4255    1.2362    0.8609 H   0  0  0  0  0  0  0  0  0  0  0  0
   -3.9025   -2.0472    0.7291 O   0  0  0  0  0  0  0  0  0  0  0  0
  1 21  1  0  0  0  0
  2  3  1  0  0  0  0
  3  6  1  0  0  0  0
  3  4  1  0  0  0  0
  3  5  1  0  0  0  0
  6  8  1  0  0  0  0
  7  6  1  0  0  0  0
  9 32  1  0  0  0  0
 10  9  1  0  0  0  0
 11  9  1  0  0  0  0
 12  9  1  0  0  0  0
 12 14  1  0  0  0  0
 12  2  1  0  0  0  0
 13 12  1  0  0  0  0
 15  2  1  0  0  0  0
 15 16  1  0  0  0  0
 17 15  1  0  0  0  0
 18  1  1  0  0  0  0
 18 15  1  0  0  0  0
 19 18  1  0  0  0  0
 20 18  1  0  0  0  0
 21 30  1  0  0  0  0
 22 21  2  0  0  0  0
 22 24  1  0  0  0  0
 23 22  1  0  0  0  0
 24 26  2  0  0  0  0
 25 24  1  0  0  0  0
 26 28  1  0  0  0  0
 26 27  1  0  0  0  0
 28 29  1  0  0  0  0
 30 31  1  0  0  0  0
 30 28  2  0  0  0  0
 32  6  1  0  0  0  0
M  END
