1,3
q = -1.0, confidence = 0.0

 29 30  0  0  0  0  0  0  0  0999 V2000
   -2.2641   -0.7457   -1.3640 S   0  0  0  0  0  1  0  0  0  0  0  0
    5.9192    1.0217   -0.5479 O   0  0  0  0  0  0  0  0  0  0  0  0
    0.0999   -1.8313    0.0266 N   0  0  0  0  0  2  0  0  0  0  0  0
   -2.1406   -2.3736   -0.6907 C   0  0  0  0  0  0  0  0  0  0  0  0
   -3.1926   -3.3048   -0.8355 C   0  0  0  0  0  0  0  0  0  0  0  0
   -4.1027   -2.9949   -1.3710 H   0  0  0  0  0  0  0  0  0  0  0  0
   -3.0917   -4.5885   -0.2869 C   0  0  0  0  0  0  0  0  0  0  0  0
   -3.9308   -5.2927   -0.3946 H   0  0  0  0  0  0  0  0  0  0  0  0
   -1.9404   -4.9684    0.4279 C   0  0  0  0  0  0  0  0  0  0  0  0
   -1.8790   -5.9606    0.8985 H   0  0  0  0  0  0  0  0  0  0  0  0
   -0.8770   -4.0669    0.5601 C   0  0  0  0  0  0  0  0  0  0  0  0
    0.0126   -4.3528    1.1410 H   0  0  0  0  0  0  0  0  0  0  0  0
   -0.9579   -2.7792   -0.0061 C   0  0  0  0  0  0  0  0  0  0  0  0
    1.3468   -2.2142    0.0701 C   0  0  0  0  0  3  0  0  0  0  0  0
    1.5561   -3.2969    0.1888 H   0  0  0  0  0  0  0  0  0  0  0  0
    2.5137   -1.3665   -0.0848 C   0  0  0  0  0  0  0  0  0  0  0  0
    3.7664   -1.8420    0.3652 C   0  0  0  0  0  0  0  0  0  0  0  0
    3.8258   -2.8315    0.8454 H   0  0  0  0  0  0  0  0  0  0  0  0
    4.9283   -1.0732    0.2450 C   0  0  0  0  0  0  0  0  0  0  0  0
    5.8790   -1.4665    0.6275 H   0  0  0  0  0  0  0  0  0  0  0  0
    4.8591    0.1960   -0.3716 C   0  0  0  0  0  0  0  0  0  0  0  0
    3.6202    0.6639   -0.8721 C   0  0  0  0  0  0  0  0  0  0  0  0
    3.5985    1.6413   -1.3751 H   0  0  0  0  0  0  0  0  0  0  0  0
    2.4715   -0.1016   -0.7288 C   0  0  0  0  0  0  0  0  0  0  0  0
    1.5117    0.2603   -1.1325 H   0  0  0  0  0  0  0  0  0  0  0  0
    7.1889    0.6107   -0.0716 C   0  0  0  0  0  0  0  0  0  0  0  0
    7.8917    1.4299   -0.3103 H   0  0  0  0  0  0  0  0  0  0  0  0
    7.5356   -0.3212   -0.5712 H   0  0  0  0  0  0  0  0  0  0  0  0
    7.1830    0.4468    1.0289 H   0  0  0  0  0  0  0  0  0  0  0  0
  1  4  1  0  0  0  0
  2 21  1  0  0  0  0
  2 26  1  0  0  0  0
  3 14  1  0  0  0  0
  4 13  1  0  0  0  0
  5  4  2  0  0  0  0
  5  7  1  0  0  0  0
  6  5  1  0  0  0  0
  7  9  2  0  0  0  0
  8  7  1  0  0  0  0
  9 11  1  0  0  0  0
  9 10  1  0  0  0  0
 11 12  1  0  0  0  0
 13  3  1  0  0  0  0
 13 11  2  0  0  0  0
 14 15  1  0  0  0  0
 16 14  1  0  0  0  0
 16 17  1  0  0  0  0
 17 18  1  0  0  0  0
 19 17  2  0  0  0  0
 19 20  1  0  0  0  0
 21 19  1  0  0  0  0
 22 24  1  0  0  0  0
 22 21  2  0  0  0  0
 23 22  1  0  0  0  0
 24 16  2  0  0  0  0
 25 24  1  0  0  0  0
 26 29  1  0  0  0  0
 27 26  1  0  0  0  0
 28 26  1  0  0  0  0
M  END
