1,2
q = -1.0, confidence = 0.002

 14 14  0  0  1  0  0  0  0  0999 V2000
    1.4749   -0.4822   -2.1446 S   0  0  0  0  0  1  0  0  0  0  0  0
    2.1474    0.1366    0.2351 N   0  0  0  0  0  2  0  0  0  0  0  0
    2.3663    0.5319   -1.0492 C   0  0  1  0  0  3  0  0  0  0  0  0
    3.2281    1.6015   -1.3584 C   0  0  0  0  0  0  0  0  0  0  0  0
    3.3590    1.9093   -2.4045 H   0  0  0  0  0  0  0  0  0  0  0  0
    3.9007    2.2184   -0.3039 C   0  0  0  0  0  0  0  0  0  0  0  0
    4.5875    3.0557   -0.5009 H   0  0  0  0  0  0  0  0  0  0  0  0
    3.7076    1.7605    1.0125 C   0  0  0  0  0  0  0  0  0  0  0  0
    4.2477    2.2175    1.8533 H   0  0  0  0  0  0  0  0  0  0  0  0
    2.8203    0.7023    1.2659 C   0  0  0  0  0  0  0  0  0  0  0  0
    2.5974    0.1598    2.6432 C   0  0  0  0  0  0  0  0  0  0  0  0
    1.5253    0.1959    2.9249 H   0  0  0  0  0  0  0  0  0  0  0  0
    3.1800    0.7256    3.3929 H   0  0  0  0  0  0  0  0  0  0  0  0
    2.9110   -0.9029    2.6701 H   0  0  0  0  0  0  0  0  0  0  0  0
  2 10  1  0  0  0  0
  3  1  1  6  0  0  0
  3  2  1  0  0  0  0
  4  3  1  0  0  0  0
  4  6  2  0  0  0  0
  5  4  1  0  0  0  0
  6  8  1  0  0  0  0
  7  6  1  0  0  0  0
  8 10  2  0  0  0  0
  8  9  1  0  0  0  0
 10 11  1  0  0  0  0
 11 14  1  0  0  0  0
 11 12  1  0  0  0  0
 11 13  1  0  0  0  0
M  END
