1,6
q = 0.0, confidence = 0.99

 42 44  0  0  1  0  0  0  0  0999 V2000
    0.1229   -1.4552   -1.6456 S   0  0  0  0  0  1  0  0  0  0  0  0
   -2.0049   -0.4497   -0.3155 N   0  0  0  0  0  0  0  0  0  0  0  0
   -2.5563    0.4333   -0.1454 H   0  0  0  0  0  0  0  0  0  0  0  0
   -0.2071    0.9746   -0.4999 N   0  0  0  0  0  0  0  0  0  0  0  0
   -2.8912    2.1976    0.0434 N   0  0  0  0  0  0  0  0  0  0  0  0
    2.7552    0.5452   -0.1879 N   0  0  0  0  0  2  0  0  0  0  0  0
   -2.6748   -1.6878   -0.1397 C   0  0  0  0  0  0  0  0  0  0  0  0
   -2.0464   -2.7699    0.5066 C   0  0  0  0  0  0  0  0  0  0  0  0
   -1.0225   -2.6451    0.8896 H   0  0  0  0  0  0  0  0  0  0  0  0
   -2.7594   -3.9603    0.6935 C   0  0  0  0  0  0  0  0  0  0  0  0
   -2.2690   -4.8043    1.2016 H   0  0  0  0  0  0  0  0  0  0  0  0
   -4.0905   -4.0772    0.2574 C   0  0  0  0  0  0  0  0  0  0  0  0
   -4.6423   -5.0167    0.4112 H   0  0  0  0  0  0  0  0  0  0  0  0
   -4.7169   -2.9872   -0.3661 C   0  0  0  0  0  0  0  0  0  0  0  0
   -5.7606   -3.0673   -0.7060 H   0  0  0  0  0  0  0  0  0  0  0  0
   -4.0113   -1.7922   -0.5683 C   0  0  0  0  0  0  0  0  0  0  0  0
   -4.4879   -0.9372   -1.0722 H   0  0  0  0  0  0  0  0  0  0  0  0
   -0.7499   -0.2619   -0.7648 C   0  0  2  0  0  3  0  0  0  0  0  0
   -0.5936    1.7323    0.6928 C   0  0  0  0  0  0  0  0  0  0  0  0
    0.3081    2.2583    1.0643 H   0  0  0  0  0  0  0  0  0  0  0  0
   -0.8527    0.9882    1.4776 H   0  0  0  0  0  0  0  0  0  0  0  0
   -1.7191    2.7196    0.4668 C   0  0  0  0  0  0  0  0  0  0  0  0
   -1.5677    4.0991    0.6951 C   0  0  0  0  0  0  0  0  0  0  0  0
   -0.6009    4.4951    1.0406 H   0  0  0  0  0  0  0  0  0  0  0  0
   -2.6628    4.9488    0.4819 C   0  0  0  0  0  0  0  0  0  0  0  0
   -2.5699    6.0318    0.6550 H   0  0  0  0  0  0  0  0  0  0  0  0
   -3.8745    4.3976    0.0431 C   0  0  0  0  0  0  0  0  0  0  0  0
   -4.7584    5.0262   -0.1373 H   0  0  0  0  0  0  0  0  0  0  0  0
   -3.9365    3.0109   -0.1638 C   0  0  0  0  0  0  0  0  0  0  0  0
   -4.8692    2.5325   -0.5090 H   0  0  0  0  0  0  0  0  0  0  0  0
    0.8335    1.5453   -1.3418 C   0  0  0  0  0  0  0  0  0  0  0  0
    0.5084    2.5496   -1.6899 H   0  0  0  0  0  0  0  0  0  0  0  0
    0.9265    0.8783   -2.2252 H   0  0  0  0  0  0  0  0  0  0  0  0
    2.1945    1.6678   -0.6876 C   0  0  2  0  0  3  0  0  0  0  0  0
    2.8760    2.8962   -0.6522 C   0  0  0  0  0  0  0  0  0  0  0  0
    2.3968    3.7960   -1.0665 H   0  0  0  0  0  0  0  0  0  0  0  0
    4.1623    2.9534   -0.0964 C   0  0  0  0  0  0  0  0  0  0  0  0
    4.7102    3.9072   -0.0576 H   0  0  0  0  0  0  0  0  0  0  0  0
    4.7351    1.7773    0.4037 C   0  0  0  0  0  0  0  0  0  0  0  0
    5.7432    1.7699    0.8418 H   0  0  0  0  0  0  0  0  0  0  0  0
    3.9944    0.5899    0.3368 C   0  0  0  0  0  0  0  0  0  0  0  0
    4.3888   -0.3842    0.6789 H   0  0  0  0  0  0  0  0  0  0  0  0
  2  3  1  0  0  0  0
  2  7  1  0  0  0  0
  4 19  1  0  0  0  0
  5 22  1  0  0  0  0
  6 41  1  0  0  0  0
  7  8  1  0  0  0  0
  8 10  2  0  0  0  0
  8  9  1  0  0  0  0
 10 11  1  0  0  0  0
 12 13  1  0  0  0  0
 12 10  1  0  0  0  0
 14 12  2  0  0  0  0
 15 14  1  0  0  0  0
 16 14  1  0  0  0  0
 16  7  2  0  0  0  0
 17 16  1  0  0  0  0
 18  1  1  6  0  0  0
 18  4  1  0  0  0  0
 18  2  1  0  0  0  0
 19 20  1  0  0  0  0
 19 21  1  0  0  0  0
 22 19  1  0  0  0  0
 22 23  2  0  0  0  0
 23 24  1  0  0  0  0
 25 26  1  0  0  0  0
 25 23  1  0  0  0  0
 27 25  2  0  0  0  0
 28 27  1  0  0  0  0
 29 27  1  0  0  0  0
 29  5  2  0  0  0  0
 30 29  1  0  0  0  0
 31  4  1  0  0  0  0
 32 31  1  0  0  0  0
 33 31  1  0  0  0  0
 34 31  1  6  0  0  0
 34 35  1  0  0  0  0
 34  6  1  0  0  0  0
 35 37  2  0  0  0  0
 36 35  1  0  0  0  0
 37 38  1  0  0  0  0
 37 39  1  0  0  0  0
 39 40  1  0  0  0  0
 41 39  2  0  0  0  0
 41 42  1  0  0  0  0
M  END
