1,2
q = 0.0, confidence = 0.58

 13 13  0  0  0  0  0  0  0  0999 V2000
    0.0000    1.2501    1.7476 S   0  0  0  0  0  1  0  0  0  0  0  0
    0.0000    1.2803   -1.0652 N   0  0  0  0  0  2  0  0  0  0  0  0
    0.0001    2.7021    0.8216 C   0  0  0  0  0  0  0  0  0  0  0  0
    0.0001    2.5484   -0.6158 C   0  0  0  0  0  0  0  0  0  0  0  0
    0.0001    3.7024   -1.4571 C   0  0  0  0  0  0  0  0  0  0  0  0
    0.0002    4.9610   -0.8849 C   0  0  0  0  0  0  0  0  0  0  0  0
    0.0002    5.1138    0.5351 C   0  0  0  0  0  0  0  0  0  0  0  0
    0.0001    4.0089    1.3771 C   0  0  0  0  0  0  0  0  0  0  0  0
    0.0000    1.1503   -2.0920 H   0  0  0  0  0  0  0  0  0  0  0  0
    0.0001    3.5630   -2.5482 H   0  0  0  0  0  0  0  0  0  0  0  0
    0.0002    5.8557   -1.5251 H   0  0  0  0  0  0  0  0  0  0  0  0
    0.0002    6.1259    0.9675 H   0  0  0  0  0  0  0  0  0  0  0  0
    0.0001    4.1263    2.4711 H   0  0  0  0  0  0  0  0  0  0  0  0
  2  4  1  0  0  0  0
  3  8  1  0  0  0  0
  3  1  1  0  0  0  0
  4  3  2  0  0  0  0
  5  6  2  0  0  0  0
  5  4  1  0  0  0  0
  6  7  1  0  0  0  0
  7 12  1  0  0  0  0
  7  8  2  0  0  0  0
  8 13  1  0  0  0  0
  9  2  1  0  0  0  0
 10  5  1  0  0  0  0
 11  6  1  0  0  0  0
M  END
