1,2
q = 0.0, confidence = 0.984

 18 18  0  0  1  0  0  0  0  0999 V2000
    0.7233   -1.4567    1.3696 S   0  0  0  0  0  1  0  0  0  0  0  0
    0.8831    1.2696    0.1251 N   0  0  0  0  0  2  0  0  0  0  0  0
    2.0028    3.3626   -0.3221 C   0  0  0  0  0  0  0  0  0  0  0  0
    1.9108    4.4349   -0.5427 H   0  0  0  0  0  0  0  0  0  0  0  0
    2.0864   -0.7837    0.6091 C   0  0  1  0  0  3  0  0  0  0  0  0
    0.8506    2.5937   -0.1412 C   0  0  0  0  0  3  0  0  0  0  0  0
   -0.1512    3.0395   -0.2202 H   0  0  0  0  0  0  0  0  0  0  0  0
    3.3102   -2.9084    0.7691 C   0  0  0  0  0  0  0  0  0  0  0  0
    3.2406   -3.0744    1.8639 H   0  0  0  0  0  0  0  0  0  0  0  0
    4.2762   -3.2994    0.4027 H   0  0  0  0  0  0  0  0  0  0  0  0
    2.4709   -3.4603    0.2923 H   0  0  0  0  0  0  0  0  0  0  0  0
    2.0960    0.6468    0.2276 C   0  0  0  0  0  0  0  0  0  0  0  0
    3.2545    2.7386   -0.2077 C   0  0  0  0  0  0  0  0  0  0  0  0
    4.1856    3.3119   -0.3255 H   0  0  0  0  0  0  0  0  0  0  0  0
    3.2967    1.3722    0.0791 C   0  0  0  0  0  0  0  0  0  0  0  0
    4.2667    0.8747    0.2210 H   0  0  0  0  0  0  0  0  0  0  0  0
    3.2162   -1.4974    0.4502 N   0  0  0  0  0  0  0  0  0  0  0  0
    3.9550   -1.0874   -0.1232 H   0  0  0  0  0  0  0  0  0  0  0  0
  2 12  1  0  0  0  0
  3 13  2  0  0  0  0
  3  6  1  0  0  0  0
  4  3  1  0  0  0  0
  5  1  1  1  0  0  0
  6  2  1  0  0  0  0
  7  6  1  0  0  0  0
  8  9  1  0  0  0  0
 10  8  1  0  0  0  0
 11  8  1  0  0  0  0
 12  5  1  0  0  0  0
 13 15  1  0  0  0  0
 14 13  1  0  0  0  0
 15 16  1  0  0  0  0
 15 12  2  0  0  0  0
 17  5  1  0  0  0  0
 17  8  1  0  0  0  0
 18 17  1  0  0  0  0
M  END
