1,2
q = 0.0, confidence = 0.996

 74 76  0  0  1  0  0  0  0  0999 V2000
   -0.4742    1.3374   -0.8960 S   0  0  0  0  0  0  0  0  0  0  0  0
   -3.2738   -0.0140    0.3717 N   0  0  0  0  0  2  0  0  0  0  0  0
   -4.7265    0.7856    1.9072 O   0  0  0  0  0  0  0  0  0  0  0  0
    0.9687   -0.7506   -0.0160 O   0  0  0  0  0  0  0  0  0  0  0  0
    1.6969    3.8232    0.4006 O   0  0  0  0  0  0  0  0  0  0  0  0
    2.5417    2.3514   -1.1167 O   0  0  0  0  0  0  0  0  0  0  0  0
    6.2281    0.5793   -0.7101 O   0  0  0  0  0  0  0  0  0  0  0  0
    4.4821    1.1643    0.6306 O   0  0  0  0  0  0  0  0  0  0  0  0
    5.4593   -1.3390    2.0988 O   0  0  0  0  0  0  0  0  0  0  0  0
    4.4417   -1.8347    0.1217 O   0  0  0  0  0  0  0  0  0  0  0  0
   -0.4879   -4.2337    1.2898 O   0  0  0  0  0  0  0  0  0  0  0  0
    0.7935   -3.6096   -0.4812 O   0  0  0  0  0  0  0  0  0  0  0  0
   -3.7153    1.0116    1.0338 C   0  0  2  0  0  3  0  0  0  0  0  0
   -5.0973   -0.6122    1.7649 C   0  0  0  0  0  0  0  0  0  0  0  0
   -4.0046   -1.2087    0.8538 C   0  0  2  0  0  0  0  0  0  0  0  0
   -0.7949    1.7938    0.8707 C   0  0  0  0  0  0  0  0  0  0  0  0
   -1.9144    2.7968    0.8806 C   0  0  0  0  0  0  0  0  0  0  0  0
   -1.5936    4.1692    0.8198 C   0  0  0  0  0  0  0  0  0  0  0  0
   -2.5941    5.1481    0.8476 C   0  0  0  0  0  0  0  0  0  0  0  0
   -3.9429    4.7709    0.9488 C   0  0  0  0  0  0  0  0  0  0  0  0
   -4.2793    3.4157    1.0145 C   0  0  0  0  0  0  0  0  0  0  0  0
   -3.2801    2.4186    0.9545 C   0  0  0  0  0  0  0  0  0  0  0  0
    1.1152    0.4125   -0.7881 C   0  0  2  0  0  0  0  0  0  0  0  0
    2.2821    1.2475   -0.2405 C   0  0  1  0  0  0  0  0  0  0  0  0
    3.5619    0.4103   -0.1711 C   0  0  2  0  0  0  0  0  0  0  0  0
    3.3275   -0.9846    0.4349 C   0  0  1  0  0  0  0  0  0  0  0  0
    2.0828   -1.6280   -0.1951 C   0  0  1  0  0  0  0  0  0  0  0  0
    1.7302   -2.9792    0.3945 C   0  0  0  0  0  0  0  0  0  0  0  0
   -0.3192   -4.1740    0.0849 C   0  0  0  0  0  0  0  0  0  0  0  0
   -1.2682   -4.6514   -0.9741 C   0  0  0  0  0  0  0  0  0  0  0  0
    5.4787   -1.8913    1.0171 C   0  0  0  0  0  0  0  0  0  0  0  0
    6.6248   -2.6689    0.4322 C   0  0  0  0  0  0  0  0  0  0  0  0
    5.8048    1.1428    0.2802 C   0  0  0  0  0  0  0  0  0  0  0  0
    6.6258    1.8510    1.3220 C   0  0  0  0  0  0  0  0  0  0  0  0
    2.1742    3.5962   -0.6963 C   0  0  0  0  0  0  0  0  0  0  0  0
    2.4036    4.6106   -1.7824 C   0  0  0  0  0  0  0  0  0  0  0  0
   -3.0376   -2.2166    1.5053 C   0  0  0  0  0  0  0  0  0  0  0  0
   -3.7379   -3.5559    1.7500 C   0  0  0  0  0  0  0  0  0  0  0  0
   -2.3426   -1.6937    2.7639 C   0  0  0  0  0  0  0  0  0  0  0  0
   -6.1112   -0.6499    1.3166 H   0  0  0  0  0  0  0  0  0  0  0  0
   -5.1345   -1.0585    2.7783 H   0  0  0  0  0  0  0  0  0  0  0  0
   -4.4347   -1.7020   -0.0416 H   0  0  0  0  0  0  0  0  0  0  0  0
   -1.0301    0.8635    1.4182 H   0  0  0  0  0  0  0  0  0  0  0  0
    0.1319    2.2627    1.2503 H   0  0  0  0  0  0  0  0  0  0  0  0
   -0.5327    4.4579    0.7632 H   0  0  0  0  0  0  0  0  0  0  0  0
   -2.3181    6.2125    0.8022 H   0  0  0  0  0  0  0  0  0  0  0  0
   -4.7343    5.5345    0.9805 H   0  0  0  0  0  0  0  0  0  0  0  0
   -5.3290    3.1036    1.1049 H   0  0  0  0  0  0  0  0  0  0  0  0
    1.3102    0.1677   -1.8590 H   0  0  0  0  0  0  0  0  0  0  0  0
    2.0482    1.6259    0.7746 H   0  0  0  0  0  0  0  0  0  0  0  0
    3.9895    0.2796   -1.1882 H   0  0  0  0  0  0  0  0  0  0  0  0
    3.2203   -0.8984    1.5367 H   0  0  0  0  0  0  0  0  0  0  0  0
    2.2726   -1.7662   -1.2869 H   0  0  0  0  0  0  0  0  0  0  0  0
    2.6464   -3.6014    0.4528 H   0  0  0  0  0  0  0  0  0  0  0  0
    1.2927   -2.8759    1.4084 H   0  0  0  0  0  0  0  0  0  0  0  0
   -1.9327   -5.4281   -0.5568 H   0  0  0  0  0  0  0  0  0  0  0  0
   -0.7235   -5.0282   -1.8594 H   0  0  0  0  0  0  0  0  0  0  0  0
   -1.8968   -3.7935   -1.3150 H   0  0  0  0  0  0  0  0  0  0  0  0
    7.3162   -2.9803    1.2341 H   0  0  0  0  0  0  0  0  0  0  0  0
    7.1550   -1.9888   -0.2669 H   0  0  0  0  0  0  0  0  0  0  0  0
    6.2705   -3.5388   -0.1512 H   0  0  0  0  0  0  0  0  0  0  0  0
    7.6216    2.0965    0.9142 H   0  0  0  0  0  0  0  0  0  0  0  0
    6.7402    1.1527    2.1773 H   0  0  0  0  0  0  0  0  0  0  0  0
    6.1108    2.7554    1.6957 H   0  0  0  0  0  0  0  0  0  0  0  0
    2.4535    5.6222   -1.3438 H   0  0  0  0  0  0  0  0  0  0  0  0
    1.5430    4.5673   -2.4820 H   0  0  0  0  0  0  0  0  0  0  0  0
    3.3170    4.3804   -2.3612 H   0  0  0  0  0  0  0  0  0  0  0  0
   -2.2563   -2.3780    0.7348 H   0  0  0  0  0  0  0  0  0  0  0  0
   -3.0035   -4.3067    2.1006 H   0  0  0  0  0  0  0  0  0  0  0  0
   -4.1998   -3.9366    0.8162 H   0  0  0  0  0  0  0  0  0  0  0  0
   -4.5371   -3.4691    2.5180 H   0  0  0  0  0  0  0  0  0  0  0  0
   -1.5647   -2.4131    3.0867 H   0  0  0  0  0  0  0  0  0  0  0  0
   -3.0495   -1.5590    3.6105 H   0  0  0  0  0  0  0  0  0  0  0  0
   -1.8424   -0.7203    2.5822 H   0  0  0  0  0  0  0  0  0  0  0  0
  1 23  1  0  0  0  0
  1 16  1  0  0  0  0
  2 15  1  0  0  0  0
  2 13  1  0  0  0  0
  6 35  1  0  0  0  0
  6 24  1  0  0  0  0
  7 33  2  0  0  0  0
 10 26  1  0  0  0  0
 10 31  1  0  0  0  0
 12 29  1  0  0  0  0
 12 28  1  0  0  0  0
 13 22  1  6  0  0  0
 13  3  1  0  0  0  0
 14  3  1  0  0  0  0
 14 41  1  0  0  0  0
 15 42  1  6  0  0  0
 15 37  1  0  0  0  0
 15 14  1  0  0  0  0
 16 17  1  0  0  0  0
 16 44  1  0  0  0  0
 16 43  1  0  0  0  0
 17 22  1  0  0  0  0
 18 19  1  0  0  0  0
 18 17  2  0  0  0  0
 19 20  2  0  0  0  0
 20 47  1  0  0  0  0
 20 21  1  0  0  0  0
 21 48  1  0  0  0  0
 22 21  2  0  0  0  0
 23 49  1  6  0  0  0
 23 24  1  0  0  0  0
 23  4  1  0  0  0  0
 24 25  1  0  0  0  0
 24 50  1  1  0  0  0
 25 51  1  6  0  0  0
 25 26  1  0  0  0  0
 25  8  1  0  0  0  0
 26 52  1  1  0  0  0
 27 53  1  6  0  0  0
 27  4  1  0  0  0  0
 27 28  1  0  0  0  0
 27 26  1  0  0  0  0
 28 54  1  0  0  0  0
 28 55  1  0  0  0  0
 29 11  2  0  0  0  0
 30 56  1  0  0  0  0
 30 29  1  0  0  0  0
 31  9  2  0  0  0  0
 32 31  1  0  0  0  0
 32 59  1  0  0  0  0
 33  8  1  0  0  0  0
 33 34  1  0  0  0  0
 34 64  1  0  0  0  0
 34 63  1  0  0  0  0
 35  5  2  0  0  0  0
 36 65  1  0  0  0  0
 36 35  1  0  0  0  0
 37 38  1  0  0  0  0
 37 39  1  0  0  0  0
 38 69  1  0  0  0  0
 38 71  1  0  0  0  0
 39 72  1  0  0  0  0
 39 73  1  0  0  0  0
 40 14  1  0  0  0  0
 45 18  1  0  0  0  0
 46 19  1  0  0  0  0
 57 30  1  0  0  0  0
 58 30  1  0  0  0  0
 60 32  1  0  0  0  0
 61 32  1  0  0  0  0
 62 34  1  0  0  0  0
 66 36  1  0  0  0  0
 67 36  1  0  0  0  0
 68 37  1  0  0  0  0
 70 38  1  0  0  0  0
 74 39  1  0  0  0  0
M  END
