1,5
q = -1.0, confidence = 0.0

 14 14  0  0  1  0  0  0  0  0999 V2000
   -2.1901    0.1128   -1.3840 S   0  0  0  0  0  1  0  0  0  0  0  0
   -4.4514   -2.0323   -2.2093 F   0  0  0  0  0  0  0  0  0  0  0  0
   -5.5992   -2.8484   -0.5469 F   0  0  0  0  0  0  0  0  0  0  0  0
   -5.2514   -0.7006   -0.6776 F   0  0  0  0  0  0  0  0  0  0  0  0
   -1.2002   -1.3386    0.5610 N   0  0  0  0  0  2  0  0  0  0  0  0
   -2.3025   -1.1738   -0.2432 C   0  0  2  0  0  3  0  0  0  0  0  0
   -3.4089   -2.0703   -0.0706 C   0  0  0  0  0  0  0  0  0  0  0  0
   -3.3080   -3.1072    0.8603 C   0  0  0  0  0  0  0  0  0  0  0  0
   -4.1547   -3.7987    0.9778 H   0  0  0  0  0  0  0  0  0  0  0  0
   -2.1421   -3.2694    1.6315 C   0  0  0  0  0  0  0  0  0  0  0  0
   -2.0423   -4.0882    2.3565 H   0  0  0  0  0  0  0  0  0  0  0  0
   -1.1118   -2.3438    1.4429 C   0  0  0  0  0  0  0  0  0  0  0  0
   -0.1699   -2.3962    2.0155 H   0  0  0  0  0  0  0  0  0  0  0  0
   -4.6730   -1.9080   -0.8833 C   0  0  0  0  0  0  0  0  0  0  0  0
  2 14  1  0  0  0  0
  5 12  1  0  0  0  0
  6  1  1  6  0  0  0
  6  7  1  0  0  0  0
  6  5  1  0  0  0  0
  7  8  2  0  0  0  0
  8  9  1  0  0  0  0
  8 10  1  0  0  0  0
 10 11  1  0  0  0  0
 12 10  2  0  0  0  0
 12 13  1  0  0  0  0
 14  4  1  0  0  0  0
 14  3  1  0  0  0  0
 14  7  1  0  0  0  0
M  END
