1,2
q = 0.0, confidence = 0.996

 55 57  0  0  1  0  0  0  0  0999 V2000
   -3.8112   -1.1503    0.9029 S   0  0  0  0  0  0  0  0  0  0  0  0
   -0.7603   -0.2705   -0.2296 N   0  0  0  0  0  0  0  0  0  0  0  0
   -3.7703   -0.5780    2.6354 C   0  0  0  0  0  0  0  0  0  0  0  0
   -2.7306   -2.6333    0.9857 C   0  0  0  0  0  0  0  0  0  0  0  0
   -1.2188   -2.4184    1.0311 C   0  0  0  0  0  0  0  0  0  0  0  0
   -0.5802   -1.7333   -0.1879 C   0  0  1  0  0  0  0  0  0  0  0  0
   -0.9799   -2.2957   -1.5495 C   0  0  0  0  0  0  0  0  0  0  0  0
   -1.0707   -1.6347   -2.5616 O   0  0  0  0  0  0  0  0  0  0  0  0
   -1.1463   -3.6403   -1.5112 O   0  0  0  0  0  0  0  0  0  0  0  0
    0.0638    0.4912    0.7387 C   0  0  0  0  0  0  0  0  0  0  0  0
    1.5491    0.1499    0.6471 C   0  0  2  0  0  0  0  0  0  0  0  0
    2.4511    1.1869    1.3422 C   0  0  1  0  0  0  0  0  0  0  0  0
    3.8733    1.1768    0.7268 C   0  0  1  0  0  0  0  0  0  0  0  0
    4.2186   -0.1076   -0.0229 C   0  0  2  0  0  0  0  0  0  0  0  0
    3.0964   -0.5486   -1.0020 C   0  0  2  0  0  0  0  0  0  0  0  0
    1.8595    0.0604   -0.7472 O   0  0  0  0  0  0  0  0  0  0  0  0
    3.8361    2.2235   -0.2225 O   0  0  0  0  0  0  0  0  0  0  0  0
    2.0217    2.5200    1.1592 O   0  0  0  0  0  0  0  0  0  0  0  0
    2.8136    3.1677    0.1417 C   0  0  0  0  0  0  0  0  0  0  0  0
    3.4459    4.4101    0.7639 C   0  0  0  0  0  0  0  0  0  0  0  0
    1.9653    3.4624   -1.0873 C   0  0  0  0  0  0  0  0  0  0  0  0
    4.3104   -1.1837    0.9021 O   0  0  0  0  0  0  0  0  0  0  0  0
    3.0107   -1.9558   -0.8051 O   0  0  0  0  0  0  0  0  0  0  0  0
    3.9784   -2.3704    0.1819 C   0  0  0  0  0  0  0  0  0  0  0  0
    3.3288   -3.3565    1.1404 C   0  0  0  0  0  0  0  0  0  0  0  0
    5.2077   -2.9497   -0.5237 C   0  0  0  0  0  0  0  0  0  0  0  0
   -0.4860    0.0482   -1.1794 H   0  0  0  0  0  0  0  0  0  0  0  0
   -4.2750   -1.3211    3.2836 H   0  0  0  0  0  0  0  0  0  0  0  0
   -2.7355   -0.3863    2.9767 H   0  0  0  0  0  0  0  0  0  0  0  0
   -4.3372    0.3721    2.6135 H   0  0  0  0  0  0  0  0  0  0  0  0
   -3.0068   -3.2187    0.0863 H   0  0  0  0  0  0  0  0  0  0  0  0
   -3.0683   -3.2157    1.8673 H   0  0  0  0  0  0  0  0  0  0  0  0
   -0.7481   -3.4178    1.1331 H   0  0  0  0  0  0  0  0  0  0  0  0
   -0.9298   -1.8539    1.9425 H   0  0  0  0  0  0  0  0  0  0  0  0
    0.5143   -1.9517   -0.1526 H   0  0  0  0  0  0  0  0  0  0  0  0
   -1.3351   -3.9121   -2.4366 H   0  0  0  0  0  0  0  0  0  0  0  0
   -0.3053    0.3260    1.7705 H   0  0  0  0  0  0  0  0  0  0  0  0
   -0.0914    1.5589    0.4938 H   0  0  0  0  0  0  0  0  0  0  0  0
    1.7609   -0.8338    1.1264 H   0  0  0  0  0  0  0  0  0  0  0  0
    2.4719    0.9695    2.4316 H   0  0  0  0  0  0  0  0  0  0  0  0
    4.6402    1.3549    1.5174 H   0  0  0  0  0  0  0  0  0  0  0  0
    5.1726    0.0453   -0.5777 H   0  0  0  0  0  0  0  0  0  0  0  0
    3.3171   -0.3190   -2.0629 H   0  0  0  0  0  0  0  0  0  0  0  0
    4.0719    4.1249    1.6318 H   0  0  0  0  0  0  0  0  0  0  0  0
    4.0779    4.9331    0.0207 H   0  0  0  0  0  0  0  0  0  0  0  0
    2.6569    5.1039    1.1127 H   0  0  0  0  0  0  0  0  0  0  0  0
    1.5303    2.5249   -1.4788 H   0  0  0  0  0  0  0  0  0  0  0  0
    1.1349    4.1454   -0.8262 H   0  0  0  0  0  0  0  0  0  0  0  0
    2.5858    3.9334   -1.8743 H   0  0  0  0  0  0  0  0  0  0  0  0
    2.4380   -2.8968    1.6103 H   0  0  0  0  0  0  0  0  0  0  0  0
    3.0188   -4.2686    0.5963 H   0  0  0  0  0  0  0  0  0  0  0  0
    4.0420   -3.6415    1.9369 H   0  0  0  0  0  0  0  0  0  0  0  0
    5.6666   -2.1976   -1.1944 H   0  0  0  0  0  0  0  0  0  0  0  0
    5.9651   -3.2675    0.2188 H   0  0  0  0  0  0  0  0  0  0  0  0
    4.9176   -3.8230   -1.1387 H   0  0  0  0  0  0  0  0  0  0  0  0
  1  4  1  0  0  0  0
  1  3  1  0  0  0  0
  2  6  1  0  0  0  0
  2 10  1  0  0  0  0
  3 29  1  0  0  0  0
  3 28  1  0  0  0  0
  4  5  1  0  0  0  0
  4 32  1  0  0  0  0
  5 33  1  0  0  0  0
  5 34  1  0  0  0  0
  6 35  1  1  0  0  0
  6  5  1  0  0  0  0
  7  9  1  0  0  0  0
  7  6  1  0  0  0  0
  8  7  2  0  0  0  0
 10 37  1  0  0  0  0
 11 10  1  0  0  0  0
 11 39  1  1  0  0  0
 11 12  1  0  0  0  0
 12 40  1  1  0  0  0
 13 12  1  0  0  0  0
 13 41  1  1  0  0  0
 14 42  1  6  0  0  0
 14 13  1  0  0  0  0
 14 22  1  0  0  0  0
 15 43  1  6  0  0  0
 15 23  1  0  0  0  0
 15 16  1  0  0  0  0
 15 14  1  0  0  0  0
 16 11  1  0  0  0  0
 17 19  1  0  0  0  0
 17 13  1  0  0  0  0
 18 12  1  0  0  0  0
 19 20  1  0  0  0  0
 19 18  1  0  0  0  0
 20 46  1  0  0  0  0
 20 44  1  0  0  0  0
 21 48  1  0  0  0  0
 21 19  1  0  0  0  0
 23 24  1  0  0  0  0
 24 22  1  0  0  0  0
 24 25  1  0  0  0  0
 25 50  1  0  0  0  0
 25 52  1  0  0  0  0
 26 24  1  0  0  0  0
 26 54  1  0  0  0  0
 27  2  1  0  0  0  0
 30  3  1  0  0  0  0
 31  4  1  0  0  0  0
 36  9  1  0  0  0  0
 38 10  1  0  0  0  0
 45 20  1  0  0  0  0
 47 21  1  0  0  0  0
 49 21  1  0  0  0  0
 51 25  1  0  0  0  0
 53 26  1  0  0  0  0
 55 26  1  0  0  0  0
M  END
