1,11
q = 0.0, confidence = 1.0

 35 35  0  0  1  0  0  0  0  0999 V2000
    2.3625    1.8127   -0.8227 S   0  0  0  0  0  1  0  0  0  0  0  0
   -2.5220    1.5411    0.8102 O   0  0  0  0  0  0  0  0  0  0  0  0
    0.2909    3.4959   -0.8824 N   0  0  0  0  0  0  0  0  0  0  0  0
   -0.7111    3.6547   -1.0030 H   0  0  0  0  0  0  0  0  0  0  0  0
    0.7188    2.2166   -0.7426 C   0  0  1  0  0  3  0  0  0  0  0  0
   -6.6290   -0.5226   -0.2826 O   0  0  0  0  0  0  0  0  0  0  0  0
   -0.2799    1.2989   -0.5549 N   0  0  0  0  0  0  0  0  0  0  0  0
   -1.2069    1.6234   -0.1828 H   0  0  0  0  0  0  0  0  0  0  0  0
   -0.9849   -0.8703   -0.1828 C   0  0  0  0  0  3  0  0  0  0  0  0
   -0.6338   -1.9095   -0.1001 H   0  0  0  0  0  0  0  0  0  0  0  0
    0.0005   -0.0192   -0.3516 N   0  0  0  0  0  2  0  0  0  0  0  0
   -2.4373   -0.7029   -0.1561 C   0  0  0  0  0  0  0  0  0  0  0  0
   -3.1785    0.4312    0.2921 C   0  0  0  0  0  0  0  0  0  0  0  0
   -4.5809    0.4868    0.2376 C   0  0  0  0  0  0  0  0  0  0  0  0
   -5.2797   -0.6472   -0.2590 C   0  0  0  0  0  0  0  0  0  0  0  0
   -4.5812   -1.8044   -0.6592 C   0  0  0  0  0  0  0  0  0  0  0  0
   -5.1154   -2.6920   -1.0209 H   0  0  0  0  0  0  0  0  0  0  0  0
   -3.1885   -1.8225   -0.5911 C   0  0  0  0  0  0  0  0  0  0  0  0
   -2.6465   -2.7263   -0.9081 H   0  0  0  0  0  0  0  0  0  0  0  0
    1.1898    4.6169   -1.0714 C   0  0  0  0  0  0  0  0  0  0  0  0
    0.6203    5.5567   -0.9498 H   0  0  0  0  0  0  0  0  0  0  0  0
    1.6651    4.6060   -2.0765 H   0  0  0  0  0  0  0  0  0  0  0  0
    2.0006    4.5806   -0.3162 H   0  0  0  0  0  0  0  0  0  0  0  0
   -2.0113    1.3909    2.1625 C   0  0  0  0  0  0  0  0  0  0  0  0
   -2.8042    0.9690    2.8120 H   0  0  0  0  0  0  0  0  0  0  0  0
   -1.7513    2.4097    2.5042 H   0  0  0  0  0  0  0  0  0  0  0  0
   -1.0929    0.7631    2.1885 H   0  0  0  0  0  0  0  0  0  0  0  0
   -5.3564    1.6847    0.7079 C   0  0  0  0  0  0  0  0  0  0  0  0
   -6.0542    2.0300   -0.0813 H   0  0  0  0  0  0  0  0  0  0  0  0
   -4.6793    2.5121    0.9823 H   0  0  0  0  0  0  0  0  0  0  0  0
   -5.9877    1.4293    1.5843 H   0  0  0  0  0  0  0  0  0  0  0  0
   -7.4100   -1.6145   -0.7433 C   0  0  0  0  0  0  0  0  0  0  0  0
   -7.1720   -1.8724   -1.7986 H   0  0  0  0  0  0  0  0  0  0  0  0
   -8.4646   -1.2906   -0.6788 H   0  0  0  0  0  0  0  0  0  0  0  0
   -7.2670   -2.5169   -0.1094 H   0  0  0  0  0  0  0  0  0  0  0  0
  2 24  1  0  0  0  0
  3  5  1  0  0  0  0
  4  3  1  0  0  0  0
  5  1  1  6  0  0  0
  5  7  1  0  0  0  0
  6 15  1  0  0  0  0
  7 11  1  0  0  0  0
  7  8  1  0  0  0  0
  9 12  1  0  0  0  0
  9 10  1  0  0  0  0
 11  9  1  0  0  0  0
 12 13  1  0  0  0  0
 13  2  1  0  0  0  0
 14 13  2  0  0  0  0
 14 28  1  0  0  0  0
 15 14  1  0  0  0  0
 16 18  1  0  0  0  0
 16 15  2  0  0  0  0
 17 16  1  0  0  0  0
 18 12  2  0  0  0  0
 19 18  1  0  0  0  0
 20 21  1  0  0  0  0
 20  3  1  0  0  0  0
 20 23  1  0  0  0  0
 22 20  1  0  0  0  0
 24 27  1  0  0  0  0
 24 26  1  0  0  0  0
 24 25  1  0  0  0  0
 28 30  1  0  0  0  0
 28 31  1  0  0  0  0
 29 28  1  0  0  0  0
 32 34  1  0  0  0  0
 32  6  1  0  0  0  0
 32 35  1  0  0  0  0
 33 32  1  0  0  0  0
M  END
