4,5
q = -1.0, confidence = 0.0

 38 41  0  0  1  0  0  0  0  0999 V2000
    6.2663   -4.0214   -0.0505 Cl  0  0  0  0  0  0  0  0  0  0  0  0
    0.7463   -4.0145    0.6517 S   0  0  0  0  0  0  0  0  0  0  0  0
   -2.1868   -1.1010   -0.1953 P   0  0  0  0  0  4  0  0  0  0  0  0
   -1.2248    0.0161   -1.6419 S   0  0  0  0  0  1  0  0  0  0  0  0
    0.9147   -1.4597    0.1217 N   0  0  0  0  0  2  0  0  0  0  0  0
   -1.3199   -2.3112    0.4896 N   0  0  0  0  0  2  0  0  0  0  0  0
   -2.8322   -0.0232    1.1413 C   0  0  0  0  0  0  0  0  0  0  0  0
   -2.2151   -0.0638    2.4057 C   0  0  0  0  0  0  0  0  0  0  0  0
   -1.3815   -0.7606    2.5774 H   0  0  0  0  0  0  0  0  0  0  0  0
   -2.6642    0.7873    3.4262 C   0  0  0  0  0  0  0  0  0  0  0  0
   -2.1768    0.7578    4.4122 H   0  0  0  0  0  0  0  0  0  0  0  0
   -3.7259    1.6765    3.1885 C   0  0  0  0  0  0  0  0  0  0  0  0
   -4.0760    2.3430    3.9913 H   0  0  0  0  0  0  0  0  0  0  0  0
   -4.3446    1.7121    1.9272 C   0  0  0  0  0  0  0  0  0  0  0  0
   -5.1822    2.4016    1.7417 H   0  0  0  0  0  0  0  0  0  0  0  0
   -3.9012    0.8618    0.9028 C   0  0  0  0  0  0  0  0  0  0  0  0
   -4.3945    0.8805   -0.0813 H   0  0  0  0  0  0  0  0  0  0  0  0
   -3.6413   -1.8772   -0.9735 C   0  0  0  0  0  0  0  0  0  0  0  0
   -4.0731   -3.1345   -0.5073 C   0  0  0  0  0  0  0  0  0  0  0  0
   -3.4986   -3.6351    0.2861 H   0  0  0  0  0  0  0  0  0  0  0  0
   -5.2074   -3.7314   -1.0756 C   0  0  0  0  0  0  0  0  0  0  0  0
   -5.5443   -4.7152   -0.7150 H   0  0  0  0  0  0  0  0  0  0  0  0
   -5.9061   -3.0827   -2.1072 C   0  0  0  0  0  0  0  0  0  0  0  0
   -6.7938   -3.5568   -2.5527 H   0  0  0  0  0  0  0  0  0  0  0  0
   -5.4668   -1.8353   -2.5793 C   0  0  0  0  0  0  0  0  0  0  0  0
   -6.0044   -1.3335   -3.3979 H   0  0  0  0  0  0  0  0  0  0  0  0
   -4.3340   -1.2296   -2.0156 C   0  0  0  0  0  0  0  0  0  0  0  0
   -3.9711   -0.2620   -2.3964 H   0  0  0  0  0  0  0  0  0  0  0  0
   -0.0014   -2.4116    0.3980 C   0  0  1  0  0  3  0  0  0  0  0  0
    2.3316   -3.3351    0.3281 C   0  0  0  0  0  0  0  0  0  0  0  0
    3.5673   -3.9948    0.3104 C   0  0  0  0  0  0  0  0  0  0  0  0
    3.6553   -5.0673    0.5291 H   0  0  0  0  0  0  0  0  0  0  0  0
    4.7038   -3.2367   -0.0092 C   0  0  0  0  0  0  0  0  0  0  0  0
    4.6133   -1.8609   -0.3009 C   0  0  0  0  0  0  0  0  0  0  0  0
    5.5273   -1.3024   -0.5447 H   0  0  0  0  0  0  0  0  0  0  0  0
    3.3740   -1.2129   -0.2727 C   0  0  0  0  0  0  0  0  0  0  0  0
    3.2960   -0.1367   -0.4752 H   0  0  0  0  0  0  0  0  0  0  0  0
    2.2154   -1.9451    0.0469 C   0  0  0  0  0  0  0  0  0  0  0  0
  1 33  1  0  0  0  0
  3  6  1  0  0  0  0
  3  7  1  0  0  0  0
  4  3  1  0  0  0  0
  5 29  1  0  0  0  0
  7  8  1  0  0  0  0
  8  9  1  0  0  0  0
  8 10  2  0  0  0  0
 10 11  1  0  0  0  0
 12 10  1  0  0  0  0
 12 13  1  0  0  0  0
 14 12  2  0  0  0  0
 15 14  1  0  0  0  0
 16  7  2  0  0  0  0
 16 14  1  0  0  0  0
 17 16  1  0  0  0  0
 18 19  1  0  0  0  0
 18  3  1  0  0  0  0
 19 20  1  0  0  0  0
 21 22  1  0  0  0  0
 21 19  2  0  0  0  0
 23 21  1  0  0  0  0
 24 23  1  0  0  0  0
 25 23  2  0  0  0  0
 25 27  1  0  0  0  0
 26 25  1  0  0  0  0
 27 18  2  0  0  0  0
 28 27  1  0  0  0  0
 29  6  1  6  0  0  0
 29  2  1  0  0  0  0
 30  2  1  0  0  0  0
 31 30  1  0  0  0  0
 31 32  1  0  0  0  0
 33 31  2  0  0  0  0
 34 36  2  0  0  0  0
 34 33  1  0  0  0  0
 35 34  1  0  0  0  0
 36 38  1  0  0  0  0
 37 36  1  0  0  0  0
 38  5  1  0  0  0  0
 38 30  2  0  0  0  0
M  END
