1,4
q = 0.0, confidence = 1.0

 13 13  0  0  1  0  0  0  0  0999 V2000
   -0.7437   -1.9469    2.0982 S   0  0  0  0  0  1  0  0  0  0  0  0
   -2.5948   -2.9160   -2.4117 O   0  0  0  0  0  0  0  0  0  0  0  0
   -1.7586   -2.6861   -0.2877 N   0  0  0  0  0  0  0  0  0  0  0  0
   -0.5440   -2.2592   -0.8379 N   0  0  0  0  0  0  0  0  0  0  0  0
    0.2008   -2.9529   -0.6281 H   0  0  0  0  0  0  0  0  0  0  0  0
   -0.7100   -2.2691   -1.8638 H   0  0  0  0  0  0  0  0  0  0  0  0
   -4.2037   -3.3431    0.7659 N   0  0  0  0  0  0  0  0  0  0  0  0
   -3.1718   -2.9406    1.5112 N   0  0  0  0  0  0  0  0  0  0  0  0
   -3.3608   -2.8339    2.5140 H   0  0  0  0  0  0  0  0  0  0  0  0
   -1.9301   -2.5472    1.0754 C   0  0  2  0  0  3  0  0  0  0  0  0
   -2.8050   -2.9971   -1.2077 C   0  0  0  0  0  0  0  0  0  0  0  0
   -4.0423   -3.3793   -0.5299 C   0  0  0  0  0  0  0  0  0  0  0  0
   -4.8962   -3.7009   -1.1445 H   0  0  0  0  0  0  0  0  0  0  0  0
  2 11  2  0  0  0  0
  3 10  1  0  0  0  0
  4  5  1  0  0  0  0
  4  3  1  0  0  0  0
  6  4  1  0  0  0  0
  7  8  1  0  0  0  0
  8  9  1  0  0  0  0
 10  8  1  0  0  0  0
 10  1  1  6  0  0  0
 11 12  1  0  0  0  0
 11  3  1  0  0  0  0
 12  7  2  0  0  0  0
 13 12  1  0  0  0  0
M  END
