1,2
q = 0.0, confidence = 0.998

 28 28  0  0  1  0  0  0  0  0999 V2000
   -2.2304   -0.9873   -0.7792 S   0  0  0  0  0  1  0  0  0  0  0  0
    2.0808    0.6047   -0.7043 N   0  0  0  0  0  2  0  0  0  0  0  0
   -0.4793    1.4547   -0.8748 N   0  0  0  0  0  0  0  0  0  0  0  0
   -1.7733    1.6672   -0.5597 N   0  0  0  0  0  0  0  0  0  0  0  0
   -2.0539    2.5829   -0.1799 H   0  0  0  0  0  0  0  0  0  0  0  0
   -3.9764    1.0220   -0.4625 N   0  0  0  0  0  0  0  0  0  0  0  0
   -4.1899    2.0162   -0.5772 H   0  0  0  0  0  0  0  0  0  0  0  0
    0.1054    3.3913    0.3648 N   0  0  0  0  0  0  0  0  0  0  0  0
   -0.4065    3.0390    1.1985 H   0  0  0  0  0  0  0  0  0  0  0  0
    0.9399    3.8816    0.7002 H   0  0  0  0  0  0  0  0  0  0  0  0
    3.3192    0.1602   -0.9557 C   0  0  0  0  0  3  0  0  0  0  0  0
    3.4444   -0.9364   -0.8896 H   0  0  0  0  0  0  0  0  0  0  0  0
    4.3777    1.0322   -1.2607 C   0  0  0  0  0  0  0  0  0  0  0  0
    5.3825    0.6322   -1.4580 H   0  0  0  0  0  0  0  0  0  0  0  0
    4.1220    2.4099   -1.2952 C   0  0  0  0  0  0  0  0  0  0  0  0
    4.9262    3.1233   -1.5306 H   0  0  0  0  0  0  0  0  0  0  0  0
    2.8235    2.8727   -1.0343 C   0  0  0  0  0  0  0  0  0  0  0  0
    2.5874    3.9467   -1.0789 H   0  0  0  0  0  0  0  0  0  0  0  0
    1.8204    1.9293   -0.7500 C   0  0  0  0  0  0  0  0  0  0  0  0
    0.4122    2.2961   -0.4371 C   0  0  0  0  0  0  0  0  0  0  0  0
   -2.6823    0.6366   -0.5994 C   0  0  2  0  0  3  0  0  0  0  0  0
   -5.1064    0.1038   -0.3725 C   0  0  0  0  0  0  0  0  0  0  0  0
   -5.8810    0.5964    0.2513 H   0  0  0  0  0  0  0  0  0  0  0  0
   -4.7491   -0.7903    0.1775 H   0  0  0  0  0  0  0  0  0  0  0  0
   -5.6726   -0.3045   -1.7326 C   0  0  0  0  0  0  0  0  0  0  0  0
   -6.0280    0.5747   -2.3080 H   0  0  0  0  0  0  0  0  0  0  0  0
   -6.5302   -0.9935   -1.5973 H   0  0  0  0  0  0  0  0  0  0  0  0
   -4.8991   -0.8285   -2.3277 H   0  0  0  0  0  0  0  0  0  0  0  0
  3  4  1  0  0  0  0
  3 20  2  0  0  0  0
  4  5  1  0  0  0  0
  6 22  1  0  0  0  0
  7  6  1  0  0  0  0
  8 10  1  0  0  0  0
  8  9  1  0  0  0  0
 11 12  1  0  0  0  0
 11  2  1  0  0  0  0
 13 11  1  0  0  0  0
 14 13  1  0  0  0  0
 15 13  2  0  0  0  0
 15 17  1  0  0  0  0
 16 15  1  0  0  0  0
 17 19  2  0  0  0  0
 18 17  1  0  0  0  0
 19  2  1  0  0  0  0
 19 20  1  0  0  0  0
 20  8  1  0  0  0  0
 21  1  1  1  0  0  0
 21  4  1  0  0  0  0
 21  6  1  0  0  0  0
 22 24  1  0  0  0  0
 22 23  1  0  0  0  0
 25 27  1  0  0  0  0
 25 22  1  0  0  0  0
 26 25  1  0  0  0  0
 28 25  1  0  0  0  0
M  END
