1,5
q = -1.0, confidence = 0.0

 40 41  0  0  0  0  0  0  0  0999 V2000
    1.9713    3.2757    0.5082 S   0  0  0  0  0  1  0  0  0  0  0  0
    4.2316    2.5775   -0.7122 N   0  0  0  0  0  0  0  0  0  0  0  0
    4.5641    3.3494   -0.1352 H   0  0  0  0  0  0  0  0  0  0  0  0
    2.4845    1.2220   -1.3001 N   0  0  0  0  0  0  0  0  0  0  0  0
    1.1621    1.0011   -1.3033 N   0  0  0  0  0  2  0  0  0  0  0  0
    2.9124    2.2631   -0.5897 C   0  0  0  0  0  0  0  0  0  0  0  0
    5.1393    1.9259   -1.6492 C   0  0  0  0  0  0  0  0  0  0  0  0
    5.9115    2.6723   -1.9303 H   0  0  0  0  0  0  0  0  0  0  0  0
    4.5576    1.6858   -2.5615 H   0  0  0  0  0  0  0  0  0  0  0  0
    5.7917    0.6517   -1.1114 C   0  0  0  0  0  0  0  0  0  0  0  0
    6.4012    0.8526   -0.2079 H   0  0  0  0  0  0  0  0  0  0  0  0
    6.4534    0.2078   -1.8827 H   0  0  0  0  0  0  0  0  0  0  0  0
    5.0182   -0.0952   -0.8493 H   0  0  0  0  0  0  0  0  0  0  0  0
    0.7045   -0.1358   -1.8266 C   0  0  0  0  0  0  0  0  0  0  0  0
   -0.7320   -0.2544   -1.9216 C   0  0  0  0  0  0  0  0  0  0  0  0
   -1.2779    0.6881   -1.7433 H   0  0  0  0  0  0  0  0  0  0  0  0
   -1.4420   -1.3990   -2.1540 C   0  0  0  0  0  3  0  0  0  0  0  0
   -0.8945   -2.3481   -2.2799 H   0  0  0  0  0  0  0  0  0  0  0  0
   -2.8992   -1.4894   -2.1717 C   0  0  0  0  0  0  0  0  0  0  0  0
   -3.5138   -2.7670   -2.1519 C   0  0  0  0  0  0  0  0  0  0  0  0
   -2.8752   -3.6642   -2.1653 H   0  0  0  0  0  0  0  0  0  0  0  0
   -4.9069   -2.9005   -2.0937 C   0  0  0  0  0  0  0  0  0  0  0  0
   -5.3599   -3.9035   -2.0722 H   0  0  0  0  0  0  0  0  0  0  0  0
   -5.7235   -1.7580   -2.0641 C   0  0  0  0  0  0  0  0  0  0  0  0
   -6.8184   -1.8596   -2.0190 H   0  0  0  0  0  0  0  0  0  0  0  0
   -5.1303   -0.4828   -2.1010 C   0  0  0  0  0  0  0  0  0  0  0  0
   -5.7604    0.4195   -2.0873 H   0  0  0  0  0  0  0  0  0  0  0  0
   -3.7403   -0.3458   -2.1561 C   0  0  0  0  0  0  0  0  0  0  0  0
   -3.2990    0.6614   -2.1872 H   0  0  0  0  0  0  0  0  0  0  0  0
    1.6129   -1.2365   -2.2397 C   0  0  0  0  0  0  0  0  0  0  0  0
    1.4911   -1.8397   -3.5093 C   0  0  0  0  0  0  0  0  0  0  0  0
    0.7355   -1.4634   -4.2151 H   0  0  0  0  0  0  0  0  0  0  0  0
    2.3358   -2.8979   -3.8782 C   0  0  0  0  0  0  0  0  0  0  0  0
    2.2381   -3.3517   -4.8763 H   0  0  0  0  0  0  0  0  0  0  0  0
    3.3014   -3.3757   -2.9787 C   0  0  0  0  0  0  0  0  0  0  0  0
    3.9601   -4.2091   -3.2675 H   0  0  0  0  0  0  0  0  0  0  0  0
    3.4219   -2.7879   -1.7075 C   0  0  0  0  0  0  0  0  0  0  0  0
    4.1692   -3.1595   -0.9894 H   0  0  0  0  0  0  0  0  0  0  0  0
    2.5910   -1.7221   -1.3426 C   0  0  0  0  0  0  0  0  0  0  0  0
    2.6844   -1.2685   -0.3475 H   0  0  0  0  0  0  0  0  0  0  0  0
  2  6  1  0  0  0  0
  2  3  1  0  0  0  0
  4  6  2  0  0  0  0
  5  4  1  0  0  0  0
  6  1  1  0  0  0  0
  7 10  1  0  0  0  0
  7  2  1  0  0  0  0
  8  7  1  0  0  0  0
  9  7  1  0  0  0  0
 10 13  1  0  0  0  0
 10 11  1  0  0  0  0
 12 10  1  0  0  0  0
 14  5  1  0  0  0  0
 15 14  2  0  0  0  0
 15 16  1  0  0  0  0
 17 15  1  0  0  0  0
 18 17  1  0  0  0  0
 19 28  2  0  0  0  0
 19 17  1  0  0  0  0
 19 20  1  0  0  0  0
 20 22  2  0  0  0  0
 21 20  1  0  0  0  0
 22 23  1  0  0  0  0
 22 24  1  0  0  0  0
 24 25  1  0  0  0  0
 26 27  1  0  0  0  0
 26 24  2  0  0  0  0
 28 26  1  0  0  0  0
 29 28  1  0  0  0  0
 30 14  1  0  0  0  0
 30 39  1  0  0  0  0
 31 30  2  0  0  0  0
 32 31  1  0  0  0  0
 33 31  1  0  0  0  0
 33 35  2  0  0  0  0
 34 33  1  0  0  0  0
 35 37  1  0  0  0  0
 36 35  1  0  0  0  0
 37 39  2  0  0  0  0
 37 38  1  0  0  0  0
 39 40  1  0  0  0  0
M  END
