1,2
q = -1.0, confidence = 0.0

 16 15  0  0  1  0  0  0  0  0999 V2000
   -1.5811   -2.1029    0.2192 S   0  0  0  0  0  1  0  0  0  0  0  0
   -1.3966    0.6243   -0.4361 N   0  0  0  0  0  2  0  0  0  0  0  0
   -2.6615    0.3892    0.0592 N   0  0  0  0  0  2  0  0  0  0  0  0
   -4.0445   -1.2668    0.8755 N   0  0  0  0  0  0  0  0  0  0  0  0
   -1.2771    1.6830   -1.2067 C   0  0  0  0  0  3  0  0  0  0  0  0
    0.0061    1.9957   -1.9107 C   0  0  0  0  0  0  0  0  0  0  0  0
   -2.4654    2.5669   -1.4552 C   0  0  0  0  0  0  0  0  0  0  0  0
   -2.8316   -0.8768    0.3904 C   0  0  1  0  0  3  0  0  0  0  0  0
   -4.2349   -2.2609    0.9779 H   0  0  0  0  0  0  0  0  0  0  0  0
   -4.8297   -0.6244    0.7730 H   0  0  0  0  0  0  0  0  0  0  0  0
   -0.1978    2.1114   -2.9972 H   0  0  0  0  0  0  0  0  0  0  0  0
    0.7648    1.2067   -1.7766 H   0  0  0  0  0  0  0  0  0  0  0  0
    0.4316    2.9647   -1.5683 H   0  0  0  0  0  0  0  0  0  0  0  0
   -2.9384    2.8627   -0.4969 H   0  0  0  0  0  0  0  0  0  0  0  0
   -3.2512    2.0137   -2.0122 H   0  0  0  0  0  0  0  0  0  0  0  0
   -2.1789    3.4659   -2.0329 H   0  0  0  0  0  0  0  0  0  0  0  0
  2  3  1  0  0  0  0
  3  8  1  0  0  0  0
  4  9  1  0  0  0  0
  5  2  1  0  0  0  0
  6 12  1  0  0  0  0
  6 13  1  0  0  0  0
  6  5  1  0  0  0  0
  7  5  1  0  0  0  0
  7 14  1  0  0  0  0
  8  1  1  6  0  0  0
  8  4  1  0  0  0  0
 10  4  1  0  0  0  0
 11  6  1  0  0  0  0
 15  7  1  0  0  0  0
 16  7  1  0  0  0  0
M  END
