1,3
q = 0.0, confidence = 0.784

 17 17  0  0  0  0  0  0  0  0999 V2000
    1.1713   -0.8708   -1.3571 S   0  0  0  0  0  0  0  0  0  0  0  0
    6.2210   -0.1767   -0.3696 O   0  0  0  0  0  0  0  0  0  0  0  0
    0.9926    0.5263    1.1390 N   0  0  0  0  0  2  0  0  0  0  0  0
    5.0438   -0.0122   -0.0074 C   0  0  0  0  0  0  0  0  0  0  0  0
    2.2930    0.3634    0.8320 C   0  0  0  0  0  0  0  0  0  0  0  0
    3.3813    0.8129    1.6581 C   0  0  0  0  0  0  0  0  0  0  0  0
    3.1374    1.3127    2.6105 H   0  0  0  0  0  0  0  0  0  0  0  0
    2.6131   -0.3018   -0.4090 C   0  0  0  0  0  0  0  0  0  0  0  0
    4.6839    0.6407    1.2639 C   0  0  0  0  0  3  0  0  0  0  0  0
    5.5233    0.9899    1.8833 H   0  0  0  0  0  0  0  0  0  0  0  0
    3.9043   -0.4743   -0.8290 C   0  0  0  0  0  0  0  0  0  0  0  0
    4.1506   -0.9761   -1.7770 H   0  0  0  0  0  0  0  0  0  0  0  0
    1.2929   -2.6716   -1.0311 C   0  0  0  0  0  0  0  0  0  0  0  0
    0.4009   -3.1269   -1.5024 H   0  0  0  0  0  0  0  0  0  0  0  0
    1.2747   -2.8522    0.0589 H   0  0  0  0  0  0  0  0  0  0  0  0
    2.2155   -3.0648   -1.4968 H   0  0  0  0  0  0  0  0  0  0  0  0
    0.8234    0.9427    2.0685 H   0  0  0  0  0  0  0  0  0  0  0  0
  1 13  1  0  0  0  0
  1  8  1  0  0  0  0
  2  4  2  0  0  0  0
  3 17  1  0  0  0  0
  4  9  1  0  0  0  0
  5  3  1  0  0  0  0
  5  6  2  0  0  0  0
  6  7  1  0  0  0  0
  8  5  1  0  0  0  0
  9  6  1  0  0  0  0
  9 10  1  0  0  0  0
 11  8  2  0  0  0  0
 11  4  1  0  0  0  0
 12 11  1  0  0  0  0
 13 15  1  0  0  0  0
 14 13  1  0  0  0  0
 16 13  1  0  0  0  0
M  END
