1,2
q = -1.0, confidence = 0.0

 20 21  0  0  1  0  0  0  0  0999 V2000
   -1.4933   -1.8092   -0.0006 S   0  0  0  0  0  1  0  0  0  0  0  0
   -1.7011    1.1414   -0.0006 N   0  0  0  0  0  2  0  0  0  0  0  0
   -1.6493    2.4849   -0.0012 C   0  0  0  0  0  0  0  0  0  0  0  0
   -2.8019    3.2957   -0.0011 C   0  0  0  0  0  0  0  0  0  0  0  0
   -4.0535    2.7003   -0.0004 C   0  0  0  0  0  0  0  0  0  0  0  0
   -4.1565    1.2841    0.0000 C   0  0  0  0  0  0  0  0  0  0  0  0
   -5.4005    0.5979    0.0006 C   0  0  0  0  0  0  0  0  0  0  0  0
   -5.4249   -0.7918    0.0008 C   0  0  0  0  0  0  0  0  0  0  0  0
   -4.2408   -1.5699    0.0005 C   0  0  0  0  0  0  0  0  0  0  0  0
   -2.9879   -0.9140    0.0000 C   0  0  0  0  0  0  0  0  0  0  0  0
   -2.9384    0.5142   -0.0002 C   0  0  1  0  0  3  0  0  0  0  0  0
   -4.2898   -3.0699    0.0005 C   0  0  0  0  0  0  0  0  0  0  0  0
   -0.6494    2.9403   -0.0018 H   0  0  0  0  0  0  0  0  0  0  0  0
   -2.6802    4.3877   -0.0016 H   0  0  0  0  0  0  0  0  0  0  0  0
   -4.9726    3.3065   -0.0002 H   0  0  0  0  0  0  0  0  0  0  0  0
   -6.3323    1.1819    0.0008 H   0  0  0  0  0  0  0  0  0  0  0  0
   -6.3924   -1.3184    0.0012 H   0  0  0  0  0  0  0  0  0  0  0  0
   -3.7576   -3.4807    0.8858 H   0  0  0  0  0  0  0  0  0  0  0  0
   -3.7591   -3.4807   -0.8856 H   0  0  0  0  0  0  0  0  0  0  0  0
   -5.3295   -3.4485    0.0014 H   0  0  0  0  0  0  0  0  0  0  0  0
  1 10  1  0  0  0  0
  3  4  2  0  0  0  0
  3  2  1  0  0  0  0
  4  5  1  0  0  0  0
  5 15  1  0  0  0  0
  5  6  2  0  0  0  0
  6  7  1  0  0  0  0
  7 16  1  0  0  0  0
  7  8  2  0  0  0  0
  8 17  1  0  0  0  0
  9 12  1  0  0  0  0
  9  8  1  0  0  0  0
 10  9  2  0  0  0  0
 11  2  1  6  0  0  0
 11 10  1  0  0  0  0
 11  6  1  0  0  0  0
 12 20  1  0  0  0  0
 12 18  1  0  0  0  0
 13  3  1  0  0  0  0
 14  4  1  0  0  0  0
 19 12  1  0  0  0  0
M  END
