3,4
q = -2.0, confidence = 0.708

 13 12  0  0  1  0  0  0  0  0999 V2000
   -0.0411    2.0590    1.6051 S   0  0  0  0  0  0  0  0  0  0  0  0
   -0.1011    2.5491   -0.1133 C   0  0  2  0  0  3  0  0  0  0  0  0
   -0.0319    1.3025   -1.2685 S   0  0  0  0  0  1  0  0  0  0  0  0
   -0.0052    0.4327    1.4651 N   0  0  0  0  0  1  0  0  0  0  0  0
   -0.1925    3.8752   -0.3916 N   0  0  0  0  0  0  0  0  0  0  0  0
   -0.1782    4.8492    0.6888 C   0  0  0  0  0  0  0  0  0  0  0  0
   -0.1037    4.3763   -1.7552 C   0  0  0  0  0  0  0  0  0  0  0  0
   -0.8413    4.5112    1.5128 H   0  0  0  0  0  0  0  0  0  0  0  0
    0.8437    4.9957    1.1062 H   0  0  0  0  0  0  0  0  0  0  0  0
   -0.5516    5.8204    0.3138 H   0  0  0  0  0  0  0  0  0  0  0  0
   -0.3023    3.5448   -2.4560 H   0  0  0  0  0  0  0  0  0  0  0  0
   -0.8509    5.1815   -1.9089 H   0  0  0  0  0  0  0  0  0  0  0  0
    0.9087    4.7862   -1.9696 H   0  0  0  0  0  0  0  0  0  0  0  0
  2  3  1  6  0  0  0
  2  1  1  0  0  0  0
  4  1  1  0  0  0  0
  5  2  1  0  0  0  0
  5  6  1  0  0  0  0
  6  9  1  0  0  0  0
  6  8  1  0  0  0  0
  7  5  1  0  0  0  0
 10  6  1  0  0  0  0
 11  7  1  0  0  0  0
 12  7  1  0  0  0  0
 13  7  1  0  0  0  0
M  END
