1,4
q = -1.0, confidence = 0.0

 36 36  0  0  0  0  0  0  0  0999 V2000
    1.6856   -1.8264   -0.1309 S   0  0  0  0  0  1  0  0  0  0  0  0
   -0.6786   -2.9508   -1.0366 N   0  0  0  0  0  0  0  0  0  0  0  0
   -1.6898   -2.7963   -1.9426 N   0  0  0  0  0  0  0  0  0  0  0  0
    1.4265    0.6429   -1.7736 N   0  0  0  0  0  2  0  0  0  0  0  0
    0.2240   -1.9290   -1.0624 C   0  0  0  0  0  0  0  0  0  0  0  0
   -0.2272   -1.0566   -2.0951 C   0  0  0  0  0  0  0  0  0  0  0  0
   -1.4180   -1.6699   -2.6053 C   0  0  0  0  0  0  0  0  0  0  0  0
    0.5560    0.0481   -2.5482 C   0  0  0  0  0  3  0  0  0  0  0  0
    3.3601    2.0781   -1.2742 C   0  0  0  0  0  0  0  0  0  0  0  0
   -0.7298   -4.0503   -0.0677 C   0  0  0  0  0  0  0  0  0  0  0  0
    1.7134    2.7595   -3.0523 C   0  0  0  0  0  0  0  0  0  0  0  0
    2.4297    1.5710   -2.3851 C   0  0  0  0  0  0  0  0  0  0  0  0
    3.2695    0.7823   -3.4088 C   0  0  0  0  0  0  0  0  0  0  0  0
   -0.9715   -5.3816   -0.7772 C   0  0  0  0  0  0  0  0  0  0  0  0
   -2.3200   -1.1747   -3.6901 C   0  0  0  0  0  0  0  0  0  0  0  0
   -1.7754   -3.7313    1.0064 C   0  0  0  0  0  0  0  0  0  0  0  0
    0.4723    0.3529   -3.6107 H   0  0  0  0  0  0  0  0  0  0  0  0
    2.8140    2.6786   -0.5220 H   0  0  0  0  0  0  0  0  0  0  0  0
    3.8457    1.2261   -0.7599 H   0  0  0  0  0  0  0  0  0  0  0  0
    4.1548    2.7155   -1.7114 H   0  0  0  0  0  0  0  0  0  0  0  0
    1.0790    2.4311   -3.8999 H   0  0  0  0  0  0  0  0  0  0  0  0
    0.2765   -4.0506    0.4005 H   0  0  0  0  0  0  0  0  0  0  0  0
    1.0685    3.2780   -2.3166 H   0  0  0  0  0  0  0  0  0  0  0  0
    2.4577    3.4777   -3.4508 H   0  0  0  0  0  0  0  0  0  0  0  0
    3.7239   -0.1052   -2.9251 H   0  0  0  0  0  0  0  0  0  0  0  0
    2.6520    0.4304   -4.2589 H   0  0  0  0  0  0  0  0  0  0  0  0
    4.0796    1.4193   -3.8174 H   0  0  0  0  0  0  0  0  0  0  0  0
   -1.9409   -5.3616   -1.3119 H   0  0  0  0  0  0  0  0  0  0  0  0
   -0.1733   -5.5859   -1.5177 H   0  0  0  0  0  0  0  0  0  0  0  0
   -0.9856   -6.2087   -0.0403 H   0  0  0  0  0  0  0  0  0  0  0  0
   -1.7610   -0.9773   -4.6289 H   0  0  0  0  0  0  0  0  0  0  0  0
   -3.1019   -1.9286   -3.8981 H   0  0  0  0  0  0  0  0  0  0  0  0
   -2.8198   -0.2259   -3.4020 H   0  0  0  0  0  0  0  0  0  0  0  0
   -1.5238   -2.7761    1.5091 H   0  0  0  0  0  0  0  0  0  0  0  0
   -2.7791   -3.6307    0.5470 H   0  0  0  0  0  0  0  0  0  0  0  0
   -1.8108   -4.5344    1.7694 H   0  0  0  0  0  0  0  0  0  0  0  0
  2 10  1  0  0  0  0
  3  2  1  0  0  0  0
  5  2  1  0  0  0  0
  5  1  1  0  0  0  0
  6  5  2  0  0  0  0
  7  6  1  0  0  0  0
  7  3  2  0  0  0  0
  8  6  1  0  0  0  0
  8  4  1  0  0  0  0
  9 19  1  0  0  0  0
  9 18  1  0  0  0  0
 10 22  1  0  0  0  0
 10 16  1  0  0  0  0
 11 12  1  0  0  0  0
 11 23  1  0  0  0  0
 12  4  1  0  0  0  0
 12  9  1  0  0  0  0
 13 25  1  0  0  0  0
 13 12  1  0  0  0  0
 14 10  1  0  0  0  0
 14 30  1  0  0  0  0
 15 33  1  0  0  0  0
 15  7  1  0  0  0  0
 16 34  1  0  0  0  0
 16 36  1  0  0  0  0
 17  8  1  0  0  0  0
 20  9  1  0  0  0  0
 21 11  1  0  0  0  0
 24 11  1  0  0  0  0
 26 13  1  0  0  0  0
 27 13  1  0  0  0  0
 28 14  1  0  0  0  0
 29 14  1  0  0  0  0
 31 15  1  0  0  0  0
 32 15  1  0  0  0  0
 35 16  1  0  0  0  0
M  END
