1,14
q = 0.0, confidence = 1.0

 27 27  0  0  0  0  0  0  0  0999 V2000
    3.2567   -0.2728   -0.2110 N   0  0  0  0  0  2  0  0  0  0  0  0
    4.4192    0.2552   -0.6423 C   0  0  0  0  0  3  0  0  0  0  0  0
    4.3392    1.2853   -1.0315 H   0  0  0  0  0  0  0  0  0  0  0  0
    5.6181   -0.4655   -0.6104 C   0  0  0  0  0  0  0  0  0  0  0  0
    6.5460    0.0031   -0.9676 H   0  0  0  0  0  0  0  0  0  0  0  0
    5.6031   -1.7766   -0.1142 C   0  0  0  0  0  0  0  0  0  0  0  0
    6.5280   -2.3711   -0.0682 H   0  0  0  0  0  0  0  0  0  0  0  0
    4.3893   -2.3235    0.3234 C   0  0  0  0  0  0  0  0  0  0  0  0
    4.3371   -3.3510    0.7113 H   0  0  0  0  0  0  0  0  0  0  0  0
    3.2207   -1.5465    0.2596 C   0  0  0  0  0  0  0  0  0  0  0  0
    1.8794   -2.0922    0.6577 C   0  0  0  0  0  0  0  0  0  0  0  0
    1.9491   -2.9449    1.3589 H   0  0  0  0  0  0  0  0  0  0  0  0
    1.3294   -2.4465   -0.2438 H   0  0  0  0  0  0  0  0  0  0  0  0
    0.7307   -0.8214    1.3120 S   0  0  0  0  0  0  0  0  0  0  0  0
    1.3557   -0.3778    3.0395 C   0  0  0  0  0  0  0  0  0  0  0  0
    1.3487   -1.6702    3.8620 C   0  0  0  0  0  0  0  0  0  0  0  0
    2.1378   -2.3784    3.5380 H   0  0  0  0  0  0  0  0  0  0  0  0
    0.3666   -2.1811    3.8069 H   0  0  0  0  0  0  0  0  0  0  0  0
    1.5472   -1.4220    4.9253 H   0  0  0  0  0  0  0  0  0  0  0  0
    0.2807    0.6016    3.5324 C   0  0  0  0  0  0  0  0  0  0  0  0
    0.5204    0.8975    4.5748 H   0  0  0  0  0  0  0  0  0  0  0  0
   -0.7230    0.1304    3.5299 H   0  0  0  0  0  0  0  0  0  0  0  0
    0.2395    1.5208    2.9113 H   0  0  0  0  0  0  0  0  0  0  0  0
    2.7347    0.2805    3.0161 C   0  0  0  0  0  0  0  0  0  0  0  0
    3.0018    0.5890    4.0488 H   0  0  0  0  0  0  0  0  0  0  0  0
    2.7348    1.1834    2.3736 H   0  0  0  0  0  0  0  0  0  0  0  0
    3.5238   -0.4097    2.6584 H   0  0  0  0  0  0  0  0  0  0  0  0
  1 10  1  0  0  0  0
  2  4  1  0  0  0  0
  2  1  1  0  0  0  0
  3  2  1  0  0  0  0
  4  6  2  0  0  0  0
  5  4  1  0  0  0  0
  6  7  1  0  0  0  0
  6  8  1  0  0  0  0
  8  9  1  0  0  0  0
 10  8  2  0  0  0  0
 10 11  1  0  0  0  0
 11 14  1  0  0  0  0
 11 12  1  0  0  0  0
 13 11  1  0  0  0  0
 14 15  1  0  0  0  0
 15 20  1  0  0  0  0
 15 16  1  0  0  0  0
 16 19  1  0  0  0  0
 17 16  1  0  0  0  0
 18 16  1  0  0  0  0
 20 21  1  0  0  0  0
 22 20  1  0  0  0  0
 23 20  1  0  0  0  0
 24 15  1  0  0  0  0
 24 25  1  0  0  0  0
 26 24  1  0  0  0  0
 27 24  1  0  0  0  0
M  END
