20,33
q = -1.0, confidence = 0.0

 35 37  0  0  0  0  0  0  0  0999 V2000
   -4.3103    1.2895   -0.3919 N   0  0  0  0  0  0  0  0  0  0  0  0
   -4.8455    2.3851    0.3430 C   0  0  0  0  0  0  0  0  0  0  0  0
   -5.7314    3.2602   -0.3162 C   0  0  0  0  0  0  0  0  0  0  0  0
   -5.9770    3.0675   -1.3687 H   0  0  0  0  0  0  0  0  0  0  0  0
   -6.2868    4.3397    0.3807 C   0  0  0  0  0  0  0  0  0  0  0  0
   -6.9755    5.0221   -0.1399 H   0  0  0  0  0  0  0  0  0  0  0  0
   -5.9656    4.5557    1.7310 C   0  0  0  0  0  0  0  0  0  0  0  0
   -6.3993    5.4087    2.2741 H   0  0  0  0  0  0  0  0  0  0  0  0
   -5.0938    3.6719    2.3847 C   0  0  0  0  0  0  0  0  0  0  0  0
   -4.8476    3.8225    3.4466 H   0  0  0  0  0  0  0  0  0  0  0  0
   -5.1148    0.7161   -1.3516 N   0  0  0  0  0  0  0  0  0  0  0  0
   -4.3956   -0.2408   -1.9112 C   0  0  0  0  0  0  0  0  0  0  0  0
   -4.9673   -1.0933   -2.9985 C   0  0  0  0  0  0  0  0  0  0  0  0
   -6.0085   -0.7805   -3.1999 H   0  0  0  0  0  0  0  0  0  0  0  0
   -4.9742   -2.1669   -2.7166 H   0  0  0  0  0  0  0  0  0  0  0  0
   -4.3849   -1.0031   -3.9386 H   0  0  0  0  0  0  0  0  0  0  0  0
   -3.0745   -0.3099   -1.3311 C   0  0  0  0  0  0  0  0  0  0  0  0
   -2.0979   -1.2661   -1.7090 C   0  0  0  0  0  3  0  0  0  0  0  0
   -2.4426   -2.0314   -2.4348 H   0  0  0  0  0  0  0  0  0  0  0  0
   -0.8469   -1.3417   -1.3031 N   0  0  0  0  0  2  0  0  0  0  0  0
   -0.0728   -2.4795   -1.6280 C   0  0  0  0  0  0  0  0  0  0  0  0
   -0.6296   -3.7782   -1.6387 C   0  0  0  0  0  0  0  0  0  0  0  0
   -1.6867   -3.9188   -1.3690 H   0  0  0  0  0  0  0  0  0  0  0  0
    0.1795   -4.8889   -1.9111 C   0  0  0  0  0  0  0  0  0  0  0  0
   -0.2635   -5.8964   -1.8989 H   0  0  0  0  0  0  0  0  0  0  0  0
    1.5510   -4.7250   -2.1628 C   0  0  0  0  0  0  0  0  0  0  0  0
    2.1853   -5.6007   -2.3659 H   0  0  0  0  0  0  0  0  0  0  0  0
    2.1103   -3.4357   -2.1385 C   0  0  0  0  0  0  0  0  0  0  0  0
    3.1849   -3.2954   -2.3311 H   0  0  0  0  0  0  0  0  0  0  0  0
    1.3097   -2.3192   -1.8702 C   0  0  0  0  0  0  0  0  0  0  0  0
    1.7397   -1.3056   -1.8462 H   0  0  0  0  0  0  0  0  0  0  0  0
   -3.0514    0.7251   -0.3384 C   0  0  0  0  0  0  0  0  0  0  0  0
   -1.7992    1.2813    0.7149 S   0  0  0  0  0  1  0  0  0  0  0  0
   -4.5358    2.5816    1.7018 C   0  0  0  0  0  0  0  0  0  0  0  0
   -3.8673    1.8833    2.2206 H   0  0  0  0  0  0  0  0  0  0  0  0
  1 32  1  0  0  0  0
  1  2  1  0  0  0  0
  2 34  1  0  0  0  0
  3  2  2  0  0  0  0
  3  5  1  0  0  0  0
  4  3  1  0  0  0  0
  5  7  2  0  0  0  0
  6  5  1  0  0  0  0
  7  8  1  0  0  0  0
  7  9  1  0  0  0  0
  9 10  1  0  0  0  0
 11  1  1  0  0  0  0
 12 11  2  0  0  0  0
 12 17  1  0  0  0  0
 13 15  1  0  0  0  0
 13 12  1  0  0  0  0
 14 13  1  0  0  0  0
 16 13  1  0  0  0  0
 17 32  2  0  0  0  0
 18 17  1  0  0  0  0
 18 20  1  0  0  0  0
 19 18  1  0  0  0  0
 21 20  1  0  0  0  0
 22 21  1  0  0  0  0
 22 23  1  0  0  0  0
 24 25  1  0  0  0  0
 24 22  2  0  0  0  0
 26 28  2  0  0  0  0
 26 24  1  0  0  0  0
 27 26  1  0  0  0  0
 28 30  1  0  0  0  0
 29 28  1  0  0  0  0
 30 31  1  0  0  0  0
 30 21  2  0  0  0  0
 32 33  1  0  0  0  0
 34 35  1  0  0  0  0
 34  9  2  0  0  0  0
M  END
