1,4
q = -1.0, confidence = 0.004

 27 28  0  0  0  0  0  0  0  0999 V2000
   -1.5042   -3.2734   -0.3634 S   0  0  0  0  0  1  0  0  0  0  0  0
   -0.7530    3.0913   -1.3012 O   0  0  0  0  0  0  0  0  0  0  0  0
    0.9055    4.4151   -1.8011 O   0  0  0  0  0  0  0  0  0  0  0  0
   -1.1069   -0.5020   -0.9772 N   0  0  0  0  0  2  0  0  0  0  0  0
    0.4241    3.2994   -1.6349 N   0  0  0  0  0  0  0  0  0  0  0  0
   -2.8083   -2.1713   -0.7615 C   0  0  0  0  0  0  0  0  0  0  0  0
   -2.4919   -0.8099   -1.0142 C   0  0  0  0  0  0  0  0  0  0  0  0
   -3.5069    0.1327   -1.2723 C   0  0  0  0  0  0  0  0  0  0  0  0
   -4.8430   -0.2798   -1.3040 C   0  0  0  0  0  0  0  0  0  0  0  0
   -5.1642   -1.6372   -1.0933 C   0  0  0  0  0  0  0  0  0  0  0  0
   -4.1614   -2.5759   -0.8286 C   0  0  0  0  0  0  0  0  0  0  0  0
   -0.6504    0.5114   -1.6710 C   0  0  0  0  0  3  0  0  0  0  0  0
    0.7740    0.8108   -1.7980 C   0  0  0  0  0  0  0  0  0  0  0  0
    1.2994    2.1282   -1.8389 C   0  0  0  0  0  0  0  0  0  0  0  0
    2.6692    2.3742   -2.0005 C   0  0  0  0  0  0  0  0  0  0  0  0
    3.5553    1.2976   -2.1273 C   0  0  0  0  0  0  0  0  0  0  0  0
    3.0625   -0.0178   -2.1055 C   0  0  0  0  0  0  0  0  0  0  0  0
    1.6923   -0.2556   -1.9536 C   0  0  0  0  0  0  0  0  0  0  0  0
   -3.2531    1.1958   -1.3962 H   0  0  0  0  0  0  0  0  0  0  0  0
   -5.6393    0.4581   -1.4791 H   0  0  0  0  0  0  0  0  0  0  0  0
   -6.2156   -1.9619   -1.1209 H   0  0  0  0  0  0  0  0  0  0  0  0
   -4.4131   -3.6320   -0.6499 H   0  0  0  0  0  0  0  0  0  0  0  0
   -1.3614    1.1166   -2.2547 H   0  0  0  0  0  0  0  0  0  0  0  0
    3.0098    3.4177   -1.9991 H   0  0  0  0  0  0  0  0  0  0  0  0
    4.6333    1.4857   -2.2344 H   0  0  0  0  0  0  0  0  0  0  0  0
    3.7502   -0.8712   -2.1968 H   0  0  0  0  0  0  0  0  0  0  0  0
    1.3056   -1.2877   -1.9607 H   0  0  0  0  0  0  0  0  0  0  0  0
  3  5  2  0  0  0  0
  5  2  2  0  0  0  0
  6  1  1  0  0  0  0
  7  4  1  0  0  0  0
  7  6  2  0  0  0  0
  8  7  1  0  0  0  0
  9  8  2  0  0  0  0
  9 10  1  0  0  0  0
 10 11  2  0  0  0  0
 11  6  1  0  0  0  0
 11 22  1  0  0  0  0
 12  4  1  0  0  0  0
 13 12  1  0  0  0  0
 14 13  1  0  0  0  0
 14  5  1  0  0  0  0
 15 24  1  0  0  0  0
 15 14  2  0  0  0  0
 16 17  2  0  0  0  0
 16 15  1  0  0  0  0
 17 18  1  0  0  0  0
 18 13  2  0  0  0  0
 19  8  1  0  0  0  0
 20  9  1  0  0  0  0
 21 10  1  0  0  0  0
 23 12  1  0  0  0  0
 25 16  1  0  0  0  0
 26 17  1  0  0  0  0
 27 18  1  0  0  0  0
M  END
