1,4
q = -1.0, confidence = 0.0

 26 27  0  0  0  0  0  0  0  0999 V2000
   -0.2404   -2.2063    0.0001 S   0  0  0  0  0  1  0  0  0  0  0  0
    2.3399   -3.5721    0.0003 O   0  0  0  0  0  0  0  0  0  0  0  0
    4.3463   -2.5131   -0.0001 O   0  0  0  0  0  0  0  0  0  0  0  0
    0.4486    0.2733    0.0005 N   0  0  0  0  0  2  0  0  0  0  0  0
    0.9802   -0.9773    0.0003 C   0  0  0  0  0  0  0  0  0  0  0  0
    2.4101   -1.1650    0.0000 C   0  0  0  0  0  0  0  0  0  0  0  0
    3.2194   -0.0370   -0.0002 C   0  0  0  0  0  0  0  0  0  0  0  0
    2.9858   -2.5394    0.0001 C   0  0  0  0  0  0  0  0  0  0  0  0
    4.9753   -3.7989   -0.0000 C   0  0  0  0  0  0  0  0  0  0  0  0
    1.2335    1.3963    0.0003 C   0  0  0  0  0  0  0  0  0  0  0  0
    2.6664    1.2720   -0.0001 C   0  0  0  0  0  0  0  0  0  0  0  0
    3.4718    2.4440   -0.0002 C   0  0  0  0  0  3  0  0  0  0  0  0
    2.9106    3.7182    0.0001 C   0  0  0  0  0  0  0  0  0  0  0  0
    1.4874    3.8174    0.0005 C   0  0  0  0  0  0  0  0  0  0  0  0
    0.6670    2.6981    0.0006 C   0  0  0  0  0  0  0  0  0  0  0  0
    3.7554    4.9650    0.0000 C   0  0  0  0  0  0  0  0  0  0  0  0
    4.3114   -0.1666   -0.0004 H   0  0  0  0  0  0  0  0  0  0  0  0
    4.5668    2.3227   -0.0006 H   0  0  0  0  0  0  0  0  0  0  0  0
    1.0240    4.8168    0.0007 H   0  0  0  0  0  0  0  0  0  0  0  0
   -0.4248    2.8055    0.0009 H   0  0  0  0  0  0  0  0  0  0  0  0
    4.6835   -4.3812    0.8974 H   0  0  0  0  0  0  0  0  0  0  0  0
    4.6836   -4.3812   -0.8974 H   0  0  0  0  0  0  0  0  0  0  0  0
    6.0630   -3.6078   -0.0000 H   0  0  0  0  0  0  0  0  0  0  0  0
    3.5438    5.5928    0.8908 H   0  0  0  0  0  0  0  0  0  0  0  0
    4.8364    4.7278   -0.0004 H   0  0  0  0  0  0  0  0  0  0  0  0
    3.5432    5.5934   -0.8902 H   0  0  0  0  0  0  0  0  0  0  0  0
  1  5  1  0  0  0  0
  3  9  1  0  0  0  0
  3  8  1  0  0  0  0
  5  4  1  0  0  0  0
  6  8  1  0  0  0  0
  6  5  2  0  0  0  0
  7 11  2  0  0  0  0
  7  6  1  0  0  0  0
  8  2  2  0  0  0  0
  9 23  1  0  0  0  0
  9 21  1  0  0  0  0
 10  4  1  0  0  0  0
 10 15  2  0  0  0  0
 11 10  1  0  0  0  0
 12 11  1  0  0  0  0
 12 13  1  0  0  0  0
 13 14  2  0  0  0  0
 14 15  1  0  0  0  0
 14 19  1  0  0  0  0
 15 20  1  0  0  0  0
 16 13  1  0  0  0  0
 16 24  1  0  0  0  0
 17  7  1  0  0  0  0
 18 12  1  0  0  0  0
 22  9  1  0  0  0  0
 25 16  1  0  0  0  0
 26 16  1  0  0  0  0
M  END
