1,6
q = -1.0, confidence = 0.0

 40 40  0  0  1  0  0  0  0  0999 V2000
    1.7111   -1.6419   -0.1090 S   0  0  0  0  0  1  0  0  0  0  0  0
    1.9219    2.5141   -0.0542 P   0  0  0  0  0  0  0  0  0  0  0  0
    3.4053    2.8273   -0.0105 O   0  0  0  0  0  0  0  0  0  0  0  0
    1.0829    3.0671   -1.3147 O   0  0  0  0  0  0  0  0  0  0  0  0
    1.0641    3.1330    1.1816 O   0  0  0  0  0  0  0  0  0  0  0  0
    1.6179    0.8666   -0.0853 N   0  0  0  0  0  2  0  0  0  0  0  0
    3.8655    0.1431   -0.2454 N   0  0  0  0  0  0  0  0  0  0  0  0
    2.5453   -0.1186   -0.1640 C   0  0  1  0  0  3  0  0  0  0  0  0
    4.9800   -0.7085   -0.3191 C   0  0  0  0  0  0  0  0  0  0  0  0
    4.8992   -2.0904   -0.5950 C   0  0  0  0  0  0  0  0  0  0  0  0
    6.0729   -2.8552   -0.6482 C   0  0  0  0  0  0  0  0  0  0  0  0
    7.3303   -2.2677   -0.4411 C   0  0  0  0  0  0  0  0  0  0  0  0
    7.4094   -0.8898   -0.1795 C   0  0  0  0  0  0  0  0  0  0  0  0
    6.2471   -0.1142   -0.1171 C   0  0  0  0  0  0  0  0  0  0  0  0
    0.9212    4.5102   -1.5079 C   0  0  0  0  0  0  0  0  0  0  0  0
   -0.4992    4.8867   -1.1107 C   0  0  0  0  0  0  0  0  0  0  0  0
    1.2615    4.7990   -2.9615 C   0  0  0  0  0  0  0  0  0  0  0  0
    1.4512    2.7472    2.5388 C   0  0  0  0  0  0  0  0  0  0  0  0
    0.3436    1.8701    3.1023 C   0  0  0  0  0  0  0  0  0  0  0  0
    1.7155    4.0234    3.3213 C   0  0  0  0  0  0  0  0  0  0  0  0
    4.0530    1.1745   -0.1973 H   0  0  0  0  0  0  0  0  0  0  0  0
    3.9236   -2.5602   -0.7764 H   0  0  0  0  0  0  0  0  0  0  0  0
    5.9967   -3.9320   -0.8628 H   0  0  0  0  0  0  0  0  0  0  0  0
    8.2441   -2.8784   -0.4870 H   0  0  0  0  0  0  0  0  0  0  0  0
    8.3872   -0.4110   -0.0191 H   0  0  0  0  0  0  0  0  0  0  0  0
    6.3064    0.9651    0.0934 H   0  0  0  0  0  0  0  0  0  0  0  0
    1.6493    5.0340   -0.8491 H   0  0  0  0  0  0  0  0  0  0  0  0
   -0.6768    4.6382   -0.0472 H   0  0  0  0  0  0  0  0  0  0  0  0
   -1.2307    4.3262   -1.7269 H   0  0  0  0  0  0  0  0  0  0  0  0
   -0.6676    5.9726   -1.2577 H   0  0  0  0  0  0  0  0  0  0  0  0
    2.3010    4.4906   -3.1851 H   0  0  0  0  0  0  0  0  0  0  0  0
    1.1603    5.8818   -3.1746 H   0  0  0  0  0  0  0  0  0  0  0  0
    0.5772    4.2430   -3.6337 H   0  0  0  0  0  0  0  0  0  0  0  0
    2.3960    2.1616    2.4727 H   0  0  0  0  0  0  0  0  0  0  0  0
    0.6195    1.4795    4.1022 H   0  0  0  0  0  0  0  0  0  0  0  0
    0.1601    1.0183    2.4173 H   0  0  0  0  0  0  0  0  0  0  0  0
   -0.6025    2.4416    3.1866 H   0  0  0  0  0  0  0  0  0  0  0  0
    2.0103    3.7859    4.3630 H   0  0  0  0  0  0  0  0  0  0  0  0
    0.8030    4.6529    3.3514 H   0  0  0  0  0  0  0  0  0  0  0  0
    2.5309    4.6038    2.8475 H   0  0  0  0  0  0  0  0  0  0  0  0
  2  3  2  0  0  0  0
  2  5  1  0  0  0  0
  4  2  1  0  0  0  0
  5 18  1  0  0  0  0
  6  2  1  0  0  0  0
  7 21  1  0  0  0  0
  7  8  1  0  0  0  0
  8  1  1  1  0  0  0
  8  6  1  0  0  0  0
  9  7  1  0  0  0  0
  9 14  1  0  0  0  0
 10  9  2  0  0  0  0
 11 10  1  0  0  0  0
 11 12  2  0  0  0  0
 12 13  1  0  0  0  0
 13 14  2  0  0  0  0
 13 25  1  0  0  0  0
 14 26  1  0  0  0  0
 15  4  1  0  0  0  0
 15 16  1  0  0  0  0
 15 27  1  0  0  0  0
 16 28  1  0  0  0  0
 17 15  1  0  0  0  0
 18 19  1  0  0  0  0
 18 20  1  0  0  0  0
 19 37  1  0  0  0  0
 19 35  1  0  0  0  0
 20 39  1  0  0  0  0
 20 38  1  0  0  0  0
 22 10  1  0  0  0  0
 23 11  1  0  0  0  0
 24 12  1  0  0  0  0
 29 16  1  0  0  0  0
 30 16  1  0  0  0  0
 31 17  1  0  0  0  0
 32 17  1  0  0  0  0
 33 17  1  0  0  0  0
 34 18  1  0  0  0  0
 36 19  1  0  0  0  0
 40 20  1  0  0  0  0
M  END
