1,2
q = -1.0, confidence = 0.0

 14 15  0  0  1  0  0  0  0  0999 V2000
   -0.9674   -0.1463   -2.5404 S   0  0  0  0  0  1  0  0  0  0  0  0
   -1.9636   -1.0334   -0.2138 N   0  0  0  0  0  2  0  0  0  0  0  0
   -2.0887   -0.9644   -1.5449 C   0  0  1  0  0  3  0  0  0  0  0  0
   -2.9706   -1.7417    0.4073 C   0  0  0  0  0  0  0  0  0  0  0  0
   -3.5442   -1.8032   -2.1368 S   0  0  0  0  0  0  0  0  0  0  0  0
   -3.0850   -1.9841    1.7917 C   0  0  0  0  0  0  0  0  0  0  0  0
   -3.9627   -2.2508   -0.4862 C   0  0  0  0  0  0  0  0  0  0  0  0
   -2.3029   -1.6081    2.4683 H   0  0  0  0  0  0  0  0  0  0  0  0
   -4.1830   -2.7171    2.2590 C   0  0  0  0  0  0  0  0  0  0  0  0
   -5.0587   -2.9853   -0.0119 C   0  0  0  0  0  0  0  0  0  0  0  0
   -4.2803   -2.9162    3.3369 H   0  0  0  0  0  0  0  0  0  0  0  0
   -5.1610   -3.2113    1.3703 C   0  0  0  0  0  0  0  0  0  0  0  0
   -5.8183   -3.3770   -0.7043 H   0  0  0  0  0  0  0  0  0  0  0  0
   -6.0135   -3.7867    1.7609 H   0  0  0  0  0  0  0  0  0  0  0  0
  2  4  1  0  0  0  0
  3  1  1  1  0  0  0
  3  2  1  0  0  0  0
  4  6  1  0  0  0  0
  5  3  1  0  0  0  0
  5  7  1  0  0  0  0
  6  9  2  0  0  0  0
  6  8  1  0  0  0  0
  7 10  1  0  0  0  0
  7  4  2  0  0  0  0
  9 11  1  0  0  0  0
 10 12  2  0  0  0  0
 12 14  1  0  0  0  0
 12  9  1  0  0  0  0
 13 10  1  0  0  0  0
M  END
