1,2
q = -1.0, confidence = 0.002

 35 37  0  0  1  0  0  0  0  0999 V2000
    2.0033   -1.5127   -0.7891 S   0  0  0  0  0  1  0  0  0  0  0  0
   -0.4838   -1.0091   -0.6031 N   0  0  0  0  0  2  0  0  0  0  0  0
   -0.0616   -3.3311   -0.6184 N   0  0  0  0  0  0  0  0  0  0  0  0
   -1.0760   -3.4261   -0.4944 H   0  0  0  0  0  0  0  0  0  0  0  0
   -1.7881   -1.2830   -0.4621 N   0  0  0  0  0  0  0  0  0  0  0  0
   -2.6185   -0.3019   -0.2397 C   0  0  0  0  0  0  0  0  0  0  0  0
   -2.1868    0.7107   -0.1500 H   0  0  0  0  0  0  0  0  0  0  0  0
    0.3633   -2.0561   -0.6772 C   0  0  2  0  0  3  0  0  0  0  0  0
   -4.0564   -0.4337   -0.0612 C   0  0  0  0  0  0  0  0  0  0  0  0
    0.7988   -4.4880   -0.6795 C   0  0  0  0  0  0  0  0  0  0  0  0
    1.8488   -4.1566   -0.5521 H   0  0  0  0  0  0  0  0  0  0  0  0
    0.7166   -5.0209   -1.6518 H   0  0  0  0  0  0  0  0  0  0  0  0
    0.5562   -5.2006    0.1350 H   0  0  0  0  0  0  0  0  0  0  0  0
   -4.0929    1.8717    0.9918 C   0  0  0  0  0  0  0  0  0  0  0  0
   -3.0147    2.0081    0.8361 H   0  0  0  0  0  0  0  0  0  0  0  0
   -4.7903    2.9027    1.5963 C   0  0  0  0  0  0  0  0  0  0  0  0
   -4.2505    3.8141    1.8957 H   0  0  0  0  0  0  0  0  0  0  0  0
   -6.9645   -2.8324   -0.5788 C   0  0  0  0  0  0  0  0  0  0  0  0
   -8.0374   -2.8701   -0.3332 H   0  0  0  0  0  0  0  0  0  0  0  0
   -4.2276   -2.6789   -1.2127 C   0  0  0  0  0  0  0  0  0  0  0  0
   -3.1681   -2.6168   -1.4852 H   0  0  0  0  0  0  0  0  0  0  0  0
   -6.1720    0.5664    0.8259 C   0  0  0  0  0  0  0  0  0  0  0  0
   -6.8591    1.6524    1.4613 C   0  0  0  0  0  0  0  0  0  0  0  0
   -7.9404    1.5468    1.6409 H   0  0  0  0  0  0  0  0  0  0  0  0
   -6.3590   -3.8731   -1.2534 C   0  0  0  0  0  0  0  0  0  0  0  0
   -6.9403   -4.7594   -1.5494 H   0  0  0  0  0  0  0  0  0  0  0  0
   -4.7453    0.6646    0.5704 C   0  0  0  0  0  0  0  0  0  0  0  0
   -6.1902    2.7986    1.8378 C   0  0  0  0  0  0  0  0  0  0  0  0
   -6.7292    3.6264    2.3229 H   0  0  0  0  0  0  0  0  0  0  0  0
   -4.9777   -3.7807   -1.5877 C   0  0  0  0  0  0  0  0  0  0  0  0
   -4.5027   -4.5905   -2.1629 H   0  0  0  0  0  0  0  0  0  0  0  0
   -4.8031   -1.5899   -0.4799 C   0  0  0  0  0  0  0  0  0  0  0  0
   -6.2242   -1.6684   -0.1900 C   0  0  0  0  0  0  0  0  0  0  0  0
   -6.8661   -0.5989    0.4584 C   0  0  0  0  0  0  0  0  0  0  0  0
   -7.9435   -0.6725    0.6763 H   0  0  0  0  0  0  0  0  0  0  0  0
  2  5  1  0  0  0  0
  3  4  1  0  0  0  0
  5  6  2  0  0  0  0
  6  7  1  0  0  0  0
  6  9  1  0  0  0  0
  8  1  1  1  0  0  0
  8  3  1  0  0  0  0
  8  2  1  0  0  0  0
  9 27  1  0  0  0  0
 10  3  1  0  0  0  0
 10 11  1  0  0  0  0
 10 13  1  0  0  0  0
 12 10  1  0  0  0  0
 14 16  1  0  0  0  0
 15 14  1  0  0  0  0
 16 28  2  0  0  0  0
 16 17  1  0  0  0  0
 18 19  1  0  0  0  0
 18 33  1  0  0  0  0
 20 32  1  0  0  0  0
 21 20  1  0  0  0  0
 22 23  2  0  0  0  0
 23 24  1  0  0  0  0
 23 28  1  0  0  0  0
 25 18  2  0  0  0  0
 26 25  1  0  0  0  0
 27 22  1  0  0  0  0
 27 14  2  0  0  0  0
 28 29  1  0  0  0  0
 30 25  1  0  0  0  0
 30 20  2  0  0  0  0
 31 30  1  0  0  0  0
 32 33  1  0  0  0  0
 32  9  2  0  0  0  0
 33 34  2  0  0  0  0
 34 35  1  0  0  0  0
 34 22  1  0  0  0  0
M  END
