1,4
q = 0.0, confidence = 0.96

 20 21  0  0  0  0  0  0  0  0999 V2000
    2.3193    0.1691   -0.0001 S   0  0  0  0  0  1  0  0  0  0  0  0
   -0.8763   -2.7641   -0.0004 S   0  0  0  0  0  0  0  0  0  0  0  0
    2.4237   -2.9118   -0.0001 S   0  0  0  0  0  0  0  0  0  0  0  0
   -0.4890   -0.1559   -0.0003 N   0  0  0  0  0  2  0  0  0  0  0  0
    0.1704   -1.3436   -0.0004 C   0  0  0  0  0  0  0  0  0  0  0  0
   -2.2746   -1.7036   -0.0002 C   0  0  0  0  0  0  0  0  0  0  0  0
   -1.8730   -0.3372   -0.0001 C   0  0  0  0  0  0  0  0  0  0  0  0
   -2.8619    0.6675    0.0003 C   0  0  0  0  0  0  0  0  0  0  0  0
   -2.5702    1.7254    0.0005 H   0  0  0  0  0  0  0  0  0  0  0  0
   -4.2094    0.2959    0.0004 C   0  0  0  0  0  0  0  0  0  0  0  0
   -4.9817    1.0790    0.0007 H   0  0  0  0  0  0  0  0  0  0  0  0
   -4.5931   -1.0620    0.0002 C   0  0  0  0  0  0  0  0  0  0  0  0
   -5.6598   -1.3302    0.0003 H   0  0  0  0  0  0  0  0  0  0  0  0
   -3.6273   -2.0760   -0.0001 C   0  0  0  0  0  0  0  0  0  0  0  0
   -3.9182   -3.1364   -0.0002 H   0  0  0  0  0  0  0  0  0  0  0  0
    1.5799   -1.3697   -0.0003 C   0  0  0  0  0  0  0  0  0  0  0  0
    4.1538   -2.3725    0.0001 C   0  0  0  0  0  0  0  0  0  0  0  0
    4.7566   -3.2999    0.0000 H   0  0  0  0  0  0  0  0  0  0  0  0
    4.3786   -1.7746    0.9049 H   0  0  0  0  0  0  0  0  0  0  0  0
    4.3787   -1.7745   -0.9046 H   0  0  0  0  0  0  0  0  0  0  0  0
  2  5  1  0  0  0  0
  2  6  1  0  0  0  0
  3 17  1  0  0  0  0
  4  7  1  0  0  0  0
  5  4  1  0  0  0  0
  5 16  2  0  0  0  0
  6  7  2  0  0  0  0
  6 14  1  0  0  0  0
  7  8  1  0  0  0  0
  8 10  2  0  0  0  0
  8  9  1  0  0  0  0
 10 11  1  0  0  0  0
 12 13  1  0  0  0  0
 12 10  1  0  0  0  0
 14 12  2  0  0  0  0
 15 14  1  0  0  0  0
 16  1  1  0  0  0  0
 16  3  1  0  0  0  0
 17 19  1  0  0  0  0
 18 17  1  0  0  0  0
 20 17  1  0  0  0  0
M  END
