1,4
q = 0.0, confidence = 0.978

 17 17  0  0  0  0  0  0  0  0999 V2000
    0.6889   -1.7148    0.0005 S   0  0  0  0  0  1  0  0  0  0  0  0
    2.5151    2.2113   -0.0001 S   0  0  0  0  0  0  0  0  0  0  0  0
    3.6187   -0.8367    0.0003 S   0  0  0  0  0  0  0  0  0  0  0  0
    0.1356    1.1457    0.0004 N   0  0  0  0  0  2  0  0  0  0  0  0
    1.4470    0.8261    0.0002 C   0  0  0  0  0  0  0  0  0  0  0  0
    1.1314    3.2408    0.0001 C   0  0  0  0  0  0  0  0  0  0  0  0
    1.2410    4.3313   -0.0000 H   0  0  0  0  0  0  0  0  0  0  0  0
   -0.0505    2.5189    0.0003 C   0  0  0  0  0  0  0  0  0  0  0  0
   -1.4057    3.1455    0.0007 C   0  0  0  0  0  0  0  0  0  0  0  0
   -1.9880    2.8390   -0.8896 H   0  0  0  0  0  0  0  0  0  0  0  0
   -1.3178    4.2477    0.0010 H   0  0  0  0  0  0  0  0  0  0  0  0
   -1.9877    2.8384    0.8910 H   0  0  0  0  0  0  0  0  0  0  0  0
    1.8928   -0.5364    0.0003 C   0  0  0  0  0  0  0  0  0  0  0  0
    3.6685   -2.6472    0.0004 C   0  0  0  0  0  0  0  0  0  0  0  0
    4.7407   -2.9185    0.0002 H   0  0  0  0  0  0  0  0  0  0  0  0
    3.1704   -3.0478   -0.9039 H   0  0  0  0  0  0  0  0  0  0  0  0
    3.1707   -3.0476    0.9049 H   0  0  0  0  0  0  0  0  0  0  0  0
  2  6  1  0  0  0  0
  2  5  1  0  0  0  0
  3 13  1  0  0  0  0
  3 14  1  0  0  0  0
  5 13  2  0  0  0  0
  5  4  1  0  0  0  0
  6  8  2  0  0  0  0
  7  6  1  0  0  0  0
  8  4  1  0  0  0  0
  8  9  1  0  0  0  0
  9 11  1  0  0  0  0
  9 12  1  0  0  0  0
 10  9  1  0  0  0  0
 13  1  1  0  0  0  0
 14 17  1  0  0  0  0
 15 14  1  0  0  0  0
 16 14  1  0  0  0  0
M  END
