1,4
q = -2.0, confidence = 0.876

 18 17  0  0  1  0  0  0  0  0999 V2000
    1.3772   -1.9247   -0.3730 S   0  0  0  0  0  1  0  0  0  0  0  0
    3.4783    2.2876    0.7196 O   0  0  0  0  0  0  0  0  0  0  0  0
    5.2157    1.0674   -0.0616 O   0  0  0  0  0  0  0  0  0  0  0  0
    1.6274    1.0510   -0.4332 N   0  0  0  0  0  2  0  0  0  0  0  0
    1.4925    1.5720   -1.3127 H   0  0  0  0  0  0  0  0  0  0  0  0
    2.4769    2.1047    0.5418 H   0  0  0  0  0  0  0  0  0  0  0  0
    2.9105   -1.0070    0.2074 C   0  0  0  0  0  0  0  0  0  0  0  0
    2.9194    0.3438   -0.5521 C   0  0  2  0  0  0  0  0  0  0  0  0
    3.1954    0.1215   -1.6060 H   0  0  0  0  0  0  0  0  0  0  0  0
    4.0198    1.2716    0.0428 C   0  0  0  0  0  0  0  0  0  0  0  0
    2.8493   -0.8155    1.7290 C   0  0  0  0  0  0  0  0  0  0  0  0
    2.0202   -0.1417    2.0219 H   0  0  0  0  0  0  0  0  0  0  0  0
    3.8007   -0.3804    2.1003 H   0  0  0  0  0  0  0  0  0  0  0  0
    2.6912   -1.7893    2.2309 H   0  0  0  0  0  0  0  0  0  0  0  0
    4.1047   -1.8795   -0.1877 C   0  0  0  0  0  0  0  0  0  0  0  0
    4.0881   -2.8415    0.3633 H   0  0  0  0  0  0  0  0  0  0  0  0
    5.0418   -1.3370    0.0506 H   0  0  0  0  0  0  0  0  0  0  0  0
    4.0994   -2.0942   -1.2746 H   0  0  0  0  0  0  0  0  0  0  0  0
  1  7  1  0  0  0  0
  3 10  2  0  0  0  0
  5  4  1  0  0  0  0
  6  2  1  0  0  0  0
  7 11  1  0  0  0  0
  8  9  1  6  0  0  0
  8  4  1  0  0  0  0
  8 10  1  0  0  0  0
  8  7  1  0  0  0  0
 10  2  1  0  0  0  0
 11 12  1  0  0  0  0
 11 13  1  0  0  0  0
 11 14  1  0  0  0  0
 15 17  1  0  0  0  0
 15  7  1  0  0  0  0
 15 16  1  0  0  0  0
 18 15  1  0  0  0  0
M  END
