2,5
q = -1.0, confidence = 0.016

 36 37  0  0  1  0  0  0  0  0999 V2000
    4.3978   -1.9304   -0.9523 S   0  0  0  0  0  0  0  0  0  0  0  0
    1.5621   -2.7083   -0.5074 S   0  0  0  0  0  1  0  0  0  0  0  0
   -3.6062    3.6486   -1.1882 O   0  0  0  0  0  0  0  0  0  0  0  0
    2.3727   -0.1968   -1.1397 N   0  0  0  0  0  2  0  0  0  0  0  0
    1.0232   -0.0024   -1.0133 N   0  0  0  0  0  2  0  0  0  0  0  0
    6.5803   -0.2329   -0.6400 C   0  0  0  0  0  0  0  0  0  0  0  0
    6.7663   -0.5445    0.7243 C   0  0  0  0  0  0  0  0  0  0  0  0
    8.0232   -0.4000    1.3275 C   0  0  0  0  0  0  0  0  0  0  0  0
    9.1202    0.0545    0.5764 C   0  0  0  0  0  0  0  0  0  0  0  0
    8.9503    0.3559   -0.7832 C   0  0  0  0  0  0  0  0  0  0  0  0
    7.6912    0.2086   -1.3859 C   0  0  0  0  0  0  0  0  0  0  0  0
    5.2202   -0.3152   -1.2849 C   0  0  0  0  0  0  0  0  0  0  0  0
    2.7080   -1.4430   -0.8953 C   0  0  2  0  0  3  0  0  0  0  0  0
    0.5227    1.0823   -1.5809 C   0  0  1  0  0  3  0  0  0  0  0  0
    1.4280    2.1253   -2.1625 C   0  0  0  0  0  0  0  0  0  0  0  0
   -0.9428    1.1850   -1.6828 C   0  0  0  0  0  0  0  0  0  0  0  0
   -1.6103    2.4055   -1.4575 C   0  0  0  0  0  0  0  0  0  0  0  0
   -3.0146    2.4612   -1.4997 C   0  0  0  0  0  0  0  0  0  0  0  0
   -3.7564    1.3079   -1.8304 C   0  0  0  0  0  0  0  0  0  0  0  0
   -3.0883    0.1047   -2.0937 C   0  0  0  0  0  0  0  0  0  0  0  0
   -1.6928    0.0291   -2.0147 C   0  0  0  0  0  0  0  0  0  0  0  0
   -4.5735    3.5330   -1.2382 H   0  0  0  0  0  0  0  0  0  0  0  0
    5.9132   -0.9270    1.3051 H   0  0  0  0  0  0  0  0  0  0  0  0
    8.1496   -0.6511    2.3918 H   0  0  0  0  0  0  0  0  0  0  0  0
   10.1080    0.1640    1.0491 H   0  0  0  0  0  0  0  0  0  0  0  0
    9.8056    0.7020   -1.3835 H   0  0  0  0  0  0  0  0  0  0  0  0
    7.5637    0.4425   -2.4548 H   0  0  0  0  0  0  0  0  0  0  0  0
    5.2845   -0.1620   -2.3801 H   0  0  0  0  0  0  0  0  0  0  0  0
    4.5165    0.4447   -0.8825 H   0  0  0  0  0  0  0  0  0  0  0  0
    0.8492    2.9629   -2.5905 H   0  0  0  0  0  0  0  0  0  0  0  0
    2.0612    1.6793   -2.9567 H   0  0  0  0  0  0  0  0  0  0  0  0
    2.1281    2.5050   -1.3890 H   0  0  0  0  0  0  0  0  0  0  0  0
   -1.0571    3.3169   -1.1881 H   0  0  0  0  0  0  0  0  0  0  0  0
   -4.8573    1.3564   -1.8702 H   0  0  0  0  0  0  0  0  0  0  0  0
   -3.6654   -0.7959   -2.3513 H   0  0  0  0  0  0  0  0  0  0  0  0
   -1.1696   -0.9110   -2.2386 H   0  0  0  0  0  0  0  0  0  0  0  0
  1 13  1  0  0  0  0
  4  5  1  0  0  0  0
  4 13  1  0  0  0  0
  6  7  1  0  0  0  0
  7 23  1  0  0  0  0
  7  8  2  0  0  0  0
  8 24  1  0  0  0  0
  9 25  1  0  0  0  0
  9  8  1  0  0  0  0
 10  9  2  0  0  0  0
 11 10  1  0  0  0  0
 11  6  2  0  0  0  0
 12  1  1  0  0  0  0
 12 29  1  0  0  0  0
 12  6  1  0  0  0  0
 13  2  1  6  0  0  0
 14  5  1  6  0  0  0
 15 14  1  0  0  0  0
 15 32  1  0  0  0  0
 16 14  1  0  0  0  0
 16 17  1  0  0  0  0
 17 33  1  0  0  0  0
 18 17  2  0  0  0  0
 18  3  1  0  0  0  0
 19 18  1  0  0  0  0
 20 21  1  0  0  0  0
 20 19  2  0  0  0  0
 21 16  2  0  0  0  0
 22  3  1  0  0  0  0
 26 10  1  0  0  0  0
 27 11  1  0  0  0  0
 28 12  1  0  0  0  0
 30 15  1  0  0  0  0
 31 15  1  0  0  0  0
 34 19  1  0  0  0  0
 35 20  1  0  0  0  0
 36 21  1  0  0  0  0
M  END
