1,3
q = -1.0, confidence = 0.012

 40 40  0  0  1  0  0  0  0  0999 V2000
    0.4697   -2.1196   -0.3941 S   0  0  0  0  0  1  0  0  0  0  0  0
    2.8495   -3.5732    0.5720 S   0  0  0  0  0  0  0  0  0  0  0  0
    1.8889    0.2015    0.2928 N   0  0  0  0  0  2  0  0  0  0  0  0
    2.6445   -0.8965    0.6300 N   0  0  0  0  0  2  0  0  0  0  0  0
    8.0553    3.0780    0.6494 C   0  0  0  0  0  0  0  0  0  0  0  0
    8.6959    2.5064   -0.0567 H   0  0  0  0  0  0  0  0  0  0  0  0
    8.1663    4.1521    0.4054 H   0  0  0  0  0  0  0  0  0  0  0  0
    8.4690    2.9065    1.6639 H   0  0  0  0  0  0  0  0  0  0  0  0
    6.6221    2.6265    0.5547 C   0  0  0  0  0  0  0  0  0  0  0  0
    6.2195    1.3849    1.0941 C   0  0  0  0  0  0  0  0  0  0  0  0
    6.9621    0.7661    1.6226 H   0  0  0  0  0  0  0  0  0  0  0  0
    4.9102    0.9162    0.9706 C   0  0  0  0  0  0  0  0  0  0  0  0
    4.6152   -0.0549    1.3829 H   0  0  0  0  0  0  0  0  0  0  0  0
    3.9245    1.6997    0.3144 C   0  0  0  0  0  0  0  0  0  0  0  0
    4.3204    2.9663   -0.1920 C   0  0  0  0  0  0  0  0  0  0  0  0
    3.5689    3.6040   -0.6835 H   0  0  0  0  0  0  0  0  0  0  0  0
    5.6405    3.4108   -0.0865 C   0  0  0  0  0  0  0  0  0  0  0  0
    5.9187    4.3914   -0.5034 H   0  0  0  0  0  0  0  0  0  0  0  0
    2.5232    1.3504    0.1395 C   0  0  0  0  0  3  0  0  0  0  0  0
    1.8707    2.1723   -0.1944 H   0  0  0  0  0  0  0  0  0  0  0  0
    2.0511   -2.0284    0.3279 C   0  0  1  0  0  3  0  0  0  0  0  0
    4.5652   -3.0762    0.9798 C   0  0  0  0  0  0  0  0  0  0  0  0
    4.5092   -2.3396    1.8071 H   0  0  0  0  0  0  0  0  0  0  0  0
    5.0157   -4.0052    1.3882 H   0  0  0  0  0  0  0  0  0  0  0  0
    5.3610   -2.5324   -0.2045 C   0  0  0  0  0  0  0  0  0  0  0  0
    4.8359   -1.6360   -0.5949 H   0  0  0  0  0  0  0  0  0  0  0  0
    5.3650   -3.2805   -1.0255 H   0  0  0  0  0  0  0  0  0  0  0  0
    6.7962   -2.1526    0.1768 C   0  0  0  0  0  0  0  0  0  0  0  0
    6.7761   -1.5389    1.1051 H   0  0  0  0  0  0  0  0  0  0  0  0
    7.3762   -3.0666    0.4372 H   0  0  0  0  0  0  0  0  0  0  0  0
    7.5215   -1.3676   -0.9190 C   0  0  0  0  0  0  0  0  0  0  0  0
    7.5594   -1.9764   -1.8505 H   0  0  0  0  0  0  0  0  0  0  0  0
    6.9175   -0.4671   -1.1709 H   0  0  0  0  0  0  0  0  0  0  0  0
    8.9377   -0.9282   -0.5374 C   0  0  0  0  0  0  0  0  0  0  0  0
    9.5534   -1.8246   -0.3011 H   0  0  0  0  0  0  0  0  0  0  0  0
    8.8917   -0.3419    0.4080 H   0  0  0  0  0  0  0  0  0  0  0  0
    9.6265   -0.0964   -1.6197 C   0  0  0  0  0  0  0  0  0  0  0  0
    9.7240   -0.6664   -2.5672 H   0  0  0  0  0  0  0  0  0  0  0  0
   10.6443    0.2198   -1.3138 H   0  0  0  0  0  0  0  0  0  0  0  0
    9.0438    0.8203   -1.8513 H   0  0  0  0  0  0  0  0  0  0  0  0
  2 22  1  0  0  0  0
  3  4  1  0  0  0  0
  5  8  1  0  0  0  0
  6  5  1  0  0  0  0
  7  5  1  0  0  0  0
  9  5  1  0  0  0  0
  9 10  1  0  0  0  0
 10 11  1  0  0  0  0
 12 10  2  0  0  0  0
 12 13  1  0  0  0  0
 14 12  1  0  0  0  0
 15 17  1  0  0  0  0
 15 14  2  0  0  0  0
 16 15  1  0  0  0  0
 17  9  2  0  0  0  0
 18 17  1  0  0  0  0
 19  3  1  0  0  0  0
 19 14  1  0  0  0  0
 20 19  1  0  0  0  0
 21  1  1  6  0  0  0
 21  2  1  0  0  0  0
 21  4  1  0  0  0  0
 22 24  1  0  0  0  0
 22 23  1  0  0  0  0
 25 28  1  0  0  0  0
 25 22  1  0  0  0  0
 26 25  1  0  0  0  0
 27 25  1  0  0  0  0
 28 30  1  0  0  0  0
 28 29  1  0  0  0  0
 31 34  1  0  0  0  0
 31 28  1  0  0  0  0
 32 31  1  0  0  0  0
 33 31  1  0  0  0  0
 34 35  1  0  0  0  0
 34 36  1  0  0  0  0
 37 39  1  0  0  0  0
 37 34  1  0  0  0  0
 38 37  1  0  0  0  0
 40 37  1  0  0  0  0
M  END
