1,3
q = -1.0, confidence = 0.0

 17 18  0  0  1  0  0  0  0  0999 V2000
   -0.7603    1.5479   -1.2719 S   0  0  0  0  0  1  0  0  0  0  0  0
   -2.0008    1.0241   -0.1613 C   0  0  2  0  0  3  0  0  0  0  0  0
   -1.6083    0.1324    0.8043 N   0  0  0  0  0  2  0  0  0  0  0  0
   -3.2605    1.4799   -0.2881 N   0  0  0  0  0  0  0  0  0  0  0  0
   -5.8137    2.6854   -0.9082 S   0  0  0  0  0  0  0  0  0  0  0  0
   -4.1935    1.0198    0.5708 C   0  0  0  0  0  0  0  0  0  0  0  0
   -3.8737    0.0828    1.5838 C   0  0  0  0  0  0  0  0  0  0  0  0
   -4.6250   -0.3062    2.2828 H   0  0  0  0  0  0  0  0  0  0  0  0
   -2.5383   -0.3251    1.6496 C   0  0  0  0  0  0  0  0  0  0  0  0
   -2.1939   -1.0509    2.4067 H   0  0  0  0  0  0  0  0  0  0  0  0
   -5.5440    1.5434    0.3872 C   0  0  0  0  0  0  0  0  0  0  0  0
   -6.7203    1.2899    1.0876 C   0  0  0  0  0  0  0  0  0  0  0  0
   -6.7747    0.6018    1.9419 H   0  0  0  0  0  0  0  0  0  0  0  0
   -7.8330    2.0158    0.5788 C   0  0  0  0  0  0  0  0  0  0  0  0
   -8.8497    1.9567    0.9907 H   0  0  0  0  0  0  0  0  0  0  0  0
   -7.4882    2.8121   -0.5026 C   0  0  0  0  0  0  0  0  0  0  0  0
   -8.1426    3.4727   -1.0852 H   0  0  0  0  0  0  0  0  0  0  0  0
  2  1  1  6  0  0  0
  2  3  1  0  0  0  0
  3  9  1  0  0  0  0
  4  2  1  0  0  0  0
  4  6  2  0  0  0  0
  5 16  1  0  0  0  0
  5 11  1  0  0  0  0
  6  7  1  0  0  0  0
  7  9  2  0  0  0  0
  7  8  1  0  0  0  0
  9 10  1  0  0  0  0
 11  6  1  0  0  0  0
 11 12  2  0  0  0  0
 12 13  1  0  0  0  0
 14 15  1  0  0  0  0
 14 12  1  0  0  0  0
 16 14  2  0  0  0  0
 17 16  1  0  0  0  0
M  END
