1,4
q = 0.0, confidence = 0.986

 48 51  0  0  1  0  0  0  0  0999 V2000
    0.6558    0.4861   -0.4364 S   0  0  0  0  0  0  0  0  0  0  0  0
   -2.1248   -1.0069   -1.8751 O   0  0  0  0  0  0  0  0  0  0  0  0
   -2.5286   -0.3021   -0.5810 P   0  0  0  0  0  0  0  0  0  0  0  0
    3.0654   -1.2508   -0.6658 N   0  0  0  0  0  2  0  0  0  0  0  0
   -1.4899   -0.7733    0.8681 C   0  0  0  0  0  0  0  0  0  0  0  0
   -0.1039   -0.4703    0.9066 C   0  0  0  0  0  0  0  0  0  0  0  0
    0.6767   -0.8409    2.0134 C   0  0  0  0  0  0  0  0  0  0  0  0
    1.7421   -0.5585    2.0302 H   0  0  0  0  0  0  0  0  0  0  0  0
    0.0961   -1.5481    3.0773 C   0  0  0  0  0  0  0  0  0  0  0  0
    0.7167   -1.8327    3.9400 H   0  0  0  0  0  0  0  0  0  0  0  0
   -1.2632   -1.8856    3.0361 C   0  0  0  0  0  0  0  0  0  0  0  0
   -1.7223   -2.4449    3.8651 H   0  0  0  0  0  0  0  0  0  0  0  0
   -2.0484   -1.4989    1.9391 C   0  0  0  0  0  0  0  0  0  0  0  0
   -3.1184   -1.7532    1.9154 H   0  0  0  0  0  0  0  0  0  0  0  0
    1.9966   -1.7689   -1.3404 C   0  0  2  0  0  3  0  0  0  0  0  0
    1.9538   -3.1265   -1.6899 C   0  0  0  0  0  0  0  0  0  0  0  0
    1.0685   -3.5148   -2.2131 H   0  0  0  0  0  0  0  0  0  0  0  0
    3.0379   -3.9568   -1.3736 C   0  0  0  0  0  0  0  0  0  0  0  0
    3.0185   -5.0236   -1.6417 H   0  0  0  0  0  0  0  0  0  0  0  0
    4.1411   -3.4013   -0.7117 C   0  0  0  0  0  0  0  0  0  0  0  0
    5.0193   -4.0079   -0.4488 H   0  0  0  0  0  0  0  0  0  0  0  0
    4.1170   -2.0464   -0.3664 C   0  0  0  0  0  0  0  0  0  0  0  0
    4.9424   -1.5315    0.1563 H   0  0  0  0  0  0  0  0  0  0  0  0
    0.9012   -0.8236   -1.7185 C   0  0  0  0  0  0  0  0  0  0  0  0
   -0.0836   -1.2925   -1.9278 H   0  0  0  0  0  0  0  0  0  0  0  0
    1.1971   -0.2256   -2.6079 H   0  0  0  0  0  0  0  0  0  0  0  0
   -2.4226    1.5162   -0.6716 C   0  0  0  0  0  0  0  0  0  0  0  0
   -2.4999    2.0933   -1.9535 C   0  0  0  0  0  0  0  0  0  0  0  0
   -2.6193    1.4365   -2.8290 H   0  0  0  0  0  0  0  0  0  0  0  0
   -2.3887    3.4833   -2.0962 C   0  0  0  0  0  0  0  0  0  0  0  0
   -2.4406    3.9372   -3.0974 H   0  0  0  0  0  0  0  0  0  0  0  0
   -2.1913    4.2936   -0.9659 C   0  0  0  0  0  0  0  0  0  0  0  0
   -2.0857    5.3827   -1.0824 H   0  0  0  0  0  0  0  0  0  0  0  0
   -2.1093    3.7165    0.3119 C   0  0  0  0  0  0  0  0  0  0  0  0
   -1.9312    4.3495    1.1938 H   0  0  0  0  0  0  0  0  0  0  0  0
   -2.2274    2.3278    0.4633 C   0  0  0  0  0  0  0  0  0  0  0  0
   -2.1255    1.8745    1.4618 H   0  0  0  0  0  0  0  0  0  0  0  0
   -4.2473   -0.7126   -0.1122 C   0  0  0  0  0  0  0  0  0  0  0  0
   -4.9925    0.0391    0.8179 C   0  0  0  0  0  0  0  0  0  0  0  0
   -4.5496    0.9259    1.2965 H   0  0  0  0  0  0  0  0  0  0  0  0
   -6.3078   -0.3392    1.1232 C   0  0  0  0  0  0  0  0  0  0  0  0
   -6.8920    0.2478    1.8479 H   0  0  0  0  0  0  0  0  0  0  0  0
   -6.8819   -1.4592    0.4976 C   0  0  0  0  0  0  0  0  0  0  0  0
   -7.9158   -1.7508    0.7371 H   0  0  0  0  0  0  0  0  0  0  0  0
   -6.1433   -2.2000   -0.4391 C   0  0  0  0  0  0  0  0  0  0  0  0
   -6.5978   -3.0701   -0.9367 H   0  0  0  0  0  0  0  0  0  0  0  0
   -4.8262   -1.8279   -0.7477 C   0  0  0  0  0  0  0  0  0  0  0  0
   -4.2297   -2.3797   -1.4904 H   0  0  0  0  0  0  0  0  0  0  0  0
  1  6  1  0  0  0  0
  2  3  2  0  0  0  0
  3 38  1  0  0  0  0
  3  5  1  0  0  0  0
  4 22  1  0  0  0  0
  5  6  2  0  0  0  0
  5 13  1  0  0  0  0
  6  7  1  0  0  0  0
  7  8  1  0  0  0  0
  7  9  2  0  0  0  0
  9 10  1  0  0  0  0
 11  9  1  0  0  0  0
 11 12  1  0  0  0  0
 13 11  2  0  0  0  0
 14 13  1  0  0  0  0
 15 24  1  6  0  0  0
 15  4  1  0  0  0  0
 16 18  2  0  0  0  0
 16 15  1  0  0  0  0
 17 16  1  0  0  0  0
 18 20  1  0  0  0  0
 19 18  1  0  0  0  0
 20 21  1  0  0  0  0
 20 22  2  0  0  0  0
 22 23  1  0  0  0  0
 24  1  1  0  0  0  0
 25 24  1  0  0  0  0
 26 24  1  0  0  0  0
 27  3  1  0  0  0  0
 27 36  1  0  0  0  0
 28 27  2  0  0  0  0
 29 28  1  0  0  0  0
 30 28  1  0  0  0  0
 30 32  2  0  0  0  0
 31 30  1  0  0  0  0
 32 34  1  0  0  0  0
 33 32  1  0  0  0  0
 34 36  2  0  0  0  0
 34 35  1  0  0  0  0
 36 37  1  0  0  0  0
 38 39  1  0  0  0  0
 39 41  2  0  0  0  0
 39 40  1  0  0  0  0
 41 42  1  0  0  0  0
 43 44  1  0  0  0  0
 43 41  1  0  0  0  0
 45 43  2  0  0  0  0
 46 45  1  0  0  0  0
 47 45  1  0  0  0  0
 47 38  2  0  0  0  0
 48 47  1  0  0  0  0
M  END
