1,2
q = 0.0, confidence = 1.0

 22 22  0  0  1  0  0  0  0  0999 V2000
   -2.5328    0.8679   -0.8963 S   0  0  0  0  0  1  0  0  0  0  0  0
    1.6759    0.1579   -0.2992 N   0  0  0  0  0  2  0  0  0  0  0  0
   -0.5049   -1.2711   -0.7739 N   0  0  0  0  0  0  0  0  0  0  0  0
   -1.7713   -1.6929   -0.5744 N   0  0  0  0  0  0  0  0  0  0  0  0
   -4.0439   -1.3118   -0.6054 N   0  0  0  0  0  0  0  0  0  0  0  0
    0.2817   -2.9422    0.7155 N   0  0  0  0  0  0  0  0  0  0  0  0
    2.7759    0.9165   -0.4046 C   0  0  0  0  0  3  0  0  0  0  0  0
    4.0548    0.3495   -0.5242 C   0  0  0  0  0  0  0  0  0  0  0  0
    4.1752   -1.0473   -0.5238 C   0  0  0  0  0  0  0  0  0  0  0  0
    3.0198   -1.8368   -0.4144 C   0  0  0  0  0  0  0  0  0  0  0  0
    1.7777   -1.1910   -0.3151 C   0  0  0  0  0  0  0  0  0  0  0  0
    0.4674   -1.8788   -0.1626 C   0  0  0  0  0  0  0  0  0  0  0  0
   -2.7943   -0.7862   -0.6906 C   0  0  1  0  0  3  0  0  0  0  0  0
    2.5807    2.0048   -0.3687 H   0  0  0  0  0  0  0  0  0  0  0  0
    4.9387    0.9980   -0.6060 H   0  0  0  0  0  0  0  0  0  0  0  0
    5.1631   -1.5238   -0.6142 H   0  0  0  0  0  0  0  0  0  0  0  0
   -1.9362   -2.6012   -0.1171 H   0  0  0  0  0  0  0  0  0  0  0  0
    3.0802   -2.9353   -0.4327 H   0  0  0  0  0  0  0  0  0  0  0  0
   -4.2226   -2.3007   -0.7878 H   0  0  0  0  0  0  0  0  0  0  0  0
   -4.8262   -0.6610   -0.6593 H   0  0  0  0  0  0  0  0  0  0  0  0
    1.1534   -3.2333    1.1688 H   0  0  0  0  0  0  0  0  0  0  0  0
   -0.3536   -2.5899    1.4628 H   0  0  0  0  0  0  0  0  0  0  0  0
  3  4  1  0  0  0  0
  3 12  2  0  0  0  0
  4 17  1  0  0  0  0
  6 21  1  0  0  0  0
  6 22  1  0  0  0  0
  7 14  1  0  0  0  0
  7  2  1  0  0  0  0
  8  9  2  0  0  0  0
  8  7  1  0  0  0  0
  9 10  1  0  0  0  0
 10 11  2  0  0  0  0
 11  2  1  0  0  0  0
 11 12  1  0  0  0  0
 12  6  1  0  0  0  0
 13  1  1  1  0  0  0
 13  5  1  0  0  0  0
 13  4  1  0  0  0  0
 15  8  1  0  0  0  0
 16  9  1  0  0  0  0
 18 10  1  0  0  0  0
 19  5  1  0  0  0  0
 20  5  1  0  0  0  0
M  END
