1,3
q = 0.0, confidence = 0.988

 28 29  0  0  0  0  0  0  0  0999 V2000
   -2.0624    1.7468   -0.9275 S   0  0  0  0  0  3  0  0  0  0  0  0
    5.4788    2.1274    0.4296 S   0  0  0  0  0  0  0  0  0  0  0  0
    1.0659    1.8164   -0.1750 N   0  0  0  0  0  2  0  0  0  0  0  0
    2.4043    1.9381    0.0576 N   0  0  0  0  0  0  0  0  0  0  0  0
    0.4928    2.9034   -0.6587 C   0  0  0  0  0  0  0  0  0  0  0  0
   -0.8827    3.0456   -1.0042 C   0  0  0  0  0  0  0  0  0  0  0  0
   -1.4987    4.2295   -1.4312 C   0  0  0  0  0  0  0  0  0  0  0  0
   -2.8861    4.0845   -1.6728 C   0  0  0  0  0  0  0  0  0  0  0  0
   -3.3611    2.7965   -1.4457 C   0  0  0  0  0  0  0  0  0  0  0  0
   -4.7483    2.2623   -1.5814 C   0  0  0  0  0  0  0  0  0  0  0  0
    2.9636    0.9534    0.7040 C   0  0  0  0  0  0  0  0  0  0  0  0
    4.3670    0.8841    0.9629 C   0  0  0  0  0  0  0  0  0  0  0  0
    5.0482   -0.1446    1.6256 C   0  0  0  0  0  0  0  0  0  0  0  0
    6.4439    0.0780    1.6955 C   0  0  0  0  0  0  0  0  0  0  0  0
    6.8428    1.2710    1.0931 C   0  0  0  0  0  0  0  0  0  0  0  0
    8.2240    1.8316    0.9874 C   0  0  0  0  0  0  0  0  0  0  0  0
    1.1448    3.7862   -0.7926 H   0  0  0  0  0  0  0  0  0  0  0  0
   -0.9445    5.1709   -1.5507 H   0  0  0  0  0  0  0  0  0  0  0  0
   -3.5409    4.9006   -2.0080 H   0  0  0  0  0  0  0  0  0  0  0  0
   -4.7954    1.4250   -2.3081 H   0  0  0  0  0  0  0  0  0  0  0  0
   -5.1308    1.8723   -0.6140 H   0  0  0  0  0  0  0  0  0  0  0  0
   -5.4293    3.0612   -1.9299 H   0  0  0  0  0  0  0  0  0  0  0  0
    2.3502    0.0999    1.0792 H   0  0  0  0  0  0  0  0  0  0  0  0
    4.5328   -1.0206    2.0450 H   0  0  0  0  0  0  0  0  0  0  0  0
    7.1573   -0.6047    2.1773 H   0  0  0  0  0  0  0  0  0  0  0  0
    8.3121    2.8022    1.5185 H   0  0  0  0  0  0  0  0  0  0  0  0
    8.9543    1.1306    1.4333 H   0  0  0  0  0  0  0  0  0  0  0  0
    8.5164    2.0106   -0.0679 H   0  0  0  0  0  0  0  0  0  0  0  0
  2 12  1  0  0  0  0
  2 15  1  0  0  0  0
  3  4  1  0  0  0  0
  4 11  2  0  0  0  0
  5  3  1  0  0  0  0
  6  1  1  0  0  0  0
  6  5  2  0  0  0  0
  7  6  1  0  0  0  0
  8  9  1  0  0  0  0
  8  7  2  0  0  0  0
  9  1  2  0  0  0  0
 10  9  1  0  0  0  0
 10 21  1  0  0  0  0
 11 12  1  0  0  0  0
 11 23  1  0  0  0  0
 12 13  2  0  0  0  0
 13 14  1  0  0  0  0
 13 24  1  0  0  0  0
 14 25  1  0  0  0  0
 15 14  2  0  0  0  0
 16 15  1  0  0  0  0
 16 27  1  0  0  0  0
 16 26  1  0  0  0  0
 17  5  1  0  0  0  0
 18  7  1  0  0  0  0
 19  8  1  0  0  0  0
 20 10  1  0  0  0  0
 22 10  1  0  0  0  0
 28 16  1  0  0  0  0
M  END
