1,32
q = -1.0, confidence = 0.0

 33 34  0  0  0  0  0  0  0  0999 V2000
    2.0542   -0.2324    2.2941 S   0  0  0  0  0  1  0  0  0  0  0  0
    2.5639   -1.5854    1.3048 C   0  0  0  0  0  0  0  0  0  0  0  0
    3.9003   -2.0482    1.4046 C   0  0  0  0  0  0  0  0  0  0  0  0
    4.5663   -1.5390    2.1173 H   0  0  0  0  0  0  0  0  0  0  0  0
    4.3757   -3.1078    0.6254 C   0  0  0  0  0  0  0  0  0  0  0  0
    5.4208   -3.4377    0.7341 H   0  0  0  0  0  0  0  0  0  0  0  0
    3.5277   -3.7379   -0.3063 C   0  0  0  0  0  0  0  0  0  0  0  0
    3.9020   -4.5488   -0.9487 H   0  0  0  0  0  0  0  0  0  0  0  0
    2.2025   -3.3057   -0.4238 C   0  0  0  0  0  0  0  0  0  0  0  0
    1.5469   -3.7604   -1.1821 H   0  0  0  0  0  0  0  0  0  0  0  0
    1.6941   -2.2574    0.3800 C   0  0  0  0  0  0  0  0  0  0  0  0
   -0.5899   -2.6043   -0.1537 C   0  0  0  0  0  3  0  0  0  0  0  0
   -0.3990   -3.6990   -0.1579 H   0  0  0  0  0  0  0  0  0  0  0  0
   -1.9016   -2.1717   -0.5594 C   0  0  0  0  0  0  0  0  0  0  0  0
   -2.9856   -3.0861   -0.5823 C   0  0  0  0  0  0  0  0  0  0  0  0
   -2.8044   -4.1414   -0.3228 H   0  0  0  0  0  0  0  0  0  0  0  0
   -4.2789   -2.6743   -0.8845 C   0  0  0  0  0  0  0  0  0  0  0  0
   -5.0892   -3.4136   -0.8636 H   0  0  0  0  0  0  0  0  0  0  0  0
   -4.5557   -1.3077   -1.1996 C   0  0  0  0  0  0  0  0  0  0  0  0
   -3.4510   -0.4048   -1.2572 C   0  0  0  0  0  0  0  0  0  0  0  0
   -3.5999    0.6469   -1.5309 H   0  0  0  0  0  0  0  0  0  0  0  0
   -2.1725   -0.8298   -0.9345 C   0  0  0  0  0  0  0  0  0  0  0  0
   -1.3451   -0.1092   -0.9931 H   0  0  0  0  0  0  0  0  0  0  0  0
   -6.9383   -1.8158   -1.4446 C   0  0  0  0  0  0  0  0  0  0  0  0
   -6.8169   -2.6086   -2.2168 H   0  0  0  0  0  0  0  0  0  0  0  0
   -7.8794   -1.2777   -1.6560 H   0  0  0  0  0  0  0  0  0  0  0  0
   -7.0476   -2.3201   -0.4589 H   0  0  0  0  0  0  0  0  0  0  0  0
   -6.0842    0.5253   -1.7534 C   0  0  0  0  0  0  0  0  0  0  0  0
   -5.6590    1.1924   -0.9733 H   0  0  0  0  0  0  0  0  0  0  0  0
   -7.1741    0.6992   -1.7990 H   0  0  0  0  0  0  0  0  0  0  0  0
   -5.6456    0.8287   -2.7312 H   0  0  0  0  0  0  0  0  0  0  0  0
    0.3731   -1.7950    0.2318 N   0  0  0  0  0  2  0  0  0  0  0  0
   -5.8354   -0.8742   -1.4495 N   0  0  0  0  0  0  0  0  0  0  0  0
  2  3  1  0  0  0  0
  2  1  1  0  0  0  0
  3  4  1  0  0  0  0
  5  6  1  0  0  0  0
  5  3  2  0  0  0  0
  7  5  1  0  0  0  0
  8  7  1  0  0  0  0
  9  7  2  0  0  0  0
  9 11  1  0  0  0  0
 10  9  1  0  0  0  0
 11  2  2  0  0  0  0
 12 32  1  0  0  0  0
 13 12  1  0  0  0  0
 14 12  1  0  0  0  0
 15 14  1  0  0  0  0
 15 16  1  0  0  0  0
 17 18  1  0  0  0  0
 17 15  2  0  0  0  0
 19 17  1  0  0  0  0
 20 19  2  0  0  0  0
 20 22  1  0  0  0  0
 21 20  1  0  0  0  0
 22 14  2  0  0  0  0
 23 22  1  0  0  0  0
 24 27  1  0  0  0  0
 25 24  1  0  0  0  0
 26 24  1  0  0  0  0
 28 33  1  0  0  0  0
 28 29  1  0  0  0  0
 30 28  1  0  0  0  0
 31 28  1  0  0  0  0
 32 11  1  0  0  0  0
 33 24  1  0  0  0  0
 33 19  1  0  0  0  0
M  END
