1,2
q = -1.0, confidence = 0.0

 20 20  0  0  0  0  0  0  0  0999 V2000
    1.4399    1.5602   -2.1608 S   0  0  0  0  0  1  0  0  0  0  0  0
    1.5635   -0.5193    0.0108 N   0  0  0  0  0  2  0  0  0  0  0  0
    2.7327    0.1659   -0.1183 N   0  0  0  0  0  0  0  0  0  0  0  0
    3.8971    1.8140   -1.1856 N   0  0  0  0  0  0  0  0  0  0  0  0
    4.7154    1.4720   -0.6803 H   0  0  0  0  0  0  0  0  0  0  0  0
    4.0255    2.3958   -2.0105 H   0  0  0  0  0  0  0  0  0  0  0  0
    0.2572   -2.2543    1.1977 C   0  0  0  0  0  0  0  0  0  0  0  0
    0.7858   -3.4022    2.0791 C   0  0  0  0  0  0  0  0  0  0  0  0
    1.9071   -2.7425    2.9063 C   0  0  0  0  0  0  0  0  0  0  0  0
    2.5895   -1.7828    1.9114 C   0  0  0  0  0  0  0  0  0  0  0  0
    3.0530   -0.8806    2.3597 H   0  0  0  0  0  0  0  0  0  0  0  0
    3.4072   -2.2803    1.3413 H   0  0  0  0  0  0  0  0  0  0  0  0
    1.4877   -1.4178    0.9491 C   0  0  0  0  0  3  0  0  0  0  0  0
    2.7405    1.0996   -1.0608 C   0  0  0  0  0  0  0  0  0  0  0  0
   -0.2367   -2.5683    0.2545 H   0  0  0  0  0  0  0  0  0  0  0  0
   -0.4965   -1.6480    1.7525 H   0  0  0  0  0  0  0  0  0  0  0  0
    1.2147   -4.1984    1.4333 H   0  0  0  0  0  0  0  0  0  0  0  0
   -0.0011   -3.8721    2.7008 H   0  0  0  0  0  0  0  0  0  0  0  0
    1.4600   -2.1585    3.7395 H   0  0  0  0  0  0  0  0  0  0  0  0
    2.6060   -3.4730    3.3592 H   0  0  0  0  0  0  0  0  0  0  0  0
  1 14  1  0  0  0  0
  2 13  1  0  0  0  0
  3  2  1  0  0  0  0
  4 14  1  0  0  0  0
  4  5  1  0  0  0  0
  6  4  1  0  0  0  0
  7 16  1  0  0  0  0
  7  8  1  0  0  0  0
  8 18  1  0  0  0  0
  8  9  1  0  0  0  0
  9 20  1  0  0  0  0
  9 19  1  0  0  0  0
 10 11  1  0  0  0  0
 10  9  1  0  0  0  0
 12 10  1  0  0  0  0
 13  7  1  0  0  0  0
 13 10  1  0  0  0  0
 14  3  2  0  0  0  0
 15  7  1  0  0  0  0
 17  8  1  0  0  0  0
M  END
