1,2
q = -1.0, confidence = 0.024

 29 29  0  0  1  0  0  0  0  0999 V2000
    1.5565   -2.6604   -0.3233 S   0  0  0  0  0  1  0  0  0  0  0  0
    1.1601    0.0672   -0.9034 N   0  0  0  0  0  2  0  0  0  0  0  0
   -1.4849    0.3158   -2.0818 C   0  0  0  0  0  0  0  0  0  0  0  0
   -1.0507   -0.6951   -2.1329 H   0  0  0  0  0  0  0  0  0  0  0  0
    4.4345   -2.0268   -0.6661 S   0  0  0  0  0  0  0  0  0  0  0  0
    2.5067   -0.1933   -0.9243 N   0  0  0  0  0  2  0  0  0  0  0  0
   -2.8418    0.5126   -2.3619 C   0  0  0  0  0  0  0  0  0  0  0  0
   -3.4794   -0.3540   -2.5918 H   0  0  0  0  0  0  0  0  0  0  0  0
   -3.3865    1.8064   -2.3450 C   0  0  0  0  0  0  0  0  0  0  0  0
   -4.4522    1.9589   -2.5733 H   0  0  0  0  0  0  0  0  0  0  0  0
   -2.5636    2.9056   -2.0416 C   0  0  0  0  0  0  0  0  0  0  0  0
   -2.9854    3.9220   -2.0235 H   0  0  0  0  0  0  0  0  0  0  0  0
   -1.2048    2.7135   -1.7623 C   0  0  0  0  0  0  0  0  0  0  0  0
   -0.5729    3.5790   -1.5125 H   0  0  0  0  0  0  0  0  0  0  0  0
   -0.6449    1.4131   -1.7634 C   0  0  0  0  0  0  0  0  0  0  0  0
    0.7829    1.1896   -1.4986 C   0  0  2  0  0  3  0  0  0  0  0  0
    1.8195    2.1653   -1.9722 C   0  0  0  0  0  0  0  0  0  0  0  0
    2.4859    2.4533   -1.1336 H   0  0  0  0  0  0  0  0  0  0  0  0
    2.4721    1.6884   -2.7322 H   0  0  0  0  0  0  0  0  0  0  0  0
    1.3570    3.0635   -2.4171 H   0  0  0  0  0  0  0  0  0  0  0  0
    2.7743   -1.4517   -0.6631 C   0  0  1  0  0  3  0  0  0  0  0  0
    5.3402   -0.5439   -1.3015 C   0  0  0  0  0  0  0  0  0  0  0  0
    6.3010   -0.9516   -1.6756 H   0  0  0  0  0  0  0  0  0  0  0  0
    4.7407   -0.1702   -2.1561 H   0  0  0  0  0  0  0  0  0  0  0  0
    5.5402    0.5146   -0.2649 C   0  0  0  0  0  0  0  0  0  0  0  0
    4.6137    0.9969    0.0891 H   0  0  0  0  0  0  0  0  0  0  0  0
    6.7349    0.8812    0.2317 C   0  0  0  0  0  0  0  0  0  0  0  0
    7.6734    0.4074   -0.1026 H   0  0  0  0  0  0  0  0  0  0  0  0
    6.8193    1.6743    0.9914 H   0  0  0  0  0  0  0  0  0  0  0  0
  3 15  1  0  0  0  0
  4  3  1  0  0  0  0
  5 21  1  0  0  0  0
  6  2  1  0  0  0  0
  6 21  1  0  0  0  0
  7  9  1  0  0  0  0
  7  3  2  0  0  0  0
  8  7  1  0  0  0  0
  9 11  2  0  0  0  0
 10  9  1  0  0  0  0
 11 12  1  0  0  0  0
 11 13  1  0  0  0  0
 13 14  1  0  0  0  0
 15 13  2  0  0  0  0
 15 16  1  0  0  0  0
 16  2  1  6  0  0  0
 17 16  1  0  0  0  0
 17 18  1  0  0  0  0
 19 17  1  0  0  0  0
 20 17  1  0  0  0  0
 21  1  1  6  0  0  0
 22  5  1  0  0  0  0
 22 25  1  0  0  0  0
 23 22  1  0  0  0  0
 24 22  1  0  0  0  0
 25 26  1  0  0  0  0
 25 27  2  0  0  0  0
 27 29  1  0  0  0  0
 28 27  1  0  0  0  0
M  END
