1,2
q = 0.0, confidence = 0.998

 30 30  0  0  1  0  0  0  0  0999 V2000
    0.6700    1.6760   -0.6285 S   0  0  0  0  0  0  0  0  0  0  0  0
    2.5377   -0.6677   -0.2563 N   0  0  0  0  0  2  0  0  0  0  0  0
    3.2979   -1.5611    0.4300 C   0  0  1  0  0  3  0  0  0  0  0  0
    4.7057   -1.4660    0.4025 C   0  0  0  0  0  0  0  0  0  0  0  0
    5.2988   -2.2101    0.9527 H   0  0  0  0  0  0  0  0  0  0  0  0
    5.3265   -0.4267   -0.2940 C   0  0  0  0  0  0  0  0  0  0  0  0
    6.4234   -0.3421   -0.3150 H   0  0  0  0  0  0  0  0  0  0  0  0
    4.5255    0.5225   -0.9421 C   0  0  0  0  0  0  0  0  0  0  0  0
    4.9673    1.3769   -1.4746 H   0  0  0  0  0  0  0  0  0  0  0  0
    3.1325    0.3677   -0.9019 C   0  0  0  0  0  0  0  0  0  0  0  0
    2.6084   -2.6026    1.2505 C   0  0  0  0  0  0  0  0  0  0  0  0
    2.0253   -2.1118    2.0582 H   0  0  0  0  0  0  0  0  0  0  0  0
    3.3342   -3.3008    1.7058 H   0  0  0  0  0  0  0  0  0  0  0  0
    1.8593   -3.1491    0.6379 H   0  0  0  0  0  0  0  0  0  0  0  0
    2.2256    1.3699   -1.5637 C   0  0  0  0  0  0  0  0  0  0  0  0
    1.8425    0.9706   -2.5273 H   0  0  0  0  0  0  0  0  0  0  0  0
    2.7470    2.3226   -1.7769 H   0  0  0  0  0  0  0  0  0  0  0  0
    1.1789    2.5759    0.9678 C   0  0  0  0  0  0  0  0  0  0  0  0
    1.6877    1.5933    2.0239 C   0  0  0  0  0  0  0  0  0  0  0  0
    1.8717    2.1495    2.9676 H   0  0  0  0  0  0  0  0  0  0  0  0
    2.6379    1.1111    1.7259 H   0  0  0  0  0  0  0  0  0  0  0  0
    0.9278    0.8123    2.2241 H   0  0  0  0  0  0  0  0  0  0  0  0
    2.2215    3.6386    0.6169 C   0  0  0  0  0  0  0  0  0  0  0  0
    2.3927    4.2776    1.5083 H   0  0  0  0  0  0  0  0  0  0  0  0
    1.8796    4.2976   -0.2068 H   0  0  0  0  0  0  0  0  0  0  0  0
    3.1982    3.1919    0.3420 H   0  0  0  0  0  0  0  0  0  0  0  0
   -0.1475    3.2074    1.4142 C   0  0  0  0  0  0  0  0  0  0  0  0
    0.0210    3.7581    2.3631 H   0  0  0  0  0  0  0  0  0  0  0  0
   -0.9077    2.4221    1.6041 H   0  0  0  0  0  0  0  0  0  0  0  0
   -0.5318    3.9231    0.6605 H   0  0  0  0  0  0  0  0  0  0  0  0
  1 18  1  0  0  0  0
  2  3  1  0  0  0  0
  3 11  1  1  0  0  0
  4  3  1  0  0  0  0
  4  5  1  0  0  0  0
  6  4  2  0  0  0  0
  7  6  1  0  0  0  0
  8 10  2  0  0  0  0
  8  6  1  0  0  0  0
  9  8  1  0  0  0  0
 10  2  1  0  0  0  0
 11 13  1  0  0  0  0
 11 12  1  0  0  0  0
 14 11  1  0  0  0  0
 15 10  1  0  0  0  0
 15  1  1  0  0  0  0
 16 15  1  0  0  0  0
 17 15  1  0  0  0  0
 18 27  1  0  0  0  0
 18 19  1  0  0  0  0
 19 22  1  0  0  0  0
 19 20  1  0  0  0  0
 21 19  1  0  0  0  0
 23 18  1  0  0  0  0
 23 24  1  0  0  0  0
 25 23  1  0  0  0  0
 26 23  1  0  0  0  0
 27 29  1  0  0  0  0
 27 28  1  0  0  0  0
 30 27  1  0  0  0  0
M  END
