1,8
q = 0.0, confidence = 0.992

 20 19  0  0  1  0  0  0  0  0999 V2000
   -1.8278    0.6238    0.0959 N   0  0  0  0  0  0  0  0  0  0  0  0
   -3.0081   -0.0854   -0.4093 C   0  0  2  0  0  0  0  0  0  0  0  0
   -4.2774    0.6382    0.0959 C   0  0  0  0  0  0  0  0  0  0  0  0
   -4.2788    1.3066    1.1041 O   0  0  0  0  0  0  0  0  0  0  0  0
   -5.4103    0.4261   -0.6128 O   0  0  0  0  0  0  0  0  0  0  0  0
   -3.0760   -1.5529    0.0644 C   0  0  0  0  0  0  0  0  0  0  0  0
   -2.1258   -2.5239   -0.6329 C   0  0  0  0  0  0  0  0  0  0  0  0
   -0.3266   -2.3754   -0.2782 S   0  0  0  0  0  0  0  0  0  0  0  0
   -0.2724   -3.0208    1.4280 C   0  0  0  0  0  0  0  0  0  0  0  0
   -1.7355    1.5587   -0.3416 H   0  0  0  0  0  0  0  0  0  0  0  0
   -1.9940    0.8419    1.0947 H   0  0  0  0  0  0  0  0  0  0  0  0
   -2.9734   -0.0628   -1.5213 H   0  0  0  0  0  0  0  0  0  0  0  0
   -5.2103   -0.0763   -1.4277 H   0  0  0  0  0  0  0  0  0  0  0  0
   -2.9401   -1.5755    1.1670 H   0  0  0  0  0  0  0  0  0  0  0  0
   -4.1105   -1.9193   -0.1114 H   0  0  0  0  0  0  0  0  0  0  0  0
   -2.4005   -3.5716   -0.3919 H   0  0  0  0  0  0  0  0  0  0  0  0
   -2.1909   -2.4169   -1.7355 H   0  0  0  0  0  0  0  0  0  0  0  0
    0.7816   -2.9013    1.7429 H   0  0  0  0  0  0  0  0  0  0  0  0
   -0.5527   -4.0924    1.4229 H   0  0  0  0  0  0  0  0  0  0  0  0
   -0.9265   -2.4409    2.1060 H   0  0  0  0  0  0  0  0  0  0  0  0
  1 11  1  0  0  0  0
  2 12  1  6  0  0  0
  2  6  1  0  0  0  0
  2  3  1  0  0  0  0
  2  1  1  0  0  0  0
  3  4  2  0  0  0  0
  5  3  1  0  0  0  0
  6 14  1  0  0  0  0
  7 16  1  0  0  0  0
  7  8  1  0  0  0  0
  7  6  1  0  0  0  0
  8  9  1  0  0  0  0
  9 18  1  0  0  0  0
  9 20  1  0  0  0  0
 10  1  1  0  0  0  0
 13  5  1  0  0  0  0
 15  6  1  0  0  0  0
 17  7  1  0  0  0  0
 19  9  1  0  0  0  0
M  END
