1,3
q = -1.0, confidence = 0.0

 32 33  0  0  0  0  0  0  0  0999 V2000
   -0.4198    2.2108    0.0193 S   0  0  0  0  0  1  0  0  0  0  0  0
    3.6383   -3.4819    0.0303 O   0  0  0  0  0  0  0  0  0  0  0  0
    1.6044    0.0879   -0.0707 N   0  0  0  0  0  2  0  0  0  0  0  0
    2.1783    1.3118   -0.0634 N   0  0  0  0  0  0  0  0  0  0  0  0
    1.8634    3.5851   -0.0289 N   0  0  0  0  0  0  0  0  0  0  0  0
    1.2080    4.3655    0.0093 H   0  0  0  0  0  0  0  0  0  0  0  0
    5.7295   -2.5754    0.0508 N   0  0  0  0  0  0  0  0  0  0  0  0
    6.0651   -3.5428    0.0751 H   0  0  0  0  0  0  0  0  0  0  0  0
    1.3359    2.3326   -0.0299 C   0  0  0  0  0  0  0  0  0  0  0  0
    3.2912    3.8553   -0.0488 C   0  0  0  0  0  0  0  0  0  0  0  0
    3.7430    3.3554   -0.9349 H   0  0  0  0  0  0  0  0  0  0  0  0
    3.7685    3.3836    0.8403 H   0  0  0  0  0  0  0  0  0  0  0  0
    3.5630    5.3538   -0.0764 C   0  0  0  0  0  0  0  0  0  0  0  0
    3.1230    5.8271   -0.9781 H   0  0  0  0  0  0  0  0  0  0  0  0
    4.6525    5.5492   -0.0913 H   0  0  0  0  0  0  0  0  0  0  0  0
    3.1439    5.8570    0.8194 H   0  0  0  0  0  0  0  0  0  0  0  0
    2.3752   -0.9820   -0.0493 C   0  0  0  0  0  0  0  0  0  0  0  0
    1.8302   -1.9410   -0.0607 H   0  0  0  0  0  0  0  0  0  0  0  0
    3.8201   -1.0669   -0.0145 C   0  0  0  0  0  0  0  0  0  0  0  0
    4.7204   -0.0094   -0.0122 C   0  0  0  0  0  3  0  0  0  0  0  0
    4.3119    1.0091   -0.0374 H   0  0  0  0  0  0  0  0  0  0  0  0
    6.1391   -0.2070    0.0206 C   0  0  0  0  0  0  0  0  0  0  0  0
    7.0666    0.8659    0.0225 C   0  0  0  0  0  0  0  0  0  0  0  0
    6.6733    1.8941   -0.0022 H   0  0  0  0  0  0  0  0  0  0  0  0
    8.4401    0.6300    0.0545 C   0  0  0  0  0  0  0  0  0  0  0  0
    9.1484    1.4712    0.0555 H   0  0  0  0  0  0  0  0  0  0  0  0
    8.9200   -0.6983    0.0859 C   0  0  0  0  0  0  0  0  0  0  0  0
   10.0035   -0.8893    0.1113 H   0  0  0  0  0  0  0  0  0  0  0  0
    8.0346   -1.7787    0.0851 C   0  0  0  0  0  0  0  0  0  0  0  0
    8.4107   -2.8131    0.1096 H   0  0  0  0  0  0  0  0  0  0  0  0
    6.6426   -1.5445    0.0526 C   0  0  0  0  0  0  0  0  0  0  0  0
    4.3311   -2.4675    0.0225 C   0  0  0  0  0  0  0  0  0  0  0  0
  3  4  1  0  0  0  0
  3 17  1  0  0  0  0
  4  9  2  0  0  0  0
  5  6  1  0  0  0  0
  7 31  1  0  0  0  0
  7  8  1  0  0  0  0
  9  5  1  0  0  0  0
  9  1  1  0  0  0  0
 10  5  1  0  0  0  0
 10 12  1  0  0  0  0
 11 10  1  0  0  0  0
 13 10  1  0  0  0  0
 13 16  1  0  0  0  0
 14 13  1  0  0  0  0
 15 13  1  0  0  0  0
 17 19  2  0  0  0  0
 18 17  1  0  0  0  0
 19 20  1  0  0  0  0
 19 32  1  0  0  0  0
 20 22  1  0  0  0  0
 21 20  1  0  0  0  0
 22 23  2  0  0  0  0
 22 31  1  0  0  0  0
 23 25  1  0  0  0  0
 24 23  1  0  0  0  0
 25 26  1  0  0  0  0
 25 27  2  0  0  0  0
 27 28  1  0  0  0  0
 29 27  1  0  0  0  0
 29 30  1  0  0  0  0
 31 29  2  0  0  0  0
 32  2  2  0  0  0  0
 32  7  1  0  0  0  0
M  END
