1,4
q = -1.0, confidence = 0.0

 16 15  0  0  0  0  0  0  0  0999 V2000
   -1.7201   -1.7243   -1.1964 S   0  0  0  0  0  1  0  0  0  0  0  0
   -4.2102   -0.8768   -0.8456 N   0  0  0  0  0  0  0  0  0  0  0  0
   -2.7364    0.2774    0.4576 N   0  0  0  0  0  0  0  0  0  0  0  0
   -1.4537    0.4687    0.8661 N   0  0  0  0  0  2  0  0  0  0  0  0
   -2.9223   -0.6839   -0.4381 C   0  0  0  0  0  0  0  0  0  0  0  0
   -1.2342    1.4503    1.7059 C   0  0  0  0  0  3  0  0  0  0  0  0
    0.1576    1.6846    2.2041 C   0  0  0  0  0  0  0  0  0  0  0  0
    0.1580    1.8119    3.3072 H   0  0  0  0  0  0  0  0  0  0  0  0
    0.5797    2.6220    1.7782 H   0  0  0  0  0  0  0  0  0  0  0  0
    0.8303    0.8430    1.9486 H   0  0  0  0  0  0  0  0  0  0  0  0
   -2.3557    2.3360    2.1627 C   0  0  0  0  0  0  0  0  0  0  0  0
   -1.9923    3.1525    2.8139 H   0  0  0  0  0  0  0  0  0  0  0  0
   -3.1157    1.7388    2.7097 H   0  0  0  0  0  0  0  0  0  0  0  0
   -2.8930    2.7583    1.2886 H   0  0  0  0  0  0  0  0  0  0  0  0
   -4.4343   -1.7066   -1.3901 H   0  0  0  0  0  0  0  0  0  0  0  0
   -4.9464   -0.3993   -0.3245 H   0  0  0  0  0  0  0  0  0  0  0  0
  1  5  1  0  0  0  0
  2  5  1  0  0  0  0
  2 16  1  0  0  0  0
  3  4  1  0  0  0  0
  4  6  1  0  0  0  0
  5  3  2  0  0  0  0
  6 11  1  0  0  0  0
  6  7  1  0  0  0  0
  7  8  1  0  0  0  0
  9  7  1  0  0  0  0
 10  7  1  0  0  0  0
 11 13  1  0  0  0  0
 11 12  1  0  0  0  0
 14 11  1  0  0  0  0
 15  2  1  0  0  0  0
M  END
