2,4
q = -1.0, confidence = 0.016

 20 20  0  0  0  0  0  0  0  0999 V2000
   -7.8235   -2.1241   -0.0000 Cl  0  0  0  0  0  0  0  0  0  0  0  0
    0.2545    3.1811   -0.0001 S   0  0  0  0  0  1  0  0  0  0  0  0
   -2.2292    2.0151    0.0005 N   0  0  0  0  0  0  0  0  0  0  0  0
   -1.5009    0.8783   -0.0001 N   0  0  0  0  0  2  0  0  0  0  0  0
   -1.5008    3.1244   -0.0003 C   0  0  0  0  0  0  0  0  0  0  0  0
   -2.0891   -0.3017    0.0001 C   0  0  0  0  0  3  0  0  0  0  0  0
   -1.3758   -1.1413    0.0002 H   0  0  0  0  0  0  0  0  0  0  0  0
   -3.5006   -0.6515    0.0000 C   0  0  0  0  0  0  0  0  0  0  0  0
   -3.8056   -2.0396    0.0016 C   0  0  0  0  0  0  0  0  0  0  0  0
   -2.9807   -2.7690    0.0029 H   0  0  0  0  0  0  0  0  0  0  0  0
   -5.1230   -2.4998    0.0016 C   0  0  0  0  0  0  0  0  0  0  0  0
   -5.3487   -3.5752    0.0029 H   0  0  0  0  0  0  0  0  0  0  0  0
   -6.1735   -1.5646   -0.0001 C   0  0  0  0  0  0  0  0  0  0  0  0
   -5.9054   -0.1845   -0.0018 C   0  0  0  0  0  0  0  0  0  0  0  0
   -6.7419    0.5285   -0.0033 H   0  0  0  0  0  0  0  0  0  0  0  0
   -4.5833    0.2681   -0.0017 C   0  0  0  0  0  0  0  0  0  0  0  0
   -4.3518    1.3397   -0.0031 H   0  0  0  0  0  0  0  0  0  0  0  0
   -2.1614    4.3096   -0.0048 N   0  0  0  0  0  0  0  0  0  0  0  0
   -3.1798    4.3143    0.0160 H   0  0  0  0  0  0  0  0  0  0  0  0
   -1.6468    5.1860    0.0186 H   0  0  0  0  0  0  0  0  0  0  0  0
  4  6  1  0  0  0  0
  4  3  1  0  0  0  0
  5  2  1  0  0  0  0
  5  3  2  0  0  0  0
  6  7  1  0  0  0  0
  8  6  1  0  0  0  0
  8  9  1  0  0  0  0
  9 11  2  0  0  0  0
  9 10  1  0  0  0  0
 11 12  1  0  0  0  0
 13  1  1  0  0  0  0
 13 11  1  0  0  0  0
 14 16  1  0  0  0  0
 14 13  2  0  0  0  0
 15 14  1  0  0  0  0
 16  8  2  0  0  0  0
 17 16  1  0  0  0  0
 18  5  1  0  0  0  0
 18 19  1  0  0  0  0
 18 20  1  0  0  0  0
M  END
