1,4
q = -1.0, confidence = 0.002

 37 39  0  0  1  0  0  0  0  0999 V2000
    0.9595    2.2302    0.1032 S   0  0  0  0  0  1  0  0  0  0  0  0
   -3.5967   -4.0664   -0.1082 S   0  0  0  0  0  0  0  0  0  0  0  0
   -1.7479    1.8903   -0.0216 N   0  0  0  0  0  0  0  0  0  0  0  0
   -1.4233    0.5503   -0.0814 N   0  0  0  0  0  2  0  0  0  0  0  0
   -2.4345   -1.5798   -0.0805 N   0  0  0  0  0  0  0  0  0  0  0  0
   -1.4784   -2.0084   -0.2036 H   0  0  0  0  0  0  0  0  0  0  0  0
   -3.7601    0.3300    0.1402 N   0  0  0  0  0  0  0  0  0  0  0  0
   -3.7469    1.3556    0.2298 H   0  0  0  0  0  0  0  0  0  0  0  0
   -0.9314    4.0863    0.1150 N   0  0  0  0  0  0  0  0  0  0  0  0
   -0.0751    4.6071    0.3087 H   0  0  0  0  0  0  0  0  0  0  0  0
   -6.0444    0.2895    0.3390 O   0  0  0  0  0  0  0  0  0  0  0  0
   -0.7481    2.7184    0.0552 C   0  0  0  0  0  0  0  0  0  0  0  0
   -2.5118   -0.2192   -0.0097 C   0  0  1  0  0  3  0  0  0  0  0  0
   -3.5744   -2.3342   -0.0226 C   0  0  0  0  0  0  0  0  0  0  0  0
   -5.3630   -4.0860    0.0368 C   0  0  0  0  0  0  0  0  0  0  0  0
   -5.8886   -2.8103    0.1453 C   0  0  0  0  0  0  0  0  0  0  0  0
   -4.8573   -1.7981    0.1111 C   0  0  0  0  0  0  0  0  0  0  0  0
   -5.0039   -0.3468    0.2077 C   0  0  0  0  0  0  0  0  0  0  0  0
   -7.3450   -2.4747    0.2822 C   0  0  0  0  0  0  0  0  0  0  0  0
   -7.6790   -1.8256   -0.5520 H   0  0  0  0  0  0  0  0  0  0  0  0
   -7.5284   -1.8907    1.2059 H   0  0  0  0  0  0  0  0  0  0  0  0
   -7.9794   -3.3805    0.3017 H   0  0  0  0  0  0  0  0  0  0  0  0
   -6.0518   -5.4143    0.0233 C   0  0  0  0  0  0  0  0  0  0  0  0
   -7.1446   -5.2779    0.1293 H   0  0  0  0  0  0  0  0  0  0  0  0
   -5.7147   -6.0689    0.8549 H   0  0  0  0  0  0  0  0  0  0  0  0
   -5.8748   -5.9677   -0.9233 H   0  0  0  0  0  0  0  0  0  0  0  0
   -2.0881    4.8634   -0.0072 C   0  0  0  0  0  0  0  0  0  0  0  0
   -1.9938    6.2338    0.3384 C   0  0  0  0  0  0  0  0  0  0  0  0
   -1.0329    6.6339    0.7010 H   0  0  0  0  0  0  0  0  0  0  0  0
   -3.1051    7.0753    0.2287 C   0  0  0  0  0  0  0  0  0  0  0  0
   -3.0064    8.1361    0.5057 H   0  0  0  0  0  0  0  0  0  0  0  0
   -4.3372    6.5739   -0.2241 C   0  0  0  0  0  0  0  0  0  0  0  0
   -5.2132    7.2342   -0.3030 H   0  0  0  0  0  0  0  0  0  0  0  0
   -4.4311    5.2187   -0.5753 C   0  0  0  0  0  0  0  0  0  0  0  0
   -5.3855    4.8088   -0.9399 H   0  0  0  0  0  0  0  0  0  0  0  0
   -3.3253    4.3630   -0.4745 C   0  0  0  0  0  0  0  0  0  0  0  0
   -3.3979    3.3105   -0.7692 H   0  0  0  0  0  0  0  0  0  0  0  0
  2 14  1  0  0  0  0
  2 15  1  0  0  0  0
  3 12  2  0  0  0  0
  4  3  1  0  0  0  0
  5 14  1  0  0  0  0
  5 13  1  0  0  0  0
  6  5  1  0  0  0  0
  7 18  1  0  0  0  0
  7  8  1  0  0  0  0
  9 10  1  0  0  0  0
 12  1  1  0  0  0  0
 12  9  1  0  0  0  0
 13  4  1  1  0  0  0
 13  7  1  0  0  0  0
 14 17  2  0  0  0  0
 15 16  2  0  0  0  0
 16 19  1  0  0  0  0
 17 16  1  0  0  0  0
 17 18  1  0  0  0  0
 18 11  2  0  0  0  0
 19 22  1  0  0  0  0
 19 21  1  0  0  0  0
 20 19  1  0  0  0  0
 23 15  1  0  0  0  0
 23 24  1  0  0  0  0
 23 25  1  0  0  0  0
 26 23  1  0  0  0  0
 27  9  1  0  0  0  0
 27 28  1  0  0  0  0
 28 29  1  0  0  0  0
 30 28  2  0  0  0  0
 30 31  1  0  0  0  0
 32 30  1  0  0  0  0
 33 32  1  0  0  0  0
 34 36  1  0  0  0  0
 34 32  2  0  0  0  0
 35 34  1  0  0  0  0
 36 27  2  0  0  0  0
 37 36  1  0  0  0  0
M  END
