2,3
q = 0.0, confidence = 1.0

 57 61  0  0  0  0  0  0  0  0999 V2000
   -1.3790   -0.0676    0.2710 P   0  0  0  0  0  4  0  0  0  0  0  0
    2.6592    0.2968   -1.5646 S   0  0  0  0  0  0  0  0  0  0  0  0
   -0.1916    0.0640   -0.8744 N   0  0  0  0  0  2  0  0  0  0  0  0
    0.0411    1.1647   -1.7045 C   0  0  0  0  0  0  0  0  0  0  0  0
    1.3821    1.4351   -2.1043 C   0  0  0  0  0  0  0  0  0  0  0  0
    1.7139    2.5042   -2.9477 C   0  0  0  0  0  0  0  0  0  0  0  0
    2.7662    2.6549   -3.2327 H   0  0  0  0  0  0  0  0  0  0  0  0
    0.7073    3.3574   -3.4228 C   0  0  0  0  0  0  0  0  0  0  0  0
    0.9579    4.1959   -4.0881 H   0  0  0  0  0  0  0  0  0  0  0  0
   -0.6256    3.0972   -3.0638 C   0  0  0  0  0  0  0  0  0  0  0  0
   -1.4336    3.7330   -3.4570 H   0  0  0  0  0  0  0  0  0  0  0  0
   -0.9592    2.0201   -2.2329 C   0  0  0  0  0  0  0  0  0  0  0  0
   -2.0143    1.8232   -2.0056 H   0  0  0  0  0  0  0  0  0  0  0  0
    3.0815    0.9331    0.0838 C   0  0  0  0  0  0  0  0  0  0  0  0
    2.5953    2.1580    0.5655 C   0  0  0  0  0  0  0  0  0  0  0  0
    1.9525    2.7853   -0.0693 H   0  0  0  0  0  0  0  0  0  0  0  0
    2.9367    2.5637    1.8666 C   0  0  0  0  0  0  0  0  0  0  0  0
    2.5535    3.5212    2.2520 H   0  0  0  0  0  0  0  0  0  0  0  0
    3.7572    1.7586    2.6706 C   0  0  0  0  0  0  0  0  0  0  0  0
    4.0165    2.0800    3.6904 H   0  0  0  0  0  0  0  0  0  0  0  0
    4.2450    0.5394    2.1684 C   0  0  0  0  0  0  0  0  0  0  0  0
    4.8868   -0.0996    2.7940 H   0  0  0  0  0  0  0  0  0  0  0  0
    3.9123    0.1166    0.8745 C   0  0  0  0  0  0  0  0  0  0  0  0
    4.2411   -0.8627    0.4882 H   0  0  0  0  0  0  0  0  0  0  0  0
   -2.1505    1.5719    0.5475 C   0  0  0  0  0  0  0  0  0  0  0  0
   -3.5122    1.8165    0.2905 C   0  0  0  0  0  0  0  0  0  0  0  0
   -4.1549    1.0055   -0.0836 H   0  0  0  0  0  0  0  0  0  0  0  0
   -4.0419    3.0990    0.5062 C   0  0  0  0  0  0  0  0  0  0  0  0
   -5.1074    3.2891    0.3076 H   0  0  0  0  0  0  0  0  0  0  0  0
   -3.2159    4.1339    0.9708 C   0  0  0  0  0  0  0  0  0  0  0  0
   -3.6331    5.1391    1.1339 H   0  0  0  0  0  0  0  0  0  0  0  0
   -1.8571    3.8868    1.2336 C   0  0  0  0  0  0  0  0  0  0  0  0
   -1.2099    4.6965    1.6029 H   0  0  0  0  0  0  0  0  0  0  0  0
   -1.3238    2.6086    1.0296 C   0  0  0  0  0  0  0  0  0  0  0  0
   -0.2621    2.4084    1.2433 H   0  0  0  0  0  0  0  0  0  0  0  0
   -2.7282   -1.1643   -0.2610 C   0  0  0  0  0  0  0  0  0  0  0  0
   -2.9727   -1.2401   -1.6464 C   0  0  0  0  0  0  0  0  0  0  0  0
   -2.2940   -0.7339   -2.3491 H   0  0  0  0  0  0  0  0  0  0  0  0
   -4.0491   -2.0022   -2.1198 C   0  0  0  0  0  0  0  0  0  0  0  0
   -4.2322   -2.0716   -3.2024 H   0  0  0  0  0  0  0  0  0  0  0  0
   -4.8747   -2.6928   -1.2180 C   0  0  0  0  0  0  0  0  0  0  0  0
   -5.7129   -3.2993   -1.5928 H   0  0  0  0  0  0  0  0  0  0  0  0
   -4.6193   -2.6250    0.1615 C   0  0  0  0  0  0  0  0  0  0  0  0
   -5.2523   -3.1825    0.8681 H   0  0  0  0  0  0  0  0  0  0  0  0
   -3.5489   -1.8608    0.6459 C   0  0  0  0  0  0  0  0  0  0  0  0
   -3.3336   -1.8376    1.7234 H   0  0  0  0  0  0  0  0  0  0  0  0
   -0.7630   -0.4492    1.9497 C   0  0  0  0  0  0  0  0  0  0  0  0
   -1.6578   -0.2508    3.0252 C   0  0  0  0  0  0  0  0  0  0  0  0
   -2.6864    0.0949    2.8416 H   0  0  0  0  0  0  0  0  0  0  0  0
   -1.2268   -0.4621    4.3425 C   0  0  0  0  0  0  0  0  0  0  0  0
   -1.9313   -0.3166    5.1751 H   0  0  0  0  0  0  0  0  0  0  0  0
    0.1020   -0.8385    4.5959 C   0  0  0  0  0  0  0  0  0  0  0  0
    0.4407   -0.9964    5.6311 H   0  0  0  0  0  0  0  0  0  0  0  0
    0.9985   -1.0000    3.5287 C   0  0  0  0  0  0  0  0  0  0  0  0
    2.0461   -1.2789    3.7147 H   0  0  0  0  0  0  0  0  0  0  0  0
    0.5701   -0.8127    2.2078 C   0  0  0  0  0  0  0  0  0  0  0  0
    1.2742   -0.9591    1.3717 H   0  0  0  0  0  0  0  0  0  0  0  0
  1 25  1  0  0  0  0
  1 47  1  0  0  0  0
  2 14  1  0  0  0  0
  3  1  1  0  0  0  0
  4  3  1  0  0  0  0
  5  4  1  0  0  0  0
  5  2  1  0  0  0  0
  6  5  2  0  0  0  0
  7  6  1  0  0  0  0
  8 10  2  0  0  0  0
  8  6  1  0  0  0  0
  9  8  1  0  0  0  0
 10 12  1  0  0  0  0
 11 10  1  0  0  0  0
 12 13  1  0  0  0  0
 12  4  2  0  0  0  0
 14 15  2  0  0  0  0
 14 23  1  0  0  0  0
 15 17  1  0  0  0  0
 16 15  1  0  0  0  0
 17 18  1  0  0  0  0
 17 19  2  0  0  0  0
 19 20  1  0  0  0  0
 21 19  1  0  0  0  0
 21 22  1  0  0  0  0
 23 21  2  0  0  0  0
 24 23  1  0  0  0  0
 25 34  1  0  0  0  0
 26 28  1  0  0  0  0
 26 25  2  0  0  0  0
 27 26  1  0  0  0  0
 28 30  2  0  0  0  0
 29 28  1  0  0  0  0
 30 31  1  0  0  0  0
 30 32  1  0  0  0  0
 32 33  1  0  0  0  0
 34 32  2  0  0  0  0
 34 35  1  0  0  0  0
 36  1  1  0  0  0  0
 36 45  1  0  0  0  0
 37 36  2  0  0  0  0
 38 37  1  0  0  0  0
 39 37  1  0  0  0  0
 39 41  2  0  0  0  0
 40 39  1  0  0  0  0
 41 43  1  0  0  0  0
 42 41  1  0  0  0  0
 43 45  2  0  0  0  0
 43 44  1  0  0  0  0
 45 46  1  0  0  0  0
 47 56  2  0  0  0  0
 47 48  1  0  0  0  0
 48 50  2  0  0  0  0
 49 48  1  0  0  0  0
 50 52  1  0  0  0  0
 50 51  1  0  0  0  0
 52 53  1  0  0  0  0
 54 55  1  0  0  0  0
 54 52  2  0  0  0  0
 56 54  1  0  0  0  0
 57 56  1  0  0  0  0
M  END
