1,2
q = -1.0, confidence = 0.0

 24 25  0  0  0  0  0  0  0  0999 V2000
   -1.4944   -2.4459   -0.0965 S   0  0  0  0  0  1  0  0  0  0  0  0
   -0.9207    0.4323   -1.0445 N   0  0  0  0  0  2  0  0  0  0  0  0
   -0.5268    2.7269   -1.5282 N   0  0  0  0  0  0  0  0  0  0  0  0
   -3.0319   -1.6502   -0.2995 C   0  0  0  0  0  0  0  0  0  0  0  0
   -3.2513   -0.3011   -0.7486 C   0  0  0  0  0  0  0  0  0  0  0  0
   -4.5909    0.1799   -0.8637 C   0  0  0  0  0  0  0  0  0  0  0  0
   -5.6860   -0.6096   -0.5425 C   0  0  0  0  0  0  0  0  0  0  0  0
   -5.4673   -1.9386   -0.1102 C   0  0  0  0  0  0  0  0  0  0  0  0
   -4.1751   -2.4444   -0.0014 C   0  0  0  0  0  0  0  0  0  0  0  0
   -2.2190    0.6064   -1.1540 C   0  0  0  0  0  3  0  0  0  0  0  0
   -0.0668    1.4690   -1.5296 C   0  0  0  0  0  0  0  0  0  0  0  0
    0.3030    3.7012   -1.9263 C   0  0  0  0  0  0  0  0  0  0  0  0
    1.6259    3.4706   -2.3368 C   0  0  0  0  0  0  0  0  0  0  0  0
    2.0918    2.1466   -2.3601 C   0  0  0  0  0  0  0  0  0  0  0  0
    1.2314    1.1192   -1.9617 C   0  0  0  0  0  0  0  0  0  0  0  0
   -4.7376    1.2129   -1.2166 H   0  0  0  0  0  0  0  0  0  0  0  0
   -6.7072   -0.2120   -0.6323 H   0  0  0  0  0  0  0  0  0  0  0  0
   -6.3227   -2.5849    0.1398 H   0  0  0  0  0  0  0  0  0  0  0  0
   -4.0121   -3.4806    0.3314 H   0  0  0  0  0  0  0  0  0  0  0  0
   -2.5428    1.5629   -1.6068 H   0  0  0  0  0  0  0  0  0  0  0  0
   -0.1050    4.7271   -1.9069 H   0  0  0  0  0  0  0  0  0  0  0  0
    2.2710    4.3102   -2.6336 H   0  0  0  0  0  0  0  0  0  0  0  0
    3.1161    1.9118   -2.6861 H   0  0  0  0  0  0  0  0  0  0  0  0
    1.5434    0.0627   -1.9726 H   0  0  0  0  0  0  0  0  0  0  0  0
  4  1  1  0  0  0  0
  4  9  1  0  0  0  0
  5  4  2  0  0  0  0
  6  5  1  0  0  0  0
  6  7  2  0  0  0  0
  7  8  1  0  0  0  0
  8  9  2  0  0  0  0
  8 18  1  0  0  0  0
  9 19  1  0  0  0  0
 10  2  1  0  0  0  0
 10  5  1  0  0  0  0
 11  3  1  0  0  0  0
 11  2  1  0  0  0  0
 12 21  1  0  0  0  0
 12  3  2  0  0  0  0
 13 12  1  0  0  0  0
 14 13  2  0  0  0  0
 14 15  1  0  0  0  0
 15 11  2  0  0  0  0
 16  6  1  0  0  0  0
 17  7  1  0  0  0  0
 20 10  1  0  0  0  0
 22 13  1  0  0  0  0
 23 14  1  0  0  0  0
 24 15  1  0  0  0  0
M  END
