1,4
 OpenBabel05122313063D

 43 46  0  0  1  0  0  0  0  0999 V2000
   -0.1474   -1.6193   -0.7058 S   0  0  0  0  0  0  0  0  0  0  0  0
    1.1369   -0.5776    2.7929 O   0  0  0  0  0  0  0  0  0  0  0  0
    0.9119    0.3512    0.6862 N   0  0  0  0  0  0  0  0  0  0  0  0
   -1.5364    0.9615   -1.1210 N   0  0  0  0  0  2  0  0  0  0  0  0
    0.7018    0.0479   -0.7238 C   0  0  2  0  0  0  0  0  0  0  0  0
    1.6619   -0.0510   -1.2754 H   0  0  0  0  0  0  0  0  0  0  0  0
    0.8777   -0.6892    1.6078 C   0  0  0  0  0  0  0  0  0  0  0  0
    0.5689   -2.0339    0.9406 C   0  0  2  0  0  0  0  0  0  0  0  0
   -0.2620   -2.5333    1.4841 H   0  0  0  0  0  0  0  0  0  0  0  0
   -0.2033    1.0542   -1.3904 C   0  0  2  0  0  3  0  0  0  0  0  0
    0.3102    2.0793   -2.1930 C   0  0  0  0  0  0  0  0  0  0  0  0
    1.3901    2.1170   -2.3918 H   0  0  0  0  0  0  0  0  0  0  0  0
   -0.5614    3.0496   -2.7088 C   0  0  0  0  0  0  0  0  0  0  0  0
   -0.1772    3.8658   -3.3380 H   0  0  0  0  0  0  0  0  0  0  0  0
   -1.9242    2.9591   -2.3993 C   0  0  0  0  0  0  0  0  0  0  0  0
   -2.6470    3.6992   -2.7711 H   0  0  0  0  0  0  0  0  0  0  0  0
   -2.3797    1.8981   -1.6080 C   0  0  0  0  0  0  0  0  0  0  0  0
   -3.4352    1.7580   -1.3165 H   0  0  0  0  0  0  0  0  0  0  0  0
    1.2132    1.6892    1.0843 C   0  0  0  0  0  0  0  0  0  0  0  0
    2.3613    2.3301    0.5847 C   0  0  0  0  0  0  0  0  0  0  0  0
    3.0445    1.7803   -0.0800 H   0  0  0  0  0  0  0  0  0  0  0  0
    2.6319    3.6543    0.9588 C   0  0  0  0  0  0  0  0  0  0  0  0
    3.5288    4.1593    0.5693 H   0  0  0  0  0  0  0  0  0  0  0  0
    1.7704    4.3273    1.8402 C   0  0  0  0  0  0  0  0  0  0  0  0
    1.9879    5.3642    2.1373 H   0  0  0  0  0  0  0  0  0  0  0  0
    0.6329    3.6757    2.3449 C   0  0  0  0  0  0  0  0  0  0  0  0
   -0.0435    4.2007    3.0358 H   0  0  0  0  0  0  0  0  0  0  0  0
    0.3444    2.3580    1.9637 C   0  0  0  0  0  0  0  0  0  0  0  0
   -0.5509    1.8381    2.3337 H   0  0  0  0  0  0  0  0  0  0  0  0
    1.8256   -2.9239    0.8558 C   0  0  0  0  0  0  0  0  0  0  0  0
    2.1609   -3.0785    1.9026 H   0  0  0  0  0  0  0  0  0  0  0  0
    1.5364   -3.9134    0.4499 H   0  0  0  0  0  0  0  0  0  0  0  0
    2.9194   -2.2925    0.0250 C   0  0  0  0  0  0  0  0  0  0  0  0
    3.7719   -1.3164    0.5835 C   0  0  0  0  0  0  0  0  0  0  0  0
    3.6924   -1.0793    1.6559 H   0  0  0  0  0  0  0  0  0  0  0  0
    4.7036   -0.6378   -0.2166 C   0  0  0  0  0  0  0  0  0  0  0  0
    5.3639    0.1169    0.2375 H   0  0  0  0  0  0  0  0  0  0  0  0
    4.7981   -0.9240   -1.5892 C   0  0  0  0  0  0  0  0  0  0  0  0
    5.5310   -0.3937   -2.2161 H   0  0  0  0  0  0  0  0  0  0  0  0
    3.9660   -1.9049   -2.1527 C   0  0  0  0  0  0  0  0  0  0  0  0
    4.0443   -2.1470   -3.2235 H   0  0  0  0  0  0  0  0  0  0  0  0
    3.0358   -2.5843   -1.3501 C   0  0  0  0  0  0  0  0  0  0  0  0
    2.3829   -3.3504   -1.7965 H   0  0  0  0  0  0  0  0  0  0  0  0
  1  8  1  0  0  0  0
  3 19  1  0  0  0  0
  3  7  1  0  0  0  0
  5  6  1  6  0  0  0
  5  1  1  0  0  0  0
  5  3  1  0  0  0  0
  7  2  2  0  0  0  0
  8  9  1  1  0  0  0
  8  7  1  0  0  0  0
 10 11  1  1  0  0  0
 10  4  1  0  0  0  0
 10  5  1  0  0  0  0
 12 11  1  0  0  0  0
 13 15  1  0  0  0  0
 13 11  2  0  0  0  0
 14 13  1  0  0  0  0
 15 17  2  0  0  0  0
 16 15  1  0  0  0  0
 17 18  1  0  0  0  0
 17  4  1  0  0  0  0
 19 28  1  0  0  0  0
 20 22  1  0  0  0  0
 20 19  2  0  0  0  0
 21 20  1  0  0  0  0
 22 24  2  0  0  0  0
 23 22  1  0  0  0  0
 24 25  1  0  0  0  0
 24 26  1  0  0  0  0
 26 27  1  0  0  0  0
 28 29  1  0  0  0  0
 28 26  2  0  0  0  0
 30  8  1  0  0  0  0
 30 31  1  0  0  0  0
 32 30  1  0  0  0  0
 33 34  1  0  0  0  0
 33 30  1  0  0  0  0
 34 35  1  0  0  0  0
 36 37  1  0  0  0  0
 36 34  2  0  0  0  0
 38 36  1  0  0  0  0
 39 38  1  0  0  0  0
 40 38  2  0  0  0  0
 40 42  1  0  0  0  0
 41 40  1  0  0  0  0
 42 33  2  0  0  0  0
 43 42  1  0  0  0  0
M  END
