1,17
 OpenBabel05122313063D

 30 31  0  0  0  0  0  0  0  0999 V2000
   -2.3257    0.7314    0.0219 N   0  0  0  0  0  2  0  0  0  0  0  0
   -2.9248    1.8858    0.3147 C   0  0  0  0  0  0  0  0  0  0  0  0
   -2.2461    2.7126    0.5925 H   0  0  0  0  0  0  0  0  0  0  0  0
   -4.3277    2.0696    0.2394 C   0  0  0  0  0  0  0  0  0  0  0  0
   -4.7538    3.0492    0.4980 H   0  0  0  0  0  0  0  0  0  0  0  0
   -5.1251    1.0198   -0.1812 C   0  0  0  0  0  0  0  0  0  0  0  0
   -6.2161    1.1322   -0.2773 H   0  0  0  0  0  0  0  0  0  0  0  0
   -4.5230   -0.2297   -0.5028 C   0  0  0  0  0  0  0  0  0  0  0  0
   -3.0951   -0.3440   -0.3571 C   0  0  0  0  0  0  0  0  0  0  0  0
   -2.4744   -1.6024   -0.6359 C   0  0  0  0  0  0  0  0  0  0  0  0
   -3.2332   -2.6654   -1.1196 C   0  0  0  0  0  0  0  0  0  0  0  0
   -2.7317   -3.6093   -1.3764 H   0  0  0  0  0  0  0  0  0  0  0  0
   -4.6361   -2.5399   -1.2833 C   0  0  0  0  0  0  0  0  0  0  0  0
   -5.2144   -3.3950   -1.6627 H   0  0  0  0  0  0  0  0  0  0  0  0
   -5.2716   -1.3494   -0.9656 C   0  0  0  0  0  3  0  0  0  0  0  0
   -6.3614   -1.2457   -1.0790 H   0  0  0  0  0  0  0  0  0  0  0  0
   -0.7074   -1.7915   -0.3948 S   0  0  0  0  0  0  0  0  0  0  0  0
   -0.6062   -2.6553    1.3193 C   0  0  0  0  0  0  0  0  0  0  0  0
    0.8967   -2.8823    1.5086 C   0  0  0  0  0  0  0  0  0  0  0  0
    1.4587   -1.9299    1.5365 H   0  0  0  0  0  0  0  0  0  0  0  0
    1.3200   -3.5121    0.7010 H   0  0  0  0  0  0  0  0  0  0  0  0
    1.0567   -3.4080    2.4725 H   0  0  0  0  0  0  0  0  0  0  0  0
   -1.3544   -3.9859    1.2429 C   0  0  0  0  0  0  0  0  0  0  0  0
   -1.1948   -4.5339    2.1950 H   0  0  0  0  0  0  0  0  0  0  0  0
   -0.9760   -4.6240    0.4196 H   0  0  0  0  0  0  0  0  0  0  0  0
   -2.4462   -3.8472    1.1212 H   0  0  0  0  0  0  0  0  0  0  0  0
   -1.1880   -1.7364    2.3903 C   0  0  0  0  0  0  0  0  0  0  0  0
   -1.0966   -2.2283    3.3817 H   0  0  0  0  0  0  0  0  0  0  0  0
   -2.2629   -1.5307    2.2143 H   0  0  0  0  0  0  0  0  0  0  0  0
   -0.6470   -0.7694    2.4224 H   0  0  0  0  0  0  0  0  0  0  0  0
  1  2  1  0  0  0  0
  2  3  1  0  0  0  0
  4  2  2  0  0  0  0
  4  5  1  0  0  0  0
  6  4  1  0  0  0  0
  7  6  1  0  0  0  0
  8  9  1  0  0  0  0
  8  6  2  0  0  0  0
  9  1  1  0  0  0  0
 10 17  1  0  0  0  0
 10  9  2  0  0  0  0
 11 10  1  0  0  0  0
 12 11  1  0  0  0  0
 13 11  2  0  0  0  0
 13 15  1  0  0  0  0
 14 13  1  0  0  0  0
 15  8  1  0  0  0  0
 16 15  1  0  0  0  0
 17 18  1  0  0  0  0
 18 19  1  0  0  0  0
 18 27  1  0  0  0  0
 19 20  1  0  0  0  0
 19 22  1  0  0  0  0
 21 19  1  0  0  0  0
 23 18  1  0  0  0  0
 23 24  1  0  0  0  0
 25 23  1  0  0  0  0
 26 23  1  0  0  0  0
 27 30  1  0  0  0  0
 27 28  1  0  0  0  0
 29 27  1  0  0  0  0
M  END
