2,6
 OpenBabel05122313063D

 20 20  0  0  1  0  0  0  0  0999 V2000
   -4.2735   -1.0484   -0.1419 O   0  0  0  0  0  0  0  0  0  0  0  0
    0.1668   -2.1931   -0.8373 S   0  0  0  0  0  1  0  0  0  0  0  0
   -2.3795   -2.9104   -0.5969 N   0  0  0  0  0  0  0  0  0  0  0  0
   -1.9608   -0.6165   -0.4030 N   0  0  0  0  0  0  0  0  0  0  0  0
   -1.4741   -1.9135   -0.5910 C   0  0  2  0  0  3  0  0  0  0  0  0
   -1.0971    0.4629   -0.4248 N   0  0  0  0  0  2  0  0  0  0  0  0
   -3.2537   -0.1634   -0.1936 C   0  0  1  0  0  3  0  0  0  0  0  0
   -3.2286    1.2165   -0.0933 C   0  0  0  0  0  0  0  0  0  0  0  0
   -4.3860    2.1358    0.1325 C   0  0  0  0  0  0  0  0  0  0  0  0
   -5.3524    1.5894    0.1575 H   0  0  0  0  0  0  0  0  0  0  0  0
   -4.4705    2.8950   -0.6720 H   0  0  0  0  0  0  0  0  0  0  0  0
   -4.2971    2.6798    1.0954 H   0  0  0  0  0  0  0  0  0  0  0  0
   -1.8457    1.5578   -0.2440 C   0  0  0  0  0  0  0  0  0  0  0  0
   -1.2552    2.9227   -0.1848 C   0  0  0  0  0  0  0  0  0  0  0  0
   -0.8169    3.1130    0.8166 H   0  0  0  0  0  0  0  0  0  0  0  0
   -2.0268    3.6918   -0.3758 H   0  0  0  0  0  0  0  0  0  0  0  0
   -0.4414    3.0352   -0.9250 H   0  0  0  0  0  0  0  0  0  0  0  0
   -3.3733   -2.7370   -0.4334 H   0  0  0  0  0  0  0  0  0  0  0  0
   -2.0244   -3.8631   -0.6677 H   0  0  0  0  0  0  0  0  0  0  0  0
   -5.0966   -0.5641    0.0625 H   0  0  0  0  0  0  0  0  0  0  0  0
  1 20  1  0  0  0  0
  3  5  1  0  0  0  0
  3 18  1  0  0  0  0
  4  7  1  0  0  0  0
  5  2  1  6  0  0  0
  5  4  1  0  0  0  0
  6  4  1  0  0  0  0
  6 13  1  0  0  0  0
  7  1  1  6  0  0  0
  7  8  1  0  0  0  0
  8  9  1  0  0  0  0
  9 10  1  0  0  0  0
  9 12  1  0  0  0  0
 11  9  1  0  0  0  0
 13 14  1  0  0  0  0
 13  8  2  0  0  0  0
 14 15  1  0  0  0  0
 16 14  1  0  0  0  0
 17 14  1  0  0  0  0
 19  3  1  0  0  0  0
M  END
