1,3
 OpenBabel05122313063D

 31 32  0  0  1  0  0  0  0  0999 V2000
   -1.9246   -0.5170    0.6325 S   0  0  0  0  0  1  0  0  0  0  0  0
   -4.6809   -0.1936   -0.5285 S   0  0  0  0  0  0  0  0  0  0  0  0
   -1.1978    1.5494   -1.2786 N   0  0  0  0  0  2  0  0  0  0  0  0
   -2.2259    2.8248   -2.8325 C   0  0  0  0  0  0  0  0  0  0  0  0
   -2.3902    3.5663   -3.6218 H   0  0  0  0  0  0  0  0  0  0  0  0
   -4.6482    1.9565   -2.6170 C   0  0  0  0  0  0  0  0  0  0  0  0
   -4.8503    2.7064   -3.4037 H   0  0  0  0  0  0  0  0  0  0  0  0
   -5.2948    2.1889   -1.7468 H   0  0  0  0  0  0  0  0  0  0  0  0
   -4.9554    0.9635   -3.0032 H   0  0  0  0  0  0  0  0  0  0  0  0
   -2.5378    1.2270   -1.3163 N   0  0  0  0  0  0  0  0  0  0  0  0
   -0.9971    2.5091   -2.1866 C   0  0  1  0  0  3  0  0  0  0  0  0
    0.3626    3.0836   -2.3927 C   0  0  0  0  0  0  0  0  0  0  0  0
    1.1060    2.5112   -1.8054 H   0  0  0  0  0  0  0  0  0  0  0  0
    0.3982    4.1457   -2.0735 H   0  0  0  0  0  0  0  0  0  0  0  0
    0.6488    3.0534   -3.4629 H   0  0  0  0  0  0  0  0  0  0  0  0
   -2.9876    0.2262   -0.4391 C   0  0  2  0  0  3  0  0  0  0  0  0
   -4.8352   -1.5223    0.7428 C   0  0  0  0  0  0  0  0  0  0  0  0
   -4.1244   -2.3253    0.4642 H   0  0  0  0  0  0  0  0  0  0  0  0
   -4.5160   -1.0900    1.7116 H   0  0  0  0  0  0  0  0  0  0  0  0
   -6.2697   -1.9766    0.7433 C   0  0  0  0  0  0  0  0  0  0  0  0
   -3.1982    2.0092   -2.2781 C   0  0  0  0  0  0  0  0  0  0  0  0
   -7.2142   -1.3544    1.5848 C   0  0  0  0  0  0  0  0  0  0  0  0
   -6.8935   -0.5441    2.2585 H   0  0  0  0  0  0  0  0  0  0  0  0
   -6.6893   -3.0116   -0.1169 C   0  0  0  0  0  0  0  0  0  0  0  0
   -5.9570   -3.5011   -0.7783 H   0  0  0  0  0  0  0  0  0  0  0  0
   -8.5533   -1.7689    1.5748 C   0  0  0  0  0  0  0  0  0  0  0  0
   -9.2816   -1.2838    2.2416 H   0  0  0  0  0  0  0  0  0  0  0  0
   -8.0287   -3.4253   -0.1263 C   0  0  0  0  0  0  0  0  0  0  0  0
   -8.3453   -4.2400   -0.7944 H   0  0  0  0  0  0  0  0  0  0  0  0
   -8.9623   -2.8043    0.7191 C   0  0  0  0  0  0  0  0  0  0  0  0
  -10.0127   -3.1315    0.7136 H   0  0  0  0  0  0  0  0  0  0  0  0
  2 16  1  0  0  0  0
  2 17  1  0  0  0  0
  4 21  2  0  0  0  0
  4 11  1  0  0  0  0
  5  4  1  0  0  0  0
  6 21  1  0  0  0  0
  6  8  1  0  0  0  0
  7  6  1  0  0  0  0
  9  6  1  0  0  0  0
 10  3  1  0  0  0  0
 10 16  1  0  0  0  0
 11 12  1  1  0  0  0
 11  3  1  0  0  0  0
 12 14  1  0  0  0  0
 12 13  1  0  0  0  0
 15 12  1  0  0  0  0
 16  1  1  6  0  0  0
 17 20  1  0  0  0  0
 17 19  1  0  0  0  0
 18 17  1  0  0  0  0
 20 22  1  0  0  0  0
 21 10  1  0  0  0  0
 22 23  1  0  0  0  0
 24 20  2  0  0  0  0
 25 24  1  0  0  0  0
 26 22  2  0  0  0  0
 26 27  1  0  0  0  0
 28 24  1  0  0  0  0
 28 30  2  0  0  0  0
 29 28  1  0  0  0  0
 30 26  1  0  0  0  0
 31 30  1  0  0  0  0
M  END
