1,17
 OpenBabel05122313063D

 21 22  0  0  0  0  0  0  0  0999 V2000
   -2.7780   -0.9810   -0.1612 N   0  0  0  0  0  2  0  0  0  0  0  0
   -3.6142   -1.7900    0.4882 C   0  0  0  0  0  0  0  0  0  0  0  0
   -3.1602   -2.7220    0.8707 H   0  0  0  0  0  0  0  0  0  0  0  0
   -4.9751   -1.4650    0.7099 C   0  0  0  0  0  0  0  0  0  0  0  0
   -5.6152   -2.1773    1.2493 H   0  0  0  0  0  0  0  0  0  0  0  0
   -5.4623   -0.2474    0.2645 C   0  0  0  0  0  0  0  0  0  0  0  0
   -6.5075    0.0487    0.4441 H   0  0  0  0  0  0  0  0  0  0  0  0
   -4.5956    0.6451   -0.4271 C   0  0  0  0  0  0  0  0  0  0  0  0
   -3.2403    0.2199   -0.6489 C   0  0  0  0  0  0  0  0  0  0  0  0
   -2.3580    1.0863   -1.3617 C   0  0  0  0  0  0  0  0  0  0  0  0
   -2.7681    2.3523   -1.7574 C   0  0  0  0  0  0  0  0  0  0  0  0
   -2.0445    3.0273   -2.2361 H   0  0  0  0  0  0  0  0  0  0  0  0
   -4.1012    2.7754   -1.5172 C   0  0  0  0  0  0  0  0  0  0  0  0
   -4.4126    3.7806   -1.8368 H   0  0  0  0  0  0  0  0  0  0  0  0
   -5.0011    1.9338   -0.8812 C   0  0  0  0  0  3  0  0  0  0  0  0
   -6.0376    2.2554   -0.6979 H   0  0  0  0  0  0  0  0  0  0  0  0
   -0.6768    0.5429   -1.6834 S   0  0  0  0  0  0  0  0  0  0  0  0
   -0.8493   -0.3015   -3.3027 C   0  0  0  0  0  0  0  0  0  0  0  0
   -1.7229   -0.9781   -3.2906 H   0  0  0  0  0  0  0  0  0  0  0  0
    0.0852   -0.8926   -3.3996 H   0  0  0  0  0  0  0  0  0  0  0  0
   -0.9362    0.4593   -4.1014 H   0  0  0  0  0  0  0  0  0  0  0  0
  1  2  1  0  0  0  0
  2  4  2  0  0  0  0
  2  3  1  0  0  0  0
  4  5  1  0  0  0  0
  6  7  1  0  0  0  0
  6  4  1  0  0  0  0
  8  6  2  0  0  0  0
  9  8  1  0  0  0  0
  9  1  1  0  0  0  0
 10  9  2  0  0  0  0
 11 13  2  0  0  0  0
 11 10  1  0  0  0  0
 12 11  1  0  0  0  0
 13 15  1  0  0  0  0
 14 13  1  0  0  0  0
 15 16  1  0  0  0  0
 15  8  1  0  0  0  0
 17 10  1  0  0  0  0
 18 19  1  0  0  0  0
 18 17  1  0  0  0  0
 20 18  1  0  0  0  0
 21 18  1  0  0  0  0
M  END
