1,2
 OpenBabel05122313063D

 17 17  0  0  0  0  0  0  0  0999 V2000
   -0.0988   -1.8622   -0.2057 S   0  0  0  0  0  0  0  0  0  0  0  0
   -2.4081   -0.1726    0.0769 N   0  0  0  0  0  2  0  0  0  0  0  0
   -3.1788    0.4833    0.2309 H   0  0  0  0  0  0  0  0  0  0  0  0
   -2.7796   -1.4943    0.0626 C   0  0  0  0  0  0  0  0  0  0  0  0
   -4.1242   -1.9434    0.1553 C   0  0  0  0  0  0  0  0  0  0  0  0
   -4.9339   -1.2032    0.2479 H   0  0  0  0  0  0  0  0  0  0  0  0
   -4.4137   -3.3090    0.1234 C   0  0  0  0  0  0  0  0  0  0  0  0
   -5.4619   -3.6351    0.1969 H   0  0  0  0  0  0  0  0  0  0  0  0
   -3.3931   -4.2727   -0.0105 C   0  0  0  0  0  0  0  0  0  0  0  0
   -3.6382   -5.3433   -0.0435 H   0  0  0  0  0  0  0  0  0  0  0  0
   -2.0591   -3.8548   -0.1123 C   0  0  0  0  0  0  0  0  0  0  0  0
   -1.2493   -4.5905   -0.2330 H   0  0  0  0  0  0  0  0  0  0  0  0
   -1.7690   -2.4854   -0.0558 C   0  0  0  0  0  0  0  0  0  0  0  0
    0.6314   -2.3072    1.4171 C   0  0  0  0  0  0  0  0  0  0  0  0
    1.6469   -1.8681    1.4404 H   0  0  0  0  0  0  0  0  0  0  0  0
    0.6950   -3.4107    1.4553 H   0  0  0  0  0  0  0  0  0  0  0  0
    0.0041   -1.9155    2.2370 H   0  0  0  0  0  0  0  0  0  0  0  0
  1 13  1  0  0  0  0
  1 14  1  0  0  0  0
  2  3  1  0  0  0  0
  4  2  1  0  0  0  0
  4  5  1  0  0  0  0
  5  6  1  0  0  0  0
  7  5  2  0  0  0  0
  7  8  1  0  0  0  0
  9  7  1  0  0  0  0
 10  9  1  0  0  0  0
 11 13  1  0  0  0  0
 11  9  2  0  0  0  0
 12 11  1  0  0  0  0
 13  4  2  0  0  0  0
 14 15  1  0  0  0  0
 14 16  1  0  0  0  0
 14 17  1  0  0  0  0
M  END
