1,4
 OpenBabel05122313063D

 22 21  0  0  1  0  0  0  0  0999 V2000
    0.6875   -1.6196   -1.0780 S   0  0  0  0  0  1  0  0  0  0  0  0
    3.8433    1.0393    1.5759 O   0  0  0  0  0  0  0  0  0  0  0  0
    4.5511    1.2272   -0.5712 O   0  0  0  0  0  0  0  0  0  0  0  0
    1.2675    0.6190    0.7786 N   0  0  0  0  0  0  0  0  0  0  0  0
    0.9752    1.6053    0.7216 H   0  0  0  0  0  0  0  0  0  0  0  0
    1.6649    0.4626    1.7207 H   0  0  0  0  0  0  0  0  0  0  0  0
    2.4374   -1.1106   -0.5930 C   0  0  0  0  0  0  0  0  0  0  0  0
    2.3440    0.3916   -0.2162 C   0  0  2  0  0  0  0  0  0  0  0  0
    2.0898    0.9567   -1.1344 H   0  0  0  0  0  0  0  0  0  0  0  0
    3.6469    0.9257    0.3764 C   0  0  0  0  0  0  0  0  0  0  0  0
    5.8276    1.6834   -0.0915 C   0  0  0  0  0  0  0  0  0  0  0  0
    6.4335    1.8894   -0.9908 H   0  0  0  0  0  0  0  0  0  0  0  0
    6.3098    0.9063    0.5342 H   0  0  0  0  0  0  0  0  0  0  0  0
    5.7086    2.6010    0.5178 H   0  0  0  0  0  0  0  0  0  0  0  0
    2.8843   -1.9802    0.5878 C   0  0  0  0  0  0  0  0  0  0  0  0
    2.2081   -1.8731    1.4593 H   0  0  0  0  0  0  0  0  0  0  0  0
    3.9174   -1.7292    0.9101 H   0  0  0  0  0  0  0  0  0  0  0  0
    2.8667   -3.0470    0.2916 H   0  0  0  0  0  0  0  0  0  0  0  0
    3.3230   -1.3315   -1.8215 C   0  0  0  0  0  0  0  0  0  0  0  0
    2.9996   -0.6952   -2.6688 H   0  0  0  0  0  0  0  0  0  0  0  0
    3.2557   -2.3897   -2.1428 H   0  0  0  0  0  0  0  0  0  0  0  0
    4.3847   -1.1028   -1.5992 H   0  0  0  0  0  0  0  0  0  0  0  0
  1  7  1  0  0  0  0
  3 11  1  0  0  0  0
  3 10  1  0  0  0  0
  4  6  1  0  0  0  0
  5  4  1  0  0  0  0
  7  8  1  0  0  0  0
  7 15  1  0  0  0  0
  8  9  1  6  0  0  0
  8 10  1  0  0  0  0
  8  4  1  0  0  0  0
 10  2  2  0  0  0  0
 11 14  1  0  0  0  0
 11 13  1  0  0  0  0
 12 11  1  0  0  0  0
 15 17  1  0  0  0  0
 15 16  1  0  0  0  0
 18 15  1  0  0  0  0
 19 22  1  0  0  0  0
 19  7  1  0  0  0  0
 20 19  1  0  0  0  0
 21 19  1  0  0  0  0
M  END
