1,5
 OpenBabel05122313063D

 22 22  0  0  1  0  0  0  0  0999 V2000
    0.1903    2.4744   -0.4416 S   0  0  0  0  0  1  0  0  0  0  0  0
    6.0990    0.0704    0.6634 S   0  0  0  0  0  0  0  0  0  0  0  0
    1.8450    2.5666    0.2407 C   0  0  0  0  0  0  0  0  0  0  0  0
    3.2390    0.7163    0.2880 N   0  0  0  0  0  2  0  0  0  0  0  0
    2.0868    1.2132    0.6159 N   0  0  0  0  0  2  0  0  0  0  0  0
    2.6674    3.5240    0.3837 N   0  0  0  0  0  0  0  0  0  0  0  0
    3.5496   -0.3645   -0.3709 C   0  0  2  0  0  3  0  0  0  0  0  0
    4.9315   -0.8101   -0.2991 C   0  0  0  0  0  0  0  0  0  0  0  0
    5.5199   -1.9230   -0.8994 C   0  0  0  0  0  0  0  0  0  0  0  0
    4.9639   -2.6240   -1.5359 H   0  0  0  0  0  0  0  0  0  0  0  0
    7.3523   -1.0465    0.2486 C   0  0  0  0  0  0  0  0  0  0  0  0
    8.3649   -0.8983    0.6440 H   0  0  0  0  0  0  0  0  0  0  0  0
    6.9018   -2.0552   -0.5863 C   0  0  0  0  0  0  0  0  0  0  0  0
    7.5447   -2.8631   -0.9613 H   0  0  0  0  0  0  0  0  0  0  0  0
    2.2631    4.8525    0.0014 C   0  0  0  0  0  0  0  0  0  0  0  0
    2.7202    5.1228   -0.9765 H   0  0  0  0  0  0  0  0  0  0  0  0
    2.6380    5.5895    0.7419 H   0  0  0  0  0  0  0  0  0  0  0  0
    1.1567    4.9745   -0.1063 H   0  0  0  0  0  0  0  0  0  0  0  0
    2.5861   -1.1136   -1.2548 C   0  0  0  0  0  0  0  0  0  0  0  0
    1.6757   -0.5084   -1.4412 H   0  0  0  0  0  0  0  0  0  0  0  0
    2.2684   -2.0616   -0.7771 H   0  0  0  0  0  0  0  0  0  0  0  0
    3.0656   -1.3316   -2.2293 H   0  0  0  0  0  0  0  0  0  0  0  0
  1  3  1  0  0  0  0
  3  6  2  0  0  0  0
  3  5  1  0  0  0  0
  4  5  1  0  0  0  0
  7  8  1  0  0  0  0
  7  4  1  6  0  0  0
  8  2  1  0  0  0  0
  9 13  1  0  0  0  0
  9  8  2  0  0  0  0
 10  9  1  0  0  0  0
 11 12  1  0  0  0  0
 11  2  1  0  0  0  0
 13 11  2  0  0  0  0
 14 13  1  0  0  0  0
 15  6  1  0  0  0  0
 15 17  1  0  0  0  0
 16 15  1  0  0  0  0
 18 15  1  0  0  0  0
 19 21  1  0  0  0  0
 19  7  1  0  0  0  0
 20 19  1  0  0  0  0
 22 19  1  0  0  0  0
M  END
