2,3
 OpenBabel05122313063D

 26 26  0  0  1  0  0  0  0  0999 V2000
    5.0909    0.3327   -0.2076 S   0  0  0  0  0  0  0  0  0  0  0  0
    0.4459   -2.0650    0.4968 S   0  0  0  0  0  1  0  0  0  0  0  0
    1.8814    0.2294   -0.2900 N   0  0  0  0  0  2  0  0  0  0  0  0
    2.6872   -0.5385    0.4900 N   0  0  0  0  0  2  0  0  0  0  0  0
    2.7912   -2.4961    1.7159 N   0  0  0  0  0  0  0  0  0  0  0  0
    2.3254   -3.3715    1.9571 H   0  0  0  0  0  0  0  0  0  0  0  0
    6.4236    1.1439   -0.9596 C   0  0  0  0  0  0  0  0  0  0  0  0
    7.4504    0.9042   -0.6538 H   0  0  0  0  0  0  0  0  0  0  0  0
    6.0174    2.0554   -1.9213 C   0  0  0  0  0  0  0  0  0  0  0  0
    6.7089    2.6706   -2.5134 H   0  0  0  0  0  0  0  0  0  0  0  0
    4.6068    2.0995   -2.0536 C   0  0  0  0  0  0  0  0  0  0  0  0
    4.0846    2.7573   -2.7597 H   0  0  0  0  0  0  0  0  0  0  0  0
    3.9317    1.2222   -1.1908 C   0  0  0  0  0  0  0  0  0  0  0  0
    2.4938    1.0791   -1.1117 C   0  0  1  0  0  3  0  0  0  0  0  0
    2.0931   -1.6395    0.9274 C   0  0  2  0  0  3  0  0  0  0  0  0
    4.2031   -2.3420    2.0265 C   0  0  0  0  0  0  0  0  0  0  0  0
    4.3875   -1.2670    2.2317 H   0  0  0  0  0  0  0  0  0  0  0  0
    4.8264   -2.5890    1.1352 H   0  0  0  0  0  0  0  0  0  0  0  0
    4.5978   -3.2055    3.2176 C   0  0  0  0  0  0  0  0  0  0  0  0
    4.0213   -2.9279    4.1231 H   0  0  0  0  0  0  0  0  0  0  0  0
    5.6748   -3.0833    3.4440 H   0  0  0  0  0  0  0  0  0  0  0  0
    4.4230   -4.2833    3.0147 H   0  0  0  0  0  0  0  0  0  0  0  0
    1.6596    1.8953   -2.0589 C   0  0  0  0  0  0  0  0  0  0  0  0
    1.9282    1.6562   -3.1086 H   0  0  0  0  0  0  0  0  0  0  0  0
    1.8203    2.9830   -1.9121 H   0  0  0  0  0  0  0  0  0  0  0  0
    0.5859    1.6795   -1.9088 H   0  0  0  0  0  0  0  0  0  0  0  0
  3  4  1  0  0  0  0
  4 15  1  0  0  0  0
  5  6  1  0  0  0  0
  5 16  1  0  0  0  0
  7  8  1  0  0  0  0
  7  1  1  0  0  0  0
  9  7  2  0  0  0  0
 10  9  1  0  0  0  0
 11  9  1  0  0  0  0
 11 13  2  0  0  0  0
 12 11  1  0  0  0  0
 13 14  1  0  0  0  0
 13  1  1  0  0  0  0
 14  3  1  6  0  0  0
 15  2  1  6  0  0  0
 15  5  1  0  0  0  0
 16 17  1  0  0  0  0
 16 19  1  0  0  0  0
 18 16  1  0  0  0  0
 19 21  1  0  0  0  0
 19 20  1  0  0  0  0
 22 19  1  0  0  0  0
 23 25  1  0  0  0  0
 23 26  1  0  0  0  0
 23 14  1  0  0  0  0
 24 23  1  0  0  0  0
M  END
