1,4
 OpenBabel05122313063D

 25 25  0  0  1  0  0  0  0  0999 V2000
   -0.6122    2.0257   -0.6455 S   0  0  0  0  0  1  0  0  0  0  0  0
    7.5447   -1.4552   -0.1635 O   0  0  0  0  0  0  0  0  0  0  0  0
    8.4240    1.0079    0.0783 O   0  0  0  0  0  0  0  0  0  0  0  0
    1.7783    0.7508    0.0997 N   0  0  0  0  0  2  0  0  0  0  0  0
    1.9344    2.0992    0.2564 N   0  0  0  0  0  2  0  0  0  0  0  0
    0.9096    4.1460   -0.0303 N   0  0  0  0  0  0  0  0  0  0  0  0
    0.8563    2.7845   -0.0688 C   0  0  1  0  0  3  0  0  0  0  0  0
    2.8713    0.0126    0.0120 C   0  0  0  0  0  3  0  0  0  0  0  0
    2.6649   -1.0612   -0.1127 H   0  0  0  0  0  0  0  0  0  0  0  0
    4.2769    0.3753    0.0424 C   0  0  0  0  0  0  0  0  0  0  0  0
    5.1901   -0.7169   -0.0740 C   0  0  0  0  0  0  0  0  0  0  0  0
    4.7884   -1.7354   -0.1703 H   0  0  0  0  0  0  0  0  0  0  0  0
    6.5646   -0.4991   -0.0614 C   0  0  0  0  0  0  0  0  0  0  0  0
    7.0843    0.8203    0.0684 C   0  0  0  0  0  0  0  0  0  0  0  0
    6.1931    1.8962    0.1839 C   0  0  0  0  0  0  0  0  0  0  0  0
    6.6111    2.9085    0.2839 H   0  0  0  0  0  0  0  0  0  0  0  0
    4.8099    1.6835    0.1721 C   0  0  0  0  0  0  0  0  0  0  0  0
    4.1060    2.5174    0.2654 H   0  0  0  0  0  0  0  0  0  0  0  0
    7.1494   -2.8079   -0.2942 C   0  0  0  0  0  0  0  0  0  0  0  0
    6.5450   -2.9693   -1.2147 H   0  0  0  0  0  0  0  0  0  0  0  0
    8.0771   -3.4056   -0.3599 H   0  0  0  0  0  0  0  0  0  0  0  0
    6.5579   -3.1470    0.5854 H   0  0  0  0  0  0  0  0  0  0  0  0
    0.0391    4.6715   -0.0605 H   0  0  0  0  0  0  0  0  0  0  0  0
    1.7272    4.5810    0.3966 H   0  0  0  0  0  0  0  0  0  0  0  0
    8.8185    0.1134   -0.0151 H   0  0  0  0  0  0  0  0  0  0  0  0
  2 13  1  0  0  0  0
  4  5  1  0  0  0  0
  6 24  1  0  0  0  0
  7  1  1  6  0  0  0
  7  6  1  0  0  0  0
  7  5  1  0  0  0  0
  8 10  1  0  0  0  0
  8  4  1  0  0  0  0
  9  8  1  0  0  0  0
 10 17  1  0  0  0  0
 11 13  1  0  0  0  0
 11 10  2  0  0  0  0
 12 11  1  0  0  0  0
 13 14  2  0  0  0  0
 14  3  1  0  0  0  0
 14 15  1  0  0  0  0
 15 16  1  0  0  0  0
 17 15  2  0  0  0  0
 17 18  1  0  0  0  0
 19  2  1  0  0  0  0
 19 22  1  0  0  0  0
 20 19  1  0  0  0  0
 21 19  1  0  0  0  0
 23  6  1  0  0  0  0
 25  3  1  0  0  0  0
M  END
