1,2
 OpenBabel05122313063D

 23 23  0  0  0  0  0  0  0  0999 V2000
   -1.5783    1.2608   -1.2525 S   0  0  0  0  0  1  0  0  0  0  0  0
   -1.1344   -1.8096   -0.2798 N   0  0  0  0  0  0  0  0  0  0  0  0
   -3.0830    0.7396   -0.4939 C   0  0  0  0  0  0  0  0  0  0  0  0
   -4.0165    1.6736    0.0105 C   0  0  0  0  0  0  0  0  0  0  0  0
   -5.2119    1.2397    0.5974 C   0  0  0  0  0  0  0  0  0  0  0  0
   -5.4977   -0.1330    0.7009 C   0  0  0  0  0  0  0  0  0  0  0  0
   -4.5821   -1.0665    0.1935 C   0  0  0  0  0  0  0  0  0  0  0  0
   -3.3841   -0.6484   -0.4133 C   0  0  0  0  0  0  0  0  0  0  0  0
   -2.4254   -1.6162   -1.0326 C   0  0  0  0  0  0  0  0  0  0  0  0
   -1.4408   -2.4010    1.0445 C   0  0  0  0  0  0  0  0  0  0  0  0
   -0.2912   -2.7415   -1.0689 C   0  0  0  0  0  0  0  0  0  0  0  0
   -3.7855    2.7469   -0.0638 H   0  0  0  0  0  0  0  0  0  0  0  0
   -5.9265    1.9815    0.9867 H   0  0  0  0  0  0  0  0  0  0  0  0
   -6.4321   -0.4735    1.1711 H   0  0  0  0  0  0  0  0  0  0  0  0
   -4.8036   -2.1445    0.2554 H   0  0  0  0  0  0  0  0  0  0  0  0
   -2.8991   -2.6192   -1.1302 H   0  0  0  0  0  0  0  0  0  0  0  0
   -2.1389   -1.2479   -2.0392 H   0  0  0  0  0  0  0  0  0  0  0  0
   -2.0086   -3.3506    0.9135 H   0  0  0  0  0  0  0  0  0  0  0  0
   -2.0562   -1.6924    1.6281 H   0  0  0  0  0  0  0  0  0  0  0  0
   -0.4993   -2.6139    1.5820 H   0  0  0  0  0  0  0  0  0  0  0  0
    0.6527   -2.9186   -0.5213 H   0  0  0  0  0  0  0  0  0  0  0  0
   -0.8336   -3.7015   -1.2286 H   0  0  0  0  0  0  0  0  0  0  0  0
   -0.0651   -2.2820   -2.0491 H   0  0  0  0  0  0  0  0  0  0  0  0
  1  3  1  0  0  0  0
  2 10  1  0  0  0  0
  3  8  2  0  0  0  0
  3  4  1  0  0  0  0
  4  5  2  0  0  0  0
  5  6  1  0  0  0  0
  5 13  1  0  0  0  0
  6 14  1  0  0  0  0
  7 15  1  0  0  0  0
  7  6  2  0  0  0  0
  8  7  1  0  0  0  0
  9  8  1  0  0  0  0
  9  2  1  0  0  0  0
 10 20  1  0  0  0  0
 10 19  1  0  0  0  0
 11 21  1  0  0  0  0
 11  2  1  0  0  0  0
 12  4  1  0  0  0  0
 16  9  1  0  0  0  0
 17  9  1  0  0  0  0
 18 10  1  0  0  0  0
 22 11  1  0  0  0  0
 23 11  1  0  0  0  0
M  END
