1,4
 OpenBabel05122313063D

 10 10  0  0  0  0  0  0  0  0999 V2000
    0.2668    0.9542    1.9342 S   0  0  0  0  0  1  0  0  0  0  0  0
    1.8394   -3.0391   -0.9522 S   0  0  0  0  0  0  0  0  0  0  0  0
    4.3556   -2.1804    3.6206 S   0  0  0  0  0  0  0  0  0  0  0  0
    1.0156   -1.2129    0.8506 N   0  0  0  0  0  2  0  0  0  0  0  0
    2.8670   -2.4588    1.4450 N   0  0  0  0  0  0  0  0  0  0  0  0
    2.2260   -0.6958    2.8759 N   0  0  0  0  0  0  0  0  0  0  0  0
    1.2971   -0.4730    1.9741 C   0  0  0  0  0  0  0  0  0  0  0  0
    1.8916   -2.1994    0.5072 C   0  0  0  0  0  0  0  0  0  0  0  0
    3.0743   -1.7446    2.6431 C   0  0  0  0  0  0  0  0  0  0  0  0
    3.5547   -3.1853    1.2271 H   0  0  0  0  0  0  0  0  0  0  0  0
  1  7  1  0  0  0  0
  2  8  2  0  0  0  0
  4  7  1  0  0  0  0
  5  9  1  0  0  0  0
  7  6  2  0  0  0  0
  8  4  1  0  0  0  0
  8  5  1  0  0  0  0
  9  6  1  0  0  0  0
  9  3  2  0  0  0  0
 10  5  1  0  0  0  0
M  END
