1,2
 OpenBabel05122313063D

 18 17  0  0  0  0  0  0  0  0999 V2000
    1.9087    1.0754   -0.0415 S   0  0  0  0  0  1  0  0  0  0  0  0
    1.0855   -1.6901   -0.0212 N   0  0  0  0  0  0  0  0  0  0  0  0
    2.5265   -1.5729    0.0418 N   0  0  0  0  0  0  0  0  0  0  0  0
    4.3083   -0.1328    0.1539 N   0  0  0  0  0  0  0  0  0  0  0  0
    4.8613   -0.9881    0.0754 H   0  0  0  0  0  0  0  0  0  0  0  0
    0.7142   -2.5426    1.1388 C   0  0  0  0  0  0  0  0  0  0  0  0
   -0.3617   -2.7951    1.0989 H   0  0  0  0  0  0  0  0  0  0  0  0
    0.9238   -1.9805    2.0665 H   0  0  0  0  0  0  0  0  0  0  0  0
    1.3364   -3.4619    1.1214 H   0  0  0  0  0  0  0  0  0  0  0  0
    0.7923   -2.3934   -1.2990 C   0  0  0  0  0  0  0  0  0  0  0  0
    1.0770   -1.7271   -2.1333 H   0  0  0  0  0  0  0  0  0  0  0  0
   -0.2882   -2.6201   -1.3636 H   0  0  0  0  0  0  0  0  0  0  0  0
    1.3993   -3.3222   -1.3479 H   0  0  0  0  0  0  0  0  0  0  0  0
    2.9574   -0.3385    0.0555 C   0  0  0  0  0  0  0  0  0  0  0  0
    4.9635    1.1357   -0.0589 C   0  0  0  0  0  0  0  0  0  0  0  0
    5.0319    1.4308   -1.1326 H   0  0  0  0  0  0  0  0  0  0  0  0
    5.9888    1.0929    0.3578 H   0  0  0  0  0  0  0  0  0  0  0  0
    4.4090    1.9362    0.4711 H   0  0  0  0  0  0  0  0  0  0  0  0
  1 14  1  0  0  0  0
  2  3  1  0  0  0  0
  2  6  1  0  0  0  0
  3 14  2  0  0  0  0
  5  4  1  0  0  0  0
  6  8  1  0  0  0  0
  7  6  1  0  0  0  0
  9  6  1  0  0  0  0
 10  2  1  0  0  0  0
 11 10  1  0  0  0  0
 12 10  1  0  0  0  0
 13 10  1  0  0  0  0
 14  4  1  0  0  0  0
 15  4  1  0  0  0  0
 15 17  1  0  0  0  0
 15 18  1  0  0  0  0
 16 15  1  0  0  0  0
M  END
