1,4
 OpenBabel05122313063D

 12 11  0  0  0  0  0  0  0  0999 V2000
   -1.7022    1.3777   -0.0232 S   0  0  0  0  0  1  0  0  0  0  0  0
   -2.9401    0.1067   -0.0253 C   0  0  0  0  0  0  0  0  0  0  0  0
   -2.6886   -1.1779   -0.0096 N   0  0  0  0  0  0  0  0  0  0  0  0
   -1.2721   -1.4353   -0.0466 N   0  0  0  0  0  0  0  0  0  0  0  0
   -1.0671   -2.0848    0.7316 H   0  0  0  0  0  0  0  0  0  0  0  0
   -1.0835   -1.9926   -0.8985 H   0  0  0  0  0  0  0  0  0  0  0  0
   -4.2379    0.5314   -0.0617 N   0  0  0  0  0  0  0  0  0  0  0  0
   -4.3884    1.5216    0.1232 H   0  0  0  0  0  0  0  0  0  0  0  0
   -5.3475   -0.3884    0.0592 C   0  0  0  0  0  0  0  0  0  0  0  0
   -5.2235   -1.2198   -0.6630 H   0  0  0  0  0  0  0  0  0  0  0  0
   -6.2921    0.1437   -0.1635 H   0  0  0  0  0  0  0  0  0  0  0  0
   -5.4210   -0.8460    1.0727 H   0  0  0  0  0  0  0  0  0  0  0  0
  2  1  1  0  0  0  0
  2  3  2  0  0  0  0
  4  3  1  0  0  0  0
  4  5  1  0  0  0  0
  6  4  1  0  0  0  0
  7  2  1  0  0  0  0
  7  9  1  0  0  0  0
  7  8  1  0  0  0  0
  9 12  1  0  0  0  0
 10  9  1  0  0  0  0
 11  9  1  0  0  0  0
M  END
