1,2
 OpenBabel05122313063D

 28 28  0  0  1  0  0  0  0  0999 V2000
   -2.0437    1.8049   -0.2994 S   0  0  0  0  0  0  0  0  0  0  0  0
    0.4009    0.2565   -0.2835 N   0  0  0  0  0  2  0  0  0  0  0  0
    1.5196   -0.4507   -0.1013 N   0  0  0  0  0  0  0  0  0  0  0  0
    1.3575   -1.4751    0.0101 H   0  0  0  0  0  0  0  0  0  0  0  0
    0.7399    1.5616   -0.3478 C   0  0  1  0  0  3  0  0  0  0  0  0
    2.1429    1.6691   -0.2021 C   0  0  0  0  0  0  0  0  0  0  0  0
    2.7457    2.5824   -0.2163 H   0  0  0  0  0  0  0  0  0  0  0  0
    2.6160    0.3517   -0.0428 C   0  0  0  0  0  0  0  0  0  0  0  0
    4.0221   -0.1832    0.1461 C   0  0  0  0  0  0  0  0  0  0  0  0
    3.9927   -1.7093    0.3516 C   0  0  0  0  0  0  0  0  0  0  0  0
    5.0229   -2.0887    0.4982 H   0  0  0  0  0  0  0  0  0  0  0  0
    3.5684   -2.2348   -0.5281 H   0  0  0  0  0  0  0  0  0  0  0  0
    3.4018   -1.9927    1.2463 H   0  0  0  0  0  0  0  0  0  0  0  0
    4.8548    0.1533   -1.1116 C   0  0  0  0  0  0  0  0  0  0  0  0
    5.8929   -0.2189   -0.9940 H   0  0  0  0  0  0  0  0  0  0  0  0
    4.9010    1.2473   -1.2832 H   0  0  0  0  0  0  0  0  0  0  0  0
    4.4191   -0.3162   -2.0160 H   0  0  0  0  0  0  0  0  0  0  0  0
    4.6511    0.4937    1.3836 C   0  0  0  0  0  0  0  0  0  0  0  0
    5.6875    0.1286    1.5327 H   0  0  0  0  0  0  0  0  0  0  0  0
    4.0698    0.2700    2.3003 H   0  0  0  0  0  0  0  0  0  0  0  0
    4.6928    1.5949    1.2651 H   0  0  0  0  0  0  0  0  0  0  0  0
   -0.3578    2.5496   -0.5971 C   0  0  0  0  0  0  0  0  0  0  0  0
   -0.3814    2.8679   -1.6605 H   0  0  0  0  0  0  0  0  0  0  0  0
   -0.2670    3.4639    0.0223 H   0  0  0  0  0  0  0  0  0  0  0  0
   -2.3009    2.1777    1.4702 C   0  0  0  0  0  0  0  0  0  0  0  0
   -2.5267    3.2542    1.5974 H   0  0  0  0  0  0  0  0  0  0  0  0
   -1.4213    1.8694    2.0650 H   0  0  0  0  0  0  0  0  0  0  0  0
   -3.1723    1.5551    1.7515 H   0  0  0  0  0  0  0  0  0  0  0  0
  1 25  1  0  0  0  0
  2  3  1  0  0  0  0
  3  8  1  0  0  0  0
  3  4  1  0  0  0  0
  5 22  1  6  0  0  0
  5  2  1  0  0  0  0
  5  6  1  0  0  0  0
  6  8  2  0  0  0  0
  7  6  1  0  0  0  0
  8  9  1  0  0  0  0
  9 10  1  0  0  0  0
  9 18  1  0  0  0  0
 10 11  1  0  0  0  0
 10 13  1  0  0  0  0
 12 10  1  0  0  0  0
 14 15  1  0  0  0  0
 14  9  1  0  0  0  0
 16 14  1  0  0  0  0
 17 14  1  0  0  0  0
 18 19  1  0  0  0  0
 18 20  1  0  0  0  0
 21 18  1  0  0  0  0
 22  1  1  0  0  0  0
 22 24  1  0  0  0  0
 23 22  1  0  0  0  0
 25 26  1  0  0  0  0
 25 28  1  0  0  0  0
 25 27  1  0  0  0  0
M  END
