1,5
 OpenBabel05122313063D

 14 14  0  0  1  0  0  0  0  0999 V2000
   -1.0379   -2.9994   -0.3305 S   0  0  0  0  0  1  0  0  0  0  0  0
    5.6872   -2.1007    0.0330 O   0  0  0  0  0  0  0  0  0  0  0  0
    4.7895   -0.0221    0.1138 O   0  0  0  0  0  0  0  0  0  0  0  0
    5.7479    0.1753    0.1675 H   0  0  0  0  0  0  0  0  0  0  0  0
    0.9511   -1.4162   -0.1156 N   0  0  0  0  0  2  0  0  0  0  0  0
    0.6720   -2.7599   -0.2209 C   0  0  2  0  0  3  0  0  0  0  0  0
    1.7299   -3.7019   -0.2367 C   0  0  0  0  0  0  0  0  0  0  0  0
    1.4948   -4.7721   -0.3235 H   0  0  0  0  0  0  0  0  0  0  0  0
    3.0389   -3.2398   -0.1483 C   0  0  0  0  0  0  0  0  0  0  0  0
    3.8975   -3.9281   -0.1546 H   0  0  0  0  0  0  0  0  0  0  0  0
    3.3015   -1.8484   -0.0565 C   0  0  0  0  0  0  0  0  0  0  0  0
    2.2075   -0.9626   -0.0526 C   0  0  0  0  0  0  0  0  0  0  0  0
    2.3430    0.1287    0.0033 H   0  0  0  0  0  0  0  0  0  0  0  0
    4.7000   -1.3762    0.0306 C   0  0  0  0  0  0  0  0  0  0  0  0
  3  4  1  0  0  0  0
  5 12  1  0  0  0  0
  6  1  1  6  0  0  0
  6  5  1  0  0  0  0
  7  6  1  0  0  0  0
  7  9  2  0  0  0  0
  8  7  1  0  0  0  0
  9 11  1  0  0  0  0
 10  9  1  0  0  0  0
 11 12  2  0  0  0  0
 11 14  1  0  0  0  0
 12 13  1  0  0  0  0
 14  2  2  0  0  0  0
 14  3  1  0  0  0  0
M  END
