1,4
 OpenBabel05122313063D

 13 13  0  0  1  0  0  0  0  0999 V2000
   -0.3499   -0.1033   -2.5997 S   0  0  0  0  0  1  0  0  0  0  0  0
    2.1988    5.4234    0.3725 O   0  5  0  0  0  0  0  0  0  0  0  0
    1.2131    4.2884    2.1025 O   0  0  0  0  0  0  0  0  0  0  0  0
   -0.1279    1.3468   -0.4923 N   0  0  0  0  0  2  0  0  0  0  0  0
    0.2272    1.3638   -1.8137 C   0  0  1  0  0  3  0  0  0  0  0  0
    0.9893    2.4267   -2.3339 C   0  0  0  0  0  0  0  0  0  0  0  0
    1.2651    2.4163   -3.3994 H   0  0  0  0  0  0  0  0  0  0  0  0
    1.3866    3.4484   -1.4617 C   0  0  0  0  0  0  0  0  0  0  0  0
    1.9920    4.3148   -1.7767 H   0  0  0  0  0  0  0  0  0  0  0  0
    1.0377    3.4093   -0.0970 C   0  0  0  0  0  0  0  0  0  0  0  0
    0.2614    2.3340    0.3490 C   0  0  0  0  0  0  0  0  0  0  0  0
   -0.0529    2.2852    1.4043 H   0  0  0  0  0  0  0  0  0  0  0  0
    1.5338    4.4980    0.9054 C   0  0  0  0  0  0  0  0  0  0  0  0
  2 13  1  0  0  0  0
  4 11  1  0  0  0  0
  5  1  1  1  0  0  0
  5  4  1  0  0  0  0
  6  5  1  0  0  0  0
  6  8  2  0  0  0  0
  7  6  1  0  0  0  0
  8 10  1  0  0  0  0
  9  8  1  0  0  0  0
 10 11  2  0  0  0  0
 10 13  1  0  0  0  0
 11 12  1  0  0  0  0
 13  3  2  0  0  0  0
M  CHG  1   2  -1
M  END
