1,5
 OpenBabel05122313063D

 21 20  0  0  1  0  0  0  0  0999 V2000
    0.5845   -1.6375   -1.5932 S   0  0  0  0  0  1  0  0  0  0  0  0
    3.1634   -3.0369   -1.2970 S   0  0  0  0  0  0  0  0  0  0  0  0
    0.0794    2.2037    1.3821 O   0  0  0  0  0  0  0  0  0  0  0  0
    1.8417    2.9332    2.6097 O   0  0  0  0  0  0  0  0  0  0  0  0
    1.7248    0.1105    0.4519 N   0  0  0  0  0  2  0  0  0  0  0  0
    2.5848   -0.8497    0.0820 N   0  0  0  0  0  2  0  0  0  0  0  0
    1.2553    2.0996    1.7068 C   0  0  0  0  0  0  0  0  0  0  0  0
    0.9783    3.9381    3.1464 C   0  0  0  0  0  0  0  0  0  0  0  0
    2.2152    1.0885    1.2062 C   0  0  1  0  0  3  0  0  0  0  0  0
    3.6669    1.1109    1.5670 C   0  0  0  0  0  0  0  0  0  0  0  0
    2.1144   -1.7092   -0.8245 C   0  0  1  0  0  3  0  0  0  0  0  0
    4.6422   -2.7503   -0.2740 C   0  0  0  0  0  0  0  0  0  0  0  0
    1.5992    4.5419    3.8319 H   0  0  0  0  0  0  0  0  0  0  0  0
    0.1307    3.4789    3.6945 H   0  0  0  0  0  0  0  0  0  0  0  0
    0.5593    4.5727    2.3389 H   0  0  0  0  0  0  0  0  0  0  0  0
    4.2877    1.0737    0.6481 H   0  0  0  0  0  0  0  0  0  0  0  0
    3.9317    0.1984    2.1426 H   0  0  0  0  0  0  0  0  0  0  0  0
    3.9138    2.0079    2.1577 H   0  0  0  0  0  0  0  0  0  0  0  0
    5.3443   -3.5687   -0.5241 H   0  0  0  0  0  0  0  0  0  0  0  0
    4.3836   -2.7832    0.8006 H   0  0  0  0  0  0  0  0  0  0  0  0
    5.0964   -1.7706   -0.5125 H   0  0  0  0  0  0  0  0  0  0  0  0
  2 11  1  0  0  0  0
  2 12  1  0  0  0  0
  3  7  2  0  0  0  0
  4  8  1  0  0  0  0
  6  5  1  0  0  0  0
  7  4  1  0  0  0  0
  8 14  1  0  0  0  0
  8 13  1  0  0  0  0
  9  5  1  1  0  0  0
  9 10  1  0  0  0  0
  9  7  1  0  0  0  0
 10 17  1  0  0  0  0
 10 18  1  0  0  0  0
 11  1  1  6  0  0  0
 11  6  1  0  0  0  0
 12 20  1  0  0  0  0
 15  8  1  0  0  0  0
 16 10  1  0  0  0  0
 19 12  1  0  0  0  0
 21 12  1  0  0  0  0
M  END
