2,4
 OpenBabel05122313063D

 24 25  0  0  0  0  0  0  0  0999 V2000
   -6.7384   -0.4416   -0.3292 Cl  0  0  0  0  0  0  0  0  0  0  0  0
   -1.0721   -2.6146    0.0641 N   0  0  0  0  0  2  0  0  0  0  0  0
   -3.8405   -0.3171    0.0768 N   0  0  0  0  0  2  0  0  0  0  0  0
   -1.1587    0.3329    0.0930 S   0  0  0  0  0  1  0  0  0  0  0  0
   -0.8326   -3.9436    0.0490 C   0  0  0  0  0  0  0  0  0  0  0  0
    0.2346   -4.2237    0.0396 H   0  0  0  0  0  0  0  0  0  0  0  0
   -1.8668   -4.8840    0.0424 C   0  0  0  0  0  0  0  0  0  0  0  0
   -1.6220   -5.9556    0.0307 H   0  0  0  0  0  0  0  0  0  0  0  0
   -3.1963   -4.4306    0.0484 C   0  0  0  0  0  0  0  0  0  0  0  0
   -4.0339   -5.1447    0.0407 H   0  0  0  0  0  0  0  0  0  0  0  0
   -3.4401   -3.0561    0.0623 C   0  0  0  0  0  0  0  0  0  0  0  0
   -4.4465   -2.6127    0.0619 H   0  0  0  0  0  0  0  0  0  0  0  0
   -2.3544   -2.1599    0.0715 C   0  0  0  0  0  0  0  0  0  0  0  0
   -2.5949   -0.6903    0.0853 C   0  0  0  0  0  0  0  0  0  0  0  0
   -4.3961    0.9392    0.0879 C   0  0  0  0  0  0  0  0  0  0  0  0
   -3.7133    2.1751    0.2799 C   0  0  0  0  0  0  0  0  0  0  0  0
   -2.6259    2.1584    0.4346 H   0  0  0  0  0  0  0  0  0  0  0  0
   -4.3940    3.3970    0.2893 C   0  0  0  0  0  0  0  0  0  0  0  0
   -3.8276    4.3278    0.4453 H   0  0  0  0  0  0  0  0  0  0  0  0
   -5.7844    3.4379    0.1004 C   0  0  0  0  0  0  0  0  0  0  0  0
   -6.3227    4.3976    0.1017 H   0  0  0  0  0  0  0  0  0  0  0  0
   -6.4956    2.2430   -0.0903 C   0  0  0  0  0  0  0  0  0  0  0  0
   -7.5846    2.2473   -0.2380 H   0  0  0  0  0  0  0  0  0  0  0  0
   -5.8160    1.0195   -0.0918 C   0  0  0  0  0  0  0  0  0  0  0  0
  1 24  1  0  0  0  0
  2 13  1  0  0  0  0
  3 14  1  0  0  0  0
  3 15  1  0  0  0  0
  5  2  1  0  0  0  0
  6  5  1  0  0  0  0
  7  9  1  0  0  0  0
  7  5  2  0  0  0  0
  8  7  1  0  0  0  0
  9 11  2  0  0  0  0
 10  9  1  0  0  0  0
 11 13  1  0  0  0  0
 12 11  1  0  0  0  0
 13 14  2  0  0  0  0
 14  4  1  0  0  0  0
 15 16  1  0  0  0  0
 16 18  2  0  0  0  0
 16 17  1  0  0  0  0
 18 19  1  0  0  0  0
 20 21  1  0  0  0  0
 20 18  1  0  0  0  0
 22 20  2  0  0  0  0
 23 22  1  0  0  0  0
 24 22  1  0  0  0  0
 24 15  2  0  0  0  0
M  END
