1,4
 OpenBabel05122313063D

 16 16  0  0  1  0  0  0  0  0999 V2000
   -1.5885    1.4056   -0.0133 S   0  0  0  0  0  1  0  0  0  0  0  0
   -5.1858   -2.0991    0.1503 O   0  0  0  0  0  0  0  0  0  0  0  0
   -3.5858   -0.4577    0.0739 N   0  0  0  0  0  0  0  0  0  0  0  0
   -2.5802   -1.4457    0.1223 N   0  0  0  0  0  0  0  0  0  0  0  0
   -2.7272   -2.1094   -0.6600 H   0  0  0  0  0  0  0  0  0  0  0  0
   -2.7102   -2.0096    0.9818 H   0  0  0  0  0  0  0  0  0  0  0  0
   -4.2447    1.7393   -0.0341 N   0  0  0  0  0  0  0  0  0  0  0  0
   -4.0204    2.7396   -0.0839 H   0  0  0  0  0  0  0  0  0  0  0  0
   -5.5601    1.4539   -0.0232 N   0  0  0  0  0  0  0  0  0  0  0  0
   -3.2020    0.8615    0.0103 C   0  0  1  0  0  3  0  0  0  0  0  0
   -4.9467   -0.9081    0.0936 C   0  0  0  0  0  0  0  0  0  0  0  0
   -5.9303    0.2005    0.0373 C   0  0  0  0  0  0  0  0  0  0  0  0
   -7.3769   -0.1528    0.0511 C   0  0  0  0  0  0  0  0  0  0  0  0
   -7.9940    0.7613    0.0048 H   0  0  0  0  0  0  0  0  0  0  0  0
   -7.6238   -0.7290    0.9668 H   0  0  0  0  0  0  0  0  0  0  0  0
   -7.6195   -0.8158   -0.8051 H   0  0  0  0  0  0  0  0  0  0  0  0
  3 11  1  0  0  0  0
  3  4  1  0  0  0  0
  4  6  1  0  0  0  0
  5  4  1  0  0  0  0
  7  9  1  0  0  0  0
  7 10  1  0  0  0  0
  8  7  1  0  0  0  0
  9 12  2  0  0  0  0
 10  1  1  1  0  0  0
 10  3  1  0  0  0  0
 11  2  2  0  0  0  0
 12 13  1  0  0  0  0
 12 11  1  0  0  0  0
 13 15  1  0  0  0  0
 14 13  1  0  0  0  0
 16 13  1  0  0  0  0
M  END
