1,3
 OpenBabel05122313063D

 18 17  0  0  0  0  0  0  0  0999 V2000
   -0.1724    1.9542    0.4590 N   0  0  0  0  0  0  0  0  0  0  0  0
   -2.2480   -0.5411    1.5621 O   0  0  0  0  0  1  0  0  0  0  0  0
   -1.5383   -0.7309    0.2459 S   0  0  2  0  0  3  0  0  0  0  0  0
   -1.1666    2.4951   -0.5001 C   0  0  0  0  0  0  0  0  0  0  0  0
   -2.4973    1.7346   -0.4988 C   0  0  0  0  0  0  0  0  0  0  0  0
   -2.4589    0.2846   -0.9857 C   0  0  0  0  0  0  0  0  0  0  0  0
   -1.8446   -2.4128   -0.3507 C   0  0  0  0  0  0  0  0  0  0  0  0
    0.7255    2.4787    0.4165 H   0  0  0  0  0  0  0  0  0  0  0  0
   -0.5253    2.0140    1.4275 H   0  0  0  0  0  0  0  0  0  0  0  0
   -1.3673    3.5615   -0.2579 H   0  0  0  0  0  0  0  0  0  0  0  0
   -0.6974    2.4626   -1.5040 H   0  0  0  0  0  0  0  0  0  0  0  0
   -2.9424    1.7447    0.5200 H   0  0  0  0  0  0  0  0  0  0  0  0
   -3.2009    2.2934   -1.1498 H   0  0  0  0  0  0  0  0  0  0  0  0
   -3.4805   -0.1443   -1.0376 H   0  0  0  0  0  0  0  0  0  0  0  0
   -1.9404    0.1624   -1.9587 H   0  0  0  0  0  0  0  0  0  0  0  0
   -1.5250   -2.4873   -1.4063 H   0  0  0  0  0  0  0  0  0  0  0  0
   -2.9239   -2.6037   -0.2024 H   0  0  0  0  0  0  0  0  0  0  0  0
   -1.2095   -3.0727    0.2673 H   0  0  0  0  0  0  0  0  0  0  0  0
  1  9  1  0  0  0  0
  3  2  1  1  0  0  0
  4  5  1  0  0  0  0
  4 10  1  0  0  0  0
  4  1  1  0  0  0  0
  5 12  1  0  0  0  0
  6  5  1  0  0  0  0
  6  3  1  0  0  0  0
  7 17  1  0  0  0  0
  7  3  1  0  0  0  0
  7 18  1  0  0  0  0
  8  1  1  0  0  0  0
 11  4  1  0  0  0  0
 13  5  1  0  0  0  0
 14  6  1  0  0  0  0
 15  6  1  0  0  0  0
 16  7  1  0  0  0  0
M  END
