1,2
 OpenBabel05122313063D

 21 21  0  0  1  0  0  0  0  0999 V2000
   -0.7353   -0.8950    1.9460 S   0  0  0  0  0  1  0  0  0  0  0  0
   -0.8089    1.4280    0.0014 N   0  0  0  0  0  2  0  0  0  0  0  0
   -3.2051   -1.1258    0.9912 N   0  0  0  0  0  0  0  0  0  0  0  0
   -3.8991   -0.8749    0.2846 H   0  0  0  0  0  0  0  0  0  0  0  0
   -3.2341    1.5730    0.0279 C   0  0  0  0  0  0  0  0  0  0  0  0
   -4.1985    1.1369    0.3218 H   0  0  0  0  0  0  0  0  0  0  0  0
   -0.7548    2.6792   -0.5356 C   0  0  2  0  0  3  0  0  0  0  0  0
   -2.0345    0.8842    0.2864 C   0  0  0  0  0  0  0  0  0  0  0  0
   -3.3269   -2.4274    1.6189 C   0  0  0  0  0  0  0  0  0  0  0  0
   -2.5101   -3.0952    1.2664 H   0  0  0  0  0  0  0  0  0  0  0  0
   -4.3089   -2.8623    1.3600 H   0  0  0  0  0  0  0  0  0  0  0  0
   -3.2442   -2.3444    2.7215 H   0  0  0  0  0  0  0  0  0  0  0  0
   -2.0630   -0.4155    0.9999 C   0  0  1  0  0  3  0  0  0  0  0  0
   -1.9333    3.3918   -0.8365 C   0  0  0  0  0  0  0  0  0  0  0  0
   -1.8455    4.3925   -1.2815 H   0  0  0  0  0  0  0  0  0  0  0  0
    0.5756    3.3085   -0.8127 C   0  0  0  0  0  0  0  0  0  0  0  0
    1.2566    3.1969    0.0521 H   0  0  0  0  0  0  0  0  0  0  0  0
    0.4538    4.3829   -1.0428 H   0  0  0  0  0  0  0  0  0  0  0  0
    1.0706    2.8248   -1.6781 H   0  0  0  0  0  0  0  0  0  0  0  0
   -3.1849    2.8391   -0.5584 C   0  0  0  0  0  0  0  0  0  0  0  0
   -4.1092    3.3951   -0.7728 H   0  0  0  0  0  0  0  0  0  0  0  0
  2  8  1  0  0  0  0
  3 13  1  0  0  0  0
  3  9  1  0  0  0  0
  4  3  1  0  0  0  0
  5  8  2  0  0  0  0
  5  6  1  0  0  0  0
  7 16  1  6  0  0  0
  7  2  1  0  0  0  0
  8 13  1  0  0  0  0
  9 12  1  0  0  0  0
 10  9  1  0  0  0  0
 11  9  1  0  0  0  0
 13  1  1  1  0  0  0
 14 20  2  0  0  0  0
 14  7  1  0  0  0  0
 15 14  1  0  0  0  0
 16 17  1  0  0  0  0
 18 16  1  0  0  0  0
 19 16  1  0  0  0  0
 20  5  1  0  0  0  0
 21 20  1  0  0  0  0
M  END
