1,4
 OpenBabel05122313063D

 25 26  0  0  0  0  0  0  0  0999 V2000
    2.2476    1.8776   -0.2087 S   0  0  0  0  0  0  0  0  0  0  0  0
   -0.4055    1.2849   -0.4048 N   0  0  0  0  0  0  0  0  0  0  0  0
   -1.7129    1.4742   -0.3232 N   0  0  0  0  0  2  0  0  0  0  0  0
   -0.0267   -0.0089   -0.3233 N   0  0  0  0  0  2  0  0  0  0  0  0
   -2.2323    0.2344   -0.1561 C   0  0  0  0  0  0  0  0  0  0  0  0
   -6.4436   -0.4402    0.2945 C   0  0  0  0  0  0  0  0  0  0  0  0
   -7.5243   -0.6126    0.4097 H   0  0  0  0  0  0  0  0  0  0  0  0
   -5.9510    0.8652    0.1284 C   0  0  0  0  0  0  0  0  0  0  0  0
   -6.6458    1.7185    0.1130 H   0  0  0  0  0  0  0  0  0  0  0  0
   -3.6736    0.0018   -0.0008 C   0  0  0  0  0  0  0  0  0  0  0  0
   -5.5517   -1.5243    0.3129 C   0  0  0  0  0  0  0  0  0  0  0  0
   -5.9302   -2.5492    0.4424 H   0  0  0  0  0  0  0  0  0  0  0  0
   -4.1756   -1.3072    0.1665 C   0  0  0  0  0  0  0  0  0  0  0  0
   -3.4860   -2.1642    0.1821 H   0  0  0  0  0  0  0  0  0  0  0  0
   -4.5769    1.0875   -0.0184 C   0  0  0  0  0  0  0  0  0  0  0  0
   -4.1830    2.1056   -0.1491 H   0  0  0  0  0  0  0  0  0  0  0  0
   -1.1619   -0.7010   -0.1544 C   0  0  0  0  0  0  0  0  0  0  0  0
   -1.1010   -1.7879   -0.0273 H   0  0  0  0  0  0  0  0  0  0  0  0
    0.5467    2.3214   -0.7573 C   0  0  0  0  0  0  0  0  0  0  0  0
    0.2094    3.2773   -0.3148 H   0  0  0  0  0  0  0  0  0  0  0  0
    0.6152    2.4253   -1.8606 H   0  0  0  0  0  0  0  0  0  0  0  0
    2.1862    2.2933    1.5698 C   0  0  0  0  0  0  0  0  0  0  0  0
    1.2925    1.8485    2.0453 H   0  0  0  0  0  0  0  0  0  0  0  0
    2.2217    3.3917    1.7022 H   0  0  0  0  0  0  0  0  0  0  0  0
    3.0957    1.8177    1.9846 H   0  0  0  0  0  0  0  0  0  0  0  0
  1 22  1  0  0  0  0
  2  4  1  0  0  0  0
  2  3  1  0  0  0  0
  3  5  1  0  0  0  0
  4 17  1  0  0  0  0
  5 17  2  0  0  0  0
  5 10  1  0  0  0  0
  6 11  1  0  0  0  0
  6  7  1  0  0  0  0
  8  6  2  0  0  0  0
  9  8  1  0  0  0  0
 10 13  1  0  0  0  0
 11 12  1  0  0  0  0
 13 14  1  0  0  0  0
 13 11  2  0  0  0  0
 15 10  2  0  0  0  0
 15  8  1  0  0  0  0
 16 15  1  0  0  0  0
 17 18  1  0  0  0  0
 19  2  1  0  0  0  0
 19 20  1  0  0  0  0
 19  1  1  0  0  0  0
 21 19  1  0  0  0  0
 22 24  1  0  0  0  0
 22 25  1  0  0  0  0
 22 23  1  0  0  0  0
M  END
