1,3
 OpenBabel05122313063D

 34 34  0  0  1  0  0  0  0  0999 V2000
    0.3710   -0.7536   -1.5514 S   0  0  0  0  0  1  0  0  0  0  0  0
    1.8980   -0.0866   -0.3627 P   0  0  0  0  0  4  0  0  0  0  0  0
   -0.9367    1.0837    0.6022 N   0  0  0  0  0  2  0  0  0  0  0  0
    1.3330    0.4731    1.1562 N   0  0  0  0  0  0  0  0  0  0  0  0
    0.9703   -0.3621    1.6727 H   0  0  0  0  0  0  0  0  0  0  0  0
    0.2827    1.4447    1.1403 C   0  0  2  0  0  3  0  0  0  0  0  0
    0.4952    2.7040    1.7082 C   0  0  0  0  0  0  0  0  0  0  0  0
    1.4866    2.9105    2.1346 H   0  0  0  0  0  0  0  0  0  0  0  0
   -0.5398    3.6492    1.7439 C   0  0  0  0  0  0  0  0  0  0  0  0
   -0.3848    4.6402    2.1930 H   0  0  0  0  0  0  0  0  0  0  0  0
   -1.7825    3.2768    1.2008 C   0  0  0  0  0  0  0  0  0  0  0  0
   -2.6365    3.9692    1.1985 H   0  0  0  0  0  0  0  0  0  0  0  0
   -1.9493    2.0098    0.6501 C   0  0  0  0  0  0  0  0  0  0  0  0
   -2.8979    1.6874    0.1985 H   0  0  0  0  0  0  0  0  0  0  0  0
    2.7772    1.3259   -1.1826 C   0  0  0  0  0  0  0  0  0  0  0  0
    3.2108    0.8243   -2.0770 H   0  0  0  0  0  0  0  0  0  0  0  0
    1.8036    2.4044   -1.6790 C   0  0  0  0  0  0  0  0  0  0  0  0
    1.3991    3.0042   -0.8412 H   0  0  0  0  0  0  0  0  0  0  0  0
    0.9512    1.9546   -2.2245 H   0  0  0  0  0  0  0  0  0  0  0  0
    2.3385    3.0926   -2.3642 H   0  0  0  0  0  0  0  0  0  0  0  0
    3.9074    1.8823   -0.3087 C   0  0  0  0  0  0  0  0  0  0  0  0
    4.4266    2.7015   -0.8467 H   0  0  0  0  0  0  0  0  0  0  0  0
    4.6669    1.1168   -0.0547 H   0  0  0  0  0  0  0  0  0  0  0  0
    3.5099    2.2948    0.6394 H   0  0  0  0  0  0  0  0  0  0  0  0
    3.1491   -1.3883    0.0625 C   0  0  0  0  0  0  0  0  0  0  0  0
    3.8427   -0.8896    0.7747 H   0  0  0  0  0  0  0  0  0  0  0  0
    2.4793   -2.5884    0.7412 C   0  0  0  0  0  0  0  0  0  0  0  0
    1.7072   -3.0314    0.0811 H   0  0  0  0  0  0  0  0  0  0  0  0
    1.9807   -2.3293    1.6949 H   0  0  0  0  0  0  0  0  0  0  0  0
    3.2462   -3.3603    0.9550 H   0  0  0  0  0  0  0  0  0  0  0  0
    3.8998   -1.8034   -1.2105 C   0  0  0  0  0  0  0  0  0  0  0  0
    4.5990   -2.6302   -0.9739 H   0  0  0  0  0  0  0  0  0  0  0  0
    4.4951   -0.9793   -1.6506 H   0  0  0  0  0  0  0  0  0  0  0  0
    3.1902   -2.1742   -1.9791 H   0  0  0  0  0  0  0  0  0  0  0  0
  1  2  1  0  0  0  0
  2 25  1  0  0  0  0
  2  4  1  0  0  0  0
  3 13  1  0  0  0  0
  3  6  1  0  0  0  0
  4  5  1  0  0  0  0
  6  4  1  1  0  0  0
  6  7  1  0  0  0  0
  7  9  2  0  0  0  0
  7  8  1  0  0  0  0
  9 10  1  0  0  0  0
 11  9  1  0  0  0  0
 12 11  1  0  0  0  0
 13 11  2  0  0  0  0
 14 13  1  0  0  0  0
 15  2  1  0  0  0  0
 15 21  1  0  0  0  0
 16 15  1  0  0  0  0
 17 15  1  0  0  0  0
 17 18  1  0  0  0  0
 19 17  1  0  0  0  0
 20 17  1  0  0  0  0
 21 23  1  0  0  0  0
 21 24  1  0  0  0  0
 22 21  1  0  0  0  0
 25 27  1  0  0  0  0
 25 26  1  0  0  0  0
 27 30  1  0  0  0  0
 27 29  1  0  0  0  0
 28 27  1  0  0  0  0
 31 32  1  0  0  0  0
 31 25  1  0  0  0  0
 33 31  1  0  0  0  0
 34 31  1  0  0  0  0
M  END
