1,4
 OpenBabel05122313063D

 30 32  0  0  0  0  0  0  0  0999 V2000
   -2.7223   -2.7803    0.4270 S   0  0  0  0  0  1  0  0  0  0  0  0
   -5.1530   -1.0881   -0.3061 S   0  0  0  0  0  0  0  0  0  0  0  0
   -2.7847   -0.3857   -0.9589 N   0  0  0  0  0  0  0  0  0  0  0  0
   -1.4503   -0.4833   -1.1128 N   0  0  0  0  0  2  0  0  0  0  0  0
   -0.8028    0.6268   -1.4383 C   0  0  0  0  0  0  0  0  0  0  0  0
   -1.2806    2.0211   -1.3858 C   0  0  0  0  0  0  0  0  0  0  0  0
   -2.5477    2.5669   -1.1279 C   0  0  0  0  0  0  0  0  0  0  0  0
   -3.4085    1.8995   -1.0024 H   0  0  0  0  0  0  0  0  0  0  0  0
   -2.6721    3.9656   -1.0367 C   0  0  0  0  0  0  0  0  0  0  0  0
   -3.6601    4.4082   -0.8396 H   0  0  0  0  0  0  0  0  0  0  0  0
   -1.5533    4.8028   -1.1896 C   0  0  0  0  0  0  0  0  0  0  0  0
   -1.6743    5.8940   -1.1084 H   0  0  0  0  0  0  0  0  0  0  0  0
   -0.2789    4.2621   -1.4499 C   0  0  0  0  0  3  0  0  0  0  0  0
    0.5958    4.9205   -1.5627 H   0  0  0  0  0  0  0  0  0  0  0  0
   -0.1451    2.8747   -1.5569 C   0  0  0  0  0  0  0  0  0  0  0  0
    1.0378    2.0379   -1.8097 C   0  0  0  0  0  0  0  0  0  0  0  0
    2.3696    2.3715   -2.0745 C   0  0  0  0  0  0  0  0  0  0  0  0
    2.6941    3.4224   -2.0930 H   0  0  0  0  0  0  0  0  0  0  0  0
    3.2934    1.3359   -2.3108 C   0  0  0  0  0  0  0  0  0  0  0  0
    4.3469    1.5843   -2.5094 H   0  0  0  0  0  0  0  0  0  0  0  0
    2.8852   -0.0103   -2.3034 C   0  0  0  0  0  0  0  0  0  0  0  0
    3.6149   -0.8098   -2.5015 H   0  0  0  0  0  0  0  0  0  0  0  0
    1.5479   -0.3533   -2.0396 C   0  0  0  0  0  0  0  0  0  0  0  0
    1.2378   -1.4097   -2.0491 H   0  0  0  0  0  0  0  0  0  0  0  0
    0.6315    0.6707   -1.7653 C   0  0  0  0  0  0  0  0  0  0  0  0
   -3.4077   -1.3731   -0.3346 C   0  0  0  0  0  0  0  0  0  0  0  0
   -5.7902   -2.5292    0.5928 C   0  0  0  0  0  0  0  0  0  0  0  0
   -6.8816   -2.3632    0.6752 H   0  0  0  0  0  0  0  0  0  0  0  0
   -5.3414   -2.5974    1.6025 H   0  0  0  0  0  0  0  0  0  0  0  0
   -5.5944   -3.4657    0.0370 H   0  0  0  0  0  0  0  0  0  0  0  0
  2 27  1  0  0  0  0
  3 26  2  0  0  0  0
  4  3  1  0  0  0  0
  5  6  1  0  0  0  0
  5  4  1  0  0  0  0
  6  7  2  0  0  0  0
  7  9  1  0  0  0  0
  7  8  1  0  0  0  0
  9 10  1  0  0  0  0
 11 12  1  0  0  0  0
 11  9  2  0  0  0  0
 13 11  1  0  0  0  0
 14 13  1  0  0  0  0
 15 13  1  0  0  0  0
 15  6  1  0  0  0  0
 16 25  1  0  0  0  0
 16 15  2  0  0  0  0
 17 16  1  0  0  0  0
 18 17  1  0  0  0  0
 19 21  1  0  0  0  0
 19 17  2  0  0  0  0
 20 19  1  0  0  0  0
 21 23  2  0  0  0  0
 22 21  1  0  0  0  0
 23 25  1  0  0  0  0
 24 23  1  0  0  0  0
 25  5  2  0  0  0  0
 26  2  1  0  0  0  0
 26  1  1  0  0  0  0
 27 28  1  0  0  0  0
 27 29  1  0  0  0  0
 30 27  1  0  0  0  0
M  END
