1,7
 OpenBabel05122313063D

 36 38  0  0  0  0  0  0  0  0999 V2000
   -0.2895    2.1272   -0.0912 S   0  0  0  0  0  1  0  0  0  0  0  0
    1.4781    2.1474   -0.0202 C   0  0  0  0  0  0  0  0  0  0  0  0
    2.0158    3.4097    0.0432 N   0  0  0  0  0  0  0  0  0  0  0  0
    1.3171    4.1524   -0.0226 H   0  0  0  0  0  0  0  0  0  0  0  0
    4.1869   -2.7906   -0.0599 C   0  0  0  0  0  0  0  0  0  0  0  0
    2.2503    1.0820   -0.0375 N   0  0  0  0  0  0  0  0  0  0  0  0
    1.5869   -0.0998   -0.0889 N   0  0  0  0  0  2  0  0  0  0  0  0
    3.6849   -1.4622   -0.3662 C   0  0  0  0  0  0  0  0  0  0  0  0
    4.5769   -0.4887   -0.8423 C   0  0  0  0  0  0  0  0  0  0  0  0
    4.1848    0.5072   -1.0787 H   0  0  0  0  0  0  0  0  0  0  0  0
    3.3412    3.8520    0.1695 C   0  0  0  0  0  0  0  0  0  0  0  0
    5.5901   -3.0673   -0.2639 C   0  0  0  0  0  0  0  0  0  0  0  0
    3.5788    5.2372    0.0029 C   0  0  0  0  0  0  0  0  0  0  0  0
    2.7350    5.9077   -0.2277 H   0  0  0  0  0  0  0  0  0  0  0  0
    3.8947   -5.0927    0.7329 C   0  0  0  0  0  0  0  0  0  0  0  0
    3.2366   -5.8816    1.1274 H   0  0  0  0  0  0  0  0  0  0  0  0
    3.3666   -3.8390    0.4544 C   0  0  0  0  0  0  0  0  0  0  0  0
    2.2992   -3.6603    0.6464 H   0  0  0  0  0  0  0  0  0  0  0  0
    5.9458   -0.7767   -1.0389 C   0  0  0  0  0  0  0  0  0  0  0  0
    6.6106    0.0118   -1.4234 H   0  0  0  0  0  0  0  0  0  0  0  0
    6.4460   -2.0388   -0.7544 C   0  0  0  0  0  0  0  0  0  0  0  0
    7.5131   -2.2673   -0.9032 H   0  0  0  0  0  0  0  0  0  0  0  0
    6.0998   -4.3656    0.0342 C   0  0  0  0  0  0  0  0  0  0  0  0
    7.1719   -4.5574   -0.1290 H   0  0  0  0  0  0  0  0  0  0  0  0
    2.2558   -1.2252   -0.2179 C   0  0  0  0  0  3  0  0  0  0  0  0
    1.5854   -2.0985   -0.2070 H   0  0  0  0  0  0  0  0  0  0  0  0
    5.2709   -5.3637    0.5205 C   0  0  0  0  0  0  0  0  0  0  0  0
    5.6764   -6.3615    0.7464 H   0  0  0  0  0  0  0  0  0  0  0  0
    4.4272    3.0000    0.4703 C   0  0  0  0  0  0  0  0  0  0  0  0
    4.2412    1.9300    0.6145 H   0  0  0  0  0  0  0  0  0  0  0  0
    5.7170    3.5361    0.5856 C   0  0  0  0  0  0  0  0  0  0  0  0
    6.5517    2.8578    0.8213 H   0  0  0  0  0  0  0  0  0  0  0  0
    4.8719    5.7565    0.1245 C   0  0  0  0  0  0  0  0  0  0  0  0
    5.0339    6.8367   -0.0106 H   0  0  0  0  0  0  0  0  0  0  0  0
    5.9542    4.9087    0.4124 C   0  0  0  0  0  0  0  0  0  0  0  0
    6.9718    5.3163    0.5036 H   0  0  0  0  0  0  0  0  0  0  0  0
  1  2  1  0  0  0  0
  2  3  1  0  0  0  0
  3 11  1  0  0  0  0
  4  3  1  0  0  0  0
  5 17  1  0  0  0  0
  6  2  2  0  0  0  0
  7  6  1  0  0  0  0
  8 25  1  0  0  0  0
  8  5  1  0  0  0  0
  9  8  2  0  0  0  0
 10  9  1  0  0  0  0
 11 29  1  0  0  0  0
 12  5  2  0  0  0  0
 12 23  1  0  0  0  0
 13 33  1  0  0  0  0
 13 11  2  0  0  0  0
 14 13  1  0  0  0  0
 15 16  1  0  0  0  0
 17 18  1  0  0  0  0
 17 15  2  0  0  0  0
 19  9  1  0  0  0  0
 19 21  2  0  0  0  0
 20 19  1  0  0  0  0
 21 12  1  0  0  0  0
 22 21  1  0  0  0  0
 23 27  2  0  0  0  0
 24 23  1  0  0  0  0
 25 26  1  0  0  0  0
 25  7  1  0  0  0  0
 27 15  1  0  0  0  0
 27 28  1  0  0  0  0
 29 31  2  0  0  0  0
 29 30  1  0  0  0  0
 31 32  1  0  0  0  0
 33 35  2  0  0  0  0
 34 33  1  0  0  0  0
 35 36  1  0  0  0  0
 35 31  1  0  0  0  0
M  END
