1,4
 OpenBabel05122313063D

 18 17  0  0  0  0  0  0  0  0999 V2000
    1.8158    1.6890   -1.0770 S   0  0  0  0  0  1  0  0  0  0  0  0
    2.9264    0.6063   -0.2626 C   0  0  0  0  0  0  0  0  0  0  0  0
    2.6776   -0.3428    0.6179 N   0  0  0  0  0  0  0  0  0  0  0  0
    1.3656   -0.4943    0.9734 N   0  0  0  0  0  2  0  0  0  0  0  0
    4.6049    0.8678   -0.7294 S   0  0  0  0  0  0  0  0  0  0  0  0
    5.4727   -0.3675    0.2843 C   0  0  0  0  0  0  0  0  0  0  0  0
    1.0959   -1.4569    1.8204 C   0  0  0  0  0  3  0  0  0  0  0  0
   -0.3199   -1.6569    2.2590 C   0  0  0  0  0  0  0  0  0  0  0  0
    2.1775   -2.3535    2.3452 C   0  0  0  0  0  0  0  0  0  0  0  0
    5.2927   -0.1837    1.3600 H   0  0  0  0  0  0  0  0  0  0  0  0
    6.5476   -0.2484    0.0490 H   0  0  0  0  0  0  0  0  0  0  0  0
    5.1358   -1.3897    0.0289 H   0  0  0  0  0  0  0  0  0  0  0  0
   -0.7382   -2.5902    1.8210 H   0  0  0  0  0  0  0  0  0  0  0  0
   -0.9631   -0.8036    1.9685 H   0  0  0  0  0  0  0  0  0  0  0  0
   -0.3684   -1.7787    3.3611 H   0  0  0  0  0  0  0  0  0  0  0  0
    2.7487   -2.8015    1.5065 H   0  0  0  0  0  0  0  0  0  0  0  0
    1.7677   -3.1503    2.9927 H   0  0  0  0  0  0  0  0  0  0  0  0
    2.9197   -1.7587    2.9185 H   0  0  0  0  0  0  0  0  0  0  0  0
  1  2  1  0  0  0  0
  2  3  2  0  0  0  0
  3  4  1  0  0  0  0
  4  7  1  0  0  0  0
  5  2  1  0  0  0  0
  5  6  1  0  0  0  0
  6 10  1  0  0  0  0
  7  8  1  0  0  0  0
  7  9  1  0  0  0  0
  8 15  1  0  0  0  0
  9 18  1  0  0  0  0
  9 17  1  0  0  0  0
 11  6  1  0  0  0  0
 12  6  1  0  0  0  0
 13  8  1  0  0  0  0
 14  8  1  0  0  0  0
 16  9  1  0  0  0  0
M  END
