1,4
 OpenBabel05122313063D

 22 22  0  0  0  0  0  0  0  0999 V2000
    2.0853    0.1596    1.9184 S   0  0  0  0  0  1  0  0  0  0  0  0
    2.6885   -1.1604    0.9539 C   0  0  0  0  0  0  0  0  0  0  0  0
    2.0443   -1.9605    0.1231 N   0  0  0  0  0  0  0  0  0  0  0  0
    0.7229   -1.6888   -0.0846 N   0  0  0  0  0  2  0  0  0  0  0  0
    4.4205   -1.4233    1.1452 S   0  0  0  0  0  0  0  0  0  0  0  0
    4.7108   -2.8640    0.0725 C   0  0  0  0  0  0  0  0  0  0  0  0
    0.0534   -2.6203   -0.7208 C   0  0  0  0  0  3  0  0  0  0  0  0
   -1.3324   -2.5171   -1.1456 C   0  0  0  0  0  0  0  0  0  0  0  0
   -1.9990   -1.2798   -1.3181 C   0  0  0  0  0  0  0  0  0  0  0  0
   -3.3461   -1.2430   -1.6884 C   0  0  0  0  0  0  0  0  0  0  0  0
   -4.0518   -2.4380   -1.9083 C   0  0  0  0  0  0  0  0  0  0  0  0
   -3.3950   -3.6734   -1.7757 C   0  0  0  0  0  0  0  0  0  0  0  0
   -2.0463   -3.7137   -1.4061 C   0  0  0  0  0  0  0  0  0  0  0  0
    5.7889   -3.0956    0.1692 H   0  0  0  0  0  0  0  0  0  0  0  0
    4.4624   -2.6296   -0.9792 H   0  0  0  0  0  0  0  0  0  0  0  0
    4.1020   -3.7247    0.4059 H   0  0  0  0  0  0  0  0  0  0  0  0
    0.5979   -3.5608   -0.9335 H   0  0  0  0  0  0  0  0  0  0  0  0
   -1.4472   -0.3391   -1.1937 H   0  0  0  0  0  0  0  0  0  0  0  0
   -3.8492   -0.2712   -1.8005 H   0  0  0  0  0  0  0  0  0  0  0  0
   -5.1139   -2.4064   -2.1943 H   0  0  0  0  0  0  0  0  0  0  0  0
   -3.9404   -4.6112   -1.9598 H   0  0  0  0  0  0  0  0  0  0  0  0
   -1.5329   -4.6814   -1.2935 H   0  0  0  0  0  0  0  0  0  0  0  0
  2  5  1  0  0  0  0
  2  1  1  0  0  0  0
  3  2  2  0  0  0  0
  4  3  1  0  0  0  0
  6 14  1  0  0  0  0
  6 16  1  0  0  0  0
  6  5  1  0  0  0  0
  7  4  1  0  0  0  0
  8  7  1  0  0  0  0
  9 18  1  0  0  0  0
  9  8  1  0  0  0  0
 10  9  2  0  0  0  0
 11 12  2  0  0  0  0
 11 10  1  0  0  0  0
 12 13  1  0  0  0  0
 13 22  1  0  0  0  0
 13  8  2  0  0  0  0
 15  6  1  0  0  0  0
 17  7  1  0  0  0  0
 19 10  1  0  0  0  0
 20 11  1  0  0  0  0
 21 12  1  0  0  0  0
M  END
