1,3
 OpenBabel05122313063D

 22 22  0  0  1  0  0  0  0  0999 V2000
    2.2815    0.8586   -0.8253 S   0  0  0  0  0  1  0  0  0  0  0  0
    4.1460   -1.4725   -0.2178 S   0  0  0  0  0  0  0  0  0  0  0  0
   -2.2437   -0.4272   -0.2755 N   0  0  0  0  0  2  0  0  0  0  0  0
    0.2811   -1.3607   -0.3427 N   0  0  0  0  0  0  0  0  0  0  0  0
    1.5656   -1.6796   -0.2429 N   0  0  0  0  0  0  0  0  0  0  0  0
    1.8428   -2.6161    0.0949 H   0  0  0  0  0  0  0  0  0  0  0  0
   -3.4832    0.0616   -0.3889 C   0  0  0  0  0  3  0  0  0  0  0  0
   -3.5454    1.1628   -0.4614 H   0  0  0  0  0  0  0  0  0  0  0  0
   -4.6168   -0.7707   -0.4150 C   0  0  0  0  0  0  0  0  0  0  0  0
   -5.6210   -0.3325   -0.5060 H   0  0  0  0  0  0  0  0  0  0  0  0
   -4.4321   -2.1569   -0.3116 C   0  0  0  0  0  0  0  0  0  0  0  0
   -5.2957   -2.8388   -0.3162 H   0  0  0  0  0  0  0  0  0  0  0  0
   -3.1310   -2.6676   -0.2077 C   0  0  0  0  0  0  0  0  0  0  0  0
   -2.9483   -3.7505   -0.1380 H   0  0  0  0  0  0  0  0  0  0  0  0
   -2.0487   -1.7647   -0.2075 C   0  0  0  0  0  0  0  0  0  0  0  0
   -0.6585   -2.2281   -0.1426 C   0  0  0  0  0  0  0  0  0  0  0  0
   -0.4583   -3.2959    0.0872 H   0  0  0  0  0  0  0  0  0  0  0  0
    2.5545   -0.7324   -0.4334 C   0  0  2  0  0  3  0  0  0  0  0  0
    5.2357   -0.0373   -0.3715 C   0  0  0  0  0  0  0  0  0  0  0  0
    5.1454    0.4076   -1.3802 H   0  0  0  0  0  0  0  0  0  0  0  0
    6.2578   -0.4290   -0.2086 H   0  0  0  0  0  0  0  0  0  0  0  0
    4.9789    0.7179    0.3954 H   0  0  0  0  0  0  0  0  0  0  0  0
  3 15  1  0  0  0  0
  4  5  1  0  0  0  0
  4 16  2  0  0  0  0
  5  6  1  0  0  0  0
  7  3  1  0  0  0  0
  8  7  1  0  0  0  0
  9  7  1  0  0  0  0
  9 11  2  0  0  0  0
 10  9  1  0  0  0  0
 11 13  1  0  0  0  0
 12 11  1  0  0  0  0
 13 15  2  0  0  0  0
 13 14  1  0  0  0  0
 15 16  1  0  0  0  0
 16 17  1  0  0  0  0
 18  1  1  6  0  0  0
 18  5  1  0  0  0  0
 18  2  1  0  0  0  0
 19  2  1  0  0  0  0
 19 21  1  0  0  0  0
 19 22  1  0  0  0  0
 20 19  1  0  0  0  0
M  END
