1,4
 OpenBabel05122313063D

 31 32  0  0  1  0  0  0  0  0999 V2000
   -1.3354    2.8095   -1.5583 S   0  0  0  0  0  1  0  0  0  0  0  0
   -2.9026    2.1328   -1.2784 C   0  0  0  0  0  0  0  0  0  0  0  0
   -3.2126    1.0246   -0.5400 N   0  0  0  0  0  0  0  0  0  0  0  0
   -2.2289    0.4639    0.1140 N   0  0  0  0  0  2  0  0  0  0  0  0
   -0.1011   -0.8253    1.5695 O   0  0  0  0  0  0  0  0  0  0  0  0
   -1.2593   -1.2620    1.4788 C   0  0  0  0  0  0  0  0  0  0  0  0
   -1.7178   -2.4461    2.0516 N   0  0  0  0  0  0  0  0  0  0  0  0
   -3.0699   -2.6477    1.7396 C   0  0  0  0  0  0  0  0  0  0  0  0
   -3.5439   -1.5666    0.9323 C   0  0  0  0  0  0  0  0  0  0  0  0
   -2.4152   -0.6719    0.7605 C   0  0  2  0  0  3  0  0  0  0  0  0
   -4.8732   -1.5640    0.4843 C   0  0  0  0  0  0  0  0  0  0  0  0
   -5.2297   -0.7398   -0.1469 H   0  0  0  0  0  0  0  0  0  0  0  0
   -5.7155   -2.6304    0.8513 C   0  0  0  0  0  0  0  0  0  0  0  0
   -6.7604   -2.6420    0.5075 H   0  0  0  0  0  0  0  0  0  0  0  0
   -5.2362   -3.6826    1.6513 C   0  0  0  0  0  0  0  0  0  0  0  0
   -5.9113   -4.5065    1.9285 H   0  0  0  0  0  0  0  0  0  0  0  0
   -3.9015   -3.7076    2.1072 C   0  0  0  0  0  0  0  0  0  0  0  0
   -3.5322   -4.5357    2.7291 H   0  0  0  0  0  0  0  0  0  0  0  0
   -0.8871   -3.3293    2.8324 C   0  0  0  0  0  0  0  0  0  0  0  0
   -1.2757   -3.4388    3.8669 H   0  0  0  0  0  0  0  0  0  0  0  0
    0.1250   -2.8834    2.8690 H   0  0  0  0  0  0  0  0  0  0  0  0
   -0.8258   -4.3369    2.3694 H   0  0  0  0  0  0  0  0  0  0  0  0
   -3.9815    2.7403   -1.8611 N   0  0  0  0  0  0  0  0  0  0  0  0
   -3.8126    3.8893   -2.7325 C   0  0  0  0  0  0  0  0  0  0  0  0
   -4.7308    4.0138   -3.3383 H   0  0  0  0  0  0  0  0  0  0  0  0
   -2.9422    3.7395   -3.4007 H   0  0  0  0  0  0  0  0  0  0  0  0
   -3.6315    4.8235   -2.1557 H   0  0  0  0  0  0  0  0  0  0  0  0
   -5.3508    2.3455   -1.5630 C   0  0  0  0  0  0  0  0  0  0  0  0
   -5.9117    3.2015   -1.1293 H   0  0  0  0  0  0  0  0  0  0  0  0
   -5.3331    1.5153   -0.8381 H   0  0  0  0  0  0  0  0  0  0  0  0
   -5.8737    2.0194   -2.4878 H   0  0  0  0  0  0  0  0  0  0  0  0
  1  2  1  0  0  0  0
  2  3  2  0  0  0  0
  3  4  1  0  0  0  0
  6  5  2  0  0  0  0
  6  7  1  0  0  0  0
  7 19  1  0  0  0  0
  8  7  1  0  0  0  0
  8 17  1  0  0  0  0
  9  8  2  0  0  0  0
 10  4  1  6  0  0  0
 10  9  1  0  0  0  0
 10  6  1  0  0  0  0
 11 13  2  0  0  0  0
 11  9  1  0  0  0  0
 12 11  1  0  0  0  0
 13 15  1  0  0  0  0
 14 13  1  0  0  0  0
 15 16  1  0  0  0  0
 15 17  2  0  0  0  0
 17 18  1  0  0  0  0
 19 21  1  0  0  0  0
 19 20  1  0  0  0  0
 22 19  1  0  0  0  0
 23 28  1  0  0  0  0
 23  2  1  0  0  0  0
 24 27  1  0  0  0  0
 24 23  1  0  0  0  0
 25 24  1  0  0  0  0
 26 24  1  0  0  0  0
 28 29  1  0  0  0  0
 28 30  1  0  0  0  0
 31 28  1  0  0  0  0
M  END
