1,4
 OpenBabel05122313063D

 12 11  0  0  1  0  0  0  0  0999 V2000
   -0.8067    0.2281    1.7219 S   0  0  0  0  0  1  0  0  0  0  0  0
   -2.4452    0.2841   -1.7066 O   0  5  0  0  0  0  0  0  0  0  0  0
   -4.0036   -0.1424   -0.0859 O   0  0  0  0  0  0  0  0  0  0  0  0
   -0.6702   -1.2110   -0.8471 N   0  0  0  0  0  0  0  0  0  0  0  0
   -1.9535   -1.4196   -0.0949 C   0  0  2  0  0  0  0  0  0  0  0  0
   -2.9391   -0.3122   -0.6610 C   0  0  0  0  0  0  0  0  0  0  0  0
   -1.7793   -1.2932    1.4029 C   0  0  0  0  0  0  0  0  0  0  0  0
   -2.3819   -2.4117   -0.3584 H   0  0  0  0  0  0  0  0  0  0  0  0
   -2.7829   -1.1500    1.8541 H   0  0  0  0  0  0  0  0  0  0  0  0
   -1.3083   -2.1836    1.8729 H   0  0  0  0  0  0  0  0  0  0  0  0
   -1.1319   -0.6532   -1.6632 H   0  0  0  0  0  0  0  0  0  0  0  0
   -0.2856   -2.1068   -1.1860 H   0  0  0  0  0  0  0  0  0  0  0  0
  2  6  1  0  0  0  0
  4  5  1  0  0  0  0
  5  8  1  6  0  0  0
  5  7  1  0  0  0  0
  6  5  1  0  0  0  0
  6  3  2  0  0  0  0
  7  1  1  0  0  0  0
  7  9  1  0  0  0  0
  7 10  1  0  0  0  0
 11  4  1  0  0  0  0
 12  4  1  0  0  0  0
M  CHG  1   2  -1
M  END
