1,6
 OpenBabel05122313063D

 45 46  0  0  1  0  0  0  0  0999 V2000
   -0.5221    0.2679   -1.5204 S   0  0  0  0  0  0  0  0  0  0  0  0
    1.6930    0.1724    0.3917 N   0  0  0  0  0  0  0  0  0  0  0  0
    1.0567   -0.5946    0.8207 H   0  0  0  0  0  0  0  0  0  0  0  0
    3.5975   -1.1024    0.8785 N   0  0  0  0  0  0  0  0  0  0  0  0
    3.6837    0.5017   -0.8321 N   0  0  0  0  0  0  0  0  0  0  0  0
   -2.6170   -0.2718    0.5300 N   0  0  0  0  0  2  0  0  0  0  0  0
    2.9765   -0.1342    0.1513 C   0  0  0  0  0  3  0  0  0  0  0  0
    4.5251   -2.0389    0.2571 C   0  0  0  0  0  0  0  0  0  0  0  0
    4.5774   -1.8581   -0.8309 H   0  0  0  0  0  0  0  0  0  0  0  0
    4.1601   -3.0748    0.4205 H   0  0  0  0  0  0  0  0  0  0  0  0
    5.5459   -1.9576    0.6890 H   0  0  0  0  0  0  0  0  0  0  0  0
    3.2000   -1.4190    2.2476 C   0  0  0  0  0  0  0  0  0  0  0  0
    2.6356   -0.5728    2.6779 H   0  0  0  0  0  0  0  0  0  0  0  0
    4.1151   -1.5989    2.8498 H   0  0  0  0  0  0  0  0  0  0  0  0
    2.5286   -2.3025    2.2820 H   0  0  0  0  0  0  0  0  0  0  0  0
    3.0313    1.0555   -2.0113 C   0  0  0  0  0  0  0  0  0  0  0  0
    2.0663    0.5474   -2.1944 H   0  0  0  0  0  0  0  0  0  0  0  0
    3.6860    0.8900   -2.8914 H   0  0  0  0  0  0  0  0  0  0  0  0
    2.8401    2.1455   -1.9073 H   0  0  0  0  0  0  0  0  0  0  0  0
    5.0860    0.8475   -0.6558 C   0  0  0  0  0  0  0  0  0  0  0  0
    5.4204    0.5676    0.3590 H   0  0  0  0  0  0  0  0  0  0  0  0
    5.2166    1.9450   -0.7763 H   0  0  0  0  0  0  0  0  0  0  0  0
    5.7372    0.3396   -1.3997 H   0  0  0  0  0  0  0  0  0  0  0  0
    1.1451    1.4799    0.2505 C   0  0  0  0  0  0  0  0  0  0  0  0
    1.7070    2.5617    0.9494 C   0  0  0  0  0  0  0  0  0  0  0  0
    2.5948    2.3852    1.5763 H   0  0  0  0  0  0  0  0  0  0  0  0
    1.1147    3.8312    0.8868 C   0  0  0  0  0  0  0  0  0  0  0  0
    1.5500    4.6705    1.4484 H   0  0  0  0  0  0  0  0  0  0  0  0
   -0.0588    4.0085    0.1333 C   0  0  0  0  0  0  0  0  0  0  0  0
   -0.5448    4.9951    0.0952 H   0  0  0  0  0  0  0  0  0  0  0  0
   -0.6116    2.9414   -0.5863 C   0  0  0  0  0  0  0  0  0  0  0  0
   -1.5117    3.1044   -1.1948 H   0  0  0  0  0  0  0  0  0  0  0  0
   -0.0041    1.6675   -0.5646 C   0  0  0  0  0  0  0  0  0  0  0  0
   -2.3239    0.5588   -1.7253 C   0  0  0  0  0  0  0  0  0  0  0  0
   -2.5367    1.4286   -2.3768 H   0  0  0  0  0  0  0  0  0  0  0  0
   -2.5946   -0.3969   -2.2454 H   0  0  0  0  0  0  0  0  0  0  0  0
   -3.0268    0.6311   -0.3973 C   0  0  1  0  0  3  0  0  0  0  0  0
   -4.0512    1.5507   -0.1260 C   0  0  0  0  0  0  0  0  0  0  0  0
   -4.3640    2.2673   -0.9008 H   0  0  0  0  0  0  0  0  0  0  0  0
   -4.6632    1.5403    1.1378 C   0  0  0  0  0  0  0  0  0  0  0  0
   -5.4680    2.2528    1.3732 H   0  0  0  0  0  0  0  0  0  0  0  0
   -4.2184    0.6157    2.0963 C   0  0  0  0  0  0  0  0  0  0  0  0
   -4.6512    0.5880    3.1071 H   0  0  0  0  0  0  0  0  0  0  0  0
   -3.1923   -0.2710    1.7490 C   0  0  0  0  0  0  0  0  0  0  0  0
   -2.7781   -1.0029    2.4630 H   0  0  0  0  0  0  0  0  0  0  0  0
  1 33  1  0  0  0  0
  2  3  1  0  0  0  0
  4 12  1  0  0  0  0
  5 20  1  0  0  0  0
  5  7  1  0  0  0  0
  6 44  1  0  0  0  0
  7  2  1  0  0  0  0
  7  4  1  0  0  0  0
  8 10  1  0  0  0  0
  8 11  1  0  0  0  0
  8  4  1  0  0  0  0
  9  8  1  0  0  0  0
 12 15  1  0  0  0  0
 12 13  1  0  0  0  0
 12 14  1  0  0  0  0
 16 19  1  0  0  0  0
 16  5  1  0  0  0  0
 17 16  1  0  0  0  0
 18 16  1  0  0  0  0
 20 21  1  0  0  0  0
 22 20  1  0  0  0  0
 23 20  1  0  0  0  0
 24  2  1  0  0  0  0
 24 25  1  0  0  0  0
 25 26  1  0  0  0  0
 27 25  2  0  0  0  0
 27 28  1  0  0  0  0
 29 27  1  0  0  0  0
 30 29  1  0  0  0  0
 31 33  1  0  0  0  0
 31 29  2  0  0  0  0
 32 31  1  0  0  0  0
 33 24  2  0  0  0  0
 34  1  1  0  0  0  0
 35 34  1  0  0  0  0
 36 34  1  0  0  0  0
 37 34  1  6  0  0  0
 37 38  1  0  0  0  0
 37  6  1  0  0  0  0
 38 40  2  0  0  0  0
 39 38  1  0  0  0  0
 40 41  1  0  0  0  0
 40 42  1  0  0  0  0
 42 43  1  0  0  0  0
 44 42  2  0  0  0  0
 44 45  1  0  0  0  0
M  END
