1,3
 OpenBabel05122313063D

 22 22  0  0  1  0  0  0  0  0999 V2000
   -2.2663    2.3830    0.2319 S   0  0  0  0  0  1  0  0  0  0  0  0
   -4.8520    1.1047   -0.1733 S   0  0  0  0  0  0  0  0  0  0  0  0
   -1.3189   -0.2249   -1.1717 N   0  0  0  0  0  2  0  0  0  0  0  0
   -2.6541   -0.1009   -0.9961 N   0  0  0  0  0  0  0  0  0  0  0  0
    1.3154   -0.4864   -1.9075 O   0  0  0  0  0  0  0  0  0  0  0  0
    2.5767   -0.9009   -2.1978 C   0  0  0  0  0  0  0  0  0  0  0  0
    3.3482   -0.1233   -2.1742 H   0  0  0  0  0  0  0  0  0  0  0  0
    2.5874   -2.2582   -2.4377 C   0  0  0  0  0  0  0  0  0  0  0  0
    3.4607   -2.8652   -2.6994 H   0  0  0  0  0  0  0  0  0  0  0  0
    1.2372   -2.7017   -2.2828 C   0  0  0  0  0  0  0  0  0  0  0  0
    0.8631   -3.7246   -2.3929 H   0  0  0  0  0  0  0  0  0  0  0  0
    0.4844   -1.5790   -1.9502 C   0  0  0  0  0  0  0  0  0  0  0  0
   -0.9178   -1.3853   -1.6596 C   0  0  1  0  0  3  0  0  0  0  0  0
   -1.8845   -2.5067   -1.9091 C   0  0  0  0  0  0  0  0  0  0  0  0
   -2.4049   -2.7663   -0.9645 H   0  0  0  0  0  0  0  0  0  0  0  0
   -1.3899   -3.4036   -2.3209 H   0  0  0  0  0  0  0  0  0  0  0  0
   -2.6745   -2.1711   -2.6106 H   0  0  0  0  0  0  0  0  0  0  0  0
   -3.1018    0.9949   -0.4128 C   0  0  0  0  0  0  0  0  0  0  0  0
   -5.4363   -0.4446   -0.9266 C   0  0  0  0  0  0  0  0  0  0  0  0
   -6.5364   -0.4414   -0.8040 H   0  0  0  0  0  0  0  0  0  0  0  0
   -4.9926   -1.3172   -0.4113 H   0  0  0  0  0  0  0  0  0  0  0  0
   -5.1709   -0.4818   -1.9997 H   0  0  0  0  0  0  0  0  0  0  0  0
  3  4  1  0  0  0  0
  4 18  2  0  0  0  0
  6  7  1  0  0  0  0
  6  5  1  0  0  0  0
  8 10  1  0  0  0  0
  8  6  2  0  0  0  0
  9  8  1  0  0  0  0
 10 12  2  0  0  0  0
 11 10  1  0  0  0  0
 12  5  1  0  0  0  0
 12 13  1  0  0  0  0
 13  3  1  1  0  0  0
 14 13  1  0  0  0  0
 14 15  1  0  0  0  0
 16 14  1  0  0  0  0
 17 14  1  0  0  0  0
 18  2  1  0  0  0  0
 18  1  1  0  0  0  0
 19 20  1  0  0  0  0
 19 21  1  0  0  0  0
 19  2  1  0  0  0  0
 22 19  1  0  0  0  0
M  END
