1,2
 OpenBabel05122313063D

 32 33  0  0  1  0  0  0  0  0999 V2000
    2.8733   -0.8626   -1.1122 S   0  0  0  0  0  1  0  0  0  0  0  0
    1.0649   -0.7526    1.2346 N   0  0  0  0  0  2  0  0  0  0  0  0
    4.5487   -1.5391    0.8794 N   0  0  0  0  0  0  0  0  0  0  0  0
    2.3330   -1.1711    1.4930 N   0  0  0  0  0  0  0  0  0  0  0  0
    2.5339   -1.5514    2.4241 H   0  0  0  0  0  0  0  0  0  0  0  0
   -1.4917    0.4827    1.2912 N   0  0  0  0  0  0  0  0  0  0  0  0
   -1.2473   -0.6252    1.9908 C   0  0  0  0  0  0  0  0  0  0  0  0
    3.2925   -1.2068    0.4949 C   0  0  2  0  0  3  0  0  0  0  0  0
    0.1348   -1.0976    2.0829 C   0  0  0  0  0  3  0  0  0  0  0  0
    0.3774   -1.8008    2.9047 H   0  0  0  0  0  0  0  0  0  0  0  0
   -3.8843    0.2018    1.7703 C   0  0  0  0  0  0  0  0  0  0  0  0
   -2.7713    0.9255    1.1916 C   0  0  0  0  0  0  0  0  0  0  0  0
   -2.2682   -1.3779    2.6518 C   0  0  0  0  0  0  0  0  0  0  0  0
   -2.0070   -2.2747    3.2332 H   0  0  0  0  0  0  0  0  0  0  0  0
   -3.0276    2.1478    0.4959 C   0  0  0  0  0  0  0  0  0  0  0  0
   -2.1685    2.7095    0.1024 H   0  0  0  0  0  0  0  0  0  0  0  0
   -3.5838   -0.9723    2.5158 C   0  0  0  0  0  0  0  0  0  0  0  0
   -4.4015   -1.5414    2.9843 H   0  0  0  0  0  0  0  0  0  0  0  0
   -5.4232    1.8740    0.8900 C   0  0  0  0  0  0  0  0  0  0  0  0
   -6.4469    2.2551    0.7591 H   0  0  0  0  0  0  0  0  0  0  0  0
   -5.2063    0.6980    1.5931 C   0  0  0  0  0  0  0  0  0  0  0  0
   -6.0493    0.1411    2.0305 H   0  0  0  0  0  0  0  0  0  0  0  0
   -4.3275    2.6054    0.3499 C   0  0  0  0  0  0  0  0  0  0  0  0
   -4.5196    3.5487   -0.1835 H   0  0  0  0  0  0  0  0  0  0  0  0
    4.8853   -1.7354    2.2854 C   0  0  0  0  0  0  0  0  0  0  0  0
    4.5677   -0.8658    2.8993 H   0  0  0  0  0  0  0  0  0  0  0  0
    5.9798   -1.8320    2.3861 H   0  0  0  0  0  0  0  0  0  0  0  0
    4.4307   -2.6632    2.7017 H   0  0  0  0  0  0  0  0  0  0  0  0
    5.5829   -1.6651   -0.1477 C   0  0  0  0  0  0  0  0  0  0  0  0
    6.5092   -2.0388    0.3225 H   0  0  0  0  0  0  0  0  0  0  0  0
    5.7792   -0.6861   -0.6317 H   0  0  0  0  0  0  0  0  0  0  0  0
    5.2625   -2.3734   -0.9382 H   0  0  0  0  0  0  0  0  0  0  0  0
  2  4  1  0  0  0  0
  2  9  1  0  0  0  0
  3 25  1  0  0  0  0
  4  5  1  0  0  0  0
  6  7  1  0  0  0  0
  7  9  1  0  0  0  0
  7 13  2  0  0  0  0
  8  1  1  6  0  0  0
  8  3  1  0  0  0  0
  8  4  1  0  0  0  0
  9 10  1  0  0  0  0
 11 17  2  0  0  0  0
 12  6  2  0  0  0  0
 12 11  1  0  0  0  0
 13 14  1  0  0  0  0
 15 12  1  0  0  0  0
 16 15  1  0  0  0  0
 17 13  1  0  0  0  0
 17 18  1  0  0  0  0
 19 21  2  0  0  0  0
 20 19  1  0  0  0  0
 21 11  1  0  0  0  0
 21 22  1  0  0  0  0
 23 15  2  0  0  0  0
 23 19  1  0  0  0  0
 24 23  1  0  0  0  0
 25 27  1  0  0  0  0
 25 28  1  0  0  0  0
 25 26  1  0  0  0  0
 29 30  1  0  0  0  0
 29  3  1  0  0  0  0
 31 29  1  0  0  0  0
 32 29  1  0  0  0  0
M  END
