1,2
 OpenBabel05122313063D

 14 14  0  0  1  0  0  0  0  0999 V2000
   -1.0315    1.9839    1.5250 S   0  0  0  0  0  1  0  0  0  0  0  0
   -1.6299   -0.4713   -0.2096 N   0  0  0  0  0  2  0  0  0  0  0  0
   -2.6439    0.4144   -0.2558 C   0  0  1  0  0  3  0  0  0  0  0  0
   -3.7232    0.2050   -1.1394 C   0  0  0  0  0  0  0  0  0  0  0  0
   -4.5471    0.9337   -1.1728 H   0  0  0  0  0  0  0  0  0  0  0  0
   -3.7320   -0.9286   -1.9589 C   0  0  0  0  0  0  0  0  0  0  0  0
   -4.5650   -1.1004   -2.6578 H   0  0  0  0  0  0  0  0  0  0  0  0
   -2.6698   -1.8469   -1.8765 C   0  0  0  0  0  0  0  0  0  0  0  0
   -2.6455   -2.7539   -2.4973 H   0  0  0  0  0  0  0  0  0  0  0  0
   -1.6345   -1.5776   -0.9793 C   0  0  0  0  0  0  0  0  0  0  0  0
   -0.7693   -2.2487   -0.8274 H   0  0  0  0  0  0  0  0  0  0  0  0
   -2.6176    1.5914    0.6948 C   0  0  0  0  0  0  0  0  0  0  0  0
   -3.3953    1.3923    1.4680 H   0  0  0  0  0  0  0  0  0  0  0  0
   -2.9699    2.4914    0.1471 H   0  0  0  0  0  0  0  0  0  0  0  0
  3  2  1  0  0  0  0
  3 12  1  1  0  0  0
  4  3  1  0  0  0  0
  5  4  1  0  0  0  0
  6  8  1  0  0  0  0
  6  4  2  0  0  0  0
  7  6  1  0  0  0  0
  8 10  2  0  0  0  0
  9  8  1  0  0  0  0
 10 11  1  0  0  0  0
 10  2  1  0  0  0  0
 12 13  1  0  0  0  0
 12  1  1  0  0  0  0
 14 12  1  0  0  0  0
M  END
