1,2
 OpenBabel05122313063D

 33 34  0  0  0  0  0  0  0  0999 V2000
    1.1368   -0.1423   -1.5960 S   0  0  0  0  0  0  0  0  0  0  0  0
   -1.6697   -0.4220   -0.3325 N   0  0  0  0  0  0  0  0  0  0  0  0
    2.0899   -2.1107    0.0388 N   0  0  0  0  0  0  0  0  0  0  0  0
    3.3889   -0.0679    0.0128 C   0  0  0  0  0  0  0  0  0  0  0  0
    3.4726    0.9688   -0.3453 H   0  0  0  0  0  0  0  0  0  0  0  0
    4.2823   -0.6241    0.9336 C   0  0  0  0  0  0  0  0  0  0  0  0
    5.1381   -0.0323    1.2917 H   0  0  0  0  0  0  0  0  0  0  0  0
    4.0717   -1.9345    1.3979 C   0  0  0  0  0  0  0  0  0  0  0  0
    4.7562   -2.4019    2.1204 H   0  0  0  0  0  0  0  0  0  0  0  0
    2.9585   -2.6379    0.9217 C   0  0  0  0  0  0  0  0  0  0  0  0
    2.7478   -3.6666    1.2604 H   0  0  0  0  0  0  0  0  0  0  0  0
    2.3066   -0.8726   -0.3903 C   0  0  0  0  0  0  0  0  0  0  0  0
   -0.0060   -1.5626   -1.8478 C   0  0  0  0  0  0  0  0  0  0  0  0
    0.1337   -1.9378   -2.8801 H   0  0  0  0  0  0  0  0  0  0  0  0
    0.3386   -2.3425   -1.1353 H   0  0  0  0  0  0  0  0  0  0  0  0
   -1.4393   -1.1131   -1.6348 C   0  0  0  0  0  0  0  0  0  0  0  0
   -2.1056   -1.9984   -1.7343 H   0  0  0  0  0  0  0  0  0  0  0  0
   -1.7386   -0.3948   -2.4240 H   0  0  0  0  0  0  0  0  0  0  0  0
   -1.4573   -1.3026    0.8629 C   0  0  0  0  0  0  0  0  0  0  0  0
   -1.5088   -0.6167    1.7332 H   0  0  0  0  0  0  0  0  0  0  0  0
   -0.4252   -1.7029    0.8229 H   0  0  0  0  0  0  0  0  0  0  0  0
   -2.4996   -2.4174    0.9947 C   0  0  0  0  0  0  0  0  0  0  0  0
   -2.3945   -3.1523    0.1658 H   0  0  0  0  0  0  0  0  0  0  0  0
   -2.2847   -2.9799    1.9268 H   0  0  0  0  0  0  0  0  0  0  0  0
   -3.9199   -1.8399    1.0149 C   0  0  0  0  0  0  0  0  0  0  0  0
   -4.6761   -2.6509    1.0523 H   0  0  0  0  0  0  0  0  0  0  0  0
   -4.0510   -1.2382    1.9411 H   0  0  0  0  0  0  0  0  0  0  0  0
   -4.1482   -0.9365   -0.2031 C   0  0  0  0  0  0  0  0  0  0  0  0
   -5.1286   -0.4216   -0.1346 H   0  0  0  0  0  0  0  0  0  0  0  0
   -4.1922   -1.5506   -1.1299 H   0  0  0  0  0  0  0  0  0  0  0  0
   -3.0608    0.1379   -0.3023 C   0  0  0  0  0  0  0  0  0  0  0  0
   -3.1811    0.7710   -1.2032 H   0  0  0  0  0  0  0  0  0  0  0  0
   -3.0903    0.8178    0.5730 H   0  0  0  0  0  0  0  0  0  0  0  0
  1 12  1  0  0  0  0
  2 31  1  0  0  0  0
  2 19  1  0  0  0  0
  3 10  1  0  0  0  0
  4  6  2  0  0  0  0
  5  4  1  0  0  0  0
  6  7  1  0  0  0  0
  6  8  1  0  0  0  0
  8  9  1  0  0  0  0
 10 11  1  0  0  0  0
 10  8  2  0  0  0  0
 12  4  1  0  0  0  0
 12  3  2  0  0  0  0
 13 16  1  0  0  0  0
 13  1  1  0  0  0  0
 13 15  1  0  0  0  0
 14 13  1  0  0  0  0
 16  2  1  0  0  0  0
 17 16  1  0  0  0  0
 18 16  1  0  0  0  0
 19 22  1  0  0  0  0
 19 20  1  0  0  0  0
 21 19  1  0  0  0  0
 22 25  1  0  0  0  0
 22 24  1  0  0  0  0
 23 22  1  0  0  0  0
 25 26  1  0  0  0  0
 25 27  1  0  0  0  0
 28 29  1  0  0  0  0
 28 25  1  0  0  0  0
 30 28  1  0  0  0  0
 31 28  1  0  0  0  0
 31 33  1  0  0  0  0
 32 31  1  0  0  0  0
M  END
