1,2
 OpenBabel05122313063D

 31 32  0  0  0  0  0  0  0  0999 V2000
    1.2155   -0.0391    1.4746 S   0  0  0  0  0  0  0  0  0  0  0  0
   -1.4521   -0.7400    0.0410 N   0  0  0  0  0  0  0  0  0  0  0  0
    2.6370   -2.0003    0.2555 N   0  0  0  0  0  0  0  0  0  0  0  0
   -4.1091   -1.7715   -0.5989 O   0  0  0  0  0  0  0  0  0  0  0  0
    3.2524    0.2624   -0.3765 C   0  0  0  0  0  0  0  0  0  0  0  0
    3.0249    1.3385   -0.2881 H   0  0  0  0  0  0  0  0  0  0  0  0
    4.2601   -0.2418   -1.2053 C   0  0  0  0  0  0  0  0  0  0  0  0
    4.8903    0.4498   -1.7848 H   0  0  0  0  0  0  0  0  0  0  0  0
    4.4492   -1.6326   -1.2954 C   0  0  0  0  0  0  0  0  0  0  0  0
    5.2306   -2.0621   -1.9389 H   0  0  0  0  0  0  0  0  0  0  0  0
    3.6088   -2.4697   -0.5502 C   0  0  0  0  0  0  0  0  0  0  0  0
    3.7144   -3.5671   -0.5993 H   0  0  0  0  0  0  0  0  0  0  0  0
    2.4809   -0.6807    0.3290 C   0  0  0  0  0  0  0  0  0  0  0  0
    0.2243   -1.5595    1.7451 C   0  0  0  0  0  0  0  0  0  0  0  0
    0.9318   -2.3853    1.9531 H   0  0  0  0  0  0  0  0  0  0  0  0
   -0.3755   -1.3478    2.6520 H   0  0  0  0  0  0  0  0  0  0  0  0
   -0.6080   -1.8794    0.5191 C   0  0  0  0  0  0  0  0  0  0  0  0
    0.0782   -2.1487   -0.3071 H   0  0  0  0  0  0  0  0  0  0  0  0
   -1.2355   -2.7738    0.7244 H   0  0  0  0  0  0  0  0  0  0  0  0
   -1.9277   -0.9975   -1.3572 C   0  0  0  0  0  0  0  0  0  0  0  0
   -1.0483   -1.2502   -1.9818 H   0  0  0  0  0  0  0  0  0  0  0  0
   -2.3416   -0.0343   -1.7187 H   0  0  0  0  0  0  0  0  0  0  0  0
   -2.9964   -2.0890   -1.4173 C   0  0  0  0  0  0  0  0  0  0  0  0
   -3.3698   -2.1690   -2.4578 H   0  0  0  0  0  0  0  0  0  0  0  0
   -2.5795   -3.0902   -1.1371 H   0  0  0  0  0  0  0  0  0  0  0  0
   -3.7128   -1.6023    0.7484 C   0  0  0  0  0  0  0  0  0  0  0  0
   -3.3478   -2.5727    1.1738 H   0  0  0  0  0  0  0  0  0  0  0  0
   -4.6161   -1.3143    1.3226 H   0  0  0  0  0  0  0  0  0  0  0  0
   -2.6610   -0.5006    0.8952 C   0  0  0  0  0  0  0  0  0  0  0  0
   -2.3433   -0.3817    1.9498 H   0  0  0  0  0  0  0  0  0  0  0  0
   -3.0769    0.4682    0.5521 H   0  0  0  0  0  0  0  0  0  0  0  0
  1 14  1  0  0  0  0
  2 17  1  0  0  0  0
  2 29  1  0  0  0  0
  3 13  1  0  0  0  0
  4 26  1  0  0  0  0
  5  6  1  0  0  0  0
  5 13  2  0  0  0  0
  7  5  1  0  0  0  0
  8  7  1  0  0  0  0
  9  7  2  0  0  0  0
  9 11  1  0  0  0  0
 10  9  1  0  0  0  0
 11  3  2  0  0  0  0
 12 11  1  0  0  0  0
 13  1  1  0  0  0  0
 14 15  1  0  0  0  0
 14 16  1  0  0  0  0
 17 19  1  0  0  0  0
 17 14  1  0  0  0  0
 18 17  1  0  0  0  0
 20  2  1  0  0  0  0
 21 20  1  0  0  0  0
 22 20  1  0  0  0  0
 23 20  1  0  0  0  0
 23 25  1  0  0  0  0
 23  4  1  0  0  0  0
 24 23  1  0  0  0  0
 26 29  1  0  0  0  0
 26 27  1  0  0  0  0
 26 28  1  0  0  0  0
 29 30  1  0  0  0  0
 31 29  1  0  0  0  0
M  END
