1,2
 OpenBabel05122313063D

 23 23  0  0  0  0  0  0  0  0999 V2000
    0.3542   -2.4504    0.1453 S   0  0  0  0  0  1  0  0  0  0  0  0
   -1.5235   -0.1214   -0.2089 N   0  0  0  0  0  0  0  0  0  0  0  0
   -1.3359   -2.4703    0.3329 C   0  0  0  0  0  3  0  0  0  0  0  0
   -1.8112   -3.4389    0.5637 H   0  0  0  0  0  0  0  0  0  0  0  0
   -2.1211   -1.3385    0.1580 C   0  0  0  0  0  3  0  0  0  0  0  0
   -3.5594   -1.2183    0.1245 C   0  0  0  0  0  0  0  0  0  0  0  0
   -3.8193    0.0800   -0.3191 C   0  0  0  0  0  0  0  0  0  0  0  0
   -2.5312    0.7091   -0.5266 C   0  0  0  0  0  0  0  0  0  0  0  0
   -4.5398   -2.2909    0.4803 C   0  0  0  0  0  0  0  0  0  0  0  0
   -5.5655   -2.0274    0.1556 H   0  0  0  0  0  0  0  0  0  0  0  0
   -4.5776   -2.4657    1.5772 H   0  0  0  0  0  0  0  0  0  0  0  0
   -4.2795   -3.2619    0.0104 H   0  0  0  0  0  0  0  0  0  0  0  0
   -5.1517    0.7399   -0.5293 C   0  0  0  0  0  0  0  0  0  0  0  0
   -5.9241   -0.0372   -0.7114 H   0  0  0  0  0  0  0  0  0  0  0  0
   -5.1241    1.3551   -1.4557 H   0  0  0  0  0  0  0  0  0  0  0  0
   -5.5924    1.6240    0.6497 C   0  0  0  0  0  0  0  0  0  0  0  0
   -6.5757    2.1000    0.4564 H   0  0  0  0  0  0  0  0  0  0  0  0
   -4.8578    2.4324    0.8438 H   0  0  0  0  0  0  0  0  0  0  0  0
   -5.6759    1.0276    1.5807 H   0  0  0  0  0  0  0  0  0  0  0  0
   -2.3442    2.0668   -1.1226 C   0  0  0  0  0  0  0  0  0  0  0  0
   -1.3056    2.2059   -1.4714 H   0  0  0  0  0  0  0  0  0  0  0  0
   -2.5984    2.8850   -0.4140 H   0  0  0  0  0  0  0  0  0  0  0  0
   -3.0144    2.1976   -1.9972 H   0  0  0  0  0  0  0  0  0  0  0  0
  1  3  1  0  0  0  0
  2  5  1  0  0  0  0
  3  4  1  0  0  0  0
  5  3  1  0  0  0  0
  6  5  1  0  0  0  0
  6  9  1  0  0  0  0
  7  6  2  0  0  0  0
  8  7  1  0  0  0  0
  8  2  2  0  0  0  0
  9 11  1  0  0  0  0
 10  9  1  0  0  0  0
 12  9  1  0  0  0  0
 13  7  1  0  0  0  0
 13 16  1  0  0  0  0
 14 13  1  0  0  0  0
 15 13  1  0  0  0  0
 16 18  1  0  0  0  0
 16 19  1  0  0  0  0
 17 16  1  0  0  0  0
 20  8  1  0  0  0  0
 20 22  1  0  0  0  0
 21 20  1  0  0  0  0
 23 20  1  0  0  0  0
M  END
