2,5
 OpenBabel05122313063D

 61 65  0  0  1  0  0  0  0  0999 V2000
   -4.8969   -0.4414   -0.0779 S   0  0  0  0  0  0  0  0  0  0  0  0
    1.5682   -1.8638    0.6386 S   0  0  0  0  0  0  0  0  0  0  0  0
   -1.7515    0.8375    0.9675 O   0  0  0  0  0  0  0  0  0  0  0  0
    2.9307    0.5099   -1.3893 O   0  0  0  0  0  0  0  0  0  0  0  0
    0.9114    1.5524    0.4259 N   0  0  0  0  0  2  0  0  0  0  0  0
   -0.8547    1.0549    2.0409 C   0  0  0  0  0  0  0  0  0  0  0  0
   -0.5645    0.0330    2.3672 H   0  0  0  0  0  0  0  0  0  0  0  0
   -1.3610    1.5586    2.8948 H   0  0  0  0  0  0  0  0  0  0  0  0
   -2.3691    1.9135    0.3778 C   0  0  0  0  0  0  0  0  0  0  0  0
   -2.2048    3.2468    0.7936 C   0  0  0  0  0  0  0  0  0  0  0  0
   -1.5553    3.4975    1.6410 H   0  0  0  0  0  0  0  0  0  0  0  0
   -2.8721    4.2805    0.1141 C   0  0  0  0  0  0  0  0  0  0  0  0
   -2.7321    5.3197    0.4489 H   0  0  0  0  0  0  0  0  0  0  0  0
   -3.6987    3.9937   -0.9786 C   0  0  0  0  0  0  0  0  0  0  0  0
   -4.2140    4.8027   -1.5168 H   0  0  0  0  0  0  0  0  0  0  0  0
   -3.8689    2.6579   -1.3767 C   0  0  0  0  0  0  0  0  0  0  0  0
   -4.5276    2.4137   -2.2248 H   0  0  0  0  0  0  0  0  0  0  0  0
   -3.2209    1.6030   -0.7144 C   0  0  0  0  0  0  0  0  0  0  0  0
   -3.4744    0.1719   -1.0833 C   0  0  0  0  0  0  0  0  0  0  0  0
   -2.5850   -0.4480   -0.8603 H   0  0  0  0  0  0  0  0  0  0  0  0
   -3.7047    0.0695   -2.1619 H   0  0  0  0  0  0  0  0  0  0  0  0
   -4.4956   -2.2361   -0.0084 C   0  0  0  0  0  0  0  0  0  0  0  0
   -5.3985   -2.6956    0.4426 H   0  0  0  0  0  0  0  0  0  0  0  0
   -4.3926   -2.6312   -1.0393 H   0  0  0  0  0  0  0  0  0  0  0  0
   -3.2665   -2.5203    0.8125 C   0  0  0  0  0  0  0  0  0  0  0  0
   -3.3052   -2.4483    2.2201 C   0  0  0  0  0  0  0  0  0  0  0  0
   -4.2538   -2.1998    2.7213 H   0  0  0  0  0  0  0  0  0  0  0  0
   -2.1491   -2.6812    2.9758 C   0  0  0  0  0  0  0  0  0  0  0  0
   -2.1945   -2.6411    4.0751 H   0  0  0  0  0  0  0  0  0  0  0  0
   -0.9320   -2.9695    2.3368 C   0  0  0  0  0  0  0  0  0  0  0  0
   -0.0222   -3.1489    2.9315 H   0  0  0  0  0  0  0  0  0  0  0  0
   -0.8684   -3.0215    0.9301 C   0  0  0  0  0  0  0  0  0  0  0  0
   -2.0406   -2.7987    0.1818 C   0  0  0  0  0  0  0  0  0  0  0  0
   -1.9797   -2.8211   -0.9178 H   0  0  0  0  0  0  0  0  0  0  0  0
    0.4386   -3.2593    0.2218 C   0  0  0  0  0  0  0  0  0  0  0  0
    0.3024   -3.2490   -0.8789 H   0  0  0  0  0  0  0  0  0  0  0  0
    0.9310   -4.2008    0.5448 H   0  0  0  0  0  0  0  0  0  0  0  0
    2.9183   -2.1414   -0.6051 C   0  0  0  0  0  0  0  0  0  0  0  0
    3.2192   -3.2044   -0.5237 H   0  0  0  0  0  0  0  0  0  0  0  0
    2.4721   -1.9455   -1.6026 H   0  0  0  0  0  0  0  0  0  0  0  0
    4.0709   -1.2347   -0.2862 C   0  0  0  0  0  0  0  0  0  0  0  0
    5.1864   -1.6944    0.4355 C   0  0  0  0  0  0  0  0  0  0  0  0
    5.2198   -2.7550    0.7308 H   0  0  0  0  0  0  0  0  0  0  0  0
    6.2382   -0.8353    0.7864 C   0  0  0  0  0  0  0  0  0  0  0  0
    7.1018   -1.2187    1.3490 H   0  0  0  0  0  0  0  0  0  0  0  0
    6.1734    0.5155    0.4171 C   0  0  0  0  0  0  0  0  0  0  0  0
    6.9894    1.2035    0.6853 H   0  0  0  0  0  0  0  0  0  0  0  0
    5.0707    1.0043   -0.3001 C   0  0  0  0  0  0  0  0  0  0  0  0
    5.0402    2.0616   -0.5942 H   0  0  0  0  0  0  0  0  0  0  0  0
    4.0231    0.1350   -0.6555 C   0  0  0  0  0  0  0  0  0  0  0  0
    2.5001    1.8761   -1.3770 C   0  0  0  0  0  0  0  0  0  0  0  0
    1.6646    1.8937   -2.1070 H   0  0  0  0  0  0  0  0  0  0  0  0
    3.3007    2.5636   -1.7220 H   0  0  0  0  0  0  0  0  0  0  0  0
    1.9863    2.2677   -0.0126 C   0  0  2  0  0  3  0  0  0  0  0  0
    2.5835    3.2598    0.7742 C   0  0  0  0  0  0  0  0  0  0  0  0
    3.4508    3.8129    0.3856 H   0  0  0  0  0  0  0  0  0  0  0  0
    2.0644    3.5332    2.0484 C   0  0  0  0  0  0  0  0  0  0  0  0
    2.5192    4.3034    2.6882 H   0  0  0  0  0  0  0  0  0  0  0  0
    0.9423    2.8130    2.4796 C   0  0  0  0  0  0  0  0  0  0  0  0
    0.4803    3.0154    3.4577 H   0  0  0  0  0  0  0  0  0  0  0  0
    0.3821    1.8388    1.6417 C   0  0  0  0  0  0  0  0  0  0  0  0
  1 22  1  0  0  0  0
  3  6  1  0  0  0  0
  4 51  1  0  0  0  0
  4 50  1  0  0  0  0
  5 61  1  0  0  0  0
  6  7  1  0  0  0  0
  6  8  1  0  0  0  0
  9 10  1  0  0  0  0
  9  3  1  0  0  0  0
 10 11  1  0  0  0  0
 12 13  1  0  0  0  0
 12 10  2  0  0  0  0
 14 12  1  0  0  0  0
 15 14  1  0  0  0  0
 16 14  2  0  0  0  0
 16 18  1  0  0  0  0
 17 16  1  0  0  0  0
 18  9  2  0  0  0  0
 19 20  1  0  0  0  0
 19 18  1  0  0  0  0
 19  1  1  0  0  0  0
 21 19  1  0  0  0  0
 22 23  1  0  0  0  0
 22 25  1  0  0  0  0
 24 22  1  0  0  0  0
 25 26  1  0  0  0  0
 26 27  1  0  0  0  0
 26 28  2  0  0  0  0
 28 29  1  0  0  0  0
 30 31  1  0  0  0  0
 30 28  1  0  0  0  0
 32 30  2  0  0  0  0
 33 25  2  0  0  0  0
 33 32  1  0  0  0  0
 34 33  1  0  0  0  0
 35 37  1  0  0  0  0
 35  2  1  0  0  0  0
 35 32  1  0  0  0  0
 36 35  1  0  0  0  0
 38 39  1  0  0  0  0
 38 41  1  0  0  0  0
 38  2  1  0  0  0  0
 40 38  1  0  0  0  0
 41 42  1  0  0  0  0
 42 43  1  0  0  0  0
 42 44  2  0  0  0  0
 44 45  1  0  0  0  0
 46 47  1  0  0  0  0
 46 44  1  0  0  0  0
 48 46  2  0  0  0  0
 49 48  1  0  0  0  0
 50 48  1  0  0  0  0
 50 41  2  0  0  0  0
 51 54  1  0  0  0  0
 52 51  1  0  0  0  0
 53 51  1  0  0  0  0
 54  5  1  1  0  0  0
 54 55  1  0  0  0  0
 55 57  2  0  0  0  0
 56 55  1  0  0  0  0
 57 59  1  0  0  0  0
 57 58  1  0  0  0  0
 59 60  1  0  0  0  0
 61  6  1  0  0  0  0
 61 59  2  0  0  0  0
M  END
