1,12
 OpenBabel05122313063D

 25 26  0  0  0  0  0  0  0  0999 V2000
   -2.0543   -0.2149    1.9938 S   0  0  0  0  0  1  0  0  0  0  0  0
   -2.8401    0.9812    0.9851 C   0  0  0  0  0  0  0  0  0  0  0  0
   -4.2489    1.1276    1.0675 C   0  0  0  0  0  0  0  0  0  0  0  0
   -4.7916    0.4774    1.7695 H   0  0  0  0  0  0  0  0  0  0  0  0
   -4.9398    2.0518    0.2822 C   0  0  0  0  0  0  0  0  0  0  0  0
   -6.0345    2.1283    0.3693 H   0  0  0  0  0  0  0  0  0  0  0  0
   -4.2455    2.8632   -0.6382 C   0  0  0  0  0  0  0  0  0  0  0  0
   -4.7883    3.5647   -1.2886 H   0  0  0  0  0  0  0  0  0  0  0  0
   -2.8582    2.7447   -0.7408 C   0  0  0  0  0  0  0  0  0  0  0  0
   -2.3163    3.3364   -1.4940 H   0  0  0  0  0  0  0  0  0  0  0  0
   -2.1365    1.8325    0.0678 C   0  0  0  0  0  0  0  0  0  0  0  0
   -0.7424    1.6814   -0.0682 N   0  0  0  0  0  2  0  0  0  0  0  0
    0.0091    2.6817   -0.4528 C   0  0  0  0  0  3  0  0  0  0  0  0
   -0.4337    3.6991   -0.4978 H   0  0  0  0  0  0  0  0  0  0  0  0
    1.4086    2.5717   -0.8291 C   0  0  0  0  0  0  0  0  0  0  0  0
    2.2125    3.7381   -0.8353 C   0  0  0  0  0  0  0  0  0  0  0  0
    1.7621    4.7051   -0.5612 H   0  0  0  0  0  0  0  0  0  0  0  0
    3.5710    3.6603   -1.1590 C   0  0  0  0  0  0  0  0  0  0  0  0
    4.1916    4.5687   -1.1443 H   0  0  0  0  0  0  0  0  0  0  0  0
    4.1418    2.4220   -1.5026 C   0  0  0  0  0  0  0  0  0  0  0  0
    5.2109    2.3619   -1.7570 H   0  0  0  0  0  0  0  0  0  0  0  0
    3.3477    1.2627   -1.5327 C   0  0  0  0  0  0  0  0  0  0  0  0
    3.7877    0.2921   -1.8056 H   0  0  0  0  0  0  0  0  0  0  0  0
    1.9925    1.3369   -1.2000 C   0  0  0  0  0  0  0  0  0  0  0  0
    1.3662    0.4357   -1.2522 H   0  0  0  0  0  0  0  0  0  0  0  0
  2  3  1  0  0  0  0
  2  1  1  0  0  0  0
  3  4  1  0  0  0  0
  5  6  1  0  0  0  0
  5  3  2  0  0  0  0
  7  5  1  0  0  0  0
  8  7  1  0  0  0  0
  9  7  2  0  0  0  0
  9 11  1  0  0  0  0
 10  9  1  0  0  0  0
 11  2  2  0  0  0  0
 12 11  1  0  0  0  0
 13 12  1  0  0  0  0
 14 13  1  0  0  0  0
 15 13  1  0  0  0  0
 16 15  1  0  0  0  0
 16 17  1  0  0  0  0
 18 19  1  0  0  0  0
 18 16  2  0  0  0  0
 20 18  1  0  0  0  0
 21 20  1  0  0  0  0
 22 20  2  0  0  0  0
 22 24  1  0  0  0  0
 23 22  1  0  0  0  0
 24 15  2  0  0  0  0
 25 24  1  0  0  0  0
M  END
