2,3
 OpenBabel05122313063D

  5  4  0  0  0  0  0  0  0  0999 V2000
    4.2526    0.6946   -0.6577 S   0  0  0  0  0  0  0  0  0  0  0  0
    2.9056   -1.0735    1.1132 S   0  0  0  0  0  1  0  0  0  0  0  0
    2.6597    1.0009   -1.0032 N   0  0  0  0  0  2  0  0  0  0  0  0
    4.2838   -0.4044    0.4688 N   0  0  0  0  0  2  0  0  0  0  0  0
    2.5724    1.7284   -1.7256 H   0  0  0  0  0  0  0  0  0  0  0  0
  1  4  1  0  0  0  0
  3  1  1  0  0  0  0
  4  2  1  0  0  0  0
  5  3  1  0  0  0  0
M  END
