1,2
 OpenBabel05122313063D

 14 14  0  0  1  0  0  0  0  0999 V2000
    1.5087    0.0530    2.1136 S   0  0  0  0  0  1  0  0  0  0  0  0
    2.2207    0.2400   -0.3595 N   0  0  0  0  0  2  0  0  0  0  0  0
    4.2370    1.4294   -1.1569 C   0  0  0  0  0  0  0  0  0  0  0  0
    4.9846    0.7120   -0.7580 H   0  0  0  0  0  0  0  0  0  0  0  0
    4.6803    1.9096   -2.0518 H   0  0  0  0  0  0  0  0  0  0  0  0
    2.4230    0.7953    0.8235 C   0  0  2  0  0  3  0  0  0  0  0  0
    3.2635    1.8435    1.0313 N   0  0  0  0  0  0  0  0  0  0  0  0
    3.3056    2.2370    1.9698 H   0  0  0  0  0  0  0  0  0  0  0  0
    2.9558    0.6772   -1.5358 C   0  0  0  0  0  0  0  0  0  0  0  0
    2.3012    1.3264   -2.1612 H   0  0  0  0  0  0  0  0  0  0  0  0
    3.1952   -0.2140   -2.1524 H   0  0  0  0  0  0  0  0  0  0  0  0
    3.9410    2.4848   -0.0862 C   0  0  0  0  0  0  0  0  0  0  0  0
    4.8794    2.9470    0.2811 H   0  0  0  0  0  0  0  0  0  0  0  0
    3.3096    3.2989   -0.5132 H   0  0  0  0  0  0  0  0  0  0  0  0
  2  6  1  0  0  0  0
  3  4  1  0  0  0  0
  3 12  1  0  0  0  0
  5  3  1  0  0  0  0
  6  7  1  0  0  0  0
  6  1  1  1  0  0  0
  7  8  1  0  0  0  0
  9  3  1  0  0  0  0
  9  2  1  0  0  0  0
 10  9  1  0  0  0  0
 11  9  1  0  0  0  0
 12 13  1  0  0  0  0
 12  7  1  0  0  0  0
 14 12  1  0  0  0  0
M  END
