1,2
 OpenBabel05122313063D

 27 27  0  0  0  0  0  0  0  0999 V2000
   -0.3186    2.0478    0.0455 S   0  0  0  0  0  1  0  0  0  0  0  0
   -2.2634   -0.1541    0.0276 N   0  0  0  0  0  2  0  0  0  0  0  0
   -2.8641    1.0651    0.1871 N   0  0  0  0  0  0  0  0  0  0  0  0
   -2.5922    3.3577    0.4410 N   0  0  0  0  0  0  0  0  0  0  0  0
   -1.9291    4.1280    0.3519 H   0  0  0  0  0  0  0  0  0  0  0  0
   -2.9937   -1.2420   -0.0719 C   0  0  0  0  0  3  0  0  0  0  0  0
   -2.3559   -2.1376   -0.1768 H   0  0  0  0  0  0  0  0  0  0  0  0
   -2.0669    2.1182    0.2366 C   0  0  0  0  0  0  0  0  0  0  0  0
   -5.4032    0.7233    0.1338 O   0  0  0  0  0  0  0  0  0  0  0  0
   -4.3880    0.9608    0.1711 H   0  0  0  0  0  0  0  0  0  0  0  0
   -4.4243   -1.5184   -0.0609 C   0  0  0  0  0  0  0  0  0  0  0  0
   -4.7296   -2.9082   -0.1709 C   0  0  0  0  0  0  0  0  0  0  0  0
   -3.8828   -3.6088   -0.2420 H   0  0  0  0  0  0  0  0  0  0  0  0
   -4.6530    3.7386   -0.9400 C   0  0  0  0  0  0  0  0  0  0  0  0
   -4.5941    2.7566   -1.4476 H   0  0  0  0  0  0  0  0  0  0  0  0
   -5.7255    4.0049   -0.8557 H   0  0  0  0  0  0  0  0  0  0  0  0
   -4.1532    4.4982   -1.5748 H   0  0  0  0  0  0  0  0  0  0  0  0
   -4.0165    3.6698    0.4502 C   0  0  0  0  0  0  0  0  0  0  0  0
   -4.5349    2.9093    1.0682 H   0  0  0  0  0  0  0  0  0  0  0  0
   -4.1308    4.6370    0.9812 H   0  0  0  0  0  0  0  0  0  0  0  0
   -6.0327   -3.3962   -0.1902 C   0  0  0  0  0  0  0  0  0  0  0  0
   -6.2216   -4.4758   -0.2755 H   0  0  0  0  0  0  0  0  0  0  0  0
   -5.5300   -0.5968    0.0307 C   0  0  0  0  0  0  0  0  0  0  0  0
   -7.1010   -2.4808   -0.1005 C   0  0  0  0  0  0  0  0  0  0  0  0
   -8.1414   -2.8411   -0.1149 H   0  0  0  0  0  0  0  0  0  0  0  0
   -6.8497   -1.1142    0.0072 C   0  0  0  0  0  0  0  0  0  0  0  0
   -7.6688   -0.3839    0.0782 H   0  0  0  0  0  0  0  0  0  0  0  0
  1  8  1  0  0  0  0
  2  3  1  0  0  0  0
  3  8  2  0  0  0  0
  4 18  1  0  0  0  0
  5  4  1  0  0  0  0
  6 11  1  0  0  0  0
  6  2  1  0  0  0  0
  7  6  1  0  0  0  0
  8  4  1  0  0  0  0
  9 10  1  0  0  0  0
 11 23  1  0  0  0  0
 12 11  2  0  0  0  0
 13 12  1  0  0  0  0
 14 16  1  0  0  0  0
 14 18  1  0  0  0  0
 15 14  1  0  0  0  0
 17 14  1  0  0  0  0
 18 20  1  0  0  0  0
 18 19  1  0  0  0  0
 21 12  1  0  0  0  0
 21 24  2  0  0  0  0
 22 21  1  0  0  0  0
 23  9  1  0  0  0  0
 24 26  1  0  0  0  0
 25 24  1  0  0  0  0
 26 23  2  0  0  0  0
 26 27  1  0  0  0  0
M  END
