1,2
 OpenBabel05122313063D

 23 23  0  0  1  0  0  0  0  0999 V2000
    2.3304   -1.3298   -0.0832 S   0  0  0  0  0  1  0  0  0  0  0  0
    2.0681    1.1965    0.2928 N   0  0  0  0  0  2  0  0  0  0  0  0
    3.0508    0.2483    0.2003 C   0  0  1  0  0  3  0  0  0  0  0  0
    4.4278    0.5747    0.3379 C   0  0  0  0  0  0  0  0  0  0  0  0
    4.7117    1.9218    0.6231 C   0  0  0  0  0  0  0  0  0  0  0  0
    5.7596    2.2389    0.7477 H   0  0  0  0  0  0  0  0  0  0  0  0
    3.6900    2.8831    0.7650 C   0  0  0  0  0  0  0  0  0  0  0  0
    3.9173    3.9301    1.0082 H   0  0  0  0  0  0  0  0  0  0  0  0
    2.3676    2.4747    0.5871 C   0  0  0  0  0  0  0  0  0  0  0  0
    1.5187    3.1680    0.6908 H   0  0  0  0  0  0  0  0  0  0  0  0
    5.5754   -2.0636    1.4799 C   0  0  0  0  0  0  0  0  0  0  0  0
    5.6854   -1.6248    2.4924 H   0  0  0  0  0  0  0  0  0  0  0  0
    6.3358   -2.8635    1.3653 H   0  0  0  0  0  0  0  0  0  0  0  0
    4.5695   -2.5239    1.4129 H   0  0  0  0  0  0  0  0  0  0  0  0
    5.6729   -1.4909   -1.5847 C   0  0  0  0  0  0  0  0  0  0  0  0
    5.8204   -0.7143   -2.3628 H   0  0  0  0  0  0  0  0  0  0  0  0
    4.6771   -1.9526   -1.7389 H   0  0  0  0  0  0  0  0  0  0  0  0
    6.4463   -2.2735   -1.7281 H   0  0  0  0  0  0  0  0  0  0  0  0
    7.4657    0.1208    0.3595 C   0  0  0  0  0  0  0  0  0  0  0  0
    7.5700    0.5782    1.3648 H   0  0  0  0  0  0  0  0  0  0  0  0
    7.6227    0.9126   -0.4015 H   0  0  0  0  0  0  0  0  0  0  0  0
    8.2858   -0.6177    0.2449 H   0  0  0  0  0  0  0  0  0  0  0  0
    5.7959   -0.7445    0.1476 Si  0  0  0  0  0  0  0  0  0  0  0  0
  2  9  1  0  0  0  0
  3  1  1  1  0  0  0
  3  2  1  0  0  0  0
  3  4  1  0  0  0  0
  4  5  2  0  0  0  0
  5  6  1  0  0  0  0
  5  7  1  0  0  0  0
  7  8  1  0  0  0  0
  9 10  1  0  0  0  0
  9  7  2  0  0  0  0
 11 12  1  0  0  0  0
 13 11  1  0  0  0  0
 14 11  1  0  0  0  0
 15 23  1  0  0  0  0
 16 15  1  0  0  0  0
 17 15  1  0  0  0  0
 18 15  1  0  0  0  0
 19 20  1  0  0  0  0
 21 19  1  0  0  0  0
 22 19  1  0  0  0  0
 23  4  1  0  0  0  0
 23 19  1  0  0  0  0
 23 11  1  0  0  0  0
M  END
