1,3
 OpenBabel05122313063D

 40 41  0  0  0  0  0  0  0  0999 V2000
    0.8020   -1.1729    1.4225 S   0  0  0  0  0  1  0  0  0  0  0  0
    2.3425   -2.1347    0.4203 P   0  0  0  0  0  4  0  0  0  0  0  0
    1.5780    0.5336   -1.2524 N   0  0  0  0  0  2  0  0  0  0  0  0
    1.2531    1.7062   -1.9040 C   0  0  0  0  0  0  0  0  0  0  0  0
   -0.0862    2.1729   -1.7897 C   0  0  0  0  0  0  0  0  0  0  0  0
   -0.8723    1.5161   -1.3543 H   0  0  0  0  0  0  0  0  0  0  0  0
   -0.4530    3.4179   -2.3008 C   0  0  0  0  0  0  0  0  0  0  0  0
   -1.4892    3.7685   -2.1812 H   0  0  0  0  0  0  0  0  0  0  0  0
    0.4887    4.2075   -2.9979 C   0  0  0  0  0  0  0  0  0  0  0  0
    0.1885    5.1775   -3.4208 H   0  0  0  0  0  0  0  0  0  0  0  0
    1.7973    3.7448   -3.1575 C   0  0  0  0  0  3  0  0  0  0  0  0
    2.5375    4.3475   -3.7077 H   0  0  0  0  0  0  0  0  0  0  0  0
    2.2081    2.5075   -2.6073 C   0  0  0  0  0  0  0  0  0  0  0  0
    3.5443    1.9856   -2.6846 C   0  0  0  0  0  0  0  0  0  0  0  0
    4.3124    2.5453   -3.2410 H   0  0  0  0  0  0  0  0  0  0  0  0
    3.8512    0.8086   -2.0556 C   0  0  0  0  0  0  0  0  0  0  0  0
    4.8730    0.4031   -2.0938 H   0  0  0  0  0  0  0  0  0  0  0  0
    2.8698    0.0654   -1.2804 C   0  0  0  0  0  0  0  0  0  0  0  0
    3.3061   -1.0644   -0.5643 C   0  0  0  0  0  3  0  0  0  0  0  0
    4.3646   -1.3454   -0.6658 H   0  0  0  0  0  0  0  0  0  0  0  0
    3.4608   -2.8774    1.7275 C   0  0  0  0  0  0  0  0  0  0  0  0
    2.8106   -3.6388    2.2146 H   0  0  0  0  0  0  0  0  0  0  0  0
    3.8540   -1.8129    2.7571 C   0  0  0  0  0  0  0  0  0  0  0  0
    4.4520   -2.2719    3.5712 H   0  0  0  0  0  0  0  0  0  0  0  0
    2.9629   -1.3259    3.1971 H   0  0  0  0  0  0  0  0  0  0  0  0
    4.4676   -1.0208    2.2808 H   0  0  0  0  0  0  0  0  0  0  0  0
    4.6921   -3.5716    1.1322 C   0  0  0  0  0  0  0  0  0  0  0  0
    5.2709   -4.0639    1.9408 H   0  0  0  0  0  0  0  0  0  0  0  0
    5.3696   -2.8393    0.6475 H   0  0  0  0  0  0  0  0  0  0  0  0
    4.4376   -4.3505    0.3866 H   0  0  0  0  0  0  0  0  0  0  0  0
    1.7266   -3.6365   -0.5446 C   0  0  0  0  0  0  0  0  0  0  0  0
    2.5867   -4.3385   -0.4646 H   0  0  0  0  0  0  0  0  0  0  0  0
    1.5094   -3.3104   -2.0246 C   0  0  0  0  0  0  0  0  0  0  0  0
    1.2835   -4.2420   -2.5843 H   0  0  0  0  0  0  0  0  0  0  0  0
    2.4051   -2.8390   -2.4735 H   0  0  0  0  0  0  0  0  0  0  0  0
    0.6535   -2.6199   -2.1567 H   0  0  0  0  0  0  0  0  0  0  0  0
    0.4968   -4.2680    0.1099 C   0  0  0  0  0  0  0  0  0  0  0  0
    0.2472   -5.2257   -0.3931 H   0  0  0  0  0  0  0  0  0  0  0  0
   -0.3678   -3.5822    0.0141 H   0  0  0  0  0  0  0  0  0  0  0  0
    0.6462   -4.4784    1.1883 H   0  0  0  0  0  0  0  0  0  0  0  0
  2  1  1  0  0  0  0
  2 21  1  0  0  0  0
  4  5  2  0  0  0  0
  4  3  1  0  0  0  0
  5  6  1  0  0  0  0
  7  8  1  0  0  0  0
  7  5  1  0  0  0  0
  9  7  2  0  0  0  0
 10  9  1  0  0  0  0
 11  9  1  0  0  0  0
 11 13  1  0  0  0  0
 12 11  1  0  0  0  0
 13  4  1  0  0  0  0
 14 13  2  0  0  0  0
 14 16  1  0  0  0  0
 15 14  1  0  0  0  0
 16 18  2  0  0  0  0
 17 16  1  0  0  0  0
 18  3  1  0  0  0  0
 18 19  1  0  0  0  0
 19  2  1  0  0  0  0
 20 19  1  0  0  0  0
 21 22  1  0  0  0  0
 21 23  1  0  0  0  0
 23 25  1  0  0  0  0
 23 24  1  0  0  0  0
 26 23  1  0  0  0  0
 27 21  1  0  0  0  0
 27 28  1  0  0  0  0
 29 27  1  0  0  0  0
 30 27  1  0  0  0  0
 31 32  1  0  0  0  0
 31 37  1  0  0  0  0
 31  2  1  0  0  0  0
 33 31  1  0  0  0  0
 34 33  1  0  0  0  0
 35 33  1  0  0  0  0
 36 33  1  0  0  0  0
 37 40  1  0  0  0  0
 38 37  1  0  0  0  0
 39 37  1  0  0  0  0
M  END
