1,4
 OpenBabel05122313063D

 79 84  0  0  1  0  0  0  0  0999 V2000
    2.9439    1.9271    0.5604 S   0  0  0  0  0  1  0  0  0  0  0  0
    1.4774    0.2705    2.1082 N   0  0  0  0  0  2  0  0  0  0  0  0
   -0.8384   -1.4804   -0.0298 N   0  0  0  0  0  0  0  0  0  0  0  0
    1.2816   -0.5940   -0.0781 N   0  0  0  0  0  2  0  0  0  0  0  0
   -2.6899   -0.3939   -1.0225 N   0  0  0  0  0  0  0  0  0  0  0  0
    1.8105    1.5308    1.7847 C   0  0  1  0  0  3  0  0  0  0  0  0
    1.3773   -0.7636    1.3113 C   0  0  2  0  0  3  0  0  0  0  0  0
    0.1811   -0.9413   -0.7379 C   0  0  1  0  0  3  0  0  0  0  0  0
   -2.1302   -1.2758   -0.1624 C   0  0  0  0  0  0  0  0  0  0  0  0
    1.2192    2.6069    2.6159 C   0  0  0  0  0  0  0  0  0  0  0  0
    1.3790    3.9728    2.2849 C   0  0  0  0  0  0  0  0  0  0  0  0
    1.9842    4.2415    1.4063 H   0  0  0  0  0  0  0  0  0  0  0  0
    0.7596    4.9664    3.0508 C   0  0  0  0  0  0  0  0  0  0  0  0
    0.8941    6.0245    2.7805 H   0  0  0  0  0  0  0  0  0  0  0  0
   -0.0381    4.6167    4.1546 C   0  0  0  0  0  0  0  0  0  0  0  0
   -0.5289    5.4001    4.7518 H   0  0  0  0  0  0  0  0  0  0  0  0
   -0.2030    3.2631    4.4933 C   0  0  0  0  0  0  0  0  0  0  0  0
   -0.8193    2.9825    5.3608 H   0  0  0  0  0  0  0  0  0  0  0  0
    0.4232    2.2667    3.7354 C   0  0  0  0  0  0  0  0  0  0  0  0
    0.3119    1.2051    3.9962 H   0  0  0  0  0  0  0  0  0  0  0  0
    1.3564   -2.1315    1.8615 C   0  0  0  0  0  0  0  0  0  0  0  0
    0.9994   -2.3427    3.2118 C   0  0  0  0  0  0  0  0  0  0  0  0
    0.7431   -1.4739    3.8345 H   0  0  0  0  0  0  0  0  0  0  0  0
    0.9504   -3.6427    3.7277 C   0  0  0  0  0  0  0  0  0  0  0  0
    0.6582   -3.8056    4.7761 H   0  0  0  0  0  0  0  0  0  0  0  0
    1.2734   -4.7373    2.9061 C   0  0  0  0  0  0  0  0  0  0  0  0
    1.2366   -5.7594    3.3132 H   0  0  0  0  0  0  0  0  0  0  0  0
    1.6543   -4.5260    1.5693 C   0  0  0  0  0  0  0  0  0  0  0  0
    1.9308   -5.3798    0.9328 H   0  0  0  0  0  0  0  0  0  0  0  0
    1.6955   -3.2313    1.0399 C   0  0  0  0  0  0  0  0  0  0  0  0
    2.0304   -3.0542    0.0026 H   0  0  0  0  0  0  0  0  0  0  0  0
    0.1067   -0.7809   -2.2109 C   0  0  0  0  0  0  0  0  0  0  0  0
   -0.5558   -1.7565   -2.9836 C   0  0  0  0  0  0  0  0  0  0  0  0
   -0.9866   -2.6383   -2.4871 H   0  0  0  0  0  0  0  0  0  0  0  0
   -0.6258   -1.6230   -4.3747 C   0  0  0  0  0  0  0  0  0  0  0  0
   -1.1197   -2.4027   -4.9738 H   0  0  0  0  0  0  0  0  0  0  0  0
   -0.0595   -0.5022   -5.0052 C   0  0  0  0  0  0  0  0  0  0  0  0
   -0.1131   -0.4001   -6.0996 H   0  0  0  0  0  0  0  0  0  0  0  0
    0.5805    0.4843   -4.2376 C   0  0  0  0  0  0  0  0  0  0  0  0
    1.0315    1.3613   -4.7249 H   0  0  0  0  0  0  0  0  0  0  0  0
    0.6716    0.3446   -2.8470 C   0  0  0  0  0  0  0  0  0  0  0  0
    1.1963    1.1034   -2.2466 H   0  0  0  0  0  0  0  0  0  0  0  0
   -3.0480   -2.1411    0.6257 C   0  0  0  0  0  0  0  0  0  0  0  0
   -2.5071   -3.0100    1.5991 C   0  0  0  0  0  0  0  0  0  0  0  0
   -1.4170   -3.0304    1.7424 H   0  0  0  0  0  0  0  0  0  0  0  0
   -3.3559   -3.8141    2.3678 C   0  0  0  0  0  0  0  0  0  0  0  0
   -2.9267   -4.4854    3.1269 H   0  0  0  0  0  0  0  0  0  0  0  0
   -4.7472   -3.7623    2.1743 C   0  0  0  0  0  0  0  0  0  0  0  0
   -5.4124   -4.3958    2.7807 H   0  0  0  0  0  0  0  0  0  0  0  0
   -5.2893   -2.9034    1.2033 C   0  0  0  0  0  0  0  0  0  0  0  0
   -6.3774   -2.8684    1.0434 H   0  0  0  0  0  0  0  0  0  0  0  0
   -4.4448   -2.0971    0.4297 C   0  0  0  0  0  0  0  0  0  0  0  0
   -4.8600   -1.4375   -0.3463 H   0  0  0  0  0  0  0  0  0  0  0  0
   -2.8963    0.8620   -1.0882 C   0  0  0  0  0  0  0  0  0  0  0  0
   -3.5742    1.5289   -2.2735 C   0  0  1  0  0  0  0  0  0  0  0  0
   -5.0308    1.7880   -1.7469 C   0  0  0  0  0  0  0  0  0  0  0  0
   -5.4832    0.8681   -1.3247 H   0  0  0  0  0  0  0  0  0  0  0  0
   -5.6602    2.0941   -2.6071 H   0  0  0  0  0  0  0  0  0  0  0  0
   -4.8624    2.9335   -0.7080 C   0  0  0  0  0  0  0  0  0  0  0  0
   -5.3695    3.8577   -1.0483 H   0  0  0  0  0  0  0  0  0  0  0  0
   -5.2815    2.6876    0.2858 H   0  0  0  0  0  0  0  0  0  0  0  0
   -3.3335    3.1555   -0.6830 C   0  0  1  0  0  0  0  0  0  0  0  0
   -3.0203    4.1151   -0.2278 H   0  0  0  0  0  0  0  0  0  0  0  0
   -2.6138    1.9334   -0.0202 C   0  0  0  0  0  0  0  0  0  0  0  0
   -2.9886    2.9603   -2.1740 C   0  0  0  0  0  0  0  0  0  0  0  0
   -1.9081    3.0024   -2.4099 H   0  0  0  0  0  0  0  0  0  0  0  0
   -3.5213    3.6686   -2.8398 H   0  0  0  0  0  0  0  0  0  0  0  0
   -1.0957    2.1968    0.0762 C   0  0  0  0  0  0  0  0  0  0  0  0
   -0.5812    1.3334    0.5337 H   0  0  0  0  0  0  0  0  0  0  0  0
   -0.9144    3.0754    0.7261 H   0  0  0  0  0  0  0  0  0  0  0  0
   -0.6198    2.3866   -0.9034 H   0  0  0  0  0  0  0  0  0  0  0  0
   -3.1286    1.5259    1.3668 C   0  0  0  0  0  0  0  0  0  0  0  0
   -4.1953    1.2314    1.3611 H   0  0  0  0  0  0  0  0  0  0  0  0
   -2.9971    2.3644    2.0808 H   0  0  0  0  0  0  0  0  0  0  0  0
   -2.5484    0.6675    1.7606 H   0  0  0  0  0  0  0  0  0  0  0  0
   -3.4763    0.7764   -3.5857 C   0  0  0  0  0  0  0  0  0  0  0  0
   -3.9073   -0.2401   -3.4880 H   0  0  0  0  0  0  0  0  0  0  0  0
   -2.4205    0.6571   -3.8986 H   0  0  0  0  0  0  0  0  0  0  0  0
   -4.0241    1.3124   -4.3863 H   0  0  0  0  0  0  0  0  0  0  0  0
  5  9  1  0  0  0  0
  6  1  1  1  0  0  0
  6  2  1  0  0  0  0
  6 10  1  0  0  0  0
  7  4  1  1  0  0  0
  7 21  1  0  0  0  0
  7  2  1  0  0  0  0
  8  4  1  6  0  0  0
  8  3  1  0  0  0  0
  9  3  2  0  0  0  0
  9 43  1  0  0  0  0
 10 19  1  0  0  0  0
 11 10  2  0  0  0  0
 11 13  1  0  0  0  0
 12 11  1  0  0  0  0
 13 15  2  0  0  0  0
 14 13  1  0  0  0  0
 15 17  1  0  0  0  0
 15 16  1  0  0  0  0
 17 18  1  0  0  0  0
 19 20  1  0  0  0  0
 19 17  2  0  0  0  0
 21 22  1  0  0  0  0
 22 24  2  0  0  0  0
 22 23  1  0  0  0  0
 24 25  1  0  0  0  0
 26 27  1  0  0  0  0
 26 24  1  0  0  0  0
 28 26  2  0  0  0  0
 29 28  1  0  0  0  0
 30 28  1  0  0  0  0
 30 21  2  0  0  0  0
 31 30  1  0  0  0  0
 32  8  1  0  0  0  0
 33 34  1  0  0  0  0
 33 32  2  0  0  0  0
 35 33  1  0  0  0  0
 36 35  1  0  0  0  0
 37 35  2  0  0  0  0
 37 39  1  0  0  0  0
 38 37  1  0  0  0  0
 39 41  2  0  0  0  0
 40 39  1  0  0  0  0
 41 42  1  0  0  0  0
 41 32  1  0  0  0  0
 43 44  1  0  0  0  0
 44 45  1  0  0  0  0
 44 46  2  0  0  0  0
 46 47  1  0  0  0  0
 48 46  1  0  0  0  0
 48 49  1  0  0  0  0
 50 48  2  0  0  0  0
 51 50  1  0  0  0  0
 52 43  2  0  0  0  0
 52 50  1  0  0  0  0
 53 52  1  0  0  0  0
 54  5  2  0  0  0  0
 54 64  1  0  0  0  0
 55 76  1  6  0  0  0
 55 65  1  0  0  0  0
 55 56  1  0  0  0  0
 55 54  1  0  0  0  0
 56 57  1  0  0  0  0
 56 59  1  0  0  0  0
 58 56  1  0  0  0  0
 59 62  1  0  0  0  0
 59 61  1  0  0  0  0
 60 59  1  0  0  0  0
 62 63  1  1  0  0  0
 62 64  1  0  0  0  0
 64 68  1  0  0  0  0
 64 72  1  0  0  0  0
 65 62  1  0  0  0  0
 66 65  1  0  0  0  0
 67 65  1  0  0  0  0
 68 69  1  0  0  0  0
 68 70  1  0  0  0  0
 71 68  1  0  0  0  0
 72 75  1  0  0  0  0
 72 74  1  0  0  0  0
 73 72  1  0  0  0  0
 76 77  1  0  0  0  0
 78 76  1  0  0  0  0
 79 76  1  0  0  0  0
M  END
