1,2
 OpenBabel05122313063D

 27 28  0  0  0  0  0  0  0  0999 V2000
    0.4631    0.2804   -1.1568 S   0  0  0  0  0  0  0  0  0  0  0  0
    0.0866   -1.4214    1.2357 N   0  0  0  0  0  0  0  0  0  0  0  0
   -0.8055    2.9845   -0.9005 N   0  0  0  0  0  0  0  0  0  0  0  0
    1.5593   -1.0728   -0.6842 C   0  0  0  0  0  0  0  0  0  0  0  0
    1.2265   -1.8395    0.4533 C   0  0  0  0  0  0  0  0  0  0  0  0
    1.9940   -2.9656    0.7779 C   0  0  0  0  0  0  0  0  0  0  0  0
    1.7262   -3.5716    1.6568 H   0  0  0  0  0  0  0  0  0  0  0  0
    3.0923   -3.3155   -0.0260 C   0  0  0  0  0  0  0  0  0  0  0  0
    3.6841   -4.2078    0.2257 H   0  0  0  0  0  0  0  0  0  0  0  0
    3.4329   -2.5386   -1.1430 C   0  0  0  0  0  0  0  0  0  0  0  0
    4.2917   -2.8182   -1.7705 H   0  0  0  0  0  0  0  0  0  0  0  0
    2.6624   -1.4123   -1.4778 C   0  0  0  0  0  0  0  0  0  0  0  0
    2.8989   -0.8060   -2.3643 H   0  0  0  0  0  0  0  0  0  0  0  0
    1.1012    1.6377   -0.1477 C   0  0  0  0  0  0  0  0  0  0  0  0
    0.3490    2.8543   -0.1797 C   0  0  0  0  0  0  0  0  0  0  0  0
    0.8858    3.9470    0.5554 C   0  0  0  0  0  0  0  0  0  0  0  0
    0.3295    4.8975    0.5488 H   0  0  0  0  0  0  0  0  0  0  0  0
    2.0720    3.8366    1.2810 C   0  0  0  0  0  0  0  0  0  0  0  0
    2.4444    4.7096    1.8380 H   0  0  0  0  0  0  0  0  0  0  0  0
    2.7834    2.6237    1.3138 C   0  0  0  0  0  0  0  0  0  0  0  0
    3.7173    2.5308    1.8858 H   0  0  0  0  0  0  0  0  0  0  0  0
    2.2901    1.5287    0.5936 C   0  0  0  0  0  0  0  0  0  0  0  0
    2.8464    0.5800    0.5905 H   0  0  0  0  0  0  0  0  0  0  0  0
   -1.4159    2.1702   -1.1086 H   0  0  0  0  0  0  0  0  0  0  0  0
   -1.3298    3.8484   -0.7616 H   0  0  0  0  0  0  0  0  0  0  0  0
    0.3500   -0.7113    1.9393 H   0  0  0  0  0  0  0  0  0  0  0  0
   -0.4021   -2.1878    1.7298 H   0  0  0  0  0  0  0  0  0  0  0  0
  1  4  1  0  0  0  0
  1 14  1  0  0  0  0
  2 27  1  0  0  0  0
  2 26  1  0  0  0  0
  3 25  1  0  0  0  0
  3 15  1  0  0  0  0
  4  5  1  0  0  0  0
  5  6  2  0  0  0  0
  5  2  1  0  0  0  0
  6  7  1  0  0  0  0
  8  9  1  0  0  0  0
  8  6  1  0  0  0  0
 10  8  2  0  0  0  0
 11 10  1  0  0  0  0
 12 10  1  0  0  0  0
 12  4  2  0  0  0  0
 13 12  1  0  0  0  0
 14 22  1  0  0  0  0
 15 14  2  0  0  0  0
 15 16  1  0  0  0  0
 16 18  2  0  0  0  0
 17 16  1  0  0  0  0
 18 20  1  0  0  0  0
 18 19  1  0  0  0  0
 20 21  1  0  0  0  0
 22 20  2  0  0  0  0
 23 22  1  0  0  0  0
 24  3  1  0  0  0  0
M  END
