1,4
 OpenBabel05122313063D

 29 29  0  0  1  0  0  0  0  0999 V2000
    0.6190    1.8378   -0.4897 S   0  0  0  0  0  0  0  0  0  0  0  0
    2.9182    2.0707    1.3940 O   0  0  0  0  0  0  0  0  0  0  0  0
    3.0808    1.3148    0.7728 H   0  0  0  0  0  0  0  0  0  0  0  0
   -1.3627   -0.4699    0.1974 N   0  0  0  0  0  2  0  0  0  0  0  0
   -2.2851    0.2393   -0.5131 N   0  0  0  0  0  0  0  0  0  0  0  0
   -1.9971   -1.0038    1.2666 C   0  0  2  0  0  3  0  0  0  0  0  0
   -3.3595   -0.6210    1.2166 C   0  0  0  0  0  0  0  0  0  0  0  0
   -4.1420   -0.9040    1.9276 H   0  0  0  0  0  0  0  0  0  0  0  0
   -3.5167    0.1786    0.0839 C   0  0  0  0  0  0  0  0  0  0  0  0
   -4.7245    0.8601   -0.4691 C   0  0  0  0  0  0  0  0  0  0  0  0
   -4.6047    1.9630   -0.5133 H   0  0  0  0  0  0  0  0  0  0  0  0
   -5.5966    0.6456    0.1749 H   0  0  0  0  0  0  0  0  0  0  0  0
   -4.9696    0.5074   -1.4928 H   0  0  0  0  0  0  0  0  0  0  0  0
   -1.2871   -1.8184    2.2935 C   0  0  0  0  0  0  0  0  0  0  0  0
   -0.5189   -1.2087    2.8130 H   0  0  0  0  0  0  0  0  0  0  0  0
   -0.7470   -2.6554    1.8072 H   0  0  0  0  0  0  0  0  0  0  0  0
   -2.0030   -2.2034    3.0424 H   0  0  0  0  0  0  0  0  0  0  0  0
   -1.8516    1.0707   -1.6188 C   0  0  0  0  0  0  0  0  0  0  0  0
   -2.7565    1.3993   -2.1656 H   0  0  0  0  0  0  0  0  0  0  0  0
   -1.2401    0.4474   -2.3046 H   0  0  0  0  0  0  0  0  0  0  0  0
   -1.0547    2.2928   -1.1544 C   0  0  0  0  0  0  0  0  0  0  0  0
   -1.6056    2.8615   -0.3796 H   0  0  0  0  0  0  0  0  0  0  0  0
   -0.8667    2.9643   -2.0154 H   0  0  0  0  0  0  0  0  0  0  0  0
    0.5072    2.4484    1.2497 C   0  0  0  0  0  0  0  0  0  0  0  0
    0.5803    3.5542    1.1975 H   0  0  0  0  0  0  0  0  0  0  0  0
   -0.4692    2.1422    1.6798 H   0  0  0  0  0  0  0  0  0  0  0  0
    1.6909    1.8457    2.0274 C   0  0  0  0  0  0  0  0  0  0  0  0
    1.7052    2.3312    3.0300 H   0  0  0  0  0  0  0  0  0  0  0  0
    1.4836    0.7590    2.1837 H   0  0  0  0  0  0  0  0  0  0  0  0
  1 24  1  0  0  0  0
  2 27  1  0  0  0  0
  3  2  1  0  0  0  0
  4  6  1  0  0  0  0
  5  9  1  0  0  0  0
  5  4  1  0  0  0  0
  6 14  1  1  0  0  0
  7  6  1  0  0  0  0
  7  8  1  0  0  0  0
  9  7  2  0  0  0  0
 10  9  1  0  0  0  0
 10 12  1  0  0  0  0
 11 10  1  0  0  0  0
 13 10  1  0  0  0  0
 14 15  1  0  0  0  0
 14 17  1  0  0  0  0
 16 14  1  0  0  0  0
 18 21  1  0  0  0  0
 18  5  1  0  0  0  0
 19 18  1  0  0  0  0
 20 18  1  0  0  0  0
 21  1  1  0  0  0  0
 21 22  1  0  0  0  0
 23 21  1  0  0  0  0
 24 26  1  0  0  0  0
 24 27  1  0  0  0  0
 25 24  1  0  0  0  0
 27 29  1  0  0  0  0
 27 28  1  0  0  0  0
M  END
