1,4
 OpenBabel05122313063D

 26 26  0  0  0  0  0  0  0  0999 V2000
   -2.1914   -0.3509   -0.1851 N   0  0  0  0  0  2  0  0  0  0  0  0
   -2.8876    0.8019   -0.3989 N   0  0  0  0  0  0  0  0  0  0  0  0
   -2.8872    3.4555   -0.7598 S   0  0  0  0  0  0  0  0  0  0  0  0
   -0.4023    1.9504   -0.3772 S   0  0  0  0  0  1  0  0  0  0  0  0
   -5.2847   -0.8945   -0.5359 C   0  0  0  0  0  0  0  0  0  0  0  0
   -4.9950    0.1219   -0.8247 H   0  0  0  0  0  0  0  0  0  0  0  0
   -6.6195   -1.3131   -0.5703 C   0  0  0  0  0  0  0  0  0  0  0  0
   -7.4007   -0.6062   -0.8894 H   0  0  0  0  0  0  0  0  0  0  0  0
   -6.9686   -2.6239   -0.2022 C   0  0  0  0  0  0  0  0  0  0  0  0
   -8.0216   -2.9433   -0.2267 H   0  0  0  0  0  0  0  0  0  0  0  0
   -5.9665   -3.5275    0.1901 C   0  0  0  0  0  0  0  0  0  0  0  0
   -6.2304   -4.5580    0.4720 H   0  0  0  0  0  0  0  0  0  0  0  0
   -4.6297   -3.1185    0.2184 C   0  0  0  0  0  0  0  0  0  0  0  0
   -3.8421   -3.8268    0.5190 H   0  0  0  0  0  0  0  0  0  0  0  0
   -4.2618   -1.7917   -0.1313 C   0  0  0  0  0  0  0  0  0  0  0  0
   -2.1452    1.8782   -0.4843 C   0  0  0  0  0  0  0  0  0  0  0  0
   -4.6247    3.1713   -0.1966 C   0  0  0  0  0  0  0  0  0  0  0  0
   -5.1567    4.0583   -0.6000 H   0  0  0  0  0  0  0  0  0  0  0  0
   -5.0118    2.2665   -0.7015 H   0  0  0  0  0  0  0  0  0  0  0  0
   -4.7213    3.0917    1.2941 C   0  0  0  0  0  0  0  0  0  0  0  0
   -4.4321    4.0070    1.8407 H   0  0  0  0  0  0  0  0  0  0  0  0
   -5.0934    1.9946    1.9775 C   0  0  0  0  0  0  0  0  0  0  0  0
   -5.3647    1.0588    1.4637 H   0  0  0  0  0  0  0  0  0  0  0  0
   -5.1321    1.9973    3.0778 H   0  0  0  0  0  0  0  0  0  0  0  0
   -2.8384   -1.4879   -0.0614 C   0  0  0  0  0  3  0  0  0  0  0  0
   -2.1594   -2.3391    0.1279 H   0  0  0  0  0  0  0  0  0  0  0  0
  1 25  1  0  0  0  0
  2  1  1  0  0  0  0
  3 16  1  0  0  0  0
  3 17  1  0  0  0  0
  5 15  1  0  0  0  0
  6  5  1  0  0  0  0
  7  5  2  0  0  0  0
  7  9  1  0  0  0  0
  8  7  1  0  0  0  0
  9 11  2  0  0  0  0
 10  9  1  0  0  0  0
 11 13  1  0  0  0  0
 11 12  1  0  0  0  0
 13 14  1  0  0  0  0
 15 25  1  0  0  0  0
 15 13  2  0  0  0  0
 16  2  2  0  0  0  0
 16  4  1  0  0  0  0
 17 20  1  0  0  0  0
 18 17  1  0  0  0  0
 19 17  1  0  0  0  0
 20 21  1  0  0  0  0
 20 22  2  0  0  0  0
 22 24  1  0  0  0  0
 23 22  1  0  0  0  0
 25 26  1  0  0  0  0
M  END
