1,32
 OpenBabel05122313063D

 33 35  0  0  0  0  0  0  0  0999 V2000
   -1.0873    0.9172   -2.5824 S   0  0  0  0  0  1  0  0  0  0  0  0
   -3.9953   -0.7781    1.8503 S   0  0  0  0  0  0  0  0  0  0  0  0
   -4.9624    0.6306   -1.5166 C   0  0  0  0  0  0  0  0  0  0  0  0
   -5.7818    1.7367   -1.3097 C   0  0  0  0  0  0  0  0  0  0  0  0
   -5.4217    2.7321   -1.6106 H   0  0  0  0  0  0  0  0  0  0  0  0
   -7.4740    0.3532   -0.2473 C   0  0  0  0  0  0  0  0  0  0  0  0
   -8.4425    0.2418    0.2643 H   0  0  0  0  0  0  0  0  0  0  0  0
   -7.0476    1.5961   -0.6880 C   0  0  0  0  0  0  0  0  0  0  0  0
   -7.6756    2.4863   -0.5337 H   0  0  0  0  0  0  0  0  0  0  0  0
   -5.4050   -0.6816   -1.1366 C   0  0  0  0  0  0  0  0  0  0  0  0
   -6.6696   -0.8056   -0.4537 C   0  0  0  0  0  0  0  0  0  0  0  0
   -4.6464   -1.8578   -1.4007 C   0  0  0  0  0  0  0  0  0  0  0  0
   -3.7008   -1.7699   -1.9520 H   0  0  0  0  0  0  0  0  0  0  0  0
   -7.0860   -2.0960   -0.0088 C   0  0  0  0  0  0  0  0  0  0  0  0
   -8.0450   -2.1835    0.5256 H   0  0  0  0  0  0  0  0  0  0  0  0
   -5.0881   -3.0978   -0.9661 C   0  0  0  0  0  0  0  0  0  0  0  0
   -4.4872   -3.9958   -1.1740 H   0  0  0  0  0  0  0  0  0  0  0  0
   -6.3083   -3.2179   -0.2490 C   0  0  0  0  0  0  0  0  0  0  0  0
   -6.6401   -4.2060    0.1040 H   0  0  0  0  0  0  0  0  0  0  0  0
   -1.2110   -0.7128    1.4059 C   0  0  0  0  0  3  0  0  0  0  0  0
   -0.1940   -0.9287    1.7748 H   0  0  0  0  0  0  0  0  0  0  0  0
   -2.3109   -1.0418    2.2633 C   0  0  0  0  0  0  0  0  0  0  0  0
   -2.1947   -1.6183    3.5366 C   0  0  0  0  0  0  0  0  0  0  0  0
   -1.2205   -1.8647    3.9821 H   0  0  0  0  0  0  0  0  0  0  0  0
   -3.4456   -1.8414    4.1627 C   0  0  0  0  0  0  0  0  0  0  0  0
   -3.5681   -2.2865    5.1595 H   0  0  0  0  0  0  0  0  0  0  0  0
   -4.5068   -1.4328    3.3651 C   0  0  0  0  0  0  0  0  0  0  0  0
   -5.5790   -1.4910    3.5933 H   0  0  0  0  0  0  0  0  0  0  0  0
   -2.4752    0.5624   -1.5589 C   0  0  0  0  0  0  0  0  0  0  0  0
   -2.4748    0.0862   -0.3199 N   0  0  0  0  0  0  0  0  0  0  0  0
   -3.6981    0.8092   -2.1388 N   0  0  0  0  0  0  0  0  0  0  0  0
   -1.2601   -0.1873    0.2009 N   0  0  0  0  0  2  0  0  0  0  0  0
   -3.6582    1.3714   -2.9909 H   0  0  0  0  0  0  0  0  0  0  0  0
  1 29  1  0  0  0  0
  2 22  1  0  0  0  0
  2 27  1  0  0  0  0
  3  4  2  0  0  0  0
  3 10  1  0  0  0  0
  4  8  1  0  0  0  0
  5  4  1  0  0  0  0
  6  7  1  0  0  0  0
  8  9  1  0  0  0  0
  8  6  2  0  0  0  0
 10 11  1  0  0  0  0
 11  6  1  0  0  0  0
 11 14  2  0  0  0  0
 12 10  2  0  0  0  0
 12 16  1  0  0  0  0
 13 12  1  0  0  0  0
 14 15  1  0  0  0  0
 16 18  2  0  0  0  0
 17 16  1  0  0  0  0
 18 14  1  0  0  0  0
 18 19  1  0  0  0  0
 20 21  1  0  0  0  0
 20 22  1  0  0  0  0
 22 23  2  0  0  0  0
 23 24  1  0  0  0  0
 23 25  1  0  0  0  0
 25 26  1  0  0  0  0
 27 28  1  0  0  0  0
 27 25  2  0  0  0  0
 29 30  2  0  0  0  0
 30 32  1  0  0  0  0
 31 29  1  0  0  0  0
 31  3  1  0  0  0  0
 32 20  1  0  0  0  0
 33 31  1  0  0  0  0
M  END
