1,14
 OpenBabel05122313063D

 25 26  0  0  0  0  0  0  0  0999 V2000
   -2.1270   -2.5077   -0.2789 N   0  0  0  0  0  0  0  0  0  0  0  0
   -2.0826   -2.9545   -1.2074 H   0  0  0  0  0  0  0  0  0  0  0  0
   -1.8976   -3.2122    0.4479 H   0  0  0  0  0  0  0  0  0  0  0  0
   -3.3834   -1.8490   -0.0203 C   0  0  0  0  0  0  0  0  0  0  0  0
   -4.6064   -2.4186   -0.4112 C   0  0  0  0  0  0  0  0  0  0  0  0
   -4.6010   -3.3807   -0.9457 H   0  0  0  0  0  0  0  0  0  0  0  0
   -5.8143   -1.7661   -0.1297 C   0  0  0  0  0  0  0  0  0  0  0  0
   -6.7650   -2.2170   -0.4501 H   0  0  0  0  0  0  0  0  0  0  0  0
   -5.8090   -0.5429    0.5607 C   0  0  0  0  0  0  0  0  0  0  0  0
   -6.7553   -0.0303    0.7877 H   0  0  0  0  0  0  0  0  0  0  0  0
   -4.5954    0.0333    0.9578 C   0  0  0  0  0  0  0  0  0  0  0  0
   -4.5786    0.9987    1.4846 H   0  0  0  0  0  0  0  0  0  0  0  0
   -3.3849   -0.6092    0.6494 C   0  0  0  0  0  0  0  0  0  0  0  0
   -1.8078    0.1120    1.1476 S   0  0  0  0  0  0  0  0  0  0  0  0
   -1.9615    1.7917    0.5137 C   0  0  0  0  0  0  0  0  0  0  0  0
   -2.5819    2.0960   -0.7123 C   0  0  0  0  0  0  0  0  0  0  0  0
   -3.0195    1.2942   -1.3196 H   0  0  0  0  0  0  0  0  0  0  0  0
   -2.5905    3.4266   -1.1538 C   0  0  0  0  0  0  0  0  0  0  0  0
   -3.0667    3.6707   -2.1153 H   0  0  0  0  0  0  0  0  0  0  0  0
   -1.9814    4.4377   -0.3910 C   0  0  0  0  0  0  0  0  0  0  0  0
   -1.9859    5.4773   -0.7521 H   0  0  0  0  0  0  0  0  0  0  0  0
   -1.3733    4.1224    0.8345 C   0  0  0  0  0  0  0  0  0  0  0  0
   -0.8982    4.9074    1.4415 H   0  0  0  0  0  0  0  0  0  0  0  0
   -1.3683    2.7981    1.2981 C   0  0  0  0  0  0  0  0  0  0  0  0
   -0.8941    2.5450    2.2571 H   0  0  0  0  0  0  0  0  0  0  0  0
  1  4  1  0  0  0  0
  1  3  1  0  0  0  0
  2  1  1  0  0  0  0
  4 13  1  0  0  0  0
  5  7  1  0  0  0  0
  5  4  2  0  0  0  0
  6  5  1  0  0  0  0
  7  9  2  0  0  0  0
  8  7  1  0  0  0  0
  9 10  1  0  0  0  0
  9 11  1  0  0  0  0
 11 12  1  0  0  0  0
 13 11  2  0  0  0  0
 13 14  1  0  0  0  0
 15 14  1  0  0  0  0
 15 24  1  0  0  0  0
 16 15  2  0  0  0  0
 17 16  1  0  0  0  0
 18 16  1  0  0  0  0
 18 20  2  0  0  0  0
 19 18  1  0  0  0  0
 20 22  1  0  0  0  0
 21 20  1  0  0  0  0
 22 24  2  0  0  0  0
 22 23  1  0  0  0  0
 24 25  1  0  0  0  0
M  END
