1,4
 OpenBabel05122313063D

 15 15  0  0  0  0  0  0  0  0999 V2000
   -1.5608    1.4281   -0.0833 S   0  0  0  0  0  1  0  0  0  0  0  0
   -5.1994   -2.0214    0.0711 O   0  0  0  0  0  0  0  0  0  0  0  0
   -3.6033   -0.3771   -0.0028 N   0  0  0  0  0  0  0  0  0  0  0  0
   -2.6115   -1.3823   -0.0102 N   0  0  0  0  0  0  0  0  0  0  0  0
   -2.7734   -1.9998   -0.8260 H   0  0  0  0  0  0  0  0  0  0  0  0
   -2.7652   -1.9993    0.8077 H   0  0  0  0  0  0  0  0  0  0  0  0
   -5.4832    1.5726    0.0052 N   0  0  0  0  0  0  0  0  0  0  0  0
   -4.1733    1.9077   -0.0297 N   0  0  0  0  0  0  0  0  0  0  0  0
   -3.2473    0.9618   -0.0338 C   0  0  0  0  0  0  0  0  0  0  0  0
   -4.9491   -0.8161    0.0403 C   0  0  0  0  0  0  0  0  0  0  0  0
   -5.8815    0.3121    0.0407 C   0  0  0  0  0  0  0  0  0  0  0  0
   -7.3453    0.0035    0.0829 C   0  0  0  0  0  0  0  0  0  0  0  0
   -7.9171    0.9487    0.0770 H   0  0  0  0  0  0  0  0  0  0  0  0
   -7.6003   -0.5833    0.9898 H   0  0  0  0  0  0  0  0  0  0  0  0
   -7.6437   -0.6208   -0.7849 H   0  0  0  0  0  0  0  0  0  0  0  0
  1  9  1  0  0  0  0
  3 10  1  0  0  0  0
  4  3  1  0  0  0  0
  4  6  1  0  0  0  0
  5  4  1  0  0  0  0
  7 11  2  0  0  0  0
  8  7  1  0  0  0  0
  9  8  2  0  0  0  0
  9  3  1  0  0  0  0
 10 11  1  0  0  0  0
 10  2  2  0  0  0  0
 11 12  1  0  0  0  0
 12 14  1  0  0  0  0
 13 12  1  0  0  0  0
 15 12  1  0  0  0  0
M  END
