1,4
q = 0.0, confidence = 1.0

 28 29  0  0  1  0  0  0  0  0999 V2000
   -0.5942   -0.7543   -1.5896 S   0  0  0  0  0  0  0  0  0  0  0  0
   -3.0749   -0.4993   -0.5263 N   0  0  0  0  0  0  0  0  0  0  0  0
   -0.9451    1.7513   -0.6200 N   0  0  0  0  0  0  0  0  0  0  0  0
    0.1121    1.5392    0.2176 N   0  0  0  0  0  2  0  0  0  0  0  0
   -2.0007   -1.2857   -0.5763 C   0  0  0  0  0  0  0  0  0  0  0  0
   -1.8893   -2.5197    0.0928 C   0  0  0  0  0  0  0  0  0  0  0  0
   -0.9681   -3.1163    0.0225 H   0  0  0  0  0  0  0  0  0  0  0  0
   -2.9792   -2.9330    0.8645 C   0  0  0  0  0  0  0  0  0  0  0  0
   -2.9370   -3.8873    1.4106 H   0  0  0  0  0  0  0  0  0  0  0  0
   -4.1159   -2.1095    0.9422 C   0  0  0  0  0  0  0  0  0  0  0  0
   -4.9878   -2.3954    1.5478 H   0  0  0  0  0  0  0  0  0  0  0  0
   -4.1133   -0.9043    0.2290 C   0  0  0  0  0  0  0  0  0  0  0  0
   -4.9842   -0.2271    0.2631 H   0  0  0  0  0  0  0  0  0  0  0  0
   -1.0614    1.0029   -1.8434 C   0  0  0  0  0  0  0  0  0  0  0  0
   -0.3513    1.3573   -2.6192 H   0  0  0  0  0  0  0  0  0  0  0  0
   -2.1039    1.0543   -2.2020 H   0  0  0  0  0  0  0  0  0  0  0  0
   -3.0503    3.1073   -0.8432 C   0  0  0  0  0  0  0  0  0  0  0  0
   -2.8495    3.5617   -1.8360 H   0  0  0  0  0  0  0  0  0  0  0  0
   -3.6020    3.8497   -0.2385 H   0  0  0  0  0  0  0  0  0  0  0  0
   -3.7073    2.2256   -0.9989 H   0  0  0  0  0  0  0  0  0  0  0  0
   -1.7986    2.7099   -0.1370 C   0  0  1  0  0  3  0  0  0  0  0  0
   -1.2386    3.1447    1.0635 C   0  0  0  0  0  0  0  0  0  0  0  0
   -1.6447    3.9111    1.7314 H   0  0  0  0  0  0  0  0  0  0  0  0
   -0.0533    2.3900    1.2526 C   0  0  0  0  0  0  0  0  0  0  0  0
    0.9013    2.4354    2.3990 C   0  0  0  0  0  0  0  0  0  0  0  0
    0.9238    1.4662    2.9373 H   0  0  0  0  0  0  0  0  0  0  0  0
    0.6081    3.2269    3.1133 H   0  0  0  0  0  0  0  0  0  0  0  0
    1.9355    2.6325    2.0554 H   0  0  0  0  0  0  0  0  0  0  0  0
  1  5  1  0  0  0  0
  2 12  1  0  0  0  0
  3 21  1  0  0  0  0
  3  4  1  0  0  0  0
  4 24  1  0  0  0  0
  5  2  2  0  0  0  0
  5  6  1  0  0  0  0
  6  8  2  0  0  0  0
  7  6  1  0  0  0  0
  8 10  1  0  0  0  0
  8  9  1  0  0  0  0
 10 11  1  0  0  0  0
 12 13  1  0  0  0  0
 12 10  2  0  0  0  0
 14  1  1  0  0  0  0
 14  3  1  0  0  0  0
 15 14  1  0  0  0  0
 16 14  1  0  0  0  0
 17 19  1  0  0  0  0
 18 17  1  0  0  0  0
 20 17  1  0  0  0  0
 21 17  1  1  0  0  0
 21 22  1  0  0  0  0
 22 24  2  0  0  0  0
 22 23  1  0  0  0  0
 24 25  1  0  0  0  0
 25 26  1  0  0  0  0
 25 27  1  0  0  0  0
 28 25  1  0  0  0  0
M  END
