1,5
 OpenBabel05122313063D

 20 20  0  0  1  0  0  0  0  0999 V2000
   -2.6765    0.4152   -1.1053 S   0  0  0  0  0  1  0  0  0  0  0  0
   -4.0043   -1.7776   -0.4055 N   0  0  0  0  0  0  0  0  0  0  0  0
   -1.7155   -2.0161   -0.3807 N   0  0  0  0  0  0  0  0  0  0  0  0
   -0.4815   -1.5339   -0.4519 N   0  0  0  0  0  0  0  0  0  0  0  0
    1.8512   -0.2206   -0.2370 N   0  0  0  0  0  2  0  0  0  0  0  0
   -2.8030   -1.1789   -0.5953 C   0  0  1  0  0  3  0  0  0  0  0  0
    0.5632   -2.2481   -0.1950 C   0  0  0  0  0  0  0  0  0  0  0  0
    1.8677   -1.5734   -0.2037 C   0  0  2  0  0  3  0  0  0  0  0  0
    3.0776   -2.2951   -0.1761 C   0  0  0  0  0  0  0  0  0  0  0  0
    4.2851   -1.5843   -0.2165 C   0  0  0  0  0  0  0  0  0  0  0  0
    4.2526   -0.1841   -0.2829 C   0  0  0  0  0  0  0  0  0  0  0  0
    3.0020    0.4595   -0.2868 C   0  0  0  0  0  0  0  0  0  0  0  0
    0.5178   -3.3291    0.0570 H   0  0  0  0  0  0  0  0  0  0  0  0
    3.0652   -3.3946   -0.1351 H   0  0  0  0  0  0  0  0  0  0  0  0
    5.2450   -2.1222   -0.1992 H   0  0  0  0  0  0  0  0  0  0  0  0
    5.1778    0.4086   -0.3202 H   0  0  0  0  0  0  0  0  0  0  0  0
    2.8901    1.5589   -0.3259 H   0  0  0  0  0  0  0  0  0  0  0  0
   -4.8306   -1.1826   -0.4548 H   0  0  0  0  0  0  0  0  0  0  0  0
   -4.1008   -2.7106   -0.0014 H   0  0  0  0  0  0  0  0  0  0  0  0
   -1.8743   -2.9442    0.0413 H   0  0  0  0  0  0  0  0  0  0  0  0
  2 19  1  0  0  0  0
  3 20  1  0  0  0  0
  4  3  1  0  0  0  0
  4  7  2  0  0  0  0
  5  8  1  0  0  0  0
  6  1  1  6  0  0  0
  6  2  1  0  0  0  0
  6  3  1  0  0  0  0
  7 13  1  0  0  0  0
  8  7  1  1  0  0  0
  8  9  1  0  0  0  0
  9 14  1  0  0  0  0
 10 15  1  0  0  0  0
 10  9  2  0  0  0  0
 11 10  1  0  0  0  0
 12 11  2  0  0  0  0
 12  5  1  0  0  0  0
 16 11  1  0  0  0  0
 17 12  1  0  0  0  0
 18  2  1  0  0  0  0
M  END
