2,4
 OpenBabel05122313063D

 34 34  0  0  0  0  0  0  0  0999 V2000
   -4.6434    2.1505    0.8489 S   0  0  0  0  0  0  0  0  0  0  0  0
   -1.1219   -1.8422   -0.3475 S   0  0  0  0  0  1  0  0  0  0  0  0
   -4.0504   -2.1126   -0.6593 S   0  0  0  0  0  0  0  0  0  0  0  0
   -1.6814    0.8519    0.2446 N   0  0  0  0  0  2  0  0  0  0  0  0
   -2.8549    0.1964   -0.0109 N   0  0  0  0  0  0  0  0  0  0  0  0
   -5.3285    3.6058    1.4851 C   0  0  0  0  0  0  0  0  0  0  0  0
   -4.3647    4.5299    1.8654 C   0  0  0  0  0  0  0  0  0  0  0  0
   -3.0511    4.0532    1.6397 C   0  0  0  0  0  0  0  0  0  0  0  0
   -3.0158    2.7627    1.0875 C   0  0  0  0  0  0  0  0  0  0  0  0
   -1.8114    2.0666    0.7620 C   0  0  0  0  0  3  0  0  0  0  0  0
   -2.6854   -1.0777   -0.2943 C   0  0  0  0  0  0  0  0  0  0  0  0
   -5.4580   -0.9554   -0.4811 C   0  0  0  0  0  0  0  0  0  0  0  0
   -6.7600   -1.6455   -0.8794 C   0  0  0  0  0  0  0  0  0  0  0  0
   -7.9677   -0.7134   -0.7311 C   0  0  0  0  0  0  0  0  0  0  0  0
   -9.2957   -1.3640   -1.1261 C   0  0  0  0  0  0  0  0  0  0  0  0
  -10.5054   -0.4359   -0.9800 C   0  0  0  0  0  0  0  0  0  0  0  0
  -11.8282   -1.0924   -1.3761 C   0  0  0  0  0  0  0  0  0  0  0  0
   -6.4194    3.7125    1.5460 H   0  0  0  0  0  0  0  0  0  0  0  0
   -4.6003    5.5149    2.2906 H   0  0  0  0  0  0  0  0  0  0  0  0
   -2.1351    4.6173    1.8644 H   0  0  0  0  0  0  0  0  0  0  0  0
   -0.8708    2.6013    0.9609 H   0  0  0  0  0  0  0  0  0  0  0  0
   -5.4838   -0.6082    0.5715 H   0  0  0  0  0  0  0  0  0  0  0  0
   -5.2501   -0.0682   -1.1125 H   0  0  0  0  0  0  0  0  0  0  0  0
   -6.9121   -2.5536   -0.2553 H   0  0  0  0  0  0  0  0  0  0  0  0
   -6.6889   -2.0012   -1.9306 H   0  0  0  0  0  0  0  0  0  0  0  0
   -8.0291   -0.3568    0.3219 H   0  0  0  0  0  0  0  0  0  0  0  0
   -7.8042    0.1991   -1.3475 H   0  0  0  0  0  0  0  0  0  0  0  0
   -9.4558   -2.2778   -0.5099 H   0  0  0  0  0  0  0  0  0  0  0  0
   -9.2312   -1.7220   -2.1787 H   0  0  0  0  0  0  0  0  0  0  0  0
  -10.5644   -0.0785    0.0724 H   0  0  0  0  0  0  0  0  0  0  0  0
  -10.3401    0.4764   -1.5956 H   0  0  0  0  0  0  0  0  0  0  0  0
  -12.0370   -1.9868   -0.7524 H   0  0  0  0  0  0  0  0  0  0  0  0
  -11.8109   -1.4273   -2.4344 H   0  0  0  0  0  0  0  0  0  0  0  0
  -12.6838   -0.3972   -1.2599 H   0  0  0  0  0  0  0  0  0  0  0  0
  1  9  1  0  0  0  0
  1  6  1  0  0  0  0
  2 11  1  0  0  0  0
  3 12  1  0  0  0  0
  3 11  1  0  0  0  0
  4 10  1  0  0  0  0
  5  4  1  0  0  0  0
  6 18  1  0  0  0  0
  6  7  2  0  0  0  0
  7 19  1  0  0  0  0
  8 20  1  0  0  0  0
  8  7  1  0  0  0  0
  9  8  2  0  0  0  0
 10 21  1  0  0  0  0
 10  9  1  0  0  0  0
 11  5  2  0  0  0  0
 12 22  1  0  0  0  0
 13 14  1  0  0  0  0
 13 12  1  0  0  0  0
 13 24  1  0  0  0  0
 14 26  1  0  0  0  0
 15 16  1  0  0  0  0
 15 14  1  0  0  0  0
 15 28  1  0  0  0  0
 16 30  1  0  0  0  0
 17 34  1  0  0  0  0
 17 16  1  0  0  0  0
 17 32  1  0  0  0  0
 23 12  1  0  0  0  0
 25 13  1  0  0  0  0
 27 14  1  0  0  0  0
 29 15  1  0  0  0  0
 31 16  1  0  0  0  0
 33 17  1  0  0  0  0
M  END
