2,3
 OpenBabel05122313063D

 10 10  0  0  1  0  0  0  0  0999 V2000
   -3.0266    3.2826   -0.2684 S   0  0  0  0  0  0  0  0  0  0  0  0
   -1.2087    1.5865   -2.1851 S   0  0  0  0  0  1  0  0  0  0  0  0
   -1.4553    1.3983    0.4537 N   0  0  0  0  0  2  0  0  0  0  0  0
   -2.0024    1.8265    1.6076 N   0  0  0  0  0  0  0  0  0  0  0  0
   -1.8519    2.0287   -0.6703 C   0  0  1  0  0  3  0  0  0  0  0  0
   -2.8503    2.8100    1.4333 C   0  0  0  0  0  0  0  0  0  0  0  0
   -3.5973    3.4793    2.5389 C   0  0  0  0  0  0  0  0  0  0  0  0
   -4.6955    3.3886    2.4081 H   0  0  0  0  0  0  0  0  0  0  0  0
   -3.3570    4.5609    2.6001 H   0  0  0  0  0  0  0  0  0  0  0  0
   -3.3107    2.9973    3.4925 H   0  0  0  0  0  0  0  0  0  0  0  0
  1  6  1  0  0  0  0
  3  4  1  0  0  0  0
  5  2  1  1  0  0  0
  5  1  1  0  0  0  0
  5  3  1  0  0  0  0
  6  4  2  0  0  0  0
  6  7  1  0  0  0  0
  7  9  1  0  0  0  0
  7 10  1  0  0  0  0
  8  7  1  0  0  0  0
M  END
