2,3
 OpenBabel05122313063D

 44 46  0  0  0  0  0  0  0  0999 V2000
    1.5528   -1.4700   -0.9140 S   0  0  0  0  0  0  0  0  0  0  0  0
   -1.2549    0.4754   -1.2556 S   0  0  0  0  0  0  0  0  0  0  0  0
    1.0680    1.8798    0.0992 N   0  0  0  0  0  0  0  0  0  0  0  0
    1.7438    1.7973    0.8795 H   0  0  0  0  0  0  0  0  0  0  0  0
   -1.6812    2.1555    1.2743 N   0  0  0  0  0  0  0  0  0  0  0  0
   -1.9989    1.7279    2.1476 H   0  0  0  0  0  0  0  0  0  0  0  0
   -2.9789    0.2708   -0.7888 C   0  0  0  0  0  0  0  0  0  0  0  0
   -3.7290   -0.8584   -1.1544 C   0  0  0  0  0  0  0  0  0  0  0  0
   -3.2745   -1.6937   -1.6992 H   0  0  0  0  0  0  0  0  0  0  0  0
   -5.0768   -0.9568   -0.7777 C   0  0  0  0  0  0  0  0  0  0  0  0
   -5.6423   -1.8594   -1.0514 H   0  0  0  0  0  0  0  0  0  0  0  0
   -5.6820    0.0697   -0.0441 C   0  0  0  0  0  0  0  0  0  0  0  0
   -6.7377   -0.0062    0.2551 H   0  0  0  0  0  0  0  0  0  0  0  0
   -4.9255    1.1934    0.3218 C   0  0  0  0  0  0  0  0  0  0  0  0
   -5.3877    2.0014    0.9111 H   0  0  0  0  0  0  0  0  0  0  0  0
   -3.5743    1.3200   -0.0386 C   0  0  0  0  0  0  0  0  0  0  0  0
   -2.7821    2.5308    0.4030 C   0  0  0  0  0  0  0  0  0  0  0  0
   -2.3508    3.0237   -0.4975 H   0  0  0  0  0  0  0  0  0  0  0  0
   -3.4775    3.2807    0.8571 H   0  0  0  0  0  0  0  0  0  0  0  0
   -0.6202    3.1264    1.4576 C   0  0  0  0  0  0  0  0  0  0  0  0
   -0.0411    2.8372    2.3578 H   0  0  0  0  0  0  0  0  0  0  0  0
   -0.9923    4.1695    1.6232 H   0  0  0  0  0  0  0  0  0  0  0  0
    0.3172    3.1456    0.2472 C   0  0  0  0  0  0  0  0  0  0  0  0
   -0.2657    3.2988   -0.6852 H   0  0  0  0  0  0  0  0  0  0  0  0
    1.0267    4.0007    0.3226 H   0  0  0  0  0  0  0  0  0  0  0  0
    1.8059    1.8182   -1.1924 C   0  0  0  0  0  0  0  0  0  0  0  0
    2.1317    2.8462   -1.4636 H   0  0  0  0  0  0  0  0  0  0  0  0
    1.0809    1.5096   -1.9734 H   0  0  0  0  0  0  0  0  0  0  0  0
    3.0380    0.9471   -1.1364 C   0  0  0  0  0  0  0  0  0  0  0  0
    4.2903    1.5970   -1.1187 C   0  0  0  0  0  0  0  0  0  0  0  0
    4.3128    2.6951   -1.2103 H   0  0  0  0  0  0  0  0  0  0  0  0
    5.4922    0.8938   -0.9680 C   0  0  0  0  0  0  0  0  0  0  0  0
    6.4491    1.4361   -0.9524 H   0  0  0  0  0  0  0  0  0  0  0  0
    5.4588   -0.5011   -0.8251 C   0  0  0  0  0  0  0  0  0  0  0  0
    6.3896   -1.0717   -0.6896 H   0  0  0  0  0  0  0  0  0  0  0  0
    4.2329   -1.1739   -0.8671 C   0  0  0  0  0  0  0  0  0  0  0  0
    4.1927   -2.2681   -0.7669 H   0  0  0  0  0  0  0  0  0  0  0  0
    3.0194   -0.4728   -1.0377 C   0  0  0  0  0  0  0  0  0  0  0  0
    0.6202   -1.1551   -2.4753 C   0  0  0  0  0  0  0  0  0  0  0  0
    1.0352   -0.2655   -2.9882 H   0  0  0  0  0  0  0  0  0  0  0  0
    0.7886   -2.0249   -3.1421 H   0  0  0  0  0  0  0  0  0  0  0  0
   -0.8805   -1.0407   -2.2189 C   0  0  0  0  0  0  0  0  0  0  0  0
   -1.2430   -1.9213   -1.6451 H   0  0  0  0  0  0  0  0  0  0  0  0
   -1.4332   -0.9786   -3.1782 H   0  0  0  0  0  0  0  0  0  0  0  0
  2  7  1  0  0  0  0
  3 23  1  0  0  0  0
  3  4  1  0  0  0  0
  5 20  1  0  0  0  0
  5  6  1  0  0  0  0
  7 16  1  0  0  0  0
  8  7  2  0  0  0  0
  8 10  1  0  0  0  0
  9  8  1  0  0  0  0
 10 12  2  0  0  0  0
 11 10  1  0  0  0  0
 12 13  1  0  0  0  0
 12 14  1  0  0  0  0
 14 15  1  0  0  0  0
 16 14  2  0  0  0  0
 16 17  1  0  0  0  0
 17 19  1  0  0  0  0
 17  5  1  0  0  0  0
 18 17  1  0  0  0  0
 20 22  1  0  0  0  0
 20 21  1  0  0  0  0
 23 25  1  0  0  0  0
 23 20  1  0  0  0  0
 24 23  1  0  0  0  0
 26 29  1  0  0  0  0
 26  3  1  0  0  0  0
 27 26  1  0  0  0  0
 28 26  1  0  0  0  0
 29 30  2  0  0  0  0
 29 38  1  0  0  0  0
 30 32  1  0  0  0  0
 31 30  1  0  0  0  0
 32 33  1  0  0  0  0
 32 34  2  0  0  0  0
 34 35  1  0  0  0  0
 36 34  1  0  0  0  0
 36 37  1  0  0  0  0
 38  1  1  0  0  0  0
 38 36  2  0  0  0  0
 39 42  1  0  0  0  0
 39  1  1  0  0  0  0
 40 39  1  0  0  0  0
 41 39  1  0  0  0  0
 42 43  1  0  0  0  0
 42  2  1  0  0  0  0
 44 42  1  0  0  0  0
M  END
