1,7
 OpenBabel05122313063D

 21 21  0  0  0  0  0  0  0  0999 V2000
   -0.6257   -2.5547    0.5577 S   0  0  0  0  0  1  0  0  0  0  0  0
    1.1440   -2.7232    0.8064 C   0  0  0  0  0  0  0  0  0  0  0  0
    1.5282   -3.9221    1.3025 N   0  0  0  0  0  0  0  0  0  0  0  0
    0.8583   -4.6769    1.4351 H   0  0  0  0  0  0  0  0  0  0  0  0
    2.5231   -4.1138    1.4208 H   0  0  0  0  0  0  0  0  0  0  0  0
    2.0437   -1.8041    0.5586 N   0  0  0  0  0  0  0  0  0  0  0  0
    1.5985   -0.6196    0.0761 N   0  0  0  0  0  2  0  0  0  0  0  0
    2.4417    0.3517   -0.2166 C   0  0  0  0  0  3  0  0  0  0  0  0
    1.9445    1.2571   -0.5974 H   0  0  0  0  0  0  0  0  0  0  0  0
    3.8832    0.4099   -0.1230 C   0  0  0  0  0  0  0  0  0  0  0  0
    4.4979    1.6364   -0.5449 C   0  0  0  0  0  0  0  0  0  0  0  0
    3.6898    2.6342   -0.9773 O   0  0  0  0  0  0  0  0  0  0  0  0
    4.2383    3.3904   -1.2590 H   0  0  0  0  0  0  0  0  0  0  0  0
    5.8958    1.7793   -0.5040 C   0  0  0  0  0  0  0  0  0  0  0  0
    6.3518    2.7267   -0.8345 H   0  0  0  0  0  0  0  0  0  0  0  0
    6.6991    0.7287   -0.0480 C   0  0  0  0  0  0  0  0  0  0  0  0
    7.7917    0.8567   -0.0226 H   0  0  0  0  0  0  0  0  0  0  0  0
    6.1168   -0.4811    0.3746 C   0  0  0  0  0  0  0  0  0  0  0  0
    6.7521   -1.3037    0.7323 H   0  0  0  0  0  0  0  0  0  0  0  0
    4.7313   -0.6355    0.3362 C   0  0  0  0  0  0  0  0  0  0  0  0
    4.2561   -1.5690    0.6568 H   0  0  0  0  0  0  0  0  0  0  0  0
  1  2  1  0  0  0  0
  2  3  1  0  0  0  0
  3  5  1  0  0  0  0
  3  4  1  0  0  0  0
  6  2  2  0  0  0  0
  7  6  1  0  0  0  0
  8 10  1  0  0  0  0
  8  7  1  0  0  0  0
  9  8  1  0  0  0  0
 10 20  1  0  0  0  0
 11 14  1  0  0  0  0
 11 10  2  0  0  0  0
 12 11  1  0  0  0  0
 13 12  1  0  0  0  0
 14 16  2  0  0  0  0
 15 14  1  0  0  0  0
 16 17  1  0  0  0  0
 16 18  1  0  0  0  0
 18 19  1  0  0  0  0
 20 18  2  0  0  0  0
 20 21  1  0  0  0  0
M  END
