1,3
 OpenBabel05122313063D

 29 30  0  0  0  0  0  0  0  0999 V2000
    1.4718   -3.1889   -0.5308 S   0  0  0  0  0  1  0  0  0  0  0  0
   -0.4098    3.2212   -1.6493 O   0  0  0  0  0  0  0  0  0  0  0  0
    1.0375   -0.3976   -0.9907 N   0  0  0  0  0  2  0  0  0  0  0  0
    2.7587   -2.0512   -0.8867 C   0  0  0  0  0  0  0  0  0  0  0  0
    2.4245   -0.6804   -1.0672 C   0  0  0  0  0  0  0  0  0  0  0  0
    3.4297    0.2756   -1.3105 C   0  0  0  0  0  0  0  0  0  0  0  0
    4.7685   -0.1217   -1.3797 C   0  0  0  0  0  0  0  0  0  0  0  0
    5.1058   -1.4837   -1.2316 C   0  0  0  0  0  0  0  0  0  0  0  0
    4.1142   -2.4400   -0.9932 C   0  0  0  0  0  0  0  0  0  0  0  0
    0.5293    0.6676   -1.5665 C   0  0  0  0  0  3  0  0  0  0  0  0
   -0.8901    0.9125   -1.7362 C   0  0  0  0  0  0  0  0  0  0  0  0
   -1.3603    2.2584   -1.8135 C   0  0  0  0  0  0  0  0  0  0  0  0
   -2.7274    2.5175   -2.0099 C   0  0  0  0  0  0  0  0  0  0  0  0
   -3.6289    1.4451   -2.1447 C   0  0  0  0  0  0  0  0  0  0  0  0
   -3.1801    0.1184   -2.0908 C   0  0  0  0  0  0  0  0  0  0  0  0
   -1.8210   -0.1416   -1.8858 C   0  0  0  0  0  0  0  0  0  0  0  0
   -0.8055    4.5778   -1.6993 C   0  0  0  0  0  0  0  0  0  0  0  0
   -1.4490   -1.1794   -1.8509 H   0  0  0  0  0  0  0  0  0  0  0  0
   -3.8880   -0.7164   -2.1910 H   0  0  0  0  0  0  0  0  0  0  0  0
   -4.6980    1.6602   -2.2924 H   0  0  0  0  0  0  0  0  0  0  0  0
   -3.1025    3.5484   -2.0512 H   0  0  0  0  0  0  0  0  0  0  0  0
    0.1127    5.1774   -1.5570 H   0  0  0  0  0  0  0  0  0  0  0  0
   -1.5282    4.8238   -0.8893 H   0  0  0  0  0  0  0  0  0  0  0  0
   -1.2629    4.8430   -2.6785 H   0  0  0  0  0  0  0  0  0  0  0  0
    1.2143    1.4143   -2.0063 H   0  0  0  0  0  0  0  0  0  0  0  0
    3.1705    1.3410   -1.3932 H   0  0  0  0  0  0  0  0  0  0  0  0
    5.5555    0.6306   -1.5362 H   0  0  0  0  0  0  0  0  0  0  0  0
    6.1594   -1.7973   -1.2897 H   0  0  0  0  0  0  0  0  0  0  0  0
    4.3757   -3.5010   -0.8642 H   0  0  0  0  0  0  0  0  0  0  0  0
  4  1  1  0  0  0  0
  5  3  1  0  0  0  0
  5  4  2  0  0  0  0
  6  5  1  0  0  0  0
  7  6  2  0  0  0  0
  7  8  1  0  0  0  0
  8  9  2  0  0  0  0
  9  4  1  0  0  0  0
  9 29  1  0  0  0  0
 10  3  1  0  0  0  0
 11 10  1  0  0  0  0
 12 11  1  0  0  0  0
 12  2  1  0  0  0  0
 13 12  2  0  0  0  0
 14 15  2  0  0  0  0
 14 13  1  0  0  0  0
 15 16  1  0  0  0  0
 16 18  1  0  0  0  0
 16 11  2  0  0  0  0
 17  2  1  0  0  0  0
 17 22  1  0  0  0  0
 17 23  1  0  0  0  0
 19 15  1  0  0  0  0
 20 14  1  0  0  0  0
 21 13  1  0  0  0  0
 24 17  1  0  0  0  0
 25 10  1  0  0  0  0
 26  6  1  0  0  0  0
 27  7  1  0  0  0  0
 28  8  1  0  0  0  0
M  END
