1,3
 OpenBabel05122313063D

 28 29  0  0  0  0  0  0  0  0999 V2000
   -1.0848    1.8717    0.4602 S   0  0  0  0  0  1  0  0  0  0  0  0
   -2.8646   -0.1367    0.1775 N   0  0  0  0  0  0  0  0  0  0  0  0
   -1.7074   -0.8256   -0.0944 N   0  0  0  0  0  2  0  0  0  0  0  0
   -4.3457   -2.2939   -0.3976 N   0  0  0  0  0  0  0  0  0  0  0  0
   -4.4190   -1.3498    0.0134 H   0  0  0  0  0  0  0  0  0  0  0  0
   -3.7355    1.9732    0.6942 N   0  0  0  0  0  0  0  0  0  0  0  0
   -3.4737    2.8678    1.1112 H   0  0  0  0  0  0  0  0  0  0  0  0
   -2.6711    1.1417    0.4262 C   0  0  0  0  0  0  0  0  0  0  0  0
   -1.8693   -2.0680   -0.5386 C   0  0  0  0  0  3  0  0  0  0  0  0
   -0.9446   -2.6108   -0.7785 H   0  0  0  0  0  0  0  0  0  0  0  0
   -3.0922   -2.7794   -0.7275 C   0  0  0  0  0  0  0  0  0  0  0  0
   -5.2978   -3.2250   -0.6736 C   0  0  0  0  0  0  0  0  0  0  0  0
   -6.3572   -3.0264   -0.4754 H   0  0  0  0  0  0  0  0  0  0  0  0
   -4.6639   -4.3595   -1.2065 C   0  0  0  0  0  0  0  0  0  0  0  0
   -5.1640   -5.2785   -1.5315 H   0  0  0  0  0  0  0  0  0  0  0  0
   -3.2782   -4.0858   -1.2402 C   0  0  0  0  0  0  0  0  0  0  0  0
   -2.4768   -4.7465   -1.5902 H   0  0  0  0  0  0  0  0  0  0  0  0
   -5.1098    1.7362    0.5367 C   0  0  0  0  0  0  0  0  0  0  0  0
   -6.0139    2.4421    1.3623 C   0  0  0  0  0  0  0  0  0  0  0  0
   -5.6218    3.1314    2.1268 H   0  0  0  0  0  0  0  0  0  0  0  0
   -7.3947    2.2591    1.2211 C   0  0  0  0  0  0  0  0  0  0  0  0
   -8.0818    2.8164    1.8758 H   0  0  0  0  0  0  0  0  0  0  0  0
   -7.9017    1.3647    0.2643 C   0  0  0  0  0  0  0  0  0  0  0  0
   -8.9864    1.2149    0.1619 H   0  0  0  0  0  0  0  0  0  0  0  0
   -7.0054    0.6730   -0.5664 C   0  0  0  0  0  0  0  0  0  0  0  0
   -7.3858   -0.0134   -1.3388 H   0  0  0  0  0  0  0  0  0  0  0  0
   -5.6214    0.8573   -0.4451 C   0  0  0  0  0  0  0  0  0  0  0  0
   -4.9290    0.3431   -1.1232 H   0  0  0  0  0  0  0  0  0  0  0  0
  2  8  2  0  0  0  0
  3  2  1  0  0  0  0
  4  5  1  0  0  0  0
  6  7  1  0  0  0  0
  8  1  1  0  0  0  0
  8  6  1  0  0  0  0
  9  3  1  0  0  0  0
 10  9  1  0  0  0  0
 11  9  1  0  0  0  0
 11  4  1  0  0  0  0
 12 13  1  0  0  0  0
 12  4  1  0  0  0  0
 14 12  2  0  0  0  0
 15 14  1  0  0  0  0
 16 14  1  0  0  0  0
 16 11  2  0  0  0  0
 17 16  1  0  0  0  0
 18  6  1  0  0  0  0
 18 19  1  0  0  0  0
 19 20  1  0  0  0  0
 21 19  2  0  0  0  0
 21 22  1  0  0  0  0
 23 21  1  0  0  0  0
 24 23  1  0  0  0  0
 25 27  1  0  0  0  0
 25 23  2  0  0  0  0
 26 25  1  0  0  0  0
 27 18  2  0  0  0  0
 28 27  1  0  0  0  0
M  END
