1,4
 OpenBabel05122313063D

 16 15  0  0  1  0  0  0  0  0999 V2000
   -0.5681   -1.6963   -1.2326 S   0  0  0  0  0  1  0  0  0  0  0  0
   -4.6854    0.6408   -0.7104 O   0  0  0  0  0  0  0  0  0  0  0  0
   -3.9362    0.6967    1.4335 O   0  0  0  0  0  0  0  0  0  0  0  0
   -1.3208    0.5138    0.6443 N   0  0  0  0  0  0  0  0  0  0  0  0
   -1.7066    0.2846    1.5779 H   0  0  0  0  0  0  0  0  0  0  0  0
   -1.1244    1.5255    0.6373 H   0  0  0  0  0  0  0  0  0  0  0  0
   -2.3116   -1.2457   -0.7808 C   0  0  0  0  0  0  0  0  0  0  0  0
   -2.9659   -1.4232   -1.6557 H   0  0  0  0  0  0  0  0  0  0  0  0
   -2.6493   -1.9036    0.0484 H   0  0  0  0  0  0  0  0  0  0  0  0
   -2.3751    0.2241   -0.3616 C   0  0  1  0  0  0  0  0  0  0  0  0
   -2.1848    0.8558   -1.2524 H   0  0  0  0  0  0  0  0  0  0  0  0
   -3.7382    0.5616    0.2376 C   0  0  0  0  0  0  0  0  0  0  0  0
   -6.0217    0.8871   -0.2392 C   0  0  0  0  0  0  0  0  0  0  0  0
   -6.3483    0.0796    0.4457 H   0  0  0  0  0  0  0  0  0  0  0  0
   -6.6605    0.9159   -1.1388 H   0  0  0  0  0  0  0  0  0  0  0  0
   -6.0711    1.8514    0.3043 H   0  0  0  0  0  0  0  0  0  0  0  0
  1  7  1  0  0  0  0
  2 13  1  0  0  0  0
  2 12  1  0  0  0  0
  4  5  1  0  0  0  0
  6  4  1  0  0  0  0
  7 10  1  0  0  0  0
  7  9  1  0  0  0  0
  8  7  1  0  0  0  0
 10 11  1  6  0  0  0
 10 12  1  0  0  0  0
 10  4  1  0  0  0  0
 12  3  2  0  0  0  0
 13 16  1  0  0  0  0
 13 14  1  0  0  0  0
 15 13  1  0  0  0  0
M  END
