1,2
 OpenBabel05122313063D

 17 16  0  0  1  0  0  0  0  0999 V2000
    1.3970    1.5073   -1.5291 S   0  0  0  0  0  1  0  0  0  0  0  0
    1.6942   -0.7028    0.4991 N   0  0  0  0  0  2  0  0  0  0  0  0
    2.8468   -0.1040    0.0754 N   0  0  0  0  0  0  0  0  0  0  0  0
    3.7414   -0.4445    0.4445 H   0  0  0  0  0  0  0  0  0  0  0  0
    4.0345    1.4134   -1.1969 N   0  0  0  0  0  0  0  0  0  0  0  0
    4.9197    1.0542   -0.8370 H   0  0  0  0  0  0  0  0  0  0  0  0
    4.0605    2.1480   -1.9040 H   0  0  0  0  0  0  0  0  0  0  0  0
    2.8273    0.9089   -0.8541 C   0  0  2  0  0  3  0  0  0  0  0  0
    1.7867   -1.6770    1.3681 C   0  0  0  0  0  3  0  0  0  0  0  0
    0.5152   -2.3200    1.8182 C   0  0  0  0  0  0  0  0  0  0  0  0
    0.3800   -2.1953    2.9141 H   0  0  0  0  0  0  0  0  0  0  0  0
    0.5430   -3.4131    1.6234 H   0  0  0  0  0  0  0  0  0  0  0  0
   -0.3496   -1.8842    1.2821 H   0  0  0  0  0  0  0  0  0  0  0  0
    3.1014   -2.1653    1.9125 C   0  0  0  0  0  0  0  0  0  0  0  0
    3.7563   -2.5611    1.1042 H   0  0  0  0  0  0  0  0  0  0  0  0
    2.9526   -2.9821    2.6410 H   0  0  0  0  0  0  0  0  0  0  0  0
    3.6589   -1.3557    2.4342 H   0  0  0  0  0  0  0  0  0  0  0  0
  2  9  1  0  0  0  0
  3  4  1  0  0  0  0
  3  2  1  0  0  0  0
  5  8  1  0  0  0  0
  5  6  1  0  0  0  0
  7  5  1  0  0  0  0
  8  1  1  1  0  0  0
  8  3  1  0  0  0  0
  9 10  1  0  0  0  0
  9 14  1  0  0  0  0
 10 11  1  0  0  0  0
 12 10  1  0  0  0  0
 13 10  1  0  0  0  0
 14 17  1  0  0  0  0
 14 16  1  0  0  0  0
 15 14  1  0  0  0  0
M  END
