2,8
 OpenBabel05122313063D

 42 41  0  0  1  0  0  0  0  0999 V2000
    2.4470    2.1957    0.1345 P   0  0  0  0  0  0  0  0  0  0  0  0
    1.3706   -1.8085    0.0557 S   0  0  0  0  0  1  0  0  0  0  0  0
    3.8168   -0.5049   -0.2630 N   0  0  0  0  0  0  0  0  0  0  0  0
    4.2294    0.4466   -0.3759 H   0  0  0  0  0  0  0  0  0  0  0  0
    2.3409    2.4963    1.7179 O   0  0  0  0  0  0  0  0  0  0  0  0
    1.3774    3.2439   -0.4893 O   0  0  0  0  0  0  0  0  0  0  0  0
    3.8650    2.2916   -0.3735 O   0  0  0  0  0  0  0  0  0  0  0  0
    1.7644    0.6703   -0.1223 N   0  0  0  0  0  2  0  0  0  0  0  0
    4.7202   -1.6776   -0.2293 C   0  0  0  0  0  0  0  0  0  0  0  0
    6.1390   -1.1173   -0.4115 C   0  0  0  0  0  0  0  0  0  0  0  0
    6.2375   -0.5929   -1.3836 H   0  0  0  0  0  0  0  0  0  0  0  0
    6.8787   -1.9404   -0.3872 H   0  0  0  0  0  0  0  0  0  0  0  0
    6.3904   -0.4015    0.3973 H   0  0  0  0  0  0  0  0  0  0  0  0
    4.3829   -2.6391   -1.3839 C   0  0  0  0  0  0  0  0  0  0  0  0
    3.3478   -3.0230   -1.2950 H   0  0  0  0  0  0  0  0  0  0  0  0
    5.0784   -3.5018   -1.3756 H   0  0  0  0  0  0  0  0  0  0  0  0
    4.4783   -2.1217   -2.3594 H   0  0  0  0  0  0  0  0  0  0  0  0
    4.6064   -2.3863    1.1333 C   0  0  0  0  0  0  0  0  0  0  0  0
    4.8708   -1.6906    1.9547 H   0  0  0  0  0  0  0  0  0  0  0  0
    5.2959   -3.2528    1.1722 H   0  0  0  0  0  0  0  0  0  0  0  0
    3.5750   -2.7509    1.3063 H   0  0  0  0  0  0  0  0  0  0  0  0
    1.1630    2.1409    2.5122 C   0  0  0  0  0  0  0  0  0  0  0  0
    0.4876    1.5287    1.8734 H   0  0  0  0  0  0  0  0  0  0  0  0
    0.4503    3.4234    2.9074 C   0  0  0  0  0  0  0  0  0  0  0  0
    1.1081    4.0659    3.5276 H   0  0  0  0  0  0  0  0  0  0  0  0
   -0.4662    3.1896    3.4855 H   0  0  0  0  0  0  0  0  0  0  0  0
    0.1537    3.9848    2.0006 H   0  0  0  0  0  0  0  0  0  0  0  0
    1.6436    1.2888    3.6753 C   0  0  0  0  0  0  0  0  0  0  0  0
    2.1214    0.3611    3.3017 H   0  0  0  0  0  0  0  0  0  0  0  0
    0.7874    1.0008    4.3179 H   0  0  0  0  0  0  0  0  0  0  0  0
    2.3794    1.8419    4.2939 H   0  0  0  0  0  0  0  0  0  0  0  0
    1.4578    3.6502   -1.8926 C   0  0  0  0  0  0  0  0  0  0  0  0
    2.5104    3.9589   -2.0758 H   0  0  0  0  0  0  0  0  0  0  0  0
    0.5279    4.8460   -2.0219 C   0  0  0  0  0  0  0  0  0  0  0  0
   -0.5166    4.5406   -1.8085 H   0  0  0  0  0  0  0  0  0  0  0  0
    0.5725    5.2591   -3.0490 H   0  0  0  0  0  0  0  0  0  0  0  0
    0.8141    5.6420   -1.3077 H   0  0  0  0  0  0  0  0  0  0  0  0
    2.4862   -0.4745   -0.1308 C   0  0  1  0  0  3  0  0  0  0  0  0
    1.0951    2.5007   -2.8271 C   0  0  0  0  0  0  0  0  0  0  0  0
    1.7965    1.6516   -2.7110 H   0  0  0  0  0  0  0  0  0  0  0  0
    1.1452    2.8459   -3.8794 H   0  0  0  0  0  0  0  0  0  0  0  0
    0.0695    2.1352   -2.6177 H   0  0  0  0  0  0  0  0  0  0  0  0
  1  5  1  0  0  0  0
  3  9  1  0  0  0  0
  3 38  1  0  0  0  0
  4  3  1  0  0  0  0
  5 22  1  0  0  0  0
  6  1  1  0  0  0  0
  7  1  2  0  0  0  0
  8  1  1  0  0  0  0
  9 18  1  0  0  0  0
 10 12  1  0  0  0  0
 10  9  1  0  0  0  0
 10 13  1  0  0  0  0
 11 10  1  0  0  0  0
 14 16  1  0  0  0  0
 14 15  1  0  0  0  0
 14  9  1  0  0  0  0
 17 14  1  0  0  0  0
 18 20  1  0  0  0  0
 18 21  1  0  0  0  0
 18 19  1  0  0  0  0
 22 24  1  0  0  0  0
 22 28  1  0  0  0  0
 23 22  1  0  0  0  0
 24 26  1  0  0  0  0
 24 25  1  0  0  0  0
 27 24  1  0  0  0  0
 28 31  1  0  0  0  0
 28 30  1  0  0  0  0
 29 28  1  0  0  0  0
 32  6  1  0  0  0  0
 33 32  1  0  0  0  0
 34 32  1  0  0  0  0
 34 35  1  0  0  0  0
 34 37  1  0  0  0  0
 36 34  1  0  0  0  0
 38  8  1  0  0  0  0
 38  2  1  6  0  0  0
 39 40  1  0  0  0  0
 39 42  1  0  0  0  0
 39 32  1  0  0  0  0
 41 39  1  0  0  0  0
M  END
