1,2
 OpenBabel05122313063D

 25 26  0  0  1  0  0  0  0  0999 V2000
    1.0393    2.2385    0.4529 S   0  0  0  0  0  0  0  0  0  0  0  0
   -1.0021    0.1205   -0.0754 N   0  0  0  0  0  2  0  0  0  0  0  0
   -2.8389    1.3961   -0.2487 N   0  0  0  0  0  0  0  0  0  0  0  0
   -3.2829    0.0867   -0.0765 C   0  0  0  0  0  0  0  0  0  0  0  0
   -4.5737   -0.4584   -0.0067 C   0  0  0  0  0  0  0  0  0  0  0  0
   -5.4752    0.1639   -0.0989 H   0  0  0  0  0  0  0  0  0  0  0  0
   -4.6583   -1.8436    0.1864 C   0  0  0  0  0  0  0  0  0  0  0  0
   -5.6492   -2.3174    0.2465 H   0  0  0  0  0  0  0  0  0  0  0  0
   -3.4983   -2.6468    0.3044 C   0  0  0  0  0  0  0  0  0  0  0  0
   -3.6115   -3.7306    0.4540 H   0  0  0  0  0  0  0  0  0  0  0  0
   -2.2124   -2.0991    0.2328 C   0  0  0  0  0  0  0  0  0  0  0  0
   -1.3129   -2.7224    0.3171 H   0  0  0  0  0  0  0  0  0  0  0  0
   -2.1109   -0.7110    0.0368 C   0  0  0  0  0  0  0  0  0  0  0  0
   -3.7073    2.5403   -0.4411 C   0  0  0  0  0  0  0  0  0  0  0  0
   -3.1042    3.4550   -0.5749 H   0  0  0  0  0  0  0  0  0  0  0  0
   -4.3728    2.6758    0.4357 H   0  0  0  0  0  0  0  0  0  0  0  0
   -4.3347    2.4004   -1.3448 H   0  0  0  0  0  0  0  0  0  0  0  0
   -1.4644    1.3642   -0.2400 C   0  0  2  0  0  3  0  0  0  0  0  0
   -0.5577    2.5348   -0.4180 C   0  0  0  0  0  0  0  0  0  0  0  0
   -0.9955    3.4949   -0.0831 H   0  0  0  0  0  0  0  0  0  0  0  0
   -0.2383    2.5980   -1.4817 H   0  0  0  0  0  0  0  0  0  0  0  0
    0.4833    2.3797    2.1858 C   0  0  0  0  0  0  0  0  0  0  0  0
    0.2160    3.4294    2.4140 H   0  0  0  0  0  0  0  0  0  0  0  0
    1.3398    2.0669    2.8114 H   0  0  0  0  0  0  0  0  0  0  0  0
   -0.3657    1.6963    2.3782 H   0  0  0  0  0  0  0  0  0  0  0  0
  1 22  1  0  0  0  0
  2 13  1  0  0  0  0
  3 18  1  0  0  0  0
  3  4  1  0  0  0  0
  4  5  2  0  0  0  0
  4 13  1  0  0  0  0
  5  7  1  0  0  0  0
  6  5  1  0  0  0  0
  7  8  1  0  0  0  0
  7  9  2  0  0  0  0
  9 10  1  0  0  0  0
 11  9  1  0  0  0  0
 11 12  1  0  0  0  0
 13 11  2  0  0  0  0
 14  3  1  0  0  0  0
 14 16  1  0  0  0  0
 15 14  1  0  0  0  0
 17 14  1  0  0  0  0
 18 19  1  6  0  0  0
 18  2  1  0  0  0  0
 19 20  1  0  0  0  0
 19  1  1  0  0  0  0
 21 19  1  0  0  0  0
 22 25  1  0  0  0  0
 22 23  1  0  0  0  0
 22 24  1  0  0  0  0
M  END
