1,4
 OpenBabel05122313063D

 22 22  0  0  1  0  0  0  0  0999 V2000
    1.8907    0.3727    0.0890 N   0  0  0  0  0  2  0  0  0  0  0  0
    2.3265    1.6565    0.2539 N   0  0  0  0  0  2  0  0  0  0  0  0
    1.7198    3.8756    0.1087 N   0  0  0  0  0  0  0  0  0  0  0  0
   -0.2072    2.1310   -0.5536 S   0  0  0  0  0  1  0  0  0  0  0  0
    6.3883    0.6555    0.5735 O   0  0  0  0  0  0  0  0  0  0  0  0
    1.4012    2.5573   -0.0117 C   0  0  1  0  0  3  0  0  0  0  0  0
    2.8183   -0.5611   -0.0228 C   0  0  0  0  0  0  0  0  0  0  0  0
    4.2636   -0.4438    0.0223 C   0  0  0  0  0  0  0  0  0  0  0  0
    5.0058    0.8469    0.3302 C   0  0  0  0  0  0  0  0  0  0  0  0
    7.0089   -0.1704   -0.3923 C   0  0  0  0  0  0  0  0  0  0  0  0
    6.4769   -1.6008   -0.2843 C   0  0  0  0  0  0  0  0  0  0  0  0
    4.9812   -1.5833   -0.2263 C   0  0  0  0  0  3  0  0  0  0  0  0
    2.4253   -1.5759   -0.1884 H   0  0  0  0  0  0  0  0  0  0  0  0
    2.7009    4.1278    0.2268 H   0  0  0  0  0  0  0  0  0  0  0  0
    1.0686    4.5764   -0.2365 H   0  0  0  0  0  0  0  0  0  0  0  0
    4.5816    1.3189    1.2357 H   0  0  0  0  0  0  0  0  0  0  0  0
    4.8347    1.5757   -0.5005 H   0  0  0  0  0  0  0  0  0  0  0  0
    8.0997   -0.1256   -0.2005 H   0  0  0  0  0  0  0  0  0  0  0  0
    6.8278    0.2199   -1.4257 H   0  0  0  0  0  0  0  0  0  0  0  0
    6.8879   -2.0907    0.6292 H   0  0  0  0  0  0  0  0  0  0  0  0
    6.8249   -2.2200   -1.1407 H   0  0  0  0  0  0  0  0  0  0  0  0
    4.4372   -2.5263   -0.4065 H   0  0  0  0  0  0  0  0  0  0  0  0
  1  2  1  0  0  0  0
  3 14  1  0  0  0  0
  6  4  1  6  0  0  0
  6  3  1  0  0  0  0
  6  2  1  0  0  0  0
  7  8  2  0  0  0  0
  7  1  1  0  0  0  0
  8  9  1  0  0  0  0
  9  5  1  0  0  0  0
  9 16  1  0  0  0  0
 10 11  1  0  0  0  0
 10 18  1  0  0  0  0
 10  5  1  0  0  0  0
 11 12  1  0  0  0  0
 11 20  1  0  0  0  0
 12  8  1  0  0  0  0
 13  7  1  0  0  0  0
 15  3  1  0  0  0  0
 17  9  1  0  0  0  0
 19 10  1  0  0  0  0
 21 11  1  0  0  0  0
 22 12  1  0  0  0  0
M  END
