1,7
 OpenBabel05122313063D

 31 32  0  0  0  0  0  0  0  0999 V2000
    1.7780    1.2037    2.4455 S   0  0  0  0  0  1  0  0  0  0  0  0
    9.4761    1.1081   -1.9593 F   0  0  0  0  0  0  0  0  0  0  0  0
    9.1548   -1.0452   -2.0519 F   0  0  0  0  0  0  0  0  0  0  0  0
   10.2309   -0.1649   -0.3605 F   0  0  0  0  0  0  0  0  0  0  0  0
    2.3383   -2.6150   -0.9575 N   0  0  0  0  0  0  0  0  0  0  0  0
    3.2219   -2.1788   -0.6478 H   0  0  0  0  0  0  0  0  0  0  0  0
    1.4040   -0.9708    0.4260 N   0  0  0  0  0  2  0  0  0  0  0  0
    2.7138   -0.5881    0.5595 N   0  0  0  0  0  0  0  0  0  0  0  0
    4.2582    0.8119    1.6091 N   0  0  0  0  0  0  0  0  0  0  0  0
    4.3565    1.4224    2.4223 H   0  0  0  0  0  0  0  0  0  0  0  0
    2.2688   -3.6811   -1.8053 C   0  0  0  0  0  3  0  0  0  0  0  0
    3.2276   -4.0506   -2.1963 H   0  0  0  0  0  0  0  0  0  0  0  0
    1.0505   -4.2352   -2.1260 C   0  0  0  0  0  0  0  0  0  0  0  0
    0.9968   -5.0897   -2.8121 H   0  0  0  0  0  0  0  0  0  0  0  0
   -0.1275   -3.6752   -1.5310 C   0  0  0  0  0  0  0  0  0  0  0  0
   -1.1103   -4.1155   -1.7560 H   0  0  0  0  0  0  0  0  0  0  0  0
   -0.0482   -2.5984   -0.6737 C   0  0  0  0  0  0  0  0  0  0  0  0
   -0.9305   -2.1687   -0.1784 H   0  0  0  0  0  0  0  0  0  0  0  0
    1.2295   -2.0213   -0.3736 C   0  0  0  0  0  0  0  0  0  0  0  0
    2.9526    0.3707    1.4262 C   0  0  0  0  0  0  0  0  0  0  0  0
    5.4237    0.5646    0.8928 C   0  0  0  0  0  0  0  0  0  0  0  0
    5.4541   -0.0356   -0.3909 C   0  0  0  0  0  0  0  0  0  0  0  0
    4.5087   -0.3306   -0.8587 H   0  0  0  0  0  0  0  0  0  0  0  0
    6.6723   -0.2210   -1.0507 C   0  0  0  0  0  0  0  0  0  0  0  0
    6.6825   -0.6863   -2.0473 H   0  0  0  0  0  0  0  0  0  0  0  0
    7.8856    0.1746   -0.4619 C   0  0  0  0  0  0  0  0  0  0  0  0
    7.8616    0.7778    0.8098 C   0  0  0  0  0  0  0  0  0  0  0  0
    8.8035    1.0873    1.2850 H   0  0  0  0  0  0  0  0  0  0  0  0
    6.6523    0.9696    1.4763 C   0  0  0  0  0  0  0  0  0  0  0  0
    6.6466    1.4341    2.4750 H   0  0  0  0  0  0  0  0  0  0  0  0
    9.1836    0.0146   -1.2043 C   0  0  0  0  0  0  0  0  0  0  0  0
  2 31  1  0  0  0  0
  3 31  1  0  0  0  0
  5  6  1  0  0  0  0
  5 19  1  0  0  0  0
  7  8  1  0  0  0  0
  8 20  2  0  0  0  0
  9 10  1  0  0  0  0
 11  5  1  0  0  0  0
 12 11  1  0  0  0  0
 13 11  1  0  0  0  0
 13 15  2  0  0  0  0
 14 13  1  0  0  0  0
 15 17  1  0  0  0  0
 16 15  1  0  0  0  0
 17 19  2  0  0  0  0
 17 18  1  0  0  0  0
 19  7  1  0  0  0  0
 20  9  1  0  0  0  0
 20  1  1  0  0  0  0
 21 29  1  0  0  0  0
 21  9  1  0  0  0  0
 22 21  2  0  0  0  0
 23 22  1  0  0  0  0
 24 26  2  0  0  0  0
 24 22  1  0  0  0  0
 25 24  1  0  0  0  0
 26 27  1  0  0  0  0
 27 28  1  0  0  0  0
 27 29  2  0  0  0  0
 29 30  1  0  0  0  0
 31 26  1  0  0  0  0
 31  4  1  0  0  0  0
M  END
