1,5
 OpenBabel05122313063D

 26 26  0  0  1  0  0  0  0  0999 V2000
    1.5101    0.0737   -0.8155 S   0  0  0  0  0  1  0  0  0  0  0  0
    4.4363    0.5136   -0.3195 S   0  0  0  0  0  0  0  0  0  0  0  0
    2.8135    3.0681    0.5940 O   0  0  0  0  0  0  0  0  0  0  0  0
    2.0901    3.4417   -1.5309 O   0  0  0  0  0  0  0  0  0  0  0  0
    0.9297   -2.6872    0.2434 N   0  0  0  0  0  2  0  0  0  0  0  0
    0.4210   -3.5459    0.4967 H   0  0  0  0  0  0  0  0  0  0  0  0
    2.8620    2.8453   -0.5991 C   0  0  0  0  0  0  0  0  0  0  0  0
    3.8575    1.9224   -1.3021 C   0  0  0  0  0  0  0  0  0  0  0  0
    3.4417    1.5851   -2.2710 H   0  0  0  0  0  0  0  0  0  0  0  0
    4.7830    2.5014   -1.5072 H   0  0  0  0  0  0  0  0  0  0  0  0
    3.2226   -1.7879    0.3463 C   0  0  0  0  0  0  0  0  0  0  0  0
    2.2138   -2.7769    0.5372 C   0  0  1  0  0  3  0  0  0  0  0  0
    2.8317   -3.9943    1.2056 C   0  0  0  0  0  0  0  0  0  0  0  0
    2.4057   -4.9478    0.8295 H   0  0  0  0  0  0  0  0  0  0  0  0
    2.6074   -3.9473    2.2960 H   0  0  0  0  0  0  0  0  0  0  0  0
    4.3390   -3.8320    0.9427 C   0  0  0  0  0  0  0  0  0  0  0  0
    4.5898   -4.2871   -0.0379 H   0  0  0  0  0  0  0  0  0  0  0  0
    4.9696   -4.3235    1.7090 H   0  0  0  0  0  0  0  0  0  0  0  0
    4.5521   -2.3051    0.8653 C   0  0  0  0  0  0  0  0  0  0  0  0
    4.7761   -1.8783    1.8706 H   0  0  0  0  0  0  0  0  0  0  0  0
    5.4054   -2.0262    0.2117 H   0  0  0  0  0  0  0  0  0  0  0  0
    3.0058   -0.5309   -0.2178 C   0  0  0  0  0  0  0  0  0  0  0  0
    1.0937    4.3472   -1.0356 C   0  0  0  0  0  0  0  0  0  0  0  0
    0.6623    4.8397   -1.9254 H   0  0  0  0  0  0  0  0  0  0  0  0
    0.3092    3.7935   -0.4818 H   0  0  0  0  0  0  0  0  0  0  0  0
    1.5451    5.0992   -0.3575 H   0  0  0  0  0  0  0  0  0  0  0  0
  1 22  1  0  0  0  0
  2 22  1  0  0  0  0
  4 23  1  0  0  0  0
  4  7  1  0  0  0  0
  5  6  1  0  0  0  0
  7  3  2  0  0  0  0
  8  7  1  0  0  0  0
  8  2  1  0  0  0  0
  9  8  1  0  0  0  0
 10  8  1  0  0  0  0
 11 12  1  0  0  0  0
 11 19  1  0  0  0  0
 12  5  1  1  0  0  0
 12 13  1  0  0  0  0
 13 15  1  0  0  0  0
 14 13  1  0  0  0  0
 16 13  1  0  0  0  0
 16 18  1  0  0  0  0
 17 16  1  0  0  0  0
 19 16  1  0  0  0  0
 19 20  1  0  0  0  0
 21 19  1  0  0  0  0
 22 11  2  0  0  0  0
 23 25  1  0  0  0  0
 23 26  1  0  0  0  0
 24 23  1  0  0  0  0
M  END
