1,9
 OpenBabel05122313063D

 13 14  0  0  0  0  0  0  0  0999 V2000
   -0.7437   -1.3913   -1.3079 S   0  0  0  0  0  1  0  0  0  0  0  0
   -3.3876   -2.1580   -1.1838 N   0  0  0  0  0  0  0  0  0  0  0  0
   -4.6583   -1.9358   -0.7588 C   0  0  0  0  0  0  0  0  0  0  0  0
   -5.4041   -2.6804   -1.0853 H   0  0  0  0  0  0  0  0  0  0  0  0
   -5.1275   -0.9263    0.0030 N   0  0  0  0  0  0  0  0  0  0  0  0
   -4.1643   -0.0754    0.3600 C   0  0  0  0  0  0  0  0  0  0  0  0
   -2.8217   -0.2120   -0.0074 C   0  0  0  0  0  0  0  0  0  0  0  0
   -2.4423   -1.2907   -0.8177 C   0  0  0  0  0  0  0  0  0  0  0  0
   -2.0669    0.8127    0.5030 N   0  0  0  0  0  2  0  0  0  0  0  0
   -2.9108    1.5920    1.1802 C   0  0  0  0  0  3  0  0  0  0  0  0
   -2.6327    2.5098    1.7124 H   0  0  0  0  0  0  0  0  0  0  0  0
   -4.1870    1.0934    1.1221 N   0  0  0  0  0  0  0  0  0  0  0  0
   -5.0137    1.5143    1.5554 H   0  0  0  0  0  0  0  0  0  0  0  0
  1  8  1  0  0  0  0
  2  8  2  0  0  0  0
  2  3  1  0  0  0  0
  3  5  2  0  0  0  0
  4  3  1  0  0  0  0
  5  6  1  0  0  0  0
  6 12  1  0  0  0  0
  7  6  2  0  0  0  0
  7  9  1  0  0  0  0
  8  7  1  0  0  0  0
  9 10  1  0  0  0  0
 10 11  1  0  0  0  0
 12 10  1  0  0  0  0
 12 13  1  0  0  0  0
M  END
