2,3
 OpenBabel05122313063D

 62 66  0  0  1  0  0  0  0  0999 V2000
    2.1744   -0.3613    2.4405 S   0  0  0  0  0  0  0  0  0  0  0  0
    1.1913   -0.2985   -2.3819 S   0  0  0  0  0  0  0  0  0  0  0  0
    2.0051    1.5438   -0.0036 N   0  0  0  0  0  2  0  0  0  0  0  0
   -1.8570   -1.3305    0.8895 N   0  0  0  0  0  0  0  0  0  0  0  0
   -0.9711   -2.1248    1.7437 C   0  0  0  0  0  0  0  0  0  0  0  0
   -0.1238   -2.4943    1.1332 H   0  0  0  0  0  0  0  0  0  0  0  0
   -1.4995   -3.0410    2.1212 H   0  0  0  0  0  0  0  0  0  0  0  0
   -0.4163   -1.3640    2.9564 C   0  0  0  0  0  0  0  0  0  0  0  0
   -1.2460   -1.0825    3.6386 H   0  0  0  0  0  0  0  0  0  0  0  0
    0.2165   -2.0593    3.5469 H   0  0  0  0  0  0  0  0  0  0  0  0
    0.3630   -0.0849    2.6255 C   0  0  0  0  0  0  0  0  0  0  0  0
    0.2601    0.6610    3.4397 H   0  0  0  0  0  0  0  0  0  0  0  0
   -0.0272    0.3656    1.6909 H   0  0  0  0  0  0  0  0  0  0  0  0
    2.7209    1.3769    2.3359 C   0  0  0  0  0  0  0  0  0  0  0  0
    2.5312    1.8895    3.2996 H   0  0  0  0  0  0  0  0  0  0  0  0
    3.8192    1.2979    2.1736 H   0  0  0  0  0  0  0  0  0  0  0  0
    2.1241    2.1603    1.1876 C   0  0  1  0  0  3  0  0  0  0  0  0
    1.7486    3.5061    1.3480 C   0  0  0  0  0  0  0  0  0  0  0  0
    1.8505    3.9918    2.3294 H   0  0  0  0  0  0  0  0  0  0  0  0
    1.2493    4.2046    0.2409 C   0  0  0  0  0  0  0  0  0  0  0  0
    0.9419    5.2566    0.3393 H   0  0  0  0  0  0  0  0  0  0  0  0
    1.1349    3.5469   -0.9892 C   0  0  0  0  0  0  0  0  0  0  0  0
    0.7387    4.0627   -1.8756 H   0  0  0  0  0  0  0  0  0  0  0  0
    1.5416    2.2030   -1.0796 C   0  0  0  0  0  0  0  0  0  0  0  0
    1.5332    1.4922   -2.4159 C   0  0  0  0  0  0  0  0  0  0  0  0
    2.5597    1.5490   -2.8408 H   0  0  0  0  0  0  0  0  0  0  0  0
    0.8329    1.9891   -3.1154 H   0  0  0  0  0  0  0  0  0  0  0  0
   -0.4543   -0.3600   -1.5747 C   0  0  0  0  0  0  0  0  0  0  0  0
   -0.4063    0.1688   -0.6018 H   0  0  0  0  0  0  0  0  0  0  0  0
   -1.1826    0.1744   -2.2199 H   0  0  0  0  0  0  0  0  0  0  0  0
   -0.8477   -1.8205   -1.3522 C   0  0  0  0  0  0  0  0  0  0  0  0
    0.0154   -2.3772   -0.9305 H   0  0  0  0  0  0  0  0  0  0  0  0
   -1.0908   -2.3072   -2.3194 H   0  0  0  0  0  0  0  0  0  0  0  0
   -2.0613   -1.9442   -0.4250 C   0  0  0  0  0  0  0  0  0  0  0  0
   -2.9253   -1.4379   -0.8997 H   0  0  0  0  0  0  0  0  0  0  0  0
   -2.3419   -3.0260   -0.3380 H   0  0  0  0  0  0  0  0  0  0  0  0
   -3.1224   -1.0004    1.5628 C   0  0  0  0  0  0  0  0  0  0  0  0
   -2.8799   -0.4455    2.4931 H   0  0  0  0  0  0  0  0  0  0  0  0
   -3.6423   -1.9271    1.9084 H   0  0  0  0  0  0  0  0  0  0  0  0
   -4.0571   -0.1457    0.7296 C   0  0  0  0  0  0  0  0  0  0  0  0
   -5.2586   -0.6789    0.1787 C   0  0  0  0  0  0  0  0  0  0  0  0
   -5.6745   -2.0423    0.3594 C   0  0  0  0  0  0  0  0  0  0  0  0
   -5.0482   -2.7245    0.9491 H   0  0  0  0  0  0  0  0  0  0  0  0
   -6.8439   -2.5250   -0.1963 C   0  0  0  0  0  0  0  0  0  0  0  0
   -7.1281   -3.5762   -0.0369 H   0  0  0  0  0  0  0  0  0  0  0  0
   -7.6875   -1.6775   -0.9741 C   0  0  0  0  0  0  0  0  0  0  0  0
   -8.6177   -2.0765   -1.4053 H   0  0  0  0  0  0  0  0  0  0  0  0
   -7.3274   -0.3626   -1.1842 C   0  0  0  0  0  0  0  0  0  0  0  0
   -7.9632    0.3041   -1.7874 H   0  0  0  0  0  0  0  0  0  0  0  0
   -6.1178    0.1736   -0.6322 C   0  0  0  0  0  0  0  0  0  0  0  0
   -5.7433    1.5057   -0.8776 C   0  0  0  0  0  0  0  0  0  0  0  0
   -6.3938    2.1400   -1.5007 H   0  0  0  0  0  0  0  0  0  0  0  0
   -4.5573    2.0452   -0.3513 C   0  0  0  0  0  0  0  0  0  0  0  0
   -3.0159    3.9315   -0.0807 C   0  0  0  0  0  0  0  0  0  0  0  0
   -2.7374    4.9766   -0.2847 H   0  0  0  0  0  0  0  0  0  0  0  0
   -4.1762    3.4032   -0.6100 C   0  0  0  0  0  0  0  0  0  0  0  0
   -4.8372    4.0186   -1.2402 H   0  0  0  0  0  0  0  0  0  0  0  0
   -2.1804    3.1206    0.7441 C   0  0  0  0  0  0  0  0  0  0  0  0
   -1.2618    3.5445    1.1752 H   0  0  0  0  0  0  0  0  0  0  0  0
   -2.5114    1.8050    1.0064 C   0  0  0  0  0  0  0  0  0  0  0  0
   -1.8483    1.1956    1.6300 H   0  0  0  0  0  0  0  0  0  0  0  0
   -3.7022    1.2090    0.4730 C   0  0  0  0  0  0  0  0  0  0  0  0
  1 11  1  0  0  0  0
  2 28  1  0  0  0  0
  4 37  1  0  0  0  0
  4  5  1  0  0  0  0
  5  7  1  0  0  0  0
  5  8  1  0  0  0  0
  6  5  1  0  0  0  0
  8 10  1  0  0  0  0
  8  9  1  0  0  0  0
 11  8  1  0  0  0  0
 11 12  1  0  0  0  0
 13 11  1  0  0  0  0
 14  1  1  0  0  0  0
 14 15  1  0  0  0  0
 16 14  1  0  0  0  0
 17  3  1  6  0  0  0
 17 18  1  0  0  0  0
 17 14  1  0  0  0  0
 18 19  1  0  0  0  0
 20 21  1  0  0  0  0
 20 18  2  0  0  0  0
 22 20  1  0  0  0  0
 23 22  1  0  0  0  0
 24 22  2  0  0  0  0
 24  3  1  0  0  0  0
 25  2  1  0  0  0  0
 25 24  1  0  0  0  0
 26 25  1  0  0  0  0
 27 25  1  0  0  0  0
 28 31  1  0  0  0  0
 28 29  1  0  0  0  0
 30 28  1  0  0  0  0
 31 32  1  0  0  0  0
 31 34  1  0  0  0  0
 33 31  1  0  0  0  0
 34 36  1  0  0  0  0
 34  4  1  0  0  0  0
 35 34  1  0  0  0  0
 37 39  1  0  0  0  0
 37 38  1  0  0  0  0
 40 37  1  0  0  0  0
 41 42  1  0  0  0  0
 41 40  2  0  0  0  0
 42 43  1  0  0  0  0
 44 45  1  0  0  0  0
 44 42  2  0  0  0  0
 46 44  1  0  0  0  0
 47 46  1  0  0  0  0
 48 46  2  0  0  0  0
 48 50  1  0  0  0  0
 49 48  1  0  0  0  0
 50 41  1  0  0  0  0
 51 50  2  0  0  0  0
 51 53  1  0  0  0  0
 52 51  1  0  0  0  0
 53 62  1  0  0  0  0
 54 58  2  0  0  0  0
 55 54  1  0  0  0  0
 56 53  2  0  0  0  0
 56 54  1  0  0  0  0
 57 56  1  0  0  0  0
 58 60  1  0  0  0  0
 58 59  1  0  0  0  0
 60 61  1  0  0  0  0
 62 40  1  0  0  0  0
 62 60  2  0  0  0  0
M  END
