1,2
 OpenBabel05122313063D

 32 32  0  0  1  0  0  0  0  0999 V2000
   -1.0093    1.2615    1.0926 S   0  0  0  0  0  1  0  0  0  0  0  0
   -2.1597   -1.0182   -0.7790 N   0  0  0  0  0  2  0  0  0  0  0  0
   -2.2057   -1.9126   -1.2904 H   0  0  0  0  0  0  0  0  0  0  0  0
   -3.5716    0.5955    0.2459 N   0  0  0  0  0  2  0  0  0  0  0  0
   -4.5024   -1.5218   -0.3845 C   0  0  0  0  0  0  0  0  0  0  0  0
   -4.3160   -2.9215   -0.3722 C   0  0  0  0  0  0  0  0  0  0  0  0
   -3.3026   -3.3370   -0.2586 H   0  0  0  0  0  0  0  0  0  0  0  0
   -5.4193   -3.7822   -0.4541 C   0  0  0  0  0  0  0  0  0  0  0  0
   -5.2634   -4.8712   -0.4305 H   0  0  0  0  0  0  0  0  0  0  0  0
   -6.7178   -3.2572   -0.5512 C   0  0  0  0  0  0  0  0  0  0  0  0
   -7.5829   -3.9345   -0.6181 H   0  0  0  0  0  0  0  0  0  0  0  0
   -6.9110   -1.8651   -0.5547 C   0  0  0  0  0  0  0  0  0  0  0  0
   -7.9279   -1.4505   -0.6294 H   0  0  0  0  0  0  0  0  0  0  0  0
   -5.8118   -1.0029   -0.4641 C   0  0  0  0  0  0  0  0  0  0  0  0
   -5.9430    0.0884   -0.4641 H   0  0  0  0  0  0  0  0  0  0  0  0
   -4.9793    3.3931   -0.7546 C   0  0  0  0  0  0  0  0  0  0  0  0
   -6.0621    3.6119   -0.8503 H   0  0  0  0  0  0  0  0  0  0  0  0
   -4.7335    2.5510   -1.4310 H   0  0  0  0  0  0  0  0  0  0  0  0
   -4.4195    4.2878   -1.0957 H   0  0  0  0  0  0  0  0  0  0  0  0
   -4.6324    3.0291    0.6885 C   0  0  0  0  0  0  0  0  0  0  0  0
   -4.9144    3.8485    1.3816 H   0  0  0  0  0  0  0  0  0  0  0  0
   -5.1834    2.1181    0.9931 H   0  0  0  0  0  0  0  0  0  0  0  0
   -2.3690    3.8780    1.3391 C   0  0  0  0  0  0  0  0  0  0  0  0
   -2.8056    4.8075    0.9171 H   0  0  0  0  0  0  0  0  0  0  0  0
   -1.3607    3.7519    0.8942 H   0  0  0  0  0  0  0  0  0  0  0  0
   -2.2542    3.9726    2.8613 C   0  0  0  0  0  0  0  0  0  0  0  0
   -1.6453    4.8546    3.1450 H   0  0  0  0  0  0  0  0  0  0  0  0
   -1.7558    3.0693    3.2653 H   0  0  0  0  0  0  0  0  0  0  0  0
   -3.2498    4.0738    3.3394 H   0  0  0  0  0  0  0  0  0  0  0  0
   -3.3295   -0.6021   -0.2900 C   0  0  1  0  0  3  0  0  0  0  0  0
   -2.7041    1.5138    0.6623 C   0  0  1  0  0  3  0  0  0  0  0  0
   -3.2041    2.7654    0.8854 N   0  0  0  0  0  0  0  0  0  0  0  0
  3  2  1  0  0  0  0
  4 31  1  0  0  0  0
  5  6  1  0  0  0  0
  5 30  1  0  0  0  0
  6  7  1  0  0  0  0
  8  9  1  0  0  0  0
  8  6  2  0  0  0  0
 10  8  1  0  0  0  0
 11 10  1  0  0  0  0
 12 10  2  0  0  0  0
 12 14  1  0  0  0  0
 13 12  1  0  0  0  0
 14 15  1  0  0  0  0
 14  5  2  0  0  0  0
 16 20  1  0  0  0  0
 17 16  1  0  0  0  0
 18 16  1  0  0  0  0
 19 16  1  0  0  0  0
 20 32  1  0  0  0  0
 20 22  1  0  0  0  0
 20 21  1  0  0  0  0
 23 26  1  0  0  0  0
 24 23  1  0  0  0  0
 25 23  1  0  0  0  0
 26 27  1  0  0  0  0
 26 28  1  0  0  0  0
 26 29  1  0  0  0  0
 30  2  1  6  0  0  0
 30  4  1  0  0  0  0
 31 32  1  0  0  0  0
 31  1  1  1  0  0  0
 32 23  1  0  0  0  0
M  END
