1,22
 OpenBabel05122313063D

 23 23  0  0  0  0  0  0  0  0999 V2000
   -0.9108    0.5496   -1.0936 N   0  0  0  0  0  2  0  0  0  0  0  0
   -5.0190   -1.7750   -0.4220 O   0  0  0  0  0  0  0  0  0  0  0  0
   -4.5185   -0.1162    1.0567 O   0  0  0  0  0  0  0  0  0  0  0  0
   -0.6171   -0.2469   -2.1284 C   0  0  0  0  0  3  0  0  0  0  0  0
   -1.4817   -1.2769   -2.5247 C   0  0  0  0  0  0  0  0  0  0  0  0
   -2.6713   -1.4555   -1.8063 C   0  0  0  0  0  0  0  0  0  0  0  0
   -2.9873   -0.6207   -0.7171 C   0  0  0  0  0  0  0  0  0  0  0  0
   -4.2369   -0.7869    0.0762 C   0  0  0  0  0  0  0  0  0  0  0  0
   -6.2724   -2.0391    0.2771 C   0  0  0  0  0  0  0  0  0  0  0  0
   -6.0068   -2.9640    1.4593 C   0  0  0  0  0  0  0  0  0  0  0  0
   -5.3188   -2.4845    2.1816 H   0  0  0  0  0  0  0  0  0  0  0  0
   -5.5640   -3.9212    1.1164 H   0  0  0  0  0  0  0  0  0  0  0  0
   -6.9550   -3.1888    1.9874 H   0  0  0  0  0  0  0  0  0  0  0  0
   -7.2224   -2.6165   -0.7597 C   0  0  0  0  0  0  0  0  0  0  0  0
   -7.3593   -1.9142   -1.6048 H   0  0  0  0  0  0  0  0  0  0  0  0
   -8.2132   -2.8080   -0.3026 H   0  0  0  0  0  0  0  0  0  0  0  0
   -6.8351   -3.5755   -1.1601 H   0  0  0  0  0  0  0  0  0  0  0  0
    0.3425   -0.0438   -2.6316 H   0  0  0  0  0  0  0  0  0  0  0  0
   -1.2247   -1.9218   -3.3760 H   0  0  0  0  0  0  0  0  0  0  0  0
   -3.3829   -2.2488   -2.0757 H   0  0  0  0  0  0  0  0  0  0  0  0
   -6.6436   -1.0631    0.6541 H   0  0  0  0  0  0  0  0  0  0  0  0
   -2.1674    1.5993    0.8912 S   0  0  0  0  0  1  0  0  0  0  0  0
   -2.0596    0.4040   -0.3848 C   0  0  0  0  0  0  0  0  0  0  0  0
  1 23  1  0  0  0  0
  2  8  1  0  0  0  0
  2  9  1  0  0  0  0
  4  1  1  0  0  0  0
  5  4  1  0  0  0  0
  5  6  2  0  0  0  0
  6  7  1  0  0  0  0
  7 23  2  0  0  0  0
  7  8  1  0  0  0  0
  8  3  2  0  0  0  0
  9 21  1  0  0  0  0
  9 10  1  0  0  0  0
 10 13  1  0  0  0  0
 10 11  1  0  0  0  0
 12 10  1  0  0  0  0
 14 16  1  0  0  0  0
 14  9  1  0  0  0  0
 15 14  1  0  0  0  0
 17 14  1  0  0  0  0
 18  4  1  0  0  0  0
 19  5  1  0  0  0  0
 20  6  1  0  0  0  0
 23 22  1  0  0  0  0
M  END
