1,2
 OpenBabel05122313063D

 23 23  0  0  0  0  0  0  0  0999 V2000
    2.2442   -1.6867    0.6723 S   0  0  0  0  0  1  0  0  0  0  0  0
    0.7957   -0.6371   -1.1770 N   0  0  0  0  0  2  0  0  0  0  0  0
    4.5856    0.0441    0.6200 O   0  0  0  0  0  0  0  0  0  0  0  0
    4.9175    1.7380   -0.8742 O   0  0  0  0  0  0  0  0  0  0  0  0
    0.3979    0.1627   -2.1737 C   0  0  0  0  0  3  0  0  0  0  0  0
   -0.6045   -0.0445   -2.5830 H   0  0  0  0  0  0  0  0  0  0  0  0
    1.2127    1.2020   -2.6448 C   0  0  0  0  0  0  0  0  0  0  0  0
    0.8702    1.8494   -3.4635 H   0  0  0  0  0  0  0  0  0  0  0  0
    2.4637    1.3872   -2.0420 C   0  0  0  0  0  0  0  0  0  0  0  0
    3.1393    2.1891   -2.3718 H   0  0  0  0  0  0  0  0  0  0  0  0
    2.8897    0.5481   -0.9941 C   0  0  0  0  0  0  0  0  0  0  0  0
    2.0065   -0.4869   -0.5814 C   0  0  0  0  0  0  0  0  0  0  0  0
    4.2041    0.7241   -0.3179 C   0  0  0  0  0  0  0  0  0  0  0  0
    6.1937    2.0586   -0.2762 C   0  0  0  0  0  0  0  0  0  0  0  0
    6.9016    2.1653   -1.1223 H   0  0  0  0  0  0  0  0  0  0  0  0
    6.5066    1.2060    0.3597 H   0  0  0  0  0  0  0  0  0  0  0  0
    6.1030    3.3500    0.5296 C   0  0  0  0  0  0  0  0  0  0  0  0
    7.1310    3.5817    0.8843 H   0  0  0  0  0  0  0  0  0  0  0  0
    5.8178    4.1816   -0.1507 H   0  0  0  0  0  0  0  0  0  0  0  0
    5.1366    3.2805    1.7129 C   0  0  0  0  0  0  0  0  0  0  0  0
    5.1526    4.2215    2.2977 H   0  0  0  0  0  0  0  0  0  0  0  0
    5.3896    2.4441    2.3952 H   0  0  0  0  0  0  0  0  0  0  0  0
    4.0938    3.1226    1.3697 H   0  0  0  0  0  0  0  0  0  0  0  0
  2 12  1  0  0  0  0
  4 13  1  0  0  0  0
  4 14  1  0  0  0  0
  5  2  1  0  0  0  0
  6  5  1  0  0  0  0
  7  5  1  0  0  0  0
  7  9  2  0  0  0  0
  8  7  1  0  0  0  0
  9 11  1  0  0  0  0
 10  9  1  0  0  0  0
 11 12  2  0  0  0  0
 11 13  1  0  0  0  0
 12  1  1  0  0  0  0
 13  3  2  0  0  0  0
 14 16  1  0  0  0  0
 14 17  1  0  0  0  0
 15 14  1  0  0  0  0
 17 18  1  0  0  0  0
 17 20  1  0  0  0  0
 19 17  1  0  0  0  0
 20 21  1  0  0  0  0
 20 22  1  0  0  0  0
 23 20  1  0  0  0  0
M  END
