1,4
 OpenBabel05122313063D

 17 17  0  0  0  0  0  0  0  0999 V2000
    2.2144   -1.0739    0.7696 S   0  0  0  0  0  1  0  0  0  0  0  0
    4.5603    0.5818    0.7420 O   0  0  0  0  0  0  0  0  0  0  0  0
    5.0348    2.3228   -0.6322 O   0  0  0  0  0  0  0  0  0  0  0  0
    0.8601   -0.0123   -1.1347 N   0  0  0  0  0  2  0  0  0  0  0  0
    0.4991    0.7842   -2.1481 C   0  0  0  0  0  3  0  0  0  0  0  0
   -0.4890    0.5769   -2.5905 H   0  0  0  0  0  0  0  0  0  0  0  0
    1.3327    1.8184   -2.5957 C   0  0  0  0  0  0  0  0  0  0  0  0
    1.0213    2.4650   -3.4273 H   0  0  0  0  0  0  0  0  0  0  0  0
    2.5619    1.9963   -1.9511 C   0  0  0  0  0  0  0  0  0  0  0  0
    3.2663    2.7879   -2.2497 H   0  0  0  0  0  0  0  0  0  0  0  0
    2.9521    1.1606   -0.8868 C   0  0  0  0  0  0  0  0  0  0  0  0
    2.0514    0.1328   -0.4964 C   0  0  0  0  0  0  0  0  0  0  0  0
    4.2845    1.4324   -0.2679 C   0  0  0  0  0  0  0  0  0  0  0  0
    5.8270    0.7646    1.3859 C   0  0  0  0  0  0  0  0  0  0  0  0
    6.6556    0.6435    0.6597 H   0  0  0  0  0  0  0  0  0  0  0  0
    5.8818   -0.0099    2.1706 H   0  0  0  0  0  0  0  0  0  0  0  0
    5.8982    1.7778    1.8299 H   0  0  0  0  0  0  0  0  0  0  0  0
  2 14  1  0  0  0  0
  3 13  2  0  0  0  0
  4 12  1  0  0  0  0
  5  4  1  0  0  0  0
  6  5  1  0  0  0  0
  7  5  1  0  0  0  0
  7  9  2  0  0  0  0
  8  7  1  0  0  0  0
  9 11  1  0  0  0  0
 10  9  1  0  0  0  0
 11 12  2  0  0  0  0
 11 13  1  0  0  0  0
 12  1  1  0  0  0  0
 13  2  1  0  0  0  0
 14 17  1  0  0  0  0
 14 16  1  0  0  0  0
 15 14  1  0  0  0  0
M  END
