1,2
 OpenBabel05122313063D

 29 29  0  0  1  0  0  0  0  0999 V2000
   -1.5840   -2.7054    0.4134 S   0  0  0  0  0  1  0  0  0  0  0  0
   -1.3319   -0.1011   -1.1490 N   0  0  0  0  0  2  0  0  0  0  0  0
   -2.7770   -1.6421   -0.2802 C   0  0  0  0  0  0  0  0  0  0  0  0
   -4.4281   -2.1964    0.0028 S   0  0  0  0  0  0  0  0  0  0  0  0
   -2.6120   -0.5142   -0.9452 N   0  0  0  0  0  0  0  0  0  0  0  0
   -5.4364   -0.9035   -0.8497 C   0  0  0  0  0  0  0  0  0  0  0  0
   -4.9277   -0.7093   -1.8152 H   0  0  0  0  0  0  0  0  0  0  0  0
   -6.4129   -1.3932   -1.0386 H   0  0  0  0  0  0  0  0  0  0  0  0
   -5.5773    0.3444   -0.0380 C   0  0  0  0  0  0  0  0  0  0  0  0
   -4.6351    0.8905    0.1366 H   0  0  0  0  0  0  0  0  0  0  0  0
   -6.7338    0.8036    0.4722 C   0  0  0  0  0  0  0  0  0  0  0  0
   -7.6875    0.2710    0.3183 H   0  0  0  0  0  0  0  0  0  0  0  0
   -6.7707    1.7333    1.0618 H   0  0  0  0  0  0  0  0  0  0  0  0
   -1.1885    1.1159   -1.6390 C   0  0  1  0  0  3  0  0  0  0  0  0
   -2.3812    1.9973   -1.8666 C   0  0  0  0  0  0  0  0  0  0  0  0
   -3.1683    1.4308   -2.4017 H   0  0  0  0  0  0  0  0  0  0  0  0
   -2.1178    2.9043   -2.4382 H   0  0  0  0  0  0  0  0  0  0  0  0
   -2.8263    2.2909   -0.8927 H   0  0  0  0  0  0  0  0  0  0  0  0
    0.1724    1.6096   -1.9113 C   0  0  0  0  0  0  0  0  0  0  0  0
    1.1825    0.7448   -2.3920 C   0  0  0  0  0  0  0  0  0  0  0  0
    0.9392   -0.2998   -2.6319 H   0  0  0  0  0  0  0  0  0  0  0  0
    2.4928    1.2038   -2.5714 C   0  0  0  0  0  0  0  0  0  0  0  0
    3.2674    0.5027   -2.9156 H   0  0  0  0  0  0  0  0  0  0  0  0
    2.8140    2.5434   -2.3005 C   0  0  0  0  0  0  0  0  0  0  0  0
    3.8442    2.9040   -2.4414 H   0  0  0  0  0  0  0  0  0  0  0  0
    1.8117    3.4248   -1.8600 C   0  0  0  0  0  0  0  0  0  0  0  0
    2.0545    4.4786   -1.6546 H   0  0  0  0  0  0  0  0  0  0  0  0
    0.5016    2.9661   -1.6725 C   0  0  0  0  0  0  0  0  0  0  0  0
   -0.2713    3.6579   -1.3067 H   0  0  0  0  0  0  0  0  0  0  0  0
  2  5  1  0  0  0  0
  3  4  1  0  0  0  0
  3  1  1  0  0  0  0
  5  3  2  0  0  0  0
  6  9  1  0  0  0  0
  6  4  1  0  0  0  0
  7  6  1  0  0  0  0
  8  6  1  0  0  0  0
  9 10  1  0  0  0  0
  9 11  2  0  0  0  0
 11 13  1  0  0  0  0
 12 11  1  0  0  0  0
 14  2  1  1  0  0  0
 15 14  1  0  0  0  0
 15 18  1  0  0  0  0
 16 15  1  0  0  0  0
 17 15  1  0  0  0  0
 19 28  1  0  0  0  0
 19 14  1  0  0  0  0
 20 19  2  0  0  0  0
 21 20  1  0  0  0  0
 22 20  1  0  0  0  0
 22 24  2  0  0  0  0
 23 22  1  0  0  0  0
 24 26  1  0  0  0  0
 25 24  1  0  0  0  0
 26 28  2  0  0  0  0
 26 27  1  0  0  0  0
 28 29  1  0  0  0  0
M  END
