1,2
 OpenBabel05122313063D

 27 28  0  0  1  0  0  0  0  0999 V2000
   -0.6096   -2.0364   -0.6141 S   0  0  0  0  0  1  0  0  0  0  0  0
    1.7827   -0.7251    0.0665 N   0  0  0  0  0  2  0  0  0  0  0  0
    1.9788   -2.0753    0.1731 N   0  0  0  0  0  2  0  0  0  0  0  0
    6.1743   -1.6021    0.1395 N   0  0  0  0  0  0  0  0  0  0  0  0
    6.8103   -2.3945    0.2090 H   0  0  0  0  0  0  0  0  0  0  0  0
    0.9619   -4.1348   -0.0572 N   0  0  0  0  0  0  0  0  0  0  0  0
    0.1287   -4.6422   -0.3486 H   0  0  0  0  0  0  0  0  0  0  0  0
    2.8781    0.0135    0.0001 C   0  0  0  0  0  3  0  0  0  0  0  0
    2.6980    1.0930   -0.1024 H   0  0  0  0  0  0  0  0  0  0  0  0
    4.2477   -0.4131    0.0369 C   0  0  0  0  0  0  0  0  0  0  0  0
    5.3751    0.5079   -0.0413 C   0  0  0  0  0  0  0  0  0  0  0  0
    6.5673   -0.2774    0.0255 C   0  0  0  0  0  0  0  0  0  0  0  0
    4.8031   -1.6967    0.1482 C   0  0  0  0  0  0  0  0  0  0  0  0
    4.2767   -2.6494    0.2345 H   0  0  0  0  0  0  0  0  0  0  0  0
    5.4882    1.9086   -0.1566 C   0  0  0  0  0  0  0  0  0  0  0  0
    4.5884    2.5407   -0.2043 H   0  0  0  0  0  0  0  0  0  0  0  0
    6.7631    2.4836   -0.2050 C   0  0  0  0  0  0  0  0  0  0  0  0
    6.8630    3.5757   -0.2945 H   0  0  0  0  0  0  0  0  0  0  0  0
    7.9307    1.6857   -0.1399 C   0  0  0  0  0  0  0  0  0  0  0  0
    8.9192    2.1674   -0.1806 H   0  0  0  0  0  0  0  0  0  0  0  0
    7.8499    0.2930   -0.0230 C   0  0  0  0  0  0  0  0  0  0  0  0
    8.7565   -0.3285    0.0295 H   0  0  0  0  0  0  0  0  0  0  0  0
    0.8966   -2.7754   -0.1106 C   0  0  2  0  0  3  0  0  0  0  0  0
    2.1919   -4.8500    0.1917 C   0  0  0  0  0  0  0  0  0  0  0  0
    2.9389   -4.6953   -0.6203 H   0  0  0  0  0  0  0  0  0  0  0  0
    1.9764   -5.9318    0.2732 H   0  0  0  0  0  0  0  0  0  0  0  0
    2.6565   -4.5074    1.1401 H   0  0  0  0  0  0  0  0  0  0  0  0
  2  3  1  0  0  0  0
  4 13  1  0  0  0  0
  4  5  1  0  0  0  0
  6 24  1  0  0  0  0
  7  6  1  0  0  0  0
  8 10  1  0  0  0  0
  8  2  1  0  0  0  0
  9  8  1  0  0  0  0
 10 13  2  0  0  0  0
 11 12  1  0  0  0  0
 11 10  1  0  0  0  0
 12  4  1  0  0  0  0
 13 14  1  0  0  0  0
 15 11  2  0  0  0  0
 16 15  1  0  0  0  0
 17 15  1  0  0  0  0
 17 19  2  0  0  0  0
 18 17  1  0  0  0  0
 19 21  1  0  0  0  0
 20 19  1  0  0  0  0
 21 12  2  0  0  0  0
 21 22  1  0  0  0  0
 23  1  1  6  0  0  0
 23  6  1  0  0  0  0
 23  3  1  0  0  0  0
 24 26  1  0  0  0  0
 24 27  1  0  0  0  0
 25 24  1  0  0  0  0
M  END
