1,3
 OpenBabel05122313063D

 29 29  0  0  0  0  0  0  0  0999 V2000
   -1.6678    2.0520    0.1740 S   0  0  0  0  0  1  0  0  0  0  0  0
    5.9989   -1.3697    0.3481 O   0  0  0  0  0  0  0  0  0  0  0  0
    0.9732    1.0546   -0.3253 N   0  0  0  0  0  2  0  0  0  0  0  0
   -0.1475    3.1391    0.4552 C   0  0  0  0  0  0  0  0  0  0  0  0
    0.9373    2.5236   -0.4349 C   0  0  0  0  0  0  0  0  0  0  0  0
   -0.4854    4.5686    0.0334 C   0  0  0  0  0  0  0  0  0  0  0  0
    0.2268    3.0526    1.9379 C   0  0  0  0  0  0  0  0  0  0  0  0
    2.2487    0.4582   -0.1787 C   0  0  0  0  0  0  0  0  0  0  0  0
    3.2112    0.9467    0.7409 C   0  0  0  0  0  0  0  0  0  0  0  0
    4.4466    0.3179    0.8913 C   0  0  0  0  0  0  0  0  0  0  0  0
    4.7676   -0.8248    0.1259 C   0  0  0  0  0  0  0  0  0  0  0  0
    3.8242   -1.3206   -0.7956 C   0  0  0  0  0  0  0  0  0  0  0  0
    2.5853   -0.6798   -0.9417 C   0  0  0  0  0  0  0  0  0  0  0  0
    6.3623   -2.5167   -0.3918 C   0  0  0  0  0  0  0  0  0  0  0  0
    1.9251    2.9582   -0.1731 H   0  0  0  0  0  0  0  0  0  0  0  0
    0.7333    2.7999   -1.4956 H   0  0  0  0  0  0  0  0  0  0  0  0
   -1.3151    4.9767    0.6449 H   0  0  0  0  0  0  0  0  0  0  0  0
   -0.7877    4.6114   -1.0319 H   0  0  0  0  0  0  0  0  0  0  0  0
    0.3948    5.2325    0.1726 H   0  0  0  0  0  0  0  0  0  0  0  0
    0.4821    2.0106    2.2165 H   0  0  0  0  0  0  0  0  0  0  0  0
   -0.6125    3.3847    2.5807 H   0  0  0  0  0  0  0  0  0  0  0  0
    1.1030    3.7024    2.1533 H   0  0  0  0  0  0  0  0  0  0  0  0
    2.9729    1.8182    1.3681 H   0  0  0  0  0  0  0  0  0  0  0  0
    5.1886    0.6850    1.6152 H   0  0  0  0  0  0  0  0  0  0  0  0
    4.0436   -2.2015   -1.4136 H   0  0  0  0  0  0  0  0  0  0  0  0
    1.8533   -1.0593   -1.6697 H   0  0  0  0  0  0  0  0  0  0  0  0
    7.3797   -2.7969   -0.0600 H   0  0  0  0  0  0  0  0  0  0  0  0
    6.3830   -2.3179   -1.4877 H   0  0  0  0  0  0  0  0  0  0  0  0
    5.6731   -3.3712   -0.2028 H   0  0  0  0  0  0  0  0  0  0  0  0
  1  4  1  0  0  0  0
  3  8  1  0  0  0  0
  4  7  1  0  0  0  0
  5  3  1  0  0  0  0
  5 15  1  0  0  0  0
  5  4  1  0  0  0  0
  6 19  1  0  0  0  0
  6  4  1  0  0  0  0
  6 17  1  0  0  0  0
  7 22  1  0  0  0  0
  7 20  1  0  0  0  0
  7 21  1  0  0  0  0
  8  9  1  0  0  0  0
  9 10  2  0  0  0  0
  9 23  1  0  0  0  0
 10 24  1  0  0  0  0
 11  2  1  0  0  0  0
 11 10  1  0  0  0  0
 12 11  2  0  0  0  0
 13 12  1  0  0  0  0
 13  8  2  0  0  0  0
 14 29  1  0  0  0  0
 14 27  1  0  0  0  0
 14  2  1  0  0  0  0
 16  5  1  0  0  0  0
 18  6  1  0  0  0  0
 25 12  1  0  0  0  0
 26 13  1  0  0  0  0
 28 14  1  0  0  0  0
M  END
