1,3
 OpenBabel05122313063D

 36 38  0  0  0  0  0  0  0  0999 V2000
    0.4886    1.9640   -0.1618 S   0  0  0  0  0  1  0  0  0  0  0  0
   -2.7898   -4.1675    0.4015 O   0  0  0  0  0  0  0  0  0  0  0  0
   -1.2327   -0.3695    0.1979 N   0  0  0  0  0  2  0  0  0  0  0  0
   -1.9631    0.7714    0.1454 N   0  0  0  0  0  0  0  0  0  0  0  0
   -1.8963    3.0981   -0.0652 N   0  0  0  0  0  0  0  0  0  0  0  0
   -1.2770    3.8672   -0.3280 H   0  0  0  0  0  0  0  0  0  0  0  0
   -4.9661   -3.5618    0.0882 N   0  0  0  0  0  0  0  0  0  0  0  0
   -5.1788   -4.5588    0.1880 H   0  0  0  0  0  0  0  0  0  0  0  0
   -1.2631    1.8785   -0.0017 C   0  0  0  0  0  0  0  0  0  0  0  0
   -1.8550   -1.5318    0.1869 C   0  0  0  0  0  0  0  0  0  0  0  0
   -1.1890   -2.4067    0.2818 H   0  0  0  0  0  0  0  0  0  0  0  0
   -3.2702   -1.8173    0.0706 C   0  0  0  0  0  0  0  0  0  0  0  0
   -4.2861   -0.9034   -0.1720 C   0  0  0  0  0  3  0  0  0  0  0  0
   -4.0178    0.1547   -0.2821 H   0  0  0  0  0  0  0  0  0  0  0  0
   -5.6595   -1.2902   -0.2846 C   0  0  0  0  0  0  0  0  0  0  0  0
   -6.7016   -0.3577   -0.5257 C   0  0  0  0  0  0  0  0  0  0  0  0
   -6.4353    0.7049   -0.6349 H   0  0  0  0  0  0  0  0  0  0  0  0
   -8.0279   -0.7764   -0.6165 C   0  0  0  0  0  0  0  0  0  0  0  0
   -8.8285   -0.0461   -0.8033 H   0  0  0  0  0  0  0  0  0  0  0  0
   -8.3411   -2.1464   -0.4691 C   0  0  0  0  0  0  0  0  0  0  0  0
   -9.3875   -2.4798   -0.5410 H   0  0  0  0  0  0  0  0  0  0  0  0
   -7.3386   -3.0901   -0.2330 C   0  0  0  0  0  0  0  0  0  0  0  0
   -7.5864   -4.1568   -0.1197 H   0  0  0  0  0  0  0  0  0  0  0  0
   -5.9930   -2.6728   -0.1399 C   0  0  0  0  0  0  0  0  0  0  0  0
   -3.5996   -3.2649    0.2049 C   0  0  0  0  0  0  0  0  0  0  0  0
   -3.2428    3.4451    0.1223 C   0  0  0  0  0  0  0  0  0  0  0  0
   -3.6791    4.6863   -0.3974 C   0  0  0  0  0  0  0  0  0  0  0  0
   -2.9671    5.3229   -0.9469 H   0  0  0  0  0  0  0  0  0  0  0  0
   -5.0040    5.1025   -0.2262 C   0  0  0  0  0  0  0  0  0  0  0  0
   -5.3229    6.0706   -0.6414 H   0  0  0  0  0  0  0  0  0  0  0  0
   -5.9214    4.2913    0.4616 C   0  0  0  0  0  0  0  0  0  0  0  0
   -6.9641    4.6164    0.5914 H   0  0  0  0  0  0  0  0  0  0  0  0
   -5.4859    3.0650    0.9892 C   0  0  0  0  0  0  0  0  0  0  0  0
   -6.1867    2.4246    1.5468 H   0  0  0  0  0  0  0  0  0  0  0  0
   -4.1604    2.6374    0.8305 C   0  0  0  0  0  0  0  0  0  0  0  0
   -3.8185    1.6872    1.2563 H   0  0  0  0  0  0  0  0  0  0  0  0
  1  9  1  0  0  0  0
  4  3  1  0  0  0  0
  5  9  1  0  0  0  0
  5 26  1  0  0  0  0
  6  5  1  0  0  0  0
  7  8  1  0  0  0  0
  7 25  1  0  0  0  0
  9  4  2  0  0  0  0
 10  3  1  0  0  0  0
 10 11  1  0  0  0  0
 12 10  2  0  0  0  0
 12 25  1  0  0  0  0
 13 12  1  0  0  0  0
 14 13  1  0  0  0  0
 15 13  1  0  0  0  0
 15 24  1  0  0  0  0
 16 15  2  0  0  0  0
 17 16  1  0  0  0  0
 18 16  1  0  0  0  0
 18 20  2  0  0  0  0
 19 18  1  0  0  0  0
 20 22  1  0  0  0  0
 21 20  1  0  0  0  0
 22 24  2  0  0  0  0
 22 23  1  0  0  0  0
 24  7  1  0  0  0  0
 25  2  2  0  0  0  0
 26 35  1  0  0  0  0
 27 29  1  0  0  0  0
 27 26  2  0  0  0  0
 28 27  1  0  0  0  0
 29 31  2  0  0  0  0
 30 29  1  0  0  0  0
 31 32  1  0  0  0  0
 31 33  1  0  0  0  0
 33 34  1  0  0  0  0
 35 33  2  0  0  0  0
 35 36  1  0  0  0  0
M  END
