1,2
 OpenBabel05122313063D

 15 14  0  0  0  0  0  0  0  0999 V2000
    1.7173   -0.3626   -0.1706 S   0  0  2  0  0  3  0  0  0  0  0  0
   -0.0027    2.0632   -0.1621 N   0  0  0  0  0  0  0  0  0  0  0  0
    2.4653   -1.0052   -1.2966 O   0  0  0  0  0  1  0  0  0  0  0  0
    2.3599    1.3909   -0.0086 C   0  0  0  0  0  0  0  0  0  0  0  0
    1.2834    2.3202    0.5342 C   0  0  0  0  0  0  0  0  0  0  0  0
    2.2406   -1.1558    1.3748 C   0  0  0  0  0  0  0  0  0  0  0  0
   -0.8150    2.5258    0.2847 H   0  0  0  0  0  0  0  0  0  0  0  0
    0.0229    2.3917   -1.1409 H   0  0  0  0  0  0  0  0  0  0  0  0
    2.6278    1.6138   -1.0620 H   0  0  0  0  0  0  0  0  0  0  0  0
    3.2857    1.3888    0.5984 H   0  0  0  0  0  0  0  0  0  0  0  0
    1.1123    2.1369    1.6132 H   0  0  0  0  0  0  0  0  0  0  0  0
    1.6017    3.3793    0.4157 H   0  0  0  0  0  0  0  0  0  0  0  0
    1.8936   -0.5546    2.2364 H   0  0  0  0  0  0  0  0  0  0  0  0
    3.3397   -1.2772    1.3395 H   0  0  0  0  0  0  0  0  0  0  0  0
    1.7103   -2.1284    1.3607 H   0  0  0  0  0  0  0  0  0  0  0  0
  1  3  1  6  0  0  0
  1  4  1  0  0  0  0
  1  6  1  0  0  0  0
  2  7  1  0  0  0  0
  2  5  1  0  0  0  0
  4  5  1  0  0  0  0
  4 10  1  0  0  0  0
  5 11  1  0  0  0  0
  6 13  1  0  0  0  0
  8  2  1  0  0  0  0
  9  4  1  0  0  0  0
 12  5  1  0  0  0  0
 14  6  1  0  0  0  0
 15  6  1  0  0  0  0
M  END
