1,2
 OpenBabel05122313063D

 17 16  0  0  0  0  0  0  0  0999 V2000
    1.5302   -0.1004   -0.7101 S   0  0  0  0  0  0  0  0  0  0  0  0
   -0.5120    2.0455   -0.0304 N   0  0  0  0  0  0  0  0  0  0  0  0
   -0.7586    2.4768   -0.9340 H   0  0  0  0  0  0  0  0  0  0  0  0
   -1.2491    2.3166    0.6429 H   0  0  0  0  0  0  0  0  0  0  0  0
    0.8598    2.3960    0.3948 C   0  0  0  0  0  0  0  0  0  0  0  0
    0.9813    2.0491    1.4403 H   0  0  0  0  0  0  0  0  0  0  0  0
    1.0277    3.4973    0.3869 H   0  0  0  0  0  0  0  0  0  0  0  0
    1.8765    1.7104   -0.5137 C   0  0  0  0  0  0  0  0  0  0  0  0
    2.9154    1.8486   -0.1532 H   0  0  0  0  0  0  0  0  0  0  0  0
    1.8282    2.1133   -1.5467 H   0  0  0  0  0  0  0  0  0  0  0  0
    2.2726   -0.8181    0.8183 C   0  0  0  0  0  0  0  0  0  0  0  0
    1.9303   -0.2175    1.6853 H   0  0  0  0  0  0  0  0  0  0  0  0
    1.7421   -1.7924    0.8706 H   0  0  0  0  0  0  0  0  0  0  0  0
    3.7849   -0.9569    0.7386 C   0  0  0  0  0  0  0  0  0  0  0  0
    4.1608   -1.4571    1.6544 H   0  0  0  0  0  0  0  0  0  0  0  0
    4.2977    0.0245    0.6661 H   0  0  0  0  0  0  0  0  0  0  0  0
    4.0878   -1.5692   -0.1336 H   0  0  0  0  0  0  0  0  0  0  0  0
  1  8  1  0  0  0  0
  1 11  1  0  0  0  0
  2  5  1  0  0  0  0
  2  4  1  0  0  0  0
  3  2  1  0  0  0  0
  5  6  1  0  0  0  0
  7  5  1  0  0  0  0
  8  9  1  0  0  0  0
  8  5  1  0  0  0  0
 10  8  1  0  0  0  0
 11 13  1  0  0  0  0
 11 12  1  0  0  0  0
 14 11  1  0  0  0  0
 14 15  1  0  0  0  0
 16 14  1  0  0  0  0
 17 14  1  0  0  0  0
M  END
