1,2
 OpenBabel05122313063D

 20 21  0  0  1  0  0  0  0  0999 V2000
   -1.6394   -2.3582   -0.0443 S   0  0  0  0  0  1  0  0  0  0  0  0
   -1.5846    0.5690   -0.5041 N   0  0  0  0  0  2  0  0  0  0  0  0
   -1.4413    1.7768   -1.0745 C   0  0  0  0  0  0  0  0  0  0  0  0
   -2.5368    2.6861   -1.1182 C   0  0  0  0  0  0  0  0  0  0  0  0
   -3.7710    2.3236   -0.6106 C   0  0  0  0  0  0  0  0  0  0  0  0
   -3.9768    0.9991   -0.1318 C   0  0  0  0  0  0  0  0  0  0  0  0
   -5.2390    0.5030    0.2962 C   0  0  0  0  0  0  0  0  0  0  0  0
   -5.3636   -0.8378    0.6486 C   0  0  0  0  0  0  0  0  0  0  0  0
   -4.2637   -1.7207    0.5728 C   0  0  0  0  0  0  0  0  0  0  0  0
   -2.9937   -1.2675    0.1796 C   0  0  0  0  0  0  0  0  0  0  0  0
   -2.8380    0.1236   -0.1329 C   0  0  1  0  0  3  0  0  0  0  0  0
   -0.1370    2.1572   -1.7183 C   0  0  0  0  0  0  0  0  0  0  0  0
   -2.3783    3.6787   -1.5647 H   0  0  0  0  0  0  0  0  0  0  0  0
   -4.6145    3.0316   -0.6170 H   0  0  0  0  0  0  0  0  0  0  0  0
   -6.1026    1.1836    0.3223 H   0  0  0  0  0  0  0  0  0  0  0  0
   -6.3393   -1.2298    0.9741 H   0  0  0  0  0  0  0  0  0  0  0  0
   -4.3949   -2.7863    0.8128 H   0  0  0  0  0  0  0  0  0  0  0  0
    0.5792    1.3173   -1.6993 H   0  0  0  0  0  0  0  0  0  0  0  0
    0.3288    3.0400   -1.2351 H   0  0  0  0  0  0  0  0  0  0  0  0
   -0.3253    2.4312   -2.7769 H   0  0  0  0  0  0  0  0  0  0  0  0
  1 10  1  0  0  0  0
  3  2  1  0  0  0  0
  4  3  2  0  0  0  0
  4  5  1  0  0  0  0
  5  6  2  0  0  0  0
  6  7  1  0  0  0  0
  7 15  1  0  0  0  0
  7  8  2  0  0  0  0
  8 16  1  0  0  0  0
  9  8  1  0  0  0  0
  9 17  1  0  0  0  0
 10  9  2  0  0  0  0
 11  2  1  6  0  0  0
 11  6  1  0  0  0  0
 11 10  1  0  0  0  0
 12 18  1  0  0  0  0
 12 19  1  0  0  0  0
 12  3  1  0  0  0  0
 13  4  1  0  0  0  0
 14  5  1  0  0  0  0
 20 12  1  0  0  0  0
M  END
