1,2
q = -1.0, confidence = 0.266

 46 47  0  0  0  0  0  0  0  0999 V2000
    0.2195    0.9242   -1.0218 S   0  0  0  0  0  0  0  0  0  0  0  0
    1.5503   -1.0985    1.2630 N   0  0  0  0  0  0  0  0  0  0  0  0
    1.0260   -1.4781    2.0709 H   0  0  0  0  0  0  0  0  0  0  0  0
   -3.5350    0.5740    0.0449 N   0  3  0  0  0  0  0  0  0  0  0  0
   -3.8584    1.1013    0.8745 H   0  0  0  0  0  0  0  0  0  0  0  0
   -2.7609   -0.0574    0.4563 H   0  0  0  0  0  0  0  0  0  0  0  0
    1.9598    1.3050   -0.7793 C   0  0  0  0  0  0  0  0  0  0  0  0
    2.6245    0.9814    0.4275 C   0  0  0  0  0  0  0  0  0  0  0  0
    3.9935    1.2945    0.5196 C   0  0  0  0  0  0  0  0  0  0  0  0
    4.5302    1.0545    1.4508 H   0  0  0  0  0  0  0  0  0  0  0  0
    4.6813    1.8947   -0.5462 C   0  0  0  0  0  0  0  0  0  0  0  0
    5.7531    2.1218   -0.4462 H   0  0  0  0  0  0  0  0  0  0  0  0
    4.0051    2.1926   -1.7379 C   0  0  0  0  0  0  0  0  0  0  0  0
    4.5398    2.6518   -2.5826 H   0  0  0  0  0  0  0  0  0  0  0  0
    2.6394    1.8969   -1.8542 C   0  0  0  0  0  0  0  0  0  0  0  0
    2.0908    2.1142   -2.7819 H   0  0  0  0  0  0  0  0  0  0  0  0
   -0.5582    2.2840   -0.0901 C   0  0  0  0  0  0  0  0  0  0  0  0
   -1.9634    2.4658   -0.1847 C   0  0  0  0  0  0  0  0  0  0  0  0
   -2.5469    3.5731    0.4646 C   0  0  0  0  0  0  0  0  0  0  0  0
   -3.6349    3.7280    0.3692 H   0  0  0  0  0  0  0  0  0  0  0  0
   -1.7850    4.4834    1.2063 C   0  0  0  0  0  0  0  0  0  0  0  0
   -2.2677    5.3384    1.7017 H   0  0  0  0  0  0  0  0  0  0  0  0
   -0.3990    4.2959    1.2898 C   0  0  0  0  0  0  0  0  0  0  0  0
    0.2254    5.0029    1.8565 H   0  0  0  0  0  0  0  0  0  0  0  0
    0.2076    3.2125    0.6406 C   0  0  0  0  0  0  0  0  0  0  0  0
    1.2981    3.0964    0.6938 H   0  0  0  0  0  0  0  0  0  0  0  0
    1.9136    0.3072    1.5758 C   0  0  0  0  0  0  0  0  0  0  0  0
    2.5668    0.3423    2.4731 H   0  0  0  0  0  0  0  0  0  0  0  0
    0.9633    0.8180    1.8340 H   0  0  0  0  0  0  0  0  0  0  0  0
   -2.8832    1.5225   -0.9195 C   0  0  0  0  0  0  0  0  0  0  0  0
   -3.6917    2.0848   -1.4279 H   0  0  0  0  0  0  0  0  0  0  0  0
   -2.3663    0.8684   -1.6547 H   0  0  0  0  0  0  0  0  0  0  0  0
    2.7086   -1.9940    0.9972 C   0  0  0  0  0  0  0  0  0  0  0  0
    3.2128   -1.6203    0.0859 H   0  0  0  0  0  0  0  0  0  0  0  0
    2.2596   -2.9709    0.7338 H   0  0  0  0  0  0  0  0  0  0  0  0
    3.6608   -2.1365    2.1797 C   0  0  0  0  0  0  0  0  0  0  0  0
    4.2034   -1.2014    2.4275 H   0  0  0  0  0  0  0  0  0  0  0  0
    4.4256   -2.9019    1.9409 H   0  0  0  0  0  0  0  0  0  0  0  0
    3.1277   -2.4781    3.0921 H   0  0  0  0  0  0  0  0  0  0  0  0
   -4.6512   -0.2576   -0.5008 C   0  0  0  0  0  0  0  0  0  0  0  0
   -5.5070    0.4216   -0.6982 H   0  0  0  0  0  0  0  0  0  0  0  0
   -4.2762   -0.6681   -1.4569 H   0  0  0  0  0  0  0  0  0  0  0  0
   -4.9874   -1.3830    0.4629 C   0  0  0  0  0  0  0  0  0  0  0  0
   -5.8241   -1.9829    0.0563 H   0  0  0  0  0  0  0  0  0  0  0  0
   -5.2917   -1.0061    1.4611 H   0  0  0  0  0  0  0  0  0  0  0  0
   -4.1080   -2.0472    0.5820 H   0  0  0  0  0  0  0  0  0  0  0  0
  1  7  1  0  0  0  0
  1 17  1  0  0  0  0
  2 27  1  0  0  0  0
  2  3  1  0  0  0  0
  4  6  1  0  0  0  0
  4  5  1  0  0  0  0
  7  8  1  0  0  0  0
  8  9  2  0  0  0  0
  8 27  1  0  0  0  0
  9 10  1  0  0  0  0
 11 12  1  0  0  0  0
 11  9  1  0  0  0  0
 13 11  2  0  0  0  0
 14 13  1  0  0  0  0
 15 13  1  0  0  0  0
 15  7  2  0  0  0  0
 16 15  1  0  0  0  0
 17 25  1  0  0  0  0
 18 17  2  0  0  0  0
 18 19  1  0  0  0  0
 19 21  2  0  0  0  0
 20 19  1  0  0  0  0
 21 23  1  0  0  0  0
 21 22  1  0  0  0  0
 23 24  1  0  0  0  0
 25 26  1  0  0  0  0
 25 23  2  0  0  0  0
 27 29  1  0  0  0  0
 27 28  1  0  0  0  0
 30 18  1  0  0  0  0
 30  4  1  0  0  0  0
 31 30  1  0  0  0  0
 32 30  1  0  0  0  0
 33  2  1  0  0  0  0
 33 36  1  0  0  0  0
 34 33  1  0  0  0  0
 35 33  1  0  0  0  0
 36 37  1  0  0  0  0
 36 39  1  0  0  0  0
 38 36  1  0  0  0  0
 40  4  1  0  0  0  0
 40 43  1  0  0  0  0
 41 40  1  0  0  0  0
 42 40  1  0  0  0  0
 43 46  1  0  0  0  0
 43 45  1  0  0  0  0
 44 43  1  0  0  0  0
M  CHG  1   4   1
M  END
