1,2
 OpenBabel05122313063D

 16 16  0  0  0  0  0  0  0  0999 V2000
   -0.0227    1.9801   -0.3386 S   0  0  0  0  0  0  0  0  0  0  0  0
    1.2891   -0.6659   -0.1284 N   0  0  0  0  0  2  0  0  0  0  0  0
    2.1757    0.3619   -0.2355 N   0  0  0  0  0  0  0  0  0  0  0  0
    3.4429   -0.0627    0.0558 C   0  0  0  0  0  3  0  0  0  0  0  0
    3.3558   -1.4158    0.3740 C   0  0  0  0  0  0  0  0  0  0  0  0
    1.9862   -1.7473    0.2511 C   0  0  0  0  0  0  0  0  0  0  0  0
    1.7321    1.6262   -0.7842 C   0  0  0  0  0  0  0  0  0  0  0  0
    0.1321    2.4717    1.4146 C   0  0  0  0  0  0  0  0  0  0  0  0
    4.2966    0.6214    0.0012 H   0  0  0  0  0  0  0  0  0  0  0  0
    4.1768   -2.0763    0.6696 H   0  0  0  0  0  0  0  0  0  0  0  0
    1.4309   -2.6779    0.4265 H   0  0  0  0  0  0  0  0  0  0  0  0
    1.7298    1.5985   -1.8943 H   0  0  0  0  0  0  0  0  0  0  0  0
    2.3999    2.4376   -0.4358 H   0  0  0  0  0  0  0  0  0  0  0  0
   -0.9091    2.4517    1.7901 H   0  0  0  0  0  0  0  0  0  0  0  0
    0.5541    3.4927    1.4880 H   0  0  0  0  0  0  0  0  0  0  0  0
    0.7348    1.7329    1.9747 H   0  0  0  0  0  0  0  0  0  0  0  0
  1  8  1  0  0  0  0
  2  6  1  0  0  0  0
  3  2  1  0  0  0  0
  3  4  1  0  0  0  0
  4  5  1  0  0  0  0
  5 10  1  0  0  0  0
  6  5  2  0  0  0  0
  6 11  1  0  0  0  0
  7 13  1  0  0  0  0
  7  1  1  0  0  0  0
  7  3  1  0  0  0  0
  8 15  1  0  0  0  0
  8 14  1  0  0  0  0
  8 16  1  0  0  0  0
  9  4  1  0  0  0  0
 12  7  1  0  0  0  0
M  END
