1,4
 OpenBabel05122313063D

 29 30  0  0  1  0  0  0  0  0999 V2000
    1.3980   -1.5844   -0.6332 S   0  0  0  0  0  1  0  0  0  0  0  0
    4.2785    2.9807    0.0093 S   0  0  0  0  0  0  0  0  0  0  0  0
    4.3326   -1.5656   -0.3015 S   0  0  0  0  0  0  0  0  0  0  0  0
    1.5377    1.1460   -0.0001 N   0  0  0  0  0  2  0  0  0  0  0  0
    1.4888    2.4691   -0.0375 C   0  0  0  0  0  3  0  0  0  0  0  0
    2.8046    0.6171    0.0187 N   0  0  0  0  0  2  0  0  0  0  0  0
    2.5747    3.3975   -0.0429 C   0  0  0  0  0  0  0  0  0  0  0  0
    7.4327   -1.3330    1.2935 C   0  0  0  0  0  0  0  0  0  0  0  0
    2.4099    4.7915   -0.0811 C   0  0  0  0  0  0  0  0  0  0  0  0
    2.8289   -0.6688   -0.2538 C   0  0  1  0  0  3  0  0  0  0  0  0
    8.6948   -1.9382    1.3747 C   0  0  0  0  0  0  0  0  0  0  0  0
    6.9417   -0.8596    0.0595 C   0  0  0  0  0  0  0  0  0  0  0  0
    3.6347    5.5006   -0.0698 C   0  0  0  0  0  0  0  0  0  0  0  0
    9.4811   -2.0845    0.2204 C   0  0  0  0  0  0  0  0  0  0  0  0
    5.5782   -0.2312   -0.0294 C   0  0  0  0  0  0  0  0  0  0  0  0
    4.7307    4.6496   -0.0223 C   0  0  0  0  0  0  0  0  0  0  0  0
    8.9983   -1.6235   -1.0147 C   0  0  0  0  0  0  0  0  0  0  0  0
    7.7356   -1.0184   -1.0943 C   0  0  0  0  0  0  0  0  0  0  0  0
    0.4800    2.9081   -0.0729 H   0  0  0  0  0  0  0  0  0  0  0  0
    6.8141   -1.2218    2.1979 H   0  0  0  0  0  0  0  0  0  0  0  0
    1.4167    5.2609   -0.1141 H   0  0  0  0  0  0  0  0  0  0  0  0
    9.0679   -2.2977    2.3457 H   0  0  0  0  0  0  0  0  0  0  0  0
    3.7155    6.5958   -0.0951 H   0  0  0  0  0  0  0  0  0  0  0  0
   10.4724   -2.5585    0.2838 H   0  0  0  0  0  0  0  0  0  0  0  0
    5.4975    0.4818   -0.8724 H   0  0  0  0  0  0  0  0  0  0  0  0
    5.2940    0.3008    0.8990 H   0  0  0  0  0  0  0  0  0  0  0  0
    5.7929    4.9261   -0.0027 H   0  0  0  0  0  0  0  0  0  0  0  0
    9.6097   -1.7356   -1.9230 H   0  0  0  0  0  0  0  0  0  0  0  0
    7.3553   -0.6597   -2.0638 H   0  0  0  0  0  0  0  0  0  0  0  0
  3 10  1  0  0  0  0
  3 15  1  0  0  0  0
  4  6  1  0  0  0  0
  5  4  1  0  0  0  0
  7  5  1  0  0  0  0
  7  2  1  0  0  0  0
  8 11  1  0  0  0  0
  8 20  1  0  0  0  0
  9 13  1  0  0  0  0
  9  7  2  0  0  0  0
 10  1  1  6  0  0  0
 10  6  1  0  0  0  0
 11 22  1  0  0  0  0
 12  8  2  0  0  0  0
 13 16  2  0  0  0  0
 14 24  1  0  0  0  0
 14 11  2  0  0  0  0
 15 12  1  0  0  0  0
 15 26  1  0  0  0  0
 16 27  1  0  0  0  0
 16  2  1  0  0  0  0
 17 14  1  0  0  0  0
 18 17  2  0  0  0  0
 18 12  1  0  0  0  0
 19  5  1  0  0  0  0
 21  9  1  0  0  0  0
 23 13  1  0  0  0  0
 25 15  1  0  0  0  0
 28 17  1  0  0  0  0
 29 18  1  0  0  0  0
M  END
