1,4
 OpenBabel05122313063D

 21 21  0  0  0  0  0  0  0  0999 V2000
   -0.1599   -2.3161   -0.1538 S   0  0  0  0  0  1  0  0  0  0  0  0
   -1.8968   -2.3817    0.0292 C   0  0  0  0  0  0  0  0  0  0  0  0
   -2.6841   -1.3170    0.0866 N   0  0  0  0  0  0  0  0  0  0  0  0
   -2.0498   -0.1081    0.0112 N   0  0  0  0  0  2  0  0  0  0  0  0
   -2.8167    0.9714   -0.0457 C   0  0  0  0  0  3  0  0  0  0  0  0
   -4.2447    1.0332   -0.0344 C   0  0  0  0  0  0  0  0  0  0  0  0
   -5.0696   -0.0732    0.0544 N   0  0  0  0  0  0  0  0  0  0  0  0
   -6.3753    0.3128    0.0467 C   0  0  0  0  0  0  0  0  0  0  0  0
   -6.4187    1.7125   -0.0506 C   0  0  0  0  0  0  0  0  0  0  0  0
   -5.0819    2.1708   -0.1015 C   0  0  0  0  0  0  0  0  0  0  0  0
   -4.7350    3.2076   -0.1775 H   0  0  0  0  0  0  0  0  0  0  0  0
   -7.3279    2.3230   -0.0808 H   0  0  0  0  0  0  0  0  0  0  0  0
   -7.1883   -0.4191    0.1096 H   0  0  0  0  0  0  0  0  0  0  0  0
   -4.6137   -0.9979    0.1155 H   0  0  0  0  0  0  0  0  0  0  0  0
   -2.2885    1.9314   -0.1149 H   0  0  0  0  0  0  0  0  0  0  0  0
   -2.4913   -3.6066    0.1116 N   0  0  0  0  0  0  0  0  0  0  0  0
   -1.7998   -4.8658   -0.0379 C   0  0  0  0  0  0  0  0  0  0  0  0
   -0.8844   -4.8756    0.5893 H   0  0  0  0  0  0  0  0  0  0  0  0
   -1.4873   -5.0669   -1.0880 H   0  0  0  0  0  0  0  0  0  0  0  0
   -2.4626   -5.6859    0.2973 H   0  0  0  0  0  0  0  0  0  0  0  0
   -3.5115   -3.5991    0.1091 H   0  0  0  0  0  0  0  0  0  0  0  0
  1  2  1  0  0  0  0
  2  3  2  0  0  0  0
  2 16  1  0  0  0  0
  4  3  1  0  0  0  0
  5  6  1  0  0  0  0
  5  4  1  0  0  0  0
  6  7  1  0  0  0  0
  7 14  1  0  0  0  0
  8  7  1  0  0  0  0
  8 13  1  0  0  0  0
  9  8  2  0  0  0  0
 10  9  1  0  0  0  0
 10  6  2  0  0  0  0
 11 10  1  0  0  0  0
 12  9  1  0  0  0  0
 15  5  1  0  0  0  0
 17 16  1  0  0  0  0
 17 20  1  0  0  0  0
 17 18  1  0  0  0  0
 19 17  1  0  0  0  0
 21 16  1  0  0  0  0
M  END
