1,4
 OpenBabel05122313063D

 21 21  0  0  1  0  0  0  0  0999 V2000
    0.0549    2.1601   -0.4499 S   0  0  0  0  0  1  0  0  0  0  0  0
    1.7145    2.3642    0.0575 C   0  0  1  0  0  3  0  0  0  0  0  0
    2.5239    1.3348    0.2529 N   0  0  0  0  0  2  0  0  0  0  0  0
    1.9160    0.1168    0.0492 N   0  0  0  0  0  2  0  0  0  0  0  0
    2.7236   -0.9226   -0.1135 C   0  0  0  0  0  3  0  0  0  0  0  0
    4.1523   -0.9381   -0.0850 C   0  0  0  0  0  0  0  0  0  0  0  0
    4.9378    0.1763    0.1476 N   0  0  0  0  0  0  0  0  0  0  0  0
    6.2558   -0.1635    0.1200 C   0  0  0  0  0  0  0  0  0  0  0  0
    6.3489   -1.5400   -0.1395 C   0  0  0  0  0  0  0  0  0  0  0  0
    5.0296   -2.0322   -0.2685 C   0  0  0  0  0  0  0  0  0  0  0  0
    4.7198   -3.0639   -0.4699 H   0  0  0  0  0  0  0  0  0  0  0  0
    7.2791   -2.1128   -0.2239 H   0  0  0  0  0  0  0  0  0  0  0  0
    7.0422    0.5818    0.2838 H   0  0  0  0  0  0  0  0  0  0  0  0
    4.4457    1.0707    0.3108 H   0  0  0  0  0  0  0  0  0  0  0  0
    2.2268   -1.8863   -0.2927 H   0  0  0  0  0  0  0  0  0  0  0  0
    2.2165    3.6193    0.2253 N   0  0  0  0  0  0  0  0  0  0  0  0
    1.4990    4.8388   -0.0630 C   0  0  0  0  0  0  0  0  0  0  0  0
    1.9585    5.6785    0.4934 H   0  0  0  0  0  0  0  0  0  0  0  0
    1.4890    5.0950   -1.1472 H   0  0  0  0  0  0  0  0  0  0  0  0
    0.4449    4.7327    0.2646 H   0  0  0  0  0  0  0  0  0  0  0  0
    3.2205    3.6677    0.4038 H   0  0  0  0  0  0  0  0  0  0  0  0
  2  1  1  6  0  0  0
  2 16  1  0  0  0  0
  2  3  1  0  0  0  0
  4  3  1  0  0  0  0
  5  6  1  0  0  0  0
  5  4  1  0  0  0  0
  6  7  1  0  0  0  0
  7 14  1  0  0  0  0
  8  7  1  0  0  0  0
  8 13  1  0  0  0  0
  9  8  2  0  0  0  0
 10  9  1  0  0  0  0
 10  6  2  0  0  0  0
 11 10  1  0  0  0  0
 12  9  1  0  0  0  0
 15  5  1  0  0  0  0
 16 21  1  0  0  0  0
 17 16  1  0  0  0  0
 17 20  1  0  0  0  0
 17 18  1  0  0  0  0
 19 17  1  0  0  0  0
M  END
