1,22
q = -1.0, confidence = 0.02

 32 33  0  0  1  0  0  0  0  0999 V2000
    1.5938    1.5552   -0.0975 S   0  0  0  0  0  1  0  0  0  0  0  0
    5.3778    0.1572   -0.0399 C   0  0  0  0  0  0  0  0  0  0  0  0
    7.8524    0.3480    0.0777 C   0  0  0  0  0  0  0  0  0  0  0  0
    6.5561    0.9842    0.1154 C   0  0  0  0  0  0  0  0  0  0  0  0
    7.9467   -1.0590   -0.1285 C   0  0  0  0  0  0  0  0  0  0  0  0
    8.9423   -1.5268   -0.1571 H   0  0  0  0  0  0  0  0  0  0  0  0
    6.5077    2.3974    0.2983 C   0  0  0  0  0  0  0  0  0  0  0  0
    5.5467    2.9355    0.3061 H   0  0  0  0  0  0  0  0  0  0  0  0
    7.6641    3.1498    0.4545 C   0  0  0  0  0  0  0  0  0  0  0  0
    7.5918    4.2391    0.5916 H   0  0  0  0  0  0  0  0  0  0  0  0
    9.0199    1.1503    0.2436 C   0  0  0  0  0  0  0  0  0  0  0  0
   10.0013    0.6515    0.2166 H   0  0  0  0  0  0  0  0  0  0  0  0
    5.5140   -1.2190   -0.2449 C   0  0  0  0  0  0  0  0  0  0  0  0
    4.6036   -1.8179   -0.3617 H   0  0  0  0  0  0  0  0  0  0  0  0
    8.9347    2.5207    0.4316 C   0  0  0  0  0  0  0  0  0  0  0  0
    9.8477    3.1219    0.5575 H   0  0  0  0  0  0  0  0  0  0  0  0
    6.7971   -1.8143   -0.2911 C   0  0  0  0  0  0  0  0  0  0  0  0
    6.8694   -2.9008   -0.4527 H   0  0  0  0  0  0  0  0  0  0  0  0
    4.1335    0.7917    0.0308 N   0  0  0  0  0  0  0  0  0  0  0  0
    2.8590    0.3271   -0.1775 C   0  0  2  0  0  3  0  0  0  0  0  0
    2.6181   -0.9381   -0.4556 N   0  0  0  0  0  2  0  0  0  0  0  0
    1.2790   -1.1623   -0.7019 N   0  0  0  0  0  2  0  0  0  0  0  0
    1.0121   -2.2147   -1.4445 C   0  0  0  0  0  3  0  0  0  0  0  0
   -0.3834   -2.5187   -1.8889 C   0  0  0  0  0  0  0  0  0  0  0  0
   -0.7275   -3.5003   -1.4955 H   0  0  0  0  0  0  0  0  0  0  0  0
   -0.3963   -2.6068   -2.9967 H   0  0  0  0  0  0  0  0  0  0  0  0
   -1.1044   -1.7398   -1.5901 H   0  0  0  0  0  0  0  0  0  0  0  0
    2.1256   -3.1044   -1.9159 C   0  0  0  0  0  0  0  0  0  0  0  0
    2.8776   -2.5226   -2.4884 H   0  0  0  0  0  0  0  0  0  0  0  0
    1.7389   -3.9288   -2.5431 H   0  0  0  0  0  0  0  0  0  0  0  0
    2.6760   -3.5285   -1.0496 H   0  0  0  0  0  0  0  0  0  0  0  0
    4.1550    1.7825    0.2728 H   0  0  0  0  0  0  0  0  0  0  0  0
  2 19  1  0  0  0  0
  2  4  1  0  0  0  0
  3  4  2  0  0  0  0
  3 11  1  0  0  0  0
  4  7  1  0  0  0  0
  5  3  1  0  0  0  0
  6  5  1  0  0  0  0
  7  8  1  0  0  0  0
  7  9  2  0  0  0  0
  9 10  1  0  0  0  0
 11 15  2  0  0  0  0
 12 11  1  0  0  0  0
 13  2  2  0  0  0  0
 14 13  1  0  0  0  0
 15  9  1  0  0  0  0
 15 16  1  0  0  0  0
 17 13  1  0  0  0  0
 17  5  2  0  0  0  0
 18 17  1  0  0  0  0
 19 32  1  0  0  0  0
 20  1  1  6  0  0  0
 20 19  1  0  0  0  0
 21 20  1  0  0  0  0
 22 21  1  0  0  0  0
 23 22  1  0  0  0  0
 24 27  1  0  0  0  0
 24 25  1  0  0  0  0
 24 23  1  0  0  0  0
 26 24  1  0  0  0  0
 28 23  1  0  0  0  0
 28 31  1  0  0  0  0
 29 28  1  0  0  0  0
 30 28  1  0  0  0  0
M  END
