1,4
 OpenBabel05122313063D

 27 28  0  0  1  0  0  0  0  0999 V2000
   -1.2246   -1.2527   -1.2351 S   0  0  0  0  0  1  0  0  0  0  0  0
   -5.0636   -3.0674    1.7633 O   0  0  0  0  0  0  0  0  0  0  0  0
   -3.2773    0.5355   -0.8219 N   0  0  0  0  0  0  0  0  0  0  0  0
   -1.1782    1.6873   -0.9758 N   0  0  0  0  0  2  0  0  0  0  0  0
   -3.7109   -1.6596   -0.2900 N   0  0  0  0  0  0  0  0  0  0  0  0
   -2.8296   -0.7041   -0.7314 C   0  0  0  0  0  0  0  0  0  0  0  0
   -2.5348    1.5935   -1.2148 C   0  0  2  0  0  3  0  0  0  0  0  0
   -0.4981    2.7869   -1.3996 C   0  0  0  0  0  0  0  0  0  0  0  0
    0.5784    2.7949   -1.1749 H   0  0  0  0  0  0  0  0  0  0  0  0
   -1.0983    3.8527   -2.0601 C   0  0  0  0  0  0  0  0  0  0  0  0
   -0.4912    4.7133   -2.3721 H   0  0  0  0  0  0  0  0  0  0  0  0
   -2.4885    3.7937   -2.2928 C   0  0  0  0  0  0  0  0  0  0  0  0
   -3.0081    4.6174   -2.8055 H   0  0  0  0  0  0  0  0  0  0  0  0
   -3.1947    2.6767   -1.8682 C   0  0  0  0  0  0  0  0  0  0  0  0
   -4.2761    2.5728   -2.0286 H   0  0  0  0  0  0  0  0  0  0  0  0
   -3.3623   -3.0431    0.0023 C   0  0  0  0  0  0  0  0  0  0  0  0
   -2.2807   -3.1848   -0.1865 H   0  0  0  0  0  0  0  0  0  0  0  0
   -3.9331   -3.7195   -0.6738 H   0  0  0  0  0  0  0  0  0  0  0  0
   -3.7087   -3.3582    1.4619 C   0  0  0  0  0  0  0  0  0  0  0  0
   -3.5552   -4.4364    1.6691 H   0  0  0  0  0  0  0  0  0  0  0  0
   -3.0250   -2.7706    2.1249 H   0  0  0  0  0  0  0  0  0  0  0  0
   -5.3550   -1.7005    1.5171 C   0  0  0  0  0  0  0  0  0  0  0  0
   -4.7392   -1.0435    2.1814 H   0  0  0  0  0  0  0  0  0  0  0  0
   -6.4241   -1.5486    1.7685 H   0  0  0  0  0  0  0  0  0  0  0  0
   -5.0895   -1.3234    0.0588 C   0  0  0  0  0  0  0  0  0  0  0  0
   -5.7778   -1.8998   -0.6006 H   0  0  0  0  0  0  0  0  0  0  0  0
   -5.2316   -0.2415   -0.1184 H   0  0  0  0  0  0  0  0  0  0  0  0
  1  6  1  0  0  0  0
  3  6  2  0  0  0  0
  5 16  1  0  0  0  0
  5 25  1  0  0  0  0
  6  5  1  0  0  0  0
  7  4  1  0  0  0  0
  7  3  1  1  0  0  0
  8  9  1  0  0  0  0
  8  4  1  0  0  0  0
 10  8  2  0  0  0  0
 11 10  1  0  0  0  0
 12 10  1  0  0  0  0
 12 14  2  0  0  0  0
 13 12  1  0  0  0  0
 14  7  1  0  0  0  0
 15 14  1  0  0  0  0
 16 19  1  0  0  0  0
 17 16  1  0  0  0  0
 18 16  1  0  0  0  0
 19 20  1  0  0  0  0
 19  2  1  0  0  0  0
 19 21  1  0  0  0  0
 22  2  1  0  0  0  0
 22 24  1  0  0  0  0
 22 23  1  0  0  0  0
 25 22  1  0  0  0  0
 26 25  1  0  0  0  0
 27 25  1  0  0  0  0
M  END
