1,4
 OpenBabel05122313063D

 26 26  0  0  0  0  0  0  0  0999 V2000
   -0.9472    0.2945    2.8586 S   0  0  0  0  0  1  0  0  0  0  0  0
    0.7221    2.3646    4.0914 S   0  0  0  0  0  0  0  0  0  0  0  0
    0.7812    1.9138    1.4741 N   0  0  0  0  0  0  0  0  0  0  0  0
    0.3370    1.2766    0.3620 N   0  0  0  0  0  2  0  0  0  0  0  0
    5.0859    4.7146   -2.7613 O   0  0  0  0  0  0  0  0  0  0  0  0
    1.9652    3.5508    3.4880 C   0  0  0  0  0  0  0  0  0  0  0  0
    0.2203    1.5363    2.6162 C   0  0  0  0  0  0  0  0  0  0  0  0
    0.8776    1.5043   -0.8173 C   0  0  0  0  0  3  0  0  0  0  0  0
    2.2981    2.3932   -2.5879 C   0  0  0  0  0  0  0  0  0  0  0  0
    3.3324    3.1806   -3.0782 C   0  0  0  0  0  0  0  0  0  0  0  0
    4.0964    3.9783   -2.1937 C   0  0  0  0  0  0  0  0  0  0  0  0
    3.7979    3.9652   -0.8134 C   0  0  0  0  0  0  0  0  0  0  0  0
    2.7538    3.1703   -0.3275 C   0  0  0  0  0  0  0  0  0  0  0  0
    1.9777    2.3658   -1.1995 C   0  0  0  0  0  0  0  0  0  0  0  0
    5.8882    5.5297   -1.9267 C   0  0  0  0  0  0  0  0  0  0  0  0
    2.2827    4.1366    4.3721 H   0  0  0  0  0  0  0  0  0  0  0  0
    2.8371    3.0222    3.0570 H   0  0  0  0  0  0  0  0  0  0  0  0
    1.5272    4.2235    2.7264 H   0  0  0  0  0  0  0  0  0  0  0  0
    0.3742    0.9376   -1.6275 H   0  0  0  0  0  0  0  0  0  0  0  0
    1.7071    1.7724   -3.2794 H   0  0  0  0  0  0  0  0  0  0  0  0
    3.5817    3.2031   -4.1487 H   0  0  0  0  0  0  0  0  0  0  0  0
    4.3781    4.5735   -0.1064 H   0  0  0  0  0  0  0  0  0  0  0  0
    2.5157    3.1530    0.7421 H   0  0  0  0  0  0  0  0  0  0  0  0
    6.6189    6.0308   -2.5881 H   0  0  0  0  0  0  0  0  0  0  0  0
    5.2857    6.3037   -1.4006 H   0  0  0  0  0  0  0  0  0  0  0  0
    6.4386    4.9300   -1.1677 H   0  0  0  0  0  0  0  0  0  0  0  0
  3  7  2  0  0  0  0
  4  3  1  0  0  0  0
  5 11  1  0  0  0  0
  5 15  1  0  0  0  0
  6  2  1  0  0  0  0
  6 16  1  0  0  0  0
  7  1  1  0  0  0  0
  7  2  1  0  0  0  0
  8  4  1  0  0  0  0
  9 14  1  0  0  0  0
 10  9  2  0  0  0  0
 10 11  1  0  0  0  0
 11 12  2  0  0  0  0
 12 13  1  0  0  0  0
 12 22  1  0  0  0  0
 13 23  1  0  0  0  0
 14  8  1  0  0  0  0
 14 13  2  0  0  0  0
 15 25  1  0  0  0  0
 15 26  1  0  0  0  0
 17  6  1  0  0  0  0
 18  6  1  0  0  0  0
 19  8  1  0  0  0  0
 20  9  1  0  0  0  0
 21 10  1  0  0  0  0
 24 15  1  0  0  0  0
M  END
