1,14
 OpenBabel05122313063D

 16 15  0  0  1  0  0  0  0  0999 V2000
   -1.8830   -2.4915    0.4696 S   0  0  0  0  0  1  0  0  0  0  0  0
   -2.9277   -1.2501   -0.0776 C   0  0  1  0  0  3  0  0  0  0  0  0
   -3.8482   -0.7427    2.1698 C   0  0  0  0  0  0  0  0  0  0  0  0
   -3.5784   -1.7852    2.4302 H   0  0  0  0  0  0  0  0  0  0  0  0
   -4.8874   -0.5702    2.5179 H   0  0  0  0  0  0  0  0  0  0  0  0
   -2.8715    0.2381    2.8205 C   0  0  0  0  0  0  0  0  0  0  0  0
   -1.8417    0.0596    2.4518 H   0  0  0  0  0  0  0  0  0  0  0  0
   -2.8754    0.1168    3.9221 H   0  0  0  0  0  0  0  0  0  0  0  0
   -3.1427    1.2894    2.5923 H   0  0  0  0  0  0  0  0  0  0  0  0
   -3.8517   -0.6547    0.7132 N   0  0  0  0  0  0  0  0  0  0  0  0
   -4.3449    0.1383    0.2904 H   0  0  0  0  0  0  0  0  0  0  0  0
   -2.8650   -0.7530   -1.3525 N   0  0  0  0  0  0  0  0  0  0  0  0
   -2.7000    0.3648   -1.3197 H   0  0  0  0  0  0  0  0  0  0  0  0
   -1.7887   -1.2953   -2.1224 N   0  0  0  0  0  0  0  0  0  0  0  0
   -1.9903   -2.2936   -2.2985 H   0  0  0  0  0  0  0  0  0  0  0  0
   -1.8150   -0.8076   -3.0299 H   0  0  0  0  0  0  0  0  0  0  0  0
  2  1  1  1  0  0  0
  2 10  1  0  0  0  0
  3  4  1  0  0  0  0
  3  5  1  0  0  0  0
  3  6  1  0  0  0  0
  6  8  1  0  0  0  0
  7  6  1  0  0  0  0
  9  6  1  0  0  0  0
 10  3  1  0  0  0  0
 11 10  1  0  0  0  0
 12 13  1  0  0  0  0
 12  2  1  0  0  0  0
 14 12  1  0  0  0  0
 15 14  1  0  0  0  0
 16 14  1  0  0  0  0
M  END
