1,6
 OpenBabel05122313063D

 13 12  0  0  1  0  0  0  0  0999 V2000
   -0.9947    2.8742    0.4915 S   0  0  0  0  0  1  0  0  0  0  0  0
    1.6264    3.3680    0.6294 N   0  0  0  0  0  0  0  0  0  0  0  0
    2.5546    3.3567    0.1986 H   0  0  0  0  0  0  0  0  0  0  0  0
    1.0067    2.0281   -1.1307 N   0  0  0  0  0  0  0  0  0  0  0  0
    1.9562    1.5971   -1.1953 H   0  0  0  0  0  0  0  0  0  0  0  0
    0.0414    1.2768   -1.8250 N   0  0  0  0  0  0  0  0  0  0  0  0
    0.4870    0.3675   -2.0694 H   0  0  0  0  0  0  0  0  0  0  0  0
   -0.2232    1.7716   -2.6912 H   0  0  0  0  0  0  0  0  0  0  0  0
    0.6334    2.7349   -0.0205 C   0  0  2  0  0  3  0  0  0  0  0  0
    1.4496    4.1506    1.8426 C   0  0  0  0  0  0  0  0  0  0  0  0
    0.9560    5.1231    1.6345 H   0  0  0  0  0  0  0  0  0  0  0  0
    2.4430    4.3396    2.2883 H   0  0  0  0  0  0  0  0  0  0  0  0
    0.8232    3.5941    2.5663 H   0  0  0  0  0  0  0  0  0  0  0  0
  2 10  1  0  0  0  0
  3  2  1  0  0  0  0
  4  9  1  0  0  0  0
  5  4  1  0  0  0  0
  6  4  1  0  0  0  0
  7  6  1  0  0  0  0
  8  6  1  0  0  0  0
  9  1  1  6  0  0  0
  9  2  1  0  0  0  0
 10 12  1  0  0  0  0
 10 13  1  0  0  0  0
 11 10  1  0  0  0  0
M  END
