1,23
 OpenBabel05122313063D

 28 28  0  0  1  0  0  0  0  0999 V2000
   -1.5944    2.2504   -0.0213 S   0  0  0  0  0  1  0  0  0  0  0  0
   -2.8591    1.0269   -0.0761 C   0  0  2  0  0  3  0  0  0  0  0  0
   -5.3697    0.8511    0.1354 C   0  0  0  0  0  0  0  0  0  0  0  0
   -1.0680   -1.5158   -1.4151 C   0  0  0  0  0  3  0  0  0  0  0  0
   -6.5162    1.6394    0.4200 C   0  0  0  0  0  0  0  0  0  0  0  0
   -6.3944    2.7077    0.6592 H   0  0  0  0  0  0  0  0  0  0  0  0
   -7.9293   -0.2835    0.0880 C   0  0  0  0  0  0  0  0  0  0  0  0
   -2.1977   -2.3993   -1.8576 C   0  0  0  0  0  0  0  0  0  0  0  0
   -2.7458   -2.7987   -0.9788 H   0  0  0  0  0  0  0  0  0  0  0  0
   -1.8281   -3.2400   -2.4730 H   0  0  0  0  0  0  0  0  0  0  0  0
   -2.9445   -1.8197   -2.4392 H   0  0  0  0  0  0  0  0  0  0  0  0
   -7.7902    1.0785    0.3974 C   0  0  0  0  0  0  0  0  0  0  0  0
   -8.6899    1.6696    0.6133 H   0  0  0  0  0  0  0  0  0  0  0  0
   -5.5327   -0.5231   -0.1715 C   0  0  0  0  0  0  0  0  0  0  0  0
   -4.6404   -1.1228   -0.3827 H   0  0  0  0  0  0  0  0  0  0  0  0
   -6.8120   -1.0814   -0.1949 C   0  0  0  0  0  0  0  0  0  0  0  0
   -6.9698   -2.1425   -0.4297 H   0  0  0  0  0  0  0  0  0  0  0  0
    0.3103   -1.8208   -1.9086 C   0  0  0  0  0  0  0  0  0  0  0  0
    1.0449   -1.0483   -1.6276 H   0  0  0  0  0  0  0  0  0  0  0  0
    0.2840   -1.8975   -3.0168 H   0  0  0  0  0  0  0  0  0  0  0  0
    0.6603   -2.8090   -1.5385 H   0  0  0  0  0  0  0  0  0  0  0  0
   -2.6361   -0.2357   -0.3700 N   0  0  0  0  0  2  0  0  0  0  0  0
   -1.3053   -0.4669   -0.6578 N   0  0  0  0  0  2  0  0  0  0  0  0
   -4.1326    1.4892    0.1775 N   0  0  0  0  0  0  0  0  0  0  0  0
   -4.1596    2.4822    0.4190 H   0  0  0  0  0  0  0  0  0  0  0  0
   -9.2745   -0.8834    0.0620 N   0  0  0  0  0  0  0  0  0  0  0  0
   -9.3587   -2.0825   -0.2138 O   0  0  0  0  0  0  0  0  0  0  0  0
  -10.2309   -0.1477    0.3176 O   0  0  0  0  0  0  0  0  0  0  0  0
  2  1  1  6  0  0  0
  2 24  1  0  0  0  0
  3 24  1  0  0  0  0
  3  5  1  0  0  0  0
  4 23  1  0  0  0  0
  5  6  1  0  0  0  0
  7 12  1  0  0  0  0
  8  4  1  0  0  0  0
  8  9  1  0  0  0  0
 10  8  1  0  0  0  0
 11  8  1  0  0  0  0
 12  5  2  0  0  0  0
 12 13  1  0  0  0  0
 14  3  2  0  0  0  0
 15 14  1  0  0  0  0
 16 14  1  0  0  0  0
 16  7  2  0  0  0  0
 17 16  1  0  0  0  0
 18 19  1  0  0  0  0
 18 21  1  0  0  0  0
 18  4  1  0  0  0  0
 20 18  1  0  0  0  0
 22  2  1  0  0  0  0
 23 22  1  0  0  0  0
 24 25  1  0  0  0  0
 26  7  1  0  0  0  0
 26 28  2  0  0  0  0
 27 26  2  0  0  0  0
M  END
