1,8
 OpenBabel05122313063D

 28 28  0  0  0  0  0  0  0  0999 V2000
    1.7322    1.9851   -1.1759 S   0  0  0  0  0  1  0  0  0  0  0  0
   10.2865   -0.4837   -0.3317 O   0  0  0  0  0  0  0  0  0  0  0  0
    9.4142   -1.8998    1.0894 O   0  0  0  0  0  0  0  0  0  0  0  0
    9.3326   -0.9785    0.2737 N   0  0  0  0  0  0  0  0  0  0  0  0
    4.2185    1.1912   -0.8396 N   0  0  0  0  0  0  0  0  0  0  0  0
    4.2593    1.9474   -1.5267 H   0  0  0  0  0  0  0  0  0  0  0  0
    2.7308   -0.0169    0.4794 N   0  0  0  0  0  0  0  0  0  0  0  0
    1.4423   -0.1984    0.8859 N   0  0  0  0  0  2  0  0  0  0  0  0
    7.9941   -0.4272    0.0006 C   0  0  0  0  0  0  0  0  0  0  0  0
    7.8577    0.6210   -0.9231 C   0  0  0  0  0  0  0  0  0  0  0  0
    8.7543    1.0099   -1.4232 H   0  0  0  0  0  0  0  0  0  0  0  0
    6.5897    1.1355   -1.1776 C   0  0  0  0  0  0  0  0  0  0  0  0
    6.4704    1.9581   -1.9006 H   0  0  0  0  0  0  0  0  0  0  0  0
    5.4440    0.6147   -0.5174 C   0  0  0  0  0  0  0  0  0  0  0  0
    5.6067   -0.4428    0.4133 C   0  0  0  0  0  0  0  0  0  0  0  0
    4.7183   -0.8343    0.9189 H   0  0  0  0  0  0  0  0  0  0  0  0
    6.8800   -0.9567    0.6658 C   0  0  0  0  0  0  0  0  0  0  0  0
    7.0352   -1.7751    1.3814 H   0  0  0  0  0  0  0  0  0  0  0  0
    2.9277    0.9381   -0.4100 C   0  0  0  0  0  0  0  0  0  0  0  0
    1.2254   -1.1695    1.7391 C   0  0  0  0  0  3  0  0  0  0  0  0
    2.3419   -2.0475    2.2188 C   0  0  0  0  0  0  0  0  0  0  0  0
    2.8846   -2.4906    1.3584 H   0  0  0  0  0  0  0  0  0  0  0  0
    1.9715   -2.8522    2.8797 H   0  0  0  0  0  0  0  0  0  0  0  0
    3.0936   -1.4432    2.7700 H   0  0  0  0  0  0  0  0  0  0  0  0
   -0.1668   -1.3995    2.2341 C   0  0  0  0  0  0  0  0  0  0  0  0
   -0.8459   -0.5715    1.9537 H   0  0  0  0  0  0  0  0  0  0  0  0
   -0.1698   -1.4992    3.3396 H   0  0  0  0  0  0  0  0  0  0  0  0
   -0.5733   -2.3537    1.8324 H   0  0  0  0  0  0  0  0  0  0  0  0
  1 19  1  0  0  0  0
  2  4  2  0  0  0  0
  4  3  2  0  0  0  0
  5 14  1  0  0  0  0
  5 19  1  0  0  0  0
  6  5  1  0  0  0  0
  7  8  1  0  0  0  0
  8 20  1  0  0  0  0
  9  4  1  0  0  0  0
  9 17  1  0  0  0  0
 10  9  2  0  0  0  0
 11 10  1  0  0  0  0
 12 10  1  0  0  0  0
 12 14  2  0  0  0  0
 13 12  1  0  0  0  0
 14 15  1  0  0  0  0
 15 17  2  0  0  0  0
 15 16  1  0  0  0  0
 17 18  1  0  0  0  0
 19  7  2  0  0  0  0
 20 21  1  0  0  0  0
 20 25  1  0  0  0  0
 21 24  1  0  0  0  0
 21 23  1  0  0  0  0
 22 21  1  0  0  0  0
 25 27  1  0  0  0  0
 26 25  1  0  0  0  0
 28 25  1  0  0  0  0
M  END
