1,22
 OpenBabel05122313063D

 30 30  0  0  1  0  0  0  0  0999 V2000
   -1.5941   -2.2865   -0.0461 S   0  0  0  0  0  1  0  0  0  0  0  0
   -2.8626   -1.0584   -0.0639 C   0  0  1  0  0  3  0  0  0  0  0  0
   -5.3710   -0.8618    0.1710 C   0  0  0  0  0  0  0  0  0  0  0  0
   -1.0686    1.4903   -1.3981 C   0  0  0  0  0  3  0  0  0  0  0  0
   -6.5225   -1.6424    0.4388 C   0  0  0  0  0  0  0  0  0  0  0  0
   -6.4121   -2.7170    0.6569 H   0  0  0  0  0  0  0  0  0  0  0  0
   -5.5374    0.5101   -0.1052 C   0  0  0  0  0  0  0  0  0  0  0  0
   -4.6463    1.1162   -0.3059 H   0  0  0  0  0  0  0  0  0  0  0  0
   -7.9600    0.2999    0.1478 C   0  0  0  0  0  0  0  0  0  0  0  0
   -6.8198    1.0823   -0.1179 C   0  0  0  0  0  0  0  0  0  0  0  0
   -6.9115    2.1546   -0.3370 H   0  0  0  0  0  0  0  0  0  0  0  0
   -2.2005    2.3809   -1.8221 C   0  0  0  0  0  0  0  0  0  0  0  0
   -2.9696    1.8016   -2.3745 H   0  0  0  0  0  0  0  0  0  0  0  0
   -1.8383    3.2121   -2.4553 H   0  0  0  0  0  0  0  0  0  0  0  0
   -2.7220    2.7956   -0.9336 H   0  0  0  0  0  0  0  0  0  0  0  0
    0.3089    1.7973   -1.8947 C   0  0  0  0  0  0  0  0  0  0  0  0
    0.6738    2.7715   -1.5010 H   0  0  0  0  0  0  0  0  0  0  0  0
    0.2785    1.9009   -3.0008 H   0  0  0  0  0  0  0  0  0  0  0  0
    1.0381    1.0120   -1.6349 H   0  0  0  0  0  0  0  0  0  0  0  0
   -7.7940   -1.0739    0.4283 C   0  0  0  0  0  0  0  0  0  0  0  0
   -8.6881   -1.6792    0.6352 H   0  0  0  0  0  0  0  0  0  0  0  0
   -1.3070    0.4346   -0.6504 N   0  0  0  0  0  2  0  0  0  0  0  0
   -2.6339    0.2091   -0.3510 N   0  0  0  0  0  2  0  0  0  0  0  0
   -4.1266   -1.5128    0.2008 N   0  0  0  0  0  0  0  0  0  0  0  0
   -9.2427    0.7657    0.1594 O   0  0  0  0  0  0  0  0  0  0  0  0
   -9.4553    2.1342   -0.1175 C   0  0  0  0  0  0  0  0  0  0  0  0
   -8.9502    2.7940    0.6246 H   0  0  0  0  0  0  0  0  0  0  0  0
  -10.5471    2.3020   -0.0601 H   0  0  0  0  0  0  0  0  0  0  0  0
   -9.1010    2.4143   -1.1359 H   0  0  0  0  0  0  0  0  0  0  0  0
   -4.1602   -2.5073    0.4314 H   0  0  0  0  0  0  0  0  0  0  0  0
  2  1  1  6  0  0  0
  2 24  1  0  0  0  0
  3 24  1  0  0  0  0
  3  5  1  0  0  0  0
  4 22  1  0  0  0  0
  5  6  1  0  0  0  0
  7  3  2  0  0  0  0
  8  7  1  0  0  0  0
  9 25  1  0  0  0  0
  9 20  1  0  0  0  0
 10  7  1  0  0  0  0
 10  9  2  0  0  0  0
 11 10  1  0  0  0  0
 12  4  1  0  0  0  0
 12 15  1  0  0  0  0
 13 12  1  0  0  0  0
 14 12  1  0  0  0  0
 16 19  1  0  0  0  0
 16 17  1  0  0  0  0
 16  4  1  0  0  0  0
 18 16  1  0  0  0  0
 20  5  2  0  0  0  0
 20 21  1  0  0  0  0
 22 23  1  0  0  0  0
 23  2  1  0  0  0  0
 24 30  1  0  0  0  0
 26 28  1  0  0  0  0
 26 25  1  0  0  0  0
 26 27  1  0  0  0  0
 29 26  1  0  0  0  0
M  END
