1,5
 OpenBabel05122313063D

 25 25  0  0  0  0  0  0  0  0999 V2000
    1.0126    2.3092    0.1533 S   0  0  0  0  0  1  0  0  0  0  0  0
   -0.7589    2.4285    0.4064 C   0  0  0  0  0  0  0  0  0  0  0  0
   -1.1864    3.6450    0.8397 N   0  0  0  0  0  0  0  0  0  0  0  0
   -1.6198    1.4622    0.2277 N   0  0  0  0  0  0  0  0  0  0  0  0
   -1.1278    0.2568   -0.1629 N   0  0  0  0  0  2  0  0  0  0  0  0
   -1.9406   -0.7609   -0.3804 C   0  0  0  0  0  3  0  0  0  0  0  0
   -3.3741   -0.8745   -0.2740 C   0  0  0  0  0  0  0  0  0  0  0  0
   -4.2614    0.1682    0.1225 C   0  0  0  0  0  0  0  0  0  0  0  0
   -5.6382   -0.0499    0.1870 C   0  0  0  0  0  0  0  0  0  0  0  0
   -6.5598    0.8709    0.5491 O   0  0  0  0  0  0  0  0  0  0  0  0
   -6.1069    2.1697    0.8853 C   0  0  0  0  0  0  0  0  0  0  0  0
   -6.1692   -1.3384   -0.1502 C   0  0  0  0  0  0  0  0  0  0  0  0
   -7.5038   -1.4822   -0.0694 O   0  0  0  0  0  0  0  0  0  0  0  0
   -5.2927   -2.3666   -0.5409 C   0  0  0  0  0  0  0  0  0  0  0  0
   -3.9169   -2.1440   -0.6031 C   0  0  0  0  0  0  0  0  0  0  0  0
   -2.1920    3.8174    0.8606 H   0  0  0  0  0  0  0  0  0  0  0  0
   -0.5667    4.4509    0.7771 H   0  0  0  0  0  0  0  0  0  0  0  0
   -1.4012   -1.6692   -0.6982 H   0  0  0  0  0  0  0  0  0  0  0  0
   -3.8295    1.1421    0.3713 H   0  0  0  0  0  0  0  0  0  0  0  0
   -5.4202    2.1506    1.7614 H   0  0  0  0  0  0  0  0  0  0  0  0
   -5.5861    2.6559    0.0299 H   0  0  0  0  0  0  0  0  0  0  0  0
   -7.0072    2.7565    1.1427 H   0  0  0  0  0  0  0  0  0  0  0  0
   -7.7439   -2.3931   -0.3277 H   0  0  0  0  0  0  0  0  0  0  0  0
   -5.7088   -3.3533   -0.8006 H   0  0  0  0  0  0  0  0  0  0  0  0
   -3.2466   -2.9589   -0.9143 H   0  0  0  0  0  0  0  0  0  0  0  0
  1  2  1  0  0  0  0
  2  3  1  0  0  0  0
  3 16  1  0  0  0  0
  4  2  2  0  0  0  0
  5  4  1  0  0  0  0
  6  7  1  0  0  0  0
  6  5  1  0  0  0  0
  7  8  1  0  0  0  0
  8  9  2  0  0  0  0
  8 19  1  0  0  0  0
  9 10  1  0  0  0  0
 10 11  1  0  0  0  0
 11 22  1  0  0  0  0
 11 20  1  0  0  0  0
 12 13  1  0  0  0  0
 12  9  1  0  0  0  0
 14 12  2  0  0  0  0
 15 14  1  0  0  0  0
 15  7  2  0  0  0  0
 17  3  1  0  0  0  0
 18  6  1  0  0  0  0
 21 11  1  0  0  0  0
 23 13  1  0  0  0  0
 24 14  1  0  0  0  0
 25 15  1  0  0  0  0
M  END
