1,6
 OpenBabel05122313063D

 19 19  0  0  1  0  0  0  0  0999 V2000
    0.9525   -2.0697   -1.2292 S   0  0  0  0  0  1  0  0  0  0  0  0
    3.6015   -2.5237   -1.1465 N   0  0  0  0  0  0  0  0  0  0  0  0
    4.5584   -2.1507   -0.8956 H   0  0  0  0  0  0  0  0  0  0  0  0
    3.4067   -3.3858   -1.6524 H   0  0  0  0  0  0  0  0  0  0  0  0
    2.9423   -0.5435   -0.2212 N   0  0  0  0  0  0  0  0  0  0  0  0
    2.0143    0.3975    0.1548 N   0  0  0  0  0  2  0  0  0  0  0  0
    5.3010   -0.8114   -0.2111 O   0  0  0  0  0  0  0  0  0  0  0  0
    2.5845   -1.7088   -0.8495 C   0  0  1  0  0  3  0  0  0  0  0  0
    2.7311    1.4349    0.6536 C   0  0  0  0  0  0  0  0  0  0  0  0
    4.1127    1.1902    0.6212 C   0  0  0  0  0  0  0  0  0  0  0  0
    4.9147    1.8531    0.9585 H   0  0  0  0  0  0  0  0  0  0  0  0
    4.3097   -0.1001    0.0535 C   0  0  0  0  0  0  0  0  0  0  0  0
    2.0286    2.6812    1.1121 C   0  0  0  0  0  0  0  0  0  0  0  0
    2.4114    2.9612    2.1169 H   0  0  0  0  0  0  0  0  0  0  0  0
    0.9451    2.4644    1.2145 H   0  0  0  0  0  0  0  0  0  0  0  0
    2.2140    3.8599    0.1447 C   0  0  0  0  0  0  0  0  0  0  0  0
    1.6913    4.7623    0.5197 H   0  0  0  0  0  0  0  0  0  0  0  0
    1.7986    3.6162   -0.8532 H   0  0  0  0  0  0  0  0  0  0  0  0
    3.2864    4.1079    0.0167 H   0  0  0  0  0  0  0  0  0  0  0  0
  2  3  1  0  0  0  0
  2  8  1  0  0  0  0
  4  2  1  0  0  0  0
  5 12  1  0  0  0  0
  5  6  1  0  0  0  0
  6  9  1  0  0  0  0
  7 12  2  0  0  0  0
  8  1  1  6  0  0  0
  8  5  1  0  0  0  0
  9 13  1  0  0  0  0
 10  9  2  0  0  0  0
 10 11  1  0  0  0  0
 12 10  1  0  0  0  0
 13 15  1  0  0  0  0
 13 14  1  0  0  0  0
 16 17  1  0  0  0  0
 16 13  1  0  0  0  0
 18 16  1  0  0  0  0
 19 16  1  0  0  0  0
M  END
