1,2
 OpenBabel05122313063D

 27 28  0  0  0  0  0  0  0  0999 V2000
   -0.4069    2.4899   -0.0253 S   0  0  0  0  0  1  0  0  0  0  0  0
    1.9776    0.8050   -0.0402 N   0  0  0  0  0  2  0  0  0  0  0  0
    2.3190    2.1216   -0.0323 N   0  0  0  0  0  0  0  0  0  0  0  0
    6.4341    1.0522    0.0463 N   0  0  0  0  0  0  0  0  0  0  0  0
    7.1753    1.7507    0.0625 H   0  0  0  0  0  0  0  0  0  0  0  0
    1.5572    4.2931   -0.0224 N   0  0  0  0  0  0  0  0  0  0  0  0
    0.7546    4.9191   -0.0218 H   0  0  0  0  0  0  0  0  0  0  0  0
    2.9455   -0.0867   -0.0232 C   0  0  0  0  0  3  0  0  0  0  0  0
    2.5823   -1.1277   -0.0323 H   0  0  0  0  0  0  0  0  0  0  0  0
    4.3627    0.1387    0.0037 C   0  0  0  0  0  0  0  0  0  0  0  0
    5.3481   -0.9343    0.0185 C   0  0  0  0  0  0  0  0  0  0  0  0
    6.6379   -0.3205    0.0455 C   0  0  0  0  0  0  0  0  0  0  0  0
    5.0908    1.3374    0.0215 C   0  0  0  0  0  0  0  0  0  0  0  0
    4.7031    2.3587    0.0172 H   0  0  0  0  0  0  0  0  0  0  0  0
    5.2603   -2.3416    0.0110 C   0  0  0  0  0  0  0  0  0  0  0  0
    4.2797   -2.8408   -0.0111 H   0  0  0  0  0  0  0  0  0  0  0  0
    6.4421   -3.0906    0.0309 C   0  0  0  0  0  0  0  0  0  0  0  0
    6.3875   -4.1896    0.0250 H   0  0  0  0  0  0  0  0  0  0  0  0
    7.7104   -2.4618    0.0580 C   0  0  0  0  0  0  0  0  0  0  0  0
    8.6209   -3.0795    0.0731 H   0  0  0  0  0  0  0  0  0  0  0  0
    7.8275   -1.0668    0.0655 C   0  0  0  0  0  0  0  0  0  0  0  0
    8.8128   -0.5769    0.0862 H   0  0  0  0  0  0  0  0  0  0  0  0
    1.2990    2.9548   -0.0271 C   0  0  0  0  0  0  0  0  0  0  0  0
    2.8965    4.8324   -0.0242 C   0  0  0  0  0  0  0  0  0  0  0  0
    2.8450    5.9371   -0.0298 H   0  0  0  0  0  0  0  0  0  0  0  0
    3.4671    4.4966   -0.9179 H   0  0  0  0  0  0  0  0  0  0  0  0
    3.4663    4.5063    0.8738 H   0  0  0  0  0  0  0  0  0  0  0  0
  2  3  1  0  0  0  0
  2  8  1  0  0  0  0
  3 23  2  0  0  0  0
  4  5  1  0  0  0  0
  6  7  1  0  0  0  0
  8 10  1  0  0  0  0
  9  8  1  0  0  0  0
 10 11  1  0  0  0  0
 10 13  2  0  0  0  0
 11 12  1  0  0  0  0
 12  4  1  0  0  0  0
 12 21  2  0  0  0  0
 13  4  1  0  0  0  0
 14 13  1  0  0  0  0
 15 11  2  0  0  0  0
 15 17  1  0  0  0  0
 16 15  1  0  0  0  0
 17 19  2  0  0  0  0
 18 17  1  0  0  0  0
 19 21  1  0  0  0  0
 19 20  1  0  0  0  0
 21 22  1  0  0  0  0
 23  1  1  0  0  0  0
 23  6  1  0  0  0  0
 24  6  1  0  0  0  0
 24 27  1  0  0  0  0
 25 24  1  0  0  0  0
 26 24  1  0  0  0  0
M  END
