1,2
 OpenBabel05122313063D

 34 35  0  0  0  0  0  0  0  0999 V2000
    1.9150   -1.0859    0.2549 S   0  0  0  0  0  1  0  0  0  0  0  0
    0.4489    1.3780   -1.6321 N   0  0  0  0  0  2  0  0  0  0  0  0
    4.4176   -0.3827   -0.6513 N   0  0  0  0  0  0  0  0  0  0  0  0
    5.1063    0.4981   -1.4527 N   0  0  0  0  0  0  0  0  0  0  0  0
    3.0513   -0.1756   -0.6767 C   0  0  0  0  0  0  0  0  0  0  0  0
    4.1927    1.2646   -2.0260 C   0  0  0  0  0  0  0  0  0  0  0  0
    2.8646    0.9094   -1.5902 C   0  0  0  0  0  0  0  0  0  0  0  0
    1.6740    1.5339   -2.0637 C   0  0  0  0  0  3  0  0  0  0  0  0
   -0.6260    2.0625   -2.3699 C   0  0  0  0  0  0  0  0  0  0  0  0
   -1.3516    1.0609   -3.2777 C   0  0  0  0  0  0  0  0  0  0  0  0
   -1.5861    2.7578   -1.4029 C   0  0  0  0  0  0  0  0  0  0  0  0
    4.5901    2.3383   -2.9883 C   0  0  0  0  0  0  0  0  0  0  0  0
    5.1783   -1.3023    0.1231 C   0  0  0  0  0  0  0  0  0  0  0  0
    6.4390   -0.8902    0.5996 C   0  0  0  0  0  0  0  0  0  0  0  0
    7.2170   -1.7729    1.3577 C   0  0  0  0  0  0  0  0  0  0  0  0
    6.7482   -3.0651    1.6479 C   0  0  0  0  0  0  0  0  0  0  0  0
    5.4985   -3.4733    1.1581 C   0  0  0  0  0  0  0  0  0  0  0  0
    4.7117   -2.6032    0.3895 C   0  0  0  0  0  0  0  0  0  0  0  0
    1.8262    2.2453   -2.9060 H   0  0  0  0  0  0  0  0  0  0  0  0
   -0.1498    2.8393   -3.0155 H   0  0  0  0  0  0  0  0  0  0  0  0
   -2.1516    1.5703   -3.8518 H   0  0  0  0  0  0  0  0  0  0  0  0
   -0.6462    0.5969   -3.9954 H   0  0  0  0  0  0  0  0  0  0  0  0
   -1.8130    0.2549   -2.6707 H   0  0  0  0  0  0  0  0  0  0  0  0
   -2.3583    3.3166   -1.9676 H   0  0  0  0  0  0  0  0  0  0  0  0
   -2.1085    2.0198   -0.7616 H   0  0  0  0  0  0  0  0  0  0  0  0
   -1.0503    3.4708   -0.7455 H   0  0  0  0  0  0  0  0  0  0  0  0
    4.1362    2.1804   -3.9889 H   0  0  0  0  0  0  0  0  0  0  0  0
    4.2734    3.3422   -2.6371 H   0  0  0  0  0  0  0  0  0  0  0  0
    5.6899    2.3384   -3.1031 H   0  0  0  0  0  0  0  0  0  0  0  0
    6.7904    0.1202    0.3525 H   0  0  0  0  0  0  0  0  0  0  0  0
    8.1998   -1.4450    1.7289 H   0  0  0  0  0  0  0  0  0  0  0  0
    7.3600   -3.7547    2.2486 H   0  0  0  0  0  0  0  0  0  0  0  0
    5.1289   -4.4892    1.3643 H   0  0  0  0  0  0  0  0  0  0  0  0
    3.7441   -2.9331   -0.0089 H   0  0  0  0  0  0  0  0  0  0  0  0
  3 13  1  0  0  0  0
  4  3  1  0  0  0  0
  5  3  1  0  0  0  0
  5  1  1  0  0  0  0
  6  7  1  0  0  0  0
  6  4  2  0  0  0  0
  7  5  2  0  0  0  0
  8  2  1  0  0  0  0
  8  7  1  0  0  0  0
  9  2  1  0  0  0  0
  9 11  1  0  0  0  0
 10 23  1  0  0  0  0
 10  9  1  0  0  0  0
 11 25  1  0  0  0  0
 11 26  1  0  0  0  0
 12 28  1  0  0  0  0
 12  6  1  0  0  0  0
 13 18  2  0  0  0  0
 13 14  1  0  0  0  0
 14 15  2  0  0  0  0
 15 16  1  0  0  0  0
 15 31  1  0  0  0  0
 16 32  1  0  0  0  0
 17 33  1  0  0  0  0
 17 16  2  0  0  0  0
 18 17  1  0  0  0  0
 19  8  1  0  0  0  0
 20  9  1  0  0  0  0
 21 10  1  0  0  0  0
 22 10  1  0  0  0  0
 24 11  1  0  0  0  0
 27 12  1  0  0  0  0
 29 12  1  0  0  0  0
 30 14  1  0  0  0  0
 34 18  1  0  0  0  0
M  END
