1,4
 OpenBabel05122313063D

 24 25  0  0  1  0  0  0  0  0999 V2000
    0.6982    2.0150   -0.5830 S   0  0  0  0  0  1  0  0  0  0  0  0
   -6.0964    1.8745    0.1534 N   0  0  0  0  0  0  0  0  0  0  0  0
   -6.6990    2.6929    0.2208 H   0  0  0  0  0  0  0  0  0  0  0  0
   -1.7425    0.8095    0.0976 N   0  0  0  0  0  2  0  0  0  0  0  0
   -1.8676    2.1656    0.2493 N   0  0  0  0  0  2  0  0  0  0  0  0
   -0.7675    4.1830   -0.0020 N   0  0  0  0  0  0  0  0  0  0  0  0
   -1.5614    4.6334    0.4533 H   0  0  0  0  0  0  0  0  0  0  0  0
    0.1288    4.6649    0.0267 H   0  0  0  0  0  0  0  0  0  0  0  0
   -5.3853   -0.2662   -0.0344 C   0  0  0  0  0  0  0  0  0  0  0  0
   -5.5560   -1.6606   -0.1560 C   0  0  0  0  0  0  0  0  0  0  0  0
   -4.6832   -2.3296   -0.2016 H   0  0  0  0  0  0  0  0  0  0  0  0
   -6.8536   -2.1814   -0.2126 C   0  0  0  0  0  0  0  0  0  0  0  0
   -6.9986   -3.2681   -0.3069 H   0  0  0  0  0  0  0  0  0  0  0  0
   -7.9872   -1.3358   -0.1489 C   0  0  0  0  0  0  0  0  0  0  0  0
   -8.9946   -1.7758   -0.1960 H   0  0  0  0  0  0  0  0  0  0  0  0
   -7.8490    0.0516   -0.0251 C   0  0  0  0  0  0  0  0  0  0  0  0
   -8.7291    0.7102    0.0267 H   0  0  0  0  0  0  0  0  0  0  0  0
   -6.5440    0.5677    0.0313 C   0  0  0  0  0  0  0  0  0  0  0  0
   -4.7232    1.9110    0.1683 C   0  0  0  0  0  0  0  0  0  0  0  0
   -4.1563    2.8400    0.2595 H   0  0  0  0  0  0  0  0  0  0  0  0
   -4.2211    0.6069    0.0529 C   0  0  0  0  0  0  0  0  0  0  0  0
   -2.8700    0.1246    0.0123 C   0  0  0  0  0  3  0  0  0  0  0  0
   -2.7378   -0.9596   -0.1126 H   0  0  0  0  0  0  0  0  0  0  0  0
   -0.7600    2.8172   -0.0430 C   0  0  2  0  0  3  0  0  0  0  0  0
  2 19  1  0  0  0  0
  2  3  1  0  0  0  0
  4  5  1  0  0  0  0
  6  8  1  0  0  0  0
  6  7  1  0  0  0  0
  9 18  1  0  0  0  0
  9 21  1  0  0  0  0
 10  9  2  0  0  0  0
 11 10  1  0  0  0  0
 12 10  1  0  0  0  0
 12 14  2  0  0  0  0
 13 12  1  0  0  0  0
 14 16  1  0  0  0  0
 15 14  1  0  0  0  0
 16 17  1  0  0  0  0
 16 18  2  0  0  0  0
 18  2  1  0  0  0  0
 19 20  1  0  0  0  0
 21 19  2  0  0  0  0
 22 21  1  0  0  0  0
 22  4  1  0  0  0  0
 23 22  1  0  0  0  0
 24  1  1  6  0  0  0
 24  6  1  0  0  0  0
 24  5  1  0  0  0  0
M  END
