1,19
 OpenBabel05122313063D

 34 35  0  0  1  0  0  0  0  0999 V2000
   -0.4054    2.1278   -0.4373 S   0  0  0  0  0  1  0  0  0  0  0  0
   -1.9666    2.0938    0.3297 C   0  0  1  0  0  3  0  0  0  0  0  0
   -2.6573    3.6650    0.6945 S   0  0  0  0  0  0  0  0  0  0  0  0
   -4.3062    3.2286    1.3439 C   0  0  0  0  0  0  0  0  0  0  0  0
   -5.3945    2.9316    0.3303 C   0  0  0  0  0  0  0  0  0  0  0  0
   -6.6936    2.6668    0.8144 C   0  0  0  0  0  0  0  0  0  0  0  0
   -7.7362    2.3522   -0.0686 C   0  0  0  0  0  0  0  0  0  0  0  0
   -7.4946    2.2934   -1.4515 C   0  0  0  0  0  0  0  0  0  0  0  0
   -6.2074    2.5600   -1.9398 C   0  0  0  0  0  0  0  0  0  0  0  0
   -5.1648    2.8802   -1.0554 C   0  0  0  0  0  0  0  0  0  0  0  0
   -4.1557    3.0902   -1.4413 H   0  0  0  0  0  0  0  0  0  0  0  0
   -6.0075    2.5171   -3.0212 H   0  0  0  0  0  0  0  0  0  0  0  0
   -8.3102    2.0379   -2.1443 H   0  0  0  0  0  0  0  0  0  0  0  0
   -8.7428    2.1443    0.3252 H   0  0  0  0  0  0  0  0  0  0  0  0
   -6.8878    2.7014    1.8986 H   0  0  0  0  0  0  0  0  0  0  0  0
   -4.1614    2.3654    2.0260 H   0  0  0  0  0  0  0  0  0  0  0  0
   -4.5812    4.1028    1.9704 H   0  0  0  0  0  0  0  0  0  0  0  0
   -2.6135    0.9819    0.5969 N   0  0  0  0  0  2  0  0  0  0  0  0
   -1.8991   -0.1375    0.2635 N   0  0  0  0  0  2  0  0  0  0  0  0
   -2.5628   -1.2662    0.0814 C   0  0  0  0  0  3  0  0  0  0  0  0
   -3.9858   -1.5578    0.1271 C   0  0  0  0  0  0  0  0  0  0  0  0
   -4.3355   -2.9334    0.0012 C   0  0  0  0  0  0  0  0  0  0  0  0
   -5.6665   -3.3468    0.0120 C   0  0  0  0  0  0  0  0  0  0  0  0
   -6.6683   -2.3730    0.1410 C   0  0  0  0  0  0  0  0  0  0  0  0
   -8.0882   -2.7983    0.1463 N   0  0  0  0  0  0  0  0  0  0  0  0
   -8.9427   -1.9188    0.2623 O   0  0  0  0  0  0  0  0  0  0  0  0
   -8.3187   -4.0028    0.0341 O   0  0  0  0  0  0  0  0  0  0  0  0
   -6.3656   -1.0102    0.2580 C   0  0  0  0  0  0  0  0  0  0  0  0
   -5.0304   -0.6035    0.2548 C   0  0  0  0  0  0  0  0  0  0  0  0
   -4.7782    0.4578    0.3353 H   0  0  0  0  0  0  0  0  0  0  0  0
   -7.1812   -0.2808    0.3420 H   0  0  0  0  0  0  0  0  0  0  0  0
   -5.9551   -4.4021   -0.0794 H   0  0  0  0  0  0  0  0  0  0  0  0
   -3.5358   -3.6828   -0.1020 H   0  0  0  0  0  0  0  0  0  0  0  0
   -1.9145   -2.1254   -0.1508 H   0  0  0  0  0  0  0  0  0  0  0  0
  2  1  1  6  0  0  0
  2 18  1  0  0  0  0
  2  3  1  0  0  0  0
  3  4  1  0  0  0  0
  4 17  1  0  0  0  0
  4 16  1  0  0  0  0
  5  6  1  0  0  0  0
  5  4  1  0  0  0  0
  6 15  1  0  0  0  0
  7 14  1  0  0  0  0
  7  6  2  0  0  0  0
  8  7  1  0  0  0  0
  9  8  2  0  0  0  0
  9 10  1  0  0  0  0
 10  5  2  0  0  0  0
 11 10  1  0  0  0  0
 12  9  1  0  0  0  0
 13  8  1  0  0  0  0
 19 18  1  0  0  0  0
 20 21  1  0  0  0  0
 20 19  1  0  0  0  0
 21 29  1  0  0  0  0
 22 23  1  0  0  0  0
 22 21  2  0  0  0  0
 23 24  2  0  0  0  0
 24 25  1  0  0  0  0
 24 28  1  0  0  0  0
 25 26  2  0  0  0  0
 27 25  2  0  0  0  0
 28 31  1  0  0  0  0
 29 28  2  0  0  0  0
 29 30  1  0  0  0  0
 32 23  1  0  0  0  0
 33 22  1  0  0  0  0
 34 20  1  0  0  0  0
M  END
