1,4
 OpenBabel05122313063D

 18 18  0  0  0  0  0  0  0  0999 V2000
   -1.8170   -1.2141   -0.0002 S   0  0  0  0  0  1  0  0  0  0  0  0
   -4.9506    2.2352   -0.0001 O   0  0  0  0  0  0  0  0  0  0  0  0
   -3.9319    2.2234   -0.0002 H   0  0  0  0  0  0  0  0  0  0  0  0
   -1.1324    1.5409   -0.0003 N   0  0  0  0  0  0  0  0  0  0  0  0
   -0.8965    2.1294   -0.8192 H   0  0  0  0  0  0  0  0  0  0  0  0
   -0.8963    2.1304    0.8179 H   0  0  0  0  0  0  0  0  0  0  0  0
   -2.5605    1.3768    0.0000 N   0  0  0  0  0  0  0  0  0  0  0  0
   -5.3356    0.9563   -0.0000 C   0  0  0  0  0  0  0  0  0  0  0  0
   -4.4042   -0.1382   -0.0000 C   0  0  0  0  0  0  0  0  0  0  0  0
   -4.9090   -1.4616   -0.0001 C   0  0  0  0  0  0  0  0  0  0  0  0
   -4.1859   -2.2913   -0.0001 H   0  0  0  0  0  0  0  0  0  0  0  0
   -6.2779   -1.7217   -0.0001 C   0  0  0  0  0  0  0  0  0  0  0  0
   -6.6442   -2.7582   -0.0002 H   0  0  0  0  0  0  0  0  0  0  0  0
   -7.1849   -0.6409   -0.0001 C   0  0  0  0  0  0  0  0  0  0  0  0
   -8.2690   -0.8330   -0.0001 H   0  0  0  0  0  0  0  0  0  0  0  0
   -6.7230    0.6743   -0.0000 C   0  0  0  0  0  0  0  0  0  0  0  0
   -7.4140    1.5295   -0.0000 H   0  0  0  0  0  0  0  0  0  0  0  0
   -2.9576    0.1212   -0.0000 C   0  0  0  0  0  0  0  0  0  0  0  0
  1 18  1  0  0  0  0
  2  8  1  0  0  0  0
  3  2  1  0  0  0  0
  4  7  1  0  0  0  0
  4  6  1  0  0  0  0
  5  4  1  0  0  0  0
  9  8  2  0  0  0  0
  9 18  1  0  0  0  0
 10  9  1  0  0  0  0
 11 10  1  0  0  0  0
 12 10  2  0  0  0  0
 12 14  1  0  0  0  0
 13 12  1  0  0  0  0
 14 16  2  0  0  0  0
 15 14  1  0  0  0  0
 16 17  1  0  0  0  0
 16  8  1  0  0  0  0
 18  7  2  0  0  0  0
M  END
