1,2
 OpenBabel05122313063D

 29 30  0  0  1  0  0  0  0  0999 V2000
    0.8460   -1.0006   -1.3134 S   0  0  0  0  0  0  0  0  0  0  0  0
   -0.0037    1.5694   -0.0058 N   0  0  0  0  0  2  0  0  0  0  0  0
    1.0458    1.6782   -0.8759 N   0  0  0  0  0  0  0  0  0  0  0  0
   -0.8203    2.7697    2.0107 C   0  0  0  0  0  0  0  0  0  0  0  0
   -1.8573    2.8906    1.6407 H   0  0  0  0  0  0  0  0  0  0  0  0
   -0.5468    3.6613    2.6044 H   0  0  0  0  0  0  0  0  0  0  0  0
   -0.8261    1.8849    2.6796 H   0  0  0  0  0  0  0  0  0  0  0  0
    0.1376    2.5787    0.8831 C   0  0  1  0  0  3  0  0  0  0  0  0
    1.3014    3.3253    0.5709 C   0  0  0  0  0  0  0  0  0  0  0  0
    1.6848    4.2004    1.1053 H   0  0  0  0  0  0  0  0  0  0  0  0
    1.8727    2.7246   -0.5510 C   0  0  0  0  0  0  0  0  0  0  0  0
    3.1079    3.0554   -1.3193 C   0  0  0  0  0  0  0  0  0  0  0  0
    3.8396    2.2198   -1.3001 H   0  0  0  0  0  0  0  0  0  0  0  0
    3.5982    3.9388   -0.8714 H   0  0  0  0  0  0  0  0  0  0  0  0
    2.8923    3.2915   -2.3822 H   0  0  0  0  0  0  0  0  0  0  0  0
    1.1845    0.7157   -1.9356 C   0  0  0  0  0  0  0  0  0  0  0  0
    2.2042    0.7753   -2.3571 H   0  0  0  0  0  0  0  0  0  0  0  0
    0.4271    0.8696   -2.7320 H   0  0  0  0  0  0  0  0  0  0  0  0
    2.3279   -1.2222   -0.3004 C   0  0  0  0  0  0  0  0  0  0  0  0
    2.5118   -0.5293    0.9095 C   0  0  0  0  0  0  0  0  0  0  0  0
    1.7274    0.1436    1.2828 H   0  0  0  0  0  0  0  0  0  0  0  0
    3.6935   -0.7250    1.6392 C   0  0  0  0  0  0  0  0  0  0  0  0
    3.8404   -0.1834    2.5857 H   0  0  0  0  0  0  0  0  0  0  0  0
    4.6736   -1.6184    1.1764 C   0  0  0  0  0  0  0  0  0  0  0  0
    5.5928   -1.7765    1.7602 H   0  0  0  0  0  0  0  0  0  0  0  0
    4.4767   -2.3177   -0.0248 C   0  0  0  0  0  0  0  0  0  0  0  0
    5.2381   -3.0259   -0.3849 H   0  0  0  0  0  0  0  0  0  0  0  0
    3.3049   -2.1182   -0.7709 C   0  0  0  0  0  0  0  0  0  0  0  0
    3.1404   -2.6568   -1.7163 H   0  0  0  0  0  0  0  0  0  0  0  0
  1 19  1  0  0  0  0
  2  8  1  0  0  0  0
  3 11  1  0  0  0  0
  3  2  1  0  0  0  0
  4  6  1  0  0  0  0
  4  7  1  0  0  0  0
  5  4  1  0  0  0  0
  8  4  1  1  0  0  0
  9  8  1  0  0  0  0
  9 10  1  0  0  0  0
 11  9  2  0  0  0  0
 12 13  1  0  0  0  0
 12 14  1  0  0  0  0
 12 11  1  0  0  0  0
 15 12  1  0  0  0  0
 16  1  1  0  0  0  0
 16  3  1  0  0  0  0
 17 16  1  0  0  0  0
 18 16  1  0  0  0  0
 19 20  1  0  0  0  0
 20 21  1  0  0  0  0
 20 22  2  0  0  0  0
 22 23  1  0  0  0  0
 24 22  1  0  0  0  0
 24 25  1  0  0  0  0
 26 24  2  0  0  0  0
 27 26  1  0  0  0  0
 28 19  2  0  0  0  0
 28 26  1  0  0  0  0
 29 28  1  0  0  0  0
M  END
