1,3
 OpenBabel05122313063D

 35 36  0  0  1  0  0  0  0  0999 V2000
   -1.5844   -1.6859   -0.1933 S   0  0  0  0  0  1  0  0  0  0  0  0
   -4.1401   -2.9813    0.1061 O   0  0  0  0  0  0  0  0  0  0  0  0
   -1.1875    1.0359   -0.8369 N   0  0  0  0  0  2  0  0  0  0  0  0
   -2.5271    0.7811   -0.8279 N   0  0  0  0  0  2  0  0  0  0  0  0
   -4.1522   -0.7774   -0.5404 N   0  0  0  0  0  0  0  0  0  0  0  0
    1.4278    1.2698   -2.0646 C   0  0  0  0  0  0  0  0  0  0  0  0
    0.9734    0.2702   -2.1468 H   0  0  0  0  0  0  0  0  0  0  0  0
    2.7897    1.4483   -2.3365 C   0  0  0  0  0  0  0  0  0  0  0  0
    3.4055    0.5756   -2.6022 H   0  0  0  0  0  0  0  0  0  0  0  0
    3.3613    2.7281   -2.2757 C   0  0  0  0  0  0  0  0  0  0  0  0
    4.4313    2.8686   -2.4921 H   0  0  0  0  0  0  0  0  0  0  0  0
    2.5567    3.8355   -1.9513 C   0  0  0  0  0  0  0  0  0  0  0  0
    2.9979    4.8428   -1.9052 H   0  0  0  0  0  0  0  0  0  0  0  0
    1.1930    3.6632   -1.6840 C   0  0  0  0  0  0  0  0  0  0  0  0
    0.5760    4.5336   -1.4142 H   0  0  0  0  0  0  0  0  0  0  0  0
    0.6098    2.3734   -1.7133 C   0  0  0  0  0  0  0  0  0  0  0  0
   -0.8153    2.1623   -1.4293 C   0  0  1  0  0  3  0  0  0  0  0  0
   -1.8536    3.1501   -1.8717 C   0  0  0  0  0  0  0  0  0  0  0  0
   -1.3941    4.0480   -2.3208 H   0  0  0  0  0  0  0  0  0  0  0  0
   -2.4975    3.4359   -1.0148 H   0  0  0  0  0  0  0  0  0  0  0  0
   -2.5280    2.6820   -2.6178 H   0  0  0  0  0  0  0  0  0  0  0  0
   -2.7951   -0.4790   -0.5335 C   0  0  1  0  0  3  0  0  0  0  0  0
   -4.7677   -1.9836   -0.2324 C   0  0  0  0  0  0  0  0  0  0  0  0
   -6.2704   -1.9715   -0.3255 C   0  0  0  0  0  0  0  0  0  0  0  0
   -7.0187   -0.9813   -0.9962 C   0  0  0  0  0  0  0  0  0  0  0  0
   -6.5206   -0.1513   -1.5220 H   0  0  0  0  0  0  0  0  0  0  0  0
   -8.4181   -1.0587   -1.0408 C   0  0  0  0  0  0  0  0  0  0  0  0
   -8.9912   -0.2852   -1.5738 H   0  0  0  0  0  0  0  0  0  0  0  0
   -9.0840   -2.1253   -0.4164 C   0  0  0  0  0  0  0  0  0  0  0  0
  -10.1826   -2.1834   -0.4507 H   0  0  0  0  0  0  0  0  0  0  0  0
   -8.3449   -3.1216    0.2433 C   0  0  0  0  0  0  0  0  0  0  0  0
   -8.8634   -3.9627    0.7278 H   0  0  0  0  0  0  0  0  0  0  0  0
   -6.9477   -3.0485    0.2823 C   0  0  0  0  0  0  0  0  0  0  0  0
   -6.3412   -3.8194    0.7799 H   0  0  0  0  0  0  0  0  0  0  0  0
   -4.7321    0.0404   -0.7440 H   0  0  0  0  0  0  0  0  0  0  0  0
  3  4  1  0  0  0  0
  4 22  1  0  0  0  0
  5 22  1  0  0  0  0
  5 23  1  0  0  0  0
  6 16  1  0  0  0  0
  7  6  1  0  0  0  0
  8 10  1  0  0  0  0
  8  6  2  0  0  0  0
  9  8  1  0  0  0  0
 10 12  2  0  0  0  0
 11 10  1  0  0  0  0
 12 13  1  0  0  0  0
 12 14  1  0  0  0  0
 14 15  1  0  0  0  0
 16 14  2  0  0  0  0
 16 17  1  0  0  0  0
 17  3  1  6  0  0  0
 18 17  1  0  0  0  0
 18 20  1  0  0  0  0
 19 18  1  0  0  0  0
 21 18  1  0  0  0  0
 22  1  1  6  0  0  0
 23  2  2  0  0  0  0
 24 23  1  0  0  0  0
 24 33  1  0  0  0  0
 25 24  2  0  0  0  0
 26 25  1  0  0  0  0
 27 25  1  0  0  0  0
 27 29  2  0  0  0  0
 28 27  1  0  0  0  0
 29 31  1  0  0  0  0
 30 29  1  0  0  0  0
 31 33  2  0  0  0  0
 31 32  1  0  0  0  0
 33 34  1  0  0  0  0
 35  5  1  0  0  0  0
M  END
