1,3
 OpenBabel05122313063D

 40 40  0  0  0  0  0  0  0  0999 V2000
   -1.5036    1.6163   -2.6556 S   0  0  0  0  0  1  0  0  0  0  0  0
   -4.2396    1.9072   -1.6585 S   0  0  0  0  0  0  0  0  0  0  0  0
   -1.5565   -0.7915   -0.8501 N   0  0  0  0  0  2  0  0  0  0  0  0
   -2.7269   -0.1075   -0.8429 N   0  0  0  0  0  0  0  0  0  0  0  0
   -2.3655   -2.6381    0.6654 C   0  0  0  0  0  0  0  0  0  0  0  0
   -1.9012   -3.8489    1.2462 C   0  0  0  0  0  0  0  0  0  0  0  0
   -2.7234   -4.6167    2.0704 C   0  0  0  0  0  0  0  0  0  0  0  0
   -4.0479   -4.2144    2.3553 C   0  0  0  0  0  0  0  0  0  0  0  0
   -4.5080   -3.0109    1.7816 C   0  0  0  0  0  0  0  0  0  0  0  0
   -3.6945   -2.2322    0.9526 C   0  0  0  0  0  0  0  0  0  0  0  0
   -4.9356   -5.0583    3.2314 C   0  0  0  0  0  0  0  0  0  0  0  0
   -1.4280   -1.9109   -0.1752 C   0  0  0  0  0  3  0  0  0  0  0  0
   -2.7556    0.9661   -1.6186 C   0  0  0  0  0  0  0  0  0  0  0  0
   -5.3254    0.9710   -0.5168 C   0  0  0  0  0  0  0  0  0  0  0  0
   -6.6920    1.6460   -0.4180 C   0  0  0  0  0  0  0  0  0  0  0  0
   -7.6354    0.8917    0.5254 C   0  0  0  0  0  0  0  0  0  0  0  0
   -9.0184    1.5348    0.6543 C   0  0  0  0  0  0  0  0  0  0  0  0
   -9.9636    0.7826    1.5960 C   0  0  0  0  0  0  0  0  0  0  0  0
  -11.3429    1.4306    1.7204 C   0  0  0  0  0  0  0  0  0  0  0  0
   -0.8718   -4.1814    1.0381 H   0  0  0  0  0  0  0  0  0  0  0  0
   -2.3357   -5.5507    2.5072 H   0  0  0  0  0  0  0  0  0  0  0  0
   -5.5361   -2.6749    1.9921 H   0  0  0  0  0  0  0  0  0  0  0  0
   -4.0593   -1.2987    0.5105 H   0  0  0  0  0  0  0  0  0  0  0  0
   -4.4233   -5.3418    4.1737 H   0  0  0  0  0  0  0  0  0  0  0  0
   -5.2121   -6.0062    2.7219 H   0  0  0  0  0  0  0  0  0  0  0  0
   -5.8740   -4.5326    3.4930 H   0  0  0  0  0  0  0  0  0  0  0  0
   -0.4275   -2.3657   -0.2928 H   0  0  0  0  0  0  0  0  0  0  0  0
   -5.4105   -0.0660   -0.9005 H   0  0  0  0  0  0  0  0  0  0  0  0
   -4.8238    0.9197    0.4708 H   0  0  0  0  0  0  0  0  0  0  0  0
   -6.5689    2.6932   -0.0642 H   0  0  0  0  0  0  0  0  0  0  0  0
   -7.1508    1.7140   -1.4287 H   0  0  0  0  0  0  0  0  0  0  0  0
   -7.1663    0.8189    1.5327 H   0  0  0  0  0  0  0  0  0  0  0  0
   -7.7474   -0.1577    0.1701 H   0  0  0  0  0  0  0  0  0  0  0  0
   -8.9045    2.5846    1.0079 H   0  0  0  0  0  0  0  0  0  0  0  0
   -9.4851    1.6090   -0.3541 H   0  0  0  0  0  0  0  0  0  0  0  0
   -9.4920    0.7083    2.6015 H   0  0  0  0  0  0  0  0  0  0  0  0
  -10.0727   -0.2663    1.2400 H   0  0  0  0  0  0  0  0  0  0  0  0
  -12.0034    0.8643    2.4074 H   0  0  0  0  0  0  0  0  0  0  0  0
  -11.8527    1.4853    0.7358 H   0  0  0  0  0  0  0  0  0  0  0  0
  -11.2673    2.4680    2.1086 H   0  0  0  0  0  0  0  0  0  0  0  0
  1 13  1  0  0  0  0
  2 13  1  0  0  0  0
  2 14  1  0  0  0  0
  3  4  1  0  0  0  0
  3 12  1  0  0  0  0
  5 10  2  0  0  0  0
  5  6  1  0  0  0  0
  6  7  2  0  0  0  0
  7  8  1  0  0  0  0
  7 21  1  0  0  0  0
  8 11  1  0  0  0  0
  9 22  1  0  0  0  0
  9  8  2  0  0  0  0
 10  9  1  0  0  0  0
 11 26  1  0  0  0  0
 11 24  1  0  0  0  0
 12  5  1  0  0  0  0
 13  4  2  0  0  0  0
 14 15  1  0  0  0  0
 14 29  1  0  0  0  0
 15 30  1  0  0  0  0
 15 16  1  0  0  0  0
 16 17  1  0  0  0  0
 16 32  1  0  0  0  0
 17 34  1  0  0  0  0
 17 18  1  0  0  0  0
 18 19  1  0  0  0  0
 18 36  1  0  0  0  0
 19 40  1  0  0  0  0
 19 38  1  0  0  0  0
 20  6  1  0  0  0  0
 23 10  1  0  0  0  0
 25 11  1  0  0  0  0
 27 12  1  0  0  0  0
 28 14  1  0  0  0  0
 31 15  1  0  0  0  0
 33 16  1  0  0  0  0
 35 17  1  0  0  0  0
 37 18  1  0  0  0  0
 39 19  1  0  0  0  0
M  END
