1,3
 OpenBabel05122313063D

 24 25  0  0  1  0  0  0  0  0999 V2000
    1.5381    2.1832   -1.4221 S   0  0  0  0  0  1  0  0  0  0  0  0
    6.4967   -1.4181    0.5441 S   0  0  0  0  0  0  0  0  0  0  0  0
    1.4986   -0.0223    0.7384 N   0  0  0  0  0  2  0  0  0  0  0  0
    1.2976   -0.9368    1.6981 C   0  0  0  0  0  0  0  0  0  0  0  0
    2.3776   -1.7331    2.1632 C   0  0  0  0  0  0  0  0  0  0  0  0
    3.6368   -1.5682    1.6124 C   0  0  0  0  0  0  0  0  0  0  0  0
    3.8642   -0.6100    0.5879 C   0  0  0  0  0  0  0  0  0  0  0  0
    5.1502   -0.4048   -0.0195 C   0  0  2  0  0  3  0  0  0  0  0  0
    5.2604    0.5700   -1.0134 C   0  0  0  0  0  0  0  0  0  0  0  0
    4.1486    1.3376   -1.4176 C   0  0  0  0  0  0  0  0  0  0  0  0
    2.8697    1.1806   -0.8635 C   0  0  0  0  0  0  0  0  0  0  0  0
    2.7296    0.1764    0.1663 C   0  0  0  0  0  0  0  0  0  0  0  0
   -0.0912   -1.1013    2.2418 C   0  0  0  0  0  0  0  0  0  0  0  0
    7.8949   -0.8041   -0.4288 C   0  0  0  0  0  0  0  0  0  0  0  0
    2.1998   -2.4725    2.9568 H   0  0  0  0  0  0  0  0  0  0  0  0
    4.4774   -2.1826    1.9706 H   0  0  0  0  0  0  0  0  0  0  0  0
    6.2237    0.7609   -1.5048 H   0  0  0  0  0  0  0  0  0  0  0  0
    4.2830    2.0965   -2.2028 H   0  0  0  0  0  0  0  0  0  0  0  0
   -0.0898   -1.6818    3.1828 H   0  0  0  0  0  0  0  0  0  0  0  0
   -0.5642   -0.1095    2.4123 H   0  0  0  0  0  0  0  0  0  0  0  0
   -0.7346   -1.6350    1.5104 H   0  0  0  0  0  0  0  0  0  0  0  0
    7.7421   -0.9633   -1.5148 H   0  0  0  0  0  0  0  0  0  0  0  0
    8.0957    0.2668   -0.2264 H   0  0  0  0  0  0  0  0  0  0  0  0
    8.7662   -1.4010   -0.0990 H   0  0  0  0  0  0  0  0  0  0  0  0
  1 11  1  0  0  0  0
  3  4  1  0  0  0  0
  4  5  2  0  0  0  0
  4 13  1  0  0  0  0
  5 15  1  0  0  0  0
  6 16  1  0  0  0  0
  6  5  1  0  0  0  0
  7  6  2  0  0  0  0
  8  2  1  6  0  0  0
  8  7  1  0  0  0  0
  9  8  1  0  0  0  0
 10  9  2  0  0  0  0
 10 11  1  0  0  0  0
 11 12  2  0  0  0  0
 12  7  1  0  0  0  0
 12  3  1  0  0  0  0
 13 20  1  0  0  0  0
 13 19  1  0  0  0  0
 14 23  1  0  0  0  0
 14 24  1  0  0  0  0
 14  2  1  0  0  0  0
 17  9  1  0  0  0  0
 18 10  1  0  0  0  0
 21 13  1  0  0  0  0
 22 14  1  0  0  0  0
M  END
