1,2
 OpenBabel05122313063D

 37 38  0  0  1  0  0  0  0  0999 V2000
    1.7119    2.7308   -0.8555 S   0  0  0  0  0  1  0  0  0  0  0  0
    1.2446   -0.1008   -1.0566 N   0  0  0  0  0  2  0  0  0  0  0  0
    2.5840    0.1399   -1.0842 N   0  0  0  0  0  2  0  0  0  0  0  0
    4.2084    1.8066   -0.8836 N   0  0  0  0  0  0  0  0  0  0  0  0
    4.3239    2.8118   -0.7416 H   0  0  0  0  0  0  0  0  0  0  0  0
   -4.7774   -1.8848   -1.9273 O   0  0  0  0  0  0  0  0  0  0  0  0
   -0.6106   -1.4791   -1.7199 C   0  0  0  0  0  0  0  0  0  0  0  0
   -1.4591   -0.4313   -2.1688 C   0  0  0  0  0  0  0  0  0  0  0  0
   -1.0143    0.5305   -2.4639 H   0  0  0  0  0  0  0  0  0  0  0  0
   -2.8369   -0.6053   -2.2502 C   0  0  0  0  0  0  0  0  0  0  0  0
   -3.4970    0.2088   -2.5811 H   0  0  0  0  0  0  0  0  0  0  0  0
   -3.4225   -1.8336   -1.8749 C   0  0  0  0  0  0  0  0  0  0  0  0
   -2.5921   -2.9065   -1.4817 C   0  0  0  0  0  0  0  0  0  0  0  0
   -3.0191   -3.8810   -1.2098 H   0  0  0  0  0  0  0  0  0  0  0  0
   -1.2024   -2.7252   -1.4248 C   0  0  0  0  0  0  0  0  0  0  0  0
   -0.5708   -3.5629   -1.0916 H   0  0  0  0  0  0  0  0  0  0  0  0
    0.8326   -1.2508   -1.5573 C   0  0  1  0  0  3  0  0  0  0  0  0
    2.8917    1.4117   -0.9459 C   0  0  1  0  0  3  0  0  0  0  0  0
    5.3864    1.0508   -0.8259 C   0  0  0  0  0  0  0  0  0  0  0  0
    6.5844    1.7386   -0.5108 C   0  0  0  0  0  0  0  0  0  0  0  0
    6.5544    2.8269   -0.3394 H   0  0  0  0  0  0  0  0  0  0  0  0
    7.7963    1.0479   -0.4086 C   0  0  0  0  0  0  0  0  0  0  0  0
    8.7134    1.6034   -0.1602 H   0  0  0  0  0  0  0  0  0  0  0  0
    7.8443   -0.3410   -0.6187 C   0  0  0  0  0  0  0  0  0  0  0  0
    8.7973   -0.8841   -0.5367 H   0  0  0  0  0  0  0  0  0  0  0  0
    6.6594   -1.0216   -0.9386 C   0  0  0  0  0  0  0  0  0  0  0  0
    6.6781   -2.1097   -1.1040 H   0  0  0  0  0  0  0  0  0  0  0  0
    5.4359   -0.3460   -1.0464 C   0  0  0  0  0  0  0  0  0  0  0  0
    4.5050   -0.8740   -1.2797 H   0  0  0  0  0  0  0  0  0  0  0  0
    1.8388   -2.2805   -1.9836 C   0  0  0  0  0  0  0  0  0  0  0  0
    2.4618   -1.8833   -2.8119 H   0  0  0  0  0  0  0  0  0  0  0  0
    1.3443   -3.2062   -2.3274 H   0  0  0  0  0  0  0  0  0  0  0  0
    2.5338   -2.5076   -1.1496 H   0  0  0  0  0  0  0  0  0  0  0  0
   -5.4322   -3.0529   -1.4730 C   0  0  0  0  0  0  0  0  0  0  0  0
   -5.1895   -3.9383   -2.1028 H   0  0  0  0  0  0  0  0  0  0  0  0
   -6.5164   -2.8471   -1.5374 H   0  0  0  0  0  0  0  0  0  0  0  0
   -5.1732   -3.2839   -0.4153 H   0  0  0  0  0  0  0  0  0  0  0  0
  3  2  1  0  0  0  0
  3 18  1  0  0  0  0
  4 19  1  0  0  0  0
  4  5  1  0  0  0  0
  6 12  1  0  0  0  0
  6 34  1  0  0  0  0
  7 17  1  0  0  0  0
  7 15  1  0  0  0  0
  8  7  2  0  0  0  0
  9  8  1  0  0  0  0
 10  8  1  0  0  0  0
 10 12  2  0  0  0  0
 11 10  1  0  0  0  0
 12 13  1  0  0  0  0
 13 15  2  0  0  0  0
 13 14  1  0  0  0  0
 15 16  1  0  0  0  0
 17  2  1  6  0  0  0
 18  4  1  0  0  0  0
 18  1  1  6  0  0  0
 19 20  1  0  0  0  0
 20 22  2  0  0  0  0
 20 21  1  0  0  0  0
 22 23  1  0  0  0  0
 24 25  1  0  0  0  0
 24 22  1  0  0  0  0
 26 24  2  0  0  0  0
 27 26  1  0  0  0  0
 28 26  1  0  0  0  0
 28 19  2  0  0  0  0
 29 28  1  0  0  0  0
 30 17  1  0  0  0  0
 30 33  1  0  0  0  0
 31 30  1  0  0  0  0
 32 30  1  0  0  0  0
 34 37  1  0  0  0  0
 35 34  1  0  0  0  0
 36 34  1  0  0  0  0
M  END
