1,3
 OpenBabel05122313063D

 26 26  0  0  1  0  0  0  0  0999 V2000
   -1.9848   -2.9121    0.0929 S   0  0  0  0  0  1  0  0  0  0  0  0
    0.9881    3.0397    1.1859 O   0  5  0  0  0  0  0  0  0  0  0  0
   -1.0531   -0.2772    1.1644 N   0  0  0  0  0  2  0  0  0  0  0  0
   -2.3880   -0.4077    1.2330 N   0  0  0  0  0  2  0  0  0  0  0  0
   -4.2310   -1.6669    0.7734 N   0  0  0  0  0  0  0  0  0  0  0  0
    1.6199    1.9966    1.5665 N   0  3  0  0  0  0  0  0  0  0  0  0
   -0.5189    0.7893    1.7289 C   0  0  1  0  0  3  0  0  0  0  0  0
   -1.3633    1.8398    2.3839 C   0  0  0  0  0  0  0  0  0  0  0  0
   -2.8725   -1.5594    0.7339 C   0  0  2  0  0  3  0  0  0  0  0  0
   -5.0955   -0.6733    1.3737 C   0  0  0  0  0  0  0  0  0  0  0  0
    0.9466    0.7959    1.8088 C   0  0  0  0  0  0  0  0  0  0  0  0
    1.6862   -0.3542    2.1338 C   0  0  0  0  0  0  0  0  0  0  0  0
    3.0799   -0.3246    2.2364 C   0  0  0  0  0  0  0  0  0  0  0  0
    3.7306    0.9009    2.0259 C   0  0  0  0  0  0  0  0  0  0  0  0
    2.9918    2.0323    1.7004 C   0  0  0  0  0  0  0  0  0  0  0  0
   -4.6137   -2.5512    0.4411 H   0  0  0  0  0  0  0  0  0  0  0  0
   -2.0769    2.2603    1.6454 H   0  0  0  0  0  0  0  0  0  0  0  0
   -0.7500    2.6590    2.7941 H   0  0  0  0  0  0  0  0  0  0  0  0
   -1.9822    1.3683    3.1763 H   0  0  0  0  0  0  0  0  0  0  0  0
   -6.1455   -1.0106    1.2857 H   0  0  0  0  0  0  0  0  0  0  0  0
   -4.9869    0.3104    0.8697 H   0  0  0  0  0  0  0  0  0  0  0  0
   -4.8533   -0.5112    2.4461 H   0  0  0  0  0  0  0  0  0  0  0  0
    1.1242   -1.2811    2.3092 H   0  0  0  0  0  0  0  0  0  0  0  0
    3.6403   -1.2382    2.4749 H   0  0  0  0  0  0  0  0  0  0  0  0
    4.8233    0.9941    2.1063 H   0  0  0  0  0  0  0  0  0  0  0  0
    3.4167    3.0238    1.4992 H   0  0  0  0  0  0  0  0  0  0  0  0
  2  6  1  0  0  0  0
  3  4  1  0  0  0  0
  5 10  1  0  0  0  0
  6 15  2  0  0  0  0
  6 11  1  0  0  0  0
  7  3  1  1  0  0  0
  7 11  1  0  0  0  0
  7  8  1  0  0  0  0
  8 18  1  0  0  0  0
  8 19  1  0  0  0  0
  9  1  1  1  0  0  0
  9  5  1  0  0  0  0
  9  4  1  0  0  0  0
 10 22  1  0  0  0  0
 11 12  2  0  0  0  0
 12 13  1  0  0  0  0
 12 23  1  0  0  0  0
 13 24  1  0  0  0  0
 14 25  1  0  0  0  0
 14 13  2  0  0  0  0
 15 14  1  0  0  0  0
 16  5  1  0  0  0  0
 17  8  1  0  0  0  0
 20 10  1  0  0  0  0
 21 10  1  0  0  0  0
 26 15  1  0  0  0  0
M  CHG  2   2  -1   6   1
M  END
