1,3
 OpenBabel05122313063D

 26 26  0  0  0  0  0  0  0  0999 V2000
   -0.2766   -2.3055   -0.2011 S   0  0  0  0  0  1  0  0  0  0  0  0
   -2.7272   -1.1921    0.2655 N   0  0  0  0  0  0  0  0  0  0  0  0
   -2.0614   -0.0274    0.0974 N   0  0  0  0  0  2  0  0  0  0  0  0
   -2.5982   -3.4919    0.3486 N   0  0  0  0  0  0  0  0  0  0  0  0
   -2.0181   -4.3145    0.1851 H   0  0  0  0  0  0  0  0  0  0  0  0
   -1.9890   -2.2878    0.1675 C   0  0  0  0  0  0  0  0  0  0  0  0
   -2.7628    1.0878   -0.0044 C   0  0  0  0  0  3  0  0  0  0  0  0
   -2.1496    1.9896   -0.1423 H   0  0  0  0  0  0  0  0  0  0  0  0
   -4.2015    1.3117    0.0183 C   0  0  0  0  0  0  0  0  0  0  0  0
   -4.6161    2.6645   -0.1278 C   0  0  0  0  0  0  0  0  0  0  0  0
   -3.8489    3.4467   -0.2413 H   0  0  0  0  0  0  0  0  0  0  0  0
   -5.9692    3.0127   -0.1291 C   0  0  0  0  0  0  0  0  0  0  0  0
   -6.2630    4.0671   -0.2444 H   0  0  0  0  0  0  0  0  0  0  0  0
   -6.9510    2.0173    0.0164 C   0  0  0  0  0  0  0  0  0  0  0  0
   -8.0179    2.2876    0.0148 H   0  0  0  0  0  0  0  0  0  0  0  0
   -6.5602    0.6762    0.1640 C   0  0  0  0  0  0  0  0  0  0  0  0
   -7.3247   -0.1077    0.2792 H   0  0  0  0  0  0  0  0  0  0  0  0
   -5.2067    0.3187    0.1668 C   0  0  0  0  0  0  0  0  0  0  0  0
   -4.8901   -0.7231    0.2828 H   0  0  0  0  0  0  0  0  0  0  0  0
   -4.0373   -3.6569    0.4903 C   0  0  0  0  0  0  0  0  0  0  0  0
   -4.3961   -2.8661    1.1806 H   0  0  0  0  0  0  0  0  0  0  0  0
   -4.2111   -4.6299    0.9944 H   0  0  0  0  0  0  0  0  0  0  0  0
   -4.8024   -3.5884   -0.8339 C   0  0  0  0  0  0  0  0  0  0  0  0
   -4.4752   -4.3866   -1.5305 H   0  0  0  0  0  0  0  0  0  0  0  0
   -4.6369   -2.6096   -1.3257 H   0  0  0  0  0  0  0  0  0  0  0  0
   -5.8911   -3.7086   -0.6608 H   0  0  0  0  0  0  0  0  0  0  0  0
  1  6  1  0  0  0  0
  3  2  1  0  0  0  0
  4 20  1  0  0  0  0
  5  4  1  0  0  0  0
  6  2  2  0  0  0  0
  6  4  1  0  0  0  0
  7  9  1  0  0  0  0
  7  3  1  0  0  0  0
  8  7  1  0  0  0  0
  9 18  1  0  0  0  0
 10  9  2  0  0  0  0
 11 10  1  0  0  0  0
 12 10  1  0  0  0  0
 12 14  2  0  0  0  0
 13 12  1  0  0  0  0
 14 16  1  0  0  0  0
 15 14  1  0  0  0  0
 16 18  2  0  0  0  0
 16 17  1  0  0  0  0
 18 19  1  0  0  0  0
 20 22  1  0  0  0  0
 20 21  1  0  0  0  0
 23 26  1  0  0  0  0
 23 20  1  0  0  0  0
 24 23  1  0  0  0  0
 25 23  1  0  0  0  0
M  END
