1,4
 OpenBabel05122313063D

 22 22  0  0  0  0  0  0  0  0999 V2000
    1.2839   -1.6655   -0.6683 S   0  0  0  0  0  1  0  0  0  0  0  0
   -2.3480   -3.2749   -0.9659 O   0  0  0  0  0  0  0  0  0  0  0  0
   -6.7955    0.6554    0.6536 O   0  0  0  0  0  0  0  0  0  0  0  0
   -1.5539   -1.2373   -0.1739 N   0  0  0  0  0  2  0  0  0  0  0  0
    0.0256   -2.9717   -0.9159 C   0  0  0  0  0  0  0  0  0  0  0  0
   -1.4120   -2.5177   -0.6955 C   0  0  0  0  0  0  0  0  0  0  0  0
   -2.9006   -0.7910   -0.0040 C   0  0  0  0  0  0  0  0  0  0  0  0
   -3.8205   -0.7716   -1.0677 C   0  0  0  0  0  0  0  0  0  0  0  0
   -5.1292   -0.2972   -0.8891 C   0  0  0  0  0  0  0  0  0  0  0  0
   -5.5398    0.1688    0.3749 C   0  0  0  0  0  0  0  0  0  0  0  0
   -4.6269    0.1520    1.4477 C   0  0  0  0  0  0  0  0  0  0  0  0
   -3.3272   -0.3224    1.2573 C   0  0  0  0  0  0  0  0  0  0  0  0
   -7.7253    0.7090   -0.4001 C   0  0  0  0  0  0  0  0  0  0  0  0
    0.0950   -3.3789   -1.9454 H   0  0  0  0  0  0  0  0  0  0  0  0
    0.2188   -3.8200   -0.2250 H   0  0  0  0  0  0  0  0  0  0  0  0
   -3.5031   -1.1350   -2.0540 H   0  0  0  0  0  0  0  0  0  0  0  0
   -5.8161   -0.2911   -1.7468 H   0  0  0  0  0  0  0  0  0  0  0  0
   -4.9610    0.5262    2.4267 H   0  0  0  0  0  0  0  0  0  0  0  0
   -2.6056   -0.3211    2.0875 H   0  0  0  0  0  0  0  0  0  0  0  0
   -7.9465   -0.2995   -0.8228 H   0  0  0  0  0  0  0  0  0  0  0  0
   -7.3812    1.3627   -1.2359 H   0  0  0  0  0  0  0  0  0  0  0  0
   -8.6597    1.1308    0.0191 H   0  0  0  0  0  0  0  0  0  0  0  0
  2  6  2  0  0  0  0
  4  7  1  0  0  0  0
  5  6  1  0  0  0  0
  5  1  1  0  0  0  0
  5 15  1  0  0  0  0
  6  4  1  0  0  0  0
  7 12  1  0  0  0  0
  8  9  1  0  0  0  0
  8  7  2  0  0  0  0
  9 10  2  0  0  0  0
 10  3  1  0  0  0  0
 10 11  1  0  0  0  0
 11 18  1  0  0  0  0
 12 11  2  0  0  0  0
 12 19  1  0  0  0  0
 13 22  1  0  0  0  0
 13  3  1  0  0  0  0
 14  5  1  0  0  0  0
 16  8  1  0  0  0  0
 17  9  1  0  0  0  0
 20 13  1  0  0  0  0
 21 13  1  0  0  0  0
M  END
