1,3
 OpenBabel05122313063D

 31 32  0  0  0  0  0  0  0  0999 V2000
   -0.6542   -0.0003    0.4931 S   0  0  0  0  0  3  0  0  0  0  0  0
   -0.6255   -0.0012    2.1550 N   0  0  0  0  0  0  0  0  0  0  0  0
    1.7080   -0.0012    1.8137 N   0  0  0  0  0  2  0  0  0  0  0  0
   -1.6968    1.4099    0.0441 C   0  0  0  0  0  0  0  0  0  0  0  0
   -1.5924    1.9110   -1.2613 C   0  0  0  0  0  0  0  0  0  0  0  0
   -2.4094    2.9967   -1.6117 C   0  0  0  0  0  0  0  0  0  0  0  0
   -3.2915    3.5559   -0.6726 C   0  0  0  0  0  0  0  0  0  0  0  0
   -3.3624    3.0392    0.6323 C   0  0  0  0  0  0  0  0  0  0  0  0
   -2.5582    1.9530    1.0072 C   0  0  0  0  0  0  0  0  0  0  0  0
   -1.6972   -1.4096    0.0427 C   0  0  0  0  0  0  0  0  0  0  0  0
   -1.5940   -1.9083   -1.2637 C   0  0  0  0  0  0  0  0  0  0  0  0
   -2.4112   -2.9935   -1.6153 C   0  0  0  0  0  0  0  0  0  0  0  0
   -3.2923   -3.5546   -0.6763 C   0  0  0  0  0  0  0  0  0  0  0  0
   -3.3618   -3.0404    0.6296 C   0  0  0  0  0  0  0  0  0  0  0  0
   -2.5574   -1.9547    1.0057 C   0  0  0  0  0  0  0  0  0  0  0  0
    0.6521   -0.0014    2.6139 C   0  0  0  0  0  0  0  0  0  0  0  0
    0.8078   -0.0021    4.1097 C   0  0  0  0  0  0  0  0  0  0  0  0
   -0.8707    1.4700   -1.9723 H   0  0  0  0  0  0  0  0  0  0  0  0
   -2.3431    3.4143   -2.6274 H   0  0  0  0  0  0  0  0  0  0  0  0
   -3.9241    4.4104   -0.9566 H   0  0  0  0  0  0  0  0  0  0  0  0
   -4.0451    3.4884    1.3691 H   0  0  0  0  0  0  0  0  0  0  0  0
   -2.5720    1.5377    2.0250 H   0  0  0  0  0  0  0  0  0  0  0  0
   -0.8729   -1.4661   -1.9746 H   0  0  0  0  0  0  0  0  0  0  0  0
   -2.3458   -3.4092   -2.6318 H   0  0  0  0  0  0  0  0  0  0  0  0
   -3.9249   -4.4087   -0.9612 H   0  0  0  0  0  0  0  0  0  0  0  0
   -4.0437   -3.4910    1.3663 H   0  0  0  0  0  0  0  0  0  0  0  0
   -2.5702   -1.5413    2.0243 H   0  0  0  0  0  0  0  0  0  0  0  0
    0.3107   -0.8945    4.5385 H   0  0  0  0  0  0  0  0  0  0  0  0
    1.8728   -0.0012    4.4058 H   0  0  0  0  0  0  0  0  0  0  0  0
    2.6487   -0.0012    2.2213 H   0  0  0  0  0  0  0  0  0  0  0  0
    0.3092    0.8891    4.5393 H   0  0  0  0  0  0  0  0  0  0  0  0
  1  2  1  0  0  0  0
  2 16  2  0  0  0  0
  3 30  1  0  0  0  0
  3 16  1  0  0  0  0
  4  1  1  0  0  0  0
  4  9  1  0  0  0  0
  5  4  2  0  0  0  0
  6  5  1  0  0  0  0
  6  7  2  0  0  0  0
  7  8  1  0  0  0  0
  8  9  2  0  0  0  0
  8 21  1  0  0  0  0
  9 22  1  0  0  0  0
 10  1  1  0  0  0  0
 10 15  1  0  0  0  0
 11 10  2  0  0  0  0
 12 11  1  0  0  0  0
 12 13  2  0  0  0  0
 13 14  1  0  0  0  0
 14 15  2  0  0  0  0
 14 26  1  0  0  0  0
 15 27  1  0  0  0  0
 16 17  1  0  0  0  0
 17 29  1  0  0  0  0
 17 28  1  0  0  0  0
 17 31  1  0  0  0  0
 18  5  1  0  0  0  0
 19  6  1  0  0  0  0
 20  7  1  0  0  0  0
 23 11  1  0  0  0  0
 24 12  1  0  0  0  0
 25 13  1  0  0  0  0
M  END
