1,2
 OpenBabel05122313063D

 27 28  0  0  0  0  0  0  0  0999 V2000
   -2.0138    0.6886   -0.5896 S   0  0  0  0  0  1  0  0  0  0  0  0
   -0.6606   -1.7909   -0.2886 N   0  0  0  0  0  2  0  0  0  0  0  0
   -4.1637   -0.9892   -0.1024 N   0  0  0  0  0  0  0  0  0  0  0  0
    0.1502   -2.8684   -0.4532 C   0  0  0  0  0  3  0  0  0  0  0  0
    1.2295   -2.6585   -0.4946 H   0  0  0  0  0  0  0  0  0  0  0  0
   -0.3343   -4.1744   -0.5485 C   0  0  0  0  0  0  0  0  0  0  0  0
    0.3800   -4.9993   -0.6809 H   0  0  0  0  0  0  0  0  0  0  0  0
   -1.7172   -4.4004   -0.4650 C   0  0  0  0  0  0  0  0  0  0  0  0
   -2.1288   -5.4193   -0.5195 H   0  0  0  0  0  0  0  0  0  0  0  0
   -2.5602   -3.2956   -0.3337 C   0  0  0  0  0  0  0  0  0  0  0  0
   -3.6559   -3.3696   -0.2928 H   0  0  0  0  0  0  0  0  0  0  0  0
   -2.0144   -2.0023   -0.2755 C   0  0  0  0  0  0  0  0  0  0  0  0
   -2.8910   -0.8075   -0.2764 C   0  0  0  0  0  0  0  0  0  0  0  0
   -5.1578   -0.0233   -0.1762 C   0  0  0  0  0  0  0  0  0  0  0  0
   -6.2922   -0.2000    0.6761 C   0  0  0  0  0  0  0  0  0  0  0  0
   -7.3412    0.7305    0.6020 C   0  0  0  0  0  0  0  0  0  0  0  0
   -8.2101    0.6017    1.2671 H   0  0  0  0  0  0  0  0  0  0  0  0
   -7.3095    1.8057   -0.3011 C   0  0  0  0  0  0  0  0  0  0  0  0
   -8.1502    2.5146   -0.3429 H   0  0  0  0  0  0  0  0  0  0  0  0
   -6.2059    1.9626   -1.1538 C   0  0  0  0  0  0  0  0  0  0  0  0
   -6.1765    2.7917   -1.8774 H   0  0  0  0  0  0  0  0  0  0  0  0
   -5.1357    1.0631   -1.0873 C   0  0  0  0  0  0  0  0  0  0  0  0
   -4.2784    1.1743   -1.7659 H   0  0  0  0  0  0  0  0  0  0  0  0
   -6.3304   -1.3556    1.6379 C   0  0  0  0  0  0  0  0  0  0  0  0
   -5.5437   -1.2626    2.4155 H   0  0  0  0  0  0  0  0  0  0  0  0
   -7.3118   -1.4260    2.1453 H   0  0  0  0  0  0  0  0  0  0  0  0
   -6.1240   -2.3107    1.1126 H   0  0  0  0  0  0  0  0  0  0  0  0
  1 13  1  0  0  0  0
  2 12  1  0  0  0  0
  4  2  1  0  0  0  0
  5  4  1  0  0  0  0
  6  8  2  0  0  0  0
  6  4  1  0  0  0  0
  7  6  1  0  0  0  0
  8 10  1  0  0  0  0
  9  8  1  0  0  0  0
 10 11  1  0  0  0  0
 10 12  2  0  0  0  0
 13 12  1  0  0  0  0
 13  3  2  0  0  0  0
 14  3  1  0  0  0  0
 14 15  1  0  0  0  0
 15 24  1  0  0  0  0
 16 15  2  0  0  0  0
 16 17  1  0  0  0  0
 18 16  1  0  0  0  0
 19 18  1  0  0  0  0
 20 22  1  0  0  0  0
 20 18  2  0  0  0  0
 21 20  1  0  0  0  0
 22 14  2  0  0  0  0
 23 22  1  0  0  0  0
 24 26  1  0  0  0  0
 24 25  1  0  0  0  0
 27 24  1  0  0  0  0
M  END
