2,5
 OpenBabel05122313063D

 32 33  0  0  1  0  0  0  0  0999 V2000
    4.7749   -1.8881   -0.4429 S   0  0  0  0  0  0  0  0  0  0  0  0
    2.1638   -2.8761    0.3016 S   0  0  0  0  0  1  0  0  0  0  0  0
   -1.3898    0.0950   -1.7615 O   0  0  0  0  0  0  0  0  0  0  0  0
    2.5981   -0.4733   -1.0528 N   0  0  0  0  0  0  0  0  0  0  0  0
    1.2623   -0.2782   -1.1430 N   0  0  0  0  0  2  0  0  0  0  0  0
    5.2565    1.4679    0.0177 C   0  0  0  0  0  0  0  0  0  0  0  0
    4.1722    1.2837    0.0352 H   0  0  0  0  0  0  0  0  0  0  0  0
    5.8142    2.5412    0.7240 C   0  0  0  0  0  0  0  0  0  0  0  0
    5.1594    3.2206    1.2922 H   0  0  0  0  0  0  0  0  0  0  0  0
    7.2029    2.7589    0.7055 C   0  0  0  0  0  0  0  0  0  0  0  0
    7.6399    3.6018    1.2622 H   0  0  0  0  0  0  0  0  0  0  0  0
    8.0282    1.8927   -0.0266 C   0  0  0  0  0  0  0  0  0  0  0  0
    9.1172    2.0516   -0.0452 H   0  0  0  0  0  0  0  0  0  0  0  0
    7.4678    0.8198   -0.7385 C   0  0  0  0  0  0  0  0  0  0  0  0
    8.1202    0.1438   -1.3142 H   0  0  0  0  0  0  0  0  0  0  0  0
    6.0775    0.5960   -0.7290 C   0  0  0  0  0  0  0  0  0  0  0  0
    5.4741   -0.5461   -1.5022 C   0  0  0  0  0  0  0  0  0  0  0  0
    6.2297   -1.0435   -2.1408 H   0  0  0  0  0  0  0  0  0  0  0  0
    4.6250   -0.2126   -2.1318 H   0  0  0  0  0  0  0  0  0  0  0  0
    3.0283   -1.5851   -0.4886 C   0  0  0  0  0  0  0  0  0  0  0  0
    0.8732    0.9238   -1.5295 C   0  0  1  0  0  3  0  0  0  0  0  0
   -0.5370    1.1712   -1.7221 C   0  0  0  0  0  0  0  0  0  0  0  0
   -1.2828    2.3400   -1.8453 C   0  0  0  0  0  0  0  0  0  0  0  0
   -0.8893    3.3617   -1.8387 H   0  0  0  0  0  0  0  0  0  0  0  0
   -2.6523    1.9447   -1.9480 C   0  0  0  0  0  0  0  0  0  0  0  0
   -3.5353    2.5864   -2.0338 H   0  0  0  0  0  0  0  0  0  0  0  0
   -2.6580    0.5678   -1.8932 C   0  0  0  0  0  0  0  0  0  0  0  0
   -3.4478   -0.1892   -1.9214 H   0  0  0  0  0  0  0  0  0  0  0  0
    1.8429    2.0513   -1.7401 C   0  0  0  0  0  0  0  0  0  0  0  0
    2.2698    2.3712   -0.7673 H   0  0  0  0  0  0  0  0  0  0  0  0
    1.3676    2.9197   -2.2286 H   0  0  0  0  0  0  0  0  0  0  0  0
    2.6971    1.7046   -2.3535 H   0  0  0  0  0  0  0  0  0  0  0  0
  3 22  1  0  0  0  0
  4 20  2  0  0  0  0
  5  4  1  0  0  0  0
  6  7  1  0  0  0  0
  6  8  1  0  0  0  0
  8  9  1  0  0  0  0
 10  8  2  0  0  0  0
 10 11  1  0  0  0  0
 12 10  1  0  0  0  0
 13 12  1  0  0  0  0
 14 16  1  0  0  0  0
 14 12  2  0  0  0  0
 15 14  1  0  0  0  0
 16  6  2  0  0  0  0
 17 16  1  0  0  0  0
 17  1  1  0  0  0  0
 18 17  1  0  0  0  0
 19 17  1  0  0  0  0
 20  1  1  0  0  0  0
 20  2  1  0  0  0  0
 21  5  1  1  0  0  0
 22 21  1  0  0  0  0
 23 24  1  0  0  0  0
 23 22  2  0  0  0  0
 25 27  2  0  0  0  0
 25 23  1  0  0  0  0
 26 25  1  0  0  0  0
 27  3  1  0  0  0  0
 28 27  1  0  0  0  0
 29 21  1  0  0  0  0
 29 30  1  0  0  0  0
 31 29  1  0  0  0  0
 32 29  1  0  0  0  0
M  END
