1,2
 OpenBabel05122313063D

 36 35  0  0  0  0  0  0  0  0999 V2000
    0.9679   -2.0713    0.8904 S   0  0  0  0  0  1  0  0  0  0  0  0
   -1.5284   -1.2193   -0.4817 N   0  0  0  0  0  0  0  0  0  0  0  0
   -0.6324   -3.0120    0.9327 C   0  0  0  0  0  0  0  0  0  0  0  0
   -0.3935   -4.0930    0.9724 H   0  0  0  0  0  0  0  0  0  0  0  0
   -1.1736   -2.7518    1.8675 H   0  0  0  0  0  0  0  0  0  0  0  0
   -1.4647   -2.6928   -0.2908 C   0  0  0  0  0  0  0  0  0  0  0  0
   -2.4767   -0.8112   -1.5513 C   0  0  0  0  0  0  0  0  0  0  0  0
   -3.9316   -0.8893   -1.0514 C   0  0  0  0  0  0  0  0  0  0  0  0
   -4.0840   -0.2485    0.2491 N   0  0  0  0  0  0  0  0  0  0  0  0
   -5.0590   -0.8772    1.1684 C   0  0  0  0  0  0  0  0  0  0  0  0
   -4.4298   -2.0683    1.9024 C   0  0  0  0  0  0  0  0  0  0  0  0
   -3.4973   -1.7646    2.4181 H   0  0  0  0  0  0  0  0  0  0  0  0
   -4.1852   -2.8938    1.2010 H   0  0  0  0  0  0  0  0  0  0  0  0
   -5.1265   -2.4837    2.6585 H   0  0  0  0  0  0  0  0  0  0  0  0
   -6.4035   -1.2762    0.5312 C   0  0  0  0  0  0  0  0  0  0  0  0
   -6.8712   -0.4345   -0.0128 H   0  0  0  0  0  0  0  0  0  0  0  0
   -7.1139   -1.6112    1.3137 H   0  0  0  0  0  0  0  0  0  0  0  0
   -6.2863   -2.1186   -0.1812 H   0  0  0  0  0  0  0  0  0  0  0  0
   -4.0822    1.2325    0.2068 C   0  0  0  0  0  0  0  0  0  0  0  0
   -3.6102    1.8292    1.5361 C   0  0  0  0  0  0  0  0  0  0  0  0
   -2.6340    1.3977    1.8313 H   0  0  0  0  0  0  0  0  0  0  0  0
   -4.3387    1.6614    2.3564 H   0  0  0  0  0  0  0  0  0  0  0  0
   -3.4775    2.9245    1.4341 H   0  0  0  0  0  0  0  0  0  0  0  0
   -5.4017    1.8702   -0.2614 C   0  0  0  0  0  0  0  0  0  0  0  0
   -5.7539    1.4383   -1.2204 H   0  0  0  0  0  0  0  0  0  0  0  0
   -5.2649    2.9586   -0.4208 H   0  0  0  0  0  0  0  0  0  0  0  0
   -6.2080    1.7460    0.4906 H   0  0  0  0  0  0  0  0  0  0  0  0
   -1.9693   -0.8077    0.3739 H   0  0  0  0  0  0  0  0  0  0  0  0
   -2.4881   -3.1157   -0.1900 H   0  0  0  0  0  0  0  0  0  0  0  0
   -1.0004   -3.1207   -1.2023 H   0  0  0  0  0  0  0  0  0  0  0  0
   -2.2179    0.2238   -1.8470 H   0  0  0  0  0  0  0  0  0  0  0  0
   -2.3172   -1.4523   -2.4402 H   0  0  0  0  0  0  0  0  0  0  0  0
   -4.2274   -1.9529   -0.9524 H   0  0  0  0  0  0  0  0  0  0  0  0
   -4.5959   -0.4650   -1.8447 H   0  0  0  0  0  0  0  0  0  0  0  0
   -5.2761   -0.1067    1.9361 H   0  0  0  0  0  0  0  0  0  0  0  0
   -3.3007    1.4995   -0.5354 H   0  0  0  0  0  0  0  0  0  0  0  0
  1  3  1  0  0  0  0
  2  6  1  0  0  0  0
  2 28  1  0  0  0  0
  3  4  1  0  0  0  0
  3  5  1  0  0  0  0
  6 29  1  0  0  0  0
  6  3  1  0  0  0  0
  7  8  1  0  0  0  0
  7  2  1  0  0  0  0
  8 33  1  0  0  0  0
  8  9  1  0  0  0  0
  9 10  1  0  0  0  0
 10 11  1  0  0  0  0
 10 35  1  0  0  0  0
 11 12  1  0  0  0  0
 11 14  1  0  0  0  0
 13 11  1  0  0  0  0
 15 10  1  0  0  0  0
 15 17  1  0  0  0  0
 16 15  1  0  0  0  0
 18 15  1  0  0  0  0
 19  9  1  0  0  0  0
 19 20  1  0  0  0  0
 20 21  1  0  0  0  0
 20 22  1  0  0  0  0
 23 20  1  0  0  0  0
 24 19  1  0  0  0  0
 24 27  1  0  0  0  0
 25 24  1  0  0  0  0
 26 24  1  0  0  0  0
 30  6  1  0  0  0  0
 31  7  1  0  0  0  0
 32  7  1  0  0  0  0
 34  8  1  0  0  0  0
 36 19  1  0  0  0  0
M  END
