1,3
 OpenBabel05122313063D

 36 37  0  0  0  0  0  0  0  0999 V2000
   -1.0926   -1.3445   -0.4688 N   0  0  0  0  0  2  0  0  0  0  0  0
   -2.4412   -1.2965   -0.4451 N   0  0  0  0  0  0  0  0  0  0  0  0
   -2.3710    0.3908   -2.6842 S   0  0  0  0  0  1  0  0  0  0  0  0
   -4.8003   -0.5176   -1.3556 S   0  0  0  0  0  0  0  0  0  0  0  0
   -0.5022   -1.9830    0.5190 C   0  0  0  0  0  0  0  0  0  0  0  0
   -1.1381   -2.4270    1.3109 H   0  0  0  0  0  0  0  0  0  0  0  0
    0.9219   -2.0904    0.5848 C   0  0  0  0  0  0  0  0  0  0  0  0
    1.4873   -1.6705   -0.2647 H   0  0  0  0  0  0  0  0  0  0  0  0
    1.5917   -2.6637    1.6326 C   0  0  0  0  0  3  0  0  0  0  0  0
    0.9971   -3.0667    2.4719 H   0  0  0  0  0  0  0  0  0  0  0  0
    3.0384   -2.7761    1.7667 C   0  0  0  0  0  0  0  0  0  0  0  0
    3.9351   -2.3638    0.7460 C   0  0  0  0  0  0  0  0  0  0  0  0
    3.5526   -1.9599   -0.2029 H   0  0  0  0  0  0  0  0  0  0  0  0
    5.3167   -2.4678    0.9254 C   0  0  0  0  0  0  0  0  0  0  0  0
    5.9884   -2.1274    0.1233 H   0  0  0  0  0  0  0  0  0  0  0  0
    5.8427   -2.9884    2.1226 C   0  0  0  0  0  0  0  0  0  0  0  0
    6.9324   -3.0663    2.2578 H   0  0  0  0  0  0  0  0  0  0  0  0
    4.9708   -3.4081    3.1407 C   0  0  0  0  0  0  0  0  0  0  0  0
    5.3735   -3.8191    4.0788 H   0  0  0  0  0  0  0  0  0  0  0  0
    3.5857   -3.3043    2.9635 C   0  0  0  0  0  0  0  0  0  0  0  0
    2.9032   -3.6307    3.7641 H   0  0  0  0  0  0  0  0  0  0  0  0
   -3.0376   -0.5818   -1.3800 C   0  0  0  0  0  0  0  0  0  0  0  0
   -5.1962   -1.4799    0.1716 C   0  0  0  0  0  0  0  0  0  0  0  0
   -4.8445   -2.5179    0.0141 H   0  0  0  0  0  0  0  0  0  0  0  0
   -4.6081   -1.0403    0.9989 H   0  0  0  0  0  0  0  0  0  0  0  0
   -6.6790   -1.3991    0.4160 C   0  0  0  0  0  0  0  0  0  0  0  0
   -7.5793   -2.1495   -0.3690 C   0  0  0  0  0  0  0  0  0  0  0  0
   -7.1867   -2.8080   -1.1599 H   0  0  0  0  0  0  0  0  0  0  0  0
   -8.9615   -2.0596   -0.1527 C   0  0  0  0  0  0  0  0  0  0  0  0
   -9.6517   -2.6530   -0.7716 H   0  0  0  0  0  0  0  0  0  0  0  0
   -9.4649   -1.2164    0.8516 C   0  0  0  0  0  0  0  0  0  0  0  0
  -10.5500   -1.1471    1.0220 H   0  0  0  0  0  0  0  0  0  0  0  0
   -8.5775   -0.4649    1.6377 C   0  0  0  0  0  0  0  0  0  0  0  0
   -8.9640    0.1957    2.4290 H   0  0  0  0  0  0  0  0  0  0  0  0
   -7.1945   -0.5533    1.4189 C   0  0  0  0  0  0  0  0  0  0  0  0
   -6.4997    0.0402    2.0326 H   0  0  0  0  0  0  0  0  0  0  0  0
  1  2  1  0  0  0  0
  1  5  1  0  0  0  0
  3 22  1  0  0  0  0
  4 23  1  0  0  0  0
  5  7  2  0  0  0  0
  5  6  1  0  0  0  0
  7  9  1  0  0  0  0
  8  7  1  0  0  0  0
  9 11  1  0  0  0  0
  9 10  1  0  0  0  0
 11 20  1  0  0  0  0
 12 14  1  0  0  0  0
 12 11  2  0  0  0  0
 13 12  1  0  0  0  0
 14 16  2  0  0  0  0
 15 14  1  0  0  0  0
 16 17  1  0  0  0  0
 16 18  1  0  0  0  0
 18 19  1  0  0  0  0
 20 18  2  0  0  0  0
 20 21  1  0  0  0  0
 22  4  1  0  0  0  0
 22  2  2  0  0  0  0
 23 26  1  0  0  0  0
 23 25  1  0  0  0  0
 24 23  1  0  0  0  0
 26 35  1  0  0  0  0
 27 29  1  0  0  0  0
 27 26  2  0  0  0  0
 28 27  1  0  0  0  0
 29 31  2  0  0  0  0
 30 29  1  0  0  0  0
 31 32  1  0  0  0  0
 31 33  1  0  0  0  0
 33 34  1  0  0  0  0
 35 33  2  0  0  0  0
 35 36  1  0  0  0  0
M  END
