1,21
 OpenBabel05122313063D

 21 21  0  0  0  0  0  0  0  0999 V2000
    0.3500   -0.9548   -2.3525 S   0  0  0  0  0  0  0  0  0  0  0  0
   -2.4911   -1.2316    1.1911 C   0  0  0  0  0  3  0  0  0  0  0  0
   -2.4430   -0.1924    1.5439 H   0  0  0  0  0  0  0  0  0  0  0  0
   -3.5049   -2.0751    1.6488 C   0  0  0  0  0  0  0  0  0  0  0  0
   -4.2517   -1.6906    2.3577 H   0  0  0  0  0  0  0  0  0  0  0  0
   -3.5371   -3.3978    1.1890 C   0  0  0  0  0  0  0  0  0  0  0  0
   -4.3135   -4.1005    1.5251 H   0  0  0  0  0  0  0  0  0  0  0  0
   -2.5535   -3.7982    0.2782 C   0  0  0  0  0  0  0  0  0  0  0  0
   -2.5461   -4.8230   -0.1209 H   0  0  0  0  0  0  0  0  0  0  0  0
   -1.5603   -2.8966   -0.1484 C   0  0  0  0  0  0  0  0  0  0  0  0
   -0.5398   -3.3552   -1.1639 C   0  0  0  0  0  0  0  0  0  0  0  0
   -0.7498   -4.4170   -1.4009 H   0  0  0  0  0  0  0  0  0  0  0  0
    0.4801   -3.3364   -0.7239 H   0  0  0  0  0  0  0  0  0  0  0  0
   -0.5465   -2.5523   -2.4671 C   0  0  0  0  0  0  0  0  0  0  0  0
   -1.5796   -2.3016   -2.7814 H   0  0  0  0  0  0  0  0  0  0  0  0
   -0.0774   -3.1213   -3.2941 H   0  0  0  0  0  0  0  0  0  0  0  0
    2.0575   -1.5696   -2.5376 C   0  0  0  0  0  0  0  0  0  0  0  0
    2.2991   -2.3285   -1.7695 H   0  0  0  0  0  0  0  0  0  0  0  0
    2.7198   -0.6939   -2.4123 H   0  0  0  0  0  0  0  0  0  0  0  0
    2.1736   -1.9873   -3.5551 H   0  0  0  0  0  0  0  0  0  0  0  0
   -1.5218   -1.6136    0.3198 N   0  0  0  0  0  2  0  0  0  0  0  0
  2  3  1  0  0  0  0
  2  4  1  0  0  0  0
  4  5  1  0  0  0  0
  6  7  1  0  0  0  0
  6  4  2  0  0  0  0
  8  6  1  0  0  0  0
  9  8  1  0  0  0  0
 10  8  2  0  0  0  0
 10 21  1  0  0  0  0
 11 13  1  0  0  0  0
 11 10  1  0  0  0  0
 12 11  1  0  0  0  0
 14  1  1  0  0  0  0
 14 11  1  0  0  0  0
 15 14  1  0  0  0  0
 16 14  1  0  0  0  0
 17 19  1  0  0  0  0
 17  1  1  0  0  0  0
 17 18  1  0  0  0  0
 20 17  1  0  0  0  0
 21  2  1  0  0  0  0
M  END
