1,3
 OpenBabel05122313063D

 25 26  0  0  1  0  0  0  0  0999 V2000
    0.7130   -0.6076    0.0003 S   0  0  0  0  0  1  0  0  0  0  0  0
    2.3058    1.9977    0.0006 S   0  0  0  0  0  0  0  0  0  0  0  0
   -1.5890    1.2118    0.0003 N   0  0  0  0  0  2  0  0  0  0  0  0
   -0.3492    1.8294   -0.0002 N   0  0  0  0  0  0  0  0  0  0  0  0
   -3.9725    1.9654    0.0003 C   0  0  0  0  0  0  0  0  0  0  0  0
   -4.2766    1.3571   -0.8747 H   0  0  0  0  0  0  0  0  0  0  0  0
   -4.5081    2.9324    0.0008 H   0  0  0  0  0  0  0  0  0  0  0  0
   -4.2761    1.3564    0.8750 H   0  0  0  0  0  0  0  0  0  0  0  0
    4.9386   -0.8527   -1.2185 C   0  0  0  0  0  0  0  0  0  0  0  0
    5.3107   -1.2561   -2.1719 H   0  0  0  0  0  0  0  0  0  0  0  0
   -1.8411    3.4659   -0.0006 C   0  0  0  0  0  0  0  0  0  0  0  0
   -2.3252    4.4475   -0.0010 H   0  0  0  0  0  0  0  0  0  0  0  0
    3.5084    0.6731    0.0002 C   0  0  0  0  0  0  0  0  0  0  0  0
    0.8088    1.0672    0.0002 C   0  0  2  0  0  3  0  0  0  0  0  0
   -2.5054    2.1975   -0.0000 C   0  0  1  0  0  3  0  0  0  0  0  0
    5.4141   -1.3647   -0.0005 C   0  0  0  0  0  0  0  0  0  0  0  0
    6.1616   -2.1721   -0.0008 H   0  0  0  0  0  0  0  0  0  0  0  0
   -0.4896    3.2050   -0.0007 C   0  0  0  0  0  0  0  0  0  0  0  0
    0.3853    3.8629   -0.0012 H   0  0  0  0  0  0  0  0  0  0  0  0
    3.9828    0.1729   -1.2256 C   0  0  0  0  0  0  0  0  0  0  0  0
    3.5956    0.5787   -2.1714 H   0  0  0  0  0  0  0  0  0  0  0  0
    3.9830    0.1724    1.2257 C   0  0  0  0  0  0  0  0  0  0  0  0
    3.5961    0.5777    2.1718 H   0  0  0  0  0  0  0  0  0  0  0  0
    4.9388   -0.8533    1.2179 C   0  0  0  0  0  0  0  0  0  0  0  0
    5.3112   -1.2571    2.1710 H   0  0  0  0  0  0  0  0  0  0  0  0
  4 14  1  0  0  0  0
  4  3  1  0  0  0  0
  5  7  1  0  0  0  0
  5  8  1  0  0  0  0
  6  5  1  0  0  0  0
  9 16  1  0  0  0  0
 10  9  1  0  0  0  0
 11 15  1  0  0  0  0
 12 11  1  0  0  0  0
 13  2  1  0  0  0  0
 13 22  2  0  0  0  0
 14  1  1  1  0  0  0
 14  2  1  0  0  0  0
 15  3  1  0  0  0  0
 15  5  1  1  0  0  0
 16 24  2  0  0  0  0
 17 16  1  0  0  0  0
 18 11  2  0  0  0  0
 18  4  1  0  0  0  0
 19 18  1  0  0  0  0
 20  9  2  0  0  0  0
 20 13  1  0  0  0  0
 21 20  1  0  0  0  0
 22 23  1  0  0  0  0
 24 22  1  0  0  0  0
 24 25  1  0  0  0  0
M  END
