2,5
 OpenBabel05122313063D

 60 63  0  0  1  0  0  0  0  0999 V2000
   -1.2724    0.7650    0.6451 P   0  0  0  0  0  4  0  0  0  0  0  0
   -1.1900   -1.0443    1.5165 S   0  0  0  0  0  1  0  0  0  0  0  0
   -1.1062    0.6158   -2.1256 O   0  0  0  0  0  0  0  0  0  0  0  0
   -1.0435   -0.3983   -2.1386 H   0  0  0  0  0  0  0  0  0  0  0  0
    1.5167   -0.5028   -0.7198 N   0  0  0  0  0  2  0  0  0  0  0  0
    2.0383    1.4880   -1.6030 N   0  0  0  0  0  0  0  0  0  0  0  0
    1.0520    0.6994   -1.0535 C   0  0  1  0  0  3  0  0  0  0  0  0
    3.2146    0.7445   -1.5890 C   0  0  0  0  0  0  0  0  0  0  0  0
    4.5261    1.0460   -1.9892 C   0  0  0  0  0  0  0  0  0  0  0  0
    4.8019    2.0280   -2.3994 H   0  0  0  0  0  0  0  0  0  0  0  0
    5.4760    0.0288   -1.8337 C   0  0  0  0  0  0  0  0  0  0  0  0
    6.5171    0.2194   -2.1341 H   0  0  0  0  0  0  0  0  0  0  0  0
    5.1306   -1.2400   -1.3028 C   0  0  0  0  0  0  0  0  0  0  0  0
    5.9126   -2.0075   -1.2043 H   0  0  0  0  0  0  0  0  0  0  0  0
    3.8259   -1.5383   -0.8991 C   0  0  0  0  0  0  0  0  0  0  0  0
    3.5331   -2.5063   -0.4639 H   0  0  0  0  0  0  0  0  0  0  0  0
    2.8656   -0.5204   -1.0424 C   0  0  0  0  0  0  0  0  0  0  0  0
   -0.3977    1.0926   -1.0281 C   0  0  2  0  0  0  0  0  0  0  0  0
   -0.4638    2.2035   -1.0511 H   0  0  0  0  0  0  0  0  0  0  0  0
   -0.6934    2.1140    1.7926 C   0  0  0  0  0  0  0  0  0  0  0  0
   -0.2227    2.9075    1.1737 H   0  0  0  0  0  0  0  0  0  0  0  0
   -1.6243    2.5489    2.2142 H   0  0  0  0  0  0  0  0  0  0  0  0
    0.2377    1.6605    2.9312 C   0  0  0  0  0  0  0  0  0  0  0  0
    0.2592    2.4834    3.6772 H   0  0  0  0  0  0  0  0  0  0  0  0
   -0.2206    0.7842    3.4321 H   0  0  0  0  0  0  0  0  0  0  0  0
    1.6574    1.3270    2.5204 C   0  0  0  0  0  0  0  0  0  0  0  0
    2.1232   -0.0031    2.5097 C   0  0  0  0  0  0  0  0  0  0  0  0
    1.4391   -0.8303    2.7496 H   0  0  0  0  0  0  0  0  0  0  0  0
    3.4494   -0.2955    2.1589 C   0  0  0  0  0  0  0  0  0  0  0  0
    3.7691   -1.3476    2.1377 H   0  0  0  0  0  0  0  0  0  0  0  0
    4.3330    0.7354    1.8073 C   0  0  0  0  0  0  0  0  0  0  0  0
    5.3683    0.5028    1.5165 H   0  0  0  0  0  0  0  0  0  0  0  0
    3.8798    2.0646    1.8053 C   0  0  0  0  0  0  0  0  0  0  0  0
    4.5680    2.8815    1.5369 H   0  0  0  0  0  0  0  0  0  0  0  0
    2.5540    2.3558    2.1621 C   0  0  0  0  0  0  0  0  0  0  0  0
    2.2147    3.4051    2.1845 H   0  0  0  0  0  0  0  0  0  0  0  0
   -3.0273    1.1792    0.2676 C   0  0  0  0  0  0  0  0  0  0  0  0
   -3.5002    1.2181    1.2729 H   0  0  0  0  0  0  0  0  0  0  0  0
   -3.0713    2.2061   -0.1552 H   0  0  0  0  0  0  0  0  0  0  0  0
   -3.7571    0.1512   -0.6207 C   0  0  0  0  0  0  0  0  0  0  0  0
   -3.4933    0.3380   -1.6776 H   0  0  0  0  0  0  0  0  0  0  0  0
   -3.3788   -0.8647   -0.3787 H   0  0  0  0  0  0  0  0  0  0  0  0
   -5.2529    0.2138   -0.4133 C   0  0  0  0  0  0  0  0  0  0  0  0
   -5.8446   -0.4356    0.6902 C   0  0  0  0  0  0  0  0  0  0  0  0
   -5.2077   -1.0205    1.3740 H   0  0  0  0  0  0  0  0  0  0  0  0
   -7.2264   -0.3549    0.9143 C   0  0  0  0  0  0  0  0  0  0  0  0
   -7.6727   -0.8753    1.7756 H   0  0  0  0  0  0  0  0  0  0  0  0
   -8.0410    0.3792    0.0364 C   0  0  0  0  0  0  0  0  0  0  0  0
   -9.1264    0.4399    0.2090 H   0  0  0  0  0  0  0  0  0  0  0  0
   -7.4644    1.0277   -1.0665 C   0  0  0  0  0  0  0  0  0  0  0  0
   -8.0970    1.5984   -1.7636 H   0  0  0  0  0  0  0  0  0  0  0  0
   -6.0806    0.9448   -1.2874 C   0  0  0  0  0  0  0  0  0  0  0  0
   -5.6318    1.4480   -2.1590 H   0  0  0  0  0  0  0  0  0  0  0  0
    1.8908    2.8294   -2.1592 C   0  0  0  0  0  0  0  0  0  0  0  0
    0.8813    2.8984   -2.6118 H   0  0  0  0  0  0  0  0  0  0  0  0
    2.6073    2.9056   -3.0017 H   0  0  0  0  0  0  0  0  0  0  0  0
    2.1322    3.9431   -1.1435 C   0  0  0  0  0  0  0  0  0  0  0  0
    2.0559    4.9325   -1.6359 H   0  0  0  0  0  0  0  0  0  0  0  0
    3.1363    3.8528   -0.6855 H   0  0  0  0  0  0  0  0  0  0  0  0
    1.3901    3.9066   -0.3213 H   0  0  0  0  0  0  0  0  0  0  0  0
  1  2  1  0  0  0  0
  1 20  1  0  0  0  0
  3 18  1  0  0  0  0
  4  3  1  0  0  0  0
  6  8  1  0  0  0  0
  6  7  1  0  0  0  0
  7 18  1  6  0  0  0
  7  5  1  0  0  0  0
  8 17  1  0  0  0  0
  9 11  1  0  0  0  0
  9  8  2  0  0  0  0
 10  9  1  0  0  0  0
 11 13  2  0  0  0  0
 12 11  1  0  0  0  0
 13 14  1  0  0  0  0
 13 15  1  0  0  0  0
 15 16  1  0  0  0  0
 17 15  2  0  0  0  0
 17  5  1  0  0  0  0
 18 19  1  6  0  0  0
 18  1  1  0  0  0  0
 20 22  1  0  0  0  0
 20 23  1  0  0  0  0
 21 20  1  0  0  0  0
 23 25  1  0  0  0  0
 23 24  1  0  0  0  0
 26 23  1  0  0  0  0
 27 26  1  0  0  0  0
 27 28  1  0  0  0  0
 29 27  2  0  0  0  0
 30 29  1  0  0  0  0
 31 29  1  0  0  0  0
 32 31  1  0  0  0  0
 33 31  2  0  0  0  0
 33 35  1  0  0  0  0
 34 33  1  0  0  0  0
 35 36  1  0  0  0  0
 35 26  2  0  0  0  0
 37  1  1  0  0  0  0
 37 38  1  0  0  0  0
 39 37  1  0  0  0  0
 40 43  1  0  0  0  0
 40 42  1  0  0  0  0
 40 37  1  0  0  0  0
 41 40  1  0  0  0  0
 43 44  1  0  0  0  0
 44 46  2  0  0  0  0
 44 45  1  0  0  0  0
 46 47  1  0  0  0  0
 48 49  1  0  0  0  0
 48 46  1  0  0  0  0
 50 48  2  0  0  0  0
 51 50  1  0  0  0  0
 52 50  1  0  0  0  0
 52 43  2  0  0  0  0
 53 52  1  0  0  0  0
 54  6  1  0  0  0  0
 54 57  1  0  0  0  0
 55 54  1  0  0  0  0
 56 54  1  0  0  0  0
 57 59  1  0  0  0  0
 57 60  1  0  0  0  0
 58 57  1  0  0  0  0
M  END
