1,2
 OpenBabel05122313063D

 31 33  0  0  0  0  0  0  0  0999 V2000
    0.2450   -1.0348   -1.7379 S   0  0  0  0  0  0  0  0  0  0  0  0
   -0.3966    1.3430   -0.0482 N   0  0  0  0  0  2  0  0  0  0  0  0
   -0.5310    2.3952    0.7651 C   0  0  0  0  0  0  0  0  0  0  0  0
   -1.7911    2.9496    1.0908 C   0  0  0  0  0  0  0  0  0  0  0  0
   -2.9424    2.3988    0.5541 C   0  0  0  0  0  0  0  0  0  0  0  0
   -2.8374    1.2757   -0.3143 C   0  0  0  0  0  0  0  0  0  0  0  0
   -3.9683    0.6474   -0.9100 C   0  0  0  0  0  3  0  0  0  0  0  0
   -3.8134   -0.4414   -1.7561 C   0  0  0  0  0  0  0  0  0  0  0  0
   -2.5203   -0.9528   -2.0303 C   0  0  0  0  0  0  0  0  0  0  0  0
   -1.3990   -0.3752   -1.4451 C   0  0  0  0  0  0  0  0  0  0  0  0
   -1.5254    0.7588   -0.5927 C   0  0  0  0  0  0  0  0  0  0  0  0
    0.2037   -2.5616   -0.6270 C   0  0  0  0  0  0  0  0  0  0  0  0
   -0.1886   -2.2335    0.7782 C   0  0  0  0  0  0  0  0  0  0  0  0
    0.7886   -1.7886    1.6958 C   0  0  0  0  0  0  0  0  0  0  0  0
    0.4122   -1.3640    2.9768 C   0  0  0  0  0  0  0  0  0  0  0  0
   -0.9406   -1.3749    3.3564 C   0  0  0  0  0  0  0  0  0  0  0  0
   -1.9167   -1.8306    2.4561 C   0  0  0  0  0  0  0  0  0  0  0  0
   -1.5419   -2.2582    1.1731 C   0  0  0  0  0  0  0  0  0  0  0  0
    0.4229    2.7930    1.1579 H   0  0  0  0  0  0  0  0  0  0  0  0
   -1.8292    3.8159    1.7662 H   0  0  0  0  0  0  0  0  0  0  0  0
   -3.9363    2.8117    0.7845 H   0  0  0  0  0  0  0  0  0  0  0  0
   -4.9692    1.0484   -0.6900 H   0  0  0  0  0  0  0  0  0  0  0  0
   -4.6921   -0.9129   -2.2200 H   0  0  0  0  0  0  0  0  0  0  0  0
   -2.3979   -1.8165   -2.7013 H   0  0  0  0  0  0  0  0  0  0  0  0
    1.2538   -2.9028   -0.7211 H   0  0  0  0  0  0  0  0  0  0  0  0
   -0.4782   -3.2775   -1.1262 H   0  0  0  0  0  0  0  0  0  0  0  0
    1.8449   -1.7578    1.3857 H   0  0  0  0  0  0  0  0  0  0  0  0
    1.1830   -1.0097    3.6772 H   0  0  0  0  0  0  0  0  0  0  0  0
   -1.2341   -1.0340    4.3610 H   0  0  0  0  0  0  0  0  0  0  0  0
   -2.9762   -1.8543    2.7530 H   0  0  0  0  0  0  0  0  0  0  0  0
   -2.3091   -2.6109    0.4664 H   0  0  0  0  0  0  0  0  0  0  0  0
  1 10  1  0  0  0  0
  1 12  1  0  0  0  0
  2  3  1  0  0  0  0
  3  4  2  0  0  0  0
  3 19  1  0  0  0  0
  4 20  1  0  0  0  0
  5 21  1  0  0  0  0
  5  4  1  0  0  0  0
  6  5  2  0  0  0  0
  7 22  1  0  0  0  0
  7  6  1  0  0  0  0
  8  7  1  0  0  0  0
  9  8  2  0  0  0  0
  9 10  1  0  0  0  0
 10 11  2  0  0  0  0
 11  6  1  0  0  0  0
 11  2  1  0  0  0  0
 12 13  1  0  0  0  0
 13 18  2  0  0  0  0
 13 14  1  0  0  0  0
 14 15  2  0  0  0  0
 15 16  1  0  0  0  0
 15 28  1  0  0  0  0
 16 29  1  0  0  0  0
 17 30  1  0  0  0  0
 17 16  2  0  0  0  0
 18 17  1  0  0  0  0
 23  8  1  0  0  0  0
 24  9  1  0  0  0  0
 25 12  1  0  0  0  0
 26 12  1  0  0  0  0
 27 14  1  0  0  0  0
 31 18  1  0  0  0  0
M  END
