1,2
 OpenBabel05122313063D

 34 36  0  0  0  0  0  0  0  0999 V2000
   -0.2188    0.2723    1.7780 S   0  0  0  0  0  0  0  0  0  0  0  0
   -2.1548   -0.1890   -0.4378 N   0  0  0  0  0  2  0  0  0  0  0  0
   -3.0252   -0.5659   -1.3799 C   0  0  0  0  0  0  0  0  0  0  0  0
   -3.9522    0.3302   -1.9624 C   0  0  0  0  0  0  0  0  0  0  0  0
   -3.9674    1.6561   -1.5641 C   0  0  0  0  0  0  0  0  0  0  0  0
   -3.0543    2.0943   -0.5632 C   0  0  0  0  0  0  0  0  0  0  0  0
   -2.9902    3.4424   -0.1086 C   0  0  0  0  0  3  0  0  0  0  0  0
   -2.0827    3.8183    0.8714 C   0  0  0  0  0  0  0  0  0  0  0  0
   -1.2150    2.8577    1.4483 C   0  0  0  0  0  0  0  0  0  0  0  0
   -1.2425    1.5363    1.0143 C   0  0  0  0  0  0  0  0  0  0  0  0
   -2.1533    1.1244   -0.0019 C   0  0  0  0  0  0  0  0  0  0  0  0
    1.4936    0.7706    1.2972 C   0  0  0  0  0  0  0  0  0  0  0  0
    3.1810    0.9489   -0.5379 C   0  0  0  0  0  0  0  0  0  0  0  0
    3.8919   -0.2707   -0.5188 C   0  0  0  0  0  0  0  0  0  0  0  0
    5.2646   -0.2952   -0.8002 C   0  0  0  0  0  0  0  0  0  0  0  0
    5.9468    0.8959   -1.1014 C   0  0  0  0  0  0  0  0  0  0  0  0
    5.2481    2.1127   -1.1199 C   0  0  0  0  0  0  0  0  0  0  0  0
    3.8730    2.1375   -0.8374 C   0  0  0  0  0  0  0  0  0  0  0  0
    1.7054    0.9502   -0.2058 C   0  0  0  0  0  0  0  0  0  0  0  0
   -2.9428   -1.6267   -1.6803 H   0  0  0  0  0  0  0  0  0  0  0  0
   -4.6409   -0.0471   -2.7314 H   0  0  0  0  0  0  0  0  0  0  0  0
   -4.6699    2.3789   -2.0066 H   0  0  0  0  0  0  0  0  0  0  0  0
   -3.6764    4.1804   -0.5507 H   0  0  0  0  0  0  0  0  0  0  0  0
   -2.0406    4.8613    1.2176 H   0  0  0  0  0  0  0  0  0  0  0  0
   -0.5190    3.1538    2.2476 H   0  0  0  0  0  0  0  0  0  0  0  0
    2.0633   -0.1025    1.6781 H   0  0  0  0  0  0  0  0  0  0  0  0
    1.7659    1.6669    1.8907 H   0  0  0  0  0  0  0  0  0  0  0  0
    3.3522   -1.2027   -0.2797 H   0  0  0  0  0  0  0  0  0  0  0  0
    5.8062   -1.2534   -0.7884 H   0  0  0  0  0  0  0  0  0  0  0  0
    7.0244    0.8744   -1.3246 H   0  0  0  0  0  0  0  0  0  0  0  0
    5.7757    3.0490   -1.3581 H   0  0  0  0  0  0  0  0  0  0  0  0
    3.3249    3.0935   -0.8574 H   0  0  0  0  0  0  0  0  0  0  0  0
    1.2044    0.1035   -0.7246 H   0  0  0  0  0  0  0  0  0  0  0  0
    1.2206    1.8856   -0.5528 H   0  0  0  0  0  0  0  0  0  0  0  0
  2 11  1  0  0  0  0
  3  2  1  0  0  0  0
  4  5  1  0  0  0  0
  4  3  2  0  0  0  0
  5  6  2  0  0  0  0
  6  7  1  0  0  0  0
  6 11  1  0  0  0  0
  7  8  1  0  0  0  0
  8 24  1  0  0  0  0
  8  9  2  0  0  0  0
  9 25  1  0  0  0  0
 10  9  1  0  0  0  0
 10  1  1  0  0  0  0
 11 10  2  0  0  0  0
 12 26  1  0  0  0  0
 12  1  1  0  0  0  0
 12 27  1  0  0  0  0
 13 14  1  0  0  0  0
 13 19  1  0  0  0  0
 14 28  1  0  0  0  0
 15 29  1  0  0  0  0
 15 14  2  0  0  0  0
 16 15  1  0  0  0  0
 17 16  2  0  0  0  0
 17 18  1  0  0  0  0
 18 13  2  0  0  0  0
 19 12  1  0  0  0  0
 20  3  1  0  0  0  0
 21  4  1  0  0  0  0
 22  5  1  0  0  0  0
 23  7  1  0  0  0  0
 30 16  1  0  0  0  0
 31 17  1  0  0  0  0
 32 18  1  0  0  0  0
 33 19  1  0  0  0  0
 34 19  1  0  0  0  0
M  END
