1,2
 OpenBabel05122313063D

 14 14  0  0  0  0  0  0  0  0999 V2000
    0.8773    2.7074   -0.0183 S   0  0  0  0  0  1  0  0  0  0  0  0
    2.4289    0.7784    0.6057 N   0  0  0  0  0  2  0  0  0  0  0  0
    3.5178    0.0699    0.9126 C   0  0  0  0  0  3  0  0  0  0  0  0
    3.3562   -0.9995    1.1247 H   0  0  0  0  0  0  0  0  0  0  0  0
    4.7845    0.6726    0.9631 C   0  0  0  0  0  0  0  0  0  0  0  0
    5.6713    0.0778    1.2200 H   0  0  0  0  0  0  0  0  0  0  0  0
    4.8785    2.0416    0.6795 C   0  0  0  0  0  0  0  0  0  0  0  0
    5.8498    2.5560    0.7056 H   0  0  0  0  0  0  0  0  0  0  0  0
    3.7320    2.7935    0.3556 C   0  0  0  0  0  0  0  0  0  0  0  0
    2.4789    2.1147    0.3278 C   0  0  0  0  0  0  0  0  0  0  0  0
    3.7973    4.2408    0.0489 C   0  0  0  0  0  0  0  0  0  0  0  0
    2.8401    4.9419   -0.2356 O   0  0  0  0  0  0  0  0  0  0  0  0
    5.0674    4.7350    0.1150 O   0  0  0  0  0  0  0  0  0  0  0  0
    4.9763    5.6869   -0.1032 H   0  0  0  0  0  0  0  0  0  0  0  0
  1 10  1  0  0  0  0
  2  3  1  0  0  0  0
  3  5  1  0  0  0  0
  3  4  1  0  0  0  0
  5  6  1  0  0  0  0
  7  8  1  0  0  0  0
  7  5  2  0  0  0  0
  9  7  1  0  0  0  0
 10  9  2  0  0  0  0
 10  2  1  0  0  0  0
 11 13  1  0  0  0  0
 11  9  1  0  0  0  0
 12 11  2  0  0  0  0
 14 13  1  0  0  0  0
M  END
