1,7
 OpenBabel05122313063D

 25 26  0  0  1  0  0  0  0  0999 V2000
    0.2794    2.3362    1.8503 S   0  0  0  0  0  1  0  0  0  0  0  0
   -1.4354    2.3887    1.9662 C   0  0  2  0  0  3  0  0  0  0  0  0
   -2.0306    3.2916    2.7867 N   0  0  0  0  0  0  0  0  0  0  0  0
   -3.0481    3.3382    2.8273 H   0  0  0  0  0  0  0  0  0  0  0  0
   -1.4593    3.9495    3.3105 H   0  0  0  0  0  0  0  0  0  0  0  0
   -2.2882    1.5653    1.3156 N   0  0  0  0  0  2  0  0  0  0  0  0
   -1.7129    0.7348    0.4603 N   0  0  0  0  0  2  0  0  0  0  0  0
   -0.7500   -1.2036   -1.6100 O   0  0  0  0  0  0  0  0  0  0  0  0
   -1.8763   -1.1548   -1.1216 C   0  0  0  0  0  0  0  0  0  0  0  0
   -2.9362   -2.0101   -1.4690 N   0  0  0  0  0  0  0  0  0  0  0  0
   -4.0804   -1.7156   -0.7284 C   0  0  0  0  0  0  0  0  0  0  0  0
   -3.8170   -0.6192    0.1518 C   0  0  0  0  0  0  0  0  0  0  0  0
   -2.4366   -0.2411   -0.0780 C   0  0  2  0  0  3  0  0  0  0  0  0
   -4.8324   -0.1450    0.9975 C   0  0  0  0  0  0  0  0  0  0  0  0
   -6.0931   -0.7685    0.9613 C   0  0  0  0  0  0  0  0  0  0  0  0
   -6.3365   -1.8465    0.0919 C   0  0  0  0  0  0  0  0  0  0  0  0
   -5.3317   -2.3368   -0.7672 C   0  0  0  0  0  0  0  0  0  0  0  0
   -5.5290   -3.1788   -1.4458 H   0  0  0  0  0  0  0  0  0  0  0  0
   -7.3302   -2.3197    0.0768 H   0  0  0  0  0  0  0  0  0  0  0  0
   -6.8977   -0.4081    1.6193 H   0  0  0  0  0  0  0  0  0  0  0  0
   -4.6186    0.6997    1.6642 H   0  0  0  0  0  0  0  0  0  0  0  0
   -2.8088   -3.0557   -2.4520 C   0  0  0  0  0  0  0  0  0  0  0  0
   -1.7688   -3.0218   -2.8292 H   0  0  0  0  0  0  0  0  0  0  0  0
   -3.0050   -4.0549   -2.0079 H   0  0  0  0  0  0  0  0  0  0  0  0
   -3.5098   -2.9023   -3.2999 H   0  0  0  0  0  0  0  0  0  0  0  0
  2  1  1  1  0  0  0
  2  3  1  0  0  0  0
  3  4  1  0  0  0  0
  3  5  1  0  0  0  0
  6  2  1  0  0  0  0
  7  6  1  0  0  0  0
  8  9  2  0  0  0  0
  9 13  1  0  0  0  0
 10  9  1  0  0  0  0
 10 11  1  0  0  0  0
 11 12  1  0  0  0  0
 12 14  2  0  0  0  0
 13 12  1  0  0  0  0
 13  7  1  6  0  0  0
 14 21  1  0  0  0  0
 15 14  1  0  0  0  0
 15 20  1  0  0  0  0
 16 15  2  0  0  0  0
 17 11  2  0  0  0  0
 17 16  1  0  0  0  0
 18 17  1  0  0  0  0
 19 16  1  0  0  0  0
 22 24  1  0  0  0  0
 22 10  1  0  0  0  0
 23 22  1  0  0  0  0
 25 22  1  0  0  0  0
M  END
