13,41
 OpenBabel05122313063D

 42 44  0  0  0  0  0  0  0  0999 V2000
    1.7728    0.9263    1.4602 S   0  0  0  0  0  0  0  0  0  0  0  0
    3.2665    0.7720    0.4838 C   0  0  0  0  0  0  0  0  0  0  0  0
    3.1948    0.4383   -0.8837 C   0  0  0  0  0  0  0  0  0  0  0  0
    2.2195    0.2986   -1.3779 H   0  0  0  0  0  0  0  0  0  0  0  0
    4.3845    0.2642   -1.6036 C   0  0  0  0  0  0  0  0  0  0  0  0
    4.3295   -0.0007   -2.6702 H   0  0  0  0  0  0  0  0  0  0  0  0
    5.6314    0.3988   -0.9691 C   0  0  0  0  0  0  0  0  0  0  0  0
    6.5597    0.2500   -1.5412 H   0  0  0  0  0  0  0  0  0  0  0  0
    5.6925    0.7169    0.3966 C   0  0  0  0  0  0  0  0  0  0  0  0
    6.6664    0.8232    0.8983 H   0  0  0  0  0  0  0  0  0  0  0  0
    4.5100    0.9110    1.1280 C   0  0  0  0  0  0  0  0  0  0  0  0
    4.5452    1.1740    2.1959 H   0  0  0  0  0  0  0  0  0  0  0  0
   -1.2028    0.4116    0.5279 S   0  0  2  0  0  3  0  0  0  0  0  0
    0.9070    2.1851    0.5476 C   0  0  0  0  0  0  0  0  0  0  0  0
    1.5476    3.3786    0.1589 C   0  0  0  0  0  0  0  0  0  0  0  0
    2.6171    3.5004    0.3851 H   0  0  0  0  0  0  0  0  0  0  0  0
    0.8361    4.3879   -0.4988 C   0  0  0  0  0  0  0  0  0  0  0  0
    1.3552    5.3118   -0.7947 H   0  0  0  0  0  0  0  0  0  0  0  0
   -0.5352    4.2346   -0.7668 C   0  0  0  0  0  0  0  0  0  0  0  0
   -1.0978    5.0333   -1.2717 H   0  0  0  0  0  0  0  0  0  0  0  0
   -1.1893    3.0513   -0.4043 C   0  0  0  0  0  0  0  0  0  0  0  0
   -2.2530    2.9100   -0.6378 H   0  0  0  0  0  0  0  0  0  0  0  0
   -0.4647    2.0334    0.2379 C   0  0  0  0  0  0  0  0  0  0  0  0
   -2.9092    0.6403   -0.0249 C   0  0  0  0  0  0  0  0  0  0  0  0
   -3.8752    1.0290    0.9136 C   0  0  0  0  0  0  0  0  0  0  0  0
   -3.5792    1.1944    1.9597 H   0  0  0  0  0  0  0  0  0  0  0  0
   -5.2002    1.1726    0.4758 C   0  0  0  0  0  0  0  0  0  0  0  0
   -5.9796    1.4734    1.1919 H   0  0  0  0  0  0  0  0  0  0  0  0
   -5.5313    0.9265   -0.8676 C   0  0  0  0  0  0  0  0  0  0  0  0
   -6.5740    1.0362   -1.2017 H   0  0  0  0  0  0  0  0  0  0  0  0
   -4.5423    0.5305   -1.7840 C   0  0  0  0  0  0  0  0  0  0  0  0
   -4.8077    0.3269   -2.8321 H   0  0  0  0  0  0  0  0  0  0  0  0
   -3.2106    0.3765   -1.3699 C   0  0  0  0  0  0  0  0  0  0  0  0
   -2.4129    0.0576   -2.0645 H   0  0  0  0  0  0  0  0  0  0  0  0
   -1.2986    0.2108    2.1773 N   0  0  0  0  0  0  0  0  0  0  0  0
   -0.8290   -1.0136    2.5367 C   0  0  0  0  0  0  0  0  0  0  0  0
   -0.8663   -1.3115    4.0102 C   0  0  0  0  0  0  0  0  0  0  0  0
   -0.5555   -2.3513    4.2209 H   0  0  0  0  0  0  0  0  0  0  0  0
   -1.8862   -1.1444    4.4075 H   0  0  0  0  0  0  0  0  0  0  0  0
   -0.1875   -0.6148    4.5420 H   0  0  0  0  0  0  0  0  0  0  0  0
   -0.3303   -1.8851    1.6728 N   0  0  0  0  0  2  0  0  0  0  0  0
    0.0205   -2.7848    2.0171 H   0  0  0  0  0  0  0  0  0  0  0  0
  2 11  1  0  0  0  0
  2  1  1  0  0  0  0
  3  2  2  0  0  0  0
  4  3  1  0  0  0  0
  5  7  2  0  0  0  0
  5  3  1  0  0  0  0
  6  5  1  0  0  0  0
  7  9  1  0  0  0  0
  8  7  1  0  0  0  0
  9 10  1  0  0  0  0
  9 11  2  0  0  0  0
 11 12  1  0  0  0  0
 13 35  1  1  0  0  0
 14  1  1  0  0  0  0
 15 16  1  0  0  0  0
 15 14  2  0  0  0  0
 17 15  1  0  0  0  0
 18 17  1  0  0  0  0
 19 17  2  0  0  0  0
 19 21  1  0  0  0  0
 20 19  1  0  0  0  0
 21 23  2  0  0  0  0
 22 21  1  0  0  0  0
 23 13  1  0  0  0  0
 23 14  1  0  0  0  0
 24 13  1  0  0  0  0
 24 25  1  0  0  0  0
 25 26  1  0  0  0  0
 27 25  2  0  0  0  0
 27 28  1  0  0  0  0
 29 27  1  0  0  0  0
 30 29  1  0  0  0  0
 31 33  1  0  0  0  0
 31 29  2  0  0  0  0
 32 31  1  0  0  0  0
 33 24  2  0  0  0  0
 34 33  1  0  0  0  0
 35 36  2  0  0  0  0
 36 37  1  0  0  0  0
 37 38  1  0  0  0  0
 37 39  1  0  0  0  0
 37 40  1  0  0  0  0
 41 42  1  0  0  0  0
 41 36  1  0  0  0  0
M  END
