1,5
 OpenBabel05122313063D

 32 33  0  0  0  0  0  0  0  0999 V2000
   -2.0329   -2.4757   -1.4442 S   0  0  0  0  0  1  0  0  0  0  0  0
   -4.8406   -2.4934   -0.6328 S   0  0  0  0  0  0  0  0  0  0  0  0
    0.8063   -0.0366    1.9893 O   0  0  0  0  0  0  0  0  0  0  0  0
   -3.0027   -1.3665    0.9074 N   0  0  0  0  0  0  0  0  0  0  0  0
   -1.7315   -0.9785    1.1774 N   0  0  0  0  0  2  0  0  0  0  0  0
   -3.1876   -2.0087   -0.2355 C   0  0  0  0  0  0  0  0  0  0  0  0
   -5.8325   -1.6848    0.6962 C   0  0  0  0  0  0  0  0  0  0  0  0
   -6.8061   -2.2130    0.6342 H   0  0  0  0  0  0  0  0  0  0  0  0
   -5.3569   -1.9221    1.6654 H   0  0  0  0  0  0  0  0  0  0  0  0
   -5.9945   -0.1991    0.5004 C   0  0  0  0  0  0  0  0  0  0  0  0
   -6.6940    0.3127   -0.6108 C   0  0  0  0  0  0  0  0  0  0  0  0
   -7.1381   -0.3846   -1.3387 H   0  0  0  0  0  0  0  0  0  0  0  0
   -6.8099    1.6951   -0.8140 C   0  0  0  0  0  0  0  0  0  0  0  0
   -7.3607    2.0698   -1.6915 H   0  0  0  0  0  0  0  0  0  0  0  0
   -6.2287    2.6160    0.0816 C   0  0  0  0  0  0  0  0  0  0  0  0
   -5.5409    2.0990    1.1987 C   0  0  0  0  0  0  0  0  0  0  0  0
   -5.0763    2.7946    1.9158 H   0  0  0  0  0  0  0  0  0  0  0  0
   -5.4240    0.7184    1.4045 C   0  0  0  0  0  0  0  0  0  0  0  0
   -4.8667    0.3345    2.2711 H   0  0  0  0  0  0  0  0  0  0  0  0
   -6.3065    4.1026   -0.1560 C   0  0  0  0  0  0  0  0  0  0  0  0
   -5.3135    4.5092   -0.4459 H   0  0  0  0  0  0  0  0  0  0  0  0
   -6.6190    4.6465    0.7586 H   0  0  0  0  0  0  0  0  0  0  0  0
   -7.0208    4.3523   -0.9644 H   0  0  0  0  0  0  0  0  0  0  0  0
   -1.5560   -0.3702    2.3282 C   0  0  0  0  0  3  0  0  0  0  0  0
   -2.4291   -0.2305    2.9906 H   0  0  0  0  0  0  0  0  0  0  0  0
   -0.2941    0.1146    2.7906 C   0  0  0  0  0  0  0  0  0  0  0  0
    1.8813    0.4591    2.6537 C   0  0  0  0  0  0  0  0  0  0  0  0
    2.8400    0.3679    2.1303 H   0  0  0  0  0  0  0  0  0  0  0  0
    1.4961    0.9478    3.8863 C   0  0  0  0  0  0  0  0  0  0  0  0
    2.1502    1.4027    4.6377 H   0  0  0  0  0  0  0  0  0  0  0  0
    0.0888    0.7295    3.9808 C   0  0  0  0  0  0  0  0  0  0  0  0
   -0.5721    0.9783    4.8183 H   0  0  0  0  0  0  0  0  0  0  0  0
  1  6  1  0  0  0  0
  2  6  1  0  0  0  0
  2  7  1  0  0  0  0
  3 27  1  0  0  0  0
  3 26  1  0  0  0  0
  4  5  1  0  0  0  0
  5 24  1  0  0  0  0
  6  4  2  0  0  0  0
  7  9  1  0  0  0  0
  8  7  1  0  0  0  0
 10  7  1  0  0  0  0
 10 18  1  0  0  0  0
 11 10  2  0  0  0  0
 12 11  1  0  0  0  0
 13 11  1  0  0  0  0
 13 15  2  0  0  0  0
 14 13  1  0  0  0  0
 15 16  1  0  0  0  0
 16 18  2  0  0  0  0
 16 17  1  0  0  0  0
 18 19  1  0  0  0  0
 20 15  1  0  0  0  0
 20 22  1  0  0  0  0
 21 20  1  0  0  0  0
 23 20  1  0  0  0  0
 24 26  1  0  0  0  0
 24 25  1  0  0  0  0
 26 31  2  0  0  0  0
 27 29  2  0  0  0  0
 28 27  1  0  0  0  0
 29 31  1  0  0  0  0
 29 30  1  0  0  0  0
 31 32  1  0  0  0  0
M  END
