1,3
 OpenBabel05122313063D

 10 10  0  0  0  0  0  0  0  0999 V2000
   -0.1148   -1.8619   -1.2471 S   0  0  0  0  0  1  0  0  0  0  0  0
   -1.6343    1.7519    1.5094 O   0  0  0  0  0  0  0  0  0  0  0  0
   -1.1854   -0.0374    0.1267 N   0  0  0  0  0  2  0  0  0  0  0  0
   -2.8105   -1.6259   -0.5764 N   0  0  0  0  0  0  0  0  0  0  0  0
   -1.5860   -1.1616   -0.5229 C   0  0  0  0  0  0  0  0  0  0  0  0
   -2.0590    0.7452    0.8816 C   0  0  0  0  0  0  0  0  0  0  0  0
   -3.4218    0.2669    0.8338 C   0  0  0  0  0  0  0  0  0  0  0  0
   -3.7249   -0.8788    0.1130 C   0  0  0  0  0  0  0  0  0  0  0  0
   -4.1876    0.8290    1.3855 H   0  0  0  0  0  0  0  0  0  0  0  0
   -4.7645   -1.2466    0.0769 H   0  0  0  0  0  0  0  0  0  0  0  0
  1  5  1  0  0  0  0
  3  6  1  0  0  0  0
  4  5  2  0  0  0  0
  4  8  1  0  0  0  0
  5  3  1  0  0  0  0
  6  2  2  0  0  0  0
  7  6  1  0  0  0  0
  7  9  1  0  0  0  0
  8  7  2  0  0  0  0
 10  8  1  0  0  0  0
M  END
