1,2
 OpenBabel05122313063D

 17 17  0  0  0  0  0  0  0  0999 V2000
   -0.4798   -2.7142   -0.2117 S   0  0  0  0  0  3  0  0  0  0  0  0
   -1.6274   -1.7367   -0.9511 N   0  0  0  0  0  2  0  0  0  0  0  0
   -0.6692   -3.0504    1.2715 O   0  0  0  0  0  0  0  0  0  0  0  0
   -2.9885   -1.6005   -0.6401 C   0  0  0  0  0  0  0  0  0  0  0  0
   -3.7803   -0.8146   -1.5132 C   0  0  0  0  0  0  0  0  0  0  0  0
   -3.2937   -0.3611   -2.3894 H   0  0  0  0  0  0  0  0  0  0  0  0
   -5.1408   -0.6188   -1.2621 C   0  0  0  0  0  0  0  0  0  0  0  0
   -5.7349   -0.0047   -1.9591 H   0  0  0  0  0  0  0  0  0  0  0  0
   -5.7736   -1.1989   -0.1397 C   0  0  0  0  0  0  0  0  0  0  0  0
   -4.9778   -1.9830    0.7198 C   0  0  0  0  0  0  0  0  0  0  0  0
   -5.4406   -2.4429    1.6083 H   0  0  0  0  0  0  0  0  0  0  0  0
   -3.6097   -2.1820    0.4910 C   0  0  0  0  0  0  0  0  0  0  0  0
   -2.9964   -2.7649    1.1916 H   0  0  0  0  0  0  0  0  0  0  0  0
   -7.2484   -1.0048    0.1080 C   0  0  0  0  0  0  0  0  0  0  0  0
   -7.8593   -1.6655   -0.5452 H   0  0  0  0  0  0  0  0  0  0  0  0
   -7.5667    0.0365   -0.1040 H   0  0  0  0  0  0  0  0  0  0  0  0
   -7.5204   -1.2392    1.1559 H   0  0  0  0  0  0  0  0  0  0  0  0
  1  3  2  0  0  0  0
  2  4  1  0  0  0  0
  2  1  1  0  0  0  0
  4 12  1  0  0  0  0
  5  7  1  0  0  0  0
  5  4  2  0  0  0  0
  6  5  1  0  0  0  0
  7  9  2  0  0  0  0
  8  7  1  0  0  0  0
  9 14  1  0  0  0  0
  9 10  1  0  0  0  0
 10 11  1  0  0  0  0
 12 10  2  0  0  0  0
 12 13  1  0  0  0  0
 14 17  1  0  0  0  0
 15 14  1  0  0  0  0
 16 14  1  0  0  0  0
M  END
