1,3
 OpenBabel05122313063D

 33 35  0  0  1  0  0  0  0  0999 V2000
    0.5063   -0.9815   -1.4577 S   0  0  0  0  0  1  0  0  0  0  0  0
    2.0598   -0.5545   -0.2462 P   0  0  1  0  0  4  0  0  0  0  0  0
    1.2305    1.9725   -0.4151 N   0  0  0  0  0  2  0  0  0  0  0  0
    2.6172   -0.3514    2.3854 N   0  0  0  0  0  0  0  0  0  0  0  0
    2.3770    1.2568   -0.3363 C   0  0  2  0  0  3  0  0  0  0  0  0
    3.6448    1.8481   -0.3349 C   0  0  0  0  0  0  0  0  0  0  0  0
    3.7210    3.2471   -0.4246 C   0  0  0  0  0  0  0  0  0  0  0  0
    2.5336    3.9871   -0.5031 C   0  0  0  0  0  0  0  0  0  0  0  0
    1.3026    3.3160   -0.4910 C   0  0  0  0  0  0  0  0  0  0  0  0
    1.7141   -0.8690    1.5369 C   0  0  0  0  0  0  0  0  0  0  0  0
    0.5571   -1.5590    1.9238 C   0  0  0  0  0  0  0  0  0  0  0  0
    0.3191   -1.6981    3.2986 C   0  0  0  0  0  0  0  0  0  0  0  0
    1.2437   -1.1553    4.2017 C   0  0  0  0  0  0  0  0  0  0  0  0
    2.3811   -0.4995    3.6991 C   0  0  0  0  0  0  0  0  0  0  0  0
    3.6065   -1.4064   -0.6975 C   0  0  0  0  0  0  0  0  0  0  0  0
    3.7237   -1.9448   -1.9943 C   0  0  0  0  0  0  0  0  0  0  0  0
    4.9120   -2.5857   -2.3727 C   0  0  0  0  0  0  0  0  0  0  0  0
    5.9784   -2.6866   -1.4646 C   0  0  0  0  0  0  0  0  0  0  0  0
    5.8589   -2.1487   -0.1726 C   0  0  0  0  0  0  0  0  0  0  0  0
    4.6747   -1.5077    0.2199 C   0  0  0  0  0  0  0  0  0  0  0  0
    4.5467    1.2241   -0.2664 H   0  0  0  0  0  0  0  0  0  0  0  0
    4.6994    3.7505   -0.4305 H   0  0  0  0  0  0  0  0  0  0  0  0
    2.5494    5.0841   -0.5734 H   0  0  0  0  0  0  0  0  0  0  0  0
    0.3291    3.8353   -0.5136 H   0  0  0  0  0  0  0  0  0  0  0  0
   -0.1411   -1.9386    1.1643 H   0  0  0  0  0  0  0  0  0  0  0  0
   -0.5941   -2.1992    3.6511 H   0  0  0  0  0  0  0  0  0  0  0  0
    1.0860   -1.2288    5.2878 H   0  0  0  0  0  0  0  0  0  0  0  0
    3.1300   -0.0669    4.3845 H   0  0  0  0  0  0  0  0  0  0  0  0
    2.8792   -1.8625   -2.6964 H   0  0  0  0  0  0  0  0  0  0  0  0
    5.0034   -3.0105   -3.3835 H   0  0  0  0  0  0  0  0  0  0  0  0
    6.9090   -3.1914   -1.7651 H   0  0  0  0  0  0  0  0  0  0  0  0
    6.6935   -2.2322    0.5397 H   0  0  0  0  0  0  0  0  0  0  0  0
    4.5648   -1.0854    1.2305 H   0  0  0  0  0  0  0  0  0  0  0  0
  2  1  1  6  0  0  0
  2 10  1  0  0  0  0
  3  5  1  0  0  0  0
  4 14  1  0  0  0  0
  5  6  1  0  0  0  0
  5  2  1  6  0  0  0
  6 21  1  0  0  0  0
  7  6  2  0  0  0  0
  8  9  2  0  0  0  0
  8  7  1  0  0  0  0
  9  3  1  0  0  0  0
 10 11  1  0  0  0  0
 10  4  2  0  0  0  0
 11 12  2  0  0  0  0
 12 26  1  0  0  0  0
 12 13  1  0  0  0  0
 13 27  1  0  0  0  0
 14 13  2  0  0  0  0
 14 28  1  0  0  0  0
 15  2  1  0  0  0  0
 15 20  1  0  0  0  0
 16 15  2  0  0  0  0
 17 16  1  0  0  0  0
 17 18  2  0  0  0  0
 18 19  1  0  0  0  0
 19 20  2  0  0  0  0
 19 32  1  0  0  0  0
 20 33  1  0  0  0  0
 22  7  1  0  0  0  0
 23  8  1  0  0  0  0
 24  9  1  0  0  0  0
 25 11  1  0  0  0  0
 29 16  1  0  0  0  0
 30 17  1  0  0  0  0
 31 18  1  0  0  0  0
M  END
