2,3
 OpenBabel05122313063D

 38 39  0  0  0  0  0  0  0  0999 V2000
   -2.0203   -0.1260   -1.4220 Se  0  0  0  0  0  0  0  0  0  0  0  0
    2.1754    1.4784    0.1646 S   0  0  0  0  0  0  0  0  0  0  0  0
    0.7140   -1.4298   -0.3863 N   0  0  0  0  0  0  0  0  0  0  0  0
    1.2876   -1.6286   -1.2233 H   0  0  0  0  0  0  0  0  0  0  0  0
   -2.9333    0.6829    1.2174 C   0  0  0  0  0  0  0  0  0  0  0  0
   -2.2218    1.5141    1.0916 H   0  0  0  0  0  0  0  0  0  0  0  0
   -3.7416    0.5920    2.3619 C   0  0  0  0  0  0  0  0  0  0  0  0
   -3.6477    1.3552    3.1487 H   0  0  0  0  0  0  0  0  0  0  0  0
   -4.6633   -0.4575    2.5021 C   0  0  0  0  0  0  0  0  0  0  0  0
   -5.2914   -0.5225    3.4027 H   0  0  0  0  0  0  0  0  0  0  0  0
   -4.7943   -1.4177    1.4865 C   0  0  0  0  0  0  0  0  0  0  0  0
   -5.5278   -2.2319    1.5835 H   0  0  0  0  0  0  0  0  0  0  0  0
   -4.0020   -1.3376    0.3302 C   0  0  0  0  0  0  0  0  0  0  0  0
   -4.1396   -2.0787   -0.4715 H   0  0  0  0  0  0  0  0  0  0  0  0
   -3.0645   -0.2958    0.2172 C   0  0  0  0  0  0  0  0  0  0  0  0
   -1.4037   -2.0133   -1.5486 C   0  0  0  0  0  0  0  0  0  0  0  0
   -2.2873   -2.6788   -1.5583 H   0  0  0  0  0  0  0  0  0  0  0  0
   -0.9126   -2.0863   -2.5407 H   0  0  0  0  0  0  0  0  0  0  0  0
   -0.4690   -2.3389   -0.4030 C   0  0  0  0  0  0  0  0  0  0  0  0
   -0.1242   -3.3960   -0.4695 H   0  0  0  0  0  0  0  0  0  0  0  0
   -0.9982   -2.2218    0.5651 H   0  0  0  0  0  0  0  0  0  0  0  0
    1.5746   -1.6642    0.8154 C   0  0  0  0  0  0  0  0  0  0  0  0
    1.5853   -2.7515    1.0408 H   0  0  0  0  0  0  0  0  0  0  0  0
    1.0828   -1.1607    1.6735 H   0  0  0  0  0  0  0  0  0  0  0  0
    2.9994   -1.2076    0.6151 C   0  0  0  0  0  0  0  0  0  0  0  0
    4.0334   -2.1619    0.6908 C   0  0  0  0  0  0  0  0  0  0  0  0
    3.7750   -3.2121    0.8988 H   0  0  0  0  0  0  0  0  0  0  0  0
    5.3782   -1.8036    0.5155 C   0  0  0  0  0  0  0  0  0  0  0  0
    6.1615   -2.5723    0.5860 H   0  0  0  0  0  0  0  0  0  0  0  0
    5.7171   -0.4719    0.2418 C   0  0  0  0  0  0  0  0  0  0  0  0
    6.7674   -0.1814    0.0934 H   0  0  0  0  0  0  0  0  0  0  0  0
    4.7066    0.4959    0.1467 C   0  0  0  0  0  0  0  0  0  0  0  0
    4.9581    1.5421   -0.0839 H   0  0  0  0  0  0  0  0  0  0  0  0
    3.3613    0.1365    0.3458 C   0  0  0  0  0  0  0  0  0  0  0  0
    1.8634    1.9702    1.8995 C   0  0  0  0  0  0  0  0  0  0  0  0
    1.5231    1.1127    2.5084 H   0  0  0  0  0  0  0  0  0  0  0  0
    1.0737    2.7427    1.8343 H   0  0  0  0  0  0  0  0  0  0  0  0
    2.7981    2.3977    2.3080 H   0  0  0  0  0  0  0  0  0  0  0  0
  1 15  1  0  0  0  0
  2 34  1  0  0  0  0
  2 35  1  0  0  0  0
  3 22  1  0  0  0  0
  4  3  1  0  0  0  0
  5  7  1  0  0  0  0
  6  5  1  0  0  0  0
  7  9  2  0  0  0  0
  7  8  1  0  0  0  0
  9 10  1  0  0  0  0
 11 12  1  0  0  0  0
 11  9  1  0  0  0  0
 13 11  2  0  0  0  0
 14 13  1  0  0  0  0
 15 13  1  0  0  0  0
 15  5  2  0  0  0  0
 16  1  1  0  0  0  0
 16 19  1  0  0  0  0
 17 16  1  0  0  0  0
 18 16  1  0  0  0  0
 19  3  1  0  0  0  0
 19 21  1  0  0  0  0
 20 19  1  0  0  0  0
 22 23  1  0  0  0  0
 22 24  1  0  0  0  0
 25 26  1  0  0  0  0
 25 22  1  0  0  0  0
 26 27  1  0  0  0  0
 28 29  1  0  0  0  0
 28 26  2  0  0  0  0
 30 28  1  0  0  0  0
 31 30  1  0  0  0  0
 32 30  2  0  0  0  0
 32 34  1  0  0  0  0
 33 32  1  0  0  0  0
 34 25  2  0  0  0  0
 35 38  1  0  0  0  0
 35 36  1  0  0  0  0
 37 35  1  0  0  0  0
M  END
