1,2
 OpenBabel05122313063D

 20 20  0  0  1  0  0  0  0  0999 V2000
   -0.2673    2.1190   -0.5730 S   0  0  0  0  0  1  0  0  0  0  0  0
    1.8822    0.4366    0.0911 N   0  0  0  0  0  2  0  0  0  0  0  0
    2.2648    1.7291    0.2900 N   0  0  0  0  0  2  0  0  0  0  0  0
    1.5722    3.9232    0.1600 N   0  0  0  0  0  0  0  0  0  0  0  0
    4.9968   -1.5677   -0.2425 C   0  0  0  0  0  0  0  0  0  0  0  0
    4.4313   -2.5000   -0.3979 H   0  0  0  0  0  0  0  0  0  0  0  0
    6.3938   -1.5922   -0.2542 C   0  0  0  0  0  0  0  0  0  0  0  0
    6.9237   -2.5423   -0.4209 H   0  0  0  0  0  0  0  0  0  0  0  0
    7.1183   -0.4049   -0.0514 C   0  0  0  0  0  0  0  0  0  0  0  0
    8.2188   -0.4197   -0.0594 H   0  0  0  0  0  0  0  0  0  0  0  0
    6.4275    0.7995    0.1631 C   0  0  0  0  0  0  0  0  0  0  0  0
    6.9908    1.7315    0.3255 H   0  0  0  0  0  0  0  0  0  0  0  0
    5.0282    0.8330    0.1743 C   0  0  0  0  0  0  0  0  0  0  0  0
    4.4765    1.7643    0.3439 H   0  0  0  0  0  0  0  0  0  0  0  0
    4.2801   -0.3572   -0.0313 C   0  0  0  0  0  0  0  0  0  0  0  0
    2.8287   -0.4748   -0.0474 C   0  0  0  0  0  3  0  0  0  0  0  0
    2.4421   -1.4917   -0.2120 H   0  0  0  0  0  0  0  0  0  0  0  0
    1.3078    2.5983    0.0165 C   0  0  1  0  0  3  0  0  0  0  0  0
    2.5289    4.2197    0.3489 H   0  0  0  0  0  0  0  0  0  0  0  0
    0.8827    4.6094   -0.1354 H   0  0  0  0  0  0  0  0  0  0  0  0
  2  3  1  0  0  0  0
  4 19  1  0  0  0  0
  5 15  1  0  0  0  0
  6  5  1  0  0  0  0
  7  5  2  0  0  0  0
  7  9  1  0  0  0  0
  8  7  1  0  0  0  0
  9 11  2  0  0  0  0
 10  9  1  0  0  0  0
 11 13  1  0  0  0  0
 11 12  1  0  0  0  0
 13 14  1  0  0  0  0
 15 13  2  0  0  0  0
 16 15  1  0  0  0  0
 16  2  1  0  0  0  0
 17 16  1  0  0  0  0
 18  1  1  6  0  0  0
 18  4  1  0  0  0  0
 18  3  1  0  0  0  0
 20  4  1  0  0  0  0
M  END
