1,2
 OpenBabel05122313063D

 35 34  0  0  1  0  0  0  0  0999 V2000
    0.6249    2.2862   -0.1342 S   0  0  0  0  0  1  0  0  0  0  0  0
   -1.9063    0.8619    0.0675 N   0  0  0  0  0  2  0  0  0  0  0  0
   -2.0961    2.2136    0.0577 N   0  0  0  0  0  0  0  0  0  0  0  0
   -0.9949    2.9375   -0.0209 C   0  0  0  0  0  0  0  0  0  0  0  0
   -2.9990    0.1386    0.1321 C   0  0  0  0  0  3  0  0  0  0  0  0
   -2.8584   -0.9522    0.1155 H   0  0  0  0  0  0  0  0  0  0  0  0
   -1.1286    4.2939    0.0054 N   0  0  0  0  0  0  0  0  0  0  0  0
   -2.0685    4.6788   -0.0837 H   0  0  0  0  0  0  0  0  0  0  0  0
   -0.3328    4.8762   -0.2443 H   0  0  0  0  0  0  0  0  0  0  0  0
   -4.3739    0.7128    0.2033 C   0  0  0  0  0  0  0  0  0  0  0  0
   -4.6008    1.2094   -0.7694 H   0  0  0  0  0  0  0  0  0  0  0  0
   -4.3762    1.5495    0.9377 H   0  0  0  0  0  0  0  0  0  0  0  0
   -5.4554   -0.3263    0.5458 C   0  0  2  0  0  0  0  0  0  0  0  0
   -5.3617   -1.1635   -0.1858 H   0  0  0  0  0  0  0  0  0  0  0  0
   -8.0273   -0.6929    0.5256 C   0  0  0  0  0  0  0  0  0  0  0  0
   -7.9969   -1.1335    1.5470 H   0  0  0  0  0  0  0  0  0  0  0  0
   -7.8878   -1.5417   -0.1765 H   0  0  0  0  0  0  0  0  0  0  0  0
   -6.8537    0.2901    0.3662 C   0  0  0  0  0  0  0  0  0  0  0  0
   -6.9727    1.1303    1.0883 H   0  0  0  0  0  0  0  0  0  0  0  0
   -6.9178    0.7515   -0.6433 H   0  0  0  0  0  0  0  0  0  0  0  0
   -5.2382   -0.8968    1.9537 C   0  0  0  0  0  0  0  0  0  0  0  0
   -4.2156   -1.3091    2.0737 H   0  0  0  0  0  0  0  0  0  0  0  0
   -5.9509   -1.7121    2.1873 H   0  0  0  0  0  0  0  0  0  0  0  0
   -5.3669   -0.1024    2.7198 H   0  0  0  0  0  0  0  0  0  0  0  0
  -10.2588   -0.2448   -0.6717 C   0  0  0  0  0  0  0  0  0  0  0  0
   -9.3631   -0.0362    0.3233 C   0  0  0  0  0  0  0  0  0  0  0  0
   -9.6223    0.7316    1.0767 H   0  0  0  0  0  0  0  0  0  0  0  0
  -10.0726   -1.2361   -1.7916 C   0  0  0  0  0  0  0  0  0  0  0  0
  -10.1179   -0.7255   -2.7783 H   0  0  0  0  0  0  0  0  0  0  0  0
  -10.8945   -1.9852   -1.7959 H   0  0  0  0  0  0  0  0  0  0  0  0
   -9.1138   -1.7845   -1.7379 H   0  0  0  0  0  0  0  0  0  0  0  0
  -11.5524    0.5287   -0.7238 C   0  0  0  0  0  0  0  0  0  0  0  0
  -11.6438    1.2446    0.1162 H   0  0  0  0  0  0  0  0  0  0  0  0
  -12.4299   -0.1545   -0.6927 H   0  0  0  0  0  0  0  0  0  0  0  0
  -11.6406    1.0985   -1.6752 H   0  0  0  0  0  0  0  0  0  0  0  0
  1  4  1  0  0  0  0
  2  5  1  0  0  0  0
  3  2  1  0  0  0  0
  4  7  1  0  0  0  0
  4  3  2  0  0  0  0
  5 10  1  0  0  0  0
  6  5  1  0  0  0  0
  8  7  1  0  0  0  0
  9  7  1  0  0  0  0
 10 13  1  0  0  0  0
 10 12  1  0  0  0  0
 11 10  1  0  0  0  0
 13 14  1  6  0  0  0
 13 21  1  0  0  0  0
 15 16  1  0  0  0  0
 17 15  1  0  0  0  0
 18 15  1  0  0  0  0
 18 13  1  0  0  0  0
 18 19  1  0  0  0  0
 20 18  1  0  0  0  0
 21 22  1  0  0  0  0
 21 23  1  0  0  0  0
 21 24  1  0  0  0  0
 25 26  2  0  0  0  0
 26 15  1  0  0  0  0
 26 27  1  0  0  0  0
 28 31  1  0  0  0  0
 28 25  1  0  0  0  0
 29 28  1  0  0  0  0
 30 28  1  0  0  0  0
 32 34  1  0  0  0  0
 32 25  1  0  0  0  0
 32 33  1  0  0  0  0
 35 32  1  0  0  0  0
M  END
