1,2
q = -1.0, confidence = 0.0

 27 28  0  0  0  0  0  0  0  0999 V2000
    1.9485    1.2742   -0.0560 S   0  0  0  0  0  1  0  0  0  0  0  0
    1.3201   -1.5606   -0.0116 N   0  0  0  0  0  2  0  0  0  0  0  0
    3.0490   -0.0798   -0.0131 C   0  0  0  0  0  0  0  0  0  0  0  0
    2.6518   -1.3450    0.0064 N   0  0  0  0  0  0  0  0  0  0  0  0
    0.9507   -2.8325   -0.0400 C   0  0  0  0  0  3  0  0  0  0  0  0
    4.4133    0.0712    0.0430 N   0  0  0  0  0  0  0  0  0  0  0  0
    1.8068   -3.9788   -0.0577 C   0  0  0  0  0  0  0  0  0  0  0  0
   -0.1312   -3.0250   -0.0545 H   0  0  0  0  0  0  0  0  0  0  0  0
    5.2575    1.1873    0.0022 C   0  0  0  0  0  0  0  0  0  0  0  0
    4.8806   -0.8285    0.1869 H   0  0  0  0  0  0  0  0  0  0  0  0
    3.5630   -3.9373   -0.0518 S   0  0  0  0  0  0  0  0  0  0  0  0
    1.3472   -5.3044   -0.0860 C   0  0  0  0  0  0  0  0  0  0  0  0
    4.8756    2.4503   -0.5019 C   0  0  0  0  0  0  0  0  0  0  0  0
    6.5826    1.0086    0.4678 C   0  0  0  0  0  0  0  0  0  0  0  0
    3.6454   -5.6665   -0.0857 C   0  0  0  0  0  0  0  0  0  0  0  0
    2.3915   -6.2608   -0.1015 C   0  0  0  0  0  0  0  0  0  0  0  0
    0.2761   -5.5505   -0.0956 H   0  0  0  0  0  0  0  0  0  0  0  0
    5.7989    3.5048   -0.5106 C   0  0  0  0  0  0  0  0  0  0  0  0
    3.8632    2.5983   -0.8991 H   0  0  0  0  0  0  0  0  0  0  0  0
    7.4957    2.0671    0.4433 C   0  0  0  0  0  0  0  0  0  0  0  0
    6.8881    0.0247    0.8586 H   0  0  0  0  0  0  0  0  0  0  0  0
    4.6230   -6.1658   -0.0929 H   0  0  0  0  0  0  0  0  0  0  0  0
    2.2333   -7.3476   -0.1242 H   0  0  0  0  0  0  0  0  0  0  0  0
    7.1088    3.3281   -0.0400 C   0  0  0  0  0  0  0  0  0  0  0  0
    5.4839    4.4823   -0.9067 H   0  0  0  0  0  0  0  0  0  0  0  0
    8.5197    1.9046    0.8124 H   0  0  0  0  0  0  0  0  0  0  0  0
    7.8246    4.1629   -0.0543 H   0  0  0  0  0  0  0  0  0  0  0  0
  1  3  1  0  0  0  0
  2  4  1  0  0  0  0
  3  4  2  0  0  0  0
  3  6  1  0  0  0  0
  5  2  1  0  0  0  0
  6 10  1  0  0  0  0
  7 11  1  0  0  0  0
  7  5  1  0  0  0  0
  8  5  1  0  0  0  0
  9  6  1  0  0  0  0
  9 14  1  0  0  0  0
 12  7  2  0  0  0  0
 13  9  2  0  0  0  0
 14 21  1  0  0  0  0
 15 11  1  0  0  0  0
 16 12  1  0  0  0  0
 16 15  2  0  0  0  0
 17 12  1  0  0  0  0
 18 13  1  0  0  0  0
 18 24  2  0  0  0  0
 19 13  1  0  0  0  0
 20 14  2  0  0  0  0
 20 26  1  0  0  0  0
 22 15  1  0  0  0  0
 23 16  1  0  0  0  0
 24 20  1  0  0  0  0
 25 18  1  0  0  0  0
 27 24  1  0  0  0  0
M  END
