1,3
q = 0.0, confidence = 1.0

 39 41  0  0  1  0  0  0  0  0999 V2000
    0.2944   -0.9987   -1.6581 S   0  0  0  0  0  1  0  0  0  0  0  0
    1.2955   -0.1224   -0.1524 P   0  0  0  0  0  4  0  0  0  0  0  0
   -1.4171    0.1550    1.0282 N   0  0  0  0  0  2  0  0  0  0  0  0
    0.8039   -0.6397    1.4134 N   0  0  0  0  0  0  0  0  0  0  0  0
   -0.3963   -0.0854    1.9151 C   0  0  1  0  0  3  0  0  0  0  0  0
   -0.5105    0.2466    3.2727 C   0  0  0  0  0  0  0  0  0  0  0  0
    0.3418    0.0331    3.9336 H   0  0  0  0  0  0  0  0  0  0  0  0
   -1.6772    0.8489    3.7577 C   0  0  0  0  0  0  0  0  0  0  0  0
   -1.7787    1.1016    4.8224 H   0  0  0  0  0  0  0  0  0  0  0  0
   -2.6913    1.1580    2.8324 C   0  0  0  0  0  0  0  0  0  0  0  0
   -3.6150    1.6674    3.1418 H   0  0  0  0  0  0  0  0  0  0  0  0
   -2.5244    0.8253    1.4932 C   0  0  0  0  0  0  0  0  0  0  0  0
   -3.2790    1.0652    0.7299 H   0  0  0  0  0  0  0  0  0  0  0  0
    3.0665   -0.5364   -0.2539 C   0  0  0  0  0  0  0  0  0  0  0  0
    3.4616   -1.7103   -0.9297 C   0  0  0  0  0  0  0  0  0  0  0  0
    2.6928   -2.3561   -1.3820 H   0  0  0  0  0  0  0  0  0  0  0  0
    4.8208   -2.0399   -1.0195 C   0  0  0  0  0  0  0  0  0  0  0  0
    5.1247   -2.9556   -1.5484 H   0  0  0  0  0  0  0  0  0  0  0  0
    5.7891   -1.2055   -0.4374 C   0  0  0  0  0  0  0  0  0  0  0  0
    6.8557   -1.4668   -0.5089 H   0  0  0  0  0  0  0  0  0  0  0  0
    5.3969   -0.0339    0.2312 C   0  0  0  0  0  0  0  0  0  0  0  0
    6.1547    0.6264    0.6794 H   0  0  0  0  0  0  0  0  0  0  0  0
    4.0402    0.3060    0.3235 C   0  0  0  0  0  0  0  0  0  0  0  0
    3.7390    1.2337    0.8315 H   0  0  0  0  0  0  0  0  0  0  0  0
    1.0989    1.6791   -0.0844 C   0  0  0  0  0  0  0  0  0  0  0  0
    0.7244    2.3644   -1.2550 C   0  0  0  0  0  0  0  0  0  0  0  0
    0.4998    1.7943   -2.1687 H   0  0  0  0  0  0  0  0  0  0  0  0
    0.6034    3.7603   -1.2297 C   0  0  0  0  0  0  0  0  0  0  0  0
    0.2916    4.2922   -2.1405 H   0  0  0  0  0  0  0  0  0  0  0  0
    0.8580    4.4706   -0.0458 C   0  0  0  0  0  0  0  0  0  0  0  0
    0.7571    5.5664   -0.0297 H   0  0  0  0  0  0  0  0  0  0  0  0
    1.2306    3.7853    1.1227 C   0  0  0  0  0  0  0  0  0  0  0  0
    1.4202    4.3404    2.0538 H   0  0  0  0  0  0  0  0  0  0  0  0
    1.3507    2.3888    1.1104 C   0  0  0  0  0  0  0  0  0  0  0  0
    1.6223    1.8477    2.0282 H   0  0  0  0  0  0  0  0  0  0  0  0
    1.1726   -1.9951    1.8508 C   0  0  0  0  0  0  0  0  0  0  0  0
    1.0899   -2.0548    2.9529 H   0  0  0  0  0  0  0  0  0  0  0  0
    2.2241   -2.1982    1.5736 H   0  0  0  0  0  0  0  0  0  0  0  0
    0.5026   -2.7574    1.3962 H   0  0  0  0  0  0  0  0  0  0  0  0
  1  2  1  0  0  0  0
  2 25  1  0  0  0  0
  2  4  1  0  0  0  0
  3 12  1  0  0  0  0
  3  5  1  0  0  0  0
  4 36  1  0  0  0  0
  5  4  1  6  0  0  0
  5  6  1  0  0  0  0
  6  8  2  0  0  0  0
  6  7  1  0  0  0  0
  8  9  1  0  0  0  0
 10 11  1  0  0  0  0
 10  8  1  0  0  0  0
 12 10  2  0  0  0  0
 13 12  1  0  0  0  0
 14  2  1  0  0  0  0
 14 23  1  0  0  0  0
 15 14  2  0  0  0  0
 16 15  1  0  0  0  0
 17 15  1  0  0  0  0
 17 19  2  0  0  0  0
 18 17  1  0  0  0  0
 19 21  1  0  0  0  0
 20 19  1  0  0  0  0
 21 23  2  0  0  0  0
 21 22  1  0  0  0  0
 23 24  1  0  0  0  0
 25 34  1  0  0  0  0
 26 28  1  0  0  0  0
 26 25  2  0  0  0  0
 27 26  1  0  0  0  0
 28 30  2  0  0  0  0
 29 28  1  0  0  0  0
 30 31  1  0  0  0  0
 30 32  1  0  0  0  0
 32 33  1  0  0  0  0
 34 32  2  0  0  0  0
 34 35  1  0  0  0  0
 36 37  1  0  0  0  0
 38 36  1  0  0  0  0
 39 36  1  0  0  0  0
M  END
