1,4
q = -1.0, confidence = 0.01

 39 39  0  0  0  0  0  0  0  0999 V2000
   -0.6345   -2.0626   -0.7785 S   0  0  0  0  0  1  0  0  0  0  0  0
   -3.2022   -2.7216   -1.0518 N   0  0  0  0  0  0  0  0  0  0  0  0
   -2.8113   -0.4859   -0.4825 N   0  0  0  0  0  0  0  0  0  0  0  0
   -1.8369    0.4152   -0.1717 N   0  0  0  0  0  2  0  0  0  0  0  0
   -2.3487   -1.6852   -0.7618 C   0  0  0  0  0  0  0  0  0  0  0  0
   -2.2535    1.5343    0.4096 C   0  0  0  0  0  0  0  0  0  0  0  0
   -3.6250    1.8025    0.7448 C   0  0  0  0  0  0  0  0  0  0  0  0
   -4.0574    2.9691    1.2970 C   0  0  0  0  0  3  0  0  0  0  0  0
   -5.4840    3.2769    1.6385 C   0  0  0  0  0  0  0  0  0  0  0  0
   -6.5066    2.1992    1.2741 C   0  0  0  0  0  0  0  0  0  0  0  0
   -7.9497    2.5642    1.6273 C   0  0  0  0  0  0  0  0  0  0  0  0
   -8.9613    1.4860    1.2247 C   0  0  0  0  0  0  0  0  0  0  0  0
  -10.4049    1.8332    1.5888 C   0  0  0  0  0  0  0  0  0  0  0  0
  -11.1100    1.0348    1.2815 H   0  0  0  0  0  0  0  0  0  0  0  0
  -10.7300    2.7739    1.0969 H   0  0  0  0  0  0  0  0  0  0  0  0
  -10.5207    1.9779    2.6833 H   0  0  0  0  0  0  0  0  0  0  0  0
   -4.6032   -2.7934   -1.0446 C   0  0  0  0  0  0  0  0  0  0  0  0
   -5.4478   -1.6727   -0.8719 C   0  0  0  0  0  0  0  0  0  0  0  0
   -4.9910   -0.6841   -0.7534 H   0  0  0  0  0  0  0  0  0  0  0  0
   -6.8389   -1.8460   -0.8621 C   0  0  0  0  0  0  0  0  0  0  0  0
   -7.4817   -0.9629   -0.7195 H   0  0  0  0  0  0  0  0  0  0  0  0
   -7.4162   -3.1139   -1.0315 C   0  0  0  0  0  0  0  0  0  0  0  0
   -8.5092   -3.2368   -1.0222 H   0  0  0  0  0  0  0  0  0  0  0  0
   -6.5770   -4.2253   -1.2176 C   0  0  0  0  0  0  0  0  0  0  0  0
   -7.0079   -5.2284   -1.3568 H   0  0  0  0  0  0  0  0  0  0  0  0
   -5.1870   -4.0707   -1.2233 C   0  0  0  0  0  0  0  0  0  0  0  0
   -4.5359   -4.9492   -1.3624 H   0  0  0  0  0  0  0  0  0  0  0  0
   -2.7229   -3.6038   -1.2395 H   0  0  0  0  0  0  0  0  0  0  0  0
   -1.4739    2.2780    0.6326 H   0  0  0  0  0  0  0  0  0  0  0  0
   -4.3370    0.9949    0.5259 H   0  0  0  0  0  0  0  0  0  0  0  0
   -3.3180    3.7634    1.5099 H   0  0  0  0  0  0  0  0  0  0  0  0
   -5.5465    3.5063    2.7295 H   0  0  0  0  0  0  0  0  0  0  0  0
   -5.7620    4.2410    1.1499 H   0  0  0  0  0  0  0  0  0  0  0  0
   -6.4394    1.9875    0.1838 H   0  0  0  0  0  0  0  0  0  0  0  0
   -6.2374    1.2462    1.7806 H   0  0  0  0  0  0  0  0  0  0  0  0
   -8.0290    2.7539    2.7220 H   0  0  0  0  0  0  0  0  0  0  0  0
   -8.2224    3.5263    1.1368 H   0  0  0  0  0  0  0  0  0  0  0  0
   -8.8834    1.3097    0.1281 H   0  0  0  0  0  0  0  0  0  0  0  0
   -8.6738    0.5222    1.7012 H   0  0  0  0  0  0  0  0  0  0  0  0
  1  5  1  0  0  0  0
  2 17  1  0  0  0  0
  2  5  1  0  0  0  0
  3  4  1  0  0  0  0
  4  6  1  0  0  0  0
  5  3  2  0  0  0  0
  6 29  1  0  0  0  0
  6  7  2  0  0  0  0
  7  8  1  0  0  0  0
  8 31  1  0  0  0  0
  8  9  1  0  0  0  0
  9 32  1  0  0  0  0
 10 11  1  0  0  0  0
 10  9  1  0  0  0  0
 10 35  1  0  0  0  0
 11 36  1  0  0  0  0
 12 13  1  0  0  0  0
 12 11  1  0  0  0  0
 12 39  1  0  0  0  0
 13 16  1  0  0  0  0
 14 13  1  0  0  0  0
 15 13  1  0  0  0  0
 17 18  1  0  0  0  0
 18 20  2  0  0  0  0
 18 19  1  0  0  0  0
 20 21  1  0  0  0  0
 22 23  1  0  0  0  0
 22 20  1  0  0  0  0
 24 22  2  0  0  0  0
 25 24  1  0  0  0  0
 26 24  1  0  0  0  0
 26 17  2  0  0  0  0
 27 26  1  0  0  0  0
 28  2  1  0  0  0  0
 30  7  1  0  0  0  0
 33  9  1  0  0  0  0
 34 10  1  0  0  0  0
 37 11  1  0  0  0  0
 38 12  1  0  0  0  0
M  END
