2,3
q = 0.0, confidence = 0.99

 56 57  0  0  1  0  0  0  0  0999 V2000
    4.4890   -0.2765   -0.1008 S   0  0  0  0  0  0  0  0  0  0  0  0
    0.3087    1.9900   -1.0533 S   0  0  0  0  0  0  0  0  0  0  0  0
    0.8670   -2.2645    0.0085 N   0  0  2  0  0  0  0  0  0  0  0  0
   -2.7218    1.2255    0.0737 N   0  0  1  0  0  0  0  0  0  0  0  0
    0.3182   -3.0943    1.0991 C   0  0  0  0  0  0  0  0  0  0  0  0
    0.2108   -2.3660    2.4513 C   0  0  0  0  0  0  0  0  0  0  0  0
   -0.5965   -1.1465    2.4074 C   0  0  0  0  0  0  0  0  0  0  0  0
   -1.3011   -0.1371    2.4309 C   0  0  0  0  0  0  0  0  0  0  0  0
   -2.2135    1.0008    2.5337 C   0  0  0  0  0  0  0  0  0  0  0  0
   -3.2790    1.0392    1.4211 C   0  0  0  0  0  0  0  0  0  0  0  0
   -3.6404    0.7723   -0.9810 C   0  0  0  0  0  0  0  0  0  0  0  0
   -3.8422   -0.7505   -1.0485 C   0  0  0  0  0  0  0  0  0  0  0  0
   -2.6340   -1.5428   -1.2754 C   0  0  0  0  0  0  0  0  0  0  0  0
   -1.6936   -2.3079   -1.4858 C   0  0  0  0  0  0  0  0  0  0  0  0
   -0.6734   -3.3345   -1.7054 C   0  0  0  0  0  0  0  0  0  0  0  0
    0.7604   -2.9444   -1.2979 C   0  0  0  0  0  0  0  0  0  0  0  0
    2.2754   -1.9003    0.3045 C   0  0  0  0  0  0  0  0  0  0  0  0
    2.9734   -1.0589   -0.7646 C   0  0  0  0  0  0  0  0  0  0  0  0
    3.7153    1.2142    0.6334 C   0  0  0  0  0  0  0  0  0  0  0  0
    3.4167    2.3002   -0.4049 C   0  0  0  0  0  0  0  0  0  0  0  0
    2.4555    3.3988    0.0683 C   0  0  0  0  0  0  0  0  0  0  0  0
    1.0403    2.9089    0.3854 C   0  0  0  0  0  0  0  0  0  0  0  0
   -1.3006    2.8358   -1.2611 C   0  0  0  0  0  0  0  0  0  0  0  0
   -2.3158    2.6189   -0.1406 C   0  0  0  0  0  0  0  0  0  0  0  0
   -0.6978   -3.4204    0.8065 H   0  0  0  0  0  0  0  0  0  0  0  0
    0.9395   -4.0115    1.2398 H   0  0  0  0  0  0  0  0  0  0  0  0
    1.2164   -2.1338    2.8611 H   0  0  0  0  0  0  0  0  0  0  0  0
   -0.2458   -3.0736    3.1761 H   0  0  0  0  0  0  0  0  0  0  0  0
   -2.7392    0.9517    3.5116 H   0  0  0  0  0  0  0  0  0  0  0  0
   -1.6363    1.9508    2.5573 H   0  0  0  0  0  0  0  0  0  0  0  0
   -4.0202    1.8399    1.6609 H   0  0  0  0  0  0  0  0  0  0  0  0
   -3.8294    0.0797    1.4432 H   0  0  0  0  0  0  0  0  0  0  0  0
   -4.6429    1.2539   -0.8687 H   0  0  0  0  0  0  0  0  0  0  0  0
   -3.2337    1.1090   -1.9544 H   0  0  0  0  0  0  0  0  0  0  0  0
   -4.5615   -0.9539   -1.8709 H   0  0  0  0  0  0  0  0  0  0  0  0
   -4.3429   -1.1196   -0.1271 H   0  0  0  0  0  0  0  0  0  0  0  0
   -0.6480   -3.6108   -2.7812 H   0  0  0  0  0  0  0  0  0  0  0  0
   -0.9940   -4.2568   -1.1749 H   0  0  0  0  0  0  0  0  0  0  0  0
    1.1699   -2.2566   -2.0615 H   0  0  0  0  0  0  0  0  0  0  0  0
    1.3894   -3.8673   -1.3148 H   0  0  0  0  0  0  0  0  0  0  0  0
    2.2774   -1.3258    1.2509 H   0  0  0  0  0  0  0  0  0  0  0  0
    2.8770   -2.8230    0.4917 H   0  0  0  0  0  0  0  0  0  0  0  0
    2.2952   -0.2676   -1.1536 H   0  0  0  0  0  0  0  0  0  0  0  0
    3.2994   -1.6653   -1.6318 H   0  0  0  0  0  0  0  0  0  0  0  0
    4.4240    1.5758    1.4059 H   0  0  0  0  0  0  0  0  0  0  0  0
    2.8014    0.8914    1.1790 H   0  0  0  0  0  0  0  0  0  0  0  0
    2.9895    1.8309   -1.3188 H   0  0  0  0  0  0  0  0  0  0  0  0
    4.3719    2.7566   -0.7337 H   0  0  0  0  0  0  0  0  0  0  0  0
    2.8500    3.8955    0.9822 H   0  0  0  0  0  0  0  0  0  0  0  0
    2.3972    4.1844   -0.7136 H   0  0  0  0  0  0  0  0  0  0  0  0
    0.3651    3.7613    0.5993 H   0  0  0  0  0  0  0  0  0  0  0  0
    1.0166    2.2367    1.2656 H   0  0  0  0  0  0  0  0  0  0  0  0
   -1.0993    3.9194   -1.3818 H   0  0  0  0  0  0  0  0  0  0  0  0
   -1.6720    2.4727   -2.2407 H   0  0  0  0  0  0  0  0  0  0  0  0
   -3.2058    3.2632   -0.3539 H   0  0  0  0  0  0  0  0  0  0  0  0
   -1.8831    3.0047    0.8037 H   0  0  0  0  0  0  0  0  0  0  0  0
  1 19  1  0  0  0  0
  2 22  1  0  0  0  0
  3 16  1  6  0  0  0
  3 17  1  0  0  0  0
  3  5  1  0  0  0  0
  4 11  1  6  0  0  0
  4 10  1  0  0  0  0
  5 26  1  0  0  0  0
  5  6  1  0  0  0  0
  6 27  1  0  0  0  0
  6 28  1  0  0  0  0
  7  8  3  0  0  0  0
  7  6  1  0  0  0  0
  8  9  1  0  0  0  0
  9 30  1  0  0  0  0
  9 29  1  0  0  0  0
 10 32  1  0  0  0  0
 10 31  1  0  0  0  0
 10  9  1  0  0  0  0
 11 33  1  0  0  0  0
 12 11  1  0  0  0  0
 12 36  1  0  0  0  0
 13 12  1  0  0  0  0
 14 13  3  0  0  0  0
 15 14  1  0  0  0  0
 15 16  1  0  0  0  0
 15 38  1  0  0  0  0
 17 42  1  0  0  0  0
 17 41  1  0  0  0  0
 18  1  1  0  0  0  0
 18 17  1  0  0  0  0
 19 46  1  0  0  0  0
 19 45  1  0  0  0  0
 20 21  1  0  0  0  0
 20 19  1  0  0  0  0
 21 22  1  0  0  0  0
 21 49  1  0  0  0  0
 22 51  1  0  0  0  0
 22 52  1  0  0  0  0
 23  2  1  0  0  0  0
 23 24  1  0  0  0  0
 24  4  1  0  0  0  0
 24 56  1  0  0  0  0
 25  5  1  0  0  0  0
 34 11  1  0  0  0  0
 35 12  1  0  0  0  0
 37 15  1  0  0  0  0
 39 16  1  0  0  0  0
 40 16  1  0  0  0  0
 43 18  1  0  0  0  0
 44 18  1  0  0  0  0
 47 20  1  0  0  0  0
 48 20  1  0  0  0  0
 50 21  1  0  0  0  0
 53 23  1  0  0  0  0
 54 23  1  0  0  0  0
 55 24  1  0  0  0  0
M  END
