1,2
q = -1.0, confidence = 0.0

 33 33  0  0  1  0  0  0  0  0999 V2000
   -0.0713   -2.1273   -0.6001 S   0  0  0  0  0  1  0  0  0  0  0  0
   -1.9166   -0.0963    0.0035 N   0  0  0  0  0  2  0  0  0  0  0  0
   -2.5446   -1.3132    0.0927 N   0  0  0  0  0  2  0  0  0  0  0  0
   -2.7096    0.9647   -0.0843 C   0  0  0  0  0  3  0  0  0  0  0  0
   -2.1958    1.9307   -0.1781 H   0  0  0  0  0  0  0  0  0  0  0  0
   -4.9228   -0.1290    0.0276 N   0  0  0  0  0  0  0  0  0  0  0  0
   -4.4855   -1.0581    0.1230 H   0  0  0  0  0  0  0  0  0  0  0  0
   -8.5070   -0.4058    0.0697 O   0  0  0  0  0  0  0  0  0  0  0  0
   -1.7498   -2.3365   -0.1644 C   0  0  1  0  0  3  0  0  0  0  0  0
   -2.2664   -3.5928   -0.1200 N   0  0  0  0  0  0  0  0  0  0  0  0
   -3.2755   -3.7133   -0.0313 H   0  0  0  0  0  0  0  0  0  0  0  0
   -1.6980   -4.3785   -0.4257 H   0  0  0  0  0  0  0  0  0  0  0  0
   -4.1383    0.9883   -0.0783 C   0  0  0  0  0  0  0  0  0  0  0  0
   -6.9360   -2.0548    0.1986 O   0  0  0  0  0  0  0  0  0  0  0  0
   -6.2440    0.2121    0.0058 C   0  0  0  0  0  0  0  0  0  0  0  0
   -6.3377    1.6250   -0.1200 C   0  0  0  0  0  0  0  0  0  0  0  0
   -5.0080    2.1179   -0.1724 C   0  0  0  0  0  0  0  0  0  0  0  0
   -7.2273   -0.8672    0.1023 C   0  0  0  0  0  0  0  0  0  0  0  0
   -7.5969    2.4329   -0.1924 C   0  0  0  0  0  0  0  0  0  0  0  0
   -7.3793    3.5175   -0.1529 H   0  0  0  0  0  0  0  0  0  0  0  0
   -8.1543    2.2336   -1.1314 H   0  0  0  0  0  0  0  0  0  0  0  0
   -8.2892    2.1814    0.6350 H   0  0  0  0  0  0  0  0  0  0  0  0
   -9.5322   -1.4127    0.1580 C   0  0  0  0  0  0  0  0  0  0  0  0
   -9.3996   -2.1378   -0.6735 H   0  0  0  0  0  0  0  0  0  0  0  0
   -9.3962   -1.9867    1.0997 H   0  0  0  0  0  0  0  0  0  0  0  0
   -4.5804    3.5465   -0.3172 C   0  0  0  0  0  0  0  0  0  0  0  0
   -3.5451    3.7064    0.0424 H   0  0  0  0  0  0  0  0  0  0  0  0
   -4.6158    3.8859   -1.3751 H   0  0  0  0  0  0  0  0  0  0  0  0
   -5.2383    4.2266    0.2607 H   0  0  0  0  0  0  0  0  0  0  0  0
  -10.8760   -0.7153    0.1010 C   0  0  0  0  0  0  0  0  0  0  0  0
  -11.6942   -1.4599    0.1620 H   0  0  0  0  0  0  0  0  0  0  0  0
  -10.9917   -0.0041    0.9430 H   0  0  0  0  0  0  0  0  0  0  0  0
  -10.9911   -0.1508   -0.8458 H   0  0  0  0  0  0  0  0  0  0  0  0
  2  3  1  0  0  0  0
  4 13  1  0  0  0  0
  4  2  1  0  0  0  0
  5  4  1  0  0  0  0
  6  7  1  0  0  0  0
  8 18  1  0  0  0  0
  8 23  1  0  0  0  0
  9  1  1  6  0  0  0
  9 10  1  0  0  0  0
  9  3  1  0  0  0  0
 10 11  1  0  0  0  0
 12 10  1  0  0  0  0
 13  6  1  0  0  0  0
 15  6  1  0  0  0  0
 15 18  1  0  0  0  0
 16 15  2  0  0  0  0
 17 16  1  0  0  0  0
 17 13  2  0  0  0  0
 18 14  2  0  0  0  0
 19 20  1  0  0  0  0
 19 16  1  0  0  0  0
 19 22  1  0  0  0  0
 21 19  1  0  0  0  0
 23 25  1  0  0  0  0
 24 23  1  0  0  0  0
 26 17  1  0  0  0  0
 26 27  1  0  0  0  0
 26 29  1  0  0  0  0
 28 26  1  0  0  0  0
 30 23  1  0  0  0  0
 30 31  1  0  0  0  0
 30 32  1  0  0  0  0
 33 30  1  0  0  0  0
M  END
