1,2
q = -1.0, confidence = 0.0

 30 31  0  0  0  0  0  0  0  0999 V2000
    0.9436   -1.9281    0.5315 S   0  0  0  0  0  1  0  0  0  0  0  0
    1.7687    0.6959   -0.0825 N   0  0  0  0  0  2  0  0  0  0  0  0
    2.8636   -0.0361    0.2594 N   0  0  0  0  0  0  0  0  0  0  0  0
    3.5553   -2.1804    0.9142 N   0  0  0  0  0  0  0  0  0  0  0  0
    3.1914   -3.0662    1.2701 H   0  0  0  0  0  0  0  0  0  0  0  0
    4.4761    2.3002   -0.4070 C   0  0  0  0  0  0  0  0  0  0  0  0
    4.5791    1.4422    0.2661 H   0  0  0  0  0  0  0  0  0  0  0  0
    5.5806    3.0940   -0.7368 C   0  0  0  0  0  0  0  0  0  0  0  0
    6.5672    2.8423   -0.3179 H   0  0  0  0  0  0  0  0  0  0  0  0
    5.4405    4.2014   -1.5903 C   0  0  0  0  0  0  0  0  0  0  0  0
    6.3162    4.8147   -1.8517 H   0  0  0  0  0  0  0  0  0  0  0  0
    4.1720    4.5279   -2.1004 C   0  0  0  0  0  0  0  0  0  0  0  0
    4.0491    5.3997   -2.7607 H   0  0  0  0  0  0  0  0  0  0  0  0
    3.0617    3.7484   -1.7643 C   0  0  0  0  0  0  0  0  0  0  0  0
    2.0671    4.0131   -2.1568 H   0  0  0  0  0  0  0  0  0  0  0  0
    3.1904    2.6081   -0.9251 C   0  0  0  0  0  0  0  0  0  0  0  0
    1.9614    1.8840   -0.6352 C   0  0  0  0  0  3  0  0  0  0  0  0
    1.0303    2.3941   -0.9225 H   0  0  0  0  0  0  0  0  0  0  0  0
    2.5746   -1.2894    0.5580 C   0  0  0  0  0  0  0  0  0  0  0  0
    4.9552   -2.0767    0.8695 C   0  0  0  0  0  0  0  0  0  0  0  0
    5.7064   -3.0047    1.6269 C   0  0  0  0  0  0  0  0  0  0  0  0
    5.1818   -3.7525    2.2430 H   0  0  0  0  0  0  0  0  0  0  0  0
    7.1053   -2.9716    1.6028 C   0  0  0  0  0  0  0  0  0  0  0  0
    7.6722   -3.7008    2.2012 H   0  0  0  0  0  0  0  0  0  0  0  0
    7.7810   -2.0136    0.8293 C   0  0  0  0  0  0  0  0  0  0  0  0
    8.8805   -1.9840    0.8163 H   0  0  0  0  0  0  0  0  0  0  0  0
    7.0342   -1.0995    0.0693 C   0  0  0  0  0  0  0  0  0  0  0  0
    7.5471   -0.3509   -0.5544 H   0  0  0  0  0  0  0  0  0  0  0  0
    5.6334   -1.1243    0.0786 C   0  0  0  0  0  0  0  0  0  0  0  0
    5.0529   -0.4192   -0.5265 H   0  0  0  0  0  0  0  0  0  0  0  0
  1 19  1  0  0  0  0
  2  3  1  0  0  0  0
  3 19  2  0  0  0  0
  4  5  1  0  0  0  0
  6  7  1  0  0  0  0
  8  6  1  0  0  0  0
  8  9  1  0  0  0  0
 10  8  2  0  0  0  0
 11 10  1  0  0  0  0
 12 14  2  0  0  0  0
 12 10  1  0  0  0  0
 13 12  1  0  0  0  0
 14 16  1  0  0  0  0
 15 14  1  0  0  0  0
 16 17  1  0  0  0  0
 16  6  2  0  0  0  0
 17  2  1  0  0  0  0
 18 17  1  0  0  0  0
 19  4  1  0  0  0  0
 20  4  1  0  0  0  0
 20 21  1  0  0  0  0
 21 22  1  0  0  0  0
 23 21  2  0  0  0  0
 23 24  1  0  0  0  0
 25 23  1  0  0  0  0
 26 25  1  0  0  0  0
 27 29  1  0  0  0  0
 27 25  2  0  0  0  0
 28 27  1  0  0  0  0
 29 20  2  0  0  0  0
 30 29  1  0  0  0  0
M  END
