1,2
q = -1.0, confidence = 0.0

 24 25  0  0  0  0  0  0  0  0999 V2000
   -0.4857   -2.9237   -1.8385 S   0  0  0  0  0  1  0  0  0  0  0  0
    1.5228   -0.9797   -0.7533 N   0  0  0  0  0  2  0  0  0  0  0  0
    1.6384   -1.1336   -2.0925 N   0  0  0  0  0  0  0  0  0  0  0  0
    0.8838   -2.1769   -3.9809 N   0  0  0  0  0  0  0  0  0  0  0  0
    0.1882   -2.7383   -4.4655 H   0  0  0  0  0  0  0  0  0  0  0  0
    1.5342   -1.5939   -4.5066 H   0  0  0  0  0  0  0  0  0  0  0  0
    5.0063    1.5142   -1.9812 N   0  0  0  0  0  0  0  0  0  0  0  0
    5.5202    1.7617   -2.8251 H   0  0  0  0  0  0  0  0  0  0  0  0
    0.7740   -1.9876   -2.6363 C   0  0  0  0  0  0  0  0  0  0  0  0
    2.3661   -0.2070   -0.1056 C   0  0  0  0  0  3  0  0  0  0  0  0
    2.1842   -0.1712    0.9819 H   0  0  0  0  0  0  0  0  0  0  0  0
    3.4678    0.5577   -0.6218 C   0  0  0  0  0  0  0  0  0  0  0  0
    3.9193    0.6751   -1.9434 C   0  0  0  0  0  0  0  0  0  0  0  0
    3.5059    0.1942   -2.8333 H   0  0  0  0  0  0  0  0  0  0  0  0
    5.3061    1.9722   -0.7069 C   0  0  0  0  0  0  0  0  0  0  0  0
    4.3526    1.3877    0.1838 C   0  0  0  0  0  0  0  0  0  0  0  0
    6.3196    2.8381   -0.2646 C   0  0  0  0  0  0  0  0  0  0  0  0
    7.0447    3.2782   -0.9659 H   0  0  0  0  0  0  0  0  0  0  0  0
    6.3725    3.1201    1.1054 C   0  0  0  0  0  0  0  0  0  0  0  0
    7.1535    3.7942    1.4880 H   0  0  0  0  0  0  0  0  0  0  0  0
    5.4392    2.5524    2.0060 C   0  0  0  0  0  0  0  0  0  0  0  0
    5.5103    2.7947    3.0770 H   0  0  0  0  0  0  0  0  0  0  0  0
    4.4318    1.6904    1.5588 C   0  0  0  0  0  0  0  0  0  0  0  0
    3.7140    1.2552    2.2706 H   0  0  0  0  0  0  0  0  0  0  0  0
  2 10  1  0  0  0  0
  3  2  1  0  0  0  0
  4  9  1  0  0  0  0
  5  4  1  0  0  0  0
  6  4  1  0  0  0  0
  7 13  1  0  0  0  0
  7 15  1  0  0  0  0
  8  7  1  0  0  0  0
  9  3  2  0  0  0  0
  9  1  1  0  0  0  0
 10 11  1  0  0  0  0
 12 10  1  0  0  0  0
 12 16  1  0  0  0  0
 13 12  2  0  0  0  0
 14 13  1  0  0  0  0
 15 17  2  0  0  0  0
 15 16  1  0  0  0  0
 16 23  2  0  0  0  0
 17 19  1  0  0  0  0
 18 17  1  0  0  0  0
 19 20  1  0  0  0  0
 19 21  2  0  0  0  0
 21 22  1  0  0  0  0
 23 21  1  0  0  0  0
 23 24  1  0  0  0  0
M  END
