1,5
q = -2.0, confidence = 0.692

 17 17  0  0  0  0  0  0  0  0999 V2000
    1.8021   -0.6411   -1.1438 S   0  0  0  0  0  1  0  0  0  0  0  0
    2.6679   -1.0355    1.3334 N   0  0  0  0  0  0  0  0  0  0  0  0
    5.1029   -1.5401    2.0168 O   0  0  0  0  0  0  0  0  0  0  0  0
    4.1041   -1.3978    2.0833 H   0  0  0  0  0  0  0  0  0  0  0  0
    1.3748   -0.8221    1.5777 N   0  0  0  0  0  2  0  0  0  0  0  0
    1.1508   -1.1296    2.5343 H   0  0  0  0  0  0  0  0  0  0  0  0
    3.0478   -0.9069    0.0573 C   0  0  0  0  0  0  0  0  0  0  0  0
    4.4562   -1.0649   -0.2870 C   0  0  0  0  0  0  0  0  0  0  0  0
    5.4256   -1.3814    0.7291 C   0  0  0  0  0  0  0  0  0  0  0  0
    6.7814   -1.5401    0.3579 C   0  0  0  0  0  0  0  0  0  0  0  0
    7.4995   -1.7832    1.1541 H   0  0  0  0  0  0  0  0  0  0  0  0
    4.9003   -0.9146   -1.6258 C   0  0  0  0  0  0  0  0  0  0  0  0
    4.1548   -0.6570   -2.3934 H   0  0  0  0  0  0  0  0  0  0  0  0
    7.1809   -1.3909   -0.9692 C   0  0  0  0  0  0  0  0  0  0  0  0
    8.2426   -1.5161   -1.2317 H   0  0  0  0  0  0  0  0  0  0  0  0
    6.2390   -1.0757   -1.9728 C   0  0  0  0  0  0  0  0  0  0  0  0
    6.5579   -0.9507   -3.0173 H   0  0  0  0  0  0  0  0  0  0  0  0
  1  7  1  0  0  0  0
  2  5  1  0  0  0  0
  3  4  1  0  0  0  0
  5  6  1  0  0  0  0
  7  2  2  0  0  0  0
  8  7  1  0  0  0  0
  8  9  1  0  0  0  0
  9  3  1  0  0  0  0
 10  9  2  0  0  0  0
 10 11  1  0  0  0  0
 12  8  2  0  0  0  0
 13 12  1  0  0  0  0
 14 10  1  0  0  0  0
 15 14  1  0  0  0  0
 16 12  1  0  0  0  0
 16 14  2  0  0  0  0
 17 16  1  0  0  0  0
M  END
