1,3
q = 0.0, confidence = 0.964

 10  9  0  0  1  0  0  0  0  0999 V2000
    1.0991    1.2566   -0.0034 S   0  0  0  0  0  1  0  0  0  0  0  0
    1.8185   -1.3212   -0.0203 N   0  0  0  0  0  0  0  0  0  0  0  0
    0.4425   -1.5909    0.0247 N   0  0  0  0  0  0  0  0  0  0  0  0
    3.5597    0.2122    0.0087 N   0  0  0  0  0  0  0  0  0  0  0  0
    2.2279   -0.0170   -0.0054 C   0  0  2  0  0  3  0  0  0  0  0  0
    2.4761   -2.0991    0.0850 H   0  0  0  0  0  0  0  0  0  0  0  0
    0.1432   -2.1712   -0.7777 H   0  0  0  0  0  0  0  0  0  0  0  0
    0.1782   -2.0990    0.8869 H   0  0  0  0  0  0  0  0  0  0  0  0
    3.8772    1.1804   -0.0262 H   0  0  0  0  0  0  0  0  0  0  0  0
    4.2536   -0.5252   -0.1123 H   0  0  0  0  0  0  0  0  0  0  0  0
  2  5  1  0  0  0  0
  2  3  1  0  0  0  0
  2  6  1  0  0  0  0
  3  8  1  0  0  0  0
  5  1  1  1  0  0  0
  5  4  1  0  0  0  0
  7  3  1  0  0  0  0
  9  4  1  0  0  0  0
 10  4  1  0  0  0  0
M  END
