1,2
q = 0.0, confidence = 0.994

 38 39  0  0  1  0  0  0  0  0999 V2000
    1.1975   -1.4016   -0.7025 S   0  0  0  0  0  1  0  0  0  0  0  0
   -2.8699    0.5124   -0.5658 N   0  0  0  0  0  2  0  0  0  0  0  0
   -0.2328    1.1985   -0.4781 N   0  0  0  0  0  0  0  0  0  0  0  0
    1.0236    1.1915    0.0263 N   0  0  0  0  0  0  0  0  0  0  0  0
    1.2665    1.9017    0.7306 H   0  0  0  0  0  0  0  0  0  0  0  0
    3.1170    0.2265    0.2631 N   0  0  0  0  0  0  0  0  0  0  0  0
   -0.8320    2.7481    1.2183 N   0  0  0  0  0  0  0  0  0  0  0  0
   -0.5290    2.0750    1.9633 H   0  0  0  0  0  0  0  0  0  0  0  0
   -1.6610    3.2392    1.5670 H   0  0  0  0  0  0  0  0  0  0  0  0
   -4.1100    0.2145   -0.9780 C   0  0  0  0  0  3  0  0  0  0  0  0
   -4.3205   -0.8679   -1.0611 H   0  0  0  0  0  0  0  0  0  0  0  0
   -5.0597    1.2119   -1.2533 C   0  0  0  0  0  0  0  0  0  0  0  0
   -6.0694    0.9349   -1.5888 H   0  0  0  0  0  0  0  0  0  0  0  0
   -4.6937    2.5542   -1.0784 C   0  0  0  0  0  0  0  0  0  0  0  0
   -5.4133    3.3613   -1.2836 H   0  0  0  0  0  0  0  0  0  0  0  0
   -3.3953    2.8615   -0.6438 C   0  0  0  0  0  0  0  0  0  0  0  0
   -3.0722    3.9052   -0.5129 H   0  0  0  0  0  0  0  0  0  0  0  0
   -2.5021    1.8026   -0.4084 C   0  0  0  0  0  0  0  0  0  0  0  0
   -1.1086    1.9718    0.0946 C   0  0  0  0  0  0  0  0  0  0  0  0
    1.8135    0.0746   -0.1041 C   0  0  2  0  0  3  0  0  0  0  0  0
    3.9738   -0.9542    0.4182 C   0  0  0  0  0  0  0  0  0  0  0  0
    3.3031   -1.7991    0.6660 H   0  0  0  0  0  0  0  0  0  0  0  0
    4.6409   -0.7829    1.2890 H   0  0  0  0  0  0  0  0  0  0  0  0
    4.7792   -1.2860   -0.8452 C   0  0  0  0  0  0  0  0  0  0  0  0
    5.1457   -2.3303   -0.7539 H   0  0  0  0  0  0  0  0  0  0  0  0
    4.0699   -1.2859   -1.6999 H   0  0  0  0  0  0  0  0  0  0  0  0
    5.9660   -0.3566   -1.1166 C   0  0  0  0  0  0  0  0  0  0  0  0
    6.4247   -0.6344   -2.0889 H   0  0  0  0  0  0  0  0  0  0  0  0
    6.7525   -0.5390   -0.3493 H   0  0  0  0  0  0  0  0  0  0  0  0
    5.6448    1.1454   -1.1201 C   0  0  0  0  0  0  0  0  0  0  0  0
    6.5589    1.6961   -1.4242 H   0  0  0  0  0  0  0  0  0  0  0  0
    4.8795    1.3735   -1.8956 H   0  0  0  0  0  0  0  0  0  0  0  0
    5.1785    1.6863    0.2430 C   0  0  0  0  0  0  0  0  0  0  0  0
    5.4059    2.7701    0.3214 H   0  0  0  0  0  0  0  0  0  0  0  0
    5.7654    1.2052    1.0542 H   0  0  0  0  0  0  0  0  0  0  0  0
    3.6767    1.5602    0.5176 C   0  0  0  0  0  0  0  0  0  0  0  0
    3.4660    1.8760    1.5677 H   0  0  0  0  0  0  0  0  0  0  0  0
    3.1414    2.2689   -0.1484 H   0  0  0  0  0  0  0  0  0  0  0  0
  2 18  1  0  0  0  0
  3  4  1  0  0  0  0
  3 19  2  0  0  0  0
  4  5  1  0  0  0  0
  6 21  1  0  0  0  0
  6 36  1  0  0  0  0
  7  9  1  0  0  0  0
  7  8  1  0  0  0  0
 10  2  1  0  0  0  0
 11 10  1  0  0  0  0
 12 14  2  0  0  0  0
 12 10  1  0  0  0  0
 13 12  1  0  0  0  0
 14 16  1  0  0  0  0
 15 14  1  0  0  0  0
 16 17  1  0  0  0  0
 16 18  2  0  0  0  0
 18 19  1  0  0  0  0
 19  7  1  0  0  0  0
 20  1  1  6  0  0  0
 20  4  1  0  0  0  0
 20  6  1  0  0  0  0
 21 22  1  0  0  0  0
 21 23  1  0  0  0  0
 24 25  1  0  0  0  0
 24 21  1  0  0  0  0
 26 24  1  0  0  0  0
 27 24  1  0  0  0  0
 27 29  1  0  0  0  0
 28 27  1  0  0  0  0
 30 27  1  0  0  0  0
 30 33  1  0  0  0  0
 31 30  1  0  0  0  0
 32 30  1  0  0  0  0
 33 34  1  0  0  0  0
 33 36  1  0  0  0  0
 33 35  1  0  0  0  0
 36 37  1  0  0  0  0
 38 36  1  0  0  0  0
M  END
