2,3
q = 0.0, confidence = 0.998

 36 37  0  0  0  0  0  0  0  0999 V2000
    2.0447    0.2280   -1.3584 Se  0  0  0  0  0  0  0  0  0  0  0  0
   -2.1933   -1.4320   -0.0326 S   0  0  0  0  0  3  0  0  0  0  0  0
   -0.6318    1.4189   -0.1700 N   0  0  0  0  0  2  0  0  0  0  0  0
    4.0476    1.2812    0.4689 C   0  0  0  0  0  0  0  0  0  0  0  0
    4.1938    2.0767   -0.2774 H   0  0  0  0  0  0  0  0  0  0  0  0
    4.8435    1.2639    1.6252 C   0  0  0  0  0  0  0  0  0  0  0  0
    5.5902    2.0571    1.7792 H   0  0  0  0  0  0  0  0  0  0  0  0
    4.6990    0.2344    2.5684 C   0  0  0  0  0  0  0  0  0  0  0  0
    5.3300    0.2234    3.4693 H   0  0  0  0  0  0  0  0  0  0  0  0
    3.7591   -0.7865    2.3565 C   0  0  0  0  0  0  0  0  0  0  0  0
    3.6531   -1.6021    3.0872 H   0  0  0  0  0  0  0  0  0  0  0  0
    2.9468   -0.7804    1.2114 C   0  0  0  0  0  0  0  0  0  0  0  0
    2.2191   -1.5866    1.0298 H   0  0  0  0  0  0  0  0  0  0  0  0
    3.0931    0.2655    0.2842 C   0  0  0  0  0  0  0  0  0  0  0  0
    1.4321    2.1154   -1.3571 C   0  0  0  0  0  0  0  0  0  0  0  0
    2.3172    2.7786   -1.3285 H   0  0  0  0  0  0  0  0  0  0  0  0
    0.9217    2.2470   -2.3319 H   0  0  0  0  0  0  0  0  0  0  0  0
    0.5104    2.3590   -0.1789 C   0  0  0  0  0  0  0  0  0  0  0  0
    1.0765    2.2116    0.7674 H   0  0  0  0  0  0  0  0  0  0  0  0
    0.1401    3.4075   -0.1871 H   0  0  0  0  0  0  0  0  0  0  0  0
   -1.7969    1.9093    0.1409 C   0  0  0  0  0  0  0  0  0  0  0  0
   -1.8357    3.0056    0.3002 H   0  0  0  0  0  0  0  0  0  0  0  0
   -3.0891    1.2607    0.3225 C   0  0  0  0  0  0  0  0  0  0  0  0
   -3.3846   -0.1323    0.2985 C   0  0  0  0  0  0  0  0  0  0  0  0
   -4.7050   -0.5781    0.4784 C   0  0  0  0  0  0  0  0  0  0  0  0
   -4.9231   -1.6556    0.4218 H   0  0  0  0  0  0  0  0  0  0  0  0
   -5.7463    0.3306    0.7185 C   0  0  0  0  0  0  0  0  0  0  0  0
   -6.7713   -0.0417    0.8624 H   0  0  0  0  0  0  0  0  0  0  0  0
   -5.4747    1.7063    0.7596 C   0  0  0  0  0  0  0  0  0  0  0  0
   -6.2832    2.4291    0.9404 H   0  0  0  0  0  0  0  0  0  0  0  0
   -4.1681    2.1559    0.5613 C   0  0  0  0  0  0  0  0  0  0  0  0
   -3.9579    3.2362    0.5872 H   0  0  0  0  0  0  0  0  0  0  0  0
   -1.9485   -2.1520    1.6349 C   0  0  0  0  0  0  0  0  0  0  0  0
   -1.6321   -1.3747    2.3533 H   0  0  0  0  0  0  0  0  0  0  0  0
   -1.1536   -2.9085    1.4900 H   0  0  0  0  0  0  0  0  0  0  0  0
   -2.8924   -2.6335    1.9518 H   0  0  0  0  0  0  0  0  0  0  0  0
  1 15  1  0  0  0  0
  1 14  1  0  0  0  0
  2 24  2  0  0  0  0
  2 33  1  0  0  0  0
  3 21  1  0  0  0  0
  4  6  1  0  0  0  0
  5  4  1  0  0  0  0
  6  7  1  0  0  0  0
  6  8  2  0  0  0  0
  8  9  1  0  0  0  0
 10  8  1  0  0  0  0
 10 11  1  0  0  0  0
 12 10  2  0  0  0  0
 13 12  1  0  0  0  0
 14  4  2  0  0  0  0
 14 12  1  0  0  0  0
 15 16  1  0  0  0  0
 15 18  1  0  0  0  0
 17 15  1  0  0  0  0
 18  3  1  0  0  0  0
 18 19  1  0  0  0  0
 20 18  1  0  0  0  0
 21 22  1  0  0  0  0
 21 23  2  0  0  0  0
 23 31  1  0  0  0  0
 24 23  1  0  0  0  0
 24 25  1  0  0  0  0
 25 27  2  0  0  0  0
 26 25  1  0  0  0  0
 27 29  1  0  0  0  0
 27 28  1  0  0  0  0
 29 30  1  0  0  0  0
 31 32  1  0  0  0  0
 31 29  2  0  0  0  0
 33 36  1  0  0  0  0
 33 34  1  0  0  0  0
 35 33  1  0  0  0  0
M  END
