1,3
q = -2.0, confidence = 0.84

 12 12  0  0  0  0  0  0  0  0999 V2000
    0.1363   -1.7735    1.2937 S   0  0  0  0  0  1  0  0  0  0  0  0
    1.0924    1.9766   -1.5235 O   0  0  0  0  0  0  0  0  0  0  0  0
    0.9213    0.1728   -0.0984 N   0  0  0  0  0  2  0  0  0  0  0  0
    2.7613   -1.1588    0.5996 N   0  0  0  0  0  0  0  0  0  0  0  0
    4.8986   -0.5992   -0.0452 N   0  0  0  0  0  0  0  0  0  0  0  0
    1.4877   -0.8706    0.5532 C   0  0  0  0  0  0  0  0  0  0  0  0
    3.5771   -0.3060   -0.1126 C   0  0  0  0  0  0  0  0  0  0  0  0
    3.0782    0.7805   -0.8631 C   0  0  0  0  0  0  0  0  0  0  0  0
    1.6798    1.0507   -0.8879 C   0  0  0  0  0  0  0  0  0  0  0  0
    5.5951   -0.0410   -0.5318 H   0  0  0  0  0  0  0  0  0  0  0  0
    5.1912   -1.4053    0.5047 H   0  0  0  0  0  0  0  0  0  0  0  0
    3.7390    1.4378   -1.4438 H   0  0  0  0  0  0  0  0  0  0  0  0
  2  9  2  0  0  0  0
  3  6  1  0  0  0  0
  5 11  1  0  0  0  0
  6  4  2  0  0  0  0
  6  1  1  0  0  0  0
  7  5  1  0  0  0  0
  7  4  1  0  0  0  0
  8  7  2  0  0  0  0
  9  8  1  0  0  0  0
  9  3  1  0  0  0  0
 10  5  1  0  0  0  0
 12  8  1  0  0  0  0
M  END
