1,4
q = -1.0, confidence = 0.002

 25 26  0  0  0  0  0  0  0  0999 V2000
   -1.3671    2.8736   -0.7753 S   0  0  0  0  0  1  0  0  0  0  0  0
   -2.5799    1.7238   -1.3142 C   0  0  0  0  0  0  0  0  0  0  0  0
   -2.2095    0.3571   -1.4492 C   0  0  0  0  0  0  0  0  0  0  0  0
   -0.8458    0.0907   -1.1729 N   0  0  0  0  0  2  0  0  0  0  0  0
   -0.2276   -0.9379   -1.7054 C   0  0  0  0  0  3  0  0  0  0  0  0
    1.2085   -1.1510   -1.6466 C   0  0  0  0  0  0  0  0  0  0  0  0
    1.7356   -2.4637   -1.7335 C   0  0  0  0  0  0  0  0  0  0  0  0
    3.1098   -2.6925   -1.6321 C   0  0  0  0  0  0  0  0  0  0  0  0
    3.9810   -1.5957   -1.4797 C   0  0  0  0  0  0  0  0  0  0  0  0
    5.6908   -1.8786   -1.3090 Cl  0  0  0  0  0  0  0  0  0  0  0  0
    3.4898   -0.2806   -1.4620 C   0  0  0  0  0  0  0  0  0  0  0  0
    2.1126   -0.0636   -1.5422 C   0  0  0  0  0  0  0  0  0  0  0  0
    1.7214    0.9683   -1.5303 H   0  0  0  0  0  0  0  0  0  0  0  0
    4.1838    0.5646   -1.3579 H   0  0  0  0  0  0  0  0  0  0  0  0
    3.5191   -3.7117   -1.6646 H   0  0  0  0  0  0  0  0  0  0  0  0
    1.0499   -3.3178   -1.8478 H   0  0  0  0  0  0  0  0  0  0  0  0
   -0.8204   -1.6671   -2.2901 H   0  0  0  0  0  0  0  0  0  0  0  0
   -3.1607   -0.6129   -1.8210 C   0  0  0  0  0  0  0  0  0  0  0  0
   -4.4851   -0.2335   -2.0589 C   0  0  0  0  0  0  0  0  0  0  0  0
   -4.8540    1.1245   -1.9602 C   0  0  0  0  0  0  0  0  0  0  0  0
   -3.9135    2.0954   -1.6008 C   0  0  0  0  0  0  0  0  0  0  0  0
   -4.2046    3.1523   -1.5078 H   0  0  0  0  0  0  0  0  0  0  0  0
   -5.8963    1.4234   -2.1488 H   0  0  0  0  0  0  0  0  0  0  0  0
   -5.2390   -0.9972   -2.2976 H   0  0  0  0  0  0  0  0  0  0  0  0
   -2.8799   -1.6756   -1.8622 H   0  0  0  0  0  0  0  0  0  0  0  0
  2  1  1  0  0  0  0
  3  2  1  0  0  0  0
  3  4  1  0  0  0  0
  5  6  1  0  0  0  0
  5  4  1  0  0  0  0
  6 12  1  0  0  0  0
  7  6  2  0  0  0  0
  7  8  1  0  0  0  0
  8  9  2  0  0  0  0
  9 11  1  0  0  0  0
  9 10  1  0  0  0  0
 11 14  1  0  0  0  0
 12 13  1  0  0  0  0
 12 11  2  0  0  0  0
 15  8  1  0  0  0  0
 16  7  1  0  0  0  0
 17  5  1  0  0  0  0
 18  3  2  0  0  0  0
 19 20  2  0  0  0  0
 19 18  1  0  0  0  0
 20 21  1  0  0  0  0
 21 22  1  0  0  0  0
 21  2  2  0  0  0  0
 23 20  1  0  0  0  0
 24 19  1  0  0  0  0
 25 18  1  0  0  0  0
M  END
