1,9
q = -1.0, confidence = 0.0

 26 26  0  0  1  0  0  0  0  0999 V2000
   -0.0752    2.1209   -0.6154 S   0  0  0  0  0  1  0  0  0  0  0  0
    1.5553    2.4516   -0.1035 C   0  0  2  0  0  3  0  0  0  0  0  0
    2.0050    4.1482   -0.0485 S   0  0  0  0  0  0  0  0  0  0  0  0
    3.7814    4.0468    0.3253 C   0  0  0  0  0  0  0  0  0  0  0  0
    4.3248    3.5423   -0.4964 H   0  0  0  0  0  0  0  0  0  0  0  0
    4.1315    5.0920    0.4224 H   0  0  0  0  0  0  0  0  0  0  0  0
    3.9455    3.5013    1.2737 H   0  0  0  0  0  0  0  0  0  0  0  0
    2.4273    1.5171    0.1886 N   0  0  0  0  0  2  0  0  0  0  0  0
    1.9114    0.2486    0.0617 N   0  0  0  0  0  2  0  0  0  0  0  0
    2.7770   -0.7451   -0.0499 C   0  0  0  0  0  3  0  0  0  0  0  0
    4.2267   -0.7626   -0.0482 C   0  0  0  0  0  0  0  0  0  0  0  0
    4.8344   -2.0416   -0.2175 C   0  0  0  0  0  0  0  0  0  0  0  0
    6.2142   -2.1992   -0.2315 C   0  0  0  0  0  0  0  0  0  0  0  0
    7.0567   -1.0739   -0.0716 C   0  0  0  0  0  0  0  0  0  0  0  0
    8.3897   -1.3204   -0.0979 O   0  0  0  0  0  0  0  0  0  0  0  0
    9.2853   -0.2339    0.0614 C   0  0  0  0  0  0  0  0  0  0  0  0
    9.1658    0.5217   -0.7466 H   0  0  0  0  0  0  0  0  0  0  0  0
    9.1529    0.2696    1.0448 H   0  0  0  0  0  0  0  0  0  0  0  0
   10.3043   -0.6594    0.0088 H   0  0  0  0  0  0  0  0  0  0  0  0
    6.4792    0.2033    0.1024 C   0  0  0  0  0  0  0  0  0  0  0  0
    5.0889    0.3529    0.1120 C   0  0  0  0  0  0  0  0  0  0  0  0
    4.6336    1.3391    0.2494 H   0  0  0  0  0  0  0  0  0  0  0  0
    7.1102    1.0929    0.2317 H   0  0  0  0  0  0  0  0  0  0  0  0
    6.6801   -3.1863   -0.3630 H   0  0  0  0  0  0  0  0  0  0  0  0
    4.1897   -2.9263   -0.3384 H   0  0  0  0  0  0  0  0  0  0  0  0
    2.2996   -1.7300   -0.1710 H   0  0  0  0  0  0  0  0  0  0  0  0
  2  1  1  6  0  0  0
  2  3  1  0  0  0  0
  2  8  1  0  0  0  0
  3  4  1  0  0  0  0
  4  6  1  0  0  0  0
  4  7  1  0  0  0  0
  5  4  1  0  0  0  0
  9  8  1  0  0  0  0
 10 11  1  0  0  0  0
 10  9  1  0  0  0  0
 11 21  1  0  0  0  0
 12 11  2  0  0  0  0
 13 12  1  0  0  0  0
 13 14  2  0  0  0  0
 14 20  1  0  0  0  0
 15 14  1  0  0  0  0
 15 16  1  0  0  0  0
 16 18  1  0  0  0  0
 17 16  1  0  0  0  0
 19 16  1  0  0  0  0
 20 21  2  0  0  0  0
 20 23  1  0  0  0  0
 21 22  1  0  0  0  0
 24 13  1  0  0  0  0
 25 12  1  0  0  0  0
 26 10  1  0  0  0  0
M  END
