1,2,3,4
q = -1.0, confidence = 0.072

 64 69  0  0  0  0  0  0  0  0999 V2000
   -0.9630   -1.9315   -1.0798 S   0  0  0  0  0  1  0  0  0  0  0  0
   -1.5064    1.3848   -0.9766 S   0  0  0  0  0  1  0  0  0  0  0  0
    2.4169    0.0373   -1.1392 S   0  0  0  0  0  1  0  0  0  0  0  0
    0.2768   -0.0196    0.9051 P   0  0  0  0  0  0  0  0  0  0  0  0
   -0.9393   -1.1879    1.5788 C   0  0  0  0  0  0  0  0  0  0  0  0
   -1.4623   -2.0837    0.6120 C   0  0  0  0  0  0  0  0  0  0  0  0
   -2.4144   -3.0631    1.0290 C   0  0  0  0  0  0  0  0  0  0  0  0
   -2.8222   -3.0621    2.3802 C   0  0  0  0  0  0  0  0  0  0  0  0
   -2.3306   -2.1382    3.3144 C   0  0  0  0  0  0  0  0  0  0  0  0
   -1.3834   -1.1868    2.9094 C   0  0  0  0  0  0  0  0  0  0  0  0
   -2.9982   -4.0525    0.0884 C   0  0  0  0  0  0  0  0  0  0  0  0
   -4.3920   -4.2841    0.0715 C   0  0  0  0  0  0  0  0  0  0  0  0
   -4.9522   -5.2280   -0.7998 C   0  0  0  0  0  0  0  0  0  0  0  0
   -4.1288   -5.9633   -1.6676 C   0  0  0  0  0  0  0  0  0  0  0  0
   -2.7418   -5.7486   -1.6559 C   0  0  0  0  0  0  0  0  0  0  0  0
   -2.1805   -4.8027   -0.7870 C   0  0  0  0  0  0  0  0  0  0  0  0
   -0.2176    1.6391    1.4379 C   0  0  0  0  0  0  0  0  0  0  0  0
   -1.1259    2.2353    0.5269 C   0  0  0  0  0  0  0  0  0  0  0  0
   -1.7458    3.4675    0.8872 C   0  0  0  0  0  0  0  0  0  0  0  0
   -1.3973    4.0474    2.1261 C   0  0  0  0  0  0  0  0  0  0  0  0
   -0.4668    3.4632    3.0006 C   0  0  0  0  0  0  0  0  0  0  0  0
    0.1288    2.2415    2.6566 C   0  0  0  0  0  0  0  0  0  0  0  0
   -2.7369    4.1513    0.0131 C   0  0  0  0  0  0  0  0  0  0  0  0
   -2.4678    4.4026   -1.3513 C   0  0  0  0  0  0  0  0  0  0  0  0
   -3.3985    5.0829   -2.1481 C   0  0  0  0  0  0  0  0  0  0  0  0
   -4.6157    5.5206   -1.6013 C   0  0  0  0  0  0  0  0  0  0  0  0
   -4.8941    5.2781   -0.2473 C   0  0  0  0  0  0  0  0  0  0  0  0
   -3.9619    4.6015    0.5525 C   0  0  0  0  0  0  0  0  0  0  0  0
    1.9437   -0.3533    1.5541 C   0  0  0  0  0  0  0  0  0  0  0  0
    2.9353   -0.1901    0.5573 C   0  0  0  0  0  0  0  0  0  0  0  0
    4.3088   -0.3035    0.9088 C   0  0  0  0  0  0  0  0  0  0  0  0
    4.6184   -0.6387    2.2480 C   0  0  0  0  0  0  0  0  0  0  0  0
    3.6274   -0.8365    3.2179 C   0  0  0  0  0  0  0  0  0  0  0  0
    2.2736   -0.6827    2.8749 C   0  0  0  0  0  0  0  0  0  0  0  0
    5.4109   -0.1062   -0.0685 C   0  0  0  0  0  0  0  0  0  0  0  0
    6.4617   -1.0461   -0.1535 C   0  0  0  0  0  0  0  0  0  0  0  0
    7.5213   -0.8573   -1.0518 C   0  0  0  0  0  0  0  0  0  0  0  0
    7.5527    0.2787   -1.8754 C   0  0  0  0  0  0  0  0  0  0  0  0
    6.5180    1.2246   -1.7941 C   0  0  0  0  0  0  0  0  0  0  0  0
    5.4551    1.0344   -0.9013 C   0  0  0  0  0  0  0  0  0  0  0  0
   -3.5527   -3.8208    2.7000 H   0  0  0  0  0  0  0  0  0  0  0  0
   -2.6847   -2.1624    4.3553 H   0  0  0  0  0  0  0  0  0  0  0  0
   -1.0058   -0.4335    3.6184 H   0  0  0  0  0  0  0  0  0  0  0  0
   -5.0429   -3.6927    0.7334 H   0  0  0  0  0  0  0  0  0  0  0  0
   -6.0417   -5.3841   -0.8078 H   0  0  0  0  0  0  0  0  0  0  0  0
   -4.5687   -6.7033   -2.3533 H   0  0  0  0  0  0  0  0  0  0  0  0
   -2.0876   -6.3263   -2.3265 H   0  0  0  0  0  0  0  0  0  0  0  0
   -1.0908   -4.6532   -0.7689 H   0  0  0  0  0  0  0  0  0  0  0  0
   -1.8555    5.0134    2.3885 H   0  0  0  0  0  0  0  0  0  0  0  0
   -0.2004    3.9665    3.9414 H   0  0  0  0  0  0  0  0  0  0  0  0
    0.8647    1.7632    3.3214 H   0  0  0  0  0  0  0  0  0  0  0  0
   -1.5150    4.0649   -1.7833 H   0  0  0  0  0  0  0  0  0  0  0  0
   -3.1686    5.2759   -3.2071 H   0  0  0  0  0  0  0  0  0  0  0  0
   -5.3474    6.0494   -2.2310 H   0  0  0  0  0  0  0  0  0  0  0  0
   -5.8477    5.6123    0.1895 H   0  0  0  0  0  0  0  0  0  0  0  0
   -4.1892    4.3978    1.6102 H   0  0  0  0  0  0  0  0  0  0  0  0
    5.6789   -0.7323    2.5267 H   0  0  0  0  0  0  0  0  0  0  0  0
    3.9098   -1.1068    4.2461 H   0  0  0  0  0  0  0  0  0  0  0  0
    1.4829   -0.8407    3.6238 H   0  0  0  0  0  0  0  0  0  0  0  0
    6.4304   -1.9474    0.4777 H   0  0  0  0  0  0  0  0  0  0  0  0
    8.3249   -1.6069   -1.1131 H   0  0  0  0  0  0  0  0  0  0  0  0
    8.3840    0.4276   -2.5811 H   0  0  0  0  0  0  0  0  0  0  0  0
    6.5397    2.1227   -2.4299 H   0  0  0  0  0  0  0  0  0  0  0  0
    4.6537    1.7845   -0.8335 H   0  0  0  0  0  0  0  0  0  0  0  0
  1  6  1  0  0  0  0
  2 18  1  0  0  0  0
  3 30  1  0  0  0  0
  4 17  1  0  0  0  0
  4 29  1  0  0  0  0
  4  5  1  0  0  0  0
  5 10  1  0  0  0  0
  6  7  1  0  0  0  0
  6  5  2  0  0  0  0
  7  8  2  0  0  0  0
  8 41  1  0  0  0  0
  8  9  1  0  0  0  0
  9 42  1  0  0  0  0
 10  9  2  0  0  0  0
 10 43  1  0  0  0  0
 11  7  1  0  0  0  0
 12 11  1  0  0  0  0
 12 44  1  0  0  0  0
 13 12  2  0  0  0  0
 14 15  2  0  0  0  0
 14 13  1  0  0  0  0
 15 16  1  0  0  0  0
 16 48  1  0  0  0  0
 16 11  2  0  0  0  0
 17 22  1  0  0  0  0
 18 19  1  0  0  0  0
 18 17  2  0  0  0  0
 19 20  2  0  0  0  0
 20 49  1  0  0  0  0
 20 21  1  0  0  0  0
 21 50  1  0  0  0  0
 22 21  2  0  0  0  0
 22 51  1  0  0  0  0
 23 28  1  0  0  0  0
 23 19  1  0  0  0  0
 24 23  2  0  0  0  0
 25 26  2  0  0  0  0
 25 24  1  0  0  0  0
 26 27  1  0  0  0  0
 27 55  1  0  0  0  0
 27 28  2  0  0  0  0
 28 56  1  0  0  0  0
 29 34  1  0  0  0  0
 30 31  1  0  0  0  0
 30 29  2  0  0  0  0
 31 32  2  0  0  0  0
 32 57  1  0  0  0  0
 32 33  1  0  0  0  0
 33 58  1  0  0  0  0
 34 33  2  0  0  0  0
 34 59  1  0  0  0  0
 35 31  1  0  0  0  0
 36 35  1  0  0  0  0
 36 60  1  0  0  0  0
 37 36  2  0  0  0  0
 38 39  2  0  0  0  0
 38 37  1  0  0  0  0
 39 40  1  0  0  0  0
 40 64  1  0  0  0  0
 40 35  2  0  0  0  0
 45 13  1  0  0  0  0
 46 14  1  0  0  0  0
 47 15  1  0  0  0  0
 52 24  1  0  0  0  0
 53 25  1  0  0  0  0
 54 26  1  0  0  0  0
 61 37  1  0  0  0  0
 62 38  1  0  0  0  0
 63 39  1  0  0  0  0
M  END
