1,2,3,4
q = -1.0, confidence = 0.006

 60 62  0  0  0  0  0  0  0  0999 V2000
   -0.1070    0.9043    0.2519 P   0  0  0  0  0  0  0  0  0  0  0  0
   -1.1613    0.7443   -2.5156 S   0  0  0  0  0  1  0  0  0  0  0  0
   -0.9785   -2.0380    0.4619 S   0  0  0  0  0  0  0  0  0  0  0  0
    2.2507   -0.5068   -1.1545 S   0  0  0  0  0  0  0  0  0  0  0  0
   -1.3172    2.1836   -0.1537 C   0  0  0  0  0  0  0  0  0  0  0  0
   -1.6887    2.0978   -1.5277 C   0  0  0  0  0  0  0  0  0  0  0  0
   -2.5412    3.1119   -2.0372 C   0  0  0  0  0  0  0  0  0  0  0  0
   -2.8352    3.0775   -3.0972 H   0  0  0  0  0  0  0  0  0  0  0  0
   -3.0263    4.1185   -1.1981 C   0  0  0  0  0  0  0  0  0  0  0  0
   -3.6999    4.8843   -1.6136 H   0  0  0  0  0  0  0  0  0  0  0  0
   -2.6870    4.1603    0.1722 C   0  0  0  0  0  0  0  0  0  0  0  0
   -3.0967    4.9452    0.8243 H   0  0  0  0  0  0  0  0  0  0  0  0
   -1.8242    3.1875    0.6921 C   0  0  0  0  0  0  0  0  0  0  0  0
   -1.5583    3.1979    1.7612 H   0  0  0  0  0  0  0  0  0  0  0  0
   -0.4118    0.2485    1.9408 C   0  0  0  0  0  0  0  0  0  0  0  0
   -0.8376   -1.0998    1.9956 C   0  0  0  0  0  0  0  0  0  0  0  0
   -1.0324   -1.7216    3.2423 C   0  0  0  0  0  0  0  0  0  0  0  0
   -1.3119   -2.7839    3.2807 H   0  0  0  0  0  0  0  0  0  0  0  0
   -0.8350   -0.9943    4.4264 C   0  0  0  0  0  0  0  0  0  0  0  0
   -0.9869   -1.4864    5.3989 H   0  0  0  0  0  0  0  0  0  0  0  0
   -0.4167    0.3452    4.3735 C   0  0  0  0  0  0  0  0  0  0  0  0
   -0.2429    0.9066    5.3037 H   0  0  0  0  0  0  0  0  0  0  0  0
   -0.1920    0.9620    3.1334 C   0  0  0  0  0  0  0  0  0  0  0  0
    0.1817    1.9963    3.0958 H   0  0  0  0  0  0  0  0  0  0  0  0
    1.5354    1.7336    0.3136 C   0  0  0  0  0  0  0  0  0  0  0  0
    2.5997    1.0475   -0.3154 C   0  0  0  0  0  0  0  0  0  0  0  0
    3.8707    1.6484   -0.3843 C   0  0  0  0  0  0  0  0  0  0  0  0
    4.6813    1.1468   -0.9310 H   0  0  0  0  0  0  0  0  0  0  0  0
    4.0861    2.9039    0.2040 C   0  0  0  0  0  0  0  0  0  0  0  0
    5.0822    3.3678    0.1446 H   0  0  0  0  0  0  0  0  0  0  0  0
    3.0277    3.5870    0.8254 C   0  0  0  0  0  0  0  0  0  0  0  0
    3.1922    4.5853    1.2577 H   0  0  0  0  0  0  0  0  0  0  0  0
    1.7492    3.0116    0.8616 C   0  0  0  0  0  0  0  0  0  0  0  0
    0.9044    3.5722    1.2902 H   0  0  0  0  0  0  0  0  0  0  0  0
   -2.8802   -2.0824    0.1861 C   0  0  0  0  0  0  0  0  0  0  0  0
   -3.4181   -0.6579    0.1334 C   0  0  0  0  0  0  0  0  0  0  0  0
   -2.9373   -0.0946   -0.6892 H   0  0  0  0  0  0  0  0  0  0  0  0
   -3.2622   -0.1172    1.0881 H   0  0  0  0  0  0  0  0  0  0  0  0
   -4.5107   -0.6892   -0.0625 H   0  0  0  0  0  0  0  0  0  0  0  0
   -3.5105   -2.8958    1.3164 C   0  0  0  0  0  0  0  0  0  0  0  0
   -3.0508   -3.9005    1.4045 H   0  0  0  0  0  0  0  0  0  0  0  0
   -4.5899   -3.0334    1.0938 H   0  0  0  0  0  0  0  0  0  0  0  0
   -3.4406   -2.3781    2.2929 H   0  0  0  0  0  0  0  0  0  0  0  0
   -3.0325   -2.7902   -1.1618 C   0  0  0  0  0  0  0  0  0  0  0  0
   -2.6033   -3.8117   -1.1385 H   0  0  0  0  0  0  0  0  0  0  0  0
   -2.5253   -2.2330   -1.9727 H   0  0  0  0  0  0  0  0  0  0  0  0
   -4.1148   -2.8705   -1.3945 H   0  0  0  0  0  0  0  0  0  0  0  0
    3.1207   -1.7995   -0.0456 C   0  0  0  0  0  0  0  0  0  0  0  0
    2.6983   -1.6083    1.4071 C   0  0  0  0  0  0  0  0  0  0  0  0
    1.6030   -1.7020    1.5157 H   0  0  0  0  0  0  0  0  0  0  0  0
    3.0053   -0.6193    1.8019 H   0  0  0  0  0  0  0  0  0  0  0  0
    3.1730   -2.3902    2.0367 H   0  0  0  0  0  0  0  0  0  0  0  0
    2.6234   -3.1353   -0.6063 C   0  0  0  0  0  0  0  0  0  0  0  0
    1.5202   -3.2094   -0.5650 H   0  0  0  0  0  0  0  0  0  0  0  0
    3.0695   -3.9605   -0.0128 H   0  0  0  0  0  0  0  0  0  0  0  0
    2.9146   -3.2658   -1.6670 H   0  0  0  0  0  0  0  0  0  0  0  0
    4.6353   -1.6643   -0.2135 C   0  0  0  0  0  0  0  0  0  0  0  0
    4.9304   -1.7035   -1.2805 H   0  0  0  0  0  0  0  0  0  0  0  0
    5.1332   -2.5074    0.3113 H   0  0  0  0  0  0  0  0  0  0  0  0
    5.0210   -0.7275    0.2331 H   0  0  0  0  0  0  0  0  0  0  0  0
  1 25  1  0  0  0  0
  1 15  1  0  0  0  0
  2  6  1  0  0  0  0
  3 16  1  0  0  0  0
  4 26  1  0  0  0  0
  4 48  1  0  0  0  0
  5  1  1  0  0  0  0
  5 13  1  0  0  0  0
  6  5  2  0  0  0  0
  7  6  1  0  0  0  0
  7  9  2  0  0  0  0
  8  7  1  0  0  0  0
  9 11  1  0  0  0  0
 10  9  1  0  0  0  0
 11 13  2  0  0  0  0
 11 12  1  0  0  0  0
 13 14  1  0  0  0  0
 15 16  2  0  0  0  0
 15 23  1  0  0  0  0
 16 17  1  0  0  0  0
 17 18  1  0  0  0  0
 17 19  2  0  0  0  0
 19 20  1  0  0  0  0
 21 19  1  0  0  0  0
 21 22  1  0  0  0  0
 23 21  2  0  0  0  0
 24 23  1  0  0  0  0
 25 33  1  0  0  0  0
 26 25  2  0  0  0  0
 27 26  1  0  0  0  0
 27 29  2  0  0  0  0
 28 27  1  0  0  0  0
 29 31  1  0  0  0  0
 30 29  1  0  0  0  0
 31 33  2  0  0  0  0
 31 32  1  0  0  0  0
 33 34  1  0  0  0  0
 35  3  1  0  0  0  0
 35 40  1  0  0  0  0
 36 35  1  0  0  0  0
 36 38  1  0  0  0  0
 37 36  1  0  0  0  0
 39 36  1  0  0  0  0
 40 41  1  0  0  0  0
 40 43  1  0  0  0  0
 42 40  1  0  0  0  0
 44 45  1  0  0  0  0
 44 35  1  0  0  0  0
 46 44  1  0  0  0  0
 47 44  1  0  0  0  0
 48 49  1  0  0  0  0
 49 50  1  0  0  0  0
 49 51  1  0  0  0  0
 49 52  1  0  0  0  0
 53 54  1  0  0  0  0
 53 48  1  0  0  0  0
 53 55  1  0  0  0  0
 56 53  1  0  0  0  0
 57 48  1  0  0  0  0
 57 60  1  0  0  0  0
 57 59  1  0  0  0  0
 58 57  1  0  0  0  0
M  END
