1,2,3,4
q = 0.0, confidence = 0.982

 64 66  0  0  0  0  0  0  0  0999 V2000
   -0.0063   -0.2832    0.9068 P   0  0  0  0  0  0  0  0  0  0  0  0
    0.8411    2.3373   -0.4274 S   0  0  0  0  0  0  0  0  0  0  0  0
   -2.3265    0.0261   -1.0366 S   0  0  0  0  0  0  0  0  0  0  0  0
    1.4916   -1.2186   -1.5764 S   0  0  0  0  0  0  0  0  0  0  0  0
    1.0212    0.8478    1.9078 C   0  0  0  0  0  0  0  0  0  0  0  0
    1.3263    2.0800    1.2874 C   0  0  0  0  0  0  0  0  0  0  0  0
    2.0826    3.0457    1.9737 C   0  0  0  0  0  0  0  0  0  0  0  0
    2.3406    3.9955    1.4814 H   0  0  0  0  0  0  0  0  0  0  0  0
    2.5294    2.7769    3.2762 C   0  0  0  0  0  0  0  0  0  0  0  0
    3.1230    3.5319    3.8127 H   0  0  0  0  0  0  0  0  0  0  0  0
    2.2545    1.5392    3.8836 C   0  0  0  0  0  0  0  0  0  0  0  0
    2.6334    1.3256    4.8938 H   0  0  0  0  0  0  0  0  0  0  0  0
    1.5091    0.5687    3.1989 C   0  0  0  0  0  0  0  0  0  0  0  0
    1.3203   -0.4099    3.6658 H   0  0  0  0  0  0  0  0  0  0  0  0
   -1.6784   -0.3809    1.6318 C   0  0  0  0  0  0  0  0  0  0  0  0
   -2.7240   -0.3453    0.6829 C   0  0  0  0  0  0  0  0  0  0  0  0
   -4.0595   -0.4717    1.1003 C   0  0  0  0  0  0  0  0  0  0  0  0
   -4.8763   -0.4162    0.3649 H   0  0  0  0  0  0  0  0  0  0  0  0
   -4.3446   -0.6319    2.4647 C   0  0  0  0  0  0  0  0  0  0  0  0
   -5.3904   -0.7269    2.7925 H   0  0  0  0  0  0  0  0  0  0  0  0
   -3.3086   -0.6331    3.4148 C   0  0  0  0  0  0  0  0  0  0  0  0
   -3.5434   -0.7287    4.4850 H   0  0  0  0  0  0  0  0  0  0  0  0
   -1.9746   -0.5010    3.0029 C   0  0  0  0  0  0  0  0  0  0  0  0
   -1.1684   -0.4789    3.7515 H   0  0  0  0  0  0  0  0  0  0  0  0
    0.7432   -1.9470    1.0004 C   0  0  0  0  0  0  0  0  0  0  0  0
    1.4709   -2.3229   -0.1508 C   0  0  0  0  0  0  0  0  0  0  0  0
    2.0764   -3.5886   -0.2178 C   0  0  0  0  0  0  0  0  0  0  0  0
    2.6128   -3.8917   -1.1286 H   0  0  0  0  0  0  0  0  0  0  0  0
    1.9640   -4.4686    0.8709 C   0  0  0  0  0  0  0  0  0  0  0  0
    2.4326   -5.4623    0.8157 H   0  0  0  0  0  0  0  0  0  0  0  0
    1.2332   -4.0998    2.0121 C   0  0  0  0  0  0  0  0  0  0  0  0
    1.1293   -4.8038    2.8508 H   0  0  0  0  0  0  0  0  0  0  0  0
    0.6132   -2.8421    2.0772 C   0  0  0  0  0  0  0  0  0  0  0  0
    0.0083   -2.5727    2.9561 H   0  0  0  0  0  0  0  0  0  0  0  0
   -0.4534    3.6895   -0.2284 C   0  0  0  0  0  0  0  0  0  0  0  0
    0.1138    4.4760    0.3149 H   0  0  0  0  0  0  0  0  0  0  0  0
   -1.6394    3.2244    0.5993 C   0  0  0  0  0  0  0  0  0  0  0  0
   -1.3367    2.8164    1.5841 H   0  0  0  0  0  0  0  0  0  0  0  0
   -2.2178    2.4538    0.0527 H   0  0  0  0  0  0  0  0  0  0  0  0
   -2.3162    4.0837    0.7847 H   0  0  0  0  0  0  0  0  0  0  0  0
   -0.8242    4.1737   -1.6251 C   0  0  0  0  0  0  0  0  0  0  0  0
    0.0614    4.5252   -2.1888 H   0  0  0  0  0  0  0  0  0  0  0  0
   -1.5363    5.0187   -1.5345 H   0  0  0  0  0  0  0  0  0  0  0  0
   -1.3022    3.3654   -2.2127 H   0  0  0  0  0  0  0  0  0  0  0  0
   -2.8178   -1.5914   -1.8713 C   0  0  0  0  0  0  0  0  0  0  0  0
   -3.8352   -1.7638   -1.4591 H   0  0  0  0  0  0  0  0  0  0  0  0
   -1.8850   -2.7253   -1.4825 C   0  0  0  0  0  0  0  0  0  0  0  0
   -1.8149   -2.8600   -0.3849 H   0  0  0  0  0  0  0  0  0  0  0  0
   -0.8696   -2.5453   -1.8880 H   0  0  0  0  0  0  0  0  0  0  0  0
   -2.2583   -3.6753   -1.9172 H   0  0  0  0  0  0  0  0  0  0  0  0
   -2.8896   -1.3337   -3.3717 C   0  0  0  0  0  0  0  0  0  0  0  0
   -3.5851   -0.5078   -3.6155 H   0  0  0  0  0  0  0  0  0  0  0  0
   -3.2510   -2.2526   -3.8762 H   0  0  0  0  0  0  0  0  0  0  0  0
   -1.8924   -1.0741   -3.7781 H   0  0  0  0  0  0  0  0  0  0  0  0
    3.1377   -0.3150   -1.3662 C   0  0  0  0  0  0  0  0  0  0  0  0
    3.0085    0.2750   -0.4343 H   0  0  0  0  0  0  0  0  0  0  0  0
    4.2986   -1.2873   -1.2230 C   0  0  0  0  0  0  0  0  0  0  0  0
    4.2201   -1.9183   -0.3173 H   0  0  0  0  0  0  0  0  0  0  0  0
    5.2395   -0.7047   -1.1422 H   0  0  0  0  0  0  0  0  0  0  0  0
    4.3876   -1.9428   -2.1132 H   0  0  0  0  0  0  0  0  0  0  0  0
    3.2714    0.6094   -2.5720 C   0  0  0  0  0  0  0  0  0  0  0  0
    2.3854    1.2597   -2.7000 H   0  0  0  0  0  0  0  0  0  0  0  0
    3.4058    0.0264   -3.5052 H   0  0  0  0  0  0  0  0  0  0  0  0
    4.1664    1.2491   -2.4343 H   0  0  0  0  0  0  0  0  0  0  0  0
  1 25  1  0  0  0  0
  1 15  1  0  0  0  0
  1  5  1  0  0  0  0
  2 35  1  0  0  0  0
  2  6  1  0  0  0  0
  3 16  1  0  0  0  0
  4 55  1  0  0  0  0
  4 26  1  0  0  0  0
  5 13  1  0  0  0  0
  6  5  2  0  0  0  0
  6  7  1  0  0  0  0
  7  9  2  0  0  0  0
  8  7  1  0  0  0  0
  9 10  1  0  0  0  0
  9 11  1  0  0  0  0
 11 12  1  0  0  0  0
 13 14  1  0  0  0  0
 13 11  2  0  0  0  0
 15 23  1  0  0  0  0
 16 17  1  0  0  0  0
 16 15  2  0  0  0  0
 17 19  2  0  0  0  0
 18 17  1  0  0  0  0
 19 20  1  0  0  0  0
 19 21  1  0  0  0  0
 21 22  1  0  0  0  0
 23 21  2  0  0  0  0
 23 24  1  0  0  0  0
 25 33  1  0  0  0  0
 26 25  2  0  0  0  0
 27 26  1  0  0  0  0
 27 29  2  0  0  0  0
 28 27  1  0  0  0  0
 29 31  1  0  0  0  0
 30 29  1  0  0  0  0
 31 33  2  0  0  0  0
 31 32  1  0  0  0  0
 33 34  1  0  0  0  0
 35 36  1  0  0  0  0
 35 37  1  0  0  0  0
 37 40  1  0  0  0  0
 37 38  1  0  0  0  0
 39 37  1  0  0  0  0
 41 43  1  0  0  0  0
 41 35  1  0  0  0  0
 42 41  1  0  0  0  0
 44 41  1  0  0  0  0
 45 47  1  0  0  0  0
 45 46  1  0  0  0  0
 45  3  1  0  0  0  0
 47 48  1  0  0  0  0
 49 47  1  0  0  0  0
 50 47  1  0  0  0  0
 51 45  1  0  0  0  0
 52 51  1  0  0  0  0
 53 51  1  0  0  0  0
 54 51  1  0  0  0  0
 55 57  1  0  0  0  0
 55 56  1  0  0  0  0
 57 59  1  0  0  0  0
 57 58  1  0  0  0  0
 60 57  1  0  0  0  0
 61 64  1  0  0  0  0
 61 55  1  0  0  0  0
 62 61  1  0  0  0  0
 63 61  1  0  0  0  0
M  END
