1,2,3,4
q = 0.0, confidence = 0.602

 38 40  0  0  0  0  0  0  0  0999 V2000
   -0.1063   -2.3185   -0.1978 S   0  0  0  0  0  1  0  0  0  0  0  0
   -0.2665    1.9626    0.8144 S   0  0  0  0  0  1  0  0  0  0  0  0
   -0.5212    0.5468   -2.4727 S   0  0  0  0  0  0  0  0  0  0  0  0
   -2.1952   -0.1730    0.1760 P   0  0  0  0  0  0  0  0  0  0  0  0
   -2.8108   -1.8744    0.2749 C   0  0  0  0  0  0  0  0  0  0  0  0
   -4.1451   -2.2870    0.4565 C   0  0  0  0  0  0  0  0  0  0  0  0
   -4.9485   -1.5406    0.5514 H   0  0  0  0  0  0  0  0  0  0  0  0
   -4.4569   -3.6516    0.4976 C   0  0  0  0  0  0  0  0  0  0  0  0
   -5.4968   -3.9778    0.6443 H   0  0  0  0  0  0  0  0  0  0  0  0
   -3.4253   -4.6008    0.3414 C   0  0  0  0  0  0  0  0  0  0  0  0
   -3.6641   -5.6754    0.3717 H   0  0  0  0  0  0  0  0  0  0  0  0
   -2.1018   -4.2007    0.1375 C   0  0  0  0  0  0  0  0  0  0  0  0
   -1.3051   -4.9478    0.0016 H   0  0  0  0  0  0  0  0  0  0  0  0
   -1.7678   -2.8234    0.0965 C   0  0  0  0  0  0  0  0  0  0  0  0
   -2.6679    0.8350    1.6097 C   0  0  0  0  0  0  0  0  0  0  0  0
   -3.8054    0.7140    2.4248 C   0  0  0  0  0  0  0  0  0  0  0  0
   -4.4947   -0.1329    2.2878 H   0  0  0  0  0  0  0  0  0  0  0  0
   -4.0449    1.6648    3.4288 C   0  0  0  0  0  0  0  0  0  0  0  0
   -4.9246    1.5692    4.0820 H   0  0  0  0  0  0  0  0  0  0  0  0
   -3.1472    2.7370    3.5949 C   0  0  0  0  0  0  0  0  0  0  0  0
   -3.3330    3.4872    4.3794 H   0  0  0  0  0  0  0  0  0  0  0  0
   -2.0042    2.8552    2.7935 C   0  0  0  0  0  0  0  0  0  0  0  0
   -1.2945    3.6819    2.9486 H   0  0  0  0  0  0  0  0  0  0  0  0
   -1.7309    1.8874    1.7999 C   0  0  0  0  0  0  0  0  0  0  0  0
   -3.0411    0.6245   -1.2568 C   0  0  0  0  0  0  0  0  0  0  0  0
   -4.4130    0.9450   -1.2292 C   0  0  0  0  0  0  0  0  0  0  0  0
   -4.9953    0.7562   -0.3142 H   0  0  0  0  0  0  0  0  0  0  0  0
   -5.0304    1.5328   -2.3400 C   0  0  0  0  0  0  0  0  0  0  0  0
   -6.1010    1.7842   -2.3046 H   0  0  0  0  0  0  0  0  0  0  0  0
   -4.2774    1.8042   -3.4957 C   0  0  0  0  0  0  0  0  0  0  0  0
   -4.7582    2.2577   -4.3757 H   0  0  0  0  0  0  0  0  0  0  0  0
   -2.9119    1.4952   -3.5335 C   0  0  0  0  0  0  0  0  0  0  0  0
   -2.3242    1.6998   -4.4411 H   0  0  0  0  0  0  0  0  0  0  0  0
   -2.2831    0.9198   -2.4120 C   0  0  0  0  0  0  0  0  0  0  0  0
    0.1371    2.2360   -2.6978 C   0  0  0  0  0  0  0  0  0  0  0  0
   -0.2340    2.6867   -3.6377 H   0  0  0  0  0  0  0  0  0  0  0  0
    1.2380    2.1336   -2.7430 H   0  0  0  0  0  0  0  0  0  0  0  0
   -0.1379    2.8454   -1.8143 H   0  0  0  0  0  0  0  0  0  0  0  0
  1 14  1  0  0  0  0
  2 24  1  0  0  0  0
  3 34  1  0  0  0  0
  4  5  1  0  0  0  0
  4 15  1  0  0  0  0
  5  6  1  0  0  0  0
  6  8  2  0  0  0  0
  6  7  1  0  0  0  0
  8  9  1  0  0  0  0
 10 11  1  0  0  0  0
 10  8  1  0  0  0  0
 12 10  2  0  0  0  0
 13 12  1  0  0  0  0
 14 12  1  0  0  0  0
 14  5  2  0  0  0  0
 15 24  2  0  0  0  0
 15 16  1  0  0  0  0
 16 18  2  0  0  0  0
 17 16  1  0  0  0  0
 18 20  1  0  0  0  0
 18 19  1  0  0  0  0
 20 21  1  0  0  0  0
 22 23  1  0  0  0  0
 22 20  2  0  0  0  0
 24 22  1  0  0  0  0
 25 26  1  0  0  0  0
 25  4  1  0  0  0  0
 26 27  1  0  0  0  0
 28 29  1  0  0  0  0
 28 26  2  0  0  0  0
 30 28  1  0  0  0  0
 31 30  1  0  0  0  0
 32 30  2  0  0  0  0
 32 34  1  0  0  0  0
 33 32  1  0  0  0  0
 34 25  2  0  0  0  0
 35  3  1  0  0  0  0
 35 38  1  0  0  0  0
 36 35  1  0  0  0  0
 37 35  1  0  0  0  0
M  END
