1,2,3,4
 OpenBabel05122313063D

 34 36  0  0  0  0  0  0  0  0999 V2000
    1.7017    0.4627    0.2599 P   0  0  0  0  0  0  0  0  0  0  0  0
    0.1609   -0.0544   -2.4249 S   0  0  0  0  0  1  0  0  0  0  0  0
   -0.0539    2.9599   -0.4273 S   0  0  0  0  0  1  0  0  0  0  0  0
   -0.8693    0.4133    2.0517 S   0  0  0  0  0  1  0  0  0  0  0  0
    2.6058   -0.4510   -1.0495 C   0  0  0  0  0  0  0  0  0  0  0  0
    1.8818   -0.5456   -2.2676 C   0  0  0  0  0  0  0  0  0  0  0  0
    2.5114   -1.1100   -3.3973 C   0  0  0  0  0  0  0  0  0  0  0  0
    3.8233   -1.5923   -3.3147 C   0  0  0  0  0  0  0  0  0  0  0  0
    4.5287   -1.5263   -2.1012 C   0  0  0  0  0  0  0  0  0  0  0  0
    3.9190   -0.9483   -0.9778 C   0  0  0  0  0  0  0  0  0  0  0  0
    2.5169    2.1238    0.2889 C   0  0  0  0  0  0  0  0  0  0  0  0
    1.6797    3.2112   -0.0385 C   0  0  0  0  0  0  0  0  0  0  0  0
    2.2107    4.5166   -0.0535 C   0  0  0  0  0  0  0  0  0  0  0  0
    3.5619    4.7294    0.2578 C   0  0  0  0  0  0  0  0  0  0  0  0
    4.3942    3.6468    0.5864 C   0  0  0  0  0  0  0  0  0  0  0  0
    3.8673    2.3444    0.6004 C   0  0  0  0  0  0  0  0  0  0  0  0
    1.9029   -0.1768    1.9678 C   0  0  0  0  0  0  0  0  0  0  0  0
    0.7117   -0.0996    2.7384 C   0  0  0  0  0  0  0  0  0  0  0  0
    0.7407   -0.5178    4.0865 C   0  0  0  0  0  0  0  0  0  0  0  0
    1.9226   -1.0122    4.6543 C   0  0  0  0  0  0  0  0  0  0  0  0
    3.0975   -1.0967    3.8875 C   0  0  0  0  0  0  0  0  0  0  0  0
    3.0827   -0.6710    2.5502 C   0  0  0  0  0  0  0  0  0  0  0  0
    1.9452   -1.1823   -4.3390 H   0  0  0  0  0  0  0  0  0  0  0  0
    4.2977   -2.0336   -4.2049 H   0  0  0  0  0  0  0  0  0  0  0  0
    5.5545   -1.9170   -2.0303 H   0  0  0  0  0  0  0  0  0  0  0  0
    4.4830   -0.8845   -0.0362 H   0  0  0  0  0  0  0  0  0  0  0  0
    1.5534    5.3615   -0.3103 H   0  0  0  0  0  0  0  0  0  0  0  0
    3.9688    5.7522    0.2440 H   0  0  0  0  0  0  0  0  0  0  0  0
    5.4536    3.8148    0.8314 H   0  0  0  0  0  0  0  0  0  0  0  0
    4.5205    1.4963    0.8574 H   0  0  0  0  0  0  0  0  0  0  0  0
   -0.1865   -0.4650    4.6783 H   0  0  0  0  0  0  0  0  0  0  0  0
    1.9251   -1.3410    5.7049 H   0  0  0  0  0  0  0  0  0  0  0  0
    4.0248   -1.4897    4.3302 H   0  0  0  0  0  0  0  0  0  0  0  0
    4.0055   -0.7377    1.9564 H   0  0  0  0  0  0  0  0  0  0  0  0
  1 11  1  0  0  0  0
  1 17  1  0  0  0  0
  2  6  1  0  0  0  0
  3 12  1  0  0  0  0
  4 18  1  0  0  0  0
  5 10  1  0  0  0  0
  5  1  1  0  0  0  0
  6  5  2  0  0  0  0
  7  8  2  0  0  0  0
  7  6  1  0  0  0  0
  8  9  1  0  0  0  0
  9 25  1  0  0  0  0
  9 10  2  0  0  0  0
 10 26  1  0  0  0  0
 11 16  1  0  0  0  0
 12 11  2  0  0  0  0
 13 12  1  0  0  0  0
 13 14  2  0  0  0  0
 14 15  1  0  0  0  0
 15 16  2  0  0  0  0
 15 29  1  0  0  0  0
 16 30  1  0  0  0  0
 17 22  2  0  0  0  0
 17 18  1  0  0  0  0
 18 19  2  0  0  0  0
 19 20  1  0  0  0  0
 19 31  1  0  0  0  0
 20 32  1  0  0  0  0
 21 33  1  0  0  0  0
 21 20  2  0  0  0  0
 22 21  1  0  0  0  0
 23  7  1  0  0  0  0
 24  8  1  0  0  0  0
 27 13  1  0  0  0  0
 28 14  1  0  0  0  0
 34 22  1  0  0  0  0
M  END
