1,2,3
q = 0.0, confidence = 0.996

 69 69  0  0  1  0  0  0  0  0999 V2000
   -2.2276    0.2180    0.1563 P   0  0  0  0  0  0  0  0  0  0  0  0
    2.3714   -0.0898   -0.0181 P   0  0  0  0  0  0  0  0  0  0  0  0
    0.2028    1.8449   -0.2577 N   0  0  0  0  0  2  0  0  0  0  0  0
   -2.0402    2.0109    0.6769 C   0  0  0  0  0  0  0  0  0  0  0  0
   -2.9531    2.6228    0.5450 H   0  0  0  0  0  0  0  0  0  0  0  0
   -1.8384    1.9323    1.7681 H   0  0  0  0  0  0  0  0  0  0  0  0
   -0.8499    2.6608    0.0475 C   0  0  1  0  0  3  0  0  0  0  0  0
   -0.7893    4.0460   -0.1688 C   0  0  0  0  0  0  0  0  0  0  0  0
   -1.6620    4.6643    0.0854 H   0  0  0  0  0  0  0  0  0  0  0  0
    0.3780    4.6198   -0.6848 C   0  0  0  0  0  0  0  0  0  0  0  0
    0.4445    5.7039   -0.8582 H   0  0  0  0  0  0  0  0  0  0  0  0
    1.4636    3.7809   -0.9649 C   0  0  0  0  0  0  0  0  0  0  0  0
    2.4053    4.1851   -1.3630 H   0  0  0  0  0  0  0  0  0  0  0  0
    1.3530    2.4003   -0.7462 C   0  0  0  0  0  0  0  0  0  0  0  0
    2.4818    1.4626   -1.0559 C   0  0  0  0  0  0  0  0  0  0  0  0
    3.4606    1.9796   -1.0062 H   0  0  0  0  0  0  0  0  0  0  0  0
    2.3503    1.0876   -2.0950 H   0  0  0  0  0  0  0  0  0  0  0  0
   -3.4717   -0.4149    1.5029 C   0  0  0  0  0  0  0  0  0  0  0  0
   -4.3694   -1.5507    0.9768 C   0  0  0  0  0  0  0  0  0  0  0  0
   -3.7731   -2.3892    0.5739 H   0  0  0  0  0  0  0  0  0  0  0  0
   -5.0978   -1.2074    0.2183 H   0  0  0  0  0  0  0  0  0  0  0  0
   -4.9571   -1.9437    1.8340 H   0  0  0  0  0  0  0  0  0  0  0  0
   -2.6169   -0.9726    2.6547 C   0  0  0  0  0  0  0  0  0  0  0  0
   -3.2886   -1.2510    3.4949 H   0  0  0  0  0  0  0  0  0  0  0  0
   -1.8735   -0.2397    3.0249 H   0  0  0  0  0  0  0  0  0  0  0  0
   -2.0768   -1.8783    2.3210 H   0  0  0  0  0  0  0  0  0  0  0  0
   -4.3662    0.7228    2.0339 C   0  0  0  0  0  0  0  0  0  0  0  0
   -4.9459    1.2274    1.2378 H   0  0  0  0  0  0  0  0  0  0  0  0
   -3.7972    1.4899    2.5937 H   0  0  0  0  0  0  0  0  0  0  0  0
   -5.0978    0.2844    2.7455 H   0  0  0  0  0  0  0  0  0  0  0  0
   -3.1217    0.3583   -1.5387 C   0  0  0  0  0  0  0  0  0  0  0  0
   -2.2551    1.2551   -2.4440 C   0  0  0  0  0  0  0  0  0  0  0  0
   -1.2057    0.8987   -2.4667 H   0  0  0  0  0  0  0  0  0  0  0  0
   -2.2702    2.3167   -2.1276 H   0  0  0  0  0  0  0  0  0  0  0  0
   -2.6604    1.2131   -3.4773 H   0  0  0  0  0  0  0  0  0  0  0  0
   -4.5254    0.9774   -1.4456 C   0  0  0  0  0  0  0  0  0  0  0  0
   -4.5075    1.9885   -0.9896 H   0  0  0  0  0  0  0  0  0  0  0  0
   -5.2390    0.3530   -0.8777 H   0  0  0  0  0  0  0  0  0  0  0  0
   -4.9359    1.0940   -2.4716 H   0  0  0  0  0  0  0  0  0  0  0  0
   -3.1700   -1.0453   -2.1666 C   0  0  0  0  0  0  0  0  0  0  0  0
   -3.6337   -0.9805   -3.1741 H   0  0  0  0  0  0  0  0  0  0  0  0
   -3.7491   -1.7705   -1.5674 H   0  0  0  0  0  0  0  0  0  0  0  0
   -2.1432   -1.4406   -2.2851 H   0  0  0  0  0  0  0  0  0  0  0  0
    3.2330    0.3631    1.6408 C   0  0  0  0  0  0  0  0  0  0  0  0
    2.9123   -0.7533    2.6521 C   0  0  0  0  0  0  0  0  0  0  0  0
    3.3914   -1.7158    2.3926 H   0  0  0  0  0  0  0  0  0  0  0  0
    1.8165   -0.9101    2.7127 H   0  0  0  0  0  0  0  0  0  0  0  0
    3.2805   -0.4540    3.6564 H   0  0  0  0  0  0  0  0  0  0  0  0
    2.5749    1.6655    2.1367 C   0  0  0  0  0  0  0  0  0  0  0  0
    2.9330    1.8754    3.1668 H   0  0  0  0  0  0  0  0  0  0  0  0
    1.4720    1.5613    2.1684 H   0  0  0  0  0  0  0  0  0  0  0  0
    2.8405    2.5396    1.5095 H   0  0  0  0  0  0  0  0  0  0  0  0
    4.7483    0.5886    1.5393 C   0  0  0  0  0  0  0  0  0  0  0  0
    5.1262    0.9375    2.5243 H   0  0  0  0  0  0  0  0  0  0  0  0
    5.0096    1.3704    0.7972 H   0  0  0  0  0  0  0  0  0  0  0  0
    5.3055   -0.3336    1.2876 H   0  0  0  0  0  0  0  0  0  0  0  0
    3.4898   -1.2926   -1.0255 C   0  0  0  0  0  0  0  0  0  0  0  0
    3.9142   -2.4854   -0.1492 C   0  0  0  0  0  0  0  0  0  0  0  0
    3.0460   -2.9868    0.3213 H   0  0  0  0  0  0  0  0  0  0  0  0
    4.6209   -2.1945    0.6509 H   0  0  0  0  0  0  0  0  0  0  0  0
    4.4286   -3.2355   -0.7869 H   0  0  0  0  0  0  0  0  0  0  0  0
    4.7423   -0.6031   -1.6011 C   0  0  0  0  0  0  0  0  0  0  0  0
    5.3964   -0.1635   -0.8279 H   0  0  0  0  0  0  0  0  0  0  0  0
    4.4844    0.1888   -2.3309 H   0  0  0  0  0  0  0  0  0  0  0  0
    5.3414   -1.3610   -2.1500 H   0  0  0  0  0  0  0  0  0  0  0  0
    2.6488   -1.8178   -2.2013 C   0  0  0  0  0  0  0  0  0  0  0  0
    3.2793   -2.4930   -2.8187 H   0  0  0  0  0  0  0  0  0  0  0  0
    2.2807   -1.0022   -2.8544 H   0  0  0  0  0  0  0  0  0  0  0  0
    1.7625   -2.3747   -1.8541 H   0  0  0  0  0  0  0  0  0  0  0  0
  1  4  1  0  0  0  0
  1 18  1  0  0  0  0
  2 44  1  0  0  0  0
  3  7  1  0  0  0  0
  4  6  1  0  0  0  0
  5  4  1  0  0  0  0
  7  4  1  1  0  0  0
  8  7  1  0  0  0  0
  8  9  1  0  0  0  0
 10  8  2  0  0  0  0
 11 10  1  0  0  0  0
 12 14  2  0  0  0  0
 12 10  1  0  0  0  0
 13 12  1  0  0  0  0
 14  3  1  0  0  0  0
 15 16  1  0  0  0  0
 15 14  1  0  0  0  0
 15  2  1  0  0  0  0
 17 15  1  0  0  0  0
 18 27  1  0  0  0  0
 18 23  1  0  0  0  0
 19 18  1  0  0  0  0
 19 22  1  0  0  0  0
 20 19  1  0  0  0  0
 21 19  1  0  0  0  0
 23 25  1  0  0  0  0
 23 24  1  0  0  0  0
 26 23  1  0  0  0  0
 27 29  1  0  0  0  0
 27 30  1  0  0  0  0
 28 27  1  0  0  0  0
 31 36  1  0  0  0  0
 31  1  1  0  0  0  0
 32 34  1  0  0  0  0
 32 31  1  0  0  0  0
 33 32  1  0  0  0  0
 35 32  1  0  0  0  0
 36 37  1  0  0  0  0
 36 38  1  0  0  0  0
 39 36  1  0  0  0  0
 40 42  1  0  0  0  0
 40 31  1  0  0  0  0
 41 40  1  0  0  0  0
 43 40  1  0  0  0  0
 44 49  1  0  0  0  0
 44 45  1  0  0  0  0
 45 47  1  0  0  0  0
 45 48  1  0  0  0  0
 46 45  1  0  0  0  0
 49 51  1  0  0  0  0
 49 50  1  0  0  0  0
 52 49  1  0  0  0  0
 53 44  1  0  0  0  0
 53 54  1  0  0  0  0
 55 53  1  0  0  0  0
 56 53  1  0  0  0  0
 57 58  1  0  0  0  0
 57  2  1  0  0  0  0
 58 59  1  0  0  0  0
 58 60  1  0  0  0  0
 61 58  1  0  0  0  0
 62 57  1  0  0  0  0
 62 63  1  0  0  0  0
 64 62  1  0  0  0  0
 65 62  1  0  0  0  0
 66 69  1  0  0  0  0
 66 57  1  0  0  0  0
 67 66  1  0  0  0  0
 68 66  1  0  0  0  0
M  END
