1,2,3
q = 0.0, confidence = 0.996

 67 67  0  0  1  0  0  0  0  0999 V2000
   -2.2378   -0.4249    0.2078 P   0  0  0  0  0  0  0  0  0  0  0  0
    2.2045   -0.3209   -0.1634 P   0  0  0  0  0  0  0  0  0  0  0  0
   -0.0802    1.4400   -0.0245 N   0  0  0  0  0  2  0  0  0  0  0  0
   -2.4345    1.3106    0.0303 N   0  0  0  0  0  0  0  0  0  0  0  0
    2.2801    1.4270   -0.0139 N   0  0  0  0  0  0  0  0  0  0  0  0
   -1.2893    2.0910   -0.0059 C   0  0  1  0  0  3  0  0  0  0  0  0
   -1.3453    3.5015   -0.0070 C   0  0  0  0  0  0  0  0  0  0  0  0
   -0.1495    4.2197   -0.0213 C   0  0  0  0  0  0  0  0  0  0  0  0
    1.0797    3.5604   -0.0244 C   0  0  0  0  0  0  0  0  0  0  0  0
    1.0939    2.1483   -0.0190 C   0  0  0  0  0  0  0  0  0  0  0  0
   -3.4736   -1.1098   -1.0259 C   0  0  0  0  0  0  0  0  0  0  0  0
   -3.1932   -0.7051   -2.4769 C   0  0  0  0  0  0  0  0  0  0  0  0
   -3.6748   -2.6261   -0.8944 C   0  0  0  0  0  0  0  0  0  0  0  0
   -3.0483   -0.8457    1.8543 C   0  0  0  0  0  0  0  0  0  0  0  0
   -2.8736    0.2610    2.9019 C   0  0  0  0  0  0  0  0  0  0  0  0
   -2.5936   -2.2140    2.3909 C   0  0  0  0  0  0  0  0  0  0  0  0
    3.1869   -0.6960   -1.7126 C   0  0  0  0  0  0  0  0  0  0  0  0
    2.9110    0.2665   -2.8732 C   0  0  0  0  0  0  0  0  0  0  0  0
    3.0354   -2.1771   -2.0931 C   0  0  0  0  0  0  0  0  0  0  0  0
    3.2457   -1.0155    1.2530 C   0  0  0  0  0  0  0  0  0  0  0  0
    4.7677   -0.8982    1.0912 C   0  0  0  0  0  0  0  0  0  0  0  0
    2.8757   -2.4704    1.5908 C   0  0  0  0  0  0  0  0  0  0  0  0
   -3.7610    1.9524    0.0966 C   0  0  0  0  0  0  0  0  0  0  0  0
   -4.2923    2.4840   -1.2342 C   0  0  0  0  0  0  0  0  0  0  0  0
    3.5653    2.1472    0.0213 C   0  0  0  0  0  0  0  0  0  0  0  0
    3.9597    2.6461    1.4103 C   0  0  0  0  0  0  0  0  0  0  0  0
   -2.3062    4.0248    0.0029 H   0  0  0  0  0  0  0  0  0  0  0  0
   -0.1759    5.3191   -0.0249 H   0  0  0  0  0  0  0  0  0  0  0  0
    2.0124    4.1324   -0.0254 H   0  0  0  0  0  0  0  0  0  0  0  0
   -4.4097   -0.6059   -0.6929 H   0  0  0  0  0  0  0  0  0  0  0  0
   -2.7770    0.3159   -2.5751 H   0  0  0  0  0  0  0  0  0  0  0  0
   -2.4990   -1.4132   -2.9632 H   0  0  0  0  0  0  0  0  0  0  0  0
   -4.1415   -0.7354   -3.0504 H   0  0  0  0  0  0  0  0  0  0  0  0
   -4.0847   -2.9227    0.0891 H   0  0  0  0  0  0  0  0  0  0  0  0
   -4.4009   -2.9565   -1.6643 H   0  0  0  0  0  0  0  0  0  0  0  0
   -2.7236   -3.1695   -1.0569 H   0  0  0  0  0  0  0  0  0  0  0  0
   -4.1287   -0.9193    1.5949 H   0  0  0  0  0  0  0  0  0  0  0  0
   -3.3287    1.2218    2.5995 H   0  0  0  0  0  0  0  0  0  0  0  0
   -3.3672   -0.0568    3.8426 H   0  0  0  0  0  0  0  0  0  0  0  0
   -1.8109    0.4469    3.1457 H   0  0  0  0  0  0  0  0  0  0  0  0
   -2.6046   -3.0117    1.6274 H   0  0  0  0  0  0  0  0  0  0  0  0
   -1.5672   -2.1728    2.7988 H   0  0  0  0  0  0  0  0  0  0  0  0
   -3.2670   -2.5146    3.2187 H   0  0  0  0  0  0  0  0  0  0  0  0
    4.2375   -0.5348   -1.3877 H   0  0  0  0  0  0  0  0  0  0  0  0
    3.0000    1.3287   -2.5747 H   0  0  0  0  0  0  0  0  0  0  0  0
    3.6601    0.0834   -3.6701 H   0  0  0  0  0  0  0  0  0  0  0  0
    1.9157    0.1179   -3.3267 H   0  0  0  0  0  0  0  0  0  0  0  0
    3.3727   -2.8549   -1.2860 H   0  0  0  0  0  0  0  0  0  0  0  0
    1.9890   -2.4457   -2.3313 H   0  0  0  0  0  0  0  0  0  0  0  0
    3.6556   -2.3885   -2.9872 H   0  0  0  0  0  0  0  0  0  0  0  0
    2.9202   -0.3650    2.0939 H   0  0  0  0  0  0  0  0  0  0  0  0
    5.1317    0.1278    0.9019 H   0  0  0  0  0  0  0  0  0  0  0  0
    5.2461   -1.2412    2.0310 H   0  0  0  0  0  0  0  0  0  0  0  0
    5.1452   -1.5594    0.2860 H   0  0  0  0  0  0  0  0  0  0  0  0
    1.7888   -2.6574    1.6468 H   0  0  0  0  0  0  0  0  0  0  0  0
    3.2832   -3.1728    0.8377 H   0  0  0  0  0  0  0  0  0  0  0  0
    3.3299   -2.7336    2.5670 H   0  0  0  0  0  0  0  0  0  0  0  0
   -3.7182    2.7633    0.8547 H   0  0  0  0  0  0  0  0  0  0  0  0
   -4.4680    1.2066    0.5102 H   0  0  0  0  0  0  0  0  0  0  0  0
   -5.2377    3.0356   -1.0628 H   0  0  0  0  0  0  0  0  0  0  0  0
   -3.5780    3.1787   -1.7173 H   0  0  0  0  0  0  0  0  0  0  0  0
   -4.5030    1.6660   -1.9476 H   0  0  0  0  0  0  0  0  0  0  0  0
    3.5252    2.9843   -0.7068 H   0  0  0  0  0  0  0  0  0  0  0  0
    4.3373    1.4613   -0.3754 H   0  0  0  0  0  0  0  0  0  0  0  0
    4.9264    3.1850    1.3603 H   0  0  0  0  0  0  0  0  0  0  0  0
    3.2044    3.3404    1.8269 H   0  0  0  0  0  0  0  0  0  0  0  0
    4.0737    1.8070    2.1238 H   0  0  0  0  0  0  0  0  0  0  0  0
  1 14  1  0  0  0  0
  2  5  1  0  0  0  0
  2 20  1  0  0  0  0
  3 10  1  0  0  0  0
  3  6  1  0  0  0  0
  4 23  1  0  0  0  0
  4  1  1  0  0  0  0
  5 25  1  0  0  0  0
  6  4  1  1  0  0  0
  7  6  1  0  0  0  0
  7 27  1  0  0  0  0
  8  7  2  0  0  0  0
  9  8  1  0  0  0  0
  9 10  2  0  0  0  0
 10  5  1  0  0  0  0
 11 13  1  0  0  0  0
 11 30  1  0  0  0  0
 11  1  1  0  0  0  0
 12 11  1  0  0  0  0
 13 34  1  0  0  0  0
 14 16  1  0  0  0  0
 14 15  1  0  0  0  0
 15 40  1  0  0  0  0
 15 39  1  0  0  0  0
 16 42  1  0  0  0  0
 16 43  1  0  0  0  0
 17 44  1  0  0  0  0
 17  2  1  0  0  0  0
 18 45  1  0  0  0  0
 18 17  1  0  0  0  0
 19 17  1  0  0  0  0
 19 48  1  0  0  0  0
 20 22  1  0  0  0  0
 20 51  1  0  0  0  0
 21 20  1  0  0  0  0
 21 53  1  0  0  0  0
 22 55  1  0  0  0  0
 22 57  1  0  0  0  0
 23 59  1  0  0  0  0
 23 58  1  0  0  0  0
 24 60  1  0  0  0  0
 24 23  1  0  0  0  0
 25 26  1  0  0  0  0
 26 66  1  0  0  0  0
 26 67  1  0  0  0  0
 28  8  1  0  0  0  0
 29  9  1  0  0  0  0
 31 12  1  0  0  0  0
 32 12  1  0  0  0  0
 33 12  1  0  0  0  0
 35 13  1  0  0  0  0
 36 13  1  0  0  0  0
 37 14  1  0  0  0  0
 38 15  1  0  0  0  0
 41 16  1  0  0  0  0
 46 18  1  0  0  0  0
 47 18  1  0  0  0  0
 49 19  1  0  0  0  0
 50 19  1  0  0  0  0
 52 21  1  0  0  0  0
 54 21  1  0  0  0  0
 56 22  1  0  0  0  0
 61 24  1  0  0  0  0
 62 24  1  0  0  0  0
 63 25  1  0  0  0  0
 64 25  1  0  0  0  0
 65 26  1  0  0  0  0
M  END
