1,2,32
q = 0.0, confidence = 0.998

 59 58  0  0  0  0  0  0  0  0999 V2000
   -2.2795   -0.3096    0.1083 P   0  0  0  0  0  0  0  0  0  0  0  0
   -0.0000   -2.2988    0.2737 N   0  0  0  0  0  0  0  0  0  0  0  0
    0.0000   -3.0138   -1.0206 C   0  0  0  0  0  0  0  0  0  0  0  0
   -1.2006   -2.6847    1.0620 C   0  0  0  0  0  0  0  0  0  0  0  0
   -2.4893   -2.1463    0.4639 C   0  0  0  0  0  0  0  0  0  0  0  0
   -3.3327    0.4119    1.5178 C   0  0  0  0  0  0  0  0  0  0  0  0
   -3.6630    1.8920    1.3109 C   0  0  0  0  0  0  0  0  0  0  0  0
   -2.6711    0.1775    2.8771 C   0  0  0  0  0  0  0  0  0  0  0  0
   -3.4677   -0.0989   -1.3659 C   0  0  0  0  0  0  0  0  0  0  0  0
   -2.8736   -0.7455   -2.6204 C   0  0  0  0  0  0  0  0  0  0  0  0
   -4.9072   -0.5630   -1.1182 C   0  0  0  0  0  0  0  0  0  0  0  0
    0.0000   -4.1202   -0.8641 H   0  0  0  0  0  0  0  0  0  0  0  0
    0.8838   -2.7198   -1.6094 H   0  0  0  0  0  0  0  0  0  0  0  0
   -1.0558   -2.2612    2.0743 H   0  0  0  0  0  0  0  0  0  0  0  0
   -1.2391   -3.7982    1.1559 H   0  0  0  0  0  0  0  0  0  0  0  0
   -3.3354   -2.3266    1.1579 H   0  0  0  0  0  0  0  0  0  0  0  0
   -2.7415   -2.6633   -0.4839 H   0  0  0  0  0  0  0  0  0  0  0  0
   -4.2814   -0.1671    1.4818 H   0  0  0  0  0  0  0  0  0  0  0  0
   -4.1937    2.0847    0.3569 H   0  0  0  0  0  0  0  0  0  0  0  0
   -2.7439    2.5101    1.3216 H   0  0  0  0  0  0  0  0  0  0  0  0
   -4.3149    2.2595    2.1313 H   0  0  0  0  0  0  0  0  0  0  0  0
   -2.5657   -0.9016    3.1095 H   0  0  0  0  0  0  0  0  0  0  0  0
   -3.2792    0.6335    3.6868 H   0  0  0  0  0  0  0  0  0  0  0  0
   -1.6512    0.6142    2.8897 H   0  0  0  0  0  0  0  0  0  0  0  0
   -3.4743    0.9991   -1.5295 H   0  0  0  0  0  0  0  0  0  0  0  0
   -1.7987   -0.4869   -2.7210 H   0  0  0  0  0  0  0  0  0  0  0  0
   -3.4223   -0.4172   -3.5277 H   0  0  0  0  0  0  0  0  0  0  0  0
   -2.9540   -1.8536   -2.5797 H   0  0  0  0  0  0  0  0  0  0  0  0
   -5.4067   -0.0085   -0.2996 H   0  0  0  0  0  0  0  0  0  0  0  0
   -4.9529   -1.6448   -0.8726 H   0  0  0  0  0  0  0  0  0  0  0  0
   -5.5196   -0.4156   -2.0333 H   0  0  0  0  0  0  0  0  0  0  0  0
    2.2795   -0.3096    0.1083 P   0  0  0  0  0  0  0  0  0  0  0  0
    1.2005   -2.6847    1.0621 C   0  0  0  0  0  0  0  0  0  0  0  0
    2.4893   -2.1463    0.4640 C   0  0  0  0  0  0  0  0  0  0  0  0
    3.3327    0.4120    1.5177 C   0  0  0  0  0  0  0  0  0  0  0  0
    3.6629    1.8921    1.3108 C   0  0  0  0  0  0  0  0  0  0  0  0
    2.6711    0.1775    2.8771 C   0  0  0  0  0  0  0  0  0  0  0  0
    3.4676   -0.0990   -1.3659 C   0  0  0  0  0  0  0  0  0  0  0  0
    2.8735   -0.7456   -2.6204 C   0  0  0  0  0  0  0  0  0  0  0  0
    4.9072   -0.5631   -1.1182 C   0  0  0  0  0  0  0  0  0  0  0  0
   -0.8837   -2.7198   -1.6095 H   0  0  0  0  0  0  0  0  0  0  0  0
    1.0557   -2.2612    2.0743 H   0  0  0  0  0  0  0  0  0  0  0  0
    1.2390   -3.7981    1.1560 H   0  0  0  0  0  0  0  0  0  0  0  0
    3.3353   -2.3265    1.1581 H   0  0  0  0  0  0  0  0  0  0  0  0
    2.7415   -2.6633   -0.4838 H   0  0  0  0  0  0  0  0  0  0  0  0
    4.2815   -0.1669    1.4817 H   0  0  0  0  0  0  0  0  0  0  0  0
    4.1935    2.0848    0.3568 H   0  0  0  0  0  0  0  0  0  0  0  0
    2.7437    2.5101    1.3216 H   0  0  0  0  0  0  0  0  0  0  0  0
    4.3147    2.2596    2.1312 H   0  0  0  0  0  0  0  0  0  0  0  0
    2.5659   -0.9016    3.1095 H   0  0  0  0  0  0  0  0  0  0  0  0
    3.2793    0.6336    3.6867 H   0  0  0  0  0  0  0  0  0  0  0  0
    1.6513    0.6141    2.8897 H   0  0  0  0  0  0  0  0  0  0  0  0
    3.4743    0.9990   -1.5296 H   0  0  0  0  0  0  0  0  0  0  0  0
    1.7987   -0.4871   -2.7209 H   0  0  0  0  0  0  0  0  0  0  0  0
    3.4223   -0.4173   -3.5277 H   0  0  0  0  0  0  0  0  0  0  0  0
    2.9540   -1.8537   -2.5797 H   0  0  0  0  0  0  0  0  0  0  0  0
    5.4067   -0.0085   -0.2997 H   0  0  0  0  0  0  0  0  0  0  0  0
    4.9528   -1.6449   -0.8726 H   0  0  0  0  0  0  0  0  0  0  0  0
    5.5196   -0.4157   -2.0333 H   0  0  0  0  0  0  0  0  0  0  0  0
  1  5  1  0  0  0  0
  1  6  1  0  0  0  0
  2  4  1  0  0  0  0
  2 33  1  0  0  0  0
  3 12  1  0  0  0  0
  3  2  1  0  0  0  0
  4 15  1  0  0  0  0
  4 14  1  0  0  0  0
  5  4  1  0  0  0  0
  5 16  1  0  0  0  0
  6  8  1  0  0  0  0
  7 20  1  0  0  0  0
  7  6  1  0  0  0  0
  7 21  1  0  0  0  0
  8 24  1  0  0  0  0
  8 22  1  0  0  0  0
  8 23  1  0  0  0  0
  9 11  1  0  0  0  0
  9  1  1  0  0  0  0
 10 28  1  0  0  0  0
 10  9  1  0  0  0  0
 11 30  1  0  0  0  0
 11 29  1  0  0  0  0
 13  3  1  0  0  0  0
 17  5  1  0  0  0  0
 18  6  1  0  0  0  0
 19  7  1  0  0  0  0
 25  9  1  0  0  0  0
 26 10  1  0  0  0  0
 27 10  1  0  0  0  0
 31 11  1  0  0  0  0
 32 34  1  0  0  0  0
 32 35  1  0  0  0  0
 33 43  1  0  0  0  0
 33 42  1  0  0  0  0
 34 33  1  0  0  0  0
 34 44  1  0  0  0  0
 35 37  1  0  0  0  0
 36 48  1  0  0  0  0
 36 35  1  0  0  0  0
 36 49  1  0  0  0  0
 37 52  1  0  0  0  0
 37 50  1  0  0  0  0
 37 51  1  0  0  0  0
 38 40  1  0  0  0  0
 38 32  1  0  0  0  0
 39 56  1  0  0  0  0
 39 38  1  0  0  0  0
 40 58  1  0  0  0  0
 40 57  1  0  0  0  0
 41  3  1  0  0  0  0
 45 34  1  0  0  0  0
 46 35  1  0  0  0  0
 47 36  1  0  0  0  0
 53 38  1  0  0  0  0
 54 39  1  0  0  0  0
 55 39  1  0  0  0  0
 59 40  1  0  0  0  0
M  END
