1,2,3
q = 0.0, confidence = 0.998

 60 63  0  0  0  0  0  0  0  0999 V2000
   -2.1737   -0.1591    0.5696 P   0  0  0  0  0  0  0  0  0  0  0  0
    2.1658   -0.2802    0.5654 P   0  0  0  0  0  0  0  0  0  0  0  0
   -0.0019   -0.0641    2.4918 N   0  0  0  0  0  0  0  0  0  0  0  0
    2.4691   -0.1844    2.3967 C   0  0  0  0  0  0  0  0  0  0  0  0
   -1.2060    0.7003    2.9431 C   0  0  0  0  0  0  0  0  0  0  0  0
    5.0733   -3.4431   -1.1209 C   0  0  0  0  0  0  0  0  0  0  0  0
    2.5768    2.8396   -2.0538 C   0  0  0  0  0  0  0  0  0  0  0  0
    3.3135   -1.5019   -0.1293 C   0  0  0  0  0  0  0  0  0  0  0  0
   -3.4287   -1.2891   -0.0898 C   0  0  0  0  0  0  0  0  0  0  0  0
   -4.2540   -2.0820    0.7352 C   0  0  0  0  0  0  0  0  0  0  0  0
   -3.8073    2.0270   -0.1513 C   0  0  0  0  0  0  0  0  0  0  0  0
   -4.0279    3.3064   -0.6789 C   0  0  0  0  0  0  0  0  0  0  0  0
    1.2701    0.5433    2.9925 C   0  0  0  0  0  0  0  0  0  0  0  0
    2.2712    1.6027   -1.4711 C   0  0  0  0  0  0  0  0  0  0  0  0
   -1.6661    3.4956   -1.2424 C   0  0  0  0  0  0  0  0  0  0  0  0
    3.5671    3.5929    0.0353 C   0  0  0  0  0  0  0  0  0  0  0  0
    3.2704    2.3544    0.6262 C   0  0  0  0  0  0  0  0  0  0  0  0
    4.6616   -1.1658   -0.3740 C   0  0  0  0  0  0  0  0  0  0  0  0
    3.7276   -3.7716   -0.8910 C   0  0  0  0  0  0  0  0  0  0  0  0
    2.6206    1.3519   -0.1237 C   0  0  0  0  0  0  0  0  0  0  0  0
   -5.1859   -2.9564    0.1572 C   0  0  0  0  0  0  0  0  0  0  0  0
    2.8416   -2.8029   -0.3987 C   0  0  0  0  0  0  0  0  0  0  0  0
   -2.5055    1.4825   -0.1629 C   0  0  0  0  0  0  0  0  0  0  0  0
   -2.4704    0.0516    2.3946 C   0  0  0  0  0  0  0  0  0  0  0  0
   -1.4364    2.2154   -0.7172 C   0  0  0  0  0  0  0  0  0  0  0  0
   -3.5360   -1.3879   -1.4961 C   0  0  0  0  0  0  0  0  0  0  0  0
   -4.4674   -2.2669   -2.0624 C   0  0  0  0  0  0  0  0  0  0  0  0
    5.5388   -2.1421   -0.8655 C   0  0  0  0  0  0  0  0  0  0  0  0
   -2.9586    4.0416   -1.2205 C   0  0  0  0  0  0  0  0  0  0  0  0
   -5.2930   -3.0504   -1.2391 C   0  0  0  0  0  0  0  0  0  0  0  0
    3.2209    3.8375   -1.3022 C   0  0  0  0  0  0  0  0  0  0  0  0
   -1.0986    1.7333    2.5534 H   0  0  0  0  0  0  0  0  0  0  0  0
   -1.2226    0.7589    4.0531 H   0  0  0  0  0  0  0  0  0  0  0  0
   -2.6246   -0.9507    2.8467 H   0  0  0  0  0  0  0  0  0  0  0  0
   -3.3692    0.6631    2.6092 H   0  0  0  0  0  0  0  0  0  0  0  0
    2.5311   -1.2327    2.7577 H   0  0  0  0  0  0  0  0  0  0  0  0
   -4.6498    1.4459    0.2560 H   0  0  0  0  0  0  0  0  0  0  0  0
    3.4575    4.8086   -1.7621 H   0  0  0  0  0  0  0  0  0  0  0  0
    3.5644    2.1801    1.6719 H   0  0  0  0  0  0  0  0  0  0  0  0
    1.7771   -3.0400   -0.2531 H   0  0  0  0  0  0  0  0  0  0  0  0
   -4.1876   -2.0207    1.8314 H   0  0  0  0  0  0  0  0  0  0  0  0
    1.7505    0.8248   -2.0521 H   0  0  0  0  0  0  0  0  0  0  0  0
    6.5909   -1.8842   -1.0572 H   0  0  0  0  0  0  0  0  0  0  0  0
    1.2649    1.6062    2.6763 H   0  0  0  0  0  0  0  0  0  0  0  0
    5.7642   -4.2043   -1.5132 H   0  0  0  0  0  0  0  0  0  0  0  0
    3.4274    0.3040    2.6634 H   0  0  0  0  0  0  0  0  0  0  0  0
   -0.4319    1.7670   -0.7599 H   0  0  0  0  0  0  0  0  0  0  0  0
    5.0215   -0.1418   -0.1894 H   0  0  0  0  0  0  0  0  0  0  0  0
   -3.1395    5.0441   -1.6365 H   0  0  0  0  0  0  0  0  0  0  0  0
   -0.0682   -1.0164    2.8942 H   0  0  0  0  0  0  0  0  0  0  0  0
    4.0778    4.3686    0.6252 H   0  0  0  0  0  0  0  0  0  0  0  0
    3.3614   -4.7858   -1.1088 H   0  0  0  0  0  0  0  0  0  0  0  0
   -2.8815   -0.7820   -2.1394 H   0  0  0  0  0  0  0  0  0  0  0  0
   -0.8288    4.0622   -1.6771 H   0  0  0  0  0  0  0  0  0  0  0  0
   -5.0428    3.7313   -0.6743 H   0  0  0  0  0  0  0  0  0  0  0  0
   -5.8341   -3.5658    0.8042 H   0  0  0  0  0  0  0  0  0  0  0  0
    2.3092    3.0252   -3.1049 H   0  0  0  0  0  0  0  0  0  0  0  0
   -4.5486   -2.3409   -3.1569 H   0  0  0  0  0  0  0  0  0  0  0  0
   -6.0252   -3.7378   -1.6884 H   0  0  0  0  0  0  0  0  0  0  0  0
    1.2836    0.5248    4.1040 H   0  0  0  0  0  0  0  0  0  0  0  0
  1 24  1  0  0  0  0
  2  4  1  0  0  0  0
  3 50  1  0  0  0  0
  3  5  1  0  0  0  0
  3 13  1  0  0  0  0
  4 46  1  0  0  0  0
  4 36  1  0  0  0  0
  4 13  1  0  0  0  0
  5 33  1  0  0  0  0
  6 19  2  0  0  0  0
  6 28  1  0  0  0  0
  7 14  2  0  0  0  0
  7 31  1  0  0  0  0
  8  2  1  0  0  0  0
  9  1  1  0  0  0  0
  9 10  1  0  0  0  0
 10 41  1  0  0  0  0
 11 37  1  0  0  0  0
 12 55  1  0  0  0  0
 12 11  2  0  0  0  0
 13 60  1  0  0  0  0
 14 20  1  0  0  0  0
 15 29  2  0  0  0  0
 15 25  1  0  0  0  0
 16 51  1  0  0  0  0
 16 17  1  0  0  0  0
 17 39  1  0  0  0  0
 18 48  1  0  0  0  0
 18  8  1  0  0  0  0
 19 22  1  0  0  0  0
 20  2  1  0  0  0  0
 20 17  2  0  0  0  0
 21 10  2  0  0  0  0
 21 56  1  0  0  0  0
 22 40  1  0  0  0  0
 22  8  2  0  0  0  0
 23 11  1  0  0  0  0
 23  1  1  0  0  0  0
 24 35  1  0  0  0  0
 24 34  1  0  0  0  0
 24  5  1  0  0  0  0
 25 23  2  0  0  0  0
 26  9  2  0  0  0  0
 27 26  1  0  0  0  0
 27 30  2  0  0  0  0
 28 18  2  0  0  0  0
 29 12  1  0  0  0  0
 30 21  1  0  0  0  0
 31 16  2  0  0  0  0
 32  5  1  0  0  0  0
 38 31  1  0  0  0  0
 42 14  1  0  0  0  0
 43 28  1  0  0  0  0
 44 13  1  0  0  0  0
 45  6  1  0  0  0  0
 47 25  1  0  0  0  0
 49 29  1  0  0  0  0
 52 19  1  0  0  0  0
 53 26  1  0  0  0  0
 54 15  1  0  0  0  0
 57  7  1  0  0  0  0
 58 27  1  0  0  0  0
 59 30  1  0  0  0  0
M  END
