1,2,5
q = 0.0, confidence = 0.994

 65 65  0  0  1  0  0  0  0  0999 V2000
   -2.1602   -0.1921   -0.0124 P   0  0  0  0  0  0  0  0  0  0  0  0
    2.1602   -0.1922    0.0124 P   0  0  0  0  0  0  0  0  0  0  0  0
   -2.3158    1.5368   -0.1101 O   0  0  0  0  0  0  0  0  0  0  0  0
    2.3158    1.5368    0.1102 O   0  0  0  0  0  0  0  0  0  0  0  0
    0.0000    1.5628    0.0000 N   0  0  0  0  0  2  0  0  0  0  0  0
   -1.1802    2.2524   -0.0561 C   0  0  2  0  0  3  0  0  0  0  0  0
   -1.2182    3.6517   -0.0575 C   0  0  0  0  0  0  0  0  0  0  0  0
   -2.1877    4.1629   -0.1022 H   0  0  0  0  0  0  0  0  0  0  0  0
    0.0000    4.3426    0.0001 C   0  0  0  0  0  0  0  0  0  0  0  0
    0.0001    5.4425    0.0002 H   0  0  0  0  0  0  0  0  0  0  0  0
    1.2183    3.6516    0.0577 C   0  0  0  0  0  0  0  0  0  0  0  0
    2.1878    4.1629    0.1025 H   0  0  0  0  0  0  0  0  0  0  0  0
    1.1802    2.2523    0.0562 C   0  0  0  0  0  0  0  0  0  0  0  0
   -3.0432   -0.5306    1.6094 C   0  0  0  0  0  0  0  0  0  0  0  0
   -2.2342    0.2565    2.6624 C   0  0  0  0  0  0  0  0  0  0  0  0
   -2.6675    0.0536    3.6630 H   0  0  0  0  0  0  0  0  0  0  0  0
   -2.2765    1.3506    2.4951 H   0  0  0  0  0  0  0  0  0  0  0  0
   -1.1721   -0.0613    2.6875 H   0  0  0  0  0  0  0  0  0  0  0  0
   -2.9600   -2.0385    1.9148 C   0  0  0  0  0  0  0  0  0  0  0  0
   -3.3503   -2.2037    2.9401 H   0  0  0  0  0  0  0  0  0  0  0  0
   -1.9231   -2.4252    1.8768 H   0  0  0  0  0  0  0  0  0  0  0  0
   -3.5753   -2.6442    1.2249 H   0  0  0  0  0  0  0  0  0  0  0  0
   -4.4996   -0.0429    1.5787 C   0  0  0  0  0  0  0  0  0  0  0  0
   -4.9218   -0.1285    2.6013 H   0  0  0  0  0  0  0  0  0  0  0  0
   -5.1304   -0.6607    0.9117 H   0  0  0  0  0  0  0  0  0  0  0  0
   -4.5790    1.0173    1.2685 H   0  0  0  0  0  0  0  0  0  0  0  0
   -3.0126   -0.7095   -1.6026 C   0  0  0  0  0  0  0  0  0  0  0  0
   -1.9631   -0.4460   -2.7040 C   0  0  0  0  0  0  0  0  0  0  0  0
   -2.4169   -0.6733   -3.6906 H   0  0  0  0  0  0  0  0  0  0  0  0
   -1.0747   -1.0977   -2.5831 H   0  0  0  0  0  0  0  0  0  0  0  0
   -1.6337    0.6129   -2.7273 H   0  0  0  0  0  0  0  0  0  0  0  0
   -3.3229   -2.2157   -1.5254 C   0  0  0  0  0  0  0  0  0  0  0  0
   -3.6339   -2.5586   -2.5337 H   0  0  0  0  0  0  0  0  0  0  0  0
   -4.1592   -2.4317   -0.8333 H   0  0  0  0  0  0  0  0  0  0  0  0
   -2.4409   -2.8165   -1.2245 H   0  0  0  0  0  0  0  0  0  0  0  0
   -4.2795    0.1189   -1.8720 C   0  0  0  0  0  0  0  0  0  0  0  0
   -4.6789   -0.1734   -2.8650 H   0  0  0  0  0  0  0  0  0  0  0  0
   -4.0672    1.2046   -1.8970 H   0  0  0  0  0  0  0  0  0  0  0  0
   -5.0747   -0.0669   -1.1276 H   0  0  0  0  0  0  0  0  0  0  0  0
    3.0128   -0.7096    1.6025 C   0  0  0  0  0  0  0  0  0  0  0  0
    1.9633   -0.4461    2.7040 C   0  0  0  0  0  0  0  0  0  0  0  0
    2.4172   -0.6734    3.6905 H   0  0  0  0  0  0  0  0  0  0  0  0
    1.0749   -1.0978    2.5831 H   0  0  0  0  0  0  0  0  0  0  0  0
    1.6340    0.6129    2.7273 H   0  0  0  0  0  0  0  0  0  0  0  0
    3.3230   -2.2158    1.5252 C   0  0  0  0  0  0  0  0  0  0  0  0
    3.6339   -2.5588    2.5335 H   0  0  0  0  0  0  0  0  0  0  0  0
    4.1592   -2.4318    0.8332 H   0  0  0  0  0  0  0  0  0  0  0  0
    2.4409   -2.8165    1.2243 H   0  0  0  0  0  0  0  0  0  0  0  0
    4.2797    0.1187    1.8718 C   0  0  0  0  0  0  0  0  0  0  0  0
    4.6792   -0.1737    2.8648 H   0  0  0  0  0  0  0  0  0  0  0  0
    4.0674    1.2044    1.8968 H   0  0  0  0  0  0  0  0  0  0  0  0
    5.0749   -0.0672    1.1273 H   0  0  0  0  0  0  0  0  0  0  0  0
    3.0431   -0.5306   -1.6095 C   0  0  0  0  0  0  0  0  0  0  0  0
    2.2342    0.2568   -2.6624 C   0  0  0  0  0  0  0  0  0  0  0  0
    2.6673    0.0537   -3.6630 H   0  0  0  0  0  0  0  0  0  0  0  0
    2.2768    1.3508   -2.4951 H   0  0  0  0  0  0  0  0  0  0  0  0
    1.1720   -0.0608   -2.6874 H   0  0  0  0  0  0  0  0  0  0  0  0
    2.9597   -2.0384   -1.9150 C   0  0  0  0  0  0  0  0  0  0  0  0
    3.3502   -2.2036   -2.9402 H   0  0  0  0  0  0  0  0  0  0  0  0
    1.9227   -2.4249   -1.8772 H   0  0  0  0  0  0  0  0  0  0  0  0
    3.5749   -2.6443   -1.2251 H   0  0  0  0  0  0  0  0  0  0  0  0
    4.4996   -0.0430   -1.5788 C   0  0  0  0  0  0  0  0  0  0  0  0
    4.9217   -0.1284   -2.6014 H   0  0  0  0  0  0  0  0  0  0  0  0
    5.1303   -0.6610   -0.9120 H   0  0  0  0  0  0  0  0  0  0  0  0
    4.5791    1.0171   -1.2684 H   0  0  0  0  0  0  0  0  0  0  0  0
  1 14  1  0  0  0  0
  2  4  1  0  0  0  0
  2 40  1  0  0  0  0
  3  1  1  0  0  0  0
  5 13  1  0  0  0  0
  6  3  1  1  0  0  0
  6  5  1  0  0  0  0
  7  6  1  0  0  0  0
  7  9  2  0  0  0  0
  8  7  1  0  0  0  0
  9 10  1  0  0  0  0
  9 11  1  0  0  0  0
 11 12  1  0  0  0  0
 13 11  2  0  0  0  0
 13  4  1  0  0  0  0
 14 19  1  0  0  0  0
 14 15  1  0  0  0  0
 15 18  1  0  0  0  0
 15 16  1  0  0  0  0
 17 15  1  0  0  0  0
 19 20  1  0  0  0  0
 21 19  1  0  0  0  0
 22 19  1  0  0  0  0
 23 14  1  0  0  0  0
 23 24  1  0  0  0  0
 25 23  1  0  0  0  0
 26 23  1  0  0  0  0
 27 32  1  0  0  0  0
 27  1  1  0  0  0  0
 28 30  1  0  0  0  0
 28 27  1  0  0  0  0
 29 28  1  0  0  0  0
 31 28  1  0  0  0  0
 32 35  1  0  0  0  0
 32 34  1  0  0  0  0
 33 32  1  0  0  0  0
 36 27  1  0  0  0  0
 36 39  1  0  0  0  0
 37 36  1  0  0  0  0
 38 36  1  0  0  0  0
 40 49  1  0  0  0  0
 40 41  1  0  0  0  0
 41 44  1  0  0  0  0
 41 42  1  0  0  0  0
 43 41  1  0  0  0  0
 45 40  1  0  0  0  0
 45 46  1  0  0  0  0
 47 45  1  0  0  0  0
 48 45  1  0  0  0  0
 49 51  1  0  0  0  0
 49 50  1  0  0  0  0
 52 49  1  0  0  0  0
 53 62  1  0  0  0  0
 53  2  1  0  0  0  0
 54 56  1  0  0  0  0
 54 53  1  0  0  0  0
 55 54  1  0  0  0  0
 57 54  1  0  0  0  0
 58 60  1  0  0  0  0
 58 53  1  0  0  0  0
 58 61  1  0  0  0  0
 59 58  1  0  0  0  0
 62 65  1  0  0  0  0
 62 64  1  0  0  0  0
 63 62  1  0  0  0  0
M  END
