1,2,3
q = -1.0, confidence = 0.024

 67 66  0  0  0  0  0  0  0  0999 V2000
    2.3934   -0.0118    0.2610 P   0  0  0  0  0  0  0  0  0  0  0  0
   -2.3934   -0.0118    0.2609 P   0  0  0  0  0  0  0  0  0  0  0  0
   -0.0000   -0.7032    1.7926 N   0  0  0  0  0  2  0  0  0  0  0  0
    2.4627   -0.4996    2.0602 C   0  0  0  0  0  0  0  0  0  0  0  0
    3.3858   -1.0647    2.3002 H   0  0  0  0  0  0  0  0  0  0  0  0
    2.4911    0.4428    2.6424 H   0  0  0  0  0  0  0  0  0  0  0  0
    1.1957   -1.2759    2.4174 C   0  0  0  0  0  0  0  0  0  0  0  0
    1.3122   -2.3533    2.1341 H   0  0  0  0  0  0  0  0  0  0  0  0
    1.0765   -1.2696    3.5281 H   0  0  0  0  0  0  0  0  0  0  0  0
   -1.1957   -1.2758    2.4174 C   0  0  0  0  0  0  0  0  0  0  0  0
   -1.0766   -1.2694    3.5282 H   0  0  0  0  0  0  0  0  0  0  0  0
   -1.3123   -2.3532    2.1343 H   0  0  0  0  0  0  0  0  0  0  0  0
   -2.4627   -0.4995    2.0601 C   0  0  0  0  0  0  0  0  0  0  0  0
   -2.4912    0.4429    2.6423 H   0  0  0  0  0  0  0  0  0  0  0  0
   -3.3858   -1.0646    2.3002 H   0  0  0  0  0  0  0  0  0  0  0  0
    3.4817   -1.2634   -0.6863 C   0  0  0  0  0  0  0  0  0  0  0  0
    3.1876   -1.1244   -2.1912 C   0  0  0  0  0  0  0  0  0  0  0  0
    2.1145   -1.2940   -2.4027 H   0  0  0  0  0  0  0  0  0  0  0  0
    3.7788   -1.8847   -2.7446 H   0  0  0  0  0  0  0  0  0  0  0  0
    3.4609   -0.1285   -2.5860 H   0  0  0  0  0  0  0  0  0  0  0  0
    4.9799   -1.0660   -0.4074 C   0  0  0  0  0  0  0  0  0  0  0  0
    5.3641   -0.1130   -0.8182 H   0  0  0  0  0  0  0  0  0  0  0  0
    5.5451   -1.8870   -0.8976 H   0  0  0  0  0  0  0  0  0  0  0  0
    5.2173   -1.1051    0.6751 H   0  0  0  0  0  0  0  0  0  0  0  0
    3.0671   -2.6734   -0.2250 C   0  0  0  0  0  0  0  0  0  0  0  0
    3.3211   -2.8607    0.8375 H   0  0  0  0  0  0  0  0  0  0  0  0
    3.6213   -3.4189   -0.8337 H   0  0  0  0  0  0  0  0  0  0  0  0
    1.9840   -2.8494   -0.3746 H   0  0  0  0  0  0  0  0  0  0  0  0
    3.1404    1.7494    0.2676 C   0  0  0  0  0  0  0  0  0  0  0  0
    3.4416    2.1986   -1.1720 C   0  0  0  0  0  0  0  0  0  0  0  0
    4.2941    1.6460   -1.6129 H   0  0  0  0  0  0  0  0  0  0  0  0
    3.7174    3.2749   -1.1619 H   0  0  0  0  0  0  0  0  0  0  0  0
    2.5504    2.0803   -1.8209 H   0  0  0  0  0  0  0  0  0  0  0  0
    4.3989    1.8712    1.1445 C   0  0  0  0  0  0  0  0  0  0  0  0
    4.2127    1.5854    2.1985 H   0  0  0  0  0  0  0  0  0  0  0  0
    4.7224    2.9341    1.1496 H   0  0  0  0  0  0  0  0  0  0  0  0
    5.2464    1.2708    0.7686 H   0  0  0  0  0  0  0  0  0  0  0  0
    2.0309    2.6509    0.8491 C   0  0  0  0  0  0  0  0  0  0  0  0
    1.1588    2.6844    0.1680 H   0  0  0  0  0  0  0  0  0  0  0  0
    2.4236    3.6845    0.9563 H   0  0  0  0  0  0  0  0  0  0  0  0
    1.6892    2.3181    1.8507 H   0  0  0  0  0  0  0  0  0  0  0  0
   -3.4816   -1.2635   -0.6864 C   0  0  0  0  0  0  0  0  0  0  0  0
   -3.1876   -1.1244   -2.1913 C   0  0  0  0  0  0  0  0  0  0  0  0
   -3.4610   -0.1286   -2.5861 H   0  0  0  0  0  0  0  0  0  0  0  0
   -3.7787   -1.8848   -2.7447 H   0  0  0  0  0  0  0  0  0  0  0  0
   -2.1145   -1.2939   -2.4028 H   0  0  0  0  0  0  0  0  0  0  0  0
   -3.0669   -2.6734   -0.2250 C   0  0  0  0  0  0  0  0  0  0  0  0
   -1.9838   -2.8494   -0.3747 H   0  0  0  0  0  0  0  0  0  0  0  0
   -3.6211   -3.4190   -0.8338 H   0  0  0  0  0  0  0  0  0  0  0  0
   -3.3209   -2.8607    0.8374 H   0  0  0  0  0  0  0  0  0  0  0  0
   -4.9798   -1.0662   -0.4074 C   0  0  0  0  0  0  0  0  0  0  0  0
   -5.2172   -1.1053    0.6751 H   0  0  0  0  0  0  0  0  0  0  0  0
   -5.5450   -1.8872   -0.8975 H   0  0  0  0  0  0  0  0  0  0  0  0
   -5.3641   -0.1133   -0.8182 H   0  0  0  0  0  0  0  0  0  0  0  0
   -3.1406    1.7494    0.2676 C   0  0  0  0  0  0  0  0  0  0  0  0
   -3.4419    2.1985   -1.1720 C   0  0  0  0  0  0  0  0  0  0  0  0
   -2.5508    2.0803   -1.8209 H   0  0  0  0  0  0  0  0  0  0  0  0
   -3.7178    3.2748   -1.1619 H   0  0  0  0  0  0  0  0  0  0  0  0
   -4.2944    1.6459   -1.6128 H   0  0  0  0  0  0  0  0  0  0  0  0
   -2.0312    2.6510    0.8490 C   0  0  0  0  0  0  0  0  0  0  0  0
   -1.6892    2.3182    1.8505 H   0  0  0  0  0  0  0  0  0  0  0  0
   -2.4240    3.6845    0.9563 H   0  0  0  0  0  0  0  0  0  0  0  0
   -1.1592    2.6847    0.1678 H   0  0  0  0  0  0  0  0  0  0  0  0
   -4.3990    1.8710    1.1446 C   0  0  0  0  0  0  0  0  0  0  0  0
   -5.2465    1.2705    0.7687 H   0  0  0  0  0  0  0  0  0  0  0  0
   -4.7226    2.9339    1.1497 H   0  0  0  0  0  0  0  0  0  0  0  0
   -4.2126    1.5852    2.1986 H   0  0  0  0  0  0  0  0  0  0  0  0
  1 29  1  0  0  0  0
  1  4  1  0  0  0  0
  2 55  1  0  0  0  0
  2 13  1  0  0  0  0
  3  7  1  0  0  0  0
  3 10  1  0  0  0  0
  4  5  1  0  0  0  0
  4  7  1  0  0  0  0
  4  6  1  0  0  0  0
  7  9  1  0  0  0  0
  8  7  1  0  0  0  0
 10 11  1  0  0  0  0
 12 10  1  0  0  0  0
 13 15  1  0  0  0  0
 13 10  1  0  0  0  0
 13 14  1  0  0  0  0
 16 21  1  0  0  0  0
 16 25  1  0  0  0  0
 16  1  1  0  0  0  0
 17 16  1  0  0  0  0
 18 17  1  0  0  0  0
 19 17  1  0  0  0  0
 20 17  1  0  0  0  0
 21 24  1  0  0  0  0
 22 21  1  0  0  0  0
 23 21  1  0  0  0  0
 25 26  1  0  0  0  0
 27 25  1  0  0  0  0
 28 25  1  0  0  0  0
 29 38  1  0  0  0  0
 29 34  1  0  0  0  0
 30 32  1  0  0  0  0
 30 29  1  0  0  0  0
 31 30  1  0  0  0  0
 33 30  1  0  0  0  0
 34 36  1  0  0  0  0
 34 35  1  0  0  0  0
 37 34  1  0  0  0  0
 38 40  1  0  0  0  0
 38 41  1  0  0  0  0
 39 38  1  0  0  0  0
 42 51  1  0  0  0  0
 42 47  1  0  0  0  0
 42  2  1  0  0  0  0
 43 42  1  0  0  0  0
 44 43  1  0  0  0  0
 45 43  1  0  0  0  0
 46 43  1  0  0  0  0
 47 50  1  0  0  0  0
 48 47  1  0  0  0  0
 49 47  1  0  0  0  0
 51 52  1  0  0  0  0
 53 51  1  0  0  0  0
 54 51  1  0  0  0  0
 55 60  1  0  0  0  0
 55 64  1  0  0  0  0
 56 58  1  0  0  0  0
 56 55  1  0  0  0  0
 57 56  1  0  0  0  0
 59 56  1  0  0  0  0
 60 62  1  0  0  0  0
 60 61  1  0  0  0  0
 63 60  1  0  0  0  0
 64 66  1  0  0  0  0
 64 67  1  0  0  0  0
 65 64  1  0  0  0  0
M  END
