1,2,3
q = 0.0, confidence = 0.994

 70 74  0  0  0  0  0  0  0  0999 V2000
   -2.3820    0.2612   -0.1861 P   0  0  0  0  0  0  0  0  0  0  0  0
    2.3933    0.1469   -0.1401 P   0  0  0  0  0  0  0  0  0  0  0  0
   -0.0153   -0.8217   -1.9411 N   0  0  0  0  0  0  0  0  0  0  0  0
   -0.0988   -2.2897   -1.9110 C   0  0  0  0  0  0  0  0  0  0  0  0
   -0.8589   -2.9248   -0.9117 C   0  0  0  0  0  0  0  0  0  0  0  0
   -1.3248   -2.3130   -0.1287 H   0  0  0  0  0  0  0  0  0  0  0  0
   -0.9957   -4.3188   -0.8880 C   0  0  0  0  0  0  0  0  0  0  0  0
   -1.5914   -4.7833   -0.0881 H   0  0  0  0  0  0  0  0  0  0  0  0
   -0.3650   -5.1107   -1.8592 C   0  0  0  0  0  0  0  0  0  0  0  0
   -0.4580   -6.2066   -1.8323 H   0  0  0  0  0  0  0  0  0  0  0  0
    0.3913   -4.4877   -2.8615 C   0  0  0  0  0  0  0  0  0  0  0  0
    0.8946   -5.0918   -3.6317 H   0  0  0  0  0  0  0  0  0  0  0  0
    0.5164   -3.0897   -2.8959 C   0  0  0  0  0  0  0  0  0  0  0  0
    1.1080   -2.6356   -3.7017 H   0  0  0  0  0  0  0  0  0  0  0  0
   -1.2022   -0.2748   -2.6864 C   0  0  0  0  0  0  0  0  0  0  0  0
   -0.9860    0.7961   -2.8686 H   0  0  0  0  0  0  0  0  0  0  0  0
   -1.2689   -0.7791   -3.6791 H   0  0  0  0  0  0  0  0  0  0  0  0
   -2.5251   -0.4181   -1.9399 C   0  0  0  0  0  0  0  0  0  0  0  0
   -2.8171   -1.4832   -1.8509 H   0  0  0  0  0  0  0  0  0  0  0  0
   -3.3295    0.0925   -2.5066 H   0  0  0  0  0  0  0  0  0  0  0  0
   -3.5901   -0.7911    0.7392 C   0  0  0  0  0  0  0  0  0  0  0  0
   -3.2187   -1.3277    1.9856 C   0  0  0  0  0  0  0  0  0  0  0  0
   -2.2173   -1.1081    2.3846 H   0  0  0  0  0  0  0  0  0  0  0  0
   -4.1176   -2.1322    2.7057 C   0  0  0  0  0  0  0  0  0  0  0  0
   -3.8179   -2.5466    3.6802 H   0  0  0  0  0  0  0  0  0  0  0  0
   -5.3904   -2.4056    2.1828 C   0  0  0  0  0  0  0  0  0  0  0  0
   -6.0938   -3.0389    2.7447 H   0  0  0  0  0  0  0  0  0  0  0  0
   -5.7699   -1.8650    0.9417 C   0  0  0  0  0  0  0  0  0  0  0  0
   -6.7710   -2.0717    0.5329 H   0  0  0  0  0  0  0  0  0  0  0  0
   -4.8772   -1.0559    0.2253 C   0  0  0  0  0  0  0  0  0  0  0  0
   -5.1882   -0.6186   -0.7365 H   0  0  0  0  0  0  0  0  0  0  0  0
   -3.2920    1.8656   -0.2424 C   0  0  0  0  0  0  0  0  0  0  0  0
   -3.3110    2.6713   -1.3979 C   0  0  0  0  0  0  0  0  0  0  0  0
   -2.8372    2.3248   -2.3286 H   0  0  0  0  0  0  0  0  0  0  0  0
   -3.9197    3.9356   -1.3724 C   0  0  0  0  0  0  0  0  0  0  0  0
   -3.9261    4.5547   -2.2825 H   0  0  0  0  0  0  0  0  0  0  0  0
   -4.5098    4.4112   -0.1919 C   0  0  0  0  0  0  0  0  0  0  0  0
   -4.9845    5.4039   -0.1724 H   0  0  0  0  0  0  0  0  0  0  0  0
   -4.4855    3.6170    0.9664 C   0  0  0  0  0  0  0  0  0  0  0  0
   -4.9418    3.9849    1.8981 H   0  0  0  0  0  0  0  0  0  0  0  0
   -3.8792    2.3537    0.9437 C   0  0  0  0  0  0  0  0  0  0  0  0
   -3.8607    1.7377    1.8559 H   0  0  0  0  0  0  0  0  0  0  0  0
    1.2304   -0.3307   -2.6028 C   0  0  0  0  0  0  0  0  0  0  0  0
    1.1347    0.7703   -2.6727 H   0  0  0  0  0  0  0  0  0  0  0  0
    1.2988   -0.7065   -3.6493 H   0  0  0  0  0  0  0  0  0  0  0  0
    2.4867   -0.6905   -1.8139 C   0  0  0  0  0  0  0  0  0  0  0  0
    3.3904   -0.4019   -2.3868 H   0  0  0  0  0  0  0  0  0  0  0  0
    2.5319   -1.7845   -1.6385 H   0  0  0  0  0  0  0  0  0  0  0  0
    3.4949   -0.8677    0.9387 C   0  0  0  0  0  0  0  0  0  0  0  0
    4.4508   -1.7788    0.4476 C   0  0  0  0  0  0  0  0  0  0  0  0
    4.5686   -1.9381   -0.6349 H   0  0  0  0  0  0  0  0  0  0  0  0
    5.2662   -2.4964    1.3371 C   0  0  0  0  0  0  0  0  0  0  0  0
    6.0059   -3.2107    0.9439 H   0  0  0  0  0  0  0  0  0  0  0  0
    5.1398   -2.3041    2.7214 C   0  0  0  0  0  0  0  0  0  0  0  0
    5.7789   -2.8688    3.4171 H   0  0  0  0  0  0  0  0  0  0  0  0
    4.1921   -1.3932    3.2160 C   0  0  0  0  0  0  0  0  0  0  0  0
    4.0833   -1.2425    4.3008 H   0  0  0  0  0  0  0  0  0  0  0  0
    3.3705   -0.6821    2.3311 C   0  0  0  0  0  0  0  0  0  0  0  0
    2.6125    0.0187    2.7157 H   0  0  0  0  0  0  0  0  0  0  0  0
    3.4406    1.6652   -0.3288 C   0  0  0  0  0  0  0  0  0  0  0  0
    4.6702    1.6460   -1.0185 C   0  0  0  0  0  0  0  0  0  0  0  0
    5.0344    0.7150   -1.4812 H   0  0  0  0  0  0  0  0  0  0  0  0
    5.4528    2.8059   -1.1055 C   0  0  0  0  0  0  0  0  0  0  0  0
    6.4087    2.7819   -1.6511 H   0  0  0  0  0  0  0  0  0  0  0  0
    5.0217    3.9932   -0.4898 C   0  0  0  0  0  0  0  0  0  0  0  0
    5.6370    4.9034   -0.5575 H   0  0  0  0  0  0  0  0  0  0  0  0
    3.8094    4.0130    0.2160 C   0  0  0  0  0  0  0  0  0  0  0  0
    3.4689    4.9374    0.7065 H   0  0  0  0  0  0  0  0  0  0  0  0
    3.0204    2.8548    0.2962 C   0  0  0  0  0  0  0  0  0  0  0  0
    2.0688    2.8634    0.8482 H   0  0  0  0  0  0  0  0  0  0  0  0
  1 21  1  0  0  0  0
  2 49  1  0  0  0  0
  3  4  1  0  0  0  0
  4  5  1  0  0  0  0
  5  7  2  0  0  0  0
  5  6  1  0  0  0  0
  7  8  1  0  0  0  0
  9 10  1  0  0  0  0
  9  7  1  0  0  0  0
 11  9  2  0  0  0  0
 12 11  1  0  0  0  0
 13 11  1  0  0  0  0
 13  4  2  0  0  0  0
 14 13  1  0  0  0  0
 15  3  1  0  0  0  0
 15 18  1  0  0  0  0
 16 15  1  0  0  0  0
 17 15  1  0  0  0  0
 18 19  1  0  0  0  0
 18  1  1  0  0  0  0
 20 18  1  0  0  0  0
 21 22  1  0  0  0  0
 22 23  1  0  0  0  0
 22 24  2  0  0  0  0
 24 25  1  0  0  0  0
 26 24  1  0  0  0  0
 26 27  1  0  0  0  0
 28 26  2  0  0  0  0
 29 28  1  0  0  0  0
 30 21  2  0  0  0  0
 30 28  1  0  0  0  0
 31 30  1  0  0  0  0
 32  1  1  0  0  0  0
 32 41  1  0  0  0  0
 33 35  1  0  0  0  0
 33 32  2  0  0  0  0
 34 33  1  0  0  0  0
 35 37  2  0  0  0  0
 36 35  1  0  0  0  0
 37 38  1  0  0  0  0
 37 39  1  0  0  0  0
 39 40  1  0  0  0  0
 41 39  2  0  0  0  0
 41 42  1  0  0  0  0
 43  3  1  0  0  0  0
 43 46  1  0  0  0  0
 44 43  1  0  0  0  0
 45 43  1  0  0  0  0
 46 48  1  0  0  0  0
 46  2  1  0  0  0  0
 47 46  1  0  0  0  0
 49 58  1  0  0  0  0
 50 49  2  0  0  0  0
 50 52  1  0  0  0  0
 51 50  1  0  0  0  0
 52 54  2  0  0  0  0
 53 52  1  0  0  0  0
 54 56  1  0  0  0  0
 54 55  1  0  0  0  0
 56 57  1  0  0  0  0
 58 59  1  0  0  0  0
 58 56  2  0  0  0  0
 60  2  1  0  0  0  0
 60 69  1  0  0  0  0
 61 60  2  0  0  0  0
 62 61  1  0  0  0  0
 63 61  1  0  0  0  0
 63 65  2  0  0  0  0
 64 63  1  0  0  0  0
 65 67  1  0  0  0  0
 66 65  1  0  0  0  0
 67 69  2  0  0  0  0
 67 68  1  0  0  0  0
 69 70  1  0  0  0  0
M  END
