1,2,3
q = -1.0, confidence = 0.0

 53 52  0  0  0  0  0  0  0  0999 V2000
    2.1572    0.2834   -0.1557 P   0  0  0  0  0  0  0  0  0  0  0  0
   -2.2100    0.3217   -0.2855 P   0  0  0  0  0  0  0  0  0  0  0  0
    0.0198    1.8155   -1.1291 N   0  0  0  0  0  2  0  0  0  0  0  0
    2.4594    1.6888   -1.3357 C   0  0  0  0  0  0  0  0  0  0  0  0
    3.4125    2.2198   -1.1359 H   0  0  0  0  0  0  0  0  0  0  0  0
    2.5182    1.2383   -2.3483 H   0  0  0  0  0  0  0  0  0  0  0  0
    1.2386    2.6094   -1.2422 C   0  0  0  0  0  0  0  0  0  0  0  0
    1.3651    3.2958   -0.3688 H   0  0  0  0  0  0  0  0  0  0  0  0
    1.1838    3.2673   -2.1406 H   0  0  0  0  0  0  0  0  0  0  0  0
   -1.1546    2.3994   -1.4827 C   0  0  0  0  0  0  0  0  0  0  0  0
   -1.0849    3.3610   -2.0327 H   0  0  0  0  0  0  0  0  0  0  0  0
   -2.3878    1.8404   -1.2042 C   0  0  0  0  0  0  0  0  0  0  0  0
   -3.3303    2.2591   -1.5825 H   0  0  0  0  0  0  0  0  0  0  0  0
    3.0564   -1.1951   -0.8520 C   0  0  0  0  0  0  0  0  0  0  0  0
    2.9193   -1.9581   -0.0549 H   0  0  0  0  0  0  0  0  0  0  0  0
    4.5483   -0.9458   -1.0893 C   0  0  0  0  0  0  0  0  0  0  0  0
    5.0371   -1.8698   -1.4633 H   0  0  0  0  0  0  0  0  0  0  0  0
    5.0800   -0.6410   -0.1658 H   0  0  0  0  0  0  0  0  0  0  0  0
    4.7121   -0.1571   -1.8530 H   0  0  0  0  0  0  0  0  0  0  0  0
    2.3256   -1.6992   -2.1018 C   0  0  0  0  0  0  0  0  0  0  0  0
    2.8089   -2.6236   -2.4805 H   0  0  0  0  0  0  0  0  0  0  0  0
    2.3438   -0.9538   -2.9242 H   0  0  0  0  0  0  0  0  0  0  0  0
    1.2673   -1.9298   -1.8688 H   0  0  0  0  0  0  0  0  0  0  0  0
    3.0684    0.7413    1.4173 C   0  0  0  0  0  0  0  0  0  0  0  0
    4.0835    1.0646    1.0934 H   0  0  0  0  0  0  0  0  0  0  0  0
    3.1923   -0.4552    2.3678 C   0  0  0  0  0  0  0  0  0  0  0  0
    3.6804   -0.1343    3.3116 H   0  0  0  0  0  0  0  0  0  0  0  0
    3.8028   -1.2743    1.9393 H   0  0  0  0  0  0  0  0  0  0  0  0
    2.1941   -0.8718    2.6125 H   0  0  0  0  0  0  0  0  0  0  0  0
    2.3609    1.9241    2.0924 C   0  0  0  0  0  0  0  0  0  0  0  0
    2.8817    2.1935    3.0346 H   0  0  0  0  0  0  0  0  0  0  0  0
    1.3118    1.6634    2.3419 H   0  0  0  0  0  0  0  0  0  0  0  0
    2.3405    2.8272    1.4512 H   0  0  0  0  0  0  0  0  0  0  0  0
   -3.0562    0.4795    1.3725 C   0  0  0  0  0  0  0  0  0  0  0  0
   -2.9652   -0.5347    1.8194 H   0  0  0  0  0  0  0  0  0  0  0  0
   -2.2617    1.4658    2.2355 C   0  0  0  0  0  0  0  0  0  0  0  0
   -2.7529    1.6054    3.2212 H   0  0  0  0  0  0  0  0  0  0  0  0
   -2.1918    2.4572    1.7409 H   0  0  0  0  0  0  0  0  0  0  0  0
   -1.2323    1.0935    2.4100 H   0  0  0  0  0  0  0  0  0  0  0  0
   -4.5297    0.8724    1.2367 C   0  0  0  0  0  0  0  0  0  0  0  0
   -5.0072    0.9370    2.2373 H   0  0  0  0  0  0  0  0  0  0  0  0
   -5.1102    0.1424    0.6373 H   0  0  0  0  0  0  0  0  0  0  0  0
   -4.6283    1.8667    0.7539 H   0  0  0  0  0  0  0  0  0  0  0  0
   -3.1398   -0.9984   -1.2373 C   0  0  0  0  0  0  0  0  0  0  0  0
   -4.0902   -0.4977   -1.5326 H   0  0  0  0  0  0  0  0  0  0  0  0
   -2.3382   -1.3180   -2.5055 C   0  0  0  0  0  0  0  0  0  0  0  0
   -2.9223   -1.9768   -3.1813 H   0  0  0  0  0  0  0  0  0  0  0  0
   -1.3964   -1.8422   -2.2424 H   0  0  0  0  0  0  0  0  0  0  0  0
   -2.0726   -0.3957   -3.0606 H   0  0  0  0  0  0  0  0  0  0  0  0
   -3.4555   -2.2554   -0.4219 C   0  0  0  0  0  0  0  0  0  0  0  0
   -3.9717   -3.0004   -1.0634 H   0  0  0  0  0  0  0  0  0  0  0  0
   -4.1182   -2.0451    0.4408 H   0  0  0  0  0  0  0  0  0  0  0  0
   -2.5251   -2.7163   -0.0334 H   0  0  0  0  0  0  0  0  0  0  0  0
  1 24  1  0  0  0  0
  2 34  1  0  0  0  0
  4  7  1  0  0  0  0
  4  5  1  0  0  0  0
  4  1  1  0  0  0  0
  6  4  1  0  0  0  0
  7  3  1  0  0  0  0
  7  8  1  0  0  0  0
  9  7  1  0  0  0  0
 10 12  2  0  0  0  0
 10  3  1  0  0  0  0
 11 10  1  0  0  0  0
 12  2  1  0  0  0  0
 13 12  1  0  0  0  0
 14  1  1  0  0  0  0
 14 15  1  0  0  0  0
 16 14  1  0  0  0  0
 16 18  1  0  0  0  0
 17 16  1  0  0  0  0
 19 16  1  0  0  0  0
 20 23  1  0  0  0  0
 20 14  1  0  0  0  0
 21 20  1  0  0  0  0
 22 20  1  0  0  0  0
 24 30  1  0  0  0  0
 24 26  1  0  0  0  0
 25 24  1  0  0  0  0
 26 29  1  0  0  0  0
 26 27  1  0  0  0  0
 28 26  1  0  0  0  0
 30 32  1  0  0  0  0
 30 31  1  0  0  0  0
 33 30  1  0  0  0  0
 34 35  1  0  0  0  0
 34 36  1  0  0  0  0
 36 39  1  0  0  0  0
 36 37  1  0  0  0  0
 38 36  1  0  0  0  0
 40 34  1  0  0  0  0
 40 41  1  0  0  0  0
 42 40  1  0  0  0  0
 43 40  1  0  0  0  0
 44 50  1  0  0  0  0
 44  2  1  0  0  0  0
 45 44  1  0  0  0  0
 46 48  1  0  0  0  0
 46 44  1  0  0  0  0
 47 46  1  0  0  0  0
 49 46  1  0  0  0  0
 50 53  1  0  0  0  0
 50 52  1  0  0  0  0
 51 50  1  0  0  0  0
M  END
