1,2,35
q = -1.0, confidence = 0.01

 67 72  0  0  0  0  0  0  0  0999 V2000
   -2.2715   -0.0883   -0.0059 P   0  0  0  0  0  0  0  0  0  0  0  0
    0.0000    1.7329    0.0022 N   0  0  0  0  0  2  0  0  0  0  0  0
   -3.0893   -0.3291    1.6113 C   0  0  0  0  0  0  0  0  0  0  0  0
   -2.9084   -1.5780    2.2461 C   0  0  0  0  0  0  0  0  0  0  0  0
   -3.5076   -1.8159    3.4901 C   0  0  0  0  0  0  0  0  0  0  0  0
   -4.2748   -0.8137    4.1095 C   0  0  0  0  0  0  0  0  0  0  0  0
   -4.4385    0.4327    3.4853 C   0  0  0  0  0  0  0  0  0  0  0  0
   -3.8454    0.6804    2.2368 C   0  0  0  0  0  0  0  0  0  0  0  0
   -2.3853    1.6619   -0.4866 C   0  0  0  0  0  0  0  0  0  0  0  0
   -1.1454    2.3814   -0.4449 C   0  0  0  0  0  0  0  0  0  0  0  0
   -1.1715    3.7117   -0.9560 C   0  0  0  0  0  0  0  0  0  0  0  0
   -2.3588    4.2899   -1.4137 C   0  0  0  0  0  0  0  0  0  0  0  0
   -3.5756    3.5826   -1.4024 C   0  0  0  0  0  0  0  0  0  0  0  0
   -3.5704    2.2559   -0.9537 C   0  0  0  0  0  0  0  0  0  0  0  0
   -3.2695   -1.0478   -1.1981 C   0  0  0  0  0  0  0  0  0  0  0  0
   -4.6350   -1.3166   -0.9759 C   0  0  0  0  0  0  0  0  0  0  0  0
   -5.3744   -2.0168   -1.9415 C   0  0  0  0  0  0  0  0  0  0  0  0
   -4.7546   -2.4542   -3.1228 C   0  0  0  0  0  0  0  0  0  0  0  0
   -3.3902   -2.1974   -3.3382 C   0  0  0  0  0  0  0  0  0  0  0  0
   -2.6444   -1.5006   -2.3780 C   0  0  0  0  0  0  0  0  0  0  0  0
   -2.2803   -2.3460    1.7646 H   0  0  0  0  0  0  0  0  0  0  0  0
   -3.3668   -2.7887    3.9853 H   0  0  0  0  0  0  0  0  0  0  0  0
   -4.7401   -1.0034    5.0888 H   0  0  0  0  0  0  0  0  0  0  0  0
   -5.0302    1.2219    3.9738 H   0  0  0  0  0  0  0  0  0  0  0  0
   -3.9628    1.6593    1.7475 H   0  0  0  0  0  0  0  0  0  0  0  0
   -0.2348    4.2780   -1.0350 H   0  0  0  0  0  0  0  0  0  0  0  0
   -2.3266    5.3149   -1.8154 H   0  0  0  0  0  0  0  0  0  0  0  0
   -4.5010    4.0454   -1.7740 H   0  0  0  0  0  0  0  0  0  0  0  0
   -4.4924    1.6542   -0.9926 H   0  0  0  0  0  0  0  0  0  0  0  0
   -5.1158   -0.9863   -0.0423 H   0  0  0  0  0  0  0  0  0  0  0  0
   -6.4407   -2.2261   -1.7664 H   0  0  0  0  0  0  0  0  0  0  0  0
   -5.3358   -3.0078   -3.8759 H   0  0  0  0  0  0  0  0  0  0  0  0
   -2.8994   -2.5539   -4.2564 H   0  0  0  0  0  0  0  0  0  0  0  0
   -1.5686   -1.3185   -2.5244 H   0  0  0  0  0  0  0  0  0  0  0  0
    2.2715   -0.0884    0.0058 P   0  0  0  0  0  0  0  0  0  0  0  0
    3.0892   -0.3250   -1.6121 C   0  0  0  0  0  0  0  0  0  0  0  0
    2.9086   -1.5723   -2.2500 C   0  0  0  0  0  0  0  0  0  0  0  0
    3.5076   -1.8068   -3.4947 C   0  0  0  0  0  0  0  0  0  0  0  0
    4.2745   -0.8029   -4.1117 C   0  0  0  0  0  0  0  0  0  0  0  0
    4.4379    0.4420   -3.4844 C   0  0  0  0  0  0  0  0  0  0  0  0
    3.8449    0.6864   -2.2352 C   0  0  0  0  0  0  0  0  0  0  0  0
    3.9622    1.6640   -1.7434 H   0  0  0  0  0  0  0  0  0  0  0  0
    5.0294    1.2326   -3.9710 H   0  0  0  0  0  0  0  0  0  0  0  0
    4.7396   -0.9900   -5.0916 H   0  0  0  0  0  0  0  0  0  0  0  0
    3.3670   -2.7784   -3.9924 H   0  0  0  0  0  0  0  0  0  0  0  0
    2.2807   -2.3417   -1.7704 H   0  0  0  0  0  0  0  0  0  0  0  0
    2.3853    1.6606    0.4909 C   0  0  0  0  0  0  0  0  0  0  0  0
    1.1454    2.3802    0.4510 C   0  0  0  0  0  0  0  0  0  0  0  0
    1.1716    3.7093    0.9653 C   0  0  0  0  0  0  0  0  0  0  0  0
    2.3589    4.2863    1.4245 C   0  0  0  0  0  0  0  0  0  0  0  0
    3.5757    3.5790    1.4115 C   0  0  0  0  0  0  0  0  0  0  0  0
    3.5705    2.2534    0.9596 C   0  0  0  0  0  0  0  0  0  0  0  0
    4.4924    1.6515    0.9971 H   0  0  0  0  0  0  0  0  0  0  0  0
    4.5010    4.0408    1.7844 H   0  0  0  0  0  0  0  0  0  0  0  0
    2.3268    5.3103    1.8287 H   0  0  0  0  0  0  0  0  0  0  0  0
    0.2349    4.2755    1.0456 H   0  0  0  0  0  0  0  0  0  0  0  0
    3.2696   -1.0510    1.1954 C   0  0  0  0  0  0  0  0  0  0  0  0
    4.6351   -1.3190    0.9726 C   0  0  0  0  0  0  0  0  0  0  0  0
    5.3746   -2.0217    1.9362 C   0  0  0  0  0  0  0  0  0  0  0  0
    4.7548   -2.4624    3.1163 C   0  0  0  0  0  0  0  0  0  0  0  0
    3.3904   -2.2064    3.3324 C   0  0  0  0  0  0  0  0  0  0  0  0
    2.6445   -1.5071    2.3740 C   0  0  0  0  0  0  0  0  0  0  0  0
    1.5686   -1.3256    2.5209 H   0  0  0  0  0  0  0  0  0  0  0  0
    2.8995   -2.5654    4.2495 H   0  0  0  0  0  0  0  0  0  0  0  0
    5.3361   -3.0179    3.8679 H   0  0  0  0  0  0  0  0  0  0  0  0
    6.4409   -2.2304    1.7607 H   0  0  0  0  0  0  0  0  0  0  0  0
    5.1159   -0.9861    0.0398 H   0  0  0  0  0  0  0  0  0  0  0  0
  1  3  1  0  0  0  0
  2 48  1  0  0  0  0
  3  8  2  0  0  0  0
  3  4  1  0  0  0  0
  4  5  2  0  0  0  0
  5 22  1  0  0  0  0
  5  6  1  0  0  0  0
  6 23  1  0  0  0  0
  7 24  1  0  0  0  0
  7  6  2  0  0  0  0
  8  7  1  0  0  0  0
  9 10  1  0  0  0  0
  9  1  1  0  0  0  0
 10  2  1  0  0  0  0
 11 10  2  0  0  0  0
 12 13  2  0  0  0  0
 12 11  1  0  0  0  0
 13 14  1  0  0  0  0
 14  9  2  0  0  0  0
 15 16  1  0  0  0  0
 15  1  1  0  0  0  0
 16 30  1  0  0  0  0
 17 31  1  0  0  0  0
 17 16  2  0  0  0  0
 18 17  1  0  0  0  0
 19 18  2  0  0  0  0
 19 20  1  0  0  0  0
 20 15  2  0  0  0  0
 21  4  1  0  0  0  0
 25  8  1  0  0  0  0
 26 11  1  0  0  0  0
 27 12  1  0  0  0  0
 28 13  1  0  0  0  0
 29 14  1  0  0  0  0
 32 18  1  0  0  0  0
 33 19  1  0  0  0  0
 34 20  1  0  0  0  0
 35 47  1  0  0  0  0
 35 57  1  0  0  0  0
 36 35  1  0  0  0  0
 37 46  1  0  0  0  0
 37 36  2  0  0  0  0
 38 37  1  0  0  0  0
 39 38  2  0  0  0  0
 39 40  1  0  0  0  0
 40 41  2  0  0  0  0
 41 42  1  0  0  0  0
 41 36  1  0  0  0  0
 43 40  1  0  0  0  0
 44 39  1  0  0  0  0
 45 38  1  0  0  0  0
 47 52  1  0  0  0  0
 48 47  2  0  0  0  0
 48 49  1  0  0  0  0
 49 56  1  0  0  0  0
 49 50  2  0  0  0  0
 50 55  1  0  0  0  0
 51 50  1  0  0  0  0
 51 54  1  0  0  0  0
 52 53  1  0  0  0  0
 52 51  2  0  0  0  0
 57 62  1  0  0  0  0
 58 57  2  0  0  0  0
 58 59  1  0  0  0  0
 59 60  2  0  0  0  0
 60 61  1  0  0  0  0
 60 65  1  0  0  0  0
 61 64  1  0  0  0  0
 62 63  1  0  0  0  0
 62 61  2  0  0  0  0
 66 59  1  0  0  0  0
 67 58  1  0  0  0  0
M  END
