1,11,51
q = 0.0, confidence = 0.996

 73 77  0  0  1  0  0  0  0  0999 V2000
    0.6846   -0.0001   -0.0557 N   0  0  0  0  0  2  0  0  0  0  0  0
    1.3787   -1.1769   -0.0721 C   0  0  1  0  0  3  0  0  0  0  0  0
    2.7868   -1.2157   -0.0889 C   0  0  0  0  0  0  0  0  0  0  0  0
    3.3189   -2.1754   -0.1000 H   0  0  0  0  0  0  0  0  0  0  0  0
    3.5040   -0.0006   -0.0958 C   0  0  0  0  0  0  0  0  0  0  0  0
    2.7872    1.2148   -0.0886 C   0  0  0  0  0  0  0  0  0  0  0  0
    3.3196    2.1743   -0.0995 H   0  0  0  0  0  0  0  0  0  0  0  0
    1.3791    1.1764   -0.0718 C   0  0  0  0  0  0  0  0  0  0  0  0
    0.6415   -2.3409   -0.0615 N   0  0  0  0  0  0  0  0  0  0  0  0
    1.1764   -3.2119   -0.0400 H   0  0  0  0  0  0  0  0  0  0  0  0
   -1.1196   -2.3406   -0.0322 P   0  0  0  0  0  0  0  0  0  0  0  0
   -1.4383   -3.3418    1.4830 C   0  0  0  0  0  0  0  0  0  0  0  0
   -0.6394   -3.1486    2.6279 C   0  0  0  0  0  0  0  0  0  0  0  0
    0.2214   -2.4636    2.5823 H   0  0  0  0  0  0  0  0  0  0  0  0
   -0.9422   -3.8198    3.8212 C   0  0  0  0  0  0  0  0  0  0  0  0
   -0.3114   -3.6647    4.7097 H   0  0  0  0  0  0  0  0  0  0  0  0
   -2.0500   -4.6805    3.8848 C   0  0  0  0  0  0  0  0  0  0  0  0
   -2.2889   -5.2039    4.8229 H   0  0  0  0  0  0  0  0  0  0  0  0
   -2.8548   -4.8679    2.7494 C   0  0  0  0  0  0  0  0  0  0  0  0
   -3.7262   -5.5388    2.7950 H   0  0  0  0  0  0  0  0  0  0  0  0
   -2.5521   -4.2030    1.5520 C   0  0  0  0  0  0  0  0  0  0  0  0
   -3.1845   -4.3550    0.6638 H   0  0  0  0  0  0  0  0  0  0  0  0
   -1.5437   -3.5518   -1.3569 C   0  0  0  0  0  0  0  0  0  0  0  0
   -0.9445   -4.8281   -1.4112 C   0  0  0  0  0  0  0  0  0  0  0  0
   -0.2250   -5.1382   -0.6359 H   0  0  0  0  0  0  0  0  0  0  0  0
   -1.2781   -5.7211   -2.4382 C   0  0  0  0  0  0  0  0  0  0  0  0
   -0.8027   -6.7131   -2.4788 H   0  0  0  0  0  0  0  0  0  0  0  0
   -2.2268   -5.3533   -3.4083 C   0  0  0  0  0  0  0  0  0  0  0  0
   -2.4913   -6.0572   -4.2122 H   0  0  0  0  0  0  0  0  0  0  0  0
   -2.8410   -4.0936   -3.3466 C   0  0  0  0  0  0  0  0  0  0  0  0
   -3.5906   -3.8058   -4.0990 H   0  0  0  0  0  0  0  0  0  0  0  0
   -2.4994   -3.1927   -2.3251 C   0  0  0  0  0  0  0  0  0  0  0  0
   -2.9757   -2.2026   -2.2658 H   0  0  0  0  0  0  0  0  0  0  0  0
    4.9301   -0.0007   -0.1105 C   0  0  0  0  0  0  0  0  0  0  0  0
    6.1656   -0.0004   -0.1207 C   0  0  0  0  0  0  0  0  0  0  0  0
    8.0159   -0.0004   -0.1375 Si  0  0  0  0  0  0  0  0  0  0  0  0
    8.5954   -0.4591   -1.8769 C   0  0  0  0  0  0  0  0  0  0  0  0
    8.2270   -1.4639   -2.1661 H   0  0  0  0  0  0  0  0  0  0  0  0
    9.7041   -0.4701   -1.9258 H   0  0  0  0  0  0  0  0  0  0  0  0
    8.2237    0.2701   -2.6246 H   0  0  0  0  0  0  0  0  0  0  0  0
    8.6165    1.7299    0.3276 C   0  0  0  0  0  0  0  0  0  0  0  0
    8.2456    2.4857   -0.3938 H   0  0  0  0  0  0  0  0  0  0  0  0
    9.7255    1.7695    0.3288 H   0  0  0  0  0  0  0  0  0  0  0  0
    8.2601    2.0158    1.3377 H   0  0  0  0  0  0  0  0  0  0  0  0
    8.6226   -1.2742    1.1201 C   0  0  0  0  0  0  0  0  0  0  0  0
    8.2671   -1.0260    2.1404 H   0  0  0  0  0  0  0  0  0  0  0  0
    9.7318   -1.3038    1.1385 H   0  0  0  0  0  0  0  0  0  0  0  0
    8.2549   -2.2888    0.8663 H   0  0  0  0  0  0  0  0  0  0  0  0
    0.6422    2.3406   -0.0608 N   0  0  0  0  0  0  0  0  0  0  0  0
    1.1774    3.2115   -0.0396 H   0  0  0  0  0  0  0  0  0  0  0  0
   -1.1188    2.3409   -0.0321 P   0  0  0  0  0  0  0  0  0  0  0  0
   -1.4378    3.3420    1.4830 C   0  0  0  0  0  0  0  0  0  0  0  0
   -2.5519    4.2028    1.5519 C   0  0  0  0  0  0  0  0  0  0  0  0
   -3.1843    4.3546    0.6637 H   0  0  0  0  0  0  0  0  0  0  0  0
   -2.8549    4.8676    2.7493 C   0  0  0  0  0  0  0  0  0  0  0  0
   -3.7265    5.5383    2.7948 H   0  0  0  0  0  0  0  0  0  0  0  0
   -2.0502    4.6805    3.8847 C   0  0  0  0  0  0  0  0  0  0  0  0
   -2.2894    5.2039    4.8228 H   0  0  0  0  0  0  0  0  0  0  0  0
   -0.9422    3.8202    3.8213 C   0  0  0  0  0  0  0  0  0  0  0  0
   -0.3114    3.6653    4.7099 H   0  0  0  0  0  0  0  0  0  0  0  0
   -0.6390    3.1490    2.6281 C   0  0  0  0  0  0  0  0  0  0  0  0
    0.2220    2.4644    2.5825 H   0  0  0  0  0  0  0  0  0  0  0  0
   -1.5421    3.5523   -1.3569 C   0  0  0  0  0  0  0  0  0  0  0  0
   -2.4969    3.1934   -2.3260 C   0  0  0  0  0  0  0  0  0  0  0  0
   -2.9731    2.2032   -2.2674 H   0  0  0  0  0  0  0  0  0  0  0  0
   -2.8377    4.0946   -3.3475 C   0  0  0  0  0  0  0  0  0  0  0  0
   -3.5866    3.8068   -4.1007 H   0  0  0  0  0  0  0  0  0  0  0  0
   -2.2236    5.3544   -3.4084 C   0  0  0  0  0  0  0  0  0  0  0  0
   -2.4875    6.0584   -4.2123 H   0  0  0  0  0  0  0  0  0  0  0  0
   -1.2758    5.7221   -2.4373 C   0  0  0  0  0  0  0  0  0  0  0  0
   -0.8005    6.7141   -2.4772 H   0  0  0  0  0  0  0  0  0  0  0  0
   -0.9431    4.8288   -1.4102 C   0  0  0  0  0  0  0  0  0  0  0  0
   -0.2243    5.1388   -0.6342 H   0  0  0  0  0  0  0  0  0  0  0  0
  2  9  1  1  0  0  0
  2  1  1  0  0  0  0
  3  2  1  0  0  0  0
  4  3  1  0  0  0  0
  5  3  2  0  0  0  0
  5  6  1  0  0  0  0
  6  8  2  0  0  0  0
  7  6  1  0  0  0  0
  8 49  1  0  0  0  0
  8  1  1  0  0  0  0
  9 10  1  0  0  0  0
  9 11  1  0  0  0  0
 11 12  1  0  0  0  0
 12 21  2  0  0  0  0
 12 13  1  0  0  0  0
 13 15  2  0  0  0  0
 14 13  1  0  0  0  0
 15 17  1  0  0  0  0
 15 16  1  0  0  0  0
 17 18  1  0  0  0  0
 19 20  1  0  0  0  0
 19 17  2  0  0  0  0
 21 19  1  0  0  0  0
 22 21  1  0  0  0  0
 23 11  1  0  0  0  0
 24 23  1  0  0  0  0
 24 25  1  0  0  0  0
 26 24  2  0  0  0  0
 27 26  1  0  0  0  0
 28 30  2  0  0  0  0
 28 26  1  0  0  0  0
 29 28  1  0  0  0  0
 30 32  1  0  0  0  0
 31 30  1  0  0  0  0
 32 33  1  0  0  0  0
 32 23  2  0  0  0  0
 34  5  1  0  0  0  0
 35 34  3  0  0  0  0
 36 35  1  0  0  0  0
 36 41  1  0  0  0  0
 36 45  1  0  0  0  0
 37 36  1  0  0  0  0
 38 37  1  0  0  0  0
 39 37  1  0  0  0  0
 40 37  1  0  0  0  0
 41 43  1  0  0  0  0
 41 44  1  0  0  0  0
 42 41  1  0  0  0  0
 45 47  1  0  0  0  0
 45 46  1  0  0  0  0
 48 45  1  0  0  0  0
 49 50  1  0  0  0  0
 49 51  1  0  0  0  0
 51 52  1  0  0  0  0
 52 53  2  0  0  0  0
 52 61  1  0  0  0  0
 53 55  1  0  0  0  0
 54 53  1  0  0  0  0
 55 56  1  0  0  0  0
 55 57  2  0  0  0  0
 57 58  1  0  0  0  0
 59 57  1  0  0  0  0
 59 60  1  0  0  0  0
 61 59  2  0  0  0  0
 62 61  1  0  0  0  0
 63 51  1  0  0  0  0
 64 65  1  0  0  0  0
 64 63  2  0  0  0  0
 66 64  1  0  0  0  0
 67 66  1  0  0  0  0
 68 66  2  0  0  0  0
 68 70  1  0  0  0  0
 69 68  1  0  0  0  0
 70 72  2  0  0  0  0
 71 70  1  0  0  0  0
 72 63  1  0  0  0  0
 72 73  1  0  0  0  0
M  END
