1,8,19
q = 0.0, confidence = 1.0

 63 66  0  0  0  0  0  0  0  0999 V2000
   -2.0607   -0.6475    0.5163 P   0  0  0  0  0  0  0  0  0  0  0  0
   -2.1921   -0.6850    2.3732 C   0  0  0  0  0  0  0  0  0  0  0  0
   -2.4032    0.3557    2.6884 H   0  0  0  0  0  0  0  0  0  0  0  0
   -3.0157   -1.3289    2.7390 H   0  0  0  0  0  0  0  0  0  0  0  0
   -0.8582   -1.1951    2.9224 C   0  0  0  0  0  0  0  0  0  0  0  0
   -0.8722   -1.2108    4.0364 H   0  0  0  0  0  0  0  0  0  0  0  0
   -0.6688   -2.2231    2.5537 H   0  0  0  0  0  0  0  0  0  0  0  0
    0.3069   -0.3656    2.4707 N   0  0  0  0  0  0  0  0  0  0  0  0
    1.5874   -1.0563    2.8426 C   0  0  0  0  0  0  0  0  0  0  0  0
    1.5152   -2.0877    2.4496 H   0  0  0  0  0  0  0  0  0  0  0  0
    1.6583   -1.0912    3.9538 H   0  0  0  0  0  0  0  0  0  0  0  0
    2.8164   -0.3671    2.2487 C   0  0  0  0  0  0  0  0  0  0  0  0
    3.7104   -1.0003    2.4098 H   0  0  0  0  0  0  0  0  0  0  0  0
    3.0115    0.6065    2.7397 H   0  0  0  0  0  0  0  0  0  0  0  0
    0.2662    0.9514    3.1571 C   0  0  0  0  0  0  0  0  0  0  0  0
   -0.6663    1.4837    2.9054 H   0  0  0  0  0  0  0  0  0  0  0  0
    1.1083    1.5775    2.8144 H   0  0  0  0  0  0  0  0  0  0  0  0
    0.3443    0.8031    4.2579 H   0  0  0  0  0  0  0  0  0  0  0  0
    2.5393   -0.0605    0.4183 P   0  0  0  0  0  0  0  0  0  0  0  0
   -3.4115    0.4275   -0.1202 C   0  0  0  0  0  0  0  0  0  0  0  0
   -3.2958    0.8445   -1.4632 C   0  0  0  0  0  0  0  0  0  0  0  0
   -2.3912    0.5794   -2.0368 H   0  0  0  0  0  0  0  0  0  0  0  0
   -4.3242    1.5958   -2.0520 C   0  0  0  0  0  0  0  0  0  0  0  0
   -4.2331    1.9120   -3.1025 H   0  0  0  0  0  0  0  0  0  0  0  0
   -5.4609    1.9479   -1.3054 C   0  0  0  0  0  0  0  0  0  0  0  0
   -6.2651    2.5397   -1.7689 H   0  0  0  0  0  0  0  0  0  0  0  0
   -5.5679    1.5462    0.0365 C   0  0  0  0  0  0  0  0  0  0  0  0
   -6.4535    1.8261    0.6275 H   0  0  0  0  0  0  0  0  0  0  0  0
   -4.5486    0.7848    0.6284 C   0  0  0  0  0  0  0  0  0  0  0  0
   -4.6436    0.4749    1.6798 H   0  0  0  0  0  0  0  0  0  0  0  0
   -2.6925   -2.2781   -0.0780 C   0  0  0  0  0  0  0  0  0  0  0  0
   -2.2196   -2.7710   -1.3113 C   0  0  0  0  0  0  0  0  0  0  0  0
   -1.4293   -2.2215   -1.8465 H   0  0  0  0  0  0  0  0  0  0  0  0
   -2.7485   -3.9578   -1.8373 C   0  0  0  0  0  0  0  0  0  0  0  0
   -2.3712   -4.3381   -2.7988 H   0  0  0  0  0  0  0  0  0  0  0  0
   -3.7396   -4.6665   -1.1394 C   0  0  0  0  0  0  0  0  0  0  0  0
   -4.1454   -5.6027   -1.5525 H   0  0  0  0  0  0  0  0  0  0  0  0
   -4.2127   -4.1772    0.0877 C   0  0  0  0  0  0  0  0  0  0  0  0
   -4.9926   -4.7242    0.6394 H   0  0  0  0  0  0  0  0  0  0  0  0
   -3.6957   -2.9830    0.6137 C   0  0  0  0  0  0  0  0  0  0  0  0
   -4.0940   -2.6041    1.5675 H   0  0  0  0  0  0  0  0  0  0  0  0
    3.3583    1.5443    0.0411 C   0  0  0  0  0  0  0  0  0  0  0  0
    4.1850    2.2687    0.9205 C   0  0  0  0  0  0  0  0  0  0  0  0
    4.4055    1.8846    1.9282 H   0  0  0  0  0  0  0  0  0  0  0  0
    4.7505    3.4891    0.5150 C   0  0  0  0  0  0  0  0  0  0  0  0
    5.3998    4.0461    1.2079 H   0  0  0  0  0  0  0  0  0  0  0  0
    4.4926    3.9944   -0.7682 C   0  0  0  0  0  0  0  0  0  0  0  0
    4.9359    4.9515   -1.0827 H   0  0  0  0  0  0  0  0  0  0  0  0
    3.6646    3.2774   -1.6485 C   0  0  0  0  0  0  0  0  0  0  0  0
    3.4526    3.6725   -2.6536 H   0  0  0  0  0  0  0  0  0  0  0  0
    3.0966    2.0601   -1.2492 C   0  0  0  0  0  0  0  0  0  0  0  0
    2.4314    1.5001   -1.9292 H   0  0  0  0  0  0  0  0  0  0  0  0
    3.6643   -1.2292   -0.4555 C   0  0  0  0  0  0  0  0  0  0  0  0
    5.0135   -1.3328   -0.0590 C   0  0  0  0  0  0  0  0  0  0  0  0
    5.3958   -0.7306    0.7811 H   0  0  0  0  0  0  0  0  0  0  0  0
    5.8858   -2.1895   -0.7448 C   0  0  0  0  0  0  0  0  0  0  0  0
    6.9371   -2.2692   -0.4281 H   0  0  0  0  0  0  0  0  0  0  0  0
    5.4172   -2.9361   -1.8388 C   0  0  0  0  0  0  0  0  0  0  0  0
    6.1017   -3.6082   -2.3790 H   0  0  0  0  0  0  0  0  0  0  0  0
    4.0793   -2.8184   -2.2448 C   0  0  0  0  0  0  0  0  0  0  0  0
    3.7103   -3.3976   -3.1048 H   0  0  0  0  0  0  0  0  0  0  0  0
    3.1972   -1.9698   -1.5574 C   0  0  0  0  0  0  0  0  0  0  0  0
    2.1472   -1.8699   -1.8690 H   0  0  0  0  0  0  0  0  0  0  0  0
  1  2  1  0  0  0  0
  2  3  1  0  0  0  0
  2  4  1  0  0  0  0
  2  5  1  0  0  0  0
  5  6  1  0  0  0  0
  7  5  1  0  0  0  0
  8  9  1  0  0  0  0
  8  5  1  0  0  0  0
  8 15  1  0  0  0  0
  9 11  1  0  0  0  0
 10  9  1  0  0  0  0
 12 13  1  0  0  0  0
 12 14  1  0  0  0  0
 12  9  1  0  0  0  0
 15 18  1  0  0  0  0
 16 15  1  0  0  0  0
 17 15  1  0  0  0  0
 19 12  1  0  0  0  0
 20  1  1  0  0  0  0
 20 29  1  0  0  0  0
 21 20  2  0  0  0  0
 22 21  1  0  0  0  0
 23 21  1  0  0  0  0
 23 25  2  0  0  0  0
 24 23  1  0  0  0  0
 25 27  1  0  0  0  0
 26 25  1  0  0  0  0
 27 28  1  0  0  0  0
 27 29  2  0  0  0  0
 29 30  1  0  0  0  0
 31  1  1  0  0  0  0
 31 40  1  0  0  0  0
 32 31  2  0  0  0  0
 33 32  1  0  0  0  0
 34 32  1  0  0  0  0
 34 36  2  0  0  0  0
 35 34  1  0  0  0  0
 36 38  1  0  0  0  0
 37 36  1  0  0  0  0
 38 40  2  0  0  0  0
 38 39  1  0  0  0  0
 40 41  1  0  0  0  0
 42 19  1  0  0  0  0
 42 43  1  0  0  0  0
 43 44  1  0  0  0  0
 45 43  2  0  0  0  0
 45 46  1  0  0  0  0
 47 45  1  0  0  0  0
 48 47  1  0  0  0  0
 49 51  1  0  0  0  0
 49 47  2  0  0  0  0
 50 49  1  0  0  0  0
 51 42  2  0  0  0  0
 52 51  1  0  0  0  0
 53 54  1  0  0  0  0
 53 19  1  0  0  0  0
 54 55  1  0  0  0  0
 56 57  1  0  0  0  0
 56 54  2  0  0  0  0
 58 56  1  0  0  0  0
 59 58  1  0  0  0  0
 60 58  2  0  0  0  0
 60 62  1  0  0  0  0
 61 60  1  0  0  0  0
 62 53  2  0  0  0  0
 63 62  1  0  0  0  0
M  END
