2,3,4
q = 0.0, confidence = 0.998

 73 77  0  0  0  0  0  0  0  0999 V2000
    4.4740   -2.9122   -0.8912 Br  0  0  0  0  0  0  0  0  0  0  0  0
   -2.2947   -1.0511    0.5205 P   0  0  0  0  0  0  0  0  0  0  0  0
    0.8955    1.8850    0.6747 P   0  0  0  0  0  0  0  0  0  0  0  0
   -0.6411    0.2502    2.6453 N   0  0  0  0  0  0  0  0  0  0  0  0
   -2.6281   -1.2486    2.3519 C   0  0  0  0  0  0  0  0  0  0  0  0
   -3.7128   -1.3401    2.5589 H   0  0  0  0  0  0  0  0  0  0  0  0
   -2.1441   -2.1876    2.6902 H   0  0  0  0  0  0  0  0  0  0  0  0
   -2.0613   -0.0242    3.0466 C   0  0  0  0  0  0  0  0  0  0  0  0
   -2.6523    0.8679    2.7572 H   0  0  0  0  0  0  0  0  0  0  0  0
   -2.1211   -0.1179    4.1545 H   0  0  0  0  0  0  0  0  0  0  0  0
   -0.2789    1.6132    3.1517 C   0  0  0  0  0  0  0  0  0  0  0  0
   -0.1925    1.5754    4.2611 H   0  0  0  0  0  0  0  0  0  0  0  0
   -1.1378    2.2717    2.9209 H   0  0  0  0  0  0  0  0  0  0  0  0
    0.9850    2.1724    2.5195 C   0  0  0  0  0  0  0  0  0  0  0  0
    1.8954    1.6524    2.8758 H   0  0  0  0  0  0  0  0  0  0  0  0
    1.0964    3.2482    2.7602 H   0  0  0  0  0  0  0  0  0  0  0  0
    0.2935   -0.8038    3.2060 C   0  0  0  0  0  0  0  0  0  0  0  0
    0.7853   -0.3926    4.1115 H   0  0  0  0  0  0  0  0  0  0  0  0
   -0.3283   -1.6550    3.5423 H   0  0  0  0  0  0  0  0  0  0  0  0
    1.3227   -1.3049    2.2206 C   0  0  0  0  0  0  0  0  0  0  0  0
    0.9406   -2.2155    1.2090 C   0  0  0  0  0  0  0  0  0  0  0  0
   -0.0851   -2.6107    1.1674 H   0  0  0  0  0  0  0  0  0  0  0  0
    1.8714   -2.6942    0.2781 C   0  0  0  0  0  0  0  0  0  0  0  0
    1.5585   -3.3943   -0.5089 H   0  0  0  0  0  0  0  0  0  0  0  0
    3.2116   -2.2852    0.3760 C   0  0  0  0  0  0  0  0  0  0  0  0
    3.6266   -1.4217    1.4033 C   0  0  0  0  0  0  0  0  0  0  0  0
    4.6803   -1.1216    1.4816 H   0  0  0  0  0  0  0  0  0  0  0  0
    2.6788   -0.9375    2.3146 C   0  0  0  0  0  0  0  0  0  0  0  0
    3.0140   -0.2687    3.1228 H   0  0  0  0  0  0  0  0  0  0  0  0
   -3.7324   -0.0929   -0.0886 C   0  0  0  0  0  0  0  0  0  0  0  0
   -4.9758   -0.7039   -0.3477 C   0  0  0  0  0  0  0  0  0  0  0  0
   -5.0910   -1.7947   -0.2562 H   0  0  0  0  0  0  0  0  0  0  0  0
   -6.0676    0.0821   -0.7448 C   0  0  0  0  0  0  0  0  0  0  0  0
   -7.0352   -0.3975   -0.9551 H   0  0  0  0  0  0  0  0  0  0  0  0
   -5.9257    1.4728   -0.8849 C   0  0  0  0  0  0  0  0  0  0  0  0
   -6.7849    2.0826   -1.2021 H   0  0  0  0  0  0  0  0  0  0  0  0
   -4.6850    2.0811   -0.6377 C   0  0  0  0  0  0  0  0  0  0  0  0
   -4.5603    3.1667   -0.7673 H   0  0  0  0  0  0  0  0  0  0  0  0
   -3.5873    1.3012   -0.2481 C   0  0  0  0  0  0  0  0  0  0  0  0
   -2.6005    1.7683   -0.1009 H   0  0  0  0  0  0  0  0  0  0  0  0
   -2.4383   -2.7599   -0.1241 C   0  0  0  0  0  0  0  0  0  0  0  0
   -1.6980   -3.1535   -1.2594 C   0  0  0  0  0  0  0  0  0  0  0  0
   -1.0458   -2.4249   -1.7647 H   0  0  0  0  0  0  0  0  0  0  0  0
   -1.7990   -4.4653   -1.7443 C   0  0  0  0  0  0  0  0  0  0  0  0
   -1.2187   -4.7611   -2.6311 H   0  0  0  0  0  0  0  0  0  0  0  0
   -2.6348   -5.3951   -1.1061 C   0  0  0  0  0  0  0  0  0  0  0  0
   -2.7114   -6.4235   -1.4895 H   0  0  0  0  0  0  0  0  0  0  0  0
   -3.3722   -5.0110    0.0246 C   0  0  0  0  0  0  0  0  0  0  0  0
   -4.0287   -5.7351    0.5298 H   0  0  0  0  0  0  0  0  0  0  0  0
   -3.2746   -3.7016    0.5184 C   0  0  0  0  0  0  0  0  0  0  0  0
   -3.8603   -3.4242    1.4073 H   0  0  0  0  0  0  0  0  0  0  0  0
    2.6351    1.8819    0.1187 C   0  0  0  0  0  0  0  0  0  0  0  0
    3.1158    0.9009   -0.7686 C   0  0  0  0  0  0  0  0  0  0  0  0
    2.4364    0.1260   -1.1512 H   0  0  0  0  0  0  0  0  0  0  0  0
    4.4605    0.9210   -1.1700 C   0  0  0  0  0  0  0  0  0  0  0  0
    4.8293    0.1481   -1.8601 H   0  0  0  0  0  0  0  0  0  0  0  0
    5.3283    1.9098   -0.6827 C   0  0  0  0  0  0  0  0  0  0  0  0
    6.3826    1.9210   -0.9976 H   0  0  0  0  0  0  0  0  0  0  0  0
    4.8513    2.8907    0.2035 C   0  0  0  0  0  0  0  0  0  0  0  0
    5.5277    3.6718    0.5814 H   0  0  0  0  0  0  0  0  0  0  0  0
    3.5076    2.8829    0.6015 C   0  0  0  0  0  0  0  0  0  0  0  0
    3.1389    3.6679    1.2797 H   0  0  0  0  0  0  0  0  0  0  0  0
    0.1688    3.4069   -0.0404 C   0  0  0  0  0  0  0  0  0  0  0  0
    0.6757    3.9152   -1.2545 C   0  0  0  0  0  0  0  0  0  0  0  0
    1.5506    3.4433   -1.7247 H   0  0  0  0  0  0  0  0  0  0  0  0
    0.0662    5.0225   -1.8617 C   0  0  0  0  0  0  0  0  0  0  0  0
    0.4713    5.4137   -2.8067 H   0  0  0  0  0  0  0  0  0  0  0  0
   -1.0532    5.6284   -1.2708 C   0  0  0  0  0  0  0  0  0  0  0  0
   -1.5283    6.4970   -1.7505 H   0  0  0  0  0  0  0  0  0  0  0  0
   -1.5648    5.1246   -0.0640 C   0  0  0  0  0  0  0  0  0  0  0  0
   -2.4385    5.5986    0.4081 H   0  0  0  0  0  0  0  0  0  0  0  0
   -0.9618    4.0156    0.5464 C   0  0  0  0  0  0  0  0  0  0  0  0
   -1.3867    3.6320    1.4857 H   0  0  0  0  0  0  0  0  0  0  0  0
  1 25  1  0  0  0  0
  2  5  1  0  0  0  0
  3 14  1  0  0  0  0
  4  8  1  0  0  0  0
  4 11  1  0  0  0  0
  4 17  1  0  0  0  0
  5  6  1  0  0  0  0
  5  7  1  0  0  0  0
  5  8  1  0  0  0  0
  8 10  1  0  0  0  0
  9  8  1  0  0  0  0
 11 12  1  0  0  0  0
 13 11  1  0  0  0  0
 14 16  1  0  0  0  0
 14 15  1  0  0  0  0
 14 11  1  0  0  0  0
 17 19  1  0  0  0  0
 17 18  1  0  0  0  0
 20 28  1  0  0  0  0
 20 17  1  0  0  0  0
 21 20  2  0  0  0  0
 22 21  1  0  0  0  0
 23 25  2  0  0  0  0
 23 21  1  0  0  0  0
 24 23  1  0  0  0  0
 25 26  1  0  0  0  0
 26 27  1  0  0  0  0
 26 28  2  0  0  0  0
 28 29  1  0  0  0  0
 30  2  1  0  0  0  0
 31 32  1  0  0  0  0
 31 30  2  0  0  0  0
 33 31  1  0  0  0  0
 34 33  1  0  0  0  0
 35 33  2  0  0  0  0
 35 37  1  0  0  0  0
 36 35  1  0  0  0  0
 37 39  2  0  0  0  0
 38 37  1  0  0  0  0
 39 40  1  0  0  0  0
 39 30  1  0  0  0  0
 41 50  1  0  0  0  0
 41  2  1  0  0  0  0
 42 41  2  0  0  0  0
 43 42  1  0  0  0  0
 44 42  1  0  0  0  0
 44 46  2  0  0  0  0
 45 44  1  0  0  0  0
 46 48  1  0  0  0  0
 47 46  1  0  0  0  0
 48 50  2  0  0  0  0
 48 49  1  0  0  0  0
 50 51  1  0  0  0  0
 52 61  1  0  0  0  0
 52  3  1  0  0  0  0
 53 52  2  0  0  0  0
 54 53  1  0  0  0  0
 55 53  1  0  0  0  0
 55 57  2  0  0  0  0
 56 55  1  0  0  0  0
 57 59  1  0  0  0  0
 58 57  1  0  0  0  0
 59 60  1  0  0  0  0
 59 61  2  0  0  0  0
 61 62  1  0  0  0  0
 63 72  1  0  0  0  0
 63  3  1  0  0  0  0
 64 63  2  0  0  0  0
 65 64  1  0  0  0  0
 66 68  2  0  0  0  0
 66 64  1  0  0  0  0
 67 66  1  0  0  0  0
 68 70  1  0  0  0  0
 69 68  1  0  0  0  0
 70 71  1  0  0  0  0
 70 72  2  0  0  0  0
 72 73  1  0  0  0  0
M  END
