1,2,3
q = -1.0, confidence = 0.006

 80 82  0  0  1  0  0  0  0  0999 V2000
   -0.9527   -1.1003    0.0407 P   0  0  0  0  0  0  0  0  0  0  0  0
    3.3608    0.5712   -0.0281 P   0  0  0  0  0  0  0  0  0  0  0  0
    0.5224    1.4155   -0.2999 N   0  0  0  0  0  2  0  0  0  0  0  0
   -1.7588    0.5213   -0.0501 C   0  0  0  0  0  0  0  0  0  0  0  0
   -0.8560    1.6301   -0.1802 C   0  0  2  0  0  3  0  0  0  0  0  0
   -1.3159    2.9918   -0.2052 C   0  0  0  0  0  0  0  0  0  0  0  0
   -2.3868    3.1806   -0.0820 H   0  0  0  0  0  0  0  0  0  0  0  0
   -0.4387    4.0454   -0.3739 C   0  0  0  0  0  0  0  0  0  0  0  0
   -0.8180    5.0791   -0.3762 H   0  0  0  0  0  0  0  0  0  0  0  0
    0.9384    3.7919   -0.5572 C   0  0  0  0  0  0  0  0  0  0  0  0
    1.6572    4.6024   -0.7390 H   0  0  0  0  0  0  0  0  0  0  0  0
    1.3714    2.4692   -0.5282 C   0  0  0  0  0  0  0  0  0  0  0  0
    2.8159    2.1552   -0.8354 C   0  0  0  0  0  0  0  0  0  0  0  0
    3.4740    3.0173   -0.6063 H   0  0  0  0  0  0  0  0  0  0  0  0
    2.9059    1.9710   -1.9283 H   0  0  0  0  0  0  0  0  0  0  0  0
   -1.1589   -1.9532   -1.6653 C   0  0  0  0  0  0  0  0  0  0  0  0
   -0.2102   -1.1144   -2.5507 C   0  0  0  0  0  0  0  0  0  0  0  0
   -0.2077   -1.5025   -3.5927 H   0  0  0  0  0  0  0  0  0  0  0  0
    0.8515   -1.1854   -2.1944 H   0  0  0  0  0  0  0  0  0  0  0  0
   -0.5065   -0.0473   -2.5774 H   0  0  0  0  0  0  0  0  0  0  0  0
   -2.5780   -1.8909   -2.2399 C   0  0  0  0  0  0  0  0  0  0  0  0
   -2.5825   -2.3268   -3.2627 H   0  0  0  0  0  0  0  0  0  0  0  0
   -2.9359   -0.8459   -2.3131 H   0  0  0  0  0  0  0  0  0  0  0  0
   -3.3026   -2.4553   -1.6249 H   0  0  0  0  0  0  0  0  0  0  0  0
   -0.6511   -3.4025   -1.6252 C   0  0  0  0  0  0  0  0  0  0  0  0
   -1.3075   -4.0618   -1.0260 H   0  0  0  0  0  0  0  0  0  0  0  0
    0.3751   -3.4706   -1.2154 H   0  0  0  0  0  0  0  0  0  0  0  0
   -0.6309   -3.8118   -2.6583 H   0  0  0  0  0  0  0  0  0  0  0  0
   -1.6513   -2.1520    1.4885 C   0  0  0  0  0  0  0  0  0  0  0  0
   -1.9780   -1.1586    2.6175 C   0  0  0  0  0  0  0  0  0  0  0  0
   -2.2059   -1.7259    3.5450 H   0  0  0  0  0  0  0  0  0  0  0  0
   -2.8538   -0.5296    2.3728 H   0  0  0  0  0  0  0  0  0  0  0  0
   -1.1206   -0.4869    2.8274 H   0  0  0  0  0  0  0  0  0  0  0  0
   -0.5395   -3.1007    1.9733 C   0  0  0  0  0  0  0  0  0  0  0  0
    0.3374   -2.5411    2.3481 H   0  0  0  0  0  0  0  0  0  0  0  0
   -0.1893   -3.7887    1.1807 H   0  0  0  0  0  0  0  0  0  0  0  0
   -0.9378   -3.7215    2.8040 H   0  0  0  0  0  0  0  0  0  0  0  0
   -2.8950   -2.9873    1.1380 C   0  0  0  0  0  0  0  0  0  0  0  0
   -2.6674   -3.7803    0.3997 H   0  0  0  0  0  0  0  0  0  0  0  0
   -3.7184   -2.3638    0.7518 H   0  0  0  0  0  0  0  0  0  0  0  0
   -3.2482   -3.4967    2.0604 H   0  0  0  0  0  0  0  0  0  0  0  0
    4.7281   -0.0675   -1.2051 C   0  0  0  0  0  0  0  0  0  0  0  0
    5.6718    1.0341   -1.7168 C   0  0  0  0  0  0  0  0  0  0  0  0
    6.4030    0.5863   -2.4235 H   0  0  0  0  0  0  0  0  0  0  0  0
    6.2482    1.5141   -0.9059 H   0  0  0  0  0  0  0  0  0  0  0  0
    5.1307    1.8263   -2.2710 H   0  0  0  0  0  0  0  0  0  0  0  0
    3.9738   -0.6803   -2.4025 C   0  0  0  0  0  0  0  0  0  0  0  0
    4.7077   -1.0535   -3.1480 H   0  0  0  0  0  0  0  0  0  0  0  0
    3.3259    0.0577   -2.9188 H   0  0  0  0  0  0  0  0  0  0  0  0
    3.3402   -1.5322   -2.0868 H   0  0  0  0  0  0  0  0  0  0  0  0
    5.5305   -1.1811   -0.5103 C   0  0  0  0  0  0  0  0  0  0  0  0
    4.8714   -1.9666   -0.0910 H   0  0  0  0  0  0  0  0  0  0  0  0
    6.1733   -0.7902    0.3020 H   0  0  0  0  0  0  0  0  0  0  0  0
    6.1989   -1.6664   -1.2529 H   0  0  0  0  0  0  0  0  0  0  0  0
    4.0709    1.1105    1.6623 C   0  0  0  0  0  0  0  0  0  0  0  0
    4.2406   -0.1418    2.5420 C   0  0  0  0  0  0  0  0  0  0  0  0
    5.0031   -0.8394    2.1482 H   0  0  0  0  0  0  0  0  0  0  0  0
    3.2859   -0.6956    2.6309 H   0  0  0  0  0  0  0  0  0  0  0  0
    4.5598    0.1665    3.5601 H   0  0  0  0  0  0  0  0  0  0  0  0
    5.3958    1.8802    1.5623 C   0  0  0  0  0  0  0  0  0  0  0  0
    5.6729    2.2587    2.5694 H   0  0  0  0  0  0  0  0  0  0  0  0
    5.3222    2.7606    0.8920 H   0  0  0  0  0  0  0  0  0  0  0  0
    6.2306    1.2424    1.2131 H   0  0  0  0  0  0  0  0  0  0  0  0
    3.0033    2.0220    2.3005 C   0  0  0  0  0  0  0  0  0  0  0  0
    2.0103    1.5314    2.3255 H   0  0  0  0  0  0  0  0  0  0  0  0
    2.8933    2.9867    1.7677 H   0  0  0  0  0  0  0  0  0  0  0  0
    3.3038    2.2484    3.3452 H   0  0  0  0  0  0  0  0  0  0  0  0
   -3.2617    0.6829   -0.0222 B   0  0  0  0  0  0  0  0  0  0  0  0
   -4.1939   -0.3918    0.0593 O   0  0  0  0  0  0  0  0  0  0  0  0
   -4.0036    1.9019   -0.0733 O   0  0  0  0  0  0  0  0  0  0  0  0
   -5.3291    1.5627   -0.0267 C   0  0  0  0  0  0  0  0  0  0  0  0
   -6.4492    2.3916   -0.0486 C   0  0  0  0  0  0  0  0  0  0  0  0
   -6.3460    3.4840   -0.1106 H   0  0  0  0  0  0  0  0  0  0  0  0
   -7.7100    1.7599    0.0128 C   0  0  0  0  0  0  0  0  0  0  0  0
   -8.6203    2.3777   -0.0017 H   0  0  0  0  0  0  0  0  0  0  0  0
   -7.8255    0.3604    0.0921 C   0  0  0  0  0  0  0  0  0  0  0  0
   -8.8244   -0.0983    0.1385 H   0  0  0  0  0  0  0  0  0  0  0  0
   -6.6852   -0.4713    0.1140 C   0  0  0  0  0  0  0  0  0  0  0  0
   -6.7636   -1.5658    0.1757 H   0  0  0  0  0  0  0  0  0  0  0  0
   -5.4450    0.1619    0.0531 C   0  0  0  0  0  0  0  0  0  0  0  0
  1 29  1  0  0  0  0
  2 55  1  0  0  0  0
  3  5  1  0  0  0  0
  4 68  2  0  0  0  0
  4  1  1  0  0  0  0
  5  4  1  6  0  0  0
  6  5  1  0  0  0  0
  6  7  1  0  0  0  0
  8  6  2  0  0  0  0
  9  8  1  0  0  0  0
 10 12  2  0  0  0  0
 10  8  1  0  0  0  0
 11 10  1  0  0  0  0
 12  3  1  0  0  0  0
 13 14  1  0  0  0  0
 13 12  1  0  0  0  0
 13  2  1  0  0  0  0
 15 13  1  0  0  0  0
 16 25  1  0  0  0  0
 16  1  1  0  0  0  0
 17 19  1  0  0  0  0
 17 16  1  0  0  0  0
 18 17  1  0  0  0  0
 20 17  1  0  0  0  0
 21 16  1  0  0  0  0
 21 24  1  0  0  0  0
 22 21  1  0  0  0  0
 23 21  1  0  0  0  0
 25 27  1  0  0  0  0
 25 26  1  0  0  0  0
 28 25  1  0  0  0  0
 29 34  1  0  0  0  0
 29 30  1  0  0  0  0
 30 33  1  0  0  0  0
 30 31  1  0  0  0  0
 32 30  1  0  0  0  0
 34 35  1  0  0  0  0
 34 37  1  0  0  0  0
 36 34  1  0  0  0  0
 38 29  1  0  0  0  0
 38 41  1  0  0  0  0
 39 38  1  0  0  0  0
 40 38  1  0  0  0  0
 42 51  1  0  0  0  0
 42  2  1  0  0  0  0
 43 42  1  0  0  0  0
 43 45  1  0  0  0  0
 44 43  1  0  0  0  0
 46 43  1  0  0  0  0
 47 50  1  0  0  0  0
 47 42  1  0  0  0  0
 48 47  1  0  0  0  0
 49 47  1  0  0  0  0
 51 52  1  0  0  0  0
 51 53  1  0  0  0  0
 54 51  1  0  0  0  0
 55 64  1  0  0  0  0
 55 56  1  0  0  0  0
 56 58  1  0  0  0  0
 56 59  1  0  0  0  0
 57 56  1  0  0  0  0
 60 55  1  0  0  0  0
 60 61  1  0  0  0  0
 62 60  1  0  0  0  0
 63 60  1  0  0  0  0
 64 65  1  0  0  0  0
 64 67  1  0  0  0  0
 66 64  1  0  0  0  0
 68 69  1  0  0  0  0
 70 71  1  0  0  0  0
 70 68  1  0  0  0  0
 71 80  1  0  0  0  0
 72 71  2  0  0  0  0
 72 74  1  0  0  0  0
 73 72  1  0  0  0  0
 74 76  2  0  0  0  0
 75 74  1  0  0  0  0
 76 78  1  0  0  0  0
 76 77  1  0  0  0  0
 78 79  1  0  0  0  0
 80 69  1  0  0  0  0
 80 78  2  0  0  0  0
M  END
