1,2,5
q = 0.0, confidence = 0.992

 59 63  0  0  1  0  0  0  0  0999 V2000
   -2.2679   -0.0516    0.0341 P   0  0  0  0  0  0  0  0  0  0  0  0
    2.2679   -0.0515    0.0341 P   0  0  0  0  0  0  0  0  0  0  0  0
   -3.5595   -0.1102    2.4987 O   0  0  0  0  0  0  0  0  0  0  0  0
    3.5594   -0.1091    2.4987 O   0  0  0  0  0  0  0  0  0  0  0  0
   -0.0000   -0.0645    1.8877 N   0  0  0  0  0  2  0  0  0  0  0  0
   -3.0879    1.5141   -0.4676 C   0  0  0  0  0  0  0  0  0  0  0  0
   -2.6112    2.1310   -1.6448 C   0  0  0  0  0  0  0  0  0  0  0  0
   -1.7725    1.6713   -2.1932 H   0  0  0  0  0  0  0  0  0  0  0  0
   -3.2076    3.3164   -2.0978 C   0  0  0  0  0  0  0  0  0  0  0  0
   -2.8373    3.7930   -3.0182 H   0  0  0  0  0  0  0  0  0  0  0  0
   -4.2653    3.8973   -1.3790 C   0  0  0  0  0  0  0  0  0  0  0  0
   -4.7261    4.8316   -1.7348 H   0  0  0  0  0  0  0  0  0  0  0  0
   -4.7310    3.2895   -0.2024 C   0  0  0  0  0  0  0  0  0  0  0  0
   -5.5548    3.7465    0.3670 H   0  0  0  0  0  0  0  0  0  0  0  0
   -4.1480    2.0983    0.2571 C   0  0  0  0  0  0  0  0  0  0  0  0
   -4.5089    1.6279    1.1839 H   0  0  0  0  0  0  0  0  0  0  0  0
   -3.3759   -1.4027   -0.5144 C   0  0  0  0  0  0  0  0  0  0  0  0
   -2.7812   -2.5277   -1.1208 C   0  0  0  0  0  0  0  0  0  0  0  0
   -1.6920   -2.5357   -1.2828 H   0  0  0  0  0  0  0  0  0  0  0  0
   -3.5834   -3.6041   -1.5286 C   0  0  0  0  0  0  0  0  0  0  0  0
   -3.1196   -4.4784   -2.0100 H   0  0  0  0  0  0  0  0  0  0  0  0
   -4.9721   -3.5625   -1.3284 C   0  0  0  0  0  0  0  0  0  0  0  0
   -5.6000   -4.4081   -1.6486 H   0  0  0  0  0  0  0  0  0  0  0  0
   -5.5640   -2.4398   -0.7250 C   0  0  0  0  0  0  0  0  0  0  0  0
   -6.6532   -2.4062   -0.5705 H   0  0  0  0  0  0  0  0  0  0  0  0
   -4.7713   -1.3565   -0.3207 C   0  0  0  0  0  0  0  0  0  0  0  0
   -5.2373   -0.4763    0.1446 H   0  0  0  0  0  0  0  0  0  0  0  0
   -2.4797   -0.0674    1.9212 C   0  0  0  0  0  0  0  0  0  0  0  0
   -1.1734   -0.0457    2.6305 C   0  0  1  0  0  3  0  0  0  0  0  0
   -1.1920   -0.0133    4.0325 C   0  0  0  0  0  0  0  0  0  0  0  0
   -2.1854   -0.0078    4.5065 H   0  0  0  0  0  0  0  0  0  0  0  0
   -0.0001    0.0050    4.7647 C   0  0  0  0  0  0  0  0  0  0  0  0
   -0.0001    0.0288    5.8634 H   0  0  0  0  0  0  0  0  0  0  0  0
    1.1919   -0.0129    4.0326 C   0  0  0  0  0  0  0  0  0  0  0  0
    2.1853   -0.0071    4.5065 H   0  0  0  0  0  0  0  0  0  0  0  0
    1.1733   -0.0454    2.6305 C   0  0  0  0  0  0  0  0  0  0  0  0
    2.4797   -0.0668    1.9213 C   0  0  0  0  0  0  0  0  0  0  0  0
    3.0882    1.5139   -0.4682 C   0  0  0  0  0  0  0  0  0  0  0  0
    2.6116    2.1304   -1.6456 C   0  0  0  0  0  0  0  0  0  0  0  0
    1.7730    1.6706   -2.1939 H   0  0  0  0  0  0  0  0  0  0  0  0
    3.2083    3.3155   -2.0991 C   0  0  0  0  0  0  0  0  0  0  0  0
    2.8382    3.7917   -3.0198 H   0  0  0  0  0  0  0  0  0  0  0  0
    4.2661    3.8966   -1.3805 C   0  0  0  0  0  0  0  0  0  0  0  0
    4.7270    4.8306   -1.7366 H   0  0  0  0  0  0  0  0  0  0  0  0
    4.7315    3.2892   -0.2035 C   0  0  0  0  0  0  0  0  0  0  0  0
    5.5553    3.7463    0.3657 H   0  0  0  0  0  0  0  0  0  0  0  0
    4.1483    2.0982    0.2564 C   0  0  0  0  0  0  0  0  0  0  0  0
    4.5091    1.6282    1.1834 H   0  0  0  0  0  0  0  0  0  0  0  0
    3.3756   -1.4029   -0.5139 C   0  0  0  0  0  0  0  0  0  0  0  0
    2.7807   -2.5284   -1.1194 C   0  0  0  0  0  0  0  0  0  0  0  0
    1.6914   -2.5364   -1.2810 H   0  0  0  0  0  0  0  0  0  0  0  0
    3.5827   -3.6050   -1.5267 C   0  0  0  0  0  0  0  0  0  0  0  0
    3.1188   -4.4796   -2.0073 H   0  0  0  0  0  0  0  0  0  0  0  0
    4.9716   -3.5634   -1.3268 C   0  0  0  0  0  0  0  0  0  0  0  0
    5.5993   -4.4092   -1.6467 H   0  0  0  0  0  0  0  0  0  0  0  0
    5.5636   -2.4403   -0.7244 C   0  0  0  0  0  0  0  0  0  0  0  0
    6.6529   -2.4067   -0.5702 H   0  0  0  0  0  0  0  0  0  0  0  0
    4.7711   -1.3567   -0.3205 C   0  0  0  0  0  0  0  0  0  0  0  0
    5.2373   -0.4762    0.1441 H   0  0  0  0  0  0  0  0  0  0  0  0
  1 28  1  0  0  0  0
  2 37  1  0  0  0  0
  5 29  1  0  0  0  0
  5 36  1  0  0  0  0
  6  1  1  0  0  0  0
  6 15  1  0  0  0  0
  7  6  2  0  0  0  0
  8  7  1  0  0  0  0
  9  7  1  0  0  0  0
  9 11  2  0  0  0  0
 10  9  1  0  0  0  0
 11 13  1  0  0  0  0
 12 11  1  0  0  0  0
 13 15  2  0  0  0  0
 13 14  1  0  0  0  0
 15 16  1  0  0  0  0
 17 26  1  0  0  0  0
 17  1  1  0  0  0  0
 18 17  2  0  0  0  0
 19 18  1  0  0  0  0
 20 22  2  0  0  0  0
 20 18  1  0  0  0  0
 21 20  1  0  0  0  0
 22 24  1  0  0  0  0
 23 22  1  0  0  0  0
 24 25  1  0  0  0  0
 24 26  2  0  0  0  0
 26 27  1  0  0  0  0
 28  3  2  0  0  0  0
 29 28  1  1  0  0  0
 29 30  1  0  0  0  0
 30 31  1  0  0  0  0
 30 32  2  0  0  0  0
 32 33  1  0  0  0  0
 34 35  1  0  0  0  0
 34 32  1  0  0  0  0
 36 34  2  0  0  0  0
 37  4  2  0  0  0  0
 37 36  1  0  0  0  0
 38  2  1  0  0  0  0
 38 47  1  0  0  0  0
 39 38  2  0  0  0  0
 40 39  1  0  0  0  0
 41 39  1  0  0  0  0
 41 43  2  0  0  0  0
 42 41  1  0  0  0  0
 43 45  1  0  0  0  0
 44 43  1  0  0  0  0
 45 47  2  0  0  0  0
 45 46  1  0  0  0  0
 47 48  1  0  0  0  0
 49 58  1  0  0  0  0
 49  2  1  0  0  0  0
 50 49  2  0  0  0  0
 51 50  1  0  0  0  0
 52 54  2  0  0  0  0
 52 50  1  0  0  0  0
 53 52  1  0  0  0  0
 54 56  1  0  0  0  0
 55 54  1  0  0  0  0
 56 57  1  0  0  0  0
 56 58  2  0  0  0  0
 58 59  1  0  0  0  0
M  END
