1,2,3
q = 0.0, confidence = 0.996

 61 61  0  0  1  0  0  0  0  0999 V2000
    0.8597   -2.1070    0.2067 P   0  0  0  0  0  0  0  0  0  0  0  0
    0.2589    2.2132    0.0895 P   0  0  0  0  0  0  0  0  0  0  0  0
   -1.1518   -0.1704    0.2582 N   0  0  0  0  0  2  0  0  0  0  0  0
   -3.0445   -1.6405    0.2941 N   0  0  0  0  0  0  0  0  0  0  0  0
   -3.3711    0.7323    0.2036 N   0  0  0  0  0  0  0  0  0  0  0  0
   -0.8615   -2.4634    0.2613 N   0  0  0  0  0  0  0  0  0  0  0  0
   -1.4933    2.1127    0.0919 N   0  0  0  0  0  0  0  0  0  0  0  0
   -5.1884   -0.7242    0.3177 N   0  0  0  0  0  0  0  0  0  0  0  0
   -1.7321   -1.4140    0.2637 C   0  0  2  0  0  3  0  0  0  0  0  0
   -3.8329   -0.5394    0.2734 C   0  0  0  0  0  0  0  0  0  0  0  0
   -2.0466    0.8673    0.1783 C   0  0  0  0  0  0  0  0  0  0  0  0
    1.3794   -2.8965    1.8348 C   0  0  0  0  0  0  0  0  0  0  0  0
    0.8157   -2.0795    3.0014 C   0  0  0  0  0  0  0  0  0  0  0  0
    2.8957   -3.0880    1.9517 C   0  0  0  0  0  0  0  0  0  0  0  0
    1.5558   -3.3138   -1.0584 C   0  0  0  0  0  0  0  0  0  0  0  0
    0.5528   -3.6982   -2.1511 C   0  0  0  0  0  0  0  0  0  0  0  0
    2.8401   -2.7036   -1.6415 C   0  0  0  0  0  0  0  0  0  0  0  0
    0.5823    3.1026    1.7117 C   0  0  0  0  0  0  0  0  0  0  0  0
    0.2336    2.1614    2.8704 C   0  0  0  0  0  0  0  0  0  0  0  0
   -0.1338    4.4488    1.8528 C   0  0  0  0  0  0  0  0  0  0  0  0
    0.6988    3.4869   -1.2186 C   0  0  0  0  0  0  0  0  0  0  0  0
   -0.3195    3.5562   -2.3612 C   0  0  0  0  0  0  0  0  0  0  0  0
    2.1201    3.1767   -1.7138 C   0  0  0  0  0  0  0  0  0  0  0  0
   -5.7732   -2.0483    0.3737 C   0  0  0  0  0  0  0  0  0  0  0  0
   -6.1095    0.3932    0.2808 C   0  0  0  0  0  0  0  0  0  0  0  0
   -2.1557    2.8896    0.0425 H   0  0  0  0  0  0  0  0  0  0  0  0
    0.8866   -3.8972    1.8162 H   0  0  0  0  0  0  0  0  0  0  0  0
   -0.2797   -1.9328    2.9158 H   0  0  0  0  0  0  0  0  0  0  0  0
    1.0165   -2.5923    3.9649 H   0  0  0  0  0  0  0  0  0  0  0  0
    1.2972   -1.0816    3.0376 H   0  0  0  0  0  0  0  0  0  0  0  0
    3.3043   -3.7422    1.1566 H   0  0  0  0  0  0  0  0  0  0  0  0
    3.4182   -2.1115    1.9028 H   0  0  0  0  0  0  0  0  0  0  0  0
    3.1379   -3.5609    2.9264 H   0  0  0  0  0  0  0  0  0  0  0  0
    1.8170   -4.2249   -0.4741 H   0  0  0  0  0  0  0  0  0  0  0  0
   -0.3367   -4.2221   -1.7486 H   0  0  0  0  0  0  0  0  0  0  0  0
    0.2068   -2.7999   -2.6991 H   0  0  0  0  0  0  0  0  0  0  0  0
    1.0431   -4.3830   -2.8747 H   0  0  0  0  0  0  0  0  0  0  0  0
    3.5535   -2.3875   -0.8550 H   0  0  0  0  0  0  0  0  0  0  0  0
    3.3489   -3.4439   -2.2933 H   0  0  0  0  0  0  0  0  0  0  0  0
    2.5947   -1.8070   -2.2451 H   0  0  0  0  0  0  0  0  0  0  0  0
    1.6855    3.2525    1.6933 H   0  0  0  0  0  0  0  0  0  0  0  0
    0.7935    1.2100    2.7939 H   0  0  0  0  0  0  0  0  0  0  0  0
    0.4858    2.6339    3.8422 H   0  0  0  0  0  0  0  0  0  0  0  0
   -0.8519    1.9290    2.8806 H   0  0  0  0  0  0  0  0  0  0  0  0
    0.1328    5.1733    1.0580 H   0  0  0  0  0  0  0  0  0  0  0  0
   -1.2366    4.3174    1.8458 H   0  0  0  0  0  0  0  0  0  0  0  0
    0.1270    4.9186    2.8240 H   0  0  0  0  0  0  0  0  0  0  0  0
    0.7126    4.4651   -0.6920 H   0  0  0  0  0  0  0  0  0  0  0  0
   -1.3224    3.8776   -2.0164 H   0  0  0  0  0  0  0  0  0  0  0  0
    0.0251    4.2931   -3.1167 H   0  0  0  0  0  0  0  0  0  0  0  0
   -0.4223    2.5702   -2.8554 H   0  0  0  0  0  0  0  0  0  0  0  0
    2.8454    3.0892   -0.8799 H   0  0  0  0  0  0  0  0  0  0  0  0
    2.1344    2.2167   -2.2674 H   0  0  0  0  0  0  0  0  0  0  0  0
    2.4662    3.9846   -2.3913 H   0  0  0  0  0  0  0  0  0  0  0  0
   -6.4154   -2.2319   -0.5162 H   0  0  0  0  0  0  0  0  0  0  0  0
   -4.9637   -2.7974    0.3997 H   0  0  0  0  0  0  0  0  0  0  0  0
   -6.4086   -2.1570    1.2804 H   0  0  0  0  0  0  0  0  0  0  0  0
   -6.7675    0.3304   -0.6144 H   0  0  0  0  0  0  0  0  0  0  0  0
   -6.7608    0.3927    1.1827 H   0  0  0  0  0  0  0  0  0  0  0  0
   -5.5328    1.3328    0.2438 H   0  0  0  0  0  0  0  0  0  0  0  0
   -1.2866   -3.3932    0.2860 H   0  0  0  0  0  0  0  0  0  0  0  0
  1  6  1  0  0  0  0
  1 12  1  0  0  0  0
  2  7  1  0  0  0  0
  2 18  1  0  0  0  0
  3  9  1  0  0  0  0
  5 10  1  0  0  0  0
  6 61  1  0  0  0  0
  7 11  1  0  0  0  0
  8 24  1  0  0  0  0
  9  6  1  1  0  0  0
  9  4  1  0  0  0  0
 10  4  2  0  0  0  0
 10  8  1  0  0  0  0
 11  5  2  0  0  0  0
 11  3  1  0  0  0  0
 12 14  1  0  0  0  0
 12 13  1  0  0  0  0
 13 30  1  0  0  0  0
 13 29  1  0  0  0  0
 14 33  1  0  0  0  0
 15 34  1  0  0  0  0
 15  1  1  0  0  0  0
 16 35  1  0  0  0  0
 16 15  1  0  0  0  0
 17 15  1  0  0  0  0
 17 38  1  0  0  0  0
 18 20  1  0  0  0  0
 18 19  1  0  0  0  0
 19 44  1  0  0  0  0
 19 43  1  0  0  0  0
 20 47  1  0  0  0  0
 21 48  1  0  0  0  0
 21  2  1  0  0  0  0
 22 49  1  0  0  0  0
 22 21  1  0  0  0  0
 23 21  1  0  0  0  0
 23 52  1  0  0  0  0
 24 56  1  0  0  0  0
 24 57  1  0  0  0  0
 25  8  1  0  0  0  0
 25 59  1  0  0  0  0
 26  7  1  0  0  0  0
 27 12  1  0  0  0  0
 28 13  1  0  0  0  0
 31 14  1  0  0  0  0
 32 14  1  0  0  0  0
 36 16  1  0  0  0  0
 37 16  1  0  0  0  0
 39 17  1  0  0  0  0
 40 17  1  0  0  0  0
 41 18  1  0  0  0  0
 42 19  1  0  0  0  0
 45 20  1  0  0  0  0
 46 20  1  0  0  0  0
 50 22  1  0  0  0  0
 51 22  1  0  0  0  0
 53 23  1  0  0  0  0
 54 23  1  0  0  0  0
 55 24  1  0  0  0  0
 58 25  1  0  0  0  0
 60 25  1  0  0  0  0
M  END
