1,2,3
q = -1.0, confidence = 0.004

 69 72  0  0  0  0  0  0  0  0999 V2000
    1.1390   -1.2304   -0.1007 P   0  0  0  0  0  0  0  0  0  0  0  0
   -1.0921    2.4588   -0.0306 P   0  0  0  0  0  0  0  0  0  0  0  0
   -1.5372   -0.3366   -0.3320 N   0  0  0  0  0  2  0  0  0  0  0  0
    2.5526   -1.3183   -1.2556 C   0  0  0  0  0  0  0  0  0  0  0  0
    2.3982   -1.7899   -2.5754 C   0  0  0  0  0  0  0  0  0  0  0  0
    1.4323   -2.2065   -2.8970 H   0  0  0  0  0  0  0  0  0  0  0  0
    3.4728   -1.7255   -3.4758 C   0  0  0  0  0  0  0  0  0  0  0  0
    3.3438   -2.0995   -4.5030 H   0  0  0  0  0  0  0  0  0  0  0  0
    4.7046   -1.1879   -3.0706 C   0  0  0  0  0  0  0  0  0  0  0  0
    5.5455   -1.1392   -3.7792 H   0  0  0  0  0  0  0  0  0  0  0  0
    4.8579   -0.7043   -1.7608 C   0  0  0  0  0  0  0  0  0  0  0  0
    5.8145   -0.2651   -1.4397 H   0  0  0  0  0  0  0  0  0  0  0  0
    3.7885   -0.7602   -0.8571 C   0  0  0  0  0  0  0  0  0  0  0  0
    3.9089   -0.3527    0.1581 H   0  0  0  0  0  0  0  0  0  0  0  0
    1.7081   -1.9917    1.4682 C   0  0  0  0  0  0  0  0  0  0  0  0
    0.9434   -1.7115    2.6210 C   0  0  0  0  0  0  0  0  0  0  0  0
    0.0791   -1.0317    2.5411 H   0  0  0  0  0  0  0  0  0  0  0  0
    1.2809   -2.2951    3.8495 C   0  0  0  0  0  0  0  0  0  0  0  0
    0.6806   -2.0724    4.7448 H   0  0  0  0  0  0  0  0  0  0  0  0
    2.3882   -3.1556    3.9385 C   0  0  0  0  0  0  0  0  0  0  0  0
    2.6575   -3.6089    4.9046 H   0  0  0  0  0  0  0  0  0  0  0  0
    3.1527   -3.4339    2.7946 C   0  0  0  0  0  0  0  0  0  0  0  0
    4.0204   -4.1079    2.8618 H   0  0  0  0  0  0  0  0  0  0  0  0
    2.8160   -2.8555    1.5605 C   0  0  0  0  0  0  0  0  0  0  0  0
    3.4197   -3.0715    0.6661 H   0  0  0  0  0  0  0  0  0  0  0  0
   -0.1855   -2.2960   -0.7453 C   0  0  0  0  0  0  0  0  0  0  0  0
   -0.0182   -3.6308   -1.1488 C   0  0  0  0  0  0  0  0  0  0  0  0
    0.9615   -4.1158   -1.0120 H   0  0  0  0  0  0  0  0  0  0  0  0
   -1.0767   -4.3272   -1.7466 C   0  0  0  0  0  0  0  0  0  0  0  0
   -0.9489   -5.3689   -2.0747 H   0  0  0  0  0  0  0  0  0  0  0  0
   -2.2933   -3.6491   -1.9561 C   0  0  0  0  0  0  0  0  0  0  0  0
   -3.1210   -4.1613   -2.4713 H   0  0  0  0  0  0  0  0  0  0  0  0
   -2.4817   -2.3300   -1.5332 C   0  0  0  0  0  0  0  0  0  0  0  0
   -3.4397   -1.8365   -1.7348 H   0  0  0  0  0  0  0  0  0  0  0  0
   -1.4459   -1.6225   -0.8554 C   0  0  0  0  0  0  0  0  0  0  0  0
   -2.7283    0.3351   -0.1281 C   0  0  0  0  0  0  0  0  0  0  0  0
   -4.0065   -0.3949    0.1249 C   0  0  0  0  0  0  0  0  0  0  0  0
   -4.0298   -1.4733    1.0373 C   0  0  0  0  0  0  0  0  0  0  0  0
   -3.0896   -1.7917    1.5118 H   0  0  0  0  0  0  0  0  0  0  0  0
   -5.2317   -2.1264    1.3357 C   0  0  0  0  0  0  0  0  0  0  0  0
   -5.2347   -2.9621    2.0521 H   0  0  0  0  0  0  0  0  0  0  0  0
   -6.4298   -1.7203    0.7235 C   0  0  0  0  0  0  0  0  0  0  0  0
   -7.3723   -2.2401    0.9532 H   0  0  0  0  0  0  0  0  0  0  0  0
   -6.4175   -0.6480   -0.1823 C   0  0  0  0  0  0  0  0  0  0  0  0
   -7.3514   -0.3249   -0.6674 H   0  0  0  0  0  0  0  0  0  0  0  0
   -5.2153    0.0129   -0.4763 C   0  0  0  0  0  0  0  0  0  0  0  0
   -5.1986    0.8458   -1.1956 H   0  0  0  0  0  0  0  0  0  0  0  0
   -2.7247    1.7154    0.0018 C   0  0  0  0  0  0  0  0  0  0  0  0
   -3.6414    2.2623    0.2644 H   0  0  0  0  0  0  0  0  0  0  0  0
   -1.0606    3.6611    1.3987 C   0  0  0  0  0  0  0  0  0  0  0  0
   -1.9982    4.2537    1.2978 H   0  0  0  0  0  0  0  0  0  0  0  0
   -1.1215    2.8599    2.7052 C   0  0  0  0  0  0  0  0  0  0  0  0
   -0.1965    2.2627    2.8348 H   0  0  0  0  0  0  0  0  0  0  0  0
   -1.9842    2.1637    2.7163 H   0  0  0  0  0  0  0  0  0  0  0  0
   -1.2135    3.5425    3.5755 H   0  0  0  0  0  0  0  0  0  0  0  0
    0.1453    4.6062    1.3511 C   0  0  0  0  0  0  0  0  0  0  0  0
    0.1240    5.2862    2.2284 H   0  0  0  0  0  0  0  0  0  0  0  0
    0.1497    5.2397    0.4421 H   0  0  0  0  0  0  0  0  0  0  0  0
    1.0994    4.0438    1.3804 H   0  0  0  0  0  0  0  0  0  0  0  0
   -0.9361    3.4814   -1.5906 C   0  0  0  0  0  0  0  0  0  0  0  0
    0.0726    3.9448   -1.5205 H   0  0  0  0  0  0  0  0  0  0  0  0
   -0.9647    2.5281   -2.7911 C   0  0  0  0  0  0  0  0  0  0  0  0
   -1.9270    1.9768   -2.8317 H   0  0  0  0  0  0  0  0  0  0  0  0
   -0.1551    1.7726   -2.7332 H   0  0  0  0  0  0  0  0  0  0  0  0
   -0.8495    3.0920   -3.7401 H   0  0  0  0  0  0  0  0  0  0  0  0
   -2.0070    4.5710   -1.6883 C   0  0  0  0  0  0  0  0  0  0  0  0
   -1.8938    5.1419   -2.6339 H   0  0  0  0  0  0  0  0  0  0  0  0
   -1.9516    5.2973   -0.8530 H   0  0  0  0  0  0  0  0  0  0  0  0
   -3.0229    4.1238   -1.6879 H   0  0  0  0  0  0  0  0  0  0  0  0
  1 15  1  0  0  0  0
  2 48  1  0  0  0  0
  2 50  1  0  0  0  0
  3 36  1  0  0  0  0
  4 13  1  0  0  0  0
  4  1  1  0  0  0  0
  5  4  2  0  0  0  0
  6  5  1  0  0  0  0
  7  9  2  0  0  0  0
  7  5  1  0  0  0  0
  8  7  1  0  0  0  0
  9 11  1  0  0  0  0
 10  9  1  0  0  0  0
 11 12  1  0  0  0  0
 11 13  2  0  0  0  0
 13 14  1  0  0  0  0
 15 24  2  0  0  0  0
 15 16  1  0  0  0  0
 16 18  2  0  0  0  0
 17 16  1  0  0  0  0
 18 20  1  0  0  0  0
 18 19  1  0  0  0  0
 20 21  1  0  0  0  0
 22 23  1  0  0  0  0
 22 20  2  0  0  0  0
 24 22  1  0  0  0  0
 25 24  1  0  0  0  0
 26  1  1  0  0  0  0
 27 28  1  0  0  0  0
 27 26  2  0  0  0  0
 29 27  1  0  0  0  0
 30 29  1  0  0  0  0
 31 29  2  0  0  0  0
 31 33  1  0  0  0  0
 32 31  1  0  0  0  0
 33 35  2  0  0  0  0
 34 33  1  0  0  0  0
 35 26  1  0  0  0  0
 35  3  1  0  0  0  0
 36 48  2  0  0  0  0
 36 37  1  0  0  0  0
 37 38  1  0  0  0  0
 38 40  2  0  0  0  0
 38 39  1  0  0  0  0
 40 41  1  0  0  0  0
 42 43  1  0  0  0  0
 42 40  1  0  0  0  0
 44 42  2  0  0  0  0
 45 44  1  0  0  0  0
 46 44  1  0  0  0  0
 46 37  2  0  0  0  0
 47 46  1  0  0  0  0
 48 49  1  0  0  0  0
 50 52  1  0  0  0  0
 51 50  1  0  0  0  0
 52 54  1  0  0  0  0
 52 53  1  0  0  0  0
 52 55  1  0  0  0  0
 56 59  1  0  0  0  0
 56 50  1  0  0  0  0
 56 57  1  0  0  0  0
 58 56  1  0  0  0  0
 60 61  1  0  0  0  0
 60  2  1  0  0  0  0
 62 64  1  0  0  0  0
 62 60  1  0  0  0  0
 63 62  1  0  0  0  0
 65 62  1  0  0  0  0
 66 69  1  0  0  0  0
 66 60  1  0  0  0  0
 66 68  1  0  0  0  0
 67 66  1  0  0  0  0
M  END
