1,2,3
q = 0.0, confidence = 0.992

 64 65  0  0  1  0  0  0  0  0999 V2000
    2.1885    0.3938    0.0001 P   0  0  0  0  0  0  0  0  0  0  0  0
   -0.9128    0.9840   -0.9438 P   0  0  2  0  0  0  0  0  0  0  0  0
   -1.7160   -1.6301   -0.0453 N   0  0  0  0  0  2  0  0  0  0  0  0
    2.2316    2.1164   -0.7486 C   0  0  0  0  0  0  0  0  0  0  0  0
    1.2858    2.4458   -1.9137 C   0  0  0  0  0  0  0  0  0  0  0  0
   -0.1698    2.6021   -1.4721 C   0  0  0  0  0  0  0  0  0  0  0  0
   -1.7040    0.3414   -2.5171 C   0  0  0  0  0  0  0  0  0  0  0  0
   -1.8236   -1.1945   -2.4561 C   0  0  0  0  0  0  0  0  0  0  0  0
   -2.4569   -1.7065   -1.1857 C   0  0  2  0  0  3  0  0  0  0  0  0
   -3.7576   -2.2369   -1.1652 C   0  0  0  0  0  0  0  0  0  0  0  0
   -4.3085   -2.6947    0.0385 C   0  0  0  0  0  0  0  0  0  0  0  0
   -3.5273   -2.6265    1.1997 C   0  0  0  0  0  0  0  0  0  0  0  0
   -2.2366   -2.0964    1.1143 C   0  0  0  0  0  0  0  0  0  0  0  0
   -2.3666    1.5892    0.0433 C   0  0  0  0  0  0  0  0  0  0  0  0
   -3.4248    2.3271   -0.5258 C   0  0  0  0  0  0  0  0  0  0  0  0
   -4.4806    2.7906    0.2739 C   0  0  0  0  0  0  0  0  0  0  0  0
   -4.4891    2.5240    1.6530 C   0  0  0  0  0  0  0  0  0  0  0  0
   -3.4354    1.7975    2.2295 C   0  0  0  0  0  0  0  0  0  0  0  0
   -2.3798    1.3340    1.4295 C   0  0  0  0  0  0  0  0  0  0  0  0
    2.9063    0.7795    1.7529 C   0  0  0  0  0  0  0  0  0  0  0  0
    3.5359   -0.4809    2.3690 C   0  0  0  0  0  0  0  0  0  0  0  0
    3.9317    1.9282    1.7849 C   0  0  0  0  0  0  0  0  0  0  0  0
    1.6739    1.1731    2.5919 C   0  0  0  0  0  0  0  0  0  0  0  0
    3.5064   -0.5272   -1.0713 C   0  0  0  0  0  0  0  0  0  0  0  0
    4.9141    0.0804   -0.9739 C   0  0  0  0  0  0  0  0  0  0  0  0
    3.0098   -0.4359   -2.5281 C   0  0  0  0  0  0  0  0  0  0  0  0
    3.5614   -2.0157   -0.6921 C   0  0  0  0  0  0  0  0  0  0  0  0
    3.2810    2.3253   -1.0384 H   0  0  0  0  0  0  0  0  0  0  0  0
    2.0030    2.8128    0.0841 H   0  0  0  0  0  0  0  0  0  0  0  0
    1.3562    1.6842   -2.7168 H   0  0  0  0  0  0  0  0  0  0  0  0
    1.6231    3.4005   -2.3728 H   0  0  0  0  0  0  0  0  0  0  0  0
   -0.2408    3.2866   -0.6009 H   0  0  0  0  0  0  0  0  0  0  0  0
   -0.8002    3.0356   -2.2769 H   0  0  0  0  0  0  0  0  0  0  0  0
   -1.0339    0.6265   -3.3544 H   0  0  0  0  0  0  0  0  0  0  0  0
   -2.6903    0.8175   -2.6954 H   0  0  0  0  0  0  0  0  0  0  0  0
   -0.7980   -1.6212   -2.5001 H   0  0  0  0  0  0  0  0  0  0  0  0
   -2.3981   -1.5639   -3.3297 H   0  0  0  0  0  0  0  0  0  0  0  0
   -4.3273   -2.2901   -2.1045 H   0  0  0  0  0  0  0  0  0  0  0  0
   -5.3292   -3.1050    0.0665 H   0  0  0  0  0  0  0  0  0  0  0  0
   -3.9039   -2.9823    2.1692 H   0  0  0  0  0  0  0  0  0  0  0  0
   -1.5574   -2.0523    1.9786 H   0  0  0  0  0  0  0  0  0  0  0  0
   -3.4321    2.5482   -1.6052 H   0  0  0  0  0  0  0  0  0  0  0  0
   -5.3029    3.3632   -0.1825 H   0  0  0  0  0  0  0  0  0  0  0  0
   -5.3198    2.8850    2.2786 H   0  0  0  0  0  0  0  0  0  0  0  0
   -3.4356    1.5871    3.3101 H   0  0  0  0  0  0  0  0  0  0  0  0
   -1.5428    0.7584    1.8595 H   0  0  0  0  0  0  0  0  0  0  0  0
    4.4989   -0.7423    1.8882 H   0  0  0  0  0  0  0  0  0  0  0  0
    2.8496   -1.3489    2.2999 H   0  0  0  0  0  0  0  0  0  0  0  0
    3.7487   -0.2854    3.4423 H   0  0  0  0  0  0  0  0  0  0  0  0
    4.8113    1.7383    1.1419 H   0  0  0  0  0  0  0  0  0  0  0  0
    4.3039    2.0383    2.8261 H   0  0  0  0  0  0  0  0  0  0  0  0
    3.4971    2.9048    1.4965 H   0  0  0  0  0  0  0  0  0  0  0  0
    1.1312    2.0418    2.1637 H   0  0  0  0  0  0  0  0  0  0  0  0
    1.9981    1.4488    3.6189 H   0  0  0  0  0  0  0  0  0  0  0  0
    0.9629    0.3247    2.6495 H   0  0  0  0  0  0  0  0  0  0  0  0
    4.9394    1.1618   -1.2187 H   0  0  0  0  0  0  0  0  0  0  0  0
    5.5789   -0.4308   -1.7032 H   0  0  0  0  0  0  0  0  0  0  0  0
    5.3614   -0.0609    0.0286 H   0  0  0  0  0  0  0  0  0  0  0  0
    3.1088    0.5840   -2.9491 H   0  0  0  0  0  0  0  0  0  0  0  0
    1.9486   -0.7542   -2.6014 H   0  0  0  0  0  0  0  0  0  0  0  0
    3.6200   -1.1134   -3.1627 H   0  0  0  0  0  0  0  0  0  0  0  0
    3.9183   -2.1826    0.3396 H   0  0  0  0  0  0  0  0  0  0  0  0
    4.2612   -2.5310   -1.3853 H   0  0  0  0  0  0  0  0  0  0  0  0
    2.5648   -2.4898   -0.7664 H   0  0  0  0  0  0  0  0  0  0  0  0
  1 20  1  0  0  0  0
  2  7  1  6  0  0  0
  2 14  1  0  0  0  0
  3 13  1  0  0  0  0
  4  1  1  0  0  0  0
  4 29  1  0  0  0  0
  5  6  1  0  0  0  0
  5  4  1  0  0  0  0
  6  2  1  0  0  0  0
  6 32  1  0  0  0  0
  7  8  1  0  0  0  0
  9  8  1  1  0  0  0
  9 10  1  0  0  0  0
  9  3  1  0  0  0  0
 10 11  2  0  0  0  0
 11 39  1  0  0  0  0
 11 12  1  0  0  0  0
 12 40  1  0  0  0  0
 13 12  2  0  0  0  0
 13 41  1  0  0  0  0
 14 19  1  0  0  0  0
 15 14  2  0  0  0  0
 15 16  1  0  0  0  0
 16 17  2  0  0  0  0
 17 18  1  0  0  0  0
 17 44  1  0  0  0  0
 18 45  1  0  0  0  0
 19 46  1  0  0  0  0
 19 18  2  0  0  0  0
 20 22  1  0  0  0  0
 20 21  1  0  0  0  0
 20 23  1  0  0  0  0
 21 49  1  0  0  0  0
 22 51  1  0  0  0  0
 23 55  1  0  0  0  0
 23 54  1  0  0  0  0
 24 25  1  0  0  0  0
 24 27  1  0  0  0  0
 24  1  1  0  0  0  0
 25 58  1  0  0  0  0
 26 24  1  0  0  0  0
 27 62  1  0  0  0  0
 28  4  1  0  0  0  0
 30  5  1  0  0  0  0
 31  5  1  0  0  0  0
 33  6  1  0  0  0  0
 34  7  1  0  0  0  0
 35  7  1  0  0  0  0
 36  8  1  0  0  0  0
 37  8  1  0  0  0  0
 38 10  1  0  0  0  0
 42 15  1  0  0  0  0
 43 16  1  0  0  0  0
 47 21  1  0  0  0  0
 48 21  1  0  0  0  0
 50 22  1  0  0  0  0
 52 22  1  0  0  0  0
 53 23  1  0  0  0  0
 56 25  1  0  0  0  0
 57 25  1  0  0  0  0
 59 26  1  0  0  0  0
 60 26  1  0  0  0  0
 61 26  1  0  0  0  0
 63 27  1  0  0  0  0
 64 27  1  0  0  0  0
M  END
