1,2,3
q = 0.0, confidence = 0.984

 81 81  0  0  1  0  0  0  0  0999 V2000
   -2.2211   -0.3068    0.0195 P   0  0  0  0  0  0  0  0  0  0  0  0
    2.2210   -0.3068   -0.0195 P   0  0  0  0  0  0  0  0  0  0  0  0
   -0.0001    1.4964   -0.0000 N   0  0  0  0  0  2  0  0  0  0  0  0
   -1.1391    2.1911   -0.3306 C   0  0  1  0  0  3  0  0  0  0  0  0
   -1.1578    3.5925   -0.3202 C   0  0  0  0  0  0  0  0  0  0  0  0
   -2.0808    4.1232   -0.5836 H   0  0  0  0  0  0  0  0  0  0  0  0
   -0.0001    4.3055   -0.0002 C   0  0  0  0  0  0  0  0  0  0  0  0
   -0.0001    5.4052   -0.0003 H   0  0  0  0  0  0  0  0  0  0  0  0
    1.1576    3.5925    0.3200 C   0  0  0  0  0  0  0  0  0  0  0  0
    2.0806    4.1232    0.5832 H   0  0  0  0  0  0  0  0  0  0  0  0
    1.1390    2.1912    0.3305 C   0  0  0  0  0  0  0  0  0  0  0  0
   -2.3447    1.4058   -0.8382 C   0  0  0  0  0  0  0  0  0  0  0  0
   -3.6706    2.1578   -0.6303 C   0  0  0  0  0  0  0  0  0  0  0  0
   -3.8026    2.5115    0.4088 H   0  0  0  0  0  0  0  0  0  0  0  0
   -4.5298    1.5162   -0.8879 H   0  0  0  0  0  0  0  0  0  0  0  0
   -3.7266    3.0405   -1.2997 H   0  0  0  0  0  0  0  0  0  0  0  0
   -2.0988    1.2340   -2.3613 C   0  0  0  0  0  0  0  0  0  0  0  0
   -1.9489    2.2358   -2.8125 H   0  0  0  0  0  0  0  0  0  0  0  0
   -2.9661    0.7672   -2.8621 H   0  0  0  0  0  0  0  0  0  0  0  0
   -1.1971    0.6261   -2.5706 H   0  0  0  0  0  0  0  0  0  0  0  0
    2.3444    1.4059    0.8382 C   0  0  0  0  0  0  0  0  0  0  0  0
    2.0985    1.2341    2.3613 C   0  0  0  0  0  0  0  0  0  0  0  0
    1.1970    0.6260    2.5706 H   0  0  0  0  0  0  0  0  0  0  0  0
    1.9481    2.2360    2.8123 H   0  0  0  0  0  0  0  0  0  0  0  0
    2.9659    0.7678    2.8622 H   0  0  0  0  0  0  0  0  0  0  0  0
    3.6704    2.1578    0.6304 C   0  0  0  0  0  0  0  0  0  0  0  0
    4.5296    1.5164    0.8887 H   0  0  0  0  0  0  0  0  0  0  0  0
    3.7262    3.0409    1.2993 H   0  0  0  0  0  0  0  0  0  0  0  0
    3.8027    2.5109   -0.4089 H   0  0  0  0  0  0  0  0  0  0  0  0
   -2.7874   -0.1161    1.8463 C   0  0  0  0  0  0  0  0  0  0  0  0
   -2.1577    1.1668    2.4244 C   0  0  0  0  0  0  0  0  0  0  0  0
   -1.0539    1.1502    2.3564 H   0  0  0  0  0  0  0  0  0  0  0  0
   -2.4249    1.2278    3.4995 H   0  0  0  0  0  0  0  0  0  0  0  0
   -2.5216    2.0941    1.9444 H   0  0  0  0  0  0  0  0  0  0  0  0
   -4.3144   -0.0565    2.0263 C   0  0  0  0  0  0  0  0  0  0  0  0
   -4.7791    0.7886    1.4856 H   0  0  0  0  0  0  0  0  0  0  0  0
   -4.5347    0.0828    3.1055 H   0  0  0  0  0  0  0  0  0  0  0  0
   -4.8169   -0.9901    1.7137 H   0  0  0  0  0  0  0  0  0  0  0  0
   -2.2051   -1.3060    2.6414 C   0  0  0  0  0  0  0  0  0  0  0  0
   -2.6268   -2.2795    2.3394 H   0  0  0  0  0  0  0  0  0  0  0  0
   -2.4394   -1.1559    3.7158 H   0  0  0  0  0  0  0  0  0  0  0  0
   -1.1049   -1.3732    2.5327 H   0  0  0  0  0  0  0  0  0  0  0  0
   -3.2984   -1.5905   -0.9278 C   0  0  0  0  0  0  0  0  0  0  0  0
   -4.6857   -1.0421   -1.3111 C   0  0  0  0  0  0  0  0  0  0  0  0
   -5.2673   -0.6791   -0.4439 H   0  0  0  0  0  0  0  0  0  0  0  0
   -5.2645   -1.8712   -1.7692 H   0  0  0  0  0  0  0  0  0  0  0  0
   -4.6349   -0.2367   -2.0678 H   0  0  0  0  0  0  0  0  0  0  0  0
   -3.4768   -2.8391   -0.0384 C   0  0  0  0  0  0  0  0  0  0  0  0
   -2.5040   -3.2501    0.2889 H   0  0  0  0  0  0  0  0  0  0  0  0
   -3.9859   -3.6150   -0.6467 H   0  0  0  0  0  0  0  0  0  0  0  0
   -4.1151   -2.6507    0.8441 H   0  0  0  0  0  0  0  0  0  0  0  0
   -2.5530   -2.0322   -2.2063 C   0  0  0  0  0  0  0  0  0  0  0  0
   -2.4567   -1.2284   -2.9555 H   0  0  0  0  0  0  0  0  0  0  0  0
   -3.1429   -2.8459   -2.6770 H   0  0  0  0  0  0  0  0  0  0  0  0
   -1.5495   -2.4329   -1.9738 H   0  0  0  0  0  0  0  0  0  0  0  0
    3.2985   -1.5904    0.9278 C   0  0  0  0  0  0  0  0  0  0  0  0
    4.6856   -1.0417    1.3113 C   0  0  0  0  0  0  0  0  0  0  0  0
    5.2671   -0.6784    0.4442 H   0  0  0  0  0  0  0  0  0  0  0  0
    5.2645   -1.8707    1.7693 H   0  0  0  0  0  0  0  0  0  0  0  0
    4.6345   -0.2364    2.0681 H   0  0  0  0  0  0  0  0  0  0  0  0
    3.4774   -2.8388    0.0383 C   0  0  0  0  0  0  0  0  0  0  0  0
    2.5048   -3.2501   -0.2892 H   0  0  0  0  0  0  0  0  0  0  0  0
    3.9867   -3.6146    0.6466 H   0  0  0  0  0  0  0  0  0  0  0  0
    4.1158   -2.6500   -0.8441 H   0  0  0  0  0  0  0  0  0  0  0  0
    2.5530   -2.0325    2.2062 C   0  0  0  0  0  0  0  0  0  0  0  0
    2.4564   -1.2289    2.9555 H   0  0  0  0  0  0  0  0  0  0  0  0
    3.1431   -2.8461    2.6768 H   0  0  0  0  0  0  0  0  0  0  0  0
    1.5496   -2.4335    1.9735 H   0  0  0  0  0  0  0  0  0  0  0  0
    2.7876   -0.1160   -1.8462 C   0  0  0  0  0  0  0  0  0  0  0  0
    2.1578    1.1668   -2.4245 C   0  0  0  0  0  0  0  0  0  0  0  0
    1.0540    1.1498   -2.3570 H   0  0  0  0  0  0  0  0  0  0  0  0
    2.4254    1.2278   -3.4995 H   0  0  0  0  0  0  0  0  0  0  0  0
    2.5212    2.0942   -1.9443 H   0  0  0  0  0  0  0  0  0  0  0  0
    4.3147   -0.0563   -2.0256 C   0  0  0  0  0  0  0  0  0  0  0  0
    4.7791    0.7888   -1.4846 H   0  0  0  0  0  0  0  0  0  0  0  0
    4.5353    0.0833   -3.1048 H   0  0  0  0  0  0  0  0  0  0  0  0
    4.8172   -0.9899   -1.7131 H   0  0  0  0  0  0  0  0  0  0  0  0
    2.2057   -1.3061   -2.6414 C   0  0  0  0  0  0  0  0  0  0  0  0
    2.6269   -2.2796   -2.3386 H   0  0  0  0  0  0  0  0  0  0  0  0
    2.4409   -1.1564   -3.7156 H   0  0  0  0  0  0  0  0  0  0  0  0
    1.1054   -1.3731   -2.5335 H   0  0  0  0  0  0  0  0  0  0  0  0
  1 30  1  0  0  0  0
  2 21  1  0  0  0  0
  2 56  1  0  0  0  0
  3 11  1  0  0  0  0
  4 12  1  6  0  0  0
  4  5  1  0  0  0  0
  4  3  1  0  0  0  0
  5  7  2  0  0  0  0
  6  5  1  0  0  0  0
  7  9  1  0  0  0  0
  8  7  1  0  0  0  0
  9 11  2  0  0  0  0
  9 10  1  0  0  0  0
 11 21  1  0  0  0  0
 12 13  1  0  0  0  0
 12  1  1  0  0  0  0
 13 14  1  0  0  0  0
 15 13  1  0  0  0  0
 16 13  1  0  0  0  0
 17 12  1  0  0  0  0
 18 17  1  0  0  0  0
 19 17  1  0  0  0  0
 20 17  1  0  0  0  0
 21 22  1  0  0  0  0
 22 23  1  0  0  0  0
 22 24  1  0  0  0  0
 22 25  1  0  0  0  0
 26 21  1  0  0  0  0
 26 27  1  0  0  0  0
 26 28  1  0  0  0  0
 29 26  1  0  0  0  0
 30 35  1  0  0  0  0
 30 31  1  0  0  0  0
 30 39  1  0  0  0  0
 31 33  1  0  0  0  0
 32 31  1  0  0  0  0
 34 31  1  0  0  0  0
 35 37  1  0  0  0  0
 36 35  1  0  0  0  0
 38 35  1  0  0  0  0
 39 41  1  0  0  0  0
 40 39  1  0  0  0  0
 42 39  1  0  0  0  0
 43 48  1  0  0  0  0
 43  1  1  0  0  0  0
 44 43  1  0  0  0  0
 44 45  1  0  0  0  0
 46 44  1  0  0  0  0
 47 44  1  0  0  0  0
 48 49  1  0  0  0  0
 48 51  1  0  0  0  0
 50 48  1  0  0  0  0
 52 55  1  0  0  0  0
 52 43  1  0  0  0  0
 53 52  1  0  0  0  0
 54 52  1  0  0  0  0
 56 57  1  0  0  0  0
 56 65  1  0  0  0  0
 57 59  1  0  0  0  0
 57 60  1  0  0  0  0
 58 57  1  0  0  0  0
 61 63  1  0  0  0  0
 61 56  1  0  0  0  0
 62 61  1  0  0  0  0
 64 61  1  0  0  0  0
 65 67  1  0  0  0  0
 65 66  1  0  0  0  0
 68 65  1  0  0  0  0
 69  2  1  0  0  0  0
 70 71  1  0  0  0  0
 70 73  1  0  0  0  0
 70 69  1  0  0  0  0
 72 70  1  0  0  0  0
 74 69  1  0  0  0  0
 74 77  1  0  0  0  0
 74 75  1  0  0  0  0
 76 74  1  0  0  0  0
 78 81  1  0  0  0  0
 78 79  1  0  0  0  0
 78 69  1  0  0  0  0
 80 78  1  0  0  0  0
M  END
