1,2,3
q = 0.0, confidence = 0.998

 66 69  0  0  0  0  0  0  0  0999 V2000
    1.5580    0.1783    0.2052 P   0  0  0  0  0  0  0  0  0  0  0  0
   -1.6767   -0.0299    0.5279 P   0  0  0  0  0  0  0  0  0  0  0  0
    0.1102   -2.6466    1.0656 N   0  0  0  0  0  0  0  0  0  0  0  0
   -0.8974   -2.7869    1.2196 H   0  0  0  0  0  0  0  0  0  0  0  0
    1.0806    0.4653    2.0034 C   0  0  0  0  0  0  0  0  0  0  0  0
    2.0165    0.5760    2.5875 H   0  0  0  0  0  0  0  0  0  0  0  0
    0.5471    1.4345    2.0584 H   0  0  0  0  0  0  0  0  0  0  0  0
   -1.3129   -0.4319    2.3207 C   0  0  0  0  0  0  0  0  0  0  0  0
   -1.7349    0.3493    2.9846 H   0  0  0  0  0  0  0  0  0  0  0  0
   -1.8817   -1.3559    2.5617 H   0  0  0  0  0  0  0  0  0  0  0  0
    0.6701   -2.0626    2.3000 C   0  0  0  0  0  0  0  0  0  0  0  0
    1.7758   -2.0602    2.1984 H   0  0  0  0  0  0  0  0  0  0  0  0
    0.4350   -2.7391    3.1568 H   0  0  0  0  0  0  0  0  0  0  0  0
    0.1921   -0.6288    2.6590 C   0  0  0  0  0  0  0  0  0  0  0  0
    0.3496   -0.4791    4.1870 C   0  0  0  0  0  0  0  0  0  0  0  0
    0.1397    0.5631    4.5022 H   0  0  0  0  0  0  0  0  0  0  0  0
    1.3829   -0.7270    4.5065 H   0  0  0  0  0  0  0  0  0  0  0  0
   -0.3481   -1.1498    4.7296 H   0  0  0  0  0  0  0  0  0  0  0  0
    4.2845    0.5470    0.9847 C   0  0  0  0  0  0  0  0  0  0  0  0
    3.9857    1.5676    1.2717 H   0  0  0  0  0  0  0  0  0  0  0  0
    5.6122    0.1369    1.1688 C   0  0  0  0  0  0  0  0  0  0  0  0
    6.3423    0.8320    1.6113 H   0  0  0  0  0  0  0  0  0  0  0  0
    6.0134   -1.1528    0.7794 C   0  0  0  0  0  0  0  0  0  0  0  0
    7.0574   -1.4718    0.9205 H   0  0  0  0  0  0  0  0  0  0  0  0
    5.0818   -2.0254    0.1984 C   0  0  0  0  0  0  0  0  0  0  0  0
    5.3906   -3.0310   -0.1253 H   0  0  0  0  0  0  0  0  0  0  0  0
    3.7510   -1.6146    0.0143 C   0  0  0  0  0  0  0  0  0  0  0  0
    3.0236   -2.2851   -0.4647 H   0  0  0  0  0  0  0  0  0  0  0  0
    3.3387   -0.3308    0.4132 C   0  0  0  0  0  0  0  0  0  0  0  0
    1.7988    3.0556    0.3374 C   0  0  0  0  0  0  0  0  0  0  0  0
    1.6737    2.9983    1.4282 H   0  0  0  0  0  0  0  0  0  0  0  0
    1.9567    4.3155   -0.2609 C   0  0  0  0  0  0  0  0  0  0  0  0
    1.9552    5.2189    0.3678 H   0  0  0  0  0  0  0  0  0  0  0  0
    2.1044    4.4240   -1.6515 C   0  0  0  0  0  0  0  0  0  0  0  0
    2.2225    5.4135   -2.1189 H   0  0  0  0  0  0  0  0  0  0  0  0
    2.0949    3.2648   -2.4451 C   0  0  0  0  0  0  0  0  0  0  0  0
    2.2044    3.3394   -3.5376 H   0  0  0  0  0  0  0  0  0  0  0  0
    1.9291    2.0064   -1.8517 C   0  0  0  0  0  0  0  0  0  0  0  0
    1.8963    1.1003   -2.4752 H   0  0  0  0  0  0  0  0  0  0  0  0
    1.7769    1.8906   -0.4540 C   0  0  0  0  0  0  0  0  0  0  0  0
   -4.3706   -0.2846    1.5079 C   0  0  0  0  0  0  0  0  0  0  0  0
   -3.9840   -0.1010    2.5217 H   0  0  0  0  0  0  0  0  0  0  0  0
   -5.7485   -0.4820    1.3279 C   0  0  0  0  0  0  0  0  0  0  0  0
   -6.4207   -0.4649    2.1996 H   0  0  0  0  0  0  0  0  0  0  0  0
   -6.2685   -0.6956    0.0415 C   0  0  0  0  0  0  0  0  0  0  0  0
   -7.3493   -0.8502   -0.0971 H   0  0  0  0  0  0  0  0  0  0  0  0
   -5.4061   -0.7129   -1.0663 C   0  0  0  0  0  0  0  0  0  0  0  0
   -5.8062   -0.8826   -2.0772 H   0  0  0  0  0  0  0  0  0  0  0  0
   -4.0276   -0.5283   -0.8890 C   0  0  0  0  0  0  0  0  0  0  0  0
   -3.3447   -0.5573   -1.7521 H   0  0  0  0  0  0  0  0  0  0  0  0
   -3.4995   -0.3139    0.4001 C   0  0  0  0  0  0  0  0  0  0  0  0
   -1.8435    2.6528    1.5958 C   0  0  0  0  0  0  0  0  0  0  0  0
   -2.0200    2.2147    2.5896 H   0  0  0  0  0  0  0  0  0  0  0  0
   -1.8272    4.0508    1.4703 C   0  0  0  0  0  0  0  0  0  0  0  0
   -1.9781    4.6792    2.3616 H   0  0  0  0  0  0  0  0  0  0  0  0
   -1.6277    4.6438    0.2140 C   0  0  0  0  0  0  0  0  0  0  0  0
   -1.6120    5.7399    0.1168 H   0  0  0  0  0  0  0  0  0  0  0  0
   -1.4450    3.8311   -0.9148 C   0  0  0  0  0  0  0  0  0  0  0  0
   -1.2783    4.2829   -1.9037 H   0  0  0  0  0  0  0  0  0  0  0  0
   -1.4460    2.4347   -0.7891 C   0  0  0  0  0  0  0  0  0  0  0  0
   -1.2769    1.8108   -1.6765 H   0  0  0  0  0  0  0  0  0  0  0  0
   -1.6419    1.8298    0.4695 C   0  0  0  0  0  0  0  0  0  0  0  0
    0.6869   -3.9790    0.8099 C   0  0  0  0  0  0  0  0  0  0  0  0
    0.1569   -4.4494   -0.0377 H   0  0  0  0  0  0  0  0  0  0  0  0
    0.6223   -4.6391    1.7064 H   0  0  0  0  0  0  0  0  0  0  0  0
    1.7517   -3.8696    0.5315 H   0  0  0  0  0  0  0  0  0  0  0  0
  1 29  1  0  0  0  0
  1  5  1  0  0  0  0
  2  8  1  0  0  0  0
  3  4  1  0  0  0  0
  3 11  1  0  0  0  0
  5  7  1  0  0  0  0
  5  6  1  0  0  0  0
  5 14  1  0  0  0  0
  8 10  1  0  0  0  0
  8 14  1  0  0  0  0
  8  9  1  0  0  0  0
 11 14  1  0  0  0  0
 11 13  1  0  0  0  0
 12 11  1  0  0  0  0
 14 15  1  0  0  0  0
 15 16  1  0  0  0  0
 15 17  1  0  0  0  0
 15 18  1  0  0  0  0
 19 21  1  0  0  0  0
 19 20  1  0  0  0  0
 21 22  1  0  0  0  0
 23 24  1  0  0  0  0
 23 21  2  0  0  0  0
 25 23  1  0  0  0  0
 26 25  1  0  0  0  0
 27 25  2  0  0  0  0
 27 29  1  0  0  0  0
 28 27  1  0  0  0  0
 29 19  2  0  0  0  0
 30 31  1  0  0  0  0
 32 30  1  0  0  0  0
 32 33  1  0  0  0  0
 34 32  2  0  0  0  0
 35 34  1  0  0  0  0
 36 38  2  0  0  0  0
 36 34  1  0  0  0  0
 37 36  1  0  0  0  0
 38 40  1  0  0  0  0
 39 38  1  0  0  0  0
 40  1  1  0  0  0  0
 40 30  2  0  0  0  0
 41 42  1  0  0  0  0
 43 41  1  0  0  0  0
 43 44  1  0  0  0  0
 45 43  2  0  0  0  0
 46 45  1  0  0  0  0
 47 49  2  0  0  0  0
 47 45  1  0  0  0  0
 48 47  1  0  0  0  0
 49 51  1  0  0  0  0
 50 49  1  0  0  0  0
 51  2  1  0  0  0  0
 51 41  2  0  0  0  0
 52 53  1  0  0  0  0
 54 52  1  0  0  0  0
 54 55  1  0  0  0  0
 56 54  2  0  0  0  0
 57 56  1  0  0  0  0
 58 60  2  0  0  0  0
 58 56  1  0  0  0  0
 59 58  1  0  0  0  0
 60 62  1  0  0  0  0
 61 60  1  0  0  0  0
 62  2  1  0  0  0  0
 62 52  2  0  0  0  0
 63  3  1  0  0  0  0
 63 65  1  0  0  0  0
 64 63  1  0  0  0  0
 66 63  1  0  0  0  0
M  END
