1,2,3
q = 0.0, confidence = 1.0

 66 65  0  0  0  0  0  0  0  0999 V2000
   -2.2917    0.0961    0.2154 P   0  0  0  0  0  0  0  0  0  0  0  0
    2.3418   -0.0272    0.2743 P   0  0  0  0  0  0  0  0  0  0  0  0
   -0.0259   -0.7497    1.7922 N   0  0  0  0  0  2  0  0  0  0  0  0
   -1.0642   -0.6196    2.5811 C   0  0  0  0  0  3  0  0  0  0  0  0
   -2.2679    0.1249    2.1050 C   0  0  0  0  0  0  0  0  0  0  0  0
    1.1391   -1.5170    2.2674 C   0  0  0  0  0  0  0  0  0  0  0  0
    2.4246   -0.7252    2.0187 C   0  0  0  0  0  0  0  0  0  0  0  0
   -3.1406    1.7615   -0.2173 C   0  0  0  0  0  0  0  0  0  0  0  0
   -3.5369    1.7365   -1.7043 C   0  0  0  0  0  0  0  0  0  0  0  0
   -2.0667    2.8506   -0.0298 C   0  0  0  0  0  0  0  0  0  0  0  0
   -4.3490    2.1033    0.6707 C   0  0  0  0  0  0  0  0  0  0  0  0
   -3.4473   -1.3773   -0.1953 C   0  0  0  0  0  0  0  0  0  0  0  0
   -2.9557   -2.5666    0.6547 C   0  0  0  0  0  0  0  0  0  0  0  0
   -4.9304   -1.1322    0.1164 C   0  0  0  0  0  0  0  0  0  0  0  0
   -3.2604   -1.7115   -1.6879 C   0  0  0  0  0  0  0  0  0  0  0  0
    2.7311    1.8286    0.5236 C   0  0  0  0  0  0  0  0  0  0  0  0
    1.3928    2.3484    1.0945 C   0  0  0  0  0  0  0  0  0  0  0  0
    2.9736    2.4954   -0.8409 C   0  0  0  0  0  0  0  0  0  0  0  0
    3.8753    2.1561    1.4920 C   0  0  0  0  0  0  0  0  0  0  0  0
    3.6868   -0.9267   -0.7267 C   0  0  0  0  0  0  0  0  0  0  0  0
    3.5705   -2.4308   -0.4085 C   0  0  0  0  0  0  0  0  0  0  0  0
    5.1063   -0.4447   -0.3947 C   0  0  0  0  0  0  0  0  0  0  0  0
    3.3535   -0.7101   -2.2148 C   0  0  0  0  0  0  0  0  0  0  0  0
   -1.0337   -1.0511    3.5996 H   0  0  0  0  0  0  0  0  0  0  0  0
   -2.1722    1.1985    2.3885 H   0  0  0  0  0  0  0  0  0  0  0  0
   -3.2016   -0.2406    2.5796 H   0  0  0  0  0  0  0  0  0  0  0  0
    1.1474   -2.4587    1.6767 H   0  0  0  0  0  0  0  0  0  0  0  0
    1.0232   -1.7745    3.3432 H   0  0  0  0  0  0  0  0  0  0  0  0
    3.3221   -1.3535    2.1777 H   0  0  0  0  0  0  0  0  0  0  0  0
    2.4869    0.1209    2.7320 H   0  0  0  0  0  0  0  0  0  0  0  0
   -2.6727    1.4476   -2.3369 H   0  0  0  0  0  0  0  0  0  0  0  0
   -3.8606    2.7544   -2.0104 H   0  0  0  0  0  0  0  0  0  0  0  0
   -4.3811    1.0489   -1.9036 H   0  0  0  0  0  0  0  0  0  0  0  0
   -1.2275    2.6960   -0.7366 H   0  0  0  0  0  0  0  0  0  0  0  0
   -1.6721    2.8838    1.0074 H   0  0  0  0  0  0  0  0  0  0  0  0
   -2.5194    3.8437   -0.2377 H   0  0  0  0  0  0  0  0  0  0  0  0
   -5.1822    1.3870    0.5659 H   0  0  0  0  0  0  0  0  0  0  0  0
   -4.7341    3.1043    0.3789 H   0  0  0  0  0  0  0  0  0  0  0  0
   -4.0789    2.1645    1.7443 H   0  0  0  0  0  0  0  0  0  0  0  0
   -3.1401   -2.4151    1.7375 H   0  0  0  0  0  0  0  0  0  0  0  0
   -1.8798   -2.7674    0.4890 H   0  0  0  0  0  0  0  0  0  0  0  0
   -3.5216   -3.4731    0.3507 H   0  0  0  0  0  0  0  0  0  0  0  0
   -5.1010   -0.8379    1.1723 H   0  0  0  0  0  0  0  0  0  0  0  0
   -5.4894   -2.0778   -0.0533 H   0  0  0  0  0  0  0  0  0  0  0  0
   -5.3827   -0.3650   -0.5405 H   0  0  0  0  0  0  0  0  0  0  0  0
   -2.1950   -1.9034   -1.9198 H   0  0  0  0  0  0  0  0  0  0  0  0
   -3.6230   -0.9022   -2.3481 H   0  0  0  0  0  0  0  0  0  0  0  0
   -3.8410   -2.6282   -1.9275 H   0  0  0  0  0  0  0  0  0  0  0  0
    1.1562    1.9383    2.0961 H   0  0  0  0  0  0  0  0  0  0  0  0
    0.5432    2.1241    0.3972 H   0  0  0  0  0  0  0  0  0  0  0  0
    1.4089    3.4577    1.1739 H   0  0  0  0  0  0  0  0  0  0  0  0
    3.9475    2.1997   -1.2772 H   0  0  0  0  0  0  0  0  0  0  0  0
    2.9934    3.5985   -0.7073 H   0  0  0  0  0  0  0  0  0  0  0  0
    2.1660    2.2464   -1.5606 H   0  0  0  0  0  0  0  0  0  0  0  0
    4.8575    1.8288    1.1039 H   0  0  0  0  0  0  0  0  0  0  0  0
    3.7335    1.7042    2.4941 H   0  0  0  0  0  0  0  0  0  0  0  0
    3.9271    3.2571    1.6366 H   0  0  0  0  0  0  0  0  0  0  0  0
    3.8747   -2.6702    0.6304 H   0  0  0  0  0  0  0  0  0  0  0  0
    4.2548   -2.9873   -1.0839 H   0  0  0  0  0  0  0  0  0  0  0  0
    2.5404   -2.7996   -0.5807 H   0  0  0  0  0  0  0  0  0  0  0  0
    5.3428   -0.5467    0.6845 H   0  0  0  0  0  0  0  0  0  0  0  0
    5.2759    0.6081   -0.6918 H   0  0  0  0  0  0  0  0  0  0  0  0
    5.8398   -1.0663   -0.9525 H   0  0  0  0  0  0  0  0  0  0  0  0
    2.3250   -1.0514   -2.4421 H   0  0  0  0  0  0  0  0  0  0  0  0
    4.0702   -1.2894   -2.8353 H   0  0  0  0  0  0  0  0  0  0  0  0
    3.4234    0.3520   -2.5141 H   0  0  0  0  0  0  0  0  0  0  0  0
  1  5  1  0  0  0  0
  2 16  1  0  0  0  0
  2  7  1  0  0  0  0
  3  6  1  0  0  0  0
  3  4  1  0  0  0  0
  4 24  1  0  0  0  0
  5 25  1  0  0  0  0
  5 26  1  0  0  0  0
  5  4  1  0  0  0  0
  6 28  1  0  0  0  0
  7 29  1  0  0  0  0
  7  6  1  0  0  0  0
  7 30  1  0  0  0  0
  8 10  1  0  0  0  0
  8  1  1  0  0  0  0
  8 11  1  0  0  0  0
  9  8  1  0  0  0  0
 10 35  1  0  0  0  0
 11 39  1  0  0  0  0
 12 14  1  0  0  0  0
 12  1  1  0  0  0  0
 12 13  1  0  0  0  0
 13 40  1  0  0  0  0
 14 43  1  0  0  0  0
 15 12  1  0  0  0  0
 16 17  1  0  0  0  0
 16 19  1  0  0  0  0
 17 51  1  0  0  0  0
 17 49  1  0  0  0  0
 18 53  1  0  0  0  0
 18 16  1  0  0  0  0
 19 57  1  0  0  0  0
 19 56  1  0  0  0  0
 20 21  1  0  0  0  0
 20 22  1  0  0  0  0
 20  2  1  0  0  0  0
 21 58  1  0  0  0  0
 22 61  1  0  0  0  0
 23 20  1  0  0  0  0
 27  6  1  0  0  0  0
 31  9  1  0  0  0  0
 32  9  1  0  0  0  0
 33  9  1  0  0  0  0
 34 10  1  0  0  0  0
 36 10  1  0  0  0  0
 37 11  1  0  0  0  0
 38 11  1  0  0  0  0
 41 13  1  0  0  0  0
 42 13  1  0  0  0  0
 44 14  1  0  0  0  0
 45 14  1  0  0  0  0
 46 15  1  0  0  0  0
 47 15  1  0  0  0  0
 48 15  1  0  0  0  0
 50 17  1  0  0  0  0
 52 18  1  0  0  0  0
 54 18  1  0  0  0  0
 55 19  1  0  0  0  0
 59 21  1  0  0  0  0
 60 21  1  0  0  0  0
 62 22  1  0  0  0  0
 63 22  1  0  0  0  0
 64 23  1  0  0  0  0
 65 23  1  0  0  0  0
 66 23  1  0  0  0  0
M  END
