1,2,3
q = 0.0, confidence = 0.996

 63 65  0  0  1  0  0  0  0  0999 V2000
    2.1601   -0.8801   -0.1726 P   0  0  0  0  0  0  0  0  0  0  0  0
   -2.1599   -0.8802    0.1724 P   0  0  0  0  0  0  0  0  0  0  0  0
   -0.0001    0.9479   -0.0014 N   0  0  0  0  0  2  0  0  0  0  0  0
    2.3380    0.8782   -0.1276 N   0  0  0  0  0  0  0  0  0  0  0  0
   -2.3381    0.8780    0.1254 N   0  0  0  0  0  0  0  0  0  0  0  0
    1.1760    1.6343   -0.0594 C   0  0  1  0  0  3  0  0  0  0  0  0
    1.2118    3.0458   -0.0682 C   0  0  0  0  0  0  0  0  0  0  0  0
   -0.0003    3.7368   -0.0035 C   0  0  0  0  0  0  0  0  0  0  0  0
   -1.2122    3.0457    0.0623 C   0  0  0  0  0  0  0  0  0  0  0  0
   -1.1762    1.6342    0.0557 C   0  0  0  0  0  0  0  0  0  0  0  0
    3.6195    1.5028   -0.0105 C   0  0  0  0  0  0  0  0  0  0  0  0
    4.0922    1.8956    1.2580 C   0  0  0  0  0  0  0  0  0  0  0  0
    5.3607    2.4785    1.3828 C   0  0  0  0  0  0  0  0  0  0  0  0
    6.1645    2.6701    0.2463 C   0  0  0  0  0  0  0  0  0  0  0  0
    5.6912    2.2872   -1.0185 C   0  0  0  0  0  0  0  0  0  0  0  0
    4.4186    1.7099   -1.1508 C   0  0  0  0  0  0  0  0  0  0  0  0
   -3.6198    1.5024    0.0099 C   0  0  0  0  0  0  0  0  0  0  0  0
   -4.4163    1.7117    1.1516 C   0  0  0  0  0  0  0  0  0  0  0  0
   -5.6891    2.2890    1.0211 C   0  0  0  0  0  0  0  0  0  0  0  0
   -6.1652    2.6696   -0.2433 C   0  0  0  0  0  0  0  0  0  0  0  0
   -5.3640    2.4757   -1.3813 C   0  0  0  0  0  0  0  0  0  0  0  0
   -4.0953    1.8930   -1.2582 C   0  0  0  0  0  0  0  0  0  0  0  0
    3.2763   -1.4284    1.1959 C   0  0  0  0  0  0  0  0  0  0  0  0
    3.1075   -2.9003    1.5820 C   0  0  0  0  0  0  0  0  0  0  0  0
    3.0223   -1.3495   -1.7411 C   0  0  0  0  0  0  0  0  0  0  0  0
    2.8046   -2.8081   -2.1536 C   0  0  0  0  0  0  0  0  0  0  0  0
   -3.0220   -1.3481    1.7413 C   0  0  0  0  0  0  0  0  0  0  0  0
   -2.8035   -2.8061    2.1557 C   0  0  0  0  0  0  0  0  0  0  0  0
   -3.2759   -1.4300   -1.1957 C   0  0  0  0  0  0  0  0  0  0  0  0
   -3.1080   -2.9026   -1.5794 C   0  0  0  0  0  0  0  0  0  0  0  0
    2.1729    3.5690   -0.1312 H   0  0  0  0  0  0  0  0  0  0  0  0
   -0.0003    4.8373   -0.0044 H   0  0  0  0  0  0  0  0  0  0  0  0
   -2.1734    3.5689    0.1245 H   0  0  0  0  0  0  0  0  0  0  0  0
    3.4487    1.7379    2.1361 H   0  0  0  0  0  0  0  0  0  0  0  0
    5.7269    2.7808    2.3756 H   0  0  0  0  0  0  0  0  0  0  0  0
    7.1622    3.1230    0.3472 H   0  0  0  0  0  0  0  0  0  0  0  0
    6.3138    2.4445   -1.9121 H   0  0  0  0  0  0  0  0  0  0  0  0
    4.0273    1.4224   -2.1367 H   0  0  0  0  0  0  0  0  0  0  0  0
   -4.0228    1.4259    2.1372 H   0  0  0  0  0  0  0  0  0  0  0  0
   -6.3097    2.4480    1.9158 H   0  0  0  0  0  0  0  0  0  0  0  0
   -7.1631    3.1224   -0.3429 H   0  0  0  0  0  0  0  0  0  0  0  0
   -5.7324    2.7763   -2.3738 H   0  0  0  0  0  0  0  0  0  0  0  0
   -3.4538    1.7335   -2.1375 H   0  0  0  0  0  0  0  0  0  0  0  0
    4.3215   -1.1813    0.9138 H   0  0  0  0  0  0  0  0  0  0  0  0
    2.9832   -0.7898    2.0529 H   0  0  0  0  0  0  0  0  0  0  0  0
    3.8094   -3.1591    2.4003 H   0  0  0  0  0  0  0  0  0  0  0  0
    2.0779   -3.0763    1.9489 H   0  0  0  0  0  0  0  0  0  0  0  0
    3.3061   -3.5940    0.7418 H   0  0  0  0  0  0  0  0  0  0  0  0
    2.5728   -0.6799   -2.5022 H   0  0  0  0  0  0  0  0  0  0  0  0
    4.0992   -1.1005   -1.6346 H   0  0  0  0  0  0  0  0  0  0  0  0
    3.3379   -3.0165   -3.1031 H   0  0  0  0  0  0  0  0  0  0  0  0
    3.1763   -3.5289   -1.3993 H   0  0  0  0  0  0  0  0  0  0  0  0
    1.7262   -2.9943   -2.3223 H   0  0  0  0  0  0  0  0  0  0  0  0
   -2.5727   -0.6773    2.5016 H   0  0  0  0  0  0  0  0  0  0  0  0
   -4.0990   -1.0997    1.6345 H   0  0  0  0  0  0  0  0  0  0  0  0
   -3.3372   -3.0137    3.1051 H   0  0  0  0  0  0  0  0  0  0  0  0
   -3.1742   -3.5280    1.4020 H   0  0  0  0  0  0  0  0  0  0  0  0
   -1.7251   -2.9913    2.3251 H   0  0  0  0  0  0  0  0  0  0  0  0
   -4.3210   -1.1817   -0.9144 H   0  0  0  0  0  0  0  0  0  0  0  0
   -2.9819   -0.7929   -2.0535 H   0  0  0  0  0  0  0  0  0  0  0  0
   -3.8094   -3.1620   -2.3979 H   0  0  0  0  0  0  0  0  0  0  0  0
   -2.0783   -3.0800   -1.9452 H   0  0  0  0  0  0  0  0  0  0  0  0
   -3.3081   -3.5948   -0.7384 H   0  0  0  0  0  0  0  0  0  0  0  0
  1  4  1  0  0  0  0
  1 23  1  0  0  0  0
  2 27  1  0  0  0  0
  3 10  1  0  0  0  0
  4 11  1  0  0  0  0
  5  2  1  0  0  0  0
  6  4  1  6  0  0  0
  6  3  1  0  0  0  0
  7  6  1  0  0  0  0
  7  8  2  0  0  0  0
  8  9  1  0  0  0  0
  9 33  1  0  0  0  0
 10  9  2  0  0  0  0
 10  5  1  0  0  0  0
 11 12  1  0  0  0  0
 12 13  2  0  0  0  0
 12 34  1  0  0  0  0
 13 35  1  0  0  0  0
 14 36  1  0  0  0  0
 14 13  1  0  0  0  0
 15 14  2  0  0  0  0
 16 15  1  0  0  0  0
 16 11  2  0  0  0  0
 17  5  1  0  0  0  0
 17 18  1  0  0  0  0
 18 39  1  0  0  0  0
 19 18  2  0  0  0  0
 19 40  1  0  0  0  0
 20 19  1  0  0  0  0
 21 22  1  0  0  0  0
 21 20  2  0  0  0  0
 22 17  2  0  0  0  0
 23 24  1  0  0  0  0
 23 45  1  0  0  0  0
 24 47  1  0  0  0  0
 24 46  1  0  0  0  0
 25 50  1  0  0  0  0
 25  1  1  0  0  0  0
 26 25  1  0  0  0  0
 26 52  1  0  0  0  0
 27 28  1  0  0  0  0
 27 54  1  0  0  0  0
 28 58  1  0  0  0  0
 28 56  1  0  0  0  0
 29 59  1  0  0  0  0
 29  2  1  0  0  0  0
 30 29  1  0  0  0  0
 30 63  1  0  0  0  0
 31  7  1  0  0  0  0
 32  8  1  0  0  0  0
 37 15  1  0  0  0  0
 38 16  1  0  0  0  0
 41 20  1  0  0  0  0
 42 21  1  0  0  0  0
 43 22  1  0  0  0  0
 44 23  1  0  0  0  0
 48 24  1  0  0  0  0
 49 25  1  0  0  0  0
 51 26  1  0  0  0  0
 53 26  1  0  0  0  0
 55 27  1  0  0  0  0
 57 28  1  0  0  0  0
 60 29  1  0  0  0  0
 61 30  1  0  0  0  0
 62 30  1  0  0  0  0
M  END
