1,2,3
 OpenBabel05122313063D

 55 54  0  0  0  0  0  0  0  0999 V2000
   -1.2020    2.1565   -0.1132 P   0  0  0  0  0  0  0  0  0  0  0  0
   -1.2072   -2.1545   -0.1123 P   0  0  0  0  0  0  0  0  0  0  0  0
   -2.6580    0.0026   -1.0495 N   0  0  0  0  0  2  0  0  0  0  0  0
   -2.6433    2.4798   -1.2466 C   0  0  0  0  0  0  0  0  0  0  0  0
   -3.2394    3.3694   -0.9561 H   0  0  0  0  0  0  0  0  0  0  0  0
   -2.2117    2.6765   -2.2491 H   0  0  0  0  0  0  0  0  0  0  0  0
   -3.4780    1.1970   -1.2758 C   0  0  0  0  0  0  0  0  0  0  0  0
   -4.2920    1.2534   -0.5086 H   0  0  0  0  0  0  0  0  0  0  0  0
   -4.0102    1.1127   -2.2554 H   0  0  0  0  0  0  0  0  0  0  0  0
   -3.4813   -1.1898   -1.2744 C   0  0  0  0  0  0  0  0  0  0  0  0
   -4.0138   -1.1049   -2.2538 H   0  0  0  0  0  0  0  0  0  0  0  0
   -4.2950   -1.2434   -0.5068 H   0  0  0  0  0  0  0  0  0  0  0  0
   -2.6499   -2.4747   -1.2448 C   0  0  0  0  0  0  0  0  0  0  0  0
   -2.2193   -2.6732   -2.2473 H   0  0  0  0  0  0  0  0  0  0  0  0
   -3.2483   -3.3626   -0.9534 H   0  0  0  0  0  0  0  0  0  0  0  0
    0.6054    2.8113   -2.1573 C   0  0  0  0  0  0  0  0  0  0  0  0
    0.8022    1.7231   -2.1984 H   0  0  0  0  0  0  0  0  0  0  0  0
    1.5302    3.3432   -2.4639 H   0  0  0  0  0  0  0  0  0  0  0  0
   -0.1748    3.0511   -2.9096 H   0  0  0  0  0  0  0  0  0  0  0  0
    0.1858    3.2529   -0.7496 C   0  0  0  0  0  0  0  0  0  0  0  0
    1.0255    3.0128   -0.0600 H   0  0  0  0  0  0  0  0  0  0  0  0
   -0.1113    4.7541   -0.6860 C   0  0  0  0  0  0  0  0  0  0  0  0
   -1.0033    5.0161   -1.2932 H   0  0  0  0  0  0  0  0  0  0  0  0
    0.7435    5.3336   -1.0942 H   0  0  0  0  0  0  0  0  0  0  0  0
   -0.2866    5.1118    0.3476 H   0  0  0  0  0  0  0  0  0  0  0  0
   -0.5493    2.8109    2.5303 C   0  0  0  0  0  0  0  0  0  0  0  0
   -0.3100    1.7390    2.6886 H   0  0  0  0  0  0  0  0  0  0  0  0
   -0.8379    3.2497    3.5081 H   0  0  0  0  0  0  0  0  0  0  0  0
    0.3768    3.3199    2.1945 H   0  0  0  0  0  0  0  0  0  0  0  0
   -1.6928    2.9442    1.5202 C   0  0  0  0  0  0  0  0  0  0  0  0
   -1.8856    4.0195    1.3118 H   0  0  0  0  0  0  0  0  0  0  0  0
   -2.9815    2.2975    2.0411 C   0  0  0  0  0  0  0  0  0  0  0  0
   -3.8469    2.4965    1.3788 H   0  0  0  0  0  0  0  0  0  0  0  0
   -3.2330    2.6905    3.0483 H   0  0  0  0  0  0  0  0  0  0  0  0
   -2.8565    1.1977    2.1166 H   0  0  0  0  0  0  0  0  0  0  0  0
   -2.9855   -2.2907    2.0433 C   0  0  0  0  0  0  0  0  0  0  0  0
   -2.8578   -1.1913    2.1190 H   0  0  0  0  0  0  0  0  0  0  0  0
   -3.2377   -2.6834    3.0505 H   0  0  0  0  0  0  0  0  0  0  0  0
   -3.8517   -2.4874    1.3813 H   0  0  0  0  0  0  0  0  0  0  0  0
   -1.6987   -2.9406    1.5217 C   0  0  0  0  0  0  0  0  0  0  0  0
   -1.8942   -4.0155    1.3137 H   0  0  0  0  0  0  0  0  0  0  0  0
   -0.5543   -2.8096    2.5310 C   0  0  0  0  0  0  0  0  0  0  0  0
    0.3703   -3.3211    2.1948 H   0  0  0  0  0  0  0  0  0  0  0  0
   -0.8432   -3.2471    3.5092 H   0  0  0  0  0  0  0  0  0  0  0  0
   -0.3121   -1.7383    2.6886 H   0  0  0  0  0  0  0  0  0  0  0  0
   -0.1237   -4.7549   -0.6859 C   0  0  0  0  0  0  0  0  0  0  0  0
   -0.2998   -5.1123    0.3477 H   0  0  0  0  0  0  0  0  0  0  0  0
    0.7294   -5.3367   -1.0943 H   0  0  0  0  0  0  0  0  0  0  0  0
   -1.0166   -5.0144   -1.2930 H   0  0  0  0  0  0  0  0  0  0  0  0
    0.1775   -3.2545   -0.7493 C   0  0  0  0  0  0  0  0  0  0  0  0
    1.0180   -3.0168   -0.0599 H   0  0  0  0  0  0  0  0  0  0  0  0
    0.5978   -2.8138   -2.1571 C   0  0  0  0  0  0  0  0  0  0  0  0
   -0.1835   -3.0508   -2.9091 H   0  0  0  0  0  0  0  0  0  0  0  0
    1.5208   -3.3486   -2.4643 H   0  0  0  0  0  0  0  0  0  0  0  0
    0.7980   -1.7263   -2.1979 H   0  0  0  0  0  0  0  0  0  0  0  0
  1 30  1  0  0  0  0
  2 40  1  0  0  0  0
  4  5  1  0  0  0  0
  4  1  1  0  0  0  0
  6  4  1  0  0  0  0
  7  4  1  0  0  0  0
  7  3  1  0  0  0  0
  7  8  1  0  0  0  0
  9  7  1  0  0  0  0
 10 13  1  0  0  0  0
 10  3  1  0  0  0  0
 10 12  1  0  0  0  0
 11 10  1  0  0  0  0
 13 15  1  0  0  0  0
 13  2  1  0  0  0  0
 14 13  1  0  0  0  0
 16 20  1  0  0  0  0
 17 16  1  0  0  0  0
 18 16  1  0  0  0  0
 19 16  1  0  0  0  0
 20 22  1  0  0  0  0
 20  1  1  0  0  0  0
 20 21  1  0  0  0  0
 22 25  1  0  0  0  0
 23 22  1  0  0  0  0
 24 22  1  0  0  0  0
 26 27  1  0  0  0  0
 26 28  1  0  0  0  0
 29 26  1  0  0  0  0
 30 32  1  0  0  0  0
 30 26  1  0  0  0  0
 31 30  1  0  0  0  0
 32 35  1  0  0  0  0
 32 34  1  0  0  0  0
 33 32  1  0  0  0  0
 36 37  1  0  0  0  0
 36 38  1  0  0  0  0
 39 36  1  0  0  0  0
 40 36  1  0  0  0  0
 40 42  1  0  0  0  0
 41 40  1  0  0  0  0
 42 45  1  0  0  0  0
 42 44  1  0  0  0  0
 43 42  1  0  0  0  0
 46 47  1  0  0  0  0
 48 46  1  0  0  0  0
 49 46  1  0  0  0  0
 50 46  1  0  0  0  0
 50  2  1  0  0  0  0
 50 51  1  0  0  0  0
 52 50  1  0  0  0  0
 53 52  1  0  0  0  0
 54 52  1  0  0  0  0
 55 52  1  0  0  0  0
M  END
