1,2,3
 OpenBabel05122313063D

 56 55  0  0  0  0  0  0  0  0999 V2000
    1.5434    1.7509    0.4124 P   0  0  0  0  0  0  0  0  0  0  0  0
   -1.5301   -1.5539    0.4258 P   0  0  0  0  0  0  0  0  0  0  0  0
    0.1148    0.0120    2.3172 N   0  0  0  0  0  0  0  0  0  0  0  0
   -0.6176    0.6716    2.6220 H   0  0  0  0  0  0  0  0  0  0  0  0
   -1.5982   -1.7503    2.2831 C   0  0  0  0  0  0  0  0  0  0  0  0
   -2.4056   -1.0878    2.6630 H   0  0  0  0  0  0  0  0  0  0  0  0
   -1.8552   -2.7819    2.5939 H   0  0  0  0  0  0  0  0  0  0  0  0
   -0.2527   -1.3229    2.8530 C   0  0  0  0  0  0  0  0  0  0  0  0
   -0.2726   -1.2991    3.9660 H   0  0  0  0  0  0  0  0  0  0  0  0
    0.5491   -2.0275    2.5512 H   0  0  0  0  0  0  0  0  0  0  0  0
    1.4033    0.5096    2.8641 C   0  0  0  0  0  0  0  0  0  0  0  0
    2.1830   -0.2279    2.5870 H   0  0  0  0  0  0  0  0  0  0  0  0
    1.3580    0.5475    3.9759 H   0  0  0  0  0  0  0  0  0  0  0  0
    1.7149    1.8767    2.2710 C   0  0  0  0  0  0  0  0  0  0  0  0
    2.7108    2.2400    2.5911 H   0  0  0  0  0  0  0  0  0  0  0  0
    0.9706    2.6251    2.6192 H   0  0  0  0  0  0  0  0  0  0  0  0
   -3.3006   -1.1459   -0.0321 C   0  0  0  0  0  0  0  0  0  0  0  0
   -3.3944   -0.1479    0.4497 H   0  0  0  0  0  0  0  0  0  0  0  0
   -3.4657   -0.9535   -1.5453 C   0  0  0  0  0  0  0  0  0  0  0  0
   -2.6410   -0.3556   -1.9823 H   0  0  0  0  0  0  0  0  0  0  0  0
   -4.4305   -0.4468   -1.7559 H   0  0  0  0  0  0  0  0  0  0  0  0
   -3.4930   -1.9282   -2.0718 H   0  0  0  0  0  0  0  0  0  0  0  0
   -4.3855   -2.0508    0.5643 C   0  0  0  0  0  0  0  0  0  0  0  0
   -4.4361   -3.0306    0.0545 H   0  0  0  0  0  0  0  0  0  0  0  0
   -5.3750   -1.5657    0.4320 H   0  0  0  0  0  0  0  0  0  0  0  0
   -4.2550   -2.2356    1.6488 H   0  0  0  0  0  0  0  0  0  0  0  0
   -1.0681   -3.2684   -0.1885 C   0  0  0  0  0  0  0  0  0  0  0  0
   -0.1048   -3.4168    0.3498 H   0  0  0  0  0  0  0  0  0  0  0  0
   -2.0117   -4.4086    0.2109 C   0  0  0  0  0  0  0  0  0  0  0  0
   -2.2972   -4.3959    1.2813 H   0  0  0  0  0  0  0  0  0  0  0  0
   -1.5137   -5.3808    0.0164 H   0  0  0  0  0  0  0  0  0  0  0  0
   -2.9404   -4.3970   -0.3909 H   0  0  0  0  0  0  0  0  0  0  0  0
   -0.7769   -3.2785   -1.6967 C   0  0  0  0  0  0  0  0  0  0  0  0
   -1.7177   -3.2708   -2.2811 H   0  0  0  0  0  0  0  0  0  0  0  0
   -0.2351   -4.2080   -1.9685 H   0  0  0  0  0  0  0  0  0  0  0  0
   -0.1850   -2.4011   -2.0217 H   0  0  0  0  0  0  0  0  0  0  0  0
    1.0255    3.4993   -0.0461 C   0  0  0  0  0  0  0  0  0  0  0  0
    0.0561    3.5831    0.4930 H   0  0  0  0  0  0  0  0  0  0  0  0
    1.9688    4.5837    0.4874 C   0  0  0  0  0  0  0  0  0  0  0  0
    2.1441    4.5132    1.5791 H   0  0  0  0  0  0  0  0  0  0  0  0
    1.5319    5.5841    0.2888 H   0  0  0  0  0  0  0  0  0  0  0  0
    2.9537    4.5612   -0.0218 H   0  0  0  0  0  0  0  0  0  0  0  0
    0.7528    3.6628   -1.5468 C   0  0  0  0  0  0  0  0  0  0  0  0
    1.6994    3.7336   -2.1192 H   0  0  0  0  0  0  0  0  0  0  0  0
    0.1988    4.6074   -1.7255 H   0  0  0  0  0  0  0  0  0  0  0  0
    0.1718    2.8157   -1.9615 H   0  0  0  0  0  0  0  0  0  0  0  0
    3.2990    1.5858   -0.2396 C   0  0  0  0  0  0  0  0  0  0  0  0
    3.7085    2.6167   -0.1598 H   0  0  0  0  0  0  0  0  0  0  0  0
    4.1785    0.6689    0.6200 C   0  0  0  0  0  0  0  0  0  0  0  0
    4.2825    1.0239    1.6639 H   0  0  0  0  0  0  0  0  0  0  0  0
    5.2007    0.6370    0.1896 H   0  0  0  0  0  0  0  0  0  0  0  0
    3.7982   -0.3697    0.6398 H   0  0  0  0  0  0  0  0  0  0  0  0
    3.3084    1.1660   -1.7154 C   0  0  0  0  0  0  0  0  0  0  0  0
    2.8345    0.1777   -1.8608 H   0  0  0  0  0  0  0  0  0  0  0  0
    4.3556    1.1150   -2.0787 H   0  0  0  0  0  0  0  0  0  0  0  0
    2.7584    1.8738   -2.3615 H   0  0  0  0  0  0  0  0  0  0  0  0
  1 14  1  0  0  0  0
  2  5  1  0  0  0  0
  3  4  1  0  0  0  0
  3  8  1  0  0  0  0
  3 11  1  0  0  0  0
  5  7  1  0  0  0  0
  5  6  1  0  0  0  0
  5  8  1  0  0  0  0
  8  9  1  0  0  0  0
 10  8  1  0  0  0  0
 11 13  1  0  0  0  0
 12 11  1  0  0  0  0
 14 15  1  0  0  0  0
 14 16  1  0  0  0  0
 14 11  1  0  0  0  0
 17  2  1  0  0  0  0
 17 18  1  0  0  0  0
 17 23  1  0  0  0  0
 19 17  1  0  0  0  0
 20 19  1  0  0  0  0
 21 19  1  0  0  0  0
 22 19  1  0  0  0  0
 23 26  1  0  0  0  0
 24 23  1  0  0  0  0
 25 23  1  0  0  0  0
 27 29  1  0  0  0  0
 27 28  1  0  0  0  0
 27  2  1  0  0  0  0
 29 30  1  0  0  0  0
 31 29  1  0  0  0  0
 32 29  1  0  0  0  0
 33 27  1  0  0  0  0
 34 33  1  0  0  0  0
 35 33  1  0  0  0  0
 36 33  1  0  0  0  0
 37  1  1  0  0  0  0
 37 39  1  0  0  0  0
 37 38  1  0  0  0  0
 39 40  1  0  0  0  0
 41 39  1  0  0  0  0
 42 39  1  0  0  0  0
 43 37  1  0  0  0  0
 44 43  1  0  0  0  0
 45 43  1  0  0  0  0
 46 43  1  0  0  0  0
 47 48  1  0  0  0  0
 47  1  1  0  0  0  0
 47 49  1  0  0  0  0
 49 52  1  0  0  0  0
 49 50  1  0  0  0  0
 51 49  1  0  0  0  0
 53 47  1  0  0  0  0
 54 53  1  0  0  0  0
 55 53  1  0  0  0  0
 56 53  1  0  0  0  0
M  END
