1,2,3
 OpenBabel05122313063D

 68 68  0  0  1  0  0  0  0  0999 V2000
   -2.2869   -0.0886   -0.0713 P   0  0  0  0  0  0  0  0  0  0  0  0
    2.3359    0.0201    0.0133 P   0  0  0  0  0  0  0  0  0  0  0  0
   -0.0268    1.7630   -0.3638 N   0  0  0  0  0  2  0  0  0  0  0  0
   -2.4395    1.6056   -0.8192 C   0  0  0  0  0  0  0  0  0  0  0  0
   -3.3591    2.1383   -0.5038 H   0  0  0  0  0  0  0  0  0  0  0  0
   -2.5293    1.4331   -1.9135 H   0  0  0  0  0  0  0  0  0  0  0  0
   -1.2037    2.4366   -0.5679 C   0  0  2  0  0  3  0  0  0  0  0  0
   -1.2788    3.8244   -0.6135 C   0  0  0  0  0  0  0  0  0  0  0  0
   -2.2459    4.3178   -0.7779 H   0  0  0  0  0  0  0  0  0  0  0  0
   -0.0752    4.5707   -0.4833 C   0  0  0  0  0  0  0  0  0  0  0  0
   -0.1044    5.6710   -0.5156 H   0  0  0  0  0  0  0  0  0  0  0  0
    1.1253    3.9153   -0.3285 C   0  0  0  0  0  0  0  0  0  0  0  0
    2.0682    4.4728   -0.2361 H   0  0  0  0  0  0  0  0  0  0  0  0
    1.1873    2.4741   -0.2706 C   0  0  0  0  0  0  0  0  0  0  0  0
    2.3936    1.7860   -0.1226 C   0  0  0  0  0  3  0  0  0  0  0  0
    3.3307    2.3566   -0.0609 H   0  0  0  0  0  0  0  0  0  0  0  0
   -3.0058    0.0708    1.6877 C   0  0  0  0  0  0  0  0  0  0  0  0
   -2.2965    1.2892    2.3134 C   0  0  0  0  0  0  0  0  0  0  0  0
   -2.5753    2.2451    1.8281 H   0  0  0  0  0  0  0  0  0  0  0  0
   -1.1941    1.1847    2.2535 H   0  0  0  0  0  0  0  0  0  0  0  0
   -2.5827    1.3584    3.3842 H   0  0  0  0  0  0  0  0  0  0  0  0
   -4.5255    0.2818    1.7202 C   0  0  0  0  0  0  0  0  0  0  0  0
   -5.0818   -0.6146    1.3838 H   0  0  0  0  0  0  0  0  0  0  0  0
   -4.8447    1.1449    1.1016 H   0  0  0  0  0  0  0  0  0  0  0  0
   -4.8425    0.4916    2.7641 H   0  0  0  0  0  0  0  0  0  0  0  0
   -2.6102   -1.1825    2.4903 C   0  0  0  0  0  0  0  0  0  0  0  0
   -2.9309   -1.0562    3.5462 H   0  0  0  0  0  0  0  0  0  0  0  0
   -1.5111   -1.3239    2.4723 H   0  0  0  0  0  0  0  0  0  0  0  0
   -3.0814   -2.1058    2.1042 H   0  0  0  0  0  0  0  0  0  0  0  0
   -3.3457   -1.1880   -1.2142 C   0  0  0  0  0  0  0  0  0  0  0  0
   -3.5622   -2.5601   -0.5533 C   0  0  0  0  0  0  0  0  0  0  0  0
   -4.2355   -2.5010    0.3239 H   0  0  0  0  0  0  0  0  0  0  0  0
   -2.6079   -3.0236   -0.2348 H   0  0  0  0  0  0  0  0  0  0  0  0
   -4.0375   -3.2449   -1.2871 H   0  0  0  0  0  0  0  0  0  0  0  0
   -4.6977   -0.5540   -1.5844 C   0  0  0  0  0  0  0  0  0  0  0  0
   -5.2259   -1.2217   -2.2983 H   0  0  0  0  0  0  0  0  0  0  0  0
   -4.5781    0.4264   -2.0865 H   0  0  0  0  0  0  0  0  0  0  0  0
   -5.3596   -0.4158   -0.7103 H   0  0  0  0  0  0  0  0  0  0  0  0
   -2.5049   -1.3763   -2.4933 C   0  0  0  0  0  0  0  0  0  0  0  0
   -1.5212   -1.8324   -2.2691 H   0  0  0  0  0  0  0  0  0  0  0  0
   -2.3139   -0.4172   -3.0159 H   0  0  0  0  0  0  0  0  0  0  0  0
   -3.0562   -2.0358   -3.1969 H   0  0  0  0  0  0  0  0  0  0  0  0
    3.0966   -0.4284    1.7123 C   0  0  0  0  0  0  0  0  0  0  0  0
    2.2426    0.3566    2.7271 C   0  0  0  0  0  0  0  0  0  0  0  0
    2.5958    0.1337    3.7566 H   0  0  0  0  0  0  0  0  0  0  0  0
    1.1744    0.0644    2.6474 H   0  0  0  0  0  0  0  0  0  0  0  0
    2.3096    1.4487    2.5554 H   0  0  0  0  0  0  0  0  0  0  0  0
    4.5623    0.0194    1.8147 C   0  0  0  0  0  0  0  0  0  0  0  0
    4.6918    1.0825    1.5289 H   0  0  0  0  0  0  0  0  0  0  0  0
    5.2322   -0.5982    1.1850 H   0  0  0  0  0  0  0  0  0  0  0  0
    4.9085   -0.0879    2.8654 H   0  0  0  0  0  0  0  0  0  0  0  0
    2.9735   -1.9284    2.0201 C   0  0  0  0  0  0  0  0  0  0  0  0
    3.5931   -2.5553    1.3528 H   0  0  0  0  0  0  0  0  0  0  0  0
    1.9260   -2.2765    1.9439 H   0  0  0  0  0  0  0  0  0  0  0  0
    3.3163   -2.1143    3.0608 H   0  0  0  0  0  0  0  0  0  0  0  0
    3.3207   -0.6913   -1.4631 C   0  0  0  0  0  0  0  0  0  0  0  0
    4.6722    0.0166   -1.6447 C   0  0  0  0  0  0  0  0  0  0  0  0
    5.1448   -0.3311   -2.5886 H   0  0  0  0  0  0  0  0  0  0  0  0
    5.3800   -0.1974   -0.8219 H   0  0  0  0  0  0  0  0  0  0  0  0
    4.5424    1.1145   -1.7193 H   0  0  0  0  0  0  0  0  0  0  0  0
    3.5134   -2.2093   -1.3397 C   0  0  0  0  0  0  0  0  0  0  0  0
    3.8920   -2.6112   -2.3041 H   0  0  0  0  0  0  0  0  0  0  0  0
    2.5642   -2.7325   -1.1076 H   0  0  0  0  0  0  0  0  0  0  0  0
    4.2567   -2.4741   -0.5627 H   0  0  0  0  0  0  0  0  0  0  0  0
    2.4263   -0.3817   -2.6800 C   0  0  0  0  0  0  0  0  0  0  0  0
    2.2329    0.7066   -2.7649 H   0  0  0  0  0  0  0  0  0  0  0  0
    1.4454   -0.8928   -2.5960 H   0  0  0  0  0  0  0  0  0  0  0  0
    2.9335   -0.7218   -3.6085 H   0  0  0  0  0  0  0  0  0  0  0  0
  1 17  1  0  0  0  0
  2 43  1  0  0  0  0
  3 14  1  0  0  0  0
  4  5  1  0  0  0  0
  4  1  1  0  0  0  0
  6  4  1  0  0  0  0
  7  4  1  6  0  0  0
  7  3  1  0  0  0  0
  8  7  1  0  0  0  0
  8 10  2  0  0  0  0
  9  8  1  0  0  0  0
 10 12  1  0  0  0  0
 11 10  1  0  0  0  0
 12 14  2  0  0  0  0
 12 13  1  0  0  0  0
 14 15  1  0  0  0  0
 15 16  1  0  0  0  0
 15  2  1  0  0  0  0
 17 22  1  0  0  0  0
 17 18  1  0  0  0  0
 17 26  1  0  0  0  0
 18 21  1  0  0  0  0
 19 18  1  0  0  0  0
 20 18  1  0  0  0  0
 22 25  1  0  0  0  0
 23 22  1  0  0  0  0
 24 22  1  0  0  0  0
 26 27  1  0  0  0  0
 28 26  1  0  0  0  0
 29 26  1  0  0  0  0
 30 31  1  0  0  0  0
 30  1  1  0  0  0  0
 31 33  1  0  0  0  0
 31 32  1  0  0  0  0
 34 31  1  0  0  0  0
 35 30  1  0  0  0  0
 35 38  1  0  0  0  0
 36 35  1  0  0  0  0
 37 35  1  0  0  0  0
 39 40  1  0  0  0  0
 39 30  1  0  0  0  0
 41 39  1  0  0  0  0
 42 39  1  0  0  0  0
 43 48  1  0  0  0  0
 43 52  1  0  0  0  0
 43 44  1  0  0  0  0
 44 45  1  0  0  0  0
 46 44  1  0  0  0  0
 47 44  1  0  0  0  0
 48 51  1  0  0  0  0
 49 48  1  0  0  0  0
 50 48  1  0  0  0  0
 52 55  1  0  0  0  0
 53 52  1  0  0  0  0
 54 52  1  0  0  0  0
 56 61  1  0  0  0  0
 56  2  1  0  0  0  0
 57 56  1  0  0  0  0
 57 59  1  0  0  0  0
 58 57  1  0  0  0  0
 60 57  1  0  0  0  0
 61 63  1  0  0  0  0
 61 64  1  0  0  0  0
 62 61  1  0  0  0  0
 65 67  1  0  0  0  0
 65 56  1  0  0  0  0
 66 65  1  0  0  0  0
 68 65  1  0  0  0  0
M  END
