1,2,3
 OpenBabel05122313063D

 61 61  0  0  1  0  0  0  0  0999 V2000
    2.1306   -0.1897    0.2535 P   0  0  0  0  0  0  0  0  0  0  0  0
   -2.1306   -0.1897    0.2536 P   0  0  0  0  0  0  0  0  0  0  0  0
   -0.0000    1.5608   -0.2586 N   0  0  0  0  0  2  0  0  0  0  0  0
    2.3367    1.5070   -0.1898 N   0  0  0  0  0  0  0  0  0  0  0  0
   -2.3368    1.5068   -0.1902 N   0  0  0  0  0  0  0  0  0  0  0  0
    1.1805    2.2370   -0.3881 C   0  0  2  0  0  3  0  0  0  0  0  0
    1.2131    3.6210   -0.6796 C   0  0  0  0  0  0  0  0  0  0  0  0
   -0.0001    4.2961   -0.8305 C   0  0  0  0  0  0  0  0  0  0  0  0
   -1.2134    3.6209   -0.6797 C   0  0  0  0  0  0  0  0  0  0  0  0
   -1.1806    2.2369   -0.3883 C   0  0  0  0  0  0  0  0  0  0  0  0
    2.9475   -0.2144    1.9499 C   0  0  0  0  0  0  0  0  0  0  0  0
    2.3110    0.8331    2.8681 C   0  0  0  0  0  0  0  0  0  0  0  0
    2.9097   -1.6112    2.5833 C   0  0  0  0  0  0  0  0  0  0  0  0
    3.3759   -1.0743   -0.8447 C   0  0  0  0  0  0  0  0  0  0  0  0
    3.3691   -0.4897   -2.2642 C   0  0  0  0  0  0  0  0  0  0  0  0
    3.0771   -2.5833   -0.8626 C   0  0  0  0  0  0  0  0  0  0  0  0
   -2.9472   -0.2140    1.9501 C   0  0  0  0  0  0  0  0  0  0  0  0
   -2.3108    0.8338    2.8679 C   0  0  0  0  0  0  0  0  0  0  0  0
   -2.9092   -1.6106    2.5840 C   0  0  0  0  0  0  0  0  0  0  0  0
   -3.3759   -1.0748   -0.8442 C   0  0  0  0  0  0  0  0  0  0  0  0
   -3.3695   -0.4906   -2.2639 C   0  0  0  0  0  0  0  0  0  0  0  0
   -3.0768   -2.5838   -0.8618 C   0  0  0  0  0  0  0  0  0  0  0  0
    3.6252    2.1747   -0.2023 C   0  0  0  0  0  0  0  0  0  0  0  0
   -3.6254    2.1744   -0.2027 C   0  0  0  0  0  0  0  0  0  0  0  0
    2.1666    4.1495   -0.7847 H   0  0  0  0  0  0  0  0  0  0  0  0
   -0.0002    5.3720   -1.0617 H   0  0  0  0  0  0  0  0  0  0  0  0
   -2.1669    4.1494   -0.7850 H   0  0  0  0  0  0  0  0  0  0  0  0
    4.0101    0.0644    1.7677 H   0  0  0  0  0  0  0  0  0  0  0  0
    2.3463    1.8526    2.4363 H   0  0  0  0  0  0  0  0  0  0  0  0
    1.2459    0.5872    3.0529 H   0  0  0  0  0  0  0  0  0  0  0  0
    2.8382    0.8531    3.8443 H   0  0  0  0  0  0  0  0  0  0  0  0
    3.5007   -2.3523    2.0124 H   0  0  0  0  0  0  0  0  0  0  0  0
    3.3322   -1.5695    3.6087 H   0  0  0  0  0  0  0  0  0  0  0  0
    1.8714   -1.9913    2.6598 H   0  0  0  0  0  0  0  0  0  0  0  0
    4.3746   -0.9105   -0.3777 H   0  0  0  0  0  0  0  0  0  0  0  0
    3.7860    0.5344   -2.3062 H   0  0  0  0  0  0  0  0  0  0  0  0
    3.9813   -1.1300   -2.9325 H   0  0  0  0  0  0  0  0  0  0  0  0
    2.3393   -0.4507   -2.6671 H   0  0  0  0  0  0  0  0  0  0  0  0
    3.0480   -3.0287    0.1499 H   0  0  0  0  0  0  0  0  0  0  0  0
    2.1005   -2.7973   -1.3416 H   0  0  0  0  0  0  0  0  0  0  0  0
    3.8699   -3.1070   -1.4359 H   0  0  0  0  0  0  0  0  0  0  0  0
   -4.0100    0.0646    1.7679 H   0  0  0  0  0  0  0  0  0  0  0  0
   -2.3460    1.8532    2.4357 H   0  0  0  0  0  0  0  0  0  0  0  0
   -2.8379    0.8542    3.8441 H   0  0  0  0  0  0  0  0  0  0  0  0
   -1.2456    0.5880    3.0528 H   0  0  0  0  0  0  0  0  0  0  0  0
   -3.5003   -2.3519    2.0134 H   0  0  0  0  0  0  0  0  0  0  0  0
   -1.8709   -1.9905    2.6604 H   0  0  0  0  0  0  0  0  0  0  0  0
   -3.3316   -1.5687    3.6093 H   0  0  0  0  0  0  0  0  0  0  0  0
   -4.3746   -0.9112   -0.3770 H   0  0  0  0  0  0  0  0  0  0  0  0
   -3.7868    0.5334   -2.3061 H   0  0  0  0  0  0  0  0  0  0  0  0
   -2.3398   -0.4514   -2.6669 H   0  0  0  0  0  0  0  0  0  0  0  0
   -3.9817   -1.1312   -2.9319 H   0  0  0  0  0  0  0  0  0  0  0  0
   -3.0473   -3.0289    0.1508 H   0  0  0  0  0  0  0  0  0  0  0  0
   -3.8697   -3.1078   -1.4348 H   0  0  0  0  0  0  0  0  0  0  0  0
   -2.1003   -2.7977   -1.3411 H   0  0  0  0  0  0  0  0  0  0  0  0
    4.4264    1.4321   -0.0356 H   0  0  0  0  0  0  0  0  0  0  0  0
    3.8224    2.6647   -1.1800 H   0  0  0  0  0  0  0  0  0  0  0  0
    3.7026    2.9473    0.5953 H   0  0  0  0  0  0  0  0  0  0  0  0
   -4.4265    1.4316   -0.0365 H   0  0  0  0  0  0  0  0  0  0  0  0
   -3.7030    2.9467    0.5951 H   0  0  0  0  0  0  0  0  0  0  0  0
   -3.8224    2.6647   -1.1803 H   0  0  0  0  0  0  0  0  0  0  0  0
  1 11  1  0  0  0  0
  2 17  1  0  0  0  0
  4  1  1  0  0  0  0
  5  2  1  0  0  0  0
  6  3  1  0  0  0  0
  6  4  1  1  0  0  0
  7  6  1  0  0  0  0
  8  9  1  0  0  0  0
  8  7  2  0  0  0  0
  9 10  2  0  0  0  0
 10  3  1  0  0  0  0
 10  5  1  0  0  0  0
 11 13  1  0  0  0  0
 11 12  1  0  0  0  0
 12 30  1  0  0  0  0
 12 31  1  0  0  0  0
 13 34  1  0  0  0  0
 13 33  1  0  0  0  0
 14 35  1  0  0  0  0
 14  1  1  0  0  0  0
 15 14  1  0  0  0  0
 16 14  1  0  0  0  0
 16 39  1  0  0  0  0
 17 19  1  0  0  0  0
 17 18  1  0  0  0  0
 18 45  1  0  0  0  0
 18 44  1  0  0  0  0
 19 47  1  0  0  0  0
 19 48  1  0  0  0  0
 20 49  1  0  0  0  0
 20  2  1  0  0  0  0
 21 20  1  0  0  0  0
 22 20  1  0  0  0  0
 22 53  1  0  0  0  0
 23  4  1  0  0  0  0
 23 56  1  0  0  0  0
 23 58  1  0  0  0  0
 24  5  1  0  0  0  0
 24 59  1  0  0  0  0
 24 60  1  0  0  0  0
 25  7  1  0  0  0  0
 26  8  1  0  0  0  0
 27  9  1  0  0  0  0
 28 11  1  0  0  0  0
 29 12  1  0  0  0  0
 32 13  1  0  0  0  0
 36 15  1  0  0  0  0
 37 15  1  0  0  0  0
 38 15  1  0  0  0  0
 40 16  1  0  0  0  0
 41 16  1  0  0  0  0
 42 17  1  0  0  0  0
 43 18  1  0  0  0  0
 46 19  1  0  0  0  0
 50 21  1  0  0  0  0
 51 21  1  0  0  0  0
 52 21  1  0  0  0  0
 54 22  1  0  0  0  0
 55 22  1  0  0  0  0
 57 23  1  0  0  0  0
 61 24  1  0  0  0  0
M  END
