1,2,3
 OpenBabel05122313063D

 43 43  0  0  1  0  0  0  0  0999 V2000
   -2.2036   -0.1786   -0.0508 P   0  0  0  0  0  0  0  0  0  0  0  0
    2.2035   -0.1786    0.0509 P   0  0  0  0  0  0  0  0  0  0  0  0
   -0.0000    1.6403    0.0000 N   0  0  0  0  0  2  0  0  0  0  0  0
   -2.3291    1.5527    0.0353 N   0  0  0  0  0  0  0  0  0  0  0  0
    2.3290    1.5527   -0.0353 N   0  0  0  0  0  0  0  0  0  0  0  0
   -1.1838    2.3237    0.0198 C   0  0  2  0  0  3  0  0  0  0  0  0
   -1.2150    3.7308    0.0216 C   0  0  0  0  0  0  0  0  0  0  0  0
   -0.0001    4.4230   -0.0000 C   0  0  0  0  0  0  0  0  0  0  0  0
    1.2148    3.7308   -0.0216 C   0  0  0  0  0  0  0  0  0  0  0  0
    1.1837    2.3238   -0.0198 C   0  0  0  0  0  0  0  0  0  0  0  0
   -3.1475   -0.6400   -1.5633 C   0  0  0  0  0  0  0  0  0  0  0  0
   -3.2273   -2.1539   -1.7855 C   0  0  0  0  0  0  0  0  0  0  0  0
   -3.1749   -0.8470    1.3602 C   0  0  0  0  0  0  0  0  0  0  0  0
   -4.6812   -0.5886    1.3305 C   0  0  0  0  0  0  0  0  0  0  0  0
    3.1749   -0.8469   -1.3601 C   0  0  0  0  0  0  0  0  0  0  0  0
    4.6812   -0.5885   -1.3305 C   0  0  0  0  0  0  0  0  0  0  0  0
    3.1475   -0.6398    1.5634 C   0  0  0  0  0  0  0  0  0  0  0  0
    3.2273   -2.1538    1.7856 C   0  0  0  0  0  0  0  0  0  0  0  0
   -2.1770    4.2598    0.0383 H   0  0  0  0  0  0  0  0  0  0  0  0
   -0.0001    5.5228   -0.0001 H   0  0  0  0  0  0  0  0  0  0  0  0
    2.1768    4.2599   -0.0384 H   0  0  0  0  0  0  0  0  0  0  0  0
   -4.1581   -0.1854   -1.4783 H   0  0  0  0  0  0  0  0  0  0  0  0
   -2.6391   -0.1304   -2.4074 H   0  0  0  0  0  0  0  0  0  0  0  0
   -3.7221   -2.3667   -2.7529 H   0  0  0  0  0  0  0  0  0  0  0  0
   -2.2225   -2.6199   -1.7968 H   0  0  0  0  0  0  0  0  0  0  0  0
   -3.8174   -2.6557   -0.9931 H   0  0  0  0  0  0  0  0  0  0  0  0
   -2.9353   -1.9330    1.3694 H   0  0  0  0  0  0  0  0  0  0  0  0
   -2.7083   -0.4226    2.2725 H   0  0  0  0  0  0  0  0  0  0  0  0
   -5.1490   -0.9869    2.2523 H   0  0  0  0  0  0  0  0  0  0  0  0
   -4.9178    0.4945    1.2911 H   0  0  0  0  0  0  0  0  0  0  0  0
   -5.1773   -1.0832    0.4729 H   0  0  0  0  0  0  0  0  0  0  0  0
    2.9353   -1.9329   -1.3694 H   0  0  0  0  0  0  0  0  0  0  0  0
    2.7083   -0.4225   -2.2725 H   0  0  0  0  0  0  0  0  0  0  0  0
    5.1490   -0.9868   -2.2522 H   0  0  0  0  0  0  0  0  0  0  0  0
    4.9178    0.4946   -1.2911 H   0  0  0  0  0  0  0  0  0  0  0  0
    5.1773   -1.0832   -0.4728 H   0  0  0  0  0  0  0  0  0  0  0  0
    4.1581   -0.1852    1.4783 H   0  0  0  0  0  0  0  0  0  0  0  0
    2.6391   -0.1303    2.4074 H   0  0  0  0  0  0  0  0  0  0  0  0
    3.7222   -2.3665    2.7530 H   0  0  0  0  0  0  0  0  0  0  0  0
    2.2226   -2.6198    1.7969 H   0  0  0  0  0  0  0  0  0  0  0  0
    3.8175   -2.6556    0.9932 H   0  0  0  0  0  0  0  0  0  0  0  0
   -3.2239    2.0480    0.0139 H   0  0  0  0  0  0  0  0  0  0  0  0
    3.2238    2.0482   -0.0140 H   0  0  0  0  0  0  0  0  0  0  0  0
  1  4  1  0  0  0  0
  1 13  1  0  0  0  0
  2 17  1  0  0  0  0
  3  6  1  0  0  0  0
  5 10  1  0  0  0  0
  5 43  1  0  0  0  0
  5  2  1  0  0  0  0
  6  7  1  0  0  0  0
  6  4  1  6  0  0  0
  7 19  1  0  0  0  0
  8  7  2  0  0  0  0
  9 10  2  0  0  0  0
  9  8  1  0  0  0  0
 10  3  1  0  0  0  0
 11 22  1  0  0  0  0
 11  1  1  0  0  0  0
 12 11  1  0  0  0  0
 12 26  1  0  0  0  0
 13 27  1  0  0  0  0
 13 28  1  0  0  0  0
 14 13  1  0  0  0  0
 14 29  1  0  0  0  0
 15 16  1  0  0  0  0
 15  2  1  0  0  0  0
 16 35  1  0  0  0  0
 16 36  1  0  0  0  0
 17 18  1  0  0  0  0
 17 38  1  0  0  0  0
 18 40  1  0  0  0  0
 18 39  1  0  0  0  0
 20  8  1  0  0  0  0
 21  9  1  0  0  0  0
 23 11  1  0  0  0  0
 24 12  1  0  0  0  0
 25 12  1  0  0  0  0
 30 14  1  0  0  0  0
 31 14  1  0  0  0  0
 32 15  1  0  0  0  0
 33 15  1  0  0  0  0
 34 16  1  0  0  0  0
 37 17  1  0  0  0  0
 41 18  1  0  0  0  0
 42  4  1  0  0  0  0
M  END
