1,2,3
 OpenBabel05122313063D

 57 56  0  0  0  0  0  0  0  0999 V2000
    0.9947   -2.2629   -0.4277 P   0  0  0  0  0  0  0  0  0  0  0  0
   -2.3341    0.8567   -0.3936 P   0  0  0  0  0  0  0  0  0  0  0  0
   -0.4467   -0.4801   -2.4026 N   0  0  0  0  0  0  0  0  0  0  0  0
    0.3737    0.6383   -2.9421 C   0  0  0  0  0  0  0  0  0  0  0  0
    0.0823   -1.7189   -2.9538 C   0  0  0  0  0  0  0  0  0  0  0  0
    0.7315   -2.6256   -2.2099 C   0  0  0  0  0  0  0  0  0  0  0  0
   -1.8623   -0.3562   -2.8691 C   0  0  0  0  0  0  0  0  0  0  0  0
   -2.5723    0.8431   -2.2611 C   0  0  0  0  0  0  0  0  0  0  0  0
    0.6060   -3.9426    0.3650 C   0  0  0  0  0  0  0  0  0  0  0  0
    1.6072   -5.0608    0.0537 C   0  0  0  0  0  0  0  0  0  0  0  0
   -0.8220   -4.3762    0.0148 C   0  0  0  0  0  0  0  0  0  0  0  0
    2.8939   -2.2347   -0.4427 C   0  0  0  0  0  0  0  0  0  0  0  0
    3.4168   -1.1031   -1.3328 C   0  0  0  0  0  0  0  0  0  0  0  0
    3.4950   -2.1516    0.9629 C   0  0  0  0  0  0  0  0  0  0  0  0
   -4.0724    0.2918    0.1236 C   0  0  0  0  0  0  0  0  0  0  0  0
   -4.3458   -1.1590   -0.2819 C   0  0  0  0  0  0  0  0  0  0  0  0
   -4.4030    0.5246    1.6005 C   0  0  0  0  0  0  0  0  0  0  0  0
   -2.3945    2.7135   -0.0136 C   0  0  0  0  0  0  0  0  0  0  0  0
   -1.2296    3.4295   -0.7063 C   0  0  0  0  0  0  0  0  0  0  0  0
   -3.7261    3.4075   -0.3220 C   0  0  0  0  0  0  0  0  0  0  0  0
    0.0220    1.5958   -2.5235 H   0  0  0  0  0  0  0  0  0  0  0  0
    0.3172    0.6650   -4.0546 H   0  0  0  0  0  0  0  0  0  0  0  0
    1.4180    0.5074   -2.6170 H   0  0  0  0  0  0  0  0  0  0  0  0
   -0.0636   -1.8393   -4.0460 H   0  0  0  0  0  0  0  0  0  0  0  0
    1.1471   -3.5243   -2.6970 H   0  0  0  0  0  0  0  0  0  0  0  0
   -1.8743   -0.2937   -3.9844 H   0  0  0  0  0  0  0  0  0  0  0  0
   -2.3680   -1.2958   -2.5752 H   0  0  0  0  0  0  0  0  0  0  0  0
   -3.6490    0.8139   -2.5256 H   0  0  0  0  0  0  0  0  0  0  0  0
   -2.1719    1.7912   -2.6706 H   0  0  0  0  0  0  0  0  0  0  0  0
    0.6497   -3.7233    1.4551 H   0  0  0  0  0  0  0  0  0  0  0  0
    2.6266   -4.8449    0.4255 H   0  0  0  0  0  0  0  0  0  0  0  0
    1.6738   -5.2596   -1.0364 H   0  0  0  0  0  0  0  0  0  0  0  0
    1.2742   -6.0057    0.5324 H   0  0  0  0  0  0  0  0  0  0  0  0
   -1.5495   -3.5621    0.1969 H   0  0  0  0  0  0  0  0  0  0  0  0
   -1.1153   -5.2626    0.6149 H   0  0  0  0  0  0  0  0  0  0  0  0
   -0.8989   -4.6543   -1.0570 H   0  0  0  0  0  0  0  0  0  0  0  0
    3.1758   -3.2057   -0.9061 H   0  0  0  0  0  0  0  0  0  0  0  0
    3.0524   -1.1919   -2.3756 H   0  0  0  0  0  0  0  0  0  0  0  0
    4.5260   -1.1329   -1.3614 H   0  0  0  0  0  0  0  0  0  0  0  0
    3.1156   -0.1172   -0.9361 H   0  0  0  0  0  0  0  0  0  0  0  0
    3.1128   -2.9386    1.6442 H   0  0  0  0  0  0  0  0  0  0  0  0
    3.2975   -1.1584    1.4100 H   0  0  0  0  0  0  0  0  0  0  0  0
    4.5966   -2.2768    0.9019 H   0  0  0  0  0  0  0  0  0  0  0  0
   -4.7364    0.9478   -0.4804 H   0  0  0  0  0  0  0  0  0  0  0  0
   -4.2426   -1.3197   -1.3732 H   0  0  0  0  0  0  0  0  0  0  0  0
   -5.3811   -1.4459   -0.0017 H   0  0  0  0  0  0  0  0  0  0  0  0
   -3.6419   -1.8527    0.2192 H   0  0  0  0  0  0  0  0  0  0  0  0
   -4.2148    1.5669    1.9247 H   0  0  0  0  0  0  0  0  0  0  0  0
   -3.8208   -0.1444    2.2613 H   0  0  0  0  0  0  0  0  0  0  0  0
   -5.4769    0.3105    1.7834 H   0  0  0  0  0  0  0  0  0  0  0  0
   -2.1984    2.7484    1.0798 H   0  0  0  0  0  0  0  0  0  0  0  0
   -0.2762    2.8949   -0.5618 H   0  0  0  0  0  0  0  0  0  0  0  0
   -1.1052    4.4480   -0.2868 H   0  0  0  0  0  0  0  0  0  0  0  0
   -1.4161    3.5476   -1.7952 H   0  0  0  0  0  0  0  0  0  0  0  0
   -4.5749    3.0229    0.2755 H   0  0  0  0  0  0  0  0  0  0  0  0
   -3.9938    3.3138   -1.3958 H   0  0  0  0  0  0  0  0  0  0  0  0
   -3.6399    4.4935   -0.1066 H   0  0  0  0  0  0  0  0  0  0  0  0
  1  9  1  0  0  0  0
  2 18  1  0  0  0  0
  2 15  1  0  0  0  0
  4 23  1  0  0  0  0
  4 21  1  0  0  0  0
  4  3  1  0  0  0  0
  5  3  1  0  0  0  0
  5  6  2  0  0  0  0
  6  1  1  0  0  0  0
  7 27  1  0  0  0  0
  7  3  1  0  0  0  0
  7  8  1  0  0  0  0
  8  2  1  0  0  0  0
  9 30  1  0  0  0  0
 10  9  1  0  0  0  0
 10 31  1  0  0  0  0
 10 33  1  0  0  0  0
 11 34  1  0  0  0  0
 11  9  1  0  0  0  0
 11 35  1  0  0  0  0
 12  1  1  0  0  0  0
 12 14  1  0  0  0  0
 13 40  1  0  0  0  0
 13 12  1  0  0  0  0
 14 42  1  0  0  0  0
 14 41  1  0  0  0  0
 15 17  1  0  0  0  0
 16 46  1  0  0  0  0
 16 15  1  0  0  0  0
 16 47  1  0  0  0  0
 17 50  1  0  0  0  0
 17 48  1  0  0  0  0
 17 49  1  0  0  0  0
 18 51  1  0  0  0  0
 19 52  1  0  0  0  0
 19 53  1  0  0  0  0
 19 18  1  0  0  0  0
 20 57  1  0  0  0  0
 20 18  1  0  0  0  0
 20 55  1  0  0  0  0
 22  4  1  0  0  0  0
 24  5  1  0  0  0  0
 25  6  1  0  0  0  0
 26  7  1  0  0  0  0
 28  8  1  0  0  0  0
 29  8  1  0  0  0  0
 32 10  1  0  0  0  0
 36 11  1  0  0  0  0
 37 12  1  0  0  0  0
 38 13  1  0  0  0  0
 39 13  1  0  0  0  0
 43 14  1  0  0  0  0
 44 15  1  0  0  0  0
 45 16  1  0  0  0  0
 54 19  1  0  0  0  0
 56 20  1  0  0  0  0
M  END
