1,2,3
 OpenBabel05122313063D

 67 68  0  0  1  0  0  0  0  0999 V2000
    2.9020   -0.1822    0.0877 P   0  0  0  0  0  0  0  0  0  0  0  0
   -1.5339   -0.1151   -0.1509 P   0  0  0  0  0  0  0  0  0  0  0  0
    0.7456    1.4995   -1.0808 N   0  0  0  0  0  0  0  0  0  0  0  0
    0.8320    1.0252   -2.0004 H   0  0  0  0  0  0  0  0  0  0  0  0
    3.1879    1.3582   -0.9282 C   0  0  0  0  0  0  0  0  0  0  0  0
    4.1209    1.8902   -0.6585 H   0  0  0  0  0  0  0  0  0  0  0  0
    3.2931    1.0123   -1.9788 H   0  0  0  0  0  0  0  0  0  0  0  0
    1.9723    2.2716   -0.8020 C   0  0  0  0  0  0  0  0  0  0  0  0
    1.8769    2.6671    0.2298 H   0  0  0  0  0  0  0  0  0  0  0  0
    2.0778    3.1324   -1.4984 H   0  0  0  0  0  0  0  0  0  0  0  0
   -0.5257    2.2748   -1.0456 C   0  0  2  0  0  0  0  0  0  0  0  0
   -0.6232    2.6168    0.0087 H   0  0  0  0  0  0  0  0  0  0  0  0
   -1.6576    1.2848   -1.3548 C   0  0  0  0  0  0  0  0  0  0  0  0
   -1.5058    0.8146   -2.3488 H   0  0  0  0  0  0  0  0  0  0  0  0
   -2.6556    1.7626   -1.3538 H   0  0  0  0  0  0  0  0  0  0  0  0
   -0.5364    3.5291   -1.9583 C   0  0  0  0  0  0  0  0  0  0  0  0
    0.3139    4.1625   -1.6241 H   0  0  0  0  0  0  0  0  0  0  0  0
   -1.8066    4.3607   -1.7365 C   0  0  0  0  0  0  0  0  0  0  0  0
   -1.7345    5.3355   -2.2592 H   0  0  0  0  0  0  0  0  0  0  0  0
   -1.9719    4.5684   -0.6590 H   0  0  0  0  0  0  0  0  0  0  0  0
   -2.7095    3.8471   -2.1268 H   0  0  0  0  0  0  0  0  0  0  0  0
   -0.3254    3.2011   -3.4408 C   0  0  0  0  0  0  0  0  0  0  0  0
   -0.2597    4.1292   -4.0432 H   0  0  0  0  0  0  0  0  0  0  0  0
   -1.1640    2.6009   -3.8497 H   0  0  0  0  0  0  0  0  0  0  0  0
    0.6092    2.6289   -3.6157 H   0  0  0  0  0  0  0  0  0  0  0  0
    3.8788    0.0044    1.6880 C   0  0  0  0  0  0  0  0  0  0  0  0
    4.8959   -0.3593    1.4206 H   0  0  0  0  0  0  0  0  0  0  0  0
    3.2946   -0.9114    2.7738 C   0  0  0  0  0  0  0  0  0  0  0  0
    3.1804   -1.9586    2.4343 H   0  0  0  0  0  0  0  0  0  0  0  0
    2.2962   -0.5437    3.0821 H   0  0  0  0  0  0  0  0  0  0  0  0
    3.9610   -0.9124    3.6616 H   0  0  0  0  0  0  0  0  0  0  0  0
    3.9999    1.4499    2.1850 C   0  0  0  0  0  0  0  0  0  0  0  0
    4.4974    2.1154    1.4519 H   0  0  0  0  0  0  0  0  0  0  0  0
    4.6117    1.4696    3.1113 H   0  0  0  0  0  0  0  0  0  0  0  0
    2.9993    1.8602    2.4232 H   0  0  0  0  0  0  0  0  0  0  0  0
    3.8565   -1.4750   -0.8808 C   0  0  0  0  0  0  0  0  0  0  0  0
    3.2835   -1.4816   -1.8336 H   0  0  0  0  0  0  0  0  0  0  0  0
    5.3140   -1.0947   -1.1577 C   0  0  0  0  0  0  0  0  0  0  0  0
    5.4149   -0.1051   -1.6462 H   0  0  0  0  0  0  0  0  0  0  0  0
    5.7747   -1.8443   -1.8349 H   0  0  0  0  0  0  0  0  0  0  0  0
    5.9257   -1.0806   -0.2312 H   0  0  0  0  0  0  0  0  0  0  0  0
    3.7300   -2.8690   -0.2587 C   0  0  0  0  0  0  0  0  0  0  0  0
    2.6717   -3.1538   -0.1065 H   0  0  0  0  0  0  0  0  0  0  0  0
    4.2559   -2.9401    0.7157 H   0  0  0  0  0  0  0  0  0  0  0  0
    4.1872   -3.6229   -0.9330 H   0  0  0  0  0  0  0  0  0  0  0  0
   -2.6180   -1.4330   -0.8432 C   0  0  0  0  0  0  0  0  0  0  0  0
   -2.1026   -2.7014   -1.1712 C   0  0  0  0  0  0  0  0  0  0  0  0
   -1.0279   -2.8982   -1.0574 H   0  0  0  0  0  0  0  0  0  0  0  0
   -2.9587   -3.6970   -1.6682 C   0  0  0  0  0  0  0  0  0  0  0  0
   -2.5493   -4.6870   -1.9204 H   0  0  0  0  0  0  0  0  0  0  0  0
   -4.3251   -3.4340   -1.8468 C   0  0  0  0  0  0  0  0  0  0  0  0
   -4.9917   -4.2176   -2.2387 H   0  0  0  0  0  0  0  0  0  0  0  0
   -4.8435   -2.1701   -1.5186 C   0  0  0  0  0  0  0  0  0  0  0  0
   -5.9164   -1.9606   -1.6486 H   0  0  0  0  0  0  0  0  0  0  0  0
   -3.9957   -1.1760   -1.0115 C   0  0  0  0  0  0  0  0  0  0  0  0
   -4.4117   -0.1968   -0.7259 H   0  0  0  0  0  0  0  0  0  0  0  0
   -2.5073    0.3933    1.3235 C   0  0  0  0  0  0  0  0  0  0  0  0
   -2.5933   -0.5363    2.3812 C   0  0  0  0  0  0  0  0  0  0  0  0
   -2.0865   -1.5103    2.2960 H   0  0  0  0  0  0  0  0  0  0  0  0
   -3.3121   -0.2231    3.5408 C   0  0  0  0  0  0  0  0  0  0  0  0
   -3.3718   -0.9560    4.3597 H   0  0  0  0  0  0  0  0  0  0  0  0
   -3.9465    1.0249    3.6631 C   0  0  0  0  0  0  0  0  0  0  0  0
   -4.5078    1.2722    4.5770 H   0  0  0  0  0  0  0  0  0  0  0  0
   -3.8568    1.9563    2.6189 C   0  0  0  0  0  0  0  0  0  0  0  0
   -4.3462    2.9381    2.7102 H   0  0  0  0  0  0  0  0  0  0  0  0
   -3.1390    1.6434    1.4529 C   0  0  0  0  0  0  0  0  0  0  0  0
   -3.0734    2.3908    0.6486 H   0  0  0  0  0  0  0  0  0  0  0  0
  1 26  1  0  0  0  0
  2 57  1  0  0  0  0
  3 11  1  0  0  0  0
  3  8  1  0  0  0  0
  4  3  1  0  0  0  0
  5  8  1  0  0  0  0
  5  6  1  0  0  0  0
  5  1  1  0  0  0  0
  7  5  1  0  0  0  0
  8  9  1  0  0  0  0
 10  8  1  0  0  0  0
 11 12  1  1  0  0  0
 13 15  1  0  0  0  0
 13 11  1  0  0  0  0
 13  2  1  0  0  0  0
 14 13  1  0  0  0  0
 16 18  1  0  0  0  0
 16 17  1  0  0  0  0
 16 11  1  0  0  0  0
 18 20  1  0  0  0  0
 19 18  1  0  0  0  0
 21 18  1  0  0  0  0
 22 16  1  0  0  0  0
 23 22  1  0  0  0  0
 24 22  1  0  0  0  0
 25 22  1  0  0  0  0
 26 32  1  0  0  0  0
 26 28  1  0  0  0  0
 27 26  1  0  0  0  0
 28 30  1  0  0  0  0
 28 31  1  0  0  0  0
 29 28  1  0  0  0  0
 32 35  1  0  0  0  0
 32 34  1  0  0  0  0
 33 32  1  0  0  0  0
 36 42  1  0  0  0  0
 36  1  1  0  0  0  0
 37 36  1  0  0  0  0
 38 36  1  0  0  0  0
 38 41  1  0  0  0  0
 39 38  1  0  0  0  0
 40 38  1  0  0  0  0
 42 43  1  0  0  0  0
 42 44  1  0  0  0  0
 45 42  1  0  0  0  0
 46  2  1  0  0  0  0
 47 48  1  0  0  0  0
 47 46  2  0  0  0  0
 49 47  1  0  0  0  0
 50 49  1  0  0  0  0
 51 49  2  0  0  0  0
 51 53  1  0  0  0  0
 52 51  1  0  0  0  0
 53 55  2  0  0  0  0
 54 53  1  0  0  0  0
 55 46  1  0  0  0  0
 55 56  1  0  0  0  0
 57 66  2  0  0  0  0
 57 58  1  0  0  0  0
 58 60  2  0  0  0  0
 59 58  1  0  0  0  0
 60 62  1  0  0  0  0
 60 61  1  0  0  0  0
 62 63  1  0  0  0  0
 64 65  1  0  0  0  0
 64 62  2  0  0  0  0
 66 64  1  0  0  0  0
 67 66  1  0  0  0  0
M  END
