1,2,3
 OpenBabel05122313063D

 68 70  0  0  1  0  0  0  0  0999 V2000
    2.8690   -0.5058    0.0141 P   0  0  0  0  0  0  0  0  0  0  0  0
   -1.5930   -0.3653   -0.0754 P   0  0  0  0  0  0  0  0  0  0  0  0
    0.6833    1.4936   -0.1444 N   0  0  0  0  0  0  0  0  0  0  0  0
    0.7067    1.5332   -1.1826 H   0  0  0  0  0  0  0  0  0  0  0  0
    3.1246    1.3289   -0.2093 C   0  0  0  0  0  0  0  0  0  0  0  0
    4.0817    1.6827    0.2235 H   0  0  0  0  0  0  0  0  0  0  0  0
    3.1625    1.5093   -1.3045 H   0  0  0  0  0  0  0  0  0  0  0  0
    1.9338    2.0613    0.3997 C   0  0  0  0  0  0  0  0  0  0  0  0
    1.8968    1.9180    1.4994 H   0  0  0  0  0  0  0  0  0  0  0  0
    1.9927    3.1530    0.1944 H   0  0  0  0  0  0  0  0  0  0  0  0
   -0.5488    2.1604    0.3554 C   0  0  2  0  0  0  0  0  0  0  0  0
   -0.5642    1.9662    1.4488 H   0  0  0  0  0  0  0  0  0  0  0  0
   -1.7640    1.4778   -0.2855 C   0  0  0  0  0  0  0  0  0  0  0  0
   -1.7913    1.6858   -1.3743 H   0  0  0  0  0  0  0  0  0  0  0  0
   -2.7051    1.8688    0.1454 H   0  0  0  0  0  0  0  0  0  0  0  0
   -0.5593    3.6606    0.1089 C   0  0  0  0  0  0  0  0  0  0  0  0
   -0.7432    4.5569    1.1774 C   0  0  0  0  0  0  0  0  0  0  0  0
   -0.8664    4.1581    2.1969 H   0  0  0  0  0  0  0  0  0  0  0  0
   -0.7665    5.9430    0.9550 C   0  0  0  0  0  0  0  0  0  0  0  0
   -0.9117    6.6308    1.8019 H   0  0  0  0  0  0  0  0  0  0  0  0
   -0.5989    6.4496   -0.3425 C   0  0  0  0  0  0  0  0  0  0  0  0
   -0.6131    7.5358   -0.5188 H   0  0  0  0  0  0  0  0  0  0  0  0
   -0.4104    5.5635   -1.4166 C   0  0  0  0  0  0  0  0  0  0  0  0
   -0.2771    5.9540   -2.4370 H   0  0  0  0  0  0  0  0  0  0  0  0
   -0.3940    4.1800   -1.1919 C   0  0  0  0  0  0  0  0  0  0  0  0
   -0.2476    3.4948   -2.0437 H   0  0  0  0  0  0  0  0  0  0  0  0
    3.7385   -0.9044    1.6266 C   0  0  0  0  0  0  0  0  0  0  0  0
    3.2500   -0.1712    2.3056 H   0  0  0  0  0  0  0  0  0  0  0  0
    3.3690   -2.2989    2.1501 C   0  0  0  0  0  0  0  0  0  0  0  0
    2.2729   -2.4027    2.2507 H   0  0  0  0  0  0  0  0  0  0  0  0
    3.8151   -2.4447    3.1561 H   0  0  0  0  0  0  0  0  0  0  0  0
    3.7482   -3.1085    1.4969 H   0  0  0  0  0  0  0  0  0  0  0  0
    5.2525   -0.6718    1.6251 C   0  0  0  0  0  0  0  0  0  0  0  0
    5.5424    0.3168    1.2157 H   0  0  0  0  0  0  0  0  0  0  0  0
    5.7854   -1.4503    1.0432 H   0  0  0  0  0  0  0  0  0  0  0  0
    5.6373   -0.7234    2.6653 H   0  0  0  0  0  0  0  0  0  0  0  0
    3.7878   -1.2759   -1.4264 C   0  0  0  0  0  0  0  0  0  0  0  0
    3.0628   -1.0462   -2.2391 H   0  0  0  0  0  0  0  0  0  0  0  0
    5.1383   -0.6459   -1.7882 C   0  0  0  0  0  0  0  0  0  0  0  0
    5.0842    0.4551   -1.8977 H   0  0  0  0  0  0  0  0  0  0  0  0
    5.4791   -1.0516   -2.7642 H   0  0  0  0  0  0  0  0  0  0  0  0
    5.9268   -0.8758   -1.0460 H   0  0  0  0  0  0  0  0  0  0  0  0
    3.8813   -2.8016   -1.3030 C   0  0  0  0  0  0  0  0  0  0  0  0
    2.9098   -3.2637   -1.0427 H   0  0  0  0  0  0  0  0  0  0  0  0
    4.6267   -3.1093   -0.5414 H   0  0  0  0  0  0  0  0  0  0  0  0
    4.2067   -3.2333   -2.2722 H   0  0  0  0  0  0  0  0  0  0  0  0
   -2.5994   -1.0893   -1.4393 C   0  0  0  0  0  0  0  0  0  0  0  0
   -2.5545   -0.5625   -2.7477 C   0  0  0  0  0  0  0  0  0  0  0  0
   -1.9173    0.3032   -2.9729 H   0  0  0  0  0  0  0  0  0  0  0  0
   -3.2900   -1.1633   -3.7792 C   0  0  0  0  0  0  0  0  0  0  0  0
   -3.2481   -0.7375   -4.7933 H   0  0  0  0  0  0  0  0  0  0  0  0
   -4.0628   -2.3071   -3.5262 C   0  0  0  0  0  0  0  0  0  0  0  0
   -4.6359   -2.7785   -4.3391 H   0  0  0  0  0  0  0  0  0  0  0  0
   -4.0963   -2.8492   -2.2324 C   0  0  0  0  0  0  0  0  0  0  0  0
   -4.6944   -3.7493   -2.0239 H   0  0  0  0  0  0  0  0  0  0  0  0
   -3.3720   -2.2447   -1.1948 C   0  0  0  0  0  0  0  0  0  0  0  0
   -3.4142   -2.6731   -0.1826 H   0  0  0  0  0  0  0  0  0  0  0  0
   -2.6259   -0.7963    1.3891 C   0  0  0  0  0  0  0  0  0  0  0  0
   -2.2171   -1.8354    2.2490 C   0  0  0  0  0  0  0  0  0  0  0  0
   -1.2452   -2.3218    2.0929 H   0  0  0  0  0  0  0  0  0  0  0  0
   -3.0425   -2.2369    3.3103 C   0  0  0  0  0  0  0  0  0  0  0  0
   -2.7133   -3.0492    3.9758 H   0  0  0  0  0  0  0  0  0  0  0  0
   -4.2740   -1.6008    3.5301 C   0  0  0  0  0  0  0  0  0  0  0  0
   -4.9154   -1.9131    4.3684 H   0  0  0  0  0  0  0  0  0  0  0  0
   -4.6880   -0.5670    2.6751 C   0  0  0  0  0  0  0  0  0  0  0  0
   -5.6566   -0.0694    2.8357 H   0  0  0  0  0  0  0  0  0  0  0  0
   -3.8711   -0.1722    1.6056 C   0  0  0  0  0  0  0  0  0  0  0  0
   -4.2227    0.6184    0.9247 H   0  0  0  0  0  0  0  0  0  0  0  0
  1 27  1  0  0  0  0
  2 58  1  0  0  0  0
  3 11  1  0  0  0  0
  3  8  1  0  0  0  0
  4  3  1  0  0  0  0
  5  1  1  0  0  0  0
  5  6  1  0  0  0  0
  5  8  1  0  0  0  0
  7  5  1  0  0  0  0
  8  9  1  0  0  0  0
 10  8  1  0  0  0  0
 11 12  1  1  0  0  0
 13  2  1  0  0  0  0
 13 15  1  0  0  0  0
 13 11  1  0  0  0  0
 14 13  1  0  0  0  0
 16 11  1  0  0  0  0
 16 17  1  0  0  0  0
 17 18  1  0  0  0  0
 19 17  2  0  0  0  0
 19 20  1  0  0  0  0
 21 19  1  0  0  0  0
 22 21  1  0  0  0  0
 23 25  1  0  0  0  0
 23 21  2  0  0  0  0
 24 23  1  0  0  0  0
 25 16  2  0  0  0  0
 26 25  1  0  0  0  0
 27 29  1  0  0  0  0
 27 28  1  0  0  0  0
 29 30  1  0  0  0  0
 29 31  1  0  0  0  0
 32 29  1  0  0  0  0
 33 27  1  0  0  0  0
 33 36  1  0  0  0  0
 34 33  1  0  0  0  0
 35 33  1  0  0  0  0
 37 43  1  0  0  0  0
 37  1  1  0  0  0  0
 38 37  1  0  0  0  0
 39 37  1  0  0  0  0
 39 42  1  0  0  0  0
 40 39  1  0  0  0  0
 41 39  1  0  0  0  0
 43 44  1  0  0  0  0
 43 45  1  0  0  0  0
 46 43  1  0  0  0  0
 47 56  1  0  0  0  0
 47  2  1  0  0  0  0
 48 47  2  0  0  0  0
 49 48  1  0  0  0  0
 50 52  2  0  0  0  0
 50 48  1  0  0  0  0
 51 50  1  0  0  0  0
 52 54  1  0  0  0  0
 53 52  1  0  0  0  0
 54 55  1  0  0  0  0
 54 56  2  0  0  0  0
 56 57  1  0  0  0  0
 58 67  2  0  0  0  0
 58 59  1  0  0  0  0
 59 61  2  0  0  0  0
 60 59  1  0  0  0  0
 61 63  1  0  0  0  0
 61 62  1  0  0  0  0
 63 64  1  0  0  0  0
 65 66  1  0  0  0  0
 65 63  2  0  0  0  0
 67 65  1  0  0  0  0
 68 67  1  0  0  0  0
M  END
