1,2,7
 OpenBabel05122313063D

 60 59  0  0  0  0  0  0  0  0999 V2000
    2.0984    0.2395    0.0036 P   0  0  0  0  0  0  0  0  0  0  0  0
   -2.1093    0.2105    0.1111 P   0  0  0  0  0  0  0  0  0  0  0  0
    3.0108   -1.0415   -0.6724 N   0  0  0  0  0  0  0  0  0  0  0  0
    3.9877   -0.8619   -0.9216 H   0  0  0  0  0  0  0  0  0  0  0  0
   -3.0217   -1.2374    0.1066 N   0  0  0  0  0  0  0  0  0  0  0  0
   -4.0429   -1.1558    0.1225 H   0  0  0  0  0  0  0  0  0  0  0  0
   -0.0504   -2.0716   -0.7294 N   0  0  0  0  0  0  0  0  0  0  0  0
   -0.3140   -1.9771   -1.7258 H   0  0  0  0  0  0  0  0  0  0  0  0
    2.7671    0.4220    1.7345 C   0  0  0  0  0  0  0  0  0  0  0  0
    2.2220    1.3052    2.1347 H   0  0  0  0  0  0  0  0  0  0  0  0
    2.6300    1.7627   -0.9333 C   0  0  0  0  0  0  0  0  0  0  0  0
    3.7427    1.7195   -0.9474 H   0  0  0  0  0  0  0  0  0  0  0  0
   -2.6015    1.0112    1.7185 C   0  0  0  0  0  0  0  0  0  0  0  0
   -2.1564    2.0280    1.6476 H   0  0  0  0  0  0  0  0  0  0  0  0
   -2.7999    1.2912   -1.2489 C   0  0  0  0  0  0  0  0  0  0  0  0
   -3.8946    1.3524   -1.0562 H   0  0  0  0  0  0  0  0  0  0  0  0
    2.3746   -2.1017   -1.4418 C   0  0  0  0  0  0  0  0  0  0  0  0
    3.1462   -2.8671   -1.6610 H   0  0  0  0  0  0  0  0  0  0  0  0
    1.9931   -1.7606   -2.4387 H   0  0  0  0  0  0  0  0  0  0  0  0
    1.2420   -2.8112   -0.7041 C   0  0  0  0  0  0  0  0  0  0  0  0
    1.0860   -3.8138   -1.1631 H   0  0  0  0  0  0  0  0  0  0  0  0
    1.5254   -2.9705    0.3554 H   0  0  0  0  0  0  0  0  0  0  0  0
   -2.5358   -2.4737   -0.4878 C   0  0  0  0  0  0  0  0  0  0  0  0
   -2.5844   -2.4772   -1.6080 H   0  0  0  0  0  0  0  0  0  0  0  0
   -3.2062   -3.2938   -0.1586 H   0  0  0  0  0  0  0  0  0  0  0  0
   -1.1230   -2.8761   -0.0763 C   0  0  0  0  0  0  0  0  0  0  0  0
   -0.9987   -2.7982    1.0230 H   0  0  0  0  0  0  0  0  0  0  0  0
   -0.9842   -3.9453   -0.3536 H   0  0  0  0  0  0  0  0  0  0  0  0
    2.3754   -0.8141    2.5535 C   0  0  0  0  0  0  0  0  0  0  0  0
    2.7039   -0.7021    3.6064 H   0  0  0  0  0  0  0  0  0  0  0  0
    2.8597   -1.7238    2.1434 H   0  0  0  0  0  0  0  0  0  0  0  0
    1.2777   -0.9788    2.5556 H   0  0  0  0  0  0  0  0  0  0  0  0
    4.2760    0.6808    1.7672 C   0  0  0  0  0  0  0  0  0  0  0  0
    4.6242    0.7771    2.8157 H   0  0  0  0  0  0  0  0  0  0  0  0
    4.5645    1.6105    1.2383 H   0  0  0  0  0  0  0  0  0  0  0  0
    4.8341   -0.1666    1.3177 H   0  0  0  0  0  0  0  0  0  0  0  0
    2.1926    3.0575   -0.2430 C   0  0  0  0  0  0  0  0  0  0  0  0
    2.4935    3.9328   -0.8539 H   0  0  0  0  0  0  0  0  0  0  0  0
    2.6479    3.1809    0.7590 H   0  0  0  0  0  0  0  0  0  0  0  0
    1.0898    3.0961   -0.1248 H   0  0  0  0  0  0  0  0  0  0  0  0
    2.1127    1.6608   -2.3741 C   0  0  0  0  0  0  0  0  0  0  0  0
    2.4823    2.5110   -2.9823 H   0  0  0  0  0  0  0  0  0  0  0  0
    1.0028    1.6844   -2.3963 H   0  0  0  0  0  0  0  0  0  0  0  0
    2.4440    0.7250   -2.8673 H   0  0  0  0  0  0  0  0  0  0  0  0
   -1.9234    0.2593    2.8698 C   0  0  0  0  0  0  0  0  0  0  0  0
   -2.1588    0.7374    3.8419 H   0  0  0  0  0  0  0  0  0  0  0  0
   -0.8212    0.2533    2.7452 H   0  0  0  0  0  0  0  0  0  0  0  0
   -2.2723   -0.7928    2.9126 H   0  0  0  0  0  0  0  0  0  0  0  0
   -4.1171    1.1276    1.9028 C   0  0  0  0  0  0  0  0  0  0  0  0
   -4.3453    1.6493    2.8543 H   0  0  0  0  0  0  0  0  0  0  0  0
   -4.5921    0.1267    1.9663 H   0  0  0  0  0  0  0  0  0  0  0  0
   -4.6069    1.7000    1.0899 H   0  0  0  0  0  0  0  0  0  0  0  0
   -2.1990    2.6998   -1.2106 C   0  0  0  0  0  0  0  0  0  0  0  0
   -2.6071    3.3125   -2.0398 H   0  0  0  0  0  0  0  0  0  0  0  0
   -1.0968    2.6608   -1.3302 H   0  0  0  0  0  0  0  0  0  0  0  0
   -2.4207    3.2330   -0.2653 H   0  0  0  0  0  0  0  0  0  0  0  0
   -2.5739    0.6004   -2.6000 C   0  0  0  0  0  0  0  0  0  0  0  0
   -3.0172    1.1988   -3.4216 H   0  0  0  0  0  0  0  0  0  0  0  0
   -3.0373   -0.4057   -2.6346 H   0  0  0  0  0  0  0  0  0  0  0  0
   -1.4890    0.4912   -2.8146 H   0  0  0  0  0  0  0  0  0  0  0  0
  1  9  1  0  0  0  0
  2 13  1  0  0  0  0
  3  1  1  0  0  0  0
  4  3  1  0  0  0  0
  5  2  1  0  0  0  0
  5  6  1  0  0  0  0
  7 20  1  0  0  0  0
  7 26  1  0  0  0  0
  8  7  1  0  0  0  0
  9 33  1  0  0  0  0
  9 10  1  0  0  0  0
  9 29  1  0  0  0  0
 11 37  1  0  0  0  0
 11  1  1  0  0  0  0
 12 11  1  0  0  0  0
 13 49  1  0  0  0  0
 13 45  1  0  0  0  0
 14 13  1  0  0  0  0
 15 53  1  0  0  0  0
 15 16  1  0  0  0  0
 15  2  1  0  0  0  0
 17 20  1  0  0  0  0
 17  3  1  0  0  0  0
 18 17  1  0  0  0  0
 19 17  1  0  0  0  0
 20 22  1  0  0  0  0
 21 20  1  0  0  0  0
 23 25  1  0  0  0  0
 23 26  1  0  0  0  0
 23  5  1  0  0  0  0
 24 23  1  0  0  0  0
 26 27  1  0  0  0  0
 28 26  1  0  0  0  0
 29 32  1  0  0  0  0
 29 30  1  0  0  0  0
 31 29  1  0  0  0  0
 33 34  1  0  0  0  0
 35 33  1  0  0  0  0
 36 33  1  0  0  0  0
 37 40  1  0  0  0  0
 37 39  1  0  0  0  0
 38 37  1  0  0  0  0
 41 11  1  0  0  0  0
 42 41  1  0  0  0  0
 43 41  1  0  0  0  0
 44 41  1  0  0  0  0
 45 48  1  0  0  0  0
 45 46  1  0  0  0  0
 47 45  1  0  0  0  0
 49 51  1  0  0  0  0
 49 50  1  0  0  0  0
 52 49  1  0  0  0  0
 53 56  1  0  0  0  0
 54 53  1  0  0  0  0
 55 53  1  0  0  0  0
 57 15  1  0  0  0  0
 58 57  1  0  0  0  0
 59 57  1  0  0  0  0
 60 57  1  0  0  0  0
M  END
