1,2,3
 OpenBabel05122313063D

 68 68  0  0  0  0  0  0  0  0999 V2000
   -2.3483   -0.0138    0.0117 P   0  0  0  0  0  0  0  0  0  0  0  0
    2.2964   -0.1245   -0.0796 P   0  0  0  0  0  0  0  0  0  0  0  0
    0.0220    1.6893   -0.3997 N   0  0  0  0  0  2  0  0  0  0  0  0
   -2.4002    1.7523   -0.1394 C   0  0  0  0  0  0  0  0  0  0  0  0
   -3.3300    2.3346   -0.0742 H   0  0  0  0  0  0  0  0  0  0  0  0
   -1.1878    2.4190   -0.2999 C   0  0  0  0  0  0  0  0  0  0  0  0
   -1.1198    3.8616   -0.3657 C   0  0  0  0  0  0  0  0  0  0  0  0
   -2.0600    4.4216   -0.2619 H   0  0  0  0  0  0  0  0  0  0  0  0
    0.0781    4.5103   -0.5437 C   0  0  0  0  0  0  0  0  0  0  0  0
    0.1138    5.6101   -0.5834 H   0  0  0  0  0  0  0  0  0  0  0  0
    1.2754    3.7529   -0.6889 C   0  0  0  0  0  0  0  0  0  0  0  0
    2.2423    4.2403   -0.8716 H   0  0  0  0  0  0  0  0  0  0  0  0
    1.1982    2.3684   -0.6300 C   0  0  0  0  0  0  0  0  0  0  0  0
    2.4335    1.5406   -0.8856 C   0  0  0  0  0  0  0  0  0  0  0  0
    3.3552    2.0902   -0.6068 H   0  0  0  0  0  0  0  0  0  0  0  0
    2.5000    1.3309   -1.9750 H   0  0  0  0  0  0  0  0  0  0  0  0
   -3.3569   -0.7229   -1.4517 C   0  0  0  0  0  0  0  0  0  0  0  0
   -3.5531   -2.2391   -1.3126 C   0  0  0  0  0  0  0  0  0  0  0  0
   -4.2789   -2.4960   -0.5163 H   0  0  0  0  0  0  0  0  0  0  0  0
   -2.5993   -2.7622   -1.0989 H   0  0  0  0  0  0  0  0  0  0  0  0
   -3.9543   -2.6477   -2.2650 H   0  0  0  0  0  0  0  0  0  0  0  0
   -4.7061   -0.0100   -1.6290 C   0  0  0  0  0  0  0  0  0  0  0  0
   -4.5712    1.0866   -1.7134 H   0  0  0  0  0  0  0  0  0  0  0  0
   -5.4095   -0.2134   -0.8000 H   0  0  0  0  0  0  0  0  0  0  0  0
   -5.1871   -0.3618   -2.5672 H   0  0  0  0  0  0  0  0  0  0  0  0
   -2.4701   -0.4295   -2.6779 C   0  0  0  0  0  0  0  0  0  0  0  0
   -2.9833   -0.7794   -3.5996 H   0  0  0  0  0  0  0  0  0  0  0  0
   -1.4889   -0.9399   -2.5922 H   0  0  0  0  0  0  0  0  0  0  0  0
   -2.2752    0.6575   -2.7770 H   0  0  0  0  0  0  0  0  0  0  0  0
   -3.1074   -0.4432    1.7175 C   0  0  0  0  0  0  0  0  0  0  0  0
   -2.9163   -1.9310    2.0516 C   0  0  0  0  0  0  0  0  0  0  0  0
   -3.2747   -2.1210    3.0863 H   0  0  0  0  0  0  0  0  0  0  0  0
   -1.8488   -2.2196    2.0050 H   0  0  0  0  0  0  0  0  0  0  0  0
   -3.4833   -2.5992    1.3776 H   0  0  0  0  0  0  0  0  0  0  0  0
   -4.5906   -0.0572    1.8087 C   0  0  0  0  0  0  0  0  0  0  0  0
   -5.2322   -0.7162    1.1917 H   0  0  0  0  0  0  0  0  0  0  0  0
   -4.7656    0.9929    1.4996 H   0  0  0  0  0  0  0  0  0  0  0  0
   -4.9345   -0.1566    2.8611 H   0  0  0  0  0  0  0  0  0  0  0  0
   -2.2880    0.3935    2.7187 C   0  0  0  0  0  0  0  0  0  0  0  0
   -2.4154    1.4795    2.5440 H   0  0  0  0  0  0  0  0  0  0  0  0
   -1.2063    0.1577    2.6265 H   0  0  0  0  0  0  0  0  0  0  0  0
   -2.6158    0.1564    3.7535 H   0  0  0  0  0  0  0  0  0  0  0  0
    3.0382    0.0961    1.6670 C   0  0  0  0  0  0  0  0  0  0  0  0
    2.3206    1.3262    2.2584 C   0  0  0  0  0  0  0  0  0  0  0  0
    2.6060    1.4295    3.3267 H   0  0  0  0  0  0  0  0  0  0  0  0
    1.2187    1.2099    2.2014 H   0  0  0  0  0  0  0  0  0  0  0  0
    2.5902    2.2695    1.7442 H   0  0  0  0  0  0  0  0  0  0  0  0
    2.6529   -1.1342    2.5094 C   0  0  0  0  0  0  0  0  0  0  0  0
    3.1463   -2.0621    2.1642 H   0  0  0  0  0  0  0  0  0  0  0  0
    1.5559   -1.2943    2.4782 H   0  0  0  0  0  0  0  0  0  0  0  0
    2.9544   -0.9648    3.5649 H   0  0  0  0  0  0  0  0  0  0  0  0
    4.5556    0.3202    1.6858 C   0  0  0  0  0  0  0  0  0  0  0  0
    4.8774    0.5643    2.7210 H   0  0  0  0  0  0  0  0  0  0  0  0
    4.8639    1.1669    1.0392 H   0  0  0  0  0  0  0  0  0  0  0  0
    5.1177   -0.5812    1.3734 H   0  0  0  0  0  0  0  0  0  0  0  0
    3.3561   -1.2585   -1.1910 C   0  0  0  0  0  0  0  0  0  0  0  0
    2.5131   -1.4960   -2.4600 C   0  0  0  0  0  0  0  0  0  0  0  0
    2.3047   -0.5553   -3.0088 H   0  0  0  0  0  0  0  0  0  0  0  0
    1.5369   -1.9591   -2.2191 H   0  0  0  0  0  0  0  0  0  0  0  0
    3.0717   -2.1670   -3.1471 H   0  0  0  0  0  0  0  0  0  0  0  0
    4.7040   -0.6325   -1.5882 C   0  0  0  0  0  0  0  0  0  0  0  0
    5.3669   -0.4572   -0.7217 H   0  0  0  0  0  0  0  0  0  0  0  0
    4.5772    0.3277   -2.1265 H   0  0  0  0  0  0  0  0  0  0  0  0
    5.2346   -1.3234   -2.2780 H   0  0  0  0  0  0  0  0  0  0  0  0
    3.5787   -2.6062   -0.4837 C   0  0  0  0  0  0  0  0  0  0  0  0
    4.0520   -3.3162   -1.1948 H   0  0  0  0  0  0  0  0  0  0  0  0
    2.6258   -3.0588   -0.1453 H   0  0  0  0  0  0  0  0  0  0  0  0
    4.2548   -2.5156    0.3886 H   0  0  0  0  0  0  0  0  0  0  0  0
  1 30  1  0  0  0  0
  2 43  1  0  0  0  0
  3  6  1  0  0  0  0
  4  5  1  0  0  0  0
  4  1  1  0  0  0  0
  6  4  2  0  0  0  0
  7  6  1  0  0  0  0
  7  8  1  0  0  0  0
  9  7  2  0  0  0  0
 10  9  1  0  0  0  0
 11 13  2  0  0  0  0
 11  9  1  0  0  0  0
 12 11  1  0  0  0  0
 13  3  1  0  0  0  0
 14 13  1  0  0  0  0
 14 15  1  0  0  0  0
 14  2  1  0  0  0  0
 16 14  1  0  0  0  0
 17 18  1  0  0  0  0
 17  1  1  0  0  0  0
 18 20  1  0  0  0  0
 18 19  1  0  0  0  0
 21 18  1  0  0  0  0
 22 17  1  0  0  0  0
 22 24  1  0  0  0  0
 23 22  1  0  0  0  0
 25 22  1  0  0  0  0
 26 28  1  0  0  0  0
 26 17  1  0  0  0  0
 27 26  1  0  0  0  0
 29 26  1  0  0  0  0
 30 35  1  0  0  0  0
 30 31  1  0  0  0  0
 30 39  1  0  0  0  0
 31 32  1  0  0  0  0
 33 31  1  0  0  0  0
 34 31  1  0  0  0  0
 35 38  1  0  0  0  0
 36 35  1  0  0  0  0
 37 35  1  0  0  0  0
 39 42  1  0  0  0  0
 40 39  1  0  0  0  0
 41 39  1  0  0  0  0
 43 52  1  0  0  0  0
 43 44  1  0  0  0  0
 43 48  1  0  0  0  0
 44 45  1  0  0  0  0
 46 44  1  0  0  0  0
 47 44  1  0  0  0  0
 48 51  1  0  0  0  0
 49 48  1  0  0  0  0
 50 48  1  0  0  0  0
 52 53  1  0  0  0  0
 54 52  1  0  0  0  0
 55 52  1  0  0  0  0
 56 65  1  0  0  0  0
 56  2  1  0  0  0  0
 57 59  1  0  0  0  0
 57 56  1  0  0  0  0
 58 57  1  0  0  0  0
 60 57  1  0  0  0  0
 61 56  1  0  0  0  0
 61 62  1  0  0  0  0
 63 61  1  0  0  0  0
 64 61  1  0  0  0  0
 65 67  1  0  0  0  0
 65 68  1  0  0  0  0
 66 65  1  0  0  0  0
M  END
