1,2,3
 OpenBabel05122313063D

 57 57  0  0  1  0  0  0  0  0999 V2000
   -2.2790   -0.3209    0.1583 P   0  0  0  0  0  0  0  0  0  0  0  0
    2.2828   -0.0800   -0.0043 P   0  0  0  0  0  0  0  0  0  0  0  0
   -0.1015    1.6182    0.2131 N   0  0  0  0  0  2  0  0  0  0  0  0
   -2.3596    1.2921    1.1073 C   0  0  0  0  0  0  0  0  0  0  0  0
   -3.3415    1.8040    1.0474 H   0  0  0  0  0  0  0  0  0  0  0  0
   -2.1975    1.0058    2.1690 H   0  0  0  0  0  0  0  0  0  0  0  0
   -1.2375    2.2033    0.6890 C   0  0  1  0  0  3  0  0  0  0  0  0
   -1.3307    3.5980    0.8224 C   0  0  0  0  0  0  0  0  0  0  0  0
   -2.2618    4.0427    1.2008 H   0  0  0  0  0  0  0  0  0  0  0  0
   -0.2314    4.3975    0.4870 C   0  0  0  0  0  0  0  0  0  0  0  0
   -0.2847    5.4916    0.5894 H   0  0  0  0  0  0  0  0  0  0  0  0
    0.9371    3.7830    0.0241 C   0  0  0  0  0  0  0  0  0  0  0  0
    1.8213    4.3767   -0.2474 H   0  0  0  0  0  0  0  0  0  0  0  0
    0.9787    2.3851   -0.1119 C   0  0  0  0  0  0  0  0  0  0  0  0
    2.1870    1.6759   -0.6480 C   0  0  0  0  0  0  0  0  0  0  0  0
    3.1083    2.2770   -0.5165 H   0  0  0  0  0  0  0  0  0  0  0  0
    2.0090    1.4977   -1.7351 H   0  0  0  0  0  0  0  0  0  0  0  0
   -3.3569    0.0217   -1.3477 C   0  0  0  0  0  0  0  0  0  0  0  0
   -3.1422   -0.8448   -2.0109 H   0  0  0  0  0  0  0  0  0  0  0  0
   -4.8590    0.0905   -1.0518 C   0  0  0  0  0  0  0  0  0  0  0  0
   -5.2729   -0.8591   -0.6608 H   0  0  0  0  0  0  0  0  0  0  0  0
   -5.0960    0.8928   -0.3207 H   0  0  0  0  0  0  0  0  0  0  0  0
   -5.4129    0.3324   -1.9831 H   0  0  0  0  0  0  0  0  0  0  0  0
   -2.8643    1.2879   -2.0617 C   0  0  0  0  0  0  0  0  0  0  0  0
   -1.7796    1.2232   -2.2839 H   0  0  0  0  0  0  0  0  0  0  0  0
   -3.4035    1.4029   -3.0250 H   0  0  0  0  0  0  0  0  0  0  0  0
   -3.0678    2.2002   -1.4628 H   0  0  0  0  0  0  0  0  0  0  0  0
   -3.2764   -1.5229    1.1936 C   0  0  0  0  0  0  0  0  0  0  0  0
   -4.2723   -1.0508    1.3445 H   0  0  0  0  0  0  0  0  0  0  0  0
   -2.6329   -1.7743    2.5604 C   0  0  0  0  0  0  0  0  0  0  0  0
   -2.5351   -0.8496    3.1638 H   0  0  0  0  0  0  0  0  0  0  0  0
   -3.2549   -2.4859    3.1423 H   0  0  0  0  0  0  0  0  0  0  0  0
   -1.6191   -2.2054    2.4469 H   0  0  0  0  0  0  0  0  0  0  0  0
   -3.4493   -2.8349    0.4133 C   0  0  0  0  0  0  0  0  0  0  0  0
   -3.9350   -2.6868   -0.5712 H   0  0  0  0  0  0  0  0  0  0  0  0
   -2.4707   -3.3231    0.2362 H   0  0  0  0  0  0  0  0  0  0  0  0
   -4.0782   -3.5413    0.9937 H   0  0  0  0  0  0  0  0  0  0  0  0
    3.2184    0.0273    1.6176 C   0  0  0  0  0  0  0  0  0  0  0  0
    4.2731    0.2739    1.3625 H   0  0  0  0  0  0  0  0  0  0  0  0
    2.6353    1.1421    2.4946 C   0  0  0  0  0  0  0  0  0  0  0  0
    2.7603    2.1480    2.0477 H   0  0  0  0  0  0  0  0  0  0  0  0
    1.5514    0.9736    2.6646 H   0  0  0  0  0  0  0  0  0  0  0  0
    3.1386    1.1499    3.4838 H   0  0  0  0  0  0  0  0  0  0  0  0
    3.1617   -1.3241    2.3425 C   0  0  0  0  0  0  0  0  0  0  0  0
    3.6303   -2.1397    1.7602 H   0  0  0  0  0  0  0  0  0  0  0  0
    3.6874   -1.2585    3.3179 H   0  0  0  0  0  0  0  0  0  0  0  0
    2.1070   -1.6100    2.5333 H   0  0  0  0  0  0  0  0  0  0  0  0
    3.4031   -0.8860   -1.2676 C   0  0  0  0  0  0  0  0  0  0  0  0
    2.7765   -0.7353   -2.1766 H   0  0  0  0  0  0  0  0  0  0  0  0
    3.5532   -2.3958   -1.0512 C   0  0  0  0  0  0  0  0  0  0  0  0
    2.5783   -2.8922   -0.8863 H   0  0  0  0  0  0  0  0  0  0  0  0
    4.0151   -2.8545   -1.9499 H   0  0  0  0  0  0  0  0  0  0  0  0
    4.2143   -2.6294   -0.1915 H   0  0  0  0  0  0  0  0  0  0  0  0
    4.7560   -0.1900   -1.4405 C   0  0  0  0  0  0  0  0  0  0  0  0
    4.6567    0.8902   -1.6669 H   0  0  0  0  0  0  0  0  0  0  0  0
    5.3933   -0.2944   -0.5372 H   0  0  0  0  0  0  0  0  0  0  0  0
    5.3125   -0.6507   -2.2835 H   0  0  0  0  0  0  0  0  0  0  0  0
  1  4  1  0  0  0  0
  1 28  1  0  0  0  0
  2 38  1  0  0  0  0
  3  7  1  0  0  0  0
  4  6  1  0  0  0  0
  5  4  1  0  0  0  0
  7  8  1  0  0  0  0
  7  4  1  1  0  0  0
  8  9  1  0  0  0  0
 10 11  1  0  0  0  0
 10  8  2  0  0  0  0
 12 10  1  0  0  0  0
 13 12  1  0  0  0  0
 14 12  2  0  0  0  0
 14  3  1  0  0  0  0
 15 16  1  0  0  0  0
 15 14  1  0  0  0  0
 15  2  1  0  0  0  0
 17 15  1  0  0  0  0
 18 20  1  0  0  0  0
 18  1  1  0  0  0  0
 19 18  1  0  0  0  0
 20 21  1  0  0  0  0
 20 22  1  0  0  0  0
 23 20  1  0  0  0  0
 24 27  1  0  0  0  0
 24 18  1  0  0  0  0
 25 24  1  0  0  0  0
 26 24  1  0  0  0  0
 28 29  1  0  0  0  0
 28 30  1  0  0  0  0
 30 32  1  0  0  0  0
 30 31  1  0  0  0  0
 33 30  1  0  0  0  0
 34 37  1  0  0  0  0
 34 28  1  0  0  0  0
 35 34  1  0  0  0  0
 36 34  1  0  0  0  0
 38 44  1  0  0  0  0
 38 40  1  0  0  0  0
 39 38  1  0  0  0  0
 40 42  1  0  0  0  0
 40 43  1  0  0  0  0
 41 40  1  0  0  0  0
 44 47  1  0  0  0  0
 44 46  1  0  0  0  0
 45 44  1  0  0  0  0
 48 50  1  0  0  0  0
 48  2  1  0  0  0  0
 49 48  1  0  0  0  0
 50 51  1  0  0  0  0
 50 53  1  0  0  0  0
 52 50  1  0  0  0  0
 54 48  1  0  0  0  0
 54 56  1  0  0  0  0
 55 54  1  0  0  0  0
 57 54  1  0  0  0  0
M  END
