1,2,3
 OpenBabel05122313063D

 65 68  0  0  0  0  0  0  0  0999 V2000
   -1.6559   -0.0538    0.0801 P   0  0  0  0  0  0  0  0  0  0  0  0
    2.4700   -1.0872    0.2787 P   0  0  0  0  0  0  0  0  0  0  0  0
    0.8773    1.1395   -0.3853 N   0  0  0  0  0  2  0  0  0  0  0  0
   -2.7483   -1.2150   -0.8260 C   0  0  0  0  0  0  0  0  0  0  0  0
   -2.1383   -2.3055   -1.4776 C   0  0  0  0  0  0  0  0  0  0  0  0
   -1.0532   -2.4492   -1.3489 H   0  0  0  0  0  0  0  0  0  0  0  0
   -2.9104   -3.1931   -2.2405 C   0  0  0  0  0  0  0  0  0  0  0  0
   -2.4282   -4.0435   -2.7464 H   0  0  0  0  0  0  0  0  0  0  0  0
   -4.2979   -3.0039   -2.3464 C   0  0  0  0  0  0  0  0  0  0  0  0
   -4.9057   -3.7030   -2.9409 H   0  0  0  0  0  0  0  0  0  0  0  0
   -4.9132   -1.9299   -1.6817 C   0  0  0  0  0  0  0  0  0  0  0  0
   -6.0026   -1.7886   -1.7531 H   0  0  0  0  0  0  0  0  0  0  0  0
   -4.1435   -1.0369   -0.9212 C   0  0  0  0  0  0  0  0  0  0  0  0
   -4.6303   -0.2071   -0.3857 H   0  0  0  0  0  0  0  0  0  0  0  0
   -2.6566    0.4638    1.5277 C   0  0  0  0  0  0  0  0  0  0  0  0
   -3.1947   -0.5256    2.3787 C   0  0  0  0  0  0  0  0  0  0  0  0
   -3.0515   -1.5906    2.1370 H   0  0  0  0  0  0  0  0  0  0  0  0
   -3.9102   -0.1551    3.5248 C   0  0  0  0  0  0  0  0  0  0  0  0
   -4.3319   -0.9322    4.1806 H   0  0  0  0  0  0  0  0  0  0  0  0
   -4.0859    1.2037    3.8389 C   0  0  0  0  0  0  0  0  0  0  0  0
   -4.6468    1.4929    4.7407 H   0  0  0  0  0  0  0  0  0  0  0  0
   -3.5423    2.1898    3.0015 C   0  0  0  0  0  0  0  0  0  0  0  0
   -3.6757    3.2552    3.2440 H   0  0  0  0  0  0  0  0  0  0  0  0
   -2.8283    1.8245    1.8493 C   0  0  0  0  0  0  0  0  0  0  0  0
   -2.4038    2.5954    1.1884 H   0  0  0  0  0  0  0  0  0  0  0  0
   -1.4504    1.4213   -0.9774 C   0  0  0  0  0  0  0  0  0  0  0  0
   -2.4865    2.0613   -1.6749 C   0  0  0  0  0  0  0  0  0  0  0  0
   -3.5210    1.7039   -1.5524 H   0  0  0  0  0  0  0  0  0  0  0  0
   -2.2112    3.1277   -2.5417 C   0  0  0  0  0  0  0  0  0  0  0  0
   -3.0215    3.6259   -3.0932 H   0  0  0  0  0  0  0  0  0  0  0  0
   -0.8700    3.5165   -2.7209 C   0  0  0  0  0  0  0  0  0  0  0  0
   -0.6261    4.3193   -3.4348 H   0  0  0  0  0  0  0  0  0  0  0  0
    0.1731    2.8946   -2.0282 C   0  0  0  0  0  0  0  0  0  0  0  0
    1.2075    3.1996   -2.2318 H   0  0  0  0  0  0  0  0  0  0  0  0
   -0.0813    1.8381   -1.1044 C   0  0  0  0  0  0  0  0  0  0  0  0
    2.1745    1.5852   -0.1608 C   0  0  0  0  0  0  0  0  0  0  0  0
    2.5988    2.9449   -0.1517 C   0  0  0  0  0  0  0  0  0  0  0  0
    1.8650    3.7434   -0.3204 H   0  0  0  0  0  0  0  0  0  0  0  0
    3.9265    3.2850    0.1300 C   0  0  0  0  0  0  0  0  0  0  0  0
    4.2093    4.3495    0.1443 H   0  0  0  0  0  0  0  0  0  0  0  0
    4.8932    2.3039    0.4154 C   0  0  0  0  0  0  0  0  0  0  0  0
    5.9330    2.5847    0.6369 H   0  0  0  0  0  0  0  0  0  0  0  0
    4.4939    0.9589    0.4452 C   0  0  0  0  0  0  0  0  0  0  0  0
    5.2267    0.1788    0.7061 H   0  0  0  0  0  0  0  0  0  0  0  0
    3.1645    0.5993    0.1727 C   0  0  0  0  0  0  0  0  0  0  0  0
    3.2749   -1.9096    1.7423 C   0  0  0  0  0  0  0  0  0  0  0  0
    4.3749   -1.7902    1.6262 H   0  0  0  0  0  0  0  0  0  0  0  0
    2.8113   -1.1772    3.0074 C   0  0  0  0  0  0  0  0  0  0  0  0
    3.0806   -0.1027    2.9816 H   0  0  0  0  0  0  0  0  0  0  0  0
    3.2715   -1.6296    3.9102 H   0  0  0  0  0  0  0  0  0  0  0  0
    1.7079   -1.2492    3.1042 H   0  0  0  0  0  0  0  0  0  0  0  0
    2.9237   -3.4006    1.7791 C   0  0  0  0  0  0  0  0  0  0  0  0
    3.3412   -3.9568    0.9161 H   0  0  0  0  0  0  0  0  0  0  0  0
    1.8224   -3.5398    1.7784 H   0  0  0  0  0  0  0  0  0  0  0  0
    3.3262   -3.8659    2.7026 H   0  0  0  0  0  0  0  0  0  0  0  0
    3.0306   -2.0075   -1.2540 C   0  0  0  0  0  0  0  0  0  0  0  0
    2.5921   -3.0217   -1.1252 H   0  0  0  0  0  0  0  0  0  0  0  0
    2.3871   -1.3455   -2.4791 C   0  0  0  0  0  0  0  0  0  0  0  0
    1.2840   -1.2952   -2.3824 H   0  0  0  0  0  0  0  0  0  0  0  0
    2.6372   -1.9107   -3.4008 H   0  0  0  0  0  0  0  0  0  0  0  0
    2.7536   -0.3059   -2.6053 H   0  0  0  0  0  0  0  0  0  0  0  0
    4.5517   -2.1152   -1.3805 C   0  0  0  0  0  0  0  0  0  0  0  0
    5.0154   -2.6294   -0.5147 H   0  0  0  0  0  0  0  0  0  0  0  0
    5.0128   -1.1108   -1.4727 H   0  0  0  0  0  0  0  0  0  0  0  0
    4.8205   -2.6901   -2.2915 H   0  0  0  0  0  0  0  0  0  0  0  0
  1 15  1  0  0  0  0
  2 46  1  0  0  0  0
  3 36  1  0  0  0  0
  4  1  1  0  0  0  0
  5  6  1  0  0  0  0
  5  4  2  0  0  0  0
  7  5  1  0  0  0  0
  8  7  1  0  0  0  0
  9  7  2  0  0  0  0
  9 11  1  0  0  0  0
 10  9  1  0  0  0  0
 11 13  2  0  0  0  0
 12 11  1  0  0  0  0
 13  4  1  0  0  0  0
 13 14  1  0  0  0  0
 15 24  2  0  0  0  0
 15 16  1  0  0  0  0
 16 18  2  0  0  0  0
 17 16  1  0  0  0  0
 18 20  1  0  0  0  0
 18 19  1  0  0  0  0
 20 21  1  0  0  0  0
 22 23  1  0  0  0  0
 22 20  2  0  0  0  0
 24 22  1  0  0  0  0
 25 24  1  0  0  0  0
 26  1  1  0  0  0  0
 27 28  1  0  0  0  0
 27 26  2  0  0  0  0
 29 27  1  0  0  0  0
 30 29  1  0  0  0  0
 31 29  2  0  0  0  0
 31 33  1  0  0  0  0
 32 31  1  0  0  0  0
 33 35  2  0  0  0  0
 34 33  1  0  0  0  0
 35 26  1  0  0  0  0
 35  3  1  0  0  0  0
 36 37  2  0  0  0  0
 36 45  1  0  0  0  0
 37 39  1  0  0  0  0
 38 37  1  0  0  0  0
 39 40  1  0  0  0  0
 39 41  2  0  0  0  0
 41 43  1  0  0  0  0
 41 42  1  0  0  0  0
 43 44  1  0  0  0  0
 45  2  1  0  0  0  0
 45 43  2  0  0  0  0
 46 52  1  0  0  0  0
 46 48  1  0  0  0  0
 47 46  1  0  0  0  0
 48 51  1  0  0  0  0
 48 50  1  0  0  0  0
 49 48  1  0  0  0  0
 52 55  1  0  0  0  0
 53 52  1  0  0  0  0
 54 52  1  0  0  0  0
 56 57  1  0  0  0  0
 56  2  1  0  0  0  0
 58 59  1  0  0  0  0
 58 56  1  0  0  0  0
 60 58  1  0  0  0  0
 61 58  1  0  0  0  0
 62 56  1  0  0  0  0
 62 63  1  0  0  0  0
 64 62  1  0  0  0  0
 65 62  1  0  0  0  0
M  END
