1,2,3
 OpenBabel05122313063D

 59 62  0  0  0  0  0  0  0  0999 V2000
   -1.7083    0.0815    0.7427 P   0  0  1  0  0  0  0  0  0  0  0  0
    1.5158    0.0541    0.6869 P   0  0  1  0  0  0  0  0  0  0  0  0
   -1.8538   -2.1775   -1.1883 N   0  0  0  0  0  0  0  0  0  0  0  0
    2.0464    0.7269   -2.2920 N   0  0  0  0  0  0  0  0  0  0  0  0
   -0.1866    0.8651    2.9488 C   0  0  0  0  0  0  0  0  0  0  0  0
   -1.4653    0.0996    2.5665 C   0  0  0  0  0  0  0  0  0  0  0  0
   -3.2490   -0.8335    0.3561 C   0  0  0  0  0  0  0  0  0  0  0  0
   -4.4989   -0.5235    0.9256 C   0  0  0  0  0  0  0  0  0  0  0  0
   -5.6312   -1.2766    0.5880 C   0  0  0  0  0  0  0  0  0  0  0  0
   -5.5220   -2.3372   -0.3264 C   0  0  0  0  0  0  0  0  0  0  0  0
   -4.2847   -2.6428   -0.9124 C   0  0  0  0  0  0  0  0  0  0  0  0
   -3.1500   -1.8905   -0.5738 C   0  0  0  0  0  0  0  0  0  0  0  0
   -1.9200    1.8186    0.2327 C   0  0  0  0  0  0  0  0  0  0  0  0
   -2.5756    2.7603    1.0545 C   0  0  0  0  0  0  0  0  0  0  0  0
   -2.6945    4.0913    0.6302 C   0  0  0  0  0  0  0  0  0  0  0  0
   -2.1586    4.4871   -0.6064 C   0  0  0  0  0  0  0  0  0  0  0  0
   -1.5068    3.5516   -1.4250 C   0  0  0  0  0  0  0  0  0  0  0  0
   -1.3857    2.2187   -1.0097 C   0  0  0  0  0  0  0  0  0  0  0  0
    1.1440    0.2423    2.4971 C   0  0  0  0  0  0  0  0  0  0  0  0
    1.7659    1.6912   -0.0435 C   0  0  0  0  0  0  0  0  0  0  0  0
    1.7204    2.8559    0.7568 C   0  0  0  0  0  0  0  0  0  0  0  0
    1.8661    4.1300    0.2054 C   0  0  0  0  0  0  0  0  0  0  0  0
    2.0789    4.2466   -1.1818 C   0  0  0  0  0  0  0  0  0  0  0  0
    2.1465    3.1149   -1.9913 C   0  0  0  0  0  0  0  0  0  0  0  0
    1.9917    1.8053   -1.4568 C   0  0  0  0  0  0  0  0  0  0  0  0
    3.1358   -0.7903    0.7030 C   0  0  0  0  0  0  0  0  0  0  0  0
    4.3142   -0.0669    0.4326 C   0  0  0  0  0  0  0  0  0  0  0  0
    5.5574   -0.7133    0.5090 C   0  0  0  0  0  0  0  0  0  0  0  0
    5.6263   -2.0703    0.8592 C   0  0  0  0  0  0  0  0  0  0  0  0
    4.4502   -2.7902    1.1295 C   0  0  0  0  0  0  0  0  0  0  0  0
    3.2040   -2.1571    1.0448 C   0  0  0  0  0  0  0  0  0  0  0  0
   -0.2671    1.9106    2.5868 H   0  0  0  0  0  0  0  0  0  0  0  0
   -0.1548    0.9310    4.0564 H   0  0  0  0  0  0  0  0  0  0  0  0
   -1.4207   -0.9636    2.8819 H   0  0  0  0  0  0  0  0  0  0  0  0
   -2.3496    0.5520    3.0605 H   0  0  0  0  0  0  0  0  0  0  0  0
   -4.5898    0.3126    1.6354 H   0  0  0  0  0  0  0  0  0  0  0  0
   -6.6045   -1.0361    1.0400 H   0  0  0  0  0  0  0  0  0  0  0  0
   -6.4091   -2.9310   -0.5913 H   0  0  0  0  0  0  0  0  0  0  0  0
   -4.2022   -3.4676   -1.6368 H   0  0  0  0  0  0  0  0  0  0  0  0
   -2.9913    2.4680    2.0309 H   0  0  0  0  0  0  0  0  0  0  0  0
   -3.2043    4.8250    1.2719 H   0  0  0  0  0  0  0  0  0  0  0  0
   -2.2466    5.5346   -0.9309 H   0  0  0  0  0  0  0  0  0  0  0  0
   -1.0756    3.8623   -2.3875 H   0  0  0  0  0  0  0  0  0  0  0  0
   -0.8565    1.4836   -1.6366 H   0  0  0  0  0  0  0  0  0  0  0  0
    1.9990    0.8044    2.9266 H   0  0  0  0  0  0  0  0  0  0  0  0
    1.2389   -0.7955    2.8817 H   0  0  0  0  0  0  0  0  0  0  0  0
    1.5751    2.7639    1.8419 H   0  0  0  0  0  0  0  0  0  0  0  0
    1.8263    5.0208    0.8471 H   0  0  0  0  0  0  0  0  0  0  0  0
    2.2036    5.2405   -1.6378 H   0  0  0  0  0  0  0  0  0  0  0  0
    2.3271    3.2216   -3.0723 H   0  0  0  0  0  0  0  0  0  0  0  0
    4.2585    0.9987    0.1637 H   0  0  0  0  0  0  0  0  0  0  0  0
    6.4775   -0.1499    0.2939 H   0  0  0  0  0  0  0  0  0  0  0  0
    6.6031   -2.5735    0.9175 H   0  0  0  0  0  0  0  0  0  0  0  0
    4.5036   -3.8564    1.3948 H   0  0  0  0  0  0  0  0  0  0  0  0
    2.2820   -2.7302    1.2250 H   0  0  0  0  0  0  0  0  0  0  0  0
   -1.8716   -1.9553   -2.1975 H   0  0  0  0  0  0  0  0  0  0  0  0
   -1.6231   -3.1832   -1.1373 H   0  0  0  0  0  0  0  0  0  0  0  0
    2.2689    0.8755   -3.2743 H   0  0  0  0  0  0  0  0  0  0  0  0
    2.0116   -0.2514   -1.9815 H   0  0  0  0  0  0  0  0  0  0  0  0
  1  6  1  1  0  0  0
  2 26  1  0  0  0  0
  2 19  1  1  0  0  0
  3 57  1  0  0  0  0
  3 12  1  0  0  0  0
  4 59  1  0  0  0  0
  4 25  1  0  0  0  0
  5 33  1  0  0  0  0
  6 34  1  0  0  0  0
  6  5  1  0  0  0  0
  6 35  1  0  0  0  0
  7  1  1  0  0  0  0
  7  8  1  0  0  0  0
  8 36  1  0  0  0  0
  9  8  2  0  0  0  0
  9 37  1  0  0  0  0
 10  9  1  0  0  0  0
 11 12  1  0  0  0  0
 11 10  2  0  0  0  0
 12  7  2  0  0  0  0
 13  1  1  0  0  0  0
 13 14  1  0  0  0  0
 14 40  1  0  0  0  0
 15 14  2  0  0  0  0
 15 41  1  0  0  0  0
 16 15  1  0  0  0  0
 17 18  1  0  0  0  0
 17 16  2  0  0  0  0
 18 13  2  0  0  0  0
 19 46  1  0  0  0  0
 19 45  1  0  0  0  0
 19  5  1  0  0  0  0
 20  2  1  0  0  0  0
 20 21  1  0  0  0  0
 21 47  1  0  0  0  0
 22 21  2  0  0  0  0
 22 48  1  0  0  0  0
 23 22  1  0  0  0  0
 24 25  1  0  0  0  0
 24 23  2  0  0  0  0
 25 20  2  0  0  0  0
 26 31  1  0  0  0  0
 27 28  1  0  0  0  0
 27 26  2  0  0  0  0
 28 29  2  0  0  0  0
 29 53  1  0  0  0  0
 29 30  1  0  0  0  0
 30 54  1  0  0  0  0
 31 30  2  0  0  0  0
 31 55  1  0  0  0  0
 32  5  1  0  0  0  0
 38 10  1  0  0  0  0
 39 11  1  0  0  0  0
 42 16  1  0  0  0  0
 43 17  1  0  0  0  0
 44 18  1  0  0  0  0
 49 23  1  0  0  0  0
 50 24  1  0  0  0  0
 51 27  1  0  0  0  0
 52 28  1  0  0  0  0
 56  3  1  0  0  0  0
 58  4  1  0  0  0  0
M  END
