1,2,9
 OpenBabel05122313063D

 63 64  0  0  1  0  0  0  0  0999 V2000
    1.1349   -2.2314    0.1368 P   0  0  0  0  0  0  0  0  0  0  0  0
    1.2235    2.0950    0.0502 P   0  0  0  0  0  0  0  0  0  0  0  0
   -2.6197    1.2025   -0.0516 N   0  0  0  0  0  0  0  0  0  0  0  0
   -0.5333    2.2683   -0.0677 N   0  0  0  0  0  0  0  0  0  0  0  0
   -3.2711    0.0214   -0.0205 C   0  0  0  0  0  0  0  0  0  0  0  0
   -0.6287   -2.3352    0.0803 N   0  0  0  0  0  0  0  0  0  0  0  0
   -2.6694   -1.1852    0.0252 N   0  0  0  0  0  0  0  0  0  0  0  0
   -4.7532    0.0519   -0.0298 C   0  0  0  0  0  0  0  0  0  0  0  0
   -0.5747   -0.0357   -0.0534 N   0  0  0  0  0  2  0  0  0  0  0  0
   -1.2818    1.1293   -0.0617 C   0  0  1  0  0  3  0  0  0  0  0  0
    1.5666    3.0631    1.6229 C   0  0  0  0  0  0  0  0  0  0  0  0
    1.2196    4.1018    1.4267 H   0  0  0  0  0  0  0  0  0  0  0  0
   -5.4915   -1.1510    0.0047 C   0  0  0  0  0  0  0  0  0  0  0  0
   -4.9382   -2.0999    0.0394 H   0  0  0  0  0  0  0  0  0  0  0  0
   -6.8910   -1.1201   -0.0060 C   0  0  0  0  0  0  0  0  0  0  0  0
   -7.4599   -2.0620    0.0207 H   0  0  0  0  0  0  0  0  0  0  0  0
   -1.3296   -1.1684    0.0123 C   0  0  0  0  0  0  0  0  0  0  0  0
   -6.8405    1.3108   -0.0853 C   0  0  0  0  0  0  0  0  0  0  0  0
   -7.3697    2.2753   -0.1208 H   0  0  0  0  0  0  0  0  0  0  0  0
    1.7702    3.2073   -1.3621 C   0  0  0  0  0  0  0  0  0  0  0  0
    1.1694    2.7686   -2.1895 H   0  0  0  0  0  0  0  0  0  0  0  0
    1.4591   -3.1580    1.7422 C   0  0  0  0  0  0  0  0  0  0  0  0
    1.0002   -4.1624    1.5880 H   0  0  0  0  0  0  0  0  0  0  0  0
    1.6784   -3.4855   -1.1600 C   0  0  0  0  0  0  0  0  0  0  0  0
    1.6431   -4.4812   -0.6622 H   0  0  0  0  0  0  0  0  0  0  0  0
   -7.5697    0.1098   -0.0509 C   0  0  0  0  0  0  0  0  0  0  0  0
   -8.6703    0.1324   -0.0593 H   0  0  0  0  0  0  0  0  0  0  0  0
    1.4013    4.6851   -1.2082 C   0  0  0  0  0  0  0  0  0  0  0  0
    1.9990    5.1781   -0.4143 H   0  0  0  0  0  0  0  0  0  0  0  0
    0.3276    4.8372   -0.9728 H   0  0  0  0  0  0  0  0  0  0  0  0
    1.6046    5.2298   -2.1537 H   0  0  0  0  0  0  0  0  0  0  0  0
   -5.4408    1.2842   -0.0748 C   0  0  0  0  0  0  0  0  0  0  0  0
   -4.8486    2.2096   -0.1012 H   0  0  0  0  0  0  0  0  0  0  0  0
    0.7661    2.4861    2.7934 C   0  0  0  0  0  0  0  0  0  0  0  0
    1.0417    1.4249    2.9621 H   0  0  0  0  0  0  0  0  0  0  0  0
   -0.3261    2.5251    2.6109 H   0  0  0  0  0  0  0  0  0  0  0  0
    0.9809    3.0581    3.7196 H   0  0  0  0  0  0  0  0  0  0  0  0
    3.0722    3.0808    1.9177 C   0  0  0  0  0  0  0  0  0  0  0  0
    3.2655    3.6131    2.8719 H   0  0  0  0  0  0  0  0  0  0  0  0
    3.6541    3.5940    1.1277 H   0  0  0  0  0  0  0  0  0  0  0  0
    3.4729    2.0519    2.0163 H   0  0  0  0  0  0  0  0  0  0  0  0
    3.2510    3.0060   -1.7085 C   0  0  0  0  0  0  0  0  0  0  0  0
    3.4824    3.5032   -2.6730 H   0  0  0  0  0  0  0  0  0  0  0  0
    3.5036    1.9335   -1.8096 H   0  0  0  0  0  0  0  0  0  0  0  0
    3.9205    3.4447   -0.9418 H   0  0  0  0  0  0  0  0  0  0  0  0
    0.7681   -2.4666    2.9190 C   0  0  0  0  0  0  0  0  0  0  0  0
    0.9421   -3.0389    3.8536 H   0  0  0  0  0  0  0  0  0  0  0  0
   -0.3258   -2.3800    2.7665 H   0  0  0  0  0  0  0  0  0  0  0  0
    1.1693   -1.4414    3.0519 H   0  0  0  0  0  0  0  0  0  0  0  0
    0.7412   -3.4925   -2.3730 C   0  0  0  0  0  0  0  0  0  0  0  0
    0.7034   -2.4936   -2.8515 H   0  0  0  0  0  0  0  0  0  0  0  0
   -0.2938   -3.7873   -2.1134 H   0  0  0  0  0  0  0  0  0  0  0  0
    1.1186   -4.2099   -3.1312 H   0  0  0  0  0  0  0  0  0  0  0  0
    3.1238   -3.1836   -1.5874 C   0  0  0  0  0  0  0  0  0  0  0  0
    3.5046   -4.0011   -2.2340 H   0  0  0  0  0  0  0  0  0  0  0  0
    3.8171   -3.0756   -0.7312 H   0  0  0  0  0  0  0  0  0  0  0  0
    3.1682   -2.2413   -2.1672 H   0  0  0  0  0  0  0  0  0  0  0  0
    2.9638   -3.3297    1.9868 C   0  0  0  0  0  0  0  0  0  0  0  0
    3.4811   -2.3492    2.0118 H   0  0  0  0  0  0  0  0  0  0  0  0
    3.4513   -3.9537    1.2127 H   0  0  0  0  0  0  0  0  0  0  0  0
    3.1332   -3.8253    2.9651 H   0  0  0  0  0  0  0  0  0  0  0  0
   -1.1898   -3.1876    0.1567 H   0  0  0  0  0  0  0  0  0  0  0  0
   -1.0596    3.1454   -0.0374 H   0  0  0  0  0  0  0  0  0  0  0  0
  1 22  1  0  0  0  0
  2 11  1  0  0  0  0
  3  5  2  0  0  0  0
  4 63  1  0  0  0  0
  4  2  1  0  0  0  0
  5  7  1  0  0  0  0
  6  1  1  0  0  0  0
  6 62  1  0  0  0  0
  8  5  1  0  0  0  0
  8 13  1  0  0  0  0
  9 17  1  0  0  0  0
 10  4  1  1  0  0  0
 10  9  1  0  0  0  0
 10  3  1  0  0  0  0
 11 38  1  0  0  0  0
 11 34  1  0  0  0  0
 12 11  1  0  0  0  0
 13 14  1  0  0  0  0
 15 13  2  0  0  0  0
 15 16  1  0  0  0  0
 17  7  2  0  0  0  0
 17  6  1  0  0  0  0
 18 32  1  0  0  0  0
 18 26  2  0  0  0  0
 19 18  1  0  0  0  0
 20 28  1  0  0  0  0
 20  2  1  0  0  0  0
 21 20  1  0  0  0  0
 22 58  1  0  0  0  0
 22 46  1  0  0  0  0
 23 22  1  0  0  0  0
 24 25  1  0  0  0  0
 24  1  1  0  0  0  0
 26 15  1  0  0  0  0
 27 26  1  0  0  0  0
 28 30  1  0  0  0  0
 28 29  1  0  0  0  0
 31 28  1  0  0  0  0
 32  8  2  0  0  0  0
 33 32  1  0  0  0  0
 34 35  1  0  0  0  0
 34 37  1  0  0  0  0
 36 34  1  0  0  0  0
 38 41  1  0  0  0  0
 38 39  1  0  0  0  0
 40 38  1  0  0  0  0
 42 20  1  0  0  0  0
 42 45  1  0  0  0  0
 43 42  1  0  0  0  0
 44 42  1  0  0  0  0
 46 49  1  0  0  0  0
 46 47  1  0  0  0  0
 48 46  1  0  0  0  0
 50 52  1  0  0  0  0
 50 24  1  0  0  0  0
 51 50  1  0  0  0  0
 53 50  1  0  0  0  0
 54 24  1  0  0  0  0
 54 56  1  0  0  0  0
 55 54  1  0  0  0  0
 57 54  1  0  0  0  0
 58 59  1  0  0  0  0
 58 61  1  0  0  0  0
 60 58  1  0  0  0  0
M  END
