1,2,3
 OpenBabel05122313063D

 54 57  0  0  0  0  0  0  0  0999 V2000
   -1.4865   -0.2348    0.2202 P   0  0  2  0  0  0  0  0  0  0  0  0
    1.4864   -0.2103    0.2555 P   0  0  1  0  0  0  0  0  0  0  0  0
    0.0495   -3.0308   -0.3413 N   0  0  0  0  0  0  0  0  0  0  0  0
   -2.7607   -1.5390    0.6001 C   0  0  0  0  0  0  0  0  0  0  0  0
   -2.3702   -2.9762    0.2179 C   0  0  0  0  0  0  0  0  0  0  0  0
   -0.9697   -3.4616    0.6156 C   0  0  0  0  0  0  0  0  0  0  0  0
    1.3912   -3.5728   -0.1139 C   0  0  0  0  0  0  0  0  0  0  0  0
    2.1951   -2.8538    0.9819 C   0  0  0  0  0  0  0  0  0  0  0  0
    2.7776   -1.4894    0.5835 C   0  0  0  0  0  0  0  0  0  0  0  0
    0.6908    0.0547    1.9069 C   0  0  0  0  0  0  0  0  0  0  0  0
   -0.7196    0.1091    1.8788 C   0  0  0  0  0  0  0  0  0  0  0  0
   -1.4362    0.3579    3.0639 C   0  0  0  0  0  0  0  0  0  0  0  0
   -0.7527    0.5185    4.2782 C   0  0  0  0  0  0  0  0  0  0  0  0
    0.6483    0.4184    4.3155 C   0  0  0  0  0  0  0  0  0  0  0  0
    1.3690    0.1879    3.1342 C   0  0  0  0  0  0  0  0  0  0  0  0
   -2.4329    1.2910   -0.1477 C   0  0  0  0  0  0  0  0  0  0  0  0
   -3.6437    1.6208    0.4927 C   0  0  0  0  0  0  0  0  0  0  0  0
   -4.2873    2.8312    0.1928 C   0  0  0  0  0  0  0  0  0  0  0  0
   -3.7280    3.7121   -0.7470 C   0  0  0  0  0  0  0  0  0  0  0  0
   -2.5271    3.3786   -1.3940 C   0  0  0  0  0  0  0  0  0  0  0  0
   -1.8819    2.1700   -1.0995 C   0  0  0  0  0  0  0  0  0  0  0  0
    2.4005    1.3456   -0.1034 C   0  0  0  0  0  0  0  0  0  0  0  0
    2.2226    1.9249   -1.3760 C   0  0  0  0  0  0  0  0  0  0  0  0
    2.8778    3.1220   -1.6993 C   0  0  0  0  0  0  0  0  0  0  0  0
    3.7073    3.7511   -0.7579 C   0  0  0  0  0  0  0  0  0  0  0  0
    3.8890    3.1755    0.5100 C   0  0  0  0  0  0  0  0  0  0  0  0
    3.2399    1.9756    0.8373 C   0  0  0  0  0  0  0  0  0  0  0  0
   -0.2563   -3.2660   -1.2951 H   0  0  0  0  0  0  0  0  0  0  0  0
   -3.6645   -1.2462    0.0304 H   0  0  0  0  0  0  0  0  0  0  0  0
   -2.9986   -1.4661    1.6820 H   0  0  0  0  0  0  0  0  0  0  0  0
   -2.4750   -3.0749   -0.8829 H   0  0  0  0  0  0  0  0  0  0  0  0
   -3.1198   -3.6554    0.6745 H   0  0  0  0  0  0  0  0  0  0  0  0
   -0.9848   -4.5781    0.7032 H   0  0  0  0  0  0  0  0  0  0  0  0
   -0.6993   -3.0816    1.6264 H   0  0  0  0  0  0  0  0  0  0  0  0
    1.9368   -3.4787   -1.0745 H   0  0  0  0  0  0  0  0  0  0  0  0
    1.3376   -4.6603    0.1445 H   0  0  0  0  0  0  0  0  0  0  0  0
    3.0439   -3.5142    1.2592 H   0  0  0  0  0  0  0  0  0  0  0  0
    1.5840   -2.7529    1.9062 H   0  0  0  0  0  0  0  0  0  0  0  0
    3.3362   -1.5557   -0.3727 H   0  0  0  0  0  0  0  0  0  0  0  0
    3.4688   -1.1045    1.3633 H   0  0  0  0  0  0  0  0  0  0  0  0
   -2.5349    0.4256    3.0453 H   0  0  0  0  0  0  0  0  0  0  0  0
   -1.3163    0.7104    5.2038 H   0  0  0  0  0  0  0  0  0  0  0  0
    1.1827    0.5206    5.2721 H   0  0  0  0  0  0  0  0  0  0  0  0
    2.4652    0.1007    3.1794 H   0  0  0  0  0  0  0  0  0  0  0  0
   -4.0994    0.9332    1.2219 H   0  0  0  0  0  0  0  0  0  0  0  0
   -5.2343    3.0854    0.6931 H   0  0  0  0  0  0  0  0  0  0  0  0
   -4.2366    4.6595   -0.9821 H   0  0  0  0  0  0  0  0  0  0  0  0
   -2.0939    4.0599   -2.1419 H   0  0  0  0  0  0  0  0  0  0  0  0
   -0.9533    1.8750   -1.6125 H   0  0  0  0  0  0  0  0  0  0  0  0
    1.5928    1.4014   -2.1125 H   0  0  0  0  0  0  0  0  0  0  0  0
    2.7390    3.5642   -2.6976 H   0  0  0  0  0  0  0  0  0  0  0  0
    4.2172    4.6929   -1.0122 H   0  0  0  0  0  0  0  0  0  0  0  0
    4.5393    3.6642    1.2515 H   0  0  0  0  0  0  0  0  0  0  0  0
    3.3886    1.5420    1.8368 H   0  0  0  0  0  0  0  0  0  0  0  0
  1 16  1  1  0  0  0
  1  4  1  0  0  0  0
  1 11  1  0  0  0  0
  2 22  1  1  0  0  0
  2  9  1  0  0  0  0
  2 10  1  0  0  0  0
  3  7  1  0  0  0  0
  3  6  1  0  0  0  0
  4 30  1  0  0  0  0
  5  4  1  0  0  0  0
  5  6  1  0  0  0  0
  5 32  1  0  0  0  0
  6 33  1  0  0  0  0
  6 34  1  0  0  0  0
  7 36  1  0  0  0  0
  7  8  1  0  0  0  0
  8 37  1  0  0  0  0
  8 38  1  0  0  0  0
  9  8  1  0  0  0  0
  9 40  1  0  0  0  0
 10 15  1  0  0  0  0
 11 10  2  0  0  0  0
 11 12  1  0  0  0  0
 12 13  2  0  0  0  0
 13 14  1  0  0  0  0
 13 42  1  0  0  0  0
 14 43  1  0  0  0  0
 15 44  1  0  0  0  0
 15 14  2  0  0  0  0
 16 17  1  0  0  0  0
 17 45  1  0  0  0  0
 18 17  2  0  0  0  0
 18 46  1  0  0  0  0
 19 18  1  0  0  0  0
 20 21  1  0  0  0  0
 20 19  2  0  0  0  0
 21 16  2  0  0  0  0
 22 27  1  0  0  0  0
 23 22  2  0  0  0  0
 24 23  1  0  0  0  0
 24 25  2  0  0  0  0
 25 26  1  0  0  0  0
 26 27  2  0  0  0  0
 26 53  1  0  0  0  0
 27 54  1  0  0  0  0
 28  3  1  0  0  0  0
 29  4  1  0  0  0  0
 31  5  1  0  0  0  0
 35  7  1  0  0  0  0
 39  9  1  0  0  0  0
 41 12  1  0  0  0  0
 47 19  1  0  0  0  0
 48 20  1  0  0  0  0
 49 21  1  0  0  0  0
 50 23  1  0  0  0  0
 51 24  1  0  0  0  0
 52 25  1  0  0  0  0
M  END
