1,5,22
 OpenBabel05122313063D

 74 74  0  0  0  0  0  0  0  0999 V2000
    2.4801   -0.0535   -0.0247 P   0  0  0  0  0  0  0  0  0  0  0  0
    2.0171    1.4720   -1.0250 C   0  0  0  0  0  0  0  0  0  0  0  0
    2.3087    2.4037   -0.5094 H   0  0  0  0  0  0  0  0  0  0  0  0
    2.4869    1.4958   -2.0284 H   0  0  0  0  0  0  0  0  0  0  0  0
    0.5377    1.3545   -1.1204 N   0  0  0  0  0  0  0  0  0  0  0  0
    0.2071    0.9384   -2.0100 H   0  0  0  0  0  0  0  0  0  0  0  0
   -0.3154    2.4728   -0.8612 C   0  0  0  0  0  0  0  0  0  0  0  0
    0.0549    3.6013   -0.1133 C   0  0  0  0  0  0  0  0  0  0  0  0
    1.0529    3.6748    0.3386 H   0  0  0  0  0  0  0  0  0  0  0  0
   -0.8535    4.6577    0.0585 C   0  0  0  0  0  0  0  0  0  0  0  0
   -0.5493    5.5381    0.6433 H   0  0  0  0  0  0  0  0  0  0  0  0
   -2.1298    4.6035   -0.5197 C   0  0  0  0  0  0  0  0  0  0  0  0
   -2.8308    5.4418   -0.3998 H   0  0  0  0  0  0  0  0  0  0  0  0
   -2.5089    3.4640   -1.2456 C   0  0  0  0  0  0  0  0  0  0  0  0
   -3.5139    3.3976   -1.6916 H   0  0  0  0  0  0  0  0  0  0  0  0
   -1.6226    2.3879   -1.4052 C   0  0  0  0  0  0  0  0  0  0  0  0
   -1.9704    1.1773   -2.0925 N   0  0  0  0  0  0  0  0  0  0  0  0
   -2.4106    1.4009   -2.9927 H   0  0  0  0  0  0  0  0  0  0  0  0
   -2.8692    0.2685   -1.3644 C   0  0  0  0  0  0  0  0  0  0  0  0
   -3.2598   -0.4593   -2.0997 H   0  0  0  0  0  0  0  0  0  0  0  0
   -3.7547    0.7903   -0.9314 H   0  0  0  0  0  0  0  0  0  0  0  0
   -2.1039   -0.7746    0.0134 P   0  0  0  0  0  0  0  0  0  0  0  0
    3.5302   -1.1233   -1.1828 C   0  0  0  0  0  0  0  0  0  0  0  0
    2.5853   -1.5168   -2.3369 C   0  0  0  0  0  0  0  0  0  0  0  0
    3.1278   -2.1908   -3.0319 H   0  0  0  0  0  0  0  0  0  0  0  0
    2.2512   -0.6419   -2.9314 H   0  0  0  0  0  0  0  0  0  0  0  0
    1.6848   -2.0464   -1.9662 H   0  0  0  0  0  0  0  0  0  0  0  0
    3.9659   -2.3923   -0.4305 C   0  0  0  0  0  0  0  0  0  0  0  0
    3.1059   -2.9042    0.0468 H   0  0  0  0  0  0  0  0  0  0  0  0
    4.7258   -2.1781    0.3454 H   0  0  0  0  0  0  0  0  0  0  0  0
    4.4235   -3.1014   -1.1509 H   0  0  0  0  0  0  0  0  0  0  0  0
    4.7491   -0.3724   -1.7441 C   0  0  0  0  0  0  0  0  0  0  0  0
    5.4909   -0.1205   -0.9654 H   0  0  0  0  0  0  0  0  0  0  0  0
    4.4680    0.5619   -2.2708 H   0  0  0  0  0  0  0  0  0  0  0  0
    5.2578   -1.0203   -2.4882 H   0  0  0  0  0  0  0  0  0  0  0  0
    3.3183    0.4874    1.5863 C   0  0  0  0  0  0  0  0  0  0  0  0
    2.4322    1.6066    2.1688 C   0  0  0  0  0  0  0  0  0  0  0  0
    1.3588    1.3213    2.1781 H   0  0  0  0  0  0  0  0  0  0  0  0
    2.5411    2.5615    1.6186 H   0  0  0  0  0  0  0  0  0  0  0  0
    2.7430    1.8002    3.2159 H   0  0  0  0  0  0  0  0  0  0  0  0
    3.2771   -0.7189    2.5450 C   0  0  0  0  0  0  0  0  0  0  0  0
    3.6690   -0.4040    3.5342 H   0  0  0  0  0  0  0  0  0  0  0  0
    3.8992   -1.5632    2.1951 H   0  0  0  0  0  0  0  0  0  0  0  0
    2.2411   -1.0865    2.6869 H   0  0  0  0  0  0  0  0  0  0  0  0
    4.7549    0.9938    1.3961 C   0  0  0  0  0  0  0  0  0  0  0  0
    5.1235    1.4076    2.3579 H   0  0  0  0  0  0  0  0  0  0  0  0
    4.8225    1.8031    0.6410 H   0  0  0  0  0  0  0  0  0  0  0  0
    5.4491    0.1829    1.1039 H   0  0  0  0  0  0  0  0  0  0  0  0
   -2.6175   -2.5438   -0.4938 C   0  0  0  0  0  0  0  0  0  0  0  0
   -1.7252   -2.8755   -1.7082 C   0  0  0  0  0  0  0  0  0  0  0  0
   -1.9715   -3.8943   -2.0731 H   0  0  0  0  0  0  0  0  0  0  0  0
   -0.6509   -2.8511   -1.4358 H   0  0  0  0  0  0  0  0  0  0  0  0
   -1.8778   -2.1752   -2.5549 H   0  0  0  0  0  0  0  0  0  0  0  0
   -4.0990   -2.6718   -0.8919 C   0  0  0  0  0  0  0  0  0  0  0  0
   -4.3784   -2.0304   -1.7509 H   0  0  0  0  0  0  0  0  0  0  0  0
   -4.7878   -2.4510   -0.0570 H   0  0  0  0  0  0  0  0  0  0  0  0
   -4.2880   -3.7190   -1.2072 H   0  0  0  0  0  0  0  0  0  0  0  0
   -2.3083   -3.5277    0.6466 C   0  0  0  0  0  0  0  0  0  0  0  0
   -3.0119   -3.4189    1.4941 H   0  0  0  0  0  0  0  0  0  0  0  0
   -1.2740   -3.4122    1.0265 H   0  0  0  0  0  0  0  0  0  0  0  0
   -2.4140   -4.5641    0.2641 H   0  0  0  0  0  0  0  0  0  0  0  0
   -2.9143   -0.1672    1.6254 C   0  0  0  0  0  0  0  0  0  0  0  0
   -4.4310   -0.4058    1.6714 C   0  0  0  0  0  0  0  0  0  0  0  0
   -4.6825   -1.4799    1.7580 H   0  0  0  0  0  0  0  0  0  0  0  0
   -4.9586    0.0081    0.7883 H   0  0  0  0  0  0  0  0  0  0  0  0
   -4.8485    0.1004    2.5668 H   0  0  0  0  0  0  0  0  0  0  0  0
   -2.2262   -0.8596    2.8173 C   0  0  0  0  0  0  0  0  0  0  0  0
   -2.6316   -0.4342    3.7586 H   0  0  0  0  0  0  0  0  0  0  0  0
   -1.1314   -0.6877    2.8035 H   0  0  0  0  0  0  0  0  0  0  0  0
   -2.4028   -1.9501    2.8415 H   0  0  0  0  0  0  0  0  0  0  0  0
   -2.6143    1.3421    1.7070 C   0  0  0  0  0  0  0  0  0  0  0  0
   -3.1384    1.9320    0.9315 H   0  0  0  0  0  0  0  0  0  0  0  0
   -1.5281    1.5505    1.6212 H   0  0  0  0  0  0  0  0  0  0  0  0
   -2.9544    1.7187    2.6940 H   0  0  0  0  0  0  0  0  0  0  0  0
  1 36  1  0  0  0  0
  2  3  1  0  0  0  0
  2  1  1  0  0  0  0
  4  2  1  0  0  0  0
  5  2  1  0  0  0  0
  5  7  1  0  0  0  0
  6  5  1  0  0  0  0
  7  8  1  0  0  0  0
  8 10  2  0  0  0  0
  8  9  1  0  0  0  0
 10 11  1  0  0  0  0
 12 13  1  0  0  0  0
 12 10  1  0  0  0  0
 14 12  2  0  0  0  0
 15 14  1  0  0  0  0
 16 14  1  0  0  0  0
 16  7  2  0  0  0  0
 17 16  1  0  0  0  0
 17 19  1  0  0  0  0
 18 17  1  0  0  0  0
 19 21  1  0  0  0  0
 19 22  1  0  0  0  0
 20 19  1  0  0  0  0
 22 62  1  0  0  0  0
 23 28  1  0  0  0  0
 23  1  1  0  0  0  0
 24 27  1  0  0  0  0
 24 23  1  0  0  0  0
 25 24  1  0  0  0  0
 26 24  1  0  0  0  0
 28 29  1  0  0  0  0
 28 30  1  0  0  0  0
 31 28  1  0  0  0  0
 32 23  1  0  0  0  0
 32 33  1  0  0  0  0
 34 32  1  0  0  0  0
 35 32  1  0  0  0  0
 36 37  1  0  0  0  0
 36 41  1  0  0  0  0
 37 38  1  0  0  0  0
 37 40  1  0  0  0  0
 39 37  1  0  0  0  0
 41 44  1  0  0  0  0
 41 42  1  0  0  0  0
 43 41  1  0  0  0  0
 45 36  1  0  0  0  0
 45 46  1  0  0  0  0
 47 45  1  0  0  0  0
 48 45  1  0  0  0  0
 49 22  1  0  0  0  0
 49 58  1  0  0  0  0
 50 52  1  0  0  0  0
 50 49  1  0  0  0  0
 51 50  1  0  0  0  0
 53 50  1  0  0  0  0
 54 49  1  0  0  0  0
 54 56  1  0  0  0  0
 55 54  1  0  0  0  0
 57 54  1  0  0  0  0
 58 60  1  0  0  0  0
 58 59  1  0  0  0  0
 61 58  1  0  0  0  0
 62 63  1  0  0  0  0
 62 71  1  0  0  0  0
 62 67  1  0  0  0  0
 63 64  1  0  0  0  0
 63 66  1  0  0  0  0
 65 63  1  0  0  0  0
 67 70  1  0  0  0  0
 67 68  1  0  0  0  0
 69 67  1  0  0  0  0
 71 74  1  0  0  0  0
 72 71  1  0  0  0  0
 73 71  1  0  0  0  0
M  END
