1,2,3
 OpenBabel05122313063D

 69 70  0  0  0  0  0  0  0  0999 V2000
    2.2702   -0.6766   -0.2885 P   0  0  0  0  0  0  0  0  0  0  0  0
   -0.0001    1.1352    0.0000 N   0  0  0  0  0  2  0  0  0  0  0  0
   -2.2702   -0.6766    0.2884 P   0  0  0  0  0  0  0  0  0  0  0  0
    2.4355    1.1135    0.0534 C   0  0  0  0  0  0  0  0  0  0  0  0
    3.6687    1.7537    0.2729 C   0  0  0  0  0  0  0  0  0  0  0  0
    4.6031    1.1870    0.1330 H   0  0  0  0  0  0  0  0  0  0  0  0
    3.7546    3.0883    0.7060 C   0  0  0  0  0  0  0  0  0  0  0  0
    2.5327    3.7489    0.9601 C   0  0  0  0  0  0  0  0  0  0  0  0
    2.5498    4.7737    1.3663 H   0  0  0  0  0  0  0  0  0  0  0  0
    1.2969    3.1390    0.7369 C   0  0  0  0  0  0  0  0  0  0  0  0
    0.3812    3.6847    0.9987 H   0  0  0  0  0  0  0  0  0  0  0  0
    1.1993    1.8112    0.2282 C   0  0  0  0  0  0  0  0  0  0  0  0
    5.0802    3.7756    0.9118 C   0  0  0  0  0  0  0  0  0  0  0  0
    5.9191    3.0518    0.9079 H   0  0  0  0  0  0  0  0  0  0  0  0
    5.1120    4.3265    1.8748 H   0  0  0  0  0  0  0  0  0  0  0  0
    5.2840    4.5201    0.1116 H   0  0  0  0  0  0  0  0  0  0  0  0
   -1.1994    1.8112   -0.2282 C   0  0  0  0  0  0  0  0  0  0  0  0
   -1.2970    3.1391   -0.7366 C   0  0  0  0  0  0  0  0  0  0  0  0
   -0.3814    3.6850   -0.9983 H   0  0  0  0  0  0  0  0  0  0  0  0
   -2.5329    3.7489   -0.9599 C   0  0  0  0  0  0  0  0  0  0  0  0
   -2.5500    4.7738   -1.3660 H   0  0  0  0  0  0  0  0  0  0  0  0
   -3.7547    3.0882   -0.7061 C   0  0  0  0  0  0  0  0  0  0  0  0
   -3.6688    1.7535   -0.2732 C   0  0  0  0  0  0  0  0  0  0  0  0
   -4.6032    1.1867   -0.1335 H   0  0  0  0  0  0  0  0  0  0  0  0
   -2.4356    1.1135   -0.0536 C   0  0  0  0  0  0  0  0  0  0  0  0
   -5.0804    3.7754   -0.9120 C   0  0  0  0  0  0  0  0  0  0  0  0
   -5.1117    4.3275   -1.8743 H   0  0  0  0  0  0  0  0  0  0  0  0
   -5.2849    4.5189   -0.1110 H   0  0  0  0  0  0  0  0  0  0  0  0
   -5.9192    3.0514   -0.9095 H   0  0  0  0  0  0  0  0  0  0  0  0
   -2.8944   -0.9820    2.0303 C   0  0  0  0  0  0  0  0  0  0  0  0
   -2.7978   -2.0852    2.1388 H   0  0  0  0  0  0  0  0  0  0  0  0
   -1.9241   -0.3075    3.0080 C   0  0  0  0  0  0  0  0  0  0  0  0
   -2.2022   -0.5433    4.0563 H   0  0  0  0  0  0  0  0  0  0  0  0
   -1.9459    0.7955    2.8876 H   0  0  0  0  0  0  0  0  0  0  0  0
   -0.8818   -0.6419    2.8282 H   0  0  0  0  0  0  0  0  0  0  0  0
   -4.3469   -0.5659    2.2729 C   0  0  0  0  0  0  0  0  0  0  0  0
   -4.6534   -0.8383    3.3048 H   0  0  0  0  0  0  0  0  0  0  0  0
   -5.0559   -1.0572    1.5767 H   0  0  0  0  0  0  0  0  0  0  0  0
   -4.4670    0.5316    2.1713 H   0  0  0  0  0  0  0  0  0  0  0  0
   -3.5218   -1.4507   -0.8754 C   0  0  0  0  0  0  0  0  0  0  0  0
   -4.4630   -0.8790   -0.7195 H   0  0  0  0  0  0  0  0  0  0  0  0
   -3.7929   -2.9281   -0.5780 C   0  0  0  0  0  0  0  0  0  0  0  0
   -4.5647   -3.3139   -1.2761 H   0  0  0  0  0  0  0  0  0  0  0  0
   -4.1647   -3.0936    0.4529 H   0  0  0  0  0  0  0  0  0  0  0  0
   -2.8815   -3.5416   -0.7096 H   0  0  0  0  0  0  0  0  0  0  0  0
   -3.0430   -1.2294   -2.3152 C   0  0  0  0  0  0  0  0  0  0  0  0
   -3.7881   -1.6263   -3.0357 H   0  0  0  0  0  0  0  0  0  0  0  0
   -2.0785   -1.7505   -2.4872 H   0  0  0  0  0  0  0  0  0  0  0  0
   -2.8893   -0.1542   -2.5344 H   0  0  0  0  0  0  0  0  0  0  0  0
    2.8944   -0.9821   -2.0303 C   0  0  0  0  0  0  0  0  0  0  0  0
    2.7980   -2.0853   -2.1387 H   0  0  0  0  0  0  0  0  0  0  0  0
    1.9242   -0.3078   -3.0082 C   0  0  0  0  0  0  0  0  0  0  0  0
    2.2023   -0.5436   -4.0564 H   0  0  0  0  0  0  0  0  0  0  0  0
    1.9459    0.7952   -2.8878 H   0  0  0  0  0  0  0  0  0  0  0  0
    0.8819   -0.6422   -2.8284 H   0  0  0  0  0  0  0  0  0  0  0  0
    4.3469   -0.5659   -2.2730 C   0  0  0  0  0  0  0  0  0  0  0  0
    4.6535   -0.8385   -3.3048 H   0  0  0  0  0  0  0  0  0  0  0  0
    5.0560   -1.0569   -1.5766 H   0  0  0  0  0  0  0  0  0  0  0  0
    4.4669    0.5316   -2.1716 H   0  0  0  0  0  0  0  0  0  0  0  0
    3.5219   -1.4504    0.8754 C   0  0  0  0  0  0  0  0  0  0  0  0
    4.4630   -0.8785    0.7194 H   0  0  0  0  0  0  0  0  0  0  0  0
    3.7932   -2.9278    0.5780 C   0  0  0  0  0  0  0  0  0  0  0  0
    4.5648   -3.3136    1.2764 H   0  0  0  0  0  0  0  0  0  0  0  0
    4.1655   -3.0932   -0.4527 H   0  0  0  0  0  0  0  0  0  0  0  0
    2.8819   -3.5414    0.7092 H   0  0  0  0  0  0  0  0  0  0  0  0
    3.0430   -1.2291    2.3152 C   0  0  0  0  0  0  0  0  0  0  0  0
    3.7883   -1.6256    3.0357 H   0  0  0  0  0  0  0  0  0  0  0  0
    2.0787   -1.7506    2.4873 H   0  0  0  0  0  0  0  0  0  0  0  0
    2.8888   -0.1540    2.5343 H   0  0  0  0  0  0  0  0  0  0  0  0
  1  4  1  0  0  0  0
  1 60  1  0  0  0  0
  2 12  1  0  0  0  0
  3 30  1  0  0  0  0
  4 12  2  0  0  0  0
  4  5  1  0  0  0  0
  5  7  2  0  0  0  0
  6  5  1  0  0  0  0
  7 13  1  0  0  0  0
  7  8  1  0  0  0  0
  8  9  1  0  0  0  0
 10  8  2  0  0  0  0
 10 11  1  0  0  0  0
 12 10  1  0  0  0  0
 13 15  1  0  0  0  0
 14 13  1  0  0  0  0
 16 13  1  0  0  0  0
 17 25  1  0  0  0  0
 17  2  1  0  0  0  0
 18 17  2  0  0  0  0
 19 18  1  0  0  0  0
 20 18  1  0  0  0  0
 20 22  2  0  0  0  0
 21 20  1  0  0  0  0
 22 23  1  0  0  0  0
 23 24  1  0  0  0  0
 23 25  2  0  0  0  0
 25  3  1  0  0  0  0
 26 29  1  0  0  0  0
 26 22  1  0  0  0  0
 26 28  1  0  0  0  0
 27 26  1  0  0  0  0
 30 31  1  0  0  0  0
 30 36  1  0  0  0  0
 30 32  1  0  0  0  0
 32 33  1  0  0  0  0
 34 32  1  0  0  0  0
 35 32  1  0  0  0  0
 36 37  1  0  0  0  0
 38 36  1  0  0  0  0
 39 36  1  0  0  0  0
 40 41  1  0  0  0  0
 40 42  1  0  0  0  0
 40  3  1  0  0  0  0
 42 44  1  0  0  0  0
 43 42  1  0  0  0  0
 45 42  1  0  0  0  0
 46 40  1  0  0  0  0
 47 46  1  0  0  0  0
 48 46  1  0  0  0  0
 49 46  1  0  0  0  0
 50  1  1  0  0  0  0
 51 50  1  0  0  0  0
 52 54  1  0  0  0  0
 52 55  1  0  0  0  0
 52 50  1  0  0  0  0
 53 52  1  0  0  0  0
 56 59  1  0  0  0  0
 56 50  1  0  0  0  0
 56 58  1  0  0  0  0
 57 56  1  0  0  0  0
 60 66  1  0  0  0  0
 61 60  1  0  0  0  0
 62 65  1  0  0  0  0
 62 60  1  0  0  0  0
 62 63  1  0  0  0  0
 64 62  1  0  0  0  0
 66 68  1  0  0  0  0
 66 69  1  0  0  0  0
 66 67  1  0  0  0  0
M  END
