1,2,5
 OpenBabel05122313063D

 80 79  0  0  0  0  0  0  0  0999 V2000
    2.2886   -0.5554   -0.1063 P   0  0  0  0  0  0  0  0  0  0  0  0
   -2.3768   -0.4971   -0.0261 P   0  0  0  0  0  0  0  0  0  0  0  0
    1.5932    2.5007    0.0650 Si  0  0  0  0  0  0  0  0  0  0  0  0
   -1.3144    2.1762   -1.2721 Si  0  0  0  0  0  0  0  0  0  0  0  0
   -0.0743    1.7765   -0.0238 N   0  0  0  0  0  0  0  0  0  0  0  0
    1.8042    4.0025   -1.0717 C   0  0  0  0  0  0  0  0  0  0  0  0
    1.7230    3.7648   -2.1500 H   0  0  0  0  0  0  0  0  0  0  0  0
    2.8191    4.4195   -0.9007 H   0  0  0  0  0  0  0  0  0  0  0  0
    1.0764    4.8042   -0.8340 H   0  0  0  0  0  0  0  0  0  0  0  0
    1.8316    3.1102    1.8269 C   0  0  0  0  0  0  0  0  0  0  0  0
    1.4881    2.3510    2.5560 H   0  0  0  0  0  0  0  0  0  0  0  0
    1.2335    4.0335    1.9751 H   0  0  0  0  0  0  0  0  0  0  0  0
    2.8942    3.3568    2.0256 H   0  0  0  0  0  0  0  0  0  0  0  0
    2.8153    1.1803   -0.5414 C   0  0  0  0  0  0  0  0  0  0  0  0
    2.7827    1.2476   -1.6499 H   0  0  0  0  0  0  0  0  0  0  0  0
    3.8603    1.4045   -0.2428 H   0  0  0  0  0  0  0  0  0  0  0  0
    2.8695   -1.5378   -1.6806 C   0  0  0  0  0  0  0  0  0  0  0  0
    2.7417   -3.0449   -1.4028 C   0  0  0  0  0  0  0  0  0  0  0  0
    2.9239   -3.6144   -2.3394 H   0  0  0  0  0  0  0  0  0  0  0  0
    1.7254   -3.3023   -1.0418 H   0  0  0  0  0  0  0  0  0  0  0  0
    3.4732   -3.4010   -0.6524 H   0  0  0  0  0  0  0  0  0  0  0  0
    4.3007   -1.1905   -2.1343 C   0  0  0  0  0  0  0  0  0  0  0  0
    4.5089   -1.7134   -3.0922 H   0  0  0  0  0  0  0  0  0  0  0  0
    5.0777   -1.5002   -1.4180 H   0  0  0  0  0  0  0  0  0  0  0  0
    4.4224   -0.1059   -2.3267 H   0  0  0  0  0  0  0  0  0  0  0  0
    1.9381   -1.1822   -2.8552 C   0  0  0  0  0  0  0  0  0  0  0  0
    2.3058   -1.6959   -3.7689 H   0  0  0  0  0  0  0  0  0  0  0  0
    1.9303   -0.0945   -3.0730 H   0  0  0  0  0  0  0  0  0  0  0  0
    0.8960   -1.4981   -2.6737 H   0  0  0  0  0  0  0  0  0  0  0  0
    3.4247   -1.0686    1.3742 C   0  0  0  0  0  0  0  0  0  0  0  0
    3.4574    0.1134    2.3589 C   0  0  0  0  0  0  0  0  0  0  0  0
    4.0003   -0.2060    3.2745 H   0  0  0  0  0  0  0  0  0  0  0  0
    2.4356    0.4105    2.6603 H   0  0  0  0  0  0  0  0  0  0  0  0
    3.9978    0.9890    1.9481 H   0  0  0  0  0  0  0  0  0  0  0  0
    4.8768   -1.4234    1.0227 C   0  0  0  0  0  0  0  0  0  0  0  0
    5.4280   -1.6073    1.9701 H   0  0  0  0  0  0  0  0  0  0  0  0
    5.4003   -0.5987    0.4989 H   0  0  0  0  0  0  0  0  0  0  0  0
    4.9656   -2.3437    0.4150 H   0  0  0  0  0  0  0  0  0  0  0  0
    2.7448   -2.2654    2.0666 C   0  0  0  0  0  0  0  0  0  0  0  0
    3.3450   -2.5612    2.9537 H   0  0  0  0  0  0  0  0  0  0  0  0
    2.6673   -3.1489    1.4036 H   0  0  0  0  0  0  0  0  0  0  0  0
    1.7278   -1.9911    2.4068 H   0  0  0  0  0  0  0  0  0  0  0  0
   -1.9636    3.9319   -1.0016 C   0  0  0  0  0  0  0  0  0  0  0  0
   -1.1719    4.6935   -1.1472 H   0  0  0  0  0  0  0  0  0  0  0  0
   -2.3662    4.0493    0.0257 H   0  0  0  0  0  0  0  0  0  0  0  0
   -2.7851    4.1572   -1.7129 H   0  0  0  0  0  0  0  0  0  0  0  0
   -0.5535    2.0029   -2.9881 C   0  0  0  0  0  0  0  0  0  0  0  0
   -0.1666    0.9749   -3.1315 H   0  0  0  0  0  0  0  0  0  0  0  0
    0.2701    2.7182   -3.1745 H   0  0  0  0  0  0  0  0  0  0  0  0
   -1.3367    2.1867   -3.7524 H   0  0  0  0  0  0  0  0  0  0  0  0
   -2.7628    0.9509   -1.1418 C   0  0  0  0  0  0  0  0  0  0  0  0
   -3.7138    1.4492   -0.8633 H   0  0  0  0  0  0  0  0  0  0  0  0
   -2.9059    0.5481   -2.1657 H   0  0  0  0  0  0  0  0  0  0  0  0
   -3.4994   -0.1384    1.5032 C   0  0  0  0  0  0  0  0  0  0  0  0
   -3.1566   -1.1499    2.6121 C   0  0  0  0  0  0  0  0  0  0  0  0
   -3.6889   -0.8605    3.5437 H   0  0  0  0  0  0  0  0  0  0  0  0
   -2.0698   -1.1506    2.8248 H   0  0  0  0  0  0  0  0  0  0  0  0
   -3.4771   -2.1765    2.3537 H   0  0  0  0  0  0  0  0  0  0  0  0
   -5.0108   -0.1555    1.2319 C   0  0  0  0  0  0  0  0  0  0  0  0
   -5.5366    0.2525    2.1221 H   0  0  0  0  0  0  0  0  0  0  0  0
   -5.3981   -1.1798    1.0729 H   0  0  0  0  0  0  0  0  0  0  0  0
   -5.3038    0.4703    0.3643 H   0  0  0  0  0  0  0  0  0  0  0  0
   -3.1076    1.2746    1.9837 C   0  0  0  0  0  0  0  0  0  0  0  0
   -3.6786    1.5060    2.9083 H   0  0  0  0  0  0  0  0  0  0  0  0
   -3.3585    2.0610    1.2436 H   0  0  0  0  0  0  0  0  0  0  0  0
   -2.0320    1.3208    2.2479 H   0  0  0  0  0  0  0  0  0  0  0  0
   -3.1142   -1.9768   -1.0371 C   0  0  0  0  0  0  0  0  0  0  0  0
   -4.5273   -1.7143   -1.5889 C   0  0  0  0  0  0  0  0  0  0  0  0
   -4.8183   -2.5612   -2.2466 H   0  0  0  0  0  0  0  0  0  0  0  0
   -4.5742   -0.7948   -2.2056 H   0  0  0  0  0  0  0  0  0  0  0  0
   -5.2931   -1.6358   -0.7999 H   0  0  0  0  0  0  0  0  0  0  0  0
   -3.1152   -3.2352   -0.1537 C   0  0  0  0  0  0  0  0  0  0  0  0
   -3.3292   -4.1294   -0.7774 H   0  0  0  0  0  0  0  0  0  0  0  0
   -3.8918   -3.1897    0.6339 H   0  0  0  0  0  0  0  0  0  0  0  0
   -2.1319   -3.3854    0.3356 H   0  0  0  0  0  0  0  0  0  0  0  0
   -2.1911   -2.2285   -2.2462 C   0  0  0  0  0  0  0  0  0  0  0  0
   -2.6508   -3.0088   -2.8890 H   0  0  0  0  0  0  0  0  0  0  0  0
   -1.1910   -2.5813   -1.9367 H   0  0  0  0  0  0  0  0  0  0  0  0
   -2.0482   -1.3237   -2.8720 H   0  0  0  0  0  0  0  0  0  0  0  0
   -0.4721    1.8761    0.9293 H   0  0  0  0  0  0  0  0  0  0  0  0
  1 30  1  0  0  0  0
  2 54  1  0  0  0  0
  3 10  1  0  0  0  0
  4 51  1  0  0  0  0
  4 43  1  0  0  0  0
  4  5  1  0  0  0  0
  5  3  1  0  0  0  0
  5 80  1  0  0  0  0
  6  8  1  0  0  0  0
  6  9  1  0  0  0  0
  6  3  1  0  0  0  0
  7  6  1  0  0  0  0
 10 12  1  0  0  0  0
 10 13  1  0  0  0  0
 10 11  1  0  0  0  0
 14 16  1  0  0  0  0
 14  1  1  0  0  0  0
 14  3  1  0  0  0  0
 15 14  1  0  0  0  0
 17 18  1  0  0  0  0
 17  1  1  0  0  0  0
 18 20  1  0  0  0  0
 18 21  1  0  0  0  0
 19 18  1  0  0  0  0
 22 17  1  0  0  0  0
 22 24  1  0  0  0  0
 23 22  1  0  0  0  0
 25 22  1  0  0  0  0
 26 29  1  0  0  0  0
 26 17  1  0  0  0  0
 27 26  1  0  0  0  0
 28 26  1  0  0  0  0
 30 39  1  0  0  0  0
 30 31  1  0  0  0  0
 31 33  1  0  0  0  0
 31 32  1  0  0  0  0
 34 31  1  0  0  0  0
 35 30  1  0  0  0  0
 35 36  1  0  0  0  0
 37 35  1  0  0  0  0
 38 35  1  0  0  0  0
 39 42  1  0  0  0  0
 39 40  1  0  0  0  0
 41 39  1  0  0  0  0
 43 45  1  0  0  0  0
 44 43  1  0  0  0  0
 46 43  1  0  0  0  0
 47  4  1  0  0  0  0
 48 47  1  0  0  0  0
 49 47  1  0  0  0  0
 50 47  1  0  0  0  0
 51 52  1  0  0  0  0
 51  2  1  0  0  0  0
 53 51  1  0  0  0  0
 54 63  1  0  0  0  0
 54 55  1  0  0  0  0
 55 57  1  0  0  0  0
 55 56  1  0  0  0  0
 58 55  1  0  0  0  0
 59 54  1  0  0  0  0
 59 60  1  0  0  0  0
 61 59  1  0  0  0  0
 62 59  1  0  0  0  0
 63 66  1  0  0  0  0
 63 64  1  0  0  0  0
 65 63  1  0  0  0  0
 67 72  1  0  0  0  0
 67  2  1  0  0  0  0
 68 67  1  0  0  0  0
 68 71  1  0  0  0  0
 69 68  1  0  0  0  0
 70 68  1  0  0  0  0
 72 75  1  0  0  0  0
 72 74  1  0  0  0  0
 73 72  1  0  0  0  0
 76 78  1  0  0  0  0
 76 67  1  0  0  0  0
 77 76  1  0  0  0  0
 79 76  1  0  0  0  0
M  END
