1,2,3
 OpenBabel05122313063D

 59 63  0  0  0  0  0  0  0  0999 V2000
    2.3812   -0.0034    0.4397 P   0  0  0  0  0  0  0  0  0  0  0  0
   -1.8395   -1.0881    0.2140 P   0  0  0  0  0  0  0  0  0  0  0  0
    0.4745   -1.5594    1.5617 N   0  0  0  0  0  0  0  0  0  0  0  0
    3.4034   -1.1434   -0.5699 C   0  0  0  0  0  0  0  0  0  0  0  0
   -2.9523   -0.0693    1.2426 C   0  0  0  0  0  0  0  0  0  0  0  0
   -0.4103   -2.5598    1.9358 C   0  0  0  0  0  0  0  0  0  0  0  0
   -2.1418   -1.1738   -2.5621 C   0  0  0  0  0  0  0  0  0  0  0  0
   -1.1429   -0.7081   -2.5701 H   0  0  0  0  0  0  0  0  0  0  0  0
    3.0319   -2.5063   -0.6098 C   0  0  0  0  0  0  0  0  0  0  0  0
    2.1450   -2.8459   -0.0532 H   0  0  0  0  0  0  0  0  0  0  0  0
    1.5661   -1.5954    2.4154 C   0  0  0  0  0  3  0  0  0  0  0  0
   -2.7635   -1.4282   -1.3234 C   0  0  0  0  0  0  0  0  0  0  0  0
    2.6343   -0.5665    2.2015 C   0  0  0  0  0  0  0  0  0  0  0  0
    3.6606   -0.9571    2.3590 H   0  0  0  0  0  0  0  0  0  0  0  0
    2.5056    0.3339    2.8448 H   0  0  0  0  0  0  0  0  0  0  0  0
    0.1198   -3.2351    3.0413 C   0  0  0  0  0  0  0  0  0  0  0  0
   -0.3440   -4.0785    3.5671 H   0  0  0  0  0  0  0  0  0  0  0  0
   -4.5155    1.6432    2.8326 C   0  0  0  0  0  0  0  0  0  0  0  0
   -5.1270    2.3138    3.4555 H   0  0  0  0  0  0  0  0  0  0  0  0
   -2.8225   -1.4715   -3.7536 C   0  0  0  0  0  0  0  0  0  0  0  0
   -2.3405   -1.2661   -4.7216 H   0  0  0  0  0  0  0  0  0  0  0  0
    4.5201   -0.7011   -1.3062 C   0  0  0  0  0  0  0  0  0  0  0  0
    4.8052    0.3615   -1.2868 H   0  0  0  0  0  0  0  0  0  0  0  0
    1.3787   -2.6286    3.3395 C   0  0  0  0  0  0  0  0  0  0  0  0
    2.0670   -2.9068    4.1467 H   0  0  0  0  0  0  0  0  0  0  0  0
   -4.7346   -2.2699   -2.4762 C   0  0  0  0  0  0  0  0  0  0  0  0
   -5.7491   -2.6957   -2.4438 H   0  0  0  0  0  0  0  0  0  0  0  0
   -4.0652   -1.9713   -1.2818 C   0  0  0  0  0  0  0  0  0  0  0  0
   -4.5570   -2.1524   -0.3131 H   0  0  0  0  0  0  0  0  0  0  0  0
   -1.6524   -2.7145    1.1117 C   0  0  0  0  0  0  0  0  0  0  0  0
   -2.5594   -2.9497    1.7064 H   0  0  0  0  0  0  0  0  0  0  0  0
   -1.5618   -3.4933    0.3214 H   0  0  0  0  0  0  0  0  0  0  0  0
    3.7922   -3.4153   -1.3577 C   0  0  0  0  0  0  0  0  0  0  0  0
    3.5031   -4.4771   -1.3787 H   0  0  0  0  0  0  0  0  0  0  0  0
   -2.8993   -0.1682    2.6499 C   0  0  0  0  0  0  0  0  0  0  0  0
   -2.2332   -0.9030    3.1296 H   0  0  0  0  0  0  0  0  0  0  0  0
    4.9091   -2.9736   -2.0869 C   0  0  0  0  0  0  0  0  0  0  0  0
    5.4980   -3.6889   -2.6809 H   0  0  0  0  0  0  0  0  0  0  0  0
    3.1394    1.6401    0.2477 C   0  0  0  0  0  0  0  0  0  0  0  0
    5.2675   -1.6169   -2.0630 C   0  0  0  0  0  0  0  0  0  0  0  0
    6.1380   -1.2650   -2.6375 H   0  0  0  0  0  0  0  0  0  0  0  0
   -4.5554    1.7517    1.4335 C   0  0  0  0  0  0  0  0  0  0  0  0
   -5.1862    2.5138    0.9522 H   0  0  0  0  0  0  0  0  0  0  0  0
   -4.1128   -2.0214   -3.7124 C   0  0  0  0  0  0  0  0  0  0  0  0
   -4.6429   -2.2538   -4.6488 H   0  0  0  0  0  0  0  0  0  0  0  0
   -3.6858    0.6844    3.4378 C   0  0  0  0  0  0  0  0  0  0  0  0
   -3.6457    0.6013    4.5346 H   0  0  0  0  0  0  0  0  0  0  0  0
   -3.7743    0.9032    0.6372 C   0  0  0  0  0  0  0  0  0  0  0  0
   -3.7865    1.0136   -0.4577 H   0  0  0  0  0  0  0  0  0  0  0  0
    4.2406    4.1931   -0.1512 C   0  0  0  0  0  0  0  0  0  0  0  0
    4.6698    5.1952   -0.3035 H   0  0  0  0  0  0  0  0  0  0  0  0
    2.6463    2.4675   -0.7842 C   0  0  0  0  0  0  0  0  0  0  0  0
    1.8188    2.0974   -1.4102 H   0  0  0  0  0  0  0  0  0  0  0  0
    3.2016    3.7401   -0.9803 C   0  0  0  0  0  0  0  0  0  0  0  0
    2.8092    4.3860   -1.7801 H   0  0  0  0  0  0  0  0  0  0  0  0
    4.1847    2.0946    1.0785 C   0  0  0  0  0  0  0  0  0  0  0  0
    4.5784    1.4526    1.8812 H   0  0  0  0  0  0  0  0  0  0  0  0
    4.7309    3.3711    0.8771 C   0  0  0  0  0  0  0  0  0  0  0  0
    5.5448    3.7259    1.5276 H   0  0  0  0  0  0  0  0  0  0  0  0
  1 13  1  0  0  0  0
  2 30  1  0  0  0  0
  2  5  1  0  0  0  0
  3  6  2  0  0  0  0
  3 11  1  0  0  0  0
  4  1  1  0  0  0  0
  5 35  1  0  0  0  0
  6 16  1  0  0  0  0
  7 12  1  0  0  0  0
  8  7  1  0  0  0  0
  9  4  1  0  0  0  0
  9 10  1  0  0  0  0
 11 24  1  0  0  0  0
 12 28  2  0  0  0  0
 12  2  1  0  0  0  0
 13 14  1  0  0  0  0
 13 11  1  0  0  0  0
 13 15  1  0  0  0  0
 16 24  2  0  0  0  0
 16 17  1  0  0  0  0
 18 46  1  0  0  0  0
 18 19  1  0  0  0  0
 20 44  1  0  0  0  0
 20  7  2  0  0  0  0
 21 20  1  0  0  0  0
 22 23  1  0  0  0  0
 22  4  2  0  0  0  0
 24 25  1  0  0  0  0
 26 27  1  0  0  0  0
 26 28  1  0  0  0  0
 28 29  1  0  0  0  0
 30 31  1  0  0  0  0
 30  6  1  0  0  0  0
 32 30  1  0  0  0  0
 33  9  2  0  0  0  0
 34 33  1  0  0  0  0
 35 36  1  0  0  0  0
 35 46  2  0  0  0  0
 37 40  2  0  0  0  0
 37 33  1  0  0  0  0
 38 37  1  0  0  0  0
 39  1  1  0  0  0  0
 39 56  1  0  0  0  0
 40 22  1  0  0  0  0
 41 40  1  0  0  0  0
 42 18  2  0  0  0  0
 43 42  1  0  0  0  0
 44 26  2  0  0  0  0
 45 44  1  0  0  0  0
 46 47  1  0  0  0  0
 48  5  2  0  0  0  0
 48 42  1  0  0  0  0
 49 48  1  0  0  0  0
 50 58  1  0  0  0  0
 51 50  1  0  0  0  0
 52 39  2  0  0  0  0
 53 52  1  0  0  0  0
 54 52  1  0  0  0  0
 54 50  2  0  0  0  0
 55 54  1  0  0  0  0
 56 57  1  0  0  0  0
 58 56  2  0  0  0  0
 58 59  1  0  0  0  0
M  END
