1,2,3
 OpenBabel05122313063D

 68 68  0  0  1  0  0  0  0  0999 V2000
   -2.1822   -0.3475   -0.2047 P   0  0  0  0  0  0  0  0  0  0  0  0
    2.2176   -0.1804   -0.0387 P   0  0  0  0  0  0  0  0  0  0  0  0
    0.0218    1.3732   -0.8953 N   0  0  0  0  0  2  0  0  0  0  0  0
    0.0122    3.7544   -2.3714 N   0  0  0  0  0  0  0  0  0  0  0  0
    2.3567    1.6779   -0.2318 C   0  0  0  0  0  0  0  0  0  0  0  0
    2.3856    2.0743    0.8062 H   0  0  0  0  0  0  0  0  0  0  0  0
    3.2803    2.0254   -0.7376 H   0  0  0  0  0  0  0  0  0  0  0  0
    1.1294    2.1663   -0.9437 C   0  0  1  0  0  3  0  0  0  0  0  0
    1.0924    3.3606   -1.6870 C   0  0  0  0  0  0  0  0  0  0  0  0
    1.9814    4.0137   -1.7201 H   0  0  0  0  0  0  0  0  0  0  0  0
   -1.0416    2.9296   -2.3676 C   0  0  0  0  0  0  0  0  0  0  0  0
   -1.9236    3.2276   -2.9599 H   0  0  0  0  0  0  0  0  0  0  0  0
   -1.0569    1.7175   -1.6525 C   0  0  0  0  0  0  0  0  0  0  0  0
   -2.1719    0.7238   -1.7359 C   0  0  0  0  0  0  0  0  0  0  0  0
   -1.9459    0.0315   -2.5771 H   0  0  0  0  0  0  0  0  0  0  0  0
   -3.1466    1.1974   -1.9642 H   0  0  0  0  0  0  0  0  0  0  0  0
   -2.9160   -2.0030   -0.8335 C   0  0  0  0  0  0  0  0  0  0  0  0
   -4.0951   -1.7771   -1.8011 C   0  0  0  0  0  0  0  0  0  0  0  0
   -3.7842   -1.2571   -2.7285 H   0  0  0  0  0  0  0  0  0  0  0  0
   -4.9328   -1.2173   -1.3526 H   0  0  0  0  0  0  0  0  0  0  0  0
   -4.4900   -2.7675   -2.1090 H   0  0  0  0  0  0  0  0  0  0  0  0
   -3.3667   -2.8488    0.3726 C   0  0  0  0  0  0  0  0  0  0  0  0
   -3.6557   -3.8582    0.0138 H   0  0  0  0  0  0  0  0  0  0  0  0
   -4.2498   -2.4214    0.8836 H   0  0  0  0  0  0  0  0  0  0  0  0
   -2.5568   -2.9837    1.1157 H   0  0  0  0  0  0  0  0  0  0  0  0
   -1.8234   -2.7778   -1.5952 C   0  0  0  0  0  0  0  0  0  0  0  0
   -2.2874   -3.6821   -2.0410 H   0  0  0  0  0  0  0  0  0  0  0  0
   -1.0039   -3.1128   -0.9344 H   0  0  0  0  0  0  0  0  0  0  0  0
   -1.3823   -2.1929   -2.4276 H   0  0  0  0  0  0  0  0  0  0  0  0
   -3.4152    0.5429    0.9638 C   0  0  0  0  0  0  0  0  0  0  0  0
   -3.2297   -0.0395    2.3788 C   0  0  0  0  0  0  0  0  0  0  0  0
   -3.8176    0.5629    3.1028 H   0  0  0  0  0  0  0  0  0  0  0  0
   -2.1703   -0.0274    2.6943 H   0  0  0  0  0  0  0  0  0  0  0  0
   -3.5898   -1.0823    2.4503 H   0  0  0  0  0  0  0  0  0  0  0  0
   -4.8925    0.4454    0.5520 C   0  0  0  0  0  0  0  0  0  0  0  0
   -5.4921    1.0791    1.2392 H   0  0  0  0  0  0  0  0  0  0  0  0
   -5.2932   -0.5822    0.6283 H   0  0  0  0  0  0  0  0  0  0  0  0
   -5.0743    0.8220   -0.4743 H   0  0  0  0  0  0  0  0  0  0  0  0
   -3.0178    2.0344    0.9501 C   0  0  0  0  0  0  0  0  0  0  0  0
   -3.2992    2.5306    0.0007 H   0  0  0  0  0  0  0  0  0  0  0  0
   -1.9371    2.1920    1.1146 H   0  0  0  0  0  0  0  0  0  0  0  0
   -3.5664    2.5578    1.7611 H   0  0  0  0  0  0  0  0  0  0  0  0
    2.8089   -0.9186   -1.7074 C   0  0  0  0  0  0  0  0  0  0  0  0
    4.3189   -0.7511   -1.9411 C   0  0  0  0  0  0  0  0  0  0  0  0
    4.9294   -1.3527   -1.2429 H   0  0  0  0  0  0  0  0  0  0  0  0
    4.6446    0.3064   -1.8760 H   0  0  0  0  0  0  0  0  0  0  0  0
    4.5595   -1.1018   -2.9662 H   0  0  0  0  0  0  0  0  0  0  0  0
    2.4191   -2.4088   -1.7527 C   0  0  0  0  0  0  0  0  0  0  0  0
    2.6903   -2.8195   -2.7473 H   0  0  0  0  0  0  0  0  0  0  0  0
    1.3281   -2.5409   -1.6181 H   0  0  0  0  0  0  0  0  0  0  0  0
    2.9381   -3.0161   -0.9900 H   0  0  0  0  0  0  0  0  0  0  0  0
    2.0582   -0.1936   -2.8418 C   0  0  0  0  0  0  0  0  0  0  0  0
    2.3376    0.8747   -2.9292 H   0  0  0  0  0  0  0  0  0  0  0  0
    0.9608   -0.2697   -2.7205 H   0  0  0  0  0  0  0  0  0  0  0  0
    2.3253   -0.6792   -3.8029 H   0  0  0  0  0  0  0  0  0  0  0  0
    3.4609   -0.5903    1.3599 C   0  0  0  0  0  0  0  0  0  0  0  0
    4.7759    0.2013    1.2299 C   0  0  0  0  0  0  0  0  0  0  0  0
    5.4355   -0.0717    2.0801 H   0  0  0  0  0  0  0  0  0  0  0  0
    4.6143    1.2957    1.2891 H   0  0  0  0  0  0  0  0  0  0  0  0
    5.3309   -0.0185    0.3022 H   0  0  0  0  0  0  0  0  0  0  0  0
    2.8038   -0.2088    2.6990 C   0  0  0  0  0  0  0  0  0  0  0  0
    3.5083   -0.4626    3.5179 H   0  0  0  0  0  0  0  0  0  0  0  0
    1.8610   -0.7579    2.8773 H   0  0  0  0  0  0  0  0  0  0  0  0
    2.5997    0.8777    2.7697 H   0  0  0  0  0  0  0  0  0  0  0  0
    3.7378   -2.1051    1.3752 C   0  0  0  0  0  0  0  0  0  0  0  0
    4.3241   -2.4397    0.4993 H   0  0  0  0  0  0  0  0  0  0  0  0
    2.8048   -2.6999    1.4267 H   0  0  0  0  0  0  0  0  0  0  0  0
    4.3350   -2.3480    2.2784 H   0  0  0  0  0  0  0  0  0  0  0  0
  1 30  1  0  0  0  0
  2 56  1  0  0  0  0
  4 11  1  0  0  0  0
  4  9  2  0  0  0  0
  5  2  1  0  0  0  0
  5  6  1  0  0  0  0
  7  5  1  0  0  0  0
  8  3  1  0  0  0  0
  8  5  1  6  0  0  0
  9  8  1  0  0  0  0
 10  9  1  0  0  0  0
 11 13  2  0  0  0  0
 12 11  1  0  0  0  0
 13  3  1  0  0  0  0
 14 13  1  0  0  0  0
 14  1  1  0  0  0  0
 15 14  1  0  0  0  0
 16 14  1  0  0  0  0
 17  1  1  0  0  0  0
 17 22  1  0  0  0  0
 18 20  1  0  0  0  0
 18 17  1  0  0  0  0
 19 18  1  0  0  0  0
 21 18  1  0  0  0  0
 22 24  1  0  0  0  0
 22 25  1  0  0  0  0
 23 22  1  0  0  0  0
 26 28  1  0  0  0  0
 26 17  1  0  0  0  0
 27 26  1  0  0  0  0
 29 26  1  0  0  0  0
 30 31  1  0  0  0  0
 31 34  1  0  0  0  0
 31 33  1  0  0  0  0
 31 32  1  0  0  0  0
 35 37  1  0  0  0  0
 35 30  1  0  0  0  0
 35 36  1  0  0  0  0
 38 35  1  0  0  0  0
 39 30  1  0  0  0  0
 39 41  1  0  0  0  0
 39 42  1  0  0  0  0
 40 39  1  0  0  0  0
 43  2  1  0  0  0  0
 44 46  1  0  0  0  0
 44 43  1  0  0  0  0
 44 45  1  0  0  0  0
 47 44  1  0  0  0  0
 48 43  1  0  0  0  0
 48 50  1  0  0  0  0
 48 51  1  0  0  0  0
 49 48  1  0  0  0  0
 52 54  1  0  0  0  0
 52 43  1  0  0  0  0
 53 52  1  0  0  0  0
 55 52  1  0  0  0  0
 56 65  1  0  0  0  0
 56 61  1  0  0  0  0
 57 59  1  0  0  0  0
 57 56  1  0  0  0  0
 57 58  1  0  0  0  0
 60 57  1  0  0  0  0
 61 64  1  0  0  0  0
 61 63  1  0  0  0  0
 61 62  1  0  0  0  0
 65 67  1  0  0  0  0
 65 68  1  0  0  0  0
 66 65  1  0  0  0  0
M  END
