1,12,36
 OpenBabel05122313063D

 69 70  0  0  1  0  0  0  0  0999 V2000
   -0.4653   -0.0392   -0.0152 N   0  0  0  0  0  2  0  0  0  0  0  0
   -1.2169    0.9877    0.5128 C   0  0  2  0  0  3  0  0  0  0  0  0
   -2.6102    0.9562    0.5280 C   0  0  0  0  0  0  0  0  0  0  0  0
   -3.1417    1.8056    0.9753 H   0  0  0  0  0  0  0  0  0  0  0  0
   -3.3201   -0.1490   -0.0131 C   0  0  0  0  0  0  0  0  0  0  0  0
   -2.5288   -1.1909   -0.5667 C   0  0  0  0  0  0  0  0  0  0  0  0
   -2.9936   -2.0729   -1.0251 H   0  0  0  0  0  0  0  0  0  0  0  0
   -1.1371   -1.1117   -0.5560 C   0  0  0  0  0  0  0  0  0  0  0  0
   -0.4394    2.1581    1.0484 C   0  0  0  0  0  0  0  0  0  0  0  0
   -0.0890    1.9242    2.0787 H   0  0  0  0  0  0  0  0  0  0  0  0
   -1.0433    3.0873    1.0666 H   0  0  0  0  0  0  0  0  0  0  0  0
    1.1485    2.2166    0.0781 P   0  0  0  0  0  0  0  0  0  0  0  0
    0.7723    3.1589   -1.4990 C   0  0  0  0  0  0  0  0  0  0  0  0
    1.6975    2.9932   -2.0943 H   0  0  0  0  0  0  0  0  0  0  0  0
    0.5247    4.6602   -1.3274 C   0  0  0  0  0  0  0  0  0  0  0  0
    0.2605    5.1123   -2.3072 H   0  0  0  0  0  0  0  0  0  0  0  0
    1.4120    5.1989   -0.9451 H   0  0  0  0  0  0  0  0  0  0  0  0
   -0.3213    4.8622   -0.6371 H   0  0  0  0  0  0  0  0  0  0  0  0
   -0.3816    2.4831   -2.2532 C   0  0  0  0  0  0  0  0  0  0  0  0
   -1.3469    2.6036   -1.7196 H   0  0  0  0  0  0  0  0  0  0  0  0
   -0.1841    1.4045   -2.3957 H   0  0  0  0  0  0  0  0  0  0  0  0
   -0.4939    2.9480   -3.2551 H   0  0  0  0  0  0  0  0  0  0  0  0
    2.3598    3.2050    1.1004 C   0  0  0  0  0  0  0  0  0  0  0  0
    2.6005    2.4364    1.8690 H   0  0  0  0  0  0  0  0  0  0  0  0
    1.8382    4.4485    1.8263 C   0  0  0  0  0  0  0  0  0  0  0  0
    2.6139    4.8208    2.5291 H   0  0  0  0  0  0  0  0  0  0  0  0
    0.9345    4.2275    2.4286 H   0  0  0  0  0  0  0  0  0  0  0  0
    1.5935    5.2798    1.1374 H   0  0  0  0  0  0  0  0  0  0  0  0
    3.6225    3.4592    0.2668 C   0  0  0  0  0  0  0  0  0  0  0  0
    3.4600    4.2329   -0.5123 H   0  0  0  0  0  0  0  0  0  0  0  0
    3.9601    2.5336   -0.2437 H   0  0  0  0  0  0  0  0  0  0  0  0
    4.4503    3.8121    0.9162 H   0  0  0  0  0  0  0  0  0  0  0  0
   -0.2663   -2.1898   -1.1335 C   0  0  0  0  0  0  0  0  0  0  0  0
    0.0631   -1.8881   -2.1524 H   0  0  0  0  0  0  0  0  0  0  0  0
   -0.7955   -3.1623   -1.1972 H   0  0  0  0  0  0  0  0  0  0  0  0
    1.3270   -2.1933   -0.1561 P   0  0  0  0  0  0  0  0  0  0  0  0
    2.5136   -3.1222   -1.2728 C   0  0  0  0  0  0  0  0  0  0  0  0
    2.3164   -2.6162   -2.2427 H   0  0  0  0  0  0  0  0  0  0  0  0
    2.2312   -4.6197   -1.4056 C   0  0  0  0  0  0  0  0  0  0  0  0
    2.8760   -5.0614   -2.1948 H   0  0  0  0  0  0  0  0  0  0  0  0
    1.1781   -4.8279   -1.6854 H   0  0  0  0  0  0  0  0  0  0  0  0
    2.4470   -5.1681   -0.4655 H   0  0  0  0  0  0  0  0  0  0  0  0
    3.9695   -2.8068   -0.9061 C   0  0  0  0  0  0  0  0  0  0  0  0
    4.2544   -3.2070    0.0875 H   0  0  0  0  0  0  0  0  0  0  0  0
    4.1345   -1.7116   -0.9047 H   0  0  0  0  0  0  0  0  0  0  0  0
    4.6557   -3.2533   -1.6562 H   0  0  0  0  0  0  0  0  0  0  0  0
    0.9567   -3.3362    1.2864 C   0  0  0  0  0  0  0  0  0  0  0  0
    0.6872   -4.3139    0.8272 H   0  0  0  0  0  0  0  0  0  0  0  0
   -0.2425   -2.8244    2.0969 C   0  0  0  0  0  0  0  0  0  0  0  0
   -0.4237   -3.5007    2.9590 H   0  0  0  0  0  0  0  0  0  0  0  0
   -1.1741   -2.7876    1.4988 H   0  0  0  0  0  0  0  0  0  0  0  0
   -0.0383   -1.8081    2.4887 H   0  0  0  0  0  0  0  0  0  0  0  0
    2.1963   -3.5174    2.1732 C   0  0  0  0  0  0  0  0  0  0  0  0
    2.5370   -2.5357    2.5591 H   0  0  0  0  0  0  0  0  0  0  0  0
    3.0360   -3.9961    1.6324 H   0  0  0  0  0  0  0  0  0  0  0  0
    1.9484   -4.1642    3.0412 H   0  0  0  0  0  0  0  0  0  0  0  0
   -4.6880   -0.2044   -0.0062 N   0  0  0  0  0  0  0  0  0  0  0  0
   -5.4542   -1.3599   -0.4648 C   0  0  0  0  0  0  0  0  0  0  0  0
   -5.4136   -1.4561   -1.5767 H   0  0  0  0  0  0  0  0  0  0  0  0
   -5.0467   -2.3033   -0.0414 H   0  0  0  0  0  0  0  0  0  0  0  0
   -6.8776   -1.0641    0.0266 C   0  0  0  0  0  0  0  0  0  0  0  0
   -7.6530   -1.5521   -0.5947 H   0  0  0  0  0  0  0  0  0  0  0  0
   -7.0003   -1.4307    1.0673 H   0  0  0  0  0  0  0  0  0  0  0  0
   -6.9421    0.4694   -0.0039 C   0  0  0  0  0  0  0  0  0  0  0  0
   -7.7453    0.8913    0.6303 H   0  0  0  0  0  0  0  0  0  0  0  0
   -7.1122    0.8237   -1.0422 H   0  0  0  0  0  0  0  0  0  0  0  0
   -5.5406    0.8838    0.4643 C   0  0  0  0  0  0  0  0  0  0  0  0
   -5.2207    1.8574    0.0341 H   0  0  0  0  0  0  0  0  0  0  0  0
   -5.4899    0.9848    1.5753 H   0  0  0  0  0  0  0  0  0  0  0  0
  1  2  1  0  0  0  0
  2  3  1  0  0  0  0
  2  9  1  6  0  0  0
  3  4  1  0  0  0  0
  5 57  1  0  0  0  0
  5  3  2  0  0  0  0
  6  8  2  0  0  0  0
  6  5  1  0  0  0  0
  7  6  1  0  0  0  0
  8  1  1  0  0  0  0
  9 11  1  0  0  0  0
  9 10  1  0  0  0  0
 12  9  1  0  0  0  0
 12 23  1  0  0  0  0
 13 15  1  0  0  0  0
 13 12  1  0  0  0  0
 14 13  1  0  0  0  0
 15 17  1  0  0  0  0
 15 18  1  0  0  0  0
 16 15  1  0  0  0  0
 19 20  1  0  0  0  0
 19 13  1  0  0  0  0
 21 19  1  0  0  0  0
 22 19  1  0  0  0  0
 23 25  1  0  0  0  0
 23 24  1  0  0  0  0
 25 27  1  0  0  0  0
 25 26  1  0  0  0  0
 28 25  1  0  0  0  0
 29 32  1  0  0  0  0
 29 23  1  0  0  0  0
 30 29  1  0  0  0  0
 31 29  1  0  0  0  0
 33  8  1  0  0  0  0
 33 36  1  0  0  0  0
 34 33  1  0  0  0  0
 35 33  1  0  0  0  0
 36 47  1  0  0  0  0
 37 43  1  0  0  0  0
 37 36  1  0  0  0  0
 38 37  1  0  0  0  0
 39 37  1  0  0  0  0
 39 42  1  0  0  0  0
 40 39  1  0  0  0  0
 41 39  1  0  0  0  0
 43 45  1  0  0  0  0
 43 44  1  0  0  0  0
 46 43  1  0  0  0  0
 47 49  1  0  0  0  0
 47 53  1  0  0  0  0
 48 47  1  0  0  0  0
 49 52  1  0  0  0  0
 49 50  1  0  0  0  0
 51 49  1  0  0  0  0
 53 54  1  0  0  0  0
 53 56  1  0  0  0  0
 55 53  1  0  0  0  0
 57 67  1  0  0  0  0
 58 60  1  0  0  0  0
 58 57  1  0  0  0  0
 58 61  1  0  0  0  0
 59 58  1  0  0  0  0
 61 63  1  0  0  0  0
 62 61  1  0  0  0  0
 64 61  1  0  0  0  0
 64 67  1  0  0  0  0
 64 65  1  0  0  0  0
 66 64  1  0  0  0  0
 67 69  1  0  0  0  0
 68 67  1  0  0  0  0
M  END
