1,2,3
 OpenBabel05122313063D

 78 77  0  0  1  0  0  0  0  0999 V2000
   -2.2673   -0.0857    0.2558 P   0  0  0  0  0  0  0  0  0  0  0  0
    1.1621   -1.4402    0.5775 P   0  0  0  0  0  0  0  0  0  0  0  0
    0.1296    1.4265   -0.1678 N   0  0  0  0  0  2  0  0  0  0  0  0
    1.4220    1.8460   -0.2627 N   0  0  0  0  0  0  0  0  0  0  0  0
   -0.8252    2.2818    0.1436 C   0  0  2  0  0  3  0  0  0  0  0  0
   -2.2348    1.7661    0.0775 C   0  0  0  0  0  0  0  0  0  0  0  0
    2.3654    1.1556    0.2931 C   0  0  0  0  0  0  0  0  0  0  0  0
    2.1011    0.0345    1.2721 C   0  0  0  0  0  0  0  0  0  0  0  0
   -0.5668    3.7736    0.4241 C   0  0  0  0  0  0  0  0  0  0  0  0
   -1.8673    4.5085    0.8086 C   0  0  0  0  0  0  0  0  0  0  0  0
   -0.0277    4.4016   -0.8870 C   0  0  0  0  0  0  0  0  0  0  0  0
    0.4373    3.9719    1.5829 C   0  0  0  0  0  0  0  0  0  0  0  0
    3.8027    1.6161    0.0351 C   0  0  0  0  0  0  0  0  0  0  0  0
    3.8253    2.7056   -1.0490 C   0  0  0  0  0  0  0  0  0  0  0  0
    4.3822    2.1794    1.3546 C   0  0  0  0  0  0  0  0  0  0  0  0
    4.6603    0.4243   -0.4428 C   0  0  0  0  0  0  0  0  0  0  0  0
   -2.5307   -0.2747    2.1162 C   0  0  0  0  0  0  0  0  0  0  0  0
   -1.4822    0.5250    2.9019 C   0  0  0  0  0  0  0  0  0  0  0  0
   -3.9359    0.1179    2.5939 C   0  0  0  0  0  0  0  0  0  0  0  0
   -3.7849   -0.7661   -0.5998 C   0  0  0  0  0  0  0  0  0  0  0  0
   -4.1365   -2.1584   -0.0613 C   0  0  0  0  0  0  0  0  0  0  0  0
   -4.9745    0.1946   -0.6906 C   0  0  0  0  0  0  0  0  0  0  0  0
    0.4397   -2.2930    2.0926 C   0  0  0  0  0  0  0  0  0  0  0  0
    1.2678   -2.2610    3.3829 C   0  0  0  0  0  0  0  0  0  0  0  0
   -0.0482   -3.7017    1.7276 C   0  0  0  0  0  0  0  0  0  0  0  0
    2.5502   -2.5181   -0.0966 C   0  0  0  0  0  0  0  0  0  0  0  0
    2.1049   -3.6407   -1.0382 C   0  0  0  0  0  0  0  0  0  0  0  0
    3.5141   -3.0303    0.9803 C   0  0  0  0  0  0  0  0  0  0  0  0
   -2.5920    1.9368   -0.9652 H   0  0  0  0  0  0  0  0  0  0  0  0
   -2.9107    2.2773    0.7858 H   0  0  0  0  0  0  0  0  0  0  0  0
    3.0366   -0.3101    1.7487 H   0  0  0  0  0  0  0  0  0  0  0  0
    1.4483    0.4340    2.0758 H   0  0  0  0  0  0  0  0  0  0  0  0
   -1.6402    5.5828    0.9577 H   0  0  0  0  0  0  0  0  0  0  0  0
   -2.6386    4.4403    0.0170 H   0  0  0  0  0  0  0  0  0  0  0  0
   -2.3001    4.1294    1.7573 H   0  0  0  0  0  0  0  0  0  0  0  0
    0.1666    5.4815   -0.7254 H   0  0  0  0  0  0  0  0  0  0  0  0
   -0.7696    4.2956   -1.7029 H   0  0  0  0  0  0  0  0  0  0  0  0
    0.9085    3.9111   -1.2091 H   0  0  0  0  0  0  0  0  0  0  0  0
    0.5330    5.0541    1.8055 H   0  0  0  0  0  0  0  0  0  0  0  0
    1.4398    3.5854    1.3295 H   0  0  0  0  0  0  0  0  0  0  0  0
    0.0878    3.4671    2.5070 H   0  0  0  0  0  0  0  0  0  0  0  0
    4.8737    2.9907   -1.2691 H   0  0  0  0  0  0  0  0  0  0  0  0
    3.3481    2.3341   -1.9761 H   0  0  0  0  0  0  0  0  0  0  0  0
    3.2789    3.6130   -0.7276 H   0  0  0  0  0  0  0  0  0  0  0  0
    5.4201    2.5317    1.1867 H   0  0  0  0  0  0  0  0  0  0  0  0
    3.7865    3.0403    1.7208 H   0  0  0  0  0  0  0  0  0  0  0  0
    4.4165    1.4161    2.1587 H   0  0  0  0  0  0  0  0  0  0  0  0
    5.6957    0.7714   -0.6343 H   0  0  0  0  0  0  0  0  0  0  0  0
    4.2435    0.0062   -1.3797 H   0  0  0  0  0  0  0  0  0  0  0  0
    4.7213   -0.3854    0.3114 H   0  0  0  0  0  0  0  0  0  0  0  0
   -2.3877   -1.3618    2.3022 H   0  0  0  0  0  0  0  0  0  0  0  0
   -1.4922    0.2292    3.9711 H   0  0  0  0  0  0  0  0  0  0  0  0
   -1.7005    1.6111    2.8577 H   0  0  0  0  0  0  0  0  0  0  0  0
   -0.4565    0.3852    2.5172 H   0  0  0  0  0  0  0  0  0  0  0  0
   -3.9903    0.0188    3.6985 H   0  0  0  0  0  0  0  0  0  0  0  0
   -4.7312   -0.5155    2.1630 H   0  0  0  0  0  0  0  0  0  0  0  0
   -4.1692    1.1752    2.3519 H   0  0  0  0  0  0  0  0  0  0  0  0
   -3.3681   -0.8894   -1.6224 H   0  0  0  0  0  0  0  0  0  0  0  0
   -4.9004   -2.6170   -0.7222 H   0  0  0  0  0  0  0  0  0  0  0  0
   -3.2464   -2.8174   -0.0848 H   0  0  0  0  0  0  0  0  0  0  0  0
   -4.5582   -2.1405    0.9642 H   0  0  0  0  0  0  0  0  0  0  0  0
   -5.7698   -0.2805   -1.3023 H   0  0  0  0  0  0  0  0  0  0  0  0
   -4.6977    1.1373   -1.2012 H   0  0  0  0  0  0  0  0  0  0  0  0
   -5.4207    0.4440    0.2918 H   0  0  0  0  0  0  0  0  0  0  0  0
   -0.4611   -1.6767    2.2643 H   0  0  0  0  0  0  0  0  0  0  0  0
    0.6561   -2.6686    4.2154 H   0  0  0  0  0  0  0  0  0  0  0  0
    2.1814   -2.8802    3.3166 H   0  0  0  0  0  0  0  0  0  0  0  0
    1.5694   -1.2354    3.6743 H   0  0  0  0  0  0  0  0  0  0  0  0
   -0.7152   -4.0844    2.5283 H   0  0  0  0  0  0  0  0  0  0  0  0
   -0.6064   -3.6960    0.7687 H   0  0  0  0  0  0  0  0  0  0  0  0
    0.7950   -4.4141    1.6324 H   0  0  0  0  0  0  0  0  0  0  0  0
    3.0644   -1.7669   -0.7282 H   0  0  0  0  0  0  0  0  0  0  0  0
    3.0116   -4.0937   -1.4917 H   0  0  0  0  0  0  0  0  0  0  0  0
    1.4622   -3.2494   -1.8467 H   0  0  0  0  0  0  0  0  0  0  0  0
    1.5534   -4.4434   -0.5124 H   0  0  0  0  0  0  0  0  0  0  0  0
    4.4200   -3.4330    0.4813 H   0  0  0  0  0  0  0  0  0  0  0  0
    3.8556   -2.2484    1.6882 H   0  0  0  0  0  0  0  0  0  0  0  0
    3.0757   -3.8593    1.5707 H   0  0  0  0  0  0  0  0  0  0  0  0
  1 17  1  0  0  0  0
  2  8  1  0  0  0  0
  2 23  1  0  0  0  0
  4  3  1  0  0  0  0
  4  7  2  0  0  0  0
  5  3  1  6  0  0  0
  5  9  1  0  0  0  0
  6  5  1  0  0  0  0
  6  1  1  0  0  0  0
  6 30  1  0  0  0  0
  7  8  1  0  0  0  0
  8 31  1  0  0  0  0
  8 32  1  0  0  0  0
  9 10  1  0  0  0  0
  9 12  1  0  0  0  0
 10 33  1  0  0  0  0
 10 35  1  0  0  0  0
 11 36  1  0  0  0  0
 11  9  1  0  0  0  0
 12 39  1  0  0  0  0
 12 41  1  0  0  0  0
 13  7  1  0  0  0  0
 13 15  1  0  0  0  0
 14 44  1  0  0  0  0
 14 13  1  0  0  0  0
 15 46  1  0  0  0  0
 15 47  1  0  0  0  0
 16 13  1  0  0  0  0
 16 50  1  0  0  0  0
 17 51  1  0  0  0  0
 17 19  1  0  0  0  0
 17 18  1  0  0  0  0
 18 52  1  0  0  0  0
 19 55  1  0  0  0  0
 20 21  1  0  0  0  0
 20  1  1  0  0  0  0
 21 61  1  0  0  0  0
 22 20  1  0  0  0  0
 22 64  1  0  0  0  0
 23 65  1  0  0  0  0
 23 24  1  0  0  0  0
 24 68  1  0  0  0  0
 24 66  1  0  0  0  0
 25 23  1  0  0  0  0
 25 69  1  0  0  0  0
 26  2  1  0  0  0  0
 26 28  1  0  0  0  0
 27 75  1  0  0  0  0
 27 26  1  0  0  0  0
 28 78  1  0  0  0  0
 28 77  1  0  0  0  0
 29  6  1  0  0  0  0
 34 10  1  0  0  0  0
 37 11  1  0  0  0  0
 38 11  1  0  0  0  0
 40 12  1  0  0  0  0
 42 14  1  0  0  0  0
 43 14  1  0  0  0  0
 45 15  1  0  0  0  0
 48 16  1  0  0  0  0
 49 16  1  0  0  0  0
 53 18  1  0  0  0  0
 54 18  1  0  0  0  0
 56 19  1  0  0  0  0
 57 19  1  0  0  0  0
 58 20  1  0  0  0  0
 59 21  1  0  0  0  0
 60 21  1  0  0  0  0
 62 22  1  0  0  0  0
 63 22  1  0  0  0  0
 67 24  1  0  0  0  0
 70 25  1  0  0  0  0
 71 25  1  0  0  0  0
 72 26  1  0  0  0  0
 73 27  1  0  0  0  0
 74 27  1  0  0  0  0
 76 28  1  0  0  0  0
M  END
