1,13,49
 OpenBabel05122313063D

 81 81  0  0  1  0  0  0  0  0999 V2000
   -0.2296   -0.5300    1.7002 N   0  0  0  0  0  2  0  0  0  0  0  0
   -1.2412   -1.2743    2.2870 C   0  0  2  0  0  3  0  0  0  0  0  0
   -1.1993   -1.5778    3.6519 C   0  0  0  0  0  0  0  0  0  0  0  0
   -2.0218   -2.1589    4.0918 H   0  0  0  0  0  0  0  0  0  0  0  0
   -0.1090   -1.1698    4.4320 C   0  0  0  0  0  0  0  0  0  0  0  0
   -0.0642   -1.4141    5.5030 H   0  0  0  0  0  0  0  0  0  0  0  0
    0.9275   -0.4590    3.8173 C   0  0  0  0  0  0  0  0  0  0  0  0
    1.8076   -0.1352    4.3903 H   0  0  0  0  0  0  0  0  0  0  0  0
    0.8529   -0.1401    2.4551 C   0  0  0  0  0  0  0  0  0  0  0  0
   -2.3584   -1.7683    1.3939 C   0  0  0  0  0  0  0  0  0  0  0  0
   -3.2712   -1.9975    1.9799 H   0  0  0  0  0  0  0  0  0  0  0  0
   -2.0361   -2.6959    0.8737 H   0  0  0  0  0  0  0  0  0  0  0  0
   -2.5626   -0.4718    0.0661 P   0  0  0  0  0  0  0  0  0  0  0  0
   -3.6910    0.7587    0.8802 C   0  0  0  0  0  0  0  0  0  0  0  0
   -4.7314    0.4326    0.6596 H   0  0  0  0  0  0  0  0  0  0  0  0
   -3.5385    0.6093    1.9704 H   0  0  0  0  0  0  0  0  0  0  0  0
   -3.5119    2.2638    0.5524 C   0  0  0  0  0  0  0  0  0  0  0  0
   -3.6644    2.5248   -0.9557 C   0  0  0  0  0  0  0  0  0  0  0  0
   -2.8533    2.0383   -1.5353 H   0  0  0  0  0  0  0  0  0  0  0  0
   -3.6091    3.6108   -1.1695 H   0  0  0  0  0  0  0  0  0  0  0  0
   -4.6386    2.1585   -1.3413 H   0  0  0  0  0  0  0  0  0  0  0  0
   -4.6152    3.0264    1.3129 C   0  0  0  0  0  0  0  0  0  0  0  0
   -4.5247    4.1173    1.1375 H   0  0  0  0  0  0  0  0  0  0  0  0
   -4.5441    2.8539    2.4063 H   0  0  0  0  0  0  0  0  0  0  0  0
   -5.6268    2.7135    0.9822 H   0  0  0  0  0  0  0  0  0  0  0  0
   -2.1304    2.7490    1.0279 C   0  0  0  0  0  0  0  0  0  0  0  0
   -1.3124    2.1839    0.5208 H   0  0  0  0  0  0  0  0  0  0  0  0
   -2.0117    2.6047    2.1222 H   0  0  0  0  0  0  0  0  0  0  0  0
   -2.0013    3.8283    0.8113 H   0  0  0  0  0  0  0  0  0  0  0  0
   -3.3461   -1.0364   -1.5096 C   0  0  0  0  0  0  0  0  0  0  0  0
   -3.9717   -1.9407   -1.3654 H   0  0  0  0  0  0  0  0  0  0  0  0
   -4.0343   -0.2149   -1.7976 H   0  0  0  0  0  0  0  0  0  0  0  0
   -2.2837   -1.2646   -2.6274 C   0  0  0  0  0  0  0  0  0  0  0  0
   -1.1561   -0.1914   -2.5867 C   0  0  0  0  0  0  0  0  0  0  0  0
   -0.6336   -0.1602   -3.5675 H   0  0  0  0  0  0  0  0  0  0  0  0
   -0.1703   -0.5244   -1.9994 H   0  0  0  0  0  0  0  0  0  0  0  0
   -1.5099    0.8423   -2.4067 H   0  0  0  0  0  0  0  0  0  0  0  0
   -2.9980   -1.1550   -3.9900 C   0  0  0  0  0  0  0  0  0  0  0  0
   -3.4028   -0.1354   -4.1551 H   0  0  0  0  0  0  0  0  0  0  0  0
   -3.8418   -1.8707   -4.0534 H   0  0  0  0  0  0  0  0  0  0  0  0
   -2.3008   -1.3856   -4.8207 H   0  0  0  0  0  0  0  0  0  0  0  0
   -1.6669   -2.6663   -2.4760 C   0  0  0  0  0  0  0  0  0  0  0  0
   -2.4398   -3.4521   -2.5947 H   0  0  0  0  0  0  0  0  0  0  0  0
   -1.1882   -2.7818   -1.4814 H   0  0  0  0  0  0  0  0  0  0  0  0
   -0.8843   -2.8430   -3.2415 H   0  0  0  0  0  0  0  0  0  0  0  0
    1.9345    0.6408    1.7626 C   0  0  0  0  0  0  0  0  0  0  0  0
    2.9171    0.4574    2.2386 H   0  0  0  0  0  0  0  0  0  0  0  0
    1.7214    1.7261    1.8729 H   0  0  0  0  0  0  0  0  0  0  0  0
    1.9239    0.3349   -0.0900 P   0  0  0  0  0  0  0  0  0  0  0  0
    3.3222   -0.8219   -0.4839 C   0  0  0  0  0  0  0  0  0  0  0  0
    3.5314   -0.6422   -1.5600 H   0  0  0  0  0  0  0  0  0  0  0  0
    4.2134   -0.4599    0.0724 H   0  0  0  0  0  0  0  0  0  0  0  0
    3.1439   -2.3454   -0.2542 C   0  0  0  0  0  0  0  0  0  0  0  0
    2.8279   -2.6518    1.2198 C   0  0  0  0  0  0  0  0  0  0  0  0
    2.8264   -3.7464    1.3952 H   0  0  0  0  0  0  0  0  0  0  0  0
    1.8271   -2.2746    1.5082 H   0  0  0  0  0  0  0  0  0  0  0  0
    3.5808   -2.2064    1.9030 H   0  0  0  0  0  0  0  0  0  0  0  0
    4.4815   -3.0113   -0.6356 C   0  0  0  0  0  0  0  0  0  0  0  0
    5.3122   -2.6474    0.0035 H   0  0  0  0  0  0  0  0  0  0  0  0
    4.7486   -2.8046   -1.6921 H   0  0  0  0  0  0  0  0  0  0  0  0
    4.4175   -4.1113   -0.5129 H   0  0  0  0  0  0  0  0  0  0  0  0
    2.0214   -2.9011   -1.1465 C   0  0  0  0  0  0  0  0  0  0  0  0
    1.9239   -3.9974   -1.0137 H   0  0  0  0  0  0  0  0  0  0  0  0
    2.2263   -2.7079   -2.2203 H   0  0  0  0  0  0  0  0  0  0  0  0
    1.0464   -2.4302   -0.8909 H   0  0  0  0  0  0  0  0  0  0  0  0
    2.3401    1.9685   -0.8739 C   0  0  0  0  0  0  0  0  0  0  0  0
    2.0764    1.8250   -1.9446 H   0  0  0  0  0  0  0  0  0  0  0  0
    1.5383    2.6237   -0.4678 H   0  0  0  0  0  0  0  0  0  0  0  0
    3.7103    2.6981   -0.7775 C   0  0  0  0  0  0  0  0  0  0  0  0
    4.7720    2.0367   -1.6771 C   0  0  0  0  0  0  0  0  0  0  0  0
    5.6863    2.6628   -1.7091 H   0  0  0  0  0  0  0  0  0  0  0  0
    4.4071    1.9289   -2.7192 H   0  0  0  0  0  0  0  0  0  0  0  0
    5.0756    1.0372   -1.3139 H   0  0  0  0  0  0  0  0  0  0  0  0
    4.2266    2.7662    0.6697 C   0  0  0  0  0  0  0  0  0  0  0  0
    4.4700    1.7613    1.0705 H   0  0  0  0  0  0  0  0  0  0  0  0
    3.4894    3.2430    1.3478 H   0  0  0  0  0  0  0  0  0  0  0  0
    5.1558    3.3685    0.7177 H   0  0  0  0  0  0  0  0  0  0  0  0
    3.4666    4.1340   -1.2908 C   0  0  0  0  0  0  0  0  0  0  0  0
    2.7299    4.6707   -0.6584 H   0  0  0  0  0  0  0  0  0  0  0  0
    3.0842    4.1305   -2.3320 H   0  0  0  0  0  0  0  0  0  0  0  0
    4.4098    4.7164   -1.2810 H   0  0  0  0  0  0  0  0  0  0  0  0
  1  2  1  0  0  0  0
  1  9  1  0  0  0  0
  2 10  1  6  0  0  0
  2  3  1  0  0  0  0
  3  4  1  0  0  0  0
  3  5  2  0  0  0  0
  5  6  1  0  0  0  0
  7  8  1  0  0  0  0
  7  5  1  0  0  0  0
  9  7  2  0  0  0  0
 10 11  1  0  0  0  0
 12 10  1  0  0  0  0
 13 14  1  0  0  0  0
 13 10  1  0  0  0  0
 14 16  1  0  0  0  0
 15 14  1  0  0  0  0
 17 14  1  0  0  0  0
 17 26  1  0  0  0  0
 17 22  1  0  0  0  0
 18 17  1  0  0  0  0
 19 18  1  0  0  0  0
 20 18  1  0  0  0  0
 21 18  1  0  0  0  0
 22 24  1  0  0  0  0
 23 22  1  0  0  0  0
 25 22  1  0  0  0  0
 26 28  1  0  0  0  0
 27 26  1  0  0  0  0
 29 26  1  0  0  0  0
 30 31  1  0  0  0  0
 30 13  1  0  0  0  0
 32 30  1  0  0  0  0
 33 34  1  0  0  0  0
 33 42  1  0  0  0  0
 33 30  1  0  0  0  0
 34 37  1  0  0  0  0
 34 36  1  0  0  0  0
 35 34  1  0  0  0  0
 38 33  1  0  0  0  0
 39 38  1  0  0  0  0
 40 38  1  0  0  0  0
 41 38  1  0  0  0  0
 42 44  1  0  0  0  0
 43 42  1  0  0  0  0
 45 42  1  0  0  0  0
 46 48  1  0  0  0  0
 46 47  1  0  0  0  0
 46  9  1  0  0  0  0
 49 46  1  0  0  0  0
 50 53  1  0  0  0  0
 50 49  1  0  0  0  0
 50 52  1  0  0  0  0
 51 50  1  0  0  0  0
 53 54  1  0  0  0  0
 54 55  1  0  0  0  0
 54 56  1  0  0  0  0
 54 57  1  0  0  0  0
 58 61  1  0  0  0  0
 58 53  1  0  0  0  0
 58 59  1  0  0  0  0
 60 58  1  0  0  0  0
 62 63  1  0  0  0  0
 62 65  1  0  0  0  0
 62 53  1  0  0  0  0
 64 62  1  0  0  0  0
 66 69  1  0  0  0  0
 66 68  1  0  0  0  0
 66 49  1  0  0  0  0
 67 66  1  0  0  0  0
 69 74  1  0  0  0  0
 70 73  1  0  0  0  0
 70 69  1  0  0  0  0
 71 70  1  0  0  0  0
 72 70  1  0  0  0  0
 74 77  1  0  0  0  0
 74 75  1  0  0  0  0
 74 76  1  0  0  0  0
 78 81  1  0  0  0  0
 78 69  1  0  0  0  0
 78 79  1  0  0  0  0
 80 78  1  0  0  0  0
M  END
