1,2,5
 OpenBabel05122313063D

 78 77  0  0  0  0  0  0  0  0999 V2000
    0.7384    2.1877    0.4217 P   0  0  0  0  0  0  0  0  0  0  0  0
    1.3768   -1.8909    0.3914 P   0  0  0  0  0  0  0  0  0  0  0  0
   -2.3618   -0.6405    1.3750 Si  0  0  0  0  0  0  0  0  0  0  0  0
   -0.7705   -0.2050    2.1398 N   0  0  0  0  0  0  0  0  0  0  0  0
   -2.1907   -0.1774   -0.2744 N   0  0  0  0  0  2  0  0  0  0  0  0
    3.0954   -1.3289    0.9011 C   0  0  0  0  0  0  0  0  0  0  0  0
    2.8388   -0.5286    1.6342 H   0  0  0  0  0  0  0  0  0  0  0  0
    0.0890   -1.1552    2.8366 C   0  0  0  0  0  0  0  0  0  0  0  0
   -0.3947   -1.5677    3.7612 H   0  0  0  0  0  0  0  0  0  0  0  0
    0.9852   -0.6074    3.2075 H   0  0  0  0  0  0  0  0  0  0  0  0
    2.5401    2.7072    0.2873 C   0  0  0  0  0  0  0  0  0  0  0  0
    3.0452    1.8178    0.7267 H   0  0  0  0  0  0  0  0  0  0  0  0
   -2.7332   -2.4799    1.7248 C   0  0  0  0  0  0  0  0  0  0  0  0
   -3.8180   -2.6486    1.5609 H   0  0  0  0  0  0  0  0  0  0  0  0
   -2.5143   -2.7738    2.7734 H   0  0  0  0  0  0  0  0  0  0  0  0
   -2.1987   -3.1669    1.0401 H   0  0  0  0  0  0  0  0  0  0  0  0
   -3.7121    0.2891    2.3517 C   0  0  0  0  0  0  0  0  0  0  0  0
   -4.7105   -0.1226    2.1019 H   0  0  0  0  0  0  0  0  0  0  0  0
   -3.7421    1.3733    2.1220 H   0  0  0  0  0  0  0  0  0  0  0  0
   -3.5661    0.1685    3.4463 H   0  0  0  0  0  0  0  0  0  0  0  0
   -0.2946    3.6811   -0.0587 C   0  0  0  0  0  0  0  0  0  0  0  0
    0.2041    4.5791    0.3696 H   0  0  0  0  0  0  0  0  0  0  0  0
    1.5455   -3.5343   -0.4956 C   0  0  0  0  0  0  0  0  0  0  0  0
    2.0582   -4.2391    0.1972 H   0  0  0  0  0  0  0  0  0  0  0  0
    3.9377   -2.3907    1.6138 C   0  0  0  0  0  0  0  0  0  0  0  0
    4.8908   -1.9497    1.9742 H   0  0  0  0  0  0  0  0  0  0  0  0
    4.2016   -3.2200    0.9259 H   0  0  0  0  0  0  0  0  0  0  0  0
    3.4227   -2.8273    2.4929 H   0  0  0  0  0  0  0  0  0  0  0  0
    0.5764   -2.3507    2.0027 C   0  0  0  0  0  0  0  0  0  0  0  0
   -0.2799   -2.9967    1.7363 H   0  0  0  0  0  0  0  0  0  0  0  0
    1.2611   -2.9757    2.6146 H   0  0  0  0  0  0  0  0  0  0  0  0
   -1.7151    3.5709    0.5139 C   0  0  0  0  0  0  0  0  0  0  0  0
   -2.3489    4.3790    0.0931 H   0  0  0  0  0  0  0  0  0  0  0  0
   -1.7369    3.6778    1.6162 H   0  0  0  0  0  0  0  0  0  0  0  0
   -2.1768    2.5967    0.2432 H   0  0  0  0  0  0  0  0  0  0  0  0
   -3.1441   -0.3541   -1.3783 C   0  0  0  0  0  0  0  0  0  0  0  0
   -4.6043   -0.3363   -0.8793 C   0  0  0  0  0  0  0  0  0  0  0  0
   -4.8023   -1.1770   -0.1818 H   0  0  0  0  0  0  0  0  0  0  0  0
   -5.3157   -0.4357   -1.7245 H   0  0  0  0  0  0  0  0  0  0  0  0
   -4.8273    0.6125   -0.3518 H   0  0  0  0  0  0  0  0  0  0  0  0
    3.8500   -0.6706   -0.2653 C   0  0  0  0  0  0  0  0  0  0  0  0
    4.6515   -0.0056    0.1185 H   0  0  0  0  0  0  0  0  0  0  0  0
    3.1807   -0.0821   -0.9237 H   0  0  0  0  0  0  0  0  0  0  0  0
    4.3374   -1.4303   -0.9061 H   0  0  0  0  0  0  0  0  0  0  0  0
   -2.8858   -1.6926   -2.1099 C   0  0  0  0  0  0  0  0  0  0  0  0
   -2.9897   -2.5445   -1.4074 H   0  0  0  0  0  0  0  0  0  0  0  0
   -1.8548   -1.7051   -2.5228 H   0  0  0  0  0  0  0  0  0  0  0  0
   -3.5891   -1.8507   -2.9551 H   0  0  0  0  0  0  0  0  0  0  0  0
    2.9163    3.9374    1.1197 C   0  0  0  0  0  0  0  0  0  0  0  0
    4.0081    4.1266    1.0480 H   0  0  0  0  0  0  0  0  0  0  0  0
    2.6687    3.8209    2.1934 H   0  0  0  0  0  0  0  0  0  0  0  0
    2.4058    4.8495    0.7474 H   0  0  0  0  0  0  0  0  0  0  0  0
   -2.9676    0.7961   -2.3927 C   0  0  0  0  0  0  0  0  0  0  0  0
   -3.1546    1.7729   -1.9026 H   0  0  0  0  0  0  0  0  0  0  0  0
   -3.6646    0.6962   -3.2506 H   0  0  0  0  0  0  0  0  0  0  0  0
   -1.9340    0.8003   -2.8000 H   0  0  0  0  0  0  0  0  0  0  0  0
    0.1477   -4.0812   -0.8203 C   0  0  0  0  0  0  0  0  0  0  0  0
    0.2395   -5.0302   -1.3876 H   0  0  0  0  0  0  0  0  0  0  0  0
   -0.4266   -3.3689   -1.4470 H   0  0  0  0  0  0  0  0  0  0  0  0
   -0.4528   -4.2971    0.0852 H   0  0  0  0  0  0  0  0  0  0  0  0
    3.0014    2.8313   -1.1725 C   0  0  0  0  0  0  0  0  0  0  0  0
    4.1093    2.7913   -1.2226 H   0  0  0  0  0  0  0  0  0  0  0  0
    2.6944    3.8054   -1.6044 H   0  0  0  0  0  0  0  0  0  0  0  0
    2.5908    2.0289   -1.8208 H   0  0  0  0  0  0  0  0  0  0  0  0
   -0.3396    3.7985   -1.5897 C   0  0  0  0  0  0  0  0  0  0  0  0
   -0.9467    4.6808   -1.8808 H   0  0  0  0  0  0  0  0  0  0  0  0
   -0.8067    2.9007   -2.0416 H   0  0  0  0  0  0  0  0  0  0  0  0
    0.6614    3.9100   -2.0445 H   0  0  0  0  0  0  0  0  0  0  0  0
    2.3760   -3.3657   -1.7769 C   0  0  0  0  0  0  0  0  0  0  0  0
    2.3227   -4.2944   -2.3821 H   0  0  0  0  0  0  0  0  0  0  0  0
    3.4444   -3.1755   -1.5602 H   0  0  0  0  0  0  0  0  0  0  0  0
    1.9973   -2.5243   -2.3960 H   0  0  0  0  0  0  0  0  0  0  0  0
    0.5403    1.9761    2.2606 C   0  0  0  0  0  0  0  0  0  0  0  0
    1.4772    1.4795    2.5976 H   0  0  0  0  0  0  0  0  0  0  0  0
    0.5134    2.9640    2.7689 H   0  0  0  0  0  0  0  0  0  0  0  0
   -0.6880    1.1434    2.6908 C   0  0  0  0  0  0  0  0  0  0  0  0
   -0.6996    1.1227    3.8104 H   0  0  0  0  0  0  0  0  0  0  0  0
   -1.5991    1.6982    2.4054 H   0  0  0  0  0  0  0  0  0  0  0  0
  1 73  1  0  0  0  0
  2  6  1  0  0  0  0
  2 29  1  0  0  0  0
  3 13  1  0  0  0  0
  3  4  1  0  0  0  0
  3 17  1  0  0  0  0
  4 76  1  0  0  0  0
  4  8  1  0  0  0  0
  5  3  1  0  0  0  0
  6 25  1  0  0  0  0
  6  7  1  0  0  0  0
  8 10  1  0  0  0  0
  8  9  1  0  0  0  0
 11  1  1  0  0  0  0
 11 12  1  0  0  0  0
 11 49  1  0  0  0  0
 13 15  1  0  0  0  0
 14 13  1  0  0  0  0
 16 13  1  0  0  0  0
 17 20  1  0  0  0  0
 18 17  1  0  0  0  0
 19 17  1  0  0  0  0
 21 22  1  0  0  0  0
 21  1  1  0  0  0  0
 21 32  1  0  0  0  0
 23 24  1  0  0  0  0
 23  2  1  0  0  0  0
 25 26  1  0  0  0  0
 25 28  1  0  0  0  0
 27 25  1  0  0  0  0
 29 31  1  0  0  0  0
 29  8  1  0  0  0  0
 30 29  1  0  0  0  0
 32 34  1  0  0  0  0
 33 32  1  0  0  0  0
 35 32  1  0  0  0  0
 36 37  1  0  0  0  0
 36  5  1  0  0  0  0
 37 40  1  0  0  0  0
 37 38  1  0  0  0  0
 39 37  1  0  0  0  0
 41 42  1  0  0  0  0
 41  6  1  0  0  0  0
 43 41  1  0  0  0  0
 44 41  1  0  0  0  0
 45 46  1  0  0  0  0
 45 36  1  0  0  0  0
 47 45  1  0  0  0  0
 48 45  1  0  0  0  0
 49 51  1  0  0  0  0
 50 49  1  0  0  0  0
 52 49  1  0  0  0  0
 53 54  1  0  0  0  0
 53 36  1  0  0  0  0
 55 53  1  0  0  0  0
 56 53  1  0  0  0  0
 57 23  1  0  0  0  0
 57 60  1  0  0  0  0
 58 57  1  0  0  0  0
 59 57  1  0  0  0  0
 61 11  1  0  0  0  0
 62 61  1  0  0  0  0
 63 61  1  0  0  0  0
 64 61  1  0  0  0  0
 65 21  1  0  0  0  0
 66 65  1  0  0  0  0
 67 65  1  0  0  0  0
 68 65  1  0  0  0  0
 69 71  1  0  0  0  0
 69 23  1  0  0  0  0
 70 69  1  0  0  0  0
 72 69  1  0  0  0  0
 73 74  1  0  0  0  0
 73 76  1  0  0  0  0
 73 75  1  0  0  0  0
 76 77  1  0  0  0  0
 78 76  1  0  0  0  0
M  END
