1,2,3
 OpenBabel05122313063D

 72 72  0  0  1  0  0  0  0  0999 V2000
   -2.1005   -0.4634    0.0451 P   0  0  0  0  0  0  0  0  0  0  0  0
    2.3465   -0.2502   -0.0293 P   0  0  0  0  0  0  0  0  0  0  0  0
    0.0115    1.4220   -0.9809 N   0  0  0  0  0  2  0  0  0  0  0  0
   -1.2058    2.0149   -0.9605 C   0  0  1  0  0  3  0  0  0  0  0  0
   -1.3100    3.4147   -0.8955 C   0  0  0  0  0  0  0  0  0  0  0  0
   -2.2903    3.9075   -0.8730 H   0  0  0  0  0  0  0  0  0  0  0  0
   -0.1347    4.1814   -0.8597 C   0  0  0  0  0  0  0  0  0  0  0  0
   -0.1961    5.2786   -0.8047 H   0  0  0  0  0  0  0  0  0  0  0  0
    1.1145    3.5474   -0.8895 C   0  0  0  0  0  0  0  0  0  0  0  0
    2.0467    4.1300   -0.8627 H   0  0  0  0  0  0  0  0  0  0  0  0
    1.1534    2.1440   -0.9509 C   0  0  0  0  0  0  0  0  0  0  0  0
   -2.4099    1.0780   -1.0399 C   0  0  2  0  0  0  0  0  0  0  0  0
   -2.3320    0.6094   -2.0479 H   0  0  0  0  0  0  0  0  0  0  0  0
   -3.7658    1.7830   -0.9531 C   0  0  0  0  0  0  0  0  0  0  0  0
   -3.8899    2.3465   -0.0088 H   0  0  0  0  0  0  0  0  0  0  0  0
   -4.6016    1.0663   -1.0284 H   0  0  0  0  0  0  0  0  0  0  0  0
   -3.8795    2.5034   -1.7884 H   0  0  0  0  0  0  0  0  0  0  0  0
   -2.9538   -1.8944   -0.8707 C   0  0  0  0  0  0  0  0  0  0  0  0
   -2.0506   -2.1691   -2.0910 C   0  0  0  0  0  0  0  0  0  0  0  0
   -1.0139   -2.4122   -1.7756 H   0  0  0  0  0  0  0  0  0  0  0  0
   -2.0065   -1.3135   -2.7956 H   0  0  0  0  0  0  0  0  0  0  0  0
   -2.4477   -3.0373   -2.6571 H   0  0  0  0  0  0  0  0  0  0  0  0
   -2.9192   -3.1284    0.0487 C   0  0  0  0  0  0  0  0  0  0  0  0
   -3.2214   -4.0231   -0.5342 H   0  0  0  0  0  0  0  0  0  0  0  0
   -3.6207   -3.0384    0.9002 H   0  0  0  0  0  0  0  0  0  0  0  0
   -1.9003   -3.3123    0.4463 H   0  0  0  0  0  0  0  0  0  0  0  0
   -4.3893   -1.6130   -1.3390 C   0  0  0  0  0  0  0  0  0  0  0  0
   -4.8000   -2.5271   -1.8168 H   0  0  0  0  0  0  0  0  0  0  0  0
   -4.4304   -0.8086   -2.0989 H   0  0  0  0  0  0  0  0  0  0  0  0
   -5.0651   -1.3455   -0.5050 H   0  0  0  0  0  0  0  0  0  0  0  0
   -2.7549   -0.1256    1.7972 C   0  0  0  0  0  0  0  0  0  0  0  0
   -2.1183   -1.1731    2.7340 C   0  0  0  0  0  0  0  0  0  0  0  0
   -1.0147   -1.1927    2.6229 H   0  0  0  0  0  0  0  0  0  0  0  0
   -2.4981   -2.1953    2.5556 H   0  0  0  0  0  0  0  0  0  0  0  0
   -2.3549   -0.9076    3.7855 H   0  0  0  0  0  0  0  0  0  0  0  0
   -4.2841   -0.1533    1.9367 C   0  0  0  0  0  0  0  0  0  0  0  0
   -4.5579    0.0949    2.9837 H   0  0  0  0  0  0  0  0  0  0  0  0
   -4.7011   -1.1566    1.7226 H   0  0  0  0  0  0  0  0  0  0  0  0
   -4.7883    0.5803    1.2811 H   0  0  0  0  0  0  0  0  0  0  0  0
   -2.1905    1.2568    2.1829 C   0  0  0  0  0  0  0  0  0  0  0  0
   -2.6320    2.0851    1.5983 H   0  0  0  0  0  0  0  0  0  0  0  0
   -1.0888    1.2945    2.0545 H   0  0  0  0  0  0  0  0  0  0  0  0
   -2.4071    1.4511    3.2538 H   0  0  0  0  0  0  0  0  0  0  0  0
    2.4474    1.3581   -0.9997 C   0  0  0  0  0  0  0  0  0  0  0  0
    3.3120    1.9780   -0.6914 H   0  0  0  0  0  0  0  0  0  0  0  0
    2.6322    1.0602   -2.0540 H   0  0  0  0  0  0  0  0  0  0  0  0
    3.0084    0.1801    1.6968 C   0  0  0  0  0  0  0  0  0  0  0  0
    2.6609   -0.9869    2.6406 C   0  0  0  0  0  0  0  0  0  0  0  0
    2.9171   -0.7034    3.6825 H   0  0  0  0  0  0  0  0  0  0  0  0
    3.2182   -1.9109    2.4003 H   0  0  0  0  0  0  0  0  0  0  0  0
    1.5771   -1.2211    2.6051 H   0  0  0  0  0  0  0  0  0  0  0  0
    2.2022    1.4190    2.1359 C   0  0  0  0  0  0  0  0  0  0  0  0
    1.1098    1.2505    2.0298 H   0  0  0  0  0  0  0  0  0  0  0  0
    2.4673    2.3293    1.5641 H   0  0  0  0  0  0  0  0  0  0  0  0
    2.4077    1.6270    3.2063 H   0  0  0  0  0  0  0  0  0  0  0  0
    4.5116    0.4847    1.7332 C   0  0  0  0  0  0  0  0  0  0  0  0
    4.8007    1.2808    1.0177 H   0  0  0  0  0  0  0  0  0  0  0  0
    5.1241   -0.4130    1.5225 H   0  0  0  0  0  0  0  0  0  0  0  0
    4.7898    0.8397    2.7477 H   0  0  0  0  0  0  0  0  0  0  0  0
    3.4284   -1.4486   -1.0232 C   0  0  0  0  0  0  0  0  0  0  0  0
    4.7677   -0.8476   -1.4783 C   0  0  0  0  0  0  0  0  0  0  0  0
    5.4178   -0.5696   -0.6287 H   0  0  0  0  0  0  0  0  0  0  0  0
    4.6341    0.0459   -2.1196 H   0  0  0  0  0  0  0  0  0  0  0  0
    5.3163   -1.6000   -2.0828 H   0  0  0  0  0  0  0  0  0  0  0  0
    3.6589   -2.7160   -0.1823 C   0  0  0  0  0  0  0  0  0  0  0  0
    2.7074   -3.1209    0.2188 H   0  0  0  0  0  0  0  0  0  0  0  0
    4.3504   -2.5372    0.6636 H   0  0  0  0  0  0  0  0  0  0  0  0
    4.1160   -3.4997   -0.8211 H   0  0  0  0  0  0  0  0  0  0  0  0
    2.5691   -1.8134   -2.2517 C   0  0  0  0  0  0  0  0  0  0  0  0
    3.1229   -2.5339   -2.8888 H   0  0  0  0  0  0  0  0  0  0  0  0
    2.3291   -0.9342   -2.8840 H   0  0  0  0  0  0  0  0  0  0  0  0
    1.6143   -2.2903   -1.9483 H   0  0  0  0  0  0  0  0  0  0  0  0
  1 31  1  0  0  0  0
  2 47  1  0  0  0  0
  3  4  1  0  0  0  0
  3 11  1  0  0  0  0
  4 12  1  6  0  0  0
  4  5  1  0  0  0  0
  5  6  1  0  0  0  0
  5  7  2  0  0  0  0
  7  8  1  0  0  0  0
  9 10  1  0  0  0  0
  9  7  1  0  0  0  0
 11  9  2  0  0  0  0
 12 13  1  6  0  0  0
 12 14  1  0  0  0  0
 12  1  1  0  0  0  0
 14 15  1  0  0  0  0
 16 14  1  0  0  0  0
 17 14  1  0  0  0  0
 18  1  1  0  0  0  0
 18 23  1  0  0  0  0
 19 20  1  0  0  0  0
 19 18  1  0  0  0  0
 21 19  1  0  0  0  0
 22 19  1  0  0  0  0
 23 26  1  0  0  0  0
 23 25  1  0  0  0  0
 24 23  1  0  0  0  0
 27 18  1  0  0  0  0
 27 30  1  0  0  0  0
 28 27  1  0  0  0  0
 29 27  1  0  0  0  0
 31 36  1  0  0  0  0
 31 40  1  0  0  0  0
 31 32  1  0  0  0  0
 32 35  1  0  0  0  0
 33 32  1  0  0  0  0
 34 32  1  0  0  0  0
 36 37  1  0  0  0  0
 38 36  1  0  0  0  0
 39 36  1  0  0  0  0
 40 43  1  0  0  0  0
 41 40  1  0  0  0  0
 42 40  1  0  0  0  0
 44 11  1  0  0  0  0
 44 45  1  0  0  0  0
 44  2  1  0  0  0  0
 46 44  1  0  0  0  0
 47 56  1  0  0  0  0
 47 52  1  0  0  0  0
 47 48  1  0  0  0  0
 48 49  1  0  0  0  0
 50 48  1  0  0  0  0
 51 48  1  0  0  0  0
 52 55  1  0  0  0  0
 53 52  1  0  0  0  0
 54 52  1  0  0  0  0
 56 59  1  0  0  0  0
 57 56  1  0  0  0  0
 58 56  1  0  0  0  0
 60 65  1  0  0  0  0
 60  2  1  0  0  0  0
 61 60  1  0  0  0  0
 61 62  1  0  0  0  0
 63 61  1  0  0  0  0
 64 61  1  0  0  0  0
 65 66  1  0  0  0  0
 65 67  1  0  0  0  0
 68 65  1  0  0  0  0
 69 72  1  0  0  0  0
 69 60  1  0  0  0  0
 70 69  1  0  0  0  0
 71 69  1  0  0  0  0
M  END
