1,14,33
 OpenBabel05122313063D

 82 85  0  0  1  0  0  0  0  0999 V2000
   -2.4171   -0.4559   -0.0088 P   0  0  0  0  0  0  0  0  0  0  0  0
   -3.4674   -1.9241    0.1510 C   0  0  0  0  0  0  0  0  0  0  0  0
   -4.3335   -2.1171    1.2483 C   0  0  0  0  0  0  0  0  0  0  0  0
   -5.1463   -3.2593    1.2998 C   0  0  0  0  0  0  0  0  0  0  0  0
   -5.0975   -4.2057    0.2643 C   0  0  0  0  0  0  0  0  0  0  0  0
   -4.2314   -4.0157   -0.8250 C   0  0  0  0  0  0  0  0  0  0  0  0
   -3.4137   -2.8798   -0.8877 C   0  0  0  0  0  0  0  0  0  0  0  0
   -3.2579    0.7119   -1.1311 C   0  0  0  0  0  0  0  0  0  0  0  0
   -4.6660    0.7789   -1.1804 C   0  0  0  0  0  0  0  0  0  0  0  0
   -5.2866    1.7416   -1.9889 C   0  0  0  0  0  0  0  0  0  0  0  0
   -4.5094    2.6317   -2.7497 C   0  0  0  0  0  0  0  0  0  0  0  0
   -3.1078    2.5565   -2.7105 C   0  0  0  0  0  0  0  0  0  0  0  0
   -2.4783    1.5957   -1.9059 C   0  0  0  0  0  0  0  0  0  0  0  0
    2.1883   -0.5488    0.1893 P   0  0  0  0  0  0  0  0  0  0  0  0
    3.2032   -0.3691   -1.3108 C   0  0  0  0  0  0  0  0  0  0  0  0
    4.5938   -0.6009   -1.2747 C   0  0  0  0  0  0  0  0  0  0  0  0
    5.3604   -0.3927   -2.4294 C   0  0  0  0  0  0  0  0  0  0  0  0
    4.7430    0.0334   -3.6181 C   0  0  0  0  0  0  0  0  0  0  0  0
    3.3554    0.2453   -3.6580 C   0  0  0  0  0  0  0  0  0  0  0  0
    2.5811    0.0429   -2.5064 C   0  0  0  0  0  0  0  0  0  0  0  0
    2.9050   -1.9364    1.1304 C   0  0  0  0  0  0  0  0  0  0  0  0
    2.8598   -3.2151    0.5301 C   0  0  0  0  0  0  0  0  0  0  0  0
    3.4017   -4.3178    1.2022 C   0  0  0  0  0  0  0  0  0  0  0  0
    3.9887   -4.1588    2.4685 C   0  0  0  0  0  0  0  0  0  0  0  0
    4.0316   -2.8907    3.0670 C   0  0  0  0  0  0  0  0  0  0  0  0
    3.4916   -1.7783    2.4033 C   0  0  0  0  0  0  0  0  0  0  0  0
   -2.4059    0.4099    1.6449 C   0  0  0  0  0  0  0  0  0  0  0  0
   -1.4047    1.5324    1.5714 C   0  0  2  0  0  3  0  0  0  0  0  0
   -1.7206    2.8986    2.2011 C   0  0  0  0  0  0  0  0  0  0  0  0
   -1.9947    3.9006    1.0488 C   0  0  0  0  0  0  0  0  0  0  0  0
   -0.5559    3.3845    3.0968 C   0  0  0  0  0  0  0  0  0  0  0  0
   -2.9793    2.8295    3.0930 C   0  0  0  0  0  0  0  0  0  0  0  0
   -0.3107    1.2688    0.8715 N   0  0  0  0  0  2  0  0  0  0  0  0
    0.5458    2.3045    0.5600 N   0  0  0  0  0  0  0  0  0  0  0  0
    1.8310    2.1817    0.6766 C   0  0  0  0  0  0  0  0  0  0  0  0
    2.6863    3.3861    0.2752 C   0  0  0  0  0  0  0  0  0  0  0  0
    1.8241    4.4875   -0.3609 C   0  0  0  0  0  0  0  0  0  0  0  0
    3.3482    3.9341    1.5652 C   0  0  0  0  0  0  0  0  0  0  0  0
    3.7841    2.9585   -0.7233 C   0  0  0  0  0  0  0  0  0  0  0  0
    2.4988    0.9595    1.2454 C   0  0  0  0  0  0  0  0  0  0  0  0
   -4.3849   -1.3837    2.0664 H   0  0  0  0  0  0  0  0  0  0  0  0
   -5.8219   -3.4090    2.1550 H   0  0  0  0  0  0  0  0  0  0  0  0
   -5.7361   -5.1005    0.3092 H   0  0  0  0  0  0  0  0  0  0  0  0
   -4.1856   -4.7627   -1.6313 H   0  0  0  0  0  0  0  0  0  0  0  0
   -2.7121   -2.7447   -1.7242 H   0  0  0  0  0  0  0  0  0  0  0  0
   -5.2749    0.0726   -0.5946 H   0  0  0  0  0  0  0  0  0  0  0  0
   -6.3848    1.7933   -2.0311 H   0  0  0  0  0  0  0  0  0  0  0  0
   -5.0015    3.3824   -3.3861 H   0  0  0  0  0  0  0  0  0  0  0  0
   -2.5005    3.2449   -3.3169 H   0  0  0  0  0  0  0  0  0  0  0  0
   -1.3795    1.5213   -1.8763 H   0  0  0  0  0  0  0  0  0  0  0  0
    5.0739   -0.9514   -0.3477 H   0  0  0  0  0  0  0  0  0  0  0  0
    6.4455   -0.5723   -2.4051 H   0  0  0  0  0  0  0  0  0  0  0  0
    5.3481    0.1888   -4.5238 H   0  0  0  0  0  0  0  0  0  0  0  0
    2.8713    0.5605   -4.5942 H   0  0  0  0  0  0  0  0  0  0  0  0
    1.4903    0.1924   -2.5263 H   0  0  0  0  0  0  0  0  0  0  0  0
    2.3796   -3.3421   -0.4519 H   0  0  0  0  0  0  0  0  0  0  0  0
    3.3614   -5.3117    0.7323 H   0  0  0  0  0  0  0  0  0  0  0  0
    4.4142   -5.0280    2.9919 H   0  0  0  0  0  0  0  0  0  0  0  0
    4.4918   -2.7615    4.0579 H   0  0  0  0  0  0  0  0  0  0  0  0
    3.5423   -0.7939    2.8900 H   0  0  0  0  0  0  0  0  0  0  0  0
   -3.4074    0.7751    1.9286 H   0  0  0  0  0  0  0  0  0  0  0  0
   -2.0937   -0.3530    2.3921 H   0  0  0  0  0  0  0  0  0  0  0  0
   -2.2314    4.8919    1.4850 H   0  0  0  0  0  0  0  0  0  0  0  0
   -2.8622    3.5764    0.4403 H   0  0  0  0  0  0  0  0  0  0  0  0
   -1.1190    4.0054    0.3840 H   0  0  0  0  0  0  0  0  0  0  0  0
   -0.8593    4.3195    3.6077 H   0  0  0  0  0  0  0  0  0  0  0  0
    0.3574    3.5995    2.5171 H   0  0  0  0  0  0  0  0  0  0  0  0
   -0.3142    2.6377    3.8801 H   0  0  0  0  0  0  0  0  0  0  0  0
   -3.1261    3.8154    3.5750 H   0  0  0  0  0  0  0  0  0  0  0  0
   -2.8825    2.0768    3.9012 H   0  0  0  0  0  0  0  0  0  0  0  0
   -3.9001    2.6180    2.5146 H   0  0  0  0  0  0  0  0  0  0  0  0
    2.4712    5.3340   -0.6631 H   0  0  0  0  0  0  0  0  0  0  0  0
    1.0628    4.8722    0.3440 H   0  0  0  0  0  0  0  0  0  0  0  0
    1.2948    4.1154   -1.2594 H   0  0  0  0  0  0  0  0  0  0  0  0
    4.0198    3.1934    2.0434 H   0  0  0  0  0  0  0  0  0  0  0  0
    2.5900    4.2483    2.3104 H   0  0  0  0  0  0  0  0  0  0  0  0
    3.9616    4.8217    1.3122 H   0  0  0  0  0  0  0  0  0  0  0  0
    4.4560    2.1765   -0.3192 H   0  0  0  0  0  0  0  0  0  0  0  0
    4.4127    3.8382   -0.9654 H   0  0  0  0  0  0  0  0  0  0  0  0
    3.3507    2.5760   -1.6673 H   0  0  0  0  0  0  0  0  0  0  0  0
    2.0456    0.7107    2.2279 H   0  0  0  0  0  0  0  0  0  0  0  0
    3.5857    1.1073    1.3782 H   0  0  0  0  0  0  0  0  0  0  0  0
  1  2  1  0  0  0  0
  1 27  1  0  0  0  0
  2  3  1  0  0  0  0
  3  4  2  0  0  0  0
  3 41  1  0  0  0  0
  4 42  1  0  0  0  0
  5 43  1  0  0  0  0
  5  4  1  0  0  0  0
  6  5  2  0  0  0  0
  7  6  1  0  0  0  0
  7  2  2  0  0  0  0
  8  1  1  0  0  0  0
  9  8  1  0  0  0  0
  9 46  1  0  0  0  0
 10  9  2  0  0  0  0
 11 12  2  0  0  0  0
 11 10  1  0  0  0  0
 12 13  1  0  0  0  0
 13 50  1  0  0  0  0
 13  8  2  0  0  0  0
 14 21  1  0  0  0  0
 14 40  1  0  0  0  0
 15 16  1  0  0  0  0
 15 14  1  0  0  0  0
 16 51  1  0  0  0  0
 17 52  1  0  0  0  0
 17 16  2  0  0  0  0
 18 17  1  0  0  0  0
 19 18  2  0  0  0  0
 19 20  1  0  0  0  0
 20 15  2  0  0  0  0
 21 26  1  0  0  0  0
 22 21  2  0  0  0  0
 22 23  1  0  0  0  0
 23 24  2  0  0  0  0
 24 58  1  0  0  0  0
 24 25  1  0  0  0  0
 25 59  1  0  0  0  0
 26 60  1  0  0  0  0
 26 25  2  0  0  0  0
 27 61  1  0  0  0  0
 27 62  1  0  0  0  0
 28 33  1  6  0  0  0
 28 27  1  0  0  0  0
 28 29  1  0  0  0  0
 29 32  1  0  0  0  0
 29 31  1  0  0  0  0
 30 63  1  0  0  0  0
 30 29  1  0  0  0  0
 31 66  1  0  0  0  0
 31 68  1  0  0  0  0
 32 69  1  0  0  0  0
 32 70  1  0  0  0  0
 34 35  2  0  0  0  0
 34 33  1  0  0  0  0
 35 40  1  0  0  0  0
 36 35  1  0  0  0  0
 36 38  1  0  0  0  0
 37 36  1  0  0  0  0
 37 73  1  0  0  0  0
 38 75  1  0  0  0  0
 38 76  1  0  0  0  0
 39 78  1  0  0  0  0
 39 36  1  0  0  0  0
 40 82  1  0  0  0  0
 40 81  1  0  0  0  0
 44  6  1  0  0  0  0
 45  7  1  0  0  0  0
 47 10  1  0  0  0  0
 48 11  1  0  0  0  0
 49 12  1  0  0  0  0
 53 18  1  0  0  0  0
 54 19  1  0  0  0  0
 55 20  1  0  0  0  0
 56 22  1  0  0  0  0
 57 23  1  0  0  0  0
 64 30  1  0  0  0  0
 65 30  1  0  0  0  0
 67 31  1  0  0  0  0
 71 32  1  0  0  0  0
 72 37  1  0  0  0  0
 74 37  1  0  0  0  0
 77 38  1  0  0  0  0
 79 39  1  0  0  0  0
 80 39  1  0  0  0  0
M  END
