1,2,3
 OpenBabel05122313063D

 69 71  0  0  1  0  0  0  0  0999 V2000
   -2.2790   -0.9298   -0.2593 P   0  0  0  0  0  0  0  0  0  0  0  0
    2.2789   -0.9301   -0.2592 P   0  0  0  0  0  0  0  0  0  0  0  0
    0.0001    1.6033   -0.8318 N   0  0  0  0  0  2  0  0  0  0  0  0
   -2.4482    4.2847    0.1735 C   0  0  0  0  0  0  0  0  0  0  0  0
   -2.4204    5.2757    0.6513 H   0  0  0  0  0  0  0  0  0  0  0  0
   -3.6328    3.7244   -0.2515 C   0  0  0  0  0  0  0  0  0  0  0  0
   -4.5886    4.2528   -0.1217 H   0  0  0  0  0  0  0  0  0  0  0  0
   -3.6095    2.4479   -0.8718 C   0  0  0  0  0  0  0  0  0  0  0  0
   -4.5578    2.0111   -1.2213 H   0  0  0  0  0  0  0  0  0  0  0  0
   -2.4427    1.7094   -1.0538 C   0  0  0  0  0  0  0  0  0  0  0  0
    2.4429    1.7090   -1.0540 C   0  0  0  0  0  0  0  0  0  0  0  0
    3.6099    2.4472   -0.8723 C   0  0  0  0  0  0  0  0  0  0  0  0
    4.5581    2.0103   -1.2219 H   0  0  0  0  0  0  0  0  0  0  0  0
    3.6335    3.7238   -0.2521 C   0  0  0  0  0  0  0  0  0  0  0  0
    4.5894    4.2521   -0.1225 H   0  0  0  0  0  0  0  0  0  0  0  0
    2.4491    4.2843    0.1730 C   0  0  0  0  0  0  0  0  0  0  0  0
    2.4215    5.2754    0.6508 H   0  0  0  0  0  0  0  0  0  0  0  0
    0.0004    4.1974    0.3087 C   0  0  0  0  0  0  0  0  0  0  0  0
    0.0006    5.1833    0.8005 H   0  0  0  0  0  0  0  0  0  0  0  0
   -1.1752    2.2715   -0.6372 C   0  0  0  0  0  0  0  0  0  0  0  0
    1.1756    2.2713   -0.6373 C   0  0  1  0  0  3  0  0  0  0  0  0
    1.2151    3.5947   -0.0344 C   0  0  0  0  0  0  0  0  0  0  0  0
   -1.2144    3.5949   -0.0342 C   0  0  0  0  0  0  0  0  0  0  0  0
   -2.5488    0.3336   -1.6218 C   0  0  0  0  0  0  0  0  0  0  0  0
   -1.7466    0.1273   -2.3565 H   0  0  0  0  0  0  0  0  0  0  0  0
   -3.5341    0.1842   -2.1073 H   0  0  0  0  0  0  0  0  0  0  0  0
    2.5487    0.3330   -1.6219 C   0  0  0  0  0  0  0  0  0  0  0  0
    3.5341    0.1834   -2.1074 H   0  0  0  0  0  0  0  0  0  0  0  0
    1.7465    0.1268   -2.3565 H   0  0  0  0  0  0  0  0  0  0  0  0
   -3.4770   -0.4263    1.0943 C   0  0  0  0  0  0  0  0  0  0  0  0
   -3.2287    0.6524    1.2016 H   0  0  0  0  0  0  0  0  0  0  0  0
   -3.0227   -2.4671   -1.0513 C   0  0  0  0  0  0  0  0  0  0  0  0
   -4.0590   -2.1575   -1.3138 H   0  0  0  0  0  0  0  0  0  0  0  0
   -3.1098   -1.0936    2.4274 C   0  0  0  0  0  0  0  0  0  0  0  0
   -3.7514   -0.6834    3.2353 H   0  0  0  0  0  0  0  0  0  0  0  0
   -2.0535   -0.8777    2.6845 H   0  0  0  0  0  0  0  0  0  0  0  0
   -3.2590   -2.1914    2.4102 H   0  0  0  0  0  0  0  0  0  0  0  0
   -4.9587   -0.5666    0.7346 C   0  0  0  0  0  0  0  0  0  0  0  0
   -5.2693   -1.6300    0.6789 H   0  0  0  0  0  0  0  0  0  0  0  0
   -5.2141   -0.0901   -0.2338 H   0  0  0  0  0  0  0  0  0  0  0  0
   -5.5871   -0.0862    1.5139 H   0  0  0  0  0  0  0  0  0  0  0  0
   -2.2929   -2.8541   -2.3413 C   0  0  0  0  0  0  0  0  0  0  0  0
   -1.2491   -3.1559   -2.1246 H   0  0  0  0  0  0  0  0  0  0  0  0
   -2.2559   -2.0285   -3.0789 H   0  0  0  0  0  0  0  0  0  0  0  0
   -2.8102   -3.7108   -2.8216 H   0  0  0  0  0  0  0  0  0  0  0  0
   -3.0944   -3.6551   -0.0842 C   0  0  0  0  0  0  0  0  0  0  0  0
   -3.5483   -4.5279   -0.5989 H   0  0  0  0  0  0  0  0  0  0  0  0
   -3.7110   -3.4388    0.8087 H   0  0  0  0  0  0  0  0  0  0  0  0
   -2.0884   -3.9572    0.2660 H   0  0  0  0  0  0  0  0  0  0  0  0
    3.4768   -0.4265    1.0943 C   0  0  0  0  0  0  0  0  0  0  0  0
    3.2286    0.6522    1.2015 H   0  0  0  0  0  0  0  0  0  0  0  0
    3.0223   -2.4677   -1.0509 C   0  0  0  0  0  0  0  0  0  0  0  0
    4.0587   -2.1581   -1.3136 H   0  0  0  0  0  0  0  0  0  0  0  0
    3.1096   -1.0936    2.4275 C   0  0  0  0  0  0  0  0  0  0  0  0
    3.2588   -2.1914    2.4105 H   0  0  0  0  0  0  0  0  0  0  0  0
    2.0533   -0.8777    2.6846 H   0  0  0  0  0  0  0  0  0  0  0  0
    3.7512   -0.6833    3.2354 H   0  0  0  0  0  0  0  0  0  0  0  0
    4.9585   -0.5670    0.7347 C   0  0  0  0  0  0  0  0  0  0  0  0
    5.5870   -0.0865    1.5139 H   0  0  0  0  0  0  0  0  0  0  0  0
    5.2140   -0.0906   -0.2338 H   0  0  0  0  0  0  0  0  0  0  0  0
    5.2691   -1.6304    0.6791 H   0  0  0  0  0  0  0  0  0  0  0  0
    2.2924   -2.8549   -2.3407 C   0  0  0  0  0  0  0  0  0  0  0  0
    2.8097   -3.7116   -2.8209 H   0  0  0  0  0  0  0  0  0  0  0  0
    2.2553   -2.0295   -3.0785 H   0  0  0  0  0  0  0  0  0  0  0  0
    1.2486   -3.1568   -2.1238 H   0  0  0  0  0  0  0  0  0  0  0  0
    3.0942   -3.6554   -0.0836 C   0  0  0  0  0  0  0  0  0  0  0  0
    2.0882   -3.9574    0.2668 H   0  0  0  0  0  0  0  0  0  0  0  0
    3.7110   -3.4389    0.8092 H   0  0  0  0  0  0  0  0  0  0  0  0
    3.5480   -4.5283   -0.5981 H   0  0  0  0  0  0  0  0  0  0  0  0
  1 30  1  0  0  0  0
  2 50  1  0  0  0  0
  3 21  1  0  0  0  0
  3 20  1  0  0  0  0
  4  5  1  0  0  0  0
  6  7  1  0  0  0  0
  6  4  2  0  0  0  0
  8  6  1  0  0  0  0
  9  8  1  0  0  0  0
 10  8  2  0  0  0  0
 10 20  1  0  0  0  0
 11 12  2  0  0  0  0
 12 14  1  0  0  0  0
 13 12  1  0  0  0  0
 14 15  1  0  0  0  0
 14 16  2  0  0  0  0
 16 17  1  0  0  0  0
 18 19  1  0  0  0  0
 20 23  2  0  0  0  0
 21 11  1  6  0  0  0
 21 22  1  0  0  0  0
 22 16  1  0  0  0  0
 22 18  2  0  0  0  0
 23  4  1  0  0  0  0
 23 18  1  0  0  0  0
 24 10  1  0  0  0  0
 24  1  1  0  0  0  0
 25 24  1  0  0  0  0
 26 24  1  0  0  0  0
 27 11  1  0  0  0  0
 27  2  1  0  0  0  0
 28 27  1  0  0  0  0
 29 27  1  0  0  0  0
 30 31  1  0  0  0  0
 30 34  1  0  0  0  0
 32  1  1  0  0  0  0
 32 46  1  0  0  0  0
 33 32  1  0  0  0  0
 34 36  1  0  0  0  0
 34 35  1  0  0  0  0
 37 34  1  0  0  0  0
 38 30  1  0  0  0  0
 38 41  1  0  0  0  0
 39 38  1  0  0  0  0
 40 38  1  0  0  0  0
 42 43  1  0  0  0  0
 42 32  1  0  0  0  0
 44 42  1  0  0  0  0
 45 42  1  0  0  0  0
 46 49  1  0  0  0  0
 46 48  1  0  0  0  0
 47 46  1  0  0  0  0
 50 51  1  0  0  0  0
 50 54  1  0  0  0  0
 52  2  1  0  0  0  0
 52 66  1  0  0  0  0
 53 52  1  0  0  0  0
 54 56  1  0  0  0  0
 54 57  1  0  0  0  0
 55 54  1  0  0  0  0
 58 50  1  0  0  0  0
 58 59  1  0  0  0  0
 60 58  1  0  0  0  0
 61 58  1  0  0  0  0
 62 65  1  0  0  0  0
 62 52  1  0  0  0  0
 63 62  1  0  0  0  0
 64 62  1  0  0  0  0
 66 67  1  0  0  0  0
 66 68  1  0  0  0  0
 69 66  1  0  0  0  0
M  END
