1,2,3
 OpenBabel05122313063D

 31 31  0  0  1  0  0  0  0  0999 V2000
    2.1729    0.4934    0.0000 P   0  0  0  0  0  0  0  0  0  0  0  0
   -2.1729    0.4934   -0.0000 P   0  0  0  0  0  0  0  0  0  0  0  0
    0.0000   -1.3285    0.0001 N   0  0  0  0  0  2  0  0  0  0  0  0
    2.3175   -1.2436    0.0003 N   0  0  0  0  0  0  0  0  0  0  0  0
    3.2136   -1.7342   -0.0009 H   0  0  0  0  0  0  0  0  0  0  0  0
   -2.3175   -1.2436   -0.0001 N   0  0  0  0  0  0  0  0  0  0  0  0
   -3.2136   -1.7343    0.0007 H   0  0  0  0  0  0  0  0  0  0  0  0
    1.1759   -2.0115    0.0001 C   0  0  1  0  0  3  0  0  0  0  0  0
    1.2142   -3.4224    0.0001 C   0  0  0  0  0  0  0  0  0  0  0  0
    2.1780   -3.9489    0.0002 H   0  0  0  0  0  0  0  0  0  0  0  0
    0.0001   -4.1153    0.0001 C   0  0  0  0  0  0  0  0  0  0  0  0
    0.0001   -5.2156    0.0001 H   0  0  0  0  0  0  0  0  0  0  0  0
   -1.2141   -3.4225    0.0001 C   0  0  0  0  0  0  0  0  0  0  0  0
   -2.1779   -3.9489   -0.0000 H   0  0  0  0  0  0  0  0  0  0  0  0
   -1.1758   -2.0116    0.0001 C   0  0  0  0  0  0  0  0  0  0  0  0
    3.1788    1.0101    1.4414 C   0  0  0  0  0  0  0  0  0  0  0  0
    2.6368    0.6868    2.3505 H   0  0  0  0  0  0  0  0  0  0  0  0
    3.2427    2.1166    1.4440 H   0  0  0  0  0  0  0  0  0  0  0  0
    4.2018    0.5855    1.4007 H   0  0  0  0  0  0  0  0  0  0  0  0
    3.1790    1.0096   -1.4414 C   0  0  0  0  0  0  0  0  0  0  0  0
    4.2018    0.5845   -1.4007 H   0  0  0  0  0  0  0  0  0  0  0  0
    3.2436    2.1161   -1.4440 H   0  0  0  0  0  0  0  0  0  0  0  0
    2.6368    0.6865   -2.3505 H   0  0  0  0  0  0  0  0  0  0  0  0
   -3.1790    1.0097    1.4413 C   0  0  0  0  0  0  0  0  0  0  0  0
   -4.2020    0.5851    1.4004 H   0  0  0  0  0  0  0  0  0  0  0  0
   -3.2431    2.1163    1.4440 H   0  0  0  0  0  0  0  0  0  0  0  0
   -2.6370    0.6865    2.3505 H   0  0  0  0  0  0  0  0  0  0  0  0
   -3.1788    1.0098   -1.4414 C   0  0  0  0  0  0  0  0  0  0  0  0
   -2.6368    0.6865   -2.3506 H   0  0  0  0  0  0  0  0  0  0  0  0
   -3.2429    2.1163   -1.4441 H   0  0  0  0  0  0  0  0  0  0  0  0
   -4.2018    0.5851   -1.4007 H   0  0  0  0  0  0  0  0  0  0  0  0
  1  4  1  0  0  0  0
  1 16  1  0  0  0  0
  2 24  1  0  0  0  0
  3  8  1  0  0  0  0
  5  4  1  0  0  0  0
  6  2  1  0  0  0  0
  6 15  1  0  0  0  0
  6  7  1  0  0  0  0
  8  4  1  1  0  0  0
  9  8  1  0  0  0  0
  9 10  1  0  0  0  0
 11  9  2  0  0  0  0
 12 11  1  0  0  0  0
 13 15  2  0  0  0  0
 13 11  1  0  0  0  0
 14 13  1  0  0  0  0
 15  3  1  0  0  0  0
 16 18  1  0  0  0  0
 16 17  1  0  0  0  0
 19 16  1  0  0  0  0
 20 21  1  0  0  0  0
 20  1  1  0  0  0  0
 22 20  1  0  0  0  0
 23 20  1  0  0  0  0
 24 26  1  0  0  0  0
 24 27  1  0  0  0  0
 25 24  1  0  0  0  0
 28 31  1  0  0  0  0
 28  2  1  0  0  0  0
 29 28  1  0  0  0  0
 30 28  1  0  0  0  0
M  END
