2,3,4
 OpenBabel05122313063D

 54 54  0  0  1  0  0  0  0  0999 V2000
    1.1193    5.4531    0.2886 Cl  0  0  0  0  0  0  0  0  0  0  0  0
    2.0357   -1.0028    0.0118 P   0  0  0  0  0  0  0  0  0  0  0  0
   -2.2816   -0.2990    0.0245 P   0  0  0  0  0  0  0  0  0  0  0  0
    0.1647    1.0747    0.1358 N   0  0  0  0  0  2  0  0  0  0  0  0
    1.7434    2.8983    0.1855 N   0  0  0  0  0  0  0  0  0  0  0  0
    2.4585    0.6886    0.0924 N   0  0  0  0  0  0  0  0  0  0  0  0
    3.3983    1.0914    0.0921 H   0  0  0  0  0  0  0  0  0  0  0  0
   -2.1222    1.4522    0.0487 N   0  0  0  0  0  0  0  0  0  0  0  0
   -2.9109    2.1013    0.0832 H   0  0  0  0  0  0  0  0  0  0  0  0
    1.4366    1.5985    0.1302 C   0  0  1  0  0  3  0  0  0  0  0  0
    0.7260    3.7531    0.2090 C   0  0  0  0  0  0  0  0  0  0  0  0
   -0.6168    3.3699    0.1655 C   0  0  0  0  0  0  0  0  0  0  0  0
   -1.4326    4.1025    0.1634 H   0  0  0  0  0  0  0  0  0  0  0  0
   -0.8656    1.9819    0.1075 C   0  0  0  0  0  0  0  0  0  0  0  0
    3.1052   -1.7737   -1.3237 C   0  0  0  0  0  0  0  0  0  0  0  0
    4.0146   -2.1411   -0.8007 H   0  0  0  0  0  0  0  0  0  0  0  0
    2.3408   -2.9812   -1.8899 C   0  0  0  0  0  0  0  0  0  0  0  0
    1.4496   -2.6355   -2.4497 H   0  0  0  0  0  0  0  0  0  0  0  0
    1.9896   -3.6668   -1.0926 H   0  0  0  0  0  0  0  0  0  0  0  0
    2.9983   -3.5541   -2.5760 H   0  0  0  0  0  0  0  0  0  0  0  0
    3.5222   -0.7769   -2.4094 C   0  0  0  0  0  0  0  0  0  0  0  0
    4.1082   -1.3053   -3.1902 H   0  0  0  0  0  0  0  0  0  0  0  0
    4.1573    0.0400   -2.0123 H   0  0  0  0  0  0  0  0  0  0  0  0
    2.6289   -0.3261   -2.8834 H   0  0  0  0  0  0  0  0  0  0  0  0
    2.7738   -1.6696    1.6004 C   0  0  0  0  0  0  0  0  0  0  0  0
    2.6485   -2.7700    1.4878 H   0  0  0  0  0  0  0  0  0  0  0  0
    1.9370   -1.1975    2.7935 C   0  0  0  0  0  0  0  0  0  0  0  0
    2.3538   -1.5979    3.7408 H   0  0  0  0  0  0  0  0  0  0  0  0
    0.8916   -1.5443    2.6988 H   0  0  0  0  0  0  0  0  0  0  0  0
    1.9381   -0.0898    2.8683 H   0  0  0  0  0  0  0  0  0  0  0  0
    4.2552   -1.3218    1.7799 C   0  0  0  0  0  0  0  0  0  0  0  0
    4.3943   -0.2265    1.8968 H   0  0  0  0  0  0  0  0  0  0  0  0
    4.8916   -1.6638    0.9396 H   0  0  0  0  0  0  0  0  0  0  0  0
    4.6481   -1.7960    2.7030 H   0  0  0  0  0  0  0  0  0  0  0  0
   -3.6924   -0.5616   -1.1859 C   0  0  0  0  0  0  0  0  0  0  0  0
   -3.8237   -1.6666   -1.1466 H   0  0  0  0  0  0  0  0  0  0  0  0
   -3.2934   -0.1687   -2.6118 C   0  0  0  0  0  0  0  0  0  0  0  0
   -4.1248   -0.4024   -3.3089 H   0  0  0  0  0  0  0  0  0  0  0  0
   -2.3772   -0.6914   -2.9420 H   0  0  0  0  0  0  0  0  0  0  0  0
   -3.0851    0.9187   -2.6810 H   0  0  0  0  0  0  0  0  0  0  0  0
   -5.0049    0.1129   -0.7654 C   0  0  0  0  0  0  0  0  0  0  0  0
   -4.9022    1.2189   -0.7301 H   0  0  0  0  0  0  0  0  0  0  0  0
   -5.3841   -0.2304    0.2161 H   0  0  0  0  0  0  0  0  0  0  0  0
   -5.7910   -0.1024   -1.5186 H   0  0  0  0  0  0  0  0  0  0  0  0
   -3.0897   -0.6001    1.6959 C   0  0  0  0  0  0  0  0  0  0  0  0
   -3.9182    0.1402    1.7632 H   0  0  0  0  0  0  0  0  0  0  0  0
   -2.0770   -0.3047    2.8073 C   0  0  0  0  0  0  0  0  0  0  0  0
   -2.5636   -0.3897    3.8011 H   0  0  0  0  0  0  0  0  0  0  0  0
   -1.6518    0.7158    2.7252 H   0  0  0  0  0  0  0  0  0  0  0  0
   -1.2422   -1.0311    2.7693 H   0  0  0  0  0  0  0  0  0  0  0  0
   -3.6583   -2.0210    1.7992 C   0  0  0  0  0  0  0  0  0  0  0  0
   -2.8561   -2.7695    1.6403 H   0  0  0  0  0  0  0  0  0  0  0  0
   -4.4640   -2.2120    1.0627 H   0  0  0  0  0  0  0  0  0  0  0  0
   -4.0876   -2.1824    2.8100 H   0  0  0  0  0  0  0  0  0  0  0  0
  2  6  1  0  0  0  0
  2 25  1  0  0  0  0
  3  8  1  0  0  0  0
  3 45  1  0  0  0  0
  5 11  2  0  0  0  0
  7  6  1  0  0  0  0
  8  9  1  0  0  0  0
  8 14  1  0  0  0  0
 10  6  1  1  0  0  0
 10  4  1  0  0  0  0
 10  5  1  0  0  0  0
 11  1  1  0  0  0  0
 12 11  1  0  0  0  0
 13 12  1  0  0  0  0
 14  4  1  0  0  0  0
 14 12  2  0  0  0  0
 15 16  1  0  0  0  0
 15  2  1  0  0  0  0
 17 15  1  0  0  0  0
 17 19  1  0  0  0  0
 18 17  1  0  0  0  0
 20 17  1  0  0  0  0
 21 23  1  0  0  0  0
 21 15  1  0  0  0  0
 22 21  1  0  0  0  0
 24 21  1  0  0  0  0
 25 31  1  0  0  0  0
 25 27  1  0  0  0  0
 26 25  1  0  0  0  0
 27 30  1  0  0  0  0
 27 28  1  0  0  0  0
 29 27  1  0  0  0  0
 31 32  1  0  0  0  0
 31 34  1  0  0  0  0
 33 31  1  0  0  0  0
 35 36  1  0  0  0  0
 35 41  1  0  0  0  0
 35  3  1  0  0  0  0
 37 35  1  0  0  0  0
 38 37  1  0  0  0  0
 39 37  1  0  0  0  0
 40 37  1  0  0  0  0
 41 42  1  0  0  0  0
 41 43  1  0  0  0  0
 44 41  1  0  0  0  0
 45 46  1  0  0  0  0
 45 51  1  0  0  0  0
 45 47  1  0  0  0  0
 47 48  1  0  0  0  0
 49 47  1  0  0  0  0
 50 47  1  0  0  0  0
 51 54  1  0  0  0  0
 52 51  1  0  0  0  0
 53 51  1  0  0  0  0
M  END
