1,2,69
 OpenBabel05122313063D

 71 72  0  0  0  0  0  0  0  0999 V2000
    2.5444    0.6307   -1.5930 P   0  0  0  0  0  0  0  0  0  0  0  0
   -1.3341   -0.3366    0.4392 P   0  0  0  0  0  0  0  0  0  0  0  0
    3.4237   -0.5019   -0.4690 C   0  0  0  0  0  0  0  0  0  0  0  0
    4.8178   -0.4777   -0.2758 C   0  0  0  0  0  0  0  0  0  0  0  0
    5.4346    0.2200   -0.8647 H   0  0  0  0  0  0  0  0  0  0  0  0
    5.4496   -1.2933    0.6777 C   0  0  0  0  0  0  0  0  0  0  0  0
    4.6116   -2.1192    1.4614 C   0  0  0  0  0  0  0  0  0  0  0  0
    5.0596   -2.7330    2.2599 H   0  0  0  0  0  0  0  0  0  0  0  0
    3.2287   -2.1654    1.2820 C   0  0  0  0  0  0  0  0  0  0  0  0
    2.6216   -2.7866    1.9532 H   0  0  0  0  0  0  0  0  0  0  0  0
    2.5856   -1.3807    0.2834 C   0  0  0  0  0  0  0  0  0  0  0  0
    6.9427   -1.2719    0.8823 C   0  0  0  0  0  0  0  0  0  0  0  0
    7.4085   -2.2377    0.5904 H   0  0  0  0  0  0  0  0  0  0  0  0
    7.2079   -1.0991    1.9463 H   0  0  0  0  0  0  0  0  0  0  0  0
    7.4248   -0.4763    0.2811 H   0  0  0  0  0  0  0  0  0  0  0  0
    0.3642   -2.3840    0.5028 C   0  0  0  0  0  0  0  0  0  0  0  0
    0.7152   -3.7544    0.6180 C   0  0  0  0  0  0  0  0  0  0  0  0
    1.7320   -4.0799    0.3606 H   0  0  0  0  0  0  0  0  0  0  0  0
   -0.2335   -4.7059    1.0067 C   0  0  0  0  0  0  0  0  0  0  0  0
    0.0779   -5.7618    1.0647 H   0  0  0  0  0  0  0  0  0  0  0  0
   -1.5781   -4.3748    1.2947 C   0  0  0  0  0  0  0  0  0  0  0  0
   -1.9453   -3.0257    1.1562 C   0  0  0  0  0  0  0  0  0  0  0  0
   -2.9898   -2.7152    1.3150 H   0  0  0  0  0  0  0  0  0  0  0  0
   -0.9986   -2.0625    0.7776 C   0  0  0  0  0  0  0  0  0  0  0  0
   -2.5697   -5.4288    1.7156 C   0  0  0  0  0  0  0  0  0  0  0  0
   -2.3643   -5.7900    2.7464 H   0  0  0  0  0  0  0  0  0  0  0  0
   -2.5302   -6.3164    1.0509 H   0  0  0  0  0  0  0  0  0  0  0  0
   -3.6060   -5.0392    1.7018 H   0  0  0  0  0  0  0  0  0  0  0  0
    3.3124    2.3096   -1.3155 C   0  0  0  0  0  0  0  0  0  0  0  0
    4.4088    2.1490   -1.4166 H   0  0  0  0  0  0  0  0  0  0  0  0
    2.8585    3.3258   -2.3683 C   0  0  0  0  0  0  0  0  0  0  0  0
    3.1409    3.0281   -3.3975 H   0  0  0  0  0  0  0  0  0  0  0  0
    3.3290    4.3102   -2.1669 H   0  0  0  0  0  0  0  0  0  0  0  0
    1.7603    3.4734   -2.3422 H   0  0  0  0  0  0  0  0  0  0  0  0
    3.0120    2.7756    0.1149 C   0  0  0  0  0  0  0  0  0  0  0  0
    1.9355    3.0094    0.2397 H   0  0  0  0  0  0  0  0  0  0  0  0
    3.5833    3.6989    0.3422 H   0  0  0  0  0  0  0  0  0  0  0  0
    3.2837    2.0112    0.8696 H   0  0  0  0  0  0  0  0  0  0  0  0
    2.9223    0.1108   -3.3504 C   0  0  0  0  0  0  0  0  0  0  0  0
    2.3648    0.8529   -3.9639 H   0  0  0  0  0  0  0  0  0  0  0  0
    4.4086    0.1568   -3.7127 C   0  0  0  0  0  0  0  0  0  0  0  0
    4.8550    1.1604   -3.5626 H   0  0  0  0  0  0  0  0  0  0  0  0
    4.5461   -0.1110   -4.7810 H   0  0  0  0  0  0  0  0  0  0  0  0
    4.9865   -0.5734   -3.1110 H   0  0  0  0  0  0  0  0  0  0  0  0
    2.3056   -1.2762   -3.5739 C   0  0  0  0  0  0  0  0  0  0  0  0
    2.7972   -2.0352   -2.9311 H   0  0  0  0  0  0  0  0  0  0  0  0
    2.4316   -1.5887   -4.6308 H   0  0  0  0  0  0  0  0  0  0  0  0
    1.2238   -1.2824   -3.3293 H   0  0  0  0  0  0  0  0  0  0  0  0
   -3.5223    0.1551   -1.0181 C   0  0  0  0  0  0  0  0  0  0  0  0
   -2.8001    0.7776   -1.5922 H   0  0  0  0  0  0  0  0  0  0  0  0
   -3.8487   -1.0641   -1.9033 C   0  0  0  0  0  0  0  0  0  0  0  0
   -4.7273    1.0554   -0.6884 C   0  0  0  0  0  0  0  0  0  0  0  0
   -0.3221    1.4270    2.1160 C   0  0  0  0  0  0  0  0  0  0  0  0
    0.3414    1.4752    1.2089 H   0  0  0  0  0  0  0  0  0  0  0  0
   -0.9910    2.8026    2.2350 C   0  0  0  0  0  0  0  0  0  0  0  0
    0.5809    1.0320    3.2924 C   0  0  0  0  0  0  0  0  0  0  0  0
   -2.7028   -1.7426   -2.1478 F   0  0  0  0  0  0  0  0  0  0  0  0
   -4.3702   -0.6824   -3.0842 F   0  0  0  0  0  0  0  0  0  0  0  0
   -4.7081   -1.9063   -1.3048 F   0  0  0  0  0  0  0  0  0  0  0  0
   -5.2578    1.5611   -1.8210 F   0  0  0  0  0  0  0  0  0  0  0  0
   -5.6897    0.3868   -0.0296 F   0  0  0  0  0  0  0  0  0  0  0  0
   -4.3174    2.0794    0.0822 F   0  0  0  0  0  0  0  0  0  0  0  0
   -1.7317    3.0260    1.1241 F   0  0  0  0  0  0  0  0  0  0  0  0
   -1.8004    2.9046    3.3015 F   0  0  0  0  0  0  0  0  0  0  0  0
   -0.0572    3.7778    2.3136 F   0  0  0  0  0  0  0  0  0  0  0  0
   -0.0703    1.0170    4.4692 F   0  0  0  0  0  0  0  0  0  0  0  0
    1.6179    1.8953    3.3943 F   0  0  0  0  0  0  0  0  0  0  0  0
    1.0847   -0.2010    3.0759 F   0  0  0  0  0  0  0  0  0  0  0  0
    1.2117   -1.3620    0.0617 N   0  0  0  0  0  2  0  0  0  0  0  0
   -2.9863   -0.3020    0.1998 O   0  0  0  0  0  0  0  0  0  0  0  0
   -1.3149    0.4395    1.9364 O   0  0  0  0  0  0  0  0  0  0  0  0
  1 29  1  0  0  0  0
  1  3  1  0  0  0  0
  2 24  1  0  0  0  0
  2 71  1  0  0  0  0
  3  4  2  0  0  0  0
  3 11  1  0  0  0  0
  4  6  1  0  0  0  0
  5  4  1  0  0  0  0
  6 12  1  0  0  0  0
  6  7  2  0  0  0  0
  7  8  1  0  0  0  0
  9  7  1  0  0  0  0
  9 10  1  0  0  0  0
 11  9  2  0  0  0  0
 12 14  1  0  0  0  0
 13 12  1  0  0  0  0
 15 12  1  0  0  0  0
 16 17  2  0  0  0  0
 16 24  1  0  0  0  0
 17 19  1  0  0  0  0
 18 17  1  0  0  0  0
 19 20  1  0  0  0  0
 19 21  2  0  0  0  0
 21 25  1  0  0  0  0
 22 21  1  0  0  0  0
 22 23  1  0  0  0  0
 24 22  2  0  0  0  0
 25 26  1  0  0  0  0
 27 25  1  0  0  0  0
 28 25  1  0  0  0  0
 29 35  1  0  0  0  0
 30 29  1  0  0  0  0
 31 34  1  0  0  0  0
 31 33  1  0  0  0  0
 31 29  1  0  0  0  0
 32 31  1  0  0  0  0
 35 36  1  0  0  0  0
 35 37  1  0  0  0  0
 35 38  1  0  0  0  0
 39  1  1  0  0  0  0
 40 39  1  0  0  0  0
 41 42  1  0  0  0  0
 41 39  1  0  0  0  0
 41 44  1  0  0  0  0
 43 41  1  0  0  0  0
 45 39  1  0  0  0  0
 45 48  1  0  0  0  0
 45 46  1  0  0  0  0
 47 45  1  0  0  0  0
 49 52  1  0  0  0  0
 49 70  1  0  0  0  0
 50 49  1  0  0  0  0
 51 59  1  0  0  0  0
 51 49  1  0  0  0  0
 52 61  1  0  0  0  0
 52 62  1  0  0  0  0
 53 55  1  0  0  0  0
 53 56  1  0  0  0  0
 54 53  1  0  0  0  0
 55 65  1  0  0  0  0
 55 64  1  0  0  0  0
 56 67  1  0  0  0  0
 56 66  1  0  0  0  0
 57 51  1  0  0  0  0
 58 51  1  0  0  0  0
 60 52  1  0  0  0  0
 63 55  1  0  0  0  0
 68 56  1  0  0  0  0
 69 11  1  0  0  0  0
 69 16  1  0  0  0  0
 70  2  1  0  0  0  0
 71 53  1  0  0  0  0
M  END
