1,2,3
q = 0.0, confidence = 0.998

 59 61  0  0  1  0  0  0  0  0999 V2000
    2.1016    0.2582    0.6759 P   0  0  2  0  0  0  0  0  0  0  0  0
   -2.1016    0.2580   -0.6759 P   0  0  2  0  0  0  0  0  0  0  0  0
   -0.0000    2.0695   -0.0001 N   0  0  0  0  0  2  0  0  0  0  0  0
    2.4407    1.9474   -0.0309 C   0  0  0  0  0  0  0  0  0  0  0  0
    3.2924    2.4792    0.4372 H   0  0  0  0  0  0  0  0  0  0  0  0
    2.6794    1.7476   -1.1001 H   0  0  0  0  0  0  0  0  0  0  0  0
    1.1786    2.7571    0.0164 C   0  0  1  0  0  3  0  0  0  0  0  0
    1.2034    4.1608    0.0332 C   0  0  0  0  0  0  0  0  0  0  0  0
    2.1716    4.6804    0.0538 H   0  0  0  0  0  0  0  0  0  0  0  0
   -0.0001    4.8733   -0.0001 C   0  0  0  0  0  0  0  0  0  0  0  0
   -0.0001    5.9736   -0.0001 H   0  0  0  0  0  0  0  0  0  0  0  0
   -1.2035    4.1608   -0.0334 C   0  0  0  0  0  0  0  0  0  0  0  0
   -2.1718    4.6803   -0.0541 H   0  0  0  0  0  0  0  0  0  0  0  0
   -1.1787    2.7571   -0.0166 C   0  0  0  0  0  0  0  0  0  0  0  0
   -2.4407    1.9473    0.0308 C   0  0  0  0  0  0  0  0  0  0  0  0
   -3.2925    2.4790   -0.4375 H   0  0  0  0  0  0  0  0  0  0  0  0
   -2.6796    1.7476    1.0999 H   0  0  0  0  0  0  0  0  0  0  0  0
    2.5010    0.4452    2.4620 C   0  0  0  0  0  0  0  0  0  0  0  0
    3.5719    0.6892    2.6109 H   0  0  0  0  0  0  0  0  0  0  0  0
    2.2434   -0.4894    2.9949 H   0  0  0  0  0  0  0  0  0  0  0  0
    1.8585    1.2432    2.8789 H   0  0  0  0  0  0  0  0  0  0  0  0
    3.4488   -0.8264   -0.0089 C   0  0  0  0  0  0  0  0  0  0  0  0
    3.1266   -0.9591   -1.0670 H   0  0  0  0  0  0  0  0  0  0  0  0
    4.8537   -0.1994    0.0082 C   0  0  0  0  0  0  0  0  0  0  0  0
    4.8571    0.7701   -0.5309 H   0  0  0  0  0  0  0  0  0  0  0  0
    5.1556    0.0170    1.0581 H   0  0  0  0  0  0  0  0  0  0  0  0
    5.8866   -1.1450   -0.6252 C   0  0  0  0  0  0  0  0  0  0  0  0
    5.6464   -1.2652   -1.7052 H   0  0  0  0  0  0  0  0  0  0  0  0
    6.8972   -0.6872   -0.5775 H   0  0  0  0  0  0  0  0  0  0  0  0
    5.8842   -2.5224    0.0485 C   0  0  0  0  0  0  0  0  0  0  0  0
    6.2293   -2.4141    1.1020 H   0  0  0  0  0  0  0  0  0  0  0  0
    6.6112   -3.1974   -0.4498 H   0  0  0  0  0  0  0  0  0  0  0  0
    4.4814   -3.1410    0.0399 C   0  0  0  0  0  0  0  0  0  0  0  0
    4.4817   -4.1183    0.5663 H   0  0  0  0  0  0  0  0  0  0  0  0
    4.1759   -3.3497   -1.0094 H   0  0  0  0  0  0  0  0  0  0  0  0
    3.4476   -2.2042    0.6810 C   0  0  0  0  0  0  0  0  0  0  0  0
    3.6948   -2.0785    1.7592 H   0  0  0  0  0  0  0  0  0  0  0  0
    2.4396   -2.6612    0.6355 H   0  0  0  0  0  0  0  0  0  0  0  0
   -2.5010    0.4448   -2.4620 C   0  0  0  0  0  0  0  0  0  0  0  0
   -3.5719    0.6887   -2.6110 H   0  0  0  0  0  0  0  0  0  0  0  0
   -2.2433   -0.4898   -2.9948 H   0  0  0  0  0  0  0  0  0  0  0  0
   -1.8586    1.2430   -2.8790 H   0  0  0  0  0  0  0  0  0  0  0  0
   -3.4488   -0.8265    0.0090 C   0  0  0  0  0  0  0  0  0  0  0  0
   -3.1265   -0.9593    1.0671 H   0  0  0  0  0  0  0  0  0  0  0  0
   -3.4478   -2.2043   -0.6810 C   0  0  0  0  0  0  0  0  0  0  0  0
   -3.6950   -2.0786   -1.7592 H   0  0  0  0  0  0  0  0  0  0  0  0
   -2.4398   -2.6614   -0.6356 H   0  0  0  0  0  0  0  0  0  0  0  0
   -4.4815   -3.1411   -0.0399 C   0  0  0  0  0  0  0  0  0  0  0  0
   -4.4820   -4.1183   -0.5663 H   0  0  0  0  0  0  0  0  0  0  0  0
   -4.1760   -3.3499    1.0095 H   0  0  0  0  0  0  0  0  0  0  0  0
   -5.8843   -2.5223   -0.0483 C   0  0  0  0  0  0  0  0  0  0  0  0
   -6.6113   -3.1973    0.4501 H   0  0  0  0  0  0  0  0  0  0  0  0
   -6.2295   -2.4140   -1.1017 H   0  0  0  0  0  0  0  0  0  0  0  0
   -5.8865   -1.1450    0.6255 C   0  0  0  0  0  0  0  0  0  0  0  0
   -5.6463   -1.2652    1.7054 H   0  0  0  0  0  0  0  0  0  0  0  0
   -6.8971   -0.6871    0.5779 H   0  0  0  0  0  0  0  0  0  0  0  0
   -4.8536   -0.1994   -0.0080 C   0  0  0  0  0  0  0  0  0  0  0  0
   -5.1556    0.0170   -1.0579 H   0  0  0  0  0  0  0  0  0  0  0  0
   -4.8570    0.7701    0.5311 H   0  0  0  0  0  0  0  0  0  0  0  0
  1  4  1  6  0  0  0
  1 18  1  0  0  0  0
  2 39  1  6  0  0  0
  2 43  1  0  0  0  0
  2 15  1  0  0  0  0
  3  7  1  0  0  0  0
  4  5  1  0  0  0  0
  6  4  1  0  0  0  0
  7  4  1  6  0  0  0
  7  8  1  0  0  0  0
  8  9  1  0  0  0  0
 10  8  2  0  0  0  0
 11 10  1  0  0  0  0
 12 14  2  0  0  0  0
 12 10  1  0  0  0  0
 13 12  1  0  0  0  0
 14  3  1  0  0  0  0
 14 15  1  0  0  0  0
 15 17  1  0  0  0  0
 16 15  1  0  0  0  0
 18 19  1  0  0  0  0
 18 21  1  0  0  0  0
 18 20  1  0  0  0  0
 22 24  1  0  0  0  0
 22  1  1  0  0  0  0
 22 36  1  0  0  0  0
 23 22  1  0  0  0  0
 24 26  1  0  0  0  0
 25 24  1  0  0  0  0
 27 29  1  0  0  0  0
 27 24  1  0  0  0  0
 27 30  1  0  0  0  0
 28 27  1  0  0  0  0
 30 31  1  0  0  0  0
 32 30  1  0  0  0  0
 33 30  1  0  0  0  0
 33 34  1  0  0  0  0
 33 36  1  0  0  0  0
 35 33  1  0  0  0  0
 36 37  1  0  0  0  0
 38 36  1  0  0  0  0
 40 39  1  0  0  0  0
 41 39  1  0  0  0  0
 42 39  1  0  0  0  0
 43 44  1  0  0  0  0
 45 47  1  0  0  0  0
 45 48  1  0  0  0  0
 45 43  1  0  0  0  0
 46 45  1  0  0  0  0
 48 50  1  0  0  0  0
 49 48  1  0  0  0  0
 51 48  1  0  0  0  0
 51 52  1  0  0  0  0
 51 54  1  0  0  0  0
 53 51  1  0  0  0  0
 54 55  1  0  0  0  0
 56 54  1  0  0  0  0
 57 43  1  0  0  0  0
 57 59  1  0  0  0  0
 57 54  1  0  0  0  0
 58 57  1  0  0  0  0
M  END
