1,2,3
q = 0.0, confidence = 0.998

 70 73  0  0  0  0  0  0  0  0999 V2000
    2.1296    0.0178    0.4886 P   0  0  0  0  0  0  0  0  0  0  0  0
   -2.3223   -0.0063    0.4523 P   0  0  0  0  0  0  0  0  0  0  0  0
   -0.0844   -0.4394    2.2166 N   0  0  0  0  0  2  0  0  0  0  0  0
    2.2266    0.2500    2.3466 C   0  0  0  0  0  0  0  0  0  0  0  0
    3.1306   -0.1813    2.8222 H   0  0  0  0  0  0  0  0  0  0  0  0
    2.2437    1.3469    2.5279 H   0  0  0  0  0  0  0  0  0  0  0  0
    0.9689   -0.2799    2.9439 C   0  0  0  0  0  3  0  0  0  0  0  0
    0.9316   -0.5004    4.0315 H   0  0  0  0  0  0  0  0  0  0  0  0
   -1.3273   -0.9300    2.8169 C   0  0  0  0  0  0  0  0  0  0  0  0
   -1.2653   -0.9161    3.9270 H   0  0  0  0  0  0  0  0  0  0  0  0
   -1.4386   -1.9846    2.4799 H   0  0  0  0  0  0  0  0  0  0  0  0
   -2.4946   -0.0869    2.3026 C   0  0  0  0  0  0  0  0  0  0  0  0
   -2.3975    0.9625    2.6482 H   0  0  0  0  0  0  0  0  0  0  0  0
   -3.4720   -0.4842    2.6390 H   0  0  0  0  0  0  0  0  0  0  0  0
    3.0846   -1.5536    0.1679 C   0  0  0  0  0  0  0  0  0  0  0  0
    2.4349   -2.3296    0.6325 H   0  0  0  0  0  0  0  0  0  0  0  0
    3.1184   -1.8410   -1.3457 C   0  0  0  0  0  0  0  0  0  0  0  0
    2.0861   -1.8144   -1.7492 H   0  0  0  0  0  0  0  0  0  0  0  0
    3.7019   -1.0470   -1.8648 H   0  0  0  0  0  0  0  0  0  0  0  0
    3.7625   -3.2040   -1.6281 C   0  0  0  0  0  0  0  0  0  0  0  0
    3.1098   -3.9970   -1.2006 H   0  0  0  0  0  0  0  0  0  0  0  0
    3.8008   -3.3853   -2.7226 H   0  0  0  0  0  0  0  0  0  0  0  0
    5.1648   -3.3020   -1.0158 C   0  0  0  0  0  0  0  0  0  0  0  0
    5.6016   -4.3066   -1.1963 H   0  0  0  0  0  0  0  0  0  0  0  0
    5.8374   -2.5733   -1.5234 H   0  0  0  0  0  0  0  0  0  0  0  0
    5.1386   -2.9962    0.4868 C   0  0  0  0  0  0  0  0  0  0  0  0
    6.1645   -3.0270    0.9110 H   0  0  0  0  0  0  0  0  0  0  0  0
    4.5573   -3.7880    1.0101 H   0  0  0  0  0  0  0  0  0  0  0  0
    4.4921   -1.6321    0.7799 C   0  0  0  0  0  0  0  0  0  0  0  0
    4.4623   -1.4642    1.8770 H   0  0  0  0  0  0  0  0  0  0  0  0
    5.1362   -0.8279    0.3569 H   0  0  0  0  0  0  0  0  0  0  0  0
    3.2323    1.3372   -0.2804 C   0  0  0  0  0  0  0  0  0  0  0  0
    4.1668    0.7856   -0.5318 H   0  0  0  0  0  0  0  0  0  0  0  0
    3.6230    2.4987    0.6512 C   0  0  0  0  0  0  0  0  0  0  0  0
    4.1214    2.1133    1.5652 H   0  0  0  0  0  0  0  0  0  0  0  0
    2.6968    3.0217    0.9739 H   0  0  0  0  0  0  0  0  0  0  0  0
    4.5577    3.4887   -0.0601 C   0  0  0  0  0  0  0  0  0  0  0  0
    4.7978    4.3305    0.6231 H   0  0  0  0  0  0  0  0  0  0  0  0
    5.5243    2.9827   -0.2850 H   0  0  0  0  0  0  0  0  0  0  0  0
    3.9469    4.0086   -1.3663 C   0  0  0  0  0  0  0  0  0  0  0  0
    3.0321    4.5971   -1.1318 H   0  0  0  0  0  0  0  0  0  0  0  0
    4.6496    4.7034   -1.8726 H   0  0  0  0  0  0  0  0  0  0  0  0
    3.5718    2.8475   -2.2937 C   0  0  0  0  0  0  0  0  0  0  0  0
    4.4988    2.3166   -2.6103 H   0  0  0  0  0  0  0  0  0  0  0  0
    3.0965    3.2257   -3.2228 H   0  0  0  0  0  0  0  0  0  0  0  0
    2.6279    1.8588   -1.5981 C   0  0  0  0  0  0  0  0  0  0  0  0
    2.3907    1.0148   -2.2760 H   0  0  0  0  0  0  0  0  0  0  0  0
    1.6637    2.3591   -1.3663 H   0  0  0  0  0  0  0  0  0  0  0  0
   -3.3696    1.4171   -0.0655 C   0  0  0  0  0  0  0  0  0  0  0  0
   -2.9250    2.3199   -1.0500 C   0  0  0  0  0  0  0  0  0  0  0  0
   -1.9143    2.2218   -1.4683 H   0  0  0  0  0  0  0  0  0  0  0  0
   -3.7670    3.3553   -1.4839 C   0  0  0  0  0  0  0  0  0  0  0  0
   -3.4115    4.0563   -2.2542 H   0  0  0  0  0  0  0  0  0  0  0  0
   -5.0487    3.5043   -0.9327 C   0  0  0  0  0  0  0  0  0  0  0  0
   -5.7036    4.3219   -1.2708 H   0  0  0  0  0  0  0  0  0  0  0  0
   -5.4965    2.6058    0.0494 C   0  0  0  0  0  0  0  0  0  0  0  0
   -6.5033    2.7134    0.4810 H   0  0  0  0  0  0  0  0  0  0  0  0
   -4.6639    1.5612    0.4753 C   0  0  0  0  0  0  0  0  0  0  0  0
   -5.0336    0.8447    1.2254 H   0  0  0  0  0  0  0  0  0  0  0  0
   -3.3172   -1.3989   -0.2244 C   0  0  0  0  0  0  0  0  0  0  0  0
   -3.4355   -1.4739   -1.6282 C   0  0  0  0  0  0  0  0  0  0  0  0
   -2.9492   -0.7150   -2.2609 H   0  0  0  0  0  0  0  0  0  0  0  0
   -4.1597   -2.5144   -2.2221 C   0  0  0  0  0  0  0  0  0  0  0  0
   -4.2436   -2.5631   -3.3184 H   0  0  0  0  0  0  0  0  0  0  0  0
   -4.7700   -3.4957   -1.4230 C   0  0  0  0  0  0  0  0  0  0  0  0
   -5.3365   -4.3153   -1.8904 H   0  0  0  0  0  0  0  0  0  0  0  0
   -4.6497   -3.4301   -0.0275 C   0  0  0  0  0  0  0  0  0  0  0  0
   -5.1193   -4.1991    0.6047 H   0  0  0  0  0  0  0  0  0  0  0  0
   -3.9246   -2.3872    0.5709 C   0  0  0  0  0  0  0  0  0  0  0  0
   -3.8322   -2.3612    1.6667 H   0  0  0  0  0  0  0  0  0  0  0  0
  1  4  1  0  0  0  0
  2 12  1  0  0  0  0
  3  9  1  0  0  0  0
  3  7  1  0  0  0  0
  4  6  1  0  0  0  0
  4  5  1  0  0  0  0
  4  7  1  0  0  0  0
  7  8  1  0  0  0  0
  9 10  1  0  0  0  0
 11  9  1  0  0  0  0
 12 14  1  0  0  0  0
 12 13  1  0  0  0  0
 12  9  1  0  0  0  0
 15  1  1  0  0  0  0
 15 16  1  0  0  0  0
 15 29  1  0  0  0  0
 17 15  1  0  0  0  0
 18 17  1  0  0  0  0
 19 17  1  0  0  0  0
 20 17  1  0  0  0  0
 20 21  1  0  0  0  0
 20 23  1  0  0  0  0
 22 20  1  0  0  0  0
 23 26  1  0  0  0  0
 24 23  1  0  0  0  0
 25 23  1  0  0  0  0
 26 29  1  0  0  0  0
 26 27  1  0  0  0  0
 26 28  1  0  0  0  0
 29 30  1  0  0  0  0
 31 29  1  0  0  0  0
 32  1  1  0  0  0  0
 32 34  1  0  0  0  0
 33 32  1  0  0  0  0
 34 36  1  0  0  0  0
 34 35  1  0  0  0  0
 37 38  1  0  0  0  0
 37 34  1  0  0  0  0
 39 37  1  0  0  0  0
 40 41  1  0  0  0  0
 40 37  1  0  0  0  0
 42 40  1  0  0  0  0
 43 46  1  0  0  0  0
 43 40  1  0  0  0  0
 44 43  1  0  0  0  0
 45 43  1  0  0  0  0
 46 48  1  0  0  0  0
 46 32  1  0  0  0  0
 47 46  1  0  0  0  0
 49  2  1  0  0  0  0
 49 58  1  0  0  0  0
 50 49  2  0  0  0  0
 51 50  1  0  0  0  0
 52 50  1  0  0  0  0
 52 54  2  0  0  0  0
 53 52  1  0  0  0  0
 54 56  1  0  0  0  0
 55 54  1  0  0  0  0
 56 58  2  0  0  0  0
 56 57  1  0  0  0  0
 58 59  1  0  0  0  0
 60  2  1  0  0  0  0
 60 69  1  0  0  0  0
 61 60  2  0  0  0  0
 62 61  1  0  0  0  0
 63 61  1  0  0  0  0
 63 65  2  0  0  0  0
 64 63  1  0  0  0  0
 65 67  1  0  0  0  0
 66 65  1  0  0  0  0
 67 69  2  0  0  0  0
 67 68  1  0  0  0  0
 69 70  1  0  0  0  0
M  END
