1,2,3
q = 0.0, confidence = 1.0

 58 59  0  0  0  0  0  0  0  0999 V2000
    2.3894    0.0042    0.0850 P   0  0  0  0  0  0  0  0  0  0  0  0
   -1.3359   -0.0598    0.5302 P   0  0  0  0  0  0  0  0  0  0  0  0
    0.7510   -1.4138    2.0039 N   0  0  0  0  0  0  0  0  0  0  0  0
    2.9904   -0.3733    1.8301 C   0  0  0  0  0  0  0  0  0  0  0  0
    4.0765   -0.5934    1.8559 H   0  0  0  0  0  0  0  0  0  0  0  0
    2.8323    0.5268    2.4598 H   0  0  0  0  0  0  0  0  0  0  0  0
    2.1876   -1.5637    2.3483 C   0  0  0  0  0  0  0  0  0  0  0  0
    2.5337   -2.4941    1.8589 H   0  0  0  0  0  0  0  0  0  0  0  0
    2.3112   -1.6867    3.4502 H   0  0  0  0  0  0  0  0  0  0  0  0
    0.0450   -0.4360    2.8694 C   0  0  0  0  0  0  0  0  0  0  0  0
    0.5874    0.5271    2.7883 H   0  0  0  0  0  0  0  0  0  0  0  0
    0.0918   -0.7594    3.9362 H   0  0  0  0  0  0  0  0  0  0  0  0
   -1.3908   -0.2701    2.3947 C   0  0  0  0  0  0  0  0  0  0  0  0
   -1.9083    0.5630    2.9111 H   0  0  0  0  0  0  0  0  0  0  0  0
   -1.9797   -1.1923    2.5829 H   0  0  0  0  0  0  0  0  0  0  0  0
    3.8600   -0.5572   -0.9613 C   0  0  0  0  0  0  0  0  0  0  0  0
    4.7497   -0.0225   -0.5601 H   0  0  0  0  0  0  0  0  0  0  0  0
    3.6740   -0.1893   -2.4374 C   0  0  0  0  0  0  0  0  0  0  0  0
    4.5021   -0.6125   -3.0440 H   0  0  0  0  0  0  0  0  0  0  0  0
    3.6681    0.9053   -2.6024 H   0  0  0  0  0  0  0  0  0  0  0  0
    2.7228   -0.5948   -2.8369 H   0  0  0  0  0  0  0  0  0  0  0  0
    4.0701   -2.0653   -0.7934 C   0  0  0  0  0  0  0  0  0  0  0  0
    4.9311   -2.4019   -1.4082 H   0  0  0  0  0  0  0  0  0  0  0  0
    3.1707   -2.6271   -1.1154 H   0  0  0  0  0  0  0  0  0  0  0  0
    4.2865   -2.3498    0.2566 H   0  0  0  0  0  0  0  0  0  0  0  0
    2.4957    1.8928    0.0819 C   0  0  0  0  0  0  0  0  0  0  0  0
    1.8852    2.1226    0.9857 H   0  0  0  0  0  0  0  0  0  0  0  0
    3.9036    2.4634    0.2750 C   0  0  0  0  0  0  0  0  0  0  0  0
    3.8592    3.5627    0.4284 H   0  0  0  0  0  0  0  0  0  0  0  0
    4.5370    2.2881   -0.6187 H   0  0  0  0  0  0  0  0  0  0  0  0
    4.4264    2.0270    1.1507 H   0  0  0  0  0  0  0  0  0  0  0  0
    1.7671    2.5192   -1.1107 C   0  0  0  0  0  0  0  0  0  0  0  0
    1.6528    3.6124   -0.9579 H   0  0  0  0  0  0  0  0  0  0  0  0
    0.7555    2.0907   -1.2324 H   0  0  0  0  0  0  0  0  0  0  0  0
    2.3158    2.3687   -2.0612 H   0  0  0  0  0  0  0  0  0  0  0  0
   -1.5422    1.7545    0.2531 C   0  0  0  0  0  0  0  0  0  0  0  0
   -1.9665    2.1958   -1.0214 C   0  0  0  0  0  0  0  0  0  0  0  0
   -2.2791    1.4581   -1.7765 H   0  0  0  0  0  0  0  0  0  0  0  0
   -1.9802    3.5615   -1.3360 C   0  0  0  0  0  0  0  0  0  0  0  0
   -2.3133    3.8858   -2.3339 H   0  0  0  0  0  0  0  0  0  0  0  0
   -1.5687    4.5128   -0.3876 C   0  0  0  0  0  0  0  0  0  0  0  0
   -1.5787    5.5848   -0.6362 H   0  0  0  0  0  0  0  0  0  0  0  0
   -1.1420    4.0848    0.8801 C   0  0  0  0  0  0  0  0  0  0  0  0
   -0.8200    4.8220    1.6320 H   0  0  0  0  0  0  0  0  0  0  0  0
   -1.1264    2.7178    1.1965 C   0  0  0  0  0  0  0  0  0  0  0  0
   -0.7789    2.4054    2.1938 H   0  0  0  0  0  0  0  0  0  0  0  0
   -3.0071   -0.6832    0.0239 C   0  0  0  0  0  0  0  0  0  0  0  0
   -4.1937    0.0271    0.3009 C   0  0  0  0  0  0  0  0  0  0  0  0
   -4.1410    1.0152    0.7850 H   0  0  0  0  0  0  0  0  0  0  0  0
   -5.4380   -0.5158   -0.0510 C   0  0  0  0  0  0  0  0  0  0  0  0
   -6.3615    0.0421    0.1686 H   0  0  0  0  0  0  0  0  0  0  0  0
   -5.5059   -1.7669   -0.6882 C   0  0  0  0  0  0  0  0  0  0  0  0
   -6.4833   -2.1884   -0.9694 H   0  0  0  0  0  0  0  0  0  0  0  0
   -4.3268   -2.4737   -0.9711 C   0  0  0  0  0  0  0  0  0  0  0  0
   -4.3756   -3.4499   -1.4777 H   0  0  0  0  0  0  0  0  0  0  0  0
   -3.0801   -1.9340   -0.6159 C   0  0  0  0  0  0  0  0  0  0  0  0
   -2.1423   -2.4718   -0.8302 H   0  0  0  0  0  0  0  0  0  0  0  0
    0.2960   -2.3270    2.1308 H   0  0  0  0  0  0  0  0  0  0  0  0
  1  4  1  0  0  0  0
  2 13  1  0  0  0  0
  3 58  1  0  0  0  0
  3  7  1  0  0  0  0
  3 10  1  0  0  0  0
  4  5  1  0  0  0  0
  4  7  1  0  0  0  0
  4  6  1  0  0  0  0
  7  9  1  0  0  0  0
  8  7  1  0  0  0  0
 10 12  1  0  0  0  0
 11 10  1  0  0  0  0
 13 15  1  0  0  0  0
 13 10  1  0  0  0  0
 13 14  1  0  0  0  0
 16 22  1  0  0  0  0
 16 17  1  0  0  0  0
 16  1  1  0  0  0  0
 18 16  1  0  0  0  0
 19 18  1  0  0  0  0
 20 18  1  0  0  0  0
 21 18  1  0  0  0  0
 22 25  1  0  0  0  0
 23 22  1  0  0  0  0
 24 22  1  0  0  0  0
 26  1  1  0  0  0  0
 26 28  1  0  0  0  0
 26 27  1  0  0  0  0
 28 29  1  0  0  0  0
 28 31  1  0  0  0  0
 30 28  1  0  0  0  0
 32 33  1  0  0  0  0
 32 26  1  0  0  0  0
 34 32  1  0  0  0  0
 35 32  1  0  0  0  0
 36  2  1  0  0  0  0
 36 45  1  0  0  0  0
 37 36  2  0  0  0  0
 38 37  1  0  0  0  0
 39 37  1  0  0  0  0
 39 41  2  0  0  0  0
 40 39  1  0  0  0  0
 41 43  1  0  0  0  0
 42 41  1  0  0  0  0
 43 45  2  0  0  0  0
 43 44  1  0  0  0  0
 45 46  1  0  0  0  0
 47 48  1  0  0  0  0
 47  2  1  0  0  0  0
 48 49  1  0  0  0  0
 50 51  1  0  0  0  0
 50 48  2  0  0  0  0
 52 50  1  0  0  0  0
 53 52  1  0  0  0  0
 54 52  2  0  0  0  0
 54 56  1  0  0  0  0
 55 54  1  0  0  0  0
 56 47  2  0  0  0  0
 57 56  1  0  0  0  0
M  END
