1,2,3
q = -2.0, confidence = 0.906

 55 55  0  0  0  0  0  0  0  0999 V2000
    2.1712   -0.2319    0.0304 P   0  0  0  0  0  0  0  0  0  0  0  0
   -2.1712   -0.2319    0.0303 P   0  0  0  0  0  0  0  0  0  0  0  0
    0.0000    1.5681   -0.2122 N   0  0  0  0  0  2  0  0  0  0  0  0
    2.4126    1.4842   -0.1939 C   0  0  0  0  0  0  0  0  0  0  0  0
    3.3919    1.9698   -0.3225 H   0  0  0  0  0  0  0  0  0  0  0  0
    1.2134    2.2427   -0.3076 C   0  0  0  0  0  0  0  0  0  0  0  0
    1.2166    3.6559   -0.5224 C   0  0  0  0  0  0  0  0  0  0  0  0
    2.1806    4.1795   -0.5981 H   0  0  0  0  0  0  0  0  0  0  0  0
    0.0000    4.3365   -0.6268 C   0  0  0  0  0  0  0  0  0  0  0  0
    0.0001    5.4288   -0.7924 H   0  0  0  0  0  0  0  0  0  0  0  0
   -1.2166    3.6559   -0.5229 C   0  0  0  0  0  0  0  0  0  0  0  0
   -2.1806    4.1794   -0.5989 H   0  0  0  0  0  0  0  0  0  0  0  0
   -1.2133    2.2427   -0.3081 C   0  0  0  0  0  0  0  0  0  0  0  0
   -2.4126    1.4841   -0.1946 C   0  0  0  0  0  3  0  0  0  0  0  0
   -3.3918    1.9696   -0.3236 H   0  0  0  0  0  0  0  0  0  0  0  0
    3.0629   -1.1408   -1.3733 C   0  0  0  0  0  0  0  0  0  0  0  0
    4.0712   -0.6683   -1.4234 H   0  0  0  0  0  0  0  0  0  0  0  0
    2.3148   -0.8224   -2.6719 C   0  0  0  0  0  0  0  0  0  0  0  0
    2.8723   -1.1909   -3.5610 H   0  0  0  0  0  0  0  0  0  0  0  0
    2.1585    0.2708   -2.7719 H   0  0  0  0  0  0  0  0  0  0  0  0
    1.3119   -1.2992   -2.6671 H   0  0  0  0  0  0  0  0  0  0  0  0
    3.2214   -2.6485   -1.1589 C   0  0  0  0  0  0  0  0  0  0  0  0
    2.2338   -3.1335   -1.0205 H   0  0  0  0  0  0  0  0  0  0  0  0
    3.8400   -2.8867   -0.2700 H   0  0  0  0  0  0  0  0  0  0  0  0
    3.7093   -3.1232   -2.0393 H   0  0  0  0  0  0  0  0  0  0  0  0
    3.0979   -0.8147    1.5709 C   0  0  0  0  0  0  0  0  0  0  0  0
    2.9989   -1.9229    1.5906 H   0  0  0  0  0  0  0  0  0  0  0  0
    4.5783   -0.4287    1.5407 C   0  0  0  0  0  0  0  0  0  0  0  0
    4.6809    0.6735    1.4468 H   0  0  0  0  0  0  0  0  0  0  0  0
    5.1190   -0.8935    0.6904 H   0  0  0  0  0  0  0  0  0  0  0  0
    5.0955   -0.7371    2.4765 H   0  0  0  0  0  0  0  0  0  0  0  0
    2.3788   -0.2307    2.7901 C   0  0  0  0  0  0  0  0  0  0  0  0
    2.8872   -0.5175    3.7370 H   0  0  0  0  0  0  0  0  0  0  0  0
    1.3264   -0.5779    2.8299 H   0  0  0  0  0  0  0  0  0  0  0  0
    2.3551    0.8773    2.7200 H   0  0  0  0  0  0  0  0  0  0  0  0
   -3.0977   -0.8141    1.5711 C   0  0  0  0  0  0  0  0  0  0  0  0
   -2.9988   -1.9223    1.5912 H   0  0  0  0  0  0  0  0  0  0  0  0
   -2.3783   -0.2298    2.7900 C   0  0  0  0  0  0  0  0  0  0  0  0
   -2.3544    0.8782    2.7194 H   0  0  0  0  0  0  0  0  0  0  0  0
   -1.3260   -0.5771    2.8299 H   0  0  0  0  0  0  0  0  0  0  0  0
   -2.8867   -0.5160    3.7371 H   0  0  0  0  0  0  0  0  0  0  0  0
   -4.5780   -0.4279    1.5410 C   0  0  0  0  0  0  0  0  0  0  0  0
   -5.0952   -0.7360    2.4769 H   0  0  0  0  0  0  0  0  0  0  0  0
   -5.1190   -0.8929    0.6909 H   0  0  0  0  0  0  0  0  0  0  0  0
   -4.6805    0.6742    1.4468 H   0  0  0  0  0  0  0  0  0  0  0  0
   -3.0631   -1.1412   -1.3729 C   0  0  0  0  0  0  0  0  0  0  0  0
   -4.0713   -0.6685   -1.4232 H   0  0  0  0  0  0  0  0  0  0  0  0
   -3.2220   -2.6488   -1.1580 C   0  0  0  0  0  0  0  0  0  0  0  0
   -3.7102   -3.1237   -2.0381 H   0  0  0  0  0  0  0  0  0  0  0  0
   -3.8405   -2.8865   -0.2688 H   0  0  0  0  0  0  0  0  0  0  0  0
   -2.2345   -3.1340   -1.0195 H   0  0  0  0  0  0  0  0  0  0  0  0
   -2.3150   -0.8236   -2.6717 C   0  0  0  0  0  0  0  0  0  0  0  0
   -1.3123   -1.3008   -2.6668 H   0  0  0  0  0  0  0  0  0  0  0  0
   -2.1583    0.2695   -2.7722 H   0  0  0  0  0  0  0  0  0  0  0  0
   -2.8727   -1.1922   -3.5607 H   0  0  0  0  0  0  0  0  0  0  0  0
  1 26  1  0  0  0  0
  2 36  1  0  0  0  0
  4  1  1  0  0  0  0
  5  4  1  0  0  0  0
  6  3  1  0  0  0  0
  6  4  2  0  0  0  0
  7  6  1  0  0  0  0
  8  7  1  0  0  0  0
  9 11  1  0  0  0  0
  9  7  2  0  0  0  0
 10  9  1  0  0  0  0
 11 13  2  0  0  0  0
 12 11  1  0  0  0  0
 13  3  1  0  0  0  0
 13 14  1  0  0  0  0
 14  2  1  0  0  0  0
 15 14  1  0  0  0  0
 16 22  1  0  0  0  0
 16  1  1  0  0  0  0
 17 16  1  0  0  0  0
 18 21  1  0  0  0  0
 18 16  1  0  0  0  0
 19 18  1  0  0  0  0
 20 18  1  0  0  0  0
 22 23  1  0  0  0  0
 22 24  1  0  0  0  0
 25 22  1  0  0  0  0
 26 27  1  0  0  0  0
 26 32  1  0  0  0  0
 28 26  1  0  0  0  0
 28 31  1  0  0  0  0
 29 28  1  0  0  0  0
 30 28  1  0  0  0  0
 32 34  1  0  0  0  0
 32 33  1  0  0  0  0
 35 32  1  0  0  0  0
 36 37  1  0  0  0  0
 36 38  1  0  0  0  0
 38 40  1  0  0  0  0
 38 41  1  0  0  0  0
 39 38  1  0  0  0  0
 42 36  1  0  0  0  0
 42 43  1  0  0  0  0
 44 42  1  0  0  0  0
 45 42  1  0  0  0  0
 46 48  1  0  0  0  0
 46  2  1  0  0  0  0
 47 46  1  0  0  0  0
 48 51  1  0  0  0  0
 48 50  1  0  0  0  0
 49 48  1  0  0  0  0
 52 53  1  0  0  0  0
 52 46  1  0  0  0  0
 54 52  1  0  0  0  0
 55 52  1  0  0  0  0
M  END
