1,2,9,10,11,12
q = -2.0, confidence = 0.804

 68 69  0  0  0  0  0  0  0  0999 V2000
   -1.0848    0.0717    0.8807 O   0  5  0  0  0  0  0  0  0  0  0  0
    1.0851    0.0722   -0.8809 O   0  5  0  0  0  0  0  0  0  0  0  0
   -2.3273   -1.4508    2.5882 O   0  0  0  0  0  0  0  0  0  0  0  0
   -6.1354   -3.4727   -0.0228 O   0  0  0  0  0  0  0  0  0  0  0  0
   -5.9848   -2.5868   -2.0197 O   0  0  0  0  0  0  0  0  0  0  0  0
    5.9846   -2.5873    2.0195 O   0  0  0  0  0  0  0  0  0  0  0  0
    6.1356   -3.4725    0.0223 O   0  0  0  0  0  0  0  0  0  0  0  0
    2.3279   -1.4498   -2.5886 O   0  0  0  0  0  0  0  0  0  0  0  0
   -1.0401    1.3217   -1.6109 N   0  0  0  0  0  2  0  0  0  0  0  0
    1.0198    2.8857   -0.9792 N   0  0  0  0  0  0  0  0  0  0  0  0
   -1.0202    2.8853    0.9798 N   0  0  0  0  0  0  0  0  0  0  0  0
    1.0401    1.3215    1.6111 N   0  0  0  0  0  2  0  0  0  0  0  0
   -5.5939   -2.7307   -0.8540 N   0  0  0  0  0  0  0  0  0  0  0  0
    5.5939   -2.7308    0.8537 N   0  0  0  0  0  0  0  0  0  0  0  0
   -2.1296   -0.5307    0.4244 C   0  0  0  0  0  0  0  0  0  0  0  0
   -2.8475   -1.4132    1.3314 C   0  0  0  0  0  0  0  0  0  0  0  0
   -3.9637   -2.1236    0.9115 C   0  0  0  0  0  0  0  0  0  0  0  0
   -4.4194   -1.9760   -0.4246 C   0  0  0  0  0  0  0  0  0  0  0  0
   -3.7866   -1.1273   -1.3225 C   0  0  0  0  0  0  0  0  0  0  0  0
   -2.6514   -0.3841   -0.9151 C   0  0  0  0  0  0  0  0  0  0  0  0
   -2.0316    0.4994   -1.8636 C   0  0  0  0  0  3  0  0  0  0  0  0
   -0.5134    2.1042   -2.7313 C   0  0  0  0  0  0  0  0  0  0  0  0
    0.9238    2.4929   -2.4106 C   0  0  0  0  0  0  0  0  0  0  0  0
    0.2615    4.1375   -0.7120 C   0  0  0  0  0  0  0  0  0  0  0  0
   -0.2623    4.1373    0.7128 C   0  0  0  0  0  0  0  0  0  0  0  0
   -0.9240    2.4921    2.4111 C   0  0  0  0  0  0  0  0  0  0  0  0
    0.5132    2.1037    2.7316 C   0  0  0  0  0  0  0  0  0  0  0  0
    2.0315    0.4991    1.8637 C   0  0  0  0  0  3  0  0  0  0  0  0
    2.6514   -0.3842    0.9151 C   0  0  0  0  0  0  0  0  0  0  0  0
    3.7865   -1.1275    1.3223 C   0  0  0  0  0  0  0  0  0  0  0  0
    4.4195   -1.9759    0.4243 C   0  0  0  0  0  0  0  0  0  0  0  0
    3.9640   -2.1231   -0.9119 C   0  0  0  0  0  0  0  0  0  0  0  0
    2.8479   -1.4125   -1.3318 C   0  0  0  0  0  0  0  0  0  0  0  0
    2.1298   -0.5303   -0.4246 C   0  0  0  0  0  0  0  0  0  0  0  0
   -2.9486   -2.3105    3.5233 C   0  0  0  0  0  0  0  0  0  0  0  0
    2.4312    3.0138   -0.5781 C   0  0  0  0  0  0  0  0  0  0  0  0
   -2.4317    3.0130    0.5788 C   0  0  0  0  0  0  0  0  0  0  0  0
    2.9494   -2.3091   -3.5239 C   0  0  0  0  0  0  0  0  0  0  0  0
   -4.5230   -2.8028    1.5652 H   0  0  0  0  0  0  0  0  0  0  0  0
   -4.1872   -1.0428   -2.3421 H   0  0  0  0  0  0  0  0  0  0  0  0
   -2.4460    0.4750   -2.8920 H   0  0  0  0  0  0  0  0  0  0  0  0
   -0.5364    1.5273   -3.6800 H   0  0  0  0  0  0  0  0  0  0  0  0
   -1.1500    3.0043   -2.9007 H   0  0  0  0  0  0  0  0  0  0  0  0
    1.5700    1.6038   -2.5337 H   0  0  0  0  0  0  0  0  0  0  0  0
    1.2880    3.3103   -3.0752 H   0  0  0  0  0  0  0  0  0  0  0  0
    0.8928    5.0352   -0.9006 H   0  0  0  0  0  0  0  0  0  0  0  0
   -0.5869    4.1919   -1.4192 H   0  0  0  0  0  0  0  0  0  0  0  0
    0.5861    4.1918    1.4200 H   0  0  0  0  0  0  0  0  0  0  0  0
   -0.8939    5.0347    0.9017 H   0  0  0  0  0  0  0  0  0  0  0  0
   -1.2884    3.3093    3.0759 H   0  0  0  0  0  0  0  0  0  0  0  0
   -1.5700    1.6028    2.5340 H   0  0  0  0  0  0  0  0  0  0  0  0
    0.5365    1.5267    3.6803 H   0  0  0  0  0  0  0  0  0  0  0  0
    1.1497    3.0040    2.9011 H   0  0  0  0  0  0  0  0  0  0  0  0
    2.4458    0.4744    2.8921 H   0  0  0  0  0  0  0  0  0  0  0  0
    4.1869   -1.0434    2.3421 H   0  0  0  0  0  0  0  0  0  0  0  0
    4.5233   -2.8021   -1.5658 H   0  0  0  0  0  0  0  0  0  0  0  0
   -2.3807   -2.2136    4.4672 H   0  0  0  0  0  0  0  0  0  0  0  0
   -2.9206   -3.3719    3.1890 H   0  0  0  0  0  0  0  0  0  0  0  0
   -4.0109   -2.0286    3.7047 H   0  0  0  0  0  0  0  0  0  0  0  0
    2.4967    3.3118    0.4839 H   0  0  0  0  0  0  0  0  0  0  0  0
    2.9333    2.0355   -0.6873 H   0  0  0  0  0  0  0  0  0  0  0  0
    2.9588    3.7708   -1.2022 H   0  0  0  0  0  0  0  0  0  0  0  0
   -2.9336    2.0346    0.6878 H   0  0  0  0  0  0  0  0  0  0  0  0
   -2.9594    3.7698    1.2031 H   0  0  0  0  0  0  0  0  0  0  0  0
   -2.4973    3.3113   -0.4832 H   0  0  0  0  0  0  0  0  0  0  0  0
    2.3816   -2.2119   -4.4679 H   0  0  0  0  0  0  0  0  0  0  0  0
    2.9213   -3.3706   -3.1900 H   0  0  0  0  0  0  0  0  0  0  0  0
    4.0116   -2.0271   -3.7051 H   0  0  0  0  0  0  0  0  0  0  0  0
  2 34  1  0  0  0  0
  3 35  1  0  0  0  0
  5 13  2  0  0  0  0
  7 14  2  0  0  0  0
  8 33  1  0  0  0  0
 10 24  1  0  0  0  0
 10 36  1  0  0  0  0
 11 26  1  0  0  0  0
 12 28  1  0  0  0  0
 12 27  1  0  0  0  0
 13 18  1  0  0  0  0
 13  4  2  0  0  0  0
 14  6  2  0  0  0  0
 15  1  1  0  0  0  0
 15 16  1  0  0  0  0
 16  3  1  0  0  0  0
 17 16  2  0  0  0  0
 17 39  1  0  0  0  0
 18 17  1  0  0  0  0
 19 20  1  0  0  0  0
 19 18  2  0  0  0  0
 20 15  2  0  0  0  0
 21  9  1  0  0  0  0
 21 20  1  0  0  0  0
 22 23  1  0  0  0  0
 22  9  1  0  0  0  0
 23 10  1  0  0  0  0
 24 25  1  0  0  0  0
 25 49  1  0  0  0  0
 25 11  1  0  0  0  0
 25 48  1  0  0  0  0
 26 51  1  0  0  0  0
 26 27  1  0  0  0  0
 26 50  1  0  0  0  0
 27 53  1  0  0  0  0
 27 52  1  0  0  0  0
 28 54  1  0  0  0  0
 29 30  1  0  0  0  0
 29 28  1  0  0  0  0
 30 55  1  0  0  0  0
 31 14  1  0  0  0  0
 31 30  2  0  0  0  0
 32 31  1  0  0  0  0
 33 32  2  0  0  0  0
 33 34  1  0  0  0  0
 34 29  2  0  0  0  0
 35 59  1  0  0  0  0
 35 57  1  0  0  0  0
 36 60  1  0  0  0  0
 37 63  1  0  0  0  0
 37 11  1  0  0  0  0
 37 64  1  0  0  0  0
 38 67  1  0  0  0  0
 38  8  1  0  0  0  0
 40 19  1  0  0  0  0
 41 21  1  0  0  0  0
 42 22  1  0  0  0  0
 43 22  1  0  0  0  0
 44 23  1  0  0  0  0
 45 23  1  0  0  0  0
 46 24  1  0  0  0  0
 47 24  1  0  0  0  0
 56 32  1  0  0  0  0
 58 35  1  0  0  0  0
 61 36  1  0  0  0  0
 62 36  1  0  0  0  0
 65 37  1  0  0  0  0
 66 38  1  0  0  0  0
 68 38  1  0  0  0  0
M  CHG  2   1  -1   2  -1
M  END
