1,2,3,32,33,34
q = -2.0, confidence = 0.854

 62 65  0  0  0  0  0  0  0  0999 V2000
    0.6569    1.9976    0.2764 O   0  5  0  0  0  0  0  0  0  0  0  0
   -1.3668    0.6168   -1.4295 N   0  0  0  0  0  0  0  0  0  0  0  0
   -2.5014    0.5980    1.1500 N   0  0  0  0  0  2  0  0  0  0  0  0
   -3.0248    0.9640    2.3389 C   0  0  0  0  0  3  0  0  0  0  0  0
   -2.3024    1.0301    3.1699 H   0  0  0  0  0  0  0  0  0  0  0  0
   -4.3905    1.2187    2.5216 C   0  0  0  0  0  0  0  0  0  0  0  0
   -4.7614    1.5125    3.5137 H   0  0  0  0  0  0  0  0  0  0  0  0
   -5.2510    1.0903    1.4245 C   0  0  0  0  0  0  0  0  0  0  0  0
   -6.3300    1.2821    1.5268 H   0  0  0  0  0  0  0  0  0  0  0  0
   -4.7093    0.7239    0.1859 C   0  0  0  0  0  0  0  0  0  0  0  0
   -5.3446    0.6269   -0.7066 H   0  0  0  0  0  0  0  0  0  0  0  0
   -3.3288    0.4844    0.0840 C   0  0  0  0  0  0  0  0  0  0  0  0
   -2.7099    0.0497   -1.2200 C   0  0  0  0  0  0  0  0  0  0  0  0
   -2.6198   -1.0583   -1.2137 H   0  0  0  0  0  0  0  0  0  0  0  0
   -3.3967    0.3139   -2.0610 H   0  0  0  0  0  0  0  0  0  0  0  0
   -0.7629   -0.0020   -2.6313 C   0  0  0  0  0  0  0  0  0  0  0  0
   -1.1096    0.5225   -3.5547 H   0  0  0  0  0  0  0  0  0  0  0  0
   -1.1311   -1.0417   -2.6969 H   0  0  0  0  0  0  0  0  0  0  0  0
   -1.4886    2.1011   -1.5589 C   0  0  0  0  0  0  0  0  0  0  0  0
   -1.9653    2.4587   -0.6217 H   0  0  0  0  0  0  0  0  0  0  0  0
   -2.1943    2.3287   -2.3947 H   0  0  0  0  0  0  0  0  0  0  0  0
   -0.2086    2.8607   -1.7733 C   0  0  0  0  0  0  0  0  0  0  0  0
   -0.0115    3.6580   -2.9128 C   0  0  0  0  0  0  0  0  0  0  0  0
   -0.8051    3.6952   -3.6779 H   0  0  0  0  0  0  0  0  0  0  0  0
    1.1676    4.4001   -3.0919 C   0  0  0  0  0  0  0  0  0  0  0  0
    1.3045    5.0188   -3.9908 H   0  0  0  0  0  0  0  0  0  0  0  0
    2.1629    4.3454   -2.1010 C   0  0  0  0  0  0  0  0  0  0  0  0
    3.0900    4.9279   -2.2220 H   0  0  0  0  0  0  0  0  0  0  0  0
    1.9890    3.5583   -0.9546 C   0  0  0  0  0  0  0  0  0  0  0  0
    2.7590    3.5148   -0.1691 H   0  0  0  0  0  0  0  0  0  0  0  0
    0.8072    2.7916   -0.7662 C   0  0  0  0  0  0  0  0  0  0  0  0
   -0.6571   -1.9965    0.2831 O   0  5  0  0  0  0  0  0  0  0  0  0
    1.3668   -0.6217   -1.4273 N   0  0  0  0  0  0  0  0  0  0  0  0
    2.5013   -0.5941    1.1522 N   0  0  0  0  0  2  0  0  0  0  0  0
    3.0246   -0.9559    2.3424 C   0  0  0  0  0  3  0  0  0  0  0  0
    2.3022   -1.0192    3.1736 H   0  0  0  0  0  0  0  0  0  0  0  0
    4.3903   -1.2099    2.5261 C   0  0  0  0  0  0  0  0  0  0  0  0
    4.7612   -1.5003    3.5192 H   0  0  0  0  0  0  0  0  0  0  0  0
    5.2509   -1.0853    1.4286 C   0  0  0  0  0  0  0  0  0  0  0  0
    6.3300   -1.2767    1.5317 H   0  0  0  0  0  0  0  0  0  0  0  0
    4.7093   -0.7232    0.1887 C   0  0  0  0  0  0  0  0  0  0  0  0
    5.3446   -0.6293   -0.7041 H   0  0  0  0  0  0  0  0  0  0  0  0
    3.3287   -0.4841    0.0859 C   0  0  0  0  0  0  0  0  0  0  0  0
    2.7099   -0.0540   -1.2196 C   0  0  0  0  0  0  0  0  0  0  0  0
    2.6199    1.0541   -1.2172 H   0  0  0  0  0  0  0  0  0  0  0  0
    3.3968   -0.3211   -2.0596 H   0  0  0  0  0  0  0  0  0  0  0  0
    0.7631   -0.0071   -2.6312 C   0  0  0  0  0  0  0  0  0  0  0  0
    1.1098   -0.5348   -3.5527 H   0  0  0  0  0  0  0  0  0  0  0  0
    1.1313    1.0324   -2.7005 H   0  0  0  0  0  0  0  0  0  0  0  0
    1.4886   -2.1064   -1.5514 C   0  0  0  0  0  0  0  0  0  0  0  0
    1.9652   -2.4607   -0.6129 H   0  0  0  0  0  0  0  0  0  0  0  0
    2.1945   -2.3369   -2.3864 H   0  0  0  0  0  0  0  0  0  0  0  0
    0.2088   -2.8669   -1.7633 C   0  0  0  0  0  0  0  0  0  0  0  0
    0.0119   -3.6683   -2.9000 C   0  0  0  0  0  0  0  0  0  0  0  0
    0.8056   -3.7082   -3.6648 H   0  0  0  0  0  0  0  0  0  0  0  0
   -1.1671   -4.4112   -3.0766 C   0  0  0  0  0  0  0  0  0  0  0  0
   -1.3037   -5.0332   -3.9732 H   0  0  0  0  0  0  0  0  0  0  0  0
   -2.1626   -4.3530   -2.0860 C   0  0  0  0  0  0  0  0  0  0  0  0
   -3.0896   -4.9360   -2.2051 H   0  0  0  0  0  0  0  0  0  0  0  0
   -1.9890   -3.5617   -0.9425 C   0  0  0  0  0  0  0  0  0  0  0  0
   -2.7590   -3.5155   -0.1572 H   0  0  0  0  0  0  0  0  0  0  0  0
   -0.8072   -2.7942   -0.7567 C   0  0  0  0  0  0  0  0  0  0  0  0
  2 13  1  0  0  0  0
  3  4  1  0  0  0  0
  4  6  1  0  0  0  0
  4  5  1  0  0  0  0
  6  7  1  0  0  0  0
  8  9  1  0  0  0  0
  8  6  2  0  0  0  0
 10  8  1  0  0  0  0
 11 10  1  0  0  0  0
 12 10  2  0  0  0  0
 12  3  1  0  0  0  0
 13 14  1  0  0  0  0
 13 12  1  0  0  0  0
 15 13  1  0  0  0  0
 16 47  1  0  0  0  0
 16  2  1  0  0  0  0
 17 16  1  0  0  0  0
 18 16  1  0  0  0  0
 19  2  1  0  0  0  0
 19 20  1  0  0  0  0
 21 19  1  0  0  0  0
 22 19  1  0  0  0  0
 22 31  1  0  0  0  0
 23 22  2  0  0  0  0
 24 23  1  0  0  0  0
 25 23  1  0  0  0  0
 25 27  2  0  0  0  0
 26 25  1  0  0  0  0
 27 29  1  0  0  0  0
 28 27  1  0  0  0  0
 29 31  2  0  0  0  0
 29 30  1  0  0  0  0
 31  1  1  0  0  0  0
 33 44  1  0  0  0  0
 34 35  1  0  0  0  0
 35 37  1  0  0  0  0
 35 36  1  0  0  0  0
 37 38  1  0  0  0  0
 39 40  1  0  0  0  0
 39 37  2  0  0  0  0
 41 39  1  0  0  0  0
 42 41  1  0  0  0  0
 43 41  2  0  0  0  0
 43 34  1  0  0  0  0
 44 45  1  0  0  0  0
 44 43  1  0  0  0  0
 46 44  1  0  0  0  0
 47 33  1  0  0  0  0
 48 47  1  0  0  0  0
 49 47  1  0  0  0  0
 50 33  1  0  0  0  0
 50 51  1  0  0  0  0
 52 50  1  0  0  0  0
 53 50  1  0  0  0  0
 53 62  1  0  0  0  0
 54 53  2  0  0  0  0
 55 54  1  0  0  0  0
 56 54  1  0  0  0  0
 56 58  2  0  0  0  0
 57 56  1  0  0  0  0
 58 60  1  0  0  0  0
 59 58  1  0  0  0  0
 60 62  2  0  0  0  0
 60 61  1  0  0  0  0
 62 32  1  0  0  0  0
M  CHG  2   1  -1  32  -1
M  END
