1,4,10,32,33
q = -2.0, confidence = 0.784

 60 60  0  0  0  0  0  0  0  0999 V2000
   -0.1626   -1.7802   -1.2088 N   0  0  0  0  0  0  0  0  0  0  0  0
    1.2553   -2.1498   -1.3946 C   0  0  0  0  0  0  0  0  0  0  0  0
    2.0749   -2.0404   -0.1062 C   0  0  0  0  0  0  0  0  0  0  0  0
    2.1750   -0.6399    0.3695 N   0  0  0  0  0  0  0  0  0  0  0  0
    2.3829   -0.5427    1.8368 C   0  0  0  0  0  0  0  0  0  0  0  0
    2.2255    0.8678    2.4211 C   0  0  0  0  0  0  0  0  0  0  0  0
   -0.8122   -1.4607   -2.5030 C   0  0  0  0  0  0  0  0  0  0  0  0
   -0.8754   -2.7730   -0.3801 C   0  0  0  0  0  0  0  0  0  0  0  0
   -0.9545   -2.4549    1.1486 C   0  0  0  0  0  0  0  0  0  0  0  0
   -0.5777   -1.2615    1.5035 O   0  5  0  0  0  0  0  0  0  0  0  0
   -1.3971   -3.3403    1.8757 O   0  0  0  0  0  0  0  0  0  0  0  0
    3.1306    0.1411   -0.4133 C   0  0  0  0  0  0  0  0  0  0  0  0
    4.5902   -0.2884   -0.3111 C   0  0  0  0  0  0  0  0  0  0  0  0
    5.3806    0.5701   -0.9955 O   0  0  0  0  0  0  0  0  0  0  0  0
    5.0254   -1.2561    0.2876 O   0  0  0  0  0  0  0  0  0  0  0  0
    1.3402   -3.1909   -1.7883 H   0  0  0  0  0  0  0  0  0  0  0  0
    1.6763   -1.4771   -2.1695 H   0  0  0  0  0  0  0  0  0  0  0  0
    3.0802   -2.4843   -0.2675 H   0  0  0  0  0  0  0  0  0  0  0  0
    1.5985   -2.6333    0.6980 H   0  0  0  0  0  0  0  0  0  0  0  0
    1.6210   -1.2015    2.2973 H   0  0  0  0  0  0  0  0  0  0  0  0
    3.3896   -0.9339    2.1036 H   0  0  0  0  0  0  0  0  0  0  0  0
    2.9264    1.5816    1.9371 H   0  0  0  0  0  0  0  0  0  0  0  0
    2.5851    0.8059    3.4695 H   0  0  0  0  0  0  0  0  0  0  0  0
   -0.1529   -0.7231   -3.0043 H   0  0  0  0  0  0  0  0  0  0  0  0
   -0.8458   -2.3759   -3.1432 H   0  0  0  0  0  0  0  0  0  0  0  0
   -0.4381   -3.7892   -0.4966 H   0  0  0  0  0  0  0  0  0  0  0  0
   -1.9226   -2.8625   -0.7297 H   0  0  0  0  0  0  0  0  0  0  0  0
    3.0830    1.2107   -0.1358 H   0  0  0  0  0  0  0  0  0  0  0  0
    2.8313    0.1491   -1.4809 H   0  0  0  0  0  0  0  0  0  0  0  0
    6.2973    0.2305   -0.8960 H   0  0  0  0  0  0  0  0  0  0  0  0
    0.1626    1.7800    1.2085 N   0  0  0  0  0  0  0  0  0  0  0  0
   -2.1750    0.6398   -0.3698 N   0  0  0  0  0  0  0  0  0  0  0  0
    0.5776    1.2612   -1.5038 O   0  5  0  0  0  0  0  0  0  0  0  0
    0.8121    1.4606    2.5027 C   0  0  0  0  0  0  0  0  0  0  0  0
   -2.2257   -0.8680   -2.4214 C   0  0  0  0  0  0  0  0  0  0  0  0
   -1.2554    2.1498    1.3942 C   0  0  0  0  0  0  0  0  0  0  0  0
    0.8754    2.7728    0.3797 C   0  0  0  0  0  0  0  0  0  0  0  0
   -2.0749    2.0403    0.1058 C   0  0  0  0  0  0  0  0  0  0  0  0
   -2.3831    0.5425   -1.8371 C   0  0  0  0  0  0  0  0  0  0  0  0
   -3.1305   -0.1412    0.4133 C   0  0  0  0  0  0  0  0  0  0  0  0
    0.9545    2.4546   -1.1490 C   0  0  0  0  0  0  0  0  0  0  0  0
    0.1528    0.7230    3.0040 H   0  0  0  0  0  0  0  0  0  0  0  0
    0.8458    2.3758    3.1428 H   0  0  0  0  0  0  0  0  0  0  0  0
   -2.9264   -1.5818   -1.9373 H   0  0  0  0  0  0  0  0  0  0  0  0
   -2.5853   -0.8062   -3.4697 H   0  0  0  0  0  0  0  0  0  0  0  0
   -1.3402    3.1910    1.7878 H   0  0  0  0  0  0  0  0  0  0  0  0
   -1.6764    1.4772    2.1691 H   0  0  0  0  0  0  0  0  0  0  0  0
    0.4382    3.7890    0.4962 H   0  0  0  0  0  0  0  0  0  0  0  0
    1.9227    2.8621    0.7293 H   0  0  0  0  0  0  0  0  0  0  0  0
   -3.0802    2.4843    0.2671 H   0  0  0  0  0  0  0  0  0  0  0  0
   -1.5984    2.6331   -0.6984 H   0  0  0  0  0  0  0  0  0  0  0  0
   -1.6213    1.2013   -2.2977 H   0  0  0  0  0  0  0  0  0  0  0  0
   -3.3899    0.9335   -2.1037 H   0  0  0  0  0  0  0  0  0  0  0  0
   -4.5900    0.2889    0.3121 C   0  0  0  0  0  0  0  0  0  0  0  0
   -3.0836   -1.2106    0.1350 H   0  0  0  0  0  0  0  0  0  0  0  0
   -2.8305   -0.1500    1.4807 H   0  0  0  0  0  0  0  0  0  0  0  0
    1.3971    3.3400   -1.8761 O   0  0  0  0  0  0  0  0  0  0  0  0
   -5.3800   -0.5679    0.9991 O   0  0  0  0  0  0  0  0  0  0  0  0
   -5.0255    1.2556   -0.2880 O   0  0  0  0  0  0  0  0  0  0  0  0
   -6.2967   -0.2283    0.8997 H   0  0  0  0  0  0  0  0  0  0  0  0
  1  8  1  0  0  0  0
  2  1  1  0  0  0  0
  2  3  1  0  0  0  0
  3  4  1  0  0  0  0
  3 19  1  0  0  0  0
  4  5  1  0  0  0  0
  5 21  1  0  0  0  0
  5 20  1  0  0  0  0
  5  6  1  0  0  0  0
  6 34  1  0  0  0  0
  6 23  1  0  0  0  0
  7 35  1  0  0  0  0
  7  1  1  0  0  0  0
  8  9  1  0  0  0  0
  9 10  1  0  0  0  0
  9 11  2  0  0  0  0
 12 13  1  0  0  0  0
 12 28  1  0  0  0  0
 12  4  1  0  0  0  0
 13 15  2  0  0  0  0
 14 30  1  0  0  0  0
 14 13  1  0  0  0  0
 16  2  1  0  0  0  0
 17  2  1  0  0  0  0
 18  3  1  0  0  0  0
 22  6  1  0  0  0  0
 24  7  1  0  0  0  0
 25  7  1  0  0  0  0
 26  8  1  0  0  0  0
 27  8  1  0  0  0  0
 29 12  1  0  0  0  0
 31 36  1  0  0  0  0
 31 34  1  0  0  0  0
 32 38  1  0  0  0  0
 32 40  1  0  0  0  0
 33 41  1  0  0  0  0
 34 42  1  0  0  0  0
 34 43  1  0  0  0  0
 35 44  1  0  0  0  0
 35 39  1  0  0  0  0
 36 46  1  0  0  0  0
 36 47  1  0  0  0  0
 37 48  1  0  0  0  0
 37 49  1  0  0  0  0
 37 31  1  0  0  0  0
 38 50  1  0  0  0  0
 38 36  1  0  0  0  0
 39 32  1  0  0  0  0
 40 56  1  0  0  0  0
 41 37  1  0  0  0  0
 45 35  1  0  0  0  0
 51 38  1  0  0  0  0
 52 39  1  0  0  0  0
 53 39  1  0  0  0  0
 54 40  1  0  0  0  0
 54 58  1  0  0  0  0
 55 40  1  0  0  0  0
 57 41  2  0  0  0  0
 59 54  2  0  0  0  0
 60 58  1  0  0  0  0
M  CHG  2  10  -1  33  -1
M  END
