1,2,3,4,5,6
q = -2.0, confidence = 0.74

 48 49  0  0  0  0  0  0  0  0999 V2000
    1.2761    0.7699   -1.4441 N   0  0  0  0  0  2  0  0  0  0  0  0
   -0.8158    2.1749   -0.9858 N   0  0  0  0  0  2  0  0  0  0  0  0
    0.8163    2.1745    0.9860 N   0  0  0  0  0  2  0  0  0  0  0  0
   -1.2760    0.7701    1.4441 N   0  0  0  0  0  2  0  0  0  0  0  0
    0.8803   -0.5418    1.0332 O   0  5  0  0  0  0  0  0  0  0  0  0
   -0.8806   -0.5414   -1.0333 O   0  5  0  0  0  0  0  0  0  0  0  0
    0.9546    1.6810   -2.5388 C   0  0  0  0  0  0  0  0  0  0  0  0
    1.1930    1.2312   -3.5253 H   0  0  0  0  0  0  0  0  0  0  0  0
    1.5500    2.6137   -2.4401 H   0  0  0  0  0  0  0  0  0  0  0  0
   -0.5460    2.0111   -2.3905 C   0  0  0  0  0  0  0  0  0  0  0  0
   -0.8246    2.9143   -2.9723 H   0  0  0  0  0  0  0  0  0  0  0  0
   -1.1344    1.1436   -2.7576 H   0  0  0  0  0  0  0  0  0  0  0  0
   -0.7093    3.4483   -0.3844 C   0  0  0  0  0  0  0  0  0  0  0  0
   -1.4755    3.5972    0.4045 H   0  0  0  0  0  0  0  0  0  0  0  0
   -0.7744    4.2857   -1.1124 H   0  0  0  0  0  0  0  0  0  0  0  0
    0.7105    3.4479    0.3846 C   0  0  0  0  0  0  0  0  0  0  0  0
    1.4767    3.5965   -0.4043 H   0  0  0  0  0  0  0  0  0  0  0  0
    0.7760    4.2853    1.1126 H   0  0  0  0  0  0  0  0  0  0  0  0
    0.5464    2.0107    2.3906 C   0  0  0  0  0  0  0  0  0  0  0  0
    1.1345    1.1430    2.7577 H   0  0  0  0  0  0  0  0  0  0  0  0
    0.8253    2.9138    2.9725 H   0  0  0  0  0  0  0  0  0  0  0  0
   -0.9543    1.6812    2.5388 C   0  0  0  0  0  0  0  0  0  0  0  0
   -1.1929    1.2314    3.5253 H   0  0  0  0  0  0  0  0  0  0  0  0
   -1.5494    2.6140    2.4400 H   0  0  0  0  0  0  0  0  0  0  0  0
    1.9320   -1.2241    0.6828 C   0  0  0  0  0  0  0  0  0  0  0  0
    2.6268   -1.0737   -0.5776 C   0  0  0  0  0  0  0  0  0  0  0  0
    3.7421   -1.9081   -0.8636 C   0  0  0  0  0  0  0  0  0  0  0  0
    4.2578   -1.7846   -1.8288 H   0  0  0  0  0  0  0  0  0  0  0  0
    4.1878   -2.8585    0.0474 C   0  0  0  0  0  0  0  0  0  0  0  0
    5.0529   -3.4934   -0.1895 H   0  0  0  0  0  0  0  0  0  0  0  0
    3.5184   -2.9964    1.2899 C   0  0  0  0  0  0  0  0  0  0  0  0
    3.8679   -3.7458    2.0162 H   0  0  0  0  0  0  0  0  0  0  0  0
    2.4257   -2.2003    1.6051 C   0  0  0  0  0  0  0  0  0  0  0  0
    1.8948   -2.3032    2.5621 H   0  0  0  0  0  0  0  0  0  0  0  0
    2.2378   -0.1021   -1.5548 C   0  0  0  0  0  3  0  0  0  0  0  0
    2.8262   -0.0936   -2.4947 H   0  0  0  0  0  0  0  0  0  0  0  0
   -1.9323   -1.2236   -0.6829 C   0  0  0  0  0  0  0  0  0  0  0  0
   -2.6270   -1.0733    0.5775 C   0  0  0  0  0  0  0  0  0  0  0  0
   -3.7424   -1.9075    0.8636 C   0  0  0  0  0  0  0  0  0  0  0  0
   -4.2580   -1.7840    1.8288 H   0  0  0  0  0  0  0  0  0  0  0  0
   -4.1883   -2.8577   -0.0475 C   0  0  0  0  0  0  0  0  0  0  0  0
   -5.0535   -3.4926    0.1895 H   0  0  0  0  0  0  0  0  0  0  0  0
   -3.5190   -2.9957   -1.2900 C   0  0  0  0  0  0  0  0  0  0  0  0
   -3.8686   -3.7450   -2.0164 H   0  0  0  0  0  0  0  0  0  0  0  0
   -2.4262   -2.1997   -1.6052 C   0  0  0  0  0  0  0  0  0  0  0  0
   -1.8955   -2.3026   -2.5623 H   0  0  0  0  0  0  0  0  0  0  0  0
   -2.2378   -0.1018    1.5548 C   0  0  0  0  0  3  0  0  0  0  0  0
   -2.8263   -0.0932    2.4947 H   0  0  0  0  0  0  0  0  0  0  0  0
  2 13  1  0  0  0  0
  3 19  1  0  0  0  0
  4 47  1  0  0  0  0
  4 22  1  0  0  0  0
  6 37  1  0  0  0  0
  7  9  1  0  0  0  0
  7 10  1  0  0  0  0
  7  1  1  0  0  0  0
  8  7  1  0  0  0  0
 10  2  1  0  0  0  0
 11 10  1  0  0  0  0
 12 10  1  0  0  0  0
 13 16  1  0  0  0  0
 13 14  1  0  0  0  0
 15 13  1  0  0  0  0
 16  3  1  0  0  0  0
 16 18  1  0  0  0  0
 17 16  1  0  0  0  0
 19 22  1  0  0  0  0
 19 20  1  0  0  0  0
 19 21  1  0  0  0  0
 22 23  1  0  0  0  0
 24 22  1  0  0  0  0
 25  5  1  0  0  0  0
 25 33  1  0  0  0  0
 26 25  2  0  0  0  0
 27 26  1  0  0  0  0
 27 29  2  0  0  0  0
 28 27  1  0  0  0  0
 29 31  1  0  0  0  0
 30 29  1  0  0  0  0
 31 33  2  0  0  0  0
 31 32  1  0  0  0  0
 33 34  1  0  0  0  0
 35  1  1  0  0  0  0
 35 26  1  0  0  0  0
 36 35  1  0  0  0  0
 37 38  1  0  0  0  0
 38 39  2  0  0  0  0
 38 47  1  0  0  0  0
 39 40  1  0  0  0  0
 41 42  1  0  0  0  0
 41 39  1  0  0  0  0
 43 41  2  0  0  0  0
 44 43  1  0  0  0  0
 45 43  1  0  0  0  0
 45 37  2  0  0  0  0
 46 45  1  0  0  0  0
 47 48  1  0  0  0  0
M  CHG  2   5  -1   6  -1
M  END
