1,2,3,26,38,40
q = -2.0, confidence = 0.838

 50 51  0  0  0  0  0  0  0  0999 V2000
    0.9363   -1.2225   -0.5746 O   0  5  0  0  0  0  0  0  0  0  0  0
   -1.5977   -1.1153    0.3411 N   0  0  0  0  0  2  0  0  0  0  0  0
   -1.0608    0.8319    2.0680 N   0  0  0  0  0  0  0  0  0  0  0  0
   -1.1487    1.8238    1.8082 H   0  0  0  0  0  0  0  0  0  0  0  0
   -0.7289   -2.9405   -1.0087 C   0  0  0  0  0  0  0  0  0  0  0  0
    0.5959   -2.3937   -1.0946 C   0  0  0  0  0  0  0  0  0  0  0  0
    1.6015   -3.1422   -1.7612 C   0  0  0  0  0  0  0  0  0  0  0  0
    2.6104   -2.7089   -1.8216 H   0  0  0  0  0  0  0  0  0  0  0  0
    1.3040   -4.3730   -2.3475 C   0  0  0  0  0  0  0  0  0  0  0  0
    2.0944   -4.9263   -2.8765 H   0  0  0  0  0  0  0  0  0  0  0  0
    0.0000   -4.9094   -2.2717 C   0  0  0  0  0  0  0  0  0  0  0  0
   -0.2272   -5.8801   -2.7347 H   0  0  0  0  0  0  0  0  0  0  0  0
   -0.9975   -4.1987   -1.6050 C   0  0  0  0  0  0  0  0  0  0  0  0
   -2.0170   -4.6094   -1.5350 H   0  0  0  0  0  0  0  0  0  0  0  0
   -1.7739   -2.2343   -0.3204 C   0  0  0  0  0  3  0  0  0  0  0  0
   -2.7906   -2.6733   -0.3591 H   0  0  0  0  0  0  0  0  0  0  0  0
   -2.7820   -0.4190    0.8396 C   0  0  0  0  0  0  0  0  0  0  0  0
   -3.0360    0.3610    0.0897 H   0  0  0  0  0  0  0  0  0  0  0  0
   -3.6573   -1.0944    0.9490 H   0  0  0  0  0  0  0  0  0  0  0  0
   -2.4242    0.2258    2.1650 C   0  0  0  0  0  0  0  0  0  0  0  0
   -2.3974   -0.5464    2.9589 H   0  0  0  0  0  0  0  0  0  0  0  0
   -3.1703    0.9866    2.4737 H   0  0  0  0  0  0  0  0  0  0  0  0
   -0.3021    0.6989    3.3302 C   0  0  0  0  0  0  0  0  0  0  0  0
    0.4944    1.4687    3.3406 H   0  0  0  0  0  0  0  0  0  0  0  0
   -0.9419    0.8702    4.2226 H   0  0  0  0  0  0  0  0  0  0  0  0
   -0.9363    1.2225   -0.5746 O   0  5  0  0  0  0  0  0  0  0  0  0
   -0.5959    2.3937   -1.0946 C   0  0  0  0  0  0  0  0  0  0  0  0
    0.7289    2.9405   -1.0087 C   0  0  0  0  0  0  0  0  0  0  0  0
    0.9975    4.1987   -1.6050 C   0  0  0  0  0  0  0  0  0  0  0  0
   -0.0000    4.9094   -2.2717 C   0  0  0  0  0  0  0  0  0  0  0  0
   -1.3040    4.3730   -2.3475 C   0  0  0  0  0  0  0  0  0  0  0  0
   -1.6015    3.1422   -1.7612 C   0  0  0  0  0  0  0  0  0  0  0  0
   -2.6104    2.7089   -1.8216 H   0  0  0  0  0  0  0  0  0  0  0  0
   -2.0944    4.9263   -2.8765 H   0  0  0  0  0  0  0  0  0  0  0  0
    0.2272    5.8801   -2.7347 H   0  0  0  0  0  0  0  0  0  0  0  0
    2.0170    4.6094   -1.5350 H   0  0  0  0  0  0  0  0  0  0  0  0
    1.7739    2.2343   -0.3204 C   0  0  0  0  0  3  0  0  0  0  0  0
    1.5977    1.1153    0.3411 N   0  0  0  0  0  2  0  0  0  0  0  0
    0.3021   -0.6989    3.3302 C   0  0  0  0  0  0  0  0  0  0  0  0
    1.0608   -0.8319    2.0680 N   0  0  0  0  0  0  0  0  0  0  0  0
    1.1487   -1.8238    1.8082 H   0  0  0  0  0  0  0  0  0  0  0  0
    2.4242   -0.2258    2.1650 C   0  0  0  0  0  0  0  0  0  0  0  0
    2.7820    0.4190    0.8396 C   0  0  0  0  0  0  0  0  0  0  0  0
    3.0360   -0.3610    0.0897 H   0  0  0  0  0  0  0  0  0  0  0  0
    3.6573    1.0944    0.9490 H   0  0  0  0  0  0  0  0  0  0  0  0
    2.3974    0.5464    2.9589 H   0  0  0  0  0  0  0  0  0  0  0  0
    3.1703   -0.9866    2.4737 H   0  0  0  0  0  0  0  0  0  0  0  0
   -0.4944   -1.4687    3.3406 H   0  0  0  0  0  0  0  0  0  0  0  0
    0.9419   -0.8702    4.2226 H   0  0  0  0  0  0  0  0  0  0  0  0
    2.7906    2.6733   -0.3591 H   0  0  0  0  0  0  0  0  0  0  0  0
  2 17  1  0  0  0  0
  3 20  1  0  0  0  0
  3 23  1  0  0  0  0
  4  3  1  0  0  0  0
  5 15  1  0  0  0  0
  6  5  1  0  0  0  0
  6  1  1  0  0  0  0
  7  6  2  0  0  0  0
  8  7  1  0  0  0  0
  9 11  2  0  0  0  0
  9  7  1  0  0  0  0
 10  9  1  0  0  0  0
 11 13  1  0  0  0  0
 12 11  1  0  0  0  0
 13 14  1  0  0  0  0
 13  5  2  0  0  0  0
 15  2  1  0  0  0  0
 16 15  1  0  0  0  0
 17 19  1  0  0  0  0
 17 20  1  0  0  0  0
 18 17  1  0  0  0  0
 20 22  1  0  0  0  0
 20 21  1  0  0  0  0
 23 24  1  0  0  0  0
 23 25  1  0  0  0  0
 27 28  1  0  0  0  0
 27 26  1  0  0  0  0
 28 37  1  0  0  0  0
 29 36  1  0  0  0  0
 29 28  2  0  0  0  0
 30 29  1  0  0  0  0
 31 30  2  0  0  0  0
 31 32  1  0  0  0  0
 32 27  2  0  0  0  0
 33 32  1  0  0  0  0
 34 31  1  0  0  0  0
 35 30  1  0  0  0  0
 37 38  1  0  0  0  0
 38 43  1  0  0  0  0
 39 23  1  0  0  0  0
 39 48  1  0  0  0  0
 39 49  1  0  0  0  0
 40 42  1  0  0  0  0
 40 39  1  0  0  0  0
 41 40  1  0  0  0  0
 42 47  1  0  0  0  0
 42 46  1  0  0  0  0
 43 45  1  0  0  0  0
 43 42  1  0  0  0  0
 44 43  1  0  0  0  0
 50 37  1  0  0  0  0
M  CHG  2   1  -1  26  -1
M  END
