1,2,3,4,6,8
q = -2.0, confidence = 0.856

 56 57  0  0  1  0  0  0  0  0999 V2000
    1.0172   -0.8517   -1.0282 O   0  5  0  0  0  0  0  0  0  0  0  0
   -1.0174    0.8520   -1.0278 O   0  5  0  0  0  0  0  0  0  0  0  0
    1.0974    1.5658    0.3278 N   0  0  0  0  0  2  0  0  0  0  0  0
    0.9775   -0.9644    1.7444 N   0  0  0  0  0  0  0  0  0  0  0  0
    1.9439   -0.6083    1.8061 H   0  0  0  0  0  0  0  0  0  0  0  0
   -0.9770    0.9644    1.7448 N   0  0  0  0  0  0  0  0  0  0  0  0
   -1.9433    0.6082    1.8070 H   0  0  0  0  0  0  0  0  0  0  0  0
   -1.0974   -1.5658    0.3279 N   0  0  0  0  0  2  0  0  0  0  0  0
   -2.3101    0.6729   -1.1276 C   0  0  0  0  0  0  0  0  0  0  0  0
    2.3099   -0.6728   -1.1279 C   0  0  0  0  0  0  0  0  0  0  0  0
    3.0314    0.4912   -0.6593 C   0  0  0  0  0  0  0  0  0  0  0  0
   -3.0315   -0.4912   -0.6591 C   0  0  0  0  0  0  0  0  0  0  0  0
    2.3295    1.6561   -0.1333 C   0  0  1  0  0  3  0  0  0  0  0  0
   -2.9984   -3.0091   -0.1438 C   0  0  0  0  0  0  0  0  0  0  0  0
   -2.3662   -3.7340   -0.6962 H   0  0  0  0  0  0  0  0  0  0  0  0
   -3.9830   -2.9911   -0.6353 H   0  0  0  0  0  0  0  0  0  0  0  0
   -3.1218   -3.4131    0.8827 H   0  0  0  0  0  0  0  0  0  0  0  0
    0.2491   -0.7168    3.0152 C   0  0  0  0  0  0  0  0  0  0  0  0
    0.8835   -0.9322    3.9008 H   0  0  0  0  0  0  0  0  0  0  0  0
   -0.6119   -1.4136    3.0519 H   0  0  0  0  0  0  0  0  0  0  0  0
   -0.3957   -2.7648    0.8014 C   0  0  0  0  0  0  0  0  0  0  0  0
   -0.2790   -3.5034   -0.0198 H   0  0  0  0  0  0  0  0  0  0  0  0
   -1.0028   -3.2704    1.5841 H   0  0  0  0  0  0  0  0  0  0  0  0
    3.0549   -1.7101   -1.7707 C   0  0  0  0  0  0  0  0  0  0  0  0
    2.4817   -2.5633   -2.1621 H   0  0  0  0  0  0  0  0  0  0  0  0
   -0.9923    2.3907    1.3418 C   0  0  0  0  0  0  0  0  0  0  0  0
   -1.2756    3.0395    2.1982 H   0  0  0  0  0  0  0  0  0  0  0  0
   -1.7630    2.5035    0.5599 H   0  0  0  0  0  0  0  0  0  0  0  0
    0.3955    2.7648    0.8009 C   0  0  0  0  0  0  0  0  0  0  0  0
    0.2783    3.5029   -0.0208 H   0  0  0  0  0  0  0  0  0  0  0  0
    1.0028    3.2711    1.5830 H   0  0  0  0  0  0  0  0  0  0  0  0
   -2.3296   -1.6561   -0.1331 C   0  0  1  0  0  3  0  0  0  0  0  0
    2.9982    3.0092   -0.1443 C   0  0  0  0  0  0  0  0  0  0  0  0
    2.3660    3.7338   -0.6971 H   0  0  0  0  0  0  0  0  0  0  0  0
    3.9829    2.9912   -0.6355 H   0  0  0  0  0  0  0  0  0  0  0  0
    3.1212    3.4136    0.8822 H   0  0  0  0  0  0  0  0  0  0  0  0
   -4.4510   -0.5106   -0.8049 C   0  0  0  0  0  0  0  0  0  0  0  0
   -5.0175   -1.3702   -0.4203 H   0  0  0  0  0  0  0  0  0  0  0  0
   -0.2479    0.7169    3.0152 C   0  0  0  0  0  0  0  0  0  0  0  0
   -0.8819    0.9325    3.9011 H   0  0  0  0  0  0  0  0  0  0  0  0
    0.6131    1.4138    3.0514 H   0  0  0  0  0  0  0  0  0  0  0  0
    0.9925   -2.3908    1.3415 C   0  0  0  0  0  0  0  0  0  0  0  0
    1.2762   -3.0395    2.1977 H   0  0  0  0  0  0  0  0  0  0  0  0
    1.7627   -2.5036    0.5591 H   0  0  0  0  0  0  0  0  0  0  0  0
   -5.1521    0.5344   -1.3924 C   0  0  0  0  0  0  0  0  0  0  0  0
   -6.2474    0.4917   -1.4706 H   0  0  0  0  0  0  0  0  0  0  0  0
   -4.4371    1.6448   -1.8972 C   0  0  0  0  0  0  0  0  0  0  0  0
   -4.9759    2.4689   -2.3893 H   0  0  0  0  0  0  0  0  0  0  0  0
    4.4509    0.5103   -0.8048 C   0  0  0  0  0  0  0  0  0  0  0  0
    5.0175    1.3698   -0.4201 H   0  0  0  0  0  0  0  0  0  0  0  0
   -3.0552    1.7101   -1.7704 C   0  0  0  0  0  0  0  0  0  0  0  0
   -2.4821    2.5634   -2.1615 H   0  0  0  0  0  0  0  0  0  0  0  0
    4.4368   -1.6449   -1.8975 C   0  0  0  0  0  0  0  0  0  0  0  0
    4.9756   -2.4691   -2.3897 H   0  0  0  0  0  0  0  0  0  0  0  0
    5.1520   -0.5347   -1.3925 C   0  0  0  0  0  0  0  0  0  0  0  0
    6.2472   -0.4922   -1.4706 H   0  0  0  0  0  0  0  0  0  0  0  0
  3 29  1  0  0  0  0
  4  5  1  0  0  0  0
  4 18  1  0  0  0  0
  6  7  1  0  0  0  0
  6 39  1  0  0  0  0
  8 21  1  0  0  0  0
  9  2  1  0  0  0  0
  9 12  1  0  0  0  0
 10  1  1  0  0  0  0
 10 11  1  0  0  0  0
 11 13  1  0  0  0  0
 12 32  1  0  0  0  0
 13  3  1  6  0  0  0
 14 32  1  0  0  0  0
 14 17  1  0  0  0  0
 15 14  1  0  0  0  0
 16 14  1  0  0  0  0
 18 39  1  0  0  0  0
 18 20  1  0  0  0  0
 18 19  1  0  0  0  0
 21 42  1  0  0  0  0
 21 23  1  0  0  0  0
 22 21  1  0  0  0  0
 24 10  2  0  0  0  0
 25 24  1  0  0  0  0
 26  6  1  0  0  0  0
 26 27  1  0  0  0  0
 28 26  1  0  0  0  0
 29 26  1  0  0  0  0
 29 31  1  0  0  0  0
 30 29  1  0  0  0  0
 32  8  1  6  0  0  0
 33 13  1  0  0  0  0
 33 36  1  0  0  0  0
 34 33  1  0  0  0  0
 35 33  1  0  0  0  0
 37 12  2  0  0  0  0
 37 38  1  0  0  0  0
 39 41  1  0  0  0  0
 39 40  1  0  0  0  0
 42  4  1  0  0  0  0
 42 43  1  0  0  0  0
 44 42  1  0  0  0  0
 45 37  1  0  0  0  0
 46 45  1  0  0  0  0
 47 51  1  0  0  0  0
 47 45  2  0  0  0  0
 48 47  1  0  0  0  0
 49 11  2  0  0  0  0
 49 50  1  0  0  0  0
 51  9  2  0  0  0  0
 52 51  1  0  0  0  0
 53 24  1  0  0  0  0
 53 55  2  0  0  0  0
 54 53  1  0  0  0  0
 55 49  1  0  0  0  0
 56 55  1  0  0  0  0
M  CHG  2   1  -1   2  -1
M  END
