2,18,25,33,41,46
q = -2.0, confidence = 0.854

 58 59  0  0  0  0  0  0  0  0999 V2000
   -2.1893   -0.8512   -0.4359 C   0  0  0  0  0  0  0  0  0  0  0  0
   -1.4285   -0.1379    0.3597 O   0  5  0  0  0  0  0  0  0  0  0  0
   -3.2302   -1.6376    0.1789 C   0  0  0  0  0  0  0  0  0  0  0  0
   -3.3252   -1.5023    1.5220 O   0  0  0  0  0  0  0  0  0  0  0  0
   -4.3068   -2.2681    2.2068 C   0  0  0  0  0  0  0  0  0  0  0  0
   -5.3348   -2.0216    1.8612 H   0  0  0  0  0  0  0  0  0  0  0  0
   -4.2119   -2.0099    3.2770 H   0  0  0  0  0  0  0  0  0  0  0  0
   -4.1341   -3.3590    2.0791 H   0  0  0  0  0  0  0  0  0  0  0  0
   -4.0354   -2.4683   -0.6113 C   0  0  0  0  0  0  0  0  0  0  0  0
   -4.8111   -3.0920   -0.1480 H   0  0  0  0  0  0  0  0  0  0  0  0
   -3.8588   -2.5126   -2.0124 C   0  0  0  0  0  0  0  0  0  0  0  0
   -4.5025   -3.1715   -2.6128 H   0  0  0  0  0  0  0  0  0  0  0  0
   -2.8952   -1.7233   -2.6329 C   0  0  0  0  0  0  0  0  0  0  0  0
   -2.7815   -1.7370   -3.7273 H   0  0  0  0  0  0  0  0  0  0  0  0
   -2.0542   -0.8781   -1.8615 C   0  0  0  0  0  0  0  0  0  0  0  0
   -1.1322    0.0040   -2.5189 C   0  0  0  0  0  3  0  0  0  0  0  0
   -1.1088   -0.0460   -3.6257 H   0  0  0  0  0  0  0  0  0  0  0  0
   -0.3654    0.8858   -1.9158 N   0  0  0  0  0  2  0  0  0  0  0  0
    0.4614    1.7369   -2.7816 C   0  0  0  0  0  0  0  0  0  0  0  0
   -0.1394    2.6080   -3.1292 H   0  0  0  0  0  0  0  0  0  0  0  0
    0.7799    1.1949   -3.6962 H   0  0  0  0  0  0  0  0  0  0  0  0
    1.6796    2.1913   -1.9885 C   0  0  0  0  0  0  0  0  0  0  0  0
    2.3761    1.3415   -1.8637 H   0  0  0  0  0  0  0  0  0  0  0  0
    2.2035    3.0330   -2.4910 H   0  0  0  0  0  0  0  0  0  0  0  0
    1.2070    2.5670   -0.6325 N   0  0  0  0  0  0  0  0  0  0  0  0
    2.0103    2.6158    0.0104 H   0  0  0  0  0  0  0  0  0  0  0  0
    0.4604    3.8459   -0.6050 C   0  0  0  0  0  0  0  0  0  0  0  0
   -0.1387    3.9103   -1.5345 H   0  0  0  0  0  0  0  0  0  0  0  0
    1.1403    4.7247   -0.5994 H   0  0  0  0  0  0  0  0  0  0  0  0
   -0.4584    3.8468    0.6006 C   0  0  0  0  0  0  0  0  0  0  0  0
    0.1407    3.9117    1.5300 H   0  0  0  0  0  0  0  0  0  0  0  0
   -1.1376    4.7262    0.5942 H   0  0  0  0  0  0  0  0  0  0  0  0
   -1.2060    2.5686    0.6295 N   0  0  0  0  0  0  0  0  0  0  0  0
   -2.0093    2.6174   -0.0136 H   0  0  0  0  0  0  0  0  0  0  0  0
   -1.6790    2.1947    1.9858 C   0  0  0  0  0  0  0  0  0  0  0  0
   -2.3761    1.3453    1.8619 H   0  0  0  0  0  0  0  0  0  0  0  0
   -2.2024    3.0373    2.4874 H   0  0  0  0  0  0  0  0  0  0  0  0
   -0.4612    1.7404    2.7796 C   0  0  0  0  0  0  0  0  0  0  0  0
    0.1400    2.6114    3.1267 H   0  0  0  0  0  0  0  0  0  0  0  0
   -0.7803    1.1992    3.6945 H   0  0  0  0  0  0  0  0  0  0  0  0
    0.3654    0.8881    1.9147 N   0  0  0  0  0  2  0  0  0  0  0  0
    1.1325    0.0073    2.5190 C   0  0  0  0  0  3  0  0  0  0  0  0
    1.1094   -0.0410    3.6258 H   0  0  0  0  0  0  0  0  0  0  0  0
    2.0543   -0.8757    1.8626 C   0  0  0  0  0  0  0  0  0  0  0  0
    2.1888   -0.8512    0.4369 C   0  0  0  0  0  0  0  0  0  0  0  0
    1.4275   -0.1395   -0.3596 O   0  5  0  0  0  0  0  0  0  0  0  0
    3.2295   -1.6386   -0.1771 C   0  0  0  0  0  0  0  0  0  0  0  0
    3.3239   -1.5055   -1.5204 O   0  0  0  0  0  0  0  0  0  0  0  0
    4.3053   -2.2724   -2.2043 C   0  0  0  0  0  0  0  0  0  0  0  0
    5.3334   -2.0251   -1.8597 H   0  0  0  0  0  0  0  0  0  0  0  0
    4.2099   -2.0160   -3.2749 H   0  0  0  0  0  0  0  0  0  0  0  0
    4.1328   -3.3630   -2.0747 H   0  0  0  0  0  0  0  0  0  0  0  0
    4.0352   -2.4678    0.6142 C   0  0  0  0  0  0  0  0  0  0  0  0
    4.8108   -3.0922    0.1516 H   0  0  0  0  0  0  0  0  0  0  0  0
    3.8592   -2.5098    2.0154 C   0  0  0  0  0  0  0  0  0  0  0  0
    4.5033   -3.1676    2.6166 H   0  0  0  0  0  0  0  0  0  0  0  0
    2.8958   -1.7196    2.6350 C   0  0  0  0  0  0  0  0  0  0  0  0
    2.7826   -1.7315    3.7296 H   0  0  0  0  0  0  0  0  0  0  0  0
  1  3  1  0  0  0  0
  1  2  1  0  0  0  0
  3  4  1  0  0  0  0
  4  5  1  0  0  0  0
  5  7  1  0  0  0  0
  6  5  1  0  0  0  0
  8  5  1  0  0  0  0
  9 10  1  0  0  0  0
  9  3  2  0  0  0  0
 11  9  1  0  0  0  0
 12 11  1  0  0  0  0
 13 11  2  0  0  0  0
 13 15  1  0  0  0  0
 14 13  1  0  0  0  0
 15  1  2  0  0  0  0
 16 18  1  0  0  0  0
 16 15  1  0  0  0  0
 17 16  1  0  0  0  0
 19 22  1  0  0  0  0
 19 18  1  0  0  0  0
 20 19  1  0  0  0  0
 21 19  1  0  0  0  0
 22 23  1  0  0  0  0
 22 25  1  0  0  0  0
 24 22  1  0  0  0  0
 25 27  1  0  0  0  0
 25 26  1  0  0  0  0
 27 29  1  0  0  0  0
 27 30  1  0  0  0  0
 28 27  1  0  0  0  0
 30 33  1  0  0  0  0
 30 31  1  0  0  0  0
 32 30  1  0  0  0  0
 33 35  1  0  0  0  0
 34 33  1  0  0  0  0
 35 37  1  0  0  0  0
 35 38  1  0  0  0  0
 36 35  1  0  0  0  0
 38 39  1  0  0  0  0
 38 40  1  0  0  0  0
 41 42  1  0  0  0  0
 41 38  1  0  0  0  0
 42 43  1  0  0  0  0
 44 42  1  0  0  0  0
 44 57  1  0  0  0  0
 45 44  2  0  0  0  0
 46 45  1  0  0  0  0
 47 45  1  0  0  0  0
 47 53  2  0  0  0  0
 48 47  1  0  0  0  0
 49 52  1  0  0  0  0
 49 50  1  0  0  0  0
 49 48  1  0  0  0  0
 51 49  1  0  0  0  0
 53 55  1  0  0  0  0
 54 53  1  0  0  0  0
 55 56  1  0  0  0  0
 55 57  2  0  0  0  0
 57 58  1  0  0  0  0
M  CHG  2   2  -1  46  -1
M  END
