2,5,15,29,42,56
q = -2.0, confidence = 0.792

 68 72  0  0  0  0  0  0  0  0999 V2000
   -1.9265   -0.5632   -1.7177 C   0  0  0  0  0  0  0  0  0  0  0  0
   -1.4855    0.5688   -1.2248 O   0  5  0  0  0  0  0  0  0  0  0  0
   -3.2864   -0.6519   -2.1318 C   0  0  0  0  0  0  0  0  0  0  0  0
   -3.9210    0.2349   -1.9936 H   0  0  0  0  0  0  0  0  0  0  0  0
    1.4855    0.5688    1.2248 O   0  5  0  0  0  0  0  0  0  0  0  0
   -3.7997   -1.8335   -2.6587 C   0  0  0  0  0  0  0  0  0  0  0  0
   -4.8608   -1.8743   -2.9494 H   0  0  0  0  0  0  0  0  0  0  0  0
   -2.9862   -2.9818   -2.8208 C   0  0  0  0  0  0  0  0  0  0  0  0
   -3.4077   -3.9069   -3.2383 H   0  0  0  0  0  0  0  0  0  0  0  0
   -1.6436   -2.9114   -2.4722 C   0  0  0  0  0  0  0  0  0  0  0  0
   -0.9817   -3.7775   -2.6292 H   0  0  0  0  0  0  0  0  0  0  0  0
   -1.0909   -1.7235   -1.9149 C   0  0  0  0  0  0  0  0  0  0  0  0
    0.3244   -1.5934   -1.7580 C   0  0  0  0  0  3  0  0  0  0  0  0
    0.9734   -2.3095   -2.2995 H   0  0  0  0  0  0  0  0  0  0  0  0
    0.9142   -0.6126   -1.1140 N   0  0  0  0  0  2  0  0  0  0  0  0
    2.3084   -0.3776   -1.2807 C   0  0  0  0  0  0  0  0  0  0  0  0
    3.2625   -1.3774   -1.0314 C   0  0  0  0  0  0  0  0  0  0  0  0
    2.9318   -2.3623   -0.6701 H   0  0  0  0  0  0  0  0  0  0  0  0
    4.6263   -1.1004   -1.2088 C   0  0  0  0  0  0  0  0  0  0  0  0
    5.3696   -1.8854   -1.0065 H   0  0  0  0  0  0  0  0  0  0  0  0
    5.0387    0.1753   -1.6176 C   0  0  0  0  0  0  0  0  0  0  0  0
    6.1078    0.3973   -1.7470 H   0  0  0  0  0  0  0  0  0  0  0  0
    4.0813    1.1736   -1.8640 C   0  0  0  0  0  0  0  0  0  0  0  0
    4.4032    2.1709   -2.2026 H   0  0  0  0  0  0  0  0  0  0  0  0
    2.7109    0.9142   -1.7071 C   0  0  0  0  0  0  0  0  0  0  0  0
    1.6642    1.9411   -2.0666 C   0  0  0  0  0  0  0  0  0  0  0  0
    2.1463    2.8692   -2.4440 H   0  0  0  0  0  0  0  0  0  0  0  0
    1.0122    1.5487   -2.8747 H   0  0  0  0  0  0  0  0  0  0  0  0
    0.7601    2.2683   -0.9372 N   0  0  0  0  0  0  0  0  0  0  0  0
    1.4219    3.0305    0.1544 C   0  0  0  0  0  0  0  0  0  0  0  0
    1.6650    4.0524   -0.2083 H   0  0  0  0  0  0  0  0  0  0  0  0
    2.3546    2.5063    0.4237 H   0  0  0  0  0  0  0  0  0  0  0  0
    0.4446    3.0386    1.3518 C   0  0  0  0  0  0  0  0  0  0  0  0
    0.9012    2.5289    2.2168 H   0  0  0  0  0  0  0  0  0  0  0  0
    0.1406    4.0648    1.6503 H   0  0  0  0  0  0  0  0  0  0  0  0
   -0.4445    3.0386   -1.3518 C   0  0  0  0  0  0  0  0  0  0  0  0
   -0.9011    2.5290   -2.2168 H   0  0  0  0  0  0  0  0  0  0  0  0
   -0.1405    4.0648   -1.6503 H   0  0  0  0  0  0  0  0  0  0  0  0
   -1.4219    3.0305   -0.1543 C   0  0  0  0  0  0  0  0  0  0  0  0
   -1.6650    4.0524    0.2083 H   0  0  0  0  0  0  0  0  0  0  0  0
   -2.3546    2.5063   -0.4237 H   0  0  0  0  0  0  0  0  0  0  0  0
   -0.7600    2.2683    0.9372 N   0  0  0  0  0  0  0  0  0  0  0  0
   -1.6641    1.9411    2.0666 C   0  0  0  0  0  0  0  0  0  0  0  0
   -2.1463    2.8692    2.4440 H   0  0  0  0  0  0  0  0  0  0  0  0
   -1.0121    1.5487    2.8747 H   0  0  0  0  0  0  0  0  0  0  0  0
   -2.7109    0.9142    1.7070 C   0  0  0  0  0  0  0  0  0  0  0  0
   -4.0813    1.1737    1.8640 C   0  0  0  0  0  0  0  0  0  0  0  0
   -4.4032    2.1709    2.2025 H   0  0  0  0  0  0  0  0  0  0  0  0
   -5.0387    0.1754    1.6175 C   0  0  0  0  0  0  0  0  0  0  0  0
   -6.1078    0.3974    1.7468 H   0  0  0  0  0  0  0  0  0  0  0  0
   -4.6263   -1.1003    1.2086 C   0  0  0  0  0  0  0  0  0  0  0  0
   -5.3696   -1.8854    1.0063 H   0  0  0  0  0  0  0  0  0  0  0  0
   -3.2625   -1.3774    1.0313 C   0  0  0  0  0  0  0  0  0  0  0  0
   -2.9318   -2.3622    0.6699 H   0  0  0  0  0  0  0  0  0  0  0  0
   -2.3084   -0.3776    1.2806 C   0  0  0  0  0  0  0  0  0  0  0  0
   -0.9142   -0.6126    1.1140 N   0  0  0  0  0  2  0  0  0  0  0  0
   -0.3244   -1.5935    1.7580 C   0  0  0  0  0  3  0  0  0  0  0  0
   -0.9734   -2.3095    2.2994 H   0  0  0  0  0  0  0  0  0  0  0  0
    1.0909   -1.7235    1.9149 C   0  0  0  0  0  0  0  0  0  0  0  0
    1.6435   -2.9113    2.4722 C   0  0  0  0  0  0  0  0  0  0  0  0
    0.9816   -3.7775    2.6292 H   0  0  0  0  0  0  0  0  0  0  0  0
    2.9862   -2.9818    2.8210 C   0  0  0  0  0  0  0  0  0  0  0  0
    3.4076   -3.9068    3.2385 H   0  0  0  0  0  0  0  0  0  0  0  0
    3.7997   -1.8335    2.6588 C   0  0  0  0  0  0  0  0  0  0  0  0
    4.8607   -1.8743    2.9496 H   0  0  0  0  0  0  0  0  0  0  0  0
    3.2863   -0.6519    2.1319 C   0  0  0  0  0  0  0  0  0  0  0  0
    3.9210    0.2349    1.9938 H   0  0  0  0  0  0  0  0  0  0  0  0
    1.9265   -0.5632    1.7177 C   0  0  0  0  0  0  0  0  0  0  0  0
  1  2  1  0  0  0  0
  3  4  1  0  0  0  0
  3  1  2  0  0  0  0
  5 68  1  0  0  0  0
  6  3  1  0  0  0  0
  7  6  1  0  0  0  0
  8  6  2  0  0  0  0
  8 10  1  0  0  0  0
  9  8  1  0  0  0  0
 10 12  2  0  0  0  0
 11 10  1  0  0  0  0
 12 13  1  0  0  0  0
 12  1  1  0  0  0  0
 13 15  1  0  0  0  0
 14 13  1  0  0  0  0
 16 15  1  0  0  0  0
 16 17  1  0  0  0  0
 17 18  1  0  0  0  0
 19 17  2  0  0  0  0
 19 20  1  0  0  0  0
 21 19  1  0  0  0  0
 22 21  1  0  0  0  0
 23 25  1  0  0  0  0
 23 21  2  0  0  0  0
 24 23  1  0  0  0  0
 25 16  2  0  0  0  0
 26 25  1  0  0  0  0
 26 29  1  0  0  0  0
 27 26  1  0  0  0  0
 28 26  1  0  0  0  0
 29 30  1  0  0  0  0
 30 32  1  0  0  0  0
 30 33  1  0  0  0  0
 31 30  1  0  0  0  0
 33 35  1  0  0  0  0
 33 34  1  0  0  0  0
 36 29  1  0  0  0  0
 36 39  1  0  0  0  0
 37 36  1  0  0  0  0
 38 36  1  0  0  0  0
 39 40  1  0  0  0  0
 39 42  1  0  0  0  0
 41 39  1  0  0  0  0
 42 33  1  0  0  0  0
 42 43  1  0  0  0  0
 43 44  1  0  0  0  0
 43 45  1  0  0  0  0
 46 47  1  0  0  0  0
 46 43  1  0  0  0  0
 47 48  1  0  0  0  0
 49 50  1  0  0  0  0
 49 47  2  0  0  0  0
 51 49  1  0  0  0  0
 52 51  1  0  0  0  0
 53 51  2  0  0  0  0
 53 55  1  0  0  0  0
 54 53  1  0  0  0  0
 55 46  2  0  0  0  0
 56 55  1  0  0  0  0
 56 57  1  0  0  0  0
 57 59  1  0  0  0  0
 57 58  1  0  0  0  0
 59 60  1  0  0  0  0
 60 61  1  0  0  0  0
 60 62  2  0  0  0  0
 62 63  1  0  0  0  0
 64 62  1  0  0  0  0
 64 65  1  0  0  0  0
 66 64  2  0  0  0  0
 67 66  1  0  0  0  0
 68 59  2  0  0  0  0
 68 66  1  0  0  0  0
M  CHG  2   2  -1   5  -1
M  END
