1,2,5,6,7,8
q = -2.0, confidence = 0.83

 48 48  0  0  0  0  0  0  0  0999 V2000
    0.0219    1.8909   -0.2876 O   0  5  0  0  0  0  0  0  0  0  0  0
   -0.0216   -1.8932   -0.2727 O   0  5  0  0  0  0  0  0  0  0  0  0
    0.7722    3.6744    0.8645 O   0  0  0  0  0  0  0  0  0  0  0  0
   -0.7722   -3.6675    0.8933 O   0  0  0  0  0  0  0  0  0  0  0  0
    1.4059    0.0967    1.1982 N   0  0  0  0  0  0  0  0  0  0  0  0
   -1.4059   -0.0874    1.1988 N   0  0  0  0  0  0  0  0  0  0  0  0
   -1.3683    0.0506   -1.7071 N   0  0  0  0  0  0  0  0  0  0  0  0
    1.3682   -0.0640   -1.7069 N   0  0  0  0  0  0  0  0  0  0  0  0
    0.6875   -0.3023    2.4415 C   0  0  0  0  0  0  0  0  0  0  0  0
   -0.6875    0.3204    2.4392 C   0  0  0  0  0  0  0  0  0  0  0  0
   -2.5790    0.8201    1.0190 C   0  0  0  0  0  0  0  0  0  0  0  0
   -3.3447    0.6266   -0.2815 C   0  0  0  0  0  0  0  0  0  0  0  0
   -2.5286    0.9544   -1.5202 C   0  0  0  0  0  0  0  0  0  0  0  0
   -0.6511    0.3699   -2.9657 C   0  0  0  0  0  0  0  0  0  0  0  0
    0.6508   -0.3939   -2.9625 C   0  0  0  0  0  0  0  0  0  0  0  0
    2.5289   -0.9656   -1.5128 C   0  0  0  0  0  0  0  0  0  0  0  0
    3.3449   -0.6277   -0.2768 C   0  0  0  0  0  0  0  0  0  0  0  0
    2.5793   -0.8118    1.0252 C   0  0  0  0  0  0  0  0  0  0  0  0
    1.8105    1.5341    1.2658 C   0  0  0  0  0  0  0  0  0  0  0  0
    0.7960    2.4865    0.6056 C   0  0  0  0  0  0  0  0  0  0  0  0
   -1.8110   -1.5242    1.2769 C   0  0  0  0  0  0  0  0  0  0  0  0
   -0.7961   -2.4817    0.6248 C   0  0  0  0  0  0  0  0  0  0  0  0
   -1.6898   -0.9315   -1.7567 H   0  0  0  0  0  0  0  0  0  0  0  0
    1.6891    0.9179   -1.7644 H   0  0  0  0  0  0  0  0  0  0  0  0
    1.2657    0.0100    3.3378 H   0  0  0  0  0  0  0  0  0  0  0  0
    0.6247   -1.4079    2.4634 H   0  0  0  0  0  0  0  0  0  0  0  0
   -1.2658    0.0147    3.3378 H   0  0  0  0  0  0  0  0  0  0  0  0
   -0.6246    1.4262    2.4530 H   0  0  0  0  0  0  0  0  0  0  0  0
   -2.1867    1.8549    1.0593 H   0  0  0  0  0  0  0  0  0  0  0  0
   -3.2578    0.6776    1.8888 H   0  0  0  0  0  0  0  0  0  0  0  0
   -4.2141    1.3141   -0.2553 H   0  0  0  0  0  0  0  0  0  0  0  0
   -3.7867   -0.3906   -0.3575 H   0  0  0  0  0  0  0  0  0  0  0  0
   -3.1708    0.9004   -2.4262 H   0  0  0  0  0  0  0  0  0  0  0  0
   -2.1181    1.9804   -1.4487 H   0  0  0  0  0  0  0  0  0  0  0  0
   -0.4680    1.4636   -2.9703 H   0  0  0  0  0  0  0  0  0  0  0  0
   -1.2703    0.1250   -3.8546 H   0  0  0  0  0  0  0  0  0  0  0  0
    1.2698   -0.1565   -3.8536 H   0  0  0  0  0  0  0  0  0  0  0  0
    0.4677   -1.4876   -2.9579 H   0  0  0  0  0  0  0  0  0  0  0  0
    2.1190   -1.9913   -1.4333 H   0  0  0  0  0  0  0  0  0  0  0  0
    3.1711   -0.9184   -2.4193 H   0  0  0  0  0  0  0  0  0  0  0  0
    3.7861    0.3892   -0.3607 H   0  0  0  0  0  0  0  0  0  0  0  0
    4.2147   -1.3144   -0.2453 H   0  0  0  0  0  0  0  0  0  0  0  0
    2.1873   -1.8464    1.0732 H   0  0  0  0  0  0  0  0  0  0  0  0
    3.2581   -0.6625    1.8938 H   0  0  0  0  0  0  0  0  0  0  0  0
    2.0045    1.8468    2.3119 H   0  0  0  0  0  0  0  0  0  0  0  0
    2.7635    1.6690    0.7187 H   0  0  0  0  0  0  0  0  0  0  0  0
   -2.7635   -1.6629    0.7299 H   0  0  0  0  0  0  0  0  0  0  0  0
   -2.0062   -1.8289    2.3252 H   0  0  0  0  0  0  0  0  0  0  0  0
  1 20  1  0  0  0  0
  2 22  1  0  0  0  0
  5 19  1  0  0  0  0
  5  9  1  0  0  0  0
  6 21  1  0  0  0  0
  6 10  1  0  0  0  0
  7 13  1  0  0  0  0
  8 16  1  0  0  0  0
  9 26  1  0  0  0  0
  9 25  1  0  0  0  0
 10  9  1  0  0  0  0
 10 28  1  0  0  0  0
 10 27  1  0  0  0  0
 11 29  1  0  0  0  0
 11  6  1  0  0  0  0
 11 30  1  0  0  0  0
 12 31  1  0  0  0  0
 12 11  1  0  0  0  0
 13 34  1  0  0  0  0
 13 12  1  0  0  0  0
 14 15  1  0  0  0  0
 14  7  1  0  0  0  0
 15 38  1  0  0  0  0
 15  8  1  0  0  0  0
 16 39  1  0  0  0  0
 16 17  1  0  0  0  0
 17 42  1  0  0  0  0
 17 18  1  0  0  0  0
 18 43  1  0  0  0  0
 18  5  1  0  0  0  0
 18 44  1  0  0  0  0
 19 45  1  0  0  0  0
 20  3  2  0  0  0  0
 20 19  1  0  0  0  0
 21 48  1  0  0  0  0
 22  4  2  0  0  0  0
 22 21  1  0  0  0  0
 23  7  1  0  0  0  0
 24  8  1  0  0  0  0
 32 12  1  0  0  0  0
 33 13  1  0  0  0  0
 35 14  1  0  0  0  0
 36 14  1  0  0  0  0
 37 15  1  0  0  0  0
 40 16  1  0  0  0  0
 41 17  1  0  0  0  0
 46 19  1  0  0  0  0
 47 21  1  0  0  0  0
M  CHG  2   1  -1   2  -1
M  END
