1,3,5,6,7,8
 OpenBabel05122313063D

 40 39  0  0  0  0  0  0  0  0999 V2000
   -0.8037   -1.8474    0.1905 O   0  5  0  0  0  0  0  0  0  0  0  0
   -3.0615   -1.9332    0.0795 O   0  0  0  0  0  0  0  0  0  0  0  0
    0.0824   -0.0758   -1.6775 O   0  5  0  0  0  0  0  0  0  0  0  0
   -1.7508    0.6780   -2.7622 O   0  0  0  0  0  0  0  0  0  0  0  0
    0.7694   -0.9442    2.0379 N   0  0  0  0  0  0  0  0  0  0  0  0
   -0.8688    0.7442    0.6079 N   0  0  0  0  0  0  0  0  0  0  0  0
    2.1082    0.7310   -0.0179 N   0  0  0  0  0  0  0  0  0  0  0  0
    1.7453   -1.8839   -0.6530 N   0  0  0  0  0  0  0  0  0  0  0  0
   -3.1695    0.8180   -0.3522 N   0  0  0  0  0  0  0  0  0  0  0  0
    0.0569    0.1085    2.8110 C   0  0  0  0  0  0  0  0  0  0  0  0
   -1.2043    0.4878    2.0435 C   0  0  0  0  0  0  0  0  0  0  0  0
   -0.6654    2.1959    0.3179 C   0  0  0  0  0  0  0  0  0  0  0  0
    0.7408    2.7349    0.5692 C   0  0  0  0  0  0  0  0  0  0  0  0
    1.7921    2.1396   -0.3602 C   0  0  0  0  0  0  0  0  0  0  0  0
    3.0515    0.1067   -0.9875 C   0  0  0  0  0  0  0  0  0  0  0  0
    3.1341   -1.3811   -0.6846 C   0  0  0  0  0  0  0  0  0  0  0  0
   -2.0022   -1.3408   -0.0178 C   0  0  0  0  0  0  0  0  0  0  0  0
   -1.9308    0.1674   -0.3883 C   0  0  0  0  0  0  0  0  0  0  0  0
   -1.1885    0.2789   -1.7596 C   0  0  0  0  0  0  0  0  0  0  0  0
    0.2305   -1.8277    2.0802 H   0  0  0  0  0  0  0  0  0  0  0  0
    1.6958   -1.1346    2.4485 H   0  0  0  0  0  0  0  0  0  0  0  0
    0.7366    0.9766    2.9180 H   0  0  0  0  0  0  0  0  0  0  0  0
   -0.1973   -0.2354    3.8361 H   0  0  0  0  0  0  0  0  0  0  0  0
   -1.6934    1.3724    2.4961 H   0  0  0  0  0  0  0  0  0  0  0  0
   -1.9431   -0.3369    2.0916 H   0  0  0  0  0  0  0  0  0  0  0  0
   -1.4189    2.7668    0.8952 H   0  0  0  0  0  0  0  0  0  0  0  0
   -0.9162    2.3618   -0.7480 H   0  0  0  0  0  0  0  0  0  0  0  0
    1.0473    2.6328    1.6329 H   0  0  0  0  0  0  0  0  0  0  0  0
    0.7060    3.8279    0.3841 H   0  0  0  0  0  0  0  0  0  0  0  0
    2.7280    2.7389   -0.3320 H   0  0  0  0  0  0  0  0  0  0  0  0
    1.4217    2.1413   -1.4044 H   0  0  0  0  0  0  0  0  0  0  0  0
    2.5651    0.7358    0.9081 H   0  0  0  0  0  0  0  0  0  0  0  0
    4.0487    0.5944   -0.9556 H   0  0  0  0  0  0  0  0  0  0  0  0
    2.6215    0.2655   -1.9968 H   0  0  0  0  0  0  0  0  0  0  0  0
    3.5975   -1.5595    0.3090 H   0  0  0  0  0  0  0  0  0  0  0  0
    3.7613   -1.9058   -1.4352 H   0  0  0  0  0  0  0  0  0  0  0  0
   -3.3790    1.2313   -1.2723 H   0  0  0  0  0  0  0  0  0  0  0  0
   -3.9089    0.1451   -0.1026 H   0  0  0  0  0  0  0  0  0  0  0  0
    1.3522   -1.9550   -1.6077 H   0  0  0  0  0  0  0  0  0  0  0  0
    1.6591   -2.8199   -0.2313 H   0  0  0  0  0  0  0  0  0  0  0  0
  4 19  2  0  0  0  0
  5 20  1  0  0  0  0
  5 21  1  0  0  0  0
  5 10  1  0  0  0  0
  6 11  1  0  0  0  0
  7 32  1  0  0  0  0
  8 40  1  0  0  0  0
  9 38  1  0  0  0  0
 10 22  1  0  0  0  0
 10 23  1  0  0  0  0
 11 25  1  0  0  0  0
 11 24  1  0  0  0  0
 11 10  1  0  0  0  0
 12 13  1  0  0  0  0
 12  6  1  0  0  0  0
 12 26  1  0  0  0  0
 13 28  1  0  0  0  0
 14 30  1  0  0  0  0
 14  7  1  0  0  0  0
 14 13  1  0  0  0  0
 15 33  1  0  0  0  0
 15 16  1  0  0  0  0
 15  7  1  0  0  0  0
 16  8  1  0  0  0  0
 16 35  1  0  0  0  0
 17  2  2  0  0  0  0
 17  1  1  0  0  0  0
 18  9  1  0  0  0  0
 18 17  1  0  0  0  0
 18  6  1  0  0  0  0
 19  3  1  0  0  0  0
 19 18  1  0  0  0  0
 27 12  1  0  0  0  0
 29 13  1  0  0  0  0
 31 14  1  0  0  0  0
 34 15  1  0  0  0  0
 36 16  1  0  0  0  0
 37  9  1  0  0  0  0
 39  8  1  0  0  0  0
M  CHG  2   1  -1   3  -1
M  END
