1,20,30,35,54,64
 OpenBabel05122313063D

 68 71  0  0  0  0  0  0  0  0999 V2000
    1.8480    1.5100    0.2165 O   0  5  0  0  0  0  0  0  0  0  0  0
    2.6823    0.4960    0.1319 C   0  0  0  0  0  0  0  0  0  0  0  0
    3.9900    0.6548    0.6954 C   0  0  0  0  0  0  0  0  0  0  0  0
    4.2304    1.6253    1.1533 H   0  0  0  0  0  0  0  0  0  0  0  0
    4.8959   -0.3821    0.6810 C   0  0  0  0  0  0  0  0  0  0  0  0
    5.8890   -0.2529    1.1383 H   0  0  0  0  0  0  0  0  0  0  0  0
    4.5743   -1.6496    0.0925 C   0  0  0  0  0  0  0  0  0  0  0  0
    5.5041   -2.7228    0.1075 C   0  0  0  0  0  0  0  0  0  0  0  0
    6.4863   -2.5641    0.5786 H   0  0  0  0  0  0  0  0  0  0  0  0
    5.1851   -3.9524   -0.4584 C   0  0  0  0  0  0  0  0  0  0  0  0
    5.9133   -4.7764   -0.4413 H   0  0  0  0  0  0  0  0  0  0  0  0
    3.9134   -4.1430   -1.0474 C   0  0  0  0  0  0  0  0  0  0  0  0
    3.6517   -5.1203   -1.4795 H   0  0  0  0  0  0  0  0  0  0  0  0
    2.9834   -3.1069   -1.0740 C   0  0  0  0  0  0  0  0  0  0  0  0
    1.9901   -3.2954   -1.5063 H   0  0  0  0  0  0  0  0  0  0  0  0
    3.2858   -1.8329   -0.5210 C   0  0  0  0  0  0  0  0  0  0  0  0
    2.3397   -0.7301   -0.5329 C   0  0  0  0  0  0  0  0  0  0  0  0
    1.1951   -0.7624   -1.3873 C   0  0  0  0  0  3  0  0  0  0  0  0
    1.1961   -1.5066   -2.2056 H   0  0  0  0  0  0  0  0  0  0  0  0
    0.1975    0.1099   -1.3689 N   0  0  0  0  0  2  0  0  0  0  0  0
   -0.6156    0.2033   -2.5874 C   0  0  0  0  0  0  0  0  0  0  0  0
   -1.6902    0.1942   -2.3210 H   0  0  0  0  0  0  0  0  0  0  0  0
   -0.4258   -0.6816   -3.2307 H   0  0  0  0  0  0  0  0  0  0  0  0
   -0.2900    1.4828   -3.3713 C   0  0  0  0  0  0  0  0  0  0  0  0
    0.7913    1.4919   -3.6329 H   0  0  0  0  0  0  0  0  0  0  0  0
   -0.8406    1.4523   -4.3339 H   0  0  0  0  0  0  0  0  0  0  0  0
   -0.6760    2.7742   -2.6555 C   0  0  0  0  0  0  0  0  0  0  0  0
   -0.5271    3.6453   -3.3327 H   0  0  0  0  0  0  0  0  0  0  0  0
   -1.7501    2.7465   -2.3826 H   0  0  0  0  0  0  0  0  0  0  0  0
    0.0765    2.9815   -1.3983 N   0  0  0  0  0  0  0  0  0  0  0  0
    1.0842    3.0332   -1.6155 H   0  0  0  0  0  0  0  0  0  0  0  0
   -0.3202    4.2149   -0.6884 C   0  0  0  0  0  0  0  0  0  0  0  0
   -1.4262    4.1989   -0.5981 H   0  0  0  0  0  0  0  0  0  0  0  0
   -0.0469    5.1316   -1.2566 H   0  0  0  0  0  0  0  0  0  0  0  0
   -1.8480    1.5100   -0.2165 O   0  5  0  0  0  0  0  0  0  0  0  0
   -2.6823    0.4960   -0.1319 C   0  0  0  0  0  0  0  0  0  0  0  0
   -3.9899    0.6548   -0.6955 C   0  0  0  0  0  0  0  0  0  0  0  0
   -4.2304    1.6253   -1.1534 H   0  0  0  0  0  0  0  0  0  0  0  0
   -4.8959   -0.3821   -0.6811 C   0  0  0  0  0  0  0  0  0  0  0  0
   -5.8890   -0.2530   -1.1385 H   0  0  0  0  0  0  0  0  0  0  0  0
   -4.5742   -1.6496   -0.0925 C   0  0  0  0  0  0  0  0  0  0  0  0
   -5.5041   -2.7228   -0.1075 C   0  0  0  0  0  0  0  0  0  0  0  0
   -6.4862   -2.5641   -0.5787 H   0  0  0  0  0  0  0  0  0  0  0  0
   -5.1851   -3.9523    0.4584 C   0  0  0  0  0  0  0  0  0  0  0  0
   -5.9133   -4.7764    0.4413 H   0  0  0  0  0  0  0  0  0  0  0  0
   -3.9135   -4.1429    1.0475 C   0  0  0  0  0  0  0  0  0  0  0  0
   -3.6517   -5.1202    1.4797 H   0  0  0  0  0  0  0  0  0  0  0  0
   -2.9834   -3.1069    1.0741 C   0  0  0  0  0  0  0  0  0  0  0  0
   -1.9902   -3.2954    1.5064 H   0  0  0  0  0  0  0  0  0  0  0  0
   -3.2858   -1.8329    0.5210 C   0  0  0  0  0  0  0  0  0  0  0  0
   -2.3397   -0.7301    0.5329 C   0  0  0  0  0  0  0  0  0  0  0  0
   -1.1952   -0.7624    1.3873 C   0  0  0  0  0  3  0  0  0  0  0  0
   -1.1962   -1.5066    2.2057 H   0  0  0  0  0  0  0  0  0  0  0  0
   -0.1975    0.1099    1.3690 N   0  0  0  0  0  2  0  0  0  0  0  0
    0.6155    0.2034    2.5875 C   0  0  0  0  0  0  0  0  0  0  0  0
    1.6901    0.1942    2.3212 H   0  0  0  0  0  0  0  0  0  0  0  0
    0.4257   -0.6816    3.2308 H   0  0  0  0  0  0  0  0  0  0  0  0
    0.2899    1.4829    3.3713 C   0  0  0  0  0  0  0  0  0  0  0  0
   -0.7914    1.4920    3.6329 H   0  0  0  0  0  0  0  0  0  0  0  0
    0.8404    1.4524    4.3339 H   0  0  0  0  0  0  0  0  0  0  0  0
    0.6760    2.7743    2.6555 C   0  0  0  0  0  0  0  0  0  0  0  0
    0.5270    3.6454    3.3327 H   0  0  0  0  0  0  0  0  0  0  0  0
    1.7500    2.7465    2.3827 H   0  0  0  0  0  0  0  0  0  0  0  0
   -0.0765    2.9815    1.3983 N   0  0  0  0  0  0  0  0  0  0  0  0
   -1.0842    3.0333    1.6155 H   0  0  0  0  0  0  0  0  0  0  0  0
    0.3203    4.2150    0.6884 C   0  0  0  0  0  0  0  0  0  0  0  0
    1.4263    4.1988    0.5981 H   0  0  0  0  0  0  0  0  0  0  0  0
    0.0470    5.1317    1.2565 H   0  0  0  0  0  0  0  0  0  0  0  0
  2  1  1  0  0  0  0
  2  3  1  0  0  0  0
  3  4  1  0  0  0  0
  5  3  2  0  0  0  0
  5  6  1  0  0  0  0
  7  8  1  0  0  0  0
  7  5  1  0  0  0  0
  8  9  1  0  0  0  0
 10 11  1  0  0  0  0
 10  8  2  0  0  0  0
 12 10  1  0  0  0  0
 13 12  1  0  0  0  0
 14 12  2  0  0  0  0
 14 16  1  0  0  0  0
 15 14  1  0  0  0  0
 16  7  2  0  0  0  0
 17 16  1  0  0  0  0
 17  2  2  0  0  0  0
 18 20  1  0  0  0  0
 18 17  1  0  0  0  0
 19 18  1  0  0  0  0
 21 22  1  0  0  0  0
 21 20  1  0  0  0  0
 23 21  1  0  0  0  0
 24 27  1  0  0  0  0
 24 21  1  0  0  0  0
 25 24  1  0  0  0  0
 26 24  1  0  0  0  0
 27 29  1  0  0  0  0
 27 30  1  0  0  0  0
 28 27  1  0  0  0  0
 30 32  1  0  0  0  0
 31 30  1  0  0  0  0
 32 33  1  0  0  0  0
 32 66  1  0  0  0  0
 34 32  1  0  0  0  0
 35 36  1  0  0  0  0
 36 51  1  0  0  0  0
 37 39  1  0  0  0  0
 37 36  2  0  0  0  0
 38 37  1  0  0  0  0
 39 41  2  0  0  0  0
 40 39  1  0  0  0  0
 41 50  1  0  0  0  0
 42 41  1  0  0  0  0
 42 44  2  0  0  0  0
 43 42  1  0  0  0  0
 44 46  1  0  0  0  0
 45 44  1  0  0  0  0
 46 48  2  0  0  0  0
 46 47  1  0  0  0  0
 48 49  1  0  0  0  0
 50 51  2  0  0  0  0
 50 48  1  0  0  0  0
 51 52  1  0  0  0  0
 52 53  1  0  0  0  0
 54 52  1  0  0  0  0
 54 55  1  0  0  0  0
 55 57  1  0  0  0  0
 55 58  1  0  0  0  0
 56 55  1  0  0  0  0
 58 59  1  0  0  0  0
 58 60  1  0  0  0  0
 61 62  1  0  0  0  0
 61 58  1  0  0  0  0
 63 61  1  0  0  0  0
 64 65  1  0  0  0  0
 64 61  1  0  0  0  0
 66 68  1  0  0  0  0
 66 64  1  0  0  0  0
 67 66  1  0  0  0  0
M  CHG  2   1  -1  35  -1
M  END
