3,4,5,6,8,9
 OpenBabel05122313063D

 50 51  0  0  0  0  0  0  0  0999 V2000
    6.5781   -2.3211   -0.1265 Br  0  0  0  0  0  0  0  0  0  0  0  0
   -6.5780   -2.3213    0.1267 Br  0  0  0  0  0  0  0  0  0  0  0  0
    1.1766    0.1598    0.9826 O   0  5  0  0  0  0  0  0  0  0  0  0
   -1.1765    0.1596   -0.9825 O   0  5  0  0  0  0  0  0  0  0  0  0
    1.1775    1.0917   -1.5485 N   0  0  0  0  0  2  0  0  0  0  0  0
   -0.7960    2.8141   -1.0899 N   0  0  0  0  0  0  0  0  0  0  0  0
   -1.7851    2.5589   -1.2155 H   0  0  0  0  0  0  0  0  0  0  0  0
   -1.1775    1.0920    1.5484 N   0  0  0  0  0  2  0  0  0  0  0  0
    0.7956    2.8144    1.0897 N   0  0  0  0  0  0  0  0  0  0  0  0
    1.7847    2.5593    1.2154 H   0  0  0  0  0  0  0  0  0  0  0  0
    2.9621   -0.2651   -0.6111 C   0  0  0  0  0  0  0  0  0  0  0  0
    2.3590   -0.3556    0.6892 C   0  0  0  0  0  0  0  0  0  0  0  0
    3.0695   -1.0279    1.7199 C   0  0  0  0  0  0  0  0  0  0  0  0
    2.5994   -1.0958    2.7117 H   0  0  0  0  0  0  0  0  0  0  0  0
    4.3098   -1.6147    1.4797 C   0  0  0  0  0  0  0  0  0  0  0  0
    4.8366   -2.1490    2.2830 H   0  0  0  0  0  0  0  0  0  0  0  0
    4.8923   -1.5270    0.1940 C   0  0  0  0  0  0  0  0  0  0  0  0
    4.2288   -0.8565   -0.8365 C   0  0  0  0  0  0  0  0  0  0  0  0
    4.6893   -0.7860   -1.8331 H   0  0  0  0  0  0  0  0  0  0  0  0
    2.3007    0.4277   -1.6841 C   0  0  0  0  0  3  0  0  0  0  0  0
    2.7789    0.3887   -2.6826 H   0  0  0  0  0  0  0  0  0  0  0  0
    0.5281    1.5898   -2.7604 C   0  0  0  0  0  0  0  0  0  0  0  0
    1.2384    1.7029   -3.6070 H   0  0  0  0  0  0  0  0  0  0  0  0
   -0.2359    0.8350   -3.0466 H   0  0  0  0  0  0  0  0  0  0  0  0
   -0.1388    2.9114   -2.4298 C   0  0  0  0  0  0  0  0  0  0  0  0
   -0.8724    3.2126   -3.2054 H   0  0  0  0  0  0  0  0  0  0  0  0
    0.6259    3.7110   -2.3765 H   0  0  0  0  0  0  0  0  0  0  0  0
    0.6878    4.0765    0.3257 C   0  0  0  0  0  0  0  0  0  0  0  0
    1.4849    4.0868   -0.4435 H   0  0  0  0  0  0  0  0  0  0  0  0
    0.8368    4.9692    0.9705 H   0  0  0  0  0  0  0  0  0  0  0  0
   -2.9620   -0.2651    0.6111 C   0  0  0  0  0  0  0  0  0  0  0  0
   -2.3589   -0.3558   -0.6891 C   0  0  0  0  0  0  0  0  0  0  0  0
   -3.0693   -1.0283   -1.7198 C   0  0  0  0  0  0  0  0  0  0  0  0
   -2.5991   -1.0964   -2.7115 H   0  0  0  0  0  0  0  0  0  0  0  0
   -4.3096   -1.6151   -1.4795 C   0  0  0  0  0  0  0  0  0  0  0  0
   -4.8364   -2.1495   -2.2828 H   0  0  0  0  0  0  0  0  0  0  0  0
   -4.8922   -1.5271   -0.1938 C   0  0  0  0  0  0  0  0  0  0  0  0
   -4.2287   -0.8565    0.8365 C   0  0  0  0  0  0  0  0  0  0  0  0
   -4.6892   -0.7858    1.8331 H   0  0  0  0  0  0  0  0  0  0  0  0
   -2.3008    0.4279    1.6840 C   0  0  0  0  0  3  0  0  0  0  0  0
   -2.7790    0.3891    2.6825 H   0  0  0  0  0  0  0  0  0  0  0  0
   -0.5283    1.5903    2.7603 C   0  0  0  0  0  0  0  0  0  0  0  0
    0.2357    0.8357    3.0467 H   0  0  0  0  0  0  0  0  0  0  0  0
   -1.2388    1.7035    3.6067 H   0  0  0  0  0  0  0  0  0  0  0  0
    0.1384    2.9119    2.4296 C   0  0  0  0  0  0  0  0  0  0  0  0
   -0.6264    3.7115    2.3762 H   0  0  0  0  0  0  0  0  0  0  0  0
    0.8719    3.2133    3.2052 H   0  0  0  0  0  0  0  0  0  0  0  0
   -0.6883    4.0764   -0.3261 C   0  0  0  0  0  0  0  0  0  0  0  0
   -1.4854    4.0868    0.4431 H   0  0  0  0  0  0  0  0  0  0  0  0
   -0.8374    4.9690   -0.9711 H   0  0  0  0  0  0  0  0  0  0  0  0
  1 17  1  0  0  0  0
  4 32  1  0  0  0  0
  6 48  1  0  0  0  0
  7  6  1  0  0  0  0
  8 40  1  0  0  0  0
  8 42  1  0  0  0  0
  9 10  1  0  0  0  0
  9 45  1  0  0  0  0
 11 12  1  0  0  0  0
 12  3  1  0  0  0  0
 12 13  2  0  0  0  0
 13 14  1  0  0  0  0
 15 13  1  0  0  0  0
 15 16  1  0  0  0  0
 17 15  2  0  0  0  0
 18 11  2  0  0  0  0
 18 17  1  0  0  0  0
 19 18  1  0  0  0  0
 20  5  1  0  0  0  0
 20 11  1  0  0  0  0
 21 20  1  0  0  0  0
 22 25  1  0  0  0  0
 22  5  1  0  0  0  0
 23 22  1  0  0  0  0
 24 22  1  0  0  0  0
 25 27  1  0  0  0  0
 25  6  1  0  0  0  0
 26 25  1  0  0  0  0
 28 30  1  0  0  0  0
 28  9  1  0  0  0  0
 29 28  1  0  0  0  0
 31 38  1  0  0  0  0
 31 40  1  0  0  0  0
 32 31  2  0  0  0  0
 33 35  2  0  0  0  0
 33 32  1  0  0  0  0
 34 33  1  0  0  0  0
 35 37  1  0  0  0  0
 36 35  1  0  0  0  0
 37  2  1  0  0  0  0
 37 38  2  0  0  0  0
 38 39  1  0  0  0  0
 40 41  1  0  0  0  0
 42 43  1  0  0  0  0
 42 44  1  0  0  0  0
 45 42  1  0  0  0  0
 45 47  1  0  0  0  0
 46 45  1  0  0  0  0
 48 28  1  0  0  0  0
 48 49  1  0  0  0  0
 50 48  1  0  0  0  0
M  CHG  2   3  -1   4  -1
M  END
