1,5,10,28,30
 OpenBabel05122313063D

 54 54  0  0  0  0  0  0  0  0999 V2000
    0.4078   -1.4643   -1.5410 O   0  5  0  0  0  0  0  0  0  0  0  0
    1.2585   -3.5604   -1.6607 O   0  0  0  0  0  0  0  0  0  0  0  0
    0.6431   -2.6616   -1.0924 C   0  0  0  0  0  0  0  0  0  0  0  0
    0.0276   -2.9493    0.3076 C   0  0  0  0  0  0  0  0  0  0  0  0
    0.0575   -1.7890    1.2184 N   0  0  0  0  0  0  0  0  0  0  0  0
   -1.1237   -1.6827    2.0785 C   0  0  0  0  0  0  0  0  0  0  0  0
   -2.3784   -1.2828    1.2848 C   0  0  0  0  0  0  0  0  0  0  0  0
    2.4722   -1.1844    1.0127 C   0  0  0  0  0  0  0  0  0  0  0  0
    1.3431   -1.6861    1.9206 C   0  0  0  0  0  0  0  0  0  0  0  0
   -2.1810   -0.1246    0.3874 N   0  0  0  0  0  0  0  0  0  0  0  0
   -2.8314   -0.2869   -0.9200 C   0  0  0  0  0  0  0  0  0  0  0  0
   -4.3472   -0.3641   -0.8584 C   0  0  0  0  0  0  0  0  0  0  0  0
   -5.0168   -0.2898    0.1581 O   0  0  0  0  0  0  0  0  0  0  0  0
   -4.8777   -0.5272   -2.0880 O   0  0  0  0  0  0  0  0  0  0  0  0
   -1.0269   -3.2415    0.1291 H   0  0  0  0  0  0  0  0  0  0  0  0
    0.5391   -3.8295    0.7559 H   0  0  0  0  0  0  0  0  0  0  0  0
   -1.3422   -2.6358    2.6188 H   0  0  0  0  0  0  0  0  0  0  0  0
   -0.9044   -0.9292    2.8600 H   0  0  0  0  0  0  0  0  0  0  0  0
   -2.6907   -2.1411    0.6582 H   0  0  0  0  0  0  0  0  0  0  0  0
   -3.2205   -1.1056    1.9878 H   0  0  0  0  0  0  0  0  0  0  0  0
    3.4182   -1.1401    1.5951 H   0  0  0  0  0  0  0  0  0  0  0  0
    2.6377   -1.9195    0.2007 H   0  0  0  0  0  0  0  0  0  0  0  0
    1.6533   -2.6722    2.3425 H   0  0  0  0  0  0  0  0  0  0  0  0
    1.2142   -1.0055    2.7850 H   0  0  0  0  0  0  0  0  0  0  0  0
   -2.5163    0.5486   -1.5832 H   0  0  0  0  0  0  0  0  0  0  0  0
   -2.4304   -1.1931   -1.4222 H   0  0  0  0  0  0  0  0  0  0  0  0
   -5.8519   -0.5533   -1.9635 H   0  0  0  0  0  0  0  0  0  0  0  0
   -0.4077    1.4643   -1.5410 O   0  5  0  0  0  0  0  0  0  0  0  0
   -0.0575    1.7890    1.2184 N   0  0  0  0  0  0  0  0  0  0  0  0
    2.1810    0.1246    0.3874 N   0  0  0  0  0  0  0  0  0  0  0  0
   -2.4722    1.1844    1.0127 C   0  0  0  0  0  0  0  0  0  0  0  0
   -0.6430    2.6616   -1.0924 C   0  0  0  0  0  0  0  0  0  0  0  0
   -0.0276    2.9493    0.3076 C   0  0  0  0  0  0  0  0  0  0  0  0
    1.1237    1.6827    2.0785 C   0  0  0  0  0  0  0  0  0  0  0  0
   -1.3431    1.6860    1.9206 C   0  0  0  0  0  0  0  0  0  0  0  0
    2.3784    1.2828    1.2848 C   0  0  0  0  0  0  0  0  0  0  0  0
    2.8314    0.2869   -0.9200 C   0  0  0  0  0  0  0  0  0  0  0  0
   -3.4182    1.1401    1.5951 H   0  0  0  0  0  0  0  0  0  0  0  0
   -2.6377    1.9195    0.2007 H   0  0  0  0  0  0  0  0  0  0  0  0
   -1.2584    3.5604   -1.6607 O   0  0  0  0  0  0  0  0  0  0  0  0
    1.0269    3.2415    0.1291 H   0  0  0  0  0  0  0  0  0  0  0  0
   -0.5392    3.8295    0.7559 H   0  0  0  0  0  0  0  0  0  0  0  0
    1.3422    2.6358    2.6188 H   0  0  0  0  0  0  0  0  0  0  0  0
    0.9044    0.9292    2.8600 H   0  0  0  0  0  0  0  0  0  0  0  0
   -1.6533    2.6722    2.3425 H   0  0  0  0  0  0  0  0  0  0  0  0
   -1.2142    1.0055    2.7849 H   0  0  0  0  0  0  0  0  0  0  0  0
    2.6907    2.1411    0.6582 H   0  0  0  0  0  0  0  0  0  0  0  0
    3.2205    1.1056    1.9878 H   0  0  0  0  0  0  0  0  0  0  0  0
    4.3472    0.3642   -0.8584 C   0  0  0  0  0  0  0  0  0  0  0  0
    2.5163   -0.5486   -1.5832 H   0  0  0  0  0  0  0  0  0  0  0  0
    2.4304    1.1931   -1.4222 H   0  0  0  0  0  0  0  0  0  0  0  0
    5.0168    0.2899    0.1581 O   0  0  0  0  0  0  0  0  0  0  0  0
    4.8777    0.5273   -2.0880 O   0  0  0  0  0  0  0  0  0  0  0  0
    5.8519    0.5534   -1.9635 H   0  0  0  0  0  0  0  0  0  0  0  0
  1  3  1  0  0  0  0
  2  3  2  0  0  0  0
  3  4  1  0  0  0  0
  4 16  1  0  0  0  0
  4  5  1  0  0  0  0
  5  9  1  0  0  0  0
  5  6  1  0  0  0  0
  6 17  1  0  0  0  0
  6 18  1  0  0  0  0
  7 20  1  0  0  0  0
  7  6  1  0  0  0  0
  8 21  1  0  0  0  0
  8  9  1  0  0  0  0
  9 23  1  0  0  0  0
  9 24  1  0  0  0  0
 10 31  1  0  0  0  0
 10  7  1  0  0  0  0
 11 12  1  0  0  0  0
 11 10  1  0  0  0  0
 12 13  2  0  0  0  0
 14 27  1  0  0  0  0
 14 12  1  0  0  0  0
 15  4  1  0  0  0  0
 19  7  1  0  0  0  0
 22  8  1  0  0  0  0
 25 11  1  0  0  0  0
 26 11  1  0  0  0  0
 28 32  1  0  0  0  0
 29 35  1  0  0  0  0
 29 34  1  0  0  0  0
 30  8  1  0  0  0  0
 30 36  1  0  0  0  0
 31 38  1  0  0  0  0
 31 35  1  0  0  0  0
 32 33  1  0  0  0  0
 33 42  1  0  0  0  0
 33 29  1  0  0  0  0
 34 43  1  0  0  0  0
 34 44  1  0  0  0  0
 35 45  1  0  0  0  0
 35 46  1  0  0  0  0
 36 48  1  0  0  0  0
 36 34  1  0  0  0  0
 37 49  1  0  0  0  0
 37 30  1  0  0  0  0
 39 31  1  0  0  0  0
 40 32  2  0  0  0  0
 41 33  1  0  0  0  0
 47 36  1  0  0  0  0
 49 52  2  0  0  0  0
 50 37  1  0  0  0  0
 51 37  1  0  0  0  0
 53 54  1  0  0  0  0
 53 49  1  0  0  0  0
M  CHG  2   1  -1  28  -1
M  END
