1,3,5,6,7,8
 OpenBabel05122313063D

 40 39  0  0  0  0  0  0  0  0999 V2000
   -0.7200    1.7463   -0.3692 O   0  5  0  0  0  0  0  0  0  0  0  0
   -2.9161    2.2807   -0.4642 O   0  0  0  0  0  0  0  0  0  0  0  0
   -0.4056   -0.7934   -1.2107 O   0  5  0  0  0  0  0  0  0  0  0  0
   -2.4369   -1.4807   -1.9277 O   0  0  0  0  0  0  0  0  0  0  0  0
    1.0720    1.5490    1.5262 N   0  0  0  0  0  0  0  0  0  0  0  0
    1.7789    0.7951   -1.0033 N   0  0  0  0  0  0  0  0  0  0  0  0
    1.2757   -1.3172    0.9565 N   0  0  0  0  0  0  0  0  0  0  0  0
   -1.2775   -0.3231    1.1350 N   0  0  0  0  0  0  0  0  0  0  0  0
   -3.6239   -0.3102    0.3442 N   0  0  0  0  0  0  0  0  0  0  0  0
    1.9403    2.4742    0.7391 C   0  0  0  0  0  0  0  0  0  0  0  0
    2.7370    1.6372   -0.2489 C   0  0  0  0  0  0  0  0  0  0  0  0
    2.3753   -0.3205   -1.7866 C   0  0  0  0  0  0  0  0  0  0  0  0
    2.8725   -1.4913   -0.9337 C   0  0  0  0  0  0  0  0  0  0  0  0
    1.8098   -2.2139   -0.1047 C   0  0  0  0  0  0  0  0  0  0  0  0
    0.3379   -1.9522    1.9404 C   0  0  0  0  0  0  0  0  0  0  0  0
   -1.1055   -1.7561    1.4955 C   0  0  0  0  0  0  0  0  0  0  0  0
   -2.0141    1.4817   -0.3027 C   0  0  0  0  0  0  0  0  0  0  0  0
   -2.2922   -0.0226    0.0178 C   0  0  0  0  0  0  0  0  0  0  0  0
   -1.7229   -0.8494   -1.1711 C   0  0  0  0  0  0  0  0  0  0  0  0
    1.5968    1.1583    2.3251 H   0  0  0  0  0  0  0  0  0  0  0  0
    0.2905    2.0893    1.9279 H   0  0  0  0  0  0  0  0  0  0  0  0
    1.2454    1.3981   -1.6518 H   0  0  0  0  0  0  0  0  0  0  0  0
    2.0970   -0.9987    1.4922 H   0  0  0  0  0  0  0  0  0  0  0  0
   -1.5612    0.2163    1.9687 H   0  0  0  0  0  0  0  0  0  0  0  0
   -4.0042   -1.0081   -0.3114 H   0  0  0  0  0  0  0  0  0  0  0  0
   -4.1903    0.5493    0.2931 H   0  0  0  0  0  0  0  0  0  0  0  0
    1.2610    3.1609    0.1973 H   0  0  0  0  0  0  0  0  0  0  0  0
    2.6015    3.0802    1.3916 H   0  0  0  0  0  0  0  0  0  0  0  0
    3.3410    2.2778   -0.9262 H   0  0  0  0  0  0  0  0  0  0  0  0
    3.4480    0.9708    0.2829 H   0  0  0  0  0  0  0  0  0  0  0  0
    1.5814   -0.6717   -2.4714 H   0  0  0  0  0  0  0  0  0  0  0  0
    3.2129    0.0758   -2.4004 H   0  0  0  0  0  0  0  0  0  0  0  0
    3.3205   -2.2307   -1.6278 H   0  0  0  0  0  0  0  0  0  0  0  0
    3.7131   -1.1769   -0.2736 H   0  0  0  0  0  0  0  0  0  0  0  0
    0.9615   -2.5286   -0.7410 H   0  0  0  0  0  0  0  0  0  0  0  0
    2.2518   -3.1160    0.3714 H   0  0  0  0  0  0  0  0  0  0  0  0
    0.5029   -1.4558    2.9194 H   0  0  0  0  0  0  0  0  0  0  0  0
    0.5774   -3.0281    2.0761 H   0  0  0  0  0  0  0  0  0  0  0  0
   -1.8202   -2.0620    2.2849 H   0  0  0  0  0  0  0  0  0  0  0  0
   -1.3322   -2.3702    0.6026 H   0  0  0  0  0  0  0  0  0  0  0  0
  1 17  1  0  0  0  0
  2 17  2  0  0  0  0
  3 19  1  0  0  0  0
  4 19  2  0  0  0  0
  5 21  1  0  0  0  0
  5 20  1  0  0  0  0
  6 11  1  0  0  0  0
  7 23  1  0  0  0  0
  7 15  1  0  0  0  0
  8 16  1  0  0  0  0
  8 24  1  0  0  0  0
 10 28  1  0  0  0  0
 10  5  1  0  0  0  0
 11 30  1  0  0  0  0
 11 10  1  0  0  0  0
 12  6  1  0  0  0  0
 12 13  1  0  0  0  0
 13 34  1  0  0  0  0
 13 14  1  0  0  0  0
 14 36  1  0  0  0  0
 14  7  1  0  0  0  0
 15 38  1  0  0  0  0
 15 37  1  0  0  0  0
 16 15  1  0  0  0  0
 16 39  1  0  0  0  0
 17 18  1  0  0  0  0
 18  9  1  0  0  0  0
 18  8  1  0  0  0  0
 19 18  1  0  0  0  0
 22  6  1  0  0  0  0
 25  9  1  0  0  0  0
 26  9  1  0  0  0  0
 27 10  1  0  0  0  0
 29 11  1  0  0  0  0
 31 12  1  0  0  0  0
 32 12  1  0  0  0  0
 33 13  1  0  0  0  0
 35 14  1  0  0  0  0
 40 16  1  0  0  0  0
M  CHG  2   1  -1   3  -1
M  END
