1,8,23,27,34,49
 OpenBabel05122313063D

 52 52  0  0  0  0  0  0  0  0999 V2000
   -1.3436   -1.1975   -1.2371 N   0  0  0  0  0  0  0  0  0  0  0  0
   -1.3033   -0.4447   -2.5114 C   0  0  0  0  0  0  0  0  0  0  0  0
   -2.0889   -0.8153   -3.2128 H   0  0  0  0  0  0  0  0  0  0  0  0
   -0.3130   -0.6469   -2.9666 H   0  0  0  0  0  0  0  0  0  0  0  0
   -1.4691    1.0665   -2.3116 C   0  0  0  0  0  0  0  0  0  0  0  0
   -1.4311    1.5647   -3.3080 H   0  0  0  0  0  0  0  0  0  0  0  0
   -2.4537    1.3025   -1.8544 H   0  0  0  0  0  0  0  0  0  0  0  0
   -0.4278    1.5687   -1.4002 N   0  0  0  0  0  0  0  0  0  0  0  0
    0.4905    1.5379   -1.8700 H   0  0  0  0  0  0  0  0  0  0  0  0
   -0.6770    2.8818   -0.7913 C   0  0  0  0  0  0  0  0  0  0  0  0
   -1.6248    2.7997   -0.2180 H   0  0  0  0  0  0  0  0  0  0  0  0
   -0.8387    3.6594   -1.5763 H   0  0  0  0  0  0  0  0  0  0  0  0
    0.4819    3.3350    0.1055 C   0  0  0  0  0  0  0  0  0  0  0  0
    0.2596    4.3762    0.4187 H   0  0  0  0  0  0  0  0  0  0  0  0
    1.4132    3.4167   -0.4994 H   0  0  0  0  0  0  0  0  0  0  0  0
   -0.7447   -2.5483   -1.3989 C   0  0  0  0  0  0  0  0  0  0  0  0
   -1.3950   -3.1639   -2.0671 H   0  0  0  0  0  0  0  0  0  0  0  0
    0.2235   -2.3910   -1.9158 H   0  0  0  0  0  0  0  0  0  0  0  0
   -2.6866   -1.2046   -0.6220 C   0  0  0  0  0  0  0  0  0  0  0  0
   -2.7953   -2.1093    0.0057 H   0  0  0  0  0  0  0  0  0  0  0  0
   -3.4925   -1.2403   -1.3903 H   0  0  0  0  0  0  0  0  0  0  0  0
   -2.9832    0.2123    0.5657 P   0  0  2  0  0  0  0  0  0  0  0  0
   -1.6274    0.3364    1.3257 O   0  0  0  0  0  1  0  0  0  0  0  0
   -4.0720   -0.5178    1.5842 O   0  0  0  0  0  0  0  0  0  0  0  0
   -4.8502    0.0726    1.6115 H   0  0  0  0  0  0  0  0  0  0  0  0
   -3.6139    1.4422   -0.0684 O   0  0  0  0  0  0  0  0  0  0  0  0
    1.3436    1.1975    1.2371 N   0  0  0  0  0  0  0  0  0  0  0  0
    1.3034    0.4446    2.5114 C   0  0  0  0  0  0  0  0  0  0  0  0
    2.0889    0.8153    3.2127 H   0  0  0  0  0  0  0  0  0  0  0  0
    0.3130    0.6469    2.9666 H   0  0  0  0  0  0  0  0  0  0  0  0
    1.4691   -1.0665    2.3116 C   0  0  0  0  0  0  0  0  0  0  0  0
    1.4312   -1.5647    3.3080 H   0  0  0  0  0  0  0  0  0  0  0  0
    2.4538   -1.3026    1.8544 H   0  0  0  0  0  0  0  0  0  0  0  0
    0.4279   -1.5687    1.4003 N   0  0  0  0  0  0  0  0  0  0  0  0
   -0.4905   -1.5379    1.8701 H   0  0  0  0  0  0  0  0  0  0  0  0
    0.6770   -2.8819    0.7913 C   0  0  0  0  0  0  0  0  0  0  0  0
    1.6247   -2.7997    0.2180 H   0  0  0  0  0  0  0  0  0  0  0  0
    0.8387   -3.6594    1.5763 H   0  0  0  0  0  0  0  0  0  0  0  0
   -0.4820   -3.3350   -0.1055 C   0  0  0  0  0  0  0  0  0  0  0  0
   -0.2597   -4.3762   -0.4186 H   0  0  0  0  0  0  0  0  0  0  0  0
   -1.4132   -3.4166    0.4995 H   0  0  0  0  0  0  0  0  0  0  0  0
    0.7446    2.5483    1.3989 C   0  0  0  0  0  0  0  0  0  0  0  0
    1.3949    3.1639    2.0672 H   0  0  0  0  0  0  0  0  0  0  0  0
   -0.2236    2.3909    1.9158 H   0  0  0  0  0  0  0  0  0  0  0  0
    2.6866    1.2046    0.6219 C   0  0  0  0  0  0  0  0  0  0  0  0
    2.7952    2.1094   -0.0058 H   0  0  0  0  0  0  0  0  0  0  0  0
    3.4925    1.2404    1.3903 H   0  0  0  0  0  0  0  0  0  0  0  0
    2.9832   -0.2123   -0.5657 P   0  0  1  0  0  0  0  0  0  0  0  0
    1.6273   -0.3366   -1.3256 O   0  0  0  0  0  1  0  0  0  0  0  0
    4.0717    0.5179   -1.5845 O   0  0  0  0  0  0  0  0  0  0  0  0
    4.8503   -0.0721   -1.6114 H   0  0  0  0  0  0  0  0  0  0  0  0
    3.6143   -1.4420    0.0684 O   0  0  0  0  0  0  0  0  0  0  0  0
  1 19  1  0  0  0  0
  2  5  1  0  0  0  0
  2  1  1  0  0  0  0
  3  2  1  0  0  0  0
  4  2  1  0  0  0  0
  5  7  1  0  0  0  0
  5  8  1  0  0  0  0
  6  5  1  0  0  0  0
  8 10  1  0  0  0  0
  9  8  1  0  0  0  0
 10 11  1  0  0  0  0
 10 13  1  0  0  0  0
 12 10  1  0  0  0  0
 13 14  1  0  0  0  0
 13 42  1  0  0  0  0
 15 13  1  0  0  0  0
 16  1  1  0  0  0  0
 16 39  1  0  0  0  0
 17 16  1  0  0  0  0
 18 16  1  0  0  0  0
 19 20  1  0  0  0  0
 19 22  1  0  0  0  0
 21 19  1  0  0  0  0
 22 26  2  6  0  0  0
 22 23  1  0  0  0  0
 22 24  1  0  0  0  0
 24 25  1  0  0  0  0
 27 42  1  0  0  0  0
 27 28  1  0  0  0  0
 28 30  1  0  0  0  0
 28 29  1  0  0  0  0
 31 28  1  0  0  0  0
 31 32  1  0  0  0  0
 33 31  1  0  0  0  0
 34 35  1  0  0  0  0
 34 31  1  0  0  0  0
 36 34  1  0  0  0  0
 36 38  1  0  0  0  0
 37 36  1  0  0  0  0
 39 41  1  0  0  0  0
 39 36  1  0  0  0  0
 40 39  1  0  0  0  0
 42 44  1  0  0  0  0
 42 43  1  0  0  0  0
 45 27  1  0  0  0  0
 45 47  1  0  0  0  0
 46 45  1  0  0  0  0
 48 49  1  6  0  0  0
 48 52  2  0  0  0  0
 48 45  1  0  0  0  0
 50 48  1  0  0  0  0
 51 50  1  0  0  0  0
M  END
