1,4,5,33,36,57
 OpenBabel05122313063D

 64 65  0  0  0  0  0  0  0  0999 V2000
    1.8512    0.6453    0.4103 O   0  5  0  0  0  0  0  0  0  0  0  0
    4.3886    0.8797   -0.2209 O   0  0  0  0  0  0  0  0  0  0  0  0
    2.6091   -0.3994    0.6408 C   0  0  0  0  0  0  0  0  0  0  0  0
   -0.3355    1.9362    1.3457 N   0  0  0  0  0  0  0  0  0  0  0  0
   -0.2043   -0.8533    1.3691 N   0  0  0  0  0  2  0  0  0  0  0  0
    0.7662   -1.6757    1.6783 C   0  0  0  0  0  3  0  0  0  0  0  0
    0.5407   -2.4566    2.4330 H   0  0  0  0  0  0  0  0  0  0  0  0
    2.1216   -1.6215    1.2042 C   0  0  0  0  0  0  0  0  0  0  0  0
    4.0111   -0.3077    0.3281 C   0  0  0  0  0  0  0  0  0  0  0  0
    4.8548   -1.3983    0.5646 C   0  0  0  0  0  0  0  0  0  0  0  0
    5.9217   -1.3331    0.3115 H   0  0  0  0  0  0  0  0  0  0  0  0
    4.3532   -2.5986    1.1247 C   0  0  0  0  0  0  0  0  0  0  0  0
    5.0408   -3.4372    1.3032 H   0  0  0  0  0  0  0  0  0  0  0  0
    3.0092   -2.7078    1.4510 C   0  0  0  0  0  0  0  0  0  0  0  0
    2.6141   -3.6303    1.9025 H   0  0  0  0  0  0  0  0  0  0  0  0
    5.7615    1.0600   -0.5360 C   0  0  0  0  0  0  0  0  0  0  0  0
    6.4030    0.9697    0.3677 H   0  0  0  0  0  0  0  0  0  0  0  0
    5.8567    2.0818   -0.9462 H   0  0  0  0  0  0  0  0  0  0  0  0
    6.1099    0.3279   -1.2982 H   0  0  0  0  0  0  0  0  0  0  0  0
   -1.3769   -0.8183    2.2405 C   0  0  0  0  0  0  0  0  0  0  0  0
   -1.3785   -1.7175    2.8921 H   0  0  0  0  0  0  0  0  0  0  0  0
   -2.3017   -0.8442    1.6333 H   0  0  0  0  0  0  0  0  0  0  0  0
   -1.3468    0.4485    3.1030 C   0  0  0  0  0  0  0  0  0  0  0  0
   -0.4239    0.4519    3.7238 H   0  0  0  0  0  0  0  0  0  0  0  0
   -2.2015    0.4192    3.8093 H   0  0  0  0  0  0  0  0  0  0  0  0
   -1.4598    1.7326    2.2906 C   0  0  0  0  0  0  0  0  0  0  0  0
   -2.3827    1.7054    1.6768 H   0  0  0  0  0  0  0  0  0  0  0  0
   -1.5201    2.6117    2.9698 H   0  0  0  0  0  0  0  0  0  0  0  0
   -0.5059    3.1810    0.5632 C   0  0  0  0  0  0  0  0  0  0  0  0
   -0.4019    4.0830    1.2041 H   0  0  0  0  0  0  0  0  0  0  0  0
   -1.5388    3.1665    0.1597 H   0  0  0  0  0  0  0  0  0  0  0  0
    0.5662    1.9622    1.8507 H   0  0  0  0  0  0  0  0  0  0  0  0
   -1.8513    0.6453   -0.4104 O   0  5  0  0  0  0  0  0  0  0  0  0
   -4.3887    0.8797    0.2207 O   0  0  0  0  0  0  0  0  0  0  0  0
   -2.6092   -0.3994   -0.6408 C   0  0  0  0  0  0  0  0  0  0  0  0
    0.2044   -0.8534   -1.3690 N   0  0  0  0  0  2  0  0  0  0  0  0
   -0.7662   -1.6758   -1.6781 C   0  0  0  0  0  3  0  0  0  0  0  0
   -0.5406   -2.4568   -2.4327 H   0  0  0  0  0  0  0  0  0  0  0  0
   -2.1215   -1.6216   -1.2041 C   0  0  0  0  0  0  0  0  0  0  0  0
   -4.0111   -0.3077   -0.3282 C   0  0  0  0  0  0  0  0  0  0  0  0
   -4.8548   -1.3984   -0.5647 C   0  0  0  0  0  0  0  0  0  0  0  0
   -5.9217   -1.3332   -0.3116 H   0  0  0  0  0  0  0  0  0  0  0  0
   -4.3532   -2.5987   -1.1246 C   0  0  0  0  0  0  0  0  0  0  0  0
   -5.0407   -3.4374   -1.3031 H   0  0  0  0  0  0  0  0  0  0  0  0
   -3.0092   -2.7079   -1.4509 C   0  0  0  0  0  0  0  0  0  0  0  0
   -2.6141   -3.6305   -1.9022 H   0  0  0  0  0  0  0  0  0  0  0  0
   -5.7616    1.0600    0.5357 C   0  0  0  0  0  0  0  0  0  0  0  0
   -6.4030    0.9697   -0.3680 H   0  0  0  0  0  0  0  0  0  0  0  0
   -5.8568    2.0818    0.9458 H   0  0  0  0  0  0  0  0  0  0  0  0
   -6.1100    0.3280    1.2980 H   0  0  0  0  0  0  0  0  0  0  0  0
    1.3770   -0.8185   -2.2404 C   0  0  0  0  0  0  0  0  0  0  0  0
    1.3786   -1.7177   -2.8918 H   0  0  0  0  0  0  0  0  0  0  0  0
    2.3017   -0.8443   -1.6330 H   0  0  0  0  0  0  0  0  0  0  0  0
    1.3469    0.4482   -3.1029 C   0  0  0  0  0  0  0  0  0  0  0  0
    0.4240    0.4516   -3.7238 H   0  0  0  0  0  0  0  0  0  0  0  0
    2.2016    0.4189   -3.8092 H   0  0  0  0  0  0  0  0  0  0  0  0
    0.3355    1.9361   -1.3458 N   0  0  0  0  0  0  0  0  0  0  0  0
    1.4598    1.7324   -2.2906 C   0  0  0  0  0  0  0  0  0  0  0  0
    2.3827    1.7053   -1.6768 H   0  0  0  0  0  0  0  0  0  0  0  0
    1.5202    2.6115   -2.9699 H   0  0  0  0  0  0  0  0  0  0  0  0
    0.5058    3.1810   -0.5634 C   0  0  0  0  0  0  0  0  0  0  0  0
    0.4019    4.0829   -1.2044 H   0  0  0  0  0  0  0  0  0  0  0  0
    1.5388    3.1665   -0.1599 H   0  0  0  0  0  0  0  0  0  0  0  0
   -0.5662    1.9620   -1.8508 H   0  0  0  0  0  0  0  0  0  0  0  0
  1  3  1  0  0  0  0
  2  9  1  0  0  0  0
  3  8  1  0  0  0  0
  4 32  1  0  0  0  0
  4 26  1  0  0  0  0
  5  6  1  0  0  0  0
  5 20  1  0  0  0  0
  6  7  1  0  0  0  0
  8 14  2  0  0  0  0
  8  6  1  0  0  0  0
  9 10  1  0  0  0  0
  9  3  2  0  0  0  0
 10 12  2  0  0  0  0
 11 10  1  0  0  0  0
 12 13  1  0  0  0  0
 12 14  1  0  0  0  0
 14 15  1  0  0  0  0
 16  2  1  0  0  0  0
 16 17  1  0  0  0  0
 18 16  1  0  0  0  0
 19 16  1  0  0  0  0
 20 21  1  0  0  0  0
 20 23  1  0  0  0  0
 22 20  1  0  0  0  0
 23 24  1  0  0  0  0
 23 25  1  0  0  0  0
 26 28  1  0  0  0  0
 26 23  1  0  0  0  0
 27 26  1  0  0  0  0
 29 30  1  0  0  0  0
 29  4  1  0  0  0  0
 31 29  1  0  0  0  0
 34 47  1  0  0  0  0
 35 33  1  0  0  0  0
 35 40  1  0  0  0  0
 37 36  1  0  0  0  0
 37 39  1  0  0  0  0
 38 37  1  0  0  0  0
 39 35  2  0  0  0  0
 40 34  1  0  0  0  0
 41 40  2  0  0  0  0
 41 42  1  0  0  0  0
 43 41  1  0  0  0  0
 44 43  1  0  0  0  0
 45 39  1  0  0  0  0
 45 43  2  0  0  0  0
 46 45  1  0  0  0  0
 47 49  1  0  0  0  0
 47 50  1  0  0  0  0
 48 47  1  0  0  0  0
 51 53  1  0  0  0  0
 51 36  1  0  0  0  0
 52 51  1  0  0  0  0
 54 58  1  0  0  0  0
 54 51  1  0  0  0  0
 55 54  1  0  0  0  0
 56 54  1  0  0  0  0
 57 61  1  0  0  0  0
 58 59  1  0  0  0  0
 58 57  1  0  0  0  0
 60 58  1  0  0  0  0
 61 63  1  0  0  0  0
 61 29  1  0  0  0  0
 62 61  1  0  0  0  0
 64 57  1  0  0  0  0
M  CHG  2   1  -1  33  -1
M  END
