2,3,5,6,7,32
 OpenBabel05122313063D

 45 47  0  0  1  0  0  0  0  0999 V2000
   -1.4082   -2.1756   -0.7824 P   0  0  0  0  0  0  0  0  0  0  0  0
   -0.3684   -1.2110   -1.6047 O   0  0  0  0  0  1  0  0  0  0  0  0
   -0.7849   -1.8417    0.6813 O   0  0  0  0  0  1  0  0  0  0  0  0
   -1.5608   -3.6037   -1.1933 O   0  0  0  0  0  0  0  0  0  0  0  0
    0.3035    0.7134    1.7041 N   0  0  0  0  0  0  0  0  0  0  0  0
    1.7713   -0.9535    0.1919 N   0  0  0  0  0  2  0  0  0  0  0  0
    0.7290    1.2929   -0.8643 N   0  0  0  0  0  2  0  0  0  0  0  0
    1.4179    0.0014    2.3757 C   0  0  0  0  0  0  0  0  0  0  0  0
    2.3550   -0.6298    1.3725 C   0  0  1  0  0  3  0  0  0  0  0  0
    3.6837   -0.9823    1.6393 C   0  0  0  0  0  0  0  0  0  0  0  0
    4.3985   -1.7089    0.6738 C   0  0  0  0  0  0  0  0  0  0  0  0
    3.7609   -2.0685   -0.5244 C   0  0  0  0  0  0  0  0  0  0  0  0
    2.4371   -1.6671   -0.7348 C   0  0  0  0  0  0  0  0  0  0  0  0
    0.5893    2.1402    1.3826 C   0  0  0  0  0  0  0  0  0  0  0  0
    1.0611    2.3130   -0.0392 C   0  0  2  0  0  3  0  0  0  0  0  0
    1.7101    3.4529   -0.5310 C   0  0  0  0  0  0  0  0  0  0  0  0
    1.9858    3.5358   -1.9044 C   0  0  0  0  0  0  0  0  0  0  0  0
    1.6043    2.4779   -2.7458 C   0  0  0  0  0  0  0  0  0  0  0  0
    0.9785    1.3587   -2.1870 C   0  0  0  0  0  0  0  0  0  0  0  0
    0.9581   -0.8261    2.9565 H   0  0  0  0  0  0  0  0  0  0  0  0
    1.9578    0.6554    3.0947 H   0  0  0  0  0  0  0  0  0  0  0  0
    4.1452   -0.7038    2.5982 H   0  0  0  0  0  0  0  0  0  0  0  0
    5.4423   -2.0011    0.8617 H   0  0  0  0  0  0  0  0  0  0  0  0
    4.2819   -2.6551   -1.2943 H   0  0  0  0  0  0  0  0  0  0  0  0
    1.8437   -1.9084   -1.6330 H   0  0  0  0  0  0  0  0  0  0  0  0
   -0.3713    2.6903    1.4865 H   0  0  0  0  0  0  0  0  0  0  0  0
    1.9840    4.2687    0.1541 H   0  0  0  0  0  0  0  0  0  0  0  0
    2.4906    4.4227   -2.3150 H   0  0  0  0  0  0  0  0  0  0  0  0
    1.7919    2.5133   -3.8282 H   0  0  0  0  0  0  0  0  0  0  0  0
    0.6429    0.4779   -2.7599 H   0  0  0  0  0  0  0  0  0  0  0  0
   -2.8422   -1.3479   -0.8674 O   0  0  0  0  0  0  0  0  0  0  0  0
   -1.7311    0.5444    0.0936 N   0  0  0  0  0  2  0  0  0  0  0  0
   -1.0216    0.5578    2.3867 C   0  0  0  0  0  0  0  0  0  0  0  0
   -2.1097    0.8146    1.3785 C   0  0  0  0  0  0  0  0  0  0  0  0
   -3.3938    1.2095    1.7039 C   0  0  0  0  0  0  0  0  0  0  0  0
   -4.3592    1.2187    0.6377 C   0  0  0  0  0  0  0  0  0  0  0  0
   -4.0416    0.7515   -0.6072 C   0  0  0  0  0  0  0  0  0  0  0  0
   -2.7055    0.1281   -0.8775 C   0  0  2  0  0  0  0  0  0  0  0  0
   -1.0833   -0.5116    2.6756 H   0  0  0  0  0  0  0  0  0  0  0  0
   -1.0955    1.1984    3.2936 H   0  0  0  0  0  0  0  0  0  0  0  0
   -3.6556    1.4932    2.7320 H   0  0  0  0  0  0  0  0  0  0  0  0
   -5.3681    1.6183    0.8295 H   0  0  0  0  0  0  0  0  0  0  0  0
   -4.7778    0.7444   -1.4244 H   0  0  0  0  0  0  0  0  0  0  0  0
   -2.3234    0.3724   -1.8924 H   0  0  0  0  0  0  0  0  0  0  0  0
    1.3037    2.5811    2.1101 H   0  0  0  0  0  0  0  0  0  0  0  0
  1  3  1  0  0  0  0
  2  1  1  0  0  0  0
  4  1  2  0  0  0  0
  5  8  1  0  0  0  0
  5 33  1  0  0  0  0
  6  9  1  0  0  0  0
  7 15  1  0  0  0  0
  8 20  1  0  0  0  0
  8 21  1  0  0  0  0
  9 10  1  0  0  0  0
  9  8  1  1  0  0  0
 10 22  1  0  0  0  0
 11 23  1  0  0  0  0
 11 10  2  0  0  0  0
 12 11  1  0  0  0  0
 13 12  2  0  0  0  0
 13  6  1  0  0  0  0
 14 26  1  0  0  0  0
 14  5  1  0  0  0  0
 14 45  1  0  0  0  0
 15 14  1  6  0  0  0
 16 15  1  0  0  0  0
 16 27  1  0  0  0  0
 17 16  2  0  0  0  0
 18 19  2  0  0  0  0
 18 17  1  0  0  0  0
 19  7  1  0  0  0  0
 24 12  1  0  0  0  0
 25 13  1  0  0  0  0
 28 17  1  0  0  0  0
 29 18  1  0  0  0  0
 30 19  1  0  0  0  0
 31  1  1  0  0  0  0
 32 34  1  0  0  0  0
 33 39  1  0  0  0  0
 33 40  1  0  0  0  0
 34 35  2  0  0  0  0
 34 33  1  0  0  0  0
 35 41  1  0  0  0  0
 36 42  1  0  0  0  0
 36 35  1  0  0  0  0
 37 36  2  0  0  0  0
 38 44  1  6  0  0  0
 38 31  1  0  0  0  0
 38 37  1  0  0  0  0
 38 32  1  0  0  0  0
 43 37  1  0  0  0  0
M  END
