1,2,3,29,30,31
 OpenBabel05122313063D

 56 58  0  0  1  0  0  0  0  0999 V2000
   -1.6196   -1.5265   -0.1171 N   0  0  0  0  0  2  0  0  0  0  0  0
    0.9447   -1.3937    0.0113 N   0  0  0  0  0  0  0  0  0  0  0  0
   -0.4450   -0.0780    1.9017 O   0  5  0  0  0  0  0  0  0  0  0  0
    0.5054   -1.1653    3.6275 O   0  0  0  0  0  0  0  0  0  0  0  0
   -2.8850   -1.6300    0.3318 C   0  0  0  0  0  3  0  0  0  0  0  0
   -3.2867   -0.7600    0.8707 H   0  0  0  0  0  0  0  0  0  0  0  0
   -3.6371   -2.7945    0.1432 C   0  0  0  0  0  0  0  0  0  0  0  0
   -4.6693   -2.8421    0.5171 H   0  0  0  0  0  0  0  0  0  0  0  0
   -3.0450   -3.8840   -0.5109 C   0  0  0  0  0  0  0  0  0  0  0  0
   -3.6118   -4.8117   -0.6779 H   0  0  0  0  0  0  0  0  0  0  0  0
   -1.7044   -3.7914   -0.9148 C   0  0  0  0  0  0  0  0  0  0  0  0
   -1.1915   -4.6444   -1.3819 H   0  0  0  0  0  0  0  0  0  0  0  0
   -1.0083   -2.5982   -0.6951 C   0  0  0  0  0  0  0  0  0  0  0  0
    0.4573   -2.3871   -0.9884 C   0  0  0  0  0  0  0  0  0  0  0  0
    1.0253   -3.3394   -0.9356 H   0  0  0  0  0  0  0  0  0  0  0  0
    0.5735   -1.9453   -1.9979 H   0  0  0  0  0  0  0  0  0  0  0  0
    0.9464   -1.9600    1.3962 C   0  0  0  0  0  0  0  0  0  0  0  0
    1.9612   -2.2476    1.7237 H   0  0  0  0  0  0  0  0  0  0  0  0
    0.3423   -2.8881    1.4024 H   0  0  0  0  0  0  0  0  0  0  0  0
    0.3160   -1.0127    2.4348 C   0  0  0  0  0  0  0  0  0  0  0  0
    2.2179   -0.6761   -0.3708 C   0  0  2  0  0  0  0  0  0  0  0  0
    2.1240   -0.4744   -1.4584 H   0  0  0  0  0  0  0  0  0  0  0  0
    3.5070   -1.4817   -0.1595 C   0  0  0  0  0  0  0  0  0  0  0  0
    3.4900   -2.3841   -0.8046 H   0  0  0  0  0  0  0  0  0  0  0  0
    3.5707   -1.8370    0.8896 H   0  0  0  0  0  0  0  0  0  0  0  0
    4.7482   -0.6256   -0.4418 C   0  0  0  0  0  0  0  0  0  0  0  0
    5.6587   -1.2316   -0.2648 H   0  0  0  0  0  0  0  0  0  0  0  0
    4.7725   -0.3289   -1.5133 H   0  0  0  0  0  0  0  0  0  0  0  0
   -1.6195    1.5266    0.1171 N   0  0  0  0  0  2  0  0  0  0  0  0
    0.9448    1.3936   -0.0112 N   0  0  0  0  0  0  0  0  0  0  0  0
   -0.4449    0.0779   -1.9016 O   0  5  0  0  0  0  0  0  0  0  0  0
    0.5054    1.1654   -3.6274 O   0  0  0  0  0  0  0  0  0  0  0  0
   -2.8849    1.6302   -0.3319 C   0  0  0  0  0  3  0  0  0  0  0  0
   -3.2865    0.7603   -0.8708 H   0  0  0  0  0  0  0  0  0  0  0  0
   -3.6369    2.7948   -0.1434 C   0  0  0  0  0  0  0  0  0  0  0  0
   -4.6690    2.8425   -0.5173 H   0  0  0  0  0  0  0  0  0  0  0  0
   -3.0447    3.8843    0.5108 C   0  0  0  0  0  0  0  0  0  0  0  0
   -3.6114    4.8120    0.6778 H   0  0  0  0  0  0  0  0  0  0  0  0
   -1.7041    3.7915    0.9148 C   0  0  0  0  0  0  0  0  0  0  0  0
   -1.1912    4.6445    1.3818 H   0  0  0  0  0  0  0  0  0  0  0  0
   -1.0081    2.5983    0.6951 C   0  0  0  0  0  0  0  0  0  0  0  0
    0.4575    2.3870    0.9885 C   0  0  0  0  0  0  0  0  0  0  0  0
    1.0256    3.3393    0.9357 H   0  0  0  0  0  0  0  0  0  0  0  0
    0.5736    1.9452    1.9980 H   0  0  0  0  0  0  0  0  0  0  0  0
    0.9466    1.9599   -1.3961 C   0  0  0  0  0  0  0  0  0  0  0  0
    1.9615    2.2473   -1.7235 H   0  0  0  0  0  0  0  0  0  0  0  0
    0.3426    2.8880   -1.4024 H   0  0  0  0  0  0  0  0  0  0  0  0
    0.3163    1.0126   -2.4347 C   0  0  0  0  0  0  0  0  0  0  0  0
    2.2180    0.6759    0.3709 C   0  0  2  0  0  0  0  0  0  0  0  0
    2.1242    0.4743    1.4585 H   0  0  0  0  0  0  0  0  0  0  0  0
    3.5071    1.4815    0.1594 C   0  0  0  0  0  0  0  0  0  0  0  0
    3.4902    2.3839    0.8045 H   0  0  0  0  0  0  0  0  0  0  0  0
    3.5706    1.8368   -0.8896 H   0  0  0  0  0  0  0  0  0  0  0  0
    4.7483    0.6254    0.4416 C   0  0  0  0  0  0  0  0  0  0  0  0
    5.6587    1.2313    0.2645 H   0  0  0  0  0  0  0  0  0  0  0  0
    4.7727    0.3286    1.5131 H   0  0  0  0  0  0  0  0  0  0  0  0
  1  5  1  0  0  0  0
  2 17  1  0  0  0  0
  3 20  1  0  0  0  0
  5  6  1  0  0  0  0
  7  5  1  0  0  0  0
  7  8  1  0  0  0  0
  9  7  2  0  0  0  0
 10  9  1  0  0  0  0
 11 13  2  0  0  0  0
 11  9  1  0  0  0  0
 12 11  1  0  0  0  0
 13  1  1  0  0  0  0
 14 15  1  0  0  0  0
 14 13  1  0  0  0  0
 14  2  1  0  0  0  0
 16 14  1  0  0  0  0
 17 19  1  0  0  0  0
 17 18  1  0  0  0  0
 17 20  1  0  0  0  0
 20  4  2  0  0  0  0
 21 22  1  6  0  0  0
 21 23  1  0  0  0  0
 21  2  1  0  0  0  0
 21 49  1  0  0  0  0
 23 25  1  0  0  0  0
 24 23  1  0  0  0  0
 26 27  1  0  0  0  0
 26 23  1  0  0  0  0
 26 54  1  0  0  0  0
 28 26  1  0  0  0  0
 29 41  1  0  0  0  0
 30 49  1  0  0  0  0
 30 42  1  0  0  0  0
 32 48  2  0  0  0  0
 33 35  1  0  0  0  0
 33 29  1  0  0  0  0
 34 33  1  0  0  0  0
 35 37  2  0  0  0  0
 36 35  1  0  0  0  0
 37 38  1  0  0  0  0
 37 39  1  0  0  0  0
 39 40  1  0  0  0  0
 41 39  2  0  0  0  0
 41 42  1  0  0  0  0
 42 44  1  0  0  0  0
 43 42  1  0  0  0  0
 45 30  1  0  0  0  0
 46 45  1  0  0  0  0
 47 45  1  0  0  0  0
 48 31  1  0  0  0  0
 48 45  1  0  0  0  0
 49 50  1  1  0  0  0
 51 49  1  0  0  0  0
 51 54  1  0  0  0  0
 51 52  1  0  0  0  0
 53 51  1  0  0  0  0
 54 56  1  0  0  0  0
 55 54  1  0  0  0  0
M  CHG  2   3  -1  31  -1
M  END
