1,3,6,7,8
 OpenBabel05122313063D

 46 47  0  0  1  0  0  0  0  0999 V2000
    1.1648   -1.6265   -1.0674 O   0  5  0  0  0  0  0  0  0  0  0  0
    3.1665   -2.6802   -0.9318 O   0  0  0  0  0  0  0  0  0  0  0  0
   -1.1648   -1.6266    1.0673 O   0  5  0  0  0  0  0  0  0  0  0  0
   -3.1665   -2.6802    0.9319 O   0  0  0  0  0  0  0  0  0  0  0  0
   -0.5708    1.3483    1.3237 N   0  0  2  0  0  0  0  0  0  0  0  0
    0.5708    1.3483   -1.3236 N   0  0  2  0  0  0  0  0  0  0  0  0
   -1.9432    0.1016   -0.9601 N   0  0  0  0  0  0  0  0  0  0  0  0
    1.9432    0.1016    0.9601 N   0  0  0  0  0  0  0  0  0  0  0  0
   -0.0851    2.6142    0.7743 C   0  0  0  0  0  0  0  0  0  0  0  0
    0.8859    2.8458    1.2478 H   0  0  0  0  0  0  0  0  0  0  0  0
   -0.7596    3.4591    1.0499 H   0  0  0  0  0  0  0  0  0  0  0  0
    0.0851    2.6142   -0.7743 C   0  0  0  0  0  0  0  0  0  0  0  0
   -0.8860    2.8458   -1.2477 H   0  0  0  0  0  0  0  0  0  0  0  0
    0.7595    3.4591   -1.0499 H   0  0  0  0  0  0  0  0  0  0  0  0
   -2.0279    1.1939    1.3442 C   0  0  0  0  0  0  0  0  0  0  0  0
   -2.5265    2.0566    1.8510 H   0  0  0  0  0  0  0  0  0  0  0  0
   -2.2511    0.2853    1.9318 H   0  0  0  0  0  0  0  0  0  0  0  0
   -2.6379    1.0573   -0.0672 C   0  0  0  0  0  0  0  0  0  0  0  0
   -3.7041    0.7602    0.0543 H   0  0  0  0  0  0  0  0  0  0  0  0
   -2.6522    2.0489   -0.5594 H   0  0  0  0  0  0  0  0  0  0  0  0
    2.6378    1.0574    0.0672 C   0  0  0  0  0  0  0  0  0  0  0  0
    3.7041    0.7602   -0.0543 H   0  0  0  0  0  0  0  0  0  0  0  0
    2.6522    2.0489    0.5595 H   0  0  0  0  0  0  0  0  0  0  0  0
    2.0279    1.1939   -1.3442 C   0  0  0  0  0  0  0  0  0  0  0  0
    2.5264    2.0566   -1.8510 H   0  0  0  0  0  0  0  0  0  0  0  0
    2.2511    0.2853   -1.9318 H   0  0  0  0  0  0  0  0  0  0  0  0
   -0.1153    0.8637   -2.5311 C   0  0  0  0  0  0  0  0  0  0  0  0
    0.3633   -0.1071   -2.7732 H   0  0  0  0  0  0  0  0  0  0  0  0
    0.0188    1.5411   -3.4098 H   0  0  0  0  0  0  0  0  0  0  0  0
   -1.6326    0.6335   -2.3034 C   0  0  0  0  0  0  0  0  0  0  0  0
   -2.2002    1.5741   -2.4697 H   0  0  0  0  0  0  0  0  0  0  0  0
   -1.9870   -0.0701   -3.0835 H   0  0  0  0  0  0  0  0  0  0  0  0
    1.6326    0.6335    2.3034 C   0  0  0  0  0  0  0  0  0  0  0  0
    2.2002    1.5741    2.4697 H   0  0  0  0  0  0  0  0  0  0  0  0
    1.9870   -0.0701    3.0835 H   0  0  0  0  0  0  0  0  0  0  0  0
    0.1153    0.8637    2.5312 C   0  0  0  0  0  0  0  0  0  0  0  0
   -0.3633   -0.1071    2.7731 H   0  0  0  0  0  0  0  0  0  0  0  0
   -0.0188    1.5411    3.4098 H   0  0  0  0  0  0  0  0  0  0  0  0
    2.5287   -1.2525    0.8957 C   0  0  0  0  0  0  0  0  0  0  0  0
    2.0197   -1.8880    1.6504 H   0  0  0  0  0  0  0  0  0  0  0  0
    3.6203   -1.2516    1.1130 H   0  0  0  0  0  0  0  0  0  0  0  0
    2.3001   -1.9309   -0.4967 C   0  0  0  0  0  0  0  0  0  0  0  0
   -2.5286   -1.2525   -0.8957 C   0  0  0  0  0  0  0  0  0  0  0  0
   -2.0197   -1.8880   -1.6504 H   0  0  0  0  0  0  0  0  0  0  0  0
   -3.6203   -1.2516   -1.1131 H   0  0  0  0  0  0  0  0  0  0  0  0
   -2.3001   -1.9309    0.4967 C   0  0  0  0  0  0  0  0  0  0  0  0
  1 42  1  0  0  0  0
  2 42  2  0  0  0  0
  5  9  1  1  0  0  0
  5 15  1  0  0  0  0
  5 36  1  0  0  0  0
  6 27  1  6  0  0  0
  6 12  1  0  0  0  0
  7 43  1  0  0  0  0
  7 18  1  0  0  0  0
  8 33  1  0  0  0  0
  9 11  1  0  0  0  0
  9 10  1  0  0  0  0
 12  9  1  0  0  0  0
 13 12  1  0  0  0  0
 14 12  1  0  0  0  0
 15 16  1  0  0  0  0
 15 17  1  0  0  0  0
 18 19  1  0  0  0  0
 18 15  1  0  0  0  0
 20 18  1  0  0  0  0
 21 23  1  0  0  0  0
 21  8  1  0  0  0  0
 22 21  1  0  0  0  0
 24  6  1  0  0  0  0
 24 21  1  0  0  0  0
 25 24  1  0  0  0  0
 26 24  1  0  0  0  0
 27 30  1  0  0  0  0
 28 27  1  0  0  0  0
 29 27  1  0  0  0  0
 30  7  1  0  0  0  0
 31 30  1  0  0  0  0
 32 30  1  0  0  0  0
 33 34  1  0  0  0  0
 33 36  1  0  0  0  0
 33 35  1  0  0  0  0
 36 37  1  0  0  0  0
 36 38  1  0  0  0  0
 39  8  1  0  0  0  0
 39 41  1  0  0  0  0
 39 40  1  0  0  0  0
 42 39  1  0  0  0  0
 43 46  1  0  0  0  0
 44 43  1  0  0  0  0
 45 43  1  0  0  0  0
 46  4  2  0  0  0  0
 46  3  1  0  0  0  0
M  CHG  2   1  -1   3  -1
M  END
