1,2,4,29,30,44
 OpenBabel05122313063D

 54 55  0  0  0  0  0  0  0  0999 V2000
    1.4720    0.0237   -1.1493 O   0  5  0  0  0  0  0  0  0  0  0  0
    0.5626    2.7679   -1.3119 N   0  0  0  0  0  0  0  0  0  0  0  0
    1.5023    2.4588   -1.5846 H   0  0  0  0  0  0  0  0  0  0  0  0
   -1.3235    0.7303   -1.6160 N   0  0  0  0  0  2  0  0  0  0  0  0
    6.7385   -2.4132    1.2772 O   0  0  0  0  0  0  0  0  0  0  0  0
    6.9424   -3.0048   -0.8199 O   0  0  0  0  0  0  0  0  0  0  0  0
    3.1159   -0.5443    0.5435 C   0  0  0  0  0  0  0  0  0  0  0  0
    4.3484   -1.1799    0.8116 C   0  0  0  0  0  0  0  0  0  0  0  0
    4.7698   -1.1867    1.8278 H   0  0  0  0  0  0  0  0  0  0  0  0
    2.5767   -0.5433   -0.8149 C   0  0  0  0  0  0  0  0  0  0  0  0
    5.0612   -1.8123   -0.2019 C   0  0  0  0  0  0  0  0  0  0  0  0
    6.3385   -2.4568    0.1083 N   0  0  0  0  0  0  0  0  0  0  0  0
    3.3618   -1.2189   -1.8179 C   0  0  0  0  0  0  0  0  0  0  0  0
    2.9530   -1.2263   -2.8391 H   0  0  0  0  0  0  0  0  0  0  0  0
    4.5657   -1.8347   -1.5283 C   0  0  0  0  0  0  0  0  0  0  0  0
    5.1588   -2.3489   -2.2971 H   0  0  0  0  0  0  0  0  0  0  0  0
   -0.3385    2.7717   -2.4702 C   0  0  0  0  0  0  0  0  0  0  0  0
    0.1152    3.2605   -3.3631 H   0  0  0  0  0  0  0  0  0  0  0  0
   -1.2400    3.3615   -2.2028 H   0  0  0  0  0  0  0  0  0  0  0  0
   -2.4569    0.0977   -1.6558 C   0  0  0  0  0  3  0  0  0  0  0  0
   -2.9945    0.0267   -2.6305 H   0  0  0  0  0  0  0  0  0  0  0  0
    0.5846    3.9825   -0.5013 C   0  0  0  0  0  0  0  0  0  0  0  0
    1.5445    4.0023    0.0547 H   0  0  0  0  0  0  0  0  0  0  0  0
    0.5510    4.9170   -1.1093 H   0  0  0  0  0  0  0  0  0  0  0  0
   -0.7721    1.3385   -2.8083 C   0  0  0  0  0  0  0  0  0  0  0  0
   -1.4895    1.3423   -3.6604 H   0  0  0  0  0  0  0  0  0  0  0  0
    0.1254    0.7514   -3.1042 H   0  0  0  0  0  0  0  0  0  0  0  0
    2.4569    0.0977    1.6558 C   0  0  0  0  0  3  0  0  0  0  0  0
    1.3235    0.7303    1.6160 N   0  0  0  0  0  2  0  0  0  0  0  0
   -1.4720    0.0237    1.1493 O   0  5  0  0  0  0  0  0  0  0  0  0
   -2.5767   -0.5433    0.8149 C   0  0  0  0  0  0  0  0  0  0  0  0
   -3.1159   -0.5443   -0.5435 C   0  0  0  0  0  0  0  0  0  0  0  0
   -4.3484   -1.1799   -0.8116 C   0  0  0  0  0  0  0  0  0  0  0  0
   -4.7698   -1.1867   -1.8278 H   0  0  0  0  0  0  0  0  0  0  0  0
   -5.0612   -1.8124    0.2019 C   0  0  0  0  0  0  0  0  0  0  0  0
   -6.3385   -2.4568   -0.1083 N   0  0  0  0  0  0  0  0  0  0  0  0
   -6.7385   -2.4132   -1.2772 O   0  0  0  0  0  0  0  0  0  0  0  0
   -6.9424   -3.0049    0.8199 O   0  0  0  0  0  0  0  0  0  0  0  0
   -4.5656   -1.8347    1.5283 C   0  0  0  0  0  0  0  0  0  0  0  0
   -3.3618   -1.2189    1.8179 C   0  0  0  0  0  0  0  0  0  0  0  0
   -2.9530   -1.2263    2.8391 H   0  0  0  0  0  0  0  0  0  0  0  0
   -5.1588   -2.3489    2.2970 H   0  0  0  0  0  0  0  0  0  0  0  0
   -0.5847    3.9825    0.5013 C   0  0  0  0  0  0  0  0  0  0  0  0
   -0.5626    2.7679    1.3120 N   0  0  0  0  0  0  0  0  0  0  0  0
   -1.5023    2.4587    1.5846 H   0  0  0  0  0  0  0  0  0  0  0  0
    0.3385    2.7717    2.4702 C   0  0  0  0  0  0  0  0  0  0  0  0
   -0.1152    3.2605    3.3631 H   0  0  0  0  0  0  0  0  0  0  0  0
    1.2400    3.3615    2.2028 H   0  0  0  0  0  0  0  0  0  0  0  0
    0.7721    1.3385    2.8083 C   0  0  0  0  0  0  0  0  0  0  0  0
    1.4895    1.3423    3.6604 H   0  0  0  0  0  0  0  0  0  0  0  0
   -0.1254    0.7514    3.1042 H   0  0  0  0  0  0  0  0  0  0  0  0
   -1.5446    4.0022   -0.0546 H   0  0  0  0  0  0  0  0  0  0  0  0
   -0.5511    4.9170    1.1094 H   0  0  0  0  0  0  0  0  0  0  0  0
    2.9945    0.0267    2.6305 H   0  0  0  0  0  0  0  0  0  0  0  0
  1 10  1  0  0  0  0
  2 22  1  0  0  0  0
  3  2  1  0  0  0  0
  6 12  2  0  0  0  0
  7  8  1  0  0  0  0
  7 28  1  0  0  0  0
  8  9  1  0  0  0  0
 10  7  2  0  0  0  0
 11 12  1  0  0  0  0
 11  8  2  0  0  0  0
 12  5  2  0  0  0  0
 13 15  2  0  0  0  0
 13 10  1  0  0  0  0
 14 13  1  0  0  0  0
 15 11  1  0  0  0  0
 16 15  1  0  0  0  0
 17 19  1  0  0  0  0
 17  2  1  0  0  0  0
 18 17  1  0  0  0  0
 20  4  1  0  0  0  0
 20 32  1  0  0  0  0
 21 20  1  0  0  0  0
 22 23  1  0  0  0  0
 22 43  1  0  0  0  0
 24 22  1  0  0  0  0
 25 17  1  0  0  0  0
 25  4  1  0  0  0  0
 26 25  1  0  0  0  0
 27 25  1  0  0  0  0
 28 54  1  0  0  0  0
 29 28  1  0  0  0  0
 29 49  1  0  0  0  0
 31 30  1  0  0  0  0
 31 40  1  0  0  0  0
 32 31  2  0  0  0  0
 33 32  1  0  0  0  0
 33 35  2  0  0  0  0
 34 33  1  0  0  0  0
 35 39  1  0  0  0  0
 36 35  1  0  0  0  0
 36 38  2  0  0  0  0
 37 36  2  0  0  0  0
 39 40  2  0  0  0  0
 39 42  1  0  0  0  0
 40 41  1  0  0  0  0
 43 53  1  0  0  0  0
 43 44  1  0  0  0  0
 44 45  1  0  0  0  0
 44 46  1  0  0  0  0
 46 49  1  0  0  0  0
 46 47  1  0  0  0  0
 48 46  1  0  0  0  0
 49 51  1  0  0  0  0
 49 50  1  0  0  0  0
 52 43  1  0  0  0  0
M  CHG  2   1  -1  30  -1
M  END
