1,3,5,6,7,8
q = -2.0, confidence = 0.844

 43 42  0  0  0  0  0  0  0  0999 V2000
    0.6782    0.4527    1.4397 O   0  5  0  0  0  0  0  0  0  0  0  0
    2.8154    0.2269    2.1390 O   0  0  0  0  0  0  0  0  0  0  0  0
    0.0517   -1.8078    0.0488 O   0  5  0  0  0  0  0  0  0  0  0  0
    1.8753   -3.1440    0.0332 O   0  0  0  0  0  0  0  0  0  0  0  0
   -1.4440   -0.4420   -1.7113 N   0  0  0  0  0  0  0  0  0  0  0  0
   -1.8735   -0.1884    1.1549 N   0  0  0  0  0  0  0  0  0  0  0  0
    1.3849    0.1280   -1.0243 N   0  0  0  0  0  0  0  0  0  0  0  0
   -0.8786    1.9750   -0.1699 N   0  0  0  0  0  0  0  0  0  0  0  0
    3.5254   -0.9137   -0.3167 N   0  0  0  0  0  0  0  0  0  0  0  0
   -2.3164   -1.6460   -1.5565 C   0  0  0  0  0  0  0  0  0  0  0  0
   -3.3340   -1.4817   -0.4334 C   0  0  0  0  0  0  0  0  0  0  0  0
   -2.7241   -1.3891    0.9648 C   0  0  0  0  0  0  0  0  0  0  0  0
   -2.6141    1.0897    1.2756 C   0  0  0  0  0  0  0  0  0  0  0  0
   -1.6242    2.2261    1.0924 C   0  0  0  0  0  0  0  0  0  0  0  0
    1.3471   -2.0473    0.0363 C   0  0  0  0  0  0  0  0  0  0  0  0
    2.1712   -0.7305   -0.0042 C   0  0  0  0  0  0  0  0  0  0  0  0
    1.9269    0.0356    1.3298 C   0  0  0  0  0  0  0  0  0  0  0  0
    2.0548    1.4303   -1.2933 C   0  0  0  0  0  0  0  0  0  0  0  0
    1.0857    2.5692   -1.5929 C   0  0  0  0  0  0  0  0  0  0  0  0
    0.2188    2.9478   -0.3956 C   0  0  0  0  0  0  0  0  0  0  0  0
   -0.7903   -0.6294   -2.4874 H   0  0  0  0  0  0  0  0  0  0  0  0
   -2.0301    0.3372   -2.0548 H   0  0  0  0  0  0  0  0  0  0  0  0
   -1.3012   -0.3171    2.0069 H   0  0  0  0  0  0  0  0  0  0  0  0
    1.3678   -0.4099   -1.9058 H   0  0  0  0  0  0  0  0  0  0  0  0
   -1.5439    2.0917   -0.9518 H   0  0  0  0  0  0  0  0  0  0  0  0
    4.1140   -0.5436    0.4435 H   0  0  0  0  0  0  0  0  0  0  0  0
    3.7199   -1.9181   -0.4413 H   0  0  0  0  0  0  0  0  0  0  0  0
   -1.6424   -2.4961   -1.3417 H   0  0  0  0  0  0  0  0  0  0  0  0
   -2.8379   -1.8434   -2.5166 H   0  0  0  0  0  0  0  0  0  0  0  0
   -4.0056   -0.6183   -0.6408 H   0  0  0  0  0  0  0  0  0  0  0  0
   -3.9988   -2.3689   -0.4494 H   0  0  0  0  0  0  0  0  0  0  0  0
   -2.0730   -2.2649    1.1469 H   0  0  0  0  0  0  0  0  0  0  0  0
   -3.5278   -1.3896    1.7328 H   0  0  0  0  0  0  0  0  0  0  0  0
   -3.1392    1.1635    2.2513 H   0  0  0  0  0  0  0  0  0  0  0  0
   -3.3944    1.1202    0.4869 H   0  0  0  0  0  0  0  0  0  0  0  0
   -0.8772    2.2273    1.9101 H   0  0  0  0  0  0  0  0  0  0  0  0
   -2.1301    3.2149    1.0761 H   0  0  0  0  0  0  0  0  0  0  0  0
    2.6565    1.6897   -0.3990 H   0  0  0  0  0  0  0  0  0  0  0  0
    2.7821    1.2932   -2.1167 H   0  0  0  0  0  0  0  0  0  0  0  0
    1.6871    3.4561   -1.8785 H   0  0  0  0  0  0  0  0  0  0  0  0
    0.4537    2.3437   -2.4819 H   0  0  0  0  0  0  0  0  0  0  0  0
   -0.2201    3.9605   -0.5282 H   0  0  0  0  0  0  0  0  0  0  0  0
    0.8300    2.9685    0.5284 H   0  0  0  0  0  0  0  0  0  0  0  0
  4 15  2  0  0  0  0
  5 10  1  0  0  0  0
  6 13  1  0  0  0  0
  6 23  1  0  0  0  0
  7 16  1  0  0  0  0
  8 14  1  0  0  0  0
  9 16  1  0  0  0  0
  9 26  1  0  0  0  0
 10 28  1  0  0  0  0
 10 11  1  0  0  0  0
 11 12  1  0  0  0  0
 12 32  1  0  0  0  0
 12  6  1  0  0  0  0
 12 33  1  0  0  0  0
 13 34  1  0  0  0  0
 14 13  1  0  0  0  0
 14 36  1  0  0  0  0
 15  3  1  0  0  0  0
 16 15  1  0  0  0  0
 16 17  1  0  0  0  0
 17  1  1  0  0  0  0
 17  2  2  0  0  0  0
 18  7  1  0  0  0  0
 18 38  1  0  0  0  0
 19 18  1  0  0  0  0
 19 20  1  0  0  0  0
 20  8  1  0  0  0  0
 20 43  1  0  0  0  0
 21  5  1  0  0  0  0
 22  5  1  0  0  0  0
 24  7  1  0  0  0  0
 25  8  1  0  0  0  0
 27  9  1  0  0  0  0
 29 10  1  0  0  0  0
 30 11  1  0  0  0  0
 31 11  1  0  0  0  0
 35 13  1  0  0  0  0
 37 14  1  0  0  0  0
 39 18  1  0  0  0  0
 40 19  1  0  0  0  0
 41 19  1  0  0  0  0
 42 20  1  0  0  0  0
M  CHG  2   1  -1   3  -1
M  END
