2,7,10,17,28,35
q = -3.0, confidence = 0.428

 51 51  0  0  0  0  0  0  0  0999 V2000
   -1.9718    1.7267   -0.3068 P   0  0  1  0  0  0  0  0  0  0  0  0
   -0.9322    0.7349   -1.0443 O   0  0  0  0  0  1  0  0  0  0  0  0
   -1.3277    3.1657   -0.2083 O   0  0  0  0  0  0  0  0  0  0  0  0
   -0.2213    3.1794   -0.0412 H   0  0  0  0  0  0  0  0  0  0  0  0
   -3.3687    1.6259   -0.8784 O   0  0  0  0  0  0  0  0  0  0  0  0
    1.8735    1.8517    0.2952 P   0  0  0  0  0  0  0  0  0  0  0  0
    0.9125    0.7610    1.0418 O   0  0  0  0  0  1  0  0  0  0  0  0
    1.1190    3.2003    0.1642 O   0  0  0  0  0  0  0  0  0  0  0  0
    3.2688    1.7854    0.8921 O   0  0  0  0  0  1  0  0  0  0  0  0
   -1.3856   -0.3887    1.4765 N   0  0  0  0  0  0  0  0  0  0  0  0
   -2.4502   -1.3782    1.1571 C   0  0  0  0  0  0  0  0  0  0  0  0
   -3.4210   -1.0527    1.5894 H   0  0  0  0  0  0  0  0  0  0  0  0
   -2.1787   -2.3385    1.6419 H   0  0  0  0  0  0  0  0  0  0  0  0
   -2.5694   -1.5699   -0.3372 C   0  0  0  0  0  0  0  0  0  0  0  0
   -3.2867   -2.3867   -0.5742 H   0  0  0  0  0  0  0  0  0  0  0  0
   -2.9408   -0.6343   -0.8095 H   0  0  0  0  0  0  0  0  0  0  0  0
   -1.2200   -1.8669   -0.8899 N   0  0  0  0  0  0  0  0  0  0  0  0
   -0.9534   -2.8209   -0.5965 H   0  0  0  0  0  0  0  0  0  0  0  0
   -1.2710   -1.8414   -2.3694 C   0  0  0  0  0  0  0  0  0  0  0  0
   -1.7574   -0.8832   -2.6355 H   0  0  0  0  0  0  0  0  0  0  0  0
   -1.9185   -2.6720   -2.7301 H   0  0  0  0  0  0  0  0  0  0  0  0
    0.1061   -1.9069   -3.0115 C   0  0  0  0  0  0  0  0  0  0  0  0
    0.6689   -2.8010   -2.6597 H   0  0  0  0  0  0  0  0  0  0  0  0
   -0.0343   -2.0655   -4.1005 H   0  0  0  0  0  0  0  0  0  0  0  0
    0.9030   -0.6166   -2.8452 C   0  0  0  0  0  0  0  0  0  0  0  0
    0.2500    0.2353   -3.1067 H   0  0  0  0  0  0  0  0  0  0  0  0
    1.7753   -0.6051   -3.5371 H   0  0  0  0  0  0  0  0  0  0  0  0
    1.4150   -0.3363   -1.4733 N   0  0  0  0  0  0  0  0  0  0  0  0
    2.5164   -1.2821   -1.1477 C   0  0  0  0  0  0  0  0  0  0  0  0
    3.4707   -0.9279   -1.5934 H   0  0  0  0  0  0  0  0  0  0  0  0
    2.2773   -2.2611   -1.6123 H   0  0  0  0  0  0  0  0  0  0  0  0
    2.6479   -1.4371    0.3482 C   0  0  0  0  0  0  0  0  0  0  0  0
    3.4037   -2.2125    0.6036 H   0  0  0  0  0  0  0  0  0  0  0  0
    2.9646   -0.4706    0.8014 H   0  0  0  0  0  0  0  0  0  0  0  0
    1.3119   -1.7961    0.8996 N   0  0  0  0  0  0  0  0  0  0  0  0
    1.0937   -2.7648    0.6128 H   0  0  0  0  0  0  0  0  0  0  0  0
    1.3605   -1.7569    2.3790 C   0  0  0  0  0  0  0  0  0  0  0  0
    2.0487   -2.5521    2.7431 H   0  0  0  0  0  0  0  0  0  0  0  0
    1.7976   -0.7725    2.6349 H   0  0  0  0  0  0  0  0  0  0  0  0
   -0.0111   -1.8883    3.0225 C   0  0  0  0  0  0  0  0  0  0  0  0
   -0.5312   -2.8088    2.6728 H   0  0  0  0  0  0  0  0  0  0  0  0
    0.1367   -2.0371    4.1119 H   0  0  0  0  0  0  0  0  0  0  0  0
   -0.8673   -0.6378    2.8524 C   0  0  0  0  0  0  0  0  0  0  0  0
   -0.2535    0.2437    3.1107 H   0  0  0  0  0  0  0  0  0  0  0  0
   -1.7413   -0.6644    3.5419 H   0  0  0  0  0  0  0  0  0  0  0  0
   -1.8748    1.0266    1.4249 C   0  0  0  0  0  0  0  0  0  0  0  0
   -1.1138    1.6390    1.9374 H   0  0  0  0  0  0  0  0  0  0  0  0
   -2.8524    1.1143    1.9450 H   0  0  0  0  0  0  0  0  0  0  0  0
    1.8595    1.0947   -1.4291 C   0  0  0  0  0  0  0  0  0  0  0  0
    1.1101    1.6769   -1.9903 H   0  0  0  0  0  0  0  0  0  0  0  0
    2.8553    1.1955   -1.9106 H   0  0  0  0  0  0  0  0  0  0  0  0
  1  2  1  6  0  0  0
  1  3  1  0  0  0  0
  1 46  1  0  0  0  0
  3  4  1  0  0  0  0
  5  1  2  0  0  0  0
  6  9  1  0  0  0  0
  6  7  1  0  0  0  0
  8  6  2  0  0  0  0
 10 43  1  0  0  0  0
 11 10  1  0  0  0  0
 11 12  1  0  0  0  0
 11 13  1  0  0  0  0
 14 11  1  0  0  0  0
 15 14  1  0  0  0  0
 16 14  1  0  0  0  0
 17 18  1  0  0  0  0
 17 14  1  0  0  0  0
 19 17  1  0  0  0  0
 20 19  1  0  0  0  0
 21 19  1  0  0  0  0
 22 25  1  0  0  0  0
 22 23  1  0  0  0  0
 22 19  1  0  0  0  0
 24 22  1  0  0  0  0
 25 28  1  0  0  0  0
 26 25  1  0  0  0  0
 27 25  1  0  0  0  0
 28 49  1  0  0  0  0
 28 29  1  0  0  0  0
 29 32  1  0  0  0  0
 30 29  1  0  0  0  0
 31 29  1  0  0  0  0
 32 33  1  0  0  0  0
 32 34  1  0  0  0  0
 32 35  1  0  0  0  0
 35 37  1  0  0  0  0
 36 35  1  0  0  0  0
 37 39  1  0  0  0  0
 37 38  1  0  0  0  0
 37 40  1  0  0  0  0
 40 42  1  0  0  0  0
 41 40  1  0  0  0  0
 43 40  1  0  0  0  0
 43 44  1  0  0  0  0
 43 45  1  0  0  0  0
 46 10  1  0  0  0  0
 46 47  1  0  0  0  0
 46 48  1  0  0  0  0
 49  6  1  0  0  0  0
 50 49  1  0  0  0  0
 51 49  1  0  0  0  0
M  END
