1,2,3
q = -1.0, confidence = 0.068

 50 53  0  0  0  0  0  0  0  0999 V2000
   -1.4875   -0.0959   -0.0368 P   0  0  0  0  0  0  0  0  0  0  0  0
    2.6629   -1.1376   -0.1456 O   0  5  0  0  0  0  0  0  0  0  0  0
    1.4230    1.1742   -0.2030 N   0  0  0  0  0  2  0  0  0  0  0  0
    2.7746    1.2006   -0.1182 N   0  0  0  0  0  0  0  0  0  0  0  0
   -1.6845    1.6780   -0.4869 C   0  0  0  0  0  0  0  0  0  0  0  0
   -2.9889    2.1344   -0.7640 C   0  0  0  0  0  0  0  0  0  0  0  0
   -3.2616    3.4848   -1.0198 C   0  0  0  0  0  0  0  0  0  0  0  0
   -2.2067    4.4111   -0.9932 C   0  0  0  0  0  0  0  0  0  0  0  0
   -0.9070    3.9740   -0.7345 C   0  0  0  0  0  0  0  0  0  0  0  0
   -0.5940    2.6065   -0.4905 C   0  0  0  0  0  0  0  0  0  0  0  0
    0.8257    2.3381   -0.3081 C   0  0  0  0  0  3  0  0  0  0  0  0
    3.3184   -0.0275   -0.1046 C   0  0  0  0  0  0  0  0  0  0  0  0
    4.8046   -0.0956   -0.0444 C   0  0  0  0  0  0  0  0  0  0  0  0
    5.5910    1.0765   -0.0031 C   0  0  0  0  0  0  0  0  0  0  0  0
    6.9870    0.9845    0.0548 C   0  0  0  0  0  0  0  0  0  0  0  0
    7.6126   -0.2742    0.0709 C   0  0  0  0  0  0  0  0  0  0  0  0
    6.8345   -1.4433    0.0293 C   0  0  0  0  0  0  0  0  0  0  0  0
    5.4376   -1.3563   -0.0277 C   0  0  0  0  0  0  0  0  0  0  0  0
   -2.7465   -0.9605   -1.0602 C   0  0  0  0  0  0  0  0  0  0  0  0
   -2.3863   -1.3071   -2.3788 C   0  0  0  0  0  0  0  0  0  0  0  0
   -3.3134   -1.9411   -3.2163 C   0  0  0  0  0  0  0  0  0  0  0  0
   -4.6002   -2.2455   -2.7403 C   0  0  0  0  0  0  0  0  0  0  0  0
   -4.9572   -1.9143   -1.4243 C   0  0  0  0  0  0  0  0  0  0  0  0
   -4.0345   -1.2720   -0.5827 C   0  0  0  0  0  0  0  0  0  0  0  0
   -2.1422   -0.1958    1.6826 C   0  0  0  0  0  0  0  0  0  0  0  0
   -2.5945    0.9357    2.3889 C   0  0  0  0  0  0  0  0  0  0  0  0
   -3.0593    0.8018    3.7076 C   0  0  0  0  0  0  0  0  0  0  0  0
   -3.0824   -0.4570    4.3252 C   0  0  0  0  0  0  0  0  0  0  0  0
   -2.6286   -1.5876    3.6242 C   0  0  0  0  0  0  0  0  0  0  0  0
   -2.1515   -1.4596    2.3135 C   0  0  0  0  0  0  0  0  0  0  0  0
   -3.8159    1.4086   -0.7770 H   0  0  0  0  0  0  0  0  0  0  0  0
   -4.2905    3.8082   -1.2361 H   0  0  0  0  0  0  0  0  0  0  0  0
   -2.3966    5.4780   -1.1845 H   0  0  0  0  0  0  0  0  0  0  0  0
   -0.0806    4.7013   -0.7316 H   0  0  0  0  0  0  0  0  0  0  0  0
    1.4963    3.2177   -0.3130 H   0  0  0  0  0  0  0  0  0  0  0  0
    5.0796    2.0488   -0.0177 H   0  0  0  0  0  0  0  0  0  0  0  0
    7.5949    1.9016    0.0872 H   0  0  0  0  0  0  0  0  0  0  0  0
    8.7105   -0.3437    0.1159 H   0  0  0  0  0  0  0  0  0  0  0  0
    7.3221   -2.4301    0.0418 H   0  0  0  0  0  0  0  0  0  0  0  0
    4.8078   -2.2567   -0.0604 H   0  0  0  0  0  0  0  0  0  0  0  0
   -1.3668   -1.0893   -2.7351 H   0  0  0  0  0  0  0  0  0  0  0  0
   -3.0264   -2.2102   -4.2440 H   0  0  0  0  0  0  0  0  0  0  0  0
   -5.3245   -2.7516   -3.3965 H   0  0  0  0  0  0  0  0  0  0  0  0
   -5.9612   -2.1593   -1.0458 H   0  0  0  0  0  0  0  0  0  0  0  0
   -4.3138   -1.0187    0.4512 H   0  0  0  0  0  0  0  0  0  0  0  0
   -2.5819    1.9254    1.9103 H   0  0  0  0  0  0  0  0  0  0  0  0
   -3.4057    1.6922    4.2538 H   0  0  0  0  0  0  0  0  0  0  0  0
   -3.4485   -0.5588    5.3581 H   0  0  0  0  0  0  0  0  0  0  0  0
   -2.6361   -2.5770    4.1061 H   0  0  0  0  0  0  0  0  0  0  0  0
   -1.7762   -2.3423    1.7750 H   0  0  0  0  0  0  0  0  0  0  0  0
  1 25  1  0  0  0  0
  2 12  1  0  0  0  0
  3  4  1  0  0  0  0
  4 12  2  0  0  0  0
  5  1  1  0  0  0  0
  6  5  2  0  0  0  0
  7  8  2  0  0  0  0
  7  6  1  0  0  0  0
  8  9  1  0  0  0  0
  9 34  1  0  0  0  0
  9 10  2  0  0  0  0
 10  5  1  0  0  0  0
 10 11  1  0  0  0  0
 11  3  1  0  0  0  0
 12 13  1  0  0  0  0
 13 18  2  0  0  0  0
 13 14  1  0  0  0  0
 14 15  2  0  0  0  0
 15 16  1  0  0  0  0
 15 37  1  0  0  0  0
 16 38  1  0  0  0  0
 17 39  1  0  0  0  0
 17 16  2  0  0  0  0
 18 17  1  0  0  0  0
 19 24  1  0  0  0  0
 19  1  1  0  0  0  0
 20 19  2  0  0  0  0
 21 22  2  0  0  0  0
 21 20  1  0  0  0  0
 22 23  1  0  0  0  0
 23 44  1  0  0  0  0
 23 24  2  0  0  0  0
 24 45  1  0  0  0  0
 25 30  2  0  0  0  0
 25 26  1  0  0  0  0
 26 27  2  0  0  0  0
 27 47  1  0  0  0  0
 27 28  1  0  0  0  0
 28 48  1  0  0  0  0
 29 49  1  0  0  0  0
 29 28  2  0  0  0  0
 30 29  1  0  0  0  0
 31  6  1  0  0  0  0
 32  7  1  0  0  0  0
 33  8  1  0  0  0  0
 35 11  1  0  0  0  0
 36 14  1  0  0  0  0
 40 18  1  0  0  0  0
 41 20  1  0  0  0  0
 42 21  1  0  0  0  0
 43 22  1  0  0  0  0
 46 26  1  0  0  0  0
 50 30  1  0  0  0  0
M  CHG  1   2  -1
M  END
