1,2,3
q = 0.0, confidence = 0.994

 56 59  0  0  1  0  0  0  0  0999 V2000
    1.5551    0.2478    0.0210 P   0  0  0  0  0  0  0  0  0  0  0  0
   -2.7457   -0.7083   -0.2524 O   0  0  0  0  0  1  0  0  0  0  0  0
   -1.3229    1.6044   -0.4162 N   0  0  0  0  0  0  0  0  0  0  0  0
   -4.7519    0.3216   -0.0864 N   0  0  0  0  0  0  0  0  0  0  0  0
    1.7719    1.8605   -0.8723 C   0  0  0  0  0  0  0  0  0  0  0  0
    0.7829    2.8724   -0.7449 C   0  0  0  0  0  0  0  0  0  0  0  0
    0.9610    4.0883   -1.4309 C   0  0  0  0  0  0  0  0  0  0  0  0
    2.0924    4.3216   -2.2265 C   0  0  0  0  0  0  0  0  0  0  0  0
    3.0683    3.3240   -2.3454 C   0  0  0  0  0  0  0  0  0  0  0  0
    2.9050    2.1043   -1.6709 C   0  0  0  0  0  0  0  0  0  0  0  0
    2.2640    0.6308    1.6845 C   0  0  0  0  0  0  0  0  0  0  0  0
    2.1512   -0.3464    2.6982 C   0  0  0  0  0  0  0  0  0  0  0  0
    2.6711   -0.0872    3.9739 C   0  0  0  0  0  0  0  0  0  0  0  0
    3.2844    1.1443    4.2583 C   0  0  0  0  0  0  0  0  0  0  0  0
    3.3873    2.1198    3.2554 C   0  0  0  0  0  0  0  0  0  0  0  0
    2.8821    1.8640    1.9701 C   0  0  0  0  0  0  0  0  0  0  0  0
    2.8363   -0.8351   -0.7563 C   0  0  0  0  0  0  0  0  0  0  0  0
    2.6767   -1.1917   -2.1138 C   0  0  0  0  0  0  0  0  0  0  0  0
    3.6112   -2.0354   -2.7321 C   0  0  0  0  0  0  0  0  0  0  0  0
    4.7025   -2.5392   -2.0043 C   0  0  0  0  0  0  0  0  0  0  0  0
    4.8574   -2.1912   -0.6541 C   0  0  0  0  0  0  0  0  0  0  0  0
    3.9315   -1.3401   -0.0308 C   0  0  0  0  0  0  0  0  0  0  0  0
   -0.4600    2.6946    0.0990 C   0  0  0  0  0  0  0  0  0  0  0  0
   -2.6941    1.6740    0.1153 C   0  0  0  0  0  0  0  0  0  0  0  0
   -3.4046    0.3497   -0.1037 C   0  0  1  0  0  3  0  0  0  0  0  0
   -5.6467    1.4633    0.1488 C   0  0  0  0  0  0  0  0  0  0  0  0
   -6.9985    0.7924    0.4336 C   0  0  0  0  0  0  0  0  0  0  0  0
   -6.9375   -0.4894   -0.4111 C   0  0  0  0  0  0  0  0  0  0  0  0
   -5.4834   -0.9451   -0.2458 C   0  0  0  0  0  0  0  0  0  0  0  0
   -1.3338    1.6140   -1.4554 H   0  0  0  0  0  0  0  0  0  0  0  0
    0.1915    4.8711   -1.3339 H   0  0  0  0  0  0  0  0  0  0  0  0
    2.2069    5.2812   -2.7529 H   0  0  0  0  0  0  0  0  0  0  0  0
    3.9633    3.4910   -2.9638 H   0  0  0  0  0  0  0  0  0  0  0  0
    3.6745    1.3245   -1.7634 H   0  0  0  0  0  0  0  0  0  0  0  0
    1.6669   -1.3086    2.4672 H   0  0  0  0  0  0  0  0  0  0  0  0
    2.5844   -0.8547    4.7583 H   0  0  0  0  0  0  0  0  0  0  0  0
    3.6821    1.3447    5.2653 H   0  0  0  0  0  0  0  0  0  0  0  0
    3.8675    3.0871    3.4698 H   0  0  0  0  0  0  0  0  0  0  0  0
    2.9749    2.6307    1.1867 H   0  0  0  0  0  0  0  0  0  0  0  0
    1.8002   -0.8205   -2.6707 H   0  0  0  0  0  0  0  0  0  0  0  0
    3.4804   -2.3059   -3.7914 H   0  0  0  0  0  0  0  0  0  0  0  0
    5.4313   -3.2063   -2.4902 H   0  0  0  0  0  0  0  0  0  0  0  0
    5.7058   -2.5870   -0.0750 H   0  0  0  0  0  0  0  0  0  0  0  0
    4.0581   -1.0740    1.0279 H   0  0  0  0  0  0  0  0  0  0  0  0
   -0.2224    2.4329    1.1532 H   0  0  0  0  0  0  0  0  0  0  0  0
   -1.0223    3.6554    0.1039 H   0  0  0  0  0  0  0  0  0  0  0  0
   -3.2589    2.5357   -0.3043 H   0  0  0  0  0  0  0  0  0  0  0  0
   -2.6096    1.7952    1.2187 H   0  0  0  0  0  0  0  0  0  0  0  0
   -5.6995    2.1136   -0.7542 H   0  0  0  0  0  0  0  0  0  0  0  0
   -5.2923    2.0852    0.9953 H   0  0  0  0  0  0  0  0  0  0  0  0
   -7.0695    0.5363    1.5112 H   0  0  0  0  0  0  0  0  0  0  0  0
   -7.8547    1.4487    0.1865 H   0  0  0  0  0  0  0  0  0  0  0  0
   -7.1447   -0.2566   -1.4767 H   0  0  0  0  0  0  0  0  0  0  0  0
   -7.6626   -1.2610   -0.0897 H   0  0  0  0  0  0  0  0  0  0  0  0
   -5.0797   -1.5101   -1.1089 H   0  0  0  0  0  0  0  0  0  0  0  0
   -5.3381   -1.5773    0.6582 H   0  0  0  0  0  0  0  0  0  0  0  0
  1 11  1  0  0  0  0
  3 23  1  0  0  0  0
  3 24  1  0  0  0  0
  4 26  1  0  0  0  0
  5  6  1  0  0  0  0
  5  1  1  0  0  0  0
  6 23  1  0  0  0  0
  7 31  1  0  0  0  0
  7  6  2  0  0  0  0
  8  7  1  0  0  0  0
  9  8  2  0  0  0  0
  9 10  1  0  0  0  0
 10  5  2  0  0  0  0
 11 16  2  0  0  0  0
 11 12  1  0  0  0  0
 12 13  2  0  0  0  0
 13 14  1  0  0  0  0
 13 36  1  0  0  0  0
 14 37  1  0  0  0  0
 15 38  1  0  0  0  0
 15 14  2  0  0  0  0
 16 15  1  0  0  0  0
 17 22  1  0  0  0  0
 17  1  1  0  0  0  0
 18 17  2  0  0  0  0
 19 18  1  0  0  0  0
 19 20  2  0  0  0  0
 20 21  1  0  0  0  0
 21 43  1  0  0  0  0
 21 22  2  0  0  0  0
 22 44  1  0  0  0  0
 23 46  1  0  0  0  0
 23 45  1  0  0  0  0
 24 48  1  0  0  0  0
 25  2  1  1  0  0  0
 25  4  1  0  0  0  0
 25 24  1  0  0  0  0
 26 27  1  0  0  0  0
 26 50  1  0  0  0  0
 27 51  1  0  0  0  0
 28 29  1  0  0  0  0
 28 54  1  0  0  0  0
 28 27  1  0  0  0  0
 29  4  1  0  0  0  0
 29 56  1  0  0  0  0
 30  3  1  0  0  0  0
 32  8  1  0  0  0  0
 33  9  1  0  0  0  0
 34 10  1  0  0  0  0
 35 12  1  0  0  0  0
 39 16  1  0  0  0  0
 40 18  1  0  0  0  0
 41 19  1  0  0  0  0
 42 20  1  0  0  0  0
 47 24  1  0  0  0  0
 49 26  1  0  0  0  0
 52 27  1  0  0  0  0
 53 28  1  0  0  0  0
 55 29  1  0  0  0  0
M  END
