1,2,3
q = nan, confidence = 0.0

 46 48  0  0  1  0  0  0  0  0999 V2000
   -1.2416   -0.0190    0.4120 P   0  0  0  0  0  0  0  0  0  0  0  0
    2.2863   -0.4311   -1.3732 O   0  0  0  0  0  1  0  0  0  0  0  0
    1.4628    0.5738    1.0813 N   0  0  0  0  0  2  0  0  0  0  0  0
    3.2266    1.6266    2.4336 C   0  0  0  0  0  0  0  0  0  0  0  0
    2.6486    2.5706    2.4554 H   0  0  0  0  0  0  0  0  0  0  0  0
    4.2884    1.9004    2.3307 H   0  0  0  0  0  0  0  0  0  0  0  0
    3.0970    1.1362    3.4221 H   0  0  0  0  0  0  0  0  0  0  0  0
    2.7710    0.7401    1.2887 C   0  0  0  0  0  0  0  0  0  0  0  0
    3.7876    0.1245    0.4562 C   0  0  0  0  0  0  0  0  0  0  0  0
    5.1446    0.0504    0.9006 C   0  0  0  0  0  0  0  0  0  0  0  0
    5.4036    0.4161    1.9040 H   0  0  0  0  0  0  0  0  0  0  0  0
    6.1528   -0.5105    0.1295 C   0  0  0  0  0  0  0  0  0  0  0  0
    7.1796   -0.5662    0.5189 H   0  0  0  0  0  0  0  0  0  0  0  0
    5.8426   -1.0117   -1.1594 C   0  0  0  0  0  0  0  0  0  0  0  0
    6.6369   -1.4463   -1.7865 H   0  0  0  0  0  0  0  0  0  0  0  0
    4.5419   -0.9656   -1.6332 C   0  0  0  0  0  0  0  0  0  0  0  0
    4.2686   -1.3527   -2.6253 H   0  0  0  0  0  0  0  0  0  0  0  0
    3.4707   -0.4242   -0.8477 C   0  0  2  0  0  3  0  0  0  0  0  0
   -2.4429   -1.3949    0.4917 C   0  0  0  0  0  0  0  0  0  0  0  0
   -2.5453   -2.2402    1.6146 C   0  0  0  0  0  0  0  0  0  0  0  0
   -1.9052   -2.0852    2.4952 H   0  0  0  0  0  0  0  0  0  0  0  0
   -3.4701   -3.2960    1.6218 C   0  0  0  0  0  0  0  0  0  0  0  0
   -3.5435   -3.9487    2.5049 H   0  0  0  0  0  0  0  0  0  0  0  0
   -4.2941   -3.5183    0.5085 C   0  0  0  0  0  0  0  0  0  0  0  0
   -5.0174   -4.3478    0.5151 H   0  0  0  0  0  0  0  0  0  0  0  0
   -4.1904   -2.6821   -0.6155 C   0  0  0  0  0  0  0  0  0  0  0  0
   -4.8292   -2.8563   -1.4945 H   0  0  0  0  0  0  0  0  0  0  0  0
   -3.2700   -1.6267   -0.6293 C   0  0  0  0  0  0  0  0  0  0  0  0
   -3.1666   -0.9857   -1.5163 H   0  0  0  0  0  0  0  0  0  0  0  0
   -2.2312    1.4280   -0.1312 C   0  0  0  0  0  0  0  0  0  0  0  0
   -1.7802    2.2052   -1.2151 C   0  0  0  0  0  0  0  0  0  0  0  0
   -0.8854    1.8801   -1.7677 H   0  0  0  0  0  0  0  0  0  0  0  0
   -2.5037    3.3434   -1.6037 C   0  0  0  0  0  0  0  0  0  0  0  0
   -2.1540    3.9457   -2.4558 H   0  0  0  0  0  0  0  0  0  0  0  0
   -3.6714    3.7073   -0.9153 C   0  0  0  0  0  0  0  0  0  0  0  0
   -4.2370    4.5999   -1.2234 H   0  0  0  0  0  0  0  0  0  0  0  0
   -4.1268    2.9269    0.1614 C   0  0  0  0  0  0  0  0  0  0  0  0
   -5.0484    3.2052    0.6949 H   0  0  0  0  0  0  0  0  0  0  0  0
   -3.4110    1.7869    0.5531 C   0  0  0  0  0  0  0  0  0  0  0  0
   -3.7786    1.1654    1.3853 H   0  0  0  0  0  0  0  0  0  0  0  0
   -0.7511    0.3759    2.1524 C   0  0  0  0  0  0  0  0  0  0  0  0
   -1.5431    0.8999    2.7237 H   0  0  0  0  0  0  0  0  0  0  0  0
   -0.5133   -0.5791    2.6624 H   0  0  0  0  0  0  0  0  0  0  0  0
    0.5181    1.2124    2.0263 C   0  0  0  0  0  0  0  0  0  0  0  0
    0.2640    2.2342    1.6608 H   0  0  0  0  0  0  0  0  0  0  0  0
    0.9692    1.3308    3.0297 H   0  0  0  0  0  0  0  0  0  0  0  0
  1 19  1  0  0  0  0
  1 41  1  0  0  0  0
  3  8  1  0  0  0  0
  3 44  1  0  0  0  0
  4  5  1  0  0  0  0
  4  7  1  0  0  0  0
  6  4  1  0  0  0  0
  8  4  1  0  0  0  0
  9 10  1  0  0  0  0
  9  8  2  0  0  0  0
 10 11  1  0  0  0  0
 12 13  1  0  0  0  0
 12 10  2  0  0  0  0
 14 12  1  0  0  0  0
 15 14  1  0  0  0  0
 16 14  2  0  0  0  0
 16 18  1  0  0  0  0
 17 16  1  0  0  0  0
 18  2  1  6  0  0  0
 18  9  1  0  0  0  0
 19 20  1  0  0  0  0
 20 22  2  0  0  0  0
 20 21  1  0  0  0  0
 22 23  1  0  0  0  0
 24 25  1  0  0  0  0
 24 22  1  0  0  0  0
 26 24  2  0  0  0  0
 27 26  1  0  0  0  0
 28 26  1  0  0  0  0
 28 19  2  0  0  0  0
 29 28  1  0  0  0  0
 30  1  1  0  0  0  0
 30 39  1  0  0  0  0
 31 30  2  0  0  0  0
 32 31  1  0  0  0  0
 33 31  1  0  0  0  0
 33 35  2  0  0  0  0
 34 33  1  0  0  0  0
 35 37  1  0  0  0  0
 36 35  1  0  0  0  0
 37 39  2  0  0  0  0
 37 38  1  0  0  0  0
 39 40  1  0  0  0  0
 41 43  1  0  0  0  0
 41 42  1  0  0  0  0
 44 41  1  0  0  0  0
 44 46  1  0  0  0  0
 45 44  1  0  0  0  0
M  END
