1,2,4
q = -1.0, confidence = 0.016

 51 54  0  0  0  0  0  0  0  0999 V2000
    1.3678    0.5954   -0.0232 P   0  0  0  0  0  0  0  0  0  0  0  0
   -1.8022   -0.0311   -0.7733 O   0  5  0  0  0  0  0  0  0  0  0  0
   -3.9146    1.0527   -1.8226 O   0  0  0  0  0  0  0  0  0  0  0  0
   -0.4317   -0.8295    1.5765 N   0  0  0  0  0  2  0  0  0  0  0  0
   -2.8063    0.1080    0.0274 C   0  0  0  0  0  0  0  0  0  0  0  0
   -4.0172    0.6986   -0.5140 C   0  0  0  0  0  0  0  0  0  0  0  0
   -5.1572    0.8415    0.2734 C   0  0  0  0  0  0  0  0  0  0  0  0
   -5.1474    0.4674    1.6456 C   0  0  0  0  0  0  0  0  0  0  0  0
   -3.9913   -0.0274    2.2177 C   0  0  0  0  0  0  0  0  0  0  0  0
   -2.8070   -0.2202    1.4359 C   0  0  0  0  0  0  0  0  0  0  0  0
   -1.5847   -0.4973    2.1237 C   0  0  0  0  0  3  0  0  0  0  0  0
   -5.0522    1.6081   -2.4467 C   0  0  0  0  0  0  0  0  0  0  0  0
    0.7649   -0.6739    2.3274 C   0  0  0  0  0  0  0  0  0  0  0  0
    0.9604   -1.1734    3.6254 C   0  0  0  0  0  0  0  0  0  0  0  0
    2.1890   -0.9593    4.2718 C   0  0  0  0  0  0  0  0  0  0  0  0
    3.2187   -0.2463    3.6372 C   0  0  0  0  0  0  0  0  0  0  0  0
    3.0256    0.2615    2.3405 C   0  0  0  0  0  0  0  0  0  0  0  0
    1.8049    0.0508    1.6844 C   0  0  0  0  0  0  0  0  0  0  0  0
    2.9690    0.9730   -0.8282 C   0  0  0  0  0  0  0  0  0  0  0  0
    3.3612    2.2967   -1.1103 C   0  0  0  0  0  0  0  0  0  0  0  0
    4.5928    2.5443   -1.7368 C   0  0  0  0  0  0  0  0  0  0  0  0
    5.4379    1.4779   -2.0791 C   0  0  0  0  0  0  0  0  0  0  0  0
    5.0487    0.1574   -1.7977 C   0  0  0  0  0  0  0  0  0  0  0  0
    3.8172   -0.0995   -1.1803 C   0  0  0  0  0  0  0  0  0  0  0  0
    0.5204    2.2062    0.2035 C   0  0  0  0  0  0  0  0  0  0  0  0
   -0.4147    2.6055   -0.7747 C   0  0  0  0  0  0  0  0  0  0  0  0
   -1.1156    3.8101   -0.6177 C   0  0  0  0  0  0  0  0  0  0  0  0
   -0.8897    4.6181    0.5080 C   0  0  0  0  0  0  0  0  0  0  0  0
    0.0392    4.2208    1.4836 C   0  0  0  0  0  0  0  0  0  0  0  0
    0.7411    3.0151    1.3367 C   0  0  0  0  0  0  0  0  0  0  0  0
   -6.0792    1.2526   -0.1606 H   0  0  0  0  0  0  0  0  0  0  0  0
   -6.0594    0.5964    2.2460 H   0  0  0  0  0  0  0  0  0  0  0  0
   -3.9594   -0.2777    3.2895 H   0  0  0  0  0  0  0  0  0  0  0  0
   -1.5911   -0.3144    3.2181 H   0  0  0  0  0  0  0  0  0  0  0  0
   -4.7642    1.8241   -3.4924 H   0  0  0  0  0  0  0  0  0  0  0  0
   -5.9130    0.9008   -2.4481 H   0  0  0  0  0  0  0  0  0  0  0  0
   -5.3766    2.5546   -1.9555 H   0  0  0  0  0  0  0  0  0  0  0  0
    0.1643   -1.7574    4.1106 H   0  0  0  0  0  0  0  0  0  0  0  0
    2.3479   -1.3720    5.2794 H   0  0  0  0  0  0  0  0  0  0  0  0
    4.1813   -0.0956    4.1478 H   0  0  0  0  0  0  0  0  0  0  0  0
    3.8304    0.8118    1.8290 H   0  0  0  0  0  0  0  0  0  0  0  0
    2.6995    3.1337   -0.8419 H   0  0  0  0  0  0  0  0  0  0  0  0
    4.8918    3.5800   -1.9584 H   0  0  0  0  0  0  0  0  0  0  0  0
    6.4026    1.6748   -2.5710 H   0  0  0  0  0  0  0  0  0  0  0  0
    5.7060   -0.6828   -2.0676 H   0  0  0  0  0  0  0  0  0  0  0  0
    3.5165   -1.1361   -0.9682 H   0  0  0  0  0  0  0  0  0  0  0  0
   -0.6255    1.9532   -1.6338 H   0  0  0  0  0  0  0  0  0  0  0  0
   -1.8575    4.1061   -1.3746 H   0  0  0  0  0  0  0  0  0  0  0  0
   -1.4480    5.5586    0.6318 H   0  0  0  0  0  0  0  0  0  0  0  0
    0.2133    4.8499    2.3699 H   0  0  0  0  0  0  0  0  0  0  0  0
    1.4572    2.6948    2.1090 H   0  0  0  0  0  0  0  0  0  0  0  0
  1 25  1  0  0  0  0
  1 18  1  0  0  0  0
  2  5  1  0  0  0  0
  3  6  1  0  0  0  0
  4 11  1  0  0  0  0
  4 13  1  0  0  0  0
  5 10  1  0  0  0  0
  6  5  2  0  0  0  0
  6  7  1  0  0  0  0
  7  8  2  0  0  0  0
  8  9  1  0  0  0  0
  8 32  1  0  0  0  0
  9 33  1  0  0  0  0
 10 11  1  0  0  0  0
 10  9  2  0  0  0  0
 11 34  1  0  0  0  0
 12 37  1  0  0  0  0
 12  3  1  0  0  0  0
 13 14  1  0  0  0  0
 14 38  1  0  0  0  0
 14 15  2  0  0  0  0
 15 39  1  0  0  0  0
 16 40  1  0  0  0  0
 16 15  1  0  0  0  0
 17 16  2  0  0  0  0
 18 13  2  0  0  0  0
 18 17  1  0  0  0  0
 19  1  1  0  0  0  0
 20 42  1  0  0  0  0
 20 19  1  0  0  0  0
 21 20  2  0  0  0  0
 22 23  2  0  0  0  0
 22 21  1  0  0  0  0
 23 24  1  0  0  0  0
 24 46  1  0  0  0  0
 24 19  2  0  0  0  0
 25 30  1  0  0  0  0
 26 27  1  0  0  0  0
 26 25  2  0  0  0  0
 27 28  2  0  0  0  0
 28 49  1  0  0  0  0
 28 29  1  0  0  0  0
 29 50  1  0  0  0  0
 30 29  2  0  0  0  0
 30 51  1  0  0  0  0
 31  7  1  0  0  0  0
 35 12  1  0  0  0  0
 36 12  1  0  0  0  0
 41 17  1  0  0  0  0
 43 21  1  0  0  0  0
 44 22  1  0  0  0  0
 45 23  1  0  0  0  0
 47 26  1  0  0  0  0
 48 27  1  0  0  0  0
M  CHG  1   2  -1
M  END
