1,2,3
 OpenBabel05122313063D

 51 54  0  0  1  0  0  0  0  0999 V2000
    1.5571    0.0586   -0.0010 P   0  0  0  0  0  0  0  0  0  0  0  0
   -2.7158   -1.0314   -0.2203 O   0  0  0  0  0  1  0  0  0  0  0  0
   -1.3961    1.3091   -0.2742 N   0  0  0  0  0  2  0  0  0  0  0  0
   -2.7474    1.2520   -0.1375 N   0  0  0  0  0  0  0  0  0  0  0  0
    1.6749    1.7871   -0.6440 C   0  0  0  0  0  0  0  0  0  0  0  0
    2.9538    2.2254   -1.0384 C   0  0  0  0  0  0  0  0  0  0  0  0
    3.2000    3.5577   -1.4072 C   0  0  0  0  0  0  0  0  0  0  0  0
    2.1557    4.4911   -1.3747 C   0  0  0  0  0  0  0  0  0  0  0  0
    0.8756    4.0730   -1.0013 C   0  0  0  0  0  0  0  0  0  0  0  0
    0.5932    2.7262   -0.6510 C   0  0  0  0  0  0  0  0  0  0  0  0
   -0.8236    2.4705   -0.4027 C   0  0  0  0  0  3  0  0  0  0  0  0
   -3.3828    0.0277   -0.1514 C   0  0  2  0  0  3  0  0  0  0  0  0
   -4.8575    0.0255   -0.0645 C   0  0  0  0  0  0  0  0  0  0  0  0
   -5.6472    1.1545   -0.3845 C   0  0  0  0  0  0  0  0  0  0  0  0
   -7.0409    1.0875   -0.2790 C   0  0  0  0  0  0  0  0  0  0  0  0
   -7.6569   -0.1027    0.1436 C   0  0  0  0  0  0  0  0  0  0  0  0
   -6.8783   -1.2315    0.4506 C   0  0  0  0  0  0  0  0  0  0  0  0
   -7.3628   -2.1635    0.7768 H   0  0  0  0  0  0  0  0  0  0  0  0
   -5.4852   -1.1733    0.3426 C   0  0  0  0  0  0  0  0  0  0  0  0
    2.9076   -0.8455   -0.8377 C   0  0  0  0  0  0  0  0  0  0  0  0
    2.8301   -1.0169   -2.2380 C   0  0  0  0  0  0  0  0  0  0  0  0
    3.8216   -1.7447   -2.9080 C   0  0  0  0  0  0  0  0  0  0  0  0
    3.7646   -1.8709   -3.9995 H   0  0  0  0  0  0  0  0  0  0  0  0
    4.8838   -2.3176   -2.1856 C   0  0  0  0  0  0  0  0  0  0  0  0
    4.9565   -2.1539   -0.7943 C   0  0  0  0  0  0  0  0  0  0  0  0
    5.7865   -2.6020   -0.2282 H   0  0  0  0  0  0  0  0  0  0  0  0
    3.9730   -1.4161   -0.1153 C   0  0  0  0  0  0  0  0  0  0  0  0
    2.0367    0.2084    1.7641 C   0  0  0  0  0  0  0  0  0  0  0  0
    2.7505    1.3223    2.2542 C   0  0  0  0  0  0  0  0  0  0  0  0
    3.1225    1.3713    3.6058 C   0  0  0  0  0  0  0  0  0  0  0  0
    3.6774    2.2424    3.9851 H   0  0  0  0  0  0  0  0  0  0  0  0
    2.7888    0.3165    4.4700 C   0  0  0  0  0  0  0  0  0  0  0  0
    2.0750   -0.7904    3.9831 C   0  0  0  0  0  0  0  0  0  0  0  0
    1.8080   -1.6175    4.6577 H   0  0  0  0  0  0  0  0  0  0  0  0
    1.6908   -0.8491    2.6356 C   0  0  0  0  0  0  0  0  0  0  0  0
    3.7849    1.5046   -1.0469 H   0  0  0  0  0  0  0  0  0  0  0  0
    4.2131    3.8620   -1.7087 H   0  0  0  0  0  0  0  0  0  0  0  0
    2.3336    5.5414   -1.6474 H   0  0  0  0  0  0  0  0  0  0  0  0
    0.0514    4.8032   -0.9967 H   0  0  0  0  0  0  0  0  0  0  0  0
   -1.4656    3.3762   -0.3957 H   0  0  0  0  0  0  0  0  0  0  0  0
   -5.1903    2.0839   -0.7604 H   0  0  0  0  0  0  0  0  0  0  0  0
   -7.6520    1.9640   -0.5390 H   0  0  0  0  0  0  0  0  0  0  0  0
   -8.7529   -0.1515    0.2269 H   0  0  0  0  0  0  0  0  0  0  0  0
   -4.8597   -2.0459    0.5781 H   0  0  0  0  0  0  0  0  0  0  0  0
    1.9939   -0.5735   -2.8027 H   0  0  0  0  0  0  0  0  0  0  0  0
    5.6572   -2.8957   -2.7128 H   0  0  0  0  0  0  0  0  0  0  0  0
    4.0334   -1.2864    0.9754 H   0  0  0  0  0  0  0  0  0  0  0  0
    3.0160    2.1552    1.5877 H   0  0  0  0  0  0  0  0  0  0  0  0
    3.0834    0.3597    5.5292 H   0  0  0  0  0  0  0  0  0  0  0  0
    1.1267   -1.7173    2.2610 H   0  0  0  0  0  0  0  0  0  0  0  0
   -3.2853    2.1207   -0.0304 H   0  0  0  0  0  0  0  0  0  0  0  0
  1 28  1  0  0  0  0
  3  4  1  0  0  0  0
  4 51  1  0  0  0  0
  5  1  1  0  0  0  0
  6  5  2  0  0  0  0
  7  8  2  0  0  0  0
  7  6  1  0  0  0  0
  8  9  1  0  0  0  0
  9 39  1  0  0  0  0
  9 10  2  0  0  0  0
 10  5  1  0  0  0  0
 10 11  1  0  0  0  0
 11 40  1  0  0  0  0
 11  3  1  0  0  0  0
 12  2  1  1  0  0  0
 12  4  1  0  0  0  0
 12 13  1  0  0  0  0
 13 19  1  0  0  0  0
 14 15  1  0  0  0  0
 14 13  2  0  0  0  0
 15 16  2  0  0  0  0
 16 43  1  0  0  0  0
 16 17  1  0  0  0  0
 17 18  1  0  0  0  0
 19 17  2  0  0  0  0
 19 44  1  0  0  0  0
 20 27  1  0  0  0  0
 20  1  1  0  0  0  0
 21 20  2  0  0  0  0
 22 21  1  0  0  0  0
 22 24  2  0  0  0  0
 23 22  1  0  0  0  0
 24 25  1  0  0  0  0
 25 26  1  0  0  0  0
 25 27  2  0  0  0  0
 27 47  1  0  0  0  0
 28 29  2  0  0  0  0
 28 35  1  0  0  0  0
 29 30  1  0  0  0  0
 30 31  1  0  0  0  0
 30 32  2  0  0  0  0
 32 49  1  0  0  0  0
 33 32  1  0  0  0  0
 33 34  1  0  0  0  0
 35 33  2  0  0  0  0
 36  6  1  0  0  0  0
 37  7  1  0  0  0  0
 38  8  1  0  0  0  0
 41 14  1  0  0  0  0
 42 15  1  0  0  0  0
 45 21  1  0  0  0  0
 46 24  1  0  0  0  0
 48 29  1  0  0  0  0
 50 35  1  0  0  0  0
M  END
