1,3,4
 OpenBabel05122313063D

 43 45  0  0  0  0  0  0  0  0999 V2000
   -1.0779   -2.7035   -1.2090 N   0  0  0  0  0  2  0  0  0  0  0  0
   -0.3473   -3.7892   -1.6197 N   0  0  0  0  0  0  0  0  0  0  0  0
    1.5167   -2.5545   -0.9916 O   0  5  0  0  0  0  0  0  0  0  0  0
   -1.7608    0.1832   -0.0470 P   0  0  0  0  0  0  0  0  0  0  0  0
   -3.3699   -0.6552   -0.4363 C   0  0  0  0  0  0  0  0  0  0  0  0
   -4.5537    0.0560   -0.1539 C   0  0  0  0  0  0  0  0  0  0  0  0
   -4.4778    1.0684    0.2699 H   0  0  0  0  0  0  0  0  0  0  0  0
   -5.8208   -0.4836   -0.4040 C   0  0  0  0  0  0  0  0  0  0  0  0
   -6.7241    0.0995   -0.1708 H   0  0  0  0  0  0  0  0  0  0  0  0
   -5.9197   -1.7684   -0.9652 C   0  0  0  0  0  0  0  0  0  0  0  0
   -6.9048   -2.2094   -1.1803 H   0  0  0  0  0  0  0  0  0  0  0  0
   -4.7597   -2.4848   -1.2543 C   0  0  0  0  0  0  0  0  0  0  0  0
   -4.8355   -3.4904   -1.6960 H   0  0  0  0  0  0  0  0  0  0  0  0
   -3.4584   -1.9618   -0.9975 C   0  0  0  0  0  0  0  0  0  0  0  0
   -2.3736   -2.8598   -1.3449 C   0  0  0  0  0  3  0  0  0  0  0  0
    0.9603   -3.6137   -1.4789 C   0  0  0  0  0  0  0  0  0  0  0  0
    1.8657   -4.7279   -1.9293 C   0  0  0  0  0  0  0  0  0  0  0  0
    2.5833   -4.9812   -1.1240 H   0  0  0  0  0  0  0  0  0  0  0  0
    2.4608   -4.3878   -2.8018 H   0  0  0  0  0  0  0  0  0  0  0  0
    1.2802   -5.6194   -2.2142 H   0  0  0  0  0  0  0  0  0  0  0  0
   -1.9502    0.4515    1.7782 C   0  0  0  0  0  0  0  0  0  0  0  0
   -2.6669   -0.4804    2.5584 C   0  0  0  0  0  0  0  0  0  0  0  0
   -3.2102   -1.2997    2.0645 H   0  0  0  0  0  0  0  0  0  0  0  0
   -2.6961   -0.3688    3.9573 C   0  0  0  0  0  0  0  0  0  0  0  0
   -3.2645   -1.1035    4.5488 H   0  0  0  0  0  0  0  0  0  0  0  0
   -2.0196    0.6812    4.6000 C   0  0  0  0  0  0  0  0  0  0  0  0
   -2.0551    0.7760    5.6960 H   0  0  0  0  0  0  0  0  0  0  0  0
   -1.3050    1.6137    3.8315 C   0  0  0  0  0  0  0  0  0  0  0  0
   -0.7683    2.4414    4.3204 H   0  0  0  0  0  0  0  0  0  0  0  0
   -1.2589    1.4926    2.4333 C   0  0  0  0  0  0  0  0  0  0  0  0
   -0.6684    2.2137    1.8502 H   0  0  0  0  0  0  0  0  0  0  0  0
   -2.1507    1.8389   -0.7954 C   0  0  0  0  0  0  0  0  0  0  0  0
   -2.5927    2.9534   -0.0543 C   0  0  0  0  0  0  0  0  0  0  0  0
   -2.6722    2.9021    1.0399 H   0  0  0  0  0  0  0  0  0  0  0  0
   -2.9477    4.1448   -0.7067 C   0  0  0  0  0  0  0  0  0  0  0  0
   -3.2842    5.0079   -0.1120 H   0  0  0  0  0  0  0  0  0  0  0  0
   -2.8795    4.2337   -2.1046 C   0  0  0  0  0  0  0  0  0  0  0  0
   -3.1599    5.1684   -2.6142 H   0  0  0  0  0  0  0  0  0  0  0  0
   -2.4574    3.1198   -2.8489 C   0  0  0  0  0  0  0  0  0  0  0  0
   -2.4043    3.1756   -3.9470 H   0  0  0  0  0  0  0  0  0  0  0  0
   -2.0970    1.9290   -2.2038 C   0  0  0  0  0  0  0  0  0  0  0  0
   -1.7355    1.0667   -2.7858 H   0  0  0  0  0  0  0  0  0  0  0  0
   -2.6683   -3.8315   -1.7801 H   0  0  0  0  0  0  0  0  0  0  0  0
  2 16  2  0  0  0  0
  2  1  1  0  0  0  0
  4 21  1  0  0  0  0
  5  6  1  0  0  0  0
  5  4  1  0  0  0  0
  6  7  1  0  0  0  0
  8  9  1  0  0  0  0
  8  6  2  0  0  0  0
 10  8  1  0  0  0  0
 11 10  1  0  0  0  0
 12 14  1  0  0  0  0
 12 10  2  0  0  0  0
 13 12  1  0  0  0  0
 14  5  2  0  0  0  0
 15  1  1  0  0  0  0
 15 14  1  0  0  0  0
 16  3  1  0  0  0  0
 17 16  1  0  0  0  0
 17 18  1  0  0  0  0
 19 17  1  0  0  0  0
 20 17  1  0  0  0  0
 21 30  2  0  0  0  0
 21 22  1  0  0  0  0
 22 24  2  0  0  0  0
 23 22  1  0  0  0  0
 24 25  1  0  0  0  0
 24 26  1  0  0  0  0
 26 27  1  0  0  0  0
 28 29  1  0  0  0  0
 28 26  2  0  0  0  0
 30 28  1  0  0  0  0
 31 30  1  0  0  0  0
 32 33  1  0  0  0  0
 32  4  1  0  0  0  0
 33 34  1  0  0  0  0
 35 36  1  0  0  0  0
 35 33  2  0  0  0  0
 37 35  1  0  0  0  0
 38 37  1  0  0  0  0
 39 41  1  0  0  0  0
 39 37  2  0  0  0  0
 40 39  1  0  0  0  0
 41 32  2  0  0  0  0
 42 41  1  0  0  0  0
 43 15  1  0  0  0  0
M  CHG  1   3  -1
M  END
