1,2,3
 OpenBabel05122313063D

 47 50  0  0  0  0  0  0  0  0999 V2000
    1.0142    0.1833    0.0605 P   0  0  0  0  0  0  0  0  0  0  0  0
   -2.7867   -1.7625    0.3927 O   0  5  0  0  0  0  0  0  0  0  0  0
   -2.1064    0.7805   -0.3801 N   0  0  0  0  0  2  0  0  0  0  0  0
    0.8904    1.7104   -0.9593 C   0  0  0  0  0  0  0  0  0  0  0  0
    2.0809    2.2626   -1.4735 C   0  0  0  0  0  0  0  0  0  0  0  0
    2.0923    3.4765   -2.1752 C   0  0  0  0  0  0  0  0  0  0  0  0
    0.8846    4.1648   -2.3682 C   0  0  0  0  0  0  0  0  0  0  0  0
   -0.3064    3.6179   -1.8884 C   0  0  0  0  0  0  0  0  0  0  0  0
   -0.3549    2.3754   -1.1951 C   0  0  0  0  0  0  0  0  0  0  0  0
   -1.7053    1.9315   -0.8589 C   0  0  0  0  0  3  0  0  0  0  0  0
   -3.4631    0.4753   -0.1762 C   0  0  0  0  0  0  0  0  0  0  0  0
   -4.5309    1.3961   -0.3280 C   0  0  0  0  0  0  0  0  0  0  0  0
   -5.8513    0.9942   -0.1504 C   0  0  0  0  0  0  0  0  0  0  0  0
   -6.1344   -0.3555    0.1820 C   0  0  0  0  0  0  0  0  0  0  0  0
   -5.1109   -1.2787    0.3487 C   0  0  0  0  0  0  0  0  0  0  0  0
   -3.7391   -0.8972    0.1975 C   0  0  0  0  0  0  0  0  0  0  0  0
    2.4364   -0.7076   -0.6753 C   0  0  0  0  0  0  0  0  0  0  0  0
    2.3416   -1.0921   -2.0304 C   0  0  0  0  0  0  0  0  0  0  0  0
    3.3750   -1.8260   -2.6265 C   0  0  0  0  0  0  0  0  0  0  0  0
    4.4951   -2.2099   -1.8701 C   0  0  0  0  0  0  0  0  0  0  0  0
    4.5787   -1.8547   -0.5149 C   0  0  0  0  0  0  0  0  0  0  0  0
    3.5551   -1.1025    0.0840 C   0  0  0  0  0  0  0  0  0  0  0  0
    1.6162    0.7681    1.7046 C   0  0  0  0  0  0  0  0  0  0  0  0
    1.0962    0.1480    2.8596 C   0  0  0  0  0  0  0  0  0  0  0  0
    1.5433    0.5362    4.1319 C   0  0  0  0  0  0  0  0  0  0  0  0
    2.5054    1.5493    4.2614 C   0  0  0  0  0  0  0  0  0  0  0  0
    3.0190    2.1772    3.1146 C   0  0  0  0  0  0  0  0  0  0  0  0
    2.5775    1.7909    1.8410 C   0  0  0  0  0  0  0  0  0  0  0  0
    3.0252    1.7157   -1.3299 H   0  0  0  0  0  0  0  0  0  0  0  0
    3.0386    3.8783   -2.5666 H   0  0  0  0  0  0  0  0  0  0  0  0
    0.8684    5.1234   -2.9080 H   0  0  0  0  0  0  0  0  0  0  0  0
   -1.2547    4.1491   -2.0660 H   0  0  0  0  0  0  0  0  0  0  0  0
   -2.4762    2.6820   -1.1173 H   0  0  0  0  0  0  0  0  0  0  0  0
   -4.3244    2.4480   -0.5746 H   0  0  0  0  0  0  0  0  0  0  0  0
   -6.6687    1.7214   -0.2616 H   0  0  0  0  0  0  0  0  0  0  0  0
   -7.1801   -0.6732    0.3187 H   0  0  0  0  0  0  0  0  0  0  0  0
   -5.3136   -2.3257    0.6171 H   0  0  0  0  0  0  0  0  0  0  0  0
    1.4522   -0.8138   -2.6166 H   0  0  0  0  0  0  0  0  0  0  0  0
    3.2968   -2.1159   -3.6851 H   0  0  0  0  0  0  0  0  0  0  0  0
    5.3014   -2.7952   -2.3373 H   0  0  0  0  0  0  0  0  0  0  0  0
    5.4500   -2.1608    0.0838 H   0  0  0  0  0  0  0  0  0  0  0  0
    3.6283   -0.8181    1.1442 H   0  0  0  0  0  0  0  0  0  0  0  0
    0.3290   -0.6339    2.7478 H   0  0  0  0  0  0  0  0  0  0  0  0
    1.1300    0.0467    5.0266 H   0  0  0  0  0  0  0  0  0  0  0  0
    2.8519    1.8574    5.2597 H   0  0  0  0  0  0  0  0  0  0  0  0
    3.7665    2.9792    3.2118 H   0  0  0  0  0  0  0  0  0  0  0  0
    2.9775    2.2985    0.9513 H   0  0  0  0  0  0  0  0  0  0  0  0
  1 23  1  0  0  0  0
  3 11  1  0  0  0  0
  4  1  1  0  0  0  0
  5 29  1  0  0  0  0
  5  4  2  0  0  0  0
  6  5  1  0  0  0  0
  7  6  2  0  0  0  0
  7  8  1  0  0  0  0
  8  9  2  0  0  0  0
  9  4  1  0  0  0  0
  9 10  1  0  0  0  0
 10  3  1  0  0  0  0
 11 16  1  0  0  0  0
 12 11  2  0  0  0  0
 12 13  1  0  0  0  0
 13 14  2  0  0  0  0
 14 36  1  0  0  0  0
 14 15  1  0  0  0  0
 15 37  1  0  0  0  0
 16 15  2  0  0  0  0
 16  2  1  0  0  0  0
 17  1  1  0  0  0  0
 17 22  1  0  0  0  0
 18 17  2  0  0  0  0
 19 18  1  0  0  0  0
 19 20  2  0  0  0  0
 20 21  1  0  0  0  0
 21 41  1  0  0  0  0
 21 22  2  0  0  0  0
 22 42  1  0  0  0  0
 23 28  2  0  0  0  0
 23 24  1  0  0  0  0
 24 25  2  0  0  0  0
 25 26  1  0  0  0  0
 25 44  1  0  0  0  0
 26 45  1  0  0  0  0
 27 46  1  0  0  0  0
 27 26  2  0  0  0  0
 28 27  1  0  0  0  0
 30  6  1  0  0  0  0
 31  7  1  0  0  0  0
 32  8  1  0  0  0  0
 33 10  1  0  0  0  0
 34 12  1  0  0  0  0
 35 13  1  0  0  0  0
 38 18  1  0  0  0  0
 39 19  1  0  0  0  0
 40 20  1  0  0  0  0
 43 24  1  0  0  0  0
 47 28  1  0  0  0  0
M  CHG  1   2  -1
M  END
