1,2,7
 OpenBabel05122313063D

 42 44  0  0  0  0  0  0  0  0999 V2000
   -0.5680    0.0177   -0.0653 P   0  0  0  0  0  0  0  0  0  0  0  0
    2.0102    1.5124   -0.3076 N   0  0  0  0  0  2  0  0  0  0  0  0
    3.3506    1.7132   -0.2068 N   0  0  0  0  0  0  0  0  0  0  0  0
    5.3469    0.5454   -0.1917 N   0  0  0  0  0  0  0  0  0  0  0  0
    5.8402   -0.3386   -0.0919 H   0  0  0  0  0  0  0  0  0  0  0  0
    5.8343    1.4280   -0.0598 H   0  0  0  0  0  0  0  0  0  0  0  0
    3.3882   -0.6110   -0.2926 O   0  5  0  0  0  0  0  0  0  0  0  0
    3.9887    0.5304   -0.2259 C   0  0  0  0  0  0  0  0  0  0  0  0
    1.2888    2.6192   -0.3983 C   0  0  0  0  0  3  0  0  0  0  0  0
    1.8843    3.5484   -0.4067 H   0  0  0  0  0  0  0  0  0  0  0  0
   -0.1439    2.7592   -0.5315 C   0  0  0  0  0  0  0  0  0  0  0  0
   -1.1077    1.7066   -0.4733 C   0  0  0  0  0  0  0  0  0  0  0  0
   -2.4730    1.9828   -0.6786 C   0  0  0  0  0  0  0  0  0  0  0  0
   -3.1976    1.1552   -0.6487 H   0  0  0  0  0  0  0  0  0  0  0  0
   -2.9213    3.2887   -0.9174 C   0  0  0  0  0  0  0  0  0  0  0  0
   -3.9918    3.4842   -1.0770 H   0  0  0  0  0  0  0  0  0  0  0  0
   -1.9873    4.3401   -0.9484 C   0  0  0  0  0  0  0  0  0  0  0  0
   -2.3224    5.3726   -1.1301 H   0  0  0  0  0  0  0  0  0  0  0  0
   -0.6300    4.0780   -0.7600 C   0  0  0  0  0  0  0  0  0  0  0  0
    0.0976    4.9033   -0.8000 H   0  0  0  0  0  0  0  0  0  0  0  0
   -0.9905   -0.2133    1.7060 C   0  0  0  0  0  0  0  0  0  0  0  0
   -1.4792    0.8371    2.5065 C   0  0  0  0  0  0  0  0  0  0  0  0
   -1.6507    1.8307    2.0665 H   0  0  0  0  0  0  0  0  0  0  0  0
   -1.7502    0.6108    3.8656 C   0  0  0  0  0  0  0  0  0  0  0  0
   -2.1316    1.4342    4.4885 H   0  0  0  0  0  0  0  0  0  0  0  0
   -1.5382   -0.6577    4.4265 C   0  0  0  0  0  0  0  0  0  0  0  0
   -1.7531   -0.8315    5.4918 H   0  0  0  0  0  0  0  0  0  0  0  0
   -1.0468   -1.7052    3.6278 C   0  0  0  0  0  0  0  0  0  0  0  0
   -0.8741   -2.6999    4.0659 H   0  0  0  0  0  0  0  0  0  0  0  0
   -0.7650   -1.4869    2.2734 C   0  0  0  0  0  0  0  0  0  0  0  0
   -0.3604   -2.2932    1.6411 H   0  0  0  0  0  0  0  0  0  0  0  0
   -1.6971   -1.0949   -0.9770 C   0  0  0  0  0  0  0  0  0  0  0  0
   -2.9205   -1.5277   -0.4291 C   0  0  0  0  0  0  0  0  0  0  0  0
   -3.1975   -1.2386    0.5961 H   0  0  0  0  0  0  0  0  0  0  0  0
   -3.7783   -2.3387   -1.1886 C   0  0  0  0  0  0  0  0  0  0  0  0
   -4.7333   -2.6762   -0.7580 H   0  0  0  0  0  0  0  0  0  0  0  0
   -3.4151   -2.7240   -2.4884 C   0  0  0  0  0  0  0  0  0  0  0  0
   -4.0869   -3.3644   -3.0801 H   0  0  0  0  0  0  0  0  0  0  0  0
   -2.1884   -2.3041   -3.0294 C   0  0  0  0  0  0  0  0  0  0  0  0
   -1.8942   -2.6199   -4.0416 H   0  0  0  0  0  0  0  0  0  0  0  0
   -1.3270   -1.4960   -2.2760 C   0  0  0  0  0  0  0  0  0  0  0  0
   -0.3507   -1.1886   -2.6793 H   0  0  0  0  0  0  0  0  0  0  0  0
  1 21  1  0  0  0  0
  2  3  1  0  0  0  0
  4  5  1  0  0  0  0
  4  6  1  0  0  0  0
  7  8  1  0  0  0  0
  8  3  2  0  0  0  0
  8  4  1  0  0  0  0
  9  2  1  0  0  0  0
 10  9  1  0  0  0  0
 11 12  1  0  0  0  0
 11  9  1  0  0  0  0
 12  1  1  0  0  0  0
 13 14  1  0  0  0  0
 13 12  2  0  0  0  0
 15 13  1  0  0  0  0
 16 15  1  0  0  0  0
 17 15  2  0  0  0  0
 17 19  1  0  0  0  0
 18 17  1  0  0  0  0
 19 11  2  0  0  0  0
 20 19  1  0  0  0  0
 21 30  2  0  0  0  0
 21 22  1  0  0  0  0
 22 24  2  0  0  0  0
 23 22  1  0  0  0  0
 24 26  1  0  0  0  0
 24 25  1  0  0  0  0
 26 27  1  0  0  0  0
 28 29  1  0  0  0  0
 28 26  2  0  0  0  0
 30 28  1  0  0  0  0
 31 30  1  0  0  0  0
 32 33  1  0  0  0  0
 32  1  1  0  0  0  0
 33 34  1  0  0  0  0
 35 36  1  0  0  0  0
 35 33  2  0  0  0  0
 37 35  1  0  0  0  0
 38 37  1  0  0  0  0
 39 37  2  0  0  0  0
 39 41  1  0  0  0  0
 40 39  1  0  0  0  0
 41 32  2  0  0  0  0
 42 41  1  0  0  0  0
M  CHG  1   7  -1
M  END
