1,15,20
 OpenBabel05122313063D

 42 45  0  0  1  0  0  0  0  0999 V2000
    2.4745   -1.1783   -1.6302 O   0  5  0  0  0  0  0  0  0  0  0  0
    3.4139   -0.7075   -0.8509 C   0  0  0  0  0  0  0  0  0  0  0  0
    4.7997   -0.7894   -1.1203 C   0  0  0  0  0  0  0  0  0  0  0  0
    5.1233   -1.2837   -2.0477 H   0  0  0  0  0  0  0  0  0  0  0  0
    5.7447   -0.2458   -0.2221 C   0  0  0  0  0  0  0  0  0  0  0  0
    6.8132   -0.3310   -0.4764 H   0  0  0  0  0  0  0  0  0  0  0  0
    5.3833    0.3935    0.9682 C   0  0  0  0  0  0  0  0  0  0  0  0
    6.1427    0.8097    1.6456 H   0  0  0  0  0  0  0  0  0  0  0  0
    4.0069    0.5007    1.2973 C   0  0  0  0  0  0  0  0  0  0  0  0
    3.4724    1.1218    2.4636 C   0  0  0  0  0  0  0  0  0  0  0  0
    4.1622    1.5734    3.1939 H   0  0  0  0  0  0  0  0  0  0  0  0
    2.1006    1.1578    2.6886 C   0  0  0  0  0  0  0  0  0  0  0  0
    1.6916    1.6267    3.5951 H   0  0  0  0  0  0  0  0  0  0  0  0
    1.2115    0.5718    1.7477 C   0  0  0  0  0  0  0  0  0  0  0  0
    1.7065    0.0056    0.6331 N   0  0  0  0  0  2  0  0  0  0  0  0
    3.0478   -0.0525    0.3852 C   0  0  2  0  0  3  0  0  0  0  0  0
   -0.2796    0.4819    1.9371 C   0  0  0  0  0  0  0  0  0  0  0  0
   -0.7129    1.3953    2.3937 H   0  0  0  0  0  0  0  0  0  0  0  0
   -0.5251   -0.3634    2.6166 H   0  0  0  0  0  0  0  0  0  0  0  0
   -1.1130    0.0564    0.2993 P   0  0  0  0  0  0  0  0  0  0  0  0
   -2.5748   -0.9331    0.8074 C   0  0  0  0  0  0  0  0  0  0  0  0
   -2.5770   -2.3159    0.5412 C   0  0  0  0  0  0  0  0  0  0  0  0
   -1.7246   -2.7569   -0.0001 H   0  0  0  0  0  0  0  0  0  0  0  0
   -3.6537   -3.1108    0.9642 C   0  0  0  0  0  0  0  0  0  0  0  0
   -3.6536   -4.1899    0.7486 H   0  0  0  0  0  0  0  0  0  0  0  0
   -4.7274   -2.5296    1.6563 C   0  0  0  0  0  0  0  0  0  0  0  0
   -5.5724   -3.1533    1.9858 H   0  0  0  0  0  0  0  0  0  0  0  0
   -4.7274   -1.1503    1.9261 C   0  0  0  0  0  0  0  0  0  0  0  0
   -5.5702   -0.6937    2.4670 H   0  0  0  0  0  0  0  0  0  0  0  0
   -3.6562   -0.3511    1.5026 C   0  0  0  0  0  0  0  0  0  0  0  0
   -3.6648    0.7318    1.7026 H   0  0  0  0  0  0  0  0  0  0  0  0
   -1.8251    1.6472   -0.2857 C   0  0  0  0  0  0  0  0  0  0  0  0
   -2.9898    1.6491   -1.0815 C   0  0  0  0  0  0  0  0  0  0  0  0
   -3.5198    0.7054   -1.2827 H   0  0  0  0  0  0  0  0  0  0  0  0
   -3.4755    2.8508   -1.6168 C   0  0  0  0  0  0  0  0  0  0  0  0
   -4.3863    2.8422   -2.2347 H   0  0  0  0  0  0  0  0  0  0  0  0
   -2.8033    4.0582   -1.3690 C   0  0  0  0  0  0  0  0  0  0  0  0
   -3.1861    4.9999   -1.7906 H   0  0  0  0  0  0  0  0  0  0  0  0
   -1.6363    4.0595   -0.5881 C   0  0  0  0  0  0  0  0  0  0  0  0
   -1.0994    5.0012   -0.3981 H   0  0  0  0  0  0  0  0  0  0  0  0
   -1.1444    2.8602   -0.0530 C   0  0  0  0  0  0  0  0  0  0  0  0
   -0.2142    2.8713    0.5361 H   0  0  0  0  0  0  0  0  0  0  0  0
  1  2  1  0  0  0  0
  3  2  2  0  0  0  0
  3  5  1  0  0  0  0
  4  3  1  0  0  0  0
  5  7  2  0  0  0  0
  6  5  1  0  0  0  0
  7  9  1  0  0  0  0
  7  8  1  0  0  0  0
  9 10  2  0  0  0  0
 10 12  1  0  0  0  0
 10 11  1  0  0  0  0
 12 13  1  0  0  0  0
 14 17  1  0  0  0  0
 14 12  2  0  0  0  0
 15 14  1  0  0  0  0
 16  2  1  1  0  0  0
 16 15  1  0  0  0  0
 16  9  1  0  0  0  0
 17 18  1  0  0  0  0
 17 19  1  0  0  0  0
 20 21  1  0  0  0  0
 20 17  1  0  0  0  0
 21 30  1  0  0  0  0
 22 21  2  0  0  0  0
 22 24  1  0  0  0  0
 23 22  1  0  0  0  0
 24 26  2  0  0  0  0
 25 24  1  0  0  0  0
 26 28  1  0  0  0  0
 26 27  1  0  0  0  0
 28 29  1  0  0  0  0
 30 31  1  0  0  0  0
 30 28  2  0  0  0  0
 32 41  1  0  0  0  0
 32 20  1  0  0  0  0
 33 32  2  0  0  0  0
 34 33  1  0  0  0  0
 35 37  2  0  0  0  0
 35 33  1  0  0  0  0
 36 35  1  0  0  0  0
 37 39  1  0  0  0  0
 38 37  1  0  0  0  0
 39 40  1  0  0  0  0
 39 41  2  0  0  0  0
 41 42  1  0  0  0  0
M  CHG  1   1  -1
M  END
