2,3,4
 OpenBabel05122313063D

 47 50  0  0  1  0  0  0  0  0999 V2000
   -7.6487   -0.4714    0.1198 Br  0  0  0  0  0  0  0  0  0  0  0  0
    1.5753   -1.6868   -0.0002 P   0  0  0  0  0  0  0  0  0  0  0  0
   -1.2915   -1.9926   -0.4771 N   0  0  0  0  0  2  0  0  0  0  0  0
   -1.7906    0.9446   -0.4422 O   0  0  0  0  0  1  0  0  0  0  0  0
    4.2630   -1.9845   -0.8791 C   0  0  0  0  0  0  0  0  0  0  0  0
    2.9766   -1.4742   -1.1474 C   0  0  0  0  0  0  0  0  0  0  0  0
    2.7207   -0.8122   -2.3675 C   0  0  0  0  0  0  0  0  0  0  0  0
    3.7495   -0.6470   -3.3043 C   0  0  0  0  0  0  0  0  0  0  0  0
    5.0362   -1.1401   -3.0282 C   0  0  0  0  0  0  0  0  0  0  0  0
    5.2891   -1.8106   -1.8204 C   0  0  0  0  0  0  0  0  0  0  0  0
    2.2073   -1.9339    1.6925 C   0  0  0  0  0  0  0  0  0  0  0  0
    3.3235   -1.2216    2.1794 C   0  0  0  0  0  0  0  0  0  0  0  0
    3.7211   -1.3793    3.5150 C   0  0  0  0  0  0  0  0  0  0  0  0
    3.0085   -2.2321    4.3718 C   0  0  0  0  0  0  0  0  0  0  0  0
    1.8909   -2.9350    3.8912 C   0  0  0  0  0  0  0  0  0  0  0  0
    1.4879   -2.7891    2.5575 C   0  0  0  0  0  0  0  0  0  0  0  0
    0.7789   -3.2652   -0.4700 C   0  0  0  0  0  0  0  0  0  0  0  0
    1.5085   -4.4545   -0.6347 C   0  0  0  0  0  0  0  0  0  0  0  0
    0.8562   -5.6261   -1.0388 C   0  0  0  0  0  0  0  0  0  0  0  0
   -0.5263   -5.5911   -1.2907 C   0  0  0  0  0  0  0  0  0  0  0  0
   -1.2597   -4.4101   -1.1271 C   0  0  0  0  0  0  0  0  0  0  0  0
   -0.6194   -3.2277   -0.6896 C   0  0  0  0  0  0  0  0  0  0  0  0
   -2.6100   -1.9513   -0.3809 C   0  0  0  0  0  0  0  0  0  0  0  0
   -3.4695   -0.8197   -0.2697 C   0  0  0  0  0  0  0  0  0  0  0  0
   -4.8682   -1.1012   -0.1330 C   0  0  0  0  0  0  0  0  0  0  0  0
   -5.8016   -0.0818   -0.0682 C   0  0  0  0  0  0  0  0  0  0  0  0
   -5.3771    1.2726   -0.1477 C   0  0  0  0  0  0  0  0  0  0  0  0
   -4.0325    1.5777   -0.2847 C   0  0  0  0  0  0  0  0  0  0  0  0
   -3.0291    0.5594   -0.3378 C   0  0  1  0  0  3  0  0  0  0  0  0
    1.7160   -0.4083   -2.5706 H   0  0  0  0  0  0  0  0  0  0  0  0
    3.5465   -0.1241   -4.2506 H   0  0  0  0  0  0  0  0  0  0  0  0
    5.8460   -1.0041   -3.7607 H   0  0  0  0  0  0  0  0  0  0  0  0
    6.2945   -2.2035   -1.6074 H   0  0  0  0  0  0  0  0  0  0  0  0
    4.4699   -2.5071    0.0664 H   0  0  0  0  0  0  0  0  0  0  0  0
    3.8874   -0.5478    1.5209 H   0  0  0  0  0  0  0  0  0  0  0  0
    4.5963   -0.8248    3.8846 H   0  0  0  0  0  0  0  0  0  0  0  0
    3.3253   -2.3524    5.4186 H   0  0  0  0  0  0  0  0  0  0  0  0
    1.3311   -3.6068    4.5586 H   0  0  0  0  0  0  0  0  0  0  0  0
    0.6166   -3.3477    2.1835 H   0  0  0  0  0  0  0  0  0  0  0  0
    2.5950   -4.4574   -0.4593 H   0  0  0  0  0  0  0  0  0  0  0  0
    1.4245   -6.5568   -1.1785 H   0  0  0  0  0  0  0  0  0  0  0  0
   -1.0436   -6.4980   -1.6374 H   0  0  0  0  0  0  0  0  0  0  0  0
   -2.3311   -4.4125   -1.3697 H   0  0  0  0  0  0  0  0  0  0  0  0
   -3.1387   -2.9227   -0.3827 H   0  0  0  0  0  0  0  0  0  0  0  0
   -5.1972   -2.1498   -0.0827 H   0  0  0  0  0  0  0  0  0  0  0  0
   -6.1246    2.0777   -0.0960 H   0  0  0  0  0  0  0  0  0  0  0  0
   -3.6893    2.6207   -0.3382 H   0  0  0  0  0  0  0  0  0  0  0  0
  2 11  1  0  0  0  0
  3 23  1  0  0  0  0
  5 34  1  0  0  0  0
  6  5  1  0  0  0  0
  6  2  1  0  0  0  0
  7  6  2  0  0  0  0
  8  9  2  0  0  0  0
  8  7  1  0  0  0  0
  9 10  1  0  0  0  0
 10 33  1  0  0  0  0
 10  5  2  0  0  0  0
 11 12  2  0  0  0  0
 11 16  1  0  0  0  0
 12 13  1  0  0  0  0
 13 36  1  0  0  0  0
 13 14  2  0  0  0  0
 14 37  1  0  0  0  0
 15 14  1  0  0  0  0
 15 38  1  0  0  0  0
 16 15  2  0  0  0  0
 17  2  1  0  0  0  0
 18 17  1  0  0  0  0
 18 40  1  0  0  0  0
 19 18  2  0  0  0  0
 20 21  2  0  0  0  0
 20 19  1  0  0  0  0
 21 22  1  0  0  0  0
 22  3  1  0  0  0  0
 22 17  2  0  0  0  0
 23 24  2  0  0  0  0
 24 25  1  0  0  0  0
 25 45  1  0  0  0  0
 25 26  2  0  0  0  0
 26  1  1  0  0  0  0
 27 46  1  0  0  0  0
 27 26  1  0  0  0  0
 28 27  2  0  0  0  0
 29  4  1  1  0  0  0
 29 28  1  0  0  0  0
 29 24  1  0  0  0  0
 30  7  1  0  0  0  0
 31  8  1  0  0  0  0
 32  9  1  0  0  0  0
 35 12  1  0  0  0  0
 39 16  1  0  0  0  0
 41 19  1  0  0  0  0
 42 20  1  0  0  0  0
 43 21  1  0  0  0  0
 44 23  1  0  0  0  0
 47 28  1  0  0  0  0
M  END
