1,2,4
 OpenBabel05122313063D

 51 54  0  0  1  0  0  0  0  0999 V2000
   -1.6987    0.2132    0.0400 P   0  0  0  0  0  0  0  0  0  0  0  0
    1.0743    1.0255   -0.1982 N   0  0  0  0  0  2  0  0  0  0  0  0
    7.1663    0.2899    0.2376 O   0  0  0  0  0  0  0  0  0  0  0  0
    2.0665   -1.7908   -0.2184 O   0  0  0  0  0  1  0  0  0  0  0  0
   -2.5050    0.1403    1.6821 C   0  0  0  0  0  0  0  0  0  0  0  0
   -2.7623    1.2875    2.4575 C   0  0  0  0  0  0  0  0  0  0  0  0
   -3.3858    1.1573    3.7089 C   0  0  0  0  0  0  0  0  0  0  0  0
   -3.7491   -0.1105    4.1876 C   0  0  0  0  0  0  0  0  0  0  0  0
   -3.4787   -1.2555    3.4186 C   0  0  0  0  0  0  0  0  0  0  0  0
   -2.8539   -1.1383    2.1702 C   0  0  0  0  0  0  0  0  0  0  0  0
   -3.0219   -0.1441   -1.1686 C   0  0  0  0  0  0  0  0  0  0  0  0
   -4.3763    0.1016   -0.8672 C   0  0  0  0  0  0  0  0  0  0  0  0
   -5.3600   -0.1380   -1.8388 C   0  0  0  0  0  0  0  0  0  0  0  0
   -4.9959   -0.6274   -3.1033 C   0  0  0  0  0  0  0  0  0  0  0  0
   -3.6463   -0.8832   -3.3980 C   0  0  0  0  0  0  0  0  0  0  0  0
   -2.6574   -0.6467   -2.4337 C   0  0  0  0  0  0  0  0  0  0  0  0
   -1.1901    1.9437   -0.2565 C   0  0  0  0  0  0  0  0  0  0  0  0
   -2.0938    3.0029   -0.4392 C   0  0  0  0  0  0  0  0  0  0  0  0
   -1.6258    4.2976   -0.7021 C   0  0  0  0  0  0  0  0  0  0  0  0
   -0.2413    4.5129   -0.8018 C   0  0  0  0  0  0  0  0  0  0  0  0
    0.6675    3.4598   -0.6415 C   0  0  0  0  0  0  0  0  0  0  0  0
    0.2123    2.1518   -0.3518 C   0  0  0  0  0  0  0  0  0  0  0  0
    2.3875    1.2034   -0.0808 C   0  0  0  0  0  0  0  0  0  0  0  0
    3.4235    0.2331   -0.0268 C   0  0  0  0  0  0  0  0  0  0  0  0
    4.7631    0.7445    0.1053 C   0  0  0  0  0  0  0  0  0  0  0  0
    5.8627   -0.0998    0.1174 C   0  0  0  0  0  0  0  0  0  0  0  0
    7.4269    1.6705    0.3670 C   0  0  0  0  0  0  0  0  0  0  0  0
    5.6564   -1.5074   -0.0107 C   0  0  0  0  0  0  0  0  0  0  0  0
    4.3874   -2.0324   -0.1358 C   0  0  0  0  0  0  0  0  0  0  0  0
    3.2154   -1.2000   -0.1332 C   0  0  1  0  0  3  0  0  0  0  0  0
   -2.4701    2.2822    2.0904 H   0  0  0  0  0  0  0  0  0  0  0  0
   -3.5844    2.0551    4.3139 H   0  0  0  0  0  0  0  0  0  0  0  0
   -4.2366   -0.2087    5.1695 H   0  0  0  0  0  0  0  0  0  0  0  0
   -3.7468   -2.2527    3.7991 H   0  0  0  0  0  0  0  0  0  0  0  0
   -2.6010   -2.0318    1.5747 H   0  0  0  0  0  0  0  0  0  0  0  0
   -4.6620    0.4646    0.1321 H   0  0  0  0  0  0  0  0  0  0  0  0
   -6.4183    0.0505   -1.6025 H   0  0  0  0  0  0  0  0  0  0  0  0
   -5.7704   -0.8215   -3.8609 H   0  0  0  0  0  0  0  0  0  0  0  0
   -3.3620   -1.2822   -4.3833 H   0  0  0  0  0  0  0  0  0  0  0  0
   -1.5987   -0.8641   -2.6431 H   0  0  0  0  0  0  0  0  0  0  0  0
   -3.1754    2.8021   -0.3942 H   0  0  0  0  0  0  0  0  0  0  0  0
   -2.3331    5.1263   -0.8510 H   0  0  0  0  0  0  0  0  0  0  0  0
    0.1430    5.5177   -1.0336 H   0  0  0  0  0  0  0  0  0  0  0  0
    1.7373    3.6650   -0.7788 H   0  0  0  0  0  0  0  0  0  0  0  0
    2.7381    2.2480   -0.0167 H   0  0  0  0  0  0  0  0  0  0  0  0
    4.8868    1.8333    0.1896 H   0  0  0  0  0  0  0  0  0  0  0  0
    7.0765    2.2451   -0.5215 H   0  0  0  0  0  0  0  0  0  0  0  0
    8.5238    1.7808    0.4555 H   0  0  0  0  0  0  0  0  0  0  0  0
    6.9455    2.1012    1.2754 H   0  0  0  0  0  0  0  0  0  0  0  0
    6.5440   -2.1580   -0.0038 H   0  0  0  0  0  0  0  0  0  0  0  0
    4.2208   -3.1149   -0.2284 H   0  0  0  0  0  0  0  0  0  0  0  0
  1  5  1  0  0  0  0
  2 23  1  0  0  0  0
  3 27  1  0  0  0  0
  5 10  2  0  0  0  0
  5  6  1  0  0  0  0
  6  7  2  0  0  0  0
  7  8  1  0  0  0  0
  7 32  1  0  0  0  0
  8 33  1  0  0  0  0
  9 34  1  0  0  0  0
  9  8  2  0  0  0  0
 10  9  1  0  0  0  0
 11 12  1  0  0  0  0
 11  1  1  0  0  0  0
 12 36  1  0  0  0  0
 13 37  1  0  0  0  0
 13 12  2  0  0  0  0
 14 13  1  0  0  0  0
 15 14  2  0  0  0  0
 15 16  1  0  0  0  0
 16 11  2  0  0  0  0
 17  1  1  0  0  0  0
 18 41  1  0  0  0  0
 18 17  2  0  0  0  0
 19 18  1  0  0  0  0
 20 19  2  0  0  0  0
 20 21  1  0  0  0  0
 21 22  2  0  0  0  0
 22 17  1  0  0  0  0
 22  2  1  0  0  0  0
 23 24  2  0  0  0  0
 23 45  1  0  0  0  0
 24 25  1  0  0  0  0
 25 26  2  0  0  0  0
 25 46  1  0  0  0  0
 26  3  1  0  0  0  0
 27 48  1  0  0  0  0
 27 49  1  0  0  0  0
 28 50  1  0  0  0  0
 28 26  1  0  0  0  0
 29 30  1  0  0  0  0
 29 28  2  0  0  0  0
 30  4  1  1  0  0  0
 30 24  1  0  0  0  0
 31  6  1  0  0  0  0
 35 10  1  0  0  0  0
 38 14  1  0  0  0  0
 39 15  1  0  0  0  0
 40 16  1  0  0  0  0
 42 19  1  0  0  0  0
 43 20  1  0  0  0  0
 44 21  1  0  0  0  0
 47 27  1  0  0  0  0
 51 29  1  0  0  0  0
M  END
