1,2,4
 OpenBabel05122313063D

 43 45  0  0  0  0  0  0  0  0999 V2000
   -1.8436   -0.5086   -0.0360 P   0  0  0  0  0  0  0  0  0  0  0  0
    1.2597    2.4778   -0.5679 O   0  0  0  0  0  1  0  0  0  0  0  0
   -3.2550    3.7473   -0.5027 O   0  0  0  0  0  0  0  0  0  0  0  0
   -1.2986    2.5690   -0.5789 N   0  0  0  0  0  2  0  0  0  0  0  0
   -2.6170    2.7427   -0.1699 C   0  0  0  0  0  0  0  0  0  0  0  0
    0.7432    3.8129   -0.4921 C   0  0  0  0  0  0  0  0  0  0  0  0
    1.4322    4.4857   -1.0474 H   0  0  0  0  0  0  0  0  0  0  0  0
    0.7284    4.1240    0.5771 H   0  0  0  0  0  0  0  0  0  0  0  0
   -0.6619    3.8218   -1.0739 C   0  0  0  0  0  0  0  0  0  0  0  0
   -0.6352    3.8184   -2.1863 H   0  0  0  0  0  0  0  0  0  0  0  0
   -1.2644    4.6934   -0.7557 H   0  0  0  0  0  0  0  0  0  0  0  0
   -2.9874    0.4216    1.0526 C   0  0  0  0  0  0  0  0  0  0  0  0
   -2.8989   -0.9798   -1.4749 C   0  0  0  0  0  0  0  0  0  0  0  0
   -1.6153   -2.0987    0.8668 C   0  0  0  0  0  0  0  0  0  0  0  0
   -3.6966   -0.2785    2.0511 C   0  0  0  0  0  0  0  0  0  0  0  0
   -3.4953   -1.3466    2.2096 H   0  0  0  0  0  0  0  0  0  0  0  0
   -4.6574    0.3648    2.8405 C   0  0  0  0  0  0  0  0  0  0  0  0
   -5.1894   -0.1991    3.6214 H   0  0  0  0  0  0  0  0  0  0  0  0
   -4.9355    1.7210    2.6205 C   0  0  0  0  0  0  0  0  0  0  0  0
   -5.6892    2.2422    3.2298 H   0  0  0  0  0  0  0  0  0  0  0  0
   -4.2504    2.4145    1.6188 C   0  0  0  0  0  0  0  0  0  0  0  0
   -4.4604    3.4731    1.4134 H   0  0  0  0  0  0  0  0  0  0  0  0
   -3.2565    1.7944    0.8280 C   0  0  0  0  0  0  0  0  0  0  0  0
   -4.2904   -0.7608   -1.4671 C   0  0  0  0  0  0  0  0  0  0  0  0
   -4.7663   -0.2710   -0.6055 H   0  0  0  0  0  0  0  0  0  0  0  0
   -5.0711   -1.1648   -2.5617 C   0  0  0  0  0  0  0  0  0  0  0  0
   -6.1561   -0.9813   -2.5503 H   0  0  0  0  0  0  0  0  0  0  0  0
   -4.4736   -1.7955   -3.6629 C   0  0  0  0  0  0  0  0  0  0  0  0
   -5.0885   -2.1099   -4.5198 H   0  0  0  0  0  0  0  0  0  0  0  0
   -3.0863   -2.0164   -3.6731 C   0  0  0  0  0  0  0  0  0  0  0  0
   -2.6093   -2.5019   -4.5378 H   0  0  0  0  0  0  0  0  0  0  0  0
   -2.2999   -1.6050   -2.5889 C   0  0  0  0  0  0  0  0  0  0  0  0
   -1.2105   -1.7536   -2.6164 H   0  0  0  0  0  0  0  0  0  0  0  0
   -2.2200   -3.2919    0.4253 C   0  0  0  0  0  0  0  0  0  0  0  0
   -2.8052   -3.3049   -0.5053 H   0  0  0  0  0  0  0  0  0  0  0  0
   -2.0894   -4.4659    1.1847 C   0  0  0  0  0  0  0  0  0  0  0  0
   -2.5669   -5.3944    0.8361 H   0  0  0  0  0  0  0  0  0  0  0  0
   -1.3651   -4.4521    2.3856 C   0  0  0  0  0  0  0  0  0  0  0  0
   -1.2681   -5.3724    2.9816 H   0  0  0  0  0  0  0  0  0  0  0  0
   -0.7595   -3.2624    2.8240 C   0  0  0  0  0  0  0  0  0  0  0  0
   -0.1825   -3.2488    3.7605 H   0  0  0  0  0  0  0  0  0  0  0  0
   -0.8756   -2.0881    2.0701 C   0  0  0  0  0  0  0  0  0  0  0  0
   -0.4040   -1.1483    2.3959 H   0  0  0  0  0  0  0  0  0  0  0  0
  1 14  1  0  0  0  0
  1 12  1  0  0  0  0
  2  6  1  0  0  0  0
  3  5  2  0  0  0  0
  4  5  1  0  0  0  0
  5 23  1  0  0  0  0
  6  8  1  0  0  0  0
  7  6  1  0  0  0  0
  9 11  1  0  0  0  0
  9  4  1  0  0  0  0
  9  6  1  0  0  0  0
 10  9  1  0  0  0  0
 12 15  1  0  0  0  0
 13 24  1  0  0  0  0
 13  1  1  0  0  0  0
 14 42  1  0  0  0  0
 15 16  1  0  0  0  0
 15 17  2  0  0  0  0
 17 18  1  0  0  0  0
 19 17  1  0  0  0  0
 19 20  1  0  0  0  0
 21 19  2  0  0  0  0
 22 21  1  0  0  0  0
 23 12  2  0  0  0  0
 23 21  1  0  0  0  0
 24 25  1  0  0  0  0
 26 27  1  0  0  0  0
 26 24  2  0  0  0  0
 28 26  1  0  0  0  0
 29 28  1  0  0  0  0
 30 28  2  0  0  0  0
 30 32  1  0  0  0  0
 31 30  1  0  0  0  0
 32 13  2  0  0  0  0
 33 32  1  0  0  0  0
 34 14  2  0  0  0  0
 34 36  1  0  0  0  0
 35 34  1  0  0  0  0
 36 38  2  0  0  0  0
 37 36  1  0  0  0  0
 38 40  1  0  0  0  0
 38 39  1  0  0  0  0
 40 41  1  0  0  0  0
 42 43  1  0  0  0  0
 42 40  2  0  0  0  0
M  END
