1,2,3
 OpenBabel05122313063D

 56 59  0  0  1  0  0  0  0  0999 V2000
   -1.8309   -0.5319   -0.2951 P   0  0  0  0  0  0  0  0  0  0  0  0
    1.0946    2.6004   -0.2898 O   0  0  0  0  0  1  0  0  0  0  0  0
    1.2670   -0.1793   -0.8837 N   0  0  0  0  0  2  0  0  0  0  0  0
    2.4834   -0.0234   -0.3806 C   0  0  0  0  0  0  0  0  0  0  0  0
    2.9346    1.1367    0.3631 C   0  0  0  0  0  0  0  0  0  0  0  0
   -1.8937   -2.5541    1.7247 C   0  0  0  0  0  0  0  0  0  0  0  0
   -1.7538   -3.3024    0.9309 H   0  0  0  0  0  0  0  0  0  0  0  0
   -1.4137   -1.9771   -1.3702 C   0  0  0  0  0  0  0  0  0  0  0  0
   -2.0699   -2.8322   -1.1056 H   0  0  0  0  0  0  0  0  0  0  0  0
   -1.7197   -1.6573   -2.3888 H   0  0  0  0  0  0  0  0  0  0  0  0
    0.0700   -2.3546   -1.3612 C   0  0  0  0  0  0  0  0  0  0  0  0
    0.2106   -3.2329   -2.0263 H   0  0  0  0  0  0  0  0  0  0  0  0
    0.3907   -2.6781   -0.3491 H   0  0  0  0  0  0  0  0  0  0  0  0
   -1.9700   -1.1807    1.4164 C   0  0  0  0  0  0  0  0  0  0  0  0
    2.2481    2.4148    0.2704 C   0  0  1  0  0  3  0  0  0  0  0  0
    1.0049   -1.2423   -1.8586 C   0  0  0  0  0  0  0  0  0  0  0  0
    1.9608   -1.6979   -2.1813 H   0  0  0  0  0  0  0  0  0  0  0  0
    0.5567   -0.7648   -2.7569 H   0  0  0  0  0  0  0  0  0  0  0  0
    3.5068   -1.0986   -0.6187 C   0  0  0  0  0  0  0  0  0  0  0  0
    2.9171    3.5619    0.8139 C   0  0  0  0  0  0  0  0  0  0  0  0
    2.4035    4.5270    0.6982 H   0  0  0  0  0  0  0  0  0  0  0  0
    4.1682    1.0702    1.0817 C   0  0  0  0  0  0  0  0  0  0  0  0
    4.6644    0.0943    1.1822 H   0  0  0  0  0  0  0  0  0  0  0  0
    4.5923   -0.8782   -1.4906 C   0  0  0  0  0  0  0  0  0  0  0  0
    4.6827    0.0929   -2.0000 H   0  0  0  0  0  0  0  0  0  0  0  0
    4.1178    3.4503    1.4983 C   0  0  0  0  0  0  0  0  0  0  0  0
    4.5772    4.3519    1.9341 H   0  0  0  0  0  0  0  0  0  0  0  0
   -3.5453   -0.1636   -0.8272 C   0  0  0  0  0  0  0  0  0  0  0  0
   -5.0401    0.9364   -2.3987 C   0  0  0  0  0  0  0  0  0  0  0  0
   -5.1938    1.6268   -3.2417 H   0  0  0  0  0  0  0  0  0  0  0  0
    4.7488    2.1910    1.6576 C   0  0  0  0  0  0  0  0  0  0  0  0
    5.6890    2.1030    2.2207 H   0  0  0  0  0  0  0  0  0  0  0  0
   -4.6465   -0.7995   -0.2235 C   0  0  0  0  0  0  0  0  0  0  0  0
   -4.4930   -1.4708    0.6353 H   0  0  0  0  0  0  0  0  0  0  0  0
   -3.7452    0.7127   -1.9127 C   0  0  0  0  0  0  0  0  0  0  0  0
   -2.8835    1.2362   -2.3541 H   0  0  0  0  0  0  0  0  0  0  0  0
   -1.9994   -2.9836    3.0576 C   0  0  0  0  0  0  0  0  0  0  0  0
   -1.9355   -4.0575    3.2905 H   0  0  0  0  0  0  0  0  0  0  0  0
    3.4040   -2.3318    0.0573 C   0  0  0  0  0  0  0  0  0  0  0  0
    2.5715   -2.4946    0.7589 H   0  0  0  0  0  0  0  0  0  0  0  0
   -2.1874   -2.0483    4.0861 C   0  0  0  0  0  0  0  0  0  0  0  0
   -2.2696   -2.3874    5.1300 H   0  0  0  0  0  0  0  0  0  0  0  0
   -2.2656   -0.6789    3.7811 C   0  0  0  0  0  0  0  0  0  0  0  0
   -2.4091    0.0590    4.5849 H   0  0  0  0  0  0  0  0  0  0  0  0
    4.3670   -3.3321   -0.1440 C   0  0  0  0  0  0  0  0  0  0  0  0
    4.2845   -4.2868    0.3973 H   0  0  0  0  0  0  0  0  0  0  0  0
    5.4344   -3.1138   -1.0292 C   0  0  0  0  0  0  0  0  0  0  0  0
    6.1874   -3.9001   -1.1898 H   0  0  0  0  0  0  0  0  0  0  0  0
   -2.1507   -0.2404    2.4553 C   0  0  0  0  0  0  0  0  0  0  0  0
   -2.1950    0.8332    2.2041 H   0  0  0  0  0  0  0  0  0  0  0  0
   -6.1397    0.3005   -1.7978 C   0  0  0  0  0  0  0  0  0  0  0  0
   -7.1569    0.4876   -2.1744 H   0  0  0  0  0  0  0  0  0  0  0  0
    5.5442   -1.8858   -1.7021 C   0  0  0  0  0  0  0  0  0  0  0  0
    6.3832   -1.7077   -2.3917 H   0  0  0  0  0  0  0  0  0  0  0  0
   -5.9421   -0.5637   -0.7102 C   0  0  0  0  0  0  0  0  0  0  0  0
   -6.8022   -1.0559   -0.2312 H   0  0  0  0  0  0  0  0  0  0  0  0
  1 14  1  0  0  0  0
  3  4  1  0  0  0  0
  4  5  2  0  0  0  0
  5 22  1  0  0  0  0
  6 37  1  0  0  0  0
  7  6  1  0  0  0  0
  8 11  1  0  0  0  0
  8  9  1  0  0  0  0
  8  1  1  0  0  0  0
 10  8  1  0  0  0  0
 11 13  1  0  0  0  0
 12 11  1  0  0  0  0
 14  6  2  0  0  0  0
 14 49  1  0  0  0  0
 15  2  1  6  0  0  0
 15  5  1  0  0  0  0
 15 20  1  0  0  0  0
 16 11  1  0  0  0  0
 16  3  1  0  0  0  0
 17 16  1  0  0  0  0
 18 16  1  0  0  0  0
 19  4  1  0  0  0  0
 19 39  1  0  0  0  0
 20 26  2  0  0  0  0
 21 20  1  0  0  0  0
 22 23  1  0  0  0  0
 22 31  2  0  0  0  0
 24 19  2  0  0  0  0
 25 24  1  0  0  0  0
 26 31  1  0  0  0  0
 26 27  1  0  0  0  0
 28  1  1  0  0  0  0
 28 33  1  0  0  0  0
 29 35  1  0  0  0  0
 29 51  2  0  0  0  0
 30 29  1  0  0  0  0
 31 32  1  0  0  0  0
 33 34  1  0  0  0  0
 35 28  2  0  0  0  0
 36 35  1  0  0  0  0
 37 38  1  0  0  0  0
 37 41  2  0  0  0  0
 39 40  1  0  0  0  0
 41 42  1  0  0  0  0
 43 41  1  0  0  0  0
 43 44  1  0  0  0  0
 45 39  2  0  0  0  0
 45 46  1  0  0  0  0
 47 45  1  0  0  0  0
 48 47  1  0  0  0  0
 49 43  2  0  0  0  0
 50 49  1  0  0  0  0
 51 55  1  0  0  0  0
 52 51  1  0  0  0  0
 53 24  1  0  0  0  0
 53 47  2  0  0  0  0
 54 53  1  0  0  0  0
 55 56  1  0  0  0  0
 55 33  2  0  0  0  0
M  END
