1,2,3
 OpenBabel05122313063D

 43 44  0  0  1  0  0  0  0  0999 V2000
   -0.7608    0.0352    0.3920 P   0  0  0  0  0  0  0  0  0  0  0  0
    2.7932   -0.7985   -1.2275 O   0  5  0  0  0  0  0  0  0  0  0  0
    1.9280    0.4830    1.1301 N   0  0  0  0  0  2  0  0  0  0  0  0
    3.7684    1.4163    2.5029 C   0  0  0  0  0  0  0  0  0  0  0  0
    3.3727    2.4529    2.5213 H   0  0  0  0  0  0  0  0  0  0  0  0
    4.8708    1.4729    2.4762 H   0  0  0  0  0  0  0  0  0  0  0  0
    3.4775    0.9405    3.4631 H   0  0  0  0  0  0  0  0  0  0  0  0
    3.2505    0.6401    1.3067 C   0  0  2  0  0  3  0  0  0  0  0  0
    4.2335    0.1219    0.4283 C   0  0  0  0  0  0  0  0  0  0  0  0
    5.2839    0.2821    0.7034 H   0  0  0  0  0  0  0  0  0  0  0  0
    3.9679   -0.5663   -0.7665 C   0  0  0  0  0  0  0  0  0  0  0  0
    5.1025   -1.0869   -1.6197 C   0  0  0  0  0  0  0  0  0  0  0  0
    5.0225   -0.6601   -2.6402 H   0  0  0  0  0  0  0  0  0  0  0  0
    5.0066   -2.1866   -1.7296 H   0  0  0  0  0  0  0  0  0  0  0  0
    6.0963   -0.8478   -1.1986 H   0  0  0  0  0  0  0  0  0  0  0  0
    1.0214    1.1342    2.0940 C   0  0  0  0  0  0  0  0  0  0  0  0
    0.8543    2.1975    1.7997 H   0  0  0  0  0  0  0  0  0  0  0  0
    1.4639    1.1549    3.1103 H   0  0  0  0  0  0  0  0  0  0  0  0
   -0.3123    0.3996    2.1469 C   0  0  0  0  0  0  0  0  0  0  0  0
   -1.0894    0.9498    2.7142 H   0  0  0  0  0  0  0  0  0  0  0  0
   -0.1884   -0.5961    2.6200 H   0  0  0  0  0  0  0  0  0  0  0  0
   -2.0493   -1.2590    0.5017 C   0  0  0  0  0  0  0  0  0  0  0  0
   -1.6835   -2.6096    0.3395 C   0  0  0  0  0  0  0  0  0  0  0  0
   -0.6533   -2.8530    0.0404 H   0  0  0  0  0  0  0  0  0  0  0  0
   -2.6447   -3.6157    0.5104 C   0  0  0  0  0  0  0  0  0  0  0  0
   -2.3590   -4.6701    0.3762 H   0  0  0  0  0  0  0  0  0  0  0  0
   -3.9699   -3.2802    0.8336 C   0  0  0  0  0  0  0  0  0  0  0  0
   -4.7234   -4.0726    0.9597 H   0  0  0  0  0  0  0  0  0  0  0  0
   -4.3373   -1.9334    0.9829 C   0  0  0  0  0  0  0  0  0  0  0  0
   -5.3776   -1.6671    1.2246 H   0  0  0  0  0  0  0  0  0  0  0  0
   -3.3802   -0.9209    0.8157 C   0  0  0  0  0  0  0  0  0  0  0  0
   -3.6711    0.1361    0.9195 H   0  0  0  0  0  0  0  0  0  0  0  0
   -1.6145    1.5229   -0.2618 C   0  0  0  0  0  0  0  0  0  0  0  0
   -1.8520    1.5914   -1.6527 C   0  0  0  0  0  0  0  0  0  0  0  0
   -1.5054    0.7630   -2.2923 H   0  0  0  0  0  0  0  0  0  0  0  0
   -2.5011    2.7069   -2.1977 C   0  0  0  0  0  0  0  0  0  0  0  0
   -2.6832    2.7513   -3.2823 H   0  0  0  0  0  0  0  0  0  0  0  0
   -2.9101    3.7665   -1.3706 C   0  0  0  0  0  0  0  0  0  0  0  0
   -3.4158    4.6429   -1.8038 H   0  0  0  0  0  0  0  0  0  0  0  0
   -2.6676    3.7071    0.0098 C   0  0  0  0  0  0  0  0  0  0  0  0
   -2.9821    4.5350    0.6635 H   0  0  0  0  0  0  0  0  0  0  0  0
   -2.0231    2.5899    0.5650 C   0  0  0  0  0  0  0  0  0  0  0  0
   -1.8465    2.5593    1.6501 H   0  0  0  0  0  0  0  0  0  0  0  0
  1 22  1  0  0  0  0
  1 19  1  0  0  0  0
  2 11  1  0  0  0  0
  3  8  1  0  0  0  0
  3 16  1  0  0  0  0
  4  5  1  0  0  0  0
  4  7  1  0  0  0  0
  6  4  1  0  0  0  0
  8  9  1  6  0  0  0
  8  4  1  0  0  0  0
  9 10  1  0  0  0  0
 11  9  2  0  0  0  0
 12 15  1  0  0  0  0
 12 11  1  0  0  0  0
 13 12  1  0  0  0  0
 14 12  1  0  0  0  0
 16 19  1  0  0  0  0
 16 18  1  0  0  0  0
 17 16  1  0  0  0  0
 19 21  1  0  0  0  0
 19 20  1  0  0  0  0
 22 31  1  0  0  0  0
 23 22  2  0  0  0  0
 23 25  1  0  0  0  0
 24 23  1  0  0  0  0
 25 27  2  0  0  0  0
 26 25  1  0  0  0  0
 27 28  1  0  0  0  0
 27 29  1  0  0  0  0
 29 30  1  0  0  0  0
 31 32  1  0  0  0  0
 31 29  2  0  0  0  0
 33  1  1  0  0  0  0
 33 42  1  0  0  0  0
 34 33  2  0  0  0  0
 35 34  1  0  0  0  0
 36 34  1  0  0  0  0
 36 38  2  0  0  0  0
 37 36  1  0  0  0  0
 38 40  1  0  0  0  0
 39 38  1  0  0  0  0
 40 42  2  0  0  0  0
 40 41  1  0  0  0  0
 42 43  1  0  0  0  0
M  CHG  1   2  -1
M  END
