1,2,5
 OpenBabel05122313063D

 44 46  0  0  0  0  0  0  0  0999 V2000
   -0.9758    0.0143   -0.0240 P   0  0  0  0  0  0  0  0  0  0  0  0
    1.9286    1.2139   -0.1832 N   0  0  0  0  0  2  0  0  0  0  0  0
    3.2891    1.2561   -0.0795 N   0  0  0  0  0  0  0  0  0  0  0  0
    5.7955   -1.3182   -0.0367 N   0  0  0  0  0  0  0  0  0  0  0  0
    3.1841   -1.0714   -0.1266 O   0  5  0  0  0  0  0  0  0  0  0  0
    6.0828    0.9614    0.0736 O   0  0  0  0  0  0  0  0  0  0  0  0
   -1.1681    1.7757   -0.4877 C   0  0  0  0  0  0  0  0  0  0  0  0
   -2.4634    2.2424   -0.7853 C   0  0  0  0  0  0  0  0  0  0  0  0
   -2.7093    3.5955   -1.0567 C   0  0  0  0  0  0  0  0  0  0  0  0
   -1.6424    4.5079   -1.0275 C   0  0  0  0  0  0  0  0  0  0  0  0
   -0.3507    4.0574   -0.7497 C   0  0  0  0  0  0  0  0  0  0  0  0
   -0.0685    2.6876   -0.4892 C   0  0  0  0  0  0  0  0  0  0  0  0
    1.3381    2.3840   -0.2891 C   0  0  0  0  0  3  0  0  0  0  0  0
    3.8286    0.0460   -0.0755 C   0  0  0  0  0  0  0  0  0  0  0  0
    5.3643   -0.0261   -0.0038 C   0  0  0  0  0  0  0  0  0  0  0  0
   -1.5915   -0.0927    1.7031 C   0  0  0  0  0  0  0  0  0  0  0  0
   -2.1133    1.0251    2.3844 C   0  0  0  0  0  0  0  0  0  0  0  0
   -2.5681    0.8867    3.7053 C   0  0  0  0  0  0  0  0  0  0  0  0
   -2.5072   -0.3598    4.3463 C   0  0  0  0  0  0  0  0  0  0  0  0
   -1.9804   -1.4721    3.6681 C   0  0  0  0  0  0  0  0  0  0  0  0
   -1.5141   -1.3444    2.3532 C   0  0  0  0  0  0  0  0  0  0  0  0
   -2.1982   -0.8722   -1.0561 C   0  0  0  0  0  0  0  0  0  0  0  0
   -3.4734   -1.2135   -0.5669 C   0  0  0  0  0  0  0  0  0  0  0  0
   -4.3945   -1.8527   -1.4122 C   0  0  0  0  0  0  0  0  0  0  0  0
   -4.0460   -2.1501   -2.7382 C   0  0  0  0  0  0  0  0  0  0  0  0
   -2.7704   -1.8136   -3.2230 C   0  0  0  0  0  0  0  0  0  0  0  0
   -1.8441   -1.1807   -2.3851 C   0  0  0  0  0  0  0  0  0  0  0  0
   -3.7304    3.9329   -1.2882 H   0  0  0  0  0  0  0  0  0  0  0  0
    2.0342    3.2412   -0.2768 H   0  0  0  0  0  0  0  0  0  0  0  0
   -1.8166    5.5747   -1.2326 H   0  0  0  0  0  0  0  0  0  0  0  0
    0.4865    4.7720   -0.7456 H   0  0  0  0  0  0  0  0  0  0  0  0
   -2.9716    1.7628    4.2351 H   0  0  0  0  0  0  0  0  0  0  0  0
   -3.2987    1.5261   -0.8024 H   0  0  0  0  0  0  0  0  0  0  0  0
   -2.1646    2.0045    1.8874 H   0  0  0  0  0  0  0  0  0  0  0  0
   -2.4904   -2.0586   -4.2585 H   0  0  0  0  0  0  0  0  0  0  0  0
    5.1088   -2.0728   -0.0863 H   0  0  0  0  0  0  0  0  0  0  0  0
   -0.8348   -0.9384   -2.7516 H   0  0  0  0  0  0  0  0  0  0  0  0
   -1.0724   -2.2038    1.8211 H   0  0  0  0  0  0  0  0  0  0  0  0
   -1.9205   -2.4491    4.1711 H   0  0  0  0  0  0  0  0  0  0  0  0
   -3.7423   -0.9894    0.4763 H   0  0  0  0  0  0  0  0  0  0  0  0
    6.7948   -1.5077    0.0142 H   0  0  0  0  0  0  0  0  0  0  0  0
   -2.8646   -0.4639    5.3821 H   0  0  0  0  0  0  0  0  0  0  0  0
   -4.7685   -2.6558   -3.3965 H   0  0  0  0  0  0  0  0  0  0  0  0
   -5.3891   -2.1243   -1.0272 H   0  0  0  0  0  0  0  0  0  0  0  0
  1 16  1  0  0  0  0
  2  3  1  0  0  0  0
  3 14  2  0  0  0  0
  4 15  1  0  0  0  0
  4 41  1  0  0  0  0
  5 14  1  0  0  0  0
  7  1  1  0  0  0  0
  8  7  2  0  0  0  0
  9 10  2  0  0  0  0
  9  8  1  0  0  0  0
 10 11  1  0  0  0  0
 11 31  1  0  0  0  0
 11 12  2  0  0  0  0
 12  7  1  0  0  0  0
 12 13  1  0  0  0  0
 13 29  1  0  0  0  0
 13  2  1  0  0  0  0
 14 15  1  0  0  0  0
 15  6  2  0  0  0  0
 16 21  2  0  0  0  0
 16 17  1  0  0  0  0
 17 18  2  0  0  0  0
 18 32  1  0  0  0  0
 18 19  1  0  0  0  0
 19 42  1  0  0  0  0
 20 39  1  0  0  0  0
 20 19  2  0  0  0  0
 21 20  1  0  0  0  0
 22 23  1  0  0  0  0
 22  1  1  0  0  0  0
 23 40  1  0  0  0  0
 24 44  1  0  0  0  0
 24 23  2  0  0  0  0
 25 24  1  0  0  0  0
 26 25  2  0  0  0  0
 26 27  1  0  0  0  0
 27 22  2  0  0  0  0
 28  9  1  0  0  0  0
 30 10  1  0  0  0  0
 33  8  1  0  0  0  0
 34 17  1  0  0  0  0
 35 26  1  0  0  0  0
 36  4  1  0  0  0  0
 37 27  1  0  0  0  0
 38 21  1  0  0  0  0
 43 25  1  0  0  0  0
M  CHG  1   5  -1
M  END
