1,2,6
q = -1.0, confidence = 0.082

 52 55  0  0  0  0  0  0  0  0999 V2000
   -1.5848    0.0525   -0.0263 P   0  0  0  0  0  0  0  0  0  0  0  0
    2.4745   -0.1765   -0.2721 O   0  5  0  0  0  0  0  0  0  0  0  0
    4.2661    1.2903   -0.1703 N   0  0  0  0  0  0  0  0  0  0  0  0
    4.4749    2.2905   -0.1640 H   0  0  0  0  0  0  0  0  0  0  0  0
    2.1389    2.1241   -0.2565 N   0  0  0  0  0  0  0  0  0  0  0  0
    0.8344    1.7753   -0.3686 N   0  0  0  0  0  2  0  0  0  0  0  0
    5.2267   -0.9929   -0.0984 C   0  0  0  0  0  0  0  0  0  0  0  0
    4.2254   -1.4370   -0.1480 H   0  0  0  0  0  0  0  0  0  0  0  0
    6.3771   -1.7898   -0.0283 C   0  0  0  0  0  0  0  0  0  0  0  0
    6.2617   -2.8847   -0.0228 H   0  0  0  0  0  0  0  0  0  0  0  0
    7.6591   -1.2207    0.0326 C   0  0  0  0  0  0  0  0  0  0  0  0
    8.5523   -1.8605    0.0860 H   0  0  0  0  0  0  0  0  0  0  0  0
    7.7860    0.1778    0.0234 C   0  0  0  0  0  0  0  0  0  0  0  0
    8.7813    0.6455    0.0702 H   0  0  0  0  0  0  0  0  0  0  0  0
    6.6493    0.9902   -0.0453 C   0  0  0  0  0  0  0  0  0  0  0  0
    6.7545    2.0872   -0.0519 H   0  0  0  0  0  0  0  0  0  0  0  0
    5.3576    0.4156   -0.1062 C   0  0  0  0  0  0  0  0  0  0  0  0
    2.9207    1.0240   -0.2338 C   0  0  0  0  0  0  0  0  0  0  0  0
    0.0027    2.7969   -0.5298 C   0  0  0  0  0  3  0  0  0  0  0  0
    0.4997    3.7805   -0.5816 H   0  0  0  0  0  0  0  0  0  0  0  0
   -1.4303    2.7765   -0.7048 C   0  0  0  0  0  0  0  0  0  0  0  0
   -2.0475    4.0141   -1.0427 C   0  0  0  0  0  0  0  0  0  0  0  0
   -1.4139    4.9113   -1.1181 H   0  0  0  0  0  0  0  0  0  0  0  0
   -3.4162    4.1077   -1.2976 C   0  0  0  0  0  0  0  0  0  0  0  0
   -3.8546    5.0813   -1.5641 H   0  0  0  0  0  0  0  0  0  0  0  0
   -4.2297    2.9619   -1.2294 C   0  0  0  0  0  0  0  0  0  0  0  0
   -5.3068    3.0250   -1.4431 H   0  0  0  0  0  0  0  0  0  0  0  0
   -3.6525    1.7330   -0.8816 C   0  0  0  0  0  0  0  0  0  0  0  0
   -4.2799    0.8307   -0.8190 H   0  0  0  0  0  0  0  0  0  0  0  0
   -2.2756    1.6302   -0.6025 C   0  0  0  0  0  0  0  0  0  0  0  0
   -1.9307   -0.0208    1.7773 C   0  0  0  0  0  0  0  0  0  0  0  0
   -2.9013    0.8042    2.3803 C   0  0  0  0  0  0  0  0  0  0  0  0
   -3.4598    1.5333    1.7751 H   0  0  0  0  0  0  0  0  0  0  0  0
   -3.1493    0.6975    3.7573 C   0  0  0  0  0  0  0  0  0  0  0  0
   -3.9061    1.3453    4.2253 H   0  0  0  0  0  0  0  0  0  0  0  0
   -2.4347   -0.2277    4.5345 C   0  0  0  0  0  0  0  0  0  0  0  0
   -2.6315   -0.3073    5.6145 H   0  0  0  0  0  0  0  0  0  0  0  0
   -1.4626   -1.0450    3.9347 C   0  0  0  0  0  0  0  0  0  0  0  0
   -0.8940   -1.7656    4.5417 H   0  0  0  0  0  0  0  0  0  0  0  0
   -1.2011   -0.9403    2.5613 C   0  0  0  0  0  0  0  0  0  0  0  0
   -0.4312   -1.5663    2.0833 H   0  0  0  0  0  0  0  0  0  0  0  0
   -2.6413   -1.2223   -0.8000 C   0  0  0  0  0  0  0  0  0  0  0  0
   -3.4874   -2.0542   -0.0449 C   0  0  0  0  0  0  0  0  0  0  0  0
   -3.5445   -1.9360    1.0472 H   0  0  0  0  0  0  0  0  0  0  0  0
   -4.2478   -3.0431   -0.6890 C   0  0  0  0  0  0  0  0  0  0  0  0
   -4.9028   -3.6975   -0.0947 H   0  0  0  0  0  0  0  0  0  0  0  0
   -4.1627   -3.2054   -2.0786 C   0  0  0  0  0  0  0  0  0  0  0  0
   -4.7519   -3.9888   -2.5784 H   0  0  0  0  0  0  0  0  0  0  0  0
   -3.3120   -2.3786   -2.8322 C   0  0  0  0  0  0  0  0  0  0  0  0
   -3.2335   -2.5128   -3.9215 H   0  0  0  0  0  0  0  0  0  0  0  0
   -2.5507   -1.3904   -2.1979 C   0  0  0  0  0  0  0  0  0  0  0  0
   -1.8689   -0.7545   -2.7841 H   0  0  0  0  0  0  0  0  0  0  0  0
  1 31  1  0  0  0  0
  2 18  1  0  0  0  0
  3  4  1  0  0  0  0
  3 17  1  0  0  0  0
  5 18  2  0  0  0  0
  6  5  1  0  0  0  0
  7  9  1  0  0  0  0
  8  7  1  0  0  0  0
  9 10  1  0  0  0  0
  9 11  2  0  0  0  0
 11 12  1  0  0  0  0
 13 11  1  0  0  0  0
 13 14  1  0  0  0  0
 15 13  2  0  0  0  0
 16 15  1  0  0  0  0
 17  7  2  0  0  0  0
 17 15  1  0  0  0  0
 18  3  1  0  0  0  0
 19  6  1  0  0  0  0
 20 19  1  0  0  0  0
 21 30  1  0  0  0  0
 21 19  1  0  0  0  0
 22 21  2  0  0  0  0
 23 22  1  0  0  0  0
 24 26  2  0  0  0  0
 24 22  1  0  0  0  0
 25 24  1  0  0  0  0
 26 28  1  0  0  0  0
 27 26  1  0  0  0  0
 28 29  1  0  0  0  0
 28 30  2  0  0  0  0
 30  1  1  0  0  0  0
 31 32  2  0  0  0  0
 31 40  1  0  0  0  0
 32 34  1  0  0  0  0
 33 32  1  0  0  0  0
 34 35  1  0  0  0  0
 34 36  2  0  0  0  0
 36 37  1  0  0  0  0
 38 36  1  0  0  0  0
 38 39  1  0  0  0  0
 40 38  2  0  0  0  0
 41 40  1  0  0  0  0
 42 43  1  0  0  0  0
 42  1  1  0  0  0  0
 43 44  1  0  0  0  0
 45 46  1  0  0  0  0
 45 43  2  0  0  0  0
 47 45  1  0  0  0  0
 48 47  1  0  0  0  0
 49 51  1  0  0  0  0
 49 47  2  0  0  0  0
 50 49  1  0  0  0  0
 51 42  2  0  0  0  0
 52 51  1  0  0  0  0
M  CHG  1   2  -1
M  END
