1,3,5
q = -1.0

 26 28  0  0  0  0  0  0  0  0999 V2000
   -0.0142    1.6175   -0.5527 N   0  0  0  0  0  2  0  0  0  0  0  0
    1.1106    2.3560   -0.7284 N   0  0  0  0  0  0  0  0  0  0  0  0
    1.8563   -0.4799   -1.3483 N   0  0  0  0  0  2  0  0  0  0  0  0
    2.7231    0.5564   -1.4063 N   0  0  0  0  0  0  0  0  0  0  0  0
    1.7651    0.4035    1.4710 N   0  0  0  0  0  2  0  0  0  0  0  0
    2.6335    1.3223    0.9943 N   0  0  0  0  0  0  0  0  0  0  0  0
   -1.0655    2.3614   -0.9466 C   0  0  0  0  0  3  0  0  0  0  0  0
   -0.6108    3.6217   -1.3810 C   0  0  0  0  0  0  0  0  0  0  0  0
    0.7763    3.5736   -1.2265 C   0  0  0  0  0  0  0  0  0  0  0  0
    2.2849   -1.4208   -2.2038 C   0  0  0  0  0  3  0  0  0  0  0  0
    3.4630   -0.9803   -2.8456 C   0  0  0  0  0  0  0  0  0  0  0  0
    3.7069    0.2845   -2.3045 C   0  0  0  0  0  0  0  0  0  0  0  0
    2.1103    0.1324    2.7393 C   0  0  0  0  0  3  0  0  0  0  0  0
    3.2359    0.9046    3.1018 C   0  0  0  0  0  0  0  0  0  0  0  0
    3.5376    1.6468    1.9570 C   0  0  0  0  0  0  0  0  0  0  0  0
    2.5312    1.7802   -0.4774 B   0  0  0  0  0  0  0  0  0  0  0  0
   -2.0829    1.9615   -0.8959 H   0  0  0  0  0  0  0  0  0  0  0  0
   -1.2160    4.4537   -1.7531 H   0  0  0  0  0  0  0  0  0  0  0  0
    1.5559    4.3139   -1.4347 H   0  0  0  0  0  0  0  0  0  0  0  0
    1.7388   -2.3669   -2.2940 H   0  0  0  0  0  0  0  0  0  0  0  0
    4.0573   -1.5107   -3.5959 H   0  0  0  0  0  0  0  0  0  0  0  0
    4.5070    1.0096   -2.4885 H   0  0  0  0  0  0  0  0  0  0  0  0
    1.5461   -0.6148    3.3099 H   0  0  0  0  0  0  0  0  0  0  0  0
    3.7610    0.9168    4.0617 H   0  0  0  0  0  0  0  0  0  0  0  0
    4.3278    2.3777    1.7543 H   0  0  0  0  0  0  0  0  0  0  0  0
    3.3700    2.6327   -0.7185 H   0  0  0  0  0  0  0  0  0  0  0  0
  2  1  1  0  0  0  0
  2 16  1  0  0  0  0
  4  3  1  0  0  0  0
  4 16  1  0  0  0  0
  5 13  1  0  0  0  0
  6  5  1  0  0  0  0
  6 15  1  0  0  0  0
  7 17  1  0  0  0  0
  7  1  1  0  0  0  0
  8  9  2  0  0  0  0
  8  7  1  0  0  0  0
  9  2  1  0  0  0  0
 10  3  1  0  0  0  0
 11 12  2  0  0  0  0
 11 10  1  0  0  0  0
 12  4  1  0  0  0  0
 13 14  1  0  0  0  0
 13 23  1  0  0  0  0
 14 24  1  0  0  0  0
 15 14  2  0  0  0  0
 16  6  1  0  0  0  0
 18  8  1  0  0  0  0
 19  9  1  0  0  0  0
 20 10  1  0  0  0  0
 21 11  1  0  0  0  0
 22 12  1  0  0  0  0
 25 15  1  0  0  0  0
 26 16  1  0  0  0  0
M  END
