1,2,3
q = 0.0, confidence = 0.982

 50 53  0  0  1  0  0  0  0  0999 V2000
    1.0846    1.7449    0.3842 N   0  0  0  0  0  2  0  0  0  0  0  0
    2.1056   -0.6328   -0.5651 N   0  0  0  0  0  0  0  0  0  0  0  0
   -0.3675   -1.0974    0.9056 N   0  0  0  0  0  0  0  0  0  0  0  0
   -3.2421   -0.1890    1.6613 N   0  0  0  0  0  0  0  0  0  0  0  0
    0.4949    2.7332    1.1066 C   0  0  0  0  0  3  0  0  0  0  0  0
   -0.5894    2.8454    0.9581 H   0  0  0  0  0  0  0  0  0  0  0  0
    1.2087    3.5563    1.9805 C   0  0  0  0  0  0  0  0  0  0  0  0
    0.6784    4.3429    2.5361 H   0  0  0  0  0  0  0  0  0  0  0  0
    2.5908    3.3572    2.1364 C   0  0  0  0  0  0  0  0  0  0  0  0
    3.1793    3.9817    2.8241 H   0  0  0  0  0  0  0  0  0  0  0  0
    3.2043    2.3399    1.3886 C   0  0  0  0  0  0  0  0  0  0  0  0
    4.2846    2.1483    1.4704 H   0  0  0  0  0  0  0  0  0  0  0  0
    2.4319    1.5649    0.5143 C   0  0  0  0  0  0  0  0  0  0  0  0
    3.0257    0.5230   -0.3961 C   0  0  0  0  0  0  0  0  0  0  0  0
    3.1558    0.9745   -1.4027 H   0  0  0  0  0  0  0  0  0  0  0  0
    4.0310    0.2197   -0.0247 H   0  0  0  0  0  0  0  0  0  0  0  0
    2.5813   -1.5445   -1.6413 C   0  0  0  0  0  0  0  0  0  0  0  0
    2.8700   -0.9542   -2.5310 H   0  0  0  0  0  0  0  0  0  0  0  0
    1.7302   -2.1860   -1.9409 H   0  0  0  0  0  0  0  0  0  0  0  0
    3.7040   -2.3696   -0.9990 C   0  0  0  0  0  0  0  0  0  0  0  0
    4.6654   -1.8173   -1.0279 H   0  0  0  0  0  0  0  0  0  0  0  0
    3.8701   -3.3292   -1.5252 H   0  0  0  0  0  0  0  0  0  0  0  0
    3.2148   -2.5615    0.4555 C   0  0  0  0  0  0  0  0  0  0  0  0
    4.0374   -2.4579    1.1887 H   0  0  0  0  0  0  0  0  0  0  0  0
    2.7899   -3.5752    0.5988 H   0  0  0  0  0  0  0  0  0  0  0  0
    2.1051   -1.4835    0.6685 C   0  0  2  0  0  0  0  0  0  0  0  0
    2.3449   -0.8243    1.5270 H   0  0  0  0  0  0  0  0  0  0  0  0
    0.7289   -2.1203    0.9179 C   0  0  1  0  0  0  0  0  0  0  0  0
    0.5250   -2.8472    0.1060 H   0  0  0  0  0  0  0  0  0  0  0  0
    0.6746   -2.7661    2.3287 C   0  0  0  0  0  0  0  0  0  0  0  0
    0.0589   -3.6858    2.3120 H   0  0  0  0  0  0  0  0  0  0  0  0
    1.6820   -3.0706    2.6730 H   0  0  0  0  0  0  0  0  0  0  0  0
    0.0378   -1.6751    3.2301 C   0  0  0  0  0  0  0  0  0  0  0  0
   -0.8832   -2.0523    3.7165 H   0  0  0  0  0  0  0  0  0  0  0  0
    0.7153   -1.3500    4.0435 H   0  0  0  0  0  0  0  0  0  0  0  0
   -0.2818   -0.5040    2.2745 C   0  0  0  0  0  0  0  0  0  0  0  0
   -1.2352    0.0101    2.4959 H   0  0  0  0  0  0  0  0  0  0  0  0
    0.5341    0.2410    2.2753 H   0  0  0  0  0  0  0  0  0  0  0  0
   -1.6710   -1.8174    0.7317 C   0  0  0  0  0  0  0  0  0  0  0  0
   -1.5748   -2.4376   -0.1772 H   0  0  0  0  0  0  0  0  0  0  0  0
   -1.8415   -2.5033    1.5937 H   0  0  0  0  0  0  0  0  0  0  0  0
   -2.8998   -0.9443    0.5986 C   0  0  0  0  0  0  0  0  0  0  0  0
   -3.6835   -0.9955   -0.5713 C   0  0  0  0  0  0  0  0  0  0  0  0
   -3.3587   -1.6062   -1.4256 H   0  0  0  0  0  0  0  0  0  0  0  0
   -4.8495   -0.2248   -0.6371 C   0  0  0  0  0  0  0  0  0  0  0  0
   -5.4715   -0.2356   -1.5446 H   0  0  0  0  0  0  0  0  0  0  0  0
   -5.1937    0.5770    0.4597 C   0  0  0  0  0  0  0  0  0  0  0  0
   -6.0931    1.2099    0.4476 H   0  0  0  0  0  0  0  0  0  0  0  0
   -4.3498    0.5637    1.5790 C   0  0  0  0  0  0  0  0  0  0  0  0
   -4.5846    1.1851    2.4617 H   0  0  0  0  0  0  0  0  0  0  0  0
  1 13  1  0  0  0  0
  1  5  1  0  0  0  0
  2 14  1  0  0  0  0
  2 26  1  0  0  0  0
  3 28  1  0  0  0  0
  3 36  1  0  0  0  0
  5  7  1  0  0  0  0
  6  5  1  0  0  0  0
  7  9  2  0  0  0  0
  7  8  1  0  0  0  0
  9 10  1  0  0  0  0
 11 12  1  0  0  0  0
 11  9  1  0  0  0  0
 13 11  2  0  0  0  0
 14 16  1  0  0  0  0
 14 13  1  0  0  0  0
 15 14  1  0  0  0  0
 17 20  1  0  0  0  0
 17  2  1  0  0  0  0
 18 17  1  0  0  0  0
 19 17  1  0  0  0  0
 20 23  1  0  0  0  0
 21 20  1  0  0  0  0
 22 20  1  0  0  0  0
 23 25  1  0  0  0  0
 23 26  1  0  0  0  0
 23 24  1  0  0  0  0
 26 28  1  0  0  0  0
 26 27  1  1  0  0  0
 28 29  1  6  0  0  0
 28 30  1  0  0  0  0
 30 32  1  0  0  0  0
 30 33  1  0  0  0  0
 31 30  1  0  0  0  0
 33 34  1  0  0  0  0
 33 35  1  0  0  0  0
 36 38  1  0  0  0  0
 36 37  1  0  0  0  0
 36 33  1  0  0  0  0
 39  3  1  0  0  0  0
 39 41  1  0  0  0  0
 40 39  1  0  0  0  0
 42 39  1  0  0  0  0
 42  4  2  0  0  0  0
 43 42  1  0  0  0  0
 44 43  1  0  0  0  0
 45 43  2  0  0  0  0
 45 47  1  0  0  0  0
 46 45  1  0  0  0  0
 47 49  2  0  0  0  0
 48 47  1  0  0  0  0
 49  4  1  0  0  0  0
 49 50  1  0  0  0  0
M  END
