1,4,5
q = 0.0, confidence = 0.986

 35 36  0  0  0  0  0  0  0  0999 V2000
    1.1139   -2.0020   -0.5340 N   0  0  0  0  0  2  0  0  0  0  0  0
   -3.4798   -3.2448   -1.2967 C   0  0  0  0  0  0  0  0  0  0  0  0
   -4.2386   -4.0172   -1.4912 H   0  0  0  0  0  0  0  0  0  0  0  0
    1.8856    0.8166   -1.1599 N   0  0  0  0  0  2  0  0  0  0  0  0
   -0.4708    2.0461   -0.3180 N   0  0  0  0  0  2  0  0  0  0  0  0
   -1.5456   -1.2780   -0.7814 N   0  0  0  0  0  0  0  0  0  0  0  0
   -1.6176    2.6325    0.0561 C   0  0  0  0  0  3  0  0  0  0  0  0
   -2.2147    2.1125    0.8248 H   0  0  0  0  0  0  0  0  0  0  0  0
   -3.8550   -1.9206   -1.0389 C   0  0  0  0  0  0  0  0  0  0  0  0
   -4.9097   -1.6135   -1.0118 H   0  0  0  0  0  0  0  0  0  0  0  0
   -0.0540    3.8625   -1.8465 C   0  0  0  0  0  0  0  0  0  0  0  0
    0.6063    4.3213   -2.5978 H   0  0  0  0  0  0  0  0  0  0  0  0
    0.3085    2.6365   -1.2555 C   0  0  0  0  0  0  0  0  0  0  0  0
    1.5692    1.9672   -1.6319 C   0  0  0  0  0  3  0  0  0  0  0  0
    2.2370    2.5232   -2.3297 H   0  0  0  0  0  0  0  0  0  0  0  0
   -2.0530    3.8502   -0.4955 C   0  0  0  0  0  0  0  0  0  0  0  0
   -3.0016    4.2910   -0.1578 H   0  0  0  0  0  0  0  0  0  0  0  0
   -2.1153   -3.5712   -1.2979 C   0  0  0  0  0  0  0  0  0  0  0  0
   -1.7736   -4.5983   -1.4966 H   0  0  0  0  0  0  0  0  0  0  0  0
   -1.2540    4.4752   -1.4623 C   0  0  0  0  0  0  0  0  0  0  0  0
   -1.5596    5.4321   -1.9113 H   0  0  0  0  0  0  0  0  0  0  0  0
   -1.1785   -2.5586   -1.0211 C   0  0  0  0  0  0  0  0  0  0  0  0
    0.2684   -2.8431   -1.0100 C   0  0  0  0  0  3  0  0  0  0  0  0
    0.6006   -3.8064   -1.4604 H   0  0  0  0  0  0  0  0  0  0  0  0
   -2.8473   -0.9688   -0.7967 C   0  0  0  0  0  0  0  0  0  0  0  0
   -3.1157    0.0772   -0.5845 H   0  0  0  0  0  0  0  0  0  0  0  0
    3.1651    0.2173   -1.4557 C   0  0  0  0  0  0  0  0  0  0  0  0
    3.8035    0.3201   -0.5407 H   0  0  0  0  0  0  0  0  0  0  0  0
    3.6886    0.7638   -2.2767 H   0  0  0  0  0  0  0  0  0  0  0  0
    3.0968   -1.2761   -1.7996 C   0  0  0  0  0  0  0  0  0  0  0  0
    4.1376   -1.6025   -2.0036 H   0  0  0  0  0  0  0  0  0  0  0  0
    2.5202   -1.4292   -2.7379 H   0  0  0  0  0  0  0  0  0  0  0  0
    2.5381   -2.2111   -0.7076 C   0  0  0  0  0  0  0  0  0  0  0  0
    2.7503   -3.2662   -0.9995 H   0  0  0  0  0  0  0  0  0  0  0  0
    3.0639   -2.0025    0.2482 H   0  0  0  0  0  0  0  0  0  0  0  0
  2  9  1  0  0  0  0
  3  2  1  0  0  0  0
  5  7  1  0  0  0  0
  7  8  1  0  0  0  0
  9 10  1  0  0  0  0
  9 25  2  0  0  0  0
 11 20  1  0  0  0  0
 11 13  2  0  0  0  0
 12 11  1  0  0  0  0
 13  5  1  0  0  0  0
 14 13  1  0  0  0  0
 14  4  1  0  0  0  0
 15 14  1  0  0  0  0
 16 17  1  0  0  0  0
 16  7  1  0  0  0  0
 18  2  2  0  0  0  0
 18 22  1  0  0  0  0
 19 18  1  0  0  0  0
 20 16  2  0  0  0  0
 21 20  1  0  0  0  0
 22 23  1  0  0  0  0
 22  6  2  0  0  0  0
 23  1  1  0  0  0  0
 24 23  1  0  0  0  0
 25  6  1  0  0  0  0
 25 26  1  0  0  0  0
 27  4  1  0  0  0  0
 27 28  1  0  0  0  0
 29 27  1  0  0  0  0
 30 27  1  0  0  0  0
 30 33  1  0  0  0  0
 31 30  1  0  0  0  0
 32 30  1  0  0  0  0
 33  1  1  0  0  0  0
 33 35  1  0  0  0  0
 34 33  1  0  0  0  0
M  END
