3,5,7
q = -1.0, confidence = 0.062

 53 56  0  0  0  0  0  0  0  0999 V2000
    4.5042    0.3906   -0.1766 S   0  0  0  0  0  0  0  0  0  0  0  0
   -4.4752    0.4162   -0.1309 S   0  0  0  0  0  0  0  0  0  0  0  0
    2.0530   -0.4338   -0.1488 N   0  0  0  0  0  2  0  0  0  0  0  0
    2.4000    1.9880   -0.0484 N   0  0  0  0  0  0  0  0  0  0  0  0
    0.0172    1.5905   -0.2292 N   0  0  0  0  0  0  0  0  0  0  0  0
   -2.3604    2.0014   -0.0008 N   0  0  0  0  0  0  0  0  0  0  0  0
   -2.0286   -0.4169   -0.1762 N   0  0  0  0  0  2  0  0  0  0  0  0
   -5.7375   -2.1955   -2.1360 C   0  0  0  0  0  0  0  0  0  0  0  0
   -4.8803   -2.4415   -2.7936 H   0  0  0  0  0  0  0  0  0  0  0  0
   -6.0991   -1.1852   -2.4180 H   0  0  0  0  0  0  0  0  0  0  0  0
   -6.5514   -2.9213   -2.3386 H   0  0  0  0  0  0  0  0  0  0  0  0
    2.2393   -2.9082   -0.6560 C   0  0  0  0  0  0  0  0  0  0  0  0
    2.9798   -3.5550   -1.1612 H   0  0  0  0  0  0  0  0  0  0  0  0
    1.3639   -2.7864   -1.3233 H   0  0  0  0  0  0  0  0  0  0  0  0
    1.8588   -3.4139    0.2500 H   0  0  0  0  0  0  0  0  0  0  0  0
    2.8381   -1.5692   -0.3525 C   0  0  0  0  0  0  0  0  0  0  0  0
    4.2016   -1.3161   -0.3584 C   0  0  0  0  0  0  0  0  0  0  0  0
    2.7795    0.7054   -0.1047 C   0  0  0  0  0  0  0  0  0  0  0  0
    1.1474    2.3769   -0.1149 C   0  0  0  0  0  0  0  0  0  0  0  0
    0.7310    3.7856   -0.0128 C   0  0  0  0  0  3  0  0  0  0  0  0
    1.4625    4.9736    0.0806 C   0  0  0  0  0  0  0  0  0  0  0  0
    2.5620    4.9541    0.0746 H   0  0  0  0  0  0  0  0  0  0  0  0
   -0.6808    3.7890    0.0053 C   0  0  0  0  0  0  0  0  0  0  0  0
   -1.1072    2.3828   -0.0895 C   0  0  0  0  0  0  0  0  0  0  0  0
   -2.7485    0.7224   -0.0820 C   0  0  0  0  0  0  0  0  0  0  0  0
   -4.1838   -1.2838   -0.3844 C   0  0  0  0  0  0  0  0  0  0  0  0
   -2.8207   -1.5405   -0.4144 C   0  0  0  0  0  0  0  0  0  0  0  0
    0.7389    6.1755    0.1849 C   0  0  0  0  0  0  0  0  0  0  0  0
    1.2805    7.1308    0.2577 H   0  0  0  0  0  0  0  0  0  0  0  0
   -0.6721    6.1789    0.2031 C   0  0  0  0  0  0  0  0  0  0  0  0
   -1.2069    7.1368    0.2899 H   0  0  0  0  0  0  0  0  0  0  0  0
   -1.4039    4.9806    0.1172 C   0  0  0  0  0  0  0  0  0  0  0  0
   -2.5032    4.9662    0.1393 H   0  0  0  0  0  0  0  0  0  0  0  0
    5.3392   -2.2797   -0.5882 C   0  0  0  0  0  0  0  0  0  0  0  0
    4.9389   -3.2932   -0.3743 H   0  0  0  0  0  0  0  0  0  0  0  0
   -5.3294   -2.2287   -0.6503 C   0  0  0  0  0  0  0  0  0  0  0  0
   -4.9537   -3.2490   -0.4214 H   0  0  0  0  0  0  0  0  0  0  0  0
   -2.2200   -2.8513   -0.8145 C   0  0  0  0  0  0  0  0  0  0  0  0
   -3.0012   -3.6217   -0.9427 H   0  0  0  0  0  0  0  0  0  0  0  0
   -1.4624   -3.1865   -0.0818 H   0  0  0  0  0  0  0  0  0  0  0  0
   -1.6921   -2.7347   -1.7854 H   0  0  0  0  0  0  0  0  0  0  0  0
    5.8027   -2.2491   -2.0575 C   0  0  0  0  0  0  0  0  0  0  0  0
    4.9666   -2.4770   -2.7481 H   0  0  0  0  0  0  0  0  0  0  0  0
    6.6107   -2.9885   -2.2323 H   0  0  0  0  0  0  0  0  0  0  0  0
    6.1927   -1.2447   -2.3227 H   0  0  0  0  0  0  0  0  0  0  0  0
    6.5092   -2.0287    0.3765 C   0  0  0  0  0  0  0  0  0  0  0  0
    6.1808   -2.0734    1.4335 H   0  0  0  0  0  0  0  0  0  0  0  0
    6.9614   -1.0289    0.2040 H   0  0  0  0  0  0  0  0  0  0  0  0
    7.3074   -2.7830    0.2262 H   0  0  0  0  0  0  0  0  0  0  0  0
   -6.5295   -1.9566    0.2696 C   0  0  0  0  0  0  0  0  0  0  0  0
   -7.3326   -2.6997    0.0928 H   0  0  0  0  0  0  0  0  0  0  0  0
   -6.9613   -0.9515    0.0764 H   0  0  0  0  0  0  0  0  0  0  0  0
   -6.2412   -2.0019    1.3383 H   0  0  0  0  0  0  0  0  0  0  0  0
  1 18  1  0  0  0  0
  2 25  1  0  0  0  0
  3 18  1  0  0  0  0
  5 19  2  0  0  0  0
  5 24  1  0  0  0  0
  7 25  1  0  0  0  0
  8 36  1  0  0  0  0
  9  8  1  0  0  0  0
 10  8  1  0  0  0  0
 11  8  1  0  0  0  0
 12 16  1  0  0  0  0
 12 15  1  0  0  0  0
 13 12  1  0  0  0  0
 14 12  1  0  0  0  0
 16  3  1  0  0  0  0
 17 16  2  0  0  0  0
 17  1  1  0  0  0  0
 18  4  2  0  0  0  0
 19  4  1  0  0  0  0
 19 20  1  0  0  0  0
 20 23  1  0  0  0  0
 20 21  1  0  0  0  0
 21 28  2  0  0  0  0
 22 21  1  0  0  0  0
 23 32  1  0  0  0  0
 24  6  1  0  0  0  0
 24 23  2  0  0  0  0
 25  6  2  0  0  0  0
 26  2  1  0  0  0  0
 27 26  2  0  0  0  0
 27  7  1  0  0  0  0
 28 30  1  0  0  0  0
 28 29  1  0  0  0  0
 30 31  1  0  0  0  0
 32 33  1  0  0  0  0
 32 30  2  0  0  0  0
 34 35  1  0  0  0  0
 34 17  1  0  0  0  0
 34 46  1  0  0  0  0
 36 37  1  0  0  0  0
 36 26  1  0  0  0  0
 36 50  1  0  0  0  0
 38 27  1  0  0  0  0
 38 40  1  0  0  0  0
 39 38  1  0  0  0  0
 41 38  1  0  0  0  0
 42 34  1  0  0  0  0
 43 42  1  0  0  0  0
 44 42  1  0  0  0  0
 45 42  1  0  0  0  0
 46 47  1  0  0  0  0
 48 46  1  0  0  0  0
 49 46  1  0  0  0  0
 50 53  1  0  0  0  0
 51 50  1  0  0  0  0
 52 50  1  0  0  0  0
M  END
