28,29,30
q = 0.0, confidence = 0.998

 30 32  0  0  1  0  0  0  0  0999 V2000
    3.1431   -1.3837   -0.2516 C   0  0  0  0  0  3  0  0  0  0  0  0
    2.7983   -2.4016    0.0001 H   0  0  0  0  0  0  0  0  0  0  0  0
    4.4510   -1.1037   -0.6794 C   0  0  0  0  0  0  0  0  0  0  0  0
    5.1951   -1.9103   -0.7447 H   0  0  0  0  0  0  0  0  0  0  0  0
    4.7760    0.2178   -1.0207 C   0  0  0  0  0  0  0  0  0  0  0  0
    5.7900    0.4736   -1.3634 H   0  0  0  0  0  0  0  0  0  0  0  0
    3.7919    1.2117   -0.9318 C   0  0  0  0  0  0  0  0  0  0  0  0
    4.0072    2.2536   -1.2095 H   0  0  0  0  0  0  0  0  0  0  0  0
    2.5093    0.8456   -0.4855 C   0  0  0  0  0  0  0  0  0  0  0  0
    1.3806    1.7753   -0.3420 C   0  0  2  0  0  3  0  0  0  0  0  0
    1.2226    3.1859   -0.4015 C   0  0  0  0  0  0  0  0  0  0  0  0
    1.9755    3.9463   -0.6303 H   0  0  0  0  0  0  0  0  0  0  0  0
   -0.1180    3.4066   -0.0776 C   0  0  0  0  0  0  0  0  0  0  0  0
   -0.6986    4.3299    0.0224 H   0  0  0  0  0  0  0  0  0  0  0  0
   -1.9912    1.8219    0.6862 C   0  0  0  0  0  0  0  0  0  0  0  0
   -2.5920    2.7444    0.7704 H   0  0  0  0  0  0  0  0  0  0  0  0
   -1.7869    1.3838    1.6975 H   0  0  0  0  0  0  0  0  0  0  0  0
   -2.7091    0.7716   -0.1351 C   0  0  2  0  0  3  0  0  0  0  0  0
   -3.9856    1.0097   -0.6710 C   0  0  0  0  0  0  0  0  0  0  0  0
   -4.4665    1.9897   -0.5340 H   0  0  0  0  0  0  0  0  0  0  0  0
   -4.6313   -0.0181   -1.3741 C   0  0  0  0  0  0  0  0  0  0  0  0
   -5.6334    0.1440   -1.7993 H   0  0  0  0  0  0  0  0  0  0  0  0
   -3.9770   -1.2468   -1.5266 C   0  0  0  0  0  0  0  0  0  0  0  0
   -4.4439   -2.0811   -2.0698 H   0  0  0  0  0  0  0  0  0  0  0  0
   -2.6991   -1.4021   -0.9692 C   0  0  0  0  0  0  0  0  0  0  0  0
   -2.1128   -2.3365   -1.0501 H   0  0  0  0  0  0  0  0  0  0  0  0
   -0.6837    2.1809    0.1390 N   0  0  0  0  0  0  0  0  0  0  0  0
    0.2062    1.2062   -0.0243 N   0  0  0  0  0  2  0  0  0  0  0  0
    2.2094   -0.4310   -0.1451 N   0  0  0  0  0  2  0  0  0  0  0  0
   -2.0878   -0.4190   -0.2863 N   0  0  0  0  0  2  0  0  0  0  0  0
  1 29  1  0  0  0  0
  1  2  1  0  0  0  0
  3  1  1  0  0  0  0
  4  3  1  0  0  0  0
  5  7  1  0  0  0  0
  5  3  2  0  0  0  0
  6  5  1  0  0  0  0
  7  9  2  0  0  0  0
  8  7  1  0  0  0  0
  9 29  1  0  0  0  0
 10  9  1  1  0  0  0
 10 28  1  0  0  0  0
 11 10  1  0  0  0  0
 11 13  2  0  0  0  0
 12 11  1  0  0  0  0
 13 14  1  0  0  0  0
 13 27  1  0  0  0  0
 15 16  1  0  0  0  0
 15 17  1  0  0  0  0
 18 15  1  1  0  0  0
 19 20  1  0  0  0  0
 19 18  1  0  0  0  0
 21 19  2  0  0  0  0
 22 21  1  0  0  0  0
 23 21  1  0  0  0  0
 23 25  2  0  0  0  0
 24 23  1  0  0  0  0
 25 30  1  0  0  0  0
 26 25  1  0  0  0  0
 27 15  1  0  0  0  0
 28 27  1  0  0  0  0
 30 18  1  0  0  0  0
M  END
