2,3,4
q = -1.0

 58 61  0  0  1  0  0  0  0  0999 V2000
    1.4476   -3.8441    0.3461 O   0  0  0  0  0  0  0  0  0  0  0  0
    3.1577   -0.7225    0.0169 N   0  0  0  0  0  2  0  0  0  0  0  0
    0.7204   -1.7398   -0.3806 N   0  0  0  0  0  2  0  0  0  0  0  0
   -0.5737    0.8476   -0.3030 N   0  0  0  0  0  2  0  0  0  0  0  0
   -2.7386    0.6742    0.2860 N   0  0  0  0  0  0  0  0  0  0  0  0
    4.4027   -0.1846   -0.0061 C   0  0  1  0  0  3  0  0  0  0  0  0
    5.5041   -0.9616    0.4136 C   0  0  0  0  0  0  0  0  0  0  0  0
    6.5034   -0.5030    0.3940 H   0  0  0  0  0  0  0  0  0  0  0  0
    5.3295   -2.2797    0.8415 C   0  0  0  0  0  0  0  0  0  0  0  0
    6.1883   -2.8740    1.1882 H   0  0  0  0  0  0  0  0  0  0  0  0
    4.0461   -2.8357    0.7840 C   0  0  0  0  0  0  0  0  0  0  0  0
    3.8143   -3.8789    1.0406 H   0  0  0  0  0  0  0  0  0  0  0  0
    2.9923   -2.0315    0.3480 C   0  0  0  0  0  0  0  0  0  0  0  0
    1.6335   -2.6437    0.1241 C   0  0  0  0  0  0  0  0  0  0  0  0
   -0.5150   -2.1539   -0.8710 C   0  0  0  0  0  0  0  0  0  0  0  0
   -0.6673   -3.4252   -1.4917 C   0  0  0  0  0  0  0  0  0  0  0  0
    0.2004   -4.0926   -1.5305 H   0  0  0  0  0  0  0  0  0  0  0  0
   -1.8862   -3.8306   -2.0307 C   0  0  0  0  0  0  0  0  0  0  0  0
   -1.9586   -4.8190   -2.5099 H   0  0  0  0  0  0  0  0  0  0  0  0
   -3.0104   -2.9846   -1.9817 C   0  0  0  0  0  0  0  0  0  0  0  0
   -3.9667   -3.2903   -2.4300 H   0  0  0  0  0  0  0  0  0  0  0  0
   -2.8930   -1.7419   -1.3649 C   0  0  0  0  0  3  0  0  0  0  0  0
   -3.7579   -1.0656   -1.3416 H   0  0  0  0  0  0  0  0  0  0  0  0
   -1.6687   -1.3101   -0.7922 C   0  0  0  0  0  0  0  0  0  0  0  0
   -1.6232    0.0422   -0.2291 C   0  0  0  0  0  0  0  0  0  0  0  0
   -1.0167    2.2364   -0.0747 C   0  0  2  0  0  0  0  0  0  0  0  0
   -0.2630    2.7575    0.5418 H   0  0  0  0  0  0  0  0  0  0  0  0
   -2.3522    2.0448    0.6675 C   0  0  0  0  0  0  0  0  0  0  0  0
   -2.2403    2.0979    1.7729 H   0  0  0  0  0  0  0  0  0  0  0  0
   -3.1203    2.7809    0.3625 H   0  0  0  0  0  0  0  0  0  0  0  0
    4.6236    1.2123   -0.5034 C   0  0  0  0  0  0  0  0  0  0  0  0
    5.5125    1.2382   -1.1641 H   0  0  0  0  0  0  0  0  0  0  0  0
    4.8227    1.8909    0.3508 H   0  0  0  0  0  0  0  0  0  0  0  0
    3.7391    1.5974   -1.0376 H   0  0  0  0  0  0  0  0  0  0  0  0
   -1.1480    3.0285   -1.4251 C   0  0  0  0  0  0  0  0  0  0  0  0
    0.1873    2.9930   -2.1891 C   0  0  0  0  0  0  0  0  0  0  0  0
    1.0175    3.3666   -1.5608 H   0  0  0  0  0  0  0  0  0  0  0  0
    0.1133    3.6128   -3.1060 H   0  0  0  0  0  0  0  0  0  0  0  0
    0.4446    1.9583   -2.4908 H   0  0  0  0  0  0  0  0  0  0  0  0
   -1.4791    4.4909   -1.0740 C   0  0  0  0  0  0  0  0  0  0  0  0
   -2.4405    4.5905   -0.5282 H   0  0  0  0  0  0  0  0  0  0  0  0
   -1.5629    5.0984   -1.9977 H   0  0  0  0  0  0  0  0  0  0  0  0
   -0.6818    4.9393   -0.4459 H   0  0  0  0  0  0  0  0  0  0  0  0
   -2.2502    2.4388   -2.3244 C   0  0  0  0  0  0  0  0  0  0  0  0
   -2.0378    1.3814   -2.5819 H   0  0  0  0  0  0  0  0  0  0  0  0
   -2.3023    3.0056   -3.2761 H   0  0  0  0  0  0  0  0  0  0  0  0
   -3.2557    2.4862   -1.8587 H   0  0  0  0  0  0  0  0  0  0  0  0
   -3.8464    0.0542    0.9194 C   0  0  0  0  0  0  0  0  0  0  0  0
   -5.1068    0.6827    0.8587 C   0  0  0  0  0  0  0  0  0  0  0  0
   -5.2210    1.6152    0.2866 H   0  0  0  0  0  0  0  0  0  0  0  0
   -6.2105    0.1112    1.5071 C   0  0  0  0  0  0  0  0  0  0  0  0
   -7.1900    0.6096    1.4507 H   0  0  0  0  0  0  0  0  0  0  0  0
   -6.0718   -1.0949    2.2115 C   0  0  0  0  0  0  0  0  0  0  0  0
   -6.9403   -1.5463    2.7137 H   0  0  0  0  0  0  0  0  0  0  0  0
   -4.8148   -1.7183    2.2761 C   0  0  0  0  0  0  0  0  0  0  0  0
   -4.6921   -2.6574    2.8365 H   0  0  0  0  0  0  0  0  0  0  0  0
   -3.7023   -1.1465    1.6465 C   0  0  0  0  0  0  0  0  0  0  0  0
   -2.7169   -1.6284    1.7132 H   0  0  0  0  0  0  0  0  0  0  0  0
  2 13  1  0  0  0  0
  3 14  1  0  0  0  0
  4 25  1  0  0  0  0
  4 26  1  0  0  0  0
  5 28  1  0  0  0  0
  5 48  1  0  0  0  0
  6 31  1  6  0  0  0
  6  2  1  0  0  0  0
  6  7  1  0  0  0  0
  7  9  2  0  0  0  0
  8  7  1  0  0  0  0
  9 10  1  0  0  0  0
 11  9  1  0  0  0  0
 11 12  1  0  0  0  0
 13 11  2  0  0  0  0
 14  1  2  0  0  0  0
 14 13  1  0  0  0  0
 15 24  1  0  0  0  0
 15  3  1  0  0  0  0
 16 15  2  0  0  0  0
 17 16  1  0  0  0  0
 18 20  2  0  0  0  0
 18 16  1  0  0  0  0
 19 18  1  0  0  0  0
 20 22  1  0  0  0  0
 21 20  1  0  0  0  0
 22 23  1  0  0  0  0
 22 24  1  0  0  0  0
 24 25  2  0  0  0  0
 25  5  1  0  0  0  0
 26 27  1  1  0  0  0
 26 28  1  0  0  0  0
 28 29  1  0  0  0  0
 30 28  1  0  0  0  0
 31 33  1  0  0  0  0
 32 31  1  0  0  0  0
 34 31  1  0  0  0  0
 35 40  1  0  0  0  0
 35 26  1  0  0  0  0
 36 37  1  0  0  0  0
 36 35  1  0  0  0  0
 38 36  1  0  0  0  0
 39 36  1  0  0  0  0
 40 41  1  0  0  0  0
 40 43  1  0  0  0  0
 42 40  1  0  0  0  0
 44 47  1  0  0  0  0
 44 35  1  0  0  0  0
 45 44  1  0  0  0  0
 46 44  1  0  0  0  0
 48 57  1  0  0  0  0
 49 48  2  0  0  0  0
 49 51  1  0  0  0  0
 50 49  1  0  0  0  0
 51 53  2  0  0  0  0
 52 51  1  0  0  0  0
 53 55  1  0  0  0  0
 53 54  1  0  0  0  0
 55 56  1  0  0  0  0
 57 58  1  0  0  0  0
 57 55  2  0  0  0  0
M  END
