3,11,22
q = -1.0, confidence = 0.002

 37 39  0  0  0  0  0  0  0  0999 V2000
   -5.0161    0.0528   -0.3727 N   0  0  0  0  0  0  0  0  0  0  0  0
   -3.6818    0.1011   -0.2332 C   0  0  0  0  0  0  0  0  0  0  0  0
   -2.8977   -1.0484   -0.1194 N   0  0  0  0  0  2  0  0  0  0  0  0
   -3.4878   -2.2499   -0.1418 C   0  0  0  0  0  3  0  0  0  0  0  0
   -2.8027   -3.1088   -0.0393 H   0  0  0  0  0  0  0  0  0  0  0  0
   -4.8775   -2.3578   -0.2911 C   0  0  0  0  0  0  0  0  0  0  0  0
   -5.3724   -3.3375   -0.3194 H   0  0  0  0  0  0  0  0  0  0  0  0
   -5.5926   -1.1531   -0.4039 C   0  0  0  0  0  0  0  0  0  0  0  0
   -6.6910   -1.1637   -0.5243 H   0  0  0  0  0  0  0  0  0  0  0  0
   -3.0615    1.3224   -0.1996 N   0  0  0  0  0  2  0  0  0  0  0  0
   -1.7697    1.2091   -0.0352 N   0  0  0  0  0  2  0  0  0  0  0  0
   -0.9238    2.2758    0.0447 C   0  0  0  0  0  0  0  0  0  0  0  0
   -1.3447    3.6345   -0.0057 C   0  0  0  0  0  0  0  0  0  0  0  0
   -2.4171    3.8391   -0.1254 H   0  0  0  0  0  0  0  0  0  0  0  0
   -0.3987    4.6354    0.1051 C   0  0  0  0  0  0  0  0  0  0  0  0
   -0.7020    5.6919    0.0729 H   0  0  0  0  0  0  0  0  0  0  0  0
    0.9806    4.2982    0.2863 C   0  0  0  0  0  0  0  0  0  0  0  0
    1.7154    5.1083    0.4131 H   0  0  0  0  0  0  0  0  0  0  0  0
    1.4178    2.9868    0.3265 C   0  0  0  0  0  0  0  0  0  0  0  0
    2.4783    2.7544    0.4892 H   0  0  0  0  0  0  0  0  0  0  0  0
    0.4783    1.9069    0.1918 C   0  0  0  0  0  0  0  0  0  0  0  0
    0.7776    0.5901    0.2372 N   0  0  0  0  0  2  0  0  0  0  0  0
    2.0933    0.1032    0.1674 C   0  0  0  0  0  0  0  0  0  0  0  0
    2.9905    0.5444   -0.8306 C   0  0  0  0  0  0  0  0  0  0  0  0
    2.6462    1.2747   -1.5777 H   0  0  0  0  0  0  0  0  0  0  0  0
    4.2967    0.0438   -0.9042 C   0  0  0  0  0  0  0  0  0  0  0  0
    4.9619    0.4006   -1.7017 H   0  0  0  0  0  0  0  0  0  0  0  0
    4.7281   -0.9250    0.0269 C   0  0  0  0  0  0  0  0  0  0  0  0
    3.8271   -1.3877    1.0137 C   0  0  0  0  0  0  0  0  0  0  0  0
    4.1776   -2.1543    1.7194 H   0  0  0  0  0  0  0  0  0  0  0  0
    2.5289   -0.8918    1.0774 C   0  0  0  0  0  0  0  0  0  0  0  0
    1.8223   -1.2710    1.8271 H   0  0  0  0  0  0  0  0  0  0  0  0
    5.9704   -1.4757    0.0472 O   0  0  0  0  0  0  0  0  0  0  0  0
    6.9072   -1.0644   -0.9302 C   0  0  0  0  0  0  0  0  0  0  0  0
    6.5585   -1.2955   -1.9618 H   0  0  0  0  0  0  0  0  0  0  0  0
    7.8367   -1.6290   -0.7306 H   0  0  0  0  0  0  0  0  0  0  0  0
    7.1247    0.0255   -0.8638 H   0  0  0  0  0  0  0  0  0  0  0  0
  1  2  2  0  0  0  0
  2 10  1  0  0  0  0
  2  3  1  0  0  0  0
  4  3  1  0  0  0  0
  4  5  1  0  0  0  0
  6  4  1  0  0  0  0
  7  6  1  0  0  0  0
  8  1  1  0  0  0  0
  8  6  2  0  0  0  0
  9  8  1  0  0  0  0
 10 11  1  0  0  0  0
 11 12  1  0  0  0  0
 12 21  1  0  0  0  0
 13 12  2  0  0  0  0
 13 15  1  0  0  0  0
 14 13  1  0  0  0  0
 15 17  2  0  0  0  0
 16 15  1  0  0  0  0
 17 19  1  0  0  0  0
 17 18  1  0  0  0  0
 19 20  1  0  0  0  0
 21 22  1  0  0  0  0
 21 19  2  0  0  0  0
 23 22  1  0  0  0  0
 23 31  1  0  0  0  0
 24 23  2  0  0  0  0
 25 24  1  0  0  0  0
 26 24  1  0  0  0  0
 26 28  2  0  0  0  0
 27 26  1  0  0  0  0
 28 33  1  0  0  0  0
 28 29  1  0  0  0  0
 29 31  2  0  0  0  0
 29 30  1  0  0  0  0
 31 32  1  0  0  0  0
 34 37  1  0  0  0  0
 34 36  1  0  0  0  0
 34 33  1  0  0  0  0
 35 34  1  0  0  0  0
M  END
