1,2,3
q = 0.0, confidence = 1.0

 31 31  0  0  0  0  0  0  0  0999 V2000
    0.0989    1.7873   -0.0327 N   0  0  0  0  0  2  0  0  0  0  0  0
   -2.2691   -0.1047   -1.0025 N   0  0  0  0  0  0  0  0  0  0  0  0
    2.0458   -0.1266    0.0313 N   0  0  0  0  0  2  0  0  0  0  0  0
    2.4066    1.1624   -0.1463 C   0  0  0  0  0  0  0  0  0  0  0  0
    3.7450    1.5316   -0.3738 C   0  0  0  0  0  0  0  0  0  0  0  0
    4.0094    2.5911   -0.5103 H   0  0  0  0  0  0  0  0  0  0  0  0
    4.7190    0.5236   -0.4307 C   0  0  0  0  0  0  0  0  0  0  0  0
    5.7746    0.7801   -0.6063 H   0  0  0  0  0  0  0  0  0  0  0  0
    4.3262   -0.8120   -0.2689 C   0  0  0  0  0  0  0  0  0  0  0  0
    5.0573   -1.6320   -0.3153 H   0  0  0  0  0  0  0  0  0  0  0  0
    2.9666   -1.0942   -0.0421 C   0  0  0  0  0  0  0  0  0  0  0  0
    2.5756   -2.1219    0.0650 H   0  0  0  0  0  0  0  0  0  0  0  0
    1.3202    2.1647   -0.1012 C   0  0  0  0  0  0  0  0  0  0  0  0
    1.6120    3.2402   -0.1202 H   0  0  0  0  0  0  0  0  0  0  0  0
   -0.9925    2.7218    0.0984 C   0  0  0  0  0  0  0  0  0  0  0  0
   -0.6404    3.7780    0.0185 H   0  0  0  0  0  0  0  0  0  0  0  0
   -1.3941    2.5587    1.1256 H   0  0  0  0  0  0  0  0  0  0  0  0
   -2.1182    2.4562   -0.9126 C   0  0  0  0  0  0  0  0  0  0  0  0
   -2.8316    3.3017   -0.8227 H   0  0  0  0  0  0  0  0  0  0  0  0
   -1.7165    2.5158   -1.9466 H   0  0  0  0  0  0  0  0  0  0  0  0
   -2.9355    1.1770   -0.7039 C   0  0  0  0  0  0  0  0  0  0  0  0
   -3.2505    1.1258    0.3593 H   0  0  0  0  0  0  0  0  0  0  0  0
   -3.8661    1.2541   -1.3231 H   0  0  0  0  0  0  0  0  0  0  0  0
   -3.1740   -1.2153   -0.6648 C   0  0  0  0  0  0  0  0  0  0  0  0
   -4.1000   -1.1928   -1.2900 H   0  0  0  0  0  0  0  0  0  0  0  0
   -3.4557   -1.1403    0.4038 H   0  0  0  0  0  0  0  0  0  0  0  0
   -2.6416   -2.1742   -0.8188 H   0  0  0  0  0  0  0  0  0  0  0  0
   -1.8113   -0.2204   -2.3896 C   0  0  0  0  0  0  0  0  0  0  0  0
   -2.6557   -0.1389   -3.1180 H   0  0  0  0  0  0  0  0  0  0  0  0
   -1.3129   -1.2022   -2.5128 H   0  0  0  0  0  0  0  0  0  0  0  0
   -1.0685    0.5679   -2.6190 H   0  0  0  0  0  0  0  0  0  0  0  0
  1 15  1  0  0  0  0
  2 21  1  0  0  0  0
  2 24  1  0  0  0  0
  4 13  2  0  0  0  0
  4  3  1  0  0  0  0
  5  4  1  0  0  0  0
  6  5  1  0  0  0  0
  7  5  2  0  0  0  0
  7  9  1  0  0  0  0
  8  7  1  0  0  0  0
  9 11  2  0  0  0  0
 10  9  1  0  0  0  0
 11  3  1  0  0  0  0
 11 12  1  0  0  0  0
 13  1  1  0  0  0  0
 14 13  1  0  0  0  0
 15 17  1  0  0  0  0
 16 15  1  0  0  0  0
 18 19  1  0  0  0  0
 18 21  1  0  0  0  0
 18 15  1  0  0  0  0
 20 18  1  0  0  0  0
 21 22  1  0  0  0  0
 23 21  1  0  0  0  0
 24 26  1  0  0  0  0
 25 24  1  0  0  0  0
 27 24  1  0  0  0  0
 28  2  1  0  0  0  0
 29 28  1  0  0  0  0
 30 28  1  0  0  0  0
 31 28  1  0  0  0  0
M  END
