1,3,5
q = 0.0, confidence = 0.998

 43 45  0  0  1  0  0  0  0  0999 V2000
   -0.0002    1.6270   -0.7504 N   0  0  0  0  0  2  0  0  0  0  0  0
   -2.7773    0.5422    0.1441 N   0  0  0  0  0  0  0  0  0  0  0  0
   -1.8703   -0.4068    0.4743 N   0  0  0  0  0  2  0  0  0  0  0  0
    2.7771    0.5423    0.1439 N   0  0  0  0  0  0  0  0  0  0  0  0
    1.8703   -0.4067    0.4743 N   0  0  0  0  0  2  0  0  0  0  0  0
    1.1674    2.2899   -0.5171 C   0  0  1  0  0  3  0  0  0  0  0  0
    1.2043    3.5831    0.0184 C   0  0  0  0  0  0  0  0  0  0  0  0
    2.1738    4.0736    0.1931 H   0  0  0  0  0  0  0  0  0  0  0  0
   -0.0004    4.2470    0.3014 C   0  0  0  0  0  0  0  0  0  0  0  0
   -0.0004    5.2669    0.7122 H   0  0  0  0  0  0  0  0  0  0  0  0
   -1.2049    3.5831    0.0182 C   0  0  0  0  0  0  0  0  0  0  0  0
   -2.1745    4.0734    0.1926 H   0  0  0  0  0  0  0  0  0  0  0  0
   -1.1678    2.2898   -0.5173 C   0  0  0  0  0  0  0  0  0  0  0  0
   -2.4200    1.5280   -0.8696 C   0  0  0  0  0  0  0  0  0  0  0  0
   -3.2767    2.2158   -0.9831 H   0  0  0  0  0  0  0  0  0  0  0  0
   -2.2522    0.9921   -1.8299 H   0  0  0  0  0  0  0  0  0  0  0  0
   -4.0089    0.2932    0.6919 C   0  0  2  0  0  3  0  0  0  0  0  0
   -3.8643   -0.8876    1.4233 C   0  0  0  0  0  0  0  0  0  0  0  0
   -4.6431   -1.3938    2.0035 H   0  0  0  0  0  0  0  0  0  0  0  0
   -2.5174   -1.2969    1.2530 C   0  0  0  0  0  0  0  0  0  0  0  0
   -1.8255   -2.5144    1.7667 C   0  0  0  0  0  0  0  0  0  0  0  0
   -1.2492   -2.9812    0.9398 H   0  0  0  0  0  0  0  0  0  0  0  0
   -2.5582   -3.2421    2.1627 H   0  0  0  0  0  0  0  0  0  0  0  0
   -1.1136   -2.2676    2.5812 H   0  0  0  0  0  0  0  0  0  0  0  0
   -5.2009    1.1645    0.4671 C   0  0  0  0  0  0  0  0  0  0  0  0
   -5.0190    2.2151    0.7776 H   0  0  0  0  0  0  0  0  0  0  0  0
   -6.0537    0.7858    1.0598 H   0  0  0  0  0  0  0  0  0  0  0  0
   -5.5177    1.1803   -0.5975 H   0  0  0  0  0  0  0  0  0  0  0  0
    2.4197    1.5284   -0.8695 C   0  0  0  0  0  0  0  0  0  0  0  0
    2.2520    0.9927   -1.8300 H   0  0  0  0  0  0  0  0  0  0  0  0
    3.2763    2.2163   -0.9827 H   0  0  0  0  0  0  0  0  0  0  0  0
    4.0087    0.2937    0.6920 C   0  0  1  0  0  3  0  0  0  0  0  0
    3.8641   -0.8867    1.4239 C   0  0  0  0  0  0  0  0  0  0  0  0
    4.6429   -1.3927    2.0043 H   0  0  0  0  0  0  0  0  0  0  0  0
    2.5173   -1.2964    1.2534 C   0  0  0  0  0  0  0  0  0  0  0  0
    1.8254   -2.5136    1.7677 C   0  0  0  0  0  0  0  0  0  0  0  0
    1.1131   -2.2664    2.5816 H   0  0  0  0  0  0  0  0  0  0  0  0
    2.5581   -3.2409    2.1647 H   0  0  0  0  0  0  0  0  0  0  0  0
    1.2497   -2.9811    0.9409 H   0  0  0  0  0  0  0  0  0  0  0  0
    5.2007    1.1650    0.4669 C   0  0  0  0  0  0  0  0  0  0  0  0
    5.5173    1.1807   -0.5977 H   0  0  0  0  0  0  0  0  0  0  0  0
    6.0536    0.7863    1.0596 H   0  0  0  0  0  0  0  0  0  0  0  0
    5.0189    2.2157    0.7775 H   0  0  0  0  0  0  0  0  0  0  0  0
  1 13  1  0  0  0  0
  1  6  1  0  0  0  0
  2  3  1  0  0  0  0
  2 17  1  0  0  0  0
  3 20  1  0  0  0  0
  4  5  1  0  0  0  0
  4 32  1  0  0  0  0
  5 35  1  0  0  0  0
  6 29  1  1  0  0  0
  6  7  1  0  0  0  0
  7  8  1  0  0  0  0
  7  9  2  0  0  0  0
  9 10  1  0  0  0  0
 11 12  1  0  0  0  0
 11  9  1  0  0  0  0
 13 11  2  0  0  0  0
 14 13  1  0  0  0  0
 14  2  1  0  0  0  0
 15 14  1  0  0  0  0
 16 14  1  0  0  0  0
 17 25  1  6  0  0  0
 17 18  1  0  0  0  0
 18 19  1  0  0  0  0
 20 18  2  0  0  0  0
 20 21  1  0  0  0  0
 21 23  1  0  0  0  0
 21 24  1  0  0  0  0
 22 21  1  0  0  0  0
 25 26  1  0  0  0  0
 25 27  1  0  0  0  0
 28 25  1  0  0  0  0
 29  4  1  0  0  0  0
 30 29  1  0  0  0  0
 31 29  1  0  0  0  0
 32 40  1  6  0  0  0
 32 33  1  0  0  0  0
 33 34  1  0  0  0  0
 35 33  2  0  0  0  0
 35 36  1  0  0  0  0
 36 38  1  0  0  0  0
 36 37  1  0  0  0  0
 39 36  1  0  0  0  0
 40 43  1  0  0  0  0
 40 42  1  0  0  0  0
 41 40  1  0  0  0  0
M  END
