1,2,3
q = 0.0, confidence = 0.978

 38 41  0  0  0  0  0  0  0  0999 V2000
    0.1642   -0.0378    0.0001 N   0  0  0  0  0  2  0  0  0  0  0  0
   -1.3874    2.0361    0.0000 N   0  0  0  0  0  2  0  0  0  0  0  0
   -1.5417   -1.9816   -0.0001 N   0  0  0  0  0  2  0  0  0  0  0  0
    4.9834    1.0926   -0.0007 N   0  0  0  0  0  0  0  0  0  0  0  0
    0.8543    1.1378    0.0001 C   0  0  0  0  0  0  0  0  0  0  0  0
    2.2492    1.1026    0.0001 C   0  0  0  0  0  0  0  0  0  0  0  0
    2.8689    2.0106   -0.0000 H   0  0  0  0  0  0  0  0  0  0  0  0
    2.9265   -0.1416    0.0000 C   0  0  0  0  0  0  0  0  0  0  0  0
    2.1611   -1.3316    0.0000 C   0  0  0  0  0  0  0  0  0  0  0  0
    2.6493   -2.3142   -0.0001 H   0  0  0  0  0  0  0  0  0  0  0  0
    0.7626   -1.2602    0.0001 C   0  0  0  0  0  0  0  0  0  0  0  0
   -0.0339    2.3180    0.0001 C   0  0  0  0  0  0  0  0  0  0  0  0
    0.4094    3.6468    0.0002 C   0  0  0  0  0  0  0  0  0  0  0  0
    1.4873    3.8588    0.0002 H   0  0  0  0  0  0  0  0  0  0  0  0
   -0.5289    4.6885    0.0002 C   0  0  0  0  0  0  0  0  0  0  0  0
   -0.1914    5.7350    0.0003 H   0  0  0  0  0  0  0  0  0  0  0  0
   -1.8962    4.3789    0.0001 C   0  0  0  0  0  0  0  0  0  0  0  0
   -2.6628    5.1662    0.0001 H   0  0  0  0  0  0  0  0  0  0  0  0
   -2.2928    3.0365    0.0001 C   0  0  0  0  0  3  0  0  0  0  0  0
   -3.3465    2.7153   -0.0000 H   0  0  0  0  0  0  0  0  0  0  0  0
   -0.2141   -2.3693   -0.0000 C   0  0  0  0  0  0  0  0  0  0  0  0
    0.1192   -3.7302   -0.0000 C   0  0  0  0  0  0  0  0  0  0  0  0
    1.1749   -4.0336    0.0000 H   0  0  0  0  0  0  0  0  0  0  0  0
   -0.8987   -4.6940   -0.0001 C   0  0  0  0  0  0  0  0  0  0  0  0
   -0.6455   -5.7641   -0.0001 H   0  0  0  0  0  0  0  0  0  0  0  0
   -2.2369   -4.2766   -0.0001 C   0  0  0  0  0  0  0  0  0  0  0  0
   -3.0640   -5.0002   -0.0002 H   0  0  0  0  0  0  0  0  0  0  0  0
   -2.5239   -2.9068   -0.0001 C   0  0  0  0  0  0  0  0  0  0  0  0
   -3.5484   -2.5016   -0.0002 H   0  0  0  0  0  0  0  0  0  0  0  0
    4.4145   -0.1324   -0.0000 C   0  0  0  0  0  0  0  0  0  0  0  0
    5.1852   -1.3144    0.0007 C   0  0  0  0  0  0  0  0  0  0  0  0
    4.7161   -2.3081    0.0015 H   0  0  0  0  0  0  0  0  0  0  0  0
    6.5825   -1.2096    0.0006 C   0  0  0  0  0  0  0  0  0  0  0  0
    7.2068   -2.1153    0.0012 H   0  0  0  0  0  0  0  0  0  0  0  0
    7.1665    0.0636   -0.0002 C   0  0  0  0  0  0  0  0  0  0  0  0
    8.2586    0.1923   -0.0003 H   0  0  0  0  0  0  0  0  0  0  0  0
    6.3162    1.1850   -0.0008 C   0  0  0  0  0  0  0  0  0  0  0  0
    6.7380    2.2050   -0.0014 H   0  0  0  0  0  0  0  0  0  0  0  0
  2 19  1  0  0  0  0
  2 12  1  0  0  0  0
  3 21  1  0  0  0  0
  4 30  1  0  0  0  0
  5  1  1  0  0  0  0
  5 12  1  0  0  0  0
  6  5  2  0  0  0  0
  7  6  1  0  0  0  0
  8  6  1  0  0  0  0
  9  8  2  0  0  0  0
  9 11  1  0  0  0  0
 10  9  1  0  0  0  0
 11  1  1  0  0  0  0
 12 13  2  0  0  0  0
 13 15  1  0  0  0  0
 13 14  1  0  0  0  0
 15 16  1  0  0  0  0
 17 18  1  0  0  0  0
 17 15  2  0  0  0  0
 19 17  1  0  0  0  0
 20 19  1  0  0  0  0
 21 11  2  0  0  0  0
 22 21  1  0  0  0  0
 22 23  1  0  0  0  0
 24 22  2  0  0  0  0
 25 24  1  0  0  0  0
 26 28  2  0  0  0  0
 26 24  1  0  0  0  0
 27 26  1  0  0  0  0
 28  3  1  0  0  0  0
 29 28  1  0  0  0  0
 30  8  1  0  0  0  0
 30 31  2  0  0  0  0
 31 32  1  0  0  0  0
 33 31  1  0  0  0  0
 33 34  1  0  0  0  0
 35 33  2  0  0  0  0
 36 35  1  0  0  0  0
 37  4  2  0  0  0  0
 37 35  1  0  0  0  0
 38 37  1  0  0  0  0
M  END
