1,2,3
q = 0.0, confidence = 0.984

 54 57  0  0  0  0  0  0  0  0999 V2000
    0.4896    1.1113   -0.7353 N   0  0  0  0  0  0  0  0  0  0  0  0
    0.4835    0.0809    1.3326 N   0  0  0  0  0  0  0  0  0  0  0  0
    0.4885   -1.1946   -0.5937 N   0  0  0  0  0  0  0  0  0  0  0  0
   -0.0753    1.2514    0.6236 C   0  0  0  0  0  0  0  0  0  0  0  0
   -1.1869    1.2712    0.6298 H   0  0  0  0  0  0  0  0  0  0  0  0
    0.3186    2.1748    1.0850 H   0  0  0  0  0  0  0  0  0  0  0  0
   -0.0765   -1.1670    0.7720 C   0  0  0  0  0  0  0  0  0  0  0  0
    0.3167   -2.0275    1.3429 H   0  0  0  0  0  0  0  0  0  0  0  0
   -1.1881   -1.1851    0.7807 H   0  0  0  0  0  0  0  0  0  0  0  0
   -0.0703   -0.0863   -1.3964 C   0  0  0  0  0  0  0  0  0  0  0  0
    0.3273   -0.1496   -2.4254 H   0  0  0  0  0  0  0  0  0  0  0  0
   -1.1818   -0.0874   -1.4207 H   0  0  0  0  0  0  0  0  0  0  0  0
    0.5134    2.3572   -1.5594 C   0  0  0  0  0  0  0  0  0  0  0  0
    1.0979    3.0990   -0.9808 H   0  0  0  0  0  0  0  0  0  0  0  0
    1.0953    2.1148   -2.4701 H   0  0  0  0  0  0  0  0  0  0  0  0
    0.4995    0.1718    2.8238 C   0  0  0  0  0  0  0  0  0  0  0  0
    1.0791    1.0824    3.0719 H   0  0  0  0  0  0  0  0  0  0  0  0
    1.0830   -0.6995    3.1804 H   0  0  0  0  0  0  0  0  0  0  0  0
    0.5103   -2.5315   -1.2603 C   0  0  0  0  0  0  0  0  0  0  0  0
    1.0888   -3.2003   -0.5933 H   0  0  0  0  0  0  0  0  0  0  0  0
    1.0975   -2.4034   -2.1907 H   0  0  0  0  0  0  0  0  0  0  0  0
   -0.8718    2.8617   -1.8898 C   0  0  0  0  0  0  0  0  0  0  0  0
   -1.5408    2.4095   -3.0460 C   0  0  0  0  0  0  0  0  0  0  0  0
   -1.0229    1.7415   -3.7532 H   0  0  0  0  0  0  0  0  0  0  0  0
   -2.8507    2.8290   -3.3206 C   0  0  0  0  0  0  0  0  0  0  0  0
   -3.3585    2.4800   -4.2320 H   0  0  0  0  0  0  0  0  0  0  0  0
   -3.5053    3.7076   -2.4425 C   0  0  0  0  0  0  0  0  0  0  0  0
   -4.5298    4.0431   -2.6618 H   0  0  0  0  0  0  0  0  0  0  0  0
   -2.8437    4.1741   -1.2953 C   0  0  0  0  0  0  0  0  0  0  0  0
   -3.3459    4.8804   -0.6178 H   0  0  0  0  0  0  0  0  0  0  0  0
   -1.5337    3.7543   -1.0215 C   0  0  0  0  0  0  0  0  0  0  0  0
   -1.0103    4.1453   -0.1339 H   0  0  0  0  0  0  0  0  0  0  0  0
   -0.8890    0.2048    3.4186 C   0  0  0  0  0  0  0  0  0  0  0  0
   -1.5588    1.4320    3.6036 C   0  0  0  0  0  0  0  0  0  0  0  0
   -1.0396    2.3787    3.3833 H   0  0  0  0  0  0  0  0  0  0  0  0
   -2.8715    1.4593    4.0969 C   0  0  0  0  0  0  0  0  0  0  0  0
   -3.3800    2.4228    4.2492 H   0  0  0  0  0  0  0  0  0  0  0  0
   -3.5279    0.2591    4.4133 C   0  0  0  0  0  0  0  0  0  0  0  0
   -4.5546    0.2807    4.8077 H   0  0  0  0  0  0  0  0  0  0  0  0
   -2.8654   -0.9675    4.2456 C   0  0  0  0  0  0  0  0  0  0  0  0
   -3.3692   -1.9078    4.5144 H   0  0  0  0  0  0  0  0  0  0  0  0
   -1.5528   -0.9940    3.7522 C   0  0  0  0  0  0  0  0  0  0  0  0
   -1.0287   -1.9580    3.6487 H   0  0  0  0  0  0  0  0  0  0  0  0
   -0.8758   -3.0663   -1.5352 C   0  0  0  0  0  0  0  0  0  0  0  0
   -1.5344   -2.7581   -2.7436 C   0  0  0  0  0  0  0  0  0  0  0  0
   -1.0075   -2.1861   -3.5245 H   0  0  0  0  0  0  0  0  0  0  0  0
   -2.8451   -3.2013   -2.9733 C   0  0  0  0  0  0  0  0  0  0  0  0
   -3.3447   -2.9657   -3.9247 H   0  0  0  0  0  0  0  0  0  0  0  0
   -3.5109   -3.9600   -1.9974 C   0  0  0  0  0  0  0  0  0  0  0  0
   -4.5361   -4.3144   -2.1805 H   0  0  0  0  0  0  0  0  0  0  0  0
   -2.8597   -4.2838   -0.7963 C   0  0  0  0  0  0  0  0  0  0  0  0
   -3.3709   -4.8975   -0.0398 H   0  0  0  0  0  0  0  0  0  0  0  0
   -1.5490   -3.8402   -0.5673 C   0  0  0  0  0  0  0  0  0  0  0  0
   -1.0338   -4.1208    0.3656 H   0  0  0  0  0  0  0  0  0  0  0  0
  1  4  1  0  0  0  0
  2 16  1  0  0  0  0
  3  7  1  0  0  0  0
  4  5  1  0  0  0  0
  4  6  1  0  0  0  0
  4  2  1  0  0  0  0
  7  9  1  0  0  0  0
  7  2  1  0  0  0  0
  7  8  1  0  0  0  0
 10  1  1  0  0  0  0
 10  3  1  0  0  0  0
 11 10  1  0  0  0  0
 12 10  1  0  0  0  0
 13 14  1  0  0  0  0
 13  1  1  0  0  0  0
 15 13  1  0  0  0  0
 16 17  1  0  0  0  0
 16 18  1  0  0  0  0
 16 33  1  0  0  0  0
 19  3  1  0  0  0  0
 19 20  1  0  0  0  0
 21 19  1  0  0  0  0
 22 13  1  0  0  0  0
 22 31  1  0  0  0  0
 23 22  2  0  0  0  0
 24 23  1  0  0  0  0
 25 23  1  0  0  0  0
 25 27  2  0  0  0  0
 26 25  1  0  0  0  0
 27 29  1  0  0  0  0
 28 27  1  0  0  0  0
 29 31  2  0  0  0  0
 29 30  1  0  0  0  0
 31 32  1  0  0  0  0
 33 34  2  0  0  0  0
 33 42  1  0  0  0  0
 34 36  1  0  0  0  0
 35 34  1  0  0  0  0
 36 37  1  0  0  0  0
 36 38  2  0  0  0  0
 38 39  1  0  0  0  0
 40 38  1  0  0  0  0
 40 41  1  0  0  0  0
 42 40  2  0  0  0  0
 43 42  1  0  0  0  0
 44 19  1  0  0  0  0
 44 53  1  0  0  0  0
 45 44  2  0  0  0  0
 46 45  1  0  0  0  0
 47 45  1  0  0  0  0
 47 49  2  0  0  0  0
 48 47  1  0  0  0  0
 49 51  1  0  0  0  0
 50 49  1  0  0  0  0
 51 53  2  0  0  0  0
 51 52  1  0  0  0  0
 53 54  1  0  0  0  0
M  END
