1,3,4
q = 0.0, confidence = 0.984

 31 31  0  0  1  0  0  0  0  0999 V2000
   -1.2567   -0.3804    0.1220 N   0  0  0  0  0  2  0  0  0  0  0  0
   -1.9946    0.6798   -0.3296 N   0  0  0  0  0  0  0  0  0  0  0  0
    0.7276    1.7494    0.6730 N   0  0  0  0  0  0  0  0  0  0  0  0
    2.8006    0.0290   -0.1620 N   0  0  0  0  0  0  0  0  0  0  0  0
   -2.1206   -1.3120    0.5926 C   0  0  2  0  0  3  0  0  0  0  0  0
   -3.4350   -0.8208    0.4212 C   0  0  0  0  0  0  0  0  0  0  0  0
   -4.3606   -1.3381    0.6928 H   0  0  0  0  0  0  0  0  0  0  0  0
   -3.3337    0.4448   -0.1587 C   0  0  0  0  0  0  0  0  0  0  0  0
   -1.6796   -2.5995    1.1998 C   0  0  0  0  0  0  0  0  0  0  0  0
   -1.0832   -3.1905    0.4783 H   0  0  0  0  0  0  0  0  0  0  0  0
   -2.5578   -3.1867    1.5223 H   0  0  0  0  0  0  0  0  0  0  0  0
   -1.0321   -2.4198    2.0819 H   0  0  0  0  0  0  0  0  0  0  0  0
   -4.3927    1.4142   -0.5644 C   0  0  0  0  0  0  0  0  0  0  0  0
   -4.3154    2.3774   -0.0185 H   0  0  0  0  0  0  0  0  0  0  0  0
   -5.3871    0.9871   -0.3418 H   0  0  0  0  0  0  0  0  0  0  0  0
   -4.3599    1.6335   -1.6517 H   0  0  0  0  0  0  0  0  0  0  0  0
   -1.3263    1.8801   -0.7974 C   0  0  0  0  0  0  0  0  0  0  0  0
   -2.1100    2.5864   -1.1291 H   0  0  0  0  0  0  0  0  0  0  0  0
   -0.6987    1.6325   -1.6800 H   0  0  0  0  0  0  0  0  0  0  0  0
   -0.4866    2.5468    0.2982 C   0  0  0  0  0  0  0  0  0  0  0  0
   -0.1721    3.5548   -0.0415 H   0  0  0  0  0  0  0  0  0  0  0  0
   -1.1086    2.6807    1.2047 H   0  0  0  0  0  0  0  0  0  0  0  0
    2.0219    2.3313    0.1978 C   0  0  0  0  0  0  0  0  0  0  0  0
    1.9221    2.5246   -0.8896 H   0  0  0  0  0  0  0  0  0  0  0  0
    2.2271    3.3017    0.6986 H   0  0  0  0  0  0  0  0  0  0  0  0
    3.1486    1.3378    0.4628 C   0  0  0  0  0  0  0  0  0  0  0  0
    4.1124    1.7313    0.0802 H   0  0  0  0  0  0  0  0  0  0  0  0
    3.2663    1.1706    1.5526 H   0  0  0  0  0  0  0  0  0  0  0  0
    3.3159   -0.7562    0.2685 H   0  0  0  0  0  0  0  0  0  0  0  0
    3.0507    0.0069   -1.1651 H   0  0  0  0  0  0  0  0  0  0  0  0
    0.7637    1.6980    1.7026 H   0  0  0  0  0  0  0  0  0  0  0  0
  1  5  1  0  0  0  0
  2  8  1  0  0  0  0
  2  1  1  0  0  0  0
  3 31  1  0  0  0  0
  4 29  1  0  0  0  0
  4 26  1  0  0  0  0
  5  9  1  1  0  0  0
  6  5  1  0  0  0  0
  6  7  1  0  0  0  0
  8  6  2  0  0  0  0
  9 11  1  0  0  0  0
  9 12  1  0  0  0  0
 10  9  1  0  0  0  0
 13 15  1  0  0  0  0
 13  8  1  0  0  0  0
 13 14  1  0  0  0  0
 16 13  1  0  0  0  0
 17  2  1  0  0  0  0
 17 20  1  0  0  0  0
 18 17  1  0  0  0  0
 19 17  1  0  0  0  0
 20  3  1  0  0  0  0
 20 22  1  0  0  0  0
 21 20  1  0  0  0  0
 23 26  1  0  0  0  0
 23  3  1  0  0  0  0
 23 25  1  0  0  0  0
 24 23  1  0  0  0  0
 26 28  1  0  0  0  0
 27 26  1  0  0  0  0
 30  4  1  0  0  0  0
M  END
