1,2,3
q = 0.0, confidence = 1.0

 31 31  0  0  1  0  0  0  0  0999 V2000
    1.5878   -0.5987   -0.1598 N   0  0  0  0  0  2  0  0  0  0  0  0
   -0.0063    1.4623   -0.4534 N   0  0  0  0  0  2  0  0  0  0  0  0
   -2.5334    0.3417   -0.3552 N   0  0  0  0  0  0  0  0  0  0  0  0
    2.3224   -1.7138   -0.1102 C   0  0  0  0  0  3  0  0  0  0  0  0
    1.7415   -2.6528   -0.0829 H   0  0  0  0  0  0  0  0  0  0  0  0
    3.7269   -1.6741   -0.1075 C   0  0  0  0  0  0  0  0  0  0  0  0
    4.3064   -2.6073   -0.0621 H   0  0  0  0  0  0  0  0  0  0  0  0
    4.3591   -0.4249   -0.1617 C   0  0  0  0  0  0  0  0  0  0  0  0
    5.4571   -0.3525   -0.1585 H   0  0  0  0  0  0  0  0  0  0  0  0
    3.5774    0.7392   -0.2260 C   0  0  0  0  0  0  0  0  0  0  0  0
    4.0557    1.7267   -0.2816 H   0  0  0  0  0  0  0  0  0  0  0  0
    2.1765    0.6137   -0.2279 C   0  0  0  0  0  0  0  0  0  0  0  0
    1.2364    1.7767   -0.3253 C   0  0  1  0  0  3  0  0  0  0  0  0
    1.8007    3.1690   -0.2696 C   0  0  0  0  0  0  0  0  0  0  0  0
    2.4567    3.3606   -1.1441 H   0  0  0  0  0  0  0  0  0  0  0  0
    2.4221    3.3005    0.6394 H   0  0  0  0  0  0  0  0  0  0  0  0
    1.0080    3.9376   -0.2645 H   0  0  0  0  0  0  0  0  0  0  0  0
   -1.1137    2.3798   -0.5609 C   0  0  0  0  0  0  0  0  0  0  0  0
   -1.2785    2.5859   -1.6431 H   0  0  0  0  0  0  0  0  0  0  0  0
   -0.9341    3.3648   -0.0758 H   0  0  0  0  0  0  0  0  0  0  0  0
   -2.3693    1.7398    0.0576 C   0  0  0  0  0  0  0  0  0  0  0  0
   -2.2365    1.7256    1.1587 H   0  0  0  0  0  0  0  0  0  0  0  0
   -3.2639    2.3602   -0.1944 H   0  0  0  0  0  0  0  0  0  0  0  0
   -2.8114    0.1642   -1.7822 C   0  0  0  0  0  0  0  0  0  0  0  0
   -2.7677   -0.9183   -2.0120 H   0  0  0  0  0  0  0  0  0  0  0  0
   -2.0326    0.6599   -2.3938 H   0  0  0  0  0  0  0  0  0  0  0  0
   -3.8084    0.5779   -2.0686 H   0  0  0  0  0  0  0  0  0  0  0  0
   -3.5185   -0.3654    0.4739 C   0  0  0  0  0  0  0  0  0  0  0  0
   -4.5479    0.0442    0.3386 H   0  0  0  0  0  0  0  0  0  0  0  0
   -3.2108   -0.2844    1.5350 H   0  0  0  0  0  0  0  0  0  0  0  0
   -3.5028   -1.4365    0.1927 H   0  0  0  0  0  0  0  0  0  0  0  0
  1  4  1  0  0  0  0
  3 21  1  0  0  0  0
  3 28  1  0  0  0  0
  4  6  1  0  0  0  0
  4  5  1  0  0  0  0
  6  7  1  0  0  0  0
  8  9  1  0  0  0  0
  8  6  2  0  0  0  0
 10  8  1  0  0  0  0
 11 10  1  0  0  0  0
 12 10  2  0  0  0  0
 12  1  1  0  0  0  0
 13  2  1  6  0  0  0
 13 14  1  0  0  0  0
 13 12  1  0  0  0  0
 14 17  1  0  0  0  0
 14 16  1  0  0  0  0
 15 14  1  0  0  0  0
 18  2  1  0  0  0  0
 18 20  1  0  0  0  0
 18 21  1  0  0  0  0
 19 18  1  0  0  0  0
 21 22  1  0  0  0  0
 23 21  1  0  0  0  0
 24  3  1  0  0  0  0
 25 24  1  0  0  0  0
 26 24  1  0  0  0  0
 27 24  1  0  0  0  0
 28 30  1  0  0  0  0
 29 28  1  0  0  0  0
 31 28  1  0  0  0  0
M  END
