1,2,3
q = 0.0, confidence = 1.0

 36 36  0  0  0  0  0  0  0  0999 V2000
    1.8433    0.8759   -0.1551 N   0  0  0  0  0  2  0  0  0  0  0  0
    0.4357   -1.2555   -0.8202 N   0  0  0  0  0  2  0  0  0  0  0  0
   -2.1618   -0.7507    0.0862 N   0  0  0  0  0  0  0  0  0  0  0  0
    2.4010   -2.5995   -1.0254 N   0  0  0  0  0  0  0  0  0  0  0  0
    1.7262   -1.4288   -0.7895 C   0  0  0  0  0  0  0  0  0  0  0  0
    3.8377    2.2034   -0.1296 C   0  0  0  0  0  0  0  0  0  0  0  0
    4.3135    3.1780    0.0496 H   0  0  0  0  0  0  0  0  0  0  0  0
    2.5486   -0.1974   -0.5599 C   0  0  0  0  0  0  0  0  0  0  0  0
   -3.0138   -0.5497    1.2858 C   0  0  0  0  0  0  0  0  0  0  0  0
   -2.4031   -0.8996    2.1429 H   0  0  0  0  0  0  0  0  0  0  0  0
   -3.9106   -1.2131    1.2293 H   0  0  0  0  0  0  0  0  0  0  0  0
   -1.6444   -2.1294    0.0814 C   0  0  0  0  0  0  0  0  0  0  0  0
   -2.4484   -2.8804   -0.0996 H   0  0  0  0  0  0  0  0  0  0  0  0
   -1.2414   -2.3124    1.0973 H   0  0  0  0  0  0  0  0  0  0  0  0
   -2.8017   -0.3513   -1.1936 C   0  0  0  0  0  0  0  0  0  0  0  0
   -2.0162   -0.3769   -1.9773 H   0  0  0  0  0  0  0  0  0  0  0  0
   -3.0903    0.7132   -1.1052 H   0  0  0  0  0  0  0  0  0  0  0  0
    3.9346   -0.1249   -0.7856 C   0  0  0  0  0  0  0  0  0  0  0  0
    4.4907   -0.9976   -1.1549 H   0  0  0  0  0  0  0  0  0  0  0  0
    2.4561    2.0475    0.0557 C   0  0  0  0  0  0  0  0  0  0  0  0
    1.7959    2.8750    0.3653 H   0  0  0  0  0  0  0  0  0  0  0  0
   -0.5094   -2.3399   -0.9329 C   0  0  0  0  0  0  0  0  0  0  0  0
   -0.0715   -3.3472   -0.7324 H   0  0  0  0  0  0  0  0  0  0  0  0
   -0.9098   -2.3747   -1.9714 H   0  0  0  0  0  0  0  0  0  0  0  0
    4.5843    1.0956   -0.5597 C   0  0  0  0  0  0  0  0  0  0  0  0
    5.6680    1.1834   -0.7288 H   0  0  0  0  0  0  0  0  0  0  0  0
   -3.4308    0.8928    1.5346 C   0  0  0  0  0  0  0  0  0  0  0  0
   -4.0387    0.9394    2.4594 H   0  0  0  0  0  0  0  0  0  0  0  0
   -4.0369    1.3258    0.7151 H   0  0  0  0  0  0  0  0  0  0  0  0
   -2.5425    1.5396    1.6776 H   0  0  0  0  0  0  0  0  0  0  0  0
   -4.0125   -1.1756   -1.6341 C   0  0  0  0  0  0  0  0  0  0  0  0
   -4.4143   -0.7594   -2.5789 H   0  0  0  0  0  0  0  0  0  0  0  0
   -4.8318   -1.1423   -0.8881 H   0  0  0  0  0  0  0  0  0  0  0  0
   -3.7657   -2.2404   -1.8224 H   0  0  0  0  0  0  0  0  0  0  0  0
    1.8280   -3.4454   -1.0529 H   0  0  0  0  0  0  0  0  0  0  0  0
    3.2467   -2.7240   -0.4632 H   0  0  0  0  0  0  0  0  0  0  0  0
  1 20  1  0  0  0  0
  2  5  1  0  0  0  0
  3  9  1  0  0  0  0
  4  5  1  0  0  0  0
  4 36  1  0  0  0  0
  5  8  2  0  0  0  0
  6  7  1  0  0  0  0
  6 20  2  0  0  0  0
  8  1  1  0  0  0  0
  9 27  1  0  0  0  0
  9 10  1  0  0  0  0
 11  9  1  0  0  0  0
 12  3  1  0  0  0  0
 12 14  1  0  0  0  0
 13 12  1  0  0  0  0
 15 17  1  0  0  0  0
 15  3  1  0  0  0  0
 16 15  1  0  0  0  0
 18  8  1  0  0  0  0
 18 25  2  0  0  0  0
 19 18  1  0  0  0  0
 20 21  1  0  0  0  0
 22  2  1  0  0  0  0
 22 23  1  0  0  0  0
 22 12  1  0  0  0  0
 24 22  1  0  0  0  0
 25  6  1  0  0  0  0
 26 25  1  0  0  0  0
 27 30  1  0  0  0  0
 27 28  1  0  0  0  0
 29 27  1  0  0  0  0
 31 15  1  0  0  0  0
 31 33  1  0  0  0  0
 32 31  1  0  0  0  0
 34 31  1  0  0  0  0
 35  4  1  0  0  0  0
M  END
