3,4,5
q = 0.0, confidence = 0.99

 32 34  0  0  1  0  0  0  0  0999 V2000
    1.8416    0.0024    0.9136 P   0  0  1  0  0  0  0  0  0  0  0  0
    3.1175    0.0047    1.7340 O   0  0  0  0  0  0  0  0  0  0  0  0
   -0.8757   -0.0017    1.2433 N   0  0  0  0  0  2  0  0  0  0  0  0
    0.5741    1.5429   -0.9889 N   0  0  0  0  0  2  0  0  0  0  0  0
    0.5794   -1.5431   -0.9885 N   0  0  0  0  0  2  0  0  0  0  0  0
    0.2942    0.0003    1.9144 C   0  0  2  0  0  3  0  0  0  0  0  0
    1.6729    1.4605   -0.2029 C   0  0  1  0  0  3  0  0  0  0  0  0
    0.4334    2.6188   -1.7919 C   0  0  0  0  0  0  0  0  0  0  0  0
   -0.4834    2.6448   -2.4026 H   0  0  0  0  0  0  0  0  0  0  0  0
    1.3903    3.6403   -1.8398 C   0  0  0  0  0  0  0  0  0  0  0  0
    1.2350    4.5001   -2.5075 H   0  0  0  0  0  0  0  0  0  0  0  0
    2.5346    3.5484   -1.0286 C   0  0  0  0  0  0  0  0  0  0  0  0
    3.3010    4.3378   -1.0496 H   0  0  0  0  0  0  0  0  0  0  0  0
    2.6816    2.4357   -0.1884 C   0  0  0  0  0  0  0  0  0  0  0  0
    3.5465    2.2977    0.4776 H   0  0  0  0  0  0  0  0  0  0  0  0
    1.6777   -1.4566   -0.2023 C   0  0  2  0  0  3  0  0  0  0  0  0
    0.4427   -2.6197   -1.7912 C   0  0  0  0  0  0  0  0  0  0  0  0
   -0.4738   -2.6491   -2.4023 H   0  0  0  0  0  0  0  0  0  0  0  0
    1.4031   -3.6379   -1.8385 C   0  0  0  0  0  0  0  0  0  0  0  0
    1.2509   -4.4985   -2.5061 H   0  0  0  0  0  0  0  0  0  0  0  0
    2.5468   -3.5419   -1.0270 C   0  0  0  0  0  0  0  0  0  0  0  0
    3.3158   -4.3287   -1.0475 H   0  0  0  0  0  0  0  0  0  0  0  0
    2.6897   -2.4284   -0.1872 C   0  0  0  0  0  0  0  0  0  0  0  0
    3.5539   -2.2871    0.4790 H   0  0  0  0  0  0  0  0  0  0  0  0
    0.3807    0.0012    3.3143 C   0  0  0  0  0  0  0  0  0  0  0  0
    1.3705    0.0029    3.7946 H   0  0  0  0  0  0  0  0  0  0  0  0
   -0.8206   -0.0000    4.0389 C   0  0  0  0  0  0  0  0  0  0  0  0
   -0.8068    0.0006    5.1394 H   0  0  0  0  0  0  0  0  0  0  0  0
   -2.0398   -0.0020    3.3404 C   0  0  0  0  0  0  0  0  0  0  0  0
   -3.0007   -0.0030    3.8751 H   0  0  0  0  0  0  0  0  0  0  0  0
   -2.0319   -0.0029    1.9376 C   0  0  0  0  0  0  0  0  0  0  0  0
   -2.9650   -0.0043    1.3448 H   0  0  0  0  0  0  0  0  0  0  0  0
  1  2  2  1  0  0  0
  3  6  1  0  0  0  0
  3 31  1  0  0  0  0
  4  7  1  0  0  0  0
  5 16  1  0  0  0  0
  6  1  1  6  0  0  0
  6 25  1  0  0  0  0
  7 14  1  0  0  0  0
  7  1  1  1  0  0  0
  8  4  1  0  0  0  0
  9  8  1  0  0  0  0
 10  8  2  0  0  0  0
 10 12  1  0  0  0  0
 11 10  1  0  0  0  0
 12 14  2  0  0  0  0
 13 12  1  0  0  0  0
 14 15  1  0  0  0  0
 16 23  1  0  0  0  0
 16  1  1  1  0  0  0
 17  5  1  0  0  0  0
 18 17  1  0  0  0  0
 19 17  2  0  0  0  0
 19 21  1  0  0  0  0
 20 19  1  0  0  0  0
 21 23  2  0  0  0  0
 22 21  1  0  0  0  0
 23 24  1  0  0  0  0
 25 26  1  0  0  0  0
 25 27  2  0  0  0  0
 27 28  1  0  0  0  0
 29 30  1  0  0  0  0
 29 27  1  0  0  0  0
 31 29  2  0  0  0  0
 32 31  1  0  0  0  0
M  END
