1,2,3
q = -1.0

 27 29  0  0  1  0  0  0  0  0999 V2000
   -0.9217    0.0121   -0.0042 N   0  0  0  0  0  0  0  0  0  0  0  0
    0.4287   -2.0719    0.4212 N   0  0  0  0  0  2  0  0  0  0  0  0
    0.4326    2.0877    0.3904 N   0  0  0  0  0  2  0  0  0  0  0  0
   -1.4580   -3.6057    0.2979 C   0  0  0  0  0  0  0  0  0  0  0  0
   -2.5299   -3.7416    0.1005 H   0  0  0  0  0  0  0  0  0  0  0  0
    1.2032   -3.1047    0.8000 C   0  0  0  0  0  3  0  0  0  0  0  0
    2.2543   -2.8698    1.0081 H   0  0  0  0  0  0  0  0  0  0  0  0
   -1.6776   -1.1108   -0.0753 C   0  0  0  0  0  3  0  0  0  0  0  0
   -1.6665    1.1361   -0.1431 C   0  0  0  0  0  0  0  0  0  0  0  0
   -3.0283   -0.6929   -0.2970 C   0  0  0  0  0  0  0  0  0  0  0  0
   -3.0215    0.7191   -0.3394 C   0  0  0  0  0  0  0  0  0  0  0  0
   -0.9067    2.3299    0.1118 C   0  0  1  0  0  3  0  0  0  0  0  0
   -1.4354    3.6374    0.1783 C   0  0  0  0  0  0  0  0  0  0  0  0
   -2.4950    3.7819   -0.0724 H   0  0  0  0  0  0  0  0  0  0  0  0
   -0.9219   -2.3031    0.1991 C   0  0  0  0  0  0  0  0  0  0  0  0
    0.7243   -4.4113    0.9337 C   0  0  0  0  0  0  0  0  0  0  0  0
    1.4122   -5.2084    1.2470 H   0  0  0  0  0  0  0  0  0  0  0  0
    0.7055    4.4156    0.9679 C   0  0  0  0  0  0  0  0  0  0  0  0
    1.3735    5.1998    1.3492 H   0  0  0  0  0  0  0  0  0  0  0  0
    1.1814    3.1065    0.8517 C   0  0  0  0  0  0  0  0  0  0  0  0
    2.2039    2.8535    1.1557 H   0  0  0  0  0  0  0  0  0  0  0  0
   -4.4156   -1.7031   -0.4660 Cl  0  0  0  0  0  0  0  0  0  0  0  0
   -4.3992    1.7315   -0.5634 Cl  0  0  0  0  0  0  0  0  0  0  0  0
   -0.6311   -4.6666    0.6627 C   0  0  0  0  0  0  0  0  0  0  0  0
   -1.0395   -5.6845    0.7492 H   0  0  0  0  0  0  0  0  0  0  0  0
   -0.6226    4.6893    0.5971 C   0  0  0  0  0  0  0  0  0  0  0  0
   -1.0253    5.7111    0.6613 H   0  0  0  0  0  0  0  0  0  0  0  0
  2  6  1  0  0  0  0
  3 20  1  0  0  0  0
  4 24  1  0  0  0  0
  5  4  1  0  0  0  0
  6 16  1  0  0  0  0
  6  7  1  0  0  0  0
  8  1  1  0  0  0  0
  8 15  1  0  0  0  0
  9  1  2  0  0  0  0
 10  8  1  0  0  0  0
 11 10  2  0  0  0  0
 11  9  1  0  0  0  0
 12  9  1  1  0  0  0
 12 13  1  0  0  0  0
 12  3  1  0  0  0  0
 13 26  2  0  0  0  0
 14 13  1  0  0  0  0
 15  4  2  0  0  0  0
 15  2  1  0  0  0  0
 16 17  1  0  0  0  0
 18 19  1  0  0  0  0
 20 18  2  0  0  0  0
 20 21  1  0  0  0  0
 22 10  1  0  0  0  0
 23 11  1  0  0  0  0
 24 25  1  0  0  0  0
 24 16  2  0  0  0  0
 26 27  1  0  0  0  0
 26 18  1  0  0  0  0
M  END
