1,3,4
q = -1.0

 34 36  0  0  0  0  0  0  0  0999 V2000
    2.2576   -1.4621   -0.7155 N   0  0  0  0  0  2  0  0  0  0  0  0
    0.2810   -2.3764   -1.6667 N   0  0  0  0  0  2  0  0  0  0  0  0
   -0.1774   -1.1985   -1.2849 N   0  0  0  0  0  2  0  0  0  0  0  0
   -0.8113    1.1809   -0.4372 N   0  0  0  0  0  2  0  0  0  0  0  0
    3.5757   -1.5541   -0.4436 C   0  0  0  0  0  3  0  0  0  0  0  0
    4.0282   -0.6654    0.0207 H   0  0  0  0  0  0  0  0  0  0  0  0
    4.3135   -2.7070   -0.7207 C   0  0  0  0  0  0  0  0  0  0  0  0
    5.3818   -2.7450   -0.4684 H   0  0  0  0  0  0  0  0  0  0  0  0
    3.6554   -3.8018   -1.3198 C   0  0  0  0  0  0  0  0  0  0  0  0
    4.2092   -4.7252   -1.5462 H   0  0  0  0  0  0  0  0  0  0  0  0
    2.3015   -3.7081   -1.6304 C   0  0  0  0  0  0  0  0  0  0  0  0
    1.7444   -4.5261   -2.1053 H   0  0  0  0  0  0  0  0  0  0  0  0
    1.5963   -2.5162   -1.3320 C   0  0  0  0  0  0  0  0  0  0  0  0
   -1.4467   -0.7772   -1.6608 C   0  0  0  0  0  0  0  0  0  0  0  0
   -2.3520   -1.5395   -2.4288 C   0  0  0  0  0  0  0  0  0  0  0  0
   -2.0459   -2.5465   -2.7424 H   0  0  0  0  0  0  0  0  0  0  0  0
   -3.5828   -0.9855   -2.7687 C   0  0  0  0  0  0  0  0  0  0  0  0
   -4.3015   -1.5612   -3.3697 H   0  0  0  0  0  0  0  0  0  0  0  0
   -3.9140    0.3214   -2.3293 C   0  0  0  0  0  0  0  0  0  0  0  0
   -4.8990    0.7425   -2.5805 H   0  0  0  0  0  0  0  0  0  0  0  0
   -3.0309    1.0837   -1.5678 C   0  0  0  0  0  0  0  0  0  0  0  0
   -3.3149    2.0847   -1.2183 H   0  0  0  0  0  0  0  0  0  0  0  0
   -1.7608    0.5537   -1.2120 C   0  0  0  0  0  0  0  0  0  0  0  0
   -0.8719    2.5678   -0.1723 C   0  0  0  0  0  0  0  0  0  0  0  0
   -0.9785    3.5141   -1.2162 C   0  0  0  0  0  0  0  0  0  0  0  0
   -1.0297    3.1557   -2.2538 H   0  0  0  0  0  0  0  0  0  0  0  0
   -0.9848    4.8848   -0.9245 C   0  0  0  0  0  0  0  0  0  0  0  0
   -1.0616    5.6125   -1.7470 H   0  0  0  0  0  0  0  0  0  0  0  0
   -0.8778    5.3333    0.4025 C   0  0  0  0  0  0  0  0  0  0  0  0
   -0.8807    6.4108    0.6253 H   0  0  0  0  0  0  0  0  0  0  0  0
   -0.7549    4.3966    1.4423 C   0  0  0  0  0  0  0  0  0  0  0  0
   -0.6609    4.7357    2.4851 H   0  0  0  0  0  0  0  0  0  0  0  0
   -0.7482    3.0249    1.1587 C   0  0  0  0  0  0  0  0  0  0  0  0
   -0.6369    2.2886    1.9694 H   0  0  0  0  0  0  0  0  0  0  0  0
  1  5  1  0  0  0  0
  2 13  1  0  0  0  0
  2  3  1  0  0  0  0
  4 24  1  0  0  0  0
  5  6  1  0  0  0  0
  7  8  1  0  0  0  0
  7  5  1  0  0  0  0
  9  7  2  0  0  0  0
 10  9  1  0  0  0  0
 11 13  2  0  0  0  0
 11  9  1  0  0  0  0
 12 11  1  0  0  0  0
 13  1  1  0  0  0  0
 14  3  1  0  0  0  0
 14 23  1  0  0  0  0
 15 14  2  0  0  0  0
 16 15  1  0  0  0  0
 17 15  1  0  0  0  0
 17 19  2  0  0  0  0
 18 17  1  0  0  0  0
 19 21  1  0  0  0  0
 20 19  1  0  0  0  0
 21 22  1  0  0  0  0
 21 23  2  0  0  0  0
 23  4  1  0  0  0  0
 24 33  1  0  0  0  0
 25 27  1  0  0  0  0
 25 24  2  0  0  0  0
 26 25  1  0  0  0  0
 27 29  2  0  0  0  0
 28 27  1  0  0  0  0
 29 30  1  0  0  0  0
 29 31  1  0  0  0  0
 31 32  1  0  0  0  0
 33 31  2  0  0  0  0
 33 34  1  0  0  0  0
M  END
