2,3,4
q = 0.0, confidence = 0.992

 31 33  0  0  1  0  0  0  0  0999 V2000
    2.9615   -1.2152    0.0027 P   0  0  2  0  0  0  0  0  0  0  0  0
    0.5730   -0.9918   -1.5079 N   0  0  0  0  0  2  0  0  0  0  0  0
    0.5714   -0.9880    1.5101 N   0  0  0  0  0  2  0  0  0  0  0  0
    1.9330    1.4177   -0.0010 N   0  0  0  0  0  2  0  0  0  0  0  0
   -0.2175   -1.3380   -2.5590 C   0  0  0  0  0  3  0  0  0  0  0  0
    0.1941   -2.2226   -3.5567 C   0  0  0  0  0  0  0  0  0  0  0  0
    1.4793   -2.7804   -3.4861 C   0  0  0  0  0  0  0  0  0  0  0  0
    2.2942   -2.4356   -2.4012 C   0  0  0  0  0  0  0  0  0  0  0  0
    1.8155   -1.5435   -1.4229 C   0  0  0  0  0  0  0  0  0  0  0  0
    1.8141   -1.5397    1.4280 C   0  0  1  0  0  3  0  0  0  0  0  0
    2.2921   -2.4290    2.4092 C   0  0  0  0  0  0  0  0  0  0  0  0
    1.4761   -2.7709    3.4943 C   0  0  0  0  0  0  0  0  0  0  0  0
    0.1906   -2.2134    3.5618 C   0  0  0  0  0  0  0  0  0  0  0  0
   -0.2202   -1.3316    2.5613 C   0  0  0  0  0  0  0  0  0  0  0  0
    3.0474    0.6447    0.0002 C   0  0  1  0  0  3  0  0  0  0  0  0
    4.3367    1.2075   -0.0003 C   0  0  0  0  0  0  0  0  0  0  0  0
    4.4798    2.6022   -0.0019 C   0  0  0  0  0  0  0  0  0  0  0  0
    3.3239    3.3936   -0.0031 C   0  0  0  0  0  0  0  0  0  0  0  0
    2.0748    2.7640   -0.0025 C   0  0  0  0  0  0  0  0  0  0  0  0
   -1.2129   -0.8712   -2.5787 H   0  0  0  0  0  0  0  0  0  0  0  0
   -0.4920   -2.4617   -4.3814 H   0  0  0  0  0  0  0  0  0  0  0  0
    1.8394   -3.4738   -4.2604 H   0  0  0  0  0  0  0  0  0  0  0  0
    3.3055   -2.8544   -2.2944 H   0  0  0  0  0  0  0  0  0  0  0  0
    3.3036   -2.8478    2.3047 H   0  0  0  0  0  0  0  0  0  0  0  0
    1.8356   -3.4622    4.2708 H   0  0  0  0  0  0  0  0  0  0  0  0
   -0.4963   -2.4505    4.3865 H   0  0  0  0  0  0  0  0  0  0  0  0
   -1.2158   -0.8651    2.5787 H   0  0  0  0  0  0  0  0  0  0  0  0
    5.2150    0.5455    0.0007 H   0  0  0  0  0  0  0  0  0  0  0  0
    5.4794    3.0620   -0.0023 H   0  0  0  0  0  0  0  0  0  0  0  0
    3.3783    4.4914   -0.0043 H   0  0  0  0  0  0  0  0  0  0  0  0
    1.1428    3.3493   -0.0034 H   0  0  0  0  0  0  0  0  0  0  0  0
  1  9  1  6  0  0  0
  2  9  1  0  0  0  0
  3 14  1  0  0  0  0
  4 15  1  0  0  0  0
  5  2  1  0  0  0  0
  6  7  2  0  0  0  0
  6  5  1  0  0  0  0
  7  8  1  0  0  0  0
  8 23  1  0  0  0  0
  8  9  2  0  0  0  0
 10  1  1  6  0  0  0
 10  3  1  0  0  0  0
 10 11  1  0  0  0  0
 11 12  2  0  0  0  0
 12 13  1  0  0  0  0
 12 25  1  0  0  0  0
 13 26  1  0  0  0  0
 14 27  1  0  0  0  0
 14 13  2  0  0  0  0
 15  1  1  1  0  0  0
 16 15  1  0  0  0  0
 16 28  1  0  0  0  0
 17 16  2  0  0  0  0
 18 19  2  0  0  0  0
 18 17  1  0  0  0  0
 19  4  1  0  0  0  0
 20  5  1  0  0  0  0
 21  6  1  0  0  0  0
 22  7  1  0  0  0  0
 24 11  1  0  0  0  0
 29 17  1  0  0  0  0
 30 18  1  0  0  0  0
 31 19  1  0  0  0  0
M  END
