3,5,7
q = -1.0, confidence = 0.02

 71 73  0  0  1  0  0  0  0  0999 V2000
    0.0001    2.0862    0.9332 B   0  0  1  0  0  0  0  0  0  0  0  0
    0.0002    3.2052    1.4003 H   0  0  0  0  0  0  0  0  0  0  0  0
    1.5819    0.1006    0.9275 N   0  0  0  0  0  2  0  0  0  0  0  0
    1.2809    1.3484    1.3983 N   0  0  0  0  0  0  0  0  0  0  0  0
   -0.0000    1.0467   -1.3832 N   0  0  0  0  0  2  0  0  0  0  0  0
    0.0001    2.1778   -0.6172 N   0  0  0  0  0  0  0  0  0  0  0  0
   -1.5819    0.1008    0.9277 N   0  0  0  0  0  2  0  0  0  0  0  0
   -1.2806    1.3485    1.3984 N   0  0  0  0  0  0  0  0  0  0  0  0
    3.0182   -2.6492    1.9102 C   0  0  0  0  0  0  0  0  0  0  0  0
    1.9427   -2.8414    1.7373 H   0  0  0  0  0  0  0  0  0  0  0  0
    3.1614   -2.3978    2.9806 H   0  0  0  0  0  0  0  0  0  0  0  0
    3.5749   -3.5861    1.7002 H   0  0  0  0  0  0  0  0  0  0  0  0
    3.3357   -1.8546   -0.4789 C   0  0  0  0  0  0  0  0  0  0  0  0
    2.2675   -1.9751   -0.7359 H   0  0  0  0  0  0  0  0  0  0  0  0
    3.8441   -2.8083   -0.7262 H   0  0  0  0  0  0  0  0  0  0  0  0
    3.7477   -1.0610   -1.1346 H   0  0  0  0  0  0  0  0  0  0  0  0
    5.0562   -1.3388    1.2628 C   0  0  0  0  0  0  0  0  0  0  0  0
    5.2739   -1.1573    2.3344 H   0  0  0  0  0  0  0  0  0  0  0  0
    5.4773   -0.4982    0.6752 H   0  0  0  0  0  0  0  0  0  0  0  0
    5.5905   -2.2645    0.9692 H   0  0  0  0  0  0  0  0  0  0  0  0
    3.5451   -1.5093    1.0088 C   0  0  0  0  0  0  0  0  0  0  0  0
    2.8300   -0.2100    1.3491 C   0  0  1  0  0  3  0  0  0  0  0  0
    3.3239    0.8660    2.1230 C   0  0  0  0  0  0  0  0  0  0  0  0
    4.2985    0.9399    2.6127 H   0  0  0  0  0  0  0  0  0  0  0  0
    2.3193    1.8382    2.1321 C   0  0  0  0  0  0  0  0  0  0  0  0
    2.3127    3.1848    2.7807 C   0  0  0  0  0  0  0  0  0  0  0  0
    1.4509    3.3090    3.4671 H   0  0  0  0  0  0  0  0  0  0  0  0
    2.2554    4.0039    2.0348 H   0  0  0  0  0  0  0  0  0  0  0  0
    3.2404    3.3214    3.3666 H   0  0  0  0  0  0  0  0  0  0  0  0
   -0.0002    1.1946   -5.1676 C   0  0  0  0  0  0  0  0  0  0  0  0
    0.8982    1.8361   -5.2715 H   0  0  0  0  0  0  0  0  0  0  0  0
   -0.8985    1.8362   -5.2714 H   0  0  0  0  0  0  0  0  0  0  0  0
   -0.0002    0.4750   -6.0105 H   0  0  0  0  0  0  0  0  0  0  0  0
   -1.2679   -0.4480   -3.7554 C   0  0  0  0  0  0  0  0  0  0  0  0
   -1.2936   -1.0482   -2.8275 H   0  0  0  0  0  0  0  0  0  0  0  0
   -1.2913   -1.1562   -4.6088 H   0  0  0  0  0  0  0  0  0  0  0  0
   -2.1836    0.1760   -3.7974 H   0  0  0  0  0  0  0  0  0  0  0  0
    1.2674   -0.4482   -3.7555 C   0  0  0  0  0  0  0  0  0  0  0  0
    2.1832    0.1757   -3.7975 H   0  0  0  0  0  0  0  0  0  0  0  0
    1.2907   -1.1564   -4.6089 H   0  0  0  0  0  0  0  0  0  0  0  0
    1.2931   -1.0484   -2.8276 H   0  0  0  0  0  0  0  0  0  0  0  0
   -0.0002    0.4318   -3.8303 C   0  0  0  0  0  0  0  0  0  0  0  0
   -0.0000    1.4263   -2.6800 C   0  0  1  0  0  3  0  0  0  0  0  0
    0.0001    2.8398   -2.7384 C   0  0  0  0  0  0  0  0  0  0  0  0
    0.0001    3.4702   -3.6315 H   0  0  0  0  0  0  0  0  0  0  0  0
    0.0001    3.2850   -1.4117 C   0  0  0  0  0  0  0  0  0  0  0  0
    0.0003    4.6826   -0.8812 C   0  0  0  0  0  0  0  0  0  0  0  0
   -0.8917    4.8876   -0.2546 H   0  0  0  0  0  0  0  0  0  0  0  0
    0.0003    5.4016   -1.7212 H   0  0  0  0  0  0  0  0  0  0  0  0
    0.8922    4.8875   -0.2547 H   0  0  0  0  0  0  0  0  0  0  0  0
   -3.3358   -1.8543   -0.4787 C   0  0  0  0  0  0  0  0  0  0  0  0
   -2.2676   -1.9748   -0.7357 H   0  0  0  0  0  0  0  0  0  0  0  0
   -3.7478   -1.0606   -1.1343 H   0  0  0  0  0  0  0  0  0  0  0  0
   -3.8444   -2.8078   -0.7260 H   0  0  0  0  0  0  0  0  0  0  0  0
   -3.0183   -2.6489    1.9104 C   0  0  0  0  0  0  0  0  0  0  0  0
   -1.9428   -2.8412    1.7374 H   0  0  0  0  0  0  0  0  0  0  0  0
   -3.5751   -3.5857    1.7004 H   0  0  0  0  0  0  0  0  0  0  0  0
   -3.1614   -2.3975    2.9808 H   0  0  0  0  0  0  0  0  0  0  0  0
   -5.0563   -1.3383    1.2632 C   0  0  0  0  0  0  0  0  0  0  0  0
   -5.2739   -1.1568    2.3348 H   0  0  0  0  0  0  0  0  0  0  0  0
   -5.5906   -2.2640    0.9696 H   0  0  0  0  0  0  0  0  0  0  0  0
   -5.4773   -0.4977    0.6755 H   0  0  0  0  0  0  0  0  0  0  0  0
   -3.5452   -1.5089    1.0090 C   0  0  0  0  0  0  0  0  0  0  0  0
   -2.8299   -0.2097    1.3493 C   0  0  2  0  0  3  0  0  0  0  0  0
   -3.3236    0.8663    2.1233 C   0  0  0  0  0  0  0  0  0  0  0  0
   -4.2981    0.9403    2.6131 H   0  0  0  0  0  0  0  0  0  0  0  0
   -2.3190    1.8384    2.1323 C   0  0  0  0  0  0  0  0  0  0  0  0
   -2.3121    3.1850    2.7810 C   0  0  0  0  0  0  0  0  0  0  0  0
   -1.4503    3.3090    3.4673 H   0  0  0  0  0  0  0  0  0  0  0  0
   -3.2398    3.3217    3.3668 H   0  0  0  0  0  0  0  0  0  0  0  0
   -2.2547    4.0041    2.0351 H   0  0  0  0  0  0  0  0  0  0  0  0
  1  4  1  0  0  0  0
  1  8  1  0  0  0  0
  1  2  1  1  0  0  0
  3 22  1  0  0  0  0
  3  4  1  0  0  0  0
  4 25  1  0  0  0  0
  5  6  1  0  0  0  0
  6  1  1  0  0  0  0
  7 64  1  0  0  0  0
  7  8  1  0  0  0  0
  8 67  1  0  0  0  0
  9 11  1  0  0  0  0
 10  9  1  0  0  0  0
 12  9  1  0  0  0  0
 13 21  1  0  0  0  0
 14 13  1  0  0  0  0
 15 13  1  0  0  0  0
 16 13  1  0  0  0  0
 17 18  1  0  0  0  0
 19 17  1  0  0  0  0
 20 17  1  0  0  0  0
 21 17  1  0  0  0  0
 21  9  1  0  0  0  0
 22 21  1  6  0  0  0
 22 23  1  0  0  0  0
 23 25  2  0  0  0  0
 23 24  1  0  0  0  0
 25 26  1  0  0  0  0
 26 29  1  0  0  0  0
 26 27  1  0  0  0  0
 28 26  1  0  0  0  0
 30 42  1  0  0  0  0
 31 30  1  0  0  0  0
 32 30  1  0  0  0  0
 33 30  1  0  0  0  0
 34 35  1  0  0  0  0
 36 34  1  0  0  0  0
 37 34  1  0  0  0  0
 38 41  1  0  0  0  0
 39 38  1  0  0  0  0
 40 38  1  0  0  0  0
 42 38  1  0  0  0  0
 42 34  1  0  0  0  0
 43 42  1  1  0  0  0
 43  5  1  0  0  0  0
 44 43  1  0  0  0  0
 44 46  2  0  0  0  0
 45 44  1  0  0  0  0
 46 47  1  0  0  0  0
 46  6  1  0  0  0  0
 47 50  1  0  0  0  0
 47 48  1  0  0  0  0
 49 47  1  0  0  0  0
 51 63  1  0  0  0  0
 52 51  1  0  0  0  0
 53 51  1  0  0  0  0
 54 51  1  0  0  0  0
 55 58  1  0  0  0  0
 56 55  1  0  0  0  0
 57 55  1  0  0  0  0
 59 60  1  0  0  0  0
 61 59  1  0  0  0  0
 62 59  1  0  0  0  0
 63 59  1  0  0  0  0
 63 55  1  0  0  0  0
 64 63  1  6  0  0  0
 64 65  1  0  0  0  0
 65 67  2  0  0  0  0
 65 66  1  0  0  0  0
 67 68  1  0  0  0  0
 68 70  1  0  0  0  0
 68 69  1  0  0  0  0
 71 68  1  0  0  0  0
M  END
