6,42,55
q = -1.0

 55 60  0  0  1  0  0  0  0  0999 V2000
   -3.2081   -0.1486   -0.1854 N   0  0  0  0  0  0  0  0  0  0  0  0
   -2.5495    1.1376    0.0001 C   0  0  0  0  0  0  0  0  0  0  0  0
   -3.1543    2.1718    0.2480 O   0  0  0  0  0  0  0  0  0  0  0  0
   -1.1101    0.8993   -0.1829 C   0  0  0  0  0  0  0  0  0  0  0  0
   -0.9346   -0.4883   -0.4371 C   0  0  0  0  0  0  0  0  0  0  0  0
    0.1665   -1.2289   -0.6279 N   0  0  0  0  0  2  0  0  0  0  0  0
   -0.0172   -2.5681   -0.9371 C   0  0  0  0  0  0  0  0  0  0  0  0
    1.0935   -3.3967   -1.2367 C   0  0  0  0  0  0  0  0  0  0  0  0
    2.0996   -2.9572   -1.1941 H   0  0  0  0  0  0  0  0  0  0  0  0
    0.9099   -4.7422   -1.5474 C   0  0  0  0  0  0  0  0  0  0  0  0
    1.7842   -5.3694   -1.7799 H   0  0  0  0  0  0  0  0  0  0  0  0
   -0.3884   -5.3050   -1.5707 C   0  0  0  0  0  0  0  0  0  0  0  0
   -0.5226   -6.3695   -1.8150 H   0  0  0  0  0  0  0  0  0  0  0  0
   -1.4951   -4.5093   -1.2904 C   0  0  0  0  0  3  0  0  0  0  0  0
   -2.5192   -4.9100   -1.3049 H   0  0  0  0  0  0  0  0  0  0  0  0
   -1.3429   -3.1341   -0.9769 C   0  0  0  0  0  0  0  0  0  0  0  0
   -2.4685   -2.3808   -0.7212 N   0  0  0  0  0  0  0  0  0  0  0  0
   -2.2566   -1.1141   -0.4750 C   0  0  0  0  0  0  0  0  0  0  0  0
   -4.6121   -0.3439   -0.1104 C   0  0  0  0  0  0  0  0  0  0  0  0
   -5.2477   -1.2951   -0.9369 C   0  0  0  0  0  0  0  0  0  0  0  0
   -4.6463   -1.9043   -1.6218 H   0  0  0  0  0  0  0  0  0  0  0  0
   -6.6347   -1.4750   -0.8539 C   0  0  0  0  0  0  0  0  0  0  0  0
   -7.1182   -2.2238   -1.4999 H   0  0  0  0  0  0  0  0  0  0  0  0
   -7.4044   -0.7105    0.0366 C   0  0  0  0  0  0  0  0  0  0  0  0
   -8.4940   -0.8537    0.0943 H   0  0  0  0  0  0  0  0  0  0  0  0
   -6.7690    0.2366    0.8544 C   0  0  0  0  0  0  0  0  0  0  0  0
   -7.3591    0.8420    1.5594 H   0  0  0  0  0  0  0  0  0  0  0  0
   -5.3815    0.4213    0.7927 C   0  0  0  0  0  0  0  0  0  0  0  0
   -4.8892    1.1687    1.4251 H   0  0  0  0  0  0  0  0  0  0  0  0
   -0.1123    1.9178   -0.2069 C   0  0  0  0  0  0  0  0  0  0  0  0
   -0.5032    3.3587   -0.0873 C   0  0  0  0  0  0  0  0  0  0  0  0
   -1.0665    4.0576   -1.1713 C   0  0  0  0  0  0  0  0  0  0  0  0
   -1.2846    3.5203   -2.1065 H   0  0  0  0  0  0  0  0  0  0  0  0
   -1.3611    5.4230   -1.0513 C   0  0  0  0  0  0  0  0  0  0  0  0
   -1.8052    5.9626   -1.9016 H   0  0  0  0  0  0  0  0  0  0  0  0
   -1.1065    6.0968    0.1539 C   0  0  0  0  0  0  0  0  0  0  0  0
   -1.3474    7.1666    0.2489 H   0  0  0  0  0  0  0  0  0  0  0  0
   -0.5526    5.4011    1.2404 C   0  0  0  0  0  0  0  0  0  0  0  0
   -0.3633    5.9225    2.1911 H   0  0  0  0  0  0  0  0  0  0  0  0
   -0.2456    4.0383    1.1196 C   0  0  0  0  0  0  0  0  0  0  0  0
    0.1799    3.4810    1.9689 H   0  0  0  0  0  0  0  0  0  0  0  0
    1.1606    1.5902   -0.3529 N   0  0  0  0  0  2  0  0  0  0  0  0
    2.1794    2.5943   -0.5279 C   0  0  0  0  0  0  0  0  0  0  0  0
    2.3710    3.1651    0.4143 H   0  0  0  0  0  0  0  0  0  0  0  0
    1.8958    3.3694   -1.2757 H   0  0  0  0  0  0  0  0  0  0  0  0
    3.4916    1.9536   -0.9373 C   0  0  1  0  0  3  0  0  0  0  0  0
    4.5522    2.7037   -1.4764 C   0  0  0  0  0  0  0  0  0  0  0  0
    4.4250    3.7833   -1.6470 H   0  0  0  0  0  0  0  0  0  0  0  0
    5.7532    2.0572   -1.7885 C   0  0  0  0  0  0  0  0  0  0  0  0
    6.5933    2.6242   -2.2175 H   0  0  0  0  0  0  0  0  0  0  0  0
    5.8726    0.6780   -1.5478 C   0  0  0  0  0  0  0  0  0  0  0  0
    6.8008    0.1349   -1.7753 H   0  0  0  0  0  0  0  0  0  0  0  0
    4.7765    0.0004   -1.0062 C   0  0  0  0  0  0  0  0  0  0  0  0
    4.7927   -1.0753   -0.7684 H   0  0  0  0  0  0  0  0  0  0  0  0
    3.6189    0.6296   -0.7218 N   0  0  0  0  0  2  0  0  0  0  0  0
  1 19  1  0  0  0  0
  1  2  1  0  0  0  0
  2  3  2  0  0  0  0
  4  2  1  0  0  0  0
  5  4  1  0  0  0  0
  6  5  1  0  0  0  0
  7  6  1  0  0  0  0
  8  9  1  0  0  0  0
  8  7  2  0  0  0  0
 10  8  1  0  0  0  0
 11 10  1  0  0  0  0
 12 10  2  0  0  0  0
 12 14  1  0  0  0  0
 13 12  1  0  0  0  0
 14 16  1  0  0  0  0
 15 14  1  0  0  0  0
 16  7  1  0  0  0  0
 16 17  2  0  0  0  0
 17 18  1  0  0  0  0
 18  5  2  0  0  0  0
 18  1  1  0  0  0  0
 19 28  1  0  0  0  0
 20 22  1  0  0  0  0
 20 19  2  0  0  0  0
 21 20  1  0  0  0  0
 22 24  2  0  0  0  0
 23 22  1  0  0  0  0
 24 25  1  0  0  0  0
 24 26  1  0  0  0  0
 26 27  1  0  0  0  0
 28 26  2  0  0  0  0
 28 29  1  0  0  0  0
 30  4  2  0  0  0  0
 30 31  1  0  0  0  0
 31 40  1  0  0  0  0
 32 34  1  0  0  0  0
 32 31  2  0  0  0  0
 33 32  1  0  0  0  0
 34 36  2  0  0  0  0
 35 34  1  0  0  0  0
 36 37  1  0  0  0  0
 36 38  1  0  0  0  0
 38 39  1  0  0  0  0
 40 38  2  0  0  0  0
 40 41  1  0  0  0  0
 42 30  1  0  0  0  0
 43 42  1  0  0  0  0
 43 44  1  0  0  0  0
 45 43  1  0  0  0  0
 46 55  1  0  0  0  0
 46 43  1  1  0  0  0
 47 46  1  0  0  0  0
 48 47  1  0  0  0  0
 49 51  1  0  0  0  0
 49 47  2  0  0  0  0
 50 49  1  0  0  0  0
 51 53  2  0  0  0  0
 52 51  1  0  0  0  0
 53 54  1  0  0  0  0
 53 55  1  0  0  0  0
M  END
