1,2,3
q = 0.0, confidence = 0.996

 51 54  0  0  1  0  0  0  0  0999 V2000
    0.5087    0.0387   -1.6517 N   0  0  0  0  0  0  0  0  0  0  0  0
    1.2749    1.9693    0.1639 N   0  0  0  0  0  2  0  0  0  0  0  0
    2.0385   -1.3917    0.1639 N   0  0  0  0  0  2  0  0  0  0  0  0
   -2.7437   -2.3627    0.3776 N   0  0  0  0  0  0  0  0  0  0  0  0
    2.2992    2.2066    2.3553 C   0  0  0  0  0  0  0  0  0  0  0  0
    1.9272    2.7900    1.0228 C   0  0  1  0  0  3  0  0  0  0  0  0
    2.2381    4.1117    0.6560 C   0  0  0  0  0  0  0  0  0  0  0  0
    1.8822    4.5741   -0.6175 C   0  0  0  0  0  0  0  0  0  0  0  0
    1.2227    3.7071   -1.4994 C   0  0  0  0  0  0  0  0  0  0  0  0
    0.9243    2.4073   -1.0669 C   0  0  0  0  0  0  0  0  0  0  0  0
    0.1531    1.4291   -1.9331 C   0  0  0  0  0  0  0  0  0  0  0  0
    1.8910   -0.3014   -2.0090 C   0  0  0  0  0  0  0  0  0  0  0  0
    2.4200   -1.4263   -1.1381 C   0  0  1  0  0  3  0  0  0  0  0  0
    3.2857   -2.4125   -1.6256 C   0  0  0  0  0  0  0  0  0  0  0  0
    3.7778   -3.3794   -0.7363 C   0  0  0  0  0  0  0  0  0  0  0  0
    3.3860   -3.3304    0.6069 C   0  0  0  0  0  0  0  0  0  0  0  0
    2.5073   -2.3193    1.0372 C   0  0  0  0  0  0  0  0  0  0  0  0
    2.0433   -2.1973    2.4587 C   0  0  0  0  0  0  0  0  0  0  0  0
   -0.4731   -0.9486   -2.1840 C   0  0  0  0  0  0  0  0  0  0  0  0
   -1.5786   -2.3466   -0.3564 C   0  0  0  0  0  0  0  0  0  0  0  0
   -1.5904   -1.2738   -1.2407 C   0  0  0  0  0  0  0  0  0  0  0  0
   -2.8479   -0.5904   -1.0363 C   0  0  0  0  0  0  0  0  0  0  0  0
   -3.4716    0.5404   -1.6135 C   0  0  0  0  0  0  0  0  0  0  0  0
   -4.7369    0.9280   -1.1635 C   0  0  0  0  0  0  0  0  0  0  0  0
   -5.4112    0.1996   -0.1517 C   0  0  0  0  0  0  0  0  0  0  0  0
   -4.8316   -0.9335    0.4317 C   0  0  0  0  0  0  0  0  0  0  0  0
   -3.5511   -1.3095   -0.0117 C   0  0  0  0  0  0  0  0  0  0  0  0
    1.4024    1.7865    2.8549 H   0  0  0  0  0  0  0  0  0  0  0  0
    3.0130    1.3673    2.2168 H   0  0  0  0  0  0  0  0  0  0  0  0
    2.7654    2.9557    3.0210 H   0  0  0  0  0  0  0  0  0  0  0  0
    2.7637    4.7654    1.3668 H   0  0  0  0  0  0  0  0  0  0  0  0
    2.1249    5.6023   -0.9244 H   0  0  0  0  0  0  0  0  0  0  0  0
    0.9396    4.0304   -2.5118 H   0  0  0  0  0  0  0  0  0  0  0  0
    0.2774    1.6985   -3.0105 H   0  0  0  0  0  0  0  0  0  0  0  0
   -0.9267    1.5452   -1.6984 H   0  0  0  0  0  0  0  0  0  0  0  0
    2.5246    0.5931   -1.8250 H   0  0  0  0  0  0  0  0  0  0  0  0
    2.0096   -0.5574   -3.0878 H   0  0  0  0  0  0  0  0  0  0  0  0
    3.5681   -2.4193   -2.6884 H   0  0  0  0  0  0  0  0  0  0  0  0
    4.4573   -4.1687   -1.0905 H   0  0  0  0  0  0  0  0  0  0  0  0
    3.7516   -4.0751    1.3282 H   0  0  0  0  0  0  0  0  0  0  0  0
    2.4626   -1.2803    2.9242 H   0  0  0  0  0  0  0  0  0  0  0  0
    0.9396   -2.0890    2.4890 H   0  0  0  0  0  0  0  0  0  0  0  0
    2.3477   -3.0659    3.0709 H   0  0  0  0  0  0  0  0  0  0  0  0
    0.0907   -1.8797   -2.3882 H   0  0  0  0  0  0  0  0  0  0  0  0
   -0.8656   -0.6016   -3.1680 H   0  0  0  0  0  0  0  0  0  0  0  0
   -3.0037   -3.0838    1.0488 H   0  0  0  0  0  0  0  0  0  0  0  0
   -0.8095   -3.1141   -0.2093 H   0  0  0  0  0  0  0  0  0  0  0  0
   -2.9812    1.1018   -2.4237 H   0  0  0  0  0  0  0  0  0  0  0  0
   -5.2290    1.8030   -1.6130 H   0  0  0  0  0  0  0  0  0  0  0  0
   -6.4151    0.5180    0.1662 H   0  0  0  0  0  0  0  0  0  0  0  0
   -5.3645   -1.5135    1.2005 H   0  0  0  0  0  0  0  0  0  0  0  0
  2  6  1  0  0  0  0
  3 17  1  0  0  0  0
  4 46  1  0  0  0  0
  5 28  1  0  0  0  0
  5 30  1  0  0  0  0
  6  5  1  6  0  0  0
  7  6  1  0  0  0  0
  7 31  1  0  0  0  0
  8  7  2  0  0  0  0
  9 10  2  0  0  0  0
  9  8  1  0  0  0  0
 10  2  1  0  0  0  0
 11 35  1  0  0  0  0
 11  1  1  0  0  0  0
 11 10  1  0  0  0  0
 12 36  1  0  0  0  0
 12  1  1  0  0  0  0
 13 12  1  1  0  0  0
 13  3  1  0  0  0  0
 14 13  1  0  0  0  0
 14 15  2  0  0  0  0
 15 16  1  0  0  0  0
 16 17  2  0  0  0  0
 16 40  1  0  0  0  0
 17 18  1  0  0  0  0
 18 42  1  0  0  0  0
 18 41  1  0  0  0  0
 18 43  1  0  0  0  0
 19  1  1  0  0  0  0
 19 21  1  0  0  0  0
 20 47  1  0  0  0  0
 20  4  1  0  0  0  0
 21 22  1  0  0  0  0
 21 20  2  0  0  0  0
 22 27  1  0  0  0  0
 23 24  1  0  0  0  0
 23 22  2  0  0  0  0
 24 25  2  0  0  0  0
 25 50  1  0  0  0  0
 25 26  1  0  0  0  0
 26 51  1  0  0  0  0
 27  4  1  0  0  0  0
 27 26  2  0  0  0  0
 29  5  1  0  0  0  0
 32  8  1  0  0  0  0
 33  9  1  0  0  0  0
 34 11  1  0  0  0  0
 37 12  1  0  0  0  0
 38 14  1  0  0  0  0
 39 15  1  0  0  0  0
 44 19  1  0  0  0  0
 45 19  1  0  0  0  0
 48 23  1  0  0  0  0
 49 24  1  0  0  0  0
M  END
