1,2,3
q = -2.0, confidence = 0.902

 27 28  0  0  0  0  0  0  0  0999 V2000
    1.7244   -1.0834   -1.5201 N   0  0  0  0  0  0  0  0  0  0  0  0
   -0.8174   -1.9225   -0.8838 N   0  0  0  0  0  0  0  0  0  0  0  0
    1.5865   -1.3876    1.2791 N   0  0  0  0  0  0  0  0  0  0  0  0
    2.7048   -0.0782   -1.9338 C   0  0  0  0  0  0  0  0  0  0  0  0
    0.8752   -1.5103   -2.6539 C   0  0  0  0  0  0  0  0  0  0  0  0
    2.4141   -2.2346   -0.8662 C   0  0  0  0  0  0  0  0  0  0  0  0
   -0.3380   -2.2307   -2.1510 C   0  0  0  0  0  0  0  0  0  0  0  0
   -1.2010   -3.1297   -2.7805 C   0  0  0  0  0  0  0  0  0  0  0  0
   -2.2659   -3.3813   -1.8589 C   0  0  0  0  0  0  0  0  0  0  0  0
   -1.9929   -2.6282   -0.7158 C   0  0  0  0  0  3  0  0  0  0  0  0
    2.6557   -1.9254    0.5750 C   0  0  0  0  0  0  0  0  0  0  0  0
    3.7271   -2.1518    1.4389 C   0  0  0  0  0  0  0  0  0  0  0  0
    3.2884   -1.7419    2.7416 C   0  0  0  0  0  0  0  0  0  0  0  0
    1.9760   -1.2865    2.6001 C   0  0  0  0  0  3  0  0  0  0  0  0
    3.3521    0.1766   -1.0731 H   0  0  0  0  0  0  0  0  0  0  0  0
    3.3536   -0.4586   -2.7586 H   0  0  0  0  0  0  0  0  0  0  0  0
    2.1936    0.8398   -2.2845 H   0  0  0  0  0  0  0  0  0  0  0  0
    1.4476   -2.1378   -3.3798 H   0  0  0  0  0  0  0  0  0  0  0  0
    0.5943   -0.5805   -3.1995 H   0  0  0  0  0  0  0  0  0  0  0  0
    3.3569   -2.4876   -1.4033 H   0  0  0  0  0  0  0  0  0  0  0  0
    1.7301   -3.1054   -0.9648 H   0  0  0  0  0  0  0  0  0  0  0  0
   -1.0776   -3.5569   -3.7837 H   0  0  0  0  0  0  0  0  0  0  0  0
   -3.1172   -4.0577   -2.0055 H   0  0  0  0  0  0  0  0  0  0  0  0
   -2.5459   -2.5744    0.2287 H   0  0  0  0  0  0  0  0  0  0  0  0
    4.6984   -2.5886    1.1743 H   0  0  0  0  0  0  0  0  0  0  0  0
    3.8665   -1.7887    3.6731 H   0  0  0  0  0  0  0  0  0  0  0  0
    1.2845   -0.8787    3.3481 H   0  0  0  0  0  0  0  0  0  0  0  0
  1  6  1  0  0  0  0
  2 10  1  0  0  0  0
  3 14  1  0  0  0  0
  4  1  1  0  0  0  0
  4 15  1  0  0  0  0
  5  7  1  0  0  0  0
  5  1  1  0  0  0  0
  6 11  1  0  0  0  0
  7  2  2  0  0  0  0
  8  7  1  0  0  0  0
  8  9  2  0  0  0  0
  9 10  1  0  0  0  0
 10 24  1  0  0  0  0
 11  3  2  0  0  0  0
 11 12  1  0  0  0  0
 12 13  2  0  0  0  0
 13 26  1  0  0  0  0
 14 13  1  0  0  0  0
 14 27  1  0  0  0  0
 16  4  1  0  0  0  0
 17  4  1  0  0  0  0
 18  5  1  0  0  0  0
 19  5  1  0  0  0  0
 20  6  1  0  0  0  0
 21  6  1  0  0  0  0
 22  8  1  0  0  0  0
 23  9  1  0  0  0  0
 25 12  1  0  0  0  0
M  END
