1,2,3
q = -2.0, confidence = 0.91

 45 47  0  0  0  0  0  0  0  0999 V2000
   -1.6250    0.8028   -0.4127 N   0  0  0  0  0  2  0  0  0  0  0  0
    1.5872    0.8438   -0.3066 N   0  0  0  0  0  2  0  0  0  0  0  0
   -0.1134    1.2677    1.9782 N   0  0  0  0  0  2  0  0  0  0  0  0
   -2.4027   -1.4762    0.6228 F   0  0  0  0  0  0  0  0  0  0  0  0
   -3.5495    2.1101   -2.2545 F   0  0  0  0  0  0  0  0  0  0  0  0
    2.1777   -1.6059    0.3075 F   0  0  0  0  0  0  0  0  0  0  0  0
    3.8386    2.4737   -1.4401 F   0  0  0  0  0  0  0  0  0  0  0  0
   -1.3209    2.2015   -0.6712 C   0  0  0  0  0  0  0  0  0  0  0  0
   -0.0748    2.7893    0.0554 C   0  0  0  0  0  0  0  0  0  0  0  0
    1.2794    2.2575   -0.5031 C   0  0  0  0  0  0  0  0  0  0  0  0
   -0.0804    4.2905   -0.2946 C   0  0  0  0  0  0  0  0  0  0  0  0
   -0.1483    0.9983    3.3005 C   0  0  0  0  0  3  0  0  0  0  0  0
   -0.2366    1.9918    4.2802 C   0  0  0  0  0  0  0  0  0  0  0  0
   -0.2913    3.3274    3.8634 C   0  0  0  0  0  0  0  0  0  0  0  0
   -0.2467    3.6105    2.4929 C   0  0  0  0  0  0  0  0  0  0  0  0
   -0.1526    2.5604    1.5586 C   0  0  0  0  0  0  0  0  0  0  0  0
   -2.8934    0.3645   -0.7353 C   0  0  0  0  0  0  0  0  0  0  0  0
   -3.3357   -0.8647   -0.1870 C   0  0  0  0  0  0  0  0  0  0  0  0
   -4.5713   -1.4614   -0.3837 C   0  0  0  0  0  0  0  0  0  0  0  0
   -5.4901   -0.8042   -1.2215 C   0  0  0  0  0  0  0  0  0  0  0  0
   -5.1220    0.4081   -1.8233 C   0  0  0  0  0  0  0  0  0  0  0  0
   -3.8591    0.9644   -1.5958 C   0  0  0  0  0  0  0  0  0  0  0  0
    2.9046    0.4638   -0.4850 C   0  0  0  0  0  0  0  0  0  0  0  0
    3.2533   -0.8663   -0.1507 C   0  0  0  0  0  0  0  0  0  0  0  0
    4.4987   -1.4612   -0.2520 C   0  0  0  0  0  0  0  0  0  0  0  0
    5.5513   -0.6750   -0.7533 C   0  0  0  0  0  0  0  0  0  0  0  0
    5.2917    0.6500   -1.1319 C   0  0  0  0  0  0  0  0  0  0  0  0
    4.0100    1.1980   -1.0101 C   0  0  0  0  0  0  0  0  0  0  0  0
   -2.1875    2.8320   -0.3738 H   0  0  0  0  0  0  0  0  0  0  0  0
   -1.1584    2.3918   -1.7578 H   0  0  0  0  0  0  0  0  0  0  0  0
    1.2844    2.5137   -1.5882 H   0  0  0  0  0  0  0  0  0  0  0  0
    2.0707    2.8796   -0.0346 H   0  0  0  0  0  0  0  0  0  0  0  0
   -1.0067    4.7878    0.0525 H   0  0  0  0  0  0  0  0  0  0  0  0
   -0.0295    4.4151   -1.3936 H   0  0  0  0  0  0  0  0  0  0  0  0
    0.7901    4.8177    0.1421 H   0  0  0  0  0  0  0  0  0  0  0  0
   -0.1069   -0.0660    3.5775 H   0  0  0  0  0  0  0  0  0  0  0  0
   -0.2621    1.7149    5.3436 H   0  0  0  0  0  0  0  0  0  0  0  0
   -0.3648    4.1451    4.5964 H   0  0  0  0  0  0  0  0  0  0  0  0
   -0.2826    4.6512    2.1494 H   0  0  0  0  0  0  0  0  0  0  0  0
   -4.7961   -2.4183    0.1067 H   0  0  0  0  0  0  0  0  0  0  0  0
   -6.4797   -1.2416   -1.4123 H   0  0  0  0  0  0  0  0  0  0  0  0
   -5.7993    0.9431   -2.5042 H   0  0  0  0  0  0  0  0  0  0  0  0
    4.6274   -2.5104    0.0461 H   0  0  0  0  0  0  0  0  0  0  0  0
    6.5604   -1.0964   -0.8576 H   0  0  0  0  0  0  0  0  0  0  0  0
    6.0795    1.2950   -1.5465 H   0  0  0  0  0  0  0  0  0  0  0  0
  3 12  1  0  0  0  0
  5 22  1  0  0  0  0
  7 28  1  0  0  0  0
  8  1  1  0  0  0  0
  8 29  1  0  0  0  0
  8  9  1  0  0  0  0
  9 16  1  0  0  0  0
 10  2  1  0  0  0  0
 10 32  1  0  0  0  0
 10  9  1  0  0  0  0
 11 33  1  0  0  0  0
 11  9  1  0  0  0  0
 11 35  1  0  0  0  0
 12 36  1  0  0  0  0
 12 13  1  0  0  0  0
 13 37  1  0  0  0  0
 14 13  2  0  0  0  0
 14 38  1  0  0  0  0
 15 14  1  0  0  0  0
 16  3  1  0  0  0  0
 16 15  2  0  0  0  0
 17  1  1  0  0  0  0
 17 18  1  0  0  0  0
 18  4  1  0  0  0  0
 19 18  2  0  0  0  0
 19 40  1  0  0  0  0
 20 19  1  0  0  0  0
 21 22  1  0  0  0  0
 21 20  2  0  0  0  0
 22 17  2  0  0  0  0
 23  2  1  0  0  0  0
 23 24  1  0  0  0  0
 24  6  1  0  0  0  0
 25 24  2  0  0  0  0
 25 43  1  0  0  0  0
 26 25  1  0  0  0  0
 27 28  1  0  0  0  0
 27 26  2  0  0  0  0
 28 23  2  0  0  0  0
 30  8  1  0  0  0  0
 31 10  1  0  0  0  0
 34 11  1  0  0  0  0
 39 15  1  0  0  0  0
 41 20  1  0  0  0  0
 42 21  1  0  0  0  0
 44 26  1  0  0  0  0
 45 27  1  0  0  0  0
M  END
