3,23,43
q = -1.0

 62 64  0  0  0  0  0  0  0  0999 V2000
    1.3941    0.0003   -2.4523 B   0  0  0  0  0  0  0  0  0  0  0  0
    1.9595    0.0005   -3.5343 H   0  0  0  0  0  0  0  0  0  0  0  0
    1.3548   -1.5549   -0.4217 N   0  0  0  0  0  2  0  0  0  0  0  0
    1.8166   -1.2738   -1.6692 N   0  0  0  0  0  0  0  0  0  0  0  0
    2.6564   -2.2595   -2.0738 C   0  0  0  0  0  3  0  0  0  0  0  0
    3.1334   -2.2129   -3.0585 H   0  0  0  0  0  0  0  0  0  0  0  0
    2.7400   -3.2098   -1.0545 C   0  0  0  0  0  0  0  0  0  0  0  0
    3.3307   -4.1294   -1.0578 H   0  0  0  0  0  0  0  0  0  0  0  0
    1.8983   -2.7257   -0.0231 C   0  0  0  0  0  0  0  0  0  0  0  0
    1.5816   -3.3349    1.3345 C   0  0  0  0  0  0  0  0  0  0  0  0
    2.3581   -4.6536    1.4967 C   0  0  0  0  0  0  0  0  0  0  0  0
    2.0777   -5.3888    0.7156 H   0  0  0  0  0  0  0  0  0  0  0  0
    2.1336   -5.1064    2.4828 H   0  0  0  0  0  0  0  0  0  0  0  0
    3.4532   -4.4895    1.4408 H   0  0  0  0  0  0  0  0  0  0  0  0
    1.9999   -2.3591    2.4576 C   0  0  0  0  0  0  0  0  0  0  0  0
    3.0741   -2.0972    2.3805 H   0  0  0  0  0  0  0  0  0  0  0  0
    1.8247   -2.8226    3.4497 H   0  0  0  0  0  0  0  0  0  0  0  0
    1.4088   -1.4221    2.4312 H   0  0  0  0  0  0  0  0  0  0  0  0
    0.0665   -3.6224    1.4349 C   0  0  0  0  0  0  0  0  0  0  0  0
   -0.5322   -2.6911    1.3855 H   0  0  0  0  0  0  0  0  0  0  0  0
   -0.1679   -4.1070    2.4045 H   0  0  0  0  0  0  0  0  0  0  0  0
   -0.2681   -4.2943    0.6194 H   0  0  0  0  0  0  0  0  0  0  0  0
    1.3549    1.5551   -0.4215 N   0  0  0  0  0  2  0  0  0  0  0  0
    1.8164    1.2745   -1.6692 N   0  0  0  0  0  0  0  0  0  0  0  0
    2.6553    2.2608   -2.0741 C   0  0  0  0  0  3  0  0  0  0  0  0
    3.1320    2.2146   -3.0589 H   0  0  0  0  0  0  0  0  0  0  0  0
    2.7388    3.2109   -1.0546 C   0  0  0  0  0  0  0  0  0  0  0  0
    3.3291    4.1308   -1.0579 H   0  0  0  0  0  0  0  0  0  0  0  0
    1.8977    2.7262   -0.0230 C   0  0  0  0  0  0  0  0  0  0  0  0
    1.5811    3.3348    1.3349 C   0  0  0  0  0  0  0  0  0  0  0  0
    2.3571    4.6538    1.4973 C   0  0  0  0  0  0  0  0  0  0  0  0
    3.4523    4.4903    1.4411 H   0  0  0  0  0  0  0  0  0  0  0  0
    2.1327    5.1062    2.4837 H   0  0  0  0  0  0  0  0  0  0  0  0
    2.0761    5.3891    0.7165 H   0  0  0  0  0  0  0  0  0  0  0  0
    0.0659    3.6218    1.4355 C   0  0  0  0  0  0  0  0  0  0  0  0
   -0.2689    4.2940    0.6204 H   0  0  0  0  0  0  0  0  0  0  0  0
   -0.1687    4.1057    2.4054 H   0  0  0  0  0  0  0  0  0  0  0  0
   -0.5325    2.6904    1.3855 H   0  0  0  0  0  0  0  0  0  0  0  0
    2.0000    2.3588    2.4575 C   0  0  0  0  0  0  0  0  0  0  0  0
    1.4094    1.4216    2.4311 H   0  0  0  0  0  0  0  0  0  0  0  0
    1.8248    2.8220    3.4498 H   0  0  0  0  0  0  0  0  0  0  0  0
    3.0743    2.0974    2.3801 H   0  0  0  0  0  0  0  0  0  0  0  0
   -1.0356    0.0007   -1.6680 N   0  0  0  0  0  2  0  0  0  0  0  0
   -0.1407    0.0001   -2.6907 N   0  0  0  0  0  0  0  0  0  0  0  0
   -0.8056   -0.0011   -3.8737 C   0  0  0  0  0  3  0  0  0  0  0  0
   -0.2549   -0.0017   -4.8204 H   0  0  0  0  0  0  0  0  0  0  0  0
   -2.1760   -0.0013   -3.6056 C   0  0  0  0  0  0  0  0  0  0  0  0
   -2.9909   -0.0023   -4.3344 H   0  0  0  0  0  0  0  0  0  0  0  0
   -2.2804   -0.0003   -2.1929 C   0  0  0  0  0  0  0  0  0  0  0  0
   -3.5159    0.0000   -1.3054 C   0  0  0  0  0  0  0  0  0  0  0  0
   -4.7820    0.0002   -2.1794 C   0  0  0  0  0  0  0  0  0  0  0  0
   -5.6842    0.0005   -1.5362 H   0  0  0  0  0  0  0  0  0  0  0  0
   -4.8285   -0.8983   -2.8275 H   0  0  0  0  0  0  0  0  0  0  0  0
   -4.8279    0.8985   -2.8278 H   0  0  0  0  0  0  0  0  0  0  0  0
   -3.5139   -1.2648   -0.4176 C   0  0  0  0  0  0  0  0  0  0  0  0
   -2.6180   -1.3058    0.2326 H   0  0  0  0  0  0  0  0  0  0  0  0
   -3.5300   -2.1845   -1.0361 H   0  0  0  0  0  0  0  0  0  0  0  0
   -4.3963   -1.2696    0.2525 H   0  0  0  0  0  0  0  0  0  0  0  0
   -3.5135    1.2650   -0.4179 C   0  0  0  0  0  0  0  0  0  0  0  0
   -4.3963    1.2705    0.2518 H   0  0  0  0  0  0  0  0  0  0  0  0
   -3.5289    2.1846   -1.0367 H   0  0  0  0  0  0  0  0  0  0  0  0
   -2.6180    1.3056    0.2328 H   0  0  0  0  0  0  0  0  0  0  0  0
  1  4  1  0  0  0  0
  1 24  1  0  0  0  0
  2  1  1  0  0  0  0
  3  9  1  0  0  0  0
  4  3  1  0  0  0  0
  5  4  1  0  0  0  0
  5  7  1  0  0  0  0
  6  5  1  0  0  0  0
  7  9  2  0  0  0  0
  8  7  1  0  0  0  0
  9 10  1  0  0  0  0
 10 19  1  0  0  0  0
 10 11  1  0  0  0  0
 10 15  1  0  0  0  0
 11 13  1  0  0  0  0
 12 11  1  0  0  0  0
 14 11  1  0  0  0  0
 15 17  1  0  0  0  0
 16 15  1  0  0  0  0
 18 15  1  0  0  0  0
 19 21  1  0  0  0  0
 20 19  1  0  0  0  0
 22 19  1  0  0  0  0
 23 29  1  0  0  0  0
 24 23  1  0  0  0  0
 25 24  1  0  0  0  0
 25 27  1  0  0  0  0
 26 25  1  0  0  0  0
 27 29  2  0  0  0  0
 28 27  1  0  0  0  0
 29 30  1  0  0  0  0
 30 35  1  0  0  0  0
 30 31  1  0  0  0  0
 30 39  1  0  0  0  0
 31 33  1  0  0  0  0
 32 31  1  0  0  0  0
 34 31  1  0  0  0  0
 35 37  1  0  0  0  0
 36 35  1  0  0  0  0
 38 35  1  0  0  0  0
 39 41  1  0  0  0  0
 40 39  1  0  0  0  0
 42 39  1  0  0  0  0
 44  1  1  0  0  0  0
 44 43  1  0  0  0  0
 45 47  1  0  0  0  0
 45 44  1  0  0  0  0
 46 45  1  0  0  0  0
 47 49  2  0  0  0  0
 48 47  1  0  0  0  0
 49 43  1  0  0  0  0
 49 50  1  0  0  0  0
 50 59  1  0  0  0  0
 50 55  1  0  0  0  0
 51 52  1  0  0  0  0
 51 50  1  0  0  0  0
 53 51  1  0  0  0  0
 54 51  1  0  0  0  0
 55 56  1  0  0  0  0
 55 58  1  0  0  0  0
 57 55  1  0  0  0  0
 59 62  1  0  0  0  0
 59 60  1  0  0  0  0
 61 59  1  0  0  0  0
M  END
