1,3,4
q = -1.0

 76 84  0  0  1  0  0  0  0  0999 V2000
   -1.8873   -0.6201   -0.2819 N   0  0  0  0  0  0  0  0  0  0  0  0
    0.7187   -2.0366   -0.4817 O   0  0  0  0  0  0  0  0  0  0  0  0
   -0.7223    2.0354    0.0261 N   0  0  0  0  0  0  0  0  0  0  0  0
    1.8591    0.6907   -0.2112 N   0  0  0  0  0  0  0  0  0  0  0  0
    2.0328   -2.4070   -0.2958 C   0  0  0  0  0  0  0  0  0  0  0  0
    2.0766   -3.8007   -0.0182 C   0  0  0  0  0  0  0  0  0  0  0  0
    2.9906   -4.3656    0.1876 H   0  0  0  0  0  0  0  0  0  0  0  0
    0.7697   -4.2576    0.0032 C   0  0  0  0  0  0  0  0  0  0  0  0
    0.4127   -5.2669    0.2282 H   0  0  0  0  0  0  0  0  0  0  0  0
   -0.0726   -3.1439   -0.2644 C   0  0  0  0  0  0  0  0  0  0  0  0
   -1.4717   -3.0918   -0.2810 C   0  0  2  0  0  3  0  0  0  0  0  0
   -2.2891   -1.9308   -0.3417 C   0  0  0  0  0  0  0  0  0  0  0  0
   -3.7390   -2.0103   -0.4420 C   0  0  0  0  0  0  0  0  0  0  0  0
   -4.3185   -2.9345   -0.5326 H   0  0  0  0  0  0  0  0  0  0  0  0
   -4.2058   -0.7233   -0.4059 C   0  0  0  0  0  0  0  0  0  0  0  0
   -5.2462   -0.3854   -0.4352 H   0  0  0  0  0  0  0  0  0  0  0  0
   -3.0404    0.1418   -0.2947 C   0  0  0  0  0  3  0  0  0  0  0  0
   -3.1330    1.5510   -0.1613 C   0  0  1  0  0  3  0  0  0  0  0  0
   -2.0310    2.4324   -0.0240 C   0  0  0  0  0  0  0  0  0  0  0  0
   -2.1021    3.8859   -0.0276 C   0  0  0  0  0  0  0  0  0  0  0  0
   -3.0222    4.4772   -0.0788 H   0  0  0  0  0  0  0  0  0  0  0  0
   -0.8065    4.3434    0.0116 C   0  0  0  0  0  0  0  0  0  0  0  0
   -0.4613    5.3823    0.0149 H   0  0  0  0  0  0  0  0  0  0  0  0
    0.0491    3.1665    0.0116 C   0  0  0  0  0  3  0  0  0  0  0  0
    1.4627    3.1654   -0.0845 C   0  0  1  0  0  3  0  0  0  0  0  0
    2.2704    2.0098   -0.2398 C   0  0  0  0  0  3  0  0  0  0  0  0
    3.7025    2.0778   -0.4862 C   0  0  0  0  0  0  0  0  0  0  0  0
    4.2815    2.9998   -0.5992 H   0  0  0  0  0  0  0  0  0  0  0  0
    4.1492    0.7857   -0.5720 C   0  0  0  0  0  0  0  0  0  0  0  0
    5.1663    0.4372   -0.7776 H   0  0  0  0  0  0  0  0  0  0  0  0
    2.9889   -0.0711   -0.3769 C   0  0  0  0  0  0  0  0  0  0  0  0
    3.0908   -1.4896   -0.3484 C   0  0  1  0  0  3  0  0  0  0  0  0
    4.4571   -2.0907   -0.2914 C   0  0  0  0  0  0  0  0  0  0  0  0
    4.9044   -2.9710   -1.3005 C   0  0  0  0  0  0  0  0  0  0  0  0
    4.2399   -3.1956   -2.1487 H   0  0  0  0  0  0  0  0  0  0  0  0
    6.1851   -3.5392   -1.2365 C   0  0  0  0  0  0  0  0  0  0  0  0
    6.5230   -4.2156   -2.0364 H   0  0  0  0  0  0  0  0  0  0  0  0
    7.0357   -3.2405   -0.1602 C   0  0  0  0  0  0  0  0  0  0  0  0
    8.0402   -3.6873   -0.1094 H   0  0  0  0  0  0  0  0  0  0  0  0
    6.5988   -2.3703    0.8519 C   0  0  0  0  0  0  0  0  0  0  0  0
    7.2568   -2.1393    1.7033 H   0  0  0  0  0  0  0  0  0  0  0  0
    5.3202   -1.7990    0.7880 C   0  0  0  0  0  0  0  0  0  0  0  0
    4.9681   -1.1280    1.5857 H   0  0  0  0  0  0  0  0  0  0  0  0
   -2.1537   -4.4135   -0.1247 C   0  0  0  0  0  0  0  0  0  0  0  0
   -2.8864   -4.6910    1.0497 C   0  0  0  0  0  0  0  0  0  0  0  0
   -2.9393   -3.9236    1.8367 H   0  0  0  0  0  0  0  0  0  0  0  0
   -3.5183   -5.9316    1.2155 C   0  0  0  0  0  0  0  0  0  0  0  0
   -4.0808   -6.1377    2.1388 H   0  0  0  0  0  0  0  0  0  0  0  0
   -3.4275   -6.9105    0.2124 C   0  0  0  0  0  0  0  0  0  0  0  0
   -3.9252   -7.8833    0.3433 H   0  0  0  0  0  0  0  0  0  0  0  0
   -2.6975   -6.6446   -0.9571 C   0  0  0  0  0  0  0  0  0  0  0  0
   -2.6258   -7.4063   -1.7485 H   0  0  0  0  0  0  0  0  0  0  0  0
   -2.0617   -5.4051   -1.1237 C   0  0  0  0  0  0  0  0  0  0  0  0
   -1.4945   -5.1905   -2.0422 H   0  0  0  0  0  0  0  0  0  0  0  0
   -4.4915    2.1710   -0.1890 C   0  0  0  0  0  0  0  0  0  0  0  0
   -4.9928    2.8409    0.9482 C   0  0  0  0  0  0  0  0  0  0  0  0
   -4.3774    2.8809    1.8596 H   0  0  0  0  0  0  0  0  0  0  0  0
   -6.2633    3.4344    0.9250 C   0  0  0  0  0  0  0  0  0  0  0  0
   -6.6426    3.9452    1.8232 H   0  0  0  0  0  0  0  0  0  0  0  0
   -7.0507    3.3728   -0.2357 C   0  0  0  0  0  0  0  0  0  0  0  0
   -8.0471    3.8399   -0.2537 H   0  0  0  0  0  0  0  0  0  0  0  0
   -6.5600    2.7134   -1.3740 C   0  0  0  0  0  0  0  0  0  0  0  0
   -7.1679    2.6676   -2.2906 H   0  0  0  0  0  0  0  0  0  0  0  0
   -5.2911    2.1166   -1.3514 C   0  0  0  0  0  0  0  0  0  0  0  0
   -4.9008    1.6090   -2.2463 H   0  0  0  0  0  0  0  0  0  0  0  0
    2.1563    4.4892   -0.0648 C   0  0  0  0  0  0  0  0  0  0  0  0
    1.9914    5.4126   -1.1196 C   0  0  0  0  0  0  0  0  0  0  0  0
    1.3508    5.1429   -1.9727 H   0  0  0  0  0  0  0  0  0  0  0  0
    2.6480    6.6518   -1.0926 C   0  0  0  0  0  0  0  0  0  0  0  0
    2.5151    7.3576   -1.9268 H   0  0  0  0  0  0  0  0  0  0  0  0
    3.4769    6.9884   -0.0106 C   0  0  0  0  0  0  0  0  0  0  0  0
    3.9908    7.9614    0.0105 H   0  0  0  0  0  0  0  0  0  0  0  0
    3.6485    6.0768    1.0432 C   0  0  0  0  0  0  0  0  0  0  0  0
    4.2941    6.3343    1.8967 H   0  0  0  0  0  0  0  0  0  0  0  0
    2.9954    4.8359    1.0161 C   0  0  0  0  0  0  0  0  0  0  0  0
    3.1239    4.1215    1.8431 H   0  0  0  0  0  0  0  0  0  0  0  0
  2  5  1  0  0  0  0
  2 10  1  0  0  0  0
  5  6  2  0  0  0  0
  6  8  1  0  0  0  0
  6  7  1  0  0  0  0
  8  9  1  0  0  0  0
 10  8  2  0  0  0  0
 11 10  1  0  0  0  0
 11 44  1  1  0  0  0
 12  1  2  0  0  0  0
 12 11  1  0  0  0  0
 13 15  2  0  0  0  0
 13 12  1  0  0  0  0
 14 13  1  0  0  0  0
 15 17  1  0  0  0  0
 16 15  1  0  0  0  0
 17  1  1  0  0  0  0
 17 18  1  0  0  0  0
 18 55  1  6  0  0  0
 18 19  1  0  0  0  0
 19  3  2  0  0  0  0
 20 19  1  0  0  0  0
 20 22  2  0  0  0  0
 21 20  1  0  0  0  0
 22 24  1  0  0  0  0
 22 23  1  0  0  0  0
 24  3  1  0  0  0  0
 25 66  1  6  0  0  0
 25 24  1  0  0  0  0
 26  4  1  0  0  0  0
 26 25  1  0  0  0  0
 27 26  1  0  0  0  0
 28 27  1  0  0  0  0
 29 27  2  0  0  0  0
 29 31  1  0  0  0  0
 30 29  1  0  0  0  0
 31 32  1  0  0  0  0
 31  4  2  0  0  0  0
 32  5  1  0  0  0  0
 32 33  1  1  0  0  0
 33 42  1  0  0  0  0
 34 36  1  0  0  0  0
 34 33  2  0  0  0  0
 35 34  1  0  0  0  0
 36 38  2  0  0  0  0
 37 36  1  0  0  0  0
 38 39  1  0  0  0  0
 38 40  1  0  0  0  0
 40 41  1  0  0  0  0
 42 40  2  0  0  0  0
 42 43  1  0  0  0  0
 44 45  1  0  0  0  0
 45 47  2  0  0  0  0
 45 46  1  0  0  0  0
 47 48  1  0  0  0  0
 49 50  1  0  0  0  0
 49 47  1  0  0  0  0
 51 49  2  0  0  0  0
 52 51  1  0  0  0  0
 53 51  1  0  0  0  0
 53 44  2  0  0  0  0
 54 53  1  0  0  0  0
 55 56  1  0  0  0  0
 56 57  1  0  0  0  0
 58 56  2  0  0  0  0
 58 59  1  0  0  0  0
 60 58  1  0  0  0  0
 61 60  1  0  0  0  0
 62 64  1  0  0  0  0
 62 60  2  0  0  0  0
 63 62  1  0  0  0  0
 64 55  2  0  0  0  0
 65 64  1  0  0  0  0
 66 75  1  0  0  0  0
 67 69  1  0  0  0  0
 67 66  2  0  0  0  0
 68 67  1  0  0  0  0
 69 71  2  0  0  0  0
 70 69  1  0  0  0  0
 71 72  1  0  0  0  0
 71 73  1  0  0  0  0
 73 74  1  0  0  0  0
 75 73  2  0  0  0  0
 75 76  1  0  0  0  0
M  END
