1,2,3
q = 0.0, confidence = 0.998

 39 42  0  0  1  0  0  0  0  0999 V2000
   -0.6672   -0.1354   -2.1082 N   0  0  0  0  0  2  0  0  0  0  0  0
    0.8969   -0.2768   -0.0079 N   0  0  0  0  0  2  0  0  0  0  0  0
   -0.5318    0.4150    2.0802 N   0  0  0  0  0  2  0  0  0  0  0  0
   -1.5621   -0.0577   -3.1003 C   0  0  0  0  0  3  0  0  0  0  0  0
   -2.5575    0.3252   -2.8225 H   0  0  0  0  0  0  0  0  0  0  0  0
   -1.2558   -0.4445   -4.4132 C   0  0  0  0  0  0  0  0  0  0  0  0
   -2.0152   -0.3694   -5.2042 H   0  0  0  0  0  0  0  0  0  0  0  0
    0.0333   -0.9274   -4.6797 C   0  0  0  0  0  0  0  0  0  0  0  0
    0.3131   -1.2450   -5.6951 H   0  0  0  0  0  0  0  0  0  0  0  0
    0.9657   -1.0062   -3.6369 C   0  0  0  0  0  0  0  0  0  0  0  0
    1.9781   -1.3876   -3.8265 H   0  0  0  0  0  0  0  0  0  0  0  0
    0.5793   -0.5984   -2.3474 C   0  0  0  0  0  0  0  0  0  0  0  0
    1.4786   -0.6376   -1.1595 C   0  0  2  0  0  3  0  0  0  0  0  0
    2.8304   -1.0173   -1.1922 C   0  0  0  0  0  0  0  0  0  0  0  0
    3.3037   -1.3320   -2.1316 H   0  0  0  0  0  0  0  0  0  0  0  0
    3.5803   -1.0235    0.0035 C   0  0  0  0  0  0  0  0  0  0  0  0
    2.9248   -0.6402    1.1935 C   0  0  0  0  0  0  0  0  0  0  0  0
    3.4851   -0.6132    2.1373 H   0  0  0  0  0  0  0  0  0  0  0  0
    1.5717   -0.2673    1.1496 C   0  0  0  0  0  0  0  0  0  0  0  0
    0.7712    0.1615    2.3313 C   0  0  2  0  0  3  0  0  0  0  0  0
    1.2993    0.2993    3.6275 C   0  0  0  0  0  0  0  0  0  0  0  0
    2.3605    0.0980    3.8271 H   0  0  0  0  0  0  0  0  0  0  0  0
    0.4502    0.7073    4.6646 C   0  0  0  0  0  0  0  0  0  0  0  0
    0.8436    0.8259    5.6852 H   0  0  0  0  0  0  0  0  0  0  0  0
   -0.8997    0.9638    4.3863 C   0  0  0  0  0  0  0  0  0  0  0  0
   -1.5966    1.2857    5.1729 H   0  0  0  0  0  0  0  0  0  0  0  0
   -1.3482    0.8028    3.0672 C   0  0  0  0  0  0  0  0  0  0  0  0
   -2.3956    0.9908    2.7801 H   0  0  0  0  0  0  0  0  0  0  0  0
    5.0089   -1.4196    0.0096 C   0  0  0  0  0  0  0  0  0  0  0  0
    5.5522   -2.1452    1.0937 C   0  0  0  0  0  0  0  0  0  0  0  0
    4.9005   -2.4460    1.9278 H   0  0  0  0  0  0  0  0  0  0  0  0
    6.9015   -2.5221    1.0971 C   0  0  0  0  0  0  0  0  0  0  0  0
    7.3043   -3.0986    1.9433 H   0  0  0  0  0  0  0  0  0  0  0  0
    7.7341   -2.1751    0.0212 C   0  0  0  0  0  0  0  0  0  0  0  0
    8.7944   -2.4690    0.0257 H   0  0  0  0  0  0  0  0  0  0  0  0
    7.2075   -1.4513   -1.0605 C   0  0  0  0  0  0  0  0  0  0  0  0
    7.8564   -1.1661   -1.9021 H   0  0  0  0  0  0  0  0  0  0  0  0
    5.8568   -1.0797   -1.0685 C   0  0  0  0  0  0  0  0  0  0  0  0
    5.4596   -0.4878   -1.9069 H   0  0  0  0  0  0  0  0  0  0  0  0
  2 19  1  0  0  0  0
  3 20  1  0  0  0  0
  3 27  1  0  0  0  0
  4  5  1  0  0  0  0
  4  1  1  0  0  0  0
  6  4  1  0  0  0  0
  7  6  1  0  0  0  0
  8  6  2  0  0  0  0
  8 10  1  0  0  0  0
  9  8  1  0  0  0  0
 10 12  2  0  0  0  0
 11 10  1  0  0  0  0
 12  1  1  0  0  0  0
 13 12  1  1  0  0  0
 13  2  1  0  0  0  0
 14 13  1  0  0  0  0
 14 16  2  0  0  0  0
 15 14  1  0  0  0  0
 16 29  1  0  0  0  0
 16 17  1  0  0  0  0
 17 18  1  0  0  0  0
 19 17  2  0  0  0  0
 20 19  1  1  0  0  0
 20 21  1  0  0  0  0
 21 22  1  0  0  0  0
 21 23  2  0  0  0  0
 23 24  1  0  0  0  0
 25 23  1  0  0  0  0
 25 26  1  0  0  0  0
 27 25  2  0  0  0  0
 28 27  1  0  0  0  0
 29 30  1  0  0  0  0
 30 32  2  0  0  0  0
 30 31  1  0  0  0  0
 32 33  1  0  0  0  0
 34 35  1  0  0  0  0
 34 32  1  0  0  0  0
 36 34  2  0  0  0  0
 37 36  1  0  0  0  0
 38 36  1  0  0  0  0
 38 29  2  0  0  0  0
 39 38  1  0  0  0  0
M  END
