1,2,5
q = -1.0

 65 70  0  0  1  0  0  0  0  0999 V2000
    1.7268    1.0345   -1.1636 N   0  0  0  0  0  2  0  0  0  0  0  0
    1.4901    0.5022    1.6099 N   0  0  0  0  0  2  0  0  0  0  0  0
    2.7876    0.1298    1.4650 N   0  0  0  0  0  0  0  0  0  0  0  0
    2.5358   -1.8201   -0.1647 N   0  0  0  0  0  0  0  0  0  0  0  0
    1.2146   -1.7827   -0.4653 N   0  0  0  0  0  2  0  0  0  0  0  0
    2.9719    0.5019   -1.0304 N   0  0  0  0  0  0  0  0  0  0  0  0
   -0.5915   -3.3393   -1.0625 C   0  0  0  0  0  0  0  0  0  0  0  0
    3.0218    1.7451   -2.8737 C   0  0  0  0  0  0  0  0  0  0  0  0
    3.3633    2.2833   -3.7637 H   0  0  0  0  0  0  0  0  0  0  0  0
    1.3479    1.0640    2.8289 C   0  0  2  0  0  3  0  0  0  0  0  0
    1.9039   -3.9243   -0.5261 C   0  0  0  0  0  0  0  0  0  0  0  0
    1.9189   -5.0095   -0.6682 H   0  0  0  0  0  0  0  0  0  0  0  0
    3.4933    0.4355    2.5962 C   0  0  0  0  0  0  0  0  0  0  0  0
    0.0678    1.6292    3.2822 C   0  0  0  0  0  0  0  0  0  0  0  0
    1.7395    1.8088   -2.2698 C   0  0  2  0  0  3  0  0  0  0  0  0
    3.7834    0.9069   -2.0545 C   0  0  0  0  0  0  0  0  0  0  0  0
   -0.8818    2.1198    2.3574 C   0  0  0  0  0  0  0  0  0  0  0  0
   -0.6655    2.0938    1.2798 H   0  0  0  0  0  0  0  0  0  0  0  0
    5.2122    0.4877   -2.1859 C   0  0  0  0  0  0  0  0  0  0  0  0
    5.8133    0.7836   -1.3020 H   0  0  0  0  0  0  0  0  0  0  0  0
    5.6613    0.9587   -3.0798 H   0  0  0  0  0  0  0  0  0  0  0  0
    5.3114   -0.6123   -2.2931 H   0  0  0  0  0  0  0  0  0  0  0  0
    2.9916   -3.1075   -0.1925 C   0  0  1  0  0  3  0  0  0  0  0  0
    2.6007    1.0301    3.4937 C   0  0  0  0  0  0  0  0  0  0  0  0
    2.8394    1.4251    4.4861 H   0  0  0  0  0  0  0  0  0  0  0  0
    0.8028   -3.0485   -0.6960 C   0  0  0  0  0  0  0  0  0  0  0  0
   -1.3395   -2.4153   -1.8254 C   0  0  0  0  0  0  0  0  0  0  0  0
   -0.8601   -1.4928   -2.1841 H   0  0  0  0  0  0  0  0  0  0  0  0
   -1.2181   -4.5250   -0.6230 C   0  0  0  0  0  0  0  0  0  0  0  0
   -0.6472   -5.2433   -0.0153 H   0  0  0  0  0  0  0  0  0  0  0  0
    0.2281    2.7399   -4.0383 C   0  0  0  0  0  0  0  0  0  0  0  0
    0.8075    2.1863   -4.7932 H   0  0  0  0  0  0  0  0  0  0  0  0
    3.2803   -0.4845    0.1235 B   0  0  1  0  0  0  0  0  0  0  0  0
   -2.6902   -2.6543   -2.1078 C   0  0  0  0  0  0  0  0  0  0  0  0
   -3.2631   -1.9123   -2.6841 H   0  0  0  0  0  0  0  0  0  0  0  0
    4.9541    0.1608    2.7526 C   0  0  0  0  0  0  0  0  0  0  0  0
    5.1851   -0.9187    2.6451 H   0  0  0  0  0  0  0  0  0  0  0  0
    5.2915    0.4848    3.7545 H   0  0  0  0  0  0  0  0  0  0  0  0
    5.5587    0.6993    1.9948 H   0  0  0  0  0  0  0  0  0  0  0  0
   -2.1039    2.6429    2.7964 C   0  0  0  0  0  0  0  0  0  0  0  0
   -2.8308    3.0098    2.0557 H   0  0  0  0  0  0  0  0  0  0  0  0
   -0.8679    3.5237   -4.4267 C   0  0  0  0  0  0  0  0  0  0  0  0
   -1.1394    3.5946   -5.4912 H   0  0  0  0  0  0  0  0  0  0  0  0
    0.5825    2.6246   -2.6775 C   0  0  0  0  0  0  0  0  0  0  0  0
   -1.4576    2.2246    5.0982 C   0  0  0  0  0  0  0  0  0  0  0  0
   -1.6805    2.2608    6.1756 H   0  0  0  0  0  0  0  0  0  0  0  0
   -0.2362    1.6957    4.6595 C   0  0  0  0  0  0  0  0  0  0  0  0
    0.4863    1.3039    5.3913 H   0  0  0  0  0  0  0  0  0  0  0  0
   -0.1736    3.3295   -1.7165 C   0  0  0  0  0  0  0  0  0  0  0  0
    0.1121    3.2581   -0.6576 H   0  0  0  0  0  0  0  0  0  0  0  0
    4.4132   -3.4771    0.0839 C   0  0  0  0  0  0  0  0  0  0  0  0
    5.1114   -2.9932   -0.6293 H   0  0  0  0  0  0  0  0  0  0  0  0
    4.5410   -4.5722    0.0007 H   0  0  0  0  0  0  0  0  0  0  0  0
    4.7271   -3.1720    1.1032 H   0  0  0  0  0  0  0  0  0  0  0  0
   -2.3986    2.6963    4.1683 C   0  0  0  0  0  0  0  0  0  0  0  0
   -3.3593    3.1079    4.5136 H   0  0  0  0  0  0  0  0  0  0  0  0
   -3.3119   -3.8267   -1.6471 C   0  0  0  0  0  0  0  0  0  0  0  0
   -4.3747   -4.0116   -1.8668 H   0  0  0  0  0  0  0  0  0  0  0  0
   -1.6202    4.2116   -3.4605 C   0  0  0  0  0  0  0  0  0  0  0  0
   -2.4791    4.8291   -3.7654 H   0  0  0  0  0  0  0  0  0  0  0  0
   -2.5684   -4.7654   -0.9120 C   0  0  0  0  0  0  0  0  0  0  0  0
   -3.0477   -5.6885   -0.5511 H   0  0  0  0  0  0  0  0  0  0  0  0
   -1.2648    4.1154   -2.1046 C   0  0  0  0  0  0  0  0  0  0  0  0
   -1.8444    4.6575   -1.3417 H   0  0  0  0  0  0  0  0  0  0  0  0
    4.4753   -0.6949    0.1911 H   0  0  0  0  0  0  0  0  0  0  0  0
  1  6  1  0  0  0  0
  2 10  1  0  0  0  0
  3  2  1  0  0  0  0
  3 13  1  0  0  0  0
  4 33  1  0  0  0  0
  5  4  1  0  0  0  0
  6 33  1  0  0  0  0
  7 26  1  0  0  0  0
  7 29  1  0  0  0  0
  8 15  1  0  0  0  0
  8 16  2  0  0  0  0
  9  8  1  0  0  0  0
 10 14  1  6  0  0  0
 10 24  1  0  0  0  0
 11 23  1  0  0  0  0
 12 11  1  0  0  0  0
 13 36  1  0  0  0  0
 13 24  2  0  0  0  0
 14 47  1  0  0  0  0
 15 44  1  1  0  0  0
 15  1  1  0  0  0  0
 16  6  1  0  0  0  0
 17 40  1  0  0  0  0
 17 14  2  0  0  0  0
 18 17  1  0  0  0  0
 19 16  1  0  0  0  0
 19 20  1  0  0  0  0
 21 19  1  0  0  0  0
 22 19  1  0  0  0  0
 23  4  1  0  0  0  0
 23 51  1  6  0  0  0
 24 25  1  0  0  0  0
 26 11  2  0  0  0  0
 26  5  1  0  0  0  0
 27  7  2  0  0  0  0
 28 27  1  0  0  0  0
 29 30  1  0  0  0  0
 31 44  1  0  0  0  0
 32 31  1  0  0  0  0
 33 65  1  1  0  0  0
 33  3  1  0  0  0  0
 34 27  1  0  0  0  0
 34 57  2  0  0  0  0
 35 34  1  0  0  0  0
 36 38  1  0  0  0  0
 37 36  1  0  0  0  0
 39 36  1  0  0  0  0
 40 55  2  0  0  0  0
 41 40  1  0  0  0  0
 42 31  2  0  0  0  0
 42 59  1  0  0  0  0
 43 42  1  0  0  0  0
 44 49  2  0  0  0  0
 45 46  1  0  0  0  0
 47 45  2  0  0  0  0
 47 48  1  0  0  0  0
 49 50  1  0  0  0  0
 51 54  1  0  0  0  0
 52 51  1  0  0  0  0
 53 51  1  0  0  0  0
 55 56  1  0  0  0  0
 55 45  1  0  0  0  0
 57 61  1  0  0  0  0
 58 57  1  0  0  0  0
 59 63  2  0  0  0  0
 60 59  1  0  0  0  0
 61 29  2  0  0  0  0
 61 62  1  0  0  0  0
 63 49  1  0  0  0  0
 63 64  1  0  0  0  0
M  END
