1,2,3
q = 0.0, confidence = 0.998

 33 33  0  0  1  0  0  0  0  0999 V2000
   -0.1526   -2.1152    0.2449 N   0  0  0  0  0  0  0  0  0  0  0  0
    1.6279   -0.1252    0.0060 N   0  0  0  0  0  2  0  0  0  0  0  0
    0.2766    2.1844   -0.2416 N   0  0  0  0  0  0  0  0  0  0  0  0
   -1.2358   -2.8835   -0.4005 C   0  0  0  0  0  0  0  0  0  0  0  0
   -0.0371   -2.5282    1.6606 C   0  0  0  0  0  0  0  0  0  0  0  0
    1.1413   -2.4143   -0.4586 C   0  0  0  0  0  0  0  0  0  0  0  0
    2.1744   -1.3609   -0.1678 C   0  0  1  0  0  3  0  0  0  0  0  0
    3.5625   -1.5278   -0.1491 C   0  0  0  0  0  0  0  0  0  0  0  0
    4.3868   -0.3990    0.0102 C   0  0  0  0  0  0  0  0  0  0  0  0
    3.7990    0.8702    0.1667 C   0  0  0  0  0  0  0  0  0  0  0  0
    2.4055    0.9794    0.1814 C   0  0  0  0  0  0  0  0  0  0  0  0
    1.5992    2.2163    0.4673 C   0  0  0  0  0  0  0  0  0  0  0  0
    0.4734    2.5684   -1.6564 C   0  0  0  0  0  0  0  0  0  0  0  0
   -0.6371    3.1522    0.4028 C   0  0  0  0  0  0  0  0  0  0  0  0
   -2.1734   -2.7098    0.1589 H   0  0  0  0  0  0  0  0  0  0  0  0
   -1.3500   -2.5256   -1.4405 H   0  0  0  0  0  0  0  0  0  0  0  0
   -1.0133   -3.9764   -0.3873 H   0  0  0  0  0  0  0  0  0  0  0  0
    0.8057   -1.9965    2.1366 H   0  0  0  0  0  0  0  0  0  0  0  0
    0.1187   -3.6300    1.7255 H   0  0  0  0  0  0  0  0  0  0  0  0
   -0.9529   -2.2404    2.2057 H   0  0  0  0  0  0  0  0  0  0  0  0
    1.5035   -3.4364   -0.2065 H   0  0  0  0  0  0  0  0  0  0  0  0
    0.9157   -2.3643   -1.5450 H   0  0  0  0  0  0  0  0  0  0  0  0
    3.9937   -2.5317   -0.2737 H   0  0  0  0  0  0  0  0  0  0  0  0
    5.4809   -0.5073    0.0123 H   0  0  0  0  0  0  0  0  0  0  0  0
    4.4183    1.7702    0.2923 H   0  0  0  0  0  0  0  0  0  0  0  0
    2.1597    3.1461    0.2206 H   0  0  0  0  0  0  0  0  0  0  0  0
    1.3632    2.2109    1.5524 H   0  0  0  0  0  0  0  0  0  0  0  0
    1.1905    1.8783   -2.1354 H   0  0  0  0  0  0  0  0  0  0  0  0
   -0.4838    2.4767   -2.1988 H   0  0  0  0  0  0  0  0  0  0  0  0
    0.8485    3.6162   -1.7192 H   0  0  0  0  0  0  0  0  0  0  0  0
   -0.2045    4.1789    0.3781 H   0  0  0  0  0  0  0  0  0  0  0  0
   -1.6001    3.1494   -0.1396 H   0  0  0  0  0  0  0  0  0  0  0  0
   -0.8118    2.8305    1.4465 H   0  0  0  0  0  0  0  0  0  0  0  0
  1  5  1  0  0  0  0
  2 11  1  0  0  0  0
  3 14  1  0  0  0  0
  3 12  1  0  0  0  0
  4 17  1  0  0  0  0
  4 15  1  0  0  0  0
  4  1  1  0  0  0  0
  5 19  1  0  0  0  0
  5 18  1  0  0  0  0
  5 20  1  0  0  0  0
  6 21  1  0  0  0  0
  6  1  1  0  0  0  0
  7  6  1  6  0  0  0
  7  8  1  0  0  0  0
  7  2  1  0  0  0  0
  8  9  2  0  0  0  0
  9 24  1  0  0  0  0
  9 10  1  0  0  0  0
 10 11  2  0  0  0  0
 10 25  1  0  0  0  0
 11 12  1  0  0  0  0
 12 27  1  0  0  0  0
 13  3  1  0  0  0  0
 14 33  1  0  0  0  0
 16  4  1  0  0  0  0
 22  6  1  0  0  0  0
 23  8  1  0  0  0  0
 26 12  1  0  0  0  0
 28 13  1  0  0  0  0
 29 13  1  0  0  0  0
 30 13  1  0  0  0  0
 31 14  1  0  0  0  0
 32 14  1  0  0  0  0
M  END
