2,17,18
q = -1.0

 41 46  0  0  1  0  0  0  0  0999 V2000
   -1.9177   -0.6282    1.3270 N   0  0  0  0  0  0  0  0  0  0  0  0
   -0.5927   -0.7464    1.6139 N   0  0  0  0  0  2  0  0  0  0  0  0
   -0.4001   -1.3012    2.7768 N   0  0  0  0  0  0  0  0  0  0  0  0
   -1.6391   -1.5754    3.3095 C   0  0  0  0  0  0  0  0  0  0  0  0
   -2.6297   -1.1441    2.3795 C   0  0  2  0  0  3  0  0  0  0  0  0
   -4.0074   -1.2916    2.6423 C   0  0  0  0  0  0  0  0  0  0  0  0
   -4.3512   -1.8808    3.8596 C   0  0  0  0  0  0  0  0  0  0  0  0
   -3.3682   -2.3139    4.7943 C   0  0  0  0  0  0  0  0  0  0  0  0
   -2.0061   -2.1695    4.5369 C   0  0  0  0  0  0  0  0  0  0  0  0
   -2.4163    0.0006   -0.0002 B   0  0  1  0  0  0  0  0  0  0  0  0
   -4.7687   -0.9590    1.9236 H   0  0  0  0  0  0  0  0  0  0  0  0
   -5.4150   -2.0163    4.1073 H   0  0  0  0  0  0  0  0  0  0  0  0
   -3.6982   -2.7719    5.7387 H   0  0  0  0  0  0  0  0  0  0  0  0
   -1.2366   -2.4991    5.2491 H   0  0  0  0  0  0  0  0  0  0  0  0
   -3.6361    0.0009   -0.0004 H   0  0  0  0  0  0  0  0  0  0  0  0
   -1.9170    1.4641   -0.1192 N   0  0  0  0  0  0  0  0  0  0  0  0
   -0.5919    1.7711   -0.1585 N   0  0  0  0  0  2  0  0  0  0  0  0
   -0.5920   -1.0228   -1.4535 N   0  0  0  0  0  2  0  0  0  0  0  0
   -1.9171   -0.8344   -1.2081 N   0  0  0  0  0  0  0  0  0  0  0  0
   -2.6285   -1.4890   -2.1809 C   0  0  0  0  0  0  0  0  0  0  0  0
   -1.6372   -2.0784   -3.0188 C   0  0  0  0  0  0  0  0  0  0  0  0
   -0.3986   -1.7529   -2.5150 N   0  0  0  0  0  0  0  0  0  0  0  0
   -2.0032   -2.8452   -4.1467 C   0  0  0  0  0  3  0  0  0  0  0  0
   -3.3651   -2.9972   -4.4008 C   0  0  0  0  0  0  0  0  0  0  0  0
   -4.3488   -2.4047   -3.5589 C   0  0  0  0  0  0  0  0  0  0  0  0
   -4.0060   -1.6442   -2.4403 C   0  0  0  0  0  0  0  0  0  0  0  0
   -4.7679   -1.1885   -1.7933 H   0  0  0  0  0  0  0  0  0  0  0  0
   -5.4124   -2.5526   -3.8003 H   0  0  0  0  0  0  0  0  0  0  0  0
   -3.6943   -3.5868   -5.2694 H   0  0  0  0  0  0  0  0  0  0  0  0
   -1.2331   -3.2969   -4.7878 H   0  0  0  0  0  0  0  0  0  0  0  0
   -0.3986    3.0555   -0.2594 N   0  0  0  0  0  0  0  0  0  0  0  0
   -1.6373    3.6545   -0.2897 C   0  0  0  0  0  0  0  0  0  0  0  0
   -2.6285    2.6339   -0.1998 C   0  0  0  0  0  0  0  0  0  0  0  0
   -4.0061    2.9359   -0.2054 C   0  0  0  0  0  0  0  0  0  0  0  0
   -4.3491    4.2848   -0.3037 C   0  0  0  0  0  0  0  0  0  0  0  0
   -3.3654    5.3104   -0.3943 C   0  0  0  0  0  0  0  0  0  0  0  0
   -2.0035    5.0147   -0.3889 C   0  0  0  0  0  3  0  0  0  0  0  0
   -1.2334    5.7959   -0.4583 H   0  0  0  0  0  0  0  0  0  0  0  0
   -3.6948    6.3575   -0.4699 H   0  0  0  0  0  0  0  0  0  0  0  0
   -5.4127    4.5677   -0.3117 H   0  0  0  0  0  0  0  0  0  0  0  0
   -4.7678    2.1474   -0.1354 H   0  0  0  0  0  0  0  0  0  0  0  0
  1  2  1  0  0  0  0
  1  5  1  0  0  0  0
  2  3  1  0  0  0  0
  3  4  2  0  0  0  0
  4  9  1  0  0  0  0
  5  6  1  6  0  0  0
  5  4  1  0  0  0  0
  6  7  2  0  0  0  0
  7 12  1  0  0  0  0
  7  8  1  0  0  0  0
  8 13  1  0  0  0  0
  9  8  2  0  0  0  0
  9 14  1  0  0  0  0
 10 15  1  6  0  0  0
 10  1  1  0  0  0  0
 11  6  1  0  0  0  0
 16 10  1  0  0  0  0
 17 16  1  0  0  0  0
 18 19  1  0  0  0  0
 19 10  1  0  0  0  0
 20 19  1  0  0  0  0
 21 22  2  0  0  0  0
 21 20  1  0  0  0  0
 22 18  1  0  0  0  0
 23 21  1  0  0  0  0
 24 23  1  0  0  0  0
 24 25  2  0  0  0  0
 25 26  1  0  0  0  0
 26 20  2  0  0  0  0
 26 27  1  0  0  0  0
 28 25  1  0  0  0  0
 29 24  1  0  0  0  0
 30 23  1  0  0  0  0
 31 17  1  0  0  0  0
 32 31  2  0  0  0  0
 32 33  1  0  0  0  0
 33 16  1  0  0  0  0
 34 33  2  0  0  0  0
 34 41  1  0  0  0  0
 35 34  1  0  0  0  0
 36 37  1  0  0  0  0
 36 35  2  0  0  0  0
 37 32  1  0  0  0  0
 38 37  1  0  0  0  0
 39 36  1  0  0  0  0
 40 35  1  0  0  0  0
M  END
