1,2,3
q = -1.0

 75 84  0  0  1  0  0  0  0  0999 V2000
    0.9251   -0.5781    0.0383 N   0  0  0  0  0  2  0  0  0  0  0  0
   -1.3975   -1.7852    0.0796 N   0  0  0  0  0  0  0  0  0  0  0  0
   -1.5873    0.9516   -0.3053 N   0  0  0  0  0  0  0  0  0  0  0  0
    1.9473    1.6458   -0.3840 N   0  0  0  0  0  0  0  0  0  0  0  0
    1.8637    0.2763   -0.2746 C   0  0  1  0  0  3  0  0  0  0  0  0
    3.1720   -0.3284   -0.4590 C   0  0  0  0  0  0  0  0  0  0  0  0
    2.9433   -1.7132   -0.3183 C   0  0  0  0  0  0  0  0  0  0  0  0
    1.5365   -1.8716   -0.0722 C   0  0  0  0  0  0  0  0  0  0  0  0
    0.7257   -3.0296   -0.1009 C   0  0  1  0  0  3  0  0  0  0  0  0
   -0.7069   -2.9430   -0.1666 C   0  0  0  0  0  3  0  0  0  0  0  0
   -1.5964   -3.8766   -0.8301 C   0  0  0  0  0  0  0  0  0  0  0  0
   -2.7881   -3.2071   -1.0528 C   0  0  0  0  0  0  0  0  0  0  0  0
   -2.6209   -1.8692   -0.5194 C   0  0  0  0  0  0  0  0  0  0  0  0
   -3.3958   -0.7038   -0.8173 C   0  0  1  0  0  3  0  0  0  0  0  0
   -2.8662    0.6119   -0.7604 C   0  0  0  0  0  0  0  0  0  0  0  0
   -3.5207    1.8145   -1.2305 C   0  0  0  0  0  0  0  0  0  0  0  0
   -2.6162    2.8429   -1.1067 C   0  0  0  0  0  0  0  0  0  0  0  0
   -1.3891    2.2836   -0.5516 C   0  0  0  0  0  3  0  0  0  0  0  0
   -0.2118    3.0930   -0.3563 C   0  0  1  0  0  3  0  0  0  0  0  0
    1.1773    2.8316   -0.2946 C   0  0  0  0  0  0  0  0  0  0  0  0
    2.1723    3.8799   -0.2939 C   0  0  0  0  0  0  0  0  0  0  0  0
    3.4499    3.3485   -0.4652 C   0  0  0  0  0  0  0  0  0  0  0  0
    3.3270    1.9414   -0.5457 C   0  0  0  0  0  0  0  0  0  0  0  0
    4.1052    0.7439   -0.6393 C   0  0  0  0  0  0  0  0  0  0  0  0
    1.3360   -4.3737   -0.2546 C   0  0  0  0  0  0  0  0  0  0  0  0
    2.2470   -4.6745   -1.2919 C   0  0  0  0  0  0  0  0  0  0  0  0
    2.7918   -5.9609   -1.4081 C   0  0  0  0  0  0  0  0  0  0  0  0
    2.4386   -6.9643   -0.4915 C   0  0  0  0  0  0  0  0  0  0  0  0
    1.5273   -6.6782    0.5378 C   0  0  0  0  0  0  0  0  0  0  0  0
    0.9737   -5.3959    0.6523 C   0  0  0  0  0  0  0  0  0  0  0  0
   -4.7636   -0.9338   -1.3523 C   0  0  0  0  0  0  0  0  0  0  0  0
   -5.6946   -1.6553   -0.5707 C   0  0  0  0  0  0  0  0  0  0  0  0
   -6.9871   -1.9063   -1.0514 C   0  0  0  0  0  0  0  0  0  0  0  0
   -7.3668   -1.4540   -2.3253 C   0  0  0  0  0  0  0  0  0  0  0  0
   -6.4446   -0.7512   -3.1175 C   0  0  0  0  0  0  0  0  0  0  0  0
   -5.1533   -0.4928   -2.6368 C   0  0  0  0  0  0  0  0  0  0  0  0
   -0.5406    4.5638   -0.2925 C   0  0  0  0  0  0  0  0  0  0  0  0
   -1.0070    5.1104    0.9198 C   0  0  0  0  0  0  0  0  0  0  0  0
   -1.3387    6.4715    1.0012 C   0  0  0  0  0  0  0  0  0  0  0  0
   -1.2177    7.2969   -0.1282 C   0  0  0  0  0  0  0  0  0  0  0  0
   -0.7557    6.7580   -1.3400 C   0  0  0  0  0  0  0  0  0  0  0  0
   -0.4152    5.3990   -1.4211 C   0  0  0  0  0  0  0  0  0  0  0  0
    5.5473    0.6521   -0.8436 C   0  0  0  0  0  0  0  0  0  0  0  0
    6.2871    1.7045   -1.4392 C   0  0  0  0  0  0  0  0  0  0  0  0
    7.6703    1.5960   -1.6226 C   0  0  0  0  0  0  0  0  0  0  0  0
    8.3508    0.4339   -1.2221 C   0  0  0  0  0  0  0  0  0  0  0  0
    7.6308   -0.6219   -0.6384 C   0  0  0  0  0  0  0  0  0  0  0  0
    6.2479   -0.5168   -0.4526 C   0  0  0  0  0  0  0  0  0  0  0  0
    3.6592   -2.5348   -0.4115 H   0  0  0  0  0  0  0  0  0  0  0  0
   -1.3190   -4.8810   -1.1688 H   0  0  0  0  0  0  0  0  0  0  0  0
   -3.6648   -3.5641   -1.6043 H   0  0  0  0  0  0  0  0  0  0  0  0
   -4.5385    1.8706   -1.6285 H   0  0  0  0  0  0  0  0  0  0  0  0
   -2.7555    3.8868   -1.4044 H   0  0  0  0  0  0  0  0  0  0  0  0
    1.9272    4.9414   -0.2000 H   0  0  0  0  0  0  0  0  0  0  0  0
    4.3854    3.9155   -0.5065 H   0  0  0  0  0  0  0  0  0  0  0  0
    2.4998   -3.8979   -2.0283 H   0  0  0  0  0  0  0  0  0  0  0  0
    3.4907   -6.1843   -2.2285 H   0  0  0  0  0  0  0  0  0  0  0  0
    2.8695   -7.9728   -0.5835 H   0  0  0  0  0  0  0  0  0  0  0  0
    1.2463   -7.4595    1.2602 H   0  0  0  0  0  0  0  0  0  0  0  0
    0.2684   -5.1620    1.4638 H   0  0  0  0  0  0  0  0  0  0  0  0
   -5.3957   -1.9983    0.4313 H   0  0  0  0  0  0  0  0  0  0  0  0
   -7.7043   -2.4573   -0.4243 H   0  0  0  0  0  0  0  0  0  0  0  0
   -8.3805   -1.6545   -2.7038 H   0  0  0  0  0  0  0  0  0  0  0  0
   -6.7298   -0.4095   -4.1242 H   0  0  0  0  0  0  0  0  0  0  0  0
   -4.4224    0.0325   -3.2692 H   0  0  0  0  0  0  0  0  0  0  0  0
   -1.0900    4.4588    1.8026 H   0  0  0  0  0  0  0  0  0  0  0  0
   -1.6948    6.8893    1.9551 H   0  0  0  0  0  0  0  0  0  0  0  0
   -1.4833    8.3631   -0.0643 H   0  0  0  0  0  0  0  0  0  0  0  0
   -0.6598    7.3999   -2.2291 H   0  0  0  0  0  0  0  0  0  0  0  0
   -0.0524    4.9706   -2.3681 H   0  0  0  0  0  0  0  0  0  0  0  0
    5.7615    2.6020   -1.7950 H   0  0  0  0  0  0  0  0  0  0  0  0
    8.2229    2.4230   -2.0940 H   0  0  0  0  0  0  0  0  0  0  0  0
    9.4380    0.3497   -1.3687 H   0  0  0  0  0  0  0  0  0  0  0  0
    8.1547   -1.5355   -0.3185 H   0  0  0  0  0  0  0  0  0  0  0  0
    5.6972   -1.3370    0.0295 H   0  0  0  0  0  0  0  0  0  0  0  0
  4 20  1  0  0  0  0
  4  5  1  0  0  0  0
  5  6  1  1  0  0  0
  5  1  1  0  0  0  0
  6  7  1  0  0  0  0
  7  8  2  0  0  0  0
  8  1  1  0  0  0  0
  9 25  1  6  0  0  0
  9  8  1  0  0  0  0
 10  9  1  0  0  0  0
 10  2  1  0  0  0  0
 11 10  1  0  0  0  0
 12 11  2  0  0  0  0
 12 13  1  0  0  0  0
 13  2  2  0  0  0  0
 14 31  1  6  0  0  0
 14 15  1  0  0  0  0
 14 13  1  0  0  0  0
 15  3  2  0  0  0  0
 16 17  2  0  0  0  0
 16 15  1  0  0  0  0
 17 18  1  0  0  0  0
 18 19  1  0  0  0  0
 18  3  1  0  0  0  0
 19 20  1  0  0  0  0
 19 37  1  6  0  0  0
 20 21  2  0  0  0  0
 21 54  1  0  0  0  0
 22 21  1  0  0  0  0
 23 22  2  0  0  0  0
 23  4  1  0  0  0  0
 24 23  1  0  0  0  0
 24  6  2  0  0  0  0
 25 30  1  0  0  0  0
 26 25  2  0  0  0  0
 27 26  1  0  0  0  0
 27 28  2  0  0  0  0
 28 29  1  0  0  0  0
 29 30  2  0  0  0  0
 29 59  1  0  0  0  0
 30 60  1  0  0  0  0
 31 32  1  0  0  0  0
 32 61  1  0  0  0  0
 33 32  2  0  0  0  0
 33 62  1  0  0  0  0
 34 33  1  0  0  0  0
 35 36  1  0  0  0  0
 35 34  2  0  0  0  0
 36 31  2  0  0  0  0
 37 38  1  0  0  0  0
 38 39  2  0  0  0  0
 38 66  1  0  0  0  0
 39 67  1  0  0  0  0
 40 68  1  0  0  0  0
 40 39  1  0  0  0  0
 41 40  2  0  0  0  0
 42 41  1  0  0  0  0
 42 37  2  0  0  0  0
 43 24  1  0  0  0  0
 43 48  1  0  0  0  0
 44 43  2  0  0  0  0
 45 44  1  0  0  0  0
 45 46  2  0  0  0  0
 46 47  1  0  0  0  0
 47 48  2  0  0  0  0
 47 74  1  0  0  0  0
 48 75  1  0  0  0  0
 49  7  1  0  0  0  0
 50 11  1  0  0  0  0
 51 12  1  0  0  0  0
 52 16  1  0  0  0  0
 53 17  1  0  0  0  0
 55 22  1  0  0  0  0
 56 26  1  0  0  0  0
 57 27  1  0  0  0  0
 58 28  1  0  0  0  0
 63 34  1  0  0  0  0
 64 35  1  0  0  0  0
 65 36  1  0  0  0  0
 69 41  1  0  0  0  0
 70 42  1  0  0  0  0
 71 44  1  0  0  0  0
 72 45  1  0  0  0  0
 73 46  1  0  0  0  0
M  END
