1,2,3
q = -1.0, confidence = 0.064

 43 44  0  0  0  0  0  0  0  0999 V2000
    0.0001    1.2918    0.0000 N   0  0  0  0  0  2  0  0  0  0  0  0
   -1.9106   -0.2407   -0.1378 N   0  0  0  0  0  2  0  0  0  0  0  0
    1.9106   -0.2408    0.1376 N   0  0  0  0  0  2  0  0  0  0  0  0
   -1.2342    1.9619    0.1095 C   0  0  0  0  0  0  0  0  0  0  0  0
   -2.3430    1.0752   -0.0362 C   0  0  0  0  0  0  0  0  0  0  0  0
   -3.6615    1.5631   -0.0106 C   0  0  0  0  0  0  0  0  0  0  0  0
   -4.5113    0.8851   -0.1550 H   0  0  0  0  0  0  0  0  0  0  0  0
   -3.8893    2.9283    0.2316 C   0  0  0  0  0  0  0  0  0  0  0  0
   -4.9204    3.3106    0.2555 H   0  0  0  0  0  0  0  0  0  0  0  0
   -2.8089    3.7868    0.4736 C   0  0  0  0  0  0  0  0  0  0  0  0
   -2.9871    4.8458    0.7124 H   0  0  0  0  0  0  0  0  0  0  0  0
   -1.4859    3.3117    0.4202 C   0  0  0  0  0  0  0  0  0  0  0  0
   -0.6648    3.9944    0.6609 H   0  0  0  0  0  0  0  0  0  0  0  0
   -2.7846   -1.4184   -0.2625 C   0  0  0  0  0  0  0  0  0  0  0  0
   -2.0806   -2.2934   -0.2783 H   0  0  0  0  0  0  0  0  0  0  0  0
   -3.6835   -1.6361    0.9620 C   0  0  0  0  0  0  0  0  0  0  0  0
   -3.0782   -1.6413    1.8889 H   0  0  0  0  0  0  0  0  0  0  0  0
   -4.2003   -2.6127    0.8790 H   0  0  0  0  0  0  0  0  0  0  0  0
   -4.4542   -0.8484    1.0559 H   0  0  0  0  0  0  0  0  0  0  0  0
   -3.5187   -1.4567   -1.6091 C   0  0  0  0  0  0  0  0  0  0  0  0
   -2.7953   -1.3812   -2.4438 H   0  0  0  0  0  0  0  0  0  0  0  0
   -4.2429   -0.6249   -1.7022 H   0  0  0  0  0  0  0  0  0  0  0  0
   -4.0743   -2.4096   -1.7134 H   0  0  0  0  0  0  0  0  0  0  0  0
    1.2344    1.9618   -0.1094 C   0  0  0  0  0  0  0  0  0  0  0  0
    2.3431    1.0750    0.0361 C   0  0  0  0  0  0  0  0  0  0  0  0
    3.6617    1.5627    0.0104 C   0  0  0  0  0  0  0  0  0  0  0  0
    4.5114    0.8846    0.1548 H   0  0  0  0  0  0  0  0  0  0  0  0
    3.8896    2.9279   -0.2317 C   0  0  0  0  0  0  0  0  0  0  0  0
    4.9207    3.3101   -0.2556 H   0  0  0  0  0  0  0  0  0  0  0  0
    2.8093    3.7866   -0.4735 C   0  0  0  0  0  0  0  0  0  0  0  0
    2.9876    4.8456   -0.7122 H   0  0  0  0  0  0  0  0  0  0  0  0
    1.4862    3.3116   -0.4200 C   0  0  0  0  0  0  0  0  0  0  0  0
    0.6652    3.9944   -0.6605 H   0  0  0  0  0  0  0  0  0  0  0  0
    2.7845   -1.4186    0.2625 C   0  0  0  0  0  0  0  0  0  0  0  0
    2.0804   -2.2935    0.2784 H   0  0  0  0  0  0  0  0  0  0  0  0
    3.5186   -1.4568    1.6091 C   0  0  0  0  0  0  0  0  0  0  0  0
    2.7952   -1.3809    2.4438 H   0  0  0  0  0  0  0  0  0  0  0  0
    4.2430   -0.6251    1.7020 H   0  0  0  0  0  0  0  0  0  0  0  0
    4.0740   -2.4098    1.7136 H   0  0  0  0  0  0  0  0  0  0  0  0
    3.6834   -1.6364   -0.9620 C   0  0  0  0  0  0  0  0  0  0  0  0
    3.0781   -1.6420   -1.8889 H   0  0  0  0  0  0  0  0  0  0  0  0
    4.2004   -2.6128   -0.8787 H   0  0  0  0  0  0  0  0  0  0  0  0
    4.4539   -0.8485   -1.0560 H   0  0  0  0  0  0  0  0  0  0  0  0
  1  4  1  0  0  0  0
  2  5  1  0  0  0  0
  3 34  1  0  0  0  0
  4 12  1  0  0  0  0
  5  6  1  0  0  0  0
  5  4  2  0  0  0  0
  6  8  2  0  0  0  0
  7  6  1  0  0  0  0
  8  9  1  0  0  0  0
  8 10  1  0  0  0  0
 10 11  1  0  0  0  0
 12 10  2  0  0  0  0
 12 13  1  0  0  0  0
 14  2  1  0  0  0  0
 14 16  1  0  0  0  0
 15 14  1  0  0  0  0
 16 19  1  0  0  0  0
 16 17  1  0  0  0  0
 18 16  1  0  0  0  0
 20 14  1  0  0  0  0
 21 20  1  0  0  0  0
 22 20  1  0  0  0  0
 23 20  1  0  0  0  0
 24  1  1  0  0  0  0
 24 25  1  0  0  0  0
 25  3  1  0  0  0  0
 26 25  2  0  0  0  0
 26 27  1  0  0  0  0
 28 26  1  0  0  0  0
 29 28  1  0  0  0  0
 30 32  1  0  0  0  0
 30 28  2  0  0  0  0
 31 30  1  0  0  0  0
 32 24  2  0  0  0  0
 33 32  1  0  0  0  0
 34 35  1  0  0  0  0
 34 36  1  0  0  0  0
 36 38  1  0  0  0  0
 36 39  1  0  0  0  0
 36 37  1  0  0  0  0
 40 42  1  0  0  0  0
 40 34  1  0  0  0  0
 41 40  1  0  0  0  0
 43 40  1  0  0  0  0
M  END
