3,4,5
q = -1.0

 65 68  0  0  0  0  0  0  0  0999 V2000
    4.8436    4.1217    0.7947 O   0  0  0  0  0  0  0  0  0  0  0  0
   -5.3441    3.7030   -0.7878 O   0  0  0  0  0  0  0  0  0  0  0  0
   -0.1082    1.7700   -0.3229 N   0  0  0  0  0  2  0  0  0  0  0  0
    1.9082    0.3284   -0.3149 N   0  0  0  0  0  2  0  0  0  0  0  0
   -1.9830    0.1320   -0.3380 N   0  0  0  0  0  2  0  0  0  0  0  0
    1.0562    2.4864   -0.0289 C   0  0  0  0  0  0  0  0  0  0  0  0
    2.2158    1.6598   -0.0662 C   0  0  0  0  0  0  0  0  0  0  0  0
    3.5058    2.1658    0.1797 C   0  0  0  0  0  0  0  0  0  0  0  0
    4.3636    1.4860    0.1138 H   0  0  0  0  0  0  0  0  0  0  0  0
    3.6455    3.5207    0.5356 C   0  0  0  0  0  0  0  0  0  0  0  0
    2.4982    4.3332    0.6673 C   0  0  0  0  0  0  0  0  0  0  0  0
    2.6322    5.3757    0.9887 H   0  0  0  0  0  0  0  0  0  0  0  0
    1.2223    3.8247    0.3958 C   0  0  0  0  0  0  0  0  0  0  0  0
    0.3550    4.4759    0.5474 H   0  0  0  0  0  0  0  0  0  0  0  0
    6.0153    3.3422    0.6750 C   0  0  0  0  0  0  0  0  0  0  0  0
    6.8649    4.0104    0.9102 H   0  0  0  0  0  0  0  0  0  0  0  0
    6.1454    2.9405   -0.3556 H   0  0  0  0  0  0  0  0  0  0  0  0
    6.0226    2.4854    1.3873 H   0  0  0  0  0  0  0  0  0  0  0  0
    2.9560   -0.6466   -0.3634 C   0  0  0  0  0  0  0  0  0  0  0  0
    3.3820   -1.1590   -1.5976 C   0  0  0  0  0  0  0  0  0  0  0  0
    2.9065   -0.7874   -2.5173 H   0  0  0  0  0  0  0  0  0  0  0  0
    4.3647   -2.1685   -1.6469 C   0  0  0  0  0  0  0  0  0  0  0  0
    4.9143   -2.6308   -0.4383 C   0  0  0  0  0  0  0  0  0  0  0  0
    5.6772   -3.4261   -0.4686 H   0  0  0  0  0  0  0  0  0  0  0  0
    4.5110   -2.1166    0.8136 C   0  0  0  0  0  0  0  0  0  0  0  0
    3.5244   -1.1194    0.8377 C   0  0  0  0  0  0  0  0  0  0  0  0
    3.1694   -0.7072    1.7941 H   0  0  0  0  0  0  0  0  0  0  0  0
    4.7803   -2.7528   -2.9734 C   0  0  0  0  0  0  0  0  0  0  0  0
    5.6415   -3.4405   -2.8684 H   0  0  0  0  0  0  0  0  0  0  0  0
    5.0577   -1.9585   -3.6961 H   0  0  0  0  0  0  0  0  0  0  0  0
    3.9439   -3.3224   -3.4306 H   0  0  0  0  0  0  0  0  0  0  0  0
    5.1293   -2.6301    2.0904 C   0  0  0  0  0  0  0  0  0  0  0  0
    4.5498   -2.3143    2.9799 H   0  0  0  0  0  0  0  0  0  0  0  0
    6.1667   -2.2524    2.2162 H   0  0  0  0  0  0  0  0  0  0  0  0
    5.1886   -3.7374    2.0947 H   0  0  0  0  0  0  0  0  0  0  0  0
   -1.3665    2.3842   -0.4615 C   0  0  0  0  0  0  0  0  0  0  0  0
   -2.4333    1.4454   -0.4087 C   0  0  0  0  0  0  0  0  0  0  0  0
   -3.7798    1.8413   -0.4976 C   0  0  0  0  0  0  0  0  0  0  0  0
   -4.5633    1.0752   -0.4532 H   0  0  0  0  0  0  0  0  0  0  0  0
   -4.0761    3.2056   -0.6892 C   0  0  0  0  0  0  0  0  0  0  0  0
   -3.0272    4.1395   -0.8194 C   0  0  0  0  0  0  0  0  0  0  0  0
   -3.2840    5.1891   -1.0192 H   0  0  0  0  0  0  0  0  0  0  0  0
   -1.6900    3.7341   -0.7143 C   0  0  0  0  0  0  0  0  0  0  0  0
   -0.9021    4.4766   -0.8811 H   0  0  0  0  0  0  0  0  0  0  0  0
   -6.4223    2.7963   -0.6947 C   0  0  0  0  0  0  0  0  0  0  0  0
   -7.3477    3.3951   -0.7874 H   0  0  0  0  0  0  0  0  0  0  0  0
   -6.4354    2.2609    0.2824 H   0  0  0  0  0  0  0  0  0  0  0  0
   -6.4018    2.0367   -1.5092 H   0  0  0  0  0  0  0  0  0  0  0  0
   -2.8573   -0.9491   -0.0473 C   0  0  0  0  0  0  0  0  0  0  0  0
   -3.5750   -0.9803    1.1723 C   0  0  0  0  0  0  0  0  0  0  0  0
   -3.5009   -0.1201    1.8546 H   0  0  0  0  0  0  0  0  0  0  0  0
   -4.3508   -2.0967    1.5149 C   0  0  0  0  0  0  0  0  0  0  0  0
   -4.3813   -3.1970    0.6267 C   0  0  0  0  0  0  0  0  0  0  0  0
   -4.9689   -4.0890    0.8994 H   0  0  0  0  0  0  0  0  0  0  0  0
   -3.6841   -3.1859   -0.5927 C   0  0  0  0  0  0  0  0  0  0  0  0
   -2.9403   -2.0371   -0.9335 C   0  0  0  0  0  0  0  0  0  0  0  0
   -2.3948   -1.9870   -1.8878 H   0  0  0  0  0  0  0  0  0  0  0  0
   -5.1306   -2.1368    2.8062 C   0  0  0  0  0  0  0  0  0  0  0  0
   -6.2243   -2.1103    2.6145 H   0  0  0  0  0  0  0  0  0  0  0  0
   -4.8854   -1.2770    3.4595 H   0  0  0  0  0  0  0  0  0  0  0  0
   -4.9294   -3.0690    3.3732 H   0  0  0  0  0  0  0  0  0  0  0  0
   -3.6939   -4.3713   -1.5231 C   0  0  0  0  0  0  0  0  0  0  0  0
   -2.6694   -4.7858   -1.6296 H   0  0  0  0  0  0  0  0  0  0  0  0
   -4.0281   -4.0827   -2.5408 H   0  0  0  0  0  0  0  0  0  0  0  0
   -4.3571   -5.1787   -1.1576 H   0  0  0  0  0  0  0  0  0  0  0  0
  2 45  1  0  0  0  0
  2 40  1  0  0  0  0
  3  6  1  0  0  0  0
  4  7  1  0  0  0  0
  5 49  1  0  0  0  0
  6 13  1  0  0  0  0
  7  6  2  0  0  0  0
  7  8  1  0  0  0  0
  8 10  2  0  0  0  0
  9  8  1  0  0  0  0
 10 11  1  0  0  0  0
 10  1  1  0  0  0  0
 11 12  1  0  0  0  0
 13 14  1  0  0  0  0
 13 11  2  0  0  0  0
 15  1  1  0  0  0  0
 15 16  1  0  0  0  0
 15 18  1  0  0  0  0
 17 15  1  0  0  0  0
 19  4  1  0  0  0  0
 19 26  1  0  0  0  0
 20 19  2  0  0  0  0
 21 20  1  0  0  0  0
 22 20  1  0  0  0  0
 22 23  2  0  0  0  0
 23 25  1  0  0  0  0
 24 23  1  0  0  0  0
 25 26  2  0  0  0  0
 25 32  1  0  0  0  0
 26 27  1  0  0  0  0
 28 29  1  0  0  0  0
 28 22  1  0  0  0  0
 30 28  1  0  0  0  0
 31 28  1  0  0  0  0
 32 35  1  0  0  0  0
 32 34  1  0  0  0  0
 32 33  1  0  0  0  0
 36 37  1  0  0  0  0
 36  3  1  0  0  0  0
 37  5  1  0  0  0  0
 38 39  1  0  0  0  0
 38 37  2  0  0  0  0
 40 38  1  0  0  0  0
 41 43  1  0  0  0  0
 41 40  2  0  0  0  0
 42 41  1  0  0  0  0
 43 36  2  0  0  0  0
 44 43  1  0  0  0  0
 45 47  1  0  0  0  0
 46 45  1  0  0  0  0
 48 45  1  0  0  0  0
 49 50  1  0  0  0  0
 50 52  2  0  0  0  0
 50 51  1  0  0  0  0
 52 58  1  0  0  0  0
 53 54  1  0  0  0  0
 53 52  1  0  0  0  0
 55 53  2  0  0  0  0
 56 55  1  0  0  0  0
 56 49  2  0  0  0  0
 57 56  1  0  0  0  0
 58 61  1  0  0  0  0
 58 60  1  0  0  0  0
 59 58  1  0  0  0  0
 62 65  1  0  0  0  0
 62 55  1  0  0  0  0
 63 62  1  0  0  0  0
 64 62  1  0  0  0  0
M  END
