3,4,5
q = 0.0, confidence = 0.992

 25 25  0  0  1  0  0  0  0  0999 V2000
    2.4434   -2.2519   -0.6188 O   0  0  0  0  0  0  0  0  0  0  0  0
   -3.2639   -0.5096   -0.4782 O   0  0  0  0  0  0  0  0  0  0  0  0
    1.7808   -1.0853   -0.4531 N   0  0  0  0  0  2  0  0  0  0  0  0
    0.2942    0.9759   -0.2727 N   0  0  0  0  0  2  0  0  0  0  0  0
   -2.0919    0.1225   -0.3116 N   0  0  0  0  0  2  0  0  0  0  0  0
    3.9605    0.1007   -0.4669 C   0  0  0  0  0  0  0  0  0  0  0  0
    2.4693    0.0184   -0.3982 C   0  0  0  0  0  0  0  0  0  0  0  0
    1.6092    1.2274   -0.2600 C   0  0  0  0  0  0  0  0  0  0  0  0
    2.0699    2.5553   -0.1499 C   0  0  0  0  0  0  0  0  0  0  0  0
    1.1108    3.5777   -0.0520 C   0  0  0  0  0  0  0  0  0  0  0  0
   -0.2624    3.2813   -0.0774 C   0  0  0  0  0  0  0  0  0  0  0  0
   -0.6449    1.9289   -0.1924 C   0  0  0  0  0  0  0  0  0  0  0  0
   -2.0445    1.4226   -0.2797 C   0  0  1  0  0  3  0  0  0  0  0  0
   -3.2310    2.3287   -0.3597 C   0  0  0  0  0  0  0  0  0  0  0  0
    1.6990   -2.8989   -0.6798 H   0  0  0  0  0  0  0  0  0  0  0  0
    4.3912   -0.8958   -0.6687 H   0  0  0  0  0  0  0  0  0  0  0  0
    4.3709    0.4726    0.4953 H   0  0  0  0  0  0  0  0  0  0  0  0
    4.2871    0.8033   -1.2602 H   0  0  0  0  0  0  0  0  0  0  0  0
    3.1437    2.7877   -0.1389 H   0  0  0  0  0  0  0  0  0  0  0  0
    1.4393    4.6234    0.0431 H   0  0  0  0  0  0  0  0  0  0  0  0
   -1.0129    4.0809   -0.0070 H   0  0  0  0  0  0  0  0  0  0  0  0
   -3.1104    3.0794   -1.1671 H   0  0  0  0  0  0  0  0  0  0  0  0
   -4.1458    1.7392   -0.5492 H   0  0  0  0  0  0  0  0  0  0  0  0
   -3.3633    2.8846    0.5924 H   0  0  0  0  0  0  0  0  0  0  0  0
   -2.9498   -1.4578   -0.5768 H   0  0  0  0  0  0  0  0  0  0  0  0
  1  3  1  0  0  0  0
  2  5  1  0  0  0  0
  3  7  1  0  0  0  0
  4  8  1  0  0  0  0
  4 12  1  0  0  0  0
  6  7  1  0  0  0  0
  6 17  1  0  0  0  0
  7  8  2  0  0  0  0
  8  9  1  0  0  0  0
  9 19  1  0  0  0  0
  9 10  2  0  0  0  0
 10 20  1  0  0  0  0
 11 10  1  0  0  0  0
 11 21  1  0  0  0  0
 12 11  2  0  0  0  0
 13  5  1  6  0  0  0
 13 12  1  0  0  0  0
 14 13  1  0  0  0  0
 14 24  1  0  0  0  0
 15  1  1  0  0  0  0
 16  6  1  0  0  0  0
 18  6  1  0  0  0  0
 22 14  1  0  0  0  0
 23 14  1  0  0  0  0
 25  2  1  0  0  0  0
M  END
