1,2,3
q = 0.0, confidence = 0.884

 73 76  0  0  1  0  0  0  0  0999 V2000
    0.4276   -1.8645    0.0233 N   0  0  0  0  0  2  0  0  0  0  0  0
    0.4289    1.8647    0.0113 N   0  0  0  0  0  2  0  0  0  0  0  0
   -1.1201    0.0003   -0.0783 N   0  0  0  0  0  2  0  0  0  0  0  0
    2.9876    4.3182    1.1625 C   0  0  0  0  0  0  0  0  0  0  0  0
    3.3140    4.7947    2.1016 H   0  0  0  0  0  0  0  0  0  0  0  0
   -7.5315   -0.6745   -0.4195 C   0  0  0  0  0  0  0  0  0  0  0  0
   -8.3208   -1.3671   -0.0687 H   0  0  0  0  0  0  0  0  0  0  0  0
   -7.6797   -0.5195   -1.5089 H   0  0  0  0  0  0  0  0  0  0  0  0
    3.6748    4.6050   -0.0302 C   0  0  0  0  0  0  0  0  0  0  0  0
    1.4882    2.8168   -0.0051 C   0  0  0  0  0  0  0  0  0  0  0  0
   -3.2013    1.2257   -0.0622 C   0  0  0  0  0  0  0  0  0  0  0  0
   -3.7181    2.1932   -0.0664 H   0  0  0  0  0  0  0  0  0  0  0  0
    4.8604    5.5383   -0.0463 C   0  0  0  0  0  0  0  0  0  0  0  0
    4.8177    6.2383   -0.9057 H   0  0  0  0  0  0  0  0  0  0  0  0
    5.8141    4.9753   -0.1382 H   0  0  0  0  0  0  0  0  0  0  0  0
    4.9199    6.1394    0.8821 H   0  0  0  0  0  0  0  0  0  0  0  0
   -0.8497   -2.2817   -0.0391 C   0  0  1  0  0  3  0  0  0  0  0  0
   -0.8481    2.2824   -0.0538 C   0  0  0  0  0  0  0  0  0  0  0  0
   -1.2768    3.7146   -0.1185 C   0  0  0  0  0  0  0  0  0  0  0  0
   -1.8733    3.9921    0.7779 H   0  0  0  0  0  0  0  0  0  0  0  0
   -1.9298    3.8908   -0.9997 H   0  0  0  0  0  0  0  0  0  0  0  0
   -0.4075    4.3947   -0.1809 H   0  0  0  0  0  0  0  0  0  0  0  0
    2.1664    3.0688   -1.2222 C   0  0  0  0  0  0  0  0  0  0  0  0
    1.8987    3.4285    1.2023 C   0  0  0  0  0  0  0  0  0  0  0  0
   -5.3083    0.0016   -0.0591 N   0  0  0  0  0  0  0  0  0  0  0  0
   -3.2022   -1.2234   -0.0508 C   0  0  0  0  0  0  0  0  0  0  0  0
   -3.7197   -2.1900   -0.0166 H   0  0  0  0  0  0  0  0  0  0  0  0
   -7.5308    0.6762    0.3099 C   0  0  0  0  0  0  0  0  0  0  0  0
   -8.3214    1.3684   -0.0389 H   0  0  0  0  0  0  0  0  0  0  0  0
   -7.6765    0.5210    1.3996 H   0  0  0  0  0  0  0  0  0  0  0  0
   -3.9323    0.0014   -0.0609 C   0  0  0  0  0  0  0  0  0  0  0  0
   -1.7977   -1.1887   -0.0570 C   0  0  0  0  0  0  0  0  0  0  0  0
   -1.7969    1.1897   -0.0633 C   0  0  0  0  0  0  0  0  0  0  0  0
    3.2474    3.9650   -1.2099 C   0  0  0  0  0  0  0  0  0  0  0  0
    3.7775    4.1644   -2.1560 H   0  0  0  0  0  0  0  0  0  0  0  0
   -6.1165    1.2105    0.0452 C   0  0  0  0  0  0  0  0  0  0  0  0
   -6.0730    1.8124   -0.8955 H   0  0  0  0  0  0  0  0  0  0  0  0
   -5.7525    1.8673    0.8654 H   0  0  0  0  0  0  0  0  0  0  0  0
    3.2447   -3.9734   -1.1862 C   0  0  0  0  0  0  0  0  0  0  0  0
    3.7747   -4.1783   -2.1311 H   0  0  0  0  0  0  0  0  0  0  0  0
   -1.2791   -3.7141   -0.0939 C   0  0  0  0  0  0  0  0  0  0  0  0
   -0.4109   -4.3937   -0.1758 H   0  0  0  0  0  0  0  0  0  0  0  0
   -1.9524   -3.8902   -0.9595 H   0  0  0  0  0  0  0  0  0  0  0  0
   -1.8539   -3.9930    0.8163 H   0  0  0  0  0  0  0  0  0  0  0  0
    2.1646   -3.0762   -1.2033 C   0  0  0  0  0  0  0  0  0  0  0  0
   -6.1164   -1.2079   -0.1578 C   0  0  0  0  0  0  0  0  0  0  0  0
   -6.0703   -1.8075    0.7844 H   0  0  0  0  0  0  0  0  0  0  0  0
   -5.7541   -1.8665   -0.9772 H   0  0  0  0  0  0  0  0  0  0  0  0
    1.7282   -2.3792   -2.4638 C   0  0  0  0  0  0  0  0  0  0  0  0
    2.4256   -2.5756   -3.3002 H   0  0  0  0  0  0  0  0  0  0  0  0
    1.6654   -1.2827   -2.2910 H   0  0  0  0  0  0  0  0  0  0  0  0
    0.7107   -2.6949   -2.7783 H   0  0  0  0  0  0  0  0  0  0  0  0
    2.9842   -4.3140    1.1880 C   0  0  0  0  0  0  0  0  0  0  0  0
    3.3100   -4.7859    2.1296 H   0  0  0  0  0  0  0  0  0  0  0  0
    1.4863   -2.8175    0.0124 C   0  0  0  0  0  0  0  0  0  0  0  0
    1.1918    3.0955    2.4888 C   0  0  0  0  0  0  0  0  0  0  0  0
    1.7378    3.4953    3.3645 H   0  0  0  0  0  0  0  0  0  0  0  0
    1.0912    1.9946    2.5955 H   0  0  0  0  0  0  0  0  0  0  0  0
    0.1605    3.5081    2.5148 H   0  0  0  0  0  0  0  0  0  0  0  0
    3.6713   -4.6077   -0.0032 C   0  0  0  0  0  0  0  0  0  0  0  0
    1.8960   -3.4232    1.2230 C   0  0  0  0  0  0  0  0  0  0  0  0
    1.1897   -3.0828    2.5079 C   0  0  0  0  0  0  0  0  0  0  0  0
    1.0897   -1.9812    2.6085 H   0  0  0  0  0  0  0  0  0  0  0  0
    1.7358   -3.4778    3.3855 H   0  0  0  0  0  0  0  0  0  0  0  0
    0.1583   -3.4948    2.5367 H   0  0  0  0  0  0  0  0  0  0  0  0
    1.7292    2.3656   -2.4790 C   0  0  0  0  0  0  0  0  0  0  0  0
    1.6659    1.2699   -2.3006 H   0  0  0  0  0  0  0  0  0  0  0  0
    2.4265    2.5573   -3.3167 H   0  0  0  0  0  0  0  0  0  0  0  0
    0.7119    2.6803   -2.7948 H   0  0  0  0  0  0  0  0  0  0  0  0
    4.8564   -5.5417   -0.0138 C   0  0  0  0  0  0  0  0  0  0  0  0
    5.8110   -4.9790   -0.0994 H   0  0  0  0  0  0  0  0  0  0  0  0
    4.8183   -6.2405   -0.8744 H   0  0  0  0  0  0  0  0  0  0  0  0
    4.9106   -6.1439    0.9141 H   0  0  0  0  0  0  0  0  0  0  0  0
  3 33  1  0  0  0  0
  3 32  1  0  0  0  0
  4 24  1  0  0  0  0
  4  5  1  0  0  0  0
  6 46  1  0  0  0  0
  6  7  1  0  0  0  0
  6 28  1  0  0  0  0
  8  6  1  0  0  0  0
  9  4  2  0  0  0  0
 10  2  1  0  0  0  0
 10 24  2  0  0  0  0
 11 31  2  0  0  0  0
 12 11  1  0  0  0  0
 13  9  1  0  0  0  0
 13 16  1  0  0  0  0
 14 13  1  0  0  0  0
 15 13  1  0  0  0  0
 17  1  1  6  0  0  0
 18  2  1  0  0  0  0
 19 18  1  0  0  0  0
 19 20  1  0  0  0  0
 21 19  1  0  0  0  0
 22 19  1  0  0  0  0
 23 34  2  0  0  0  0
 23 10  1  0  0  0  0
 24 56  1  0  0  0  0
 25 36  1  0  0  0  0
 26 27  1  0  0  0  0
 28 30  1  0  0  0  0
 29 28  1  0  0  0  0
 31 25  1  0  0  0  0
 31 26  1  0  0  0  0
 32 26  2  0  0  0  0
 32 17  1  0  0  0  0
 33 11  1  0  0  0  0
 33 18  2  0  0  0  0
 34  9  1  0  0  0  0
 35 34  1  0  0  0  0
 36 28  1  0  0  0  0
 36 38  1  0  0  0  0
 37 36  1  0  0  0  0
 39 60  1  0  0  0  0
 40 39  1  0  0  0  0
 41 17  1  0  0  0  0
 41 44  1  0  0  0  0
 42 41  1  0  0  0  0
 43 41  1  0  0  0  0
 45 39  2  0  0  0  0
 45 55  1  0  0  0  0
 46 25  1  0  0  0  0
 46 47  1  0  0  0  0
 48 46  1  0  0  0  0
 49 51  1  0  0  0  0
 49 45  1  0  0  0  0
 50 49  1  0  0  0  0
 52 49  1  0  0  0  0
 53 61  1  0  0  0  0
 53 54  1  0  0  0  0
 55  1  1  0  0  0  0
 55 61  2  0  0  0  0
 56 59  1  0  0  0  0
 56 58  1  0  0  0  0
 56 57  1  0  0  0  0
 60 53  2  0  0  0  0
 61 62  1  0  0  0  0
 62 65  1  0  0  0  0
 62 63  1  0  0  0  0
 62 64  1  0  0  0  0
 66 67  1  0  0  0  0
 66 23  1  0  0  0  0
 68 66  1  0  0  0  0
 69 66  1  0  0  0  0
 70 60  1  0  0  0  0
 70 73  1  0  0  0  0
 71 70  1  0  0  0  0
 72 70  1  0  0  0  0
M  END
