1,2,3
q = -1.0

 34 34  0  0  0  0  0  0  0  0999 V2000
   -1.0049   -1.2164   -0.1411 N   0  0  0  0  0  0  0  0  0  0  0  0
   -1.0049    1.2164   -0.1414 N   0  0  0  0  0  0  0  0  0  0  0  0
    0.5149   -0.0002   -1.6138 N   0  0  0  0  0  0  0  0  0  0  0  0
    0.4406    2.6657   -1.8946 C   0  0  0  0  0  0  0  0  0  0  0  0
   -0.3047    3.4751   -1.7708 H   0  0  0  0  0  0  0  0  0  0  0  0
    0.6206    2.5394   -2.9815 H   0  0  0  0  0  0  0  0  0  0  0  0
    1.3913    3.0336   -1.4540 H   0  0  0  0  0  0  0  0  0  0  0  0
   -1.4101    2.4463    0.5353 C   0  0  0  0  0  0  0  0  0  0  0  0
   -2.2493    2.9327   -0.0080 H   0  0  0  0  0  0  0  0  0  0  0  0
   -0.5726    3.1682    0.6041 H   0  0  0  0  0  0  0  0  0  0  0  0
   -1.7587    2.2273    1.5615 H   0  0  0  0  0  0  0  0  0  0  0  0
    0.4405   -2.6661   -1.8939 C   0  0  0  0  0  0  0  0  0  0  0  0
    0.6207   -2.5401   -2.9808 H   0  0  0  0  0  0  0  0  0  0  0  0
   -0.3047   -3.4755   -1.7700 H   0  0  0  0  0  0  0  0  0  0  0  0
    1.3912   -3.0340   -1.4532 H   0  0  0  0  0  0  0  0  0  0  0  0
   -2.8908   -0.0002   -1.5924 C   0  0  0  0  0  0  0  0  0  0  0  0
   -2.2398   -0.0003   -2.4948 H   0  0  0  0  0  0  0  0  0  0  0  0
   -3.5538    0.8887   -1.6740 H   0  0  0  0  0  0  0  0  0  0  0  0
   -3.5538   -0.8891   -1.6738 H   0  0  0  0  0  0  0  0  0  0  0  0
    1.6837   -0.0003   -2.5046 C   0  0  0  0  0  0  0  0  0  0  0  0
    1.3601   -0.0004   -3.5665 H   0  0  0  0  0  0  0  0  0  0  0  0
    2.3100   -0.8940   -2.3318 H   0  0  0  0  0  0  0  0  0  0  0  0
    2.3100    0.8934   -2.3320 H   0  0  0  0  0  0  0  0  0  0  0  0
   -1.4101   -2.4462    0.5359 C   0  0  0  0  0  0  0  0  0  0  0  0
   -2.2493   -2.9327   -0.0073 H   0  0  0  0  0  0  0  0  0  0  0  0
   -1.7587   -2.2269    1.5620 H   0  0  0  0  0  0  0  0  0  0  0  0
   -0.5726   -3.1681    0.6049 H   0  0  0  0  0  0  0  0  0  0  0  0
   -0.0511   -1.3194   -1.2280 B   0  0  0  0  0  0  0  0  0  0  0  0
   -0.0511    1.3191   -1.2283 B   0  0  0  0  0  0  0  0  0  0  0  0
   -3.0549    0.0001    1.0895 C   0  0  0  0  0  0  0  0  0  0  0  0
   -2.5608    0.0003    2.0839 H   0  0  0  0  0  0  0  0  0  0  0  0
   -3.7284   -0.8824    1.0620 H   0  0  0  0  0  0  0  0  0  0  0  0
   -3.7284    0.8827    1.0617 H   0  0  0  0  0  0  0  0  0  0  0  0
   -2.0647   -0.0000   -0.1901 B   0  0  0  0  0  0  0  0  0  0  0  0
  1 24  1  0  0  0  0
  2  8  1  0  0  0  0
  3 29  1  0  0  0  0
  3 28  1  0  0  0  0
  4  5  1  0  0  0  0
  4  7  1  0  0  0  0
  4 29  1  0  0  0  0
  6  4  1  0  0  0  0
  8 10  1  0  0  0  0
  8 11  1  0  0  0  0
  9  8  1  0  0  0  0
 12 14  1  0  0  0  0
 12 15  1  0  0  0  0
 12 28  1  0  0  0  0
 13 12  1  0  0  0  0
 16 34  1  0  0  0  0
 17 16  1  0  0  0  0
 18 16  1  0  0  0  0
 19 16  1  0  0  0  0
 20 23  1  0  0  0  0
 20 22  1  0  0  0  0
 20  3  1  0  0  0  0
 21 20  1  0  0  0  0
 24 27  1  0  0  0  0
 24 26  1  0  0  0  0
 25 24  1  0  0  0  0
 28  1  1  0  0  0  0
 29  2  1  0  0  0  0
 30 31  1  0  0  0  0
 32 30  1  0  0  0  0
 33 30  1  0  0  0  0
 34  2  1  0  0  0  0
 34  1  1  0  0  0  0
 34 30  1  0  0  0  0
M  END
