1,2,3
q = 0.0, confidence = 1.0

 45 47  0  0  1  0  0  0  0  0999 V2000
    2.2398   -0.8473   -0.0766 N   0  0  0  0  0  0  0  0  0  0  0  0
   -0.8474    2.0363   -0.2761 N   0  0  0  0  0  2  0  0  0  0  0  0
   -0.4261   -0.5320   -0.6932 N   0  0  0  0  0  2  0  0  0  0  0  0
   -1.9385    1.2600   -0.4465 C   0  0  1  0  0  3  0  0  0  0  0  0
   -2.9378   -1.6490    1.0279 C   0  0  0  0  0  0  0  0  0  0  0  0
   -2.2537   -1.2824    1.8118 H   0  0  0  0  0  0  0  0  0  0  0  0
   -2.7720   -1.1741   -0.2916 C   0  0  0  0  0  0  0  0  0  0  0  0
   -3.6274   -1.6210   -1.3166 C   0  0  0  0  0  0  0  0  0  0  0  0
   -3.4916   -1.2505   -2.3444 H   0  0  0  0  0  0  0  0  0  0  0  0
    2.8359   -0.7445   -1.4297 C   0  0  0  0  0  0  0  0  0  0  0  0
    3.2512    0.2841   -1.4994 H   0  0  0  0  0  0  0  0  0  0  0  0
    2.0242   -0.8015   -2.1829 H   0  0  0  0  0  0  0  0  0  0  0  0
    1.3403   -1.9966    0.1216 C   0  0  0  0  0  0  0  0  0  0  0  0
    1.0378   -1.9673    1.1880 H   0  0  0  0  0  0  0  0  0  0  0  0
    1.8263   -2.9773   -0.0845 H   0  0  0  0  0  0  0  0  0  0  0  0
   -2.2139    4.0020   -0.3234 C   0  0  0  0  0  0  0  0  0  0  0  0
   -2.2807    5.0982   -0.2704 H   0  0  0  0  0  0  0  0  0  0  0  0
   -3.9578   -2.5690    1.3098 C   0  0  0  0  0  0  0  0  0  0  0  0
   -4.0865   -2.9399    2.3380 H   0  0  0  0  0  0  0  0  0  0  0  0
   -4.6460   -2.5417   -1.0236 C   0  0  0  0  0  0  0  0  0  0  0  0
   -5.3128   -2.8924   -1.8259 H   0  0  0  0  0  0  0  0  0  0  0  0
    0.0687   -1.8871   -0.7390 C   0  0  0  0  0  0  0  0  0  0  0  0
    0.3089   -2.1110   -1.8028 H   0  0  0  0  0  0  0  0  0  0  0  0
   -0.6728   -2.6456   -0.4064 H   0  0  0  0  0  0  0  0  0  0  0  0
    4.4052   -1.8031    0.7869 C   0  0  0  0  0  0  0  0  0  0  0  0
    5.1792   -1.6423    1.5659 H   0  0  0  0  0  0  0  0  0  0  0  0
    3.9988   -2.8242    0.9620 H   0  0  0  0  0  0  0  0  0  0  0  0
    3.3000   -0.7570    0.9594 C   0  0  0  0  0  0  0  0  0  0  0  0
    2.8011   -0.8157    1.9476 H   0  0  0  0  0  0  0  0  0  0  0  0
    3.7214    0.2683    0.8728 H   0  0  0  0  0  0  0  0  0  0  0  0
   -3.2265    1.8131   -0.5393 C   0  0  0  0  0  0  0  0  0  0  0  0
   -4.1000    1.1569   -0.6600 H   0  0  0  0  0  0  0  0  0  0  0  0
    5.0182   -1.7178   -0.6180 C   0  0  0  0  0  0  0  0  0  0  0  0
    5.7739   -2.5164   -0.7706 H   0  0  0  0  0  0  0  0  0  0  0  0
    5.5556   -0.7485   -0.7183 H   0  0  0  0  0  0  0  0  0  0  0  0
   -3.3594    3.2094   -0.4791 C   0  0  0  0  0  0  0  0  0  0  0  0
   -4.3546    3.6734   -0.5519 H   0  0  0  0  0  0  0  0  0  0  0  0
   -0.9643    3.3661   -0.2198 C   0  0  0  0  0  0  0  0  0  0  0  0
   -0.0145    3.9127   -0.0833 H   0  0  0  0  0  0  0  0  0  0  0  0
   -4.8120   -3.0150    0.2876 C   0  0  0  0  0  0  0  0  0  0  0  0
   -5.6115   -3.7367    0.5138 H   0  0  0  0  0  0  0  0  0  0  0  0
    3.9245   -1.7908   -1.6931 C   0  0  0  0  0  0  0  0  0  0  0  0
    4.3514   -1.6230   -2.7040 H   0  0  0  0  0  0  0  0  0  0  0  0
    3.4815   -2.8119   -1.7110 H   0  0  0  0  0  0  0  0  0  0  0  0
   -1.6621   -0.2059   -0.5305 C   0  0  2  0  0  3  0  0  0  0  0  0
  1 13  1  0  0  0  0
  1 28  1  0  0  0  0
  2 38  1  0  0  0  0
  4 45  1  6  0  0  0
  4  2  1  0  0  0  0
  5 18  1  0  0  0  0
  5  6  1  0  0  0  0
  7  5  2  0  0  0  0
  8 20  2  0  0  0  0
  8  7  1  0  0  0  0
  9  8  1  0  0  0  0
 10  1  1  0  0  0  0
 11 10  1  0  0  0  0
 12 10  1  0  0  0  0
 13 14  1  0  0  0  0
 15 13  1  0  0  0  0
 16 17  1  0  0  0  0
 16 38  2  0  0  0  0
 18 19  1  0  0  0  0
 20 40  1  0  0  0  0
 21 20  1  0  0  0  0
 22  3  1  0  0  0  0
 22 24  1  0  0  0  0
 22 13  1  0  0  0  0
 23 22  1  0  0  0  0
 25 28  1  0  0  0  0
 25 27  1  0  0  0  0
 25 26  1  0  0  0  0
 28 29  1  0  0  0  0
 30 28  1  0  0  0  0
 31 36  2  0  0  0  0
 31  4  1  0  0  0  0
 32 31  1  0  0  0  0
 33 25  1  0  0  0  0
 34 33  1  0  0  0  0
 35 33  1  0  0  0  0
 36 16  1  0  0  0  0
 37 36  1  0  0  0  0
 38 39  1  0  0  0  0
 40 41  1  0  0  0  0
 40 18  2  0  0  0  0
 42 10  1  0  0  0  0
 42 33  1  0  0  0  0
 43 42  1  0  0  0  0
 44 42  1  0  0  0  0
 45  3  1  1  0  0  0
 45  7  1  0  0  0  0
M  END
