2,3,4
q = -1.0

 38 40  0  0  0  0  0  0  0  0999 V2000
    3.0595    0.5536    0.0012 B   0  0  0  0  0  0  0  0  0  0  0  0
    0.8507    1.7470    0.0042 N   0  0  0  0  0  2  0  0  0  0  0  0
    1.2617   -0.5690   -1.3543 N   0  0  0  0  0  2  0  0  0  0  0  0
    1.2617   -0.5756    1.3514 N   0  0  0  0  0  2  0  0  0  0  0  0
    2.2031    1.8651    0.0045 N   0  0  0  0  0  0  0  0  0  0  0  0
    2.5767   -0.2415   -1.2569 N   0  0  0  0  0  0  0  0  0  0  0  0
    2.5767   -0.2477    1.2556 N   0  0  0  0  0  0  0  0  0  0  0  0
    0.3347    2.9935    0.0072 C   0  0  0  0  0  3  0  0  0  0  0  0
   -0.7515    3.1335    0.0076 H   0  0  0  0  0  0  0  0  0  0  0  0
    1.3800    3.9416    0.0095 C   0  0  0  0  0  0  0  0  0  0  0  0
    1.2949    5.0326    0.0122 H   0  0  0  0  0  0  0  0  0  0  0  0
    2.5516    3.1803    0.0077 C   0  0  0  0  0  0  0  0  0  0  0  0
    3.6035    3.4824    0.0084 H   0  0  0  0  0  0  0  0  0  0  0  0
    1.0862   -1.2117   -2.5267 C   0  0  0  0  0  3  0  0  0  0  0  0
    0.0909   -1.5713   -2.8082 H   0  0  0  0  0  0  0  0  0  0  0  0
    2.3148   -1.2878   -3.2162 C   0  0  0  0  0  0  0  0  0  0  0  0
    2.5093   -1.7420   -4.1926 H   0  0  0  0  0  0  0  0  0  0  0  0
    3.2331   -0.6538   -2.3771 C   0  0  0  0  0  0  0  0  0  0  0  0
    4.3028   -0.4654   -2.5043 H   0  0  0  0  0  0  0  0  0  0  0  0
    1.0863   -1.2239    2.5207 C   0  0  0  0  0  3  0  0  0  0  0  0
    0.0910   -1.5849    2.8004 H   0  0  0  0  0  0  0  0  0  0  0  0
    2.3149   -1.3033    3.2098 C   0  0  0  0  0  0  0  0  0  0  0  0
    2.5094   -1.7623    4.1840 H   0  0  0  0  0  0  0  0  0  0  0  0
    3.2332   -0.6653    2.3738 C   0  0  0  0  0  0  0  0  0  0  0  0
    4.3029   -0.4776    2.5018 H   0  0  0  0  0  0  0  0  0  0  0  0
    4.6409    0.8762    0.0019 C   0  0  0  0  0  0  0  0  0  0  0  0
    4.8537    1.5257   -0.8778 H   0  0  0  0  0  0  0  0  0  0  0  0
    4.8537    1.5217    0.8846 H   0  0  0  0  0  0  0  0  0  0  0  0
    5.6448   -0.2885   -0.0008 C   0  0  0  0  0  0  0  0  0  0  0  0
    5.4762   -0.9528    0.8738 H   0  0  0  0  0  0  0  0  0  0  0  0
    5.4764   -0.9485   -0.8787 H   0  0  0  0  0  0  0  0  0  0  0  0
    7.1092    0.1657    0.0005 C   0  0  0  0  0  0  0  0  0  0  0  0
    7.2870    0.8192   -0.8831 H   0  0  0  0  0  0  0  0  0  0  0  0
    7.2868    0.8149    0.8873 H   0  0  0  0  0  0  0  0  0  0  0  0
    8.1086   -0.9913   -0.0022 C   0  0  0  0  0  0  0  0  0  0  0  0
    9.1576   -0.6321   -0.0013 H   0  0  0  0  0  0  0  0  0  0  0  0
    7.9768   -1.6356   -0.8969 H   0  0  0  0  0  0  0  0  0  0  0  0
    7.9766   -1.6399    0.8892 H   0  0  0  0  0  0  0  0  0  0  0  0
  1 26  1  0  0  0  0
  1  5  1  0  0  0  0
  1  7  1  0  0  0  0
  2  5  1  0  0  0  0
  2  8  1  0  0  0  0
  3  6  1  0  0  0  0
  4 20  1  0  0  0  0
  5 12  1  0  0  0  0
  6  1  1  0  0  0  0
  7  4  1  0  0  0  0
  7 24  1  0  0  0  0
  8  9  1  0  0  0  0
  8 10  1  0  0  0  0
 10 11  1  0  0  0  0
 12 13  1  0  0  0  0
 12 10  2  0  0  0  0
 14  3  1  0  0  0  0
 15 14  1  0  0  0  0
 16 14  1  0  0  0  0
 16 18  2  0  0  0  0
 17 16  1  0  0  0  0
 18  6  1  0  0  0  0
 19 18  1  0  0  0  0
 20 21  1  0  0  0  0
 20 22  1  0  0  0  0
 22 23  1  0  0  0  0
 24 25  1  0  0  0  0
 24 22  2  0  0  0  0
 26 28  1  0  0  0  0
 27 26  1  0  0  0  0
 29 32  1  0  0  0  0
 29 26  1  0  0  0  0
 29 30  1  0  0  0  0
 31 29  1  0  0  0  0
 32 34  1  0  0  0  0
 33 32  1  0  0  0  0
 35 36  1  0  0  0  0
 35 32  1  0  0  0  0
 35 38  1  0  0  0  0
 37 35  1  0  0  0  0
M  END
