4,9,11
q = 0.0, confidence = 0.9

 74 77  0  0  1  0  0  0  0  0999 V2000
   -2.4465   -1.5091    0.0736 C   0  0  0  0  0  0  0  0  0  0  0  0
   -1.4065    1.9951    0.3077 C   0  0  0  0  0  0  0  0  0  0  0  0
    3.8515   -0.8264   -1.2128 C   0  0  0  0  0  0  0  0  0  0  0  0
   -1.7042   -0.2871   -0.0341 N   0  0  0  0  0  2  0  0  0  0  0  0
   -1.5118   -2.3983   -3.1333 C   0  0  0  0  0  0  0  0  0  0  0  0
   -1.7796   -3.4672   -3.2610 H   0  0  0  0  0  0  0  0  0  0  0  0
   -0.6010   -2.3487   -2.5052 H   0  0  0  0  0  0  0  0  0  0  0  0
   -1.2595   -1.9758   -4.1262 H   0  0  0  0  0  0  0  0  0  0  0  0
   -0.1013    1.5625    0.2747 N   0  0  0  0  0  2  0  0  0  0  0  0
    0.9530    2.4335    0.3923 C   0  0  0  0  0  0  0  0  0  0  0  0
    2.0877    0.4582   -0.0525 N   0  0  0  0  0  2  0  0  0  0  0  0
   -2.6586   -1.6122   -2.4772 C   0  0  0  0  0  0  0  0  0  0  0  0
   -2.3760   -0.5417   -2.4417 H   0  0  0  0  0  0  0  0  0  0  0  0
   -3.5739   -1.6946   -3.1021 H   0  0  0  0  0  0  0  0  0  0  0  0
   -4.5048    1.9108   -0.6426 C   0  0  0  0  0  0  0  0  0  0  0  0
   -5.5429    2.0715   -0.2824 H   0  0  0  0  0  0  0  0  0  0  0  0
   -4.5885    1.3406   -1.5906 H   0  0  0  0  0  0  0  0  0  0  0  0
   -0.6224    4.2523    0.6542 C   0  0  0  0  0  0  0  0  0  0  0  0
   -0.8257    5.3264    0.7802 H   0  0  0  0  0  0  0  0  0  0  0  0
   -3.1164    3.8957    0.2919 C   0  0  0  0  0  0  0  0  0  0  0  0
   -3.0515    4.9950    0.1659 H   0  0  0  0  0  0  0  0  0  0  0  0
   -3.7194    3.7397    1.2147 H   0  0  0  0  0  0  0  0  0  0  0  0
    2.2223    1.7486    0.2432 C   0  0  2  0  0  3  0  0  0  0  0  0
   -3.7951    1.0374    0.4111 C   0  0  0  0  0  0  0  0  0  0  0  0
   -4.2730    0.0411    0.4531 H   0  0  0  0  0  0  0  0  0  0  0  0
   -3.9344    1.4962    1.4138 H   0  0  0  0  0  0  0  0  0  0  0  0
    4.9742   -1.6693   -1.1150 C   0  0  0  0  0  0  0  0  0  0  0  0
    5.4661   -1.9966   -2.0445 H   0  0  0  0  0  0  0  0  0  0  0  0
   -2.3201    0.8717    0.1841 C   0  0  0  0  0  0  0  0  0  0  0  0
    3.5226    2.4659    0.4327 C   0  0  0  0  0  0  0  0  0  0  0  0
    3.5790    2.9362    1.4361 H   0  0  0  0  0  0  0  0  0  0  0  0
    3.6148    3.2822   -0.3145 H   0  0  0  0  0  0  0  0  0  0  0  0
    4.3809    1.7821    0.3106 H   0  0  0  0  0  0  0  0  0  0  0  0
    3.2344   -0.4005   -0.0089 C   0  0  0  0  0  0  0  0  0  0  0  0
   -2.6291   -2.0773    1.3626 C   0  0  0  0  0  0  0  0  0  0  0  0
   -3.9194   -3.8807    0.3280 C   0  0  0  0  0  0  0  0  0  0  0  0
   -4.5026   -4.8087    0.4278 H   0  0  0  0  0  0  0  0  0  0  0  0
    0.7034    3.7956    0.6279 C   0  0  0  0  0  0  0  0  0  0  0  0
    1.5440    4.4941    0.7403 H   0  0  0  0  0  0  0  0  0  0  0  0
   -2.9585   -2.1320   -1.0903 C   0  0  0  0  0  0  0  0  0  0  0  0
   -2.0540   -1.4504    2.6167 C   0  0  0  0  0  0  0  0  0  0  0  0
   -1.4791   -2.2348    3.1526 H   0  0  0  0  0  0  0  0  0  0  0  0
   -1.3080   -0.6820    2.3390 H   0  0  0  0  0  0  0  0  0  0  0  0
    3.3439   -0.4065   -2.5732 C   0  0  0  0  0  0  0  0  0  0  0  0
    3.7886   -1.0887   -3.3266 H   0  0  0  0  0  0  0  0  0  0  0  0
    2.2447   -0.5516   -2.6158 H   0  0  0  0  0  0  0  0  0  0  0  0
    3.6839   -0.8579    1.2584 C   0  0  0  0  0  0  0  0  0  0  0  0
   -3.3722   -3.2675    1.4617 C   0  0  0  0  0  0  0  0  0  0  0  0
   -3.5141   -3.7224    2.4551 H   0  0  0  0  0  0  0  0  0  0  0  0
   -1.7076    3.3701    0.4661 C   0  0  0  0  0  0  0  0  0  0  0  0
   -3.8338    3.2697   -0.9234 C   0  0  0  0  0  0  0  0  0  0  0  0
   -3.0885    3.1603   -1.7391 H   0  0  0  0  0  0  0  0  0  0  0  0
   -4.6011    3.9763   -1.3006 H   0  0  0  0  0  0  0  0  0  0  0  0
    5.4557   -2.1070    0.1253 C   0  0  0  0  0  0  0  0  0  0  0  0
    6.3283   -2.7758    0.1757 H   0  0  0  0  0  0  0  0  0  0  0  0
   -3.7065   -3.3147   -0.9343 C   0  0  0  0  0  0  0  0  0  0  0  0
   -4.1204   -3.7985   -1.8334 H   0  0  0  0  0  0  0  0  0  0  0  0
    2.9857   -0.4940    2.5539 C   0  0  0  0  0  0  0  0  0  0  0  0
    2.7238   -1.4424    3.0691 H   0  0  0  0  0  0  0  0  0  0  0  0
    2.0159   -0.0091    2.3340 H   0  0  0  0  0  0  0  0  0  0  0  0
    4.8040   -1.7093    1.2973 C   0  0  0  0  0  0  0  0  0  0  0  0
    5.1544   -2.0799    2.2738 H   0  0  0  0  0  0  0  0  0  0  0  0
   -3.1085   -0.8592    3.5624 C   0  0  0  0  0  0  0  0  0  0  0  0
   -2.6352   -0.4456    4.4760 H   0  0  0  0  0  0  0  0  0  0  0  0
   -3.8438   -1.6256    3.8824 H   0  0  0  0  0  0  0  0  0  0  0  0
   -3.6800   -0.0415    3.0793 H   0  0  0  0  0  0  0  0  0  0  0  0
    3.6499    1.0462   -2.9644 C   0  0  0  0  0  0  0  0  0  0  0  0
    4.7313    1.2771   -2.8709 H   0  0  0  0  0  0  0  0  0  0  0  0
    3.0805    1.7598   -2.3383 H   0  0  0  0  0  0  0  0  0  0  0  0
    3.3469    1.2341   -4.0139 H   0  0  0  0  0  0  0  0  0  0  0  0
    3.8232    0.3799    3.4974 C   0  0  0  0  0  0  0  0  0  0  0  0
    3.2737    0.5883    4.4378 H   0  0  0  0  0  0  0  0  0  0  0  0
    4.0823    1.3530    3.0346 H   0  0  0  0  0  0  0  0  0  0  0  0
    4.7779   -0.1144    3.7702 H   0  0  0  0  0  0  0  0  0  0  0  0
  1 35  1  0  0  0  0
  2 50  1  0  0  0  0
  3 27  2  0  0  0  0
  3 34  1  0  0  0  0
  4  1  1  0  0  0  0
  4 29  1  0  0  0  0
  5  7  1  0  0  0  0
  5 12  1  0  0  0  0
  6  5  1  0  0  0  0
  8  5  1  0  0  0  0
  9  2  1  0  0  0  0
  9 10  1  0  0  0  0
 10 38  2  0  0  0  0
 11 34  1  0  0  0  0
 12 13  1  0  0  0  0
 12 40  1  0  0  0  0
 14 12  1  0  0  0  0
 15 16  1  0  0  0  0
 15 24  1  0  0  0  0
 17 15  1  0  0  0  0
 18 19  1  0  0  0  0
 20 50  1  0  0  0  0
 20 22  1  0  0  0  0
 21 20  1  0  0  0  0
 23 11  1  1  0  0  0
 23 10  1  0  0  0  0
 23 30  1  0  0  0  0
 24 25  1  0  0  0  0
 24 26  1  0  0  0  0
 27 54  1  0  0  0  0
 28 27  1  0  0  0  0
 29  2  2  0  0  0  0
 29 24  1  0  0  0  0
 30 31  1  0  0  0  0
 32 30  1  0  0  0  0
 33 30  1  0  0  0  0
 34 47  2  0  0  0  0
 35 48  2  0  0  0  0
 35 41  1  0  0  0  0
 36 37  1  0  0  0  0
 36 48  1  0  0  0  0
 38 18  1  0  0  0  0
 38 39  1  0  0  0  0
 40 56  1  0  0  0  0
 40  1  2  0  0  0  0
 41 42  1  0  0  0  0
 41 63  1  0  0  0  0
 43 41  1  0  0  0  0
 44  3  1  0  0  0  0
 45 44  1  0  0  0  0
 46 44  1  0  0  0  0
 47 61  1  0  0  0  0
 47 58  1  0  0  0  0
 48 49  1  0  0  0  0
 50 18  2  0  0  0  0
 51 15  1  0  0  0  0
 51 20  1  0  0  0  0
 52 51  1  0  0  0  0
 53 51  1  0  0  0  0
 54 55  1  0  0  0  0
 54 61  2  0  0  0  0
 56 36  2  0  0  0  0
 57 56  1  0  0  0  0
 58 59  1  0  0  0  0
 58 71  1  0  0  0  0
 60 58  1  0  0  0  0
 61 62  1  0  0  0  0
 63 65  1  0  0  0  0
 63 64  1  0  0  0  0
 66 63  1  0  0  0  0
 67 68  1  0  0  0  0
 67 44  1  0  0  0  0
 67 69  1  0  0  0  0
 70 67  1  0  0  0  0
 71 74  1  0  0  0  0
 71 72  1  0  0  0  0
 73 71  1  0  0  0  0
M  END
