2,3,4
q = 0.0, confidence = 0.986

 54 56  0  0  1  0  0  0  0  0999 V2000
   -3.1693    0.2512    0.5010 N   0  0  0  0  0  0  0  0  0  0  0  0
    0.8692    0.2071    1.7894 N   0  0  0  0  0  0  0  0  0  0  0  0
    0.2172   -1.0949   -1.1720 N   0  0  0  0  0  2  0  0  0  0  0  0
   -2.2470    1.0582   -0.0910 N   0  0  0  0  0  2  0  0  0  0  0  0
   -0.3987   -2.2722   -0.8782 N   0  0  0  0  0  0  0  0  0  0  0  0
   -1.4900   -1.3516    1.0229 N   0  0  0  0  0  0  0  0  0  0  0  0
   -2.2662    3.0452   -1.6049 C   0  0  0  0  0  0  0  0  0  0  0  0
   -1.3896    2.6537   -2.1539 H   0  0  0  0  0  0  0  0  0  0  0  0
   -1.8839    3.8528   -0.9476 H   0  0  0  0  0  0  0  0  0  0  0  0
   -2.9812    3.4917   -2.3194 H   0  0  0  0  0  0  0  0  0  0  0  0
    3.1344    0.9677    1.2391 C   0  0  0  0  0  0  0  0  0  0  0  0
    2.8174    2.0061    1.4242 H   0  0  0  0  0  0  0  0  0  0  0  0
   -4.3233    1.7516   -0.6327 C   0  0  0  0  0  0  0  0  0  0  0  0
   -5.1424    2.3226   -1.0818 H   0  0  0  0  0  0  0  0  0  0  0  0
   -1.6361   -2.2433   -0.1197 C   0  0  0  0  0  0  0  0  0  0  0  0
   -1.8798   -3.2926    0.1611 H   0  0  0  0  0  0  0  0  0  0  0  0
   -2.4628   -1.8532   -0.7521 H   0  0  0  0  0  0  0  0  0  0  0  0
    2.6628   -1.4169    1.1658 C   0  0  0  0  0  0  0  0  0  0  0  0
    1.9847   -2.2713    1.2866 H   0  0  0  0  0  0  0  0  0  0  0  0
    2.2380   -0.3383   -2.4005 C   0  0  0  0  0  0  0  0  0  0  0  0
    1.7909    0.6705   -2.3298 H   0  0  0  0  0  0  0  0  0  0  0  0
    2.5664   -0.5277   -3.4400 H   0  0  0  0  0  0  0  0  0  0  0  0
    3.1415   -0.3485   -1.7548 H   0  0  0  0  0  0  0  0  0  0  0  0
    4.8737   -0.5909    0.5548 C   0  0  0  0  0  0  0  0  0  0  0  0
    5.9032   -0.7834    0.2195 H   0  0  0  0  0  0  0  0  0  0  0  0
   -2.9357    1.9806   -0.8013 C   0  0  2  0  0  3  0  0  0  0  0  0
    1.3149   -2.7872   -2.1733 C   0  0  0  0  0  0  0  0  0  0  0  0
    2.0490   -3.3413   -2.7670 H   0  0  0  0  0  0  0  0  0  0  0  0
   -0.2403   -4.7425   -1.3660 C   0  0  0  0  0  0  0  0  0  0  0  0
   -0.3140   -5.0782   -0.3108 H   0  0  0  0  0  0  0  0  0  0  0  0
    0.4713   -5.4138   -1.8794 H   0  0  0  0  0  0  0  0  0  0  0  0
   -1.2346   -4.8870   -1.8373 H   0  0  0  0  0  0  0  0  0  0  0  0
   -0.5975   -1.8259    2.0846 C   0  0  0  0  0  0  0  0  0  0  0  0
    0.1028   -2.5421    1.6162 H   0  0  0  0  0  0  0  0  0  0  0  0
   -1.1443   -2.3941    2.8728 H   0  0  0  0  0  0  0  0  0  0  0  0
    4.4427    0.7220    0.8048 C   0  0  0  0  0  0  0  0  0  0  0  0
    5.1243    1.5734    0.6625 H   0  0  0  0  0  0  0  0  0  0  0  0
    0.1889   -0.6867    2.7496 C   0  0  0  0  0  0  0  0  0  0  0  0
   -0.5034   -0.0576    3.3458 H   0  0  0  0  0  0  0  0  0  0  0  0
    0.9147   -1.1271    3.4666 H   0  0  0  0  0  0  0  0  0  0  0  0
    0.2332   -3.3315   -1.4791 C   0  0  2  0  0  3  0  0  0  0  0  0
   -5.6625   -0.0357    0.7496 C   0  0  0  0  0  0  0  0  0  0  0  0
   -5.6820   -1.1175    0.5023 H   0  0  0  0  0  0  0  0  0  0  0  0
   -6.5687    0.4214    0.3133 H   0  0  0  0  0  0  0  0  0  0  0  0
   -5.7384    0.0608    1.8527 H   0  0  0  0  0  0  0  0  0  0  0  0
    1.2802   -1.3876   -1.9506 C   0  0  0  0  0  0  0  0  0  0  0  0
    2.2342   -0.0998    1.4131 C   0  0  0  0  0  0  0  0  0  0  0  0
   -2.7265   -0.7407    1.4690 C   0  0  0  0  0  0  0  0  0  0  0  0
   -2.5354   -0.2577    2.4512 H   0  0  0  0  0  0  0  0  0  0  0  0
   -3.5634   -1.4621    1.6125 H   0  0  0  0  0  0  0  0  0  0  0  0
   -4.4493    0.6453    0.2089 C   0  0  0  0  0  0  0  0  0  0  0  0
    3.9807   -1.6557    0.7449 C   0  0  0  0  0  0  0  0  0  0  0  0
    4.3055   -2.6904    0.5603 H   0  0  0  0  0  0  0  0  0  0  0  0
    0.8680    1.1658    2.1607 H   0  0  0  0  0  0  0  0  0  0  0  0
  1 48  1  0  0  0  0
  2 54  1  0  0  0  0
  2 38  1  0  0  0  0
  3  5  1  0  0  0  0
  4  1  1  0  0  0  0
  5 15  1  0  0  0  0
  6 48  1  0  0  0  0
  6 33  1  0  0  0  0
  7  9  1  0  0  0  0
  8  7  1  0  0  0  0
 10  7  1  0  0  0  0
 11 47  1  0  0  0  0
 11 12  1  0  0  0  0
 13 51  2  0  0  0  0
 14 13  1  0  0  0  0
 15 16  1  0  0  0  0
 15  6  1  0  0  0  0
 17 15  1  0  0  0  0
 18 19  1  0  0  0  0
 18 47  2  0  0  0  0
 20 21  1  0  0  0  0
 20 46  1  0  0  0  0
 20 23  1  0  0  0  0
 22 20  1  0  0  0  0
 24 52  2  0  0  0  0
 24 36  1  0  0  0  0
 25 24  1  0  0  0  0
 26  7  1  1  0  0  0
 26 13  1  0  0  0  0
 26  4  1  0  0  0  0
 27 46  2  0  0  0  0
 27 41  1  0  0  0  0
 28 27  1  0  0  0  0
 29 30  1  0  0  0  0
 31 29  1  0  0  0  0
 32 29  1  0  0  0  0
 33 38  1  0  0  0  0
 33 35  1  0  0  0  0
 34 33  1  0  0  0  0
 36 11  2  0  0  0  0
 37 36  1  0  0  0  0
 38 39  1  0  0  0  0
 38 40  1  0  0  0  0
 41 29  1  6  0  0  0
 41  5  1  0  0  0  0
 42 45  1  0  0  0  0
 43 42  1  0  0  0  0
 44 42  1  0  0  0  0
 46  3  1  0  0  0  0
 47  2  1  0  0  0  0
 48 50  1  0  0  0  0
 48 49  1  0  0  0  0
 51  1  1  0  0  0  0
 51 42  1  0  0  0  0
 52 18  1  0  0  0  0
 53 52  1  0  0  0  0
M  END
