43,44,45
q = 0.0, confidence = 0.99

 53 55  0  0  1  0  0  0  0  0999 V2000
    0.8174   -1.3951    2.0484 C   0  0  0  0  0  0  0  0  0  0  0  0
    1.4486   -2.4718    2.6366 C   0  0  0  0  0  0  0  0  0  0  0  0
    1.5995   -2.7295    3.6891 H   0  0  0  0  0  0  0  0  0  0  0  0
    1.5557   -2.6534    0.3991 C   0  0  2  0  0  3  0  0  0  0  0  0
    1.9040   -3.2460   -0.9356 C   0  0  0  0  0  0  0  0  0  0  0  0
    1.4925   -2.5462   -1.6865 H   0  0  0  0  0  0  0  0  0  0  0  0
    3.4294   -3.3146   -1.1345 C   0  0  0  0  0  0  0  0  0  0  0  0
    3.9111   -3.9963   -0.4025 H   0  0  0  0  0  0  0  0  0  0  0  0
    3.8960   -2.3151   -1.0380 H   0  0  0  0  0  0  0  0  0  0  0  0
    3.6604   -3.7023   -2.1457 H   0  0  0  0  0  0  0  0  0  0  0  0
    1.2223   -4.6123   -1.1345 C   0  0  0  0  0  0  0  0  0  0  0  0
    0.1220   -4.5342   -1.0379 H   0  0  0  0  0  0  0  0  0  0  0  0
    1.5839   -5.3647   -0.4025 H   0  0  0  0  0  0  0  0  0  0  0  0
    1.4489   -5.0028   -2.1456 H   0  0  0  0  0  0  0  0  0  0  0  0
    0.7992    1.4053    2.0486 C   0  0  0  0  0  0  0  0  0  0  0  0
    1.4161    2.4902    2.6368 C   0  0  0  0  0  0  0  0  0  0  0  0
    1.5637    2.7497    3.6894 H   0  0  0  0  0  0  0  0  0  0  0  0
    1.5202    2.6737    0.3993 C   0  0  2  0  0  3  0  0  0  0  0  0
    1.8596    3.2716   -0.9352 C   0  0  0  0  0  0  0  0  0  0  0  0
    1.4585    2.5659   -1.6863 H   0  0  0  0  0  0  0  0  0  0  0  0
    3.3838    3.3629   -1.1344 C   0  0  0  0  0  0  0  0  0  0  0  0
    3.8653    2.3704   -1.0380 H   0  0  0  0  0  0  0  0  0  0  0  0
    3.8555    4.0517   -0.4025 H   0  0  0  0  0  0  0  0  0  0  0  0
    3.6089    3.7541   -2.1456 H   0  0  0  0  0  0  0  0  0  0  0  0
    1.1578    4.6277   -1.1338 C   0  0  0  0  0  0  0  0  0  0  0  0
    1.5081    5.3852   -0.4016 H   0  0  0  0  0  0  0  0  0  0  0  0
    0.0587    4.5332   -1.0373 H   0  0  0  0  0  0  0  0  0  0  0  0
    1.3785    5.0217   -2.1449 H   0  0  0  0  0  0  0  0  0  0  0  0
   -1.6170   -0.0106    2.0485 C   0  0  0  0  0  0  0  0  0  0  0  0
   -2.8650   -0.0185    2.6367 C   0  0  0  0  0  0  0  0  0  0  0  0
   -3.1637   -0.0203    3.6892 H   0  0  0  0  0  0  0  0  0  0  0  0
   -3.0758   -0.0204    0.3992 C   0  0  2  0  0  3  0  0  0  0  0  0
   -3.7631   -0.0258   -0.9356 C   0  0  0  0  0  0  0  0  0  0  0  0
   -2.9512   -0.0203   -1.6864 H   0  0  0  0  0  0  0  0  0  0  0  0
   -4.6045    1.2482   -1.1352 C   0  0  0  0  0  0  0  0  0  0  0  0
   -3.9861    2.1617   -1.0388 H   0  0  0  0  0  0  0  0  0  0  0  0
   -5.4371    1.3122   -0.4035 H   0  0  0  0  0  0  0  0  0  0  0  0
   -5.0556    1.2472   -2.1465 H   0  0  0  0  0  0  0  0  0  0  0  0
   -4.5861   -1.3119   -1.1341 C   0  0  0  0  0  0  0  0  0  0  0  0
   -5.4178   -1.3872   -0.4025 H   0  0  0  0  0  0  0  0  0  0  0  0
   -3.9547   -2.2163   -1.0370 H   0  0  0  0  0  0  0  0  0  0  0  0
   -5.0371   -1.3182   -2.1455 H   0  0  0  0  0  0  0  0  0  0  0  0
    0.8881   -1.5151    0.6616 N   0  0  0  0  0  2  0  0  0  0  0  0
    0.8681    1.5264    0.6618 N   0  0  0  0  0  2  0  0  0  0  0  0
   -1.7562   -0.0117    0.6617 N   0  0  0  0  0  2  0  0  0  0  0  0
    1.8990   -3.2395    1.5864 N   0  0  0  0  0  0  0  0  0  0  0  0
    2.4144   -4.1185    1.6672 H   0  0  0  0  0  0  0  0  0  0  0  0
    1.8561    3.2640    1.5867 N   0  0  0  0  0  0  0  0  0  0  0  0
    2.3596    4.1499    1.6675 H   0  0  0  0  0  0  0  0  0  0  0  0
   -3.7551   -0.0245    1.5865 N   0  0  0  0  0  0  0  0  0  0  0  0
   -4.7740   -0.0311    1.6672 H   0  0  0  0  0  0  0  0  0  0  0  0
   -0.0001   -0.0003    4.3617 O   0  0  0  0  0  0  0  0  0  0  0  0
   -0.0001   -0.0002    2.8564 P   0  0  1  0  0  0  0  0  0  0  0  0
  1  2  2  0  0  0  0
  1 53  1  0  0  0  0
  2  3  1  0  0  0  0
  4  5  1  1  0  0  0
  4 43  1  0  0  0  0
  4 46  1  0  0  0  0
  6  5  1  0  0  0  0
  7  9  1  0  0  0  0
  7  5  1  0  0  0  0
  7  8  1  0  0  0  0
 10  7  1  0  0  0  0
 11 12  1  0  0  0  0
 11  5  1  0  0  0  0
 11 13  1  0  0  0  0
 14 11  1  0  0  0  0
 15 16  2  0  0  0  0
 15 53  1  0  0  0  0
 16 17  1  0  0  0  0
 18 19  1  1  0  0  0
 18 44  1  0  0  0  0
 18 48  1  0  0  0  0
 20 19  1  0  0  0  0
 21 22  1  0  0  0  0
 21 19  1  0  0  0  0
 21 23  1  0  0  0  0
 24 21  1  0  0  0  0
 25 27  1  0  0  0  0
 25 19  1  0  0  0  0
 25 26  1  0  0  0  0
 28 25  1  0  0  0  0
 29 30  2  0  0  0  0
 29 53  1  0  0  0  0
 30 31  1  0  0  0  0
 32 33  1  1  0  0  0
 32 45  1  0  0  0  0
 32 50  1  0  0  0  0
 34 33  1  0  0  0  0
 35 36  1  0  0  0  0
 35 33  1  0  0  0  0
 35 37  1  0  0  0  0
 38 35  1  0  0  0  0
 39 41  1  0  0  0  0
 39 33  1  0  0  0  0
 39 40  1  0  0  0  0
 42 39  1  0  0  0  0
 43  1  1  0  0  0  0
 44 15  1  0  0  0  0
 45 29  1  0  0  0  0
 46 47  1  0  0  0  0
 46  2  1  0  0  0  0
 48 49  1  0  0  0  0
 48 16  1  0  0  0  0
 50 51  1  0  0  0  0
 50 30  1  0  0  0  0
 53 52  2  1  0  0  0
M  END
