2,3,4
q = -1.0

 29 29  0  0  0  0  0  0  0  0999 V2000
    2.0081   -1.2131    1.7890 O   0  0  0  0  0  1  0  0  0  0  0  0
   -1.1558    1.2677   -0.7924 N   0  0  0  0  0  2  0  0  0  0  0  0
    0.4160   -1.0084   -1.6233 N   0  0  0  0  0  2  0  0  0  0  0  0
    1.6218   -1.1776    0.6101 N   0  0  0  0  0  2  0  0  0  0  0  0
   -1.2253    2.5341   -0.3120 C   0  0  0  0  0  3  0  0  0  0  0  0
   -2.1590    3.4716   -0.7557 C   0  0  0  0  0  0  0  0  0  0  0  0
   -3.0709    3.0939   -1.7498 C   0  0  0  0  0  0  0  0  0  0  0  0
   -2.9735    1.8032   -2.2778 C   0  0  0  0  0  0  0  0  0  0  0  0
   -1.9991    0.9081   -1.7973 C   0  0  0  0  0  0  0  0  0  0  0  0
   -1.8257   -0.4393   -2.4418 C   0  0  0  0  0  0  0  0  0  0  0  0
   -0.3661   -0.7357   -2.8056 C   0  0  0  0  0  0  0  0  0  0  0  0
    1.5010   -1.7646   -1.6400 C   0  0  0  0  0  0  0  0  0  0  0  0
    2.1735   -1.9212   -0.3796 C   0  0  0  0  0  0  0  0  0  0  0  0
    2.0098   -2.4269   -2.8860 C   0  0  0  0  0  0  0  0  0  0  0  0
    3.3386   -2.8180   -0.1019 C   0  0  0  0  0  0  0  0  0  0  0  0
   -0.4966    2.7937    0.4655 H   0  0  0  0  0  0  0  0  0  0  0  0
   -2.1603    4.4821   -0.3236 H   0  0  0  0  0  0  0  0  0  0  0  0
   -3.8294    3.7979   -2.1228 H   0  0  0  0  0  0  0  0  0  0  0  0
   -3.6437    1.4738   -3.0847 H   0  0  0  0  0  0  0  0  0  0  0  0
   -2.2107   -1.2422   -1.7779 H   0  0  0  0  0  0  0  0  0  0  0  0
   -2.4422   -0.4695   -3.3600 H   0  0  0  0  0  0  0  0  0  0  0  0
   -0.3396   -1.6006   -3.5009 H   0  0  0  0  0  0  0  0  0  0  0  0
    0.0771    0.1320   -3.3467 H   0  0  0  0  0  0  0  0  0  0  0  0
    2.8718   -3.0830   -2.6780 H   0  0  0  0  0  0  0  0  0  0  0  0
    1.2249   -3.0338   -3.3816 H   0  0  0  0  0  0  0  0  0  0  0  0
    2.3306   -1.6515   -3.6127 H   0  0  0  0  0  0  0  0  0  0  0  0
    3.6343   -2.6992    0.9561 H   0  0  0  0  0  0  0  0  0  0  0  0
    3.0977   -3.8872   -0.2765 H   0  0  0  0  0  0  0  0  0  0  0  0
    4.2094   -2.5621   -0.7399 H   0  0  0  0  0  0  0  0  0  0  0  0
  2  5  1  0  0  0  0
  4  1  1  0  0  0  0
  5 16  1  0  0  0  0
  6 17  1  0  0  0  0
  6  5  1  0  0  0  0
  7  6  2  0  0  0  0
  8  9  2  0  0  0  0
  8  7  1  0  0  0  0
  9  2  1  0  0  0  0
 10  9  1  0  0  0  0
 10 20  1  0  0  0  0
 11 10  1  0  0  0  0
 11  3  1  0  0  0  0
 12  3  1  0  0  0  0
 12 13  2  0  0  0  0
 13 15  1  0  0  0  0
 13  4  1  0  0  0  0
 14 24  1  0  0  0  0
 14 12  1  0  0  0  0
 15 27  1  0  0  0  0
 18  7  1  0  0  0  0
 19  8  1  0  0  0  0
 21 10  1  0  0  0  0
 22 11  1  0  0  0  0
 23 11  1  0  0  0  0
 25 14  1  0  0  0  0
 26 14  1  0  0  0  0
 28 15  1  0  0  0  0
 29 15  1  0  0  0  0
M  END
