1,2,3
q = -1.0

 27 28  0  0  0  0  0  0  0  0999 V2000
   -1.4877   -0.2865    0.5559 N   0  0  0  0  0  2  0  0  0  0  0  0
   -0.2481   -0.0039   -1.8160 N   0  0  0  0  0  2  0  0  0  0  0  0
    0.6290    1.7331    0.0006 N   0  0  0  0  0  0  0  0  0  0  0  0
   -1.8826    0.5078    1.5778 C   0  0  0  0  0  3  0  0  0  0  0  0
   -3.2231    0.7966    1.8439 C   0  0  0  0  0  0  0  0  0  0  0  0
   -4.2044    0.2500    1.0074 C   0  0  0  0  0  0  0  0  0  0  0  0
   -3.7980   -0.5616   -0.0583 C   0  0  0  0  0  0  0  0  0  0  0  0
   -4.5370   -1.0059   -0.7405 H   0  0  0  0  0  0  0  0  0  0  0  0
   -2.4335   -0.8259   -0.2708 C   0  0  0  0  0  0  0  0  0  0  0  0
   -1.9795   -1.7116   -1.4033 C   0  0  0  0  0  0  0  0  0  0  0  0
   -2.8648   -2.1429   -1.9099 H   0  0  0  0  0  0  0  0  0  0  0  0
   -1.4167   -2.5599   -0.9660 H   0  0  0  0  0  0  0  0  0  0  0  0
   -1.0816   -0.9972   -2.4578 C   0  0  0  0  0  0  0  0  0  0  0  0
   -0.4532   -1.7651   -2.9569 H   0  0  0  0  0  0  0  0  0  0  0  0
   -1.7221   -0.5211   -3.2337 H   0  0  0  0  0  0  0  0  0  0  0  0
   -0.4390    1.2797   -2.0739 C   0  0  0  0  0  3  0  0  0  0  0  0
    0.0762    2.2413   -1.1743 C   0  0  0  0  0  0  0  0  0  0  0  0
    0.1267    3.6607   -1.1487 C   0  0  0  0  0  0  0  0  0  0  0  0
    0.7324    4.0064    0.0709 C   0  0  0  0  0  0  0  0  0  0  0  0
    0.9422    5.0160    0.4438 H   0  0  0  0  0  0  0  0  0  0  0  0
    1.0257    2.7904    0.7438 C   0  0  0  0  0  3  0  0  0  0  0  0
   -1.0763    0.9323    2.1930 H   0  0  0  0  0  0  0  0  0  0  0  0
   -3.4810    1.4464    2.6917 H   0  0  0  0  0  0  0  0  0  0  0  0
   -5.2717    0.4552    1.1786 H   0  0  0  0  0  0  0  0  0  0  0  0
   -1.0384    1.5853   -2.9535 H   0  0  0  0  0  0  0  0  0  0  0  0
   -0.2324    4.3377   -1.9329 H   0  0  0  0  0  0  0  0  0  0  0  0
    1.5007    2.6444    1.7231 H   0  0  0  0  0  0  0  0  0  0  0  0
  1  4  1  0  0  0  0
  3 21  1  0  0  0  0
  4  5  1  0  0  0  0
  4 22  1  0  0  0  0
  5 23  1  0  0  0  0
  6 24  1  0  0  0  0
  6  5  2  0  0  0  0
  7  6  1  0  0  0  0
  8  7  1  0  0  0  0
  9  7  2  0  0  0  0
  9  1  1  0  0  0  0
 10 12  1  0  0  0  0
 10  9  1  0  0  0  0
 11 10  1  0  0  0  0
 13  2  1  0  0  0  0
 13 10  1  0  0  0  0
 14 13  1  0  0  0  0
 15 13  1  0  0  0  0
 16  2  1  0  0  0  0
 16 17  1  0  0  0  0
 17 18  1  0  0  0  0
 17  3  2  0  0  0  0
 18 19  2  0  0  0  0
 19 20  1  0  0  0  0
 19 21  1  0  0  0  0
 21 27  1  0  0  0  0
 25 16  1  0  0  0  0
 26 18  1  0  0  0  0
M  END
