10,13,16
q = 0.0, confidence = 1.0

 52 54  0  0  0  0  0  0  0  0999 V2000
    0.5642   -2.8173    0.2397 C   0  0  0  0  0  0  0  0  0  0  0  0
    1.1851   -1.8041   -0.5612 O   0  0  0  0  0  0  0  0  0  0  0  0
    2.5482   -1.6415   -0.4728 C   0  0  0  0  0  0  0  0  0  0  0  0
    3.3468   -2.3059    0.4731 C   0  0  0  0  0  0  0  0  0  0  0  0
    4.7301   -2.0727    0.5006 C   0  0  0  0  0  0  0  0  0  0  0  0
    5.3254   -1.2008   -0.4189 C   0  0  0  0  0  0  0  0  0  0  0  0
    4.5187   -0.5478   -1.3633 C   0  0  0  0  0  0  0  0  0  0  0  0
    3.1293   -0.7465   -1.4085 C   0  0  0  0  0  0  0  0  0  0  0  0
    2.2677   -0.0060   -2.4018 C   0  0  0  0  0  0  0  0  0  0  0  0
    1.5244    1.1074   -1.7792 N   0  0  0  0  0  0  0  0  0  0  0  0
    2.3371    2.2212   -1.2765 C   0  0  0  0  0  0  0  0  0  0  0  0
    1.4592    3.2549   -0.5610 C   0  0  0  0  0  0  0  0  0  0  0  0
    0.7573    2.6354    0.5549 N   0  0  0  0  0  0  0  0  0  0  0  0
   -0.3196    3.3877    1.1814 C   0  0  0  0  0  0  0  0  0  0  0  0
   -1.1823    2.4684    2.0527 C   0  0  0  0  0  0  0  0  0  0  0  0
   -1.8293    1.4197    1.2543 N   0  0  0  0  0  0  0  0  0  0  0  0
   -2.5716    0.4233    2.0531 C   0  0  0  0  0  0  0  0  0  0  0  0
   -3.4328   -0.4406    1.1664 C   0  0  0  0  0  0  0  0  0  0  0  0
   -4.8074   -0.1834    1.0323 C   0  0  0  0  0  0  0  0  0  0  0  0
   -5.6196   -0.9450    0.1786 C   0  0  0  0  0  0  0  0  0  0  0  0
   -5.0427   -1.9843   -0.5622 C   0  0  0  0  0  0  0  0  0  0  0  0
   -3.6730   -2.2671   -0.4509 C   0  0  0  0  0  0  0  0  0  0  0  0
   -2.8683   -1.4995    0.4093 C   0  0  0  0  0  0  0  0  0  0  0  0
   -1.5235   -1.7055    0.5770 O   0  0  0  0  0  0  0  0  0  0  0  0
   -0.9160   -2.8235   -0.0723 C   0  0  0  0  0  0  0  0  0  0  0  0
    0.7248   -2.5957    1.3164 H   0  0  0  0  0  0  0  0  0  0  0  0
    0.9993   -3.8086   -0.0153 H   0  0  0  0  0  0  0  0  0  0  0  0
    2.8973   -2.9673    1.2230 H   0  0  0  0  0  0  0  0  0  0  0  0
    5.3407   -2.5783    1.2632 H   0  0  0  0  0  0  0  0  0  0  0  0
    6.4101   -1.0219   -0.3977 H   0  0  0  0  0  0  0  0  0  0  0  0
    4.9728    0.1418   -2.0929 H   0  0  0  0  0  0  0  0  0  0  0  0
    1.5053   -0.6873   -2.8298 H   0  0  0  0  0  0  0  0  0  0  0  0
    2.9118    0.3615   -3.2347 H   0  0  0  0  0  0  0  0  0  0  0  0
    0.8269    1.4668   -2.4469 H   0  0  0  0  0  0  0  0  0  0  0  0
    3.0778    1.8062   -0.5616 H   0  0  0  0  0  0  0  0  0  0  0  0
    2.9074    2.7228   -2.0942 H   0  0  0  0  0  0  0  0  0  0  0  0
    2.1019    4.1128   -0.2479 H   0  0  0  0  0  0  0  0  0  0  0  0
    0.7023    3.6613   -1.2682 H   0  0  0  0  0  0  0  0  0  0  0  0
    1.4321    2.2443    1.2508 H   0  0  0  0  0  0  0  0  0  0  0  0
   -0.9473    3.8359    0.3796 H   0  0  0  0  0  0  0  0  0  0  0  0
    0.0493    4.2341    1.8098 H   0  0  0  0  0  0  0  0  0  0  0  0
   -0.5430    1.9633    2.8072 H   0  0  0  0  0  0  0  0  0  0  0  0
   -1.9301    3.0798    2.6111 H   0  0  0  0  0  0  0  0  0  0  0  0
   -2.4567    1.8440    0.5547 H   0  0  0  0  0  0  0  0  0  0  0  0
   -3.2188    0.9280    2.8083 H   0  0  0  0  0  0  0  0  0  0  0  0
   -1.8218   -0.1863    2.5988 H   0  0  0  0  0  0  0  0  0  0  0  0
   -5.2473    0.6363    1.6230 H   0  0  0  0  0  0  0  0  0  0  0  0
   -6.6931   -0.7244    0.0906 H   0  0  0  0  0  0  0  0  0  0  0  0
   -5.6596   -2.5858   -1.2466 H   0  0  0  0  0  0  0  0  0  0  0  0
   -3.2373   -3.0722   -1.0550 H   0  0  0  0  0  0  0  0  0  0  0  0
   -1.3684   -3.7665    0.3076 H   0  0  0  0  0  0  0  0  0  0  0  0
   -1.0727   -2.7566   -1.1706 H   0  0  0  0  0  0  0  0  0  0  0  0
  1 26  1  0  0  0  0
  2  3  1  0  0  0  0
  2  1  1  0  0  0  0
  3  4  1  0  0  0  0
  4  5  2  0  0  0  0
  4 28  1  0  0  0  0
  5 29  1  0  0  0  0
  6 30  1  0  0  0  0
  6  5  1  0  0  0  0
  7  6  2  0  0  0  0
  8  7  1  0  0  0  0
  8  3  2  0  0  0  0
  9 10  1  0  0  0  0
  9  8  1  0  0  0  0
 10 11  1  0  0  0  0
 11 35  1  0  0  0  0
 11 12  1  0  0  0  0
 12 37  1  0  0  0  0
 12 13  1  0  0  0  0
 13 14  1  0  0  0  0
 13 39  1  0  0  0  0
 14 41  1  0  0  0  0
 14 15  1  0  0  0  0
 15 43  1  0  0  0  0
 15 42  1  0  0  0  0
 16 15  1  0  0  0  0
 16 17  1  0  0  0  0
 17 46  1  0  0  0  0
 17 45  1  0  0  0  0
 18 17  1  0  0  0  0
 19 18  1  0  0  0  0
 19 47  1  0  0  0  0
 20 19  2  0  0  0  0
 21 22  2  0  0  0  0
 21 20  1  0  0  0  0
 22 23  1  0  0  0  0
 23 24  1  0  0  0  0
 23 18  2  0  0  0  0
 25  1  1  0  0  0  0
 25 51  1  0  0  0  0
 25 24  1  0  0  0  0
 27  1  1  0  0  0  0
 31  7  1  0  0  0  0
 32  9  1  0  0  0  0
 33  9  1  0  0  0  0
 34 10  1  0  0  0  0
 36 11  1  0  0  0  0
 38 12  1  0  0  0  0
 40 14  1  0  0  0  0
 44 16  1  0  0  0  0
 48 20  1  0  0  0  0
 49 21  1  0  0  0  0
 50 22  1  0  0  0  0
 52 25  1  0  0  0  0
M  END
