1,2,4
q = -1.0

 29 31  0  0  0  0  0  0  0  0999 V2000
   -1.1411    2.0823   -0.8278 N   0  0  0  0  0  2  0  0  0  0  0  0
    0.8119    0.6884   -1.6990 N   0  0  0  0  0  2  0  0  0  0  0  0
    1.8228   -0.1359   -1.9064 N   0  0  0  0  0  2  0  0  0  0  0  0
    1.3160   -0.6103    0.3353 N   0  0  0  0  0  2  0  0  0  0  0  0
    1.4725   -1.2371    1.4893 N   0  0  0  0  0  2  0  0  0  0  0  0
   -2.1625    2.7558   -0.2734 C   0  0  0  0  0  3  0  0  0  0  0  0
   -2.3809    2.5334    0.7818 H   0  0  0  0  0  0  0  0  0  0  0  0
   -2.9178    3.6864   -0.9977 C   0  0  0  0  0  0  0  0  0  0  0  0
   -3.7462    4.2150   -0.5069 H   0  0  0  0  0  0  0  0  0  0  0  0
   -2.5926    3.9160   -2.3457 C   0  0  0  0  0  0  0  0  0  0  0  0
   -3.1679    4.6400   -2.9414 H   0  0  0  0  0  0  0  0  0  0  0  0
   -1.5329    3.2145   -2.9270 C   0  0  0  0  0  0  0  0  0  0  0  0
   -1.2548    3.3672   -3.9792 H   0  0  0  0  0  0  0  0  0  0  0  0
   -0.8076    2.2875   -2.1481 C   0  0  0  0  0  0  0  0  0  0  0  0
    0.2977    1.4927   -2.6162 C   0  0  0  0  0  3  0  0  0  0  0  0
    0.6871    1.5128   -3.6448 H   0  0  0  0  0  0  0  0  0  0  0  0
    2.0774   -0.8457   -0.7833 C   0  0  0  0  0  0  0  0  0  0  0  0
    3.1204   -1.8375   -0.7197 C   0  0  0  0  0  0  0  0  0  0  0  0
    3.9508   -2.1488   -1.8235 C   0  0  0  0  0  0  0  0  0  0  0  0
    3.7961   -1.6145   -2.7711 H   0  0  0  0  0  0  0  0  0  0  0  0
    4.9364   -3.1214   -1.6828 C   0  0  0  0  0  0  0  0  0  0  0  0
    5.5853   -3.3700   -2.5356 H   0  0  0  0  0  0  0  0  0  0  0  0
    5.1128   -3.7986   -0.4492 C   0  0  0  0  0  0  0  0  0  0  0  0
    5.8974   -4.5645   -0.3587 H   0  0  0  0  0  0  0  0  0  0  0  0
    4.3034   -3.5043    0.6437 C   0  0  0  0  0  0  0  0  0  0  0  0
    4.4375   -4.0294    1.6013 H   0  0  0  0  0  0  0  0  0  0  0  0
    3.2912   -2.5171    0.5274 C   0  0  0  0  0  0  0  0  0  0  0  0
    2.4147   -2.1555    1.6023 C   0  0  0  0  0  0  0  0  0  0  0  0
    2.4953   -2.6427    2.5871 H   0  0  0  0  0  0  0  0  0  0  0  0
  1  6  1  0  0  0  0
  3  2  1  0  0  0  0
  3 17  1  0  0  0  0
  4  5  1  0  0  0  0
  5 28  1  0  0  0  0
  6  7  1  0  0  0  0
  8  9  1  0  0  0  0
  8  6  1  0  0  0  0
 10  8  2  0  0  0  0
 11 10  1  0  0  0  0
 12 10  1  0  0  0  0
 12 14  2  0  0  0  0
 13 12  1  0  0  0  0
 14  1  1  0  0  0  0
 15 14  1  0  0  0  0
 15  2  1  0  0  0  0
 16 15  1  0  0  0  0
 17 18  2  0  0  0  0
 17  4  1  0  0  0  0
 18 27  1  0  0  0  0
 19 21  2  0  0  0  0
 19 18  1  0  0  0  0
 20 19  1  0  0  0  0
 21 23  1  0  0  0  0
 22 21  1  0  0  0  0
 23 24  1  0  0  0  0
 23 25  2  0  0  0  0
 25 26  1  0  0  0  0
 27 25  1  0  0  0  0
 27 28  2  0  0  0  0
 28 29  1  0  0  0  0
M  END
