1,2,3
q = 0.0, confidence = 0.98

 70 76  0  0  1  0  0  0  0  0999 V2000
    5.0616    2.3363   -0.4028 N   0  0  0  0  0  2  0  0  0  0  0  0
    4.1448   -0.1017   -0.3943 N   0  0  0  0  0  2  0  0  0  0  0  0
    6.1968   -1.6636   -0.0293 N   0  0  0  0  0  2  0  0  0  0  0  0
    3.7234    2.2332   -0.5508 C   0  0  0  0  0  0  0  0  0  0  0  0
    2.9284    3.3721   -0.7729 C   0  0  0  0  0  0  0  0  0  0  0  0
    1.8407    3.2837   -0.9020 H   0  0  0  0  0  0  0  0  0  0  0  0
    3.5516    4.6262   -0.8385 C   0  0  0  0  0  0  0  0  0  0  0  0
    2.9509    5.5320   -1.0103 H   0  0  0  0  0  0  0  0  0  0  0  0
    4.9437    4.7117   -0.6896 C   0  0  0  0  0  0  0  0  0  0  0  0
    5.4661    5.6778   -0.7404 H   0  0  0  0  0  0  0  0  0  0  0  0
    5.6656    3.5276   -0.4736 C   0  0  0  0  0  0  0  0  0  0  0  0
    6.7637    3.4985   -0.3570 H   0  0  0  0  0  0  0  0  0  0  0  0
    3.1942    0.8413   -0.4699 C   0  0  0  0  0  0  0  0  0  0  0  0
    1.8331    0.4968   -0.4630 C   0  0  0  0  0  0  0  0  0  0  0  0
    1.0571    1.2691   -0.5493 H   0  0  0  0  0  0  0  0  0  0  0  0
    1.4584   -0.8616   -0.3581 C   0  0  0  0  0  0  0  0  0  0  0  0
    2.4910   -1.8210   -0.2583 C   0  0  0  0  0  0  0  0  0  0  0  0
    2.2371   -2.8812   -0.1255 H   0  0  0  0  0  0  0  0  0  0  0  0
    3.8307   -1.4000   -0.2733 C   0  0  0  0  0  0  0  0  0  0  0  0
    5.0112   -2.3008   -0.1379 C   0  0  1  0  0  3  0  0  0  0  0  0
    4.9393   -3.7056   -0.1317 C   0  0  0  0  0  0  0  0  0  0  0  0
    3.9736   -4.2209   -0.2291 H   0  0  0  0  0  0  0  0  0  0  0  0
    6.1270   -4.4403   -0.0097 C   0  0  0  0  0  0  0  0  0  0  0  0
    6.0962   -5.5402   -0.0002 H   0  0  0  0  0  0  0  0  0  0  0  0
    7.3494   -3.7602    0.0932 C   0  0  0  0  0  0  0  0  0  0  0  0
    8.3005   -4.3041    0.1848 H   0  0  0  0  0  0  0  0  0  0  0  0
    7.3360   -2.3569    0.0757 C   0  0  0  0  0  0  0  0  0  0  0  0
    8.2503   -1.7403    0.1388 H   0  0  0  0  0  0  0  0  0  0  0  0
    0.0333   -1.2632   -0.3406 C   0  0  0  0  0  0  0  0  0  0  0  0
   -0.3873   -2.4778   -0.9300 C   0  0  0  0  0  0  0  0  0  0  0  0
    0.3489   -3.1230   -1.4329 H   0  0  0  0  0  0  0  0  0  0  0  0
   -1.7336   -2.8541   -0.9131 C   0  0  0  0  0  0  0  0  0  0  0  0
   -2.0378   -3.8017   -1.3862 H   0  0  0  0  0  0  0  0  0  0  0  0
   -2.7048   -2.0331   -0.3069 C   0  0  0  0  0  0  0  0  0  0  0  0
   -2.2931   -0.8275    0.2901 C   0  0  0  0  0  0  0  0  0  0  0  0
   -3.0437   -0.1975    0.7864 H   0  0  0  0  0  0  0  0  0  0  0  0
   -0.9458   -0.4487    0.2699 C   0  0  0  0  0  0  0  0  0  0  0  0
   -0.6426    0.4829    0.7717 H   0  0  0  0  0  0  0  0  0  0  0  0
   -4.1594   -2.4297   -0.3413 C   0  0  0  0  0  0  0  0  0  0  0  0
   -4.5446   -2.2648   -1.3739 H   0  0  0  0  0  0  0  0  0  0  0  0
   -4.2607   -3.5162   -0.1002 H   0  0  0  0  0  0  0  0  0  0  0  0
   -4.8902   -1.6407    0.5767 O   0  0  0  0  0  0  0  0  0  0  0  0
   -6.2795   -1.5980    0.4172 C   0  0  0  0  0  0  0  0  0  0  0  0
   -6.7738   -1.9212    1.3573 H   0  0  0  0  0  0  0  0  0  0  0  0
   -6.6572   -2.2228   -0.4169 H   0  0  0  0  0  0  0  0  0  0  0  0
   -6.7658   -0.1335    0.1826 C   0  0  0  0  0  0  0  0  0  0  0  0
   -6.5530    0.3126   -1.1928 N   0  0  0  0  0  0  0  0  0  0  0  0
   -5.4948   -0.1326   -1.9029 N   0  0  0  0  0  0  0  0  0  0  0  0
   -8.1955   -0.0544    0.4632 N   0  0  0  0  0  0  0  0  0  0  0  0
   -8.9996   -0.9665   -0.1255 N   0  0  0  0  0  0  0  0  0  0  0  0
   -6.0472    0.7678    1.0827 N   0  0  0  0  0  0  0  0  0  0  0  0
   -6.1044    0.5373    2.4128 N   0  0  0  0  0  0  0  0  0  0  0  0
   -5.5398    0.5537   -3.0502 C   0  0  0  0  0  0  0  0  0  0  0  0
   -4.7840    0.3646   -3.8232 H   0  0  0  0  0  0  0  0  0  0  0  0
   -6.6350    1.4591   -3.0780 C   0  0  0  0  0  0  0  0  0  0  0  0
   -6.9359    2.1366   -3.8835 H   0  0  0  0  0  0  0  0  0  0  0  0
   -7.2699    1.2776   -1.8561 C   0  0  0  0  0  0  0  0  0  0  0  0
   -8.1640    1.7329   -1.4178 H   0  0  0  0  0  0  0  0  0  0  0  0
  -10.2376   -0.5963    0.2203 C   0  0  0  0  0  0  0  0  0  0  0  0
  -11.0960   -1.1864   -0.1254 H   0  0  0  0  0  0  0  0  0  0  0  0
  -10.2309    0.5702    1.0325 C   0  0  0  0  0  0  0  0  0  0  0  0
  -11.0840    1.0949    1.4745 H   0  0  0  0  0  0  0  0  0  0  0  0
   -8.8872    0.8980    1.1698 C   0  0  0  0  0  0  0  0  0  0  0  0
   -8.3754    1.6877    1.7268 H   0  0  0  0  0  0  0  0  0  0  0  0
   -5.2314    1.4015    2.9420 C   0  0  0  0  0  0  0  0  0  0  0  0
   -5.0927    1.4329    4.0304 H   0  0  0  0  0  0  0  0  0  0  0  0
   -4.5902    2.1824    1.9420 C   0  0  0  0  0  0  0  0  0  0  0  0
   -3.8353    2.9647    2.0713 H   0  0  0  0  0  0  0  0  0  0  0  0
   -5.1361    1.7369    0.7440 C   0  0  0  0  0  0  0  0  0  0  0  0
   -4.9450    2.0165   -0.2963 H   0  0  0  0  0  0  0  0  0  0  0  0
  2 19  1  0  0  0  0
  3 27  1  0  0  0  0
  4 13  2  0  0  0  0
  4  1  1  0  0  0  0
  5  4  1  0  0  0  0
  6  5  1  0  0  0  0
  7  5  2  0  0  0  0
  7  9  1  0  0  0  0
  8  7  1  0  0  0  0
  9 11  2  0  0  0  0
 10  9  1  0  0  0  0
 11  1  1  0  0  0  0
 11 12  1  0  0  0  0
 13 14  1  0  0  0  0
 13  2  1  0  0  0  0
 14 16  2  0  0  0  0
 15 14  1  0  0  0  0
 16 29  1  0  0  0  0
 16 17  1  0  0  0  0
 17 18  1  0  0  0  0
 19 17  2  0  0  0  0
 20 19  1  6  0  0  0
 20 21  1  0  0  0  0
 20  3  1  0  0  0  0
 21 23  2  0  0  0  0
 22 21  1  0  0  0  0
 23 24  1  0  0  0  0
 23 25  1  0  0  0  0
 25 26  1  0  0  0  0
 27 25  2  0  0  0  0
 27 28  1  0  0  0  0
 29 37  1  0  0  0  0
 30 32  1  0  0  0  0
 30 29  2  0  0  0  0
 31 30  1  0  0  0  0
 32 34  2  0  0  0  0
 33 32  1  0  0  0  0
 34 35  1  0  0  0  0
 35 36  1  0  0  0  0
 37 35  2  0  0  0  0
 37 38  1  0  0  0  0
 39 34  1  0  0  0  0
 39 41  1  0  0  0  0
 39 42  1  0  0  0  0
 40 39  1  0  0  0  0
 43 42  1  0  0  0  0
 43 44  1  0  0  0  0
 45 43  1  0  0  0  0
 46 43  1  0  0  0  0
 46 49  1  0  0  0  0
 46 51  1  0  0  0  0
 47 46  1  0  0  0  0
 48 47  1  0  0  0  0
 49 63  1  0  0  0  0
 50 59  2  0  0  0  0
 50 49  1  0  0  0  0
 51 52  1  0  0  0  0
 52 65  2  0  0  0  0
 53 48  2  0  0  0  0
 54 53  1  0  0  0  0
 55 53  1  0  0  0  0
 55 57  2  0  0  0  0
 56 55  1  0  0  0  0
 57 58  1  0  0  0  0
 57 47  1  0  0  0  0
 59 61  1  0  0  0  0
 60 59  1  0  0  0  0
 61 63  2  0  0  0  0
 61 62  1  0  0  0  0
 63 64  1  0  0  0  0
 65 66  1  0  0  0  0
 67 68  1  0  0  0  0
 67 65  1  0  0  0  0
 69 51  1  0  0  0  0
 69 67  2  0  0  0  0
 70 69  1  0  0  0  0
M  END
