1,2,3
q = -1.0, confidence = 0.0

 37 39  0  0  0  0  0  0  0  0999 V2000
    2.2435   -1.2303   -0.0647 N   0  0  0  0  0  2  0  0  0  0  0  0
    1.2287    1.2266    0.1542 N   0  0  0  0  0  2  0  0  0  0  0  0
   -1.5026    0.3257    0.0271 N   0  0  0  0  0  2  0  0  0  0  0  0
    2.6279   -2.5201   -0.2117 C   0  0  0  0  0  3  0  0  0  0  0  0
    1.7959   -3.2244   -0.3837 H   0  0  0  0  0  0  0  0  0  0  0  0
    3.9707   -2.8958   -0.1476 C   0  0  0  0  0  0  0  0  0  0  0  0
    4.2422   -3.9535   -0.2726 H   0  0  0  0  0  0  0  0  0  0  0  0
    4.9454   -1.9109    0.0777 C   0  0  0  0  0  0  0  0  0  0  0  0
    6.0115   -2.1767    0.1352 H   0  0  0  0  0  0  0  0  0  0  0  0
    4.5387   -0.5806    0.2270 C   0  0  0  0  0  0  0  0  0  0  0  0
    5.2699    0.2221    0.4023 H   0  0  0  0  0  0  0  0  0  0  0  0
    3.1731   -0.2649    0.1485 C   0  0  0  0  0  0  0  0  0  0  0  0
    2.6681    1.1431    0.2841 C   0  0  0  0  0  0  0  0  0  0  0  0
    3.1785    1.7638   -0.4915 H   0  0  0  0  0  0  0  0  0  0  0  0
    3.0133    1.5524    1.2654 H   0  0  0  0  0  0  0  0  0  0  0  0
    0.6455    2.4321    0.0898 C   0  0  0  0  0  0  0  0  0  0  0  0
    1.3970    3.6584    0.1576 C   0  0  0  0  0  0  0  0  0  0  0  0
    2.4848    3.6162    0.2942 H   0  0  0  0  0  0  0  0  0  0  0  0
    0.7916    4.9008    0.0470 C   0  0  0  0  0  0  0  0  0  0  0  0
    1.4198    5.8042    0.0956 H   0  0  0  0  0  0  0  0  0  0  0  0
   -0.6113    5.0283   -0.1208 C   0  0  0  0  0  0  0  0  0  0  0  0
   -1.0780    6.0197   -0.2054 H   0  0  0  0  0  0  0  0  0  0  0  0
   -1.3775    3.8777   -0.1567 C   0  0  0  0  0  3  0  0  0  0  0  0
   -2.4715    3.9122   -0.2587 H   0  0  0  0  0  0  0  0  0  0  0  0
   -0.8033    2.5718   -0.0537 C   0  0  0  0  0  0  0  0  0  0  0  0
   -1.7327    1.5805   -0.0439 N   0  0  0  0  0  0  0  0  0  0  0  0
   -2.7123   -0.4525    0.1066 C   0  0  0  0  0  0  0  0  0  0  0  0
   -3.7804   -0.1699   -0.7634 C   0  0  0  0  0  0  0  0  0  0  0  0
   -3.6584    0.6213   -1.5160 H   0  0  0  0  0  0  0  0  0  0  0  0
   -4.9699   -0.9024   -0.6601 C   0  0  0  0  0  0  0  0  0  0  0  0
   -5.7994   -0.6923   -1.3522 H   0  0  0  0  0  0  0  0  0  0  0  0
   -5.1026   -1.8999    0.3196 C   0  0  0  0  0  0  0  0  0  0  0  0
   -6.0388   -2.4726    0.4008 H   0  0  0  0  0  0  0  0  0  0  0  0
   -4.0361   -2.1658    1.1939 C   0  0  0  0  0  0  0  0  0  0  0  0
   -4.1353   -2.9429    1.9665 H   0  0  0  0  0  0  0  0  0  0  0  0
   -2.8355   -1.4532    1.0854 C   0  0  0  0  0  0  0  0  0  0  0  0
   -1.9894   -1.6602    1.7536 H   0  0  0  0  0  0  0  0  0  0  0  0
  1 12  1  0  0  0  0
  2 13  1  0  0  0  0
  3 27  1  0  0  0  0
  4  6  1  0  0  0  0
  4  1  1  0  0  0  0
  5  4  1  0  0  0  0
  6  8  2  0  0  0  0
  7  6  1  0  0  0  0
  8  9  1  0  0  0  0
  8 10  1  0  0  0  0
 10 11  1  0  0  0  0
 12 10  2  0  0  0  0
 12 13  1  0  0  0  0
 13 15  1  0  0  0  0
 14 13  1  0  0  0  0
 16  2  1  0  0  0  0
 16 17  2  0  0  0  0
 17 18  1  0  0  0  0
 19 20  1  0  0  0  0
 19 17  1  0  0  0  0
 21 19  2  0  0  0  0
 22 21  1  0  0  0  0
 23 21  1  0  0  0  0
 23 25  1  0  0  0  0
 24 23  1  0  0  0  0
 25 26  2  0  0  0  0
 25 16  1  0  0  0  0
 26  3  1  0  0  0  0
 27 36  1  0  0  0  0
 28 30  1  0  0  0  0
 28 27  2  0  0  0  0
 29 28  1  0  0  0  0
 30 32  2  0  0  0  0
 31 30  1  0  0  0  0
 32 33  1  0  0  0  0
 32 34  1  0  0  0  0
 34 35  1  0  0  0  0
 36 34  2  0  0  0  0
 36 37  1  0  0  0  0
M  END
