4,12,20
q = -1.0

 26 28  0  0  0  0  0  0  0  0999 V2000
    3.9648   -3.0538    0.7618 Cl  0  0  0  0  0  0  0  0  0  0  0  0
    2.4165   -2.1457    0.3278 B   0  0  0  0  0  0  0  0  0  0  0  0
    1.6714   -1.7376    1.6324 N   0  0  0  0  0  0  0  0  0  0  0  0
    0.4850   -1.0857    1.5525 N   0  0  0  0  0  2  0  0  0  0  0  0
    0.0049   -0.9655    2.8069 C   0  0  0  0  0  3  0  0  0  0  0  0
   -0.9594   -0.4724    2.9694 H   0  0  0  0  0  0  0  0  0  0  0  0
    0.9017   -1.5533    3.7202 C   0  0  0  0  0  0  0  0  0  0  0  0
    0.8041   -1.6204    4.8078 H   0  0  0  0  0  0  0  0  0  0  0  0
    1.9497   -2.0331    2.9324 C   0  0  0  0  0  0  0  0  0  0  0  0
    2.8715   -2.5651    3.1859 H   0  0  0  0  0  0  0  0  0  0  0  0
    1.4678   -3.0554   -0.5012 N   0  0  0  0  0  0  0  0  0  0  0  0
    0.2732   -2.5491   -0.8996 N   0  0  0  0  0  2  0  0  0  0  0  0
   -0.3147   -3.4734   -1.6774 C   0  0  0  0  0  3  0  0  0  0  0  0
   -1.2880   -3.2528   -2.1307 H   0  0  0  0  0  0  0  0  0  0  0  0
    0.5160   -4.6106   -1.7845 C   0  0  0  0  0  0  0  0  0  0  0  0
    0.3280   -5.5303   -2.3469 H   0  0  0  0  0  0  0  0  0  0  0  0
    1.6437   -4.3009   -1.0221 C   0  0  0  0  0  0  0  0  0  0  0  0
    2.5600   -4.8613   -0.8114 H   0  0  0  0  0  0  0  0  0  0  0  0
    2.7392   -0.8974   -0.5267 N   0  0  0  0  0  0  0  0  0  0  0  0
    1.7085   -0.1345   -0.9882 N   0  0  0  0  0  2  0  0  0  0  0  0
    2.1945    0.6190   -1.9846 C   0  0  0  0  0  3  0  0  0  0  0  0
    1.5151    1.2726   -2.5383 H   0  0  0  0  0  0  0  0  0  0  0  0
    3.5720    0.3674   -2.1638 C   0  0  0  0  0  0  0  0  0  0  0  0
    4.2511    0.8299   -2.8868 H   0  0  0  0  0  0  0  0  0  0  0  0
    3.8784   -0.6111   -1.2192 C   0  0  0  0  0  0  0  0  0  0  0  0
    4.8087   -1.1408   -0.9922 H   0  0  0  0  0  0  0  0  0  0  0  0
  2  1  1  0  0  0  0
  2  3  1  0  0  0  0
  3  9  1  0  0  0  0
  4  3  1  0  0  0  0
  4  5  1  0  0  0  0
  5  6  1  0  0  0  0
  5  7  1  0  0  0  0
  7  8  1  0  0  0  0
  9 10  1  0  0  0  0
  9  7  2  0  0  0  0
 11  2  1  0  0  0  0
 12 11  1  0  0  0  0
 13 12  1  0  0  0  0
 14 13  1  0  0  0  0
 15 13  1  0  0  0  0
 15 17  2  0  0  0  0
 16 15  1  0  0  0  0
 17 18  1  0  0  0  0
 17 11  1  0  0  0  0
 19  2  1  0  0  0  0
 20 19  1  0  0  0  0
 21 20  1  0  0  0  0
 22 21  1  0  0  0  0
 23 21  1  0  0  0  0
 23 25  2  0  0  0  0
 24 23  1  0  0  0  0
 25 26  1  0  0  0  0
 25 19  1  0  0  0  0
M  END
