1,2,3
q = 0.0, confidence = 0.96

 43 45  0  0  1  0  0  0  0  0999 V2000
    1.2215   -1.0478   -1.3451 N   0  0  0  0  0  2  0  0  0  0  0  0
    2.8395   -0.2844    0.8249 N   0  0  0  0  0  2  0  0  0  0  0  0
    0.6996    1.8819   -0.4631 N   0  0  0  0  0  2  0  0  0  0  0  0
    0.7079   -1.9979    1.1397 O   0  0  0  0  0  0  0  0  0  0  0  0
    3.6469    2.7705    0.4655 O   0  0  0  0  0  0  0  0  0  0  0  0
    1.7076   -0.5202   -2.5002 C   0  0  0  0  0  3  0  0  0  0  0  0
    1.6827    0.5755   -2.5784 H   0  0  0  0  0  0  0  0  0  0  0  0
    2.2024   -1.3013   -3.5458 C   0  0  0  0  0  0  0  0  0  0  0  0
    2.5696   -0.8083   -4.4570 H   0  0  0  0  0  0  0  0  0  0  0  0
    2.2316   -2.6969   -3.4062 C   0  0  0  0  0  0  0  0  0  0  0  0
    2.6217   -3.3404   -4.2076 H   0  0  0  0  0  0  0  0  0  0  0  0
    1.7647   -3.2484   -2.2057 C   0  0  0  0  0  0  0  0  0  0  0  0
    1.7802   -4.3356   -2.0397 H   0  0  0  0  0  0  0  0  0  0  0  0
    1.2624   -2.4102   -1.2042 C   0  0  0  0  0  0  0  0  0  0  0  0
    0.6723   -2.9621    0.0656 C   0  0  0  0  0  0  0  0  0  0  0  0
   -0.4072   -3.1763   -0.0918 H   0  0  0  0  0  0  0  0  0  0  0  0
    1.1734   -3.9005    0.3775 H   0  0  0  0  0  0  0  0  0  0  0  0
    1.7790   -2.0674    2.1040 C   0  0  0  0  0  0  0  0  0  0  0  0
    1.9577   -3.1210    2.3997 H   0  0  0  0  0  0  0  0  0  0  0  0
    1.3853   -1.4931    2.9705 H   0  0  0  0  0  0  0  0  0  0  0  0
    3.0222   -1.4051    1.5836 C   0  0  2  0  0  3  0  0  0  0  0  0
    4.2873   -1.9073    1.9114 C   0  0  0  0  0  0  0  0  0  0  0  0
    4.3676   -2.8222    2.5160 H   0  0  0  0  0  0  0  0  0  0  0  0
    5.4276   -1.2278    1.4690 C   0  0  0  0  0  0  0  0  0  0  0  0
    6.4353   -1.5922    1.7160 H   0  0  0  0  0  0  0  0  0  0  0  0
    5.2456   -0.0775    0.6985 C   0  0  0  0  0  0  0  0  0  0  0  0
    6.1068    0.4978    0.3301 H   0  0  0  0  0  0  0  0  0  0  0  0
    3.9500    0.3673    0.3778 C   0  0  0  0  0  0  0  0  0  0  0  0
    3.8029    1.6566   -0.3971 C   0  0  0  0  0  0  0  0  0  0  0  0
    4.7312    1.8454   -0.9687 H   0  0  0  0  0  0  0  0  0  0  0  0
    2.9658    1.5726   -1.1231 H   0  0  0  0  0  0  0  0  0  0  0  0
    2.3851    2.8013    1.1481 C   0  0  0  0  0  0  0  0  0  0  0  0
    2.4283    3.6872    1.8080 H   0  0  0  0  0  0  0  0  0  0  0  0
    2.2190    1.9091    1.7805 H   0  0  0  0  0  0  0  0  0  0  0  0
    1.2947    2.9770    0.1180 C   0  0  1  0  0  3  0  0  0  0  0  0
    1.0871    4.2716   -0.3926 C   0  0  0  0  0  0  0  0  0  0  0  0
    1.5804    5.1100    0.1196 H   0  0  0  0  0  0  0  0  0  0  0  0
    0.3100    4.4879   -1.5323 C   0  0  0  0  0  0  0  0  0  0  0  0
    0.1400    5.5020   -1.9216 H   0  0  0  0  0  0  0  0  0  0  0  0
   -0.2234    3.3614   -2.1722 C   0  0  0  0  0  0  0  0  0  0  0  0
   -0.8292    3.4401   -3.0851 H   0  0  0  0  0  0  0  0  0  0  0  0
   -0.0145    2.1070   -1.6070 C   0  0  0  0  0  0  0  0  0  0  0  0
   -0.4548    1.2188   -2.0712 H   0  0  0  0  0  0  0  0  0  0  0  0
  1 14  1  0  0  0  0
  2 21  1  0  0  0  0
  3 35  1  0  0  0  0
  4 18  1  0  0  0  0
  5 32  1  0  0  0  0
  6  1  1  0  0  0  0
  7  6  1  0  0  0  0
  8 10  2  0  0  0  0
  8  6  1  0  0  0  0
  9  8  1  0  0  0  0
 10 12  1  0  0  0  0
 11 10  1  0  0  0  0
 12 13  1  0  0  0  0
 12 14  2  0  0  0  0
 14 15  1  0  0  0  0
 15 17  1  0  0  0  0
 15  4  1  0  0  0  0
 16 15  1  0  0  0  0
 18 19  1  0  0  0  0
 18 20  1  0  0  0  0
 21 22  1  0  0  0  0
 21 18  1  1  0  0  0
 22 23  1  0  0  0  0
 24 25  1  0  0  0  0
 24 22  2  0  0  0  0
 26 24  1  0  0  0  0
 27 26  1  0  0  0  0
 28 26  2  0  0  0  0
 28  2  1  0  0  0  0
 29 28  1  0  0  0  0
 29  5  1  0  0  0  0
 30 29  1  0  0  0  0
 31 29  1  0  0  0  0
 32 34  1  0  0  0  0
 32 33  1  0  0  0  0
 35 32  1  6  0  0  0
 36 35  1  0  0  0  0
 36 37  1  0  0  0  0
 38 36  2  0  0  0  0
 39 38  1  0  0  0  0
 40 42  2  0  0  0  0
 40 38  1  0  0  0  0
 41 40  1  0  0  0  0
 42  3  1  0  0  0  0
 43 42  1  0  0  0  0
M  END
