2,3,4
q = -1.0, confidence = 0.0

 29 31  0  0  0  0  0  0  0  0999 V2000
   -2.8247    1.2306   -2.9589 O   0  0  0  0  0  0  0  0  0  0  0  0
    0.4231    1.7170   -1.5282 N   0  0  0  0  0  2  0  0  0  0  0  0
   -1.7669    0.2180   -1.1178 N   0  0  0  0  0  2  0  0  0  0  0  0
   -1.2196   -1.3081    1.0201 N   0  0  0  0  0  2  0  0  0  0  0  0
    1.5475    2.4319   -1.6846 C   0  0  0  0  0  3  0  0  0  0  0  0
    2.3498    2.2366   -0.9529 H   0  0  0  0  0  0  0  0  0  0  0  0
    1.6974    3.3708   -2.7151 C   0  0  0  0  0  0  0  0  0  0  0  0
    2.6340    3.9383   -2.8129 H   0  0  0  0  0  0  0  0  0  0  0  0
    0.6287    3.5615   -3.6068 C   0  0  0  0  0  0  0  0  0  0  0  0
    0.7119    4.2908   -4.4274 H   0  0  0  0  0  0  0  0  0  0  0  0
   -0.5422    2.8127   -3.4389 C   0  0  0  0  0  0  0  0  0  0  0  0
   -1.4196    2.9050   -4.0942 H   0  0  0  0  0  0  0  0  0  0  0  0
   -0.6092    1.8910   -2.3796 C   0  0  0  0  0  0  0  0  0  0  0  0
   -1.8720    1.0627   -2.1772 C   0  0  0  0  0  0  0  0  0  0  0  0
   -2.7618   -0.6435   -0.7130 C   0  0  0  0  0  0  0  0  0  0  0  0
   -4.0329   -0.8097   -1.2975 C   0  0  0  0  0  0  0  0  0  0  0  0
   -4.2758   -0.1938   -2.1719 H   0  0  0  0  0  0  0  0  0  0  0  0
   -4.9600   -1.7405   -0.7717 C   0  0  0  0  0  0  0  0  0  0  0  0
   -5.9415   -1.8360   -1.2622 H   0  0  0  0  0  0  0  0  0  0  0  0
   -4.6701   -2.5306    0.3350 C   0  0  0  0  0  3  0  0  0  0  0  0
   -5.4015   -3.2506    0.7318 H   0  0  0  0  0  0  0  0  0  0  0  0
   -3.4011   -2.4048    0.9662 C   0  0  0  0  0  0  0  0  0  0  0  0
   -3.0039   -3.1652    2.1028 C   0  0  0  0  0  0  0  0  0  0  0  0
   -3.7095   -3.8967    2.5278 H   0  0  0  0  0  0  0  0  0  0  0  0
   -1.7467   -2.9838    2.6620 C   0  0  0  0  0  0  0  0  0  0  0  0
   -1.4205   -3.5611    3.5391 H   0  0  0  0  0  0  0  0  0  0  0  0
   -0.8750   -2.0309    2.0800 C   0  0  0  0  0  0  0  0  0  0  0  0
    0.1344   -1.8490    2.4875 H   0  0  0  0  0  0  0  0  0  0  0  0
   -2.4460   -1.4627    0.4461 C   0  0  0  0  0  0  0  0  0  0  0  0
  1 14  2  0  0  0  0
  3 15  1  0  0  0  0
  4 27  1  0  0  0  0
  5  2  1  0  0  0  0
  5  6  1  0  0  0  0
  7  5  1  0  0  0  0
  8  7  1  0  0  0  0
  9 11  1  0  0  0  0
  9  7  2  0  0  0  0
 10  9  1  0  0  0  0
 11 13  2  0  0  0  0
 12 11  1  0  0  0  0
 13 14  1  0  0  0  0
 13  2  1  0  0  0  0
 14  3  1  0  0  0  0
 15 29  2  0  0  0  0
 16 18  2  0  0  0  0
 16 15  1  0  0  0  0
 17 16  1  0  0  0  0
 18 20  1  0  0  0  0
 19 18  1  0  0  0  0
 20 21  1  0  0  0  0
 20 22  1  0  0  0  0
 22 23  2  0  0  0  0
 23 24  1  0  0  0  0
 23 25  1  0  0  0  0
 25 26  1  0  0  0  0
 27 28  1  0  0  0  0
 27 25  2  0  0  0  0
 29 22  1  0  0  0  0
 29  4  1  0  0  0  0
M  END
