2,3,4
q = 0.0, confidence = 0.978

 39 42  0  0  1  0  0  0  0  0999 V2000
    9.4195   -0.0380    0.5825 Cl  0  0  0  0  0  0  0  0  0  0  0  0
    0.6236    0.0148   -0.2658 N   0  0  0  0  0  2  0  0  0  0  0  0
   -0.9419   -1.9897   -0.6463 N   0  0  0  0  0  2  0  0  0  0  0  0
   -0.9443    2.0469   -0.4300 N   0  0  0  0  0  2  0  0  0  0  0  0
    2.6831    1.2164   -0.0360 C   0  0  0  0  0  0  0  0  0  0  0  0
    3.2126    2.1726    0.0674 H   0  0  0  0  0  0  0  0  0  0  0  0
    0.3889   -2.3229   -0.4917 C   0  0  0  0  0  0  0  0  0  0  0  0
    1.2908   -1.1782   -0.2911 C   0  0  0  0  0  0  0  0  0  0  0  0
    4.8828   -0.0056    0.1328 C   0  0  0  0  0  0  0  0  0  0  0  0
    1.2904    1.2047   -0.1739 C   0  0  0  0  0  0  0  0  0  0  0  0
   -1.8475   -2.9735   -0.8419 C   0  0  0  0  0  0  0  0  0  0  0  0
   -2.8890   -2.6466   -0.9738 H   0  0  0  0  0  0  0  0  0  0  0  0
    3.4121    0.0029   -0.0131 C   0  0  0  0  0  0  0  0  0  0  0  0
    0.3864    2.3632   -0.2422 C   0  0  1  0  0  3  0  0  0  0  0  0
   -1.8518    3.0447   -0.5136 C   0  0  0  0  0  0  0  0  0  0  0  0
   -2.8929    2.7327   -0.6802 H   0  0  0  0  0  0  0  0  0  0  0  0
   -1.4913   -4.3236   -0.8888 C   0  0  0  0  0  0  0  0  0  0  0  0
   -2.2671   -5.0839   -1.0547 H   0  0  0  0  0  0  0  0  0  0  0  0
    2.6834   -1.2030   -0.1545 C   0  0  0  0  0  0  0  0  0  0  0  0
    3.2193   -2.1601   -0.2037 H   0  0  0  0  0  0  0  0  0  0  0  0
   -1.4979    4.3922   -0.4093 C   0  0  0  0  0  0  0  0  0  0  0  0
   -2.2753    5.1649   -0.4880 H   0  0  0  0  0  0  0  0  0  0  0  0
    5.5414   -1.0673    0.7961 C   0  0  0  0  0  0  0  0  0  0  0  0
    4.9547   -1.8852    1.2407 H   0  0  0  0  0  0  0  0  0  0  0  0
   -0.1415   -4.6774   -0.7316 C   0  0  0  0  0  0  0  0  0  0  0  0
    0.1723   -5.7304   -0.7689 H   0  0  0  0  0  0  0  0  0  0  0  0
   -0.1485    4.7287   -0.2147 C   0  0  0  0  0  0  0  0  0  0  0  0
    0.1632    5.7798   -0.1327 H   0  0  0  0  0  0  0  0  0  0  0  0
    0.7973    3.7016   -0.1316 C   0  0  0  0  0  0  0  0  0  0  0  0
    1.8607    3.9335    0.0171 H   0  0  0  0  0  0  0  0  0  0  0  0
    0.8022   -3.6646   -0.5316 C   0  0  0  0  0  0  0  0  0  0  0  0
    1.8660   -3.9097   -0.4094 H   0  0  0  0  0  0  0  0  0  0  0  0
    5.6736    1.0453   -0.3883 C   0  0  0  0  0  0  0  0  0  0  0  0
    5.1985    1.8682   -0.9430 H   0  0  0  0  0  0  0  0  0  0  0  0
    6.9317   -1.0827    0.9405 C   0  0  0  0  0  0  0  0  0  0  0  0
    7.4347   -1.9038    1.4699 H   0  0  0  0  0  0  0  0  0  0  0  0
    7.0653    1.0403   -0.2570 C   0  0  0  0  0  0  0  0  0  0  0  0
    7.6738    1.8520   -0.6791 H   0  0  0  0  0  0  0  0  0  0  0  0
    7.6938   -0.0259    0.4111 C   0  0  0  0  0  0  0  0  0  0  0  0
  2 10  1  0  0  0  0
  3  7  1  0  0  0  0
  4 14  1  0  0  0  0
  5 13  1  0  0  0  0
  5  6  1  0  0  0  0
  7  8  2  0  0  0  0
  8  2  1  0  0  0  0
  8 19  1  0  0  0  0
  9 23  1  0  0  0  0
 10  5  2  0  0  0  0
 11  3  1  0  0  0  0
 12 11  1  0  0  0  0
 13  9  1  0  0  0  0
 14 10  1  6  0  0  0
 14 29  1  0  0  0  0
 15  4  1  0  0  0  0
 15 21  2  0  0  0  0
 16 15  1  0  0  0  0
 17 11  2  0  0  0  0
 17 25  1  0  0  0  0
 18 17  1  0  0  0  0
 19 13  2  0  0  0  0
 20 19  1  0  0  0  0
 21 27  1  0  0  0  0
 22 21  1  0  0  0  0
 23 35  2  0  0  0  0
 23 24  1  0  0  0  0
 25 31  2  0  0  0  0
 26 25  1  0  0  0  0
 27 28  1  0  0  0  0
 27 29  2  0  0  0  0
 29 30  1  0  0  0  0
 31  7  1  0  0  0  0
 31 32  1  0  0  0  0
 33 37  1  0  0  0  0
 33  9  2  0  0  0  0
 34 33  1  0  0  0  0
 35 36  1  0  0  0  0
 37 39  2  0  0  0  0
 38 37  1  0  0  0  0
 39  1  1  0  0  0  0
 39 35  1  0  0  0  0
M  END
