5,9,10
q = -1.0, confidence = 0.04

 29 31  0  0  1  0  0  0  0  0999 V2000
   -4.8099    0.1110    0.7523 S   0  0  0  0  0  0  0  0  0  0  0  0
   -5.3306   -1.2164    0.3291 O   0  0  0  0  0  1  0  0  0  0  0  0
   -4.5716    0.2939    2.2104 O   0  0  0  0  0  1  0  0  0  0  0  0
   -5.3230    1.2934    0.0110 O   0  0  0  0  0  1  0  0  0  0  0  0
   -1.7796   -0.2612   -2.0961 N   0  0  0  0  0  2  0  0  0  0  0  0
   -2.2349   -1.1125    0.6936 N   0  0  0  0  0  0  0  0  0  0  0  0
   -2.2333    1.2698    0.3916 N   0  0  0  0  0  0  0  0  0  0  0  0
   -2.9109    0.0197    0.0644 C   0  0  2  0  0  0  0  0  0  0  0  0
   -0.9493   -1.4195    0.3445 N   0  0  0  0  0  2  0  0  0  0  0  0
   -0.9556    1.4794   -0.0433 N   0  0  0  0  0  2  0  0  0  0  0  0
   -2.1230   -0.4288   -3.3802 C   0  0  0  0  0  3  0  0  0  0  0  0
   -1.3345   -0.5288   -4.1336 H   0  0  0  0  0  0  0  0  0  0  0  0
   -4.0246   -0.2733   -2.2229 C   0  0  0  0  0  0  0  0  0  0  0  0
   -5.0434   -0.2213   -1.8317 H   0  0  0  0  0  0  0  0  0  0  0  0
   -2.7204   -2.0120    1.6078 C   0  0  0  0  0  3  0  0  0  0  0  0
   -3.7370   -1.9232    1.9979 H   0  0  0  0  0  0  0  0  0  0  0  0
   -2.9451   -0.1658   -1.3856 N   0  0  0  0  0  0  0  0  0  0  0  0
   -2.7056    2.3683    1.0643 C   0  0  0  0  0  3  0  0  0  0  0  0
   -3.7144    2.3795    1.4836 H   0  0  0  0  0  0  0  0  0  0  0  0
   -1.6876    3.3132    1.0578 C   0  0  0  0  0  0  0  0  0  0  0  0
   -1.7180    4.3102    1.5071 H   0  0  0  0  0  0  0  0  0  0  0  0
   -3.5289   -0.4424   -3.5097 C   0  0  0  0  0  0  0  0  0  0  0  0
   -4.1158   -0.5610   -4.4251 H   0  0  0  0  0  0  0  0  0  0  0  0
   -1.7045   -2.9271    1.8524 C   0  0  0  0  0  0  0  0  0  0  0  0
   -1.7468   -3.7849    2.5302 H   0  0  0  0  0  0  0  0  0  0  0  0
   -0.6234   -2.5202    1.0381 C   0  0  0  0  0  0  0  0  0  0  0  0
    0.3729   -2.9587    0.9147 H   0  0  0  0  0  0  0  0  0  0  0  0
   -0.6203    2.7140    0.3519 C   0  0  0  0  0  0  0  0  0  0  0  0
    0.3789    3.1003    0.1239 H   0  0  0  0  0  0  0  0  0  0  0  0
  1  3  1  0  0  0  0
  2  1  1  0  0  0  0
  4  1  1  0  0  0  0
  5 17  1  0  0  0  0
  6 15  1  0  0  0  0
  7 18  1  0  0  0  0
  8  7  1  0  0  0  0
  8  6  1  0  0  0  0
  8  1  1  1  0  0  0
  9  6  1  0  0  0  0
  9 26  1  0  0  0  0
 10 28  1  0  0  0  0
 10  7  1  0  0  0  0
 11  5  1  0  0  0  0
 12 11  1  0  0  0  0
 13 14  1  0  0  0  0
 13 17  1  0  0  0  0
 15 24  1  0  0  0  0
 15 16  1  0  0  0  0
 17  8  1  0  0  0  0
 18 19  1  0  0  0  0
 20 18  1  0  0  0  0
 20 21  1  0  0  0  0
 22 11  1  0  0  0  0
 22 13  2  0  0  0  0
 23 22  1  0  0  0  0
 24 25  1  0  0  0  0
 26 24  2  0  0  0  0
 27 26  1  0  0  0  0
 28 20  2  0  0  0  0
 29 28  1  0  0  0  0
M  END
