1,2,3
q = 0.0, confidence = 0.998

 42 45  0  0  1  0  0  0  0  0999 V2000
    0.1149    0.1311   -0.6115 N   0  0  0  0  0  2  0  0  0  0  0  0
    1.5300   -2.0610   -0.3042 N   0  0  0  0  0  2  0  0  0  0  0  0
    1.6367    2.1308    0.1611 N   0  0  0  0  0  2  0  0  0  0  0  0
   -0.5673   -1.0096   -0.7828 C   0  0  1  0  0  3  0  0  0  0  0  0
   -4.1396    0.2402   -0.6181 C   0  0  0  0  0  0  0  0  0  0  0  0
   -1.9096    1.3971   -0.5920 C   0  0  0  0  0  0  0  0  0  0  0  0
   -2.4304    2.3535   -0.4444 H   0  0  0  0  0  0  0  0  0  0  0  0
    0.2720   -2.2386   -0.7628 C   0  0  2  0  0  3  0  0  0  0  0  0
   -0.5077    1.3129   -0.5294 C   0  0  0  0  0  0  0  0  0  0  0  0
   -1.9651   -1.0053   -0.8815 C   0  0  0  0  0  0  0  0  0  0  0  0
   -2.5283   -1.9407   -0.9936 H   0  0  0  0  0  0  0  0  0  0  0  0
   -0.1777   -3.5060   -1.1745 C   0  0  0  0  0  0  0  0  0  0  0  0
   -1.1975   -3.6393   -1.5611 H   0  0  0  0  0  0  0  0  0  0  0  0
   -2.6585    0.2116   -0.7276 C   0  0  0  0  0  0  0  0  0  0  0  0
    0.4002    2.4653   -0.2703 C   0  0  2  0  0  3  0  0  0  0  0  0
   -4.7951   -0.5007    0.4054 C   0  0  0  0  0  0  0  0  0  0  0  0
    2.3772   -3.0941   -0.2314 C   0  0  0  0  0  0  0  0  0  0  0  0
    3.3841   -2.8545    0.1503 H   0  0  0  0  0  0  0  0  0  0  0  0
   -4.8880    1.0481   -1.5001 C   0  0  0  0  0  0  0  0  0  0  0  0
   -4.3572    1.6169   -2.2794 H   0  0  0  0  0  0  0  0  0  0  0  0
    0.0315    3.8109   -0.4518 C   0  0  0  0  0  0  0  0  0  0  0  0
   -0.9714    4.0698   -0.8192 H   0  0  0  0  0  0  0  0  0  0  0  0
    0.7034   -4.5929   -1.0984 C   0  0  0  0  0  0  0  0  0  0  0  0
    0.3746   -5.5934   -1.4173 H   0  0  0  0  0  0  0  0  0  0  0  0
    2.0058   -4.3902   -0.6183 C   0  0  0  0  0  0  0  0  0  0  0  0
    2.7247   -5.2186   -0.5451 H   0  0  0  0  0  0  0  0  0  0  0  0
    2.5406    3.0827    0.4190 C   0  0  0  0  0  0  0  0  0  0  0  0
    3.5264    2.7245    0.7601 H   0  0  0  0  0  0  0  0  0  0  0  0
    0.9733    4.8116   -0.1784 C   0  0  0  0  0  0  0  0  0  0  0  0
    0.7104    5.8709   -0.3181 H   0  0  0  0  0  0  0  0  0  0  0  0
   -4.0436   -1.3423    1.4115 C   0  0  0  0  0  0  0  0  0  0  0  0
   -3.9174   -2.3850    1.0476 H   0  0  0  0  0  0  0  0  0  0  0  0
   -4.6141   -1.4085    2.3587 H   0  0  0  0  0  0  0  0  0  0  0  0
   -3.0254   -0.9656    1.6404 H   0  0  0  0  0  0  0  0  0  0  0  0
    2.2533    4.4470    0.2648 C   0  0  0  0  0  0  0  0  0  0  0  0
    3.0192    5.2036    0.4872 H   0  0  0  0  0  0  0  0  0  0  0  0
   -6.2837    1.1141   -1.4094 C   0  0  0  0  0  0  0  0  0  0  0  0
   -6.8545    1.7383   -2.1130 H   0  0  0  0  0  0  0  0  0  0  0  0
   -6.2003   -0.4062    0.4815 C   0  0  0  0  0  0  0  0  0  0  0  0
   -6.7219   -0.9606    1.2779 H   0  0  0  0  0  0  0  0  0  0  0  0
   -6.9417    0.3788   -0.4119 C   0  0  0  0  0  0  0  0  0  0  0  0
   -8.0378    0.4245   -0.3217 H   0  0  0  0  0  0  0  0  0  0  0  0
  1  9  1  0  0  0  0
  2 17  1  0  0  0  0
  3 27  1  0  0  0  0
  4 10  1  1  0  0  0
  4  8  1  0  0  0  0
  4  1  1  0  0  0  0
  5 16  1  0  0  0  0
  6  9  2  0  0  0  0
  6  7  1  0  0  0  0
  8 12  1  1  0  0  0
  8  2  1  0  0  0  0
 10 14  2  0  0  0  0
 11 10  1  0  0  0  0
 12 23  2  0  0  0  0
 13 12  1  0  0  0  0
 14  5  1  0  0  0  0
 14  6  1  0  0  0  0
 15  9  1  6  0  0  0
 15  3  1  0  0  0  0
 16 39  2  0  0  0  0
 16 31  1  0  0  0  0
 17 18  1  0  0  0  0
 19 37  1  0  0  0  0
 19  5  2  0  0  0  0
 20 19  1  0  0  0  0
 21 15  1  0  0  0  0
 21 29  2  0  0  0  0
 22 21  1  0  0  0  0
 23 25  1  0  0  0  0
 24 23  1  0  0  0  0
 25 26  1  0  0  0  0
 25 17  2  0  0  0  0
 27 28  1  0  0  0  0
 29 35  1  0  0  0  0
 30 29  1  0  0  0  0
 31 34  1  0  0  0  0
 31 33  1  0  0  0  0
 32 31  1  0  0  0  0
 35 27  2  0  0  0  0
 35 36  1  0  0  0  0
 37 41  2  0  0  0  0
 38 37  1  0  0  0  0
 39 40  1  0  0  0  0
 41 42  1  0  0  0  0
 41 39  1  0  0  0  0
M  END
