2,3,4
q = -1.0

 71 74  0  0  1  0  0  0  0  0999 V2000
   -3.9806    1.8899   -0.8290 O   0  0  0  0  0  0  0  0  0  0  0  0
   -1.2993   -1.1809    0.3405 N   0  0  0  0  0  2  0  0  0  0  0  0
    1.5271   -0.6791    0.1989 N   0  0  0  0  0  2  0  0  0  0  0  0
   -1.8100    1.4942   -0.4272 N   0  0  0  0  0  2  0  0  0  0  0  0
   -0.9461   -2.0076    1.3845 C   0  0  2  0  0  3  0  0  0  0  0  0
   -1.9420   -2.6394    2.1907 C   0  0  0  0  0  0  0  0  0  0  0  0
   -2.9981   -2.4297    1.9717 H   0  0  0  0  0  0  0  0  0  0  0  0
   -1.6082   -3.4758    3.2505 C   0  0  0  0  0  0  0  0  0  0  0  0
   -2.4130   -3.9162    3.8593 H   0  0  0  0  0  0  0  0  0  0  0  0
   -0.2568   -3.7501    3.5625 C   0  0  0  0  0  0  0  0  0  0  0  0
    0.0032   -4.4161    4.3974 H   0  0  0  0  0  0  0  0  0  0  0  0
    0.7357   -3.1480    2.7989 C   0  0  0  0  0  0  0  0  0  0  0  0
    1.7972   -3.3388    3.0228 H   0  0  0  0  0  0  0  0  0  0  0  0
    0.4290   -2.2616    1.7297 C   0  0  0  0  0  0  0  0  0  0  0  0
   -2.4477   -1.4448   -0.3940 C   0  0  0  0  0  0  0  0  0  0  0  0
   -2.8254   -2.7888   -0.6817 C   0  0  0  0  0  0  0  0  0  0  0  0
   -2.1710   -3.5983   -0.3296 H   0  0  0  0  0  0  0  0  0  0  0  0
   -3.9753   -3.0907   -1.4071 C   0  0  0  0  0  0  0  0  0  0  0  0
   -4.2132   -4.1442   -1.6213 H   0  0  0  0  0  0  0  0  0  0  0  0
   -4.8183   -2.0653   -1.8843 C   0  0  0  0  0  0  0  0  0  0  0  0
   -5.7260   -2.3049   -2.4562 H   0  0  0  0  0  0  0  0  0  0  0  0
   -4.4673   -0.7402   -1.6386 C   0  0  0  0  0  3  0  0  0  0  0  0
   -5.0923    0.0847   -2.0084 H   0  0  0  0  0  0  0  0  0  0  0  0
   -3.2918   -0.4107   -0.9205 C   0  0  0  0  0  0  0  0  0  0  0  0
   -2.9818    0.9894   -0.7088 C   0  0  0  0  0  0  0  0  0  0  0  0
   -3.3767    3.2069   -0.7138 C   0  0  0  0  0  0  0  0  0  0  0  0
   -4.0056    3.8088   -0.0296 H   0  0  0  0  0  0  0  0  0  0  0  0
   -3.3870    3.6739   -1.7202 H   0  0  0  0  0  0  0  0  0  0  0  0
   -1.9490    2.9438   -0.1894 C   0  0  1  0  0  0  0  0  0  0  0  0
   -1.1797    3.4626   -0.7940 H   0  0  0  0  0  0  0  0  0  0  0  0
   -1.6922    3.2925    1.2956 C   0  0  0  0  0  0  0  0  0  0  0  0
   -0.6471    2.9576    1.4741 H   0  0  0  0  0  0  0  0  0  0  0  0
   -1.7415    4.8096    1.5008 C   0  0  0  0  0  0  0  0  0  0  0  0
   -1.0327    5.3300    0.8250 H   0  0  0  0  0  0  0  0  0  0  0  0
   -1.4701    5.0731    2.5425 H   0  0  0  0  0  0  0  0  0  0  0  0
   -2.7572    5.2216    1.3158 H   0  0  0  0  0  0  0  0  0  0  0  0
   -2.6173    2.5384    2.2547 C   0  0  0  0  0  0  0  0  0  0  0  0
   -2.3683    2.7817    3.3071 H   0  0  0  0  0  0  0  0  0  0  0  0
   -2.5144    1.4412    2.1334 H   0  0  0  0  0  0  0  0  0  0  0  0
   -3.6853    2.8043    2.1021 H   0  0  0  0  0  0  0  0  0  0  0  0
    1.5402   -1.7114    1.0022 C   0  0  0  0  0  0  0  0  0  0  0  0
    2.5172   -2.2115    1.1483 H   0  0  0  0  0  0  0  0  0  0  0  0
    2.7681   -0.3374   -0.4464 C   0  0  0  0  0  0  0  0  0  0  0  0
    2.9529   -0.7160   -1.7977 C   0  0  0  0  0  0  0  0  0  0  0  0
    4.1877   -0.4107   -2.3983 C   0  0  0  0  0  0  0  0  0  0  0  0
    4.3603   -0.6970   -3.4471 H   0  0  0  0  0  0  0  0  0  0  0  0
    5.1951    0.2515   -1.6858 C   0  0  0  0  0  0  0  0  0  0  0  0
    6.1563    0.4772   -2.1723 H   0  0  0  0  0  0  0  0  0  0  0  0
    4.9732    0.6412   -0.3594 C   0  0  0  0  0  0  0  0  0  0  0  0
    5.7598    1.1840    0.1864 H   0  0  0  0  0  0  0  0  0  0  0  0
    3.7534    0.3688    0.2863 C   0  0  0  0  0  0  0  0  0  0  0  0
    1.8412   -1.3803   -2.6003 C   0  0  0  0  0  0  0  0  0  0  0  0
    1.0258   -1.6357   -1.8931 H   0  0  0  0  0  0  0  0  0  0  0  0
    1.2548   -0.3855   -3.6186 C   0  0  0  0  0  0  0  0  0  0  0  0
    0.9248    0.5427   -3.1104 H   0  0  0  0  0  0  0  0  0  0  0  0
    0.3850   -0.8308   -4.1446 H   0  0  0  0  0  0  0  0  0  0  0  0
    2.0100   -0.1051   -4.3823 H   0  0  0  0  0  0  0  0  0  0  0  0
    2.2959   -2.6864   -3.2686 C   0  0  0  0  0  0  0  0  0  0  0  0
    3.0896   -2.5080   -4.0235 H   0  0  0  0  0  0  0  0  0  0  0  0
    1.4464   -3.1703   -3.7926 H   0  0  0  0  0  0  0  0  0  0  0  0
    2.6962   -3.4052   -2.5250 H   0  0  0  0  0  0  0  0  0  0  0  0
    3.5063    0.8430    1.7142 C   0  0  0  0  0  0  0  0  0  0  0  0
    2.4234    0.7186    1.9175 H   0  0  0  0  0  0  0  0  0  0  0  0
    4.2851   -0.0093    2.7317 C   0  0  0  0  0  0  0  0  0  0  0  0
    4.0169   -1.0833    2.6629 H   0  0  0  0  0  0  0  0  0  0  0  0
    4.0791    0.3272    3.7687 H   0  0  0  0  0  0  0  0  0  0  0  0
    5.3792    0.0685    2.5612 H   0  0  0  0  0  0  0  0  0  0  0  0
    3.8137    2.3393    1.8824 C   0  0  0  0  0  0  0  0  0  0  0  0
    4.8896    2.5629    1.7289 H   0  0  0  0  0  0  0  0  0  0  0  0
    3.5513    2.6713    2.9081 H   0  0  0  0  0  0  0  0  0  0  0  0
    3.2211    2.9321    1.1590 H   0  0  0  0  0  0  0  0  0  0  0  0
  1 26  1  0  0  0  0
  1 25  1  0  0  0  0
  3 41  1  0  0  0  0
  4 29  1  0  0  0  0
  5  2  1  1  0  0  0
  5 14  1  0  0  0  0
  5  6  1  0  0  0  0
  6  8  2  0  0  0  0
  7  6  1  0  0  0  0
  8 10  1  0  0  0  0
  8  9  1  0  0  0  0
 10 11  1  0  0  0  0
 12 13  1  0  0  0  0
 12 10  2  0  0  0  0
 14 12  1  0  0  0  0
 15  2  1  0  0  0  0
 16 15  2  0  0  0  0
 16 17  1  0  0  0  0
 18 16  1  0  0  0  0
 19 18  1  0  0  0  0
 20 22  1  0  0  0  0
 20 18  2  0  0  0  0
 21 20  1  0  0  0  0
 22 24  1  0  0  0  0
 23 22  1  0  0  0  0
 24 25  2  0  0  0  0
 24 15  1  0  0  0  0
 25  4  1  0  0  0  0
 26 29  1  0  0  0  0
 26 27  1  0  0  0  0
 28 26  1  0  0  0  0
 29 30  1  6  0  0  0
 29 31  1  0  0  0  0
 31 32  1  0  0  0  0
 31 33  1  0  0  0  0
 31 37  1  0  0  0  0
 33 35  1  0  0  0  0
 34 33  1  0  0  0  0
 36 33  1  0  0  0  0
 37 38  1  0  0  0  0
 39 37  1  0  0  0  0
 40 37  1  0  0  0  0
 41 42  1  0  0  0  0
 41 14  2  0  0  0  0
 43  3  1  0  0  0  0
 43 51  1  0  0  0  0
 44 43  2  0  0  0  0
 45 44  1  0  0  0  0
 45 47  2  0  0  0  0
 46 45  1  0  0  0  0
 47 49  1  0  0  0  0
 48 47  1  0  0  0  0
 49 50  1  0  0  0  0
 49 51  2  0  0  0  0
 51 62  1  0  0  0  0
 52 53  1  0  0  0  0
 52 44  1  0  0  0  0
 54 55  1  0  0  0  0
 54 52  1  0  0  0  0
 56 54  1  0  0  0  0
 57 54  1  0  0  0  0
 58 52  1  0  0  0  0
 58 61  1  0  0  0  0
 59 58  1  0  0  0  0
 60 58  1  0  0  0  0
 62 68  1  0  0  0  0
 62 63  1  0  0  0  0
 62 64  1  0  0  0  0
 64 66  1  0  0  0  0
 65 64  1  0  0  0  0
 67 64  1  0  0  0  0
 68 70  1  0  0  0  0
 69 68  1  0  0  0  0
 71 68  1  0  0  0  0
M  END
