1,2,4
q = 0.0, confidence = 0.998

 36 37  0  0  0  0  0  0  0  0999 V2000
   -2.6000   -1.6198   -0.6372 N   0  0  0  0  0  0  0  0  0  0  0  0
   -0.7942   -1.5677    1.5694 N   0  0  0  0  0  0  0  0  0  0  0  0
   -0.3044   -0.9452    2.2283 H   0  0  0  0  0  0  0  0  0  0  0  0
    0.0132   -2.8013   -0.8122 N   0  0  0  0  0  0  0  0  0  0  0  0
    0.7037   -2.7992   -1.5722 H   0  0  0  0  0  0  0  0  0  0  0  0
   -4.3736    0.5834    0.6751 N   0  0  0  0  0  0  0  0  0  0  0  0
   -3.0504   -2.1311    0.7087 C   0  0  0  0  0  0  0  0  0  0  0  0
   -2.9677   -3.2362    0.7088 H   0  0  0  0  0  0  0  0  0  0  0  0
   -4.1161   -1.8743    0.8651 H   0  0  0  0  0  0  0  0  0  0  0  0
   -2.2504   -1.5314    1.8587 C   0  0  0  0  0  0  0  0  0  0  0  0
   -2.5381   -0.4718    1.9831 H   0  0  0  0  0  0  0  0  0  0  0  0
   -2.4946   -2.0717    2.8014 H   0  0  0  0  0  0  0  0  0  0  0  0
   -0.1852   -2.9286    1.6496 C   0  0  0  0  0  0  0  0  0  0  0  0
   -1.0027   -3.6717    1.7397 H   0  0  0  0  0  0  0  0  0  0  0  0
    0.4207   -3.0276    2.5727 H   0  0  0  0  0  0  0  0  0  0  0  0
    0.6834   -3.2452    0.4299 C   0  0  0  0  0  0  0  0  0  0  0  0
    1.6471   -2.7021    0.4806 H   0  0  0  0  0  0  0  0  0  0  0  0
    0.9165   -4.3350    0.4156 H   0  0  0  0  0  0  0  0  0  0  0  0
   -1.1734   -3.6167   -1.1899 C   0  0  0  0  0  0  0  0  0  0  0  0
   -1.4427   -4.2647   -0.3324 H   0  0  0  0  0  0  0  0  0  0  0  0
   -0.9372   -4.3075   -2.0258 H   0  0  0  0  0  0  0  0  0  0  0  0
   -2.3588   -2.7440   -1.5929 C   0  0  0  0  0  0  0  0  0  0  0  0
   -2.1615   -2.2843   -2.5806 H   0  0  0  0  0  0  0  0  0  0  0  0
   -3.2719   -3.3749   -1.6988 H   0  0  0  0  0  0  0  0  0  0  0  0
   -3.6276   -0.7153   -1.2514 C   0  0  0  0  0  0  0  0  0  0  0  0
   -4.5995   -1.2593   -1.2834 H   0  0  0  0  0  0  0  0  0  0  0  0
   -3.3107   -0.5316   -2.2940 H   0  0  0  0  0  0  0  0  0  0  0  0
   -3.8323    0.6131   -0.5572 C   0  0  0  0  0  0  0  0  0  0  0  0
   -3.5059    1.8164   -1.2127 C   0  0  0  0  0  0  0  0  0  0  0  0
   -3.0623    1.7979   -2.2189 H   0  0  0  0  0  0  0  0  0  0  0  0
   -3.7398    3.0291   -0.5518 C   0  0  0  0  0  0  0  0  0  0  0  0
   -3.4988    3.9857   -1.0400 H   0  0  0  0  0  0  0  0  0  0  0  0
   -4.2848    2.9994    0.7397 C   0  0  0  0  0  0  0  0  0  0  0  0
   -4.4877    3.9252    1.2974 H   0  0  0  0  0  0  0  0  0  0  0  0
   -4.5828    1.7499    1.3067 C   0  0  0  0  0  0  0  0  0  0  0  0
   -5.0226    1.6875    2.3175 H   0  0  0  0  0  0  0  0  0  0  0  0
  1  7  1  0  0  0  0
  2 13  1  0  0  0  0
  2 10  1  0  0  0  0
  2  3  1  0  0  0  0
  4 16  1  0  0  0  0
  5  4  1  0  0  0  0
  6 35  1  0  0  0  0
  7  8  1  0  0  0  0
  7  9  1  0  0  0  0
  7 10  1  0  0  0  0
 10 11  1  0  0  0  0
 10 12  1  0  0  0  0
 13 14  1  0  0  0  0
 13 15  1  0  0  0  0
 16 17  1  0  0  0  0
 16 13  1  0  0  0  0
 18 16  1  0  0  0  0
 19  4  1  0  0  0  0
 19 20  1  0  0  0  0
 21 19  1  0  0  0  0
 22 19  1  0  0  0  0
 22  1  1  0  0  0  0
 23 22  1  0  0  0  0
 24 22  1  0  0  0  0
 25  1  1  0  0  0  0
 25 28  1  0  0  0  0
 26 25  1  0  0  0  0
 27 25  1  0  0  0  0
 28  6  2  0  0  0  0
 29 28  1  0  0  0  0
 29 31  2  0  0  0  0
 30 29  1  0  0  0  0
 31 33  1  0  0  0  0
 32 31  1  0  0  0  0
 33 34  1  0  0  0  0
 33 35  2  0  0  0  0
 35 36  1  0  0  0  0
M  END
