2,3,4
q = -1.0

 35 38  0  0  0  0  0  0  0  0999 V2000
    0.3279    3.6921   -0.3649 O   0  0  0  0  0  0  0  0  0  0  0  0
    2.2274   -0.8676    0.2612 N   0  0  0  0  0  2  0  0  0  0  0  0
    0.8954    1.4346   -0.0552 N   0  0  0  0  0  2  0  0  0  0  0  0
   -1.7121    0.8005    0.1165 N   0  0  0  0  0  2  0  0  0  0  0  0
    2.8169   -2.0520    0.4078 C   0  0  0  0  0  0  0  0  0  0  0  0
    2.1476   -2.9215    0.5298 H   0  0  0  0  0  0  0  0  0  0  0  0
    4.2253   -2.1996    0.3979 C   0  0  0  0  0  0  0  0  0  0  0  0
    4.6713   -3.1972    0.5193 H   0  0  0  0  0  0  0  0  0  0  0  0
    5.0144   -1.0689    0.2344 C   0  0  0  0  0  0  0  0  0  0  0  0
    6.1132   -1.1461    0.2240 H   0  0  0  0  0  0  0  0  0  0  0  0
    4.4121    0.2108    0.0734 C   0  0  0  0  0  0  0  0  0  0  0  0
    5.1467    1.4164   -0.1015 C   0  0  0  0  0  3  0  0  0  0  0  0
    6.2463    1.3820   -0.1145 H   0  0  0  0  0  0  0  0  0  0  0  0
    4.4588    2.6149   -0.2546 C   0  0  0  0  0  0  0  0  0  0  0  0
    5.0248    3.5497   -0.3905 H   0  0  0  0  0  0  0  0  0  0  0  0
    3.0450    2.6808   -0.2457 C   0  0  0  0  0  0  0  0  0  0  0  0
    2.5179    3.6342   -0.3721 H   0  0  0  0  0  0  0  0  0  0  0  0
    2.2694    1.5187   -0.0776 C   0  0  0  0  0  0  0  0  0  0  0  0
    2.9744    0.2601    0.0903 C   0  0  0  0  0  0  0  0  0  0  0  0
    0.0544    2.4934   -0.1947 C   0  0  0  0  0  0  0  0  0  0  0  0
   -1.4116    2.0780   -0.1249 C   0  0  0  0  0  0  0  0  0  0  0  0
   -2.4103    3.0702   -0.3192 C   0  0  0  0  0  0  0  0  0  0  0  0
   -2.0719    4.0983   -0.5062 H   0  0  0  0  0  0  0  0  0  0  0  0
   -3.7409    2.6973   -0.2723 C   0  0  0  0  0  0  0  0  0  0  0  0
   -4.5422    3.4369   -0.4292 H   0  0  0  0  0  0  0  0  0  0  0  0
   -4.0911    1.3402   -0.0168 C   0  0  0  0  0  0  0  0  0  0  0  0
   -5.4366    0.8797    0.0501 C   0  0  0  0  0  3  0  0  0  0  0  0
   -6.2525    1.6017   -0.1086 H   0  0  0  0  0  0  0  0  0  0  0  0
   -5.7102   -0.4544    0.3133 C   0  0  0  0  0  0  0  0  0  0  0  0
   -6.7523   -0.8038    0.3634 H   0  0  0  0  0  0  0  0  0  0  0  0
   -4.6485   -1.3754    0.5267 C   0  0  0  0  0  0  0  0  0  0  0  0
   -4.8787   -2.4289    0.7459 H   0  0  0  0  0  0  0  0  0  0  0  0
   -3.3257   -0.9633    0.4665 C   0  0  0  0  0  0  0  0  0  0  0  0
   -2.5027   -1.6650    0.6519 H   0  0  0  0  0  0  0  0  0  0  0  0
   -3.0181    0.3988    0.1871 C   0  0  0  0  0  0  0  0  0  0  0  0
  1 20  2  0  0  0  0
  2  5  1  0  0  0  0
  4 35  1  0  0  0  0
  5  6  1  0  0  0  0
  7  5  2  0  0  0  0
  7  8  1  0  0  0  0
  9  7  1  0  0  0  0
 10  9  1  0  0  0  0
 11 19  1  0  0  0  0
 11  9  2  0  0  0  0
 12 11  1  0  0  0  0
 13 12  1  0  0  0  0
 14 16  2  0  0  0  0
 14 12  1  0  0  0  0
 15 14  1  0  0  0  0
 16 18  1  0  0  0  0
 17 16  1  0  0  0  0
 18  3  1  0  0  0  0
 18 19  2  0  0  0  0
 19  2  1  0  0  0  0
 20 21  1  0  0  0  0
 20  3  1  0  0  0  0
 21  4  1  0  0  0  0
 22 24  1  0  0  0  0
 22 21  2  0  0  0  0
 23 22  1  0  0  0  0
 24 26  2  0  0  0  0
 25 24  1  0  0  0  0
 26 27  1  0  0  0  0
 26 35  1  0  0  0  0
 27 29  1  0  0  0  0
 28 27  1  0  0  0  0
 29 30  1  0  0  0  0
 29 31  2  0  0  0  0
 31 32  1  0  0  0  0
 33 31  1  0  0  0  0
 33 34  1  0  0  0  0
 35 33  2  0  0  0  0
M  END
