1,2,3
q = 0.0, confidence = 0.988

 69 75  0  0  1  0  0  0  0  0999 V2000
    6.6853    2.0976   -0.0629 N   0  0  0  0  0  2  0  0  0  0  0  0
    5.1384    0.0252   -0.3707 N   0  0  0  0  0  2  0  0  0  0  0  0
    6.6912   -2.0656   -0.3375 N   0  0  0  0  0  2  0  0  0  0  0  0
    7.5914    3.0789    0.0110 C   0  0  0  0  0  3  0  0  0  0  0  0
    7.2195    4.4321   -0.0027 C   0  0  0  0  0  0  0  0  0  0  0  0
    5.8568    4.7485   -0.1036 C   0  0  0  0  0  0  0  0  0  0  0  0
    4.9152    3.7137   -0.1928 C   0  0  0  0  0  0  0  0  0  0  0  0
    5.3697    2.3828   -0.1689 C   0  0  0  0  0  0  0  0  0  0  0  0
    4.4809    1.1896   -0.2673 C   0  0  2  0  0  3  0  0  0  0  0  0
    3.0775    1.2262   -0.2352 C   0  0  0  0  0  0  0  0  0  0  0  0
    2.3488    0.0171   -0.2979 C   0  0  0  0  0  0  0  0  0  0  0  0
    3.0809   -1.1883   -0.3859 C   0  0  0  0  0  0  0  0  0  0  0  0
    4.4841   -1.1447   -0.4119 C   0  0  0  0  0  0  0  0  0  0  0  0
    5.3759   -2.3382   -0.4752 C   0  0  1  0  0  3  0  0  0  0  0  0
    4.9244   -3.6557   -0.6719 C   0  0  0  0  0  0  0  0  0  0  0  0
    5.8689   -4.6906   -0.7228 C   0  0  0  0  0  0  0  0  0  0  0  0
    7.2311   -4.3864   -0.5848 C   0  0  0  0  0  0  0  0  0  0  0  0
    7.5998   -3.0456   -0.3944 C   0  0  0  0  0  0  0  0  0  0  0  0
    0.8689    0.0130   -0.2582 C   0  0  0  0  0  0  0  0  0  0  0  0
    0.1198    1.0535   -0.8529 C   0  0  0  0  0  0  0  0  0  0  0  0
   -1.2769    1.0479   -0.8182 C   0  0  0  0  0  0  0  0  0  0  0  0
   -1.9917    0.0068   -0.1808 C   0  0  0  0  0  0  0  0  0  0  0  0
   -1.2387   -1.0307    0.4171 C   0  0  0  0  0  0  0  0  0  0  0  0
    0.1580   -1.0303    0.3769 C   0  0  0  0  0  0  0  0  0  0  0  0
   -3.4720    0.0042   -0.1398 C   0  0  0  0  0  0  0  0  0  0  0  0
   -4.2368    0.5468   -1.1984 C   0  0  0  0  0  0  0  0  0  0  0  0
   -5.6336    0.5435   -1.1597 C   0  0  0  0  0  0  0  0  0  0  0  0
   -6.3375    0.0001   -0.0597 C   0  0  0  0  0  0  0  0  0  0  0  0
   -5.5717   -0.5412    0.9991 C   0  0  0  0  0  0  0  0  0  0  0  0
   -4.1748   -0.5406    0.9597 C   0  0  0  0  0  0  0  0  0  0  0  0
   -7.8182   -0.0016   -0.0181 C   0  0  0  0  0  0  0  0  0  0  0  0
   -8.5706    1.0381   -0.6114 C   0  0  0  0  0  0  0  0  0  0  0  0
   -9.9678    1.0371   -0.5704 C   0  0  0  0  0  0  0  0  0  0  0  0
  -10.6832   -0.0049    0.0628 C   0  0  0  0  0  0  0  0  0  0  0  0
   -9.9308   -1.0452    0.6546 C   0  0  0  0  0  0  0  0  0  0  0  0
   -8.5336   -1.0430    0.6166 C   0  0  0  0  0  0  0  0  0  0  0  0
  -12.1660   -0.0063    0.1051 C   0  0  0  0  0  0  0  0  0  0  0  0
  -12.8925    1.2024    0.2100 C   0  0  0  0  0  0  0  0  0  0  0  0
  -14.2931    1.2012    0.2506 C   0  0  0  0  0  0  0  0  0  0  0  0
  -15.0019   -0.0090    0.1863 C   0  0  0  0  0  0  0  0  0  0  0  0
  -14.2956   -1.2179    0.0815 C   0  0  0  0  0  0  0  0  0  0  0  0
  -12.8950   -1.2165    0.0418 C   0  0  0  0  0  0  0  0  0  0  0  0
    8.6401    2.7379    0.0755 H   0  0  0  0  0  0  0  0  0  0  0  0
    7.9856    5.2179    0.0637 H   0  0  0  0  0  0  0  0  0  0  0  0
    5.5257    5.7978   -0.1183 H   0  0  0  0  0  0  0  0  0  0  0  0
    3.8446    3.9423   -0.2887 H   0  0  0  0  0  0  0  0  0  0  0  0
    2.5438    2.1786   -0.1158 H   0  0  0  0  0  0  0  0  0  0  0  0
    2.5480   -2.1467   -0.4440 H   0  0  0  0  0  0  0  0  0  0  0  0
    3.8541   -3.8731   -0.7937 H   0  0  0  0  0  0  0  0  0  0  0  0
    5.5403   -5.7296   -0.8751 H   0  0  0  0  0  0  0  0  0  0  0  0
    7.9993   -5.1719   -0.6247 H   0  0  0  0  0  0  0  0  0  0  0  0
    8.6479   -2.7132   -0.2880 H   0  0  0  0  0  0  0  0  0  0  0  0
    0.6417    1.8719   -1.3715 H   0  0  0  0  0  0  0  0  0  0  0  0
   -1.8291    1.8806   -1.2784 H   0  0  0  0  0  0  0  0  0  0  0  0
   -1.7611   -1.8646    0.9086 H   0  0  0  0  0  0  0  0  0  0  0  0
    0.7105   -1.8435    0.8711 H   0  0  0  0  0  0  0  0  0  0  0  0
   -3.7263    0.9441   -2.0885 H   0  0  0  0  0  0  0  0  0  0  0  0
   -6.1952    0.9384   -2.0194 H   0  0  0  0  0  0  0  0  0  0  0  0
   -6.0830   -0.9374    1.8890 H   0  0  0  0  0  0  0  0  0  0  0  0
   -3.6143   -0.9358    1.8201 H   0  0  0  0  0  0  0  0  0  0  0  0
   -8.0484    1.8753   -1.0983 H   0  0  0  0  0  0  0  0  0  0  0  0
  -10.5207    1.8547   -1.0566 H   0  0  0  0  0  0  0  0  0  0  0  0
  -10.4535   -1.8638    1.1716 H   0  0  0  0  0  0  0  0  0  0  0  0
   -7.9827   -1.8787    1.0737 H   0  0  0  0  0  0  0  0  0  0  0  0
  -12.3476    2.1551    0.2896 H   0  0  0  0  0  0  0  0  0  0  0  0
  -14.8361    2.1542    0.3426 H   0  0  0  0  0  0  0  0  0  0  0  0
  -16.1019   -0.0101    0.2179 H   0  0  0  0  0  0  0  0  0  0  0  0
  -14.8412   -2.1720    0.0209 H   0  0  0  0  0  0  0  0  0  0  0  0
  -12.3537   -2.1682   -0.0686 H   0  0  0  0  0  0  0  0  0  0  0  0
  1  4  1  0  0  0  0
  2  9  1  0  0  0  0
  4 43  1  0  0  0  0
  5  4  1  0  0  0  0
  5 44  1  0  0  0  0
  6  5  2  0  0  0  0
  7  8  2  0  0  0  0
  7  6  1  0  0  0  0
  8  1  1  0  0  0  0
  9 10  1  0  0  0  0
  9  8  1  1  0  0  0
 10 47  1  0  0  0  0
 11 19  1  0  0  0  0
 11 10  2  0  0  0  0
 12 11  1  0  0  0  0
 13 12  2  0  0  0  0
 13  2  1  0  0  0  0
 14 13  1  6  0  0  0
 14  3  1  0  0  0  0
 15 14  1  0  0  0  0
 16 15  2  0  0  0  0
 16 17  1  0  0  0  0
 17 18  2  0  0  0  0
 18  3  1  0  0  0  0
 18 52  1  0  0  0  0
 19 24  1  0  0  0  0
 20 21  1  0  0  0  0
 20 19  2  0  0  0  0
 21 22  2  0  0  0  0
 22 25  1  0  0  0  0
 22 23  1  0  0  0  0
 23 55  1  0  0  0  0
 24 23  2  0  0  0  0
 24 56  1  0  0  0  0
 25 30  1  0  0  0  0
 26 27  1  0  0  0  0
 26 25  2  0  0  0  0
 27 28  2  0  0  0  0
 28 31  1  0  0  0  0
 28 29  1  0  0  0  0
 29 59  1  0  0  0  0
 30 29  2  0  0  0  0
 30 60  1  0  0  0  0
 31 36  1  0  0  0  0
 32 33  1  0  0  0  0
 32 31  2  0  0  0  0
 33 34  2  0  0  0  0
 34 37  1  0  0  0  0
 34 35  1  0  0  0  0
 35 63  1  0  0  0  0
 36 35  2  0  0  0  0
 36 64  1  0  0  0  0
 37 38  1  0  0  0  0
 38 39  2  0  0  0  0
 38 65  1  0  0  0  0
 39 66  1  0  0  0  0
 40 67  1  0  0  0  0
 40 39  1  0  0  0  0
 41 40  2  0  0  0  0
 42 41  1  0  0  0  0
 42 37  2  0  0  0  0
 45  6  1  0  0  0  0
 46  7  1  0  0  0  0
 48 12  1  0  0  0  0
 49 15  1  0  0  0  0
 50 16  1  0  0  0  0
 51 17  1  0  0  0  0
 53 20  1  0  0  0  0
 54 21  1  0  0  0  0
 57 26  1  0  0  0  0
 58 27  1  0  0  0  0
 61 32  1  0  0  0  0
 62 33  1  0  0  0  0
 68 41  1  0  0  0  0
 69 42  1  0  0  0  0
M  END
