52,54,56
q = -1.0, confidence = 0.004

 65 70  0  0  1  0  0  0  0  0999 V2000
   -6.0569   -0.8867    2.6476 Cl  0  0  0  0  0  0  0  0  0  0  0  0
   -6.0580    2.7351   -0.5558 Cl  0  0  0  0  0  0  0  0  0  0  0  0
   -6.0568   -1.8489   -2.0921 Cl  0  0  0  0  0  0  0  0  0  0  0  0
    2.1264   -0.2047    3.0017 C   0  0  2  0  0  3  0  0  0  0  0  0
    0.8864   -0.3284    3.6586 C   0  0  0  0  0  0  0  0  0  0  0  0
    0.7028   -0.4577    4.7288 H   0  0  0  0  0  0  0  0  0  0  0  0
   -0.0705   -0.2054    2.6385 C   0  0  0  0  0  0  0  0  0  0  0  0
    2.1252    2.7023   -1.3235 C   0  0  2  0  0  3  0  0  0  0  0  0
    0.8849    3.3326   -1.5443 C   0  0  0  0  0  0  0  0  0  0  0  0
    0.7009    4.3241   -1.9673 H   0  0  0  0  0  0  0  0  0  0  0  0
   -0.0715    2.3873   -1.1408 C   0  0  0  0  0  0  0  0  0  0  0  0
    2.1263   -2.4975   -1.6780 C   0  0  2  0  0  3  0  0  0  0  0  0
    0.8863   -3.0047   -2.1132 C   0  0  0  0  0  0  0  0  0  0  0  0
    0.7027   -3.8670   -2.7601 H   0  0  0  0  0  0  0  0  0  0  0  0
   -0.0705   -2.1827   -1.4967 C   0  0  0  0  0  0  0  0  0  0  0  0
    3.5126   -0.2441    3.5767 C   0  0  0  0  0  0  0  0  0  0  0  0
   -1.5398   -0.2999    2.7098 C   0  0  0  0  0  0  0  0  0  0  0  0
   -2.1298   -1.4130    3.3481 C   0  0  0  0  0  0  0  0  0  0  0  0
   -1.4839   -2.1729    3.8131 H   0  0  0  0  0  0  0  0  0  0  0  0
   -3.5198   -1.5862    3.3583 C   0  0  0  0  0  0  0  0  0  0  0  0
   -3.9762   -2.4654    3.8339 H   0  0  0  0  0  0  0  0  0  0  0  0
   -4.3325   -0.6334    2.7233 C   0  0  0  0  0  0  0  0  0  0  0  0
   -3.7740    0.5045    2.1182 C   0  0  0  0  0  0  0  0  0  0  0  0
   -4.4298    1.2427    1.6366 H   0  0  0  0  0  0  0  0  0  0  0  0
   -2.3842    0.6676    2.1195 C   0  0  0  0  0  0  0  0  0  0  0  0
   -1.9524    1.5586    1.6424 H   0  0  0  0  0  0  0  0  0  0  0  0
    3.5111    3.2208   -1.5774 C   0  0  0  0  0  0  0  0  0  0  0  0
   -1.5408    2.4958   -1.0945 C   0  0  0  0  0  0  0  0  0  0  0  0
   -2.1310    3.6053   -0.4499 C   0  0  0  0  0  0  0  0  0  0  0  0
   -1.4853    4.3881   -0.0244 H   0  0  0  0  0  0  0  0  0  0  0  0
   -3.5210    3.7006   -0.3051 C   0  0  0  0  0  0  0  0  0  0  0  0
   -3.9776    4.5521    0.2183 H   0  0  0  0  0  0  0  0  0  0  0  0
   -4.3335    2.6741   -0.8127 C   0  0  0  0  0  0  0  0  0  0  0  0
   -3.7749    1.5810   -1.4953 C   0  0  0  0  0  0  0  0  0  0  0  0
   -4.4304    0.7947   -1.8939 H   0  0  0  0  0  0  0  0  0  0  0  0
   -2.3850    1.5007   -1.6371 C   0  0  0  0  0  0  0  0  0  0  0  0
   -1.9530    0.6421   -2.1701 H   0  0  0  0  0  0  0  0  0  0  0  0
    3.5125   -2.9757   -1.9997 C   0  0  0  0  0  0  0  0  0  0  0  0
   -1.5398   -2.1971   -1.6143 C   0  0  0  0  0  0  0  0  0  0  0  0
   -2.1297   -2.1938   -2.8975 C   0  0  0  0  0  0  0  0  0  0  0  0
   -1.4838   -2.2170   -3.7881 H   0  0  0  0  0  0  0  0  0  0  0  0
   -3.5196   -2.1157   -3.0528 C   0  0  0  0  0  0  0  0  0  0  0  0
   -3.9760   -2.0883   -4.0520 H   0  0  0  0  0  0  0  0  0  0  0  0
   -4.3325   -2.0415   -1.9102 C   0  0  0  0  0  0  0  0  0  0  0  0
   -3.7741   -2.0861   -0.6222 C   0  0  0  0  0  0  0  0  0  0  0  0
   -4.4299   -2.0375    0.2579 H   0  0  0  0  0  0  0  0  0  0  0  0
   -2.3843   -2.1690   -0.4814 C   0  0  0  0  0  0  0  0  0  0  0  0
   -1.9525   -2.2010    0.5288 H   0  0  0  0  0  0  0  0  0  0  0  0
    0.0878   -0.0003    0.0001 B   0  0  1  0  0  0  0  0  0  0  0  0
   -1.1124   -0.0006    0.0004 H   0  0  0  0  0  0  0  0  0  0  0  0
    0.6153   -0.0275    1.4611 N   0  0  0  0  0  0  0  0  0  0  0  0
    1.9473   -0.0289    1.6828 N   0  0  0  0  0  2  0  0  0  0  0  0
    0.6147    1.2787   -0.7067 N   0  0  0  0  0  0  0  0  0  0  0  0
    1.9467    1.4719   -0.8165 N   0  0  0  0  0  2  0  0  0  0  0  0
    0.6152   -1.2518   -0.7542 N   0  0  0  0  0  0  0  0  0  0  0  0
    1.9472   -1.4429   -0.8665 N   0  0  0  0  0  2  0  0  0  0  0  0
    3.4649   -0.4230    4.9149 F   0  0  0  0  0  0  0  0  0  0  0  0
    4.1909    0.9018    3.3320 F   0  0  0  0  0  0  0  0  0  0  0  0
    4.2439   -1.2558    3.0476 F   0  0  0  0  0  0  0  0  0  0  0  0
    3.4623    4.4692   -2.0913 F   0  0  0  0  0  0  0  0  0  0  0  0
    4.1894    2.4365   -2.4478 F   0  0  0  0  0  0  0  0  0  0  0  0
    4.2428    3.2687   -0.4369 F   0  0  0  0  0  0  0  0  0  0  0  0
    3.4648   -4.0448   -2.8241 F   0  0  0  0  0  0  0  0  0  0  0  0
    4.1906   -3.3373   -0.8850 F   0  0  0  0  0  0  0  0  0  0  0  0
    4.2440   -2.0114   -2.6108 F   0  0  0  0  0  0  0  0  0  0  0  0
  1 22  1  0  0  0  0
  3 44  1  0  0  0  0
  4 16  1  1  0  0  0
  4  5  1  0  0  0  0
  5  6  1  0  0  0  0
  7 17  1  0  0  0  0
  7  5  2  0  0  0  0
  8 27  1  6  0  0  0
  8 54  1  0  0  0  0
  9  8  1  0  0  0  0
  9 11  2  0  0  0  0
 10  9  1  0  0  0  0
 11 28  1  0  0  0  0
 11 53  1  0  0  0  0
 12 38  1  1  0  0  0
 12 56  1  0  0  0  0
 13 12  1  0  0  0  0
 13 15  2  0  0  0  0
 14 13  1  0  0  0  0
 15 55  1  0  0  0  0
 16 57  1  0  0  0  0
 17 18  1  0  0  0  0
 18 20  2  0  0  0  0
 18 19  1  0  0  0  0
 20 21  1  0  0  0  0
 22 20  1  0  0  0  0
 23 25  1  0  0  0  0
 23 22  2  0  0  0  0
 24 23  1  0  0  0  0
 25 17  2  0  0  0  0
 26 25  1  0  0  0  0
 27 62  1  0  0  0  0
 28 29  1  0  0  0  0
 29 31  2  0  0  0  0
 29 30  1  0  0  0  0
 31 32  1  0  0  0  0
 33  2  1  0  0  0  0
 33 31  1  0  0  0  0
 34 33  2  0  0  0  0
 35 34  1  0  0  0  0
 36 34  1  0  0  0  0
 36 28  2  0  0  0  0
 37 36  1  0  0  0  0
 38 64  1  0  0  0  0
 39 15  1  0  0  0  0
 39 47  1  0  0  0  0
 40 39  2  0  0  0  0
 41 40  1  0  0  0  0
 42 40  1  0  0  0  0
 42 44  2  0  0  0  0
 43 42  1  0  0  0  0
 44 45  1  0  0  0  0
 45 47  2  0  0  0  0
 45 46  1  0  0  0  0
 47 48  1  0  0  0  0
 49 50  1  1  0  0  0
 49 51  1  0  0  0  0
 51 52  1  0  0  0  0
 51  7  1  0  0  0  0
 52  4  1  0  0  0  0
 53 49  1  0  0  0  0
 54 53  1  0  0  0  0
 55 49  1  0  0  0  0
 56 55  1  0  0  0  0
 58 16  1  0  0  0  0
 59 16  1  0  0  0  0
 60 27  1  0  0  0  0
 61 27  1  0  0  0  0
 63 38  1  0  0  0  0
 65 38  1  0  0  0  0
M  END
