1,2,3
q = -2.0, confidence = 0.636

 51 53  0  0  1  0  0  0  0  0999 V2000
   -1.6353   -0.0877   -1.4191 N   0  0  0  0  0  2  0  0  0  0  0  0
    0.9714   -0.1168   -1.5610 N   0  0  0  0  0  2  0  0  0  0  0  0
    2.0224    0.0676    0.7822 N   0  0  0  0  0  2  0  0  0  0  0  0
   -3.0222   -0.3475   -1.2218 C   0  0  0  0  0  0  0  0  0  0  0  0
   -3.5110   -1.6845   -1.1113 C   0  0  0  0  0  0  0  0  0  0  0  0
   -4.8727   -1.8953   -0.8218 C   0  0  0  0  0  0  0  0  0  0  0  0
   -5.7570   -0.8212   -0.6646 C   0  0  0  0  0  0  0  0  0  0  0  0
   -5.2843    0.4888   -0.8137 C   0  0  0  0  0  0  0  0  0  0  0  0
   -3.9299    0.7455   -1.0983 C   0  0  0  0  0  0  0  0  0  0  0  0
   -2.5981   -2.8709   -1.2865 C   0  0  0  0  0  0  0  0  0  0  0  0
   -3.4501    2.1638   -1.2576 C   0  0  0  0  0  0  0  0  0  0  0  0
   -1.1307   -0.3231   -2.7720 C   0  0  0  0  0  0  0  0  0  0  0  0
    0.3330    0.1268   -2.8451 C   0  0  0  0  0  0  0  0  0  0  0  0
    2.4038   -0.1808   -1.5897 C   0  0  2  0  0  0  0  0  0  0  0  0
    2.9440   -1.5697   -2.1105 C   0  0  0  0  0  0  0  0  0  0  0  0
    2.5625   -2.6970   -1.1887 C   0  0  0  0  0  0  0  0  0  0  0  0
    1.2758   -3.2721   -1.2541 C   0  0  0  0  0  0  0  0  0  0  0  0
    0.8732   -4.2458   -0.3271 C   0  0  0  0  0  0  0  0  0  0  0  0
    1.7488   -4.6579    0.6888 C   0  0  0  0  0  0  0  0  0  0  0  0
    3.0358   -4.1006    0.7615 C   0  0  0  0  0  0  0  0  0  0  0  0
    3.4359   -3.1309   -0.1699 C   0  0  0  0  0  0  0  0  0  0  0  0
    2.9442    0.0723   -0.2074 C   0  0  2  0  0  3  0  0  0  0  0  0
    4.3083    0.2663    0.0677 C   0  0  0  0  0  0  0  0  0  0  0  0
    4.7216    0.4598    1.3885 C   0  0  0  0  0  0  0  0  0  0  0  0
    3.7566    0.4454    2.4113 C   0  0  0  0  0  0  0  0  0  0  0  0
    2.4200    0.2516    2.0633 C   0  0  0  0  0  0  0  0  0  0  0  0
   -5.2389   -2.9285   -0.7109 H   0  0  0  0  0  0  0  0  0  0  0  0
   -6.8168   -1.0054   -0.4319 H   0  0  0  0  0  0  0  0  0  0  0  0
   -5.9779    1.3388   -0.7120 H   0  0  0  0  0  0  0  0  0  0  0  0
   -1.5585   -2.6258   -0.9977 H   0  0  0  0  0  0  0  0  0  0  0  0
   -2.5711   -3.2079   -2.3451 H   0  0  0  0  0  0  0  0  0  0  0  0
   -2.9401   -3.7324   -0.6797 H   0  0  0  0  0  0  0  0  0  0  0  0
   -4.2949    2.8472   -1.4697 H   0  0  0  0  0  0  0  0  0  0  0  0
   -2.7045    2.2490   -2.0716 H   0  0  0  0  0  0  0  0  0  0  0  0
   -2.9478    2.5318   -0.3383 H   0  0  0  0  0  0  0  0  0  0  0  0
   -1.7380    0.2267   -3.5290 H   0  0  0  0  0  0  0  0  0  0  0  0
   -1.2061   -1.4043   -3.0461 H   0  0  0  0  0  0  0  0  0  0  0  0
    0.8433   -0.4149   -3.6774 H   0  0  0  0  0  0  0  0  0  0  0  0
    0.3893    1.2154   -3.0987 H   0  0  0  0  0  0  0  0  0  0  0  0
    2.8298    0.6066   -2.2614 H   0  0  0  0  0  0  0  0  0  0  0  0
    2.5176   -1.7225   -3.1230 H   0  0  0  0  0  0  0  0  0  0  0  0
    4.0454   -1.5130   -2.2301 H   0  0  0  0  0  0  0  0  0  0  0  0
    0.5862   -2.9530   -2.0495 H   0  0  0  0  0  0  0  0  0  0  0  0
   -0.1354   -4.6807   -0.3958 H   0  0  0  0  0  0  0  0  0  0  0  0
    1.4316   -5.4178    1.4190 H   0  0  0  0  0  0  0  0  0  0  0  0
    3.7345   -4.4247    1.5480 H   0  0  0  0  0  0  0  0  0  0  0  0
    4.4457   -2.6959   -0.1041 H   0  0  0  0  0  0  0  0  0  0  0  0
    5.0295    0.2790   -0.7619 H   0  0  0  0  0  0  0  0  0  0  0  0
    5.7833    0.6293    1.6226 H   0  0  0  0  0  0  0  0  0  0  0  0
    4.0323    0.5948    3.4644 H   0  0  0  0  0  0  0  0  0  0  0  0
    1.6219    0.2591    2.8214 H   0  0  0  0  0  0  0  0  0  0  0  0
  1  4  1  0  0  0  0
  3 26  1  0  0  0  0
  4  5  2  0  0  0  0
  4  9  1  0  0  0  0
  5  6  1  0  0  0  0
  6 27  1  0  0  0  0
  6  7  2  0  0  0  0
  7 28  1  0  0  0  0
  8 29  1  0  0  0  0
  8  7  1  0  0  0  0
  9  8  2  0  0  0  0
 10  5  1  0  0  0  0
 10 30  1  0  0  0  0
 10 32  1  0  0  0  0
 11  9  1  0  0  0  0
 11 35  1  0  0  0  0
 12  1  1  0  0  0  0
 13 12  1  0  0  0  0
 13  2  1  0  0  0  0
 14 40  1  6  0  0  0
 14  2  1  0  0  0  0
 15 14  1  0  0  0  0
 15 16  1  0  0  0  0
 16 21  1  0  0  0  0
 17 16  2  0  0  0  0
 17 18  1  0  0  0  0
 18 19  2  0  0  0  0
 19 20  1  0  0  0  0
 19 45  1  0  0  0  0
 20 46  1  0  0  0  0
 21 47  1  0  0  0  0
 21 20  2  0  0  0  0
 22 14  1  1  0  0  0
 22 23  1  0  0  0  0
 22  3  1  0  0  0  0
 23 24  2  0  0  0  0
 24 49  1  0  0  0  0
 24 25  1  0  0  0  0
 25 50  1  0  0  0  0
 26 25  2  0  0  0  0
 26 51  1  0  0  0  0
 31 10  1  0  0  0  0
 33 11  1  0  0  0  0
 34 11  1  0  0  0  0
 36 12  1  0  0  0  0
 37 12  1  0  0  0  0
 38 13  1  0  0  0  0
 39 13  1  0  0  0  0
 41 15  1  0  0  0  0
 42 15  1  0  0  0  0
 43 17  1  0  0  0  0
 44 18  1  0  0  0  0
 48 23  1  0  0  0  0
M  END
