4,6,8
q = -1.0

 37 39  0  0  1  0  0  0  0  0999 V2000
    1.2995    1.1207   -2.2011 S   0  0  0  0  0  0  0  0  0  0  0  0
   -1.6261    0.5659   -2.1972 S   0  0  0  0  0  0  0  0  0  0  0  0
    0.3170   -1.6905   -2.1975 S   0  0  0  0  0  0  0  0  0  0  0  0
    1.4355    1.3655    0.5782 N   0  0  0  0  0  2  0  0  0  0  0  0
    2.8164    2.6977   -0.5268 N   0  0  0  0  0  0  0  0  0  0  0  0
   -1.8996    0.5603    0.5826 N   0  0  0  0  0  2  0  0  0  0  0  0
   -3.7473    1.0874   -0.5179 N   0  0  0  0  0  0  0  0  0  0  0  0
    0.4656   -1.9242    0.5820 N   0  0  0  0  0  2  0  0  0  0  0  0
    0.9304   -3.7880   -0.5193 N   0  0  0  0  0  0  0  0  0  0  0  0
   -0.0026   -0.0010   -1.7879 C   0  0  1  0  0  3  0  0  0  0  0  0
    1.8522    1.7311   -0.6349 C   0  0  2  0  0  3  0  0  0  0  0  0
    2.1504    2.1064    1.5015 C   0  0  0  0  0  0  0  0  0  0  0  0
    1.9717    1.9757    2.5745 H   0  0  0  0  0  0  0  0  0  0  0  0
    3.0187    2.9389    0.8317 C   0  0  0  0  0  0  0  0  0  0  0  0
    3.7486    3.6757    1.1812 H   0  0  0  0  0  0  0  0  0  0  0  0
    3.5117    3.3167   -1.6393 C   0  0  0  0  0  0  0  0  0  0  0  0
    4.2875    2.6419   -2.0570 H   0  0  0  0  0  0  0  0  0  0  0  0
    3.9924    4.2509   -1.2959 H   0  0  0  0  0  0  0  0  0  0  0  0
    2.7885    3.5590   -2.4433 H   0  0  0  0  0  0  0  0  0  0  0  0
   -2.4276    0.7379   -0.6292 C   0  0  2  0  0  3  0  0  0  0  0  0
   -2.8969    0.8073    1.5083 C   0  0  0  0  0  0  0  0  0  0  0  0
   -2.6917    0.7178    2.5809 H   0  0  0  0  0  0  0  0  0  0  0  0
   -4.0541    1.1412    0.8413 C   0  0  0  0  0  0  0  0  0  0  0  0
   -5.0568    1.4031    1.1932 H   0  0  0  0  0  0  0  0  0  0  0  0
   -4.6340    1.3788   -1.6282 C   0  0  0  0  0  0  0  0  0  0  0  0
   -4.4428    2.3899   -2.0439 H   0  0  0  0  0  0  0  0  0  0  0  0
   -5.6826    1.3221   -1.2835 H   0  0  0  0  0  0  0  0  0  0  0  0
   -4.4799    0.6339   -2.4342 H   0  0  0  0  0  0  0  0  0  0  0  0
    0.5730   -2.4704   -0.6300 C   0  0  2  0  0  3  0  0  0  0  0  0
    0.7524   -2.9112    1.5072 C   0  0  0  0  0  0  0  0  0  0  0  0
    0.7297   -2.6888    2.5798 H   0  0  0  0  0  0  0  0  0  0  0  0
    1.0403   -4.0805    0.8397 C   0  0  0  0  0  0  0  0  0  0  0  0
    1.3157   -5.0797    1.1912 H   0  0  0  0  0  0  0  0  0  0  0  0
    1.1183   -4.7022   -1.6298 C   0  0  0  0  0  0  0  0  0  0  0  0
    0.1459   -5.0443   -2.0410 H   0  0  0  0  0  0  0  0  0  0  0  0
    1.6946   -5.5807   -1.2868 H   0  0  0  0  0  0  0  0  0  0  0  0
    1.6820   -4.1959   -2.4385 H   0  0  0  0  0  0  0  0  0  0  0  0
  2 10  1  0  0  0  0
  3 10  1  0  0  0  0
  4 12  1  0  0  0  0
  5 14  1  0  0  0  0
  6 21  1  0  0  0  0
  7 23  1  0  0  0  0
  8 30  1  0  0  0  0
  9 32  1  0  0  0  0
 10  1  1  6  0  0  0
 11  1  1  6  0  0  0
 11  5  1  0  0  0  0
 11  4  1  0  0  0  0
 12 13  1  0  0  0  0
 14 15  1  0  0  0  0
 14 12  2  0  0  0  0
 16 18  1  0  0  0  0
 16  5  1  0  0  0  0
 17 16  1  0  0  0  0
 19 16  1  0  0  0  0
 20  2  1  6  0  0  0
 20  7  1  0  0  0  0
 20  6  1  0  0  0  0
 21 22  1  0  0  0  0
 23 24  1  0  0  0  0
 23 21  2  0  0  0  0
 25 27  1  0  0  0  0
 25  7  1  0  0  0  0
 26 25  1  0  0  0  0
 28 25  1  0  0  0  0
 29  3  1  6  0  0  0
 29  9  1  0  0  0  0
 29  8  1  0  0  0  0
 30 31  1  0  0  0  0
 32 33  1  0  0  0  0
 32 30  2  0  0  0  0
 34 36  1  0  0  0  0
 34  9  1  0  0  0  0
 35 34  1  0  0  0  0
 37 34  1  0  0  0  0
M  END
