1,2,31
q = -1.0, confidence = 0.0

 31 31  0  0  0  0  0  0  0  0999 V2000
   -1.7968   -0.5545   -1.1070 N   0  0  0  0  0  0  0  0  0  0  0  0
   -0.3146   -2.6430   -0.2700 N   0  0  0  0  0  0  0  0  0  0  0  0
   -3.9946   -0.6887   -1.6488 C   0  0  0  0  0  0  0  0  0  0  0  0
   -5.0626   -0.4507   -1.7293 H   0  0  0  0  0  0  0  0  0  0  0  0
   -3.0180    0.0852   -1.0165 C   0  0  0  0  0  3  0  0  0  0  0  0
   -0.8628   -2.7259   -1.6585 C   0  0  0  0  0  0  0  0  0  0  0  0
   -0.0209   -2.4782   -2.3410 H   0  0  0  0  0  0  0  0  0  0  0  0
   -1.1959   -3.7633   -1.9012 H   0  0  0  0  0  0  0  0  0  0  0  0
   -1.9956   -1.7565   -1.7562 C   0  0  0  0  0  0  0  0  0  0  0  0
   -3.3386   -1.8716   -2.1228 C   0  0  0  0  0  0  0  0  0  0  0  0
   -3.8037   -2.7218   -2.6371 H   0  0  0  0  0  0  0  0  0  0  0  0
    0.9052   -3.4387   -0.1377 C   0  0  0  0  0  0  0  0  0  0  0  0
    1.3490   -3.2782    0.8631 H   0  0  0  0  0  0  0  0  0  0  0  0
    1.6369   -3.1248   -0.9000 H   0  0  0  0  0  0  0  0  0  0  0  0
    0.6992   -4.5292   -0.2663 H   0  0  0  0  0  0  0  0  0  0  0  0
   -1.3003   -3.1128    0.7145 C   0  0  0  0  0  0  0  0  0  0  0  0
   -1.4725   -4.2122    0.6220 H   0  0  0  0  0  0  0  0  0  0  0  0
   -2.2654   -2.6012    0.5511 H   0  0  0  0  0  0  0  0  0  0  0  0
   -0.9363   -2.8876    1.7355 H   0  0  0  0  0  0  0  0  0  0  0  0
   -3.0678    1.2632   -0.0964 C   0  0  0  0  0  0  0  0  0  0  0  0
   -2.6007    2.1656   -0.5412 H   0  0  0  0  0  0  0  0  0  0  0  0
   -4.1196    1.5247    0.1703 H   0  0  0  0  0  0  0  0  0  0  0  0
   -2.0288    2.1141    1.9497 C   0  0  0  0  0  0  0  0  0  0  0  0
   -1.4728    2.8684    1.3689 H   0  0  0  0  0  0  0  0  0  0  0  0
   -1.4129    1.8258    2.8229 H   0  0  0  0  0  0  0  0  0  0  0  0
   -2.9845    2.5566    2.3222 H   0  0  0  0  0  0  0  0  0  0  0  0
   -2.9355   -0.1006    1.9172 C   0  0  0  0  0  0  0  0  0  0  0  0
   -2.2429   -0.4719    2.6965 H   0  0  0  0  0  0  0  0  0  0  0  0
   -3.2351   -0.9405    1.2641 H   0  0  0  0  0  0  0  0  0  0  0  0
   -3.8567    0.2985    2.4065 H   0  0  0  0  0  0  0  0  0  0  0  0
   -2.2648    0.9325    1.1176 N   0  0  0  0  0  0  0  0  0  0  0  0
  1  5  1  0  0  0  0
  2 12  1  0  0  0  0
  2 16  1  0  0  0  0
  3  5  1  0  0  0  0
  4  3  1  0  0  0  0
  5 20  1  0  0  0  0
  6  2  1  0  0  0  0
  7  6  1  0  0  0  0
  8  6  1  0  0  0  0
  9  6  1  0  0  0  0
  9  1  2  0  0  0  0
 10  9  1  0  0  0  0
 10  3  2  0  0  0  0
 11 10  1  0  0  0  0
 12 13  1  0  0  0  0
 14 12  1  0  0  0  0
 15 12  1  0  0  0  0
 16 19  1  0  0  0  0
 17 16  1  0  0  0  0
 18 16  1  0  0  0  0
 20 22  1  0  0  0  0
 20 31  1  0  0  0  0
 21 20  1  0  0  0  0
 23 26  1  0  0  0  0
 23 25  1  0  0  0  0
 24 23  1  0  0  0  0
 27 30  1  0  0  0  0
 27 28  1  0  0  0  0
 29 27  1  0  0  0  0
 31 27  1  0  0  0  0
 31 23  1  0  0  0  0
M  END
