1,2,3
q = -1.0

 40 42  0  0  0  0  0  0  0  0999 V2000
    1.8142   -1.3164    0.1321 N   0  0  0  0  0  0  0  0  0  0  0  0
    0.3478    0.8516    0.0110 N   0  0  0  0  0  2  0  0  0  0  0  0
   -1.9626   -0.3533   -0.0892 N   0  0  0  0  0  0  0  0  0  0  0  0
    2.2075   -2.2095   -0.9920 C   0  0  0  0  0  0  0  0  0  0  0  0
    2.0197   -1.6832   -1.9457 H   0  0  0  0  0  0  0  0  0  0  0  0
    1.5896   -3.1243   -0.9460 H   0  0  0  0  0  0  0  0  0  0  0  0
    3.2863   -2.4665   -0.9269 H   0  0  0  0  0  0  0  0  0  0  0  0
    2.0749   -1.9704    1.4424 C   0  0  0  0  0  0  0  0  0  0  0  0
    3.1535   -2.2180    1.5474 H   0  0  0  0  0  0  0  0  0  0  0  0
    1.4617   -2.8885    1.5027 H   0  0  0  0  0  0  0  0  0  0  0  0
    1.7839   -1.2751    2.2509 H   0  0  0  0  0  0  0  0  0  0  0  0
    2.5284   -0.0293    0.0332 C   0  0  0  0  0  0  0  0  0  0  0  0
    3.9223    0.0524    0.0113 C   0  0  0  0  0  0  0  0  0  0  0  0
    4.5305   -0.8593    0.1091 H   0  0  0  0  0  0  0  0  0  0  0  0
    4.5495    1.2988   -0.1523 C   0  0  0  0  0  0  0  0  0  0  0  0
    5.6463    1.3701   -0.1703 H   0  0  0  0  0  0  0  0  0  0  0  0
    3.7496    2.4405   -0.3194 C   0  0  0  0  0  0  0  0  0  0  0  0
    4.2231    3.4200   -0.4888 H   0  0  0  0  0  0  0  0  0  0  0  0
    2.3515    2.3663   -0.2856 C   0  0  0  0  0  0  0  0  0  0  0  0
    1.7702    3.2756   -0.4662 H   0  0  0  0  0  0  0  0  0  0  0  0
    1.6982    1.1199   -0.0717 C   0  0  0  0  0  0  0  0  0  0  0  0
   -0.7128    1.7306    0.0757 C   0  0  0  0  0  0  0  0  0  0  0  0
   -0.6995    3.1411    0.2650 C   0  0  0  0  0  0  0  0  0  0  0  0
    0.2418    3.6707    0.4409 H   0  0  0  0  0  0  0  0  0  0  0  0
   -1.8964    3.8682    0.2788 C   0  0  0  0  0  0  0  0  0  0  0  0
   -1.8513    4.9580    0.4283 H   0  0  0  0  0  0  0  0  0  0  0  0
   -3.1407    3.2379    0.1154 C   0  0  0  0  0  0  0  0  0  0  0  0
   -4.0729    3.8206    0.1153 H   0  0  0  0  0  0  0  0  0  0  0  0
   -3.1771    1.8405   -0.0214 C   0  0  0  0  0  0  0  0  0  0  0  0
   -4.1447    1.3237   -0.1175 H   0  0  0  0  0  0  0  0  0  0  0  0
   -1.9871    1.1064   -0.0208 C   0  0  0  0  0  0  0  0  0  0  0  0
   -2.7266   -0.9723   -1.2599 C   0  0  0  0  0  0  0  0  0  0  0  0
   -2.0663   -1.6068   -1.8773 H   0  0  0  0  0  0  0  0  0  0  0  0
   -3.1969   -0.1856   -1.8806 H   0  0  0  0  0  0  0  0  0  0  0  0
   -3.6604   -1.7304   -0.2975 C   0  0  0  0  0  0  0  0  0  0  0  0
   -4.7343   -1.4777   -0.3875 H   0  0  0  0  0  0  0  0  0  0  0  0
   -3.5185   -2.8252   -0.3249 H   0  0  0  0  0  0  0  0  0  0  0  0
   -2.9228   -1.0547    0.8740 C   0  0  0  0  0  0  0  0  0  0  0  0
   -3.5047   -0.3145    1.4549 H   0  0  0  0  0  0  0  0  0  0  0  0
   -2.3813   -1.7408    1.5481 H   0  0  0  0  0  0  0  0  0  0  0  0
  1  8  1  0  0  0  0
  2 22  1  0  0  0  0
  3 31  1  0  0  0  0
  3 38  1  0  0  0  0
  4  6  1  0  0  0  0
  4  7  1  0  0  0  0
  4  1  1  0  0  0  0
  5  4  1  0  0  0  0
  8 10  1  0  0  0  0
  8  9  1  0  0  0  0
  8 11  1  0  0  0  0
 12  1  1  0  0  0  0
 13 12  1  0  0  0  0
 13 14  1  0  0  0  0
 15 13  2  0  0  0  0
 16 15  1  0  0  0  0
 17 19  2  0  0  0  0
 17 15  1  0  0  0  0
 18 17  1  0  0  0  0
 19 21  1  0  0  0  0
 20 19  1  0  0  0  0
 21  2  1  0  0  0  0
 21 12  2  0  0  0  0
 22 23  1  0  0  0  0
 23 25  2  0  0  0  0
 23 24  1  0  0  0  0
 25 26  1  0  0  0  0
 27 25  1  0  0  0  0
 28 27  1  0  0  0  0
 29 31  1  0  0  0  0
 29 27  2  0  0  0  0
 30 29  1  0  0  0  0
 31 22  2  0  0  0  0
 32 35  1  0  0  0  0
 32  3  1  0  0  0  0
 33 32  1  0  0  0  0
 34 32  1  0  0  0  0
 35 38  1  0  0  0  0
 36 35  1  0  0  0  0
 37 35  1  0  0  0  0
 38 39  1  0  0  0  0
 38 40  1  0  0  0  0
M  END
