6,7,8
q = 0.0, confidence = 0.974

 70 74  0  0  1  0  0  0  0  0999 V2000
   -6.5666    0.4641    0.0765 O   0  0  0  0  0  0  0  0  0  0  0  0
   -8.4908   -2.9746   -1.0719 O   0  0  0  0  0  0  0  0  0  0  0  0
   -6.2506   -4.1704   -1.1220 O   0  0  0  0  0  0  0  0  0  0  0  0
   -7.2541   -3.9394   -1.1808 H   0  0  0  0  0  0  0  0  0  0  0  0
   -2.3264   -1.7883   -0.0154 O   0  0  0  0  0  0  0  0  0  0  0  0
    4.5624    0.6858    1.4256 N   0  0  0  0  0  0  0  0  0  0  0  0
    5.0796   -1.7833    0.3288 N   0  0  0  0  0  2  0  0  0  0  0  0
    5.4315    2.0668   -0.7646 N   0  0  0  0  0  2  0  0  0  0  0  0
   -7.9217    0.4661   -0.0864 C   0  0  0  0  0  0  0  0  0  0  0  0
   -8.5977   -0.6667   -0.4696 C   0  0  0  0  0  0  0  0  0  0  0  0
   -9.6865   -0.6550   -0.5970 H   0  0  0  0  0  0  0  0  0  0  0  0
   -7.9052   -1.9160   -0.7194 C   0  0  0  0  0  0  0  0  0  0  0  0
   -5.6627   -3.0391   -0.7497 C   0  0  0  0  0  0  0  0  0  0  0  0
   -4.2738   -2.9628   -0.5628 C   0  0  0  0  0  0  0  0  0  0  0  0
   -3.6463   -3.8484   -0.7247 H   0  0  0  0  0  0  0  0  0  0  0  0
   -3.6809   -1.7466   -0.1668 C   0  0  0  0  0  0  0  0  0  0  0  0
   -4.4444   -0.5801    0.0535 C   0  0  0  0  0  0  0  0  0  0  0  0
   -4.0106    0.3777    0.3610 H   0  0  0  0  0  0  0  0  0  0  0  0
   -5.8304   -0.6720   -0.1378 C   0  0  0  0  0  0  0  0  0  0  0  0
   -6.4623   -1.8662   -0.5326 C   0  0  0  0  0  0  0  0  0  0  0  0
   -8.5213    1.7847    0.1928 C   0  0  0  0  0  0  0  0  0  0  0  0
   -7.7074    2.8707    0.5900 C   0  0  0  0  0  0  0  0  0  0  0  0
   -6.6243    2.7201    0.6878 H   0  0  0  0  0  0  0  0  0  0  0  0
   -8.2724    4.1240    0.8566 C   0  0  0  0  0  0  0  0  0  0  0  0
   -7.6249    4.9586    1.1649 H   0  0  0  0  0  0  0  0  0  0  0  0
   -9.6567    4.3176    0.7322 C   0  0  0  0  0  0  0  0  0  0  0  0
  -10.1001    5.3026    0.9417 H   0  0  0  0  0  0  0  0  0  0  0  0
  -10.4747    3.2454    0.3378 C   0  0  0  0  0  0  0  0  0  0  0  0
  -11.5610    3.3873    0.2372 H   0  0  0  0  0  0  0  0  0  0  0  0
   -9.9152    1.9919    0.0706 C   0  0  0  0  0  0  0  0  0  0  0  0
  -10.5726    1.1669   -0.2371 H   0  0  0  0  0  0  0  0  0  0  0  0
    5.3066    1.9623    1.6627 C   0  0  0  0  0  0  0  0  0  0  0  0
    4.8659    2.5357    2.5066 H   0  0  0  0  0  0  0  0  0  0  0  0
    6.3486    1.6987    1.9402 H   0  0  0  0  0  0  0  0  0  0  0  0
    4.9426   -0.4228    2.3537 C   0  0  0  0  0  0  0  0  0  0  0  0
    4.3288   -0.3968    3.2798 H   0  0  0  0  0  0  0  0  0  0  0  0
    5.9986   -0.2578    2.6545 H   0  0  0  0  0  0  0  0  0  0  0  0
    4.8527   -1.7730    1.6749 C   0  0  2  0  0  3  0  0  0  0  0  0
    4.6209   -2.9658    2.3679 C   0  0  0  0  0  0  0  0  0  0  0  0
    4.4345   -2.9420    3.4513 H   0  0  0  0  0  0  0  0  0  0  0  0
    4.6300   -4.1798    1.6633 C   0  0  0  0  0  0  0  0  0  0  0  0
    4.4489   -5.1271    2.1922 H   0  0  0  0  0  0  0  0  0  0  0  0
    4.8673   -4.1682    0.2821 C   0  0  0  0  0  0  0  0  0  0  0  0
    4.8821   -5.0969   -0.3053 H   0  0  0  0  0  0  0  0  0  0  0  0
    5.0866   -2.9448   -0.3597 C   0  0  0  0  0  0  0  0  0  0  0  0
    5.2851   -2.8505   -1.4391 H   0  0  0  0  0  0  0  0  0  0  0  0
    5.3415    2.7858    0.3940 C   0  0  1  0  0  3  0  0  0  0  0  0
    5.3511    4.1835    0.3690 C   0  0  0  0  0  0  0  0  0  0  0  0
    5.2692    4.7488    1.3084 H   0  0  0  0  0  0  0  0  0  0  0  0
    5.4737    4.8437   -0.8649 C   0  0  0  0  0  0  0  0  0  0  0  0
    5.4872    5.9429   -0.9042 H   0  0  0  0  0  0  0  0  0  0  0  0
    5.5745    4.0874   -2.0399 C   0  0  0  0  0  0  0  0  0  0  0  0
    5.6738    4.5670   -3.0237 H   0  0  0  0  0  0  0  0  0  0  0  0
    5.5435    2.6904   -1.9559 C   0  0  0  0  0  0  0  0  0  0  0  0
    5.6210    2.0255   -2.8306 H   0  0  0  0  0  0  0  0  0  0  0  0
   -1.6354   -0.6181    0.3849 C   0  0  0  0  0  0  0  0  0  0  0  0
   -2.0078   -0.2614    1.3747 H   0  0  0  0  0  0  0  0  0  0  0  0
   -1.8027    0.2075   -0.3471 H   0  0  0  0  0  0  0  0  0  0  0  0
    3.0869    0.9566    1.4181 C   0  0  0  0  0  0  0  0  0  0  0  0
    2.9329    1.8303    0.7523 H   0  0  0  0  0  0  0  0  0  0  0  0
    2.8033    1.2768    2.4479 H   0  0  0  0  0  0  0  0  0  0  0  0
   -0.1574   -0.9763    0.4627 C   0  0  0  0  0  0  0  0  0  0  0  0
    0.1669   -1.3459   -0.5335 H   0  0  0  0  0  0  0  0  0  0  0  0
   -0.0427   -1.8310    1.1635 H   0  0  0  0  0  0  0  0  0  0  0  0
    2.2088   -0.1996    0.9571 C   0  0  0  0  0  0  0  0  0  0  0  0
    2.3283   -1.0737    1.6321 H   0  0  0  0  0  0  0  0  0  0  0  0
    2.5424   -0.5324   -0.0496 H   0  0  0  0  0  0  0  0  0  0  0  0
    0.7272    0.1902    0.9054 C   0  0  0  0  0  0  0  0  0  0  0  0
    0.3997    0.5536    1.9051 H   0  0  0  0  0  0  0  0  0  0  0  0
    0.5965    1.0488    0.2095 H   0  0  0  0  0  0  0  0  0  0  0  0
  2 12  2  0  0  0  0
  3 13  1  0  0  0  0
  4  3  1  0  0  0  0
  5 56  1  0  0  0  0
  6 32  1  0  0  0  0
  6 35  1  0  0  0  0
  7 38  1  0  0  0  0
  8 47  1  0  0  0  0
  9  1  1  0  0  0  0
  9 21  1  0  0  0  0
 10  9  2  0  0  0  0
 11 10  1  0  0  0  0
 12 20  1  0  0  0  0
 12 10  1  0  0  0  0
 13 14  2  0  0  0  0
 13 20  1  0  0  0  0
 14 16  1  0  0  0  0
 15 14  1  0  0  0  0
 16  5  1  0  0  0  0
 16 17  2  0  0  0  0
 17 18  1  0  0  0  0
 19 17  1  0  0  0  0
 19  1  1  0  0  0  0
 20 19  2  0  0  0  0
 21 22  1  0  0  0  0
 22 23  1  0  0  0  0
 22 24  2  0  0  0  0
 24 25  1  0  0  0  0
 26 24  1  0  0  0  0
 26 27  1  0  0  0  0
 28 26  2  0  0  0  0
 29 28  1  0  0  0  0
 30 21  2  0  0  0  0
 30 28  1  0  0  0  0
 31 30  1  0  0  0  0
 32 34  1  0  0  0  0
 32 33  1  0  0  0  0
 35 37  1  0  0  0  0
 35 36  1  0  0  0  0
 38 35  1  1  0  0  0
 38 39  1  0  0  0  0
 39 40  1  0  0  0  0
 41 42  1  0  0  0  0
 41 39  2  0  0  0  0
 43 41  1  0  0  0  0
 44 43  1  0  0  0  0
 45 43  2  0  0  0  0
 45  7  1  0  0  0  0
 46 45  1  0  0  0  0
 47 32  1  1  0  0  0
 48 47  1  0  0  0  0
 48 49  1  0  0  0  0
 50 48  2  0  0  0  0
 51 50  1  0  0  0  0
 52 54  2  0  0  0  0
 52 50  1  0  0  0  0
 53 52  1  0  0  0  0
 54  8  1  0  0  0  0
 55 54  1  0  0  0  0
 56 62  1  0  0  0  0
 56 57  1  0  0  0  0
 58 56  1  0  0  0  0
 59  6  1  0  0  0  0
 59 61  1  0  0  0  0
 60 59  1  0  0  0  0
 62 68  1  0  0  0  0
 62 64  1  0  0  0  0
 63 62  1  0  0  0  0
 65 59  1  0  0  0  0
 65 66  1  0  0  0  0
 67 65  1  0  0  0  0
 68 65  1  0  0  0  0
 68 69  1  0  0  0  0
 70 68  1  0  0  0  0
M  END
