1,2,3
q = 0.0, confidence = 1.0

 28 28  0  0  0  0  0  0  0  0999 V2000
   -1.3336    1.3236   -0.2597 N   0  0  0  0  0  2  0  0  0  0  0  0
   -0.6442   -1.0298   -1.2530 N   0  0  0  0  0  2  0  0  0  0  0  0
    1.8857   -1.5619   -0.2802 N   0  0  0  0  0  0  0  0  0  0  0  0
   -1.5957    2.5556    0.1926 C   0  0  0  0  0  3  0  0  0  0  0  0
   -0.7485    3.0835    0.6619 H   0  0  0  0  0  0  0  0  0  0  0  0
   -2.8688    3.1355    0.0731 C   0  0  0  0  0  0  0  0  0  0  0  0
   -3.0494    4.1511    0.4532 H   0  0  0  0  0  0  0  0  0  0  0  0
   -3.8937    2.3913   -0.5323 C   0  0  0  0  0  0  0  0  0  0  0  0
   -4.9046    2.8135   -0.6342 H   0  0  0  0  0  0  0  0  0  0  0  0
   -3.6161    1.1005   -1.0004 C   0  0  0  0  0  0  0  0  0  0  0  0
   -4.3931    0.4803   -1.4706 H   0  0  0  0  0  0  0  0  0  0  0  0
   -2.3116    0.6000   -0.8516 C   0  0  0  0  0  0  0  0  0  0  0  0
   -1.8962   -0.7373   -1.3259 C   0  0  0  0  0  3  0  0  0  0  0  0
   -2.6644   -1.4263   -1.7300 H   0  0  0  0  0  0  0  0  0  0  0  0
   -0.0948   -2.3186   -1.6008 C   0  0  0  0  0  0  0  0  0  0  0  0
    0.3568   -2.2422   -2.6151 H   0  0  0  0  0  0  0  0  0  0  0  0
   -0.8669   -3.1188   -1.6398 H   0  0  0  0  0  0  0  0  0  0  0  0
    0.9868   -2.6907   -0.5700 C   0  0  0  0  0  0  0  0  0  0  0  0
    0.4912   -2.9681    0.3811 H   0  0  0  0  0  0  0  0  0  0  0  0
    1.5551   -3.5814   -0.9321 H   0  0  0  0  0  0  0  0  0  0  0  0
    2.7425   -1.2111   -1.4214 C   0  0  0  0  0  0  0  0  0  0  0  0
    3.4169   -0.3802   -1.1379 H   0  0  0  0  0  0  0  0  0  0  0  0
    2.1300   -0.8742   -2.2802 H   0  0  0  0  0  0  0  0  0  0  0  0
    3.3647   -2.0792   -1.7459 H   0  0  0  0  0  0  0  0  0  0  0  0
    2.6881   -1.8122    0.9263 C   0  0  0  0  0  0  0  0  0  0  0  0
    2.0110   -1.9608    1.7895 H   0  0  0  0  0  0  0  0  0  0  0  0
    3.3316   -0.9330    1.1241 H   0  0  0  0  0  0  0  0  0  0  0  0
    3.3406   -2.7096    0.8084 H   0  0  0  0  0  0  0  0  0  0  0  0
  1  4  1  0  0  0  0
  3 25  1  0  0  0  0
  4  5  1  0  0  0  0
  6  4  1  0  0  0  0
  6  7  1  0  0  0  0
  8  6  2  0  0  0  0
  9  8  1  0  0  0  0
 10 12  2  0  0  0  0
 10  8  1  0  0  0  0
 11 10  1  0  0  0  0
 12  1  1  0  0  0  0
 13  2  1  0  0  0  0
 13 12  1  0  0  0  0
 14 13  1  0  0  0  0
 15  2  1  0  0  0  0
 15 18  1  0  0  0  0
 16 15  1  0  0  0  0
 17 15  1  0  0  0  0
 18  3  1  0  0  0  0
 18 19  1  0  0  0  0
 20 18  1  0  0  0  0
 21 22  1  0  0  0  0
 21  3  1  0  0  0  0
 23 21  1  0  0  0  0
 24 21  1  0  0  0  0
 25 27  1  0  0  0  0
 25 26  1  0  0  0  0
 28 25  1  0  0  0  0
M  END
