1,2,3
q = -1.0

 33 36  0  0  1  0  0  0  0  0999 V2000
    2.0039   -0.3619   -0.6162 N   0  0  0  0  0  2  0  0  0  0  0  0
   -0.0235    1.3345   -0.0886 N   0  0  0  0  0  2  0  0  0  0  0  0
   -2.0235   -0.4195   -0.5170 N   0  0  0  0  0  2  0  0  0  0  0  0
    2.9605   -1.2606   -0.8696 C   0  0  0  0  0  0  0  0  0  0  0  0
    2.6219   -2.2656   -1.1528 H   0  0  0  0  0  0  0  0  0  0  0  0
    4.3285   -0.9327   -0.7636 C   0  0  0  0  0  0  0  0  0  0  0  0
    5.0809   -1.7037   -0.9794 H   0  0  0  0  0  0  0  0  0  0  0  0
    4.6895    0.3491   -0.3819 C   0  0  0  0  0  0  0  0  0  0  0  0
    5.7490    0.6317   -0.2860 H   0  0  0  0  0  0  0  0  0  0  0  0
    3.6902    1.3218   -0.0924 C   0  0  0  0  0  0  0  0  0  0  0  0
    3.9951    2.6433    0.3326 C   0  0  0  0  0  0  0  0  0  0  0  0
    5.0472    2.9458    0.4325 H   0  0  0  0  0  0  0  0  0  0  0  0
    2.9575    3.5181    0.6346 C   0  0  0  0  0  0  0  0  0  0  0  0
    3.1893    4.5353    0.9855 H   0  0  0  0  0  0  0  0  0  0  0  0
    1.6034    3.1428    0.5161 C   0  0  0  0  0  0  0  0  0  0  0  0
    0.8365    3.8680    0.8026 H   0  0  0  0  0  0  0  0  0  0  0  0
    1.2309    1.8532    0.0747 C   0  0  0  0  0  0  0  0  0  0  0  0
    2.3153    0.9271   -0.2224 C   0  0  2  0  0  3  0  0  0  0  0  0
   -2.9652   -1.3554   -0.6687 C   0  0  0  0  0  0  0  0  0  0  0  0
   -2.6124   -2.3686   -0.9006 H   0  0  0  0  0  0  0  0  0  0  0  0
   -4.3365   -1.0548   -0.5286 C   0  0  0  0  0  0  0  0  0  0  0  0
   -5.0753   -1.8577   -0.6580 H   0  0  0  0  0  0  0  0  0  0  0  0
   -4.7179    0.2440   -0.2349 C   0  0  0  0  0  0  0  0  0  0  0  0
   -5.7808    0.5101   -0.1296 H   0  0  0  0  0  0  0  0  0  0  0  0
   -3.7346    1.2591   -0.0571 C   0  0  0  0  0  0  0  0  0  0  0  0
   -4.0600    2.6093    0.2444 C   0  0  0  0  0  0  0  0  0  0  0  0
   -5.1161    2.8971    0.3462 H   0  0  0  0  0  0  0  0  0  0  0  0
   -3.0371    3.5379    0.4014 C   0  0  0  0  0  0  0  0  0  0  0  0
   -3.2852    4.5875    0.6211 H   0  0  0  0  0  0  0  0  0  0  0  0
   -1.6776    3.1786    0.2964 C   0  0  0  0  0  0  0  0  0  0  0  0
   -0.9226    3.9597    0.4235 H   0  0  0  0  0  0  0  0  0  0  0  0
   -1.2847    1.8491    0.0216 C   0  0  0  0  0  0  0  0  0  0  0  0
   -2.3545    0.8832   -0.1903 C   0  0  1  0  0  3  0  0  0  0  0  0
  2 32  1  0  0  0  0
  2 17  1  0  0  0  0
  4  6  2  0  0  0  0
  4  1  1  0  0  0  0
  5  4  1  0  0  0  0
  6  8  1  0  0  0  0
  7  6  1  0  0  0  0
  8  9  1  0  0  0  0
  8 10  2  0  0  0  0
 10 11  1  0  0  0  0
 11 12  1  0  0  0  0
 11 13  2  0  0  0  0
 13 14  1  0  0  0  0
 15 13  1  0  0  0  0
 15 16  1  0  0  0  0
 17 15  2  0  0  0  0
 18  1  1  1  0  0  0
 18 10  1  0  0  0  0
 18 17  1  0  0  0  0
 19 21  2  0  0  0  0
 19  3  1  0  0  0  0
 20 19  1  0  0  0  0
 21 23  1  0  0  0  0
 22 21  1  0  0  0  0
 23 24  1  0  0  0  0
 23 25  2  0  0  0  0
 25 26  1  0  0  0  0
 26 27  1  0  0  0  0
 26 28  2  0  0  0  0
 28 29  1  0  0  0  0
 30 28  1  0  0  0  0
 30 31  1  0  0  0  0
 32 30  2  0  0  0  0
 33  3  1  1  0  0  0
 33 25  1  0  0  0  0
 33 32  1  0  0  0  0
M  END
