2,3,4
q = 0.0, confidence = 0.876

 68 70  0  0  1  0  0  0  0  0999 V2000
   -3.5522   -0.2017    1.8600 O   0  0  0  0  0  0  0  0  0  0  0  0
    1.6684    0.5239    0.0273 N   0  0  0  0  0  2  0  0  0  0  0  0
   -0.2590    2.0150   -0.1217 N   0  0  0  0  0  2  0  0  0  0  0  0
   -2.1243    0.4684   -0.3230 N   0  0  0  0  0  2  0  0  0  0  0  0
    3.4807    2.2721    0.0274 C   0  0  0  0  0  0  0  0  0  0  0  0
    2.0538    1.8124   -0.0059 C   0  0  0  0  0  0  0  0  0  0  0  0
    0.9380    2.7122   -0.0845 C   0  0  0  0  0  0  0  0  0  0  0  0
    0.9396    4.1128   -0.1720 C   0  0  0  0  0  0  0  0  0  0  0  0
   -0.2793    4.7996   -0.3226 C   0  0  0  0  0  0  0  0  0  0  0  0
   -1.4842    4.0789   -0.4004 C   0  0  0  0  0  0  0  0  0  0  0  0
   -1.4632    2.6777   -0.3091 C   0  0  0  0  0  0  0  0  0  0  0  0
   -2.5455    1.7410   -0.4107 C   0  0  2  0  0  3  0  0  0  0  0  0
   -3.9889    2.1075   -0.5634 C   0  0  0  0  0  0  0  0  0  0  0  0
   -3.0665   -0.5950   -0.4053 C   0  0  0  0  0  0  0  0  0  0  0  0
   -3.7729   -0.9793    0.7648 C   0  0  0  0  0  0  0  0  0  0  0  0
   -4.6303   -2.0932    0.7307 C   0  0  0  0  0  0  0  0  0  0  0  0
   -4.7942   -2.7984   -0.4723 C   0  0  0  0  0  0  0  0  0  0  0  0
   -4.1164   -2.4039   -1.6315 C   0  0  0  0  0  0  0  0  0  0  0  0
   -3.2414   -1.2984   -1.6176 C   0  0  0  0  0  0  0  0  0  0  0  0
   -2.5040   -0.8577   -2.8541 C   0  0  0  0  0  0  0  0  0  0  0  0
   -4.0175   -0.6540    3.1180 C   0  0  0  0  0  0  0  0  0  0  0  0
    2.6485   -0.5153   -0.0668 C   0  0  0  0  0  0  0  0  0  0  0  0
    3.2796   -1.0254    1.0957 C   0  0  0  0  0  0  0  0  0  0  0  0
    4.2272   -2.0550    0.9375 C   0  0  0  0  0  0  0  0  0  0  0  0
    4.5407   -2.5673   -0.3263 C   0  0  0  0  0  0  0  0  0  0  0  0
    3.8943   -2.0613   -1.4614 C   0  0  0  0  0  0  0  0  0  0  0  0
    2.9373   -1.0367   -1.3592 C   0  0  0  0  0  0  0  0  0  0  0  0
    2.9452   -0.5051    2.4871 C   0  0  0  0  0  0  0  0  0  0  0  0
    2.3677   -1.6227    3.3722 C   0  0  0  0  0  0  0  0  0  0  0  0
    4.1604    0.1592    3.1569 C   0  0  0  0  0  0  0  0  0  0  0  0
    2.2511   -0.4846   -2.6037 C   0  0  0  0  0  0  0  0  0  0  0  0
    1.7296   -1.5911   -3.5331 C   0  0  0  0  0  0  0  0  0  0  0  0
    3.1746    0.4886   -3.3578 C   0  0  0  0  0  0  0  0  0  0  0  0
    3.6577    3.0818   -0.7087 H   0  0  0  0  0  0  0  0  0  0  0  0
    3.7478    2.6750    1.0283 H   0  0  0  0  0  0  0  0  0  0  0  0
    4.1742    1.4399   -0.1928 H   0  0  0  0  0  0  0  0  0  0  0  0
    1.8922    4.6603   -0.1345 H   0  0  0  0  0  0  0  0  0  0  0  0
   -0.2881    5.8963   -0.3975 H   0  0  0  0  0  0  0  0  0  0  0  0
   -2.4404    4.6022   -0.5434 H   0  0  0  0  0  0  0  0  0  0  0  0
   -4.4728    1.5070   -1.3602 H   0  0  0  0  0  0  0  0  0  0  0  0
   -4.5422    1.8978    0.3768 H   0  0  0  0  0  0  0  0  0  0  0  0
   -4.1129    3.1782   -0.8087 H   0  0  0  0  0  0  0  0  0  0  0  0
   -5.1721   -2.4090    1.6321 H   0  0  0  0  0  0  0  0  0  0  0  0
   -5.4646   -3.6707   -0.4980 H   0  0  0  0  0  0  0  0  0  0  0  0
   -4.2541   -2.9629   -2.5694 H   0  0  0  0  0  0  0  0  0  0  0  0
   -1.4271   -0.7008   -2.6404 H   0  0  0  0  0  0  0  0  0  0  0  0
   -2.6047   -1.6005   -3.6676 H   0  0  0  0  0  0  0  0  0  0  0  0
   -2.8890    0.1153   -3.2278 H   0  0  0  0  0  0  0  0  0  0  0  0
   -3.6217    0.0555    3.8673 H   0  0  0  0  0  0  0  0  0  0  0  0
   -5.1294   -0.6631    3.1712 H   0  0  0  0  0  0  0  0  0  0  0  0
   -3.6347   -1.6717    3.3506 H   0  0  0  0  0  0  0  0  0  0  0  0
    4.7278   -2.4636    1.8290 H   0  0  0  0  0  0  0  0  0  0  0  0
    5.2863   -3.3705   -0.4274 H   0  0  0  0  0  0  0  0  0  0  0  0
    4.1345   -2.4743   -2.4530 H   0  0  0  0  0  0  0  0  0  0  0  0
    2.1592    0.2676    2.3714 H   0  0  0  0  0  0  0  0  0  0  0  0
    2.0157   -1.2121    4.3402 H   0  0  0  0  0  0  0  0  0  0  0  0
    3.1305   -2.3993    3.5886 H   0  0  0  0  0  0  0  0  0  0  0  0
    1.5073   -2.1181    2.8829 H   0  0  0  0  0  0  0  0  0  0  0  0
    4.5705    0.9821    2.5382 H   0  0  0  0  0  0  0  0  0  0  0  0
    3.8819    0.5785    4.1456 H   0  0  0  0  0  0  0  0  0  0  0  0
    4.9793   -0.5714    3.3231 H   0  0  0  0  0  0  0  0  0  0  0  0
    1.3695    0.0895   -2.2497 H   0  0  0  0  0  0  0  0  0  0  0  0
    2.5557   -2.1716   -3.9942 H   0  0  0  0  0  0  0  0  0  0  0  0
    1.1408   -1.1480   -4.3625 H   0  0  0  0  0  0  0  0  0  0  0  0
    1.0773   -2.2995   -2.9865 H   0  0  0  0  0  0  0  0  0  0  0  0
    3.5075    1.3221   -2.7083 H   0  0  0  0  0  0  0  0  0  0  0  0
    2.6538    0.9271   -4.2341 H   0  0  0  0  0  0  0  0  0  0  0  0
    4.0833   -0.0317   -3.7275 H   0  0  0  0  0  0  0  0  0  0  0  0
  1 21  1  0  0  0  0
  3  7  1  0  0  0  0
  5 35  1  0  0  0  0
  6  2  1  0  0  0  0
  6  5  1  0  0  0  0
  7  6  2  0  0  0  0
  8 37  1  0  0  0  0
  8  7  1  0  0  0  0
  9  8  2  0  0  0  0
 10  9  1  0  0  0  0
 10 11  2  0  0  0  0
 11  3  1  0  0  0  0
 12  4  1  1  0  0  0
 12 11  1  0  0  0  0
 13 12  1  0  0  0  0
 13 41  1  0  0  0  0
 14  4  1  0  0  0  0
 14 15  1  0  0  0  0
 15  1  1  0  0  0  0
 16 15  2  0  0  0  0
 16 43  1  0  0  0  0
 17 16  1  0  0  0  0
 18 19  1  0  0  0  0
 18 17  2  0  0  0  0
 19 14  2  0  0  0  0
 20 46  1  0  0  0  0
 20 19  1  0  0  0  0
 21 50  1  0  0  0  0
 21 51  1  0  0  0  0
 21 49  1  0  0  0  0
 22  2  1  0  0  0  0
 22 23  1  0  0  0  0
 23 28  1  0  0  0  0
 24 23  2  0  0  0  0
 24 52  1  0  0  0  0
 25 24  1  0  0  0  0
 26 27  1  0  0  0  0
 26 25  2  0  0  0  0
 27 22  2  0  0  0  0
 28 30  1  0  0  0  0
 28 29  1  0  0  0  0
 29 57  1  0  0  0  0
 29 56  1  0  0  0  0
 30 61  1  0  0  0  0
 30 60  1  0  0  0  0
 31 62  1  0  0  0  0
 31 27  1  0  0  0  0
 32 65  1  0  0  0  0
 32 31  1  0  0  0  0
 33 66  1  0  0  0  0
 33 31  1  0  0  0  0
 34  5  1  0  0  0  0
 36  5  1  0  0  0  0
 38  9  1  0  0  0  0
 39 10  1  0  0  0  0
 40 13  1  0  0  0  0
 42 13  1  0  0  0  0
 44 17  1  0  0  0  0
 45 18  1  0  0  0  0
 47 20  1  0  0  0  0
 48 20  1  0  0  0  0
 53 25  1  0  0  0  0
 54 26  1  0  0  0  0
 55 28  1  0  0  0  0
 58 29  1  0  0  0  0
 59 30  1  0  0  0  0
 63 32  1  0  0  0  0
 64 32  1  0  0  0  0
 67 33  1  0  0  0  0
 68 33  1  0  0  0  0
M  END
