1,2,3
q = 0.0, confidence = 0.96

 53 56  0  0  0  0  0  0  0  0999 V2000
   -1.2605    0.6178    0.8662 N   0  0  0  0  0  2  0  0  0  0  0  0
   -2.0994   -1.1321   -0.7442 N   0  0  0  0  0  2  0  0  0  0  0  0
    1.1314    0.4118    0.5818 N   0  0  0  0  0  2  0  0  0  0  0  0
   -0.6124    1.5544    1.6106 C   0  0  0  0  0  0  0  0  0  0  0  0
   -1.3935    2.4561    2.3867 C   0  0  0  0  0  0  0  0  0  0  0  0
   -0.8881    3.2158    3.0001 H   0  0  0  0  0  0  0  0  0  0  0  0
   -2.7879    2.3819    2.3616 C   0  0  0  0  0  0  0  0  0  0  0  0
   -3.3840    3.0824    2.9649 H   0  0  0  0  0  0  0  0  0  0  0  0
   -3.4514    1.4126    1.5406 C   0  0  0  0  0  0  0  0  0  0  0  0
   -4.8649    1.2130    1.3518 C   0  0  0  0  0  0  0  0  0  0  0  0
   -5.5694    1.8483    1.9101 H   0  0  0  0  0  0  0  0  0  0  0  0
   -5.3521    0.2519    0.4789 C   0  0  0  0  0  0  0  0  0  0  0  0
   -6.4387    0.1275    0.3571 H   0  0  0  0  0  0  0  0  0  0  0  0
   -4.4752   -0.5993   -0.2895 C   0  0  0  0  0  0  0  0  0  0  0  0
   -4.8481   -1.5967   -1.2275 C   0  0  0  0  0  0  0  0  0  0  0  0
   -5.9109   -1.7960   -1.4333 H   0  0  0  0  0  0  0  0  0  0  0  0
   -3.8462   -2.3105   -1.8906 C   0  0  0  0  0  0  0  0  0  0  0  0
   -4.1061   -3.0849   -2.6264 H   0  0  0  0  0  0  0  0  0  0  0  0
   -2.4778   -2.0491   -1.6403 C   0  0  0  0  0  0  0  0  0  0  0  0
   -1.6544   -2.5683   -2.1575 H   0  0  0  0  0  0  0  0  0  0  0  0
   -3.0823   -0.4259   -0.0954 C   0  0  0  0  0  0  0  0  0  0  0  0
   -2.6056    0.5569    0.8023 C   0  0  0  0  0  0  0  0  0  0  0  0
    0.7994    1.3892    1.4269 C   0  0  0  0  0  3  0  0  0  0  0  0
    1.5738    1.9904    1.9293 H   0  0  0  0  0  0  0  0  0  0  0  0
    2.5055    0.1096    0.3583 C   0  0  0  0  0  0  0  0  0  0  0  0
    3.0423   -1.0230    1.0267 C   0  0  0  0  0  0  0  0  0  0  0  0
    4.4122   -1.2858    0.8675 C   0  0  0  0  0  0  0  0  0  0  0  0
    4.8594   -2.1461    1.3880 H   0  0  0  0  0  0  0  0  0  0  0  0
    5.2125   -0.4757    0.0497 C   0  0  0  0  0  0  0  0  0  0  0  0
    6.2842   -0.6993   -0.0646 H   0  0  0  0  0  0  0  0  0  0  0  0
    4.6455    0.6017   -0.6405 C   0  0  0  0  0  0  0  0  0  0  0  0
    5.2724    1.2110   -1.3094 H   0  0  0  0  0  0  0  0  0  0  0  0
    3.2787    0.9151   -0.5149 C   0  0  0  0  0  0  0  0  0  0  0  0
    2.1658   -1.8962    1.9133 C   0  0  0  0  0  0  0  0  0  0  0  0
    1.1148   -1.6543    1.6537 H   0  0  0  0  0  0  0  0  0  0  0  0
    2.3566   -3.3924    1.6307 C   0  0  0  0  0  0  0  0  0  0  0  0
    2.1564   -3.6023    0.5619 H   0  0  0  0  0  0  0  0  0  0  0  0
    1.6503   -3.9909    2.2421 H   0  0  0  0  0  0  0  0  0  0  0  0
    3.3811   -3.7399    1.8782 H   0  0  0  0  0  0  0  0  0  0  0  0
    2.3782   -1.5535    3.3981 C   0  0  0  0  0  0  0  0  0  0  0  0
    2.1762   -0.4815    3.6000 H   0  0  0  0  0  0  0  0  0  0  0  0
    3.4238   -1.7593    3.7093 H   0  0  0  0  0  0  0  0  0  0  0  0
    1.7061   -2.1560    4.0437 H   0  0  0  0  0  0  0  0  0  0  0  0
    2.6580    2.0141   -1.3633 C   0  0  0  0  0  0  0  0  0  0  0  0
    1.5906    2.1158   -1.0823 H   0  0  0  0  0  0  0  0  0  0  0  0
    3.3418    3.3733   -1.1558 C   0  0  0  0  0  0  0  0  0  0  0  0
    2.8342    4.1545   -1.7576 H   0  0  0  0  0  0  0  0  0  0  0  0
    4.4070    3.3556   -1.4686 H   0  0  0  0  0  0  0  0  0  0  0  0
    3.3124    3.6882   -0.0921 H   0  0  0  0  0  0  0  0  0  0  0  0
    2.6542    1.5843   -2.8418 C   0  0  0  0  0  0  0  0  0  0  0  0
    2.1237    0.6195   -2.9571 H   0  0  0  0  0  0  0  0  0  0  0  0
    3.6866    1.4774   -3.2371 H   0  0  0  0  0  0  0  0  0  0  0  0
    2.1177    2.3357   -3.4554 H   0  0  0  0  0  0  0  0  0  0  0  0
  1  4  1  0  0  0  0
  2 21  1  0  0  0  0
  3 23  1  0  0  0  0
  4  5  2  0  0  0  0
  5  6  1  0  0  0  0
  7  5  1  0  0  0  0
  7  8  1  0  0  0  0
  9  7  2  0  0  0  0
 10  9  1  0  0  0  0
 10 11  1  0  0  0  0
 12 10  2  0  0  0  0
 13 12  1  0  0  0  0
 14 21  1  0  0  0  0
 14 12  1  0  0  0  0
 15 14  2  0  0  0  0
 16 15  1  0  0  0  0
 17 19  2  0  0  0  0
 17 15  1  0  0  0  0
 18 17  1  0  0  0  0
 19  2  1  0  0  0  0
 20 19  1  0  0  0  0
 21 22  2  0  0  0  0
 22  1  1  0  0  0  0
 22  9  1  0  0  0  0
 23  4  1  0  0  0  0
 23 24  1  0  0  0  0
 25  3  1  0  0  0  0
 25 26  1  0  0  0  0
 26 34  1  0  0  0  0
 27 26  2  0  0  0  0
 27 28  1  0  0  0  0
 29 27  1  0  0  0  0
 30 29  1  0  0  0  0
 31 33  1  0  0  0  0
 31 29  2  0  0  0  0
 32 31  1  0  0  0  0
 33 25  2  0  0  0  0
 34 40  1  0  0  0  0
 35 34  1  0  0  0  0
 36 39  1  0  0  0  0
 36 34  1  0  0  0  0
 36 38  1  0  0  0  0
 37 36  1  0  0  0  0
 40 41  1  0  0  0  0
 40 42  1  0  0  0  0
 40 43  1  0  0  0  0
 44 46  1  0  0  0  0
 44 45  1  0  0  0  0
 44 33  1  0  0  0  0
 46 49  1  0  0  0  0
 47 46  1  0  0  0  0
 48 46  1  0  0  0  0
 50 44  1  0  0  0  0
 51 50  1  0  0  0  0
 52 50  1  0  0  0  0
 53 50  1  0  0  0  0
M  END
