1,2,3
q = 0.0, confidence = 0.958

 44 47  0  0  1  0  0  0  0  0999 V2000
    1.4469    0.6111   -0.1508 N   0  0  0  0  0  2  0  0  0  0  0  0
   -0.9331    0.9816   -0.2545 N   0  0  0  0  0  2  0  0  0  0  0  0
   -1.8034   -1.3837   -0.2507 N   0  0  0  0  0  2  0  0  0  0  0  0
    2.9042    0.4332    2.3651 C   0  0  0  0  0  0  0  0  0  0  0  0
    3.6059    0.2391    3.1981 H   0  0  0  0  0  0  0  0  0  0  0  0
    1.9789   -0.1658    2.5130 H   0  0  0  0  0  0  0  0  0  0  0  0
    2.5816    1.4942    2.4370 H   0  0  0  0  0  0  0  0  0  0  0  0
    3.5462    0.1233    1.0419 C   0  0  0  0  0  0  0  0  0  0  0  0
    4.8920   -0.2796    0.9563 C   0  0  0  0  0  0  0  0  0  0  0  0
    5.4831   -0.3423    1.8832 H   0  0  0  0  0  0  0  0  0  0  0  0
    5.4778   -0.6080   -0.2734 C   0  0  0  0  0  0  0  0  0  0  0  0
    6.5321   -0.9213   -0.3135 H   0  0  0  0  0  0  0  0  0  0  0  0
    4.7179   -0.5549   -1.4497 C   0  0  0  0  0  0  0  0  0  0  0  0
    5.1693   -0.8330   -2.4147 H   0  0  0  0  0  0  0  0  0  0  0  0
    3.3670   -0.1684   -1.4185 C   0  0  0  0  0  0  0  0  0  0  0  0
    2.8075    0.1898   -0.1657 C   0  0  0  0  0  0  0  0  0  0  0  0
    2.5122   -0.1743   -2.6558 C   0  0  0  0  0  0  0  0  0  0  0  0
    3.1041   -0.4454   -3.5503 H   0  0  0  0  0  0  0  0  0  0  0  0
    2.0301    0.8081   -2.8419 H   0  0  0  0  0  0  0  0  0  0  0  0
    1.6976   -0.9191   -2.5250 H   0  0  0  0  0  0  0  0  0  0  0  0
    1.1513    1.9197   -0.1504 C   0  0  1  0  0  3  0  0  0  0  0  0
    2.1939    2.9930   -0.1490 C   0  0  0  0  0  0  0  0  0  0  0  0
    2.9593    2.7946   -0.9259 H   0  0  0  0  0  0  0  0  0  0  0  0
    2.7325    3.0268    0.8207 H   0  0  0  0  0  0  0  0  0  0  0  0
    1.7465    3.9870   -0.3330 H   0  0  0  0  0  0  0  0  0  0  0  0
   -0.2706    2.1670   -0.1853 C   0  0  0  0  0  0  0  0  0  0  0  0
   -1.0398    3.3636   -0.1655 C   0  0  0  0  0  0  0  0  0  0  0  0
   -0.5279    4.3352   -0.1131 H   0  0  0  0  0  0  0  0  0  0  0  0
   -2.4355    3.3113   -0.2017 C   0  0  0  0  0  0  0  0  0  0  0  0
   -3.0187    4.2438   -0.1855 H   0  0  0  0  0  0  0  0  0  0  0  0
   -3.1140    2.0507   -0.2417 C   0  0  0  0  0  0  0  0  0  0  0  0
   -4.5308    1.7934   -0.2468 C   0  0  0  0  0  0  0  0  0  0  0  0
   -5.2247    2.6478   -0.2405 H   0  0  0  0  0  0  0  0  0  0  0  0
   -5.0339    0.5013   -0.2494 C   0  0  0  0  0  0  0  0  0  0  0  0
   -6.1226    0.3404   -0.2525 H   0  0  0  0  0  0  0  0  0  0  0  0
   -4.1707   -0.6556   -0.2460 C   0  0  0  0  0  0  0  0  0  0  0  0
   -4.5601   -2.0200   -0.2314 C   0  0  0  0  0  0  0  0  0  0  0  0
   -5.6263   -2.2932   -0.2238 H   0  0  0  0  0  0  0  0  0  0  0  0
   -3.5697   -3.0060   -0.2176 C   0  0  0  0  0  0  0  0  0  0  0  0
   -3.8424   -4.0709   -0.2015 H   0  0  0  0  0  0  0  0  0  0  0  0
   -2.1972   -2.6606   -0.2145 C   0  0  0  0  0  0  0  0  0  0  0  0
   -1.3816   -3.4015   -0.1817 H   0  0  0  0  0  0  0  0  0  0  0  0
   -2.7746   -0.4129   -0.2587 C   0  0  0  0  0  0  0  0  0  0  0  0
   -2.2805    0.9114   -0.2578 C   0  0  0  0  0  0  0  0  0  0  0  0
  2 26  1  0  0  0  0
  3 41  1  0  0  0  0
  4  7  1  0  0  0  0
  4  6  1  0  0  0  0
  4  5  1  0  0  0  0
  8  4  1  0  0  0  0
  9  8  1  0  0  0  0
  9 10  1  0  0  0  0
 11  9  2  0  0  0  0
 12 11  1  0  0  0  0
 13 15  2  0  0  0  0
 13 11  1  0  0  0  0
 14 13  1  0  0  0  0
 15 16  1  0  0  0  0
 16  1  1  0  0  0  0
 16  8  2  0  0  0  0
 17 20  1  0  0  0  0
 17 15  1  0  0  0  0
 18 17  1  0  0  0  0
 19 17  1  0  0  0  0
 21  1  1  6  0  0  0
 21 22  1  0  0  0  0
 22 24  1  0  0  0  0
 23 22  1  0  0  0  0
 25 22  1  0  0  0  0
 26 27  2  0  0  0  0
 26 21  1  0  0  0  0
 27 28  1  0  0  0  0
 29 30  1  0  0  0  0
 29 27  1  0  0  0  0
 31 29  2  0  0  0  0
 32 31  1  0  0  0  0
 32 33  1  0  0  0  0
 34 32  2  0  0  0  0
 34 36  1  0  0  0  0
 35 34  1  0  0  0  0
 36 37  2  0  0  0  0
 37 38  1  0  0  0  0
 37 39  1  0  0  0  0
 39 41  2  0  0  0  0
 39 40  1  0  0  0  0
 41 42  1  0  0  0  0
 43 44  2  0  0  0  0
 43  3  1  0  0  0  0
 43 36  1  0  0  0  0
 44  2  1  0  0  0  0
 44 31  1  0  0  0  0
M  END
