43,44,45
q = 0.0, confidence = 0.994

 45 47  0  0  1  0  0  0  0  0999 V2000
   -0.3397    1.4960   -1.5631 C   0  0  2  0  0  3  0  0  0  0  0  0
   -0.2609    2.7475   -2.1894 C   0  0  0  0  0  0  0  0  0  0  0  0
    0.7165    3.2382   -2.3027 H   0  0  0  0  0  0  0  0  0  0  0  0
   -1.4310    3.3467   -2.6748 C   0  0  0  0  0  0  0  0  0  0  0  0
   -1.3900    4.3260   -3.1739 H   0  0  0  0  0  0  0  0  0  0  0  0
   -2.6514    2.6741   -2.5162 C   0  0  0  0  0  0  0  0  0  0  0  0
   -3.5940    3.0991   -2.8882 H   0  0  0  0  0  0  0  0  0  0  0  0
   -2.6618    1.4393   -1.8622 C   0  0  0  0  0  0  0  0  0  0  0  0
   -3.5967    0.8827   -1.7029 H   0  0  0  0  0  0  0  0  0  0  0  0
    0.8847    0.7227   -1.1541 C   0  0  0  0  0  0  0  0  0  0  0  0
    1.7597    1.3918   -1.0209 H   0  0  0  0  0  0  0  0  0  0  0  0
    1.1313    0.0411   -1.9957 H   0  0  0  0  0  0  0  0  0  0  0  0
    0.8032    0.6403    1.3115 C   0  0  0  0  0  0  0  0  0  0  0  0
    1.6833    1.3154    1.2809 H   0  0  0  0  0  0  0  0  0  0  0  0
    0.9964   -0.0963    2.1202 H   0  0  0  0  0  0  0  0  0  0  0  0
   -0.4475    1.3861    1.6906 C   0  0  2  0  0  3  0  0  0  0  0  0
   -0.4132    2.5923    2.4038 C   0  0  0  0  0  0  0  0  0  0  0  0
    0.5533    3.0727    2.6134 H   0  0  0  0  0  0  0  0  0  0  0  0
   -1.6142    3.1588    2.8516 C   0  0  0  0  0  0  0  0  0  0  0  0
   -1.6086    4.1020    3.4175 H   0  0  0  0  0  0  0  0  0  0  0  0
   -2.8196    2.5001    2.5690 C   0  0  0  0  0  0  0  0  0  0  0  0
   -3.7857    2.9002    2.9071 H   0  0  0  0  0  0  0  0  0  0  0  0
   -2.7839    1.3124    1.8339 C   0  0  0  0  0  0  0  0  0  0  0  0
   -3.7048    0.7691    1.5772 H   0  0  0  0  0  0  0  0  0  0  0  0
    1.6862   -1.2799    0.0411 C   0  0  0  0  0  0  0  0  0  0  0  0
    1.4828   -1.8630   -0.8771 H   0  0  0  0  0  0  0  0  0  0  0  0
    1.4258   -1.9207    0.9047 H   0  0  0  0  0  0  0  0  0  0  0  0
    3.1311   -0.8518    0.1018 C   0  0  0  0  0  0  0  0  0  0  0  0
    3.7902   -0.6874    1.3377 C   0  0  0  0  0  0  0  0  0  0  0  0
    3.2632   -0.9205    2.2768 H   0  0  0  0  0  0  0  0  0  0  0  0
    5.1215   -0.2605    1.3905 C   0  0  0  0  0  0  0  0  0  0  0  0
    5.6182   -0.1479    2.3665 H   0  0  0  0  0  0  0  0  0  0  0  0
    5.8549    0.0122    0.2116 C   0  0  0  0  0  0  0  0  0  0  0  0
    5.1967   -0.1796   -1.0278 C   0  0  0  0  0  0  0  0  0  0  0  0
    5.7409   -0.0091   -1.9680 H   0  0  0  0  0  0  0  0  0  0  0  0
    3.8677   -0.6049   -1.0793 C   0  0  0  0  0  0  0  0  0  0  0  0
    3.3983   -0.7744   -2.0616 H   0  0  0  0  0  0  0  0  0  0  0  0
    7.2527    0.4553    0.3213 C   0  0  0  0  0  0  0  0  0  0  0  0
    7.6320    0.5376    1.3544 H   0  0  0  0  0  0  0  0  0  0  0  0
    8.0887    0.7590   -0.6939 C   0  0  0  0  0  0  0  0  0  0  0  0
    7.7870    0.6992   -1.7517 H   0  0  0  0  0  0  0  0  0  0  0  0
    9.1220    1.0795   -0.4959 H   0  0  0  0  0  0  0  0  0  0  0  0
   -1.5310    0.8612   -1.3913 N   0  0  0  0  0  2  0  0  0  0  0  0
    0.6764   -0.1395    0.0458 N   0  0  0  0  0  0  0  0  0  0  0  0
   -1.6232    0.7660    1.3992 N   0  0  0  0  0  2  0  0  0  0  0  0
  1 43  1  0  0  0  0
  1 10  1  6  0  0  0
  2  1  1  0  0  0  0
  3  2  1  0  0  0  0
  4  6  1  0  0  0  0
  4  2  2  0  0  0  0
  5  4  1  0  0  0  0
  6  8  2  0  0  0  0
  7  6  1  0  0  0  0
  8  9  1  0  0  0  0
  8 43  1  0  0  0  0
 10 11  1  0  0  0  0
 10 44  1  0  0  0  0
 12 10  1  0  0  0  0
 13 15  1  0  0  0  0
 14 13  1  0  0  0  0
 16 13  1  1  0  0  0
 16 17  1  0  0  0  0
 17 18  1  0  0  0  0
 17 19  2  0  0  0  0
 19 20  1  0  0  0  0
 21 19  1  0  0  0  0
 21 22  1  0  0  0  0
 23 21  2  0  0  0  0
 24 23  1  0  0  0  0
 25 44  1  0  0  0  0
 25 28  1  0  0  0  0
 25 27  1  0  0  0  0
 26 25  1  0  0  0  0
 28 29  1  0  0  0  0
 29 31  2  0  0  0  0
 29 30  1  0  0  0  0
 31 32  1  0  0  0  0
 33 38  1  0  0  0  0
 33 31  1  0  0  0  0
 34 33  2  0  0  0  0
 35 34  1  0  0  0  0
 36 34  1  0  0  0  0
 36 28  2  0  0  0  0
 37 36  1  0  0  0  0
 38 39  1  0  0  0  0
 40 42  1  0  0  0  0
 40 38  2  0  0  0  0
 41 40  1  0  0  0  0
 44 13  1  0  0  0  0
 45 16  1  0  0  0  0
 45 23  1  0  0  0  0
M  END
