3,6,9
q = -1.0

 68 70  0  0  1  0  0  0  0  0999 V2000
   -0.1232    1.8519    1.3622 B   0  0  1  0  0  0  0  0  0  0  0  0
   -0.1868    2.8406    2.0660 H   0  0  0  0  0  0  0  0  0  0  0  0
   -0.1071    1.3226   -1.1266 N   0  0  0  0  0  2  0  0  0  0  0  0
   -0.1614    2.2626   -0.1325 N   0  0  0  0  0  0  0  0  0  0  0  0
   -0.2619    3.3596   -2.0541 N   0  0  0  0  0  0  0  0  0  0  0  0
   -1.5502   -0.2063    0.9186 N   0  0  0  0  0  2  0  0  0  0  0  0
   -1.3338    0.9303    1.6511 N   0  0  0  0  0  0  0  0  0  0  0  0
   -3.2903    0.1160    2.2945 N   0  0  0  0  0  0  0  0  0  0  0  0
    1.5659    0.0035    0.9062 N   0  0  0  0  0  2  0  0  0  0  0  0
    1.2057    1.1049    1.6360 N   0  0  0  0  0  0  0  0  0  0  0  0
    3.2617    0.5684    2.2597 N   0  0  0  0  0  0  0  0  0  0  0  0
   -0.1710    2.0216   -2.2747 C   0  0  2  0  0  3  0  0  0  0  0  0
   -0.2542    3.4836   -0.7209 C   0  0  0  0  0  0  0  0  0  0  0  0
   -0.1460    1.3924   -3.6553 C   0  0  0  0  0  0  0  0  0  0  0  0
   -0.2593    2.5054   -4.7112 C   0  0  0  0  0  0  0  0  0  0  0  0
   -0.2427    2.0581   -5.7253 H   0  0  0  0  0  0  0  0  0  0  0  0
    0.5770    3.2260   -4.6274 H   0  0  0  0  0  0  0  0  0  0  0  0
   -1.1986    3.0793   -4.5919 H   0  0  0  0  0  0  0  0  0  0  0  0
   -1.3375    0.4180   -3.7960 C   0  0  0  0  0  0  0  0  0  0  0  0
   -1.3560   -0.0046   -4.8214 H   0  0  0  0  0  0  0  0  0  0  0  0
   -2.3003    0.9404   -3.6232 H   0  0  0  0  0  0  0  0  0  0  0  0
   -1.2540   -0.4285   -3.0884 H   0  0  0  0  0  0  0  0  0  0  0  0
    1.1838    0.6274   -3.8457 C   0  0  0  0  0  0  0  0  0  0  0  0
    1.2342    0.2164   -4.8748 H   0  0  0  0  0  0  0  0  0  0  0  0
    1.2652   -0.2229   -3.1427 H   0  0  0  0  0  0  0  0  0  0  0  0
    2.0528    1.3013   -3.7033 H   0  0  0  0  0  0  0  0  0  0  0  0
   -0.3364    4.7771    0.0191 C   0  0  0  0  0  0  0  0  0  0  0  0
   -0.3994    5.5962   -0.7188 H   0  0  0  0  0  0  0  0  0  0  0  0
    0.5532    4.9409    0.6598 H   0  0  0  0  0  0  0  0  0  0  0  0
   -1.2288    4.8185    0.6755 H   0  0  0  0  0  0  0  0  0  0  0  0
   -2.7481   -0.6673    1.3265 C   0  0  2  0  0  3  0  0  0  0  0  0
   -2.3997    1.0986    2.4758 C   0  0  0  0  0  0  0  0  0  0  0  0
   -3.4241   -1.9120    0.7838 C   0  0  0  0  0  0  0  0  0  0  0  0
   -2.7847   -3.1555    1.4456 C   0  0  0  0  0  0  0  0  0  0  0  0
   -1.7112   -3.2417    1.1891 H   0  0  0  0  0  0  0  0  0  0  0  0
   -3.3026   -4.0725    1.0955 H   0  0  0  0  0  0  0  0  0  0  0  0
   -2.8879   -3.1057    2.5483 H   0  0  0  0  0  0  0  0  0  0  0  0
   -3.2591   -1.9735   -0.7479 C   0  0  0  0  0  0  0  0  0  0  0  0
   -3.7261   -1.0946   -1.2367 H   0  0  0  0  0  0  0  0  0  0  0  0
   -3.7466   -2.8870   -1.1440 H   0  0  0  0  0  0  0  0  0  0  0  0
   -2.1971   -2.0045   -1.0545 H   0  0  0  0  0  0  0  0  0  0  0  0
   -4.9222   -1.8558    1.1352 C   0  0  0  0  0  0  0  0  0  0  0  0
   -5.4091   -0.9675    0.6856 H   0  0  0  0  0  0  0  0  0  0  0  0
   -5.0733   -1.7978    2.2295 H   0  0  0  0  0  0  0  0  0  0  0  0
   -5.4276   -2.7645    0.7511 H   0  0  0  0  0  0  0  0  0  0  0  0
   -2.5561    2.2277    3.4390 C   0  0  0  0  0  0  0  0  0  0  0  0
   -3.4886    2.0711    4.0094 H   0  0  0  0  0  0  0  0  0  0  0  0
   -2.6186    3.2043    2.9178 H   0  0  0  0  0  0  0  0  0  0  0  0
   -1.7058    2.2845    4.1472 H   0  0  0  0  0  0  0  0  0  0  0  0
    2.8202   -0.2880    1.3027 C   0  0  2  0  0  3  0  0  0  0  0  0
    2.2478    1.4221    2.4469 C   0  0  0  0  0  0  0  0  0  0  0  0
    3.6557   -1.4312    0.7576 C   0  0  0  0  0  0  0  0  0  0  0  0
    3.5350   -1.4825   -0.7792 C   0  0  0  0  0  0  0  0  0  0  0  0
    3.9076   -0.5453   -1.2402 H   0  0  0  0  0  0  0  0  0  0  0  0
    2.4926   -1.6294   -1.1183 H   0  0  0  0  0  0  0  0  0  0  0  0
    4.1392   -2.3230   -1.1768 H   0  0  0  0  0  0  0  0  0  0  0  0
    3.1627   -2.7569    1.3834 C   0  0  0  0  0  0  0  0  0  0  0  0
    3.2389   -2.7175    2.4888 H   0  0  0  0  0  0  0  0  0  0  0  0
    3.7969   -3.5957    1.0285 H   0  0  0  0  0  0  0  0  0  0  0  0
    2.1122   -2.9717    1.1074 H   0  0  0  0  0  0  0  0  0  0  0  0
    5.1276   -1.1983    1.1452 C   0  0  0  0  0  0  0  0  0  0  0  0
    5.5102   -0.2472    0.7246 H   0  0  0  0  0  0  0  0  0  0  0  0
    5.7491   -2.0296    0.7561 H   0  0  0  0  0  0  0  0  0  0  0  0
    5.2481   -1.1458    2.2435 H   0  0  0  0  0  0  0  0  0  0  0  0
    2.2606    2.5681    3.4027 C   0  0  0  0  0  0  0  0  0  0  0  0
    3.2113    2.5416    3.9639 H   0  0  0  0  0  0  0  0  0  0  0  0
    1.4174    2.5149    4.1196 H   0  0  0  0  0  0  0  0  0  0  0  0
    2.1864    3.5410    2.8761 H   0  0  0  0  0  0  0  0  0  0  0  0
  1 10  1  0  0  0  0
  1  7  1  0  0  0  0
  1  2  1  1  0  0  0
  3  4  1  0  0  0  0
  4  1  1  0  0  0  0
  5 13  2  0  0  0  0
  6 31  1  0  0  0  0
  6  7  1  0  0  0  0
  7 32  1  0  0  0  0
  8 32  2  0  0  0  0
  9 50  1  0  0  0  0
  9 10  1  0  0  0  0
 10 51  1  0  0  0  0
 11 51  2  0  0  0  0
 12 14  1  1  0  0  0
 12  5  1  0  0  0  0
 12  3  1  0  0  0  0
 13  4  1  0  0  0  0
 13 27  1  0  0  0  0
 15 17  1  0  0  0  0
 15 18  1  0  0  0  0
 15 14  1  0  0  0  0
 16 15  1  0  0  0  0
 19 14  1  0  0  0  0
 19 21  1  0  0  0  0
 19 22  1  0  0  0  0
 20 19  1  0  0  0  0
 23 26  1  0  0  0  0
 23 14  1  0  0  0  0
 23 25  1  0  0  0  0
 24 23  1  0  0  0  0
 27 29  1  0  0  0  0
 27 30  1  0  0  0  0
 28 27  1  0  0  0  0
 31 33  1  1  0  0  0
 31  8  1  0  0  0  0
 32 46  1  0  0  0  0
 33 42  1  0  0  0  0
 33 34  1  0  0  0  0
 34 37  1  0  0  0  0
 35 34  1  0  0  0  0
 36 34  1  0  0  0  0
 38 33  1  0  0  0  0
 39 38  1  0  0  0  0
 40 38  1  0  0  0  0
 41 38  1  0  0  0  0
 42 44  1  0  0  0  0
 43 42  1  0  0  0  0
 45 42  1  0  0  0  0
 46 47  1  0  0  0  0
 46 49  1  0  0  0  0
 48 46  1  0  0  0  0
 50 52  1  6  0  0  0
 50 11  1  0  0  0  0
 51 65  1  0  0  0  0
 52 61  1  0  0  0  0
 52 57  1  0  0  0  0
 53 52  1  0  0  0  0
 54 53  1  0  0  0  0
 55 53  1  0  0  0  0
 56 53  1  0  0  0  0
 57 58  1  0  0  0  0
 59 57  1  0  0  0  0
 60 57  1  0  0  0  0
 61 64  1  0  0  0  0
 62 61  1  0  0  0  0
 63 61  1  0  0  0  0
 65 66  1  0  0  0  0
 65 67  1  0  0  0  0
 68 65  1  0  0  0  0
M  END
