2,4,6
q = -1.0

 32 34  0  0  0  0  0  0  0  0999 V2000
   -1.4184    4.0080   -3.8196 Cl  0  0  0  0  0  0  0  0  0  0  0  0
    0.7660   -1.2283    1.5858 N   0  0  0  0  0  2  0  0  0  0  0  0
    4.6635   -2.4775    0.3848 N   0  0  0  0  0  0  0  0  0  0  0  0
    2.1423    0.0065   -0.2893 N   0  0  0  0  0  2  0  0  0  0  0  0
    2.6432    0.6889   -1.3068 N   0  0  0  0  0  2  0  0  0  0  0  0
    0.3936    1.4504   -1.5517 N   0  0  0  0  0  2  0  0  0  0  0  0
   -0.5276    2.2171   -2.1232 N   0  0  0  0  0  2  0  0  0  0  0  0
    2.0961   -1.5097    1.5185 C   0  0  0  0  0  0  0  0  0  0  0  0
    2.6829   -2.3411    2.5044 C   0  0  0  0  0  0  0  0  0  0  0  0
    3.7476   -2.5865    2.4301 H   0  0  0  0  0  0  0  0  0  0  0  0
    1.8900   -2.8577    3.5320 C   0  0  0  0  0  0  0  0  0  0  0  0
    2.3450   -3.5011    4.3006 H   0  0  0  0  0  0  0  0  0  0  0  0
    0.5198   -2.5529    3.5779 C   0  0  0  0  0  0  0  0  0  0  0  0
   -0.1368   -2.9425    4.3685 H   0  0  0  0  0  0  0  0  0  0  0  0
    0.0080   -1.7256    2.5717 C   0  0  0  0  0  0  0  0  0  0  0  0
   -1.0584   -1.4430    2.5473 H   0  0  0  0  0  0  0  0  0  0  0  0
    2.8537   -0.8681    0.4167 C   0  0  0  0  0  0  0  0  0  0  0  0
    4.2704   -1.2058    0.1293 C   0  0  0  0  0  0  0  0  0  0  0  0
    5.1684   -0.2509   -0.4122 C   0  0  0  0  0  0  0  0  0  0  0  0
    4.8132    0.7639   -0.6223 H   0  0  0  0  0  0  0  0  0  0  0  0
    6.4835   -0.6385   -0.6887 C   0  0  0  0  0  0  0  0  0  0  0  0
    7.1974    0.0910   -1.1016 H   0  0  0  0  0  0  0  0  0  0  0  0
    6.8783   -1.9605   -0.4361 C   0  0  0  0  0  0  0  0  0  0  0  0
    7.9007   -2.3081   -0.6467 H   0  0  0  0  0  0  0  0  0  0  0  0
    5.9227   -2.8348    0.1061 C   0  0  0  0  0  0  0  0  0  0  0  0
    6.1918   -3.8836    0.3290 H   0  0  0  0  0  0  0  0  0  0  0  0
    1.7067    1.4710   -1.9267 C   0  0  0  0  0  0  0  0  0  0  0  0
    2.1122    2.3231   -2.9987 C   0  0  0  0  0  0  0  0  0  0  0  0
    3.1688    2.3215   -3.3019 H   0  0  0  0  0  0  0  0  0  0  0  0
    1.1610    3.1169   -3.6046 C   0  0  0  0  0  0  0  0  0  0  0  0
    1.3997    3.7991   -4.4323 H   0  0  0  0  0  0  0  0  0  0  0  0
   -0.1684    3.0232   -3.1083 C   0  0  0  0  0  0  0  0  0  0  0  0
  1 32  1  0  0  0  0
  2 15  1  0  0  0  0
  4 17  1  0  0  0  0
  5  4  1  0  0  0  0
  7  6  1  0  0  0  0
  8  2  1  0  0  0  0
  8  9  1  0  0  0  0
  9 11  2  0  0  0  0
 10  9  1  0  0  0  0
 11 13  1  0  0  0  0
 11 12  1  0  0  0  0
 13 14  1  0  0  0  0
 15 13  2  0  0  0  0
 16 15  1  0  0  0  0
 17  8  2  0  0  0  0
 18  3  1  0  0  0  0
 18 17  1  0  0  0  0
 19 18  2  0  0  0  0
 20 19  1  0  0  0  0
 21 23  2  0  0  0  0
 21 19  1  0  0  0  0
 22 21  1  0  0  0  0
 23 25  1  0  0  0  0
 24 23  1  0  0  0  0
 25 26  1  0  0  0  0
 25  3  2  0  0  0  0
 27  6  1  0  0  0  0
 27  5  1  0  0  0  0
 28 27  2  0  0  0  0
 29 28  1  0  0  0  0
 30 32  2  0  0  0  0
 30 28  1  0  0  0  0
 31 30  1  0  0  0  0
 32  7  1  0  0  0  0
M  END
