1,2,3
q = -1.0

 34 36  0  0  0  0  0  0  0  0999 V2000
    2.3446   -0.7547    0.0025 N   0  0  0  0  0  2  0  0  0  0  0  0
    0.5085    1.0619   -0.0035 N   0  0  0  0  0  2  0  0  0  0  0  0
   -1.6326   -0.3615   -0.0120 N   0  0  0  0  0  2  0  0  0  0  0  0
   -2.8236   -0.9482   -0.0219 N   0  0  0  0  0  0  0  0  0  0  0  0
   -3.1158    1.3258   -0.0222 N   0  0  0  0  0  2  0  0  0  0  0  0
    3.2242   -1.7800    0.0055 C   0  0  0  0  0  3  0  0  0  0  0  0
    2.7572   -2.7797    0.0031 H   0  0  0  0  0  0  0  0  0  0  0  0
    4.6020   -1.5663    0.0111 C   0  0  0  0  0  0  0  0  0  0  0  0
    5.2765   -2.4352    0.0134 H   0  0  0  0  0  0  0  0  0  0  0  0
    5.1192   -0.2524    0.0139 C   0  0  0  0  0  0  0  0  0  0  0  0
    4.1888    0.8013    0.0107 C   0  0  0  0  0  0  0  0  0  0  0  0
    4.5397    1.8431    0.0126 H   0  0  0  0  0  0  0  0  0  0  0  0
    2.8102    0.5439    0.0050 C   0  0  0  0  0  0  0  0  0  0  0  0
    1.7630    1.5837    0.0012 C   0  0  0  0  0  0  0  0  0  0  0  0
    1.9227    2.9785    0.0016 C   0  0  0  0  0  0  0  0  0  0  0  0
    2.9294    3.4188    0.0054 H   0  0  0  0  0  0  0  0  0  0  0  0
    0.7866    3.8185   -0.0034 C   0  0  0  0  0  0  0  0  0  0  0  0
   -0.4956    3.2280   -0.0084 C   0  0  0  0  0  0  0  0  0  0  0  0
   -1.4109    3.8369   -0.0126 H   0  0  0  0  0  0  0  0  0  0  0  0
   -0.6200    1.8323   -0.0083 C   0  0  0  0  0  0  0  0  0  0  0  0
   -1.8169    1.0115   -0.0124 C   0  0  0  0  0  0  0  0  0  0  0  0
   -3.6838    0.0958   -0.0318 C   0  0  0  0  0  0  0  0  0  0  0  0
   -5.1772   -0.0985    0.0107 C   0  0  0  0  0  0  0  0  0  0  0  0
    6.6007    0.0000    0.0200 C   0  0  0  0  0  0  0  0  0  0  0  0
    6.8367    1.0806    0.0215 H   0  0  0  0  0  0  0  0  0  0  0  0
    7.0821   -0.4585   -0.8684 H   0  0  0  0  0  0  0  0  0  0  0  0
    7.0748   -0.4593    0.9119 H   0  0  0  0  0  0  0  0  0  0  0  0
    0.9297    5.3167   -0.0031 C   0  0  0  0  0  0  0  0  0  0  0  0
    1.9901    5.6314   -0.0018 H   0  0  0  0  0  0  0  0  0  0  0  0
    0.4366    5.7599    0.8864 H   0  0  0  0  0  0  0  0  0  0  0  0
    0.4384    5.7602   -0.8934 H   0  0  0  0  0  0  0  0  0  0  0  0
   -5.6702    0.1642    1.2480 F   0  0  0  0  0  0  0  0  0  0  0  0
   -5.5199   -1.3603   -0.3068 F   0  0  0  0  0  0  0  0  0  0  0  0
   -5.7998    0.7395   -0.8499 F   0  0  0  0  0  0  0  0  0  0  0  0
  1 13  1  0  0  0  0
  1  6  1  0  0  0  0
  2 14  1  0  0  0  0
  4  3  1  0  0  0  0
  5 21  1  0  0  0  0
  6  8  1  0  0  0  0
  7  6  1  0  0  0  0
  8  9  1  0  0  0  0
  8 10  2  0  0  0  0
 10 24  1  0  0  0  0
 11 12  1  0  0  0  0
 11 10  1  0  0  0  0
 13 11  2  0  0  0  0
 14 15  2  0  0  0  0
 14 13  1  0  0  0  0
 15 16  1  0  0  0  0
 17 28  1  0  0  0  0
 17 15  1  0  0  0  0
 18 20  1  0  0  0  0
 18 17  2  0  0  0  0
 19 18  1  0  0  0  0
 20  2  1  0  0  0  0
 21  3  1  0  0  0  0
 21 20  2  0  0  0  0
 22  5  1  0  0  0  0
 22  4  2  0  0  0  0
 22 23  1  0  0  0  0
 23 32  1  0  0  0  0
 24 25  1  0  0  0  0
 24 27  1  0  0  0  0
 26 24  1  0  0  0  0
 28 29  1  0  0  0  0
 28 30  1  0  0  0  0
 31 28  1  0  0  0  0
 33 23  1  0  0  0  0
 34 23  1  0  0  0  0
M  END
