1,2,3
q = 0.0, confidence = 1.0

 33 34  0  0  0  0  0  0  0  0999 V2000
    2.4221    0.3507   -0.2743 N   0  0  0  0  0  2  0  0  0  0  0  0
    0.6753   -1.3787   -1.4657 N   0  0  0  0  0  2  0  0  0  0  0  0
   -2.1000   -1.0298   -0.6866 N   0  0  0  0  0  0  0  0  0  0  0  0
    3.2562    1.2504    0.2529 C   0  0  0  0  0  3  0  0  0  0  0  0
    2.7820    2.0772    0.8095 H   0  0  0  0  0  0  0  0  0  0  0  0
    4.6526    1.1576    0.1012 C   0  0  0  0  0  0  0  0  0  0  0  0
    5.3074    1.9167    0.5528 H   0  0  0  0  0  0  0  0  0  0  0  0
    5.1791    0.0831   -0.6282 C   0  0  0  0  0  0  0  0  0  0  0  0
    6.2658   -0.0245   -0.7621 H   0  0  0  0  0  0  0  0  0  0  0  0
    4.2988   -0.8538   -1.1896 C   0  0  0  0  0  0  0  0  0  0  0  0
    4.6709   -1.7072   -1.7763 H   0  0  0  0  0  0  0  0  0  0  0  0
    2.9166   -0.6789   -0.9937 C   0  0  0  0  0  0  0  0  0  0  0  0
    1.9299   -1.6113   -1.5779 C   0  0  0  0  0  3  0  0  0  0  0  0
    2.3254   -2.5069   -2.1088 H   0  0  0  0  0  0  0  0  0  0  0  0
   -0.3417   -2.2548   -1.9931 C   0  0  0  0  0  0  0  0  0  0  0  0
    0.0409   -3.2792   -2.2067 H   0  0  0  0  0  0  0  0  0  0  0  0
   -0.6824   -1.8291   -2.9635 H   0  0  0  0  0  0  0  0  0  0  0  0
   -1.5259   -2.3394   -1.0208 C   0  0  0  0  0  0  0  0  0  0  0  0
   -2.3011   -3.0143   -1.4616 H   0  0  0  0  0  0  0  0  0  0  0  0
   -1.1732   -2.7915   -0.0701 H   0  0  0  0  0  0  0  0  0  0  0  0
   -2.7556   -0.3865   -1.8423 C   0  0  0  0  0  0  0  0  0  0  0  0
   -3.5103   -1.0865   -2.2836 H   0  0  0  0  0  0  0  0  0  0  0  0
   -1.9998   -0.1619   -2.6226 H   0  0  0  0  0  0  0  0  0  0  0  0
   -3.4450    0.9152   -1.4324 C   0  0  0  0  0  0  0  0  0  0  0  0
   -2.6745    1.6638   -1.1276 H   0  0  0  0  0  0  0  0  0  0  0  0
   -4.0068    1.3223   -2.2968 H   0  0  0  0  0  0  0  0  0  0  0  0
   -4.3787    0.7038   -0.3871 O   0  0  0  0  0  0  0  0  0  0  0  0
   -3.7131    0.1720    0.7479 C   0  0  0  0  0  0  0  0  0  0  0  0
   -4.4730    0.0394    1.5432 H   0  0  0  0  0  0  0  0  0  0  0  0
   -2.9414    0.8903    1.1198 H   0  0  0  0  0  0  0  0  0  0  0  0
   -3.0611   -1.1683    0.4295 C   0  0  0  0  0  0  0  0  0  0  0  0
   -3.8557   -1.9058    0.1540 H   0  0  0  0  0  0  0  0  0  0  0  0
   -2.5069   -1.5495    1.3129 H   0  0  0  0  0  0  0  0  0  0  0  0
  1  4  1  0  0  0  0
  3 31  1  0  0  0  0
  4  5  1  0  0  0  0
  6  4  1  0  0  0  0
  6  7  1  0  0  0  0
  8  6  2  0  0  0  0
  9  8  1  0  0  0  0
 10 12  2  0  0  0  0
 10  8  1  0  0  0  0
 11 10  1  0  0  0  0
 12  1  1  0  0  0  0
 13  2  1  0  0  0  0
 13 12  1  0  0  0  0
 14 13  1  0  0  0  0
 15  2  1  0  0  0  0
 15 18  1  0  0  0  0
 16 15  1  0  0  0  0
 17 15  1  0  0  0  0
 18  3  1  0  0  0  0
 18 20  1  0  0  0  0
 19 18  1  0  0  0  0
 21 24  1  0  0  0  0
 21  3  1  0  0  0  0
 22 21  1  0  0  0  0
 23 21  1  0  0  0  0
 24 25  1  0  0  0  0
 24 27  1  0  0  0  0
 26 24  1  0  0  0  0
 27 28  1  0  0  0  0
 28 30  1  0  0  0  0
 28 29  1  0  0  0  0
 31 28  1  0  0  0  0
 31 33  1  0  0  0  0
 32 31  1  0  0  0  0
M  END
