10,11,12
q = -2.0, confidence = 0.922

 74 76  0  0  0  0  0  0  0  0999 V2000
   -0.3771    3.5939    0.8341 S   0  0  0  0  0  0  0  0  0  0  0  0
   -4.1161   -1.0112   -0.2798 S   0  0  0  0  0  0  0  0  0  0  0  0
    2.6543   -2.2917    0.0462 S   0  0  0  0  0  0  0  0  0  0  0  0
    0.6057    4.6867    0.6498 O   0  0  0  0  0  0  0  0  0  0  0  0
   -1.7337    3.8976    1.3914 O   0  0  0  0  0  0  0  0  0  0  0  0
   -4.4758   -0.0627    0.8240 O   0  0  0  0  0  0  0  0  0  0  0  0
   -5.1734   -1.7926   -0.9599 O   0  0  0  0  0  0  0  0  0  0  0  0
    3.2937   -3.6086    0.2482 O   0  0  0  0  0  0  0  0  0  0  0  0
    1.8707   -1.6260    1.1081 O   0  0  0  0  0  0  0  0  0  0  0  0
   -0.6635    0.4376   -2.0220 N   0  0  0  0  0  0  0  0  0  0  0  0
   -0.6115    2.8086   -0.5966 N   0  0  0  0  0  2  0  0  0  0  0  0
   -3.2632   -0.1398   -1.3954 N   0  0  0  0  0  2  0  0  0  0  0  0
    1.6157   -2.5336   -1.2817 N   0  0  0  0  0  0  0  0  0  0  0  0
    0.2204    1.5600   -2.4823 C   0  0  0  0  0  0  0  0  0  0  0  0
    1.1082    1.1733   -3.0280 H   0  0  0  0  0  0  0  0  0  0  0  0
   -0.3834    2.1654   -3.1856 H   0  0  0  0  0  0  0  0  0  0  0  0
    0.6220    2.4231   -1.2934 C   0  0  0  0  0  0  0  0  0  0  0  0
    1.3314    1.8550   -0.6402 H   0  0  0  0  0  0  0  0  0  0  0  0
    1.1791    3.3158   -1.6526 H   0  0  0  0  0  0  0  0  0  0  0  0
    0.3734    2.4046    1.9615 C   0  0  0  0  0  0  0  0  0  0  0  0
   -0.4259    1.4193    2.5638 C   0  0  0  0  0  0  0  0  0  0  0  0
   -1.5157    1.4394    2.4154 H   0  0  0  0  0  0  0  0  0  0  0  0
    0.1786    0.4380    3.3560 C   0  0  0  0  0  0  0  0  0  0  0  0
   -0.4483   -0.3282    3.8381 H   0  0  0  0  0  0  0  0  0  0  0  0
    1.5774    0.4079    3.5483 C   0  0  0  0  0  0  0  0  0  0  0  0
    2.3510    1.4293    2.9604 C   0  0  0  0  0  0  0  0  0  0  0  0
    3.4405    1.4407    3.1229 H   0  0  0  0  0  0  0  0  0  0  0  0
    1.7605    2.4269    2.1700 C   0  0  0  0  0  0  0  0  0  0  0  0
    2.3529    3.2401    1.7249 H   0  0  0  0  0  0  0  0  0  0  0  0
    2.2280   -0.7155    4.3085 C   0  0  0  0  0  0  0  0  0  0  0  0
    2.4862   -1.5302    3.5981 H   0  0  0  0  0  0  0  0  0  0  0  0
    1.5520   -1.1412    5.0757 H   0  0  0  0  0  0  0  0  0  0  0  0
    3.1641   -0.3926    4.8046 H   0  0  0  0  0  0  0  0  0  0  0  0
   -1.5448   -0.1117   -3.1056 C   0  0  0  0  0  0  0  0  0  0  0  0
   -0.9595   -0.7124   -3.8377 H   0  0  0  0  0  0  0  0  0  0  0  0
   -1.9556    0.7670   -3.6389 H   0  0  0  0  0  0  0  0  0  0  0  0
   -2.6837   -0.9251   -2.4955 C   0  0  0  0  0  0  0  0  0  0  0  0
   -3.4363   -1.1440   -3.2851 H   0  0  0  0  0  0  0  0  0  0  0  0
   -2.2968   -1.9170   -2.1550 H   0  0  0  0  0  0  0  0  0  0  0  0
   -2.9594   -2.2061    0.4160 C   0  0  0  0  0  0  0  0  0  0  0  0
   -2.9104   -3.5028   -0.1196 C   0  0  0  0  0  0  0  0  0  0  0  0
   -3.6766   -3.8107   -0.8459 H   0  0  0  0  0  0  0  0  0  0  0  0
   -1.8993   -4.3811    0.3014 C   0  0  0  0  0  0  0  0  0  0  0  0
   -1.8594   -5.3991   -0.1177 H   0  0  0  0  0  0  0  0  0  0  0  0
   -0.9357   -3.9881    1.2512 C   0  0  0  0  0  0  0  0  0  0  0  0
   -1.0268   -2.6855    1.7925 C   0  0  0  0  0  0  0  0  0  0  0  0
   -0.2806   -2.3582    2.5302 H   0  0  0  0  0  0  0  0  0  0  0  0
   -2.0230   -1.7960    1.3805 C   0  0  0  0  0  0  0  0  0  0  0  0
   -2.0796   -0.7783    1.7903 H   0  0  0  0  0  0  0  0  0  0  0  0
    0.1817   -4.9085    1.6643 C   0  0  0  0  0  0  0  0  0  0  0  0
    0.3383   -4.8875    2.7616 H   0  0  0  0  0  0  0  0  0  0  0  0
    1.1412   -4.5950    1.2012 H   0  0  0  0  0  0  0  0  0  0  0  0
   -0.0148   -5.9551    1.3615 H   0  0  0  0  0  0  0  0  0  0  0  0
    0.0590   -0.6128   -1.2482 C   0  0  0  0  0  0  0  0  0  0  0  0
   -0.6849   -1.3224   -0.8444 H   0  0  0  0  0  0  0  0  0  0  0  0
    0.5167   -0.1295   -0.3658 H   0  0  0  0  0  0  0  0  0  0  0  0
    1.1114   -1.3946   -2.0482 C   0  0  0  0  0  0  0  0  0  0  0  0
    0.6482   -1.8268   -2.9581 H   0  0  0  0  0  0  0  0  0  0  0  0
    1.9361   -0.7256   -2.3914 H   0  0  0  0  0  0  0  0  0  0  0  0
    3.8846   -1.1136   -0.5148 C   0  0  0  0  0  0  0  0  0  0  0  0
    3.7432    0.2376   -0.1670 C   0  0  0  0  0  0  0  0  0  0  0  0
    2.9320    0.5468    0.5084 H   0  0  0  0  0  0  0  0  0  0  0  0
    4.6659    1.1676   -0.6654 C   0  0  0  0  0  0  0  0  0  0  0  0
    4.5562    2.2297   -0.3948 H   0  0  0  0  0  0  0  0  0  0  0  0
    5.7298    0.7667   -1.5000 C   0  0  0  0  0  0  0  0  0  0  0  0
    5.8499   -0.6051   -1.8213 C   0  0  0  0  0  0  0  0  0  0  0  0
    6.6814   -0.9380   -2.4621 H   0  0  0  0  0  0  0  0  0  0  0  0
    4.9383   -1.5491   -1.3356 C   0  0  0  0  0  0  0  0  0  0  0  0
    5.0454   -2.6180   -1.5731 H   0  0  0  0  0  0  0  0  0  0  0  0
    6.7361    1.7649   -2.0088 C   0  0  0  0  0  0  0  0  0  0  0  0
    7.0611    1.5273   -3.0410 H   0  0  0  0  0  0  0  0  0  0  0  0
    7.6478    1.7590   -1.3736 H   0  0  0  0  0  0  0  0  0  0  0  0
    6.3334    2.7959   -1.9962 H   0  0  0  0  0  0  0  0  0  0  0  0
    2.0134   -3.2874   -1.8530 H   0  0  0  0  0  0  0  0  0  0  0  0
  1  5  2  0  0  0  0
  1 20  1  0  0  0  0
  2 40  1  0  0  0  0
  2  6  2  0  0  0  0
  3  8  2  0  0  0  0
  3  9  2  0  0  0  0
  4  1  2  0  0  0  0
  7  2  2  0  0  0  0
 10 54  1  0  0  0  0
 11  1  1  0  0  0  0
 12  2  1  0  0  0  0
 13  3  1  0  0  0  0
 14 10  1  0  0  0  0
 14 17  1  0  0  0  0
 15 14  1  0  0  0  0
 16 14  1  0  0  0  0
 17 18  1  0  0  0  0
 17 11  1  0  0  0  0
 19 17  1  0  0  0  0
 20 28  2  0  0  0  0
 20 21  1  0  0  0  0
 21 23  2  0  0  0  0
 22 21  1  0  0  0  0
 23 25  1  0  0  0  0
 23 24  1  0  0  0  0
 25 30  1  0  0  0  0
 26 27  1  0  0  0  0
 26 25  2  0  0  0  0
 28 26  1  0  0  0  0
 29 28  1  0  0  0  0
 30 33  1  0  0  0  0
 30 32  1  0  0  0  0
 31 30  1  0  0  0  0
 34 37  1  0  0  0  0
 34 10  1  0  0  0  0
 35 34  1  0  0  0  0
 36 34  1  0  0  0  0
 37 39  1  0  0  0  0
 37 12  1  0  0  0  0
 38 37  1  0  0  0  0
 40 48  1  0  0  0  0
 41 43  1  0  0  0  0
 41 40  2  0  0  0  0
 42 41  1  0  0  0  0
 43 45  2  0  0  0  0
 44 43  1  0  0  0  0
 45 50  1  0  0  0  0
 45 46  1  0  0  0  0
 46 47  1  0  0  0  0
 48 49  1  0  0  0  0
 48 46  2  0  0  0  0
 50 51  1  0  0  0  0
 52 50  1  0  0  0  0
 53 50  1  0  0  0  0
 54 55  1  0  0  0  0
 54 56  1  0  0  0  0
 57 13  1  0  0  0  0
 57 54  1  0  0  0  0
 58 57  1  0  0  0  0
 59 57  1  0  0  0  0
 60 61  1  0  0  0  0
 60  3  1  0  0  0  0
 61 62  1  0  0  0  0
 63 64  1  0  0  0  0
 63 61  2  0  0  0  0
 65 63  1  0  0  0  0
 66 65  2  0  0  0  0
 66 68  1  0  0  0  0
 67 66  1  0  0  0  0
 68 60  2  0  0  0  0
 69 68  1  0  0  0  0
 70 73  1  0  0  0  0
 70 65  1  0  0  0  0
 70 72  1  0  0  0  0
 71 70  1  0  0  0  0
 74 13  1  0  0  0  0
M  END
