1,2,3
q = 0.0, confidence = 0.97

 36 39  0  0  1  0  0  0  0  0999 V2000
    0.4311    1.9505   -1.4619 N   0  0  0  0  0  2  0  0  0  0  0  0
   -1.0172   -0.0618   -0.9233 N   0  0  0  0  0  2  0  0  0  0  0  0
    0.4608   -2.0915   -1.3241 N   0  0  0  0  0  2  0  0  0  0  0  0
   -2.9989    1.1346   -0.4776 N   0  0  0  0  0  0  0  0  0  0  0  0
   -2.9823   -1.2695   -0.4131 N   0  0  0  0  0  0  0  0  0  0  0  0
   -5.4800   -1.2259    0.7293 N   0  0  0  0  0  0  0  0  0  0  0  0
    1.2621    2.9453   -1.8436 C   0  0  0  0  0  3  0  0  0  0  0  0
    2.2664    2.6178   -2.1500 H   0  0  0  0  0  0  0  0  0  0  0  0
    0.8596    4.2836   -1.8618 C   0  0  0  0  0  0  0  0  0  0  0  0
    1.5775    5.0553   -2.1743 H   0  0  0  0  0  0  0  0  0  0  0  0
   -0.4550    4.6197   -1.4876 C   0  0  0  0  0  0  0  0  0  0  0  0
   -0.7888    5.6676   -1.4911 H   0  0  0  0  0  0  0  0  0  0  0  0
   -1.3351    3.5936   -1.1324 C   0  0  0  0  0  0  0  0  0  0  0  0
   -2.3823    3.7778   -0.8546 H   0  0  0  0  0  0  0  0  0  0  0  0
   -0.8765    2.2684   -1.1389 C   0  0  0  0  0  0  0  0  0  0  0  0
   -1.7184    1.1094   -0.8273 C   0  0  1  0  0  3  0  0  0  0  0  0
   -1.7041   -1.2356   -0.7649 C   0  0  0  0  0  0  0  0  0  0  0  0
   -0.8463   -2.4010   -0.9975 C   0  0  1  0  0  3  0  0  0  0  0  0
   -1.2959   -3.7259   -0.9047 C   0  0  0  0  0  0  0  0  0  0  0  0
   -2.3462   -3.8949   -0.6271 H   0  0  0  0  0  0  0  0  0  0  0  0
   -0.4001   -4.7641   -1.1791 C   0  0  0  0  0  0  0  0  0  0  0  0
   -0.7236   -5.8133   -1.1156 H   0  0  0  0  0  0  0  0  0  0  0  0
    0.9155   -4.4402   -1.5577 C   0  0  0  0  0  0  0  0  0  0  0  0
    1.6447   -5.2242   -1.8074 H   0  0  0  0  0  0  0  0  0  0  0  0
    1.3072   -3.0993   -1.6251 C   0  0  0  0  0  0  0  0  0  0  0  0
    2.3115   -2.7793   -1.9413 H   0  0  0  0  0  0  0  0  0  0  0  0
   -3.5821   -0.0685   -0.2317 C   0  0  0  0  0  0  0  0  0  0  0  0
   -4.9714   -0.0536    0.2952 C   0  0  0  0  0  0  0  0  0  0  0  0
   -5.6943    1.1600    0.3532 C   0  0  0  0  0  0  0  0  0  0  0  0
   -5.2203    2.0819   -0.0091 H   0  0  0  0  0  0  0  0  0  0  0  0
   -6.9936    1.1433    0.8706 C   0  0  0  0  0  0  0  0  0  0  0  0
   -7.5847    2.0704    0.9235 H   0  0  0  0  0  0  0  0  0  0  0  0
   -7.5276   -0.0747    1.3179 C   0  0  0  0  0  0  0  0  0  0  0  0
   -8.5445   -0.1377    1.7330 H   0  0  0  0  0  0  0  0  0  0  0  0
   -6.7224   -1.2245    1.2239 C   0  0  0  0  0  0  0  0  0  0  0  0
   -7.1097   -2.1992    1.5734 H   0  0  0  0  0  0  0  0  0  0  0  0
  1 15  1  0  0  0  0
  2 16  1  0  0  0  0
  2 17  1  0  0  0  0
  3 18  1  0  0  0  0
  4 27  2  0  0  0  0
  5 27  1  0  0  0  0
  6 35  1  0  0  0  0
  7  1  1  0  0  0  0
  8  7  1  0  0  0  0
  9  7  1  0  0  0  0
  9 11  2  0  0  0  0
 10  9  1  0  0  0  0
 11 13  1  0  0  0  0
 12 11  1  0  0  0  0
 13 14  1  0  0  0  0
 15 13  2  0  0  0  0
 16 15  1  1  0  0  0
 16  4  1  0  0  0  0
 17  5  2  0  0  0  0
 18 19  1  0  0  0  0
 18 17  1  6  0  0  0
 19 20  1  0  0  0  0
 21 22  1  0  0  0  0
 21 19  2  0  0  0  0
 23 21  1  0  0  0  0
 24 23  1  0  0  0  0
 25 23  2  0  0  0  0
 25  3  1  0  0  0  0
 26 25  1  0  0  0  0
 27 28  1  0  0  0  0
 28 29  1  0  0  0  0
 28  6  2  0  0  0  0
 29 31  2  0  0  0  0
 30 29  1  0  0  0  0
 31 32  1  0  0  0  0
 31 33  1  0  0  0  0
 33 34  1  0  0  0  0
 35 33  2  0  0  0  0
 35 36  1  0  0  0  0
M  END
