12,14,38
q = -1.0

 44 46  0  0  1  0  0  0  0  0999 V2000
    2.8263   -3.3240   -0.6515 F   0  0  0  0  0  0  0  0  0  0  0  0
    2.8277   -2.2344   -2.5415 F   0  0  0  0  0  0  0  0  0  0  0  0
    2.0671   -4.2834   -2.4642 F   0  0  0  0  0  0  0  0  0  0  0  0
   -3.2609   -3.5690   -2.0500 F   0  0  0  0  0  0  0  0  0  0  0  0
   -3.4968   -1.3974   -2.0612 F   0  0  0  0  0  0  0  0  0  0  0  0
   -3.4966   -2.4836   -0.1691 F   0  0  0  0  0  0  0  0  0  0  0  0
    2.8290   -1.0851    3.2045 F   0  0  0  0  0  0  0  0  0  0  0  0
    2.0700    0.0082    4.9399 F   0  0  0  0  0  0  0  0  0  0  0  0
   -3.2585    0.0059    4.1172 F   0  0  0  0  0  0  0  0  0  0  0  0
   -3.4950    1.0964    2.2394 F   0  0  0  0  0  0  0  0  0  0  0  0
   -0.7846   -1.2680   -0.7291 N   0  0  0  0  0  0  0  0  0  0  0  0
    0.5493   -1.4583   -0.8388 N   0  0  0  0  0  2  0  0  0  0  0  0
   -0.7837    0.0029    1.4626 N   0  0  0  0  0  0  0  0  0  0  0  0
    0.5503    0.0032    1.6815 N   0  0  0  0  0  2  0  0  0  0  0  0
    0.7451   -2.6105   -1.5009 C   0  0  2  0  0  3  0  0  0  0  0  0
   -0.4897   -3.1949   -1.8365 C   0  0  0  0  0  0  0  0  0  0  0  0
   -0.6717   -4.1293   -2.3733 H   0  0  0  0  0  0  0  0  0  0  0  0
   -1.4387   -2.3068   -1.3257 C   0  0  0  0  0  0  0  0  0  0  0  0
    2.1375   -3.1141   -1.7902 C   0  0  0  0  0  0  0  0  0  0  0  0
   -2.9382   -2.4324   -1.3975 C   0  0  0  0  0  0  0  0  0  0  0  0
    0.7468    0.0051    3.0102 C   0  0  2  0  0  3  0  0  0  0  0  0
   -0.4876    0.0062    3.6849 C   0  0  0  0  0  0  0  0  0  0  0  0
   -0.6690    0.0079    4.7625 H   0  0  0  0  0  0  0  0  0  0  0  0
   -1.4371    0.0048    2.6609 C   0  0  0  0  0  0  0  0  0  0  0  0
    2.1396    0.0062    3.5902 C   0  0  0  0  0  0  0  0  0  0  0  0
   -2.9366    0.0054    2.8064 C   0  0  0  0  0  0  0  0  0  0  0  0
   -1.3343    0.0002    0.0000 B   0  0  1  0  0  0  0  0  0  0  0  0
   -2.5356    0.0004    0.0003 H   0  0  0  0  0  0  0  0  0  0  0  0
    2.8269    3.3196   -0.6633 F   0  0  0  0  0  0  0  0  0  0  0  0
    2.8276    2.2256   -2.5507 F   0  0  0  0  0  0  0  0  0  0  0  0
    2.0678    4.2751   -2.4783 F   0  0  0  0  0  0  0  0  0  0  0  0
   -3.2609    3.5612   -2.0633 F   0  0  0  0  0  0  0  0  0  0  0  0
   -3.4964    1.3897   -2.0660 F   0  0  0  0  0  0  0  0  0  0  0  0
   -3.4961    2.4833   -0.1781 F   0  0  0  0  0  0  0  0  0  0  0  0
    2.8287    1.0965    3.2013 F   0  0  0  0  0  0  0  0  0  0  0  0
   -3.4958   -1.0854    2.2399 F   0  0  0  0  0  0  0  0  0  0  0  0
   -0.7844    1.2655   -0.7338 N   0  0  0  0  0  0  0  0  0  0  0  0
    0.5495    1.4552   -0.8444 N   0  0  0  0  0  2  0  0  0  0  0  0
    0.7453    2.6051   -1.5104 C   0  0  1  0  0  3  0  0  0  0  0  0
   -0.4894    3.1885   -1.8479 C   0  0  0  0  0  0  0  0  0  0  0  0
   -0.6714    4.1209   -2.3881 H   0  0  0  0  0  0  0  0  0  0  0  0
   -1.4384    2.3022   -1.3342 C   0  0  0  0  0  0  0  0  0  0  0  0
    2.1379    3.1075   -1.8014 C   0  0  0  0  0  0  0  0  0  0  0  0
   -2.9379    2.4273   -1.4064 C   0  0  0  0  0  0  0  0  0  0  0  0
  2 19  1  0  0  0  0
  3 19  1  0  0  0  0
  4 20  1  0  0  0  0
  5 20  1  0  0  0  0
  7 25  1  0  0  0  0
 10 26  1  0  0  0  0
 11 27  1  0  0  0  0
 12 11  1  0  0  0  0
 13 14  1  0  0  0  0
 13 24  1  0  0  0  0
 14 21  1  0  0  0  0
 15 19  1  1  0  0  0
 15 12  1  0  0  0  0
 16 15  1  0  0  0  0
 16 18  2  0  0  0  0
 17 16  1  0  0  0  0
 18 11  1  0  0  0  0
 19  1  1  0  0  0  0
 20 18  1  0  0  0  0
 20  6  1  0  0  0  0
 21 25  1  6  0  0  0
 21 22  1  0  0  0  0
 22 23  1  0  0  0  0
 24 26  1  0  0  0  0
 24 22  2  0  0  0  0
 25  8  1  0  0  0  0
 26  9  1  0  0  0  0
 27 28  1  1  0  0  0
 27 13  1  0  0  0  0
 30 43  1  0  0  0  0
 31 43  1  0  0  0  0
 32 44  1  0  0  0  0
 33 44  1  0  0  0  0
 35 25  1  0  0  0  0
 36 26  1  0  0  0  0
 37 27  1  0  0  0  0
 38 37  1  0  0  0  0
 39 43  1  1  0  0  0
 39 38  1  0  0  0  0
 40 39  1  0  0  0  0
 40 42  2  0  0  0  0
 41 40  1  0  0  0  0
 42 37  1  0  0  0  0
 43 29  1  0  0  0  0
 44 42  1  0  0  0  0
 44 34  1  0  0  0  0
M  END
