5,6,7
q = -2.0, confidence = 0.984

 45 47  0  0  1  0  0  0  0  0999 V2000
    3.6243    2.6004    0.2178 O   0  0  0  0  0  0  0  0  0  0  0  0
   -3.4436    2.8564   -0.1320 O   0  0  0  0  0  0  0  0  0  0  0  0
    5.6591   -3.4341   -0.3797 O   0  0  0  0  0  0  0  0  0  0  0  0
   -5.9903   -2.9402   -0.1497 O   0  0  0  0  0  0  0  0  0  0  0  0
    0.0854    2.5421    0.0354 N   0  0  0  0  0  2  0  0  0  0  0  0
    2.0654    0.8668   -0.0595 N   0  0  0  0  0  2  0  0  0  0  0  0
   -2.0077    1.0118    0.0357 N   0  0  0  0  0  2  0  0  0  0  0  0
    2.4694    2.1748    0.1042 C   0  0  0  0  0  0  0  0  0  0  0  0
    1.2949    3.1252    0.1009 C   0  0  1  0  0  3  0  0  0  0  0  0
    1.3768    4.5232    0.1526 C   0  0  0  0  0  0  0  0  0  0  0  0
    2.3744    4.9804    0.2173 H   0  0  0  0  0  0  0  0  0  0  0  0
    0.1838    5.2666    0.1145 C   0  0  0  0  0  0  0  0  0  0  0  0
    0.2236    6.3661    0.1462 H   0  0  0  0  0  0  0  0  0  0  0  0
   -1.0600    4.6146    0.0361 C   0  0  0  0  0  0  0  0  0  0  0  0
   -2.0216    5.1460   -0.0002 H   0  0  0  0  0  0  0  0  0  0  0  0
   -1.0790    3.2143    0.0061 C   0  0  0  0  0  0  0  0  0  0  0  0
   -2.3196    2.3513   -0.0501 C   0  0  0  0  0  0  0  0  0  0  0  0
    3.0131   -0.1755   -0.1154 C   0  0  0  0  0  0  0  0  0  0  0  0
    2.8516   -1.2124   -1.0658 C   0  0  0  0  0  0  0  0  0  0  0  0
    2.0087   -1.1536   -1.7699 H   0  0  0  0  0  0  0  0  0  0  0  0
    3.7420   -2.2841   -1.1282 C   0  0  0  0  0  0  0  0  0  0  0  0
    3.6211   -3.0866   -1.8708 H   0  0  0  0  0  0  0  0  0  0  0  0
    4.8413   -2.3491   -0.2449 C   0  0  0  0  0  0  0  0  0  0  0  0
    5.0276   -1.3139    0.6937 C   0  0  0  0  0  0  0  0  0  0  0  0
    5.8792   -1.3272    1.3873 H   0  0  0  0  0  0  0  0  0  0  0  0
    4.1233   -0.2437    0.7543 C   0  0  0  0  0  0  0  0  0  0  0  0
    4.2873    0.5656    1.4770 H   0  0  0  0  0  0  0  0  0  0  0  0
   -3.0316    0.0420    0.0163 C   0  0  0  0  0  0  0  0  0  0  0  0
   -4.0497    0.0386   -0.9694 C   0  0  0  0  0  0  0  0  0  0  0  0
   -4.0767    0.8465   -1.7125 H   0  0  0  0  0  0  0  0  0  0  0  0
   -5.0168   -0.9654   -0.9937 C   0  0  0  0  0  0  0  0  0  0  0  0
   -5.8101   -0.9720   -1.7554 H   0  0  0  0  0  0  0  0  0  0  0  0
   -5.0043   -2.0032   -0.0357 C   0  0  0  0  0  0  0  0  0  0  0  0
   -4.0055   -2.0066    0.9602 C   0  0  0  0  0  0  0  0  0  0  0  0
   -3.9861   -2.7785    1.7422 H   0  0  0  0  0  0  0  0  0  0  0  0
   -3.0412   -0.9850    0.9809 C   0  0  0  0  0  0  0  0  0  0  0  0
   -2.2737   -0.9721    1.7691 H   0  0  0  0  0  0  0  0  0  0  0  0
    6.7861   -3.5279    0.4672 C   0  0  0  0  0  0  0  0  0  0  0  0
    6.4984   -3.5807    1.5421 H   0  0  0  0  0  0  0  0  0  0  0  0
    7.4823   -2.6691    0.3319 H   0  0  0  0  0  0  0  0  0  0  0  0
    7.3113   -4.4614    0.1911 H   0  0  0  0  0  0  0  0  0  0  0  0
   -6.0425   -3.9739    0.8096 C   0  0  0  0  0  0  0  0  0  0  0  0
   -5.1219   -4.6032    0.7985 H   0  0  0  0  0  0  0  0  0  0  0  0
   -6.1847   -3.5807    1.8419 H   0  0  0  0  0  0  0  0  0  0  0  0
   -6.9094   -4.6080    0.5453 H   0  0  0  0  0  0  0  0  0  0  0  0
  2 17  2  0  0  0  0
  3 23  1  0  0  0  0
  3 38  1  0  0  0  0
  4 33  1  0  0  0  0
  4 42  1  0  0  0  0
  5  9  1  0  0  0  0
  6  8  1  0  0  0  0
  8  1  2  0  0  0  0
  9  8  1  6  0  0  0
  9 10  1  0  0  0  0
 10 11  1  0  0  0  0
 12 13  1  0  0  0  0
 12 10  2  0  0  0  0
 14 12  1  0  0  0  0
 15 14  1  0  0  0  0
 16  5  1  0  0  0  0
 16 14  2  0  0  0  0
 17 16  1  0  0  0  0
 17  7  1  0  0  0  0
 18  6  1  0  0  0  0
 18 26  1  0  0  0  0
 19 18  2  0  0  0  0
 20 19  1  0  0  0  0
 21 19  1  0  0  0  0
 21 23  2  0  0  0  0
 22 21  1  0  0  0  0
 23 24  1  0  0  0  0
 24 26  2  0  0  0  0
 24 25  1  0  0  0  0
 26 27  1  0  0  0  0
 28  7  1  0  0  0  0
 28 36  1  0  0  0  0
 29 28  2  0  0  0  0
 30 29  1  0  0  0  0
 31 29  1  0  0  0  0
 31 33  2  0  0  0  0
 32 31  1  0  0  0  0
 33 34  1  0  0  0  0
 34 36  2  0  0  0  0
 34 35  1  0  0  0  0
 36 37  1  0  0  0  0
 38 39  1  0  0  0  0
 40 38  1  0  0  0  0
 41 38  1  0  0  0  0
 42 44  1  0  0  0  0
 43 42  1  0  0  0  0
 45 42  1  0  0  0  0
M  END
