1,11,30
q = -2.0, confidence = 0.962

 47 49  0  0  0  0  0  0  0  0999 V2000
    0.0010    1.7439    0.0006 N   0  0  0  0  0  2  0  0  0  0  0  0
    1.1963    2.3601    0.2209 C   0  0  0  0  0  0  0  0  0  0  0  0
    1.2096    3.7703    0.2234 C   0  0  0  0  0  0  0  0  0  0  0  0
    2.1512    4.3069    0.3971 H   0  0  0  0  0  0  0  0  0  0  0  0
    0.0035    4.4541    0.0007 C   0  0  0  0  0  0  0  0  0  0  0  0
    0.0045    5.5544    0.0008 H   0  0  0  0  0  0  0  0  0  0  0  0
   -1.2040    3.7726   -0.2220 C   0  0  0  0  0  0  0  0  0  0  0  0
   -2.1446    4.3109   -0.3957 H   0  0  0  0  0  0  0  0  0  0  0  0
   -1.1933    2.3623   -0.2197 C   0  0  0  0  0  0  0  0  0  0  0  0
    2.2870    1.4320    0.4213 C   0  0  0  0  0  0  0  0  0  0  0  0
    1.9770    0.0767    0.3638 N   0  0  0  0  0  2  0  0  0  0  0  0
    3.0288   -0.6822    0.5632 N   0  0  0  0  0  2  0  0  0  0  0  0
    4.0848    0.1576    0.7629 C   0  0  0  0  0  0  0  0  0  0  0  0
    3.6677    1.5059    0.6801 C   0  0  0  0  0  0  0  0  0  0  0  0
    4.2807    2.4064    0.7949 H   0  0  0  0  0  0  0  0  0  0  0  0
    5.4600   -0.3994    0.9817 C   0  0  0  0  0  0  0  0  0  0  0  0
    5.4187   -1.1445    1.8054 H   0  0  0  0  0  0  0  0  0  0  0  0
    6.1297    0.4166    1.3252 H   0  0  0  0  0  0  0  0  0  0  0  0
    6.0460   -1.0717   -0.2711 C   0  0  0  0  0  0  0  0  0  0  0  0
    6.0975   -0.3261   -1.0956 H   0  0  0  0  0  0  0  0  0  0  0  0
    5.3344   -1.8541   -0.6133 H   0  0  0  0  0  0  0  0  0  0  0  0
    7.4285   -1.6873   -0.0420 C   0  0  0  0  0  0  0  0  0  0  0  0
    7.3630   -2.4272    0.7867 H   0  0  0  0  0  0  0  0  0  0  0  0
    8.1272   -0.8985    0.3173 H   0  0  0  0  0  0  0  0  0  0  0  0
    8.0055   -2.3588   -1.2887 C   0  0  0  0  0  0  0  0  0  0  0  0
    7.3428   -3.1731   -1.6488 H   0  0  0  0  0  0  0  0  0  0  0  0
    9.0036   -2.8004   -1.0939 H   0  0  0  0  0  0  0  0  0  0  0  0
    8.1170   -1.6339   -2.1221 H   0  0  0  0  0  0  0  0  0  0  0  0
   -2.2856    1.4363   -0.4201 C   0  0  0  0  0  0  0  0  0  0  0  0
   -1.9782    0.0804   -0.3628 N   0  0  0  0  0  2  0  0  0  0  0  0
   -3.0314   -0.6765   -0.5618 N   0  0  0  0  0  0  0  0  0  0  0  0
   -4.0860    0.1652   -0.7610 C   0  0  0  0  0  0  0  0  0  0  0  0
   -3.6664    1.5127   -0.6783 C   0  0  0  0  0  0  0  0  0  0  0  0
   -4.2777    2.4143   -0.7928 H   0  0  0  0  0  0  0  0  0  0  0  0
   -5.4621   -0.3893   -0.9803 C   0  0  0  0  0  0  0  0  0  0  0  0
   -6.1325    0.4301   -1.3145 H   0  0  0  0  0  0  0  0  0  0  0  0
   -5.4241   -1.1270   -1.8108 H   0  0  0  0  0  0  0  0  0  0  0  0
   -6.0444   -1.0726    0.2682 C   0  0  0  0  0  0  0  0  0  0  0  0
   -6.0934   -0.3343    1.0994 H   0  0  0  0  0  0  0  0  0  0  0  0
   -5.3317   -1.8579    0.6014 H   0  0  0  0  0  0  0  0  0  0  0  0
   -7.4276   -1.6862    0.0379 C   0  0  0  0  0  0  0  0  0  0  0  0
   -8.1274   -0.8943   -0.3123 H   0  0  0  0  0  0  0  0  0  0  0  0
   -7.3646   -2.4187   -0.7975 H   0  0  0  0  0  0  0  0  0  0  0  0
   -8.0006   -2.3688    1.2803 C   0  0  0  0  0  0  0  0  0  0  0  0
   -7.3368   -3.1862    1.6312 H   0  0  0  0  0  0  0  0  0  0  0  0
   -8.9993   -2.8088    1.0847 H   0  0  0  0  0  0  0  0  0  0  0  0
   -8.1097   -1.6513    2.1205 H   0  0  0  0  0  0  0  0  0  0  0  0
  1  2  1  0  0  0  0
  2  3  1  0  0  0  0
  2 10  2  0  0  0  0
  3  4  1  0  0  0  0
  5  6  1  0  0  0  0
  5  3  2  0  0  0  0
  7  9  2  0  0  0  0
  7  5  1  0  0  0  0
  8  7  1  0  0  0  0
  9  1  1  0  0  0  0
 10 14  1  0  0  0  0
 11 10  1  0  0  0  0
 11 12  1  0  0  0  0
 12 13  1  0  0  0  0
 13 16  1  0  0  0  0
 14 13  2  0  0  0  0
 14 15  1  0  0  0  0
 16 18  1  0  0  0  0
 16 17  1  0  0  0  0
 19 22  1  0  0  0  0
 19 16  1  0  0  0  0
 20 19  1  0  0  0  0
 21 19  1  0  0  0  0
 22 24  1  0  0  0  0
 22 23  1  0  0  0  0
 25 27  1  0  0  0  0
 25 22  1  0  0  0  0
 26 25  1  0  0  0  0
 28 25  1  0  0  0  0
 29 30  1  0  0  0  0
 29  9  1  0  0  0  0
 31 30  1  0  0  0  0
 32 33  1  0  0  0  0
 32 31  2  0  0  0  0
 33 29  2  0  0  0  0
 34 33  1  0  0  0  0
 35 32  1  0  0  0  0
 35 38  1  0  0  0  0
 36 35  1  0  0  0  0
 37 35  1  0  0  0  0
 38 40  1  0  0  0  0
 38 39  1  0  0  0  0
 41 38  1  0  0  0  0
 41 44  1  0  0  0  0
 42 41  1  0  0  0  0
 43 41  1  0  0  0  0
 44 45  1  0  0  0  0
 44 47  1  0  0  0  0
 46 44  1  0  0  0  0
M  END
