1,5,7
q = -1.0

 22 24  0  0  1  0  0  0  0  0999 V2000
   -0.0505    1.3859   -1.2535 N   0  0  0  0  0  0  0  0  0  0  0  0
   -0.9692    2.0599   -1.9314 N   0  0  0  0  0  0  0  0  0  0  0  0
   -0.3320    2.9821   -2.6601 N   0  0  0  0  0  0  0  0  0  0  0  0
    0.9970    2.9183   -2.4636 N   0  0  0  0  0  0  0  0  0  0  0  0
    1.8500    0.3869   -0.0193 N   0  0  0  0  0  2  0  0  0  0  0  0
    2.0253   -1.2797    1.5006 N   0  0  0  0  0  0  0  0  0  0  0  0
    0.6574   -1.2666    1.3908 N   0  0  0  0  0  2  0  0  0  0  0  0
    1.1641    1.9228   -1.5835 C   0  0  0  0  0  3  0  0  0  0  0  0
    2.2950    1.3268   -0.9101 C   0  0  2  0  0  3  0  0  0  0  0  0
    3.6725    1.5624   -1.0504 C   0  0  0  0  0  0  0  0  0  0  0  0
    4.0162    2.3206   -1.7663 H   0  0  0  0  0  0  0  0  0  0  0  0
    4.5672    0.8032   -0.2807 C   0  0  0  0  0  0  0  0  0  0  0  0
    5.6500    0.9660   -0.3814 H   0  0  0  0  0  0  0  0  0  0  0  0
    4.0998   -0.1818    0.6116 C   0  0  0  0  0  0  0  0  0  0  0  0
    4.7911   -0.7962    1.2028 H   0  0  0  0  0  0  0  0  0  0  0  0
    2.7146   -0.3541    0.6986 C   0  0  0  0  0  0  0  0  0  0  0  0
    2.4405   -2.2414    2.3839 C   0  0  0  0  0  3  0  0  0  0  0  0
    3.5020   -2.4032    2.5941 H   0  0  0  0  0  0  0  0  0  0  0  0
    1.2959   -2.8688    2.8608 C   0  0  0  0  0  0  0  0  0  0  0  0
    1.2496   -3.6909    3.5816 H   0  0  0  0  0  0  0  0  0  0  0  0
    0.2105   -2.2281    2.2108 C   0  0  0  0  0  0  0  0  0  0  0  0
   -0.8653   -2.4213    2.2852 H   0  0  0  0  0  0  0  0  0  0  0  0
  2  1  2  0  0  0  0
  3  4  2  0  0  0  0
  3  2  1  0  0  0  0
  4  8  1  0  0  0  0
  5 16  1  0  0  0  0
  6 17  1  0  0  0  0
  7  6  1  0  0  0  0
  7 21  1  0  0  0  0
  8  1  1  0  0  0  0
  9  8  1  6  0  0  0
  9  5  1  0  0  0  0
 10  9  1  0  0  0  0
 10 12  2  0  0  0  0
 11 10  1  0  0  0  0
 12 14  1  0  0  0  0
 13 12  1  0  0  0  0
 14 16  2  0  0  0  0
 14 15  1  0  0  0  0
 16  6  1  0  0  0  0
 17 18  1  0  0  0  0
 17 19  1  0  0  0  0
 19 20  1  0  0  0  0
 21 22  1  0  0  0  0
 21 19  2  0  0  0  0
M  END
