3,4,5
q = 0.0, confidence = 0.996

 53 56  0  0  1  0  0  0  0  0999 V2000
    1.7821    1.2108    2.1552 O   0  0  0  0  0  0  0  0  0  0  0  0
   -2.5759   -0.1670    1.6386 O   0  0  0  0  0  0  0  0  0  0  0  0
   -1.4616   -1.4302   -0.5548 N   0  0  0  0  0  0  0  0  0  0  0  0
    2.1362   -0.0209   -0.2992 N   0  0  0  0  0  0  0  0  0  0  0  0
    0.7654   -2.0010    0.5963 N   0  0  0  0  0  2  0  0  0  0  0  0
    2.0902   -2.1820    0.8239 C   0  0  2  0  0  3  0  0  0  0  0  0
    2.5608   -3.4251    1.2603 C   0  0  0  0  0  0  0  0  0  0  0  0
    1.6442   -4.4736    1.4412 C   0  0  0  0  0  0  0  0  0  0  0  0
    0.2818   -4.2692    1.1632 C   0  0  0  0  0  0  0  0  0  0  0  0
   -0.1351   -3.0073    0.7304 C   0  0  0  0  0  0  0  0  0  0  0  0
   -1.5357   -2.5876    0.3784 C   0  0  0  0  0  0  0  0  0  0  0  0
   -2.6314   -0.6142   -0.6915 C   0  0  0  0  0  0  0  0  0  0  0  0
   -3.1553   -0.3771   -1.9715 C   0  0  0  0  0  0  0  0  0  0  0  0
   -4.2188    0.5174   -2.1511 C   0  0  0  0  0  0  0  0  0  0  0  0
   -4.7565    1.1824   -1.0403 C   0  0  0  0  0  0  0  0  0  0  0  0
   -4.2318    0.9667    0.2435 C   0  0  0  0  0  0  0  0  0  0  0  0
   -3.1617    0.0755    0.4315 C   0  0  0  0  0  0  0  0  0  0  0  0
   -2.5966    0.8627    2.6396 C   0  0  0  0  0  0  0  0  0  0  0  0
   -1.5834    0.4847    3.7181 C   0  0  0  0  0  0  0  0  0  0  0  0
   -0.1539    0.2913    3.1956 C   0  0  0  0  0  0  0  0  0  0  0  0
    0.6396    1.5734    2.9548 C   0  0  0  0  0  0  0  0  0  0  0  0
    2.1449    2.0122    1.1087 C   0  0  0  0  0  0  0  0  0  0  0  0
    2.2800    3.4050    1.2185 C   0  0  0  0  0  0  0  0  0  0  0  0
    2.6332    4.1687    0.0951 C   0  0  0  0  0  0  0  0  0  0  0  0
    2.8541    3.5477   -1.1438 C   0  0  0  0  0  0  0  0  0  0  0  0
    2.7308    2.1564   -1.2610 C   0  0  0  0  0  0  0  0  0  0  0  0
    2.3878    1.3816   -0.1400 C   0  0  0  0  0  0  0  0  0  0  0  0
    2.9018   -0.9417    0.5840 C   0  0  0  0  0  0  0  0  0  0  0  0
   -1.1241   -1.7526   -1.4953 H   0  0  0  0  0  0  0  0  0  0  0  0
    2.2804   -0.3153   -1.3343 H   0  0  0  0  0  0  0  0  0  0  0  0
    3.6350   -3.5722    1.4410 H   0  0  0  0  0  0  0  0  0  0  0  0
    1.9951   -5.4600    1.7776 H   0  0  0  0  0  0  0  0  0  0  0  0
   -0.4481   -5.0846    1.2657 H   0  0  0  0  0  0  0  0  0  0  0  0
   -2.0574   -2.2449    1.2947 H   0  0  0  0  0  0  0  0  0  0  0  0
   -2.1216   -3.4220   -0.0617 H   0  0  0  0  0  0  0  0  0  0  0  0
   -2.6802   -0.8698   -2.8343 H   0  0  0  0  0  0  0  0  0  0  0  0
   -4.6105    0.7065   -3.1605 H   0  0  0  0  0  0  0  0  0  0  0  0
   -5.5858    1.8935   -1.1699 H   0  0  0  0  0  0  0  0  0  0  0  0
   -4.6446    1.5106    1.1036 H   0  0  0  0  0  0  0  0  0  0  0  0
   -3.6132    0.9401    3.0869 H   0  0  0  0  0  0  0  0  0  0  0  0
   -2.3476    1.8274    2.1492 H   0  0  0  0  0  0  0  0  0  0  0  0
   -1.6244    1.2614    4.5130 H   0  0  0  0  0  0  0  0  0  0  0  0
   -1.9255   -0.4571    4.1970 H   0  0  0  0  0  0  0  0  0  0  0  0
   -0.2035   -0.2271    2.2153 H   0  0  0  0  0  0  0  0  0  0  0  0
    0.4182   -0.3688    3.8804 H   0  0  0  0  0  0  0  0  0  0  0  0
    0.0365    2.3186    2.3995 H   0  0  0  0  0  0  0  0  0  0  0  0
    0.9845    2.0283    3.9110 H   0  0  0  0  0  0  0  0  0  0  0  0
    2.0916    3.8874    2.1886 H   0  0  0  0  0  0  0  0  0  0  0  0
    2.7249    5.2610    0.1901 H   0  0  0  0  0  0  0  0  0  0  0  0
    3.1088    4.1479   -2.0290 H   0  0  0  0  0  0  0  0  0  0  0  0
    2.8452    1.6466   -2.2299 H   0  0  0  0  0  0  0  0  0  0  0  0
    3.0751   -0.4394    1.5564 H   0  0  0  0  0  0  0  0  0  0  0  0
    3.8890   -1.1796    0.1340 H   0  0  0  0  0  0  0  0  0  0  0  0
  1 21  1  0  0  0  0
  2 18  1  0  0  0  0
  3 11  1  0  0  0  0
  4 27  1  0  0  0  0
  4 28  1  0  0  0  0
  5 10  1  0  0  0  0
  6  5  1  1  0  0  0
  6  7  1  0  0  0  0
  7 31  1  0  0  0  0
  7  8  2  0  0  0  0
  8 32  1  0  0  0  0
  9 33  1  0  0  0  0
  9  8  1  0  0  0  0
 10  9  2  0  0  0  0
 11 10  1  0  0  0  0
 11 34  1  0  0  0  0
 12  3  1  0  0  0  0
 12 17  1  0  0  0  0
 13 12  2  0  0  0  0
 14 13  1  0  0  0  0
 14 15  2  0  0  0  0
 15 16  1  0  0  0  0
 16 17  2  0  0  0  0
 16 39  1  0  0  0  0
 17  2  1  0  0  0  0
 18 40  1  0  0  0  0
 18 19  1  0  0  0  0
 19 43  1  0  0  0  0
 19 42  1  0  0  0  0
 20 19  1  0  0  0  0
 20 45  1  0  0  0  0
 21 20  1  0  0  0  0
 21 47  1  0  0  0  0
 22 23  1  0  0  0  0
 22  1  1  0  0  0  0
 23 48  1  0  0  0  0
 24 49  1  0  0  0  0
 24 23  2  0  0  0  0
 25 24  1  0  0  0  0
 26 25  2  0  0  0  0
 26 27  1  0  0  0  0
 27 22  2  0  0  0  0
 28  6  1  0  0  0  0
 28 52  1  0  0  0  0
 29  3  1  0  0  0  0
 30  4  1  0  0  0  0
 35 11  1  0  0  0  0
 36 13  1  0  0  0  0
 37 14  1  0  0  0  0
 38 15  1  0  0  0  0
 41 18  1  0  0  0  0
 44 20  1  0  0  0  0
 46 21  1  0  0  0  0
 50 25  1  0  0  0  0
 51 26  1  0  0  0  0
 53 28  1  0  0  0  0
M  END
