3,5,6
q = -2.0, confidence = 0.866

 58 58  0  0  0  0  0  0  0  0999 V2000
   -1.3637    0.9508    0.9853 P   0  0  1  0  0  0  0  0  0  0  0  0
    1.3636    0.9508    0.9854 P   0  0  2  0  0  0  0  0  0  0  0  0
   -0.0001   -0.1145    1.5271 N   0  0  0  0  0  0  0  0  0  0  0  0
    0.0000    1.9681    0.5378 N   0  0  0  0  0  0  0  0  0  0  0  0
   -1.6753   -0.2050   -0.2786 N   0  0  0  0  0  2  0  0  0  0  0  0
    1.6753   -0.2050   -0.2785 N   0  0  0  0  0  2  0  0  0  0  0  0
   -0.0001   -0.7207    2.8911 C   0  0  0  0  0  0  0  0  0  0  0  0
   -1.2646   -1.5813    3.0320 C   0  0  0  0  0  0  0  0  0  0  0  0
   -1.2815   -2.3836    2.2700 H   0  0  0  0  0  0  0  0  0  0  0  0
   -2.1793   -0.9632    2.9163 H   0  0  0  0  0  0  0  0  0  0  0  0
   -1.2963   -2.0446    4.0379 H   0  0  0  0  0  0  0  0  0  0  0  0
   -0.0002    0.4023    3.9440 C   0  0  0  0  0  0  0  0  0  0  0  0
   -0.9000    1.0429    3.8372 H   0  0  0  0  0  0  0  0  0  0  0  0
    0.8997    1.0428    3.8373 H   0  0  0  0  0  0  0  0  0  0  0  0
   -0.0002   -0.0203    4.9685 H   0  0  0  0  0  0  0  0  0  0  0  0
    1.2643   -1.5814    3.0322 C   0  0  0  0  0  0  0  0  0  0  0  0
    1.2812   -2.3837    2.2702 H   0  0  0  0  0  0  0  0  0  0  0  0
    1.2959   -2.0447    4.0380 H   0  0  0  0  0  0  0  0  0  0  0  0
    2.1790   -0.9633    2.9165 H   0  0  0  0  0  0  0  0  0  0  0  0
    0.0001    3.2164   -0.2431 C   0  0  0  0  0  0  0  0  0  0  0  0
    0.0001    2.9065   -1.7535 C   0  0  0  0  0  0  0  0  0  0  0  0
   -0.8903    2.3128   -2.0327 H   0  0  0  0  0  0  0  0  0  0  0  0
    0.8905    2.3127   -2.0327 H   0  0  0  0  0  0  0  0  0  0  0  0
    0.0002    3.8412   -2.3506 H   0  0  0  0  0  0  0  0  0  0  0  0
    1.2573    4.0207    0.1289 C   0  0  0  0  0  0  0  0  0  0  0  0
    1.2779    4.2419    1.2144 H   0  0  0  0  0  0  0  0  0  0  0  0
    1.2831    4.9763   -0.4315 H   0  0  0  0  0  0  0  0  0  0  0  0
    2.1811    3.4588   -0.1233 H   0  0  0  0  0  0  0  0  0  0  0  0
   -1.2570    4.0208    0.1288 C   0  0  0  0  0  0  0  0  0  0  0  0
   -2.1808    3.4589   -0.1232 H   0  0  0  0  0  0  0  0  0  0  0  0
   -1.2828    4.9764   -0.4316 H   0  0  0  0  0  0  0  0  0  0  0  0
   -1.2776    4.2420    1.2144 H   0  0  0  0  0  0  0  0  0  0  0  0
   -3.0084   -0.3487   -0.9252 C   0  0  0  0  0  0  0  0  0  0  0  0
   -4.1283   -0.0123    0.0794 C   0  0  0  0  0  0  0  0  0  0  0  0
   -4.0600   -0.6589    0.9776 H   0  0  0  0  0  0  0  0  0  0  0  0
   -5.1170   -0.1778   -0.3936 H   0  0  0  0  0  0  0  0  0  0  0  0
   -4.0827    1.0440    0.4128 H   0  0  0  0  0  0  0  0  0  0  0  0
   -3.1738   -1.8159   -1.3666 C   0  0  0  0  0  0  0  0  0  0  0  0
   -3.0581   -2.4987   -0.5018 H   0  0  0  0  0  0  0  0  0  0  0  0
   -2.4222   -2.0904   -2.1312 H   0  0  0  0  0  0  0  0  0  0  0  0
   -4.1808   -1.9689   -1.8042 H   0  0  0  0  0  0  0  0  0  0  0  0
   -3.1071    0.5847   -2.1457 C   0  0  0  0  0  0  0  0  0  0  0  0
   -3.0618    1.6473   -1.8308 H   0  0  0  0  0  0  0  0  0  0  0  0
   -4.0665    0.4296   -2.6801 H   0  0  0  0  0  0  0  0  0  0  0  0
   -2.2754    0.3881   -2.8493 H   0  0  0  0  0  0  0  0  0  0  0  0
    3.0084   -0.3488   -0.9250 C   0  0  0  0  0  0  0  0  0  0  0  0
    3.1736   -1.8160   -1.3665 C   0  0  0  0  0  0  0  0  0  0  0  0
    2.4220   -2.0904   -2.1311 H   0  0  0  0  0  0  0  0  0  0  0  0
    3.0579   -2.4989   -0.5017 H   0  0  0  0  0  0  0  0  0  0  0  0
    4.1806   -1.9691   -1.8042 H   0  0  0  0  0  0  0  0  0  0  0  0
    3.1073    0.5846   -2.1455 C   0  0  0  0  0  0  0  0  0  0  0  0
    2.2755    0.3882   -2.8490 H   0  0  0  0  0  0  0  0  0  0  0  0
    4.0666    0.4294   -2.6799 H   0  0  0  0  0  0  0  0  0  0  0  0
    3.0621    1.6472   -1.8305 H   0  0  0  0  0  0  0  0  0  0  0  0
    4.1284   -0.0126    0.0797 C   0  0  0  0  0  0  0  0  0  0  0  0
    4.0829    1.0436    0.4131 H   0  0  0  0  0  0  0  0  0  0  0  0
    5.1171   -0.1781   -0.3933 H   0  0  0  0  0  0  0  0  0  0  0  0
    4.0599   -0.6593    0.9778 H   0  0  0  0  0  0  0  0  0  0  0  0
  1  5  1  6  0  0  0
  1  3  1  0  0  0  0
  2  6  1  6  0  0  0
  2  3  1  0  0  0  0
  3  7  1  0  0  0  0
  4  1  1  0  0  0  0
  4  2  1  0  0  0  0
  7  8  1  0  0  0  0
  7 16  1  0  0  0  0
  7 12  1  0  0  0  0
  8 11  1  0  0  0  0
  9  8  1  0  0  0  0
 10  8  1  0  0  0  0
 12 15  1  0  0  0  0
 13 12  1  0  0  0  0
 14 12  1  0  0  0  0
 16 18  1  0  0  0  0
 17 16  1  0  0  0  0
 19 16  1  0  0  0  0
 20 29  1  0  0  0  0
 20 25  1  0  0  0  0
 20  4  1  0  0  0  0
 21 20  1  0  0  0  0
 22 21  1  0  0  0  0
 23 21  1  0  0  0  0
 24 21  1  0  0  0  0
 25 26  1  0  0  0  0
 27 25  1  0  0  0  0
 28 25  1  0  0  0  0
 29 32  1  0  0  0  0
 30 29  1  0  0  0  0
 31 29  1  0  0  0  0
 33  5  1  0  0  0  0
 33 34  1  0  0  0  0
 34 37  1  0  0  0  0
 34 35  1  0  0  0  0
 36 34  1  0  0  0  0
 38 33  1  0  0  0  0
 38 39  1  0  0  0  0
 40 38  1  0  0  0  0
 41 38  1  0  0  0  0
 42 43  1  0  0  0  0
 42 33  1  0  0  0  0
 44 42  1  0  0  0  0
 45 42  1  0  0  0  0
 46  6  1  0  0  0  0
 46 55  1  0  0  0  0
 47 46  1  0  0  0  0
 47 49  1  0  0  0  0
 48 47  1  0  0  0  0
 50 47  1  0  0  0  0
 51 54  1  0  0  0  0
 51 46  1  0  0  0  0
 52 51  1  0  0  0  0
 53 51  1  0  0  0  0
 55 56  1  0  0  0  0
 55 58  1  0  0  0  0
 57 55  1  0  0  0  0
M  END
