3,4,6
q = -2.0, confidence = 0.72

 53 55  0  0  1  0  0  0  0  0999 V2000
   -4.1131    2.4642   -0.0837 O   0  0  0  0  0  1  0  0  0  0  0  0
    4.1729    2.4186   -0.1029 O   0  0  0  0  0  1  0  0  0  0  0  0
    0.0282    1.2270   -0.3640 N   0  0  0  0  0  2  0  0  0  0  0  0
   -2.0767   -0.3178   -0.3528 N   0  0  0  0  0  2  0  0  0  0  0  0
   -3.6025    1.3212   -0.1056 N   0  0  0  0  0  0  0  0  0  0  0  0
    2.0966   -0.3609   -0.0567 N   0  0  0  0  0  2  0  0  0  0  0  0
    3.6589    1.2719   -0.0709 N   0  0  0  0  0  0  0  0  0  0  0  0
    1.2011    1.8749   -0.2851 C   0  0  0  0  0  0  0  0  0  0  0  0
    1.2671    3.2819   -0.2706 C   0  0  0  0  0  0  0  0  0  0  0  0
    2.2456    3.7769   -0.2163 H   0  0  0  0  0  0  0  0  0  0  0  0
    0.0553    3.9912   -0.3053 C   0  0  0  0  0  0  0  0  0  0  0  0
    0.0667    5.0910   -0.2895 H   0  0  0  0  0  0  0  0  0  0  0  0
   -1.1716    3.3075   -0.3352 C   0  0  0  0  0  0  0  0  0  0  0  0
   -2.1401    3.8247   -0.3271 H   0  0  0  0  0  0  0  0  0  0  0  0
   -1.1337    1.9007   -0.3626 C   0  0  0  0  0  0  0  0  0  0  0  0
   -2.2785    0.9777   -0.3182 C   0  0  1  0  0  3  0  0  0  0  0  0
   -3.3639   -1.0280   -0.3223 C   0  0  0  0  0  0  0  0  0  0  0  0
   -4.3480    0.0490    0.2769 C   0  0  0  0  0  0  0  0  0  0  0  0
   -3.6755   -1.3881   -1.7929 C   0  0  0  0  0  0  0  0  0  0  0  0
   -3.8011   -0.4806   -2.4171 H   0  0  0  0  0  0  0  0  0  0  0  0
   -4.5954   -2.0014   -1.8597 H   0  0  0  0  0  0  0  0  0  0  0  0
   -2.8189   -1.9696   -2.1867 H   0  0  0  0  0  0  0  0  0  0  0  0
   -3.2281   -2.3169    0.4939 C   0  0  0  0  0  0  0  0  0  0  0  0
   -2.4872   -2.9701   -0.0098 H   0  0  0  0  0  0  0  0  0  0  0  0
   -4.2005   -2.8461    0.5484 H   0  0  0  0  0  0  0  0  0  0  0  0
   -2.8413   -2.1184    1.5097 H   0  0  0  0  0  0  0  0  0  0  0  0
   -5.7609    0.0944   -0.2834 C   0  0  0  0  0  0  0  0  0  0  0  0
   -6.3014    0.9636    0.1384 H   0  0  0  0  0  0  0  0  0  0  0  0
   -6.3029   -0.8282    0.0014 H   0  0  0  0  0  0  0  0  0  0  0  0
   -5.7723    0.1839   -1.3852 H   0  0  0  0  0  0  0  0  0  0  0  0
   -4.3476    0.0477    1.8164 C   0  0  0  0  0  0  0  0  0  0  0  0
   -3.3150   -0.0053    2.2176 H   0  0  0  0  0  0  0  0  0  0  0  0
   -4.9147   -0.8243    2.1937 H   0  0  0  0  0  0  0  0  0  0  0  0
   -4.8350    0.9741    2.1791 H   0  0  0  0  0  0  0  0  0  0  0  0
    2.3232    0.9316   -0.1535 C   0  0  0  0  0  0  0  0  0  0  0  0
    3.3503   -1.0574    0.2864 C   0  0  0  0  0  0  0  0  0  0  0  0
    4.4742   -0.0089   -0.0870 C   0  0  0  0  0  0  0  0  0  0  0  0
    3.4372   -2.3856   -0.4717 C   0  0  0  0  0  0  0  0  0  0  0  0
    2.5727   -3.0187   -0.1946 H   0  0  0  0  0  0  0  0  0  0  0  0
    4.3772   -2.9160   -0.2189 H   0  0  0  0  0  0  0  0  0  0  0  0
    3.3785   -2.2458   -1.5658 H   0  0  0  0  0  0  0  0  0  0  0  0
    3.2764   -1.3384    1.8043 C   0  0  0  0  0  0  0  0  0  0  0  0
    3.2103   -0.3984    2.3864 H   0  0  0  0  0  0  0  0  0  0  0  0
    4.1596   -1.9154    2.1416 H   0  0  0  0  0  0  0  0  0  0  0  0
    2.3548   -1.9124    2.0171 H   0  0  0  0  0  0  0  0  0  0  0  0
    5.6432    0.1271    0.8818 C   0  0  0  0  0  0  0  0  0  0  0  0
    6.2850    0.9725    0.5674 H   0  0  0  0  0  0  0  0  0  0  0  0
    6.2491   -0.7995    0.8708 H   0  0  0  0  0  0  0  0  0  0  0  0
    5.3081    0.3170    1.9174 H   0  0  0  0  0  0  0  0  0  0  0  0
    4.9871   -0.1434   -1.5314 C   0  0  0  0  0  0  0  0  0  0  0  0
    4.1533   -0.2388   -2.2533 H   0  0  0  0  0  0  0  0  0  0  0  0
    5.6382   -1.0325   -1.6287 H   0  0  0  0  0  0  0  0  0  0  0  0
    5.5755    0.7597   -1.7868 H   0  0  0  0  0  0  0  0  0  0  0  0
  2  7  1  0  0  0  0
  3 15  1  0  0  0  0
  3  8  1  0  0  0  0
  4 17  1  0  0  0  0
  4 16  1  0  0  0  0
  5  1  1  0  0  0  0
  5 18  1  0  0  0  0
  6 36  1  0  0  0  0
  8  9  1  0  0  0  0
  8 35  2  0  0  0  0
  9 10  1  0  0  0  0
 11 12  1  0  0  0  0
 11  9  2  0  0  0  0
 13 14  1  0  0  0  0
 13 11  1  0  0  0  0
 15 13  2  0  0  0  0
 16 15  1  1  0  0  0
 16  5  1  0  0  0  0
 17 18  1  0  0  0  0
 17 23  1  0  0  0  0
 18 31  1  0  0  0  0
 19 17  1  0  0  0  0
 20 19  1  0  0  0  0
 21 19  1  0  0  0  0
 22 19  1  0  0  0  0
 23 25  1  0  0  0  0
 23 26  1  0  0  0  0
 24 23  1  0  0  0  0
 27 29  1  0  0  0  0
 27 28  1  0  0  0  0
 27 18  1  0  0  0  0
 30 27  1  0  0  0  0
 31 34  1  0  0  0  0
 31 33  1  0  0  0  0
 31 32  1  0  0  0  0
 35  7  1  0  0  0  0
 35  6  1  0  0  0  0
 36 42  1  0  0  0  0
 37  7  1  0  0  0  0
 37 36  1  0  0  0  0
 37 46  1  0  0  0  0
 38 40  1  0  0  0  0
 38 39  1  0  0  0  0
 38 36  1  0  0  0  0
 41 38  1  0  0  0  0
 42 45  1  0  0  0  0
 42 44  1  0  0  0  0
 42 43  1  0  0  0  0
 46 49  1  0  0  0  0
 47 46  1  0  0  0  0
 48 46  1  0  0  0  0
 50 37  1  0  0  0  0
 51 50  1  0  0  0  0
 52 50  1  0  0  0  0
 53 50  1  0  0  0  0
M  END
