1,3,4
q = -1.0

 36 38  0  0  0  0  0  0  0  0999 V2000
    1.4254    0.1731    1.7784 N   0  0  0  0  0  2  0  0  0  0  0  0
    1.6208   -2.1050    1.2191 N   0  0  0  0  0  2  0  0  0  0  0  0
    0.5939   -1.7740    0.4974 N   0  0  0  0  0  2  0  0  0  0  0  0
   -1.3171   -0.7260   -0.8652 N   0  0  0  0  0  2  0  0  0  0  0  0
   -1.2492    1.3600   -2.7099 N   0  0  0  0  0  0  0  0  0  0  0  0
   -0.3838    0.9631   -2.3365 H   0  0  0  0  0  0  0  0  0  0  0  0
   -1.1583    2.2517   -3.1947 H   0  0  0  0  0  0  0  0  0  0  0  0
    1.8529    1.2618    2.4421 C   0  0  0  0  0  3  0  0  0  0  0  0
    1.2586    2.1794    2.3183 H   0  0  0  0  0  0  0  0  0  0  0  0
    2.9927    1.2338    3.2545 C   0  0  0  0  0  0  0  0  0  0  0  0
    3.2978    2.1419    3.7919 H   0  0  0  0  0  0  0  0  0  0  0  0
    3.7166    0.0318    3.3686 C   0  0  0  0  0  0  0  0  0  0  0  0
    4.6191   -0.0160    3.9955 H   0  0  0  0  0  0  0  0  0  0  0  0
    3.2811   -1.1014    2.6812 C   0  0  0  0  0  0  0  0  0  0  0  0
    3.8089   -2.0628    2.7268 H   0  0  0  0  0  0  0  0  0  0  0  0
    2.1193   -1.0130    1.8845 C   0  0  0  0  0  0  0  0  0  0  0  0
   -0.1616   -2.6949   -0.1790 C   0  0  0  0  0  0  0  0  0  0  0  0
    0.0760   -4.0933   -0.2063 C   0  0  0  0  0  0  0  0  0  0  0  0
    0.9426   -4.4922    0.3379 H   0  0  0  0  0  0  0  0  0  0  0  0
   -0.7987   -4.8997   -0.9174 C   0  0  0  0  0  0  0  0  0  0  0  0
   -0.6430   -5.9874   -0.9550 H   0  0  0  0  0  0  0  0  0  0  0  0
   -1.9084   -4.3206   -1.6031 C   0  0  0  0  0  0  0  0  0  0  0  0
   -2.5858   -4.9763   -2.1711 H   0  0  0  0  0  0  0  0  0  0  0  0
   -2.1564   -2.9541   -1.5843 C   0  0  0  0  0  0  0  0  0  0  0  0
   -3.0054   -2.5251   -2.1329 H   0  0  0  0  0  0  0  0  0  0  0  0
   -1.2705   -2.0884   -0.8729 C   0  0  0  0  0  0  0  0  0  0  0  0
   -2.5015   -0.0392   -1.1759 C   0  0  0  0  0  0  0  0  0  0  0  0
   -3.7384   -0.3727   -0.5748 C   0  0  0  0  0  0  0  0  0  0  0  0
   -3.7667   -1.2195    0.1275 H   0  0  0  0  0  0  0  0  0  0  0  0
   -4.8944    0.3591   -0.8482 C   0  0  0  0  0  0  0  0  0  0  0  0
   -5.8473    0.0898   -0.3710 H   0  0  0  0  0  0  0  0  0  0  0  0
   -4.8200    1.4560   -1.7322 C   0  0  0  0  0  0  0  0  0  0  0  0
   -5.7218    2.0472   -1.9506 H   0  0  0  0  0  0  0  0  0  0  0  0
   -3.6123    1.8068   -2.3359 C   0  0  0  0  0  0  0  0  0  0  0  0
   -3.5670    2.6607   -3.0290 H   0  0  0  0  0  0  0  0  0  0  0  0
   -2.4288    1.0694   -2.0812 C   0  0  0  0  0  0  0  0  0  0  0  0
  1 16  1  0  0  0  0
  1  8  1  0  0  0  0
  2 16  1  0  0  0  0
  3  2  1  0  0  0  0
  5  6  1  0  0  0  0
  5 36  1  0  0  0  0
  7  5  1  0  0  0  0
  8 10  1  0  0  0  0
  9  8  1  0  0  0  0
 10 12  2  0  0  0  0
 10 11  1  0  0  0  0
 12 13  1  0  0  0  0
 14 15  1  0  0  0  0
 14 12  1  0  0  0  0
 16 14  2  0  0  0  0
 17  3  1  0  0  0  0
 18 17  1  0  0  0  0
 18 19  1  0  0  0  0
 20 18  2  0  0  0  0
 21 20  1  0  0  0  0
 22 24  2  0  0  0  0
 22 20  1  0  0  0  0
 23 22  1  0  0  0  0
 24 26  1  0  0  0  0
 25 24  1  0  0  0  0
 26  4  1  0  0  0  0
 26 17  2  0  0  0  0
 27  4  1  0  0  0  0
 27 28  1  0  0  0  0
 28 29  1  0  0  0  0
 30 28  2  0  0  0  0
 30 31  1  0  0  0  0
 32 30  1  0  0  0  0
 33 32  1  0  0  0  0
 34 36  1  0  0  0  0
 34 32  2  0  0  0  0
 35 34  1  0  0  0  0
 36 27  2  0  0  0  0
M  END
