44,46,48
q = 0.0, confidence = 0.998

 49 53  0  0  1  0  0  0  0  0999 V2000
   -3.3641   -4.1467    0.9561 C   0  0  0  0  0  0  0  0  0  0  0  0
   -2.6892   -4.7404    1.5916 H   0  0  0  0  0  0  0  0  0  0  0  0
   -4.7166   -4.5000    0.8754 C   0  0  0  0  0  0  0  0  0  0  0  0
   -5.0910   -5.3614    1.4479 H   0  0  0  0  0  0  0  0  0  0  0  0
   -5.5910   -3.7597    0.0629 C   0  0  0  0  0  0  0  0  0  0  0  0
   -6.6529   -4.0401   -0.0006 H   0  0  0  0  0  0  0  0  0  0  0  0
   -5.1062   -2.6638   -0.6699 C   0  0  0  0  0  0  0  0  0  0  0  0
   -5.7884   -2.0838   -1.3091 H   0  0  0  0  0  0  0  0  0  0  0  0
   -3.7552   -2.3057   -0.5930 C   0  0  0  0  0  0  0  0  0  0  0  0
   -3.3653   -1.4501   -1.1629 H   0  0  0  0  0  0  0  0  0  0  0  0
   -2.8709   -3.0455    0.2233 C   0  0  0  0  0  0  0  0  0  0  0  0
   -1.4593   -2.6537    0.3001 C   0  0  0  0  0  0  0  0  0  0  0  0
   -0.4145   -3.1631    1.0864 C   0  0  0  0  0  3  0  0  0  0  0  0
   -0.3639   -3.9716    1.8211 H   0  0  0  0  0  0  0  0  0  0  0  0
    2.0402   -2.4587    1.2718 C   0  0  0  0  0  0  0  0  0  0  0  0
    2.7345   -2.6644    0.4321 H   0  0  0  0  0  0  0  0  0  0  0  0
    2.1029   -3.3078    1.9746 H   0  0  0  0  0  0  0  0  0  0  0  0
    2.4029   -1.1698    1.9813 C   0  0  2  0  0  3  0  0  0  0  0  0
    2.8210   -1.2002    3.3192 C   0  0  0  0  0  0  0  0  0  0  0  0
    2.9400   -2.1671    3.8287 H   0  0  0  0  0  0  0  0  0  0  0  0
    3.0723    0.0004    3.9918 C   0  0  0  0  0  0  0  0  0  0  0  0
    3.4180    0.0006    5.0357 H   0  0  0  0  0  0  0  0  0  0  0  0
    2.8214    1.2009    3.3188 C   0  0  0  0  0  0  0  0  0  0  0  0
    2.9407    2.1680    3.8279 H   0  0  0  0  0  0  0  0  0  0  0  0
    2.4033    1.1701    1.9809 C   0  0  0  0  0  0  0  0  0  0  0  0
    2.0410    2.4589    1.2709 C   0  0  0  0  0  0  0  0  0  0  0  0
    2.1040    3.3082    1.9733 H   0  0  0  0  0  0  0  0  0  0  0  0
    2.7353    2.6639    0.4310 H   0  0  0  0  0  0  0  0  0  0  0  0
   -0.4136    3.1636    1.0856 C   0  0  0  0  0  3  0  0  0  0  0  0
   -0.3628    3.9724    1.8200 H   0  0  0  0  0  0  0  0  0  0  0  0
   -1.4587    2.6541    0.2996 C   0  0  0  0  0  0  0  0  0  0  0  0
   -2.8702    3.0460    0.2229 C   0  0  0  0  0  0  0  0  0  0  0  0
   -3.3631    4.1477    0.9553 C   0  0  0  0  0  0  0  0  0  0  0  0
   -2.6879    4.7417    1.5902 H   0  0  0  0  0  0  0  0  0  0  0  0
   -4.7156    4.5011    0.8748 C   0  0  0  0  0  0  0  0  0  0  0  0
   -5.0898    5.3629    1.4469 H   0  0  0  0  0  0  0  0  0  0  0  0
   -5.5903    3.7605    0.0629 C   0  0  0  0  0  0  0  0  0  0  0  0
   -6.6522    4.0410   -0.0004 H   0  0  0  0  0  0  0  0  0  0  0  0
   -5.1058    2.6641   -0.6694 C   0  0  0  0  0  0  0  0  0  0  0  0
   -5.7883    2.0839   -1.3081 H   0  0  0  0  0  0  0  0  0  0  0  0
   -3.7548    2.3059   -0.5928 C   0  0  0  0  0  0  0  0  0  0  0  0
   -3.3651    1.4499   -1.1623 H   0  0  0  0  0  0  0  0  0  0  0  0
   -0.9486   -1.6318   -0.4536 N   0  0  0  0  0  0  0  0  0  0  0  0
    0.3179   -1.4974   -0.1729 N   0  0  0  0  0  2  0  0  0  0  0  0
    0.6751   -2.4180    0.7564 N   0  0  0  0  0  0  0  0  0  0  0  0
    2.2643    0.0000    1.2961 N   0  0  0  0  0  2  0  0  0  0  0  0
    0.6759    2.4183    0.7556 N   0  0  0  0  0  0  0  0  0  0  0  0
    0.3184    1.4975   -0.1734 N   0  0  0  0  0  2  0  0  0  0  0  0
   -0.9483    1.6319   -0.4539 N   0  0  0  0  0  0  0  0  0  0  0  0
  1  2  1  0  0  0  0
  3  1  1  0  0  0  0
  3  4  1  0  0  0  0
  5  3  2  0  0  0  0
  6  5  1  0  0  0  0
  7  9  2  0  0  0  0
  7  5  1  0  0  0  0
  8  7  1  0  0  0  0
  9 11  1  0  0  0  0
 10  9  1  0  0  0  0
 11 12  1  0  0  0  0
 11  1  2  0  0  0  0
 12 13  1  0  0  0  0
 13 14  1  0  0  0  0
 15 17  1  0  0  0  0
 16 15  1  0  0  0  0
 18 15  1  1  0  0  0
 18 19  1  0  0  0  0
 19 20  1  0  0  0  0
 19 21  2  0  0  0  0
 21 22  1  0  0  0  0
 23 24  1  0  0  0  0
 23 21  1  0  0  0  0
 25 23  2  0  0  0  0
 26 27  1  0  0  0  0
 26 25  1  0  0  0  0
 28 26  1  0  0  0  0
 29 30  1  0  0  0  0
 31 29  1  0  0  0  0
 32 31  1  0  0  0  0
 32 33  1  0  0  0  0
 33 34  1  0  0  0  0
 35 33  2  0  0  0  0
 35 36  1  0  0  0  0
 37 35  1  0  0  0  0
 38 37  1  0  0  0  0
 39 41  1  0  0  0  0
 39 37  2  0  0  0  0
 40 39  1  0  0  0  0
 41 32  2  0  0  0  0
 42 41  1  0  0  0  0
 43 44  1  0  0  0  0
 43 12  2  0  0  0  0
 44 45  1  0  0  0  0
 45 13  1  0  0  0  0
 45 15  1  0  0  0  0
 46 25  1  0  0  0  0
 46 18  1  0  0  0  0
 47 29  1  0  0  0  0
 47 26  1  0  0  0  0
 48 47  1  0  0  0  0
 49 48  1  0  0  0  0
 49 31  2  0  0  0  0
M  END
