1,3,5
q = -2.0, confidence = 0.55

 35 37  0  0  0  0  0  0  0  0999 V2000
    0.7600    1.2817    1.7327 N   0  0  0  0  0  2  0  0  0  0  0  0
    2.6390   -0.1233    1.4110 N   0  0  0  0  0  0  0  0  0  0  0  0
    1.8943   -0.6853    0.4833 N   0  0  0  0  0  2  0  0  0  0  0  0
    0.2986   -2.3548   -1.4741 N   0  0  0  0  0  2  0  0  0  0  0  0
   -0.4717   -1.4396   -1.0293 N   0  0  0  0  0  2  0  0  0  0  0  0
    2.0635    0.9373    2.0330 C   0  0  0  0  0  0  0  0  0  0  0  0
    2.8052    1.7149    2.9607 C   0  0  0  0  0  0  0  0  0  0  0  0
    3.8398    1.4153    3.1739 H   0  0  0  0  0  0  0  0  0  0  0  0
    2.2135    2.8305    3.5431 C   0  0  0  0  0  0  0  0  0  0  0  0
    2.7786    3.4444    4.2597 H   0  0  0  0  0  0  0  0  0  0  0  0
    0.8837    3.1711    3.2068 C   0  0  0  0  0  0  0  0  0  0  0  0
    0.3806    4.0367    3.6581 H   0  0  0  0  0  0  0  0  0  0  0  0
    0.1951    2.3715    2.2933 C   0  0  0  0  0  0  0  0  0  0  0  0
   -0.8436    2.5868    2.0022 H   0  0  0  0  0  0  0  0  0  0  0  0
    2.4448   -1.6952   -0.2695 C   0  0  0  0  0  0  0  0  0  0  0  0
    1.6405   -2.4519   -1.2085 C   0  0  0  0  0  0  0  0  0  0  0  0
    2.2778   -3.4830   -1.9638 C   0  0  0  0  0  0  0  0  0  0  0  0
    1.6380   -4.0443   -2.6590 H   0  0  0  0  0  0  0  0  0  0  0  0
    3.6295   -3.7624   -1.8299 C   0  0  0  0  0  0  0  0  0  0  0  0
    4.0926   -4.5564   -2.4330 H   0  0  0  0  0  0  0  0  0  0  0  0
    4.4057   -3.0215   -0.9027 C   0  0  0  0  0  0  0  0  0  0  0  0
    5.4782   -3.2379   -0.7873 H   0  0  0  0  0  0  0  0  0  0  0  0
    3.8256   -2.0194   -0.1379 C   0  0  0  0  0  0  0  0  0  0  0  0
    4.4121   -1.4327    0.5801 H   0  0  0  0  0  0  0  0  0  0  0  0
   -1.8631   -1.6255   -1.3603 C   0  0  0  0  0  0  0  0  0  0  0  0
   -2.5921   -2.6687   -0.7659 C   0  0  0  0  0  0  0  0  0  0  0  0
   -2.0880   -3.3573   -0.0725 H   0  0  0  0  0  0  0  0  0  0  0  0
   -3.9541   -2.8116   -1.0688 C   0  0  0  0  0  0  0  0  0  0  0  0
   -4.5315   -3.6254   -0.6056 H   0  0  0  0  0  0  0  0  0  0  0  0
   -4.5752   -1.9268   -1.9643 C   0  0  0  0  0  0  0  0  0  0  0  0
   -5.6427   -2.0444   -2.2018 H   0  0  0  0  0  0  0  0  0  0  0  0
   -3.8311   -0.8991   -2.5675 C   0  0  0  0  0  0  0  0  0  0  0  0
   -4.3095   -0.2166   -3.2853 H   0  0  0  0  0  0  0  0  0  0  0  0
   -2.4722   -0.7400   -2.2649 C   0  0  0  0  0  0  0  0  0  0  0  0
   -1.8760    0.0545   -2.7356 H   0  0  0  0  0  0  0  0  0  0  0  0
  1  6  1  0  0  0  0
  1 13  1  0  0  0  0
  2  6  2  0  0  0  0
  3  2  1  0  0  0  0
  4 16  1  0  0  0  0
  4  5  1  0  0  0  0
  6  7  1  0  0  0  0
  7  8  1  0  0  0  0
  7  9  2  0  0  0  0
  9 10  1  0  0  0  0
 11  9  1  0  0  0  0
 11 12  1  0  0  0  0
 13 11  2  0  0  0  0
 14 13  1  0  0  0  0
 15 23  1  0  0  0  0
 15  3  1  0  0  0  0
 16 15  2  0  0  0  0
 17 19  2  0  0  0  0
 17 16  1  0  0  0  0
 18 17  1  0  0  0  0
 19 21  1  0  0  0  0
 20 19  1  0  0  0  0
 21 22  1  0  0  0  0
 21 23  2  0  0  0  0
 23 24  1  0  0  0  0
 25  5  1  0  0  0  0
 25 26  1  0  0  0  0
 26 27  1  0  0  0  0
 28 26  2  0  0  0  0
 28 29  1  0  0  0  0
 30 28  1  0  0  0  0
 31 30  1  0  0  0  0
 32 34  1  0  0  0  0
 32 30  2  0  0  0  0
 33 32  1  0  0  0  0
 34 25  2  0  0  0  0
 35 34  1  0  0  0  0
M  END
