1,4,5
q = 0.0, confidence = 0.998

 40 43  0  0  1  0  0  0  0  0999 V2000
   -0.3897    0.2623   -0.6289 N   0  0  0  0  0  2  0  0  0  0  0  0
   -1.3655    2.4604   -0.1722 C   0  0  0  0  0  0  0  0  0  0  0  0
    3.2487    0.3067   -0.3702 C   0  0  0  0  0  0  0  0  0  0  0  0
   -2.5749   -1.0895   -0.3422 N   0  0  0  0  0  2  0  0  0  0  0  0
    1.5496   -1.4421   -0.3083 N   0  0  0  0  0  2  0  0  0  0  0  0
    1.8856   -0.1519   -0.4084 C   0  0  0  0  0  0  0  0  0  0  0  0
    4.2289   -0.7213   -0.2099 C   0  0  0  0  0  0  0  0  0  0  0  0
   -1.7436    3.4698   -1.0810 C   0  0  0  0  0  0  0  0  0  0  0  0
   -2.1282    3.1936   -2.0748 H   0  0  0  0  0  0  0  0  0  0  0  0
    0.8479    0.7496   -0.5640 N   0  0  0  0  0  0  0  0  0  0  0  0
    0.9904    1.7409   -0.3237 H   0  0  0  0  0  0  0  0  0  0  0  0
   -2.7151    0.2502   -0.4742 C   0  0  2  0  0  3  0  0  0  0  0  0
    3.6624    1.6599   -0.4802 C   0  0  0  0  0  3  0  0  0  0  0  0
    2.9267    2.4651   -0.6259 H   0  0  0  0  0  0  0  0  0  0  0  0
   -1.4469    1.0106   -0.4937 C   0  0  2  0  0  3  0  0  0  0  0  0
   -3.9855    0.8510   -0.5516 C   0  0  0  0  0  0  0  0  0  0  0  0
   -4.0765    1.9435   -0.6308 H   0  0  0  0  0  0  0  0  0  0  0  0
    2.4798   -2.4058   -0.1915 N   0  0  0  0  0  0  0  0  0  0  0  0
   -4.9551   -1.3642   -0.4189 C   0  0  0  0  0  0  0  0  0  0  0  0
   -5.8206   -2.0416   -0.3950 H   0  0  0  0  0  0  0  0  0  0  0  0
    3.7531   -2.0695   -0.1382 C   0  0  0  0  0  0  0  0  0  0  0  0
    4.4650   -2.9052   -0.0297 H   0  0  0  0  0  0  0  0  0  0  0  0
   -3.6519   -1.8817   -0.3224 C   0  0  0  0  0  0  0  0  0  0  0  0
   -3.4238   -2.9585   -0.2170 H   0  0  0  0  0  0  0  0  0  0  0  0
   -1.6201    4.8199   -0.7184 C   0  0  0  0  0  0  0  0  0  0  0  0
   -1.9175    5.6059   -1.4290 H   0  0  0  0  0  0  0  0  0  0  0  0
    5.6030   -0.3706   -0.1432 C   0  0  0  0  0  0  0  0  0  0  0  0
    6.3520   -1.1669   -0.0161 H   0  0  0  0  0  0  0  0  0  0  0  0
   -0.7355    4.1644    1.4521 C   0  0  0  0  0  0  0  0  0  0  0  0
   -0.3497    4.4359    2.4465 H   0  0  0  0  0  0  0  0  0  0  0  0
   -1.1168    5.1678    0.5457 C   0  0  0  0  0  0  0  0  0  0  0  0
   -1.0232    6.2279    0.8264 H   0  0  0  0  0  0  0  0  0  0  0  0
   -0.8570    2.8116    1.1013 C   0  0  0  0  0  0  0  0  0  0  0  0
   -0.5860    1.9998    1.8006 H   0  0  0  0  0  0  0  0  0  0  0  0
    5.0146    1.9783   -0.4118 C   0  0  0  0  0  0  0  0  0  0  0  0
    5.3329    3.0280   -0.4954 H   0  0  0  0  0  0  0  0  0  0  0  0
   -5.1183    0.0246   -0.5256 C   0  0  0  0  0  0  0  0  0  0  0  0
   -6.1243    0.4665   -0.5871 H   0  0  0  0  0  0  0  0  0  0  0  0
    5.9878    0.9611   -0.2393 C   0  0  0  0  0  0  0  0  0  0  0  0
    7.0527    1.2323   -0.1866 H   0  0  0  0  0  0  0  0  0  0  0  0
  1 10  1  0  0  0  0
  2 33  1  0  0  0  0
  3  7  1  0  0  0  0
  4 23  1  0  0  0  0
  5 18  1  0  0  0  0
  6  3  2  0  0  0  0
  6  5  1  0  0  0  0
  7 27  2  0  0  0  0
  7 21  1  0  0  0  0
  8 25  1  0  0  0  0
  8  2  2  0  0  0  0
  9  8  1  0  0  0  0
 10  6  1  0  0  0  0
 10 11  1  0  0  0  0
 12 15  1  1  0  0  0
 12  4  1  0  0  0  0
 13 35  1  0  0  0  0
 13  3  1  0  0  0  0
 14 13  1  0  0  0  0
 15  1  1  1  0  0  0
 15  2  1  0  0  0  0
 16 37  2  0  0  0  0
 16 12  1  0  0  0  0
 17 16  1  0  0  0  0
 18 21  2  0  0  0  0
 19 20  1  0  0  0  0
 19 23  2  0  0  0  0
 21 22  1  0  0  0  0
 23 24  1  0  0  0  0
 25 31  2  0  0  0  0
 26 25  1  0  0  0  0
 27 28  1  0  0  0  0
 29 30  1  0  0  0  0
 31 32  1  0  0  0  0
 31 29  1  0  0  0  0
 33 29  2  0  0  0  0
 33 34  1  0  0  0  0
 35 39  2  0  0  0  0
 36 35  1  0  0  0  0
 37 19  1  0  0  0  0
 38 37  1  0  0  0  0
 39 40  1  0  0  0  0
 39 27  1  0  0  0  0
M  END
