2,3,4
q = 0.0, confidence = 0.994

 43 46  0  0  1  0  0  0  0  0999 V2000
    7.3593    0.8437    0.7219 O   0  0  0  0  0  0  0  0  0  0  0  0
   -1.3704    2.0723   -0.1606 N   0  0  0  0  0  2  0  0  0  0  0  0
   -0.0410   -0.1373   -0.0923 N   0  0  0  0  0  2  0  0  0  0  0  0
   -1.9138   -1.8900    0.1817 N   0  0  0  0  0  2  0  0  0  0  0  0
   -2.1786    3.1503   -0.1895 C   0  0  0  0  0  3  0  0  0  0  0  0
   -3.2521    2.9184   -0.0937 H   0  0  0  0  0  0  0  0  0  0  0  0
   -1.6642    4.4425   -0.3303 C   0  0  0  0  0  0  0  0  0  0  0  0
   -2.3526    5.2988   -0.3502 H   0  0  0  0  0  0  0  0  0  0  0  0
   -0.2754    4.6178   -0.4444 C   0  0  0  0  0  0  0  0  0  0  0  0
    0.1550    5.6235   -0.5576 H   0  0  0  0  0  0  0  0  0  0  0  0
    0.5600    3.4953   -0.4137 C   0  0  0  0  0  0  0  0  0  0  0  0
    1.6496    3.6033   -0.5026 H   0  0  0  0  0  0  0  0  0  0  0  0
   -0.0019    2.2172   -0.2700 C   0  0  0  0  0  0  0  0  0  0  0  0
    0.7623    0.9577   -0.2248 C   0  0  2  0  0  3  0  0  0  0  0  0
    2.1473    0.7756   -0.3060 C   0  0  0  0  0  0  0  0  0  0  0  0
    2.8079    1.6426   -0.4401 H   0  0  0  0  0  0  0  0  0  0  0  0
    2.6993   -0.5276   -0.2553 C   0  0  0  0  0  0  0  0  0  0  0  0
    1.8163   -1.6267   -0.1208 C   0  0  0  0  0  0  0  0  0  0  0  0
    2.2216   -2.6450   -0.0507 H   0  0  0  0  0  0  0  0  0  0  0  0
    0.4359   -1.4148   -0.0373 C   0  0  0  0  0  0  0  0  0  0  0  0
   -0.6376   -2.4123    0.1209 C   0  0  1  0  0  3  0  0  0  0  0  0
   -0.4406   -3.7991    0.2101 C   0  0  0  0  0  0  0  0  0  0  0  0
    0.5779   -4.2080    0.1615 H   0  0  0  0  0  0  0  0  0  0  0  0
   -1.5452   -4.6452    0.3605 C   0  0  0  0  0  0  0  0  0  0  0  0
   -1.4016   -5.7332    0.4315 H   0  0  0  0  0  0  0  0  0  0  0  0
   -2.8330   -4.0879    0.4195 C   0  0  0  0  0  0  0  0  0  0  0  0
   -3.7248   -4.7192    0.5370 H   0  0  0  0  0  0  0  0  0  0  0  0
   -2.9803   -2.7009    0.3266 C   0  0  0  0  0  0  0  0  0  0  0  0
   -3.9501   -2.1779    0.3634 H   0  0  0  0  0  0  0  0  0  0  0  0
    4.1637   -0.7387   -0.3384 C   0  0  0  0  0  0  0  0  0  0  0  0
    5.0482    0.1972    0.2486 C   0  0  0  0  0  0  0  0  0  0  0  0
    4.6327    1.0519    0.7982 H   0  0  0  0  0  0  0  0  0  0  0  0
    6.4406    0.0054    0.1744 C   0  0  0  0  0  0  0  0  0  0  0  0
    6.9574   -1.1265   -0.4954 C   0  0  0  0  0  0  0  0  0  0  0  0
    8.0483   -1.2542   -0.5403 H   0  0  0  0  0  0  0  0  0  0  0  0
    6.0826   -2.0474   -1.0762 C   0  0  0  0  0  0  0  0  0  0  0  0
    6.4906   -2.9213   -1.6061 H   0  0  0  0  0  0  0  0  0  0  0  0
    4.6922   -1.8655   -1.0017 C   0  0  0  0  0  0  0  0  0  0  0  0
    4.0177   -2.5804   -1.4944 H   0  0  0  0  0  0  0  0  0  0  0  0
    6.9020    1.9921    1.4113 C   0  0  0  0  0  0  0  0  0  0  0  0
    7.8038    2.5250    1.7644 H   0  0  0  0  0  0  0  0  0  0  0  0
    6.2726    1.7258    2.2900 H   0  0  0  0  0  0  0  0  0  0  0  0
    6.3192    2.6697    0.7472 H   0  0  0  0  0  0  0  0  0  0  0  0
  1 40  1  0  0  0  0
  3 20  1  0  0  0  0
  4 28  1  0  0  0  0
  5  2  1  0  0  0  0
  5  6  1  0  0  0  0
  7  5  1  0  0  0  0
  8  7  1  0  0  0  0
  9 11  1  0  0  0  0
  9  7  2  0  0  0  0
 10  9  1  0  0  0  0
 11 13  2  0  0  0  0
 12 11  1  0  0  0  0
 13  2  1  0  0  0  0
 14 13  1  6  0  0  0
 14  3  1  0  0  0  0
 15 17  2  0  0  0  0
 15 14  1  0  0  0  0
 16 15  1  0  0  0  0
 17 18  1  0  0  0  0
 18 19  1  0  0  0  0
 18 20  2  0  0  0  0
 21 20  1  1  0  0  0
 21  4  1  0  0  0  0
 21 22  1  0  0  0  0
 22 24  2  0  0  0  0
 23 22  1  0  0  0  0
 24 26  1  0  0  0  0
 24 25  1  0  0  0  0
 26 27  1  0  0  0  0
 28 29  1  0  0  0  0
 28 26  2  0  0  0  0
 30 17  1  0  0  0  0
 30 31  1  0  0  0  0
 31 32  1  0  0  0  0
 33 31  2  0  0  0  0
 33  1  1  0  0  0  0
 34 33  1  0  0  0  0
 35 34  1  0  0  0  0
 36 38  1  0  0  0  0
 36 34  2  0  0  0  0
 37 36  1  0  0  0  0
 38 30  2  0  0  0  0
 39 38  1  0  0  0  0
 40 41  1  0  0  0  0
 40 42  1  0  0  0  0
 43 40  1  0  0  0  0
M  END
