4,6,8
q = -1.0

 74 79  0  0  1  0  0  0  0  0999 V2000
    3.8040    2.9791    2.3373 S   0  0  0  0  0  0  0  0  0  0  0  0
    4.3938   -4.6876   -1.0186 S   0  0  0  0  0  0  0  0  0  0  0  0
    3.1160    2.8661   -3.3702 S   0  0  0  0  0  0  0  0  0  0  0  0
   -2.3987    0.5827    1.3231 N   0  0  0  0  0  2  0  0  0  0  0  0
   -1.0839    0.7585    1.0071 N   0  0  0  0  0  0  0  0  0  0  0  0
   -1.8880   -2.0596    0.4088 N   0  0  0  0  0  2  0  0  0  0  0  0
   -0.6324   -1.5678    0.2196 N   0  0  0  0  0  0  0  0  0  0  0  0
   -2.5949    0.0286   -1.4266 N   0  0  0  0  0  2  0  0  0  0  0  0
   -1.2476    0.2327   -1.4068 N   0  0  0  0  0  0  0  0  0  0  0  0
   -2.7249    1.4483    2.2998 C   0  0  0  0  0  0  0  0  0  0  0  0
   -1.5925    2.2391    2.6368 C   0  0  0  0  0  0  0  0  0  0  0  0
   -1.3037    3.2815    3.5504 C   0  0  0  0  0  0  0  0  0  0  0  0
   -0.0182    3.8177    3.5594 C   0  0  0  0  0  0  0  0  0  0  0  0
    1.0031    3.3594    2.6712 C   0  0  0  0  0  0  0  0  0  0  0  0
    0.7386    2.3208    1.7731 C   0  0  0  0  0  0  0  0  0  0  0  0
   -0.5560    1.7657    1.7681 C   0  0  2  0  0  3  0  0  0  0  0  0
   -1.7995   -3.3666    0.7133 C   0  0  0  0  0  0  0  0  0  0  0  0
   -0.4345   -3.7607    0.7305 C   0  0  0  0  0  0  0  0  0  0  0  0
    0.2798   -4.9599    0.9768 C   0  0  0  0  0  0  0  0  0  0  0  0
    1.6676   -4.9318    0.8984 C   0  0  0  0  0  0  0  0  0  0  0  0
    2.3833   -3.7343    0.5846 C   0  0  0  0  0  0  0  0  0  0  0  0
    1.6945   -2.5449    0.3280 C   0  0  0  0  0  0  0  0  0  0  0  0
    0.2867   -2.5663    0.4069 C   0  0  2  0  0  3  0  0  0  0  0  0
   -3.0871    0.5177   -2.5792 C   0  0  0  0  0  0  0  0  0  0  0  0
   -2.0327    1.0843   -3.3473 C   0  0  0  0  0  0  0  0  0  0  0  0
   -1.9121    1.7715   -4.5804 C   0  0  0  0  0  3  0  0  0  0  0  0
   -0.6565    2.2402   -4.9586 C   0  0  0  0  0  0  0  0  0  0  0  0
    0.5067    2.0324   -4.1538 C   0  0  0  0  0  0  0  0  0  0  0  0
    0.4083    1.3403   -2.9455 C   0  0  0  0  0  0  0  0  0  0  0  0
   -0.8621    0.8811   -2.5485 C   0  0  0  0  0  0  0  0  0  0  0  0
    2.3558    4.0409    2.7003 C   0  0  0  0  0  0  0  0  0  0  0  0
    3.5905    1.6517    3.5828 C   0  0  0  0  0  0  0  0  0  0  0  0
    3.6173    2.1244    5.0314 C   0  0  0  0  0  0  0  0  0  0  0  0
    3.8869   -3.7732    0.4997 C   0  0  0  0  0  0  0  0  0  0  0  0
    6.1927   -4.8443   -0.7139 C   0  0  0  0  0  0  0  0  0  0  0  0
    6.9778   -3.5401   -0.8210 C   0  0  0  0  0  0  0  0  0  0  0  0
    1.8415    2.5656   -4.6445 C   0  0  0  0  0  0  0  0  0  0  0  0
    2.2953    4.1879   -2.3978 C   0  0  0  0  0  0  0  0  0  0  0  0
    3.1558    4.5569   -1.1937 C   0  0  0  0  0  0  0  0  0  0  0  0
   -0.4572   -0.0805   -0.1245 B   0  0  1  0  0  0  0  0  0  0  0  0
   -3.7413    1.4748    2.7026 H   0  0  0  0  0  0  0  0  0  0  0  0
   -2.0741    3.6577    4.2399 H   0  0  0  0  0  0  0  0  0  0  0  0
    0.2253    4.6275    4.2653 H   0  0  0  0  0  0  0  0  0  0  0  0
    1.5284    1.9521    1.1028 H   0  0  0  0  0  0  0  0  0  0  0  0
   -2.7022   -3.9539    0.9069 H   0  0  0  0  0  0  0  0  0  0  0  0
   -0.2517   -5.8909    1.2237 H   0  0  0  0  0  0  0  0  0  0  0  0
    2.2452   -5.8529    1.0698 H   0  0  0  0  0  0  0  0  0  0  0  0
    2.2327   -1.6209    0.0733 H   0  0  0  0  0  0  0  0  0  0  0  0
   -4.1583    0.4609   -2.7940 H   0  0  0  0  0  0  0  0  0  0  0  0
   -2.7922    1.9484   -5.2165 H   0  0  0  0  0  0  0  0  0  0  0  0
   -0.5494    2.7940   -5.9048 H   0  0  0  0  0  0  0  0  0  0  0  0
    1.3028    1.1923   -2.3231 H   0  0  0  0  0  0  0  0  0  0  0  0
    2.4150    4.8231    1.9123 H   0  0  0  0  0  0  0  0  0  0  0  0
    2.5021    4.5626    3.6684 H   0  0  0  0  0  0  0  0  0  0  0  0
    4.4330    0.9619    3.3682 H   0  0  0  0  0  0  0  0  0  0  0  0
    2.6530    1.1008    3.3572 H   0  0  0  0  0  0  0  0  0  0  0  0
    3.5728    1.2571    5.7227 H   0  0  0  0  0  0  0  0  0  0  0  0
    4.5393    2.6995    5.2504 H   0  0  0  0  0  0  0  0  0  0  0  0
    2.7450    2.7690    5.2617 H   0  0  0  0  0  0  0  0  0  0  0  0
    4.3004   -2.7448    0.4816 H   0  0  0  0  0  0  0  0  0  0  0  0
    4.3181   -4.3068    1.3746 H   0  0  0  0  0  0  0  0  0  0  0  0
    6.3418   -5.3288    0.2758 H   0  0  0  0  0  0  0  0  0  0  0  0
    6.5311   -5.5739   -1.4788 H   0  0  0  0  0  0  0  0  0  0  0  0
    8.0645   -3.7220   -0.6826 H   0  0  0  0  0  0  0  0  0  0  0  0
    6.8261   -3.0679   -1.8119 H   0  0  0  0  0  0  0  0  0  0  0  0
    6.6645   -2.8092   -0.0482 H   0  0  0  0  0  0  0  0  0  0  0  0
    2.3200    1.8360   -5.3338 H   0  0  0  0  0  0  0  0  0  0  0  0
    1.6858    3.4935   -5.2356 H   0  0  0  0  0  0  0  0  0  0  0  0
    1.2995    3.8187   -2.0737 H   0  0  0  0  0  0  0  0  0  0  0  0
    2.1326    5.0652   -3.0598 H   0  0  0  0  0  0  0  0  0  0  0  0
    3.3003    3.6920   -0.5138 H   0  0  0  0  0  0  0  0  0  0  0  0
    2.6715    5.3697   -0.6143 H   0  0  0  0  0  0  0  0  0  0  0  0
    4.1583    4.9154   -1.5043 H   0  0  0  0  0  0  0  0  0  0  0  0
    0.7190    0.1946   -0.2628 H   0  0  0  0  0  0  0  0  0  0  0  0
  1 31  1  0  0  0  0
  1 32  1  0  0  0  0
  2 35  1  0  0  0  0
  2 34  1  0  0  0  0
  3 38  1  0  0  0  0
  4 10  1  0  0  0  0
  5  4  1  0  0  0  0
  5 16  1  0  0  0  0
  6 17  1  0  0  0  0
  7 23  1  0  0  0  0
  7  6  1  0  0  0  0
  8  9  1  0  0  0  0
  9 40  1  0  0  0  0
 10 11  2  0  0  0  0
 10 41  1  0  0  0  0
 11 12  1  0  0  0  0
 12 13  2  0  0  0  0
 12 42  1  0  0  0  0
 13 43  1  0  0  0  0
 14 31  1  0  0  0  0
 14 13  1  0  0  0  0
 15 14  2  0  0  0  0
 16 15  1  6  0  0  0
 16 11  1  0  0  0  0
 17 18  2  0  0  0  0
 17 45  1  0  0  0  0
 18 19  1  0  0  0  0
 19 46  1  0  0  0  0
 20 19  2  0  0  0  0
 20 47  1  0  0  0  0
 21 20  1  0  0  0  0
 22 21  2  0  0  0  0
 23 22  1  1  0  0  0
 23 18  1  0  0  0  0
 24  8  1  0  0  0  0
 25 24  2  0  0  0  0
 25 30  1  0  0  0  0
 26 25  1  0  0  0  0
 27 26  1  0  0  0  0
 27 28  2  0  0  0  0
 28 29  1  0  0  0  0
 29 30  2  0  0  0  0
 29 52  1  0  0  0  0
 30  9  1  0  0  0  0
 31 54  1  0  0  0  0
 32 33  1  0  0  0  0
 33 58  1  0  0  0  0
 33 59  1  0  0  0  0
 33 57  1  0  0  0  0
 34 21  1  0  0  0  0
 34 61  1  0  0  0  0
 35 62  1  0  0  0  0
 36 35  1  0  0  0  0
 36 64  1  0  0  0  0
 36 66  1  0  0  0  0
 37 28  1  0  0  0  0
 37  3  1  0  0  0  0
 38 69  1  0  0  0  0
 38 39  1  0  0  0  0
 39 72  1  0  0  0  0
 39 71  1  0  0  0  0
 40 74  1  6  0  0  0
 40  7  1  0  0  0  0
 40  5  1  0  0  0  0
 44 15  1  0  0  0  0
 48 22  1  0  0  0  0
 49 24  1  0  0  0  0
 50 26  1  0  0  0  0
 51 27  1  0  0  0  0
 53 31  1  0  0  0  0
 55 32  1  0  0  0  0
 56 32  1  0  0  0  0
 60 34  1  0  0  0  0
 63 35  1  0  0  0  0
 65 36  1  0  0  0  0
 67 37  1  0  0  0  0
 68 37  1  0  0  0  0
 70 38  1  0  0  0  0
 73 39  1  0  0  0  0
M  END
