4,5,6
q = -1.0

 57 60  0  0  1  0  0  0  0  0999 V2000
   -1.5535   -2.1374   -1.3093 O   0  0  0  0  0  0  0  0  0  0  0  0
   -1.3545    2.4898   -1.1897 O   0  0  0  0  0  0  0  0  0  0  0  0
   -1.3672    0.2814    2.5746 O   0  0  0  0  0  0  0  0  0  0  0  0
    0.5312   -1.4225   -0.9344 N   0  0  0  0  0  2  0  0  0  0  0  0
    0.6278    1.4950   -0.9247 N   0  0  0  0  0  2  0  0  0  0  0  0
    0.6338    0.0172    1.6109 N   0  0  0  0  0  2  0  0  0  0  0  0
   -0.7412   -1.1887   -0.7968 C   0  0  2  0  0  3  0  0  0  0  0  0
   -0.7154   -3.1199   -1.9669 C   0  0  0  0  0  0  0  0  0  0  0  0
   -0.8911   -3.0416   -3.0608 H   0  0  0  0  0  0  0  0  0  0  0  0
   -1.0259   -4.1266   -1.6243 H   0  0  0  0  0  0  0  0  0  0  0  0
    0.7406   -2.7431   -1.5642 C   0  0  0  0  0  0  0  0  0  0  0  0
    1.6770   -2.6122   -2.7692 C   0  0  0  0  0  0  0  0  0  0  0  0
    1.2702   -1.8882   -3.5028 H   0  0  0  0  0  0  0  0  0  0  0  0
    1.8159   -3.5893   -3.2753 H   0  0  0  0  0  0  0  0  0  0  0  0
    2.6707   -2.2465   -2.4416 H   0  0  0  0  0  0  0  0  0  0  0  0
    1.3176   -3.7028   -0.5119 C   0  0  0  0  0  0  0  0  0  0  0  0
    2.2869   -3.3203   -0.1354 H   0  0  0  0  0  0  0  0  0  0  0  0
    1.4824   -4.7119   -0.9422 H   0  0  0  0  0  0  0  0  0  0  0  0
    0.6267   -3.7950    0.3500 H   0  0  0  0  0  0  0  0  0  0  0  0
   -0.6598    1.4079   -0.7662 C   0  0  1  0  0  3  0  0  0  0  0  0
   -0.4120    3.4168   -1.7863 C   0  0  0  0  0  0  0  0  0  0  0  0
   -0.5679    4.4121   -1.3248 H   0  0  0  0  0  0  0  0  0  0  0  0
   -0.6373    3.4835   -2.8712 H   0  0  0  0  0  0  0  0  0  0  0  0
    0.9912    2.8065   -1.4975 C   0  0  0  0  0  0  0  0  0  0  0  0
    1.8236    2.6093   -2.7694 C   0  0  0  0  0  0  0  0  0  0  0  0
    2.7677    2.0814   -2.5283 H   0  0  0  0  0  0  0  0  0  0  0  0
    2.0780    3.5837   -3.2343 H   0  0  0  0  0  0  0  0  0  0  0  0
    1.2678    1.9990   -3.5087 H   0  0  0  0  0  0  0  0  0  0  0  0
    1.7725    3.6071   -0.4447 C   0  0  0  0  0  0  0  0  0  0  0  0
    1.1625    3.7484    0.4700 H   0  0  0  0  0  0  0  0  0  0  0  0
    2.0592    4.6048   -0.8354 H   0  0  0  0  0  0  0  0  0  0  0  0
    2.6957    3.0631   -0.1611 H   0  0  0  0  0  0  0  0  0  0  0  0
   -0.6513    0.1177    1.4401 C   0  0  2  0  0  3  0  0  0  0  0  0
    0.9718    0.1783    3.0401 C   0  0  0  0  0  0  0  0  0  0  0  0
    1.8284   -1.0000    3.5145 C   0  0  0  0  0  0  0  0  0  0  0  0
    1.3044   -1.9601    3.3363 H   0  0  0  0  0  0  0  0  0  0  0  0
    2.0571   -0.9172    4.5966 H   0  0  0  0  0  0  0  0  0  0  0  0
    2.7868   -1.0240    2.9582 H   0  0  0  0  0  0  0  0  0  0  0  0
   -0.4442    0.1940    3.6890 C   0  0  0  0  0  0  0  0  0  0  0  0
   -0.6696   -0.7387    4.2482 H   0  0  0  0  0  0  0  0  0  0  0  0
   -0.6204    1.0625    4.3540 H   0  0  0  0  0  0  0  0  0  0  0  0
    1.7129    1.5113    3.2250 C   0  0  0  0  0  0  0  0  0  0  0  0
    2.6413    1.5165    2.6198 H   0  0  0  0  0  0  0  0  0  0  0  0
    1.9852    1.6716    4.2883 H   0  0  0  0  0  0  0  0  0  0  0  0
    1.0806    2.3587    2.8917 H   0  0  0  0  0  0  0  0  0  0  0  0
   -2.9898    0.0511    0.0237 C   0  0  0  0  0  0  0  0  0  0  0  0
   -3.6002   -0.9149    0.8594 C   0  0  0  0  0  0  0  0  0  0  0  0
   -2.9670   -1.5616    1.4879 H   0  0  0  0  0  0  0  0  0  0  0  0
   -4.9912   -1.0771    0.9193 C   0  0  0  0  0  0  0  0  0  0  0  0
   -5.4277   -1.8393    1.5843 H   0  0  0  0  0  0  0  0  0  0  0  0
   -5.8273   -0.2683    0.1325 C   0  0  0  0  0  0  0  0  0  0  0  0
   -6.9211   -0.3890    0.1760 H   0  0  0  0  0  0  0  0  0  0  0  0
   -5.2507    0.6935   -0.7093 C   0  0  0  0  0  0  0  0  0  0  0  0
   -5.8933    1.3343   -1.3341 H   0  0  0  0  0  0  0  0  0  0  0  0
   -3.8545    0.8459   -0.7614 C   0  0  0  0  0  0  0  0  0  0  0  0
   -3.4284    1.6103   -1.4261 H   0  0  0  0  0  0  0  0  0  0  0  0
   -1.3781    0.1216   -0.0367 B   0  0  0  0  0  0  0  0  0  0  0  0
  1  7  1  0  0  0  0
  2 20  1  0  0  0  0
  3 39  1  0  0  0  0
  4  7  1  0  0  0  0
  5 20  1  0  0  0  0
  6 34  1  0  0  0  0
  7 57  1  1  0  0  0
  8 10  1  0  0  0  0
  8 11  1  0  0  0  0
  8  1  1  0  0  0  0
  9  8  1  0  0  0  0
 11  4  1  0  0  0  0
 11 16  1  0  0  0  0
 12 15  1  0  0  0  0
 12 11  1  0  0  0  0
 13 12  1  0  0  0  0
 14 12  1  0  0  0  0
 16 17  1  0  0  0  0
 16 19  1  0  0  0  0
 18 16  1  0  0  0  0
 20 57  1  1  0  0  0
 21 24  1  0  0  0  0
 21 22  1  0  0  0  0
 21  2  1  0  0  0  0
 23 21  1  0  0  0  0
 24  5  1  0  0  0  0
 24 29  1  0  0  0  0
 25 26  1  0  0  0  0
 25 24  1  0  0  0  0
 27 25  1  0  0  0  0
 28 25  1  0  0  0  0
 29 32  1  0  0  0  0
 29 30  1  0  0  0  0
 31 29  1  0  0  0  0
 33 57  1  6  0  0  0
 33  6  1  0  0  0  0
 33  3  1  0  0  0  0
 34 42  1  0  0  0  0
 34 35  1  0  0  0  0
 34 39  1  0  0  0  0
 35 37  1  0  0  0  0
 36 35  1  0  0  0  0
 38 35  1  0  0  0  0
 39 40  1  0  0  0  0
 39 41  1  0  0  0  0
 42 44  1  0  0  0  0
 43 42  1  0  0  0  0
 45 42  1  0  0  0  0
 46 47  1  0  0  0  0
 47 49  2  0  0  0  0
 47 48  1  0  0  0  0
 49 50  1  0  0  0  0
 51 52  1  0  0  0  0
 51 49  1  0  0  0  0
 53 51  2  0  0  0  0
 54 53  1  0  0  0  0
 55 53  1  0  0  0  0
 55 46  2  0  0  0  0
 56 55  1  0  0  0  0
 57 46  1  0  0  0  0
M  END
