3,8,13
q = -1.0

 23 25  0  0  0  0  0  0  0  0999 V2000
   -3.9190   -0.2818    0.1838 B   0  0  0  0  0  0  0  0  0  0  0  0
   -3.2506   -1.3855    1.0449 N   0  0  0  0  0  0  0  0  0  0  0  0
   -1.8944   -1.4824    1.1255 N   0  0  0  0  0  2  0  0  0  0  0  0
   -1.6889   -2.5177    1.9506 C   0  0  0  0  0  3  0  0  0  0  0  0
   -2.8287   -3.0942    2.4064 N   0  0  0  0  0  0  0  0  0  0  0  0
   -3.7804   -2.3625    1.8215 C   0  0  0  0  0  0  0  0  0  0  0  0
   -3.4536    1.0997    0.7113 N   0  0  0  0  0  0  0  0  0  0  0  0
   -2.1325    1.4322    0.7394 N   0  0  0  0  0  2  0  0  0  0  0  0
   -2.1157    2.6571    1.2814 C   0  0  0  0  0  3  0  0  0  0  0  0
   -3.3435    3.1350    1.6033 N   0  0  0  0  0  0  0  0  0  0  0  0
   -4.1512    2.1378    1.2350 C   0  0  0  0  0  0  0  0  0  0  0  0
   -3.4522   -0.4454   -1.2853 N   0  0  0  0  0  0  0  0  0  0  0  0
   -2.1312   -0.3818   -1.6123 N   0  0  0  0  0  2  0  0  0  0  0  0
   -2.1124   -0.5803   -2.9369 C   0  0  0  0  0  3  0  0  0  0  0  0
   -3.3392   -0.7669   -3.4841 N   0  0  0  0  0  0  0  0  0  0  0  0
   -4.1482   -0.6768   -2.4258 C   0  0  0  0  0  0  0  0  0  0  0  0
   -0.6761   -2.8489    2.2146 H   0  0  0  0  0  0  0  0  0  0  0  0
   -4.8637   -2.5007    1.9288 H   0  0  0  0  0  0  0  0  0  0  0  0
   -1.1763    3.2020    1.4403 H   0  0  0  0  0  0  0  0  0  0  0  0
   -5.2445    2.1194    1.3271 H   0  0  0  0  0  0  0  0  0  0  0  0
   -1.1720   -0.5859   -3.5034 H   0  0  0  0  0  0  0  0  0  0  0  0
   -5.2413   -0.7718   -2.4339 H   0  0  0  0  0  0  0  0  0  0  0  0
   -5.1352   -0.3720    0.2526 H   0  0  0  0  0  0  0  0  0  0  0  0
  1 23  1  0  0  0  0
  1  7  1  0  0  0  0
  1  2  1  0  0  0  0
  2  3  1  0  0  0  0
  2  6  1  0  0  0  0
  3  4  1  0  0  0  0
  4 17  1  0  0  0  0
  4  5  1  0  0  0  0
  6 18  1  0  0  0  0
  6  5  2  0  0  0  0
  7  8  1  0  0  0  0
  7 11  1  0  0  0  0
  8  9  1  0  0  0  0
  9 19  1  0  0  0  0
  9 10  1  0  0  0  0
 11 20  1  0  0  0  0
 11 10  2  0  0  0  0
 12  1  1  0  0  0  0
 13 12  1  0  0  0  0
 14 13  1  0  0  0  0
 15 14  1  0  0  0  0
 15 16  2  0  0  0  0
 16 12  1  0  0  0  0
 21 14  1  0  0  0  0
 22 16  1  0  0  0  0
M  END
