1,3,4
q = 0.0, confidence = 1.0

 32 32  0  0  0  0  0  0  0  0999 V2000
    1.6989   -1.4874   -0.5820 N   0  0  0  0  0  0  0  0  0  0  0  0
    1.5609   -2.2162    0.1406 H   0  0  0  0  0  0  0  0  0  0  0  0
   -0.9037   -0.7824   -1.2598 N   0  0  0  0  0  2  0  0  0  0  0  0
   -1.4223    1.4065    0.0831 N   0  0  0  0  0  2  0  0  0  0  0  0
    3.4123   -2.3860    1.4944 O   0  0  0  0  0  0  0  0  0  0  0  0
    4.0238   -3.0497    1.1248 H   0  0  0  0  0  0  0  0  0  0  0  0
    3.6652   -1.1564    0.8236 C   0  0  0  0  0  0  0  0  0  0  0  0
    4.7420   -0.8740    0.8192 H   0  0  0  0  0  0  0  0  0  0  0  0
    3.1230   -0.3728    1.3903 H   0  0  0  0  0  0  0  0  0  0  0  0
    3.1387   -1.1916   -0.6081 C   0  0  0  0  0  0  0  0  0  0  0  0
    3.3222   -0.2181   -1.1077 H   0  0  0  0  0  0  0  0  0  0  0  0
    3.6912   -1.9742   -1.1867 H   0  0  0  0  0  0  0  0  0  0  0  0
    1.1407   -1.9265   -1.8620 C   0  0  0  0  0  0  0  0  0  0  0  0
    1.5680   -2.8985   -2.2036 H   0  0  0  0  0  0  0  0  0  0  0  0
    1.4109   -1.1666   -2.6260 H   0  0  0  0  0  0  0  0  0  0  0  0
   -0.3846   -2.0296   -1.7742 C   0  0  0  0  0  0  0  0  0  0  0  0
   -0.8024   -2.2941   -2.7699 H   0  0  0  0  0  0  0  0  0  0  0  0
   -0.6809   -2.8457   -1.0711 H   0  0  0  0  0  0  0  0  0  0  0  0
   -3.2763   -1.2762   -1.8293 C   0  0  0  0  0  0  0  0  0  0  0  0
   -2.9658   -2.3115   -2.0509 H   0  0  0  0  0  0  0  0  0  0  0  0
   -3.6117   -0.7987   -2.7757 H   0  0  0  0  0  0  0  0  0  0  0  0
   -4.1416   -1.3245   -1.1435 H   0  0  0  0  0  0  0  0  0  0  0  0
   -2.1604   -0.4783   -1.2170 C   0  0  0  0  0  0  0  0  0  0  0  0
   -2.4706    0.8157   -0.5316 C   0  0  0  0  0  0  0  0  0  0  0  0
   -3.7468    1.4069   -0.5211 C   0  0  0  0  0  0  0  0  0  0  0  0
   -4.5948    0.9198   -1.0205 H   0  0  0  0  0  0  0  0  0  0  0  0
   -3.9164    2.6339    0.1362 C   0  0  0  0  0  0  0  0  0  0  0  0
   -4.9049    3.1165    0.1581 H   0  0  0  0  0  0  0  0  0  0  0  0
   -2.8158    3.2352    0.7625 C   0  0  0  0  0  0  0  0  0  0  0  0
   -2.9097    4.1969    1.2867 H   0  0  0  0  0  0  0  0  0  0  0  0
   -1.5763    2.5776    0.7092 C   0  0  0  0  0  0  0  0  0  0  0  0
   -0.6669    2.9934    1.1750 H   0  0  0  0  0  0  0  0  0  0  0  0
  1  2  1  0  0  0  0
  3 23  1  0  0  0  0
  4 31  1  0  0  0  0
  6  5  1  0  0  0  0
  7  9  1  0  0  0  0
  7  5  1  0  0  0  0
  8  7  1  0  0  0  0
 10  1  1  0  0  0  0
 10  7  1  0  0  0  0
 11 10  1  0  0  0  0
 12 10  1  0  0  0  0
 13 16  1  0  0  0  0
 13  1  1  0  0  0  0
 14 13  1  0  0  0  0
 15 13  1  0  0  0  0
 16  3  1  0  0  0  0
 16 18  1  0  0  0  0
 17 16  1  0  0  0  0
 19 23  1  0  0  0  0
 19 22  1  0  0  0  0
 20 19  1  0  0  0  0
 21 19  1  0  0  0  0
 23 24  2  0  0  0  0
 24 25  1  0  0  0  0
 24  4  1  0  0  0  0
 25 27  2  0  0  0  0
 26 25  1  0  0  0  0
 27 28  1  0  0  0  0
 27 29  1  0  0  0  0
 29 30  1  0  0  0  0
 31 29  2  0  0  0  0
 31 32  1  0  0  0  0
M  END
