6,8,10
q = -1.0

 65 67  0  0  1  0  0  0  0  0999 V2000
   -0.3406    3.7210    0.4663 S   0  0  0  0  0  0  0  0  0  0  0  0
    0.9321    3.9847    1.1858 O   0  0  0  0  0  1  0  0  0  0  0  0
   -1.5905    3.7574    1.2685 O   0  0  0  0  0  1  0  0  0  0  0  0
   -0.4326    4.2435   -0.9277 O   0  0  0  0  0  1  0  0  0  0  0  0
   -1.3775    1.2367   -0.5036 N   0  0  0  0  0  0  0  0  0  0  0  0
   -1.6830   -0.1102   -0.4754 N   0  0  0  0  0  2  0  0  0  0  0  0
   -0.0604    1.1016    1.4583 N   0  0  0  0  0  0  0  0  0  0  0  0
    0.0942   -0.2462    1.4569 N   0  0  0  0  0  2  0  0  0  0  0  0
    1.0485    1.4593   -0.6024 N   0  0  0  0  0  0  0  0  0  0  0  0
    1.5680    0.1804   -0.6460 N   0  0  0  0  0  2  0  0  0  0  0  0
   -0.1729    1.7384    0.1551 C   0  0  2  0  0  0  0  0  0  0  0  0
   -2.8885   -0.2504   -1.0570 C   0  0  2  0  0  3  0  0  0  0  0  0
   -3.3526    1.0280   -1.4752 C   0  0  0  0  0  0  0  0  0  0  0  0
   -4.3016    1.2570   -1.9685 H   0  0  0  0  0  0  0  0  0  0  0  0
   -2.3791    1.9429   -1.1085 C   0  0  0  0  0  0  0  0  0  0  0  0
   -2.2996    3.0293   -1.2183 H   0  0  0  0  0  0  0  0  0  0  0  0
   -3.6157   -1.5766   -1.2035 C   0  0  0  0  0  0  0  0  0  0  0  0
   -3.5566   -2.0135   -2.6861 C   0  0  0  0  0  0  0  0  0  0  0  0
   -4.0221   -1.2525   -3.3442 H   0  0  0  0  0  0  0  0  0  0  0  0
   -4.1071   -2.9673   -2.8209 H   0  0  0  0  0  0  0  0  0  0  0  0
   -2.5068   -2.1592   -3.0053 H   0  0  0  0  0  0  0  0  0  0  0  0
   -2.9907   -2.6623   -0.3121 C   0  0  0  0  0  0  0  0  0  0  0  0
   -3.0115   -2.3608    0.7550 H   0  0  0  0  0  0  0  0  0  0  0  0
   -1.9448   -2.8715   -0.6082 H   0  0  0  0  0  0  0  0  0  0  0  0
   -3.5678   -3.6031   -0.4135 H   0  0  0  0  0  0  0  0  0  0  0  0
   -5.0890   -1.3719   -0.7850 C   0  0  0  0  0  0  0  0  0  0  0  0
   -5.1665   -1.0265    0.2657 H   0  0  0  0  0  0  0  0  0  0  0  0
   -5.6396   -2.3301   -0.8758 H   0  0  0  0  0  0  0  0  0  0  0  0
   -5.6032   -0.6308   -1.4285 H   0  0  0  0  0  0  0  0  0  0  0  0
    0.1906   -0.6645    2.7305 C   0  0  2  0  0  3  0  0  0  0  0  0
    0.0857    0.4765    3.5724 C   0  0  0  0  0  0  0  0  0  0  0  0
    0.1233    0.4930    4.6656 H   0  0  0  0  0  0  0  0  0  0  0  0
   -0.0728    1.5785    2.7389 C   0  0  0  0  0  0  0  0  0  0  0  0
   -0.1945    2.6468    2.9357 H   0  0  0  0  0  0  0  0  0  0  0  0
    0.4631   -2.1145    3.0757 C   0  0  0  0  0  0  0  0  0  0  0  0
    1.9750   -2.2585    3.3699 C   0  0  0  0  0  0  0  0  0  0  0  0
    2.5779   -1.9820    2.4823 H   0  0  0  0  0  0  0  0  0  0  0  0
    2.2152   -3.3073    3.6392 H   0  0  0  0  0  0  0  0  0  0  0  0
    2.2836   -1.6048    4.2098 H   0  0  0  0  0  0  0  0  0  0  0  0
    0.0726   -3.0243    1.8973 C   0  0  0  0  0  0  0  0  0  0  0  0
    0.6055   -2.7325    0.9591 H   0  0  0  0  0  0  0  0  0  0  0  0
   -1.0158   -2.9909    1.7030 H   0  0  0  0  0  0  0  0  0  0  0  0
    0.3541   -4.0752    2.1069 H   0  0  0  0  0  0  0  0  0  0  0  0
   -0.3500   -2.5115    4.3237 C   0  0  0  0  0  0  0  0  0  0  0  0
   -1.4375   -2.3863    4.1510 H   0  0  0  0  0  0  0  0  0  0  0  0
   -0.0686   -1.9011    5.2049 H   0  0  0  0  0  0  0  0  0  0  0  0
   -0.1598   -3.5734    4.5787 H   0  0  0  0  0  0  0  0  0  0  0  0
    2.7420    0.2499   -1.2985 C   0  0  1  0  0  3  0  0  0  0  0  0
    2.9683    1.5985   -1.6927 C   0  0  0  0  0  0  0  0  0  0  0  0
    3.8347    1.9915   -2.2323 H   0  0  0  0  0  0  0  0  0  0  0  0
    1.8868    2.3340   -1.2355 C   0  0  0  0  0  0  0  0  0  0  0  0
    1.6302    3.3960   -1.3012 H   0  0  0  0  0  0  0  0  0  0  0  0
    3.6569   -0.9401   -1.5376 C   0  0  0  0  0  0  0  0  0  0  0  0
    5.1083   -0.5052   -1.2358 C   0  0  0  0  0  0  0  0  0  0  0  0
    5.4409    0.3180   -1.8987 H   0  0  0  0  0  0  0  0  0  0  0  0
    5.7953   -1.3602   -1.3978 H   0  0  0  0  0  0  0  0  0  0  0  0
    5.2189   -0.1668   -0.1858 H   0  0  0  0  0  0  0  0  0  0  0  0
    3.2926   -2.1258   -0.6280 C   0  0  0  0  0  0  0  0  0  0  0  0
    2.2812   -2.5124   -0.8584 H   0  0  0  0  0  0  0  0  0  0  0  0
    3.3342   -1.8379    0.4419 H   0  0  0  0  0  0  0  0  0  0  0  0
    4.0159   -2.9503   -0.7880 H   0  0  0  0  0  0  0  0  0  0  0  0
    3.5418   -1.3613   -3.0217 C   0  0  0  0  0  0  0  0  0  0  0  0
    2.5056   -1.6715   -3.2569 H   0  0  0  0  0  0  0  0  0  0  0  0
    4.2239   -2.2120   -3.2264 H   0  0  0  0  0  0  0  0  0  0  0  0
    3.8218   -0.5265   -3.6954 H   0  0  0  0  0  0  0  0  0  0  0  0
  1  2  1  0  0  0  0
  1  3  1  0  0  0  0
  4  1  1  0  0  0  0
  5  6  1  0  0  0  0
  5 11  1  0  0  0  0
  7 33  1  0  0  0  0
  8  7  1  0  0  0  0
  8 30  1  0  0  0  0
  9 11  1  0  0  0  0
 10  9  1  0  0  0  0
 11  1  1  1  0  0  0
 11  7  1  0  0  0  0
 12 17  1  1  0  0  0
 12  6  1  0  0  0  0
 13 15  2  0  0  0  0
 13 12  1  0  0  0  0
 14 13  1  0  0  0  0
 15  5  1  0  0  0  0
 16 15  1  0  0  0  0
 17 26  1  0  0  0  0
 17 22  1  0  0  0  0
 18 17  1  0  0  0  0
 19 18  1  0  0  0  0
 20 18  1  0  0  0  0
 21 18  1  0  0  0  0
 22 23  1  0  0  0  0
 24 22  1  0  0  0  0
 25 22  1  0  0  0  0
 26 27  1  0  0  0  0
 28 26  1  0  0  0  0
 29 26  1  0  0  0  0
 30 35  1  6  0  0  0
 30 31  1  0  0  0  0
 31 32  1  0  0  0  0
 33 34  1  0  0  0  0
 33 31  2  0  0  0  0
 35 36  1  0  0  0  0
 35 44  1  0  0  0  0
 36 38  1  0  0  0  0
 36 39  1  0  0  0  0
 37 36  1  0  0  0  0
 40 43  1  0  0  0  0
 40 35  1  0  0  0  0
 41 40  1  0  0  0  0
 42 40  1  0  0  0  0
 44 47  1  0  0  0  0
 44 46  1  0  0  0  0
 45 44  1  0  0  0  0
 48 53  1  1  0  0  0
 48 10  1  0  0  0  0
 49 48  1  0  0  0  0
 49 51  2  0  0  0  0
 50 49  1  0  0  0  0
 51  9  1  0  0  0  0
 52 51  1  0  0  0  0
 53 54  1  0  0  0  0
 53 58  1  0  0  0  0
 54 57  1  0  0  0  0
 55 54  1  0  0  0  0
 56 54  1  0  0  0  0
 58 60  1  0  0  0  0
 59 58  1  0  0  0  0
 61 58  1  0  0  0  0
 62 53  1  0  0  0  0
 63 62  1  0  0  0  0
 64 62  1  0  0  0  0
 65 62  1  0  0  0  0
M  END
