10,11,12
q = 0.0, confidence = 1.0

 36 35  0  0  0  0  0  0  0  0999 V2000
    0.2715   -0.6946    1.8240 C   0  0  0  0  0  0  0  0  0  0  0  0
   -1.1089   -0.8675    2.4710 C   0  0  0  0  0  0  0  0  0  0  0  0
   -2.2124   -1.4790    1.6062 C   0  0  0  0  0  0  0  0  0  0  0  0
    0.2110    1.7007    1.2465 C   0  0  0  0  0  0  0  0  0  0  0  0
    0.1424    2.8012    0.1819 C   0  0  0  0  0  0  0  0  0  0  0  0
   -1.1022    2.8291   -0.7076 C   0  0  0  0  0  0  0  0  0  0  0  0
    1.6563    0.1260   -0.0295 C   0  0  0  0  0  0  0  0  0  0  0  0
    2.9653    0.3597    0.7241 C   0  0  0  0  0  0  0  0  0  0  0  0
    4.1574   -0.0272   -0.1696 C   0  0  0  0  0  0  0  0  0  0  0  0
    0.3760    0.3166    0.7270 N   0  0  0  0  0  0  0  0  0  0  0  0
   -2.7172   -0.5259    0.5733 N   0  0  0  0  0  0  0  0  0  0  0  0
   -1.1806    1.6738   -1.6468 N   0  0  0  0  0  0  0  0  0  0  0  0
    4.0702   -1.3525   -0.6515 O   0  0  0  0  0  0  0  0  0  0  0  0
    1.0061   -0.4459    2.6212 H   0  0  0  0  0  0  0  0  0  0  0  0
    0.5821   -1.6613    1.3777 H   0  0  0  0  0  0  0  0  0  0  0  0
    4.3636   -1.9555    0.0556 H   0  0  0  0  0  0  0  0  0  0  0  0
   -1.4651    0.0806    2.9316 H   0  0  0  0  0  0  0  0  0  0  0  0
   -0.9558   -1.5511    3.3312 H   0  0  0  0  0  0  0  0  0  0  0  0
   -3.4397   -0.9970    0.0074 H   0  0  0  0  0  0  0  0  0  0  0  0
   -3.1887    0.2698    1.0293 H   0  0  0  0  0  0  0  0  0  0  0  0
   -1.8257   -2.3590    1.0511 H   0  0  0  0  0  0  0  0  0  0  0  0
   -3.0464   -1.8230    2.2530 H   0  0  0  0  0  0  0  0  0  0  0  0
   -2.0233    1.7555   -2.2360 H   0  0  0  0  0  0  0  0  0  0  0  0
   -0.3946    1.7106   -2.3158 H   0  0  0  0  0  0  0  0  0  0  0  0
   -0.7227    1.7242    1.8448 H   0  0  0  0  0  0  0  0  0  0  0  0
    1.0371    1.9309    1.9561 H   0  0  0  0  0  0  0  0  0  0  0  0
    1.0587    2.8042   -0.4467 H   0  0  0  0  0  0  0  0  0  0  0  0
    0.1688    3.7687    0.7238 H   0  0  0  0  0  0  0  0  0  0  0  0
   -2.0176    2.8048   -0.0791 H   0  0  0  0  0  0  0  0  0  0  0  0
   -1.1284    3.7845   -1.2729 H   0  0  0  0  0  0  0  0  0  0  0  0
    1.6261    0.7895   -0.9193 H   0  0  0  0  0  0  0  0  0  0  0  0
    1.6440   -0.9068   -0.4328 H   0  0  0  0  0  0  0  0  0  0  0  0
    3.0835    1.4192    1.0385 H   0  0  0  0  0  0  0  0  0  0  0  0
    2.9994   -0.2541    1.6500 H   0  0  0  0  0  0  0  0  0  0  0  0
    4.1695    0.6299   -1.0668 H   0  0  0  0  0  0  0  0  0  0  0  0
    5.1078    0.1691    0.3778 H   0  0  0  0  0  0  0  0  0  0  0  0
  1  2  1  0  0  0  0
  1 14  1  0  0  0  0
  2 17  1  0  0  0  0
  2 18  1  0  0  0  0
  3 22  1  0  0  0  0
  3  2  1  0  0  0  0
  4 25  1  0  0  0  0
  4 26  1  0  0  0  0
  5 28  1  0  0  0  0
  5  4  1  0  0  0  0
  6 29  1  0  0  0  0
  6  5  1  0  0  0  0
  7  8  1  0  0  0  0
  7 10  1  0  0  0  0
  8 33  1  0  0  0  0
  8 34  1  0  0  0  0
  9 36  1  0  0  0  0
  9  8  1  0  0  0  0
 10  4  1  0  0  0  0
 10  1  1  0  0  0  0
 11 20  1  0  0  0  0
 11  3  1  0  0  0  0
 12  6  1  0  0  0  0
 13  9  1  0  0  0  0
 13 16  1  0  0  0  0
 15  1  1  0  0  0  0
 19 11  1  0  0  0  0
 21  3  1  0  0  0  0
 23 12  1  0  0  0  0
 24 12  1  0  0  0  0
 27  5  1  0  0  0  0
 30  6  1  0  0  0  0
 31  7  1  0  0  0  0
 32  7  1  0  0  0  0
 35  9  1  0  0  0  0
M  END
