1,2,3
q = 0.0, confidence = 0.998

 41 44  0  0  0  0  0  0  0  0999 V2000
    2.0173    2.0100   -0.0338 N   0  0  0  0  0  2  0  0  0  0  0  0
    0.3979    0.0000   -0.0000 N   0  0  0  0  0  2  0  0  0  0  0  0
    2.0172   -2.0101    0.0337 N   0  0  0  0  0  2  0  0  0  0  0  0
   -8.0794   -0.0001    0.0002 N   0  0  0  0  0  0  0  0  0  0  0  0
   -8.6061    0.8126    0.3137 H   0  0  0  0  0  0  0  0  0  0  0  0
   -8.6061   -0.8122   -0.3147 H   0  0  0  0  0  0  0  0  0  0  0  0
    2.9632    2.9679   -0.0524 C   0  0  0  0  0  3  0  0  0  0  0  0
    4.0024    2.6007   -0.0462 H   0  0  0  0  0  0  0  0  0  0  0  0
    2.6258    4.3272   -0.0778 C   0  0  0  0  0  0  0  0  0  0  0  0
    3.4244    5.0820   -0.0926 H   0  0  0  0  0  0  0  0  0  0  0  0
    1.2726    4.6920   -0.0840 C   0  0  0  0  0  0  0  0  0  0  0  0
    0.9785    5.7515   -0.1043 H   0  0  0  0  0  0  0  0  0  0  0  0
    0.2918    3.6904   -0.0639 C   0  0  0  0  0  0  0  0  0  0  0  0
   -0.7751    3.9521   -0.0683 H   0  0  0  0  0  0  0  0  0  0  0  0
    0.6802    2.3439   -0.0386 C   0  0  0  0  0  0  0  0  0  0  0  0
   -0.2502    1.1941   -0.0147 C   0  0  0  0  0  0  0  0  0  0  0  0
   -1.6459    1.2159   -0.0161 C   0  0  0  0  0  0  0  0  0  0  0  0
   -2.1714    2.1781   -0.0612 H   0  0  0  0  0  0  0  0  0  0  0  0
   -2.3897    0.0001    0.0000 C   0  0  0  0  0  0  0  0  0  0  0  0
   -1.6459   -1.2158    0.0161 C   0  0  0  0  0  0  0  0  0  0  0  0
   -2.1715   -2.1780    0.0612 H   0  0  0  0  0  0  0  0  0  0  0  0
   -0.2503   -1.1940    0.0146 C   0  0  0  0  0  0  0  0  0  0  0  0
    0.6801   -2.3439    0.0385 C   0  0  0  0  0  0  0  0  0  0  0  0
    2.9630   -2.9680    0.0522 C   0  0  0  0  0  0  0  0  0  0  0  0
    4.0023   -2.6009    0.0461 H   0  0  0  0  0  0  0  0  0  0  0  0
    2.6256   -4.3273    0.0776 C   0  0  0  0  0  0  0  0  0  0  0  0
    3.4242   -5.0821    0.0923 H   0  0  0  0  0  0  0  0  0  0  0  0
    1.2724   -4.6920    0.0838 C   0  0  0  0  0  0  0  0  0  0  0  0
    0.9783   -5.7515    0.1041 H   0  0  0  0  0  0  0  0  0  0  0  0
    0.2916   -3.6904    0.0637 C   0  0  0  0  0  0  0  0  0  0  0  0
   -0.7753   -3.9520    0.0682 H   0  0  0  0  0  0  0  0  0  0  0  0
   -3.8526    0.0001    0.0000 C   0  0  0  0  0  0  0  0  0  0  0  0
   -4.5969   -1.1292   -0.4365 C   0  0  0  0  0  0  0  0  0  0  0  0
   -4.0747   -2.0181   -0.8198 H   0  0  0  0  0  0  0  0  0  0  0  0
   -5.9851   -1.1348   -0.4465 C   0  0  0  0  0  0  0  0  0  0  0  0
   -6.5264   -2.0198   -0.8138 H   0  0  0  0  0  0  0  0  0  0  0  0
   -6.7211    0.0000    0.0000 C   0  0  0  0  0  0  0  0  0  0  0  0
   -5.9852    1.1349    0.4466 C   0  0  0  0  0  0  0  0  0  0  0  0
   -6.5264    2.0198    0.8140 H   0  0  0  0  0  0  0  0  0  0  0  0
   -4.5970    1.1293    0.4366 C   0  0  0  0  0  0  0  0  0  0  0  0
   -4.0748    2.0182    0.8199 H   0  0  0  0  0  0  0  0  0  0  0  0
  2 22  1  0  0  0  0
  3 23  1  0  0  0  0
  3 24  1  0  0  0  0
  4  5  1  0  0  0  0
  6  4  1  0  0  0  0
  7  8  1  0  0  0  0
  7  1  1  0  0  0  0
  9  7  1  0  0  0  0
 10  9  1  0  0  0  0
 11  9  2  0  0  0  0
 11 13  1  0  0  0  0
 12 11  1  0  0  0  0
 13 15  2  0  0  0  0
 14 13  1  0  0  0  0
 15  1  1  0  0  0  0
 15 16  1  0  0  0  0
 16  2  1  0  0  0  0
 17 16  2  0  0  0  0
 17 19  1  0  0  0  0
 18 17  1  0  0  0  0
 19 20  2  0  0  0  0
 20 21  1  0  0  0  0
 22 20  1  0  0  0  0
 22 23  2  0  0  0  0
 23 30  1  0  0  0  0
 24 26  2  0  0  0  0
 25 24  1  0  0  0  0
 26 28  1  0  0  0  0
 26 27  1  0  0  0  0
 28 29  1  0  0  0  0
 30 31  1  0  0  0  0
 30 28  2  0  0  0  0
 32 19  1  0  0  0  0
 32 40  1  0  0  0  0
 33 32  2  0  0  0  0
 34 33  1  0  0  0  0
 35 33  1  0  0  0  0
 35 37  2  0  0  0  0
 36 35  1  0  0  0  0
 37  4  1  0  0  0  0
 37 38  1  0  0  0  0
 38 39  1  0  0  0  0
 40 38  2  0  0  0  0
 40 41  1  0  0  0  0
M  END
