3,24,33
q = -1.0

 41 44  0  0  0  0  0  0  0  0999 V2000
    2.9835    3.3648   -3.6317 Br  0  0  0  0  0  0  0  0  0  0  0  0
    2.9834   -3.3651    3.6312 Br  0  0  0  0  0  0  0  0  0  0  0  0
   -2.0251    0.0001    0.0000 N   0  0  0  0  0  0  0  0  0  0  0  0
   -2.4481    1.8682   -1.4786 N   0  0  0  0  0  0  0  0  0  0  0  0
   -2.4482   -1.8680    1.4786 N   0  0  0  0  0  0  0  0  0  0  0  0
   -2.8231   -0.8866    0.6969 C   0  0  0  0  0  0  0  0  0  0  0  0
   -4.2374   -0.5575    0.4303 C   0  0  0  0  0  0  0  0  0  0  0  0
   -5.4348   -1.1248    0.8677 C   0  0  0  0  0  0  0  0  0  0  0  0
   -5.4187   -1.9963    1.5397 H   0  0  0  0  0  0  0  0  0  0  0  0
   -6.6569   -0.5658    0.4356 C   0  0  0  0  0  0  0  0  0  0  0  0
   -6.6569    0.5659   -0.4361 C   0  0  0  0  0  0  0  0  0  0  0  0
   -5.4347    1.1250   -0.8679 C   0  0  0  0  0  0  0  0  0  0  0  0
   -5.4186    1.9965   -1.5400 H   0  0  0  0  0  0  0  0  0  0  0  0
   -4.2374    0.5579   -0.4303 C   0  0  0  0  0  3  0  0  0  0  0  0
   -2.8230    0.8869   -0.6969 C   0  0  0  0  0  0  0  0  0  0  0  0
   -1.1761    2.1760   -1.8505 C   0  0  0  0  0  0  0  0  0  0  0  0
   -1.0753    3.2817   -2.7504 C   0  0  0  0  0  0  0  0  0  0  0  0
   -2.0198    3.7829   -2.9998 H   0  0  0  0  0  0  0  0  0  0  0  0
    0.1325    3.6835   -3.2944 C   0  0  0  0  0  0  0  0  0  0  0  0
    0.2018    4.5310   -3.9905 H   0  0  0  0  0  0  0  0  0  0  0  0
    1.2738    2.9421   -2.9283 C   0  0  0  0  0  0  0  0  0  0  0  0
    1.1513    1.8842   -2.0317 C   0  0  0  0  0  0  0  0  0  0  0  0
    2.0385    1.3122   -1.7442 H   0  0  0  0  0  0  0  0  0  0  0  0
   -0.0254    1.5033   -1.4627 N   0  0  0  0  0  2  0  0  0  0  0  0
   -1.1762   -2.1760    1.8504 C   0  0  0  0  0  0  0  0  0  0  0  0
   -1.0755   -3.2817    2.7503 C   0  0  0  0  0  0  0  0  0  0  0  0
   -2.0200   -3.7828    2.9997 H   0  0  0  0  0  0  0  0  0  0  0  0
    0.1324   -3.6836    3.2941 C   0  0  0  0  0  0  0  0  0  0  0  0
    0.2016   -4.5311    3.9901 H   0  0  0  0  0  0  0  0  0  0  0  0
    1.2737   -2.9422    2.9280 C   0  0  0  0  0  0  0  0  0  0  0  0
    1.1512   -1.8842    2.0315 C   0  0  0  0  0  0  0  0  0  0  0  0
    2.0384   -1.3122    1.7440 H   0  0  0  0  0  0  0  0  0  0  0  0
   -0.0256   -1.5032    1.4627 N   0  0  0  0  0  2  0  0  0  0  0  0
   -7.9622   -1.1627    0.8942 C   0  0  0  0  0  0  0  0  0  0  0  0
   -8.5811   -0.4218    1.4439 H   0  0  0  0  0  0  0  0  0  0  0  0
   -7.7978   -2.0295    1.5620 H   0  0  0  0  0  0  0  0  0  0  0  0
   -8.5798   -1.5057    0.0367 H   0  0  0  0  0  0  0  0  0  0  0  0
   -7.9622    1.1627   -0.8949 C   0  0  0  0  0  0  0  0  0  0  0  0
   -8.5810    0.4216   -1.4446 H   0  0  0  0  0  0  0  0  0  0  0  0
   -7.7977    2.0294   -1.5627 H   0  0  0  0  0  0  0  0  0  0  0  0
   -8.5799    1.5056   -0.0376 H   0  0  0  0  0  0  0  0  0  0  0  0
  1 21  1  0  0  0  0
  3  6  1  0  0  0  0
  4 15  1  0  0  0  0
  5 25  2  0  0  0  0
  6  5  1  0  0  0  0
  7  6  2  0  0  0  0
  7  8  1  0  0  0  0
  8  9  1  0  0  0  0
 10  8  2  0  0  0  0
 10 34  1  0  0  0  0
 11 10  1  0  0  0  0
 12 11  2  0  0  0  0
 12 14  1  0  0  0  0
 13 12  1  0  0  0  0
 14  7  1  0  0  0  0
 15 14  1  0  0  0  0
 15  3  2  0  0  0  0
 16  4  2  0  0  0  0
 16 24  1  0  0  0  0
 17 16  1  0  0  0  0
 18 17  1  0  0  0  0
 19 21  1  0  0  0  0
 19 17  2  0  0  0  0
 20 19  1  0  0  0  0
 21 22  2  0  0  0  0
 22 23  1  0  0  0  0
 22 24  1  0  0  0  0
 25 26  1  0  0  0  0
 26 27  1  0  0  0  0
 26 28  2  0  0  0  0
 28 29  1  0  0  0  0
 30 28  1  0  0  0  0
 30  2  1  0  0  0  0
 31 30  2  0  0  0  0
 32 31  1  0  0  0  0
 33 25  1  0  0  0  0
 33 31  1  0  0  0  0
 34 35  1  0  0  0  0
 34 36  1  0  0  0  0
 37 34  1  0  0  0  0
 38 11  1  0  0  0  0
 38 41  1  0  0  0  0
 39 38  1  0  0  0  0
 40 38  1  0  0  0  0
M  END
