3,4,5
q = -1.0

 41 44  0  0  0  0  0  0  0  0999 V2000
   -2.9834   -3.3665   -3.6299 Br  0  0  0  0  0  0  0  0  0  0  0  0
   -2.9835    3.3663    3.6304 Br  0  0  0  0  0  0  0  0  0  0  0  0
    2.0251    0.0001   -0.0000 N   0  0  0  0  0  0  0  0  0  0  0  0
    0.0256   -1.5038   -1.4621 N   0  0  0  0  0  2  0  0  0  0  0  0
    0.0254    1.5039    1.4622 N   0  0  0  0  0  2  0  0  0  0  0  0
    2.8231   -0.8869   -0.6966 C   0  0  0  0  0  0  0  0  0  0  0  0
    4.2374   -0.5577   -0.4301 C   0  0  0  0  0  3  0  0  0  0  0  0
    5.4348   -1.1251   -0.8673 C   0  0  0  0  0  0  0  0  0  0  0  0
    5.4187   -1.9968   -1.5390 H   0  0  0  0  0  0  0  0  0  0  0  0
    6.6569   -0.5660   -0.4355 C   0  0  0  0  0  0  0  0  0  0  0  0
    6.6569    0.5660    0.4359 C   0  0  0  0  0  0  0  0  0  0  0  0
    5.4347    1.1253    0.8675 C   0  0  0  0  0  0  0  0  0  0  0  0
    5.4187    1.9970    1.5392 H   0  0  0  0  0  0  0  0  0  0  0  0
    4.2374    0.5580    0.4301 C   0  0  0  0  0  0  0  0  0  0  0  0
    2.8230    0.8871    0.6966 C   0  0  0  0  0  0  0  0  0  0  0  0
    1.1762   -2.1766   -1.8497 C   0  0  0  0  0  0  0  0  0  0  0  0
    1.0754   -3.2826   -2.7492 C   0  0  0  0  0  0  0  0  0  0  0  0
    2.0200   -3.7838   -2.9985 H   0  0  0  0  0  0  0  0  0  0  0  0
   -0.1324   -3.6847   -3.2928 C   0  0  0  0  0  0  0  0  0  0  0  0
   -0.2017   -4.5324   -3.9886 H   0  0  0  0  0  0  0  0  0  0  0  0
   -1.2737   -2.9433   -2.9269 C   0  0  0  0  0  0  0  0  0  0  0  0
   -1.1512   -1.8850   -2.0308 C   0  0  0  0  0  0  0  0  0  0  0  0
   -2.0384   -1.3129   -1.7434 H   0  0  0  0  0  0  0  0  0  0  0  0
    2.4482   -1.8685   -1.4780 N   0  0  0  0  0  0  0  0  0  0  0  0
   -1.1513    1.8850    2.0310 C   0  0  0  0  0  3  0  0  0  0  0  0
   -2.0385    1.3129    1.7437 H   0  0  0  0  0  0  0  0  0  0  0  0
   -1.2738    2.9432    2.9272 C   0  0  0  0  0  0  0  0  0  0  0  0
   -0.1325    3.6847    3.2931 C   0  0  0  0  0  0  0  0  0  0  0  0
   -0.2017    4.5324    3.9889 H   0  0  0  0  0  0  0  0  0  0  0  0
    1.0753    3.2826    2.7493 C   0  0  0  0  0  0  0  0  0  0  0  0
    2.0199    3.7839    2.9986 H   0  0  0  0  0  0  0  0  0  0  0  0
    1.1761    2.1767    1.8498 C   0  0  0  0  0  0  0  0  0  0  0  0
    2.4481    1.8687    1.4780 N   0  0  0  0  0  2  0  0  0  0  0  0
    7.9622   -1.1631   -0.8938 C   0  0  0  0  0  0  0  0  0  0  0  0
    8.5798   -1.5057   -0.0362 H   0  0  0  0  0  0  0  0  0  0  0  0
    8.5811   -0.4223   -1.4438 H   0  0  0  0  0  0  0  0  0  0  0  0
    7.7978   -2.0301   -1.5612 H   0  0  0  0  0  0  0  0  0  0  0  0
    7.9622    1.1630    0.8945 C   0  0  0  0  0  0  0  0  0  0  0  0
    7.7977    2.0299    1.5620 H   0  0  0  0  0  0  0  0  0  0  0  0
    8.5799    1.5056    0.0370 H   0  0  0  0  0  0  0  0  0  0  0  0
    8.5810    0.4221    1.4445 H   0  0  0  0  0  0  0  0  0  0  0  0
  1 21  1  0  0  0  0
  3 15  1  0  0  0  0
  5 32  1  0  0  0  0
  5 25  1  0  0  0  0
  6  7  1  0  0  0  0
  6  3  2  0  0  0  0
  7 14  1  0  0  0  0
  8 10  2  0  0  0  0
  8  7  1  0  0  0  0
  9  8  1  0  0  0  0
 10 11  1  0  0  0  0
 11 12  2  0  0  0  0
 11 38  1  0  0  0  0
 12 13  1  0  0  0  0
 14 15  2  0  0  0  0
 14 12  1  0  0  0  0
 15 33  1  0  0  0  0
 16 24  2  0  0  0  0
 16  4  1  0  0  0  0
 17 16  1  0  0  0  0
 18 17  1  0  0  0  0
 19 21  1  0  0  0  0
 19 17  2  0  0  0  0
 20 19  1  0  0  0  0
 21 22  2  0  0  0  0
 22 23  1  0  0  0  0
 22  4  1  0  0  0  0
 24  6  1  0  0  0  0
 25 27  1  0  0  0  0
 26 25  1  0  0  0  0
 27 28  2  0  0  0  0
 27  2  1  0  0  0  0
 28 29  1  0  0  0  0
 30 31  1  0  0  0  0
 30 28  1  0  0  0  0
 32 30  2  0  0  0  0
 33 32  1  0  0  0  0
 34 10  1  0  0  0  0
 34 35  1  0  0  0  0
 36 34  1  0  0  0  0
 37 34  1  0  0  0  0
 38 41  1  0  0  0  0
 38 39  1  0  0  0  0
 40 38  1  0  0  0  0
M  END
