21,23,24
q = -1.0

 26 27  0  0  1  0  0  0  0  0999 V2000
   -1.2992    0.9371    2.4873 C   0  0  0  0  0  0  0  0  0  0  0  0
   -0.7846   -2.5525   -1.2498 C   0  0  0  0  0  3  0  0  0  0  0  0
    0.2285   -2.4930   -1.6737 H   0  0  0  0  0  0  0  0  0  0  0  0
   -1.6788   -3.6000   -1.5015 C   0  0  0  0  0  0  0  0  0  0  0  0
   -1.3654   -4.4368   -2.1413 H   0  0  0  0  0  0  0  0  0  0  0  0
   -2.9626   -3.5612   -0.9325 C   0  0  0  0  0  0  0  0  0  0  0  0
   -3.6743   -4.3804   -1.1131 H   0  0  0  0  0  0  0  0  0  0  0  0
   -3.3345   -2.4656   -0.1365 C   0  0  0  0  0  0  0  0  0  0  0  0
   -4.3250   -2.3768    0.3298 H   0  0  0  0  0  0  0  0  0  0  0  0
   -2.3883   -1.4623    0.0687 C   0  0  0  0  0  0  0  0  0  0  0  0
   -2.5777   -0.1724    0.8523 C   0  0  2  0  0  0  0  0  0  0  0  0
   -2.5961    0.9513   -0.2036 C   0  0  2  0  0  3  0  0  0  0  0  0
   -3.6998    1.7026   -0.6069 C   0  0  0  0  0  0  0  0  0  0  0  0
   -4.6747    1.5270   -0.1307 H   0  0  0  0  0  0  0  0  0  0  0  0
   -3.5144    2.6614   -1.6171 C   0  0  0  0  0  0  0  0  0  0  0  0
   -4.3586    3.2813   -1.9540 H   0  0  0  0  0  0  0  0  0  0  0  0
   -2.2469    2.8123   -2.2023 C   0  0  0  0  0  0  0  0  0  0  0  0
   -2.0746    3.5398   -3.0077 H   0  0  0  0  0  0  0  0  0  0  0  0
   -1.1855    2.0170   -1.7523 C   0  0  0  0  0  0  0  0  0  0  0  0
   -0.1706    2.0586   -2.1750 H   0  0  0  0  0  0  0  0  0  0  0  0
   -1.2845   -0.0235    1.5767 N   0  0  0  0  0  2  0  0  0  0  0  0
   -1.3153    1.7745    3.3277 N   0  0  0  0  0  0  0  0  0  0  0  0
   -1.1499   -1.5206   -0.4664 N   0  0  0  0  0  2  0  0  0  0  0  0
   -1.3755    1.1235   -0.7636 N   0  0  0  0  0  2  0  0  0  0  0  0
   -3.7165   -0.2361    1.6342 O   0  0  0  0  0  0  0  0  0  0  0  0
   -3.7091    0.5257    2.2515 H   0  0  0  0  0  0  0  0  0  0  0  0
  1 22  3  0  0  0  0
  2 23  1  0  0  0  0
  3  2  1  0  0  0  0
  4  2  1  0  0  0  0
  4  6  2  0  0  0  0
  5  4  1  0  0  0  0
  6  8  1  0  0  0  0
  7  6  1  0  0  0  0
  8 10  2  0  0  0  0
  8  9  1  0  0  0  0
 10 11  1  0  0  0  0
 11 21  1  1  0  0  0
 11 25  1  0  0  0  0
 12 11  1  6  0  0  0
 13 12  1  0  0  0  0
 13 14  1  0  0  0  0
 15 13  2  0  0  0  0
 16 15  1  0  0  0  0
 17 19  2  0  0  0  0
 17 15  1  0  0  0  0
 18 17  1  0  0  0  0
 19 24  1  0  0  0  0
 20 19  1  0  0  0  0
 21  1  1  0  0  0  0
 23 10  1  0  0  0  0
 24 12  1  0  0  0  0
 25 26  1  0  0  0  0
M  END
