2,3,4
q = -1.0, confidence = 0.006

 79 87  0  0  1  0  0  0  0  0999 V2000
   -1.0177   -2.9227   -0.2063 C   0  0  0  0  0  0  0  0  0  0  0  0
    0.0796    2.0707   -0.1016 N   0  0  0  0  0  0  0  0  0  0  0  0
    2.1473   -0.0001   -0.3164 N   0  0  0  0  0  0  0  0  0  0  0  0
    0.0795   -2.0707   -0.1016 N   0  0  0  0  0  0  0  0  0  0  0  0
    4.3494    0.6849   -0.1718 C   0  0  0  0  0  0  0  0  0  0  0  0
    5.2079    1.3587   -0.0903 H   0  0  0  0  0  0  0  0  0  0  0  0
    5.6014   -5.4833    0.2598 C   0  0  0  0  0  0  0  0  0  0  0  0
    6.3798   -6.2565    0.3453 H   0  0  0  0  0  0  0  0  0  0  0  0
   -5.4765    5.2867    0.7654 C   0  0  0  0  0  0  0  0  0  0  0  0
   -6.2731    5.9687    1.0996 H   0  0  0  0  0  0  0  0  0  0  0  0
    3.6018    3.4961    0.0401 C   0  0  0  0  0  0  0  0  0  0  0  0
    1.1969    2.8768   -0.0199 C   0  0  0  0  0  3  0  0  0  0  0  0
   -3.4282    3.5362   -0.0948 C   0  0  0  0  0  0  0  0  0  0  0  0
    3.6016   -3.4963    0.0401 C   0  0  0  0  0  0  0  0  0  0  0  0
   -4.4980    3.8769   -0.9572 C   0  0  0  0  0  0  0  0  0  0  0  0
   -4.5138    3.4629   -1.9770 H   0  0  0  0  0  0  0  0  0  0  0  0
   -5.4768   -5.2864    0.7652 C   0  0  0  0  0  0  0  0  0  0  0  0
   -6.2735   -5.9684    1.0994 H   0  0  0  0  0  0  0  0  0  0  0  0
   -3.4283   -3.5360   -0.0949 C   0  0  0  0  0  0  0  0  0  0  0  0
   -4.4982   -3.8767   -0.9574 C   0  0  0  0  0  0  0  0  0  0  0  0
   -4.5139   -3.4627   -1.9771 H   0  0  0  0  0  0  0  0  0  0  0  0
   -0.5680    4.2966   -0.0799 C   0  0  0  0  0  0  0  0  0  0  0  0
   -1.2246    5.1695   -0.1577 H   0  0  0  0  0  0  0  0  0  0  0  0
   -3.8955   -0.6911   -0.8323 C   0  0  0  0  0  0  0  0  0  0  0  0
   -4.7046   -1.2347   -0.3246 H   0  0  0  0  0  0  0  0  0  0  0  0
    0.7998    4.2717   -0.0010 C   0  0  0  0  0  0  0  0  0  0  0  0
    1.4910    5.1203    0.0120 H   0  0  0  0  0  0  0  0  0  0  0  0
    4.7393   -5.2275    1.3381 C   0  0  0  0  0  0  0  0  0  0  0  0
    4.8434   -5.7957    2.2750 H   0  0  0  0  0  0  0  0  0  0  0  0
   -5.5094    4.7470   -0.5319 C   0  0  0  0  0  0  0  0  0  0  0  0
   -6.3274    5.0121   -1.2189 H   0  0  0  0  0  0  0  0  0  0  0  0
   -1.0175    2.9228   -0.2063 C   0  0  0  0  0  0  0  0  0  0  0  0
    2.5430    2.4491   -0.0736 C   0  0  1  0  0  3  0  0  0  0  0  0
   -3.4135    4.0782    1.2131 C   0  0  0  0  0  0  0  0  0  0  0  0
   -2.6107    3.7759    1.9017 H   0  0  0  0  0  0  0  0  0  0  0  0
   -2.3657   -2.6124   -0.5400 C   0  0  1  0  0  3  0  0  0  0  0  0
    4.3493   -0.6852   -0.1718 C   0  0  0  0  0  0  0  0  0  0  0  0
    5.2078   -1.3590   -0.0903 H   0  0  0  0  0  0  0  0  0  0  0  0
    5.4650   -4.7480   -0.9285 C   0  0  0  0  0  0  0  0  0  0  0  0
    6.1324   -4.9474   -1.7808 H   0  0  0  0  0  0  0  0  0  0  0  0
    5.6016    5.4830    0.2597 C   0  0  0  0  0  0  0  0  0  0  0  0
    6.3801    6.2562    0.3452 H   0  0  0  0  0  0  0  0  0  0  0  0
    4.4741    3.7614   -1.0378 C   0  0  0  0  0  0  0  0  0  0  0  0
    4.3596    3.1906   -1.9717 H   0  0  0  0  0  0  0  0  0  0  0  0
   -4.4283   -4.9463    1.6360 C   0  0  0  0  0  0  0  0  0  0  0  0
   -4.4085   -5.3505    2.6595 H   0  0  0  0  0  0  0  0  0  0  0  0
    3.7462   -4.2432    1.2294 C   0  0  0  0  0  0  0  0  0  0  0  0
    3.0748   -4.0348    2.0760 H   0  0  0  0  0  0  0  0  0  0  0  0
    4.7395    5.2273    1.3380 C   0  0  0  0  0  0  0  0  0  0  0  0
    4.8437    5.7955    2.2749 H   0  0  0  0  0  0  0  0  0  0  0  0
    2.5429   -2.4492   -0.0735 C   0  0  1  0  0  3  0  0  0  0  0  0
    5.4652    4.7477   -0.9286 C   0  0  0  0  0  0  0  0  0  0  0  0
    6.1326    4.9471   -1.7809 H   0  0  0  0  0  0  0  0  0  0  0  0
    2.9618   -1.1094   -0.2314 C   0  0  0  0  0  3  0  0  0  0  0  0
   -3.8955    0.6913   -0.8323 C   0  0  0  0  0  0  0  0  0  0  0  0
   -4.7045    1.2350   -0.3246 H   0  0  0  0  0  0  0  0  0  0  0  0
    4.4740   -3.7616   -1.0377 C   0  0  0  0  0  0  0  0  0  0  0  0
    4.3595   -3.1909   -1.9716 H   0  0  0  0  0  0  0  0  0  0  0  0
   -2.3656    2.6125   -0.5400 C   0  0  1  0  0  3  0  0  0  0  0  0
   -4.4280    4.9465    1.6361 C   0  0  0  0  0  0  0  0  0  0  0  0
   -4.4081    5.3508    2.6596 H   0  0  0  0  0  0  0  0  0  0  0  0
   -3.4138   -4.0780    1.2131 C   0  0  0  0  0  0  0  0  0  0  0  0
   -2.6110   -3.7757    1.9017 H   0  0  0  0  0  0  0  0  0  0  0  0
    1.1968   -2.8769   -0.0199 C   0  0  0  0  0  0  0  0  0  0  0  0
    2.9619    1.1092   -0.2314 C   0  0  0  0  0  0  0  0  0  0  0  0
   -5.5096   -4.7467   -0.5320 C   0  0  0  0  0  0  0  0  0  0  0  0
   -6.3276   -5.0119   -1.2190 H   0  0  0  0  0  0  0  0  0  0  0  0
   -2.7036   -1.3898   -1.2000 C   0  0  0  0  0  0  0  0  0  0  0  0
    0.7996   -4.2717   -0.0009 C   0  0  0  0  0  0  0  0  0  0  0  0
    1.4907   -5.1204    0.0122 H   0  0  0  0  0  0  0  0  0  0  0  0
   -1.7443   -0.6893   -1.9995 C   0  0  0  0  0  0  0  0  0  0  0  0
   -0.9486   -1.2516   -2.5082 H   0  0  0  0  0  0  0  0  0  0  0  0
   -2.7036    1.3899   -1.1999 C   0  0  0  0  0  0  0  0  0  0  0  0
    3.7464    4.2430    1.2293 C   0  0  0  0  0  0  0  0  0  0  0  0
    3.0750    4.0347    2.0759 H   0  0  0  0  0  0  0  0  0  0  0  0
   -0.5682   -4.2966   -0.0798 C   0  0  0  0  0  3  0  0  0  0  0  0
   -1.2249   -5.1695   -0.1577 H   0  0  0  0  0  0  0  0  0  0  0  0
   -1.7443    0.6894   -1.9994 C   0  0  0  0  0  0  0  0  0  0  0  0
   -0.9485    1.2517   -2.5082 H   0  0  0  0  0  0  0  0  0  0  0  0
  1  4  2  0  0  0  0
  1 76  1  0  0  0  0
  2 12  1  0  0  0  0
  3 65  2  0  0  0  0
  3 54  1  0  0  0  0
  4 64  1  0  0  0  0
  5 37  2  0  0  0  0
  5  6  1  0  0  0  0
  7  8  1  0  0  0  0
  7 28  1  0  0  0  0
  9 10  1  0  0  0  0
  9 60  1  0  0  0  0
 11 74  1  0  0  0  0
 12 26  1  0  0  0  0
 13 34  1  0  0  0  0
 14 47  1  0  0  0  0
 15 30  1  0  0  0  0
 15 13  2  0  0  0  0
 16 15  1  0  0  0  0
 17 18  1  0  0  0  0
 17 45  1  0  0  0  0
 19 62  1  0  0  0  0
 20 66  1  0  0  0  0
 20 19  2  0  0  0  0
 21 20  1  0  0  0  0
 22 26  2  0  0  0  0
 23 22  1  0  0  0  0
 24 55  1  0  0  0  0
 24 25  1  0  0  0  0
 26 27  1  0  0  0  0
 28 29  1  0  0  0  0
 30  9  2  0  0  0  0
 31 30  1  0  0  0  0
 32  2  2  0  0  0  0
 32 22  1  0  0  0  0
 33 12  1  0  0  0  0
 33 11  1  6  0  0  0
 34 60  2  0  0  0  0
 34 35  1  0  0  0  0
 36  1  1  0  0  0  0
 36 19  1  1  0  0  0
 37 38  1  0  0  0  0
 39  7  2  0  0  0  0
 40 39  1  0  0  0  0
 41 42  1  0  0  0  0
 41 49  1  0  0  0  0
 43 52  1  0  0  0  0
 43 11  2  0  0  0  0
 44 43  1  0  0  0  0
 45 46  1  0  0  0  0
 47 28  2  0  0  0  0
 47 48  1  0  0  0  0
 49 50  1  0  0  0  0
 51 64  1  0  0  0  0
 51 14  1  6  0  0  0
 52 41  2  0  0  0  0
 53 52  1  0  0  0  0
 54 37  1  0  0  0  0
 54 51  1  0  0  0  0
 55 56  1  0  0  0  0
 57 39  1  0  0  0  0
 57 14  2  0  0  0  0
 58 57  1  0  0  0  0
 59 32  1  0  0  0  0
 59 13  1  1  0  0  0
 60 61  1  0  0  0  0
 62 45  2  0  0  0  0
 62 63  1  0  0  0  0
 64 69  2  0  0  0  0
 65  5  1  0  0  0  0
 65 33  1  0  0  0  0
 66 17  2  0  0  0  0
 67 66  1  0  0  0  0
 68 24  2  0  0  0  0
 68 36  1  0  0  0  0
 69 70  1  0  0  0  0
 71 78  2  0  0  0  0
 71 68  1  0  0  0  0
 72 71  1  0  0  0  0
 73 55  2  0  0  0  0
 73 59  1  0  0  0  0
 74 49  2  0  0  0  0
 74 75  1  0  0  0  0
 76 69  1  0  0  0  0
 77 76  1  0  0  0  0
 78 73  1  0  0  0  0
 79 78  1  0  0  0  0
M  END
