3,4,5
q = -1.0, confidence = 0.02

 51 55  0  0  1  0  0  0  0  0999 V2000
   -3.2157    1.2104    2.4782 O   0  0  0  0  0  0  0  0  0  0  0  0
    3.2165    1.2092   -2.4779 O   0  0  0  0  0  0  0  0  0  0  0  0
   -1.5492    0.4805    1.1194 N   0  0  0  0  0  2  0  0  0  0  0  0
    0.0004    2.5562   -0.0002 N   0  0  0  0  0  2  0  0  0  0  0  0
    1.5496    0.4799   -1.1193 N   0  0  0  0  0  2  0  0  0  0  0  0
   -2.4554   -0.6749    1.3028 C   0  0  1  0  0  0  0  0  0  0  0  0
   -1.8731   -1.5787    1.5593 H   0  0  0  0  0  0  0  0  0  0  0  0
   -3.3089   -0.2253    2.5056 C   0  0  0  0  0  0  0  0  0  0  0  0
   -4.3739   -0.5144    2.4308 H   0  0  0  0  0  0  0  0  0  0  0  0
   -2.8889   -0.5895    3.4692 H   0  0  0  0  0  0  0  0  0  0  0  0
   -2.1191    1.5139    1.7333 C   0  0  1  0  0  3  0  0  0  0  0  0
   -1.7565    2.8811    1.6591 C   0  0  0  0  0  0  0  0  0  0  0  0
   -2.3322    3.5845    2.2728 H   0  0  0  0  0  0  0  0  0  0  0  0
   -0.7784    3.3470    0.8042 C   0  0  0  0  0  0  0  0  0  0  0  0
   -0.4160    4.8107    0.6442 C   0  0  0  0  0  0  0  0  0  0  0  0
    0.1918    5.1328    1.5178 H   0  0  0  0  0  0  0  0  0  0  0  0
   -1.3091    5.4642    0.6131 H   0  0  0  0  0  0  0  0  0  0  0  0
    0.4170    4.8104   -0.6456 C   0  0  0  0  0  0  0  0  0  0  0  0
   -0.1907    5.1322   -1.5193 H   0  0  0  0  0  0  0  0  0  0  0  0
    1.3102    5.4638   -0.6147 H   0  0  0  0  0  0  0  0  0  0  0  0
    0.7793    3.3466   -0.8050 C   0  0  2  0  0  3  0  0  0  0  0  0
    1.7574    2.8804   -1.6596 C   0  0  0  0  0  0  0  0  0  0  0  0
    2.3333    3.5835   -2.2735 H   0  0  0  0  0  0  0  0  0  0  0  0
    2.1198    1.5130   -1.7334 C   0  0  0  0  0  0  0  0  0  0  0  0
    3.3096   -0.2266   -2.5049 C   0  0  0  0  0  0  0  0  0  0  0  0
    4.3745   -0.5157   -2.4296 H   0  0  0  0  0  0  0  0  0  0  0  0
    2.8899   -0.5910   -3.4685 H   0  0  0  0  0  0  0  0  0  0  0  0
    2.4557   -0.6757   -1.3022 C   0  0  1  0  0  0  0  0  0  0  0  0
    1.8732   -1.5794   -1.5587 H   0  0  0  0  0  0  0  0  0  0  0  0
    3.2736   -0.9709   -0.0531 C   0  0  0  0  0  0  0  0  0  0  0  0
    3.8896   -2.2299    0.0828 C   0  0  0  0  0  0  0  0  0  0  0  0
    3.7346   -2.9952   -0.6946 H   0  0  0  0  0  0  0  0  0  0  0  0
    4.6667   -2.5281    1.2102 C   0  0  0  0  0  0  0  0  0  0  0  0
    5.1333   -3.5205    1.3069 H   0  0  0  0  0  0  0  0  0  0  0  0
    4.8356   -1.5682    2.2221 C   0  0  0  0  0  0  0  0  0  0  0  0
    5.4396   -1.8027    3.1119 H   0  0  0  0  0  0  0  0  0  0  0  0
    4.2226   -0.3124    2.0948 C   0  0  0  0  0  0  0  0  0  0  0  0
    4.3435    0.4429    2.8865 H   0  0  0  0  0  0  0  0  0  0  0  0
    3.4466   -0.0147    0.9633 C   0  0  0  0  0  0  0  0  0  0  0  0
    2.9397    0.9577    0.8774 H   0  0  0  0  0  0  0  0  0  0  0  0
   -3.2738   -0.9702    0.0540 C   0  0  0  0  0  0  0  0  0  0  0  0
   -3.4471   -0.0142   -0.9625 C   0  0  0  0  0  0  0  0  0  0  0  0
   -2.9400    0.9582   -0.8770 H   0  0  0  0  0  0  0  0  0  0  0  0
   -4.2235   -0.3120   -2.0936 C   0  0  0  0  0  0  0  0  0  0  0  0
   -4.3446    0.4432   -2.8854 H   0  0  0  0  0  0  0  0  0  0  0  0
   -4.8367   -1.5677   -2.2205 C   0  0  0  0  0  0  0  0  0  0  0  0
   -5.4411   -1.8023   -3.1100 H   0  0  0  0  0  0  0  0  0  0  0  0
   -4.6676   -2.5275   -1.2085 C   0  0  0  0  0  0  0  0  0  0  0  0
   -5.1343   -3.5199   -1.3049 H   0  0  0  0  0  0  0  0  0  0  0  0
   -3.8900   -2.2291   -0.0815 C   0  0  0  0  0  0  0  0  0  0  0  0
   -3.7348   -2.9944    0.6960 H   0  0  0  0  0  0  0  0  0  0  0  0
  1  8  1  0  0  0  0
  2 24  1  0  0  0  0
  3  6  1  0  0  0  0
  3 11  1  0  0  0  0
  4 14  1  0  0  0  0
  6  7  1  1  0  0  0
  6  8  1  0  0  0  0
  8 10  1  0  0  0  0
  9  8  1  0  0  0  0
 11 12  1  6  0  0  0
 11  1  1  0  0  0  0
 12 13  1  0  0  0  0
 14 12  2  0  0  0  0
 15 14  1  0  0  0  0
 15 16  1  0  0  0  0
 17 15  1  0  0  0  0
 18 20  1  0  0  0  0
 18 15  1  0  0  0  0
 19 18  1  0  0  0  0
 21 22  1  6  0  0  0
 21 18  1  0  0  0  0
 21  4  1  0  0  0  0
 23 22  1  0  0  0  0
 24 22  2  0  0  0  0
 24  5  1  0  0  0  0
 25  2  1  0  0  0  0
 25 26  1  0  0  0  0
 25 28  1  0  0  0  0
 27 25  1  0  0  0  0
 28 29  1  6  0  0  0
 28  5  1  0  0  0  0
 28 30  1  0  0  0  0
 30 31  2  0  0  0  0
 30 39  1  0  0  0  0
 31 33  1  0  0  0  0
 32 31  1  0  0  0  0
 33 34  1  0  0  0  0
 33 35  2  0  0  0  0
 35 36  1  0  0  0  0
 37 35  1  0  0  0  0
 37 38  1  0  0  0  0
 39 37  2  0  0  0  0
 40 39  1  0  0  0  0
 41  6  1  0  0  0  0
 42 43  1  0  0  0  0
 42 41  2  0  0  0  0
 44 42  1  0  0  0  0
 45 44  1  0  0  0  0
 46 44  2  0  0  0  0
 46 48  1  0  0  0  0
 47 46  1  0  0  0  0
 48 50  2  0  0  0  0
 49 48  1  0  0  0  0
 50 41  1  0  0  0  0
 50 51  1  0  0  0  0
M  END
