2,4,36
q = -2.0, confidence = 0.552

 63 65  0  0  1  0  0  0  0  0999 V2000
   -5.5438    1.1887    0.0007 O   0  0  0  0  0  0  0  0  0  0  0  0
    0.0000   -1.3538    0.0000 N   0  0  0  0  0  2  0  0  0  0  0  0
   -3.5693   -1.7659   -0.0002 N   0  0  0  0  0  0  0  0  0  0  0  0
   -2.1580    0.1568    0.0007 N   0  0  0  0  0  2  0  0  0  0  0  0
   -4.6299   -0.9386   -0.0001 N   0  0  0  0  0  0  0  0  0  0  0  0
   -3.2413    0.9688    0.0007 N   0  0  0  0  0  0  0  0  0  0  0  0
   -1.1695   -2.0203    0.0001 C   0  0  2  0  0  3  0  0  0  0  0  0
   -1.2145   -3.4252    0.0001 C   0  0  0  0  0  0  0  0  0  0  0  0
   -2.1882   -3.9321    0.0002 H   0  0  0  0  0  0  0  0  0  0  0  0
    0.0000   -4.1269    0.0000 C   0  0  0  0  0  0  0  0  0  0  0  0
   -0.0000   -5.2269    0.0000 H   0  0  0  0  0  0  0  0  0  0  0  0
   -2.3798   -1.1647    0.0002 C   0  0  0  0  0  0  0  0  0  0  0  0
   -4.5486    0.4804    0.0005 C   0  0  0  0  0  0  0  0  0  0  0  0
   -5.9609   -1.5803   -0.0007 C   0  0  0  0  0  0  0  0  0  0  0  0
   -6.6662   -0.7276   -0.0003 H   0  0  0  0  0  0  0  0  0  0  0  0
   -6.1440   -2.4040    1.2765 C   0  0  0  0  0  0  0  0  0  0  0  0
   -6.0378   -1.7695    2.1783 H   0  0  0  0  0  0  0  0  0  0  0  0
   -5.3927   -3.2169    1.3275 H   0  0  0  0  0  0  0  0  0  0  0  0
   -7.1543   -2.8576    1.2906 H   0  0  0  0  0  0  0  0  0  0  0  0
   -6.1436   -2.4023   -1.2790 C   0  0  0  0  0  0  0  0  0  0  0  0
   -6.0374   -1.7666   -2.1800 H   0  0  0  0  0  0  0  0  0  0  0  0
   -7.1538   -2.8562   -1.2938 H   0  0  0  0  0  0  0  0  0  0  0  0
   -5.3920   -3.2150   -1.3309 H   0  0  0  0  0  0  0  0  0  0  0  0
   -2.9708    2.4344    0.0013 C   0  0  0  0  0  0  0  0  0  0  0  0
   -1.8651    2.4858    0.0011 H   0  0  0  0  0  0  0  0  0  0  0  0
   -3.4713    3.0790    1.2942 C   0  0  0  0  0  0  0  0  0  0  0  0
   -2.9875    2.5959    2.1653 H   0  0  0  0  0  0  0  0  0  0  0  0
   -4.5729    3.0261    1.3834 H   0  0  0  0  0  0  0  0  0  0  0  0
   -3.1667    4.1441    1.2965 H   0  0  0  0  0  0  0  0  0  0  0  0
   -3.4717    3.0801   -1.2910 C   0  0  0  0  0  0  0  0  0  0  0  0
   -2.9881    2.5976   -2.1627 H   0  0  0  0  0  0  0  0  0  0  0  0
   -3.1670    4.1451   -1.2925 H   0  0  0  0  0  0  0  0  0  0  0  0
   -4.5733    3.0273   -1.3800 H   0  0  0  0  0  0  0  0  0  0  0  0
    5.5438    1.1887   -0.0007 O   0  0  0  0  0  0  0  0  0  0  0  0
    3.5693   -1.7659    0.0002 N   0  0  0  0  0  0  0  0  0  0  0  0
    2.1580    0.1568   -0.0007 N   0  0  0  0  0  2  0  0  0  0  0  0
    4.6299   -0.9386    0.0001 N   0  0  0  0  0  0  0  0  0  0  0  0
    3.2413    0.9688   -0.0007 N   0  0  0  0  0  0  0  0  0  0  0  0
    1.1695   -2.0203   -0.0001 C   0  0  0  0  0  0  0  0  0  0  0  0
    1.2145   -3.4252   -0.0001 C   0  0  0  0  0  0  0  0  0  0  0  0
    2.1882   -3.9321   -0.0002 H   0  0  0  0  0  0  0  0  0  0  0  0
    2.3798   -1.1647   -0.0002 C   0  0  0  0  0  0  0  0  0  0  0  0
    4.5486    0.4804   -0.0004 C   0  0  0  0  0  0  0  0  0  0  0  0
    5.9609   -1.5803    0.0007 C   0  0  0  0  0  0  0  0  0  0  0  0
    6.6662   -0.7276    0.0002 H   0  0  0  0  0  0  0  0  0  0  0  0
    6.1440   -2.4040   -1.2765 C   0  0  0  0  0  0  0  0  0  0  0  0
    6.0378   -1.7694   -2.1783 H   0  0  0  0  0  0  0  0  0  0  0  0
    5.3927   -3.2169   -1.3275 H   0  0  0  0  0  0  0  0  0  0  0  0
    7.1543   -2.8576   -1.2906 H   0  0  0  0  0  0  0  0  0  0  0  0
    6.1436   -2.4024    1.2790 C   0  0  0  0  0  0  0  0  0  0  0  0
    6.0374   -1.7667    2.1800 H   0  0  0  0  0  0  0  0  0  0  0  0
    7.1538   -2.8562    1.2938 H   0  0  0  0  0  0  0  0  0  0  0  0
    5.3920   -3.2151    1.3309 H   0  0  0  0  0  0  0  0  0  0  0  0
    2.9708    2.4344   -0.0013 C   0  0  0  0  0  0  0  0  0  0  0  0
    1.8651    2.4858   -0.0012 H   0  0  0  0  0  0  0  0  0  0  0  0
    3.4714    3.0790   -1.2942 C   0  0  0  0  0  0  0  0  0  0  0  0
    2.9876    2.5959   -2.1653 H   0  0  0  0  0  0  0  0  0  0  0  0
    4.5729    3.0261   -1.3833 H   0  0  0  0  0  0  0  0  0  0  0  0
    3.1667    4.1441   -1.2965 H   0  0  0  0  0  0  0  0  0  0  0  0
    3.4716    3.0801    1.2910 C   0  0  0  0  0  0  0  0  0  0  0  0
    2.9880    2.5976    2.1627 H   0  0  0  0  0  0  0  0  0  0  0  0
    3.1669    4.1451    1.2925 H   0  0  0  0  0  0  0  0  0  0  0  0
    4.5732    3.0273    1.3800 H   0  0  0  0  0  0  0  0  0  0  0  0
  2  7  1  0  0  0  0
  3  5  1  0  0  0  0
  3 12  2  0  0  0  0
  5 13  1  0  0  0  0
  6  4  1  0  0  0  0
  6 24  1  0  0  0  0
  7 12  1  6  0  0  0
  8  7  1  0  0  0  0
  8  9  1  0  0  0  0
 10 11  1  0  0  0  0
 10  8  2  0  0  0  0
 12  4  1  0  0  0  0
 13  1  2  0  0  0  0
 13  6  1  0  0  0  0
 14 15  1  0  0  0  0
 14  5  1  0  0  0  0
 14 16  1  0  0  0  0
 16 19  1  0  0  0  0
 16 18  1  0  0  0  0
 16 17  1  0  0  0  0
 20 14  1  0  0  0  0
 21 20  1  0  0  0  0
 22 20  1  0  0  0  0
 23 20  1  0  0  0  0
 24 26  1  0  0  0  0
 25 24  1  0  0  0  0
 26 29  1  0  0  0  0
 26 28  1  0  0  0  0
 26 27  1  0  0  0  0
 30 24  1  0  0  0  0
 31 30  1  0  0  0  0
 32 30  1  0  0  0  0
 33 30  1  0  0  0  0
 34 43  2  0  0  0  0
 36 38  1  0  0  0  0
 36 42  1  0  0  0  0
 37 35  1  0  0  0  0
 37 44  1  0  0  0  0
 38 43  1  0  0  0  0
 39 40  2  0  0  0  0
 39  2  1  0  0  0  0
 40 10  1  0  0  0  0
 41 40  1  0  0  0  0
 42 39  1  0  0  0  0
 42 35  2  0  0  0  0
 43 37  1  0  0  0  0
 44 50  1  0  0  0  0
 45 44  1  0  0  0  0
 46 44  1  0  0  0  0
 47 46  1  0  0  0  0
 48 46  1  0  0  0  0
 49 46  1  0  0  0  0
 50 52  1  0  0  0  0
 50 53  1  0  0  0  0
 50 51  1  0  0  0  0
 54 55  1  0  0  0  0
 54 38  1  0  0  0  0
 54 60  1  0  0  0  0
 56 54  1  0  0  0  0
 57 56  1  0  0  0  0
 58 56  1  0  0  0  0
 59 56  1  0  0  0  0
 60 62  1  0  0  0  0
 60 63  1  0  0  0  0
 60 61  1  0  0  0  0
M  END
