1,2,4
q = -1.0

 51 50  0  0  0  0  0  0  0  0999 V2000
    0.5560   -1.3050    1.6769 N   0  0  0  0  0  2  0  0  0  0  0  0
    1.5535   -2.0588   -0.8940 N   0  0  0  0  0  0  0  0  0  0  0  0
    3.2995    0.2996   -0.2236 N   0  0  0  0  0  0  0  0  0  0  0  0
    0.2293   -0.0678   -2.6809 N   0  0  0  0  0  0  0  0  0  0  0  0
    0.2869    0.5533    3.2189 C   0  0  0  0  0  0  0  0  0  0  0  0
    1.3872   -1.5447    4.0317 C   0  0  0  0  0  0  0  0  0  0  0  0
   -1.0823   -1.5073    3.5566 C   0  0  0  0  0  0  0  0  0  0  0  0
    0.2972   -0.9805    3.0895 C   0  0  0  0  0  0  0  0  0  0  0  0
    0.7115   -2.7078    1.3901 C   0  0  0  0  0  0  0  0  0  0  0  0
    0.6804   -2.9740   -0.1165 C   0  0  0  0  0  0  0  0  0  0  0  0
    2.9651   -2.1673   -0.4860 C   0  0  0  0  0  0  0  0  0  0  0  0
    3.7913   -0.9358   -0.8428 C   0  0  0  0  0  0  0  0  0  0  0  0
    3.5636    0.3119    1.2201 C   0  0  0  0  0  0  0  0  0  0  0  0
    3.9234    1.4709   -0.8419 C   0  0  0  0  0  0  0  0  0  0  0  0
    1.3797   -2.2697   -2.3434 C   0  0  0  0  0  0  0  0  0  0  0  0
    0.1791   -1.5232   -2.9198 C   0  0  0  0  0  0  0  0  0  0  0  0
    1.3716    0.5728   -3.3417 C   0  0  0  0  0  0  0  0  0  0  0  0
   -1.0108    0.5629   -3.1660 C   0  0  0  0  0  0  0  0  0  0  0  0
    1.2748    0.9871    2.9669 H   0  0  0  0  0  0  0  0  0  0  0  0
   -0.4707    1.0115    2.5486 H   0  0  0  0  0  0  0  0  0  0  0  0
    0.0298    0.8706    4.2493 H   0  0  0  0  0  0  0  0  0  0  0  0
    2.3949   -1.1940    3.7264 H   0  0  0  0  0  0  0  0  0  0  0  0
    1.3979   -2.6535    4.0306 H   0  0  0  0  0  0  0  0  0  0  0  0
    1.2174   -1.2193    5.0785 H   0  0  0  0  0  0  0  0  0  0  0  0
   -1.8918   -1.0669    2.9411 H   0  0  0  0  0  0  0  0  0  0  0  0
   -1.1492   -2.6107    3.4682 H   0  0  0  0  0  0  0  0  0  0  0  0
   -1.2737   -1.2516    4.6192 H   0  0  0  0  0  0  0  0  0  0  0  0
    1.6532   -3.1563    1.8163 H   0  0  0  0  0  0  0  0  0  0  0  0
   -0.1038   -3.3503    1.8131 H   0  0  0  0  0  0  0  0  0  0  0  0
    0.9499   -4.0386   -0.3290 H   0  0  0  0  0  0  0  0  0  0  0  0
   -0.3566   -2.8175   -0.4790 H   0  0  0  0  0  0  0  0  0  0  0  0
    2.9862   -2.3193    0.6085 H   0  0  0  0  0  0  0  0  0  0  0  0
    3.4437   -3.0705   -0.9374 H   0  0  0  0  0  0  0  0  0  0  0  0
    3.7962   -0.7868   -1.9435 H   0  0  0  0  0  0  0  0  0  0  0  0
    4.8590   -1.1348   -0.5635 H   0  0  0  0  0  0  0  0  0  0  0  0
    2.9881   -0.4912    1.7186 H   0  0  0  0  0  0  0  0  0  0  0  0
    3.2170    1.2740    1.6428 H   0  0  0  0  0  0  0  0  0  0  0  0
    4.6551    0.2014    1.4430 H   0  0  0  0  0  0  0  0  0  0  0  0
    5.0331    1.4810   -0.6975 H   0  0  0  0  0  0  0  0  0  0  0  0
    3.5001    2.3925   -0.3999 H   0  0  0  0  0  0  0  0  0  0  0  0
    3.7193    1.4897   -1.9298 H   0  0  0  0  0  0  0  0  0  0  0  0
    2.3025   -1.9412   -2.8603 H   0  0  0  0  0  0  0  0  0  0  0  0
    1.2711   -3.3568   -2.5756 H   0  0  0  0  0  0  0  0  0  0  0  0
   -0.7607   -1.8898   -2.4573 H   0  0  0  0  0  0  0  0  0  0  0  0
    0.1074   -1.7456   -4.0142 H   0  0  0  0  0  0  0  0  0  0  0  0
    1.3627    1.6561   -3.1151 H   0  0  0  0  0  0  0  0  0  0  0  0
    2.3278    0.1590   -2.9775 H   0  0  0  0  0  0  0  0  0  0  0  0
    1.3314    0.4422   -4.4508 H   0  0  0  0  0  0  0  0  0  0  0  0
   -1.8811    0.0837   -2.6897 H   0  0  0  0  0  0  0  0  0  0  0  0
   -1.0142    1.6351   -2.8942 H   0  0  0  0  0  0  0  0  0  0  0  0
   -1.0954    0.4723   -4.2759 H   0  0  0  0  0  0  0  0  0  0  0  0
  1  8  1  0  0  0  0
  2 11  1  0  0  0  0
  2 10  1  0  0  0  0
  3 13  1  0  0  0  0
  5 21  1  0  0  0  0
  6 24  1  0  0  0  0
  7 27  1  0  0  0  0
  8  5  1  0  0  0  0
  8  7  1  0  0  0  0
  8  6  1  0  0  0  0
  9  1  1  0  0  0  0
  9 29  1  0  0  0  0
  9 28  1  0  0  0  0
 10  9  1  0  0  0  0
 11 32  1  0  0  0  0
 12 35  1  0  0  0  0
 12 11  1  0  0  0  0
 12  3  1  0  0  0  0
 13 38  1  0  0  0  0
 13 37  1  0  0  0  0
 13 36  1  0  0  0  0
 14 39  1  0  0  0  0
 14 40  1  0  0  0  0
 14  3  1  0  0  0  0
 15  2  1  0  0  0  0
 16  4  1  0  0  0  0
 16 44  1  0  0  0  0
 16 15  1  0  0  0  0
 17 46  1  0  0  0  0
 17 47  1  0  0  0  0
 17  4  1  0  0  0  0
 18 50  1  0  0  0  0
 18 49  1  0  0  0  0
 18  4  1  0  0  0  0
 19  5  1  0  0  0  0
 20  5  1  0  0  0  0
 22  6  1  0  0  0  0
 23  6  1  0  0  0  0
 25  7  1  0  0  0  0
 26  7  1  0  0  0  0
 30 10  1  0  0  0  0
 31 10  1  0  0  0  0
 33 11  1  0  0  0  0
 34 12  1  0  0  0  0
 41 14  1  0  0  0  0
 42 15  1  0  0  0  0
 43 15  1  0  0  0  0
 45 16  1  0  0  0  0
 48 17  1  0  0  0  0
 51 18  1  0  0  0  0
M  END
