1,4,7
q = -2.0, confidence = 0.934

 47 49  0  0  1  0  0  0  0  0999 V2000
    0.0001    2.6334   -0.0000 N   0  0  0  0  0  2  0  0  0  0  0  0
   -3.1740    0.2763   -0.0002 N   0  0  0  0  0  0  0  0  0  0  0  0
   -4.0755    0.7934   -0.0002 H   0  0  0  0  0  0  0  0  0  0  0  0
   -2.0660    1.0650   -0.0001 N   0  0  0  0  0  2  0  0  0  0  0  0
    3.1741    0.2764    0.0000 N   0  0  0  0  0  0  0  0  0  0  0  0
    4.0756    0.7933   -0.0002 H   0  0  0  0  0  0  0  0  0  0  0  0
    2.0662    1.0652   -0.0001 N   0  0  0  0  0  2  0  0  0  0  0  0
   -2.0341   -1.7140    0.0003 O   0  0  0  0  0  0  0  0  0  0  0  0
   -3.5522    2.8571   -0.0002 O   0  0  0  0  0  0  0  0  0  0  0  0
    2.0339   -1.7138    0.0003 O   0  0  0  0  0  0  0  0  0  0  0  0
    3.5524    2.8572    0.0000 O   0  0  0  0  0  0  0  0  0  0  0  0
   -5.8385    0.1248    0.0006 O   0  0  0  0  0  0  0  0  0  0  0  0
   -6.7785    0.3833    0.0010 H   0  0  0  0  0  0  0  0  0  0  0  0
    5.8385    0.1246   -0.0016 O   0  0  0  0  0  0  0  0  0  0  0  0
    6.7785    0.3830   -0.0023 H   0  0  0  0  0  0  0  0  0  0  0  0
    2.3978    2.3909    0.0004 C   0  0  0  0  0  0  0  0  0  0  0  0
    1.1770    3.2741    0.0003 C   0  0  2  0  0  3  0  0  0  0  0  0
    1.2207    4.6782    0.0006 C   0  0  0  0  0  0  0  0  0  0  0  0
    2.1979    5.1802    0.0010 H   0  0  0  0  0  0  0  0  0  0  0  0
   -0.0000    5.3755    0.0004 C   0  0  0  0  0  0  0  0  0  0  0  0
   -0.0001    6.4764    0.0006 H   0  0  0  0  0  0  0  0  0  0  0  0
   -1.2207    4.6781    0.0000 C   0  0  0  0  0  0  0  0  0  0  0  0
   -2.1980    5.1800   -0.0002 H   0  0  0  0  0  0  0  0  0  0  0  0
   -1.1769    3.2740   -0.0002 C   0  0  0  0  0  0  0  0  0  0  0  0
   -2.3976    2.3907   -0.0004 C   0  0  0  0  0  0  0  0  0  0  0  0
    3.1323   -1.0694    0.0001 C   0  0  0  0  0  0  0  0  0  0  0  0
    4.4255   -1.8142    0.0003 C   0  0  0  0  0  0  0  0  0  0  0  0
    4.3351   -3.2242    0.0013 C   0  0  0  0  0  0  0  0  0  0  0  0
    3.3209   -3.6481    0.0019 H   0  0  0  0  0  0  0  0  0  0  0  0
    5.4696   -4.0404    0.0013 C   0  0  0  0  0  0  0  0  0  0  0  0
    5.3629   -5.1348    0.0022 H   0  0  0  0  0  0  0  0  0  0  0  0
    6.7440   -3.4503    0.0003 C   0  0  0  0  0  0  0  0  0  0  0  0
    7.6503   -4.0744    0.0002 H   0  0  0  0  0  0  0  0  0  0  0  0
    6.8673   -2.0555   -0.0008 C   0  0  0  0  0  0  0  0  0  0  0  0
    7.8637   -1.5833   -0.0016 H   0  0  0  0  0  0  0  0  0  0  0  0
    5.7251   -1.2346   -0.0007 C   0  0  0  0  0  0  0  0  0  0  0  0
   -3.1324   -1.0695    0.0001 C   0  0  0  0  0  0  0  0  0  0  0  0
   -4.4257   -1.8141   -0.0001 C   0  0  0  0  0  0  0  0  0  0  0  0
   -4.3354   -3.2241   -0.0006 C   0  0  0  0  0  0  0  0  0  0  0  0
   -3.3212   -3.6481   -0.0007 H   0  0  0  0  0  0  0  0  0  0  0  0
   -5.4700   -4.0402   -0.0007 C   0  0  0  0  0  0  0  0  0  0  0  0
   -5.3634   -5.1346   -0.0011 H   0  0  0  0  0  0  0  0  0  0  0  0
   -6.7444   -3.4500   -0.0003 C   0  0  0  0  0  0  0  0  0  0  0  0
   -7.6507   -4.0740   -0.0003 H   0  0  0  0  0  0  0  0  0  0  0  0
   -6.8675   -2.0552    0.0002 C   0  0  0  0  0  0  0  0  0  0  0  0
   -7.8638   -1.5829    0.0005 H   0  0  0  0  0  0  0  0  0  0  0  0
   -5.7252   -1.2344    0.0002 C   0  0  0  0  0  0  0  0  0  0  0  0
  1 17  1  0  0  0  0
  2  4  1  0  0  0  0
  2 37  1  0  0  0  0
  3  2  1  0  0  0  0
  5 26  1  0  0  0  0
  6  5  1  0  0  0  0
  7  5  1  0  0  0  0
  7 16  1  0  0  0  0
 11 16  2  0  0  0  0
 12 13  1  0  0  0  0
 14 36  1  0  0  0  0
 15 14  1  0  0  0  0
 17 16  1  1  0  0  0
 17 18  1  0  0  0  0
 18 19  1  0  0  0  0
 20 21  1  0  0  0  0
 20 18  2  0  0  0  0
 22 20  1  0  0  0  0
 23 22  1  0  0  0  0
 24  1  1  0  0  0  0
 24 22  2  0  0  0  0
 25  9  2  0  0  0  0
 25 24  1  0  0  0  0
 25  4  1  0  0  0  0
 26 27  1  0  0  0  0
 26 10  2  0  0  0  0
 27 28  1  0  0  0  0
 28 30  2  0  0  0  0
 28 29  1  0  0  0  0
 30 31  1  0  0  0  0
 32 30  1  0  0  0  0
 33 32  1  0  0  0  0
 34 36  1  0  0  0  0
 34 32  2  0  0  0  0
 35 34  1  0  0  0  0
 36 27  2  0  0  0  0
 37  8  2  0  0  0  0
 38 37  1  0  0  0  0
 38 47  1  0  0  0  0
 39 38  2  0  0  0  0
 40 39  1  0  0  0  0
 41 39  1  0  0  0  0
 41 43  2  0  0  0  0
 42 41  1  0  0  0  0
 43 45  1  0  0  0  0
 44 43  1  0  0  0  0
 45 47  2  0  0  0  0
 45 46  1  0  0  0  0
 47 12  1  0  0  0  0
M  END
