1,3,5
q = 0.0, confidence = 0.994

 31 33  0  0  1  0  0  0  0  0999 V2000
    1.9126   -0.2029    0.1137 N   0  0  0  0  0  2  0  0  0  0  0  0
    2.4906    0.8850    0.6661 N   0  0  0  0  0  0  0  0  0  0  0  0
   -0.2966    1.3678   -0.0079 N   0  0  0  0  0  2  0  0  0  0  0  0
   -2.6892   -0.2116   -0.2703 N   0  0  0  0  0  0  0  0  0  0  0  0
   -1.7819   -0.8353    0.5164 N   0  0  0  0  0  2  0  0  0  0  0  0
    2.8830   -0.8905   -0.5208 C   0  0  0  0  0  3  0  0  0  0  0  0
    2.6467   -1.8331   -1.0316 H   0  0  0  0  0  0  0  0  0  0  0  0
    4.1109   -0.2124   -0.3714 C   0  0  0  0  0  0  0  0  0  0  0  0
    5.0867   -0.5135   -0.7648 H   0  0  0  0  0  0  0  0  0  0  0  0
    3.8247    0.9197    0.3912 C   0  0  0  0  0  0  0  0  0  0  0  0
    4.4608    1.7293    0.7653 H   0  0  0  0  0  0  0  0  0  0  0  0
    1.6480    1.8030    1.4099 C   0  0  0  0  0  0  0  0  0  0  0  0
    2.2760    2.6396    1.7634 H   0  0  0  0  0  0  0  0  0  0  0  0
    1.2386    1.2740    2.2992 H   0  0  0  0  0  0  0  0  0  0  0  0
    0.5150    2.3097    0.5472 C   0  0  2  0  0  3  0  0  0  0  0  0
    0.3016    3.6771    0.3379 C   0  0  0  0  0  0  0  0  0  0  0  0
    0.9805    4.4083    0.7992 H   0  0  0  0  0  0  0  0  0  0  0  0
   -0.7789    4.0925   -0.4512 C   0  0  0  0  0  0  0  0  0  0  0  0
   -0.9666    5.1615   -0.6277 H   0  0  0  0  0  0  0  0  0  0  0  0
   -1.6191    3.1181   -1.0022 C   0  0  0  0  0  0  0  0  0  0  0  0
   -2.4849    3.3995   -1.6184 H   0  0  0  0  0  0  0  0  0  0  0  0
   -1.3562    1.7620   -0.7654 C   0  0  0  0  0  0  0  0  0  0  0  0
   -2.2239    0.6664   -1.3323 C   0  0  0  0  0  0  0  0  0  0  0  0
   -3.1084    1.0877   -1.8401 H   0  0  0  0  0  0  0  0  0  0  0  0
   -1.6224    0.0577   -2.0485 H   0  0  0  0  0  0  0  0  0  0  0  0
   -3.9566   -0.5560    0.0846 C   0  0  0  0  0  3  0  0  0  0  0  0
   -4.8226   -0.1557   -0.4538 H   0  0  0  0  0  0  0  0  0  0  0  0
   -3.8570   -1.4482    1.1524 C   0  0  0  0  0  0  0  0  0  0  0  0
   -4.6787   -1.9316    1.6895 H   0  0  0  0  0  0  0  0  0  0  0  0
   -2.4769   -1.5929    1.3907 C   0  0  0  0  0  0  0  0  0  0  0  0
   -1.9375   -2.2050    2.1206 H   0  0  0  0  0  0  0  0  0  0  0  0
  1  2  1  0  0  0  0
  2 12  1  0  0  0  0
  3 15  1  0  0  0  0
  4 26  1  0  0  0  0
  4  5  1  0  0  0  0
  5 30  1  0  0  0  0
  6  8  1  0  0  0  0
  6  1  1  0  0  0  0
  7  6  1  0  0  0  0
  8 10  2  0  0  0  0
  9  8  1  0  0  0  0
 10  2  1  0  0  0  0
 10 11  1  0  0  0  0
 12 13  1  0  0  0  0
 12 14  1  0  0  0  0
 15 12  1  1  0  0  0
 16 15  1  0  0  0  0
 16 17  1  0  0  0  0
 18 16  2  0  0  0  0
 19 18  1  0  0  0  0
 20 22  2  0  0  0  0
 20 18  1  0  0  0  0
 21 20  1  0  0  0  0
 22  3  1  0  0  0  0
 23 22  1  0  0  0  0
 23  4  1  0  0  0  0
 24 23  1  0  0  0  0
 25 23  1  0  0  0  0
 26 28  1  0  0  0  0
 27 26  1  0  0  0  0
 28 30  2  0  0  0  0
 28 29  1  0  0  0  0
 30 31  1  0  0  0  0
M  END
