1,3,6
q = -1.0

 24 26  0  0  0  0  0  0  0  0999 V2000
    0.4698    0.7404   -1.8626 N   0  0  0  0  0  2  0  0  0  0  0  0
   -0.1737   -0.0668   -2.6720 N   0  0  0  0  0  0  0  0  0  0  0  0
   -1.2429   -0.5551   -0.5935 N   0  0  0  0  0  2  0  0  0  0  0  0
   -1.9951   -1.6424   -2.3919 N   0  0  0  0  0  0  0  0  0  0  0  0
   -2.0784   -1.9196   -3.3691 H   0  0  0  0  0  0  0  0  0  0  0  0
    1.4051    2.0468    0.0202 N   0  0  0  0  0  2  0  0  0  0  0  0
    1.4262    1.4906   -2.3146 N   0  0  0  0  0  0  0  0  0  0  0  0
    2.9473    3.5570   -0.0164 N   0  0  0  0  0  0  0  0  0  0  0  0
    3.6098    4.2890    0.2451 H   0  0  0  0  0  0  0  0  0  0  0  0
    2.8759    3.1495   -1.3080 N   0  0  0  0  0  2  0  0  0  0  0  0
   -2.7621   -2.0818   -1.3161 C   0  0  0  0  0  0  0  0  0  0  0  0
    1.9175    2.2227   -1.2656 C   0  0  0  0  0  0  0  0  0  0  0  0
   -2.2706   -1.3765   -0.1711 C   0  0  0  0  0  0  0  0  0  0  0  0
   -1.0951   -0.7243   -1.9262 C   0  0  0  0  0  0  0  0  0  0  0  0
   -3.8126   -3.0021   -1.2220 C   0  0  0  0  0  0  0  0  0  0  0  0
   -4.1866   -3.5399   -2.1051 H   0  0  0  0  0  0  0  0  0  0  0  0
    2.0696    2.9066    0.7834 C   0  0  0  0  0  3  0  0  0  0  0  0
    1.9383    3.0728    1.8581 H   0  0  0  0  0  0  0  0  0  0  0  0
   -3.8906   -2.5126    1.1845 C   0  0  0  0  0  0  0  0  0  0  0  0
   -4.3581   -2.6978    2.1628 H   0  0  0  0  0  0  0  0  0  0  0  0
   -2.8390   -1.5908    1.0965 C   0  0  0  0  0  0  0  0  0  0  0  0
   -2.4701   -1.0482    1.9773 H   0  0  0  0  0  0  0  0  0  0  0  0
   -4.3697   -3.2063    0.0498 C   0  0  0  0  0  0  0  0  0  0  0  0
   -5.1988   -3.9201    0.1632 H   0  0  0  0  0  0  0  0  0  0  0  0
  2 14  2  0  0  0  0
  2  1  1  0  0  0  0
  3 13  1  0  0  0  0
  4 14  1  0  0  0  0
  4 11  1  0  0  0  0
  5  4  1  0  0  0  0
  6 17  1  0  0  0  0
  7  1  1  0  0  0  0
  7 12  2  0  0  0  0
  8  9  1  0  0  0  0
  8 17  1  0  0  0  0
 10 12  1  0  0  0  0
 10  8  1  0  0  0  0
 11 15  2  0  0  0  0
 11 13  1  0  0  0  0
 12  6  1  0  0  0  0
 13 21  2  0  0  0  0
 14  3  1  0  0  0  0
 15 23  1  0  0  0  0
 16 15  1  0  0  0  0
 17 18  1  0  0  0  0
 19 20  1  0  0  0  0
 21 19  1  0  0  0  0
 21 22  1  0  0  0  0
 23 24  1  0  0  0  0
 23 19  2  0  0  0  0
M  END
