5,7,9
q = 0.0, confidence = 0.992

 49 52  0  0  1  0  0  0  0  0999 V2000
   -4.2735   -0.0999    0.2960 N   0  0  0  0  0  0  0  0  0  0  0  0
   -5.1078   -0.6202    0.5677 H   0  0  0  0  0  0  0  0  0  0  0  0
    4.1328    0.5776    0.1895 N   0  0  0  0  0  0  0  0  0  0  0  0
    5.0809    0.2012    0.1663 H   0  0  0  0  0  0  0  0  0  0  0  0
   -1.4223   -2.3565    0.0051 N   0  0  0  0  0  2  0  0  0  0  0  0
    1.8482   -2.1569    0.7874 N   0  0  0  0  0  0  0  0  0  0  0  0
    1.9051    0.6362    0.3120 N   0  0  0  0  0  2  0  0  0  0  0  0
   -3.0204   -0.6293    0.1052 C   0  0  0  0  0  0  0  0  0  0  0  0
   -2.1575    0.3263   -0.2577 N   0  0  0  0  0  2  0  0  0  0  0  0
   -4.2180    1.2596    0.0398 C   0  0  0  0  0  0  0  0  0  0  0  0
    2.3687    1.9377    0.2770 C   0  0  0  0  0  0  0  0  0  0  0  0
    3.7945    1.9206    0.2042 C   0  0  0  0  0  0  0  0  0  0  0  0
    0.4928   -3.9626   -0.2948 C   0  0  0  0  0  0  0  0  0  0  0  0
    0.6052   -5.0511   -0.4752 H   0  0  0  0  0  0  0  0  0  0  0  0
    0.7051   -3.4526   -1.2594 H   0  0  0  0  0  0  0  0  0  0  0  0
    4.5582    3.0983    0.1621 C   0  0  0  0  0  0  0  0  0  0  0  0
    5.6559    3.0810    0.1074 H   0  0  0  0  0  0  0  0  0  0  0  0
   -0.9688   -3.7339    0.1003 C   0  0  0  0  0  0  0  0  0  0  0  0
   -1.6092   -4.3686   -0.5555 H   0  0  0  0  0  0  0  0  0  0  0  0
   -1.1482   -4.1088    1.1368 H   0  0  0  0  0  0  0  0  0  0  0  0
   -5.1864    2.2765    0.0742 C   0  0  0  0  0  0  0  0  0  0  0  0
   -6.2321    2.0783    0.3488 H   0  0  0  0  0  0  0  0  0  0  0  0
   -3.4045    3.8245   -0.6327 C   0  0  0  0  0  0  0  0  0  0  0  0
   -3.1195    4.8514   -0.9039 H   0  0  0  0  0  0  0  0  0  0  0  0
    2.4301    4.3345    0.2648 C   0  0  0  0  0  0  0  0  0  0  0  0
    1.9217    5.3093    0.2917 H   0  0  0  0  0  0  0  0  0  0  0  0
   -2.4423    2.8138   -0.6664 C   0  0  0  0  0  0  0  0  0  0  0  0
   -1.4045    3.0113   -0.9712 H   0  0  0  0  0  0  0  0  0  0  0  0
    1.6725    3.1623    0.3089 C   0  0  0  0  0  0  0  0  0  0  0  0
    0.5756    3.1833    0.3803 H   0  0  0  0  0  0  0  0  0  0  0  0
    2.9122   -1.6400    0.2560 C   0  0  0  0  0  0  0  0  0  0  0  0
    3.8475    4.3024    0.1908 C   0  0  0  0  0  0  0  0  0  0  0  0
    4.4019    5.2516    0.1566 H   0  0  0  0  0  0  0  0  0  0  0  0
   -2.8578    1.5129   -0.3169 C   0  0  0  0  0  0  0  0  0  0  0  0
    1.5709   -3.5824    0.7467 C   0  0  0  0  0  0  0  0  0  0  0  0
    1.2162   -3.8796    1.7579 H   0  0  0  0  0  0  0  0  0  0  0  0
    2.4813   -4.1824    0.5359 H   0  0  0  0  0  0  0  0  0  0  0  0
    2.9775   -0.1602    0.2673 C   0  0  1  0  0  3  0  0  0  0  0  0
    4.0074   -2.3683   -0.4718 C   0  0  0  0  0  0  0  0  0  0  0  0
    4.1069   -3.4227   -0.1601 H   0  0  0  0  0  0  0  0  0  0  0  0
    4.9952   -1.8826   -0.3584 H   0  0  0  0  0  0  0  0  0  0  0  0
    3.7453   -2.3440   -1.5526 H   0  0  0  0  0  0  0  0  0  0  0  0
   -2.6579   -2.0513    0.2494 C   0  0  0  0  0  0  0  0  0  0  0  0
   -4.7512    3.5608   -0.2659 C   0  0  0  0  0  0  0  0  0  0  0  0
   -5.4734    4.3901   -0.2558 H   0  0  0  0  0  0  0  0  0  0  0  0
   -3.6987   -3.0580    0.6563 C   0  0  0  0  0  0  0  0  0  0  0  0
   -3.3962   -3.5559    1.6011 H   0  0  0  0  0  0  0  0  0  0  0  0
   -3.7822   -3.8569   -0.1095 H   0  0  0  0  0  0  0  0  0  0  0  0
   -4.7061   -2.6320    0.8079 H   0  0  0  0  0  0  0  0  0  0  0  0
  1  2  1  0  0  0  0
  3 12  1  0  0  0  0
  3 38  1  0  0  0  0
  4  3  1  0  0  0  0
  5 18  1  0  0  0  0
  5 43  1  0  0  0  0
  8 43  2  0  0  0  0
  8  1  1  0  0  0  0
  9  8  1  0  0  0  0
 10 21  1  0  0  0  0
 10  1  1  0  0  0  0
 11 29  1  0  0  0  0
 11  7  1  0  0  0  0
 12 11  2  0  0  0  0
 13 18  1  0  0  0  0
 13 35  1  0  0  0  0
 14 13  1  0  0  0  0
 15 13  1  0  0  0  0
 16 32  2  0  0  0  0
 16 12  1  0  0  0  0
 17 16  1  0  0  0  0
 18 20  1  0  0  0  0
 19 18  1  0  0  0  0
 21 22  1  0  0  0  0
 23 44  1  0  0  0  0
 24 23  1  0  0  0  0
 25 26  1  0  0  0  0
 25 29  2  0  0  0  0
 27 23  2  0  0  0  0
 27 34  1  0  0  0  0
 28 27  1  0  0  0  0
 29 30  1  0  0  0  0
 31  6  2  0  0  0  0
 32 25  1  0  0  0  0
 33 32  1  0  0  0  0
 34  9  1  0  0  0  0
 34 10  2  0  0  0  0
 35  6  1  0  0  0  0
 35 36  1  0  0  0  0
 37 35  1  0  0  0  0
 38 31  1  6  0  0  0
 38  7  1  0  0  0  0
 39 41  1  0  0  0  0
 39 40  1  0  0  0  0
 39 31  1  0  0  0  0
 42 39  1  0  0  0  0
 43 46  1  0  0  0  0
 44 45  1  0  0  0  0
 44 21  2  0  0  0  0
 46 49  1  0  0  0  0
 46 47  1  0  0  0  0
 48 46  1  0  0  0  0
M  END
