2,3,5
q = -1.0

 38 40  0  0  0  0  0  0  0  0999 V2000
   -4.0059   -0.9787    0.4268 S   0  0  0  0  0  0  0  0  0  0  0  0
   -1.4964   -0.5406   -1.0443 N   0  0  0  0  0  2  0  0  0  0  0  0
    0.3569   -2.1377   -0.3979 N   0  0  0  0  0  2  0  0  0  0  0  0
    1.3608   -2.9150    0.0148 N   0  0  0  0  0  0  0  0  0  0  0  0
    1.5710   -1.0499    1.4198 N   0  0  0  0  0  2  0  0  0  0  0  0
   -2.4778    0.4585   -1.3054 C   0  0  0  0  0  0  0  0  0  0  0  0
   -2.1852    1.5238   -2.1752 C   0  0  0  0  0  0  0  0  0  0  0  0
   -1.2063    1.5316   -2.6761 H   0  0  0  0  0  0  0  0  0  0  0  0
   -3.1071    2.5617   -2.3715 C   0  0  0  0  0  0  0  0  0  0  0  0
   -2.8564    3.3980   -3.0401 H   0  0  0  0  0  0  0  0  0  0  0  0
   -4.3347    2.5306   -1.6943 C   0  0  0  0  0  0  0  0  0  0  0  0
   -5.0635    3.3440   -1.8308 H   0  0  0  0  0  0  0  0  0  0  0  0
   -4.6472    1.4682   -0.8322 C   0  0  0  0  0  0  0  0  0  0  0  0
   -5.6151    1.4656   -0.3131 H   0  0  0  0  0  0  0  0  0  0  0  0
   -3.7288    0.4187   -0.6287 C   0  0  0  0  0  0  0  0  0  0  0  0
   -1.5010   -1.7331   -1.7769 C   0  0  0  0  0  0  0  0  0  0  0  0
   -2.4050   -2.0797   -2.7960 C   0  0  0  0  0  0  0  0  0  0  0  0
   -3.2055   -1.3797   -3.0739 H   0  0  0  0  0  0  0  0  0  0  0  0
   -2.2690   -3.3233   -3.4398 C   0  0  0  0  0  0  0  0  0  0  0  0
   -2.9797   -3.5956   -4.2350 H   0  0  0  0  0  0  0  0  0  0  0  0
   -1.2444   -4.2176   -3.0838 C   0  0  0  0  0  0  0  0  0  0  0  0
   -1.1525   -5.1840   -3.6013 H   0  0  0  0  0  0  0  0  0  0  0  0
   -0.3328   -3.8793   -2.0675 C   0  0  0  0  0  0  0  0  0  0  0  0
    0.4833   -4.5476   -1.7616 H   0  0  0  0  0  0  0  0  0  0  0  0
   -0.4669   -2.6435   -1.4242 C   0  0  0  0  0  0  0  0  0  0  0  0
    2.0228   -2.3074    1.0105 C   0  0  0  0  0  0  0  0  0  0  0  0
    3.1347   -2.9211    1.6599 C   0  0  0  0  0  0  0  0  0  0  0  0
    3.4562   -3.9045    1.2922 H   0  0  0  0  0  0  0  0  0  0  0  0
    3.7484   -2.2776    2.7178 C   0  0  0  0  0  0  0  0  0  0  0  0
    4.6035   -2.7417    3.2315 H   0  0  0  0  0  0  0  0  0  0  0  0
    3.2549   -1.0125    3.1469 C   0  0  0  0  0  0  0  0  0  0  0  0
    3.7108   -0.4794    3.9926 H   0  0  0  0  0  0  0  0  0  0  0  0
    2.1847   -0.4397    2.4798 C   0  0  0  0  0  0  0  0  0  0  0  0
    1.7761    0.5396    2.7649 H   0  0  0  0  0  0  0  0  0  0  0  0
   -5.5463   -0.5344    1.2716 C   0  0  0  0  0  0  0  0  0  0  0  0
   -5.7237   -1.3475    2.0008 H   0  0  0  0  0  0  0  0  0  0  0  0
   -6.4090   -0.4812    0.5778 H   0  0  0  0  0  0  0  0  0  0  0  0
   -5.4361    0.4201    1.8237 H   0  0  0  0  0  0  0  0  0  0  0  0
  1 35  1  0  0  0  0
  3  4  1  0  0  0  0
  4 26  2  0  0  0  0
  5 33  1  0  0  0  0
  6  2  1  0  0  0  0
  6 15  1  0  0  0  0
  7  6  2  0  0  0  0
  8  7  1  0  0  0  0
  9  7  1  0  0  0  0
  9 11  2  0  0  0  0
 10  9  1  0  0  0  0
 11 13  1  0  0  0  0
 12 11  1  0  0  0  0
 13 15  2  0  0  0  0
 13 14  1  0  0  0  0
 15  1  1  0  0  0  0
 16 25  1  0  0  0  0
 16  2  1  0  0  0  0
 17 16  2  0  0  0  0
 18 17  1  0  0  0  0
 19 21  2  0  0  0  0
 19 17  1  0  0  0  0
 20 19  1  0  0  0  0
 21 23  1  0  0  0  0
 22 21  1  0  0  0  0
 23 24  1  0  0  0  0
 23 25  2  0  0  0  0
 25  3  1  0  0  0  0
 26  5  1  0  0  0  0
 26 27  1  0  0  0  0
 27 29  2  0  0  0  0
 28 27  1  0  0  0  0
 29 31  1  0  0  0  0
 29 30  1  0  0  0  0
 31 32  1  0  0  0  0
 33 34  1  0  0  0  0
 33 31  2  0  0  0  0
 35 38  1  0  0  0  0
 35 36  1  0  0  0  0
 37 35  1  0  0  0  0
M  END
