1,2,3
q = 0.0, confidence = 0.99

 39 42  0  0  0  0  0  0  0  0999 V2000
   -0.3820   -1.5585   -0.5546 N   0  0  0  0  0  2  0  0  0  0  0  0
    1.5409    0.4486   -0.5539 N   0  0  0  0  0  2  0  0  0  0  0  0
   -1.1585    1.1101   -0.5544 N   0  0  0  0  0  2  0  0  0  0  0  0
   -2.4693    0.6083   -0.7902 C   0  0  0  0  0  0  0  0  0  0  0  0
   -3.5911    1.4483   -0.7349 C   0  0  0  0  0  0  0  0  0  0  0  0
   -3.4592    2.5032   -0.4531 H   0  0  0  0  0  0  0  0  0  0  0  0
   -4.8714    0.9372   -1.0015 C   0  0  0  0  0  0  0  0  0  0  0  0
   -5.7447    1.6024   -0.9321 H   0  0  0  0  0  0  0  0  0  0  0  0
   -5.0374   -0.4098   -1.3603 C   0  0  0  0  0  0  0  0  0  0  0  0
   -6.0388   -0.8053   -1.5820 H   0  0  0  0  0  0  0  0  0  0  0  0
   -3.9207   -1.2493   -1.4343 C   0  0  0  0  0  0  0  0  0  0  0  0
   -4.0438   -2.3036   -1.7259 H   0  0  0  0  0  0  0  0  0  0  0  0
   -2.6267   -0.7764   -1.1152 C   0  0  0  0  0  0  0  0  0  0  0  0
   -1.5020   -1.6994   -1.2123 C   0  0  0  0  0  3  0  0  0  0  0  0
   -1.6113   -2.5610   -1.9008 H   0  0  0  0  0  0  0  0  0  0  0  0
    2.2231   -0.4509   -1.2115 C   0  0  0  0  0  3  0  0  0  0  0  0
    3.0243   -0.1147   -1.8995 H   0  0  0  0  0  0  0  0  0  0  0  0
   -0.7206    2.1505   -1.2120 C   0  0  0  0  0  3  0  0  0  0  0  0
   -1.4122    2.6761   -1.9003 H   0  0  0  0  0  0  0  0  0  0  0  0
    0.6410    2.6631   -1.1150 C   0  0  0  0  0  0  0  0  0  0  0  0
    0.8782    4.0202   -1.4343 C   0  0  0  0  0  0  0  0  0  0  0  0
    0.0267    4.6538   -1.7260 H   0  0  0  0  0  0  0  0  0  0  0  0
    2.1635    4.5678   -1.3604 C   0  0  0  0  0  0  0  0  0  0  0  0
    2.3215    5.6327   -1.5823 H   0  0  0  0  0  0  0  0  0  0  0  0
    3.2472    3.7507   -1.0016 C   0  0  0  0  0  0  0  0  0  0  0  0
    4.2599    4.1746   -0.9322 H   0  0  0  0  0  0  0  0  0  0  0  0
    3.0499    2.3864   -0.7347 C   0  0  0  0  0  0  0  0  0  0  0  0
    3.8976    1.7449   -0.4528 H   0  0  0  0  0  0  0  0  0  0  0  0
    1.7616    1.8346   -0.7899 C   0  0  0  0  0  0  0  0  0  0  0  0
    0.7081   -2.4426   -0.7906 C   0  0  0  0  0  0  0  0  0  0  0  0
    0.5415   -3.8342   -0.7360 C   0  0  0  0  0  0  0  0  0  0  0  0
   -0.4380   -4.2477   -0.4548 H   0  0  0  0  0  0  0  0  0  0  0  0
    1.6245   -4.6873   -1.0025 C   0  0  0  0  0  0  0  0  0  0  0  0
    1.4851   -5.7762   -0.9335 H   0  0  0  0  0  0  0  0  0  0  0  0
    2.8743   -4.1573   -1.3602 C   0  0  0  0  0  0  0  0  0  0  0  0
    3.7176   -4.8266   -1.5816 H   0  0  0  0  0  0  0  0  0  0  0  0
    3.0429   -2.7704   -1.4336 C   0  0  0  0  0  0  0  0  0  0  0  0
    4.0176   -2.3497   -1.7244 H   0  0  0  0  0  0  0  0  0  0  0  0
    1.9860   -1.8864   -1.1147 C   0  0  0  0  0  0  0  0  0  0  0  0
  4  5  1  0  0  0  0
  4  3  1  0  0  0  0
  5  6  1  0  0  0  0
  7  8  1  0  0  0  0
  7  5  2  0  0  0  0
  9  7  1  0  0  0  0
 10  9  1  0  0  0  0
 11  9  2  0  0  0  0
 11 13  1  0  0  0  0
 12 11  1  0  0  0  0
 13  4  2  0  0  0  0
 14 13  1  0  0  0  0
 14  1  1  0  0  0  0
 15 14  1  0  0  0  0
 16 39  1  0  0  0  0
 16  2  1  0  0  0  0
 17 16  1  0  0  0  0
 18 20  1  0  0  0  0
 18  3  1  0  0  0  0
 19 18  1  0  0  0  0
 20 29  1  0  0  0  0
 21 23  1  0  0  0  0
 21 20  2  0  0  0  0
 22 21  1  0  0  0  0
 23 25  2  0  0  0  0
 24 23  1  0  0  0  0
 25 26  1  0  0  0  0
 25 27  1  0  0  0  0
 27 28  1  0  0  0  0
 29 27  2  0  0  0  0
 29  2  1  0  0  0  0
 30 31  1  0  0  0  0
 30  1  1  0  0  0  0
 31 32  1  0  0  0  0
 33 34  1  0  0  0  0
 33 31  2  0  0  0  0
 35 33  1  0  0  0  0
 36 35  1  0  0  0  0
 37 35  2  0  0  0  0
 37 39  1  0  0  0  0
 38 37  1  0  0  0  0
 39 30  2  0  0  0  0
M  END
