1,2,3
q = 0.0, confidence = 1.0

 32 32  0  0  0  0  0  0  0  0999 V2000
    2.3773   -0.3069   -0.0543 N   0  0  0  0  0  2  0  0  0  0  0  0
    0.4954   -1.6639   -1.5380 N   0  0  0  0  0  2  0  0  0  0  0  0
   -1.8639    0.5224   -1.6716 N   0  0  0  0  0  0  0  0  0  0  0  0
   -1.3148    1.0870   -2.3363 H   0  0  0  0  0  0  0  0  0  0  0  0
   -3.8970   -0.3699    0.2970 O   0  0  0  0  0  0  0  0  0  0  0  0
   -3.2555   -0.8998    0.8267 H   0  0  0  0  0  0  0  0  0  0  0  0
    3.2898    0.3855    0.6352 C   0  0  0  0  0  3  0  0  0  0  0  0
    2.9085    1.2590    1.1927 H   0  0  0  0  0  0  0  0  0  0  0  0
    4.6528    0.0370    0.6344 C   0  0  0  0  0  0  0  0  0  0  0  0
    5.3709    0.6287    1.2200 H   0  0  0  0  0  0  0  0  0  0  0  0
    5.0645   -1.0684   -0.1223 C   0  0  0  0  0  0  0  0  0  0  0  0
    6.1226   -1.3693   -0.1463 H   0  0  0  0  0  0  0  0  0  0  0  0
    4.1060   -1.7854   -0.8526 C   0  0  0  0  0  0  0  0  0  0  0  0
    4.3867   -2.6558   -1.4645 H   0  0  0  0  0  0  0  0  0  0  0  0
    2.7629   -1.3687   -0.7937 C   0  0  0  0  0  0  0  0  0  0  0  0
    1.7079   -2.0809   -1.5396 C   0  0  0  0  0  3  0  0  0  0  0  0
    2.0081   -3.0042   -2.0852 H   0  0  0  0  0  0  0  0  0  0  0  0
   -0.5474   -2.4078   -2.2117 C   0  0  0  0  0  0  0  0  0  0  0  0
   -1.1848   -2.8497   -1.4121 H   0  0  0  0  0  0  0  0  0  0  0  0
   -0.1173   -3.2508   -2.8022 H   0  0  0  0  0  0  0  0  0  0  0  0
   -1.4213   -1.5180   -3.1070 C   0  0  0  0  0  0  0  0  0  0  0  0
   -1.9936   -2.1944   -3.7752 H   0  0  0  0  0  0  0  0  0  0  0  0
   -0.7690   -0.9134   -3.7767 H   0  0  0  0  0  0  0  0  0  0  0  0
   -2.4401   -0.6288   -2.3968 C   0  0  0  0  0  0  0  0  0  0  0  0
   -3.1717   -0.2575   -3.1553 H   0  0  0  0  0  0  0  0  0  0  0  0
   -3.0322   -1.2067   -1.6600 H   0  0  0  0  0  0  0  0  0  0  0  0
   -2.9133    1.4037   -1.1027 C   0  0  0  0  0  0  0  0  0  0  0  0
   -2.4783    2.4184   -0.9937 H   0  0  0  0  0  0  0  0  0  0  0  0
   -3.7702    1.4693   -1.8143 H   0  0  0  0  0  0  0  0  0  0  0  0
   -3.4083    0.9574    0.2740 C   0  0  0  0  0  0  0  0  0  0  0  0
   -2.5787    1.0912    1.0069 H   0  0  0  0  0  0  0  0  0  0  0  0
   -4.2163    1.6625    0.5811 H   0  0  0  0  0  0  0  0  0  0  0  0
  1  7  1  0  0  0  0
  3 27  1  0  0  0  0
  4  3  1  0  0  0  0
  5  6  1  0  0  0  0
  7  8  1  0  0  0  0
  9  7  1  0  0  0  0
  9 10  1  0  0  0  0
 11  9  2  0  0  0  0
 12 11  1  0  0  0  0
 13 15  2  0  0  0  0
 13 11  1  0  0  0  0
 14 13  1  0  0  0  0
 15  1  1  0  0  0  0
 16  2  1  0  0  0  0
 16 15  1  0  0  0  0
 17 16  1  0  0  0  0
 18  2  1  0  0  0  0
 18 19  1  0  0  0  0
 20 18  1  0  0  0  0
 21 24  1  0  0  0  0
 21 18  1  0  0  0  0
 22 21  1  0  0  0  0
 23 21  1  0  0  0  0
 24  3  1  0  0  0  0
 24 26  1  0  0  0  0
 25 24  1  0  0  0  0
 27 28  1  0  0  0  0
 27 30  1  0  0  0  0
 29 27  1  0  0  0  0
 30  5  1  0  0  0  0
 30 32  1  0  0  0  0
 30 31  1  0  0  0  0
M  END
