1,2,3
q = 0.0, confidence = 0.998

 29 29  0  0  0  0  0  0  0  0999 V2000
   -2.2616    0.7183    0.0470 N   0  0  0  0  0  2  0  0  0  0  0  0
   -0.8438   -0.2907    2.1567 N   0  0  0  0  0  2  0  0  0  0  0  0
    1.8443   -0.9355    1.5253 N   0  0  0  0  0  0  0  0  0  0  0  0
    4.0177    0.4663    0.6474 O   0  0  0  0  0  0  0  0  0  0  0  0
   -2.9452    1.2173   -0.9867 C   0  0  0  0  0  3  0  0  0  0  0  0
   -4.3362    1.4240   -0.9429 C   0  0  0  0  0  0  0  0  0  0  0  0
   -5.0284    1.0876    0.2280 C   0  0  0  0  0  0  0  0  0  0  0  0
   -4.3102    0.5626    1.3119 C   0  0  0  0  0  0  0  0  0  0  0  0
   -2.9190    0.3948    1.1824 C   0  0  0  0  0  0  0  0  0  0  0  0
   -2.1093   -0.1530    2.2910 C   0  0  0  0  0  3  0  0  0  0  0  0
    0.0234   -0.8226    3.1797 C   0  0  0  0  0  0  0  0  0  0  0  0
    1.1196   -1.6887    2.5423 C   0  0  0  0  0  0  0  0  0  0  0  0
    2.9026   -1.6773    0.8316 C   0  0  0  0  0  0  0  0  0  0  0  0
    3.6586   -0.7003   -0.0751 C   0  0  0  0  0  0  0  0  0  0  0  0
    3.4745    1.2063    0.2867 H   0  0  0  0  0  0  0  0  0  0  0  0
   -2.3573    1.4611   -1.8875 H   0  0  0  0  0  0  0  0  0  0  0  0
   -4.8586    1.8390   -1.8168 H   0  0  0  0  0  0  0  0  0  0  0  0
   -6.1169    1.2311    0.2975 H   0  0  0  0  0  0  0  0  0  0  0  0
   -4.8142    0.2842    2.2497 H   0  0  0  0  0  0  0  0  0  0  0  0
   -2.6472   -0.4374    3.2239 H   0  0  0  0  0  0  0  0  0  0  0  0
    2.3081   -0.1027    1.9279 H   0  0  0  0  0  0  0  0  0  0  0  0
   -0.5274   -1.3948    3.9609 H   0  0  0  0  0  0  0  0  0  0  0  0
    0.5081    0.0451    3.6850 H   0  0  0  0  0  0  0  0  0  0  0  0
    0.6541   -2.5693    2.0494 H   0  0  0  0  0  0  0  0  0  0  0  0
    1.7881   -2.0741    3.3494 H   0  0  0  0  0  0  0  0  0  0  0  0
    2.4451   -2.4881    0.2255 H   0  0  0  0  0  0  0  0  0  0  0  0
    3.6030   -2.1423    1.5675 H   0  0  0  0  0  0  0  0  0  0  0  0
    4.5709   -1.2028   -0.4679 H   0  0  0  0  0  0  0  0  0  0  0  0
    3.0176   -0.4503   -0.9512 H   0  0  0  0  0  0  0  0  0  0  0  0
  1  9  1  0  0  0  0
  2 10  1  0  0  0  0
  2 11  1  0  0  0  0
  3 21  1  0  0  0  0
  3 12  1  0  0  0  0
  5  6  1  0  0  0  0
  5  1  1  0  0  0  0
  6  7  2  0  0  0  0
  7 18  1  0  0  0  0
  7  8  1  0  0  0  0
  8 19  1  0  0  0  0
  9  8  2  0  0  0  0
  9 10  1  0  0  0  0
 10 20  1  0  0  0  0
 11 23  1  0  0  0  0
 11 22  1  0  0  0  0
 12 11  1  0  0  0  0
 12 25  1  0  0  0  0
 13  3  1  0  0  0  0
 13 27  1  0  0  0  0
 14  4  1  0  0  0  0
 14 13  1  0  0  0  0
 15  4  1  0  0  0  0
 16  5  1  0  0  0  0
 17  6  1  0  0  0  0
 24 12  1  0  0  0  0
 26 13  1  0  0  0  0
 28 14  1  0  0  0  0
 29 14  1  0  0  0  0
M  END
