1,2,3
q = -2.0, confidence = 0.776

 51 50  0  0  0  0  0  0  0  0999 V2000
   -2.4091   -0.5101   -0.4452 N   0  0  0  0  0  2  0  0  0  0  0  0
   -0.9954   -0.7081    2.2346 N   0  0  0  0  0  0  0  0  0  0  0  0
    0.0446    1.6646    0.6748 N   0  0  0  0  0  2  0  0  0  0  0  0
   -3.1660   -1.6678   -1.5540 Si  0  0  0  0  0  0  0  0  0  0  0  0
   -0.5423    3.3272    0.5256 Si  0  0  0  0  0  0  0  0  0  0  0  0
   -3.3099    0.3565    0.3278 C   0  0  0  0  0  0  0  0  0  0  0  0
   -3.4354   -0.0478    1.8043 C   0  0  0  0  0  0  0  0  0  0  0  0
   -2.1593    0.1209    2.6329 C   0  0  0  0  0  0  0  0  0  0  0  0
    0.1566   -0.4165    3.1268 C   0  0  0  0  0  0  0  0  0  0  0  0
    0.7638    0.9833    2.9997 C   0  0  0  0  0  0  0  0  0  0  0  0
    1.1709    1.3504    1.5635 C   0  0  0  0  0  0  0  0  0  0  0  0
   -3.8961   -0.7295   -3.0263 C   0  0  0  0  0  0  0  0  0  0  0  0
   -1.8820   -2.9143   -2.1591 C   0  0  0  0  0  0  0  0  0  0  0  0
   -4.5516   -2.6160   -0.6702 C   0  0  0  0  0  0  0  0  0  0  0  0
   -1.3291   -2.1355    2.3415 C   0  0  0  0  0  0  0  0  0  0  0  0
   -1.7305    3.8242    1.9245 C   0  0  0  0  0  0  0  0  0  0  0  0
   -1.4534    3.5227   -1.1204 C   0  0  0  0  0  0  0  0  0  0  0  0
    0.9197    4.5311    0.5803 C   0  0  0  0  0  0  0  0  0  0  0  0
   -4.3320    0.3788   -0.1187 H   0  0  0  0  0  0  0  0  0  0  0  0
   -2.9673    1.4173    0.2883 H   0  0  0  0  0  0  0  0  0  0  0  0
   -3.8224   -1.0860    1.8706 H   0  0  0  0  0  0  0  0  0  0  0  0
   -4.2062    0.5953    2.2821 H   0  0  0  0  0  0  0  0  0  0  0  0
   -2.3937   -0.0930    3.7065 H   0  0  0  0  0  0  0  0  0  0  0  0
   -1.8387    1.1778    2.5769 H   0  0  0  0  0  0  0  0  0  0  0  0
    0.9428   -1.1599    2.8842 H   0  0  0  0  0  0  0  0  0  0  0  0
   -0.1470   -0.6008    4.1883 H   0  0  0  0  0  0  0  0  0  0  0  0
    1.6666    0.9921    3.6466 H   0  0  0  0  0  0  0  0  0  0  0  0
    0.0869    1.7645    3.4054 H   0  0  0  0  0  0  0  0  0  0  0  0
    1.7563    0.4872    1.1492 H   0  0  0  0  0  0  0  0  0  0  0  0
    1.9166    2.1764    1.5775 H   0  0  0  0  0  0  0  0  0  0  0  0
   -4.4192   -1.4106   -3.7290 H   0  0  0  0  0  0  0  0  0  0  0  0
   -3.0908   -0.2075   -3.5826 H   0  0  0  0  0  0  0  0  0  0  0  0
   -4.6268    0.0361   -2.6927 H   0  0  0  0  0  0  0  0  0  0  0  0
   -2.3515   -3.5734   -2.9183 H   0  0  0  0  0  0  0  0  0  0  0  0
   -1.5136   -3.5593   -1.3363 H   0  0  0  0  0  0  0  0  0  0  0  0
   -1.0064   -2.4310   -2.6360 H   0  0  0  0  0  0  0  0  0  0  0  0
   -5.0551   -3.3104   -1.3746 H   0  0  0  0  0  0  0  0  0  0  0  0
   -4.1530   -3.2199    0.1711 H   0  0  0  0  0  0  0  0  0  0  0  0
   -5.3284   -1.9360   -0.2642 H   0  0  0  0  0  0  0  0  0  0  0  0
   -0.4219   -2.7391    2.1665 H   0  0  0  0  0  0  0  0  0  0  0  0
   -2.0821   -2.4079    1.5791 H   0  0  0  0  0  0  0  0  0  0  0  0
   -1.7289   -2.3866    3.3540 H   0  0  0  0  0  0  0  0  0  0  0  0
   -1.9996    4.8972    1.8286 H   0  0  0  0  0  0  0  0  0  0  0  0
   -2.6741    3.2419    1.8983 H   0  0  0  0  0  0  0  0  0  0  0  0
   -1.2707    3.6848    2.9245 H   0  0  0  0  0  0  0  0  0  0  0  0
   -1.9901    4.4936   -1.1358 H   0  0  0  0  0  0  0  0  0  0  0  0
   -2.2021    2.7235   -1.2958 H   0  0  0  0  0  0  0  0  0  0  0  0
   -0.7450    3.5118   -1.9727 H   0  0  0  0  0  0  0  0  0  0  0  0
    0.5647    5.5602    0.3650 H   0  0  0  0  0  0  0  0  0  0  0  0
    1.6922    4.2748   -0.1728 H   0  0  0  0  0  0  0  0  0  0  0  0
    1.4068    4.5510    1.5765 H   0  0  0  0  0  0  0  0  0  0  0  0
  1  6  1  0  0  0  0
  2 15  1  0  0  0  0
  2  8  1  0  0  0  0
  2  9  1  0  0  0  0
  3 11  1  0  0  0  0
  4 14  1  0  0  0  0
  4  1  1  0  0  0  0
  5 18  1  0  0  0  0
  5  3  1  0  0  0  0
  5 16  1  0  0  0  0
  6  7  1  0  0  0  0
  7 21  1  0  0  0  0
  7 22  1  0  0  0  0
  7  8  1  0  0  0  0
  8 23  1  0  0  0  0
  9 26  1  0  0  0  0
 10  9  1  0  0  0  0
 10 28  1  0  0  0  0
 10 27  1  0  0  0  0
 11 30  1  0  0  0  0
 11 10  1  0  0  0  0
 12 33  1  0  0  0  0
 12  4  1  0  0  0  0
 13  4  1  0  0  0  0
 13 35  1  0  0  0  0
 14 39  1  0  0  0  0
 14 38  1  0  0  0  0
 15 42  1  0  0  0  0
 16 45  1  0  0  0  0
 17  5  1  0  0  0  0
 18 51  1  0  0  0  0
 19  6  1  0  0  0  0
 20  6  1  0  0  0  0
 24  8  1  0  0  0  0
 25  9  1  0  0  0  0
 29 11  1  0  0  0  0
 31 12  1  0  0  0  0
 32 12  1  0  0  0  0
 34 13  1  0  0  0  0
 36 13  1  0  0  0  0
 37 14  1  0  0  0  0
 40 15  1  0  0  0  0
 41 15  1  0  0  0  0
 43 16  1  0  0  0  0
 44 16  1  0  0  0  0
 46 17  1  0  0  0  0
 47 17  1  0  0  0  0
 48 17  1  0  0  0  0
 49 18  1  0  0  0  0
 50 18  1  0  0  0  0
M  END
