1,11,17
q = 0.0, confidence = 0.922

 49 51  0  0  1  0  0  0  0  0999 V2000
    0.0000    2.1393   -0.1421 N   0  0  0  0  0  2  0  0  0  0  0  0
    1.2013    2.8117   -0.0475 C   0  0  0  0  0  0  0  0  0  0  0  0
    1.2157    4.1959    0.1936 C   0  0  0  0  0  0  0  0  0  0  0  0
    2.1774    4.7205    0.2787 H   0  0  0  0  0  0  0  0  0  0  0  0
    0.0001    4.8879    0.3220 C   0  0  0  0  0  0  0  0  0  0  0  0
    0.0002    5.9699    0.5151 H   0  0  0  0  0  0  0  0  0  0  0  0
   -1.2155    4.1959    0.1938 C   0  0  0  0  0  0  0  0  0  0  0  0
   -2.1771    4.7206    0.2791 H   0  0  0  0  0  0  0  0  0  0  0  0
   -1.2012    2.8117   -0.0473 C   0  0  0  0  0  0  0  0  0  0  0  0
    2.3224    1.9062   -0.2063 C   0  0  0  0  0  0  0  0  0  0  0  0
    1.9328    0.6493   -0.3935 N   0  0  0  0  0  2  0  0  0  0  0  0
    3.7411    2.3743   -0.1429 C   0  0  0  0  0  0  0  0  0  0  0  0
    4.0261    2.6455    0.8942 H   0  0  0  0  0  0  0  0  0  0  0  0
    3.8741    3.2748   -0.7758 H   0  0  0  0  0  0  0  0  0  0  0  0
    4.4391    1.5915   -0.4900 H   0  0  0  0  0  0  0  0  0  0  0  0
   -2.3223    1.9063   -0.2061 C   0  0  1  0  0  3  0  0  0  0  0  0
   -1.9328    0.6494   -0.3934 N   0  0  0  0  0  2  0  0  0  0  0  0
   -3.7410    2.3744   -0.1425 C   0  0  0  0  0  0  0  0  0  0  0  0
   -4.4390    1.5919   -0.4901 H   0  0  0  0  0  0  0  0  0  0  0  0
   -3.8739    3.2752   -0.7750 H   0  0  0  0  0  0  0  0  0  0  0  0
   -4.0261    2.6451    0.8947 H   0  0  0  0  0  0  0  0  0  0  0  0
    2.8558   -0.4285   -0.4859 C   0  0  0  0  0  0  0  0  0  0  0  0
    3.5523   -0.9514    0.6329 C   0  0  0  0  0  0  0  0  0  0  0  0
    4.3719   -2.0832    0.4693 C   0  0  0  0  0  0  0  0  0  0  0  0
    4.9070   -2.5132    1.3263 H   0  0  0  0  0  0  0  0  0  0  0  0
    4.4928   -2.6823   -0.7850 C   0  0  0  0  0  0  0  0  0  0  0  0
    5.2792   -3.7630   -0.9212 F   0  0  0  0  0  0  0  0  0  0  0  0
    3.8071   -2.1831   -1.8990 C   0  0  0  0  0  0  0  0  0  0  0  0
    3.9146   -2.6802   -2.8734 H   0  0  0  0  0  0  0  0  0  0  0  0
    2.9837   -1.0670   -1.7374 C   0  0  0  0  0  0  0  0  0  0  0  0
    2.3995   -0.6660   -2.5789 H   0  0  0  0  0  0  0  0  0  0  0  0
    3.5398   -0.3336    2.0197 C   0  0  0  0  0  0  0  0  0  0  0  0
    4.6138    0.5032    2.1733 F   0  0  0  0  0  0  0  0  0  0  0  0
    2.4420    0.3945    2.2972 F   0  0  0  0  0  0  0  0  0  0  0  0
    3.6558   -1.2798    2.9771 F   0  0  0  0  0  0  0  0  0  0  0  0
   -2.8558   -0.4283   -0.4859 C   0  0  0  0  0  0  0  0  0  0  0  0
   -3.5525   -0.9513    0.6328 C   0  0  0  0  0  0  0  0  0  0  0  0
   -4.3722   -2.0830    0.4689 C   0  0  0  0  0  0  0  0  0  0  0  0
   -4.9074   -2.5131    1.3258 H   0  0  0  0  0  0  0  0  0  0  0  0
   -4.4929   -2.6821   -0.7854 C   0  0  0  0  0  0  0  0  0  0  0  0
   -5.2794   -3.7627   -0.9217 F   0  0  0  0  0  0  0  0  0  0  0  0
   -3.8069   -2.1829   -1.8993 C   0  0  0  0  0  0  0  0  0  0  0  0
   -3.9143   -2.6800   -2.8737 H   0  0  0  0  0  0  0  0  0  0  0  0
   -2.9835   -1.0668   -1.7374 C   0  0  0  0  0  0  0  0  0  0  0  0
   -2.3991   -0.6659   -2.5788 H   0  0  0  0  0  0  0  0  0  0  0  0
   -3.5400   -0.3337    2.0196 C   0  0  0  0  0  0  0  0  0  0  0  0
   -4.6140    0.5031    2.1733 F   0  0  0  0  0  0  0  0  0  0  0  0
   -2.4422    0.3943    2.2972 F   0  0  0  0  0  0  0  0  0  0  0  0
   -3.6561   -1.2800    2.9769 F   0  0  0  0  0  0  0  0  0  0  0  0
  1  2  1  0  0  0  0
  1  9  1  0  0  0  0
  2  3  1  0  0  0  0
  3  4  1  0  0  0  0
  3  5  2  0  0  0  0
  5  6  1  0  0  0  0
  7  8  1  0  0  0  0
  7  5  1  0  0  0  0
  9  7  2  0  0  0  0
 10 12  1  0  0  0  0
 10  2  2  0  0  0  0
 11 10  1  0  0  0  0
 12 13  1  0  0  0  0
 14 12  1  0  0  0  0
 15 12  1  0  0  0  0
 16 17  1  1  0  0  0
 16 18  1  0  0  0  0
 16  9  1  0  0  0  0
 18 21  1  0  0  0  0
 19 18  1  0  0  0  0
 20 18  1  0  0  0  0
 22 11  1  0  0  0  0
 22 23  1  0  0  0  0
 23 32  1  0  0  0  0
 24 23  2  0  0  0  0
 24 25  1  0  0  0  0
 26 24  1  0  0  0  0
 27 26  1  0  0  0  0
 28 30  1  0  0  0  0
 28 26  2  0  0  0  0
 29 28  1  0  0  0  0
 30 22  2  0  0  0  0
 31 30  1  0  0  0  0
 32 33  1  0  0  0  0
 32 34  1  0  0  0  0
 32 35  1  0  0  0  0
 36 17  1  0  0  0  0
 36 37  1  0  0  0  0
 37 46  1  0  0  0  0
 38 37  2  0  0  0  0
 38 39  1  0  0  0  0
 40 38  1  0  0  0  0
 41 40  1  0  0  0  0
 42 44  1  0  0  0  0
 42 40  2  0  0  0  0
 43 42  1  0  0  0  0
 44 36  2  0  0  0  0
 45 44  1  0  0  0  0
 46 47  1  0  0  0  0
 46 48  1  0  0  0  0
 46 49  1  0  0  0  0
M  END
