3,4,5
q = 0.0, confidence = 0.84

 39 42  0  0  1  0  0  0  0  0999 V2000
    5.1247    2.3130   -0.7120 O   0  0  0  0  0  0  0  0  0  0  0  0
    7.5248   -2.1496    1.0731 O   0  0  0  0  0  0  0  0  0  0  0  0
   -1.0423    2.0424   -0.1869 N   0  0  0  0  0  2  0  0  0  0  0  0
    0.5672    0.0347   -0.1758 N   0  0  0  0  0  2  0  0  0  0  0  0
   -0.9693   -1.9859   -0.5932 N   0  0  0  0  0  2  0  0  0  0  0  0
   -1.9681    3.0259   -0.2043 C   0  0  0  0  0  3  0  0  0  0  0  0
   -1.6307    4.3755   -0.0725 C   0  0  0  0  0  0  0  0  0  0  0  0
   -0.2800    4.7284    0.0778 C   0  0  0  0  0  0  0  0  0  0  0  0
    0.6853    3.7161    0.0923 C   0  0  0  0  0  0  0  0  0  0  0  0
    0.2888    2.3755   -0.0414 C   0  0  0  0  0  0  0  0  0  0  0  0
    1.2144    1.2325   -0.0510 C   0  0  2  0  0  3  0  0  0  0  0  0
    2.6096    1.2761    0.0369 C   0  0  0  0  0  0  0  0  0  0  0  0
    3.3619    0.0762   -0.0267 C   0  0  0  0  0  0  0  0  0  0  0  0
    4.8343    0.0588    0.0880 C   0  0  0  0  0  0  0  0  0  0  0  0
    5.6476    1.2612   -0.3393 C   0  0  0  0  0  0  0  0  0  0  0  0
    7.1265    1.1456   -0.2918 C   0  0  0  0  0  0  0  0  0  0  0  0
    7.7571    0.0378    0.1655 C   0  0  0  0  0  0  0  0  0  0  0  0
    6.9788   -1.1337    0.6399 C   0  0  0  0  0  0  0  0  0  0  0  0
    5.5021   -1.0356    0.5685 C   0  0  0  0  0  0  0  0  0  0  0  0
    2.6533   -1.1375   -0.2160 C   0  0  0  0  0  0  0  0  0  0  0  0
    1.2580   -1.1408   -0.2933 C   0  0  0  0  0  0  0  0  0  0  0  0
    0.3735   -2.2953   -0.5168 C   0  0  2  0  0  3  0  0  0  0  0  0
    0.8132   -3.6224   -0.6483 C   0  0  0  0  0  0  0  0  0  0  0  0
   -0.1172   -4.6447   -0.8630 C   0  0  0  0  0  0  0  0  0  0  0  0
   -1.4797   -4.3148   -0.9412 C   0  0  0  0  0  0  0  0  0  0  0  0
   -1.8620   -2.9779   -0.8033 C   0  0  0  0  0  0  0  0  0  0  0  0
   -3.0102    2.7024   -0.3404 H   0  0  0  0  0  0  0  0  0  0  0  0
   -2.4223    5.1373   -0.0971 H   0  0  0  0  0  0  0  0  0  0  0  0
    0.0186    5.7819    0.1770 H   0  0  0  0  0  0  0  0  0  0  0  0
    1.7511    3.9594    0.1997 H   0  0  0  0  0  0  0  0  0  0  0  0
    3.1333    2.2337    0.1233 H   0  0  0  0  0  0  0  0  0  0  0  0
    7.6689    2.0368   -0.6433 H   0  0  0  0  0  0  0  0  0  0  0  0
    8.8535   -0.0487    0.2143 H   0  0  0  0  0  0  0  0  0  0  0  0
    4.9735   -1.9228    0.9506 H   0  0  0  0  0  0  0  0  0  0  0  0
    3.2049   -2.0781   -0.3447 H   0  0  0  0  0  0  0  0  0  0  0  0
    1.8861   -3.8499   -0.5856 H   0  0  0  0  0  0  0  0  0  0  0  0
    0.2169   -5.6864   -0.9721 H   0  0  0  0  0  0  0  0  0  0  0  0
   -2.2459   -5.0831   -1.1151 H   0  0  0  0  0  0  0  0  0  0  0  0
   -2.9152   -2.6693   -0.8706 H   0  0  0  0  0  0  0  0  0  0  0  0
  1 15  2  0  0  0  0
  3 10  1  0  0  0  0
  4 11  1  0  0  0  0
  5 22  1  0  0  0  0
  6  3  1  0  0  0  0
  6  7  1  0  0  0  0
  7  8  2  0  0  0  0
  8  9  1  0  0  0  0
  8 29  1  0  0  0  0
  9 30  1  0  0  0  0
 10  9  2  0  0  0  0
 11 10  1  6  0  0  0
 11 12  1  0  0  0  0
 12 31  1  0  0  0  0
 13 12  2  0  0  0  0
 13 14  1  0  0  0  0
 14 19  2  0  0  0  0
 15 16  1  0  0  0  0
 15 14  1  0  0  0  0
 16 17  2  0  0  0  0
 17 33  1  0  0  0  0
 17 18  1  0  0  0  0
 18  2  2  0  0  0  0
 19 18  1  0  0  0  0
 19 34  1  0  0  0  0
 20 13  1  0  0  0  0
 21 20  2  0  0  0  0
 21  4  1  0  0  0  0
 22 21  1  6  0  0  0
 23 36  1  0  0  0  0
 23 22  1  0  0  0  0
 24 23  2  0  0  0  0
 25 24  1  0  0  0  0
 25 26  2  0  0  0  0
 26  5  1  0  0  0  0
 27  6  1  0  0  0  0
 28  7  1  0  0  0  0
 32 16  1  0  0  0  0
 35 20  1  0  0  0  0
 37 24  1  0  0  0  0
 38 25  1  0  0  0  0
 39 26  1  0  0  0  0
M  END
