1,2,4
q = -1.0

 34 35  0  0  0  0  0  0  0  0999 V2000
    0.5014   -2.2953   -0.0529 N   0  0  0  0  0  2  0  0  0  0  0  0
    0.5202    0.3176   -0.0075 N   0  0  0  0  0  2  0  0  0  0  0  0
    0.5001    1.6522    0.0793 N   0  0  0  0  0  0  0  0  0  0  0  0
   -2.3788    0.5425    0.0197 N   0  0  0  0  0  2  0  0  0  0  0  0
    0.4048   -3.5243   -0.0861 O   0  0  0  0  0  1  0  0  0  0  0  0
    2.9986    0.4996   -0.0152 C   0  0  0  0  0  0  0  0  0  0  0  0
    3.2450    1.5081   -0.9724 C   0  0  0  0  0  0  0  0  0  0  0  0
    2.4867    1.7211   -1.7381 H   0  0  0  0  0  0  0  0  0  0  0  0
    4.4503    2.2206   -0.9537 C   0  0  0  0  0  0  0  0  0  0  0  0
    4.6358    2.9964   -1.7120 H   0  0  0  0  0  0  0  0  0  0  0  0
    5.4184    1.9508    0.0279 C   0  0  0  0  0  0  0  0  0  0  0  0
    6.3623    2.5166    0.0428 H   0  0  0  0  0  0  0  0  0  0  0  0
    5.1777    0.9574    0.9894 C   0  0  0  0  0  0  0  0  0  0  0  0
    5.9280    0.7451    1.7660 H   0  0  0  0  0  0  0  0  0  0  0  0
    3.9787    0.2310    0.9646 C   0  0  0  0  0  0  0  0  0  0  0  0
    3.7863   -0.5415    1.7239 H   0  0  0  0  0  0  0  0  0  0  0  0
    1.7398   -0.2851   -0.0336 C   0  0  0  0  0  0  0  0  0  0  0  0
    1.7473   -1.7012   -0.0785 C   0  0  0  0  0  0  0  0  0  0  0  0
    2.9385   -2.5976   -0.1996 C   0  0  0  0  0  0  0  0  0  0  0  0
    3.1319   -3.1477    0.7462 H   0  0  0  0  0  0  0  0  0  0  0  0
    3.8461   -2.0311   -0.4712 H   0  0  0  0  0  0  0  0  0  0  0  0
    2.7364   -3.3720   -0.9670 H   0  0  0  0  0  0  0  0  0  0  0  0
   -0.6164    2.3274    0.1101 C   0  0  0  0  0  0  0  0  0  0  0  0
   -0.4732    3.4191    0.1826 H   0  0  0  0  0  0  0  0  0  0  0  0
   -1.9953    1.8736    0.0713 C   0  0  0  0  0  0  0  0  0  0  0  0
   -3.7024    0.4894    0.0048 C   0  0  0  0  0  3  0  0  0  0  0  0
   -4.2684   -0.4518   -0.0292 H   0  0  0  0  0  0  0  0  0  0  0  0
   -4.2023    1.7573    0.0452 N   0  0  0  0  0  0  0  0  0  0  0  0
   -5.1942    1.9983    0.0447 H   0  0  0  0  0  0  0  0  0  0  0  0
   -3.1540    2.6625    0.0885 C   0  0  0  0  0  0  0  0  0  0  0  0
   -3.3576    4.1367    0.1394 C   0  0  0  0  0  0  0  0  0  0  0  0
   -3.9055    4.5090   -0.7523 H   0  0  0  0  0  0  0  0  0  0  0  0
   -2.3851    4.6601    0.1735 H   0  0  0  0  0  0  0  0  0  0  0  0
   -3.9333    4.4431    1.0385 H   0  0  0  0  0  0  0  0  0  0  0  0
  2  3  1  0  0  0  0
  3 23  2  0  0  0  0
  4 25  1  0  0  0  0
  5  1  1  0  0  0  0
  6 15  1  0  0  0  0
  7  9  1  0  0  0  0
  7  6  2  0  0  0  0
  8  7  1  0  0  0  0
  9 11  2  0  0  0  0
 10  9  1  0  0  0  0
 11 12  1  0  0  0  0
 11 13  1  0  0  0  0
 13 14  1  0  0  0  0
 15 13  2  0  0  0  0
 15 16  1  0  0  0  0
 17  6  1  0  0  0  0
 17  2  1  0  0  0  0
 18  1  1  0  0  0  0
 18 17  2  0  0  0  0
 19 18  1  0  0  0  0
 19 20  1  0  0  0  0
 21 19  1  0  0  0  0
 22 19  1  0  0  0  0
 23 24  1  0  0  0  0
 25 30  2  0  0  0  0
 25 23  1  0  0  0  0
 26  4  1  0  0  0  0
 26 28  1  0  0  0  0
 27 26  1  0  0  0  0
 28 30  1  0  0  0  0
 29 28  1  0  0  0  0
 30 31  1  0  0  0  0
 31 33  1  0  0  0  0
 31 34  1  0  0  0  0
 32 31  1  0  0  0  0
M  END
