1,6,11
q = 0.0, confidence = 0.994

 36 36  0  0  0  0  0  0  0  0999 V2000
    0.0217    1.3062   -0.9342 N   0  0  0  0  0  0  0  0  0  0  0  0
   -0.0228    2.7508   -0.6362 C   0  0  0  0  0  0  0  0  0  0  0  0
   -1.4270    3.3509   -0.4834 C   0  0  0  0  0  0  0  0  0  0  0  0
   -2.3373    2.6539    0.3342 O   0  0  0  0  0  0  0  0  0  0  0  0
    1.2509    0.8496   -1.5889 C   0  0  0  0  0  0  0  0  0  0  0  0
    1.3298   -0.5879   -1.2738 N   0  0  0  0  0  0  0  0  0  0  0  0
    2.6556   -1.1873   -1.5006 C   0  0  0  0  0  0  0  0  0  0  0  0
    3.6472   -0.9193   -0.3681 C   0  0  0  0  0  0  0  0  0  0  0  0
    3.9533    0.4563   -0.2285 O   0  0  0  0  0  0  0  0  0  0  0  0
    0.1971   -1.3156   -1.8602 C   0  0  0  0  0  0  0  0  0  0  0  0
   -0.9816   -0.7629   -1.1865 N   0  0  0  0  0  0  0  0  0  0  0  0
   -2.2049   -1.5664   -1.2622 C   0  0  0  0  0  0  0  0  0  0  0  0
   -3.1064   -1.3548   -0.0487 C   0  0  0  0  0  0  0  0  0  0  0  0
   -4.2883   -2.0921   -0.2977 O   0  0  0  0  0  0  0  0  0  0  0  0
   -1.1518    0.6570   -1.5338 C   0  0  0  0  0  0  0  0  0  0  0  0
    0.4788    3.3311   -1.4465 H   0  0  0  0  0  0  0  0  0  0  0  0
    0.5719    2.9003    0.2890 H   0  0  0  0  0  0  0  0  0  0  0  0
   -1.9097    3.4102   -1.4835 H   0  0  0  0  0  0  0  0  0  0  0  0
   -1.2778    4.4085   -0.1537 H   0  0  0  0  0  0  0  0  0  0  0  0
   -1.9511    2.4502    1.2129 H   0  0  0  0  0  0  0  0  0  0  0  0
    2.1366    1.3370   -1.1420 H   0  0  0  0  0  0  0  0  0  0  0  0
    1.2359    1.0357   -2.6994 H   0  0  0  0  0  0  0  0  0  0  0  0
    3.0740   -0.8340   -2.4729 H   0  0  0  0  0  0  0  0  0  0  0  0
    2.5195   -2.2850   -1.5819 H   0  0  0  0  0  0  0  0  0  0  0  0
    4.5745   -1.4957   -0.6004 H   0  0  0  0  0  0  0  0  0  0  0  0
    3.2140   -1.3367    0.5668 H   0  0  0  0  0  0  0  0  0  0  0  0
    3.6889    0.7223    0.6790 H   0  0  0  0  0  0  0  0  0  0  0  0
    0.2890   -2.3864   -1.5973 H   0  0  0  0  0  0  0  0  0  0  0  0
    0.1451   -1.2102   -2.9796 H   0  0  0  0  0  0  0  0  0  0  0  0
   -1.9177   -2.6360   -1.3044 H   0  0  0  0  0  0  0  0  0  0  0  0
   -2.7795   -1.3462   -2.1927 H   0  0  0  0  0  0  0  0  0  0  0  0
   -3.3073   -0.2652    0.0978 H   0  0  0  0  0  0  0  0  0  0  0  0
   -2.5532   -1.6979    0.8568 H   0  0  0  0  0  0  0  0  0  0  0  0
   -4.8375   -2.0422    0.5037 H   0  0  0  0  0  0  0  0  0  0  0  0
   -2.0596    1.0436   -1.0380 H   0  0  0  0  0  0  0  0  0  0  0  0
   -1.2164    0.8067   -2.6459 H   0  0  0  0  0  0  0  0  0  0  0  0
  1  2  1  0  0  0  0
  2  3  1  0  0  0  0
  2 17  1  0  0  0  0
  3 19  1  0  0  0  0
  3  4  1  0  0  0  0
  4 20  1  0  0  0  0
  5  6  1  0  0  0  0
  5 21  1  0  0  0  0
  5  1  1  0  0  0  0
  7  6  1  0  0  0  0
  7  8  1  0  0  0  0
  8  9  1  0  0  0  0
  8 26  1  0  0  0  0
  9 27  1  0  0  0  0
 10 28  1  0  0  0  0
 10  6  1  0  0  0  0
 10 11  1  0  0  0  0
 12 11  1  0  0  0  0
 12 13  1  0  0  0  0
 13 32  1  0  0  0  0
 13 33  1  0  0  0  0
 14 13  1  0  0  0  0
 14 34  1  0  0  0  0
 15 11  1  0  0  0  0
 15 35  1  0  0  0  0
 15  1  1  0  0  0  0
 16  2  1  0  0  0  0
 18  3  1  0  0  0  0
 22  5  1  0  0  0  0
 23  7  1  0  0  0  0
 24  7  1  0  0  0  0
 25  8  1  0  0  0  0
 29 10  1  0  0  0  0
 30 12  1  0  0  0  0
 31 12  1  0  0  0  0
 36 15  1  0  0  0  0
M  END
