1,2,4
q = 0.0, confidence = 1.0

 50 50  0  0  0  0  0  0  0  0999 V2000
   -2.6202   -0.4691    1.4453 N   0  0  0  0  0  0  0  0  0  0  0  0
   -1.0366    1.8113    0.9140 N   0  0  0  0  0  0  0  0  0  0  0  0
   -0.3370    0.8716   -2.2757 N   0  0  0  0  0  0  0  0  0  0  0  0
   -0.9485   -1.8249   -0.7619 N   0  0  0  0  0  0  0  0  0  0  0  0
   -3.0397    0.8426    2.0007 C   0  0  0  0  0  0  0  0  0  0  0  0
   -3.5711    0.7133    2.9700 H   0  0  0  0  0  0  0  0  0  0  0  0
   -3.7647    1.3030    1.3034 H   0  0  0  0  0  0  0  0  0  0  0  0
   -1.8173    1.7236    2.1828 C   0  0  0  0  0  0  0  0  0  0  0  0
   -2.1190    2.7412    2.5209 H   0  0  0  0  0  0  0  0  0  0  0  0
   -1.1425    1.3124    2.9579 H   0  0  0  0  0  0  0  0  0  0  0  0
   -1.8785    2.5610   -0.0894 C   0  0  0  0  0  0  0  0  0  0  0  0
   -2.2418    3.4685    0.4467 H   0  0  0  0  0  0  0  0  0  0  0  0
   -2.7720    1.9410   -0.3027 H   0  0  0  0  0  0  0  0  0  0  0  0
   -1.2777    3.0060   -1.4230 C   0  0  0  0  0  0  0  0  0  0  0  0
   -0.2703    3.4469   -1.2865 H   0  0  0  0  0  0  0  0  0  0  0  0
   -1.9089    3.8515   -1.7676 H   0  0  0  0  0  0  0  0  0  0  0  0
   -1.2695    1.9569   -2.5371 C   0  0  0  0  0  0  0  0  0  0  0  0
   -2.2907    1.5270   -2.6247 H   0  0  0  0  0  0  0  0  0  0  0  0
   -1.0617    2.4675   -3.5131 H   0  0  0  0  0  0  0  0  0  0  0  0
   -0.6598   -0.4042   -2.8919 C   0  0  0  0  0  0  0  0  0  0  0  0
   -0.1832   -0.5214   -3.8988 H   0  0  0  0  0  0  0  0  0  0  0  0
   -1.7511   -0.4439   -3.0850 H   0  0  0  0  0  0  0  0  0  0  0  0
   -0.2112   -1.6027   -2.0575 C   0  0  0  0  0  0  0  0  0  0  0  0
   -0.3212   -2.5286   -2.6662 H   0  0  0  0  0  0  0  0  0  0  0  0
    0.8559   -1.4943   -1.7904 H   0  0  0  0  0  0  0  0  0  0  0  0
   -2.3568   -2.2003   -1.1015 C   0  0  0  0  0  0  0  0  0  0  0  0
   -2.3089   -3.1239   -1.7221 H   0  0  0  0  0  0  0  0  0  0  0  0
   -2.7631   -1.4024   -1.7528 H   0  0  0  0  0  0  0  0  0  0  0  0
   -3.3303   -2.4261    0.0493 C   0  0  0  0  0  0  0  0  0  0  0  0
   -4.2476   -2.8658   -0.3927 H   0  0  0  0  0  0  0  0  0  0  0  0
   -2.9591   -3.1991    0.7521 H   0  0  0  0  0  0  0  0  0  0  0  0
   -3.7502   -1.1593    0.7855 C   0  0  0  0  0  0  0  0  0  0  0  0
   -4.1949   -0.4425    0.0637 H   0  0  0  0  0  0  0  0  0  0  0  0
   -4.5381   -1.3981    1.5376 H   0  0  0  0  0  0  0  0  0  0  0  0
   -2.0799   -1.2926    2.5561 C   0  0  0  0  0  0  0  0  0  0  0  0
   -1.2237   -0.7814    3.0307 H   0  0  0  0  0  0  0  0  0  0  0  0
   -1.7158   -2.2633    2.1858 H   0  0  0  0  0  0  0  0  0  0  0  0
   -2.8690   -1.4765    3.3201 H   0  0  0  0  0  0  0  0  0  0  0  0
    0.2166    2.5533    1.1925 C   0  0  0  0  0  0  0  0  0  0  0  0
   -0.0223    3.5935    1.5052 H   0  0  0  0  0  0  0  0  0  0  0  0
    0.8593    2.5587    0.2989 H   0  0  0  0  0  0  0  0  0  0  0  0
    0.7715    2.0334    1.9917 H   0  0  0  0  0  0  0  0  0  0  0  0
    1.0480    1.2571   -2.5184 C   0  0  0  0  0  0  0  0  0  0  0  0
    1.7391    0.4645   -2.1791 H   0  0  0  0  0  0  0  0  0  0  0  0
    1.3120    2.1618   -1.9389 H   0  0  0  0  0  0  0  0  0  0  0  0
    1.2346    1.4698   -3.6007 H   0  0  0  0  0  0  0  0  0  0  0  0
   -0.2641   -2.9498   -0.0735 C   0  0  0  0  0  0  0  0  0  0  0  0
   -0.2436   -3.8451   -0.7323 H   0  0  0  0  0  0  0  0  0  0  0  0
   -0.7862   -3.2180    0.8602 H   0  0  0  0  0  0  0  0  0  0  0  0
    0.7638   -2.6330    0.1782 H   0  0  0  0  0  0  0  0  0  0  0  0
  1  5  1  0  0  0  0
  1 35  1  0  0  0  0
  2 39  1  0  0  0  0
  2  8  1  0  0  0  0
  4 47  1  0  0  0  0
  5  8  1  0  0  0  0
  5  6  1  0  0  0  0
  7  5  1  0  0  0  0
  8  9  1  0  0  0  0
  8 10  1  0  0  0  0
 11 12  1  0  0  0  0
 11  2  1  0  0  0  0
 13 11  1  0  0  0  0
 14 15  1  0  0  0  0
 14 11  1  0  0  0  0
 16 14  1  0  0  0  0
 17  3  1  0  0  0  0
 17 14  1  0  0  0  0
 18 17  1  0  0  0  0
 19 17  1  0  0  0  0
 20  3  1  0  0  0  0
 20 23  1  0  0  0  0
 21 20  1  0  0  0  0
 22 20  1  0  0  0  0
 23 25  1  0  0  0  0
 23  4  1  0  0  0  0
 24 23  1  0  0  0  0
 26  4  1  0  0  0  0
 26 29  1  0  0  0  0
 27 26  1  0  0  0  0
 28 26  1  0  0  0  0
 29 31  1  0  0  0  0
 29 32  1  0  0  0  0
 30 29  1  0  0  0  0
 32  1  1  0  0  0  0
 32 34  1  0  0  0  0
 33 32  1  0  0  0  0
 35 36  1  0  0  0  0
 35 38  1  0  0  0  0
 37 35  1  0  0  0  0
 39 40  1  0  0  0  0
 39 42  1  0  0  0  0
 41 39  1  0  0  0  0
 43  3  1  0  0  0  0
 43 44  1  0  0  0  0
 43 45  1  0  0  0  0
 46 43  1  0  0  0  0
 47 50  1  0  0  0  0
 47 49  1  0  0  0  0
 48 47  1  0  0  0  0
M  END
