2,3,5
q = -1.0

 51 54  0  0  1  0  0  0  0  0999 V2000
   -4.1836   -3.0863    0.2206 O   0  0  0  0  0  0  0  0  0  0  0  0
   -2.5222    1.2719   -0.3971 N   0  0  0  0  0  2  0  0  0  0  0  0
   -0.7639   -0.7351   -0.3467 N   0  0  0  0  0  2  0  0  0  0  0  0
    2.1158   -0.1215   -0.0621 N   0  0  0  0  0  0  0  0  0  0  0  0
    1.4988    0.9979    0.0105 N   0  0  0  0  0  2  0  0  0  0  0  0
   -3.2744    2.3798   -0.5853 C   0  0  0  0  0  3  0  0  0  0  0  0
   -4.6202    2.2951   -0.9517 C   0  0  0  0  0  0  0  0  0  0  0  0
   -5.1978    1.0304   -1.1386 C   0  0  0  0  0  0  0  0  0  0  0  0
   -4.4125   -0.1124   -0.9387 C   0  0  0  0  0  0  0  0  0  0  0  0
   -3.0702    0.0408   -0.5589 C   0  0  0  0  0  0  0  0  0  0  0  0
   -2.1691   -1.1291   -0.2507 C   0  0  2  0  0  0  0  0  0  0  0  0
    0.1841   -1.6806   -0.3788 C   0  0  0  0  0  0  0  0  0  0  0  0
   -0.1470   -3.0840   -0.5390 C   0  0  0  0  0  0  0  0  0  0  0  0
    0.8123   -4.0651   -0.5779 C   0  0  0  0  0  0  0  0  0  0  0  0
    2.2102   -3.7753   -0.4605 C   0  0  0  0  0  0  0  0  0  0  0  0
    3.1909   -4.8012   -0.5052 C   0  0  0  0  0  3  0  0  0  0  0  0
    4.5434   -4.4969   -0.3944 C   0  0  0  0  0  0  0  0  0  0  0  0
    4.9389   -3.1478   -0.2366 C   0  0  0  0  0  0  0  0  0  0  0  0
    3.9937   -2.1255   -0.1913 C   0  0  0  0  0  0  0  0  0  0  0  0
    2.6072   -2.4099   -0.2992 C   0  0  0  0  0  0  0  0  0  0  0  0
    1.5971   -1.3501   -0.2430 C   0  0  0  0  0  0  0  0  0  0  0  0
    2.4028    2.1027    0.2110 C   0  0  0  0  0  0  0  0  0  0  0  0
    3.3330    2.0454    1.2644 C   0  0  0  0  0  0  0  0  0  0  0  0
    4.2446    3.0945    1.4443 C   0  0  0  0  0  0  0  0  0  0  0  0
    4.2402    4.1907    0.5669 C   0  0  0  0  0  0  0  0  0  0  0  0
    3.3168    4.2338   -0.4905 C   0  0  0  0  0  0  0  0  0  0  0  0
    2.3904    3.1981   -0.6683 C   0  0  0  0  0  0  0  0  0  0  0  0
   -2.4888   -1.6691    1.1671 C   0  0  0  0  0  0  0  0  0  0  0  0
   -3.6977   -2.5925    1.2305 C   0  0  0  0  0  0  0  0  0  0  0  0
   -4.2445   -2.8827    2.6112 C   0  0  0  0  0  0  0  0  0  0  0  0
   -2.7363    3.3289   -0.4225 H   0  0  0  0  0  0  0  0  0  0  0  0
   -5.1994    3.2182   -1.0960 H   0  0  0  0  0  0  0  0  0  0  0  0
   -6.2504    0.9326   -1.4442 H   0  0  0  0  0  0  0  0  0  0  0  0
   -4.8157   -1.1259   -1.0693 H   0  0  0  0  0  0  0  0  0  0  0  0
   -2.4173   -1.9357   -0.9729 H   0  0  0  0  0  0  0  0  0  0  0  0
   -1.1982   -3.3806   -0.6474 H   0  0  0  0  0  0  0  0  0  0  0  0
    0.5034   -5.1142   -0.7116 H   0  0  0  0  0  0  0  0  0  0  0  0
    2.8582   -5.8436   -0.6314 H   0  0  0  0  0  0  0  0  0  0  0  0
    5.2990   -5.2957   -0.4309 H   0  0  0  0  0  0  0  0  0  0  0  0
    6.0079   -2.8992   -0.1507 H   0  0  0  0  0  0  0  0  0  0  0  0
    4.3002   -1.0775   -0.0726 H   0  0  0  0  0  0  0  0  0  0  0  0
    3.3245    1.1751    1.9359 H   0  0  0  0  0  0  0  0  0  0  0  0
    4.9630    3.0543    2.2773 H   0  0  0  0  0  0  0  0  0  0  0  0
    4.9574    5.0134    0.7074 H   0  0  0  0  0  0  0  0  0  0  0  0
    3.3125    5.0871   -1.1854 H   0  0  0  0  0  0  0  0  0  0  0  0
    1.6576    3.2255   -1.4849 H   0  0  0  0  0  0  0  0  0  0  0  0
   -1.6227   -2.2735    1.5209 H   0  0  0  0  0  0  0  0  0  0  0  0
   -2.5793   -0.8363    1.8960 H   0  0  0  0  0  0  0  0  0  0  0  0
   -4.9666   -3.7178    2.5677 H   0  0  0  0  0  0  0  0  0  0  0  0
   -3.4309   -3.1073    3.3305 H   0  0  0  0  0  0  0  0  0  0  0  0
   -4.7599   -1.9744    2.9908 H   0  0  0  0  0  0  0  0  0  0  0  0
  1 29  2  0  0  0  0
  3 11  1  0  0  0  0
  4  5  1  0  0  0  0
  5 22  1  0  0  0  0
  6 31  1  0  0  0  0
  6  2  1  0  0  0  0
  7  6  1  0  0  0  0
  8  7  2  0  0  0  0
  8  9  1  0  0  0  0
  9 10  2  0  0  0  0
 10  2  1  0  0  0  0
 10 11  1  0  0  0  0
 11 35  1  6  0  0  0
 11 28  1  0  0  0  0
 12  3  1  0  0  0  0
 12 21  1  0  0  0  0
 13 12  2  0  0  0  0
 14 13  1  0  0  0  0
 14 15  2  0  0  0  0
 15 20  1  0  0  0  0
 16 15  1  0  0  0  0
 16 17  1  0  0  0  0
 17 18  2  0  0  0  0
 18 19  1  0  0  0  0
 18 40  1  0  0  0  0
 19 41  1  0  0  0  0
 20 21  1  0  0  0  0
 20 19  2  0  0  0  0
 21  4  2  0  0  0  0
 22 23  1  0  0  0  0
 23 24  2  0  0  0  0
 23 42  1  0  0  0  0
 24 43  1  0  0  0  0
 25 44  1  0  0  0  0
 25 24  1  0  0  0  0
 26 25  2  0  0  0  0
 27 26  1  0  0  0  0
 27 22  2  0  0  0  0
 28 29  1  0  0  0  0
 28 47  1  0  0  0  0
 28 48  1  0  0  0  0
 29 30  1  0  0  0  0
 30 51  1  0  0  0  0
 30 50  1  0  0  0  0
 32  7  1  0  0  0  0
 33  8  1  0  0  0  0
 34  9  1  0  0  0  0
 36 13  1  0  0  0  0
 37 14  1  0  0  0  0
 38 16  1  0  0  0  0
 39 17  1  0  0  0  0
 45 26  1  0  0  0  0
 46 27  1  0  0  0  0
 49 30  1  0  0  0  0
M  END
