2,3,5
q = -1.0

 47 50  0  0  1  0  0  0  0  0999 V2000
   -1.4865   -3.1457    1.2796 O   0  0  0  0  0  0  0  0  0  0  0  0
   -2.9331   -0.4706   -0.4106 N   0  0  0  0  0  2  0  0  0  0  0  0
   -0.4470   -1.3471    0.0342 N   0  0  0  0  0  2  0  0  0  0  0  0
    1.7742    0.6152    0.0011 N   0  0  0  0  0  0  0  0  0  0  0  0
    0.6878    1.2861    0.0616 N   0  0  0  0  0  2  0  0  0  0  0  0
   -4.1338    0.0902   -0.6789 C   0  0  0  0  0  3  0  0  0  0  0  0
   -5.2993   -0.6791   -0.7430 C   0  0  0  0  0  0  0  0  0  0  0  0
   -5.2212   -2.0611   -0.5145 C   0  0  0  0  0  0  0  0  0  0  0  0
   -3.9709   -2.6306   -0.2426 C   0  0  0  0  0  0  0  0  0  0  0  0
   -2.8392   -1.8054   -0.2094 C   0  0  0  0  0  0  0  0  0  0  0  0
   -1.4637   -2.3844    0.0774 C   0  0  2  0  0  0  0  0  0  0  0  0
    0.8491   -1.7092    0.0032 C   0  0  0  0  0  0  0  0  0  0  0  0
    1.2429   -3.1011    0.0595 C   0  0  0  0  0  0  0  0  0  0  0  0
    2.5538   -3.4943   -0.0517 C   0  0  0  0  0  0  0  0  0  0  0  0
    3.6266   -2.5563   -0.1929 C   0  0  0  0  0  0  0  0  0  0  0  0
    4.9774   -2.9781   -0.3113 C   0  0  0  0  0  3  0  0  0  0  0  0
    6.0060   -2.0483   -0.4162 C   0  0  0  0  0  0  0  0  0  0  0  0
    5.6970   -0.6678   -0.3972 C   0  0  0  0  0  0  0  0  0  0  0  0
    4.3789   -0.2320   -0.2824 C   0  0  0  0  0  0  0  0  0  0  0  0
    3.3101   -1.1607   -0.1849 C   0  0  0  0  0  0  0  0  0  0  0  0
    1.9162   -0.7239   -0.0778 C   0  0  0  0  0  0  0  0  0  0  0  0
    0.9104    2.6961    0.2366 C   0  0  0  0  0  0  0  0  0  0  0  0
    1.8820    3.3525   -0.5412 C   0  0  0  0  0  0  0  0  0  0  0  0
    2.1232    4.7178   -0.3418 C   0  0  0  0  0  0  0  0  0  0  0  0
    1.4105    5.4259    0.6397 C   0  0  0  0  0  0  0  0  0  0  0  0
    0.4483    4.7616    1.4179 C   0  0  0  0  0  0  0  0  0  0  0  0
    0.1874    3.4009    1.2142 C   0  0  0  0  0  0  0  0  0  0  0  0
   -1.6565   -2.3750    2.4638 C   0  0  0  0  0  0  0  0  0  0  0  0
   -4.1028    1.1831   -0.8294 H   0  0  0  0  0  0  0  0  0  0  0  0
   -6.2578   -0.1880   -0.9634 H   0  0  0  0  0  0  0  0  0  0  0  0
   -6.1242   -2.6889   -0.5496 H   0  0  0  0  0  0  0  0  0  0  0  0
   -3.8509   -3.7052   -0.0452 H   0  0  0  0  0  0  0  0  0  0  0  0
   -1.2520   -3.1498   -0.7051 H   0  0  0  0  0  0  0  0  0  0  0  0
    0.4712   -3.8600    0.2337 H   0  0  0  0  0  0  0  0  0  0  0  0
    2.7979   -4.5682   -0.0170 H   0  0  0  0  0  0  0  0  0  0  0  0
    5.1939   -4.0580   -0.3157 H   0  0  0  0  0  0  0  0  0  0  0  0
    7.0505   -2.3811   -0.5092 H   0  0  0  0  0  0  0  0  0  0  0  0
    6.5070    0.0738   -0.4727 H   0  0  0  0  0  0  0  0  0  0  0  0
    4.1402    0.8398   -0.2623 H   0  0  0  0  0  0  0  0  0  0  0  0
    2.4275    2.7812   -1.3052 H   0  0  0  0  0  0  0  0  0  0  0  0
    2.8718    5.2337   -0.9622 H   0  0  0  0  0  0  0  0  0  0  0  0
    1.6025    6.4981    0.7957 H   0  0  0  0  0  0  0  0  0  0  0  0
   -0.1121    5.3097    2.1900 H   0  0  0  0  0  0  0  0  0  0  0  0
   -0.5706    2.8726    1.8075 H   0  0  0  0  0  0  0  0  0  0  0  0
   -1.6576   -3.0917    3.3060 H   0  0  0  0  0  0  0  0  0  0  0  0
   -0.8298   -1.6456    2.6026 H   0  0  0  0  0  0  0  0  0  0  0  0
   -2.6208   -1.8164    2.4646 H   0  0  0  0  0  0  0  0  0  0  0  0
  1 28  1  0  0  0  0
  2 10  1  0  0  0  0
  3 11  1  0  0  0  0
  4  5  1  0  0  0  0
  5 22  1  0  0  0  0
  6  2  1  0  0  0  0
  7  6  1  0  0  0  0
  7  8  2  0  0  0  0
  8  9  1  0  0  0  0
  9 10  2  0  0  0  0
  9 32  1  0  0  0  0
 10 11  1  0  0  0  0
 11 33  1  6  0  0  0
 11  1  1  0  0  0  0
 12  3  1  0  0  0  0
 12 13  2  0  0  0  0
 13 34  1  0  0  0  0
 14 35  1  0  0  0  0
 14 13  1  0  0  0  0
 15 20  1  0  0  0  0
 15 14  2  0  0  0  0
 16 15  1  0  0  0  0
 17 18  2  0  0  0  0
 17 16  1  0  0  0  0
 18 19  1  0  0  0  0
 19 39  1  0  0  0  0
 19 20  2  0  0  0  0
 20 21  1  0  0  0  0
 21  4  2  0  0  0  0
 21 12  1  0  0  0  0
 22 27  1  0  0  0  0
 23 24  1  0  0  0  0
 23 22  2  0  0  0  0
 24 25  2  0  0  0  0
 25 42  1  0  0  0  0
 25 26  1  0  0  0  0
 26 43  1  0  0  0  0
 27 26  2  0  0  0  0
 27 44  1  0  0  0  0
 28 47  1  0  0  0  0
 28 46  1  0  0  0  0
 28 45  1  0  0  0  0
 29  6  1  0  0  0  0
 30  7  1  0  0  0  0
 31  8  1  0  0  0  0
 36 16  1  0  0  0  0
 37 17  1  0  0  0  0
 38 18  1  0  0  0  0
 40 23  1  0  0  0  0
 41 24  1  0  0  0  0
M  END
