1,2,3
q = 0.0, confidence = 1.0

 44 46  0  0  1  0  0  0  0  0999 V2000
   -2.1784   -0.3327    0.1102 N   0  0  0  0  0  2  0  0  0  0  0  0
    1.8377   -1.2036   -0.1101 N   0  0  0  0  0  2  0  0  0  0  0  0
    0.0483    0.5889   -1.2852 N   0  0  0  0  0  0  0  0  0  0  0  0
   -3.1619   -0.6149    0.9824 C   0  0  0  0  0  3  0  0  0  0  0  0
   -2.8659   -1.2004    1.8672 H   0  0  0  0  0  0  0  0  0  0  0  0
   -4.4751   -0.1772    0.7770 C   0  0  0  0  0  0  0  0  0  0  0  0
   -5.2599   -0.4235    1.5059 H   0  0  0  0  0  0  0  0  0  0  0  0
   -4.7526    0.5828   -0.3698 C   0  0  0  0  0  0  0  0  0  0  0  0
   -5.7720    0.9501   -0.5626 H   0  0  0  0  0  0  0  0  0  0  0  0
   -3.7152    0.8796   -1.2635 C   0  0  0  0  0  0  0  0  0  0  0  0
   -3.8970    1.4826   -2.1658 H   0  0  0  0  0  0  0  0  0  0  0  0
   -2.4248    0.3976   -0.9909 C   0  0  0  0  0  0  0  0  0  0  0  0
   -1.2631    0.6114   -1.9451 C   0  0  0  0  0  0  0  0  0  0  0  0
   -1.2924   -0.2392   -2.6573 H   0  0  0  0  0  0  0  0  0  0  0  0
   -1.4323    1.5394   -2.5357 H   0  0  0  0  0  0  0  0  0  0  0  0
    1.0953   -0.0439   -2.1033 C   0  0  0  0  0  0  0  0  0  0  0  0
    1.5110    0.6315   -2.8829 H   0  0  0  0  0  0  0  0  0  0  0  0
    0.6335   -0.9146   -2.6128 H   0  0  0  0  0  0  0  0  0  0  0  0
    2.2173   -0.5951   -1.2497 C   0  0  2  0  0  3  0  0  0  0  0  0
    3.5675   -0.5450   -1.6276 C   0  0  0  0  0  0  0  0  0  0  0  0
    3.8579   -0.0318   -2.5561 H   0  0  0  0  0  0  0  0  0  0  0  0
    4.5244   -1.1554   -0.8047 C   0  0  0  0  0  0  0  0  0  0  0  0
    5.5899   -1.1282   -1.0787 H   0  0  0  0  0  0  0  0  0  0  0  0
    4.1093   -1.7910    0.3746 C   0  0  0  0  0  0  0  0  0  0  0  0
    4.8289   -2.2760    1.0489 H   0  0  0  0  0  0  0  0  0  0  0  0
    2.7461   -1.7828    0.6907 C   0  0  0  0  0  0  0  0  0  0  0  0
    2.3562   -2.2509    1.6083 H   0  0  0  0  0  0  0  0  0  0  0  0
    0.4926    1.8908   -0.6947 C   0  0  0  0  0  0  0  0  0  0  0  0
    1.4159    1.6370   -0.1314 H   0  0  0  0  0  0  0  0  0  0  0  0
   -0.5004    2.4319    0.3419 C   0  0  0  0  0  0  0  0  0  0  0  0
   -1.4494    2.7249   -0.1614 H   0  0  0  0  0  0  0  0  0  0  0  0
   -0.7522    1.6374    1.0695 H   0  0  0  0  0  0  0  0  0  0  0  0
    0.0864    3.6500    1.0658 C   0  0  0  0  0  0  0  0  0  0  0  0
   -0.6439    4.0319    1.8085 H   0  0  0  0  0  0  0  0  0  0  0  0
    0.9749    3.3137    1.6428 H   0  0  0  0  0  0  0  0  0  0  0  0
    0.4780    4.7535    0.0767 C   0  0  0  0  0  0  0  0  0  0  0  0
   -0.4406    5.1567   -0.4074 H   0  0  0  0  0  0  0  0  0  0  0  0
    0.9493    5.6057    0.6092 H   0  0  0  0  0  0  0  0  0  0  0  0
    1.4212    4.2188   -1.0075 C   0  0  0  0  0  0  0  0  0  0  0  0
    2.3887    3.9314   -0.5390 H   0  0  0  0  0  0  0  0  0  0  0  0
    1.6554    5.0099   -1.7501 H   0  0  0  0  0  0  0  0  0  0  0  0
    0.8352    2.9885   -1.7186 C   0  0  0  0  0  0  0  0  0  0  0  0
   -0.0821    3.2875   -2.2748 H   0  0  0  0  0  0  0  0  0  0  0  0
    1.5590    2.6199   -2.4749 H   0  0  0  0  0  0  0  0  0  0  0  0
  1  4  1  0  0  0  0
  2 26  1  0  0  0  0
  3 28  1  0  0  0  0
  4  5  1  0  0  0  0
  6  4  1  0  0  0  0
  6  7  1  0  0  0  0
  8  6  2  0  0  0  0
  9  8  1  0  0  0  0
 10 12  2  0  0  0  0
 10  8  1  0  0  0  0
 11 10  1  0  0  0  0
 12  1  1  0  0  0  0
 13  3  1  0  0  0  0
 13 12  1  0  0  0  0
 14 13  1  0  0  0  0
 15 13  1  0  0  0  0
 16  3  1  0  0  0  0
 17 16  1  0  0  0  0
 18 16  1  0  0  0  0
 19 16  1  6  0  0  0
 19  2  1  0  0  0  0
 20 19  1  0  0  0  0
 20 22  2  0  0  0  0
 21 20  1  0  0  0  0
 22 24  1  0  0  0  0
 23 22  1  0  0  0  0
 24 26  2  0  0  0  0
 24 25  1  0  0  0  0
 26 27  1  0  0  0  0
 28 29  1  0  0  0  0
 28 30  1  0  0  0  0
 30 33  1  0  0  0  0
 30 32  1  0  0  0  0
 31 30  1  0  0  0  0
 33 35  1  0  0  0  0
 33 34  1  0  0  0  0
 36 38  1  0  0  0  0
 36 33  1  0  0  0  0
 37 36  1  0  0  0  0
 39 40  1  0  0  0  0
 39 36  1  0  0  0  0
 41 39  1  0  0  0  0
 42 39  1  0  0  0  0
 42 28  1  0  0  0  0
 43 42  1  0  0  0  0
 44 42  1  0  0  0  0
M  END
