1,2,17
q = 0.0, confidence = 0.998

 27 27  0  0  0  0  0  0  0  0999 V2000
   -1.5757   -1.2770    0.0000 N   0  0  0  0  0  0  0  0  0  0  0  0
   -0.5931    0.8081   -1.4327 N   0  0  0  0  0  0  0  0  0  0  0  0
   -2.2737   -0.9669   -1.2779 C   0  0  0  0  0  0  0  0  0  0  0  0
   -3.3578   -1.1945   -1.2080 H   0  0  0  0  0  0  0  0  0  0  0  0
   -1.8156   -1.6256   -2.0400 H   0  0  0  0  0  0  0  0  0  0  0  0
   -2.0312    0.4913   -1.6478 C   0  0  0  0  0  0  0  0  0  0  0  0
   -2.3222    0.6845   -2.7019 H   0  0  0  0  0  0  0  0  0  0  0  0
   -2.6373    1.1716   -1.0215 H   0  0  0  0  0  0  0  0  0  0  0  0
   -0.2899    2.2523   -1.2980 C   0  0  0  0  0  0  0  0  0  0  0  0
   -0.7178    2.7996   -2.1665 H   0  0  0  0  0  0  0  0  0  0  0  0
    0.8108    2.3538   -1.3590 H   0  0  0  0  0  0  0  0  0  0  0  0
   -0.8105    2.8765   -0.0000 C   0  0  0  0  0  0  0  0  0  0  0  0
   -1.9206    2.9045    0.0000 H   0  0  0  0  0  0  0  0  0  0  0  0
   -0.5091    3.9436   -0.0000 H   0  0  0  0  0  0  0  0  0  0  0  0
   -1.2946   -2.2713    0.0001 H   0  0  0  0  0  0  0  0  0  0  0  0
   -0.0443    0.3902   -2.2092 H   0  0  0  0  0  0  0  0  0  0  0  0
   -0.5930    0.8082    1.4327 N   0  0  0  0  0  0  0  0  0  0  0  0
   -2.2736   -0.9669    1.2780 C   0  0  0  0  0  0  0  0  0  0  0  0
   -3.3578   -1.1945    1.2082 H   0  0  0  0  0  0  0  0  0  0  0  0
   -1.8155   -1.6256    2.0401 H   0  0  0  0  0  0  0  0  0  0  0  0
   -2.0312    0.4914    1.6479 C   0  0  0  0  0  0  0  0  0  0  0  0
   -2.3220    0.6846    2.7020 H   0  0  0  0  0  0  0  0  0  0  0  0
   -2.6372    1.1716    1.0215 H   0  0  0  0  0  0  0  0  0  0  0  0
   -0.2899    2.2523    1.2979 C   0  0  0  0  0  0  0  0  0  0  0  0
   -0.7177    2.7997    2.1664 H   0  0  0  0  0  0  0  0  0  0  0  0
    0.8109    2.3539    1.3589 H   0  0  0  0  0  0  0  0  0  0  0  0
   -0.0442    0.3902    2.2091 H   0  0  0  0  0  0  0  0  0  0  0  0
  1 15  1  0  0  0  0
  1 18  1  0  0  0  0
  2  9  1  0  0  0  0
  3  4  1  0  0  0  0
  3  1  1  0  0  0  0
  5  3  1  0  0  0  0
  6  2  1  0  0  0  0
  6  3  1  0  0  0  0
  6  8  1  0  0  0  0
  7  6  1  0  0  0  0
  9 12  1  0  0  0  0
 10  9  1  0  0  0  0
 11  9  1  0  0  0  0
 12 13  1  0  0  0  0
 12 24  1  0  0  0  0
 14 12  1  0  0  0  0
 16  2  1  0  0  0  0
 17 21  1  0  0  0  0
 17 27  1  0  0  0  0
 18 21  1  0  0  0  0
 18 20  1  0  0  0  0
 19 18  1  0  0  0  0
 21 22  1  0  0  0  0
 23 21  1  0  0  0  0
 24 26  1  0  0  0  0
 24 17  1  0  0  0  0
 24 25  1  0  0  0  0
M  END
