1,5,7
q = 0.0, confidence = 0.984

 35 39  0  0  1  0  0  0  0  0999 V2000
    1.7631   -0.1083   -0.6760 N   0  0  0  0  0  2  0  0  0  0  0  0
    5.2742   -0.1356   -1.4636 C   0  0  0  0  0  0  0  0  0  0  0  0
    6.0238    0.6398   -1.6705 H   0  0  0  0  0  0  0  0  0  0  0  0
    3.3556    1.4285   -1.1292 O   0  0  0  0  0  0  0  0  0  0  0  0
   -0.1873    1.4904   -0.5127 N   0  0  0  0  0  2  0  0  0  0  0  0
   -3.7772    1.6122   -0.6554 O   0  0  0  0  0  0  0  0  0  0  0  0
   -2.2157    0.0102   -0.3133 N   0  0  0  0  0  2  0  0  0  0  0  0
    2.0631    1.1883   -0.8241 C   0  0  0  0  0  0  0  0  0  0  0  0
    2.9539   -0.7960   -0.9174 C   0  0  0  0  0  0  0  0  0  0  0  0
   -3.4650   -0.6170   -0.3487 C   0  0  0  0  0  0  0  0  0  0  0  0
    1.0027    2.1481   -0.7480 C   0  0  0  0  0  0  0  0  0  0  0  0
    1.0583    3.5314   -0.9639 C   0  0  0  0  0  0  0  0  0  0  0  0
    2.0293    4.0122   -1.1465 H   0  0  0  0  0  0  0  0  0  0  0  0
    5.5858   -1.5057   -1.4644 C   0  0  0  0  0  0  0  0  0  0  0  0
    6.6188   -1.8164   -1.6787 H   0  0  0  0  0  0  0  0  0  0  0  0
   -1.3662    3.5967   -0.8302 C   0  0  0  0  0  0  0  0  0  0  0  0
   -2.3247    4.1292   -0.9033 H   0  0  0  0  0  0  0  0  0  0  0  0
   -2.4672    1.3140   -0.5095 C   0  0  1  0  0  3  0  0  0  0  0  0
    3.9452    0.1761   -1.1876 C   0  0  0  0  0  0  0  0  0  0  0  0
    3.2745   -2.1622   -0.9290 C   0  0  0  0  0  0  0  0  0  0  0  0
    2.5081   -2.9269   -0.7454 H   0  0  0  0  0  0  0  0  0  0  0  0
   -0.1411    4.2651   -0.9816 C   0  0  0  0  0  0  0  0  0  0  0  0
   -0.1217    5.3504   -1.1522 H   0  0  0  0  0  0  0  0  0  0  0  0
   -3.8589   -1.9606   -0.2428 C   0  0  0  0  0  0  0  0  0  0  0  0
   -3.1202   -2.7634   -0.1211 H   0  0  0  0  0  0  0  0  0  0  0  0
   -1.3612    2.2106   -0.6082 C   0  0  0  0  0  0  0  0  0  0  0  0
   -5.2316   -2.2274   -0.3341 C   0  0  0  0  0  0  0  0  0  0  0  0
   -5.5818   -3.2673   -0.2630 H   0  0  0  0  0  0  0  0  0  0  0  0
   -5.7990    0.1507   -0.6443 C   0  0  0  0  0  0  0  0  0  0  0  0
   -6.5257    0.9583   -0.8049 H   0  0  0  0  0  0  0  0  0  0  0  0
   -4.4311    0.3970   -0.5535 C   0  0  0  0  0  0  0  0  0  0  0  0
    4.6074   -2.4955   -1.2073 C   0  0  0  0  0  0  0  0  0  0  0  0
    4.9018   -3.5546   -1.2341 H   0  0  0  0  0  0  0  0  0  0  0  0
   -6.1809   -1.1956   -0.5249 C   0  0  0  0  0  0  0  0  0  0  0  0
   -7.2478   -1.4543   -0.5903 H   0  0  0  0  0  0  0  0  0  0  0  0
  2 19  1  0  0  0  0
  3  2  1  0  0  0  0
  4  8  1  0  0  0  0
  6 31  1  0  0  0  0
  6 18  1  0  0  0  0
  8 11  2  0  0  0  0
  8  1  1  0  0  0  0
  9  1  1  0  0  0  0
 10  7  1  0  0  0  0
 10 24  1  0  0  0  0
 11  5  1  0  0  0  0
 12 11  1  0  0  0  0
 13 12  1  0  0  0  0
 14  2  2  0  0  0  0
 14 32  1  0  0  0  0
 15 14  1  0  0  0  0
 16 26  2  0  0  0  0
 17 16  1  0  0  0  0
 18 26  1  6  0  0  0
 18  7  1  0  0  0  0
 19  4  1  0  0  0  0
 19  9  2  0  0  0  0
 20  9  1  0  0  0  0
 20 21  1  0  0  0  0
 22 12  2  0  0  0  0
 22 16  1  0  0  0  0
 23 22  1  0  0  0  0
 24 25  1  0  0  0  0
 26  5  1  0  0  0  0
 27 28  1  0  0  0  0
 27 24  2  0  0  0  0
 29 31  1  0  0  0  0
 29 34  2  0  0  0  0
 30 29  1  0  0  0  0
 31 10  2  0  0  0  0
 32 20  2  0  0  0  0
 33 32  1  0  0  0  0
 34 27  1  0  0  0  0
 35 34  1  0  0  0  0
M  END
