1,2,3
q = 0.0, confidence = 0.998

 56 56  0  0  1  0  0  0  0  0999 V2000
    1.0590   -0.4985    1.2490 N   0  0  0  0  0  0  0  0  0  0  0  0
   -1.8482   -0.2836    1.3717 N   0  0  0  0  0  0  0  0  0  0  0  0
   -0.4973    1.5762   -0.6120 N   0  0  0  0  0  0  0  0  0  0  0  0
    2.2874    1.7985    0.0117 N   0  0  0  0  0  0  0  0  0  0  0  0
    0.3177   -0.7231    2.4945 C   0  0  0  0  0  0  0  0  0  0  0  0
   -0.9782    0.0695    2.5094 C   0  0  0  0  0  0  0  0  0  0  0  0
   -3.0499    0.5992    1.2011 C   0  0  0  0  0  0  0  0  0  0  0  0
   -2.6296    1.9714    0.6279 C   0  0  0  0  0  0  0  0  0  0  0  0
   -1.9081    2.0759   -0.7275 C   0  0  1  0  0  0  0  0  0  0  0  0
    0.4387    2.1280   -1.6147 C   0  0  0  0  0  0  0  0  0  0  0  0
    1.8749    1.6604   -1.3885 C   0  0  0  0  0  0  0  0  0  0  0  0
    3.5508    1.1004    0.3978 C   0  0  0  0  0  0  0  0  0  0  0  0
    3.3664   -0.4373    0.2971 C   0  0  0  0  0  0  0  0  0  0  0  0
    2.4129   -1.1225    1.2862 C   0  0  2  0  0  0  0  0  0  0  0  0
   -4.0370   -0.1178    0.2708 C   0  0  0  0  0  0  0  0  0  0  0  0
   -3.7617    0.8475    2.5501 C   0  0  0  0  0  0  0  0  0  0  0  0
   -2.0305    3.5269   -1.2228 C   0  0  0  0  0  0  0  0  0  0  0  0
    3.8595    1.5308    1.8403 C   0  0  0  0  0  0  0  0  0  0  0  0
    4.7274    1.5081   -0.5133 C   0  0  0  0  0  0  0  0  0  0  0  0
    2.3764   -2.6310    1.0419 C   0  0  0  0  0  0  0  0  0  0  0  0
    1.2410    0.5206    1.1196 H   0  0  0  0  0  0  0  0  0  0  0  0
    0.9211   -0.4368    3.3918 H   0  0  0  0  0  0  0  0  0  0  0  0
    0.0989   -1.8075    2.5885 H   0  0  0  0  0  0  0  0  0  0  0  0
   -0.7412    1.1534    2.4430 H   0  0  0  0  0  0  0  0  0  0  0  0
   -1.4783   -0.0790    3.4919 H   0  0  0  0  0  0  0  0  0  0  0  0
   -2.1932   -1.2430    1.5177 H   0  0  0  0  0  0  0  0  0  0  0  0
   -2.0178    2.5170    1.3839 H   0  0  0  0  0  0  0  0  0  0  0  0
   -3.5634    2.5639    0.5492 H   0  0  0  0  0  0  0  0  0  0  0  0
   -2.4070    1.4181   -1.4680 H   0  0  0  0  0  0  0  0  0  0  0  0
   -0.1295    1.8971    0.2980 H   0  0  0  0  0  0  0  0  0  0  0  0
    0.4172    3.2421   -1.6053 H   0  0  0  0  0  0  0  0  0  0  0  0
    0.1125    1.7967   -2.6212 H   0  0  0  0  0  0  0  0  0  0  0  0
    2.5279    2.2196   -2.1001 H   0  0  0  0  0  0  0  0  0  0  0  0
    1.9372    0.5931   -1.6623 H   0  0  0  0  0  0  0  0  0  0  0  0
    2.4025    2.7965    0.2392 H   0  0  0  0  0  0  0  0  0  0  0  0
    4.3655   -0.8949    0.4502 H   0  0  0  0  0  0  0  0  0  0  0  0
    3.0742   -0.7142   -0.7354 H   0  0  0  0  0  0  0  0  0  0  0  0
    2.8159   -0.9560    2.3166 H   0  0  0  0  0  0  0  0  0  0  0  0
   -3.5844   -0.3689   -0.7039 H   0  0  0  0  0  0  0  0  0  0  0  0
   -4.3811   -1.0669    0.7318 H   0  0  0  0  0  0  0  0  0  0  0  0
   -4.9294    0.5162    0.1025 H   0  0  0  0  0  0  0  0  0  0  0  0
   -3.1562    1.4574    3.2494 H   0  0  0  0  0  0  0  0  0  0  0  0
   -4.7139    1.3877    2.3827 H   0  0  0  0  0  0  0  0  0  0  0  0
   -4.0072   -0.1131    3.0479 H   0  0  0  0  0  0  0  0  0  0  0  0
   -1.6090    3.6696   -2.2350 H   0  0  0  0  0  0  0  0  0  0  0  0
   -3.1015    3.8042   -1.2763 H   0  0  0  0  0  0  0  0  0  0  0  0
   -1.5343    4.2432   -0.5332 H   0  0  0  0  0  0  0  0  0  0  0  0
    3.0045    1.3358    2.5183 H   0  0  0  0  0  0  0  0  0  0  0  0
    4.7428    0.9908    2.2338 H   0  0  0  0  0  0  0  0  0  0  0  0
    4.0839    2.6174    1.8851 H   0  0  0  0  0  0  0  0  0  0  0  0
    4.5822    1.1465   -1.5503 H   0  0  0  0  0  0  0  0  0  0  0  0
    4.8378    2.6125   -0.5428 H   0  0  0  0  0  0  0  0  0  0  0  0
    5.6810    1.0816   -0.1432 H   0  0  0  0  0  0  0  0  0  0  0  0
    1.6613   -3.1446    1.7129 H   0  0  0  0  0  0  0  0  0  0  0  0
    2.0738   -2.8513    0.0011 H   0  0  0  0  0  0  0  0  0  0  0  0
    3.3803   -3.0642    1.2246 H   0  0  0  0  0  0  0  0  0  0  0  0
  1 14  1  0  0  0  0
  1  5  1  0  0  0  0
  2 26  1  0  0  0  0
  2  6  1  0  0  0  0
  3 30  1  0  0  0  0
  4 35  1  0  0  0  0
  4 12  1  0  0  0  0
  5  6  1  0  0  0  0
  5 23  1  0  0  0  0
  5 22  1  0  0  0  0
  6 25  1  0  0  0  0
  7  2  1  0  0  0  0
  7 16  1  0  0  0  0
  8  7  1  0  0  0  0
  8 27  1  0  0  0  0
  9 29  1  6  0  0  0
  9  3  1  0  0  0  0
  9  8  1  0  0  0  0
 10 31  1  0  0  0  0
 10 11  1  0  0  0  0
 10  3  1  0  0  0  0
 11  4  1  0  0  0  0
 12 18  1  0  0  0  0
 13 12  1  0  0  0  0
 13 36  1  0  0  0  0
 13 14  1  0  0  0  0
 14 38  1  1  0  0  0
 15 40  1  0  0  0  0
 15  7  1  0  0  0  0
 16 44  1  0  0  0  0
 16 42  1  0  0  0  0
 17  9  1  0  0  0  0
 17 47  1  0  0  0  0
 18 50  1  0  0  0  0
 18 49  1  0  0  0  0
 18 48  1  0  0  0  0
 19 53  1  0  0  0  0
 19 12  1  0  0  0  0
 20 56  1  0  0  0  0
 20 14  1  0  0  0  0
 20 54  1  0  0  0  0
 21  1  1  0  0  0  0
 24  6  1  0  0  0  0
 28  8  1  0  0  0  0
 32 10  1  0  0  0  0
 33 11  1  0  0  0  0
 34 11  1  0  0  0  0
 37 13  1  0  0  0  0
 39 15  1  0  0  0  0
 41 15  1  0  0  0  0
 43 16  1  0  0  0  0
 45 17  1  0  0  0  0
 46 17  1  0  0  0  0
 51 19  1  0  0  0  0
 52 19  1  0  0  0  0
 55 20  1  0  0  0  0
M  END
