4,5,47
q = 0.0, confidence = 0.984

 63 68  0  0  1  0  0  0  0  0999 V2000
    0.8068    1.7614    0.5118 N   0  0  0  0  0  0  0  0  0  0  0  0
    3.3441    1.1069    0.0241 N   0  0  0  0  0  0  0  0  0  0  0  0
    4.4884    0.3942   -0.2783 C   0  0  0  0  0  0  0  0  0  0  0  0
   -4.6009    0.0824   -0.0727 N   0  0  0  0  0  2  0  0  0  0  0  0
   -1.8490    0.2862   -0.4013 N   0  0  0  0  0  0  0  0  0  0  0  0
    3.9449    3.5023   -0.2400 C   0  0  0  0  0  0  0  0  0  0  0  0
    5.0035    3.2929   -0.4304 H   0  0  0  0  0  0  0  0  0  0  0  0
   -4.0985    1.2824   -0.4987 C   0  0  1  0  0  3  0  0  0  0  0  0
   -0.4690    2.0150    0.8033 C   0  0  0  0  0  0  0  0  0  0  0  0
   -1.3762    0.8108    0.9234 C   0  0  0  0  0  0  0  0  0  0  0  0
   -0.8324   -0.0149    1.4214 H   0  0  0  0  0  0  0  0  0  0  0  0
   -2.2768    1.0440    1.5242 H   0  0  0  0  0  0  0  0  0  0  0  0
    4.5464   -0.9340    0.3015 C   0  0  0  0  0  0  0  0  0  0  0  0
    1.6680    2.7872    0.2994 C   0  0  0  0  0  0  0  0  0  0  0  0
    3.0478    2.4511   -0.0016 C   0  0  0  0  0  0  0  0  0  0  0  0
   -0.7531   -0.3054   -1.2106 C   0  0  0  0  0  0  0  0  0  0  0  0
    0.1631    0.3206   -1.1840 H   0  0  0  0  0  0  0  0  0  0  0  0
   -1.1065   -0.3610   -2.2618 H   0  0  0  0  0  0  0  0  0  0  0  0
   -2.7173    1.2476   -1.1205 C   0  0  0  0  0  0  0  0  0  0  0  0
   -2.8181    0.8882   -2.1662 H   0  0  0  0  0  0  0  0  0  0  0  0
   -2.2811    2.2693   -1.1637 H   0  0  0  0  0  0  0  0  0  0  0  0
    3.4894   -1.3316    1.0605 N   0  0  0  0  0  0  0  0  0  0  0  0
    5.6949   -3.0454    0.6947 C   0  0  0  0  0  0  0  0  0  0  0  0
    6.5562   -3.7157    0.5478 H   0  0  0  0  0  0  0  0  0  0  0  0
    1.2582    4.1673    0.3676 C   0  0  0  0  0  0  0  0  0  0  0  0
    3.5314   -2.5274    1.6358 C   0  0  0  0  0  0  0  0  0  0  0  0
    2.6591   -2.8126    2.2507 H   0  0  0  0  0  0  0  0  0  0  0  0
   -0.4314   -1.7091   -0.7449 C   0  0  2  0  0  3  0  0  0  0  0  0
    6.6581   -0.0314   -1.3302 C   0  0  0  0  0  0  0  0  0  0  0  0
    7.4655    0.3356   -1.9815 H   0  0  0  0  0  0  0  0  0  0  0  0
    3.5164    4.8506   -0.1830 C   0  0  0  0  0  0  0  0  0  0  0  0
    4.2595    5.6412   -0.3668 H   0  0  0  0  0  0  0  0  0  0  0  0
   -0.9663    3.3438    0.9264 C   0  0  0  0  0  0  0  0  0  0  0  0
   -2.0180    3.5165    1.2026 H   0  0  0  0  0  0  0  0  0  0  0  0
   -0.1032    4.4080    0.7055 C   0  0  0  0  0  0  0  0  0  0  0  0
   -0.4568    5.4471    0.7937 H   0  0  0  0  0  0  0  0  0  0  0  0
    6.7531   -1.2929   -0.7601 C   0  0  0  0  0  0  0  0  0  0  0  0
    7.6313   -1.9314   -0.9358 H   0  0  0  0  0  0  0  0  0  0  0  0
    2.2042    5.1974    0.1132 C   0  0  0  0  0  0  0  0  0  0  0  0
    1.8902    6.2501    0.1620 H   0  0  0  0  0  0  0  0  0  0  0  0
    0.8669   -2.2274   -0.7952 C   0  0  0  0  0  0  0  0  0  0  0  0
    1.6979   -1.5771   -1.1003 H   0  0  0  0  0  0  0  0  0  0  0  0
   -4.8543    2.4555   -0.3956 C   0  0  0  0  0  0  0  0  0  0  0  0
   -4.4233    3.4074   -0.7382 H   0  0  0  0  0  0  0  0  0  0  0  0
    5.5424    0.8122   -1.0994 C   0  0  0  0  0  0  0  0  0  0  0  0
    5.5035    1.7868   -1.5999 H   0  0  0  0  0  0  0  0  0  0  0  0
   -1.4806   -2.4787   -0.3181 N   0  0  0  0  0  2  0  0  0  0  0  0
    4.6218   -3.4252    1.4882 C   0  0  0  0  0  0  0  0  0  0  0  0
    4.6064   -4.3993    1.9988 H   0  0  0  0  0  0  0  0  0  0  0  0
   -5.8437    0.0274    0.4518 C   0  0  0  0  0  0  0  0  0  0  0  0
   -6.1891   -0.9635    0.7795 H   0  0  0  0  0  0  0  0  0  0  0  0
   -1.2638   -3.7602    0.0473 C   0  0  0  0  0  0  0  0  0  0  0  0
   -2.1436   -4.3251    0.3867 H   0  0  0  0  0  0  0  0  0  0  0  0
   -6.1506    2.3992    0.1401 C   0  0  0  0  0  0  0  0  0  0  0  0
   -6.7577    3.3124    0.2254 H   0  0  0  0  0  0  0  0  0  0  0  0
    5.6941   -1.7682    0.0646 C   0  0  0  0  0  0  0  0  0  0  0  0
    1.0918   -3.5634   -0.4315 C   0  0  0  0  0  0  0  0  0  0  0  0
    2.1080   -3.9818   -0.4682 H   0  0  0  0  0  0  0  0  0  0  0  0
   -6.6515    1.1643    0.5703 C   0  0  0  0  0  0  0  0  0  0  0  0
   -7.6583    1.0715    1.0009 H   0  0  0  0  0  0  0  0  0  0  0  0
    0.0078   -4.3419   -0.0068 C   0  0  0  0  0  0  0  0  0  0  0  0
    0.1356   -5.3917    0.2921 H   0  0  0  0  0  0  0  0  0  0  0  0
    2.6346    0.5282    0.5055 H   0  0  0  0  0  0  0  0  0  0  0  0
  1  9  1  0  0  0  0
  2 63  1  0  0  0  0
  3  2  1  0  0  0  0
  3 13  1  0  0  0  0
  4 50  1  0  0  0  0
  5 10  1  0  0  0  0
  6 31  1  0  0  0  0
  6 15  2  0  0  0  0
  7  6  1  0  0  0  0
  8 19  1  6  0  0  0
  8 43  1  0  0  0  0
  8  4  1  0  0  0  0
  9 10  1  0  0  0  0
  9 33  2  0  0  0  0
 10 11  1  0  0  0  0
 10 12  1  0  0  0  0
 13 22  1  0  0  0  0
 14 25  1  0  0  0  0
 14  1  2  0  0  0  0
 15  2  1  0  0  0  0
 15 14  1  0  0  0  0
 16 17  1  0  0  0  0
 16  5  1  0  0  0  0
 18 16  1  0  0  0  0
 19  5  1  0  0  0  0
 20 19  1  0  0  0  0
 21 19  1  0  0  0  0
 22 26  2  0  0  0  0
 23 48  2  0  0  0  0
 24 23  1  0  0  0  0
 25 35  2  0  0  0  0
 26 27  1  0  0  0  0
 28 16  1  6  0  0  0
 28 47  1  0  0  0  0
 29 45  1  0  0  0  0
 29 37  2  0  0  0  0
 30 29  1  0  0  0  0
 31 39  2  0  0  0  0
 32 31  1  0  0  0  0
 33 34  1  0  0  0  0
 35 36  1  0  0  0  0
 35 33  1  0  0  0  0
 37 56  1  0  0  0  0
 38 37  1  0  0  0  0
 39 40  1  0  0  0  0
 39 25  1  0  0  0  0
 41 28  1  0  0  0  0
 41 57  2  0  0  0  0
 42 41  1  0  0  0  0
 43 54  2  0  0  0  0
 44 43  1  0  0  0  0
 45  3  2  0  0  0  0
 46 45  1  0  0  0  0
 47 52  1  0  0  0  0
 48 26  1  0  0  0  0
 48 49  1  0  0  0  0
 50 59  2  0  0  0  0
 50 51  1  0  0  0  0
 52 53  1  0  0  0  0
 54 55  1  0  0  0  0
 54 59  1  0  0  0  0
 56 13  2  0  0  0  0
 56 23  1  0  0  0  0
 57 61  1  0  0  0  0
 58 57  1  0  0  0  0
 59 60  1  0  0  0  0
 61 52  2  0  0  0  0
 61 62  1  0  0  0  0
M  END
