1,14,17
q = -1.0, confidence = 0.074

 47 49  0  0  1  0  0  0  0  0999 V2000
   -1.9545   -0.0677   -0.4822 N   0  0  0  0  0  2  0  0  0  0  0  0
   -2.8519   -1.2458   -0.4337 C   0  0  2  0  0  0  0  0  0  0  0  0
   -4.0606   -0.7402   -1.2370 C   0  0  0  0  0  0  0  0  0  0  0  0
   -3.9661    0.7022   -1.1598 O   0  0  0  0  0  0  0  0  0  0  0  0
   -2.6892    0.9861   -0.8048 C   0  0  0  0  0  0  0  0  0  0  0  0
   -3.1599   -1.6620    1.0268 C   0  0  0  0  0  0  0  0  0  0  0  0
   -3.8546   -0.5647    1.8387 C   0  0  0  0  0  0  0  0  0  0  0  0
   -3.9380   -2.9815    1.0422 C   0  0  0  0  0  0  0  0  0  0  0  0
   -2.3032    2.3503   -0.7819 C   0  0  0  0  0  0  0  0  0  0  0  0
   -1.0514    2.7788   -0.3674 C   0  0  0  0  0  0  0  0  0  0  0  0
   -0.6419    4.1774   -0.2322 C   0  0  0  0  0  0  0  0  0  0  0  0
    0.6415    4.1774    0.2320 C   0  0  0  0  0  0  0  0  0  0  0  0
    1.0511    2.7789    0.3675 C   0  0  0  0  0  0  0  0  0  0  0  0
   -0.0002    1.9681    0.0001 N   0  0  0  0  0  2  0  0  0  0  0  0
    2.3028    2.3504    0.7821 C   0  0  0  0  0  0  0  0  0  0  0  0
    2.6888    0.9862    0.8051 C   0  0  0  0  0  0  0  0  0  0  0  0
    1.9543   -0.0676    0.4820 N   0  0  0  0  0  2  0  0  0  0  0  0
    2.8519   -1.2457    0.4338 C   0  0  2  0  0  0  0  0  0  0  0  0
    4.0601   -0.7400    1.2378 C   0  0  0  0  0  0  0  0  0  0  0  0
    3.9656    0.7023    1.1606 O   0  0  0  0  0  0  0  0  0  0  0  0
    3.1605   -1.6616   -1.0266 C   0  0  0  0  0  0  0  0  0  0  0  0
    3.9391   -2.9809   -1.0418 C   0  0  0  0  0  0  0  0  0  0  0  0
    3.8551   -0.5640   -1.8381 C   0  0  0  0  0  0  0  0  0  0  0  0
   -2.3486   -2.0971   -0.9288 H   0  0  0  0  0  0  0  0  0  0  0  0
   -5.0399   -1.0448   -0.8207 H   0  0  0  0  0  0  0  0  0  0  0  0
   -4.0141   -1.0333   -2.3079 H   0  0  0  0  0  0  0  0  0  0  0  0
   -2.1617   -1.8553    1.4730 H   0  0  0  0  0  0  0  0  0  0  0  0
   -3.9943   -0.8924    2.8885 H   0  0  0  0  0  0  0  0  0  0  0  0
   -3.2542    0.3669    1.8611 H   0  0  0  0  0  0  0  0  0  0  0  0
   -4.8597   -0.3153    1.4373 H   0  0  0  0  0  0  0  0  0  0  0  0
   -4.1063   -3.3255    2.0824 H   0  0  0  0  0  0  0  0  0  0  0  0
   -4.9378   -2.8826    0.5665 H   0  0  0  0  0  0  0  0  0  0  0  0
   -3.3810   -3.7784    0.5087 H   0  0  0  0  0  0  0  0  0  0  0  0
   -3.0597    3.0888   -1.0733 H   0  0  0  0  0  0  0  0  0  0  0  0
   -1.2845    5.0353   -0.4633 H   0  0  0  0  0  0  0  0  0  0  0  0
    1.2841    5.0353    0.4630 H   0  0  0  0  0  0  0  0  0  0  0  0
    3.0593    3.0890    1.0735 H   0  0  0  0  0  0  0  0  0  0  0  0
    2.3483   -2.0970    0.9285 H   0  0  0  0  0  0  0  0  0  0  0  0
    5.0396   -1.0446    0.8220 H   0  0  0  0  0  0  0  0  0  0  0  0
    4.0131   -1.0333    2.3086 H   0  0  0  0  0  0  0  0  0  0  0  0
    2.1625   -1.8553   -1.4732 H   0  0  0  0  0  0  0  0  0  0  0  0
    4.1080   -3.3246   -2.0820 H   0  0  0  0  0  0  0  0  0  0  0  0
    4.9387   -2.8816   -0.5656 H   0  0  0  0  0  0  0  0  0  0  0  0
    3.3821   -3.7780   -0.5087 H   0  0  0  0  0  0  0  0  0  0  0  0
    3.9952   -0.8915   -2.8880 H   0  0  0  0  0  0  0  0  0  0  0  0
    3.2544    0.3674   -1.8606 H   0  0  0  0  0  0  0  0  0  0  0  0
    4.8600   -0.3143   -1.4364 H   0  0  0  0  0  0  0  0  0  0  0  0
  1  2  1  0  0  0  0
  2 24  1  6  0  0  0
  2  6  1  0  0  0  0
  3  4  1  0  0  0  0
  3 25  1  0  0  0  0
  3  2  1  0  0  0  0
  4  5  1  0  0  0  0
  5  9  2  0  0  0  0
  5  1  1  0  0  0  0
  6  8  1  0  0  0  0
  6 27  1  0  0  0  0
  6  7  1  0  0  0  0
  7 29  1  0  0  0  0
  7 28  1  0  0  0  0
  8 31  1  0  0  0  0
  9 10  1  0  0  0  0
 10 11  2  0  0  0  0
 10 14  1  0  0  0  0
 11 12  1  0  0  0  0
 12 13  2  0  0  0  0
 12 36  1  0  0  0  0
 13 15  1  0  0  0  0
 14 13  1  0  0  0  0
 15 16  2  0  0  0  0
 15 37  1  0  0  0  0
 16 20  1  0  0  0  0
 17 16  1  0  0  0  0
 18 17  1  0  0  0  0
 18 38  1  1  0  0  0
 18 19  1  0  0  0  0
 19 40  1  0  0  0  0
 20 19  1  0  0  0  0
 21 18  1  0  0  0  0
 22 21  1  0  0  0  0
 22 43  1  0  0  0  0
 22 44  1  0  0  0  0
 23 47  1  0  0  0  0
 23 21  1  0  0  0  0
 26  3  1  0  0  0  0
 30  7  1  0  0  0  0
 32  8  1  0  0  0  0
 33  8  1  0  0  0  0
 34  9  1  0  0  0  0
 35 11  1  0  0  0  0
 39 19  1  0  0  0  0
 41 21  1  0  0  0  0
 42 22  1  0  0  0  0
 45 23  1  0  0  0  0
 46 23  1  0  0  0  0
M  END
