1,5,9
q = 0.0, confidence = 0.996

 33 33  0  0  0  0  0  0  0  0999 V2000
   -0.2312    0.0084    1.8695 N   0  0  0  0  0  0  0  0  0  0  0  0
    0.2700   -1.2425    2.5073 C   0  0  0  0  0  0  0  0  0  0  0  0
    0.2864   -2.4500    1.5647 C   0  0  0  0  0  0  0  0  0  0  0  0
    1.3320   -2.3791    0.4414 C   0  0  0  0  0  0  0  0  0  0  0  0
    0.8528   -1.6393   -0.7598 N   0  0  0  0  0  0  0  0  0  0  0  0
    1.9296   -1.3102   -1.7373 C   0  0  0  0  0  0  0  0  0  0  0  0
    2.6811   -0.0086   -1.4279 C   0  0  0  0  0  0  0  0  0  0  0  0
    1.9327    1.2921   -1.7480 C   0  0  0  0  0  0  0  0  0  0  0  0
    0.8564    1.6317   -0.7735 N   0  0  0  0  0  0  0  0  0  0  0  0
    1.3368    2.3803    0.4217 C   0  0  0  0  0  0  0  0  0  0  0  0
    0.2907    2.4633    1.5436 C   0  0  0  0  0  0  0  0  0  0  0  0
    0.2713    1.2641    2.4969 C   0  0  0  0  0  0  0  0  0  0  0  0
   -1.2627    0.0092    1.9410 H   0  0  0  0  0  0  0  0  0  0  0  0
   -0.3239   -1.4741    3.4172 H   0  0  0  0  0  0  0  0  0  0  0  0
    1.3060   -1.0435    2.8521 H   0  0  0  0  0  0  0  0  0  0  0  0
   -0.7264   -2.6313    1.1398 H   0  0  0  0  0  0  0  0  0  0  0  0
    0.5091   -3.3433    2.1828 H   0  0  0  0  0  0  0  0  0  0  0  0
    1.6466   -3.4006    0.1365 H   0  0  0  0  0  0  0  0  0  0  0  0
    2.2456   -1.8674    0.8104 H   0  0  0  0  0  0  0  0  0  0  0  0
    0.1618   -2.2385   -1.2367 H   0  0  0  0  0  0  0  0  0  0  0  0
    1.4543   -1.2325   -2.7368 H   0  0  0  0  0  0  0  0  0  0  0  0
    2.6485   -2.1568   -1.7906 H   0  0  0  0  0  0  0  0  0  0  0  0
    3.6053   -0.0123   -2.0411 H   0  0  0  0  0  0  0  0  0  0  0  0
    3.0404   -0.0047   -0.3750 H   0  0  0  0  0  0  0  0  0  0  0  0
    1.4576    1.2074   -2.7470 H   0  0  0  0  0  0  0  0  0  0  0  0
    2.6535    2.1365   -1.8080 H   0  0  0  0  0  0  0  0  0  0  0  0
    0.1669    2.2286   -1.2556 H   0  0  0  0  0  0  0  0  0  0  0  0
    1.6543    3.3984    0.1085 H   0  0  0  0  0  0  0  0  0  0  0  0
    2.2489    1.8692    0.7956 H   0  0  0  0  0  0  0  0  0  0  0  0
   -0.7215    2.6428    1.1165 H   0  0  0  0  0  0  0  0  0  0  0  0
    0.5147    3.3615    2.1540 H   0  0  0  0  0  0  0  0  0  0  0  0
   -0.3233    1.5047    3.4039 H   0  0  0  0  0  0  0  0  0  0  0  0
    1.3065    1.0666    2.8447 H   0  0  0  0  0  0  0  0  0  0  0  0
  1 13  1  0  0  0  0
  1 12  1  0  0  0  0
  1  2  1  0  0  0  0
  2 15  1  0  0  0  0
  2 14  1  0  0  0  0
  3 17  1  0  0  0  0
  3  2  1  0  0  0  0
  4 19  1  0  0  0  0
  4  3  1  0  0  0  0
  5  4  1  0  0  0  0
  6  7  1  0  0  0  0
  6  5  1  0  0  0  0
  7 24  1  0  0  0  0
  8  7  1  0  0  0  0
  8  9  1  0  0  0  0
  9 10  1  0  0  0  0
 10 29  1  0  0  0  0
 10 11  1  0  0  0  0
 11 31  1  0  0  0  0
 11 12  1  0  0  0  0
 12 33  1  0  0  0  0
 12 32  1  0  0  0  0
 16  3  1  0  0  0  0
 18  4  1  0  0  0  0
 20  5  1  0  0  0  0
 21  6  1  0  0  0  0
 22  6  1  0  0  0  0
 23  7  1  0  0  0  0
 25  8  1  0  0  0  0
 26  8  1  0  0  0  0
 27  9  1  0  0  0  0
 28 10  1  0  0  0  0
 30 11  1  0  0  0  0
M  END
