5,8,12
q = 0.0, confidence = 0.984

 48 51  0  0  1  0  0  0  0  0999 V2000
    3.4622   -1.4367    2.6533 Br  0  0  0  0  0  0  0  0  0  0  0  0
    0.9317    5.0636    0.3901 Br  0  0  0  0  0  0  0  0  0  0  0  0
   -0.6965   -1.8670    2.0339 C   0  0  0  0  0  3  0  0  0  0  0  0
   -1.5317   -2.4406    2.4751 H   0  0  0  0  0  0  0  0  0  0  0  0
   -0.9990   -1.0782    1.0627 N   0  0  0  0  0  2  0  0  0  0  0  0
   -0.1513    3.5397    0.1898 C   0  0  0  0  0  0  0  0  0  0  0  0
    0.9021   -1.0947   -2.0157 N   0  0  0  0  0  0  0  0  0  0  0  0
   -1.7554    1.2596   -0.0844 N   0  0  0  0  0  2  0  0  0  0  0  0
    2.3277   -0.9447   -1.8689 C   0  0  0  0  0  0  0  0  0  0  0  0
    0.3790    2.2613    0.4444 C   0  0  0  0  0  0  0  0  0  0  0  0
    1.4214    2.1450    0.7654 H   0  0  0  0  0  0  0  0  0  0  0  0
   -1.2680   -1.0706   -1.5630 N   0  0  0  0  0  2  0  0  0  0  0  0
    0.0668   -0.3045    0.3524 C   0  0  2  0  0  0  0  0  0  0  0  0
   -1.1156   -1.5055   -2.8617 C   0  0  0  0  0  0  0  0  0  0  0  0
   -1.9729   -1.7744   -3.4875 H   0  0  0  0  0  0  0  0  0  0  0  0
   -0.4496    1.1502    0.2697 C   0  0  2  0  0  3  0  0  0  0  0  0
    2.9129    0.2940   -2.2088 C   0  0  0  0  0  0  0  0  0  0  0  0
    3.0695   -2.0280   -1.3450 C   0  0  0  0  0  0  0  0  0  0  0  0
   -0.0459   -0.8363   -1.0727 C   0  0  2  0  0  3  0  0  0  0  0  0
   -1.4846    3.6568   -0.2339 C   0  0  0  0  0  0  0  0  0  0  0  0
   -1.9271    4.6336   -0.4709 H   0  0  0  0  0  0  0  0  0  0  0  0
    1.4504   -0.4189    0.9410 C   0  0  0  0  0  0  0  0  0  0  0  0
    2.2553    0.1686    0.4818 H   0  0  0  0  0  0  0  0  0  0  0  0
   -2.2461    2.4896   -0.3476 C   0  0  0  0  0  0  0  0  0  0  0  0
   -3.2948    2.5367   -0.6735 H   0  0  0  0  0  0  0  0  0  0  0  0
    4.2936    0.4384   -1.9765 C   0  0  0  0  0  0  0  0  0  0  0  0
    4.7742    1.3970   -2.2271 H   0  0  0  0  0  0  0  0  0  0  0  0
    1.7125   -1.2502    1.9646 C   0  0  0  0  0  0  0  0  0  0  0  0
    0.6618   -2.0928    2.6154 C   0  0  0  0  0  0  0  0  0  0  0  0
    0.6211   -1.9069    3.7134 H   0  0  0  0  0  0  0  0  0  0  0  0
    0.9093   -3.1772    2.5364 H   0  0  0  0  0  0  0  0  0  0  0  0
    5.0738   -0.6025   -1.4382 C   0  0  0  0  0  0  0  0  0  0  0  0
    0.2339   -1.5208   -3.1587 C   0  0  0  0  0  0  0  0  0  0  0  0
    0.7835   -1.7937   -4.0647 H   0  0  0  0  0  0  0  0  0  0  0  0
    4.4430   -1.8272   -1.1376 C   0  0  0  0  0  0  0  0  0  0  0  0
    5.0396   -2.6532   -0.7199 H   0  0  0  0  0  0  0  0  0  0  0  0
    2.4024   -3.3333   -1.0014 C   0  0  0  0  0  0  0  0  0  0  0  0
    3.1289   -4.0533   -0.5826 H   0  0  0  0  0  0  0  0  0  0  0  0
    1.9311   -3.8004   -1.8906 H   0  0  0  0  0  0  0  0  0  0  0  0
    1.5935   -3.1914   -0.2539 H   0  0  0  0  0  0  0  0  0  0  0  0
    6.5481   -0.4263   -1.1892 C   0  0  0  0  0  0  0  0  0  0  0  0
    6.8006   -0.6398   -0.1303 H   0  0  0  0  0  0  0  0  0  0  0  0
    6.8875    0.5998   -1.4244 H   0  0  0  0  0  0  0  0  0  0  0  0
    7.1414   -1.1317   -1.8071 H   0  0  0  0  0  0  0  0  0  0  0  0
    2.0954    1.4138   -2.8009 C   0  0  0  0  0  0  0  0  0  0  0  0
    1.7842    1.1791   -3.8405 H   0  0  0  0  0  0  0  0  0  0  0  0
    2.6741    2.3555   -2.8308 H   0  0  0  0  0  0  0  0  0  0  0  0
    1.1637    1.6034   -2.2297 H   0  0  0  0  0  0  0  0  0  0  0  0
  3  4  1  0  0  0  0
  3 29  1  0  0  0  0
  5  3  1  0  0  0  0
  6  2  1  0  0  0  0
  6 10  2  0  0  0  0
  7  9  1  0  0  0  0
  7 19  1  0  0  0  0
  9 18  1  0  0  0  0
 10 11  1  0  0  0  0
 13 22  1  1  0  0  0
 13  5  1  0  0  0  0
 14 12  1  0  0  0  0
 15 14  1  0  0  0  0
 16  8  1  6  0  0  0
 16 13  1  0  0  0  0
 16 10  1  0  0  0  0
 17 26  1  0  0  0  0
 17  9  2  0  0  0  0
 18 35  2  0  0  0  0
 18 37  1  0  0  0  0
 19 12  1  6  0  0  0
 19 13  1  0  0  0  0
 20  6  1  0  0  0  0
 21 20  1  0  0  0  0
 22 28  2  0  0  0  0
 23 22  1  0  0  0  0
 24 20  2  0  0  0  0
 24  8  1  0  0  0  0
 25 24  1  0  0  0  0
 26 32  2  0  0  0  0
 27 26  1  0  0  0  0
 28 29  1  0  0  0  0
 28  1  1  0  0  0  0
 29 30  1  0  0  0  0
 31 29  1  0  0  0  0
 32 41  1  0  0  0  0
 32 35  1  0  0  0  0
 33 14  2  0  0  0  0
 33  7  1  0  0  0  0
 34 33  1  0  0  0  0
 35 36  1  0  0  0  0
 37 38  1  0  0  0  0
 37 40  1  0  0  0  0
 39 37  1  0  0  0  0
 41 42  1  0  0  0  0
 43 41  1  0  0  0  0
 44 41  1  0  0  0  0
 45 48  1  0  0  0  0
 45 17  1  0  0  0  0
 46 45  1  0  0  0  0
 47 45  1  0  0  0  0
M  END
