1,2,3
q = 0.0, confidence = 1.0

 29 30  0  0  1  0  0  0  0  0999 V2000
    1.9542   -0.4301   -0.2963 N   0  0  0  0  0  2  0  0  0  0  0  0
    0.0445    1.3460   -0.3865 N   0  0  0  0  0  2  0  0  0  0  0  0
   -2.1083   -0.1894   -0.2520 N   0  0  0  0  0  2  0  0  0  0  0  0
    2.8423   -1.4189   -0.4434 C   0  0  0  0  0  3  0  0  0  0  0  0
    2.4248   -2.4352   -0.3233 H   0  0  0  0  0  0  0  0  0  0  0  0
    4.1936   -1.1627   -0.7300 C   0  0  0  0  0  0  0  0  0  0  0  0
    4.9024   -1.9960   -0.8403 H   0  0  0  0  0  0  0  0  0  0  0  0
    4.6074    0.1691   -0.8634 C   0  0  0  0  0  0  0  0  0  0  0  0
    5.6575    0.4096   -1.0881 H   0  0  0  0  0  0  0  0  0  0  0  0
    3.6665    1.1997   -0.7116 C   0  0  0  0  0  0  0  0  0  0  0  0
    3.9684    2.2500   -0.8270 H   0  0  0  0  0  0  0  0  0  0  0  0
    2.3310    0.8618   -0.4327 C   0  0  0  0  0  0  0  0  0  0  0  0
    1.2216    1.8534   -0.2670 C   0  0  2  0  0  3  0  0  0  0  0  0
    1.4988    3.2633    0.1627 C   0  0  0  0  0  0  0  0  0  0  0  0
    2.5311    3.5969   -0.0432 H   0  0  0  0  0  0  0  0  0  0  0  0
    1.3420    3.2975    1.2643 H   0  0  0  0  0  0  0  0  0  0  0  0
    0.7902    3.9796   -0.2968 H   0  0  0  0  0  0  0  0  0  0  0  0
   -1.1766    2.0462   -0.0921 C   0  0  0  0  0  0  0  0  0  0  0  0
   -1.2853    3.0050   -0.6468 H   0  0  0  0  0  0  0  0  0  0  0  0
   -1.1791    2.2784    1.0017 H   0  0  0  0  0  0  0  0  0  0  0  0
   -2.3569    1.1289   -0.3621 C   0  0  2  0  0  3  0  0  0  0  0  0
   -3.6414    1.6034   -0.6690 C   0  0  0  0  0  0  0  0  0  0  0  0
   -3.8233    2.6850   -0.7610 H   0  0  0  0  0  0  0  0  0  0  0  0
   -4.6761    0.6765   -0.8597 C   0  0  0  0  0  0  0  0  0  0  0  0
   -5.6921    1.0230   -1.1032 H   0  0  0  0  0  0  0  0  0  0  0  0
   -4.3987   -0.6943   -0.7461 C   0  0  0  0  0  0  0  0  0  0  0  0
   -5.1823   -1.4510   -0.8953 H   0  0  0  0  0  0  0  0  0  0  0  0
   -3.0894   -1.0874   -0.4409 C   0  0  0  0  0  0  0  0  0  0  0  0
   -2.7744   -2.1420   -0.3463 H   0  0  0  0  0  0  0  0  0  0  0  0
  2 18  1  0  0  0  0
  4  5  1  0  0  0  0
  4  1  1  0  0  0  0
  6  4  1  0  0  0  0
  7  6  1  0  0  0  0
  8  6  2  0  0  0  0
  8 10  1  0  0  0  0
  9  8  1  0  0  0  0
 10 12  2  0  0  0  0
 11 10  1  0  0  0  0
 12  1  1  0  0  0  0
 12 13  1  0  0  0  0
 13  2  1  1  0  0  0
 13 14  1  0  0  0  0
 14 16  1  0  0  0  0
 15 14  1  0  0  0  0
 17 14  1  0  0  0  0
 18 20  1  0  0  0  0
 19 18  1  0  0  0  0
 21  3  1  0  0  0  0
 21 18  1  1  0  0  0
 22 21  1  0  0  0  0
 23 22  1  0  0  0  0
 24 26  1  0  0  0  0
 24 22  2  0  0  0  0
 25 24  1  0  0  0  0
 26 28  2  0  0  0  0
 27 26  1  0  0  0  0
 28 29  1  0  0  0  0
 28  3  1  0  0  0  0
M  END
