2,3,4
q = -1.0, confidence = 0.002

 33 34  0  0  0  0  0  0  0  0999 V2000
   -1.9073    3.2109   -0.3345 O   0  0  0  0  0  0  0  0  0  0  0  0
   -1.4183    0.9347   -0.5250 N   0  0  0  0  0  2  0  0  0  0  0  0
    1.0877    1.3369   -0.0581 N   0  0  0  0  0  2  0  0  0  0  0  0
    2.0292   -1.0616   -0.0992 N   0  0  0  0  0  2  0  0  0  0  0  0
   -6.1203    0.5300    0.6082 C   0  0  0  0  0  0  0  0  0  0  0  0
   -6.1183    1.5562    1.0132 H   0  0  0  0  0  0  0  0  0  0  0  0
   -7.1015    0.0674    0.4172 H   0  0  0  0  0  0  0  0  0  0  0  0
   -4.9707   -0.1252    0.3690 C   0  0  0  0  0  0  0  0  0  0  0  0
   -5.0206   -1.1524   -0.0422 H   0  0  0  0  0  0  0  0  0  0  0  0
   -3.5906    0.4169    0.5918 C   0  0  0  0  0  0  0  0  0  0  0  0
   -3.0160   -0.2773    1.2434 H   0  0  0  0  0  0  0  0  0  0  0  0
   -3.6353    1.4075    1.0891 H   0  0  0  0  0  0  0  0  0  0  0  0
   -2.8059    0.5621   -0.7321 C   0  0  0  0  0  0  0  0  0  0  0  0
   -2.8175   -0.3984   -1.2862 H   0  0  0  0  0  0  0  0  0  0  0  0
   -3.2976    1.3327   -1.3642 H   0  0  0  0  0  0  0  0  0  0  0  0
   -1.1201    2.2562   -0.3253 C   0  0  0  0  0  0  0  0  0  0  0  0
    0.3599    2.4678   -0.0699 C   0  0  0  0  0  0  0  0  0  0  0  0
    0.9873    3.6972    0.1638 C   0  0  0  0  0  0  0  0  0  0  0  0
    0.3699    4.6068    0.1523 H   0  0  0  0  0  0  0  0  0  0  0  0
    2.3725    3.7030    0.4053 C   0  0  0  0  0  0  0  0  0  0  0  0
    2.8945    4.6534    0.5913 H   0  0  0  0  0  0  0  0  0  0  0  0
    3.1030    2.5018    0.4174 C   0  0  0  0  0  0  0  0  0  0  0  0
    4.1843    2.5064    0.6118 H   0  0  0  0  0  0  0  0  0  0  0  0
    2.4237    1.2921    0.1799 C   0  0  0  0  0  0  0  0  0  0  0  0
    2.9636   -0.0818    0.1550 C   0  0  0  0  0  0  0  0  0  0  0  0
    4.3093   -0.4210    0.3675 C   0  0  0  0  0  0  0  0  0  0  0  0
    5.0463    0.3681    0.5712 H   0  0  0  0  0  0  0  0  0  0  0  0
    4.6974   -1.7659    0.3177 C   0  0  0  0  0  0  0  0  0  0  0  0
    5.7481   -2.0447    0.4842 H   0  0  0  0  0  0  0  0  0  0  0  0
    3.7297   -2.7484    0.0519 C   0  0  0  0  0  0  0  0  0  0  0  0
    3.9947   -3.8138    0.0021 H   0  0  0  0  0  0  0  0  0  0  0  0
    2.4029   -2.3545   -0.1518 C   0  0  0  0  0  0  0  0  0  0  0  0
    1.5890   -3.0639   -0.3704 H   0  0  0  0  0  0  0  0  0  0  0  0
  1 16  2  0  0  0  0
  2 16  1  0  0  0  0
  3 24  1  0  0  0  0
  4 25  1  0  0  0  0
  5  6  1  0  0  0  0
  7  5  1  0  0  0  0
  8 10  1  0  0  0  0
  8  5  2  0  0  0  0
  9  8  1  0  0  0  0
 10 12  1  0  0  0  0
 10 11  1  0  0  0  0
 13  2  1  0  0  0  0
 13 10  1  0  0  0  0
 14 13  1  0  0  0  0
 15 13  1  0  0  0  0
 16 17  1  0  0  0  0
 17  3  1  0  0  0  0
 17 18  2  0  0  0  0
 18 20  1  0  0  0  0
 19 18  1  0  0  0  0
 20 22  2  0  0  0  0
 20 21  1  0  0  0  0
 22 23  1  0  0  0  0
 24 22  1  0  0  0  0
 25 24  2  0  0  0  0
 25 26  1  0  0  0  0
 26 27  1  0  0  0  0
 28 26  2  0  0  0  0
 28 29  1  0  0  0  0
 30 28  1  0  0  0  0
 31 30  1  0  0  0  0
 32  4  1  0  0  0  0
 32 30  2  0  0  0  0
 33 32  1  0  0  0  0
M  END
