1,2,3
q = 0.0, confidence = 0.99

 41 43  0  0  0  0  0  0  0  0999 V2000
   -0.4564   -1.0375   -0.9597 N   0  0  0  0  0  2  0  0  0  0  0  0
    2.6390   -0.1848   -0.0670 N   0  0  0  0  0  2  0  0  0  0  0  0
    0.3458    1.2509    0.4562 N   0  0  0  0  0  0  0  0  0  0  0  0
   -1.0834   -2.1587   -1.3696 C   0  0  0  0  0  3  0  0  0  0  0  0
   -2.1553   -2.1314   -2.2678 C   0  0  0  0  0  0  0  0  0  0  0  0
   -2.5949   -0.8895   -2.7480 C   0  0  0  0  0  0  0  0  0  0  0  0
   -1.9410    0.2749   -2.3236 C   0  0  0  0  0  0  0  0  0  0  0  0
   -0.8710    0.1657   -1.4255 C   0  0  0  0  0  0  0  0  0  0  0  0
   -0.0624    1.3602   -0.9654 C   0  0  0  0  0  0  0  0  0  0  0  0
    3.6338   -0.9216   -0.6013 C   0  0  0  0  0  3  0  0  0  0  0  0
    4.8310   -0.3515   -1.0480 C   0  0  0  0  0  0  0  0  0  0  0  0
    4.9920    1.0378   -0.9432 C   0  0  0  0  0  0  0  0  0  0  0  0
    3.9525    1.8038   -0.3971 C   0  0  0  0  0  0  0  0  0  0  0  0
    2.7875    1.1571    0.0415 C   0  0  0  0  0  0  0  0  0  0  0  0
    1.6459    1.9021    0.7009 C   0  0  0  0  0  0  0  0  0  0  0  0
   -0.6897    1.8005    1.3844 C   0  0  0  0  0  0  0  0  0  0  0  0
   -2.0789    1.2833    1.1016 C   0  0  0  0  0  0  0  0  0  0  0  0
   -2.4387   -0.0400    1.4265 C   0  0  0  0  0  0  0  0  0  0  0  0
   -3.7053   -0.5376    1.0936 C   0  0  0  0  0  0  0  0  0  0  0  0
   -4.6367    0.2886    0.4420 C   0  0  0  0  0  0  0  0  0  0  0  0
   -4.3005    1.6172    0.1404 C   0  0  0  0  0  0  0  0  0  0  0  0
   -3.0288    2.1098    0.4699 C   0  0  0  0  0  0  0  0  0  0  0  0
   -0.7124   -3.1088   -0.9548 H   0  0  0  0  0  0  0  0  0  0  0  0
   -2.6403   -3.0691   -2.5733 H   0  0  0  0  0  0  0  0  0  0  0  0
   -3.4451   -0.8268   -3.4432 H   0  0  0  0  0  0  0  0  0  0  0  0
   -2.2655    1.2659   -2.6709 H   0  0  0  0  0  0  0  0  0  0  0  0
   -0.6118    2.3058   -1.1647 H   0  0  0  0  0  0  0  0  0  0  0  0
    0.8623    1.3916   -1.5803 H   0  0  0  0  0  0  0  0  0  0  0  0
    3.4577   -2.0064   -0.6707 H   0  0  0  0  0  0  0  0  0  0  0  0
    5.6185   -0.9894   -1.4734 H   0  0  0  0  0  0  0  0  0  0  0  0
    5.9171    1.5224   -1.2892 H   0  0  0  0  0  0  0  0  0  0  0  0
    4.0408    2.8966   -0.3081 H   0  0  0  0  0  0  0  0  0  0  0  0
    1.6455    2.9696    0.3783 H   0  0  0  0  0  0  0  0  0  0  0  0
    1.8125    1.9069    1.8002 H   0  0  0  0  0  0  0  0  0  0  0  0
   -0.3688    1.5374    2.4132 H   0  0  0  0  0  0  0  0  0  0  0  0
   -0.6910    2.9130    1.3101 H   0  0  0  0  0  0  0  0  0  0  0  0
   -1.7132   -0.6890    1.9410 H   0  0  0  0  0  0  0  0  0  0  0  0
   -5.6338   -0.1001    0.1866 H   0  0  0  0  0  0  0  0  0  0  0  0
   -3.9737   -1.5725    1.3534 H   0  0  0  0  0  0  0  0  0  0  0  0
   -5.0343    2.2758   -0.3478 H   0  0  0  0  0  0  0  0  0  0  0  0
   -2.7699    3.1551    0.2363 H   0  0  0  0  0  0  0  0  0  0  0  0
  2 14  1  0  0  0  0
  3 15  1  0  0  0  0
  3 16  1  0  0  0  0
  4  1  1  0  0  0  0
  4 23  1  0  0  0  0
  5  4  1  0  0  0  0
  6  7  1  0  0  0  0
  6  5  2  0  0  0  0
  7  8  2  0  0  0  0
  8  9  1  0  0  0  0
  8  1  1  0  0  0  0
  9  3  1  0  0  0  0
 10  2  1  0  0  0  0
 11 12  2  0  0  0  0
 11 10  1  0  0  0  0
 12 13  1  0  0  0  0
 13 32  1  0  0  0  0
 13 14  2  0  0  0  0
 14 15  1  0  0  0  0
 15 34  1  0  0  0  0
 16 35  1  0  0  0  0
 17 16  1  0  0  0  0
 17 18  1  0  0  0  0
 18 37  1  0  0  0  0
 19 39  1  0  0  0  0
 19 18  2  0  0  0  0
 20 19  1  0  0  0  0
 21 20  2  0  0  0  0
 21 22  1  0  0  0  0
 22 17  2  0  0  0  0
 24  5  1  0  0  0  0
 25  6  1  0  0  0  0
 26  7  1  0  0  0  0
 27  9  1  0  0  0  0
 28  9  1  0  0  0  0
 29 10  1  0  0  0  0
 30 11  1  0  0  0  0
 31 12  1  0  0  0  0
 33 15  1  0  0  0  0
 36 16  1  0  0  0  0
 38 20  1  0  0  0  0
 40 21  1  0  0  0  0
 41 22  1  0  0  0  0
M  END
