1,3,5
q = 0.0, confidence = 0.974

 61 64  0  0  1  0  0  0  0  0999 V2000
   -0.6815    1.6539    0.3567 N   0  0  0  0  0  2  0  0  0  0  0  0
   -4.1784    0.6711    0.2440 N   0  0  0  0  0  0  0  0  0  0  0  0
   -2.1606   -0.3355    0.2334 N   0  0  0  0  0  2  0  0  0  0  0  0
   -2.8159    0.8458    0.3126 C   0  0  0  0  0  0  0  0  0  0  0  0
    1.5028    0.5557    0.1474 N   0  0  0  0  0  2  0  0  0  0  0  0
   -1.9952    2.0347    0.3743 C   0  0  0  0  0  0  0  0  0  0  0  0
    0.3431    2.5572    0.2917 C   0  0  0  0  0  0  0  0  0  0  0  0
    1.6194    1.8832    0.2048 C   0  0  2  0  0  3  0  0  0  0  0  0
   -4.4040   -0.6949    0.0965 C   0  0  0  0  0  0  0  0  0  0  0  0
   -3.1192   -1.3198    0.0810 C   0  0  0  0  0  0  0  0  0  0  0  0
    3.3782   -0.5111   -1.0485 C   0  0  0  0  0  0  0  0  0  0  0  0
    2.6716   -0.2628    0.1541 C   0  0  0  0  0  0  0  0  0  0  0  0
    3.0837   -0.8015    1.4020 C   0  0  0  0  0  0  0  0  0  0  0  0
   -3.0022   -2.7142   -0.0747 C   0  0  0  0  0  0  0  0  0  0  0  0
   -1.9993   -3.1630   -0.1021 H   0  0  0  0  0  0  0  0  0  0  0  0
   -5.5903   -1.4367   -0.0240 C   0  0  0  0  0  0  0  0  0  0  0  0
   -6.5814   -0.9608   -0.0116 H   0  0  0  0  0  0  0  0  0  0  0  0
   -2.3240    3.3978    0.4204 C   0  0  0  0  0  0  0  0  0  0  0  0
   -3.3696    3.7251    0.4647 H   0  0  0  0  0  0  0  0  0  0  0  0
    0.0554    3.9343    0.3162 C   0  0  0  0  0  0  0  0  0  0  0  0
    0.8704    4.6691    0.2630 H   0  0  0  0  0  0  0  0  0  0  0  0
   -1.2821    4.3473    0.3972 C   0  0  0  0  0  0  0  0  0  0  0  0
   -1.5244    5.4190    0.4276 H   0  0  0  0  0  0  0  0  0  0  0  0
    5.0254   -1.7550    0.2678 C   0  0  0  0  0  0  0  0  0  0  0  0
    5.9601   -2.3346    0.3126 H   0  0  0  0  0  0  0  0  0  0  0  0
    4.2811   -1.5353    1.4348 C   0  0  0  0  0  0  0  0  0  0  0  0
    4.6305   -1.9523    2.3915 H   0  0  0  0  0  0  0  0  0  0  0  0
    2.9274    2.6084    0.1575 C   0  0  0  0  0  0  0  0  0  0  0  0
    3.7317    2.0025    0.6151 H   0  0  0  0  0  0  0  0  0  0  0  0
    2.8664    3.5835    0.6768 H   0  0  0  0  0  0  0  0  0  0  0  0
    3.2258    2.7985   -0.8960 H   0  0  0  0  0  0  0  0  0  0  0  0
   -4.1846   -3.4472   -0.2003 C   0  0  0  0  0  0  0  0  0  0  0  0
   -4.1289   -4.5384   -0.3282 H   0  0  0  0  0  0  0  0  0  0  0  0
    2.8386   -0.0732   -2.4007 C   0  0  0  0  0  0  0  0  0  0  0  0
    1.9577    0.5802   -2.2334 H   0  0  0  0  0  0  0  0  0  0  0  0
   -5.4564   -2.8220   -0.1717 C   0  0  0  0  0  0  0  0  0  0  0  0
   -6.3623   -3.4380   -0.2740 H   0  0  0  0  0  0  0  0  0  0  0  0
    2.2634   -0.5750    2.6649 C   0  0  0  0  0  0  0  0  0  0  0  0
    1.2745   -0.1960    2.3356 H   0  0  0  0  0  0  0  0  0  0  0  0
   -5.1871    1.7095    0.2755 C   0  0  0  0  0  0  0  0  0  0  0  0
   -5.0891    2.3859   -0.5982 H   0  0  0  0  0  0  0  0  0  0  0  0
   -5.1157    2.3047    1.2082 H   0  0  0  0  0  0  0  0  0  0  0  0
   -6.1859    1.2403    0.2416 H   0  0  0  0  0  0  0  0  0  0  0  0
    4.5672   -1.2591   -0.9585 C   0  0  0  0  0  0  0  0  0  0  0  0
    5.1375   -1.4657   -1.8769 H   0  0  0  0  0  0  0  0  0  0  0  0
    2.0029   -1.8830    3.4253 C   0  0  0  0  0  0  0  0  0  0  0  0
    1.5043   -2.6122    2.7575 H   0  0  0  0  0  0  0  0  0  0  0  0
    1.3407   -1.6957    4.2955 H   0  0  0  0  0  0  0  0  0  0  0  0
    2.9388   -2.3352    3.8144 H   0  0  0  0  0  0  0  0  0  0  0  0
    2.9087    0.4951    3.5624 C   0  0  0  0  0  0  0  0  0  0  0  0
    3.0348    1.4578    3.0260 H   0  0  0  0  0  0  0  0  0  0  0  0
    3.9131    0.1732    3.9091 H   0  0  0  0  0  0  0  0  0  0  0  0
    2.2855    0.6861    4.4606 H   0  0  0  0  0  0  0  0  0  0  0  0
    2.3007   -1.3007   -3.1599 C   0  0  0  0  0  0  0  0  0  0  0  0
    1.5440   -1.8279   -2.5478 H   0  0  0  0  0  0  0  0  0  0  0  0
    3.1194   -2.0091   -3.4088 H   0  0  0  0  0  0  0  0  0  0  0  0
    1.8081   -0.9807   -4.0998 H   0  0  0  0  0  0  0  0  0  0  0  0
    3.8707    0.7033   -3.2315 C   0  0  0  0  0  0  0  0  0  0  0  0
    4.2642    1.5864   -2.6859 H   0  0  0  0  0  0  0  0  0  0  0  0
    3.4108    1.0623   -4.1746 H   0  0  0  0  0  0  0  0  0  0  0  0
    4.7407    0.0724   -3.5103 H   0  0  0  0  0  0  0  0  0  0  0  0
  1  6  1  0  0  0  0
  2 40  1  0  0  0  0
  2  4  1  0  0  0  0
  3  4  1  0  0  0  0
  4  6  2  0  0  0  0
  5 12  1  0  0  0  0
  6 18  1  0  0  0  0
  7 20  2  0  0  0  0
  7  1  1  0  0  0  0
  8  5  1  6  0  0  0
  8  7  1  0  0  0  0
  9  2  1  0  0  0  0
 10  9  1  0  0  0  0
 10  3  1  0  0  0  0
 11 44  2  0  0  0  0
 11 12  1  0  0  0  0
 12 13  2  0  0  0  0
 13 26  1  0  0  0  0
 13 38  1  0  0  0  0
 14 10  2  0  0  0  0
 15 14  1  0  0  0  0
 16 17  1  0  0  0  0
 16  9  2  0  0  0  0
 18 19  1  0  0  0  0
 20 22  1  0  0  0  0
 21 20  1  0  0  0  0
 22 18  2  0  0  0  0
 22 23  1  0  0  0  0
 24 25  1  0  0  0  0
 24 26  2  0  0  0  0
 26 27  1  0  0  0  0
 28  8  1  0  0  0  0
 28 29  1  0  0  0  0
 28 30  1  0  0  0  0
 31 28  1  0  0  0  0
 32 36  2  0  0  0  0
 32 14  1  0  0  0  0
 33 32  1  0  0  0  0
 34 35  1  0  0  0  0
 34 11  1  0  0  0  0
 36 16  1  0  0  0  0
 37 36  1  0  0  0  0
 38 46  1  0  0  0  0
 38 50  1  0  0  0  0
 39 38  1  0  0  0  0
 40 42  1  0  0  0  0
 41 40  1  0  0  0  0
 43 40  1  0  0  0  0
 44 24  1  0  0  0  0
 45 44  1  0  0  0  0
 46 49  1  0  0  0  0
 46 48  1  0  0  0  0
 47 46  1  0  0  0  0
 50 52  1  0  0  0  0
 50 53  1  0  0  0  0
 51 50  1  0  0  0  0
 54 55  1  0  0  0  0
 54 34  1  0  0  0  0
 56 54  1  0  0  0  0
 57 54  1  0  0  0  0
 58 59  1  0  0  0  0
 58 34  1  0  0  0  0
 60 58  1  0  0  0  0
 61 58  1  0  0  0  0
M  END
