2,3,4
q = 0.0, confidence = 0.976

 49 52  0  0  1  0  0  0  0  0999 V2000
    3.8027    0.6970   -0.2438 N   0  0  0  0  0  0  0  0  0  0  0  0
   -1.8704    0.4610   -0.1382 N   0  0  0  0  0  2  0  0  0  0  0  0
    1.8056   -0.3483   -0.3013 N   0  0  0  0  0  2  0  0  0  0  0  0
    0.2869    1.6147   -0.2987 N   0  0  0  0  0  2  0  0  0  0  0  0
   -3.0284   -0.3714   -0.1394 C   0  0  0  0  0  0  0  0  0  0  0  0
   -2.0182    1.7879   -0.1684 C   0  0  0  0  0  0  0  0  0  0  0  0
   -0.7585    2.4941   -0.2239 C   0  0  0  0  0  0  0  0  0  0  0  0
   -3.6737   -0.6881    1.0807 C   0  0  0  0  0  0  0  0  0  0  0  0
    2.4370    0.8479   -0.3065 C   0  0  1  0  0  3  0  0  0  0  0  0
    4.0556   -0.6709   -0.1824 C   0  0  0  0  0  0  0  0  0  0  0  0
    1.5924    2.0220   -0.3092 C   0  0  0  0  0  0  0  0  0  0  0  0
    2.7834   -1.3205   -0.2087 C   0  0  0  0  0  0  0  0  0  0  0  0
   -0.4965    3.8773   -0.2119 C   0  0  0  0  0  0  0  0  0  0  0  0
   -1.3252    4.5961   -0.1513 H   0  0  0  0  0  0  0  0  0  0  0  0
    1.8944    3.3917   -0.3166 C   0  0  0  0  0  0  0  0  0  0  0  0
    2.9331    3.7411   -0.3541 H   0  0  0  0  0  0  0  0  0  0  0  0
    2.6934   -2.7241   -0.1438 C   0  0  0  0  0  0  0  0  0  0  0  0
    1.6991   -3.1926   -0.1490 H   0  0  0  0  0  0  0  0  0  0  0  0
   -3.4855   -0.8580   -1.3896 C   0  0  0  0  0  0  0  0  0  0  0  0
   -3.3564    2.4593   -0.1696 C   0  0  0  0  0  0  0  0  0  0  0  0
   -3.9982    2.0464   -0.9741 H   0  0  0  0  0  0  0  0  0  0  0  0
   -3.2636    3.5508   -0.3151 H   0  0  0  0  0  0  0  0  0  0  0  0
   -3.8941    2.2757    0.7832 H   0  0  0  0  0  0  0  0  0  0  0  0
    4.7898    1.7557   -0.2054 C   0  0  0  0  0  0  0  0  0  0  0  0
    4.6443    2.4000    0.6854 H   0  0  0  0  0  0  0  0  0  0  0  0
    4.7416    2.3808   -1.1202 H   0  0  0  0  0  0  0  0  0  0  0  0
    5.7962    1.3055   -0.1470 H   0  0  0  0  0  0  0  0  0  0  0  0
    5.2561   -1.3955   -0.1070 C   0  0  0  0  0  0  0  0  0  0  0  0
    6.2379   -0.9007   -0.0890 H   0  0  0  0  0  0  0  0  0  0  0  0
   -2.7055   -0.5726   -2.6434 C   0  0  0  0  0  0  0  0  0  0  0  0
   -3.1974   -1.0138   -3.5307 H   0  0  0  0  0  0  0  0  0  0  0  0
   -1.6892   -1.0103   -2.5405 H   0  0  0  0  0  0  0  0  0  0  0  0
   -2.5754    0.5152   -2.8239 H   0  0  0  0  0  0  0  0  0  0  0  0
    3.8897   -3.4404   -0.0624 C   0  0  0  0  0  0  0  0  0  0  0  0
    3.8556   -4.5384   -0.0054 H   0  0  0  0  0  0  0  0  0  0  0  0
    5.1491   -2.7898   -0.0476 C   0  0  0  0  0  0  0  0  0  0  0  0
    6.0669   -3.3933    0.0169 H   0  0  0  0  0  0  0  0  0  0  0  0
    0.8325    4.3188   -0.2706 C   0  0  0  0  0  0  0  0  0  0  0  0
    1.0526    5.3957   -0.2711 H   0  0  0  0  0  0  0  0  0  0  0  0
   -4.8304   -1.4870    1.0131 C   0  0  0  0  0  0  0  0  0  0  0  0
   -5.3458   -1.7482    1.9504 H   0  0  0  0  0  0  0  0  0  0  0  0
   -4.6494   -1.6461   -1.4029 C   0  0  0  0  0  0  0  0  0  0  0  0
   -5.0188   -2.0329   -2.3654 H   0  0  0  0  0  0  0  0  0  0  0  0
   -5.3208   -1.9566   -0.2126 C   0  0  0  0  0  0  0  0  0  0  0  0
   -6.2265   -2.5815   -0.2392 H   0  0  0  0  0  0  0  0  0  0  0  0
   -3.1190   -0.2157    2.3946 C   0  0  0  0  0  0  0  0  0  0  0  0
   -2.0565   -0.5208    2.5147 H   0  0  0  0  0  0  0  0  0  0  0  0
   -3.7151   -0.6088    3.2398 H   0  0  0  0  0  0  0  0  0  0  0  0
   -3.1090    0.8928    2.4715 H   0  0  0  0  0  0  0  0  0  0  0  0
  1 24  1  0  0  0  0
  1 10  1  0  0  0  0
  3 12  1  0  0  0  0
  4  7  1  0  0  0  0
  5  2  1  0  0  0  0
  5  8  1  0  0  0  0
  6  2  1  0  0  0  0
  7 13  1  0  0  0  0
  7  6  2  0  0  0  0
  8 46  1  0  0  0  0
  9 11  1  1  0  0  0
  9  3  1  0  0  0  0
  9  1  1  0  0  0  0
 10 28  1  0  0  0  0
 11  4  1  0  0  0  0
 12 10  2  0  0  0  0
 12 17  1  0  0  0  0
 13 14  1  0  0  0  0
 15 11  2  0  0  0  0
 15 38  1  0  0  0  0
 16 15  1  0  0  0  0
 17 34  2  0  0  0  0
 18 17  1  0  0  0  0
 19  5  2  0  0  0  0
 20  6  1  0  0  0  0
 20 23  1  0  0  0  0
 21 20  1  0  0  0  0
 22 20  1  0  0  0  0
 24 27  1  0  0  0  0
 24 25  1  0  0  0  0
 26 24  1  0  0  0  0
 28 29  1  0  0  0  0
 28 36  2  0  0  0  0
 30 32  1  0  0  0  0
 30 19  1  0  0  0  0
 31 30  1  0  0  0  0
 33 30  1  0  0  0  0
 34 36  1  0  0  0  0
 34 35  1  0  0  0  0
 36 37  1  0  0  0  0
 38 13  2  0  0  0  0
 39 38  1  0  0  0  0
 40  8  2  0  0  0  0
 40 41  1  0  0  0  0
 42 19  1  0  0  0  0
 42 44  2  0  0  0  0
 43 42  1  0  0  0  0
 44 40  1  0  0  0  0
 45 44  1  0  0  0  0
 46 49  1  0  0  0  0
 46 47  1  0  0  0  0
 46 48  1  0  0  0  0
M  END
