3,7,9
q = 0.0, confidence = 0.948

 43 46  0  0  1  0  0  0  0  0999 V2000
    2.7183    0.2998   -2.6977 Cl  0  0  0  0  0  0  0  0  0  0  0  0
   -4.0102    0.6938   -0.2083 N   0  0  0  0  0  0  0  0  0  0  0  0
   -0.4686    1.5738   -0.0315 N   0  0  0  0  0  2  0  0  0  0  0  0
    2.9615   -0.6661    2.6562 Cl  0  0  0  0  0  0  0  0  0  0  0  0
    3.4856   -1.0073    1.0362 C   0  0  0  0  0  0  0  0  0  0  0  0
    2.8618   -0.3413   -0.0435 C   0  0  0  0  0  0  0  0  0  0  0  0
    1.7169    0.4754    0.1361 N   0  0  0  0  0  2  0  0  0  0  0  0
   -2.6416    0.8484   -0.1320 C   0  0  0  0  0  0  0  0  0  0  0  0
   -2.0138   -0.3468   -0.0746 N   0  0  0  0  0  2  0  0  0  0  0  0
    1.8448    1.8058    0.1231 C   0  0  2  0  0  3  0  0  0  0  0  0
   -2.9910   -1.3207   -0.1037 C   0  0  0  0  0  0  0  0  0  0  0  0
   -1.7817    2.0069   -0.1141 C   0  0  0  0  0  0  0  0  0  0  0  0
   -4.2627   -0.6772   -0.1883 C   0  0  0  0  0  0  0  0  0  0  0  0
   -2.0736    3.3794   -0.1708 C   0  0  0  0  0  0  0  0  0  0  0  0
   -3.1127    3.7225   -0.2436 H   0  0  0  0  0  0  0  0  0  0  0  0
    5.0090   -2.1378   -0.4719 C   0  0  0  0  0  0  0  0  0  0  0  0
    5.8338   -2.8461   -0.6390 H   0  0  0  0  0  0  0  0  0  0  0  0
   -5.4573   -1.4136   -0.2331 C   0  0  0  0  0  0  0  0  0  0  0  0
   -6.4421   -0.9289   -0.2994 H   0  0  0  0  0  0  0  0  0  0  0  0
   -1.0184    4.3091   -0.1190 C   0  0  0  0  0  0  0  0  0  0  0  0
   -1.2359    5.3856   -0.1613 H   0  0  0  0  0  0  0  0  0  0  0  0
    4.5461   -1.9027    0.8288 C   0  0  0  0  0  0  0  0  0  0  0  0
    4.9992   -2.3992    1.6975 H   0  0  0  0  0  0  0  0  0  0  0  0
    0.5710    2.4812    0.0499 C   0  0  0  0  0  0  0  0  0  0  0  0
    0.3049    3.8630   -0.0019 C   0  0  0  0  0  0  0  0  0  0  0  0
    1.1373    4.5778    0.0518 H   0  0  0  0  0  0  0  0  0  0  0  0
    4.4384   -1.4652   -1.5605 C   0  0  0  0  0  0  0  0  0  0  0  0
    4.7994   -1.6239   -2.5855 H   0  0  0  0  0  0  0  0  0  0  0  0
   -4.9991    1.7481   -0.2862 C   0  0  0  0  0  0  0  0  0  0  0  0
   -4.8670    2.3552   -1.2050 H   0  0  0  0  0  0  0  0  0  0  0  0
   -4.9423    2.4131    0.5995 H   0  0  0  0  0  0  0  0  0  0  0  0
   -6.0056    1.2946   -0.3133 H   0  0  0  0  0  0  0  0  0  0  0  0
    3.3822   -0.5708   -1.3412 C   0  0  0  0  0  0  0  0  0  0  0  0
   -2.8917   -2.7231   -0.0612 C   0  0  0  0  0  0  0  0  0  0  0  0
   -1.9008   -3.1937   -0.0148 H   0  0  0  0  0  0  0  0  0  0  0  0
   -5.3431   -2.8093   -0.1876 C   0  0  0  0  0  0  0  0  0  0  0  0
   -6.2576   -3.4202   -0.2198 H   0  0  0  0  0  0  0  0  0  0  0  0
   -4.0832   -3.4527   -0.1028 C   0  0  0  0  0  0  0  0  0  0  0  0
   -4.0453   -4.5516   -0.0724 H   0  0  0  0  0  0  0  0  0  0  0  0
    3.1654    2.5074    0.0875 C   0  0  0  0  0  0  0  0  0  0  0  0
    3.8880    2.0091    0.7626 H   0  0  0  0  0  0  0  0  0  0  0  0
    3.0702    3.5646    0.3965 H   0  0  0  0  0  0  0  0  0  0  0  0
    3.5928    2.4833   -0.9380 H   0  0  0  0  0  0  0  0  0  0  0  0
  1 33  1  0  0  0  0
  2 13  1  0  0  0  0
  2  8  1  0  0  0  0
  3 24  1  0  0  0  0
  5  4  1  0  0  0  0
  6  7  1  0  0  0  0
  6  5  2  0  0  0  0
  8 12  2  0  0  0  0
  8  9  1  0  0  0  0
 10  7  1  6  0  0  0
 11  9  1  0  0  0  0
 11 34  1  0  0  0  0
 12  3  1  0  0  0  0
 13 11  2  0  0  0  0
 14 20  2  0  0  0  0
 14 12  1  0  0  0  0
 15 14  1  0  0  0  0
 16 22  2  0  0  0  0
 17 16  1  0  0  0  0
 18 13  1  0  0  0  0
 18 36  2  0  0  0  0
 19 18  1  0  0  0  0
 20 25  1  0  0  0  0
 21 20  1  0  0  0  0
 22  5  1  0  0  0  0
 22 23  1  0  0  0  0
 24 10  1  0  0  0  0
 25 24  2  0  0  0  0
 25 26  1  0  0  0  0
 27 33  2  0  0  0  0
 27 16  1  0  0  0  0
 28 27  1  0  0  0  0
 29  2  1  0  0  0  0
 29 31  1  0  0  0  0
 30 29  1  0  0  0  0
 32 29  1  0  0  0  0
 33  6  1  0  0  0  0
 34 35  1  0  0  0  0
 36 38  1  0  0  0  0
 37 36  1  0  0  0  0
 38 39  1  0  0  0  0
 38 34  2  0  0  0  0
 40 10  1  0  0  0  0
 40 42  1  0  0  0  0
 40 41  1  0  0  0  0
 43 40  1  0  0  0  0
M  END
