1,23,32
q = 0.0, confidence = 0.978

 32 34  0  0  0  0  0  0  0  0999 V2000
    1.4756   -0.7168   -0.0003 N   0  0  0  0  0  2  0  0  0  0  0  0
    2.2656   -1.8052    0.0023 C   0  0  0  0  0  0  0  0  0  0  0  0
    1.5999   -3.1460    0.0042 C   0  0  0  0  0  0  0  0  0  0  0  0
    0.9429   -3.2258    0.8953 H   0  0  0  0  0  0  0  0  0  0  0  0
    2.3367   -3.9695    0.0046 H   0  0  0  0  0  0  0  0  0  0  0  0
    0.9414   -3.2277   -0.8856 H   0  0  0  0  0  0  0  0  0  0  0  0
    3.6839   -1.6584    0.0032 C   0  0  0  0  0  0  0  0  0  0  0  0
    4.2991   -2.5696    0.0054 H   0  0  0  0  0  0  0  0  0  0  0  0
    4.2784   -0.4069    0.0015 C   0  0  0  0  0  0  0  0  0  0  0  0
    5.3737   -0.2999    0.0020 H   0  0  0  0  0  0  0  0  0  0  0  0
    3.4532    0.7551   -0.0008 C   0  0  0  0  0  0  0  0  0  0  0  0
    3.9203    2.1017   -0.0025 C   0  0  0  0  0  3  0  0  0  0  0  0
    5.0041    2.2916   -0.0023 H   0  0  0  0  0  0  0  0  0  0  0  0
    3.0169    3.1599   -0.0043 C   0  0  0  0  0  0  0  0  0  0  0  0
    3.3898    4.1949   -0.0057 H   0  0  0  0  0  0  0  0  0  0  0  0
    1.6164    2.9372   -0.0043 C   0  0  0  0  0  0  0  0  0  0  0  0
    0.9276    3.7933   -0.0057 H   0  0  0  0  0  0  0  0  0  0  0  0
    1.1305    1.6297   -0.0026 C   0  0  0  0  0  0  0  0  0  0  0  0
    2.0462    0.5340   -0.0013 C   0  0  0  0  0  0  0  0  0  0  0  0
   -1.2850    2.0203    0.0005 C   0  0  0  0  0  0  0  0  0  0  0  0
   -1.1957    3.1154    0.0018 H   0  0  0  0  0  0  0  0  0  0  0  0
   -2.5264    1.3190    0.0008 C   0  0  0  0  0  0  0  0  0  0  0  0
   -0.2136    1.2061   -0.0018 N   0  0  0  0  0  2  0  0  0  0  0  0
   -3.4345   -0.8619   -0.0020 C   0  0  0  0  0  0  0  0  0  0  0  0
   -3.2244   -1.9420   -0.0040 H   0  0  0  0  0  0  0  0  0  0  0  0
   -4.7368   -0.3591   -0.0006 C   0  0  0  0  0  0  0  0  0  0  0  0
   -5.5877   -1.0543   -0.0013 H   0  0  0  0  0  0  0  0  0  0  0  0
   -4.9330    1.0396    0.0016 C   0  0  0  0  0  0  0  0  0  0  0  0
   -5.9501    1.4587    0.0027 H   0  0  0  0  0  0  0  0  0  0  0  0
   -3.8247    1.8833    0.0022 C   0  0  0  0  0  0  0  0  0  0  0  0
   -3.9355    2.9773    0.0037 H   0  0  0  0  0  0  0  0  0  0  0  0
   -2.3523   -0.0573   -0.0011 N   0  0  0  0  0  2  0  0  0  0  0  0
  1  2  1  0  0  0  0
  2  7  2  0  0  0  0
  2  3  1  0  0  0  0
  3  5  1  0  0  0  0
  3  4  1  0  0  0  0
  6  3  1  0  0  0  0
  7  8  1  0  0  0  0
  9 10  1  0  0  0  0
  9  7  1  0  0  0  0
 11  9  2  0  0  0  0
 12 13  1  0  0  0  0
 12 11  1  0  0  0  0
 14 12  1  0  0  0  0
 15 14  1  0  0  0  0
 16 14  2  0  0  0  0
 16 18  1  0  0  0  0
 17 16  1  0  0  0  0
 18 23  1  0  0  0  0
 18 19  2  0  0  0  0
 19 11  1  0  0  0  0
 19  1  1  0  0  0  0
 20 22  2  0  0  0  0
 20 21  1  0  0  0  0
 22 30  1  0  0  0  0
 23 20  1  0  0  0  0
 24 32  1  0  0  0  0
 24 26  2  0  0  0  0
 25 24  1  0  0  0  0
 26 28  1  0  0  0  0
 27 26  1  0  0  0  0
 28 30  2  0  0  0  0
 28 29  1  0  0  0  0
 30 31  1  0  0  0  0
 32 22  1  0  0  0  0
M  END
