1,2,3
q = 0.0, confidence = 1.0

 28 28  0  0  0  0  0  0  0  0999 V2000
   -1.9203    0.2217   -0.0621 N   0  0  0  0  0  2  0  0  0  0  0  0
   -0.3362   -1.0532    1.6403 N   0  0  0  0  0  2  0  0  0  0  0  0
    2.2934   -0.5936    0.9112 N   0  0  0  0  0  0  0  0  0  0  0  0
    2.5083    0.1549    1.5881 H   0  0  0  0  0  0  0  0  0  0  0  0
   -1.5900   -1.2993    1.7429 C   0  0  0  0  0  0  0  0  0  0  0  0
   -2.0104   -2.0067    2.4909 H   0  0  0  0  0  0  0  0  0  0  0  0
   -2.5130   -0.6098    0.8214 C   0  0  0  0  0  0  0  0  0  0  0  0
   -3.9064   -0.7969    0.8554 C   0  0  0  0  0  0  0  0  0  0  0  0
   -4.3571   -1.4848    1.5868 H   0  0  0  0  0  0  0  0  0  0  0  0
   -4.6953   -0.0858   -0.0606 C   0  0  0  0  0  0  0  0  0  0  0  0
   -5.7889   -0.2060   -0.0643 H   0  0  0  0  0  0  0  0  0  0  0  0
   -4.0692    0.7800   -0.9691 C   0  0  0  0  0  0  0  0  0  0  0  0
   -4.6534    1.3570   -1.7004 H   0  0  0  0  0  0  0  0  0  0  0  0
   -2.6684    0.9016   -0.9332 C   0  0  0  0  0  0  0  0  0  0  0  0
   -2.1207    1.5671   -1.6209 H   0  0  0  0  0  0  0  0  0  0  0  0
    0.6952   -1.6393    2.4596 C   0  0  0  0  0  0  0  0  0  0  0  0
    0.3831   -2.5922    2.9434 H   0  0  0  0  0  0  0  0  0  0  0  0
    0.9260   -0.9133    3.2739 H   0  0  0  0  0  0  0  0  0  0  0  0
    1.9479   -1.8381    1.5963 C   0  0  0  0  0  0  0  0  0  0  0  0
    2.7771   -2.2377    2.2276 H   0  0  0  0  0  0  0  0  0  0  0  0
    1.7304   -2.5911    0.8089 H   0  0  0  0  0  0  0  0  0  0  0  0
    3.4097   -0.7362   -0.0405 C   0  0  0  0  0  0  0  0  0  0  0  0
    3.0721   -1.4576   -0.8148 H   0  0  0  0  0  0  0  0  0  0  0  0
    4.3000   -1.1785    0.4705 H   0  0  0  0  0  0  0  0  0  0  0  0
    3.7685    0.5879   -0.6977 C   0  0  0  0  0  0  0  0  0  0  0  0
    2.9062    0.9888   -1.2655 H   0  0  0  0  0  0  0  0  0  0  0  0
    4.6161    0.4457   -1.3966 H   0  0  0  0  0  0  0  0  0  0  0  0
    4.0608    1.3554    0.0483 H   0  0  0  0  0  0  0  0  0  0  0  0
  1  7  1  0  0  0  0
  2  5  1  0  0  0  0
  2 16  1  0  0  0  0
  3  4  1  0  0  0  0
  3 19  1  0  0  0  0
  5  6  1  0  0  0  0
  7  8  1  0  0  0  0
  7  5  2  0  0  0  0
  8  9  1  0  0  0  0
 10  8  2  0  0  0  0
 11 10  1  0  0  0  0
 12 14  2  0  0  0  0
 12 10  1  0  0  0  0
 13 12  1  0  0  0  0
 14  1  1  0  0  0  0
 15 14  1  0  0  0  0
 16 17  1  0  0  0  0
 16 18  1  0  0  0  0
 19 20  1  0  0  0  0
 19 16  1  0  0  0  0
 21 19  1  0  0  0  0
 22 24  1  0  0  0  0
 22  3  1  0  0  0  0
 23 22  1  0  0  0  0
 25 22  1  0  0  0  0
 25 28  1  0  0  0  0
 26 25  1  0  0  0  0
 27 25  1  0  0  0  0
M  END
