1,3,5
q = 0.0, confidence = 1.0

 38 40  0  0  1  0  0  0  0  0999 V2000
    1.9743   -0.3340   -0.7194 N   0  0  0  0  0  2  0  0  0  0  0  0
    1.9651    1.8003    0.3504 N   0  0  0  0  0  0  0  0  0  0  0  0
   -0.3143    1.3426   -0.1334 N   0  0  0  0  0  2  0  0  0  0  0  0
   -2.5249    0.6839   -0.2697 N   0  0  0  0  0  0  0  0  0  0  0  0
   -2.0274   -0.5807   -0.0035 N   0  0  0  0  0  2  0  0  0  0  0  0
    2.5997   -1.2540   -1.5040 C   0  0  0  0  0  3  0  0  0  0  0  0
    2.0087   -2.1573   -1.7072 H   0  0  0  0  0  0  0  0  0  0  0  0
    3.9054   -1.0848   -1.9656 C   0  0  0  0  0  0  0  0  0  0  0  0
    4.3652   -1.8737   -2.5766 H   0  0  0  0  0  0  0  0  0  0  0  0
    4.5939    0.0920   -1.6415 C   0  0  0  0  0  0  0  0  0  0  0  0
    5.6200    0.2682   -1.9969 H   0  0  0  0  0  0  0  0  0  0  0  0
    3.9367    1.0651   -0.8814 C   0  0  0  0  0  0  0  0  0  0  0  0
    4.4242    2.0225   -0.6570 H   0  0  0  0  0  0  0  0  0  0  0  0
    2.6192    0.8317   -0.4372 C   0  0  0  0  0  0  0  0  0  0  0  0
    0.6601    2.2599    0.1163 C   0  0  1  0  0  3  0  0  0  0  0  0
    0.3537    3.6299    0.2083 C   0  0  0  0  0  0  0  0  0  0  0  0
    1.1544    4.3628    0.3622 H   0  0  0  0  0  0  0  0  0  0  0  0
   -0.9766    4.0452    0.0885 C   0  0  0  0  0  0  0  0  0  0  0  0
   -1.2310    5.1123    0.1575 H   0  0  0  0  0  0  0  0  0  0  0  0
   -1.9879    3.0967   -0.1002 C   0  0  0  0  0  0  0  0  0  0  0  0
   -3.0378    3.3982   -0.1310 H   0  0  0  0  0  0  0  0  0  0  0  0
   -1.6162    1.7495   -0.2061 C   0  0  0  0  0  0  0  0  0  0  0  0
   -3.8845    0.6361   -0.5226 C   0  0  2  0  0  3  0  0  0  0  0  0
   -4.2471   -0.6955   -0.3813 C   0  0  0  0  0  0  0  0  0  0  0  0
   -5.2517   -1.1069   -0.5223 H   0  0  0  0  0  0  0  0  0  0  0  0
   -3.0703   -1.4267   -0.0635 C   0  0  0  0  0  0  0  0  0  0  0  0
   -4.7341    1.7956   -0.9194 C   0  0  0  0  0  0  0  0  0  0  0  0
   -4.9259    2.4974   -0.0802 H   0  0  0  0  0  0  0  0  0  0  0  0
   -5.7147    1.4162   -1.2610 H   0  0  0  0  0  0  0  0  0  0  0  0
   -4.2824    2.3732   -1.7514 H   0  0  0  0  0  0  0  0  0  0  0  0
   -2.9421   -2.8911    0.1740 C   0  0  0  0  0  0  0  0  0  0  0  0
   -1.9348   -3.2469   -0.1215 H   0  0  0  0  0  0  0  0  0  0  0  0
   -3.7218   -3.4377   -0.3894 H   0  0  0  0  0  0  0  0  0  0  0  0
   -3.0781   -3.1302    1.2509 H   0  0  0  0  0  0  0  0  0  0  0  0
    2.7799    2.5963    1.2618 C   0  0  0  0  0  0  0  0  0  0  0  0
    3.6057    1.9659    1.6404 H   0  0  0  0  0  0  0  0  0  0  0  0
    2.1501    2.8863    2.1238 H   0  0  0  0  0  0  0  0  0  0  0  0
    3.2223    3.5070    0.7982 H   0  0  0  0  0  0  0  0  0  0  0  0
  1 14  1  0  0  0  0
  2 35  1  0  0  0  0
  3 15  1  0  0  0  0
  4 22  1  0  0  0  0
  4  5  1  0  0  0  0
  6  1  1  0  0  0  0
  7  6  1  0  0  0  0
  8 10  2  0  0  0  0
  8  6  1  0  0  0  0
  9  8  1  0  0  0  0
 10 12  1  0  0  0  0
 11 10  1  0  0  0  0
 12 13  1  0  0  0  0
 12 14  2  0  0  0  0
 14  2  1  0  0  0  0
 15 16  1  0  0  0  0
 15  2  1  1  0  0  0
 16 17  1  0  0  0  0
 18 19  1  0  0  0  0
 18 16  2  0  0  0  0
 20 18  1  0  0  0  0
 21 20  1  0  0  0  0
 22  3  1  0  0  0  0
 22 20  2  0  0  0  0
 23 27  1  6  0  0  0
 23 24  1  0  0  0  0
 23  4  1  0  0  0  0
 24 26  2  0  0  0  0
 25 24  1  0  0  0  0
 26  5  1  0  0  0  0
 26 31  1  0  0  0  0
 27 28  1  0  0  0  0
 29 27  1  0  0  0  0
 30 27  1  0  0  0  0
 31 34  1  0  0  0  0
 32 31  1  0  0  0  0
 33 31  1  0  0  0  0
 35 36  1  0  0  0  0
 35 37  1  0  0  0  0
 38 35  1  0  0  0  0
M  END
