2,3,4
q = 0.0, confidence = 0.998

 39 42  0  0  1  0  0  0  0  0999 V2000
   -8.4288    0.0013   -0.0728 I   0  0  0  0  0  0  0  0  0  0  0  0
    2.3195   -2.1092   -0.3665 N   0  0  0  0  0  2  0  0  0  0  0  0
    0.7843    0.0133   -0.3223 N   0  0  0  0  0  2  0  0  0  0  0  0
    2.3195    2.1324   -0.2016 N   0  0  0  0  0  2  0  0  0  0  0  0
    3.2020   -3.1153   -0.4063 C   0  0  0  0  0  3  0  0  0  0  0  0
    4.2641   -2.8164   -0.3901 H   0  0  0  0  0  0  0  0  0  0  0  0
    2.7980   -4.4561   -0.4783 C   0  0  0  0  0  0  0  0  0  0  0  0
    3.5493   -5.2580   -0.5071 H   0  0  0  0  0  0  0  0  0  0  0  0
    1.4247   -4.7396   -0.5138 C   0  0  0  0  0  0  0  0  0  0  0  0
    1.0682   -5.7788   -0.5730 H   0  0  0  0  0  0  0  0  0  0  0  0
    0.5063   -3.6827   -0.4753 C   0  0  0  0  0  0  0  0  0  0  0  0
   -0.5729   -3.8850   -0.5081 H   0  0  0  0  0  0  0  0  0  0  0  0
    0.9939   -2.3644   -0.3990 C   0  0  0  0  0  0  0  0  0  0  0  0
    0.1230   -1.1582   -0.3441 C   0  0  1  0  0  3  0  0  0  0  0  0
   -1.2805   -1.1957   -0.3102 C   0  0  0  0  0  0  0  0  0  0  0  0
   -1.8141   -2.1541   -0.3529 H   0  0  0  0  0  0  0  0  0  0  0  0
   -2.0107    0.0106   -0.2492 C   0  0  0  0  0  0  0  0  0  0  0  0
   -1.2808    1.2182   -0.2239 C   0  0  0  0  0  0  0  0  0  0  0  0
   -1.8127    2.1748   -0.1399 H   0  0  0  0  0  0  0  0  0  0  0  0
    0.1229    1.1832   -0.2603 C   0  0  0  0  0  0  0  0  0  0  0  0
    0.9940    2.3896   -0.2149 C   0  0  1  0  0  3  0  0  0  0  0  0
    0.5066    3.7098   -0.1847 C   0  0  0  0  0  0  0  0  0  0  0  0
   -0.5727    3.9142   -0.2009 H   0  0  0  0  0  0  0  0  0  0  0  0
    1.4249    4.7663   -0.1365 C   0  0  0  0  0  0  0  0  0  0  0  0
    1.0686    5.8068   -0.1104 H   0  0  0  0  0  0  0  0  0  0  0  0
    2.7983    4.4807   -0.1242 C   0  0  0  0  0  0  0  0  0  0  0  0
    3.5497    5.2822   -0.0876 H   0  0  0  0  0  0  0  0  0  0  0  0
    3.2021    3.1384   -0.1610 C   0  0  0  0  0  0  0  0  0  0  0  0
    4.2642    2.8392   -0.1692 H   0  0  0  0  0  0  0  0  0  0  0  0
   -3.4913    0.0088   -0.2079 C   0  0  0  0  0  0  0  0  0  0  0  0
   -4.2365    1.0267   -0.8440 C   0  0  0  0  0  0  0  0  0  0  0  0
   -3.7153    1.8179   -1.4038 H   0  0  0  0  0  0  0  0  0  0  0  0
   -5.6364    1.0295   -0.8134 C   0  0  0  0  0  0  0  0  0  0  0  0
   -6.1976    1.8227   -1.3271 H   0  0  0  0  0  0  0  0  0  0  0  0
   -6.3128    0.0046   -0.1303 C   0  0  0  0  0  0  0  0  0  0  0  0
   -5.5967   -1.0176    0.5153 C   0  0  0  0  0  0  0  0  0  0  0  0
   -6.1263   -1.8116    1.0604 H   0  0  0  0  0  0  0  0  0  0  0  0
   -4.1972   -1.0107    0.4692 C   0  0  0  0  0  0  0  0  0  0  0  0
   -3.6437   -1.7983    1.0021 H   0  0  0  0  0  0  0  0  0  0  0  0
  3 20  1  0  0  0  0
  4 28  1  0  0  0  0
  5  6  1  0  0  0  0
  5  2  1  0  0  0  0
  7  5  1  0  0  0  0
  8  7  1  0  0  0  0
  9  7  2  0  0  0  0
  9 11  1  0  0  0  0
 10  9  1  0  0  0  0
 11 13  2  0  0  0  0
 12 11  1  0  0  0  0
 13  2  1  0  0  0  0
 14 13  1  1  0  0  0
 14  3  1  0  0  0  0
 14 15  1  0  0  0  0
 15 17  2  0  0  0  0
 16 15  1  0  0  0  0
 17 18  1  0  0  0  0
 17 30  1  0  0  0  0
 18 19  1  0  0  0  0
 20 18  2  0  0  0  0
 21 20  1  1  0  0  0
 21  4  1  0  0  0  0
 21 22  1  0  0  0  0
 22 24  2  0  0  0  0
 23 22  1  0  0  0  0
 24 26  1  0  0  0  0
 24 25  1  0  0  0  0
 26 27  1  0  0  0  0
 28 26  2  0  0  0  0
 29 28  1  0  0  0  0
 30 38  1  0  0  0  0
 31 33  1  0  0  0  0
 31 30  2  0  0  0  0
 32 31  1  0  0  0  0
 33 35  2  0  0  0  0
 34 33  1  0  0  0  0
 35  1  1  0  0  0  0
 35 36  1  0  0  0  0
 36 37  1  0  0  0  0
 38 36  2  0  0  0  0
 38 39  1  0  0  0  0
M  END
