1,3,5
q = -1.0

 41 44  0  0  1  0  0  0  0  0999 V2000
    0.7000   -0.8457    1.9632 N   0  0  0  0  0  2  0  0  0  0  0  0
   -1.2016   -2.1692    1.2703 N   0  0  0  0  0  2  0  0  0  0  0  0
   -1.0401   -0.1329   -0.0418 N   0  0  0  0  0  0  0  0  0  0  0  0
   -1.6411    1.6040   -1.6221 N   0  0  0  0  0  0  0  0  0  0  0  0
    0.5836    2.0149   -0.7355 N   0  0  0  0  0  2  0  0  0  0  0  0
    1.7656   -0.7456    2.8175 C   0  0  1  0  0  3  0  0  0  0  0  0
    2.1005   -1.7537    3.7231 C   0  0  0  0  0  0  0  0  0  0  0  0
    2.9637   -1.6080    4.3877 H   0  0  0  0  0  0  0  0  0  0  0  0
    1.3365   -2.9369    3.7629 C   0  0  0  0  0  0  0  0  0  0  0  0
    1.5918   -3.7494    4.4592 H   0  0  0  0  0  0  0  0  0  0  0  0
    0.2509   -3.0435    2.9099 C   0  0  0  0  0  0  0  0  0  0  0  0
   -0.4074   -3.9218    2.8868 H   0  0  0  0  0  0  0  0  0  0  0  0
   -0.0770   -1.9873    2.0117 C   0  0  0  0  0  0  0  0  0  0  0  0
   -1.6272   -1.3147    0.3728 C   0  0  0  0  0  0  0  0  0  0  0  0
   -2.8993   -1.4812   -0.3536 C   0  0  0  0  0  0  0  0  0  0  0  0
   -3.8670   -2.4889   -0.3189 C   0  0  0  0  0  0  0  0  0  0  0  0
   -3.7340   -3.3653    0.3320 H   0  0  0  0  0  0  0  0  0  0  0  0
   -4.9964   -2.3352   -1.1455 C   0  0  0  0  0  0  0  0  0  0  0  0
   -5.7780   -3.1103   -1.1474 H   0  0  0  0  0  0  0  0  0  0  0  0
   -5.1423   -1.2056   -1.9771 C   0  0  0  0  0  0  0  0  0  0  0  0
   -6.0356   -1.1172   -2.6140 H   0  0  0  0  0  0  0  0  0  0  0  0
   -4.1628   -0.1946   -2.0093 C   0  0  0  0  0  0  0  0  0  0  0  0
   -4.2560    0.6891   -2.6571 H   0  0  0  0  0  0  0  0  0  0  0  0
   -3.0456   -0.3507   -1.1845 C   0  0  0  0  0  3  0  0  0  0  0  0
   -1.8475    0.4840   -0.9823 C   0  0  0  0  0  0  0  0  0  0  0  0
   -0.4863    2.3196   -1.5631 C   0  0  0  0  0  0  0  0  0  0  0  0
   -0.4353    3.4363   -2.4436 C   0  0  0  0  0  0  0  0  0  0  0  0
   -1.3328    3.6125   -3.0504 H   0  0  0  0  0  0  0  0  0  0  0  0
    0.7064    4.2120   -2.5398 C   0  0  0  0  0  0  0  0  0  0  0  0
    0.7597    5.0657   -3.2313 H   0  0  0  0  0  0  0  0  0  0  0  0
    1.8087    3.8566   -1.7422 C   0  0  0  0  0  0  0  0  0  0  0  0
    2.7524    4.4167   -1.7969 H   0  0  0  0  0  0  0  0  0  0  0  0
    1.7271    2.7708   -0.8651 C   0  0  0  0  0  0  0  0  0  0  0  0
    2.5896    0.5023    2.7219 C   0  0  0  0  0  0  0  0  0  0  0  0
    3.2673    0.4466    1.8471 H   0  0  0  0  0  0  0  0  0  0  0  0
    3.2083    0.6523    3.6262 H   0  0  0  0  0  0  0  0  0  0  0  0
    1.9332    1.3895    2.5988 H   0  0  0  0  0  0  0  0  0  0  0  0
    2.9270    2.4189   -0.0359 C   0  0  0  0  0  0  0  0  0  0  0  0
    3.2540    1.3817   -0.2454 H   0  0  0  0  0  0  0  0  0  0  0  0
    2.7086    2.5095    1.0460 H   0  0  0  0  0  0  0  0  0  0  0  0
    3.7635    3.1043   -0.2627 H   0  0  0  0  0  0  0  0  0  0  0  0
  1 13  1  0  0  0  0
  1  6  1  0  0  0  0
  2 13  1  0  0  0  0
  3 14  1  0  0  0  0
  4 26  2  0  0  0  0
  4 25  1  0  0  0  0
  6 34  1  6  0  0  0
  6  7  1  0  0  0  0
  7  9  2  0  0  0  0
  7  8  1  0  0  0  0
  9 10  1  0  0  0  0
 11  9  1  0  0  0  0
 12 11  1  0  0  0  0
 13 11  2  0  0  0  0
 14  2  1  0  0  0  0
 15 16  1  0  0  0  0
 15 14  2  0  0  0  0
 16 17  1  0  0  0  0
 18 16  2  0  0  0  0
 19 18  1  0  0  0  0
 20 18  1  0  0  0  0
 21 20  1  0  0  0  0
 22 20  2  0  0  0  0
 22 24  1  0  0  0  0
 23 22  1  0  0  0  0
 24 25  1  0  0  0  0
 24 15  1  0  0  0  0
 25  3  2  0  0  0  0
 26  5  1  0  0  0  0
 27 26  1  0  0  0  0
 28 27  1  0  0  0  0
 29 27  2  0  0  0  0
 29 31  1  0  0  0  0
 30 29  1  0  0  0  0
 31 33  2  0  0  0  0
 32 31  1  0  0  0  0
 33  5  1  0  0  0  0
 33 38  1  0  0  0  0
 34 36  1  0  0  0  0
 35 34  1  0  0  0  0
 37 34  1  0  0  0  0
 38 40  1  0  0  0  0
 39 38  1  0  0  0  0
 41 38  1  0  0  0  0
M  END
