1,3,5
q = 0.0, confidence = 0.996

 45 48  0  0  1  0  0  0  0  0999 V2000
    0.6604    0.5951    1.6646 N   0  0  0  0  0  2  0  0  0  0  0  0
    0.3293    2.5414    0.3000 N   0  0  0  0  0  0  0  0  0  0  0  0
   -0.5291    0.6117   -0.8036 N   0  0  0  0  0  0  0  0  0  0  0  0
   -1.7156   -0.8430   -2.3442 N   0  0  0  0  0  0  0  0  0  0  0  0
   -0.0806   -2.1062   -1.0873 N   0  0  0  0  0  2  0  0  0  0  0  0
    1.0794   -1.4327    2.9789 C   0  0  0  0  0  0  0  0  0  0  0  0
    0.1423   -1.9169    2.6404 H   0  0  0  0  0  0  0  0  0  0  0  0
    1.2796   -1.7479    4.0184 H   0  0  0  0  0  0  0  0  0  0  0  0
    1.9376   -1.7569    2.3537 H   0  0  0  0  0  0  0  0  0  0  0  0
    0.9799    0.0564    2.8861 C   0  0  1  0  0  3  0  0  0  0  0  0
    1.2667    0.8622    3.9904 C   0  0  0  0  0  0  0  0  0  0  0  0
    1.5067    0.3825    4.9483 H   0  0  0  0  0  0  0  0  0  0  0  0
    1.2523    2.2544    3.8545 C   0  0  0  0  0  0  0  0  0  0  0  0
    1.4637    2.9086    4.7125 H   0  0  0  0  0  0  0  0  0  0  0  0
    0.9554    2.8036    2.6125 C   0  0  0  0  0  0  0  0  0  0  0  0
    0.9151    3.8905    2.4856 H   0  0  0  0  0  0  0  0  0  0  0  0
    0.6518    1.9504    1.5303 C   0  0  0  0  0  0  0  0  0  0  0  0
    0.8846    3.8715    0.0270 C   0  0  0  0  0  0  0  0  0  0  0  0
    0.8836    4.0380   -1.0624 H   0  0  0  0  0  0  0  0  0  0  0  0
    1.9378    3.8740    0.3633 H   0  0  0  0  0  0  0  0  0  0  0  0
    0.3144    4.6820    0.5252 H   0  0  0  0  0  0  0  0  0  0  0  0
   -0.4308    1.9448   -0.6646 C   0  0  0  0  0  0  0  0  0  0  0  0
   -1.3125    2.6279   -1.6246 C   0  0  0  0  0  0  0  0  0  0  0  0
   -1.6636    3.9658   -1.8709 C   0  0  0  0  0  0  0  0  0  0  0  0
   -1.2163    4.8008   -1.3171 H   0  0  0  0  0  0  0  0  0  0  0  0
   -2.6341    4.2306   -2.8557 C   0  0  0  0  0  0  0  0  0  0  0  0
   -2.9162    5.2744   -3.0594 H   0  0  0  0  0  0  0  0  0  0  0  0
   -3.2514    3.1928   -3.5779 C   0  0  0  0  0  0  0  0  0  0  0  0
   -4.0069    3.4352   -4.3399 H   0  0  0  0  0  0  0  0  0  0  0  0
   -2.9193    1.8498   -3.3217 C   0  0  0  0  0  0  0  0  0  0  0  0
   -3.4006    1.0155   -3.8520 H   0  0  0  0  0  0  0  0  0  0  0  0
   -1.9584    1.5892   -2.3454 C   0  0  0  0  0  3  0  0  0  0  0  0
   -1.4313    0.3166   -1.8414 C   0  0  0  0  0  0  0  0  0  0  0  0
   -1.1028   -2.0195   -2.0073 C   0  0  0  0  0  0  0  0  0  0  0  0
   -1.5333   -3.1606   -2.7302 C   0  0  0  0  0  0  0  0  0  0  0  0
   -2.3624   -3.0146   -3.4346 H   0  0  0  0  0  0  0  0  0  0  0  0
   -0.8940   -4.3806   -2.5545 C   0  0  0  0  0  0  0  0  0  0  0  0
   -1.2121   -5.2728   -3.1134 H   0  0  0  0  0  0  0  0  0  0  0  0
    0.1867   -4.4387   -1.6602 C   0  0  0  0  0  0  0  0  0  0  0  0
    0.7440   -5.3731   -1.5043 H   0  0  0  0  0  0  0  0  0  0  0  0
    0.5724   -3.3005   -0.9382 C   0  0  0  0  0  0  0  0  0  0  0  0
    1.7034   -3.3758    0.0454 C   0  0  0  0  0  0  0  0  0  0  0  0
    2.4228   -2.5476   -0.0975 H   0  0  0  0  0  0  0  0  0  0  0  0
    2.2413   -4.3365   -0.0502 H   0  0  0  0  0  0  0  0  0  0  0  0
    1.3191   -3.3194    1.0840 H   0  0  0  0  0  0  0  0  0  0  0  0
  1 10  1  0  0  0  0
  2 17  1  0  0  0  0
  3 22  1  0  0  0  0
  4 34  2  0  0  0  0
  4 33  1  0  0  0  0
  5 41  1  0  0  0  0
  6  8  1  0  0  0  0
  7  6  1  0  0  0  0
  9  6  1  0  0  0  0
 10  6  1  6  0  0  0
 10 11  1  0  0  0  0
 11 12  1  0  0  0  0
 13 11  2  0  0  0  0
 13 14  1  0  0  0  0
 15 13  1  0  0  0  0
 16 15  1  0  0  0  0
 17  1  1  0  0  0  0
 17 15  2  0  0  0  0
 18  2  1  0  0  0  0
 18 20  1  0  0  0  0
 18 21  1  0  0  0  0
 19 18  1  0  0  0  0
 22  2  1  0  0  0  0
 23 22  2  0  0  0  0
 24 23  1  0  0  0  0
 24 25  1  0  0  0  0
 26 24  2  0  0  0  0
 27 26  1  0  0  0  0
 28 30  2  0  0  0  0
 28 26  1  0  0  0  0
 29 28  1  0  0  0  0
 30 32  1  0  0  0  0
 31 30  1  0  0  0  0
 32 33  1  0  0  0  0
 32 23  1  0  0  0  0
 33  3  2  0  0  0  0
 34  5  1  0  0  0  0
 35 37  2  0  0  0  0
 35 34  1  0  0  0  0
 36 35  1  0  0  0  0
 37 39  1  0  0  0  0
 38 37  1  0  0  0  0
 39 40  1  0  0  0  0
 39 41  2  0  0  0  0
 41 42  1  0  0  0  0
 42 45  1  0  0  0  0
 43 42  1  0  0  0  0
 44 42  1  0  0  0  0
M  END
