3,11,19
q = 0.0, confidence = 0.996

 37 40  0  0  1  0  0  0  0  0999 V2000
   -2.0181    3.2072   -0.1346 C   0  0  0  0  0  3  0  0  0  0  0  0
   -3.0860    2.9811   -0.2858 H   0  0  0  0  0  0  0  0  0  0  0  0
   -1.1880    2.1585   -0.1300 N   0  0  0  0  0  2  0  0  0  0  0  0
   -1.5157    4.5129    0.0169 C   0  0  0  0  0  0  0  0  0  0  0  0
   -2.1971    5.3805    0.0082 H   0  0  0  0  0  0  0  0  0  0  0  0
   -0.2064    4.7568    0.1756 N   0  0  0  0  0  0  0  0  0  0  0  0
    0.6119    3.6975    0.1782 C   0  0  0  0  0  0  0  0  0  0  0  0
    1.6867    3.9037    0.3176 H   0  0  0  0  0  0  0  0  0  0  0  0
    0.1337    2.3793    0.0228 C   0  0  0  0  0  0  0  0  0  0  0  0
    0.9952    1.1669    0.0182 C   0  0  1  0  0  3  0  0  0  0  0  0
    0.3279   -0.0000   -0.0005 N   0  0  0  0  0  2  0  0  0  0  0  0
    2.3999    1.2059    0.0175 C   0  0  0  0  0  0  0  0  0  0  0  0
    2.9306    2.1666   -0.0049 H   0  0  0  0  0  0  0  0  0  0  0  0
    3.1331    0.0001   -0.0002 C   0  0  0  0  0  0  0  0  0  0  0  0
    2.3999   -1.2059   -0.0181 C   0  0  0  0  0  0  0  0  0  0  0  0
    2.9307   -2.1665    0.0045 H   0  0  0  0  0  0  0  0  0  0  0  0
    0.9952   -1.1669   -0.0191 C   0  0  0  0  0  0  0  0  0  0  0  0
    0.1338   -2.3794   -0.0237 C   0  0  1  0  0  3  0  0  0  0  0  0
   -1.1878   -2.1587    0.1297 N   0  0  0  0  0  2  0  0  0  0  0  0
    0.6121   -3.6975   -0.1796 C   0  0  0  0  0  0  0  0  0  0  0  0
    1.6868   -3.9036   -0.3195 H   0  0  0  0  0  0  0  0  0  0  0  0
   -0.2062   -4.7568   -0.1768 N   0  0  0  0  0  0  0  0  0  0  0  0
   -1.5155   -4.5130   -0.0175 C   0  0  0  0  0  0  0  0  0  0  0  0
   -2.1968   -5.3807   -0.0087 H   0  0  0  0  0  0  0  0  0  0  0  0
   -2.0179   -3.2074    0.1344 C   0  0  0  0  0  0  0  0  0  0  0  0
   -3.0857   -2.9813    0.2861 H   0  0  0  0  0  0  0  0  0  0  0  0
    4.6144    0.0001   -0.0001 C   0  0  0  0  0  0  0  0  0  0  0  0
    5.3360    0.9953    0.6976 C   0  0  0  0  0  0  0  0  0  0  0  0
    4.7935    1.7607    1.2727 H   0  0  0  0  0  0  0  0  0  0  0  0
    6.7366    0.9923    0.7004 C   0  0  0  0  0  0  0  0  0  0  0  0
    7.2823    1.7665    1.2602 H   0  0  0  0  0  0  0  0  0  0  0  0
    7.4414    0.0002    0.0002 C   0  0  0  0  0  0  0  0  0  0  0  0
    8.5417    0.0002    0.0003 H   0  0  0  0  0  0  0  0  0  0  0  0
    6.7368   -0.9920   -0.7002 C   0  0  0  0  0  0  0  0  0  0  0  0
    7.2826   -1.7662   -1.2598 H   0  0  0  0  0  0  0  0  0  0  0  0
    5.3362   -0.9951   -0.6976 C   0  0  0  0  0  0  0  0  0  0  0  0
    4.7938   -1.7605   -1.2728 H   0  0  0  0  0  0  0  0  0  0  0  0
  1  3  1  0  0  0  0
  1  4  1  0  0  0  0
  2  1  1  0  0  0  0
  3  9  1  0  0  0  0
  4  6  2  0  0  0  0
  5  4  1  0  0  0  0
  6  7  1  0  0  0  0
  7  8  1  0  0  0  0
  9  7  2  0  0  0  0
 10  9  1  6  0  0  0
 11 10  1  0  0  0  0
 12 10  1  0  0  0  0
 13 12  1  0  0  0  0
 14 27  1  0  0  0  0
 14 12  2  0  0  0  0
 15 14  1  0  0  0  0
 15 16  1  0  0  0  0
 17 15  2  0  0  0  0
 17 11  1  0  0  0  0
 18 17  1  6  0  0  0
 18 19  1  0  0  0  0
 19 25  1  0  0  0  0
 20 22  2  0  0  0  0
 20 18  1  0  0  0  0
 21 20  1  0  0  0  0
 22 23  1  0  0  0  0
 23 24  1  0  0  0  0
 23 25  2  0  0  0  0
 25 26  1  0  0  0  0
 27 28  1  0  0  0  0
 28 30  2  0  0  0  0
 28 29  1  0  0  0  0
 30 31  1  0  0  0  0
 32 33  1  0  0  0  0
 32 30  1  0  0  0  0
 34 36  1  0  0  0  0
 34 32  2  0  0  0  0
 35 34  1  0  0  0  0
 36 27  2  0  0  0  0
 37 36  1  0  0  0  0
M  END
