3,11,19
q = -1.0, confidence = 0.036

 36 39  0  0  0  0  0  0  0  0999 V2000
    1.5881    0.1477   -0.0336 B   0  0  0  0  0  0  0  0  0  0  0  0
    0.9765    1.2282    0.9341 N   0  0  0  0  0  0  0  0  0  0  0  0
   -0.3687    1.2539    1.1409 N   0  0  0  0  0  2  0  0  0  0  0  0
   -0.6430    2.3496    1.8793 C   0  0  0  0  0  3  0  0  0  0  0  0
   -1.6766    2.5641    2.1721 H   0  0  0  0  0  0  0  0  0  0  0  0
    0.5384    3.0655    2.1373 C   0  0  0  0  0  0  0  0  0  0  0  0
    0.6529    3.9961    2.7010 H   0  0  0  0  0  0  0  0  0  0  0  0
    1.5407    2.3244    1.5058 C   0  0  0  0  0  0  0  0  0  0  0  0
    2.6140    2.5135    1.4153 H   0  0  0  0  0  0  0  0  0  0  0  0
    0.9728    0.5298   -1.4208 N   0  0  0  0  0  0  0  0  0  0  0  0
   -0.3792    0.5354   -1.5827 N   0  0  0  0  0  2  0  0  0  0  0  0
   -0.6334    1.2333   -2.7097 C   0  0  0  0  0  3  0  0  0  0  0  0
   -1.6640    1.3967   -3.0378 H   0  0  0  0  0  0  0  0  0  0  0  0
    0.5635    1.6927   -3.2876 C   0  0  0  0  0  0  0  0  0  0  0  0
    0.6875    2.2839   -4.1998 H   0  0  0  0  0  0  0  0  0  0  0  0
    1.5603    1.2383   -2.4250 C   0  0  0  0  0  0  0  0  0  0  0  0
    2.6433    1.3874   -2.4462 H   0  0  0  0  0  0  0  0  0  0  0  0
    1.0781   -1.2520    0.4415 N   0  0  0  0  0  0  0  0  0  0  0  0
   -0.2332   -1.5121    0.6874 N   0  0  0  0  0  2  0  0  0  0  0  0
   -0.2873   -2.7101    1.3030 C   0  0  0  0  0  3  0  0  0  0  0  0
   -1.2462   -3.1221    1.6303 H   0  0  0  0  0  0  0  0  0  0  0  0
    1.0039   -3.2514    1.4400 C   0  0  0  0  0  0  0  0  0  0  0  0
    1.2889   -4.2063    1.8916 H   0  0  0  0  0  0  0  0  0  0  0  0
    1.8447   -2.2895    0.8837 C   0  0  0  0  0  0  0  0  0  0  0  0
    2.9330   -2.2631    0.7831 H   0  0  0  0  0  0  0  0  0  0  0  0
    3.2040    0.0831   -0.0445 C   0  0  0  0  0  0  0  0  0  0  0  0
    3.8979   -0.4303   -1.1666 C   0  0  0  0  0  0  0  0  0  0  0  0
    3.3376   -0.7134   -2.0707 H   0  0  0  0  0  0  0  0  0  0  0  0
    5.2881   -0.6262   -1.1550 C   0  0  0  0  0  0  0  0  0  0  0  0
    5.7914   -1.0250   -2.0493 H   0  0  0  0  0  0  0  0  0  0  0  0
    6.0317   -0.3267   -0.0035 C   0  0  0  0  0  0  0  0  0  0  0  0
    7.1222   -0.4761    0.0098 H   0  0  0  0  0  0  0  0  0  0  0  0
    5.3656    0.1428    1.1385 C   0  0  0  0  0  0  0  0  0  0  0  0
    5.9303    0.3523    2.0600 H   0  0  0  0  0  0  0  0  0  0  0  0
    3.9746    0.3330    1.1156 C   0  0  0  0  0  0  0  0  0  0  0  0
    3.4779    0.6522    2.0440 H   0  0  0  0  0  0  0  0  0  0  0  0
  1 18  1  0  0  0  0
  1  2  1  0  0  0  0
  2  3  1  0  0  0  0
  2  8  1  0  0  0  0
  3  4  1  0  0  0  0
  4  6  1  0  0  0  0
  4  5  1  0  0  0  0
  6  7  1  0  0  0  0
  8  6  2  0  0  0  0
  9  8  1  0  0  0  0
 10  1  1  0  0  0  0
 11 10  1  0  0  0  0
 12 11  1  0  0  0  0
 13 12  1  0  0  0  0
 14 12  1  0  0  0  0
 14 16  2  0  0  0  0
 15 14  1  0  0  0  0
 16 10  1  0  0  0  0
 17 16  1  0  0  0  0
 18 19  1  0  0  0  0
 18 24  1  0  0  0  0
 19 20  1  0  0  0  0
 20 22  1  0  0  0  0
 20 21  1  0  0  0  0
 22 23  1  0  0  0  0
 24 22  2  0  0  0  0
 25 24  1  0  0  0  0
 26  1  1  0  0  0  0
 26 35  1  0  0  0  0
 27 29  1  0  0  0  0
 27 26  2  0  0  0  0
 28 27  1  0  0  0  0
 29 31  2  0  0  0  0
 30 29  1  0  0  0  0
 31 32  1  0  0  0  0
 31 33  1  0  0  0  0
 33 34  1  0  0  0  0
 35 33  2  0  0  0  0
 35 36  1  0  0  0  0
M  END
