3,11,19
q = -1.0

 36 39  0  0  0  0  0  0  0  0999 V2000
    0.8551    0.0861   -0.1844 B   0  0  0  0  0  0  0  0  0  0  0  0
    0.2202    1.4428   -0.6657 N   0  0  0  0  0  0  0  0  0  0  0  0
   -1.1279    1.6124   -0.5468 N   0  0  0  0  0  2  0  0  0  0  0  0
   -1.4491    2.7448   -1.2058 C   0  0  0  0  0  3  0  0  0  0  0  0
   -2.4906    3.0834   -1.2296 H   0  0  0  0  0  0  0  0  0  0  0  0
   -0.3019    3.3057   -1.7927 C   0  0  0  0  0  0  0  0  0  0  0  0
   -0.2281    4.2184   -2.3911 H   0  0  0  0  0  0  0  0  0  0  0  0
    0.7313    2.4368   -1.4380 C   0  0  0  0  0  0  0  0  0  0  0  0
    1.7958    2.4750   -1.6810 H   0  0  0  0  0  0  0  0  0  0  0  0
    0.2418   -0.9368   -1.1951 N   0  0  0  0  0  0  0  0  0  0  0  0
   -1.1102   -1.0952   -1.2458 N   0  0  0  0  0  2  0  0  0  0  0  0
   -1.3870   -1.6957   -2.4219 C   0  0  0  0  0  3  0  0  0  0  0  0
   -2.4225   -1.9124   -2.7004 H   0  0  0  0  0  0  0  0  0  0  0  0
   -0.2063   -1.9223   -3.1521 C   0  0  0  0  0  0  0  0  0  0  0  0
   -0.1012   -2.3904   -4.1352 H   0  0  0  0  0  0  0  0  0  0  0  0
    0.8036   -1.4069   -2.3428 C   0  0  0  0  0  0  0  0  0  0  0  0
    1.8809   -1.3398   -2.5156 H   0  0  0  0  0  0  0  0  0  0  0  0
    0.3946   -0.1809    1.2786 N   0  0  0  0  0  0  0  0  0  0  0  0
   -0.9097   -0.1156    1.6536 N   0  0  0  0  0  2  0  0  0  0  0  0
   -0.9333   -0.1474    3.0002 C   0  0  0  0  0  3  0  0  0  0  0  0
   -1.8827   -0.0764    3.5384 H   0  0  0  0  0  0  0  0  0  0  0  0
    0.3720   -0.2585    3.5136 C   0  0  0  0  0  0  0  0  0  0  0  0
    0.6815   -0.3116    4.5615 H   0  0  0  0  0  0  0  0  0  0  0  0
    1.1875   -0.2713    2.3854 C   0  0  0  0  0  0  0  0  0  0  0  0
    2.2754   -0.3279    2.2976 H   0  0  0  0  0  0  0  0  0  0  0  0
    2.4901    0.0529   -0.1676 C   0  0  0  0  0  0  0  0  0  0  0  0
    3.2849    1.1699    0.1610 C   0  0  0  0  0  0  0  0  0  0  0  0
    4.6863    1.1243    0.2681 C   0  0  0  0  0  0  0  0  0  0  0  0
    5.3497   -0.1010    0.1028 C   0  0  0  0  0  0  0  0  0  0  0  0
    4.5988   -1.2586   -0.1524 C   0  0  0  0  0  0  0  0  0  0  0  0
    3.1995   -1.1640   -0.2519 C   0  0  0  0  0  0  0  0  0  0  0  0
    2.7233    2.3590    0.4466 F   0  0  0  0  0  0  0  0  0  0  0  0
    5.3817    2.2263    0.5596 F   0  0  0  0  0  0  0  0  0  0  0  0
    6.6762   -0.1683    0.2082 F   0  0  0  0  0  0  0  0  0  0  0  0
    5.2104   -2.4402   -0.2652 F   0  0  0  0  0  0  0  0  0  0  0  0
    2.5489   -2.3332   -0.3938 F   0  0  0  0  0  0  0  0  0  0  0  0
  1 26  1  0  0  0  0
  1 18  1  0  0  0  0
  2  3  1  0  0  0  0
  2  1  1  0  0  0  0
  4  3  1  0  0  0  0
  5  4  1  0  0  0  0
  6  8  2  0  0  0  0
  6  4  1  0  0  0  0
  7  6  1  0  0  0  0
  8  2  1  0  0  0  0
  9  8  1  0  0  0  0
 10  1  1  0  0  0  0
 11 10  1  0  0  0  0
 12 11  1  0  0  0  0
 13 12  1  0  0  0  0
 14 12  1  0  0  0  0
 14 16  2  0  0  0  0
 15 14  1  0  0  0  0
 16 10  1  0  0  0  0
 17 16  1  0  0  0  0
 18 19  1  0  0  0  0
 18 24  1  0  0  0  0
 19 20  1  0  0  0  0
 20 22  1  0  0  0  0
 20 21  1  0  0  0  0
 22 23  1  0  0  0  0
 24 22  2  0  0  0  0
 25 24  1  0  0  0  0
 26 27  1  0  0  0  0
 27 28  2  0  0  0  0
 27 32  1  0  0  0  0
 28 33  1  0  0  0  0
 29 34  1  0  0  0  0
 29 28  1  0  0  0  0
 30 29  2  0  0  0  0
 31 26  2  0  0  0  0
 31 30  1  0  0  0  0
 35 30  1  0  0  0  0
 36 31  1  0  0  0  0
M  END
