1,2,3
q = 0.0, confidence = 0.982

 38 41  0  0  1  0  0  0  0  0999 V2000
    0.7909   -2.2189   -0.5251 N   0  0  0  0  0  2  0  0  0  0  0  0
   -0.7704   -0.0285   -0.5966 N   0  0  0  0  0  2  0  0  0  0  0  0
    0.6887    2.2330   -0.4792 N   0  0  0  0  0  2  0  0  0  0  0  0
   -5.6340    1.1398   -0.4911 N   0  0  0  0  0  0  0  0  0  0  0  0
    1.6463   -3.2462   -0.6030 C   0  0  0  0  0  3  0  0  0  0  0  0
    2.7154   -2.9879   -0.5057 H   0  0  0  0  0  0  0  0  0  0  0  0
    1.2166   -4.5661   -0.8073 C   0  0  0  0  0  0  0  0  0  0  0  0
    1.9482   -5.3845   -0.8637 H   0  0  0  0  0  0  0  0  0  0  0  0
   -0.1588   -4.8014   -0.9395 C   0  0  0  0  0  0  0  0  0  0  0  0
   -0.5403   -5.8200   -1.1056 H   0  0  0  0  0  0  0  0  0  0  0  0
   -1.0479   -3.7215   -0.8675 C   0  0  0  0  0  0  0  0  0  0  0  0
   -2.1261   -3.8894   -0.9928 H   0  0  0  0  0  0  0  0  0  0  0  0
   -0.5366   -2.4253   -0.6555 C   0  0  0  0  0  0  0  0  0  0  0  0
   -1.4067   -1.2115   -0.5871 C   0  0  2  0  0  3  0  0  0  0  0  0
   -2.8107   -1.2814   -0.5210 C   0  0  0  0  0  0  0  0  0  0  0  0
   -3.3088   -2.2581   -0.4988 H   0  0  0  0  0  0  0  0  0  0  0  0
   -3.5623   -0.0917   -0.4747 C   0  0  0  0  0  0  0  0  0  0  0  0
   -2.8640    1.1305   -0.5120 C   0  0  0  0  0  0  0  0  0  0  0  0
   -3.4567    2.0535   -0.4815 H   0  0  0  0  0  0  0  0  0  0  0  0
   -1.4606    1.1256   -0.5669 C   0  0  0  0  0  0  0  0  0  0  0  0
   -0.6481    2.3790   -0.5986 C   0  0  2  0  0  3  0  0  0  0  0  0
   -1.2260    3.6537   -0.7629 C   0  0  0  0  0  0  0  0  0  0  0  0
   -2.3130    3.7673   -0.8688 H   0  0  0  0  0  0  0  0  0  0  0  0
   -0.3912    4.7775   -0.8054 C   0  0  0  0  0  0  0  0  0  0  0  0
   -0.8236    5.7810   -0.9339 H   0  0  0  0  0  0  0  0  0  0  0  0
    0.9953    4.6060   -0.6900 C   0  0  0  0  0  0  0  0  0  0  0  0
    1.6854    5.4610   -0.7243 H   0  0  0  0  0  0  0  0  0  0  0  0
    1.4916    3.3037   -0.5284 C   0  0  0  0  0  0  0  0  0  0  0  0
    2.5727    3.0970   -0.4418 H   0  0  0  0  0  0  0  0  0  0  0  0
   -5.0504   -0.0738   -0.3876 C   0  0  0  0  0  0  0  0  0  0  0  0
   -5.8116   -1.2479   -0.1991 C   0  0  0  0  0  0  0  0  0  0  0  0
   -5.3261   -2.2283   -0.0972 H   0  0  0  0  0  0  0  0  0  0  0  0
   -7.2065   -1.1503   -0.1266 C   0  0  0  0  0  0  0  0  0  0  0  0
   -7.8184   -2.0526    0.0230 H   0  0  0  0  0  0  0  0  0  0  0  0
   -7.8052    0.1113   -0.2416 C   0  0  0  0  0  0  0  0  0  0  0  0
   -8.8967    0.2360   -0.1900 H   0  0  0  0  0  0  0  0  0  0  0  0
   -6.9660    1.2248   -0.4203 C   0  0  0  0  0  0  0  0  0  0  0  0
   -7.3971    2.2378   -0.5099 H   0  0  0  0  0  0  0  0  0  0  0  0
  2 14  1  0  0  0  0
  2 20  1  0  0  0  0
  4 37  2  0  0  0  0
  4 30  1  0  0  0  0
  5  1  1  0  0  0  0
  5  6  1  0  0  0  0
  7  5  1  0  0  0  0
  8  7  1  0  0  0  0
  9 11  1  0  0  0  0
  9  7  2  0  0  0  0
 10  9  1  0  0  0  0
 11 13  2  0  0  0  0
 12 11  1  0  0  0  0
 13  1  1  0  0  0  0
 14 13  1  6  0  0  0
 14 15  1  0  0  0  0
 15 16  1  0  0  0  0
 15 17  2  0  0  0  0
 17 30  1  0  0  0  0
 18 19  1  0  0  0  0
 18 17  1  0  0  0  0
 20 18  2  0  0  0  0
 21 20  1  6  0  0  0
 21  3  1  0  0  0  0
 22 21  1  0  0  0  0
 23 22  1  0  0  0  0
 24 22  2  0  0  0  0
 24 26  1  0  0  0  0
 25 24  1  0  0  0  0
 26 28  2  0  0  0  0
 27 26  1  0  0  0  0
 28  3  1  0  0  0  0
 28 29  1  0  0  0  0
 30 31  2  0  0  0  0
 31 33  1  0  0  0  0
 31 32  1  0  0  0  0
 33 34  1  0  0  0  0
 35 36  1  0  0  0  0
 35 33  2  0  0  0  0
 37 35  1  0  0  0  0
 38 37  1  0  0  0  0
M  END
