1,7,11
q = -1.0

 35 38  0  0  1  0  0  0  0  0999 V2000
   -0.1842   -1.0196    1.4037 N   0  0  0  0  0  2  0  0  0  0  0  0
    0.1507    2.8294    0.7390 C   0  0  0  0  0  0  0  0  0  0  0  0
   -0.8599    3.0753    1.0960 H   0  0  0  0  0  0  0  0  0  0  0  0
    2.9086   -0.4980   -1.3401 C   0  0  0  0  0  0  0  0  0  0  0  0
    1.2342    3.7201    0.9114 C   0  0  0  0  0  0  0  0  0  0  0  0
    1.0589    4.6875    1.4030 H   0  0  0  0  0  0  0  0  0  0  0  0
    0.4573   -0.6875   -1.1829 N   0  0  0  0  0  2  0  0  0  0  0  0
    2.7021    2.0947   -0.1605 C   0  0  0  0  0  0  0  0  0  0  0  0
    2.5000    3.3544    0.4709 C   0  0  0  0  0  0  0  0  0  0  0  0
    3.3598    4.0283    0.6102 H   0  0  0  0  0  0  0  0  0  0  0  0
    0.3028    1.6416    0.1334 N   0  0  0  0  0  2  0  0  0  0  0  0
    1.6141   -0.0161   -0.9779 C   0  0  0  0  0  0  0  0  0  0  0  0
    0.0827   -2.9211   -0.1378 C   0  0  0  0  0  0  0  0  0  0  0  0
   -1.0137   -3.0771   -0.1600 H   0  0  0  0  0  0  0  0  0  0  0  0
    0.5598   -3.9205   -0.1501 H   0  0  0  0  0  0  0  0  0  0  0  0
    0.4278   -2.2146    1.1370 C   0  0  1  0  0  3  0  0  0  0  0  0
    0.9922   -0.8815    3.5125 C   0  0  0  0  0  0  0  0  0  0  0  0
    1.1708   -0.3211    4.4407 H   0  0  0  0  0  0  0  0  0  0  0  0
    1.3639   -2.7499    2.0412 C   0  0  0  0  0  0  0  0  0  0  0  0
    1.8563   -3.6994    1.7879 H   0  0  0  0  0  0  0  0  0  0  0  0
    2.9553   -1.8314   -1.9103 C   0  0  0  0  0  0  0  0  0  0  0  0
    3.9156   -2.2102   -2.2957 H   0  0  0  0  0  0  0  0  0  0  0  0
    1.6530   -2.0871    3.2379 C   0  0  0  0  0  0  0  0  0  0  0  0
    2.3824   -2.5056    3.9473 H   0  0  0  0  0  0  0  0  0  0  0  0
    1.5356    1.2707   -0.3354 C   0  0  0  0  0  0  0  0  0  0  0  0
    0.0918   -0.3865    2.5674 C   0  0  0  0  0  0  0  0  0  0  0  0
   -0.4349    0.5654    2.7316 H   0  0  0  0  0  0  0  0  0  0  0  0
    0.5009   -2.1199   -1.4467 C   0  0  2  0  0  0  0  0  0  0  0  0
   -0.2896   -2.3578   -2.1928 H   0  0  0  0  0  0  0  0  0  0  0  0
    1.8337   -2.5896   -1.9825 C   0  0  0  0  0  0  0  0  0  0  0  0
    1.8622   -3.5970   -2.4277 H   0  0  0  0  0  0  0  0  0  0  0  0
    4.0431    0.3280   -1.1566 C   0  0  0  0  0  0  0  0  0  0  0  0
    5.0228   -0.0658   -1.4723 H   0  0  0  0  0  0  0  0  0  0  0  0
    3.9619    1.6030   -0.5983 C   0  0  0  0  0  3  0  0  0  0  0  0
    4.8584    2.2268   -0.4728 H   0  0  0  0  0  0  0  0  0  0  0  0
  1 26  1  0  0  0  0
  2  5  2  0  0  0  0
  2  3  1  0  0  0  0
  4 32  2  0  0  0  0
  4 12  1  0  0  0  0
  5  6  1  0  0  0  0
  7 12  1  0  0  0  0
  8  9  2  0  0  0  0
  9 10  1  0  0  0  0
  9  5  1  0  0  0  0
 11  2  1  0  0  0  0
 12 25  2  0  0  0  0
 14 13  1  0  0  0  0
 15 13  1  0  0  0  0
 16 13  1  6  0  0  0
 16  1  1  0  0  0  0
 16 19  1  0  0  0  0
 17 18  1  0  0  0  0
 19 23  2  0  0  0  0
 20 19  1  0  0  0  0
 21  4  1  0  0  0  0
 22 21  1  0  0  0  0
 23 17  1  0  0  0  0
 23 24  1  0  0  0  0
 25  8  1  0  0  0  0
 25 11  1  0  0  0  0
 26 27  1  0  0  0  0
 26 17  2  0  0  0  0
 28 29  1  6  0  0  0
 28  7  1  0  0  0  0
 28 13  1  0  0  0  0
 30 21  2  0  0  0  0
 30 28  1  0  0  0  0
 31 30  1  0  0  0  0
 32 34  1  0  0  0  0
 33 32  1  0  0  0  0
 34 35  1  0  0  0  0
 34  8  1  0  0  0  0
M  END
