1,6,7
q = -1.0

 34 37  0  0  1  0  0  0  0  0999 V2000
   -0.8427   -1.3712    0.5792 N   0  0  0  0  0  2  0  0  0  0  0  0
    2.2095    0.8080    2.2454 C   0  0  0  0  0  0  0  0  0  0  0  0
    3.2105    0.6330    1.7983 H   0  0  0  0  0  0  0  0  0  0  0  0
    1.9524   -0.0914    2.8383 H   0  0  0  0  0  0  0  0  0  0  0  0
    1.3259    2.9930    2.2048 O   0  0  0  0  0  0  0  0  0  0  0  0
   -0.6429    0.8556   -0.8807 N   0  0  0  0  0  2  0  0  0  0  0  0
    1.2271    1.0012    1.1639 N   0  0  0  0  0  2  0  0  0  0  0  0
    0.8220    2.2384    1.2053 C   0  0  1  0  0  3  0  0  0  0  0  0
   -0.1550    2.9394    0.3181 C   0  0  0  0  0  0  0  0  0  0  0  0
    0.1598    3.9995    0.2263 H   0  0  0  0  0  0  0  0  0  0  0  0
   -1.1260    2.9558    0.8627 H   0  0  0  0  0  0  0  0  0  0  0  0
   -3.2803   -1.1168    0.8315 C   0  0  0  0  0  0  0  0  0  0  0  0
   -3.0376    1.3286   -0.6417 C   0  0  0  0  0  0  0  0  0  0  0  0
   -4.2899    0.8729   -0.1532 C   0  0  0  0  0  0  0  0  0  0  0  0
   -5.1815    1.4859   -0.3626 H   0  0  0  0  0  0  0  0  0  0  0  0
   -4.4265   -0.3125    0.5649 C   0  0  0  0  0  0  0  0  0  0  0  0
   -5.4089   -0.6389    0.9353 H   0  0  0  0  0  0  0  0  0  0  0  0
   -3.2914   -2.3272    1.5781 C   0  0  0  0  0  0  0  0  0  0  0  0
   -4.2463   -2.7089    1.9720 H   0  0  0  0  0  0  0  0  0  0  0  0
    2.1213    2.1186    3.0507 C   0  0  0  0  0  0  0  0  0  0  0  0
    1.5873    2.0053    4.0170 H   0  0  0  0  0  0  0  0  0  0  0  0
    3.0960    2.6096    3.2328 H   0  0  0  0  0  0  0  0  0  0  0  0
   -0.8893   -2.5040    1.2965 C   0  0  0  0  0  0  0  0  0  0  0  0
    0.0666   -3.0214    1.4638 H   0  0  0  0  0  0  0  0  0  0  0  0
   -2.8451    2.5040   -1.4730 C   0  0  0  0  0  0  0  0  0  0  0  0
   -3.7288    2.9966   -1.9098 H   0  0  0  0  0  0  0  0  0  0  0  0
   -2.1039   -3.0136    1.8079 C   0  0  0  0  0  0  0  0  0  0  0  0
   -2.0898   -3.9489    2.3852 H   0  0  0  0  0  0  0  0  0  0  0  0
   -0.4052    2.2811   -1.0730 C   0  0  2  0  0  0  0  0  0  0  0  0
    0.5098    2.4014   -1.6878 H   0  0  0  0  0  0  0  0  0  0  0  0
   -1.5883    2.9403   -1.7573 C   0  0  0  0  0  0  0  0  0  0  0  0
   -1.4113    3.7820   -2.4439 H   0  0  0  0  0  0  0  0  0  0  0  0
   -1.8737    0.5306   -0.4194 C   0  0  0  0  0  0  0  0  0  0  0  0
   -2.0048   -0.6862    0.3315 C   0  0  1  0  0  3  0  0  0  0  0  0
  1 23  1  0  0  0  0
  2  4  1  0  0  0  0
  2 20  1  0  0  0  0
  3  2  1  0  0  0  0
  5 20  1  0  0  0  0
  6 33  1  0  0  0  0
  7  8  1  0  0  0  0
  7  2  1  0  0  0  0
  8  9  1  1  0  0  0
  8  5  1  0  0  0  0
  9 11  1  0  0  0  0
 10  9  1  0  0  0  0
 12 18  2  0  0  0  0
 13 33  2  0  0  0  0
 13 14  1  0  0  0  0
 14 16  2  0  0  0  0
 15 14  1  0  0  0  0
 16 12  1  0  0  0  0
 16 17  1  0  0  0  0
 18 27  1  0  0  0  0
 18 19  1  0  0  0  0
 20 22  1  0  0  0  0
 20 21  1  0  0  0  0
 23 24  1  0  0  0  0
 23 27  2  0  0  0  0
 25 13  1  0  0  0  0
 26 25  1  0  0  0  0
 27 28  1  0  0  0  0
 29 30  1  6  0  0  0
 29  6  1  0  0  0  0
 29  9  1  0  0  0  0
 31 25  2  0  0  0  0
 31 29  1  0  0  0  0
 32 31  1  0  0  0  0
 34 33  1  1  0  0  0
 34  1  1  0  0  0  0
 34 12  1  0  0  0  0
M  END
