3,4,5
q = 0.0, confidence = 1.0

 40 42  0  0  1  0  0  0  0  0999 V2000
    4.8095    0.2697    0.0541 O   0  0  0  0  0  0  0  0  0  0  0  0
   -0.1458   -2.8200   -0.1990 O   0  0  0  0  0  0  0  0  0  0  0  0
    1.6553   -1.4778   -0.1379 N   0  0  0  0  0  2  0  0  0  0  0  0
    1.5721    1.1774   -1.4232 N   0  0  0  0  0  2  0  0  0  0  0  0
    1.4928    0.9750    1.4685 N   0  0  0  0  0  2  0  0  0  0  0  0
    3.3950    0.2285    0.0130 C   0  0  2  0  0  0  0  0  0  0  0  0
    5.4221    1.5527    0.2067 C   0  0  0  0  0  0  0  0  0  0  0  0
    2.9853   -1.2547   -0.1248 C   0  0  1  0  0  3  0  0  0  0  0  0
    3.9293   -2.2815   -0.2270 C   0  0  0  0  0  0  0  0  0  0  0  0
    3.4462   -3.5944   -0.3476 C   0  0  0  0  0  0  0  0  0  0  0  0
    2.0690   -3.8430   -0.3519 C   0  0  0  0  0  0  0  0  0  0  0  0
    1.1949   -2.7411   -0.2356 C   0  0  0  0  0  0  0  0  0  0  0  0
    2.8886    0.9228   -1.2831 C   0  0  1  0  0  3  0  0  0  0  0  0
    3.7842    1.1403   -2.3480 C   0  0  0  0  0  0  0  0  0  0  0  0
    3.3080    1.7084   -3.5359 C   0  0  0  0  0  0  0  0  0  0  0  0
    1.9484    2.0382   -3.6408 C   0  0  0  0  0  0  0  0  0  0  0  0
    1.1121    1.7376   -2.5625 C   0  0  0  0  0  0  0  0  0  0  0  0
    2.8074    0.6928    1.3752 C   0  0  2  0  0  3  0  0  0  0  0  0
    3.6243    0.6568    2.5213 C   0  0  0  0  0  0  0  0  0  0  0  0
    3.0751    1.0059    3.7615 C   0  0  0  0  0  0  0  0  0  0  0  0
    1.7224    1.3700    3.8330 C   0  0  0  0  0  0  0  0  0  0  0  0
    0.9629    1.3213    2.6608 C   0  0  0  0  0  0  0  0  0  0  0  0
   -0.7846   -4.0842   -0.3740 C   0  0  0  0  0  0  0  0  0  0  0  0
    5.2626    1.9791    1.2190 H   0  0  0  0  0  0  0  0  0  0  0  0
    6.5052    1.3918    0.0520 H   0  0  0  0  0  0  0  0  0  0  0  0
    5.0559    2.2898   -0.5379 H   0  0  0  0  0  0  0  0  0  0  0  0
    4.9992   -2.0435   -0.2112 H   0  0  0  0  0  0  0  0  0  0  0  0
    4.1503   -4.4354   -0.4342 H   0  0  0  0  0  0  0  0  0  0  0  0
    1.6846   -4.8671   -0.4365 H   0  0  0  0  0  0  0  0  0  0  0  0
    4.8353    0.8428   -2.2477 H   0  0  0  0  0  0  0  0  0  0  0  0
    3.9954    1.8862   -4.3763 H   0  0  0  0  0  0  0  0  0  0  0  0
    1.5351    2.4948   -4.5513 H   0  0  0  0  0  0  0  0  0  0  0  0
    0.0284    1.9351   -2.5989 H   0  0  0  0  0  0  0  0  0  0  0  0
    4.6684    0.3304    2.4372 H   0  0  0  0  0  0  0  0  0  0  0  0
    3.6997    0.9842    4.6670 H   0  0  0  0  0  0  0  0  0  0  0  0
    1.2517    1.6556    4.7844 H   0  0  0  0  0  0  0  0  0  0  0  0
   -0.1175    1.5375    2.6669 H   0  0  0  0  0  0  0  0  0  0  0  0
   -0.5157   -4.5364   -1.3514 H   0  0  0  0  0  0  0  0  0  0  0  0
   -0.5247   -4.7843    0.4480 H   0  0  0  0  0  0  0  0  0  0  0  0
   -1.8692   -3.8749   -0.3573 H   0  0  0  0  0  0  0  0  0  0  0  0
  1  7  1  0  0  0  0
  3  8  1  0  0  0  0
  4 13  1  0  0  0  0
  5 22  1  0  0  0  0
  6  1  1  1  0  0  0
  7 24  1  0  0  0  0
  8  6  1  1  0  0  0
  9 27  1  0  0  0  0
  9  8  1  0  0  0  0
 10  9  2  0  0  0  0
 11 10  1  0  0  0  0
 11 12  2  0  0  0  0
 12  2  1  0  0  0  0
 12  3  1  0  0  0  0
 13  6  1  6  0  0  0
 14 30  1  0  0  0  0
 14 13  1  0  0  0  0
 15 14  2  0  0  0  0
 16 15  1  0  0  0  0
 16 17  2  0  0  0  0
 17  4  1  0  0  0  0
 18  6  1  1  0  0  0
 18  5  1  0  0  0  0
 18 19  1  0  0  0  0
 19 20  2  0  0  0  0
 20 21  1  0  0  0  0
 20 35  1  0  0  0  0
 21 36  1  0  0  0  0
 22 37  1  0  0  0  0
 22 21  2  0  0  0  0
 23 40  1  0  0  0  0
 23  2  1  0  0  0  0
 23 39  1  0  0  0  0
 25  7  1  0  0  0  0
 26  7  1  0  0  0  0
 28 10  1  0  0  0  0
 29 11  1  0  0  0  0
 31 15  1  0  0  0  0
 32 16  1  0  0  0  0
 33 17  1  0  0  0  0
 34 19  1  0  0  0  0
 38 23  1  0  0  0  0
M  END
