2,3,4
q = 0.0, confidence = 0.99

 53 55  0  0  0  0  0  0  0  0999 V2000
    7.4280    0.6987    0.2852 Cl  0  0  0  0  0  0  0  0  0  0  0  0
   -1.8018    1.8126   -0.0326 N   0  0  0  0  0  2  0  0  0  0  0  0
   -3.3067   -1.0738    0.1265 N   0  0  0  0  0  0  0  0  0  0  0  0
   -0.4068   -1.8117    0.3016 N   0  0  0  0  0  0  0  0  0  0  0  0
   -0.9707    2.7699    0.4528 C   0  0  0  0  0  3  0  0  0  0  0  0
   -1.3275    4.1175    0.5217 C   0  0  0  0  0  0  0  0  0  0  0  0
   -2.5995    4.4961    0.0691 C   0  0  0  0  0  0  0  0  0  0  0  0
   -3.4596    3.5090   -0.4283 C   0  0  0  0  0  0  0  0  0  0  0  0
   -3.0451    2.1666   -0.4739 C   0  0  0  0  0  0  0  0  0  0  0  0
   -3.9610    1.0881   -1.0043 C   0  0  0  0  0  0  0  0  0  0  0  0
   -4.3302   -0.0203    0.0059 C   0  0  0  0  0  0  0  0  0  0  0  0
   -3.3923   -1.7621    1.4328 C   0  0  0  0  0  0  0  0  0  0  0  0
   -2.3342   -2.8443    1.6433 C   0  0  0  0  0  0  0  0  0  0  0  0
   -0.8680   -2.4145    1.5928 C   0  0  0  0  0  0  0  0  0  0  0  0
   -3.3046   -2.0103   -1.0299 C   0  0  0  0  0  0  0  0  0  0  0  0
   -1.9346   -2.1612   -1.7046 C   0  0  0  0  0  0  0  0  0  0  0  0
   -0.7595   -2.6815   -0.8707 C   0  0  0  0  0  0  0  0  0  0  0  0
    1.0642   -1.5783    0.3810 C   0  0  0  0  0  0  0  0  0  0  0  0
    1.5923   -0.6404   -0.7092 C   0  0  0  0  0  0  0  0  0  0  0  0
    3.0459   -0.2892   -0.4931 C   0  0  0  0  0  0  0  0  0  0  0  0
    4.0717   -0.9739   -1.1731 C   0  0  0  0  0  0  0  0  0  0  0  0
    5.4215   -0.6774   -0.9408 C   0  0  0  0  0  0  0  0  0  0  0  0
    5.7576    0.3199   -0.0101 C   0  0  0  0  0  0  0  0  0  0  0  0
    4.7526    1.0186    0.6815 C   0  0  0  0  0  0  0  0  0  0  0  0
    3.4099    0.7075    0.4351 C   0  0  0  0  0  0  0  0  0  0  0  0
    0.0222    2.4288    0.7826 H   0  0  0  0  0  0  0  0  0  0  0  0
   -0.6131    4.8535    0.9163 H   0  0  0  0  0  0  0  0  0  0  0  0
   -2.9180    5.5486    0.1003 H   0  0  0  0  0  0  0  0  0  0  0  0
   -4.4634    3.7733   -0.7912 H   0  0  0  0  0  0  0  0  0  0  0  0
   -4.8965    1.5723   -1.3446 H   0  0  0  0  0  0  0  0  0  0  0  0
   -3.5129    0.6306   -1.9134 H   0  0  0  0  0  0  0  0  0  0  0  0
   -5.3148   -0.4611   -0.2802 H   0  0  0  0  0  0  0  0  0  0  0  0
   -4.4729    0.4346    1.0073 H   0  0  0  0  0  0  0  0  0  0  0  0
   -3.2950   -0.9850    2.2210 H   0  0  0  0  0  0  0  0  0  0  0  0
   -4.4018   -2.2248    1.5638 H   0  0  0  0  0  0  0  0  0  0  0  0
   -2.5039   -3.2765    2.6506 H   0  0  0  0  0  0  0  0  0  0  0  0
   -2.5084   -3.6893    0.9465 H   0  0  0  0  0  0  0  0  0  0  0  0
   -0.2353   -3.3062    1.8143 H   0  0  0  0  0  0  0  0  0  0  0  0
   -0.6605   -1.6708    2.3902 H   0  0  0  0  0  0  0  0  0  0  0  0
   -3.7081   -2.9996   -0.7201 H   0  0  0  0  0  0  0  0  0  0  0  0
   -4.0156   -1.6334   -1.7929 H   0  0  0  0  0  0  0  0  0  0  0  0
   -2.0555   -2.8398   -2.5761 H   0  0  0  0  0  0  0  0  0  0  0  0
   -1.6413   -1.1728   -2.1280 H   0  0  0  0  0  0  0  0  0  0  0  0
    0.1247   -2.7330   -1.5347 H   0  0  0  0  0  0  0  0  0  0  0  0
   -0.9370   -3.7217   -0.5227 H   0  0  0  0  0  0  0  0  0  0  0  0
    1.2699   -1.1268    1.3726 H   0  0  0  0  0  0  0  0  0  0  0  0
    1.6060   -2.5527    0.3562 H   0  0  0  0  0  0  0  0  0  0  0  0
    1.4607   -1.0946   -1.7133 H   0  0  0  0  0  0  0  0  0  0  0  0
    0.9591    0.2785   -0.6935 H   0  0  0  0  0  0  0  0  0  0  0  0
    3.8142   -1.7536   -1.9076 H   0  0  0  0  0  0  0  0  0  0  0  0
    6.2177   -1.2111   -1.4780 H   0  0  0  0  0  0  0  0  0  0  0  0
    5.0315    1.8008    1.4011 H   0  0  0  0  0  0  0  0  0  0  0  0
    2.6262    1.2628    0.9771 H   0  0  0  0  0  0  0  0  0  0  0  0
  2  5  1  0  0  0  0
  3 12  1  0  0  0  0
  4 18  1  0  0  0  0
  4 14  1  0  0  0  0
  5  6  1  0  0  0  0
  5 26  1  0  0  0  0
  6 27  1  0  0  0  0
  7 28  1  0  0  0  0
  7  6  2  0  0  0  0
  8  7  1  0  0  0  0
  9  8  2  0  0  0  0
  9  2  1  0  0  0  0
 10  9  1  0  0  0  0
 10 11  1  0  0  0  0
 11  3  1  0  0  0  0
 11 33  1  0  0  0  0
 12 35  1  0  0  0  0
 12 13  1  0  0  0  0
 12 34  1  0  0  0  0
 13 36  1  0  0  0  0
 14 13  1  0  0  0  0
 14 38  1  0  0  0  0
 14 39  1  0  0  0  0
 15 40  1  0  0  0  0
 15  3  1  0  0  0  0
 16 15  1  0  0  0  0
 16 17  1  0  0  0  0
 17 45  1  0  0  0  0
 17  4  1  0  0  0  0
 18 46  1  0  0  0  0
 19 49  1  0  0  0  0
 19 20  1  0  0  0  0
 19 18  1  0  0  0  0
 20 25  1  0  0  0  0
 21 22  1  0  0  0  0
 21 20  2  0  0  0  0
 22 23  2  0  0  0  0
 23  1  1  0  0  0  0
 23 24  1  0  0  0  0
 24 52  1  0  0  0  0
 25 24  2  0  0  0  0
 25 53  1  0  0  0  0
 29  8  1  0  0  0  0
 30 10  1  0  0  0  0
 31 10  1  0  0  0  0
 32 11  1  0  0  0  0
 37 13  1  0  0  0  0
 41 15  1  0  0  0  0
 42 16  1  0  0  0  0
 43 16  1  0  0  0  0
 44 17  1  0  0  0  0
 47 18  1  0  0  0  0
 48 19  1  0  0  0  0
 50 21  1  0  0  0  0
 51 22  1  0  0  0  0
M  END
