1,5,14
q = 0.0, confidence = 0.986

 48 49  0  0  1  0  0  0  0  0999 V2000
    0.0568    2.1459   -0.2334 N   0  0  0  0  0  0  0  0  0  0  0  0
   -0.0835    2.7993   -1.5632 C   0  0  0  0  0  0  0  0  0  0  0  0
    0.1483    4.3097   -1.6005 C   0  0  0  0  0  0  0  0  0  0  0  0
    2.3989    0.1328    0.8771 N   0  0  0  0  0  0  0  0  0  0  0  0
    1.7219   -0.6978    0.0407 N   0  0  0  0  0  2  0  0  0  0  0  0
    2.5784   -1.6423   -0.4031 C   0  0  2  0  0  3  0  0  0  0  0  0
    3.8291   -1.4282    0.2191 C   0  0  0  0  0  0  0  0  0  0  0  0
    3.6952   -0.2893    1.0194 C   0  0  0  0  0  0  0  0  0  0  0  0
    2.1738   -2.6879   -1.3848 C   0  0  0  0  0  0  0  0  0  0  0  0
    4.6886    0.3948    1.8974 C   0  0  0  0  0  0  0  0  0  0  0  0
    1.7718    1.3228    1.4256 C   0  0  0  0  0  0  0  0  0  0  0  0
    1.3832    2.3682    0.3654 C   0  0  0  0  0  0  0  0  0  0  0  0
   -2.0777    0.3010    1.1822 N   0  0  0  0  0  0  0  0  0  0  0  0
   -1.0566   -0.5290    0.8268 N   0  0  0  0  0  2  0  0  0  0  0  0
   -1.1250   -1.6288    1.6181 C   0  0  1  0  0  3  0  0  0  0  0  0
   -2.2078   -1.4674    2.5078 C   0  0  0  0  0  0  0  0  0  0  0  0
   -2.7973   -0.2339    2.2146 C   0  0  0  0  0  0  0  0  0  0  0  0
   -0.1949   -2.7899    1.5074 C   0  0  0  0  0  0  0  0  0  0  0  0
   -3.9772    0.4408    2.8298 C   0  0  0  0  0  0  0  0  0  0  0  0
   -2.2664    1.5883    0.5297 C   0  0  0  0  0  0  0  0  0  0  0  0
   -1.0452    2.4990    0.6782 C   0  0  0  0  0  0  0  0  0  0  0  0
    0.6181    2.2706   -2.2387 H   0  0  0  0  0  0  0  0  0  0  0  0
   -1.1012    2.5568   -1.9331 H   0  0  0  0  0  0  0  0  0  0  0  0
   -0.5390    4.8730   -0.9364 H   0  0  0  0  0  0  0  0  0  0  0  0
   -0.0269    4.6766   -2.6307 H   0  0  0  0  0  0  0  0  0  0  0  0
    1.1876    4.5837   -1.3312 H   0  0  0  0  0  0  0  0  0  0  0  0
    4.7295   -2.0412    0.1090 H   0  0  0  0  0  0  0  0  0  0  0  0
    2.6456   -2.4885   -2.3678 H   0  0  0  0  0  0  0  0  0  0  0  0
    1.0794   -2.6899   -1.5424 H   0  0  0  0  0  0  0  0  0  0  0  0
    2.4988   -3.6920   -1.0492 H   0  0  0  0  0  0  0  0  0  0  0  0
    4.3666    0.4114    2.9592 H   0  0  0  0  0  0  0  0  0  0  0  0
    4.8743    1.4420    1.5811 H   0  0  0  0  0  0  0  0  0  0  0  0
    5.6528   -0.1425    1.8500 H   0  0  0  0  0  0  0  0  0  0  0  0
    0.8924    1.0204    2.0316 H   0  0  0  0  0  0  0  0  0  0  0  0
    2.5051    1.7653    2.1236 H   0  0  0  0  0  0  0  0  0  0  0  0
    2.1352    2.3443   -0.4484 H   0  0  0  0  0  0  0  0  0  0  0  0
    1.4458    3.3785    0.8327 H   0  0  0  0  0  0  0  0  0  0  0  0
   -2.5290   -2.1764    3.2774 H   0  0  0  0  0  0  0  0  0  0  0  0
    0.8393   -2.5173    1.7957 H   0  0  0  0  0  0  0  0  0  0  0  0
   -0.1696   -3.1764    0.4706 H   0  0  0  0  0  0  0  0  0  0  0  0
   -0.5362   -3.6037    2.1720 H   0  0  0  0  0  0  0  0  0  0  0  0
   -4.7881    0.6097    2.0917 H   0  0  0  0  0  0  0  0  0  0  0  0
   -3.7146    1.4210    3.2783 H   0  0  0  0  0  0  0  0  0  0  0  0
   -4.3860   -0.1956    3.6352 H   0  0  0  0  0  0  0  0  0  0  0  0
   -2.5151    1.4187   -0.5379 H   0  0  0  0  0  0  0  0  0  0  0  0
   -3.1434    2.0599    1.0082 H   0  0  0  0  0  0  0  0  0  0  0  0
   -0.6966    2.4458    1.7289 H   0  0  0  0  0  0  0  0  0  0  0  0
   -1.3663    3.5523    0.5142 H   0  0  0  0  0  0  0  0  0  0  0  0
  1 12  1  0  0  0  0
  1 21  1  0  0  0  0
  2  1  1  0  0  0  0
  3  2  1  0  0  0  0
  3 26  1  0  0  0  0
  3 24  1  0  0  0  0
  4  8  1  0  0  0  0
  4 11  1  0  0  0  0
  5  4  1  0  0  0  0
  6  9  1  6  0  0  0
  6  5  1  0  0  0  0
  6  7  1  0  0  0  0
  7  8  2  0  0  0  0
  8 10  1  0  0  0  0
  9 30  1  0  0  0  0
 10 31  1  0  0  0  0
 11 34  1  0  0  0  0
 11 35  1  0  0  0  0
 12 37  1  0  0  0  0
 12 11  1  0  0  0  0
 13 17  1  0  0  0  0
 14 13  1  0  0  0  0
 14 15  1  0  0  0  0
 15 18  1  6  0  0  0
 15 16  1  0  0  0  0
 16 38  1  0  0  0  0
 17 16  2  0  0  0  0
 17 19  1  0  0  0  0
 18 39  1  0  0  0  0
 18 41  1  0  0  0  0
 19 43  1  0  0  0  0
 19 44  1  0  0  0  0
 20 21  1  0  0  0  0
 20 46  1  0  0  0  0
 20 13  1  0  0  0  0
 21 47  1  0  0  0  0
 22  2  1  0  0  0  0
 23  2  1  0  0  0  0
 25  3  1  0  0  0  0
 27  7  1  0  0  0  0
 28  9  1  0  0  0  0
 29  9  1  0  0  0  0
 32 10  1  0  0  0  0
 33 10  1  0  0  0  0
 36 12  1  0  0  0  0
 40 18  1  0  0  0  0
 42 19  1  0  0  0  0
 45 20  1  0  0  0  0
 48 21  1  0  0  0  0
M  END
