1,2,3
q = -1.0

 62 67  0  0  1  0  0  0  0  0999 V2000
    1.8896    0.6224   -0.0863 N   0  0  0  0  0  2  0  0  0  0  0  0
    0.0974   -1.1255   -1.5916 N   0  0  0  0  0  2  0  0  0  0  0  0
    0.2503   -1.2269    1.4745 N   0  0  0  0  0  2  0  0  0  0  0  0
    2.6415   -0.5126   -0.1816 N   0  0  0  0  0  0  0  0  0  0  0  0
    1.0531   -2.0663   -1.4003 N   0  0  0  0  0  0  0  0  0  0  0  0
    1.2043   -2.1288    1.1363 N   0  0  0  0  0  0  0  0  0  0  0  0
    1.6419    5.8451    0.1782 N   0  0  0  0  0  0  0  0  0  0  0  0
   -3.8764    1.0093   -4.0045 N   0  0  0  0  0  0  0  0  0  0  0  0
   -3.4683    0.6213    4.5094 N   0  0  0  0  0  0  0  0  0  0  0  0
    2.0067   -1.9307   -0.1807 B   0  0  2  0  0  0  0  0  0  0  0  0
    2.8776   -2.7721   -0.2524 H   0  0  0  0  0  0  0  0  0  0  0  0
    5.0581   -1.2226   -0.3652 C   0  0  0  0  0  0  0  0  0  0  0  0
    5.0705   -1.9118    0.5034 H   0  0  0  0  0  0  0  0  0  0  0  0
    6.0399   -0.7167   -0.4147 H   0  0  0  0  0  0  0  0  0  0  0  0
    4.9464   -1.8459   -1.2754 H   0  0  0  0  0  0  0  0  0  0  0  0
    3.9721   -0.2025   -0.2512 C   0  0  1  0  0  3  0  0  0  0  0  0
    4.0734    1.1861   -0.1956 C   0  0  0  0  0  0  0  0  0  0  0  0
    4.9990    1.7668   -0.2371 H   0  0  0  0  0  0  0  0  0  0  0  0
    2.7454    1.6737   -0.0911 C   0  0  0  0  0  0  0  0  0  0  0  0
    2.3356    3.0852    0.0018 C   0  0  0  0  0  0  0  0  0  0  0  0
    0.9917    3.5127   -0.0340 C   0  0  0  0  0  0  0  0  0  0  0  0
    0.1503    2.8145   -0.1241 H   0  0  0  0  0  0  0  0  0  0  0  0
    0.7114    4.8842    0.0590 C   0  0  0  0  0  0  0  0  0  0  0  0
   -0.3415    5.2184    0.0342 H   0  0  0  0  0  0  0  0  0  0  0  0
    2.9210    5.4365    0.2124 C   0  0  0  0  0  0  0  0  0  0  0  0
    3.6873    6.2265    0.3134 H   0  0  0  0  0  0  0  0  0  0  0  0
    3.3166    4.0953    0.1311 C   0  0  0  0  0  0  0  0  0  0  0  0
    4.3859    3.8449    0.1770 H   0  0  0  0  0  0  0  0  0  0  0  0
    1.8709   -4.2186   -2.4181 C   0  0  0  0  0  0  0  0  0  0  0  0
    1.8015   -4.8478   -1.5072 H   0  0  0  0  0  0  0  0  0  0  0  0
    2.9302   -3.9072   -2.5202 H   0  0  0  0  0  0  0  0  0  0  0  0
    1.6125   -4.8501   -3.2878 H   0  0  0  0  0  0  0  0  0  0  0  0
    0.9510   -3.0434   -2.3511 C   0  0  2  0  0  3  0  0  0  0  0  0
   -0.1243   -2.7014   -3.1807 C   0  0  0  0  0  0  0  0  0  0  0  0
   -0.4685   -3.2458   -4.0655 H   0  0  0  0  0  0  0  0  0  0  0  0
   -0.6311   -1.4818   -2.6696 C   0  0  0  0  0  0  0  0  0  0  0  0
   -1.7307   -0.6343   -3.1495 C   0  0  0  0  0  0  0  0  0  0  0  0
   -2.8913   -1.1875   -3.7261 C   0  0  0  0  0  0  0  0  0  0  0  0
   -3.0024   -2.2776   -3.8246 H   0  0  0  0  0  0  0  0  0  0  0  0
   -3.9224   -0.3275   -4.1305 C   0  0  0  0  0  0  0  0  0  0  0  0
   -4.8451   -0.7467   -4.5709 H   0  0  0  0  0  0  0  0  0  0  0  0
   -2.7595    1.5338   -3.4721 C   0  0  0  0  0  0  0  0  0  0  0  0
   -2.7281    2.6341   -3.3773 H   0  0  0  0  0  0  0  0  0  0  0  0
   -1.6664    0.7703   -3.0408 C   0  0  0  0  0  0  0  0  0  0  0  0
   -0.7772    1.2623   -2.6221 H   0  0  0  0  0  0  0  0  0  0  0  0
    2.2115   -4.2781    1.9792 C   0  0  0  0  0  0  0  0  0  0  0  0
    2.0522   -4.8835    1.0635 H   0  0  0  0  0  0  0  0  0  0  0  0
    2.0797   -4.9420    2.8531 H   0  0  0  0  0  0  0  0  0  0  0  0
    3.2654   -3.9337    1.9637 H   0  0  0  0  0  0  0  0  0  0  0  0
    1.2543   -3.1339    2.0619 C   0  0  1  0  0  3  0  0  0  0  0  0
    0.2824   -2.8528    3.0286 C   0  0  0  0  0  0  0  0  0  0  0  0
    0.0698   -3.4342    3.9310 H   0  0  0  0  0  0  0  0  0  0  0  0
   -0.3257   -1.6390    2.6235 C   0  0  0  0  0  0  0  0  0  0  0  0
   -1.3882   -0.8630    3.2761 C   0  0  0  0  0  0  0  0  0  0  0  0
   -1.4653    0.5392    3.1481 C   0  0  0  0  0  0  0  0  0  0  0  0
   -0.7174    1.0987    2.5685 H   0  0  0  0  0  0  0  0  0  0  0  0
   -2.5198    1.2208    3.7703 C   0  0  0  0  0  0  0  0  0  0  0  0
   -2.5979    2.3177    3.6636 H   0  0  0  0  0  0  0  0  0  0  0  0
   -3.3801   -0.7118    4.6469 C   0  0  0  0  0  0  0  0  0  0  0  0
   -4.1648   -1.1950    5.2567 H   0  0  0  0  0  0  0  0  0  0  0  0
   -2.3755   -1.4942    4.0598 C   0  0  0  0  0  0  0  0  0  0  0  0
   -2.3773   -2.5872    4.1853 H   0  0  0  0  0  0  0  0  0  0  0  0
  2  5  1  0  0  0  0
  3 53  1  0  0  0  0
  4 10  1  0  0  0  0
  4  1  1  0  0  0  0
  5 10  1  0  0  0  0
  6  3  1  0  0  0  0
  6 50  1  0  0  0  0
  7 25  1  0  0  0  0
  8 42  1  0  0  0  0
  9 59  1  0  0  0  0
 10 11  1  6  0  0  0
 10  6  1  0  0  0  0
 12 13  1  0  0  0  0
 14 12  1  0  0  0  0
 15 12  1  0  0  0  0
 16 12  1  6  0  0  0
 16 17  1  0  0  0  0
 16  4  1  0  0  0  0
 17 19  2  0  0  0  0
 18 17  1  0  0  0  0
 19  1  1  0  0  0  0
 19 20  1  0  0  0  0
 20 27  1  0  0  0  0
 21 20  2  0  0  0  0
 21 23  1  0  0  0  0
 22 21  1  0  0  0  0
 23  7  2  0  0  0  0
 24 23  1  0  0  0  0
 25 26  1  0  0  0  0
 27 28  1  0  0  0  0
 27 25  2  0  0  0  0
 29 30  1  0  0  0  0
 31 29  1  0  0  0  0
 32 29  1  0  0  0  0
 33 29  1  6  0  0  0
 33  5  1  0  0  0  0
 34 36  2  0  0  0  0
 34 33  1  0  0  0  0
 35 34  1  0  0  0  0
 36  2  1  0  0  0  0
 37 44  1  0  0  0  0
 37 36  1  0  0  0  0
 38 37  2  0  0  0  0
 39 38  1  0  0  0  0
 40  8  2  0  0  0  0
 40 38  1  0  0  0  0
 41 40  1  0  0  0  0
 42 43  1  0  0  0  0
 42 44  2  0  0  0  0
 44 45  1  0  0  0  0
 46 48  1  0  0  0  0
 47 46  1  0  0  0  0
 49 46  1  0  0  0  0
 50 46  1  1  0  0  0
 50 51  1  0  0  0  0
 51 52  1  0  0  0  0
 53 51  2  0  0  0  0
 53 54  1  0  0  0  0
 54 61  1  0  0  0  0
 55 54  2  0  0  0  0
 55 57  1  0  0  0  0
 56 55  1  0  0  0  0
 57  9  2  0  0  0  0
 58 57  1  0  0  0  0
 59 60  1  0  0  0  0
 61 62  1  0  0  0  0
 61 59  2  0  0  0  0
M  END
