1,2,4
q = -1.0, confidence = 0.066

 57 61  0  0  0  0  0  0  0  0999 V2000
   -0.0000   -0.0950   -0.0001 N   0  0  0  0  0  0  0  0  0  0  0  0
    1.9669   -2.0520    0.0194 N   0  0  0  0  0  2  0  0  0  0  0  0
    2.4170   -2.9772    0.0570 H   0  0  0  0  0  0  0  0  0  0  0  0
   -1.9671   -2.0518   -0.0193 N   0  0  0  0  0  2  0  0  0  0  0  0
   -2.4173   -2.9770   -0.0568 H   0  0  0  0  0  0  0  0  0  0  0  0
   -2.3763    0.2935   -0.0072 N   0  0  0  0  0  0  0  0  0  0  0  0
    2.3763    0.2933    0.0072 N   0  0  0  0  0  0  0  0  0  0  0  0
   -2.7856   -1.0032   -0.0047 C   0  0  0  0  0  0  0  0  0  0  0  0
   -4.2629   -1.2085    0.0120 C   0  0  0  0  0  0  0  0  0  0  0  0
   -1.1221    0.6930    0.0006 C   0  0  0  0  0  3  0  0  0  0  0  0
    1.1221    0.6929   -0.0006 C   0  0  0  0  0  0  0  0  0  0  0  0
   -5.1121   -0.1268   -0.3112 C   0  0  0  0  0  0  0  0  0  0  0  0
   -4.6514    0.8403   -0.5562 H   0  0  0  0  0  0  0  0  0  0  0  0
    2.7854   -1.0034    0.0046 C   0  0  0  0  0  0  0  0  0  0  0  0
   -6.5023   -0.2939   -0.3206 C   0  0  0  0  0  0  0  0  0  0  0  0
   -7.1508    0.5556   -0.5832 H   0  0  0  0  0  0  0  0  0  0  0  0
    4.8420   -2.4533   -0.3462 C   0  0  0  0  0  0  0  0  0  0  0  0
    4.2113   -3.3061   -0.6429 H   0  0  0  0  0  0  0  0  0  0  0  0
    4.2627   -1.2088   -0.0122 C   0  0  0  0  0  0  0  0  0  0  0  0
   -0.6930    2.1187   -0.0040 C   0  0  0  0  0  0  0  0  0  0  0  0
   -4.8423   -2.4528    0.3464 C   0  0  0  0  0  0  0  0  0  0  0  0
   -4.2117   -3.3054    0.6437 H   0  0  0  0  0  0  0  0  0  0  0  0
    6.5023   -0.2942    0.3194 C   0  0  0  0  0  0  0  0  0  0  0  0
    7.1509    0.5554    0.5815 H   0  0  0  0  0  0  0  0  0  0  0  0
    0.6931    2.1186    0.0042 C   0  0  0  0  0  0  0  0  0  0  0  0
   -1.3437    4.3546   -0.9232 C   0  0  0  0  0  0  0  0  0  0  0  0
   -0.4150    4.3585   -1.5117 H   0  0  0  0  0  0  0  0  0  0  0  0
   -7.0683   -1.5377    0.0028 C   0  0  0  0  0  0  0  0  0  0  0  0
   -8.1612   -1.6674   -0.0019 H   0  0  0  0  0  0  0  0  0  0  0  0
    1.6295    3.2473    0.0882 C   0  0  0  0  0  0  0  0  0  0  0  0
   -6.2333   -2.6153    0.3406 C   0  0  0  0  0  0  0  0  0  0  0  0
   -6.6684   -3.5891    0.6106 H   0  0  0  0  0  0  0  0  0  0  0  0
    1.3443    4.3543    0.9236 C   0  0  0  0  0  0  0  0  0  0  0  0
    0.4157    4.3583    1.5122 H   0  0  0  0  0  0  0  0  0  0  0  0
   -2.8416    3.2455    0.6427 C   0  0  0  0  0  0  0  0  0  0  0  0
   -3.0774    2.3884    1.2871 H   0  0  0  0  0  0  0  0  0  0  0  0
    5.1121   -0.1271    0.3103 C   0  0  0  0  0  0  0  0  0  0  0  0
    4.6514    0.8402    0.5550 H   0  0  0  0  0  0  0  0  0  0  0  0
   -1.6292    3.2475   -0.0881 C   0  0  0  0  0  0  0  0  0  0  0  0
    7.0682   -1.5381   -0.0036 C   0  0  0  0  0  0  0  0  0  0  0  0
    8.1610   -1.6679    0.0009 H   0  0  0  0  0  0  0  0  0  0  0  0
    6.2330   -2.6158   -0.3406 C   0  0  0  0  0  0  0  0  0  0  0  0
    6.6680   -3.5898   -0.6103 H   0  0  0  0  0  0  0  0  0  0  0  0
    2.8418    3.2452   -0.6427 C   0  0  0  0  0  0  0  0  0  0  0  0
    3.0773    2.3882   -1.2873 H   0  0  0  0  0  0  0  0  0  0  0  0
   -3.7301    4.3256    0.5495 C   0  0  0  0  0  0  0  0  0  0  0  0
   -4.6644    4.3117    1.1314 H   0  0  0  0  0  0  0  0  0  0  0  0
    2.2378    5.4271    1.0170 C   0  0  0  0  0  0  0  0  0  0  0  0
    2.0024    6.2755    1.6773 H   0  0  0  0  0  0  0  0  0  0  0  0
    3.4335    5.4191    0.2784 C   0  0  0  0  0  0  0  0  0  0  0  0
    4.1344    6.2645    0.3518 H   0  0  0  0  0  0  0  0  0  0  0  0
   -2.2371    5.4275   -1.0166 C   0  0  0  0  0  0  0  0  0  0  0  0
   -2.0013    6.2760   -1.6768 H   0  0  0  0  0  0  0  0  0  0  0  0
   -3.4329    5.4197   -0.2782 C   0  0  0  0  0  0  0  0  0  0  0  0
   -4.1336    6.2652   -0.3516 H   0  0  0  0  0  0  0  0  0  0  0  0
    3.7305    4.3251   -0.5495 C   0  0  0  0  0  0  0  0  0  0  0  0
    4.6646    4.3112   -1.1315 H   0  0  0  0  0  0  0  0  0  0  0  0
  1 10  1  0  0  0  0
  2  3  1  0  0  0  0
  4  8  1  0  0  0  0
  5  4  1  0  0  0  0
  6  8  2  0  0  0  0
  6 10  1  0  0  0  0
  8  9  1  0  0  0  0
  9 21  1  0  0  0  0
 11  1  2  0  0  0  0
 11 25  1  0  0  0  0
 11  7  1  0  0  0  0
 12  9  2  0  0  0  0
 13 12  1  0  0  0  0
 14  7  2  0  0  0  0
 14  2  1  0  0  0  0
 15 12  1  0  0  0  0
 15 28  2  0  0  0  0
 16 15  1  0  0  0  0
 17 42  2  0  0  0  0
 17 19  1  0  0  0  0
 18 17  1  0  0  0  0
 19 14  1  0  0  0  0
 19 37  2  0  0  0  0
 20 10  1  0  0  0  0
 20 25  2  0  0  0  0
 21 22  1  0  0  0  0
 23 24  1  0  0  0  0
 25 30  1  0  0  0  0
 26 39  1  0  0  0  0
 27 26  1  0  0  0  0
 28 31  1  0  0  0  0
 29 28  1  0  0  0  0
 30 33  1  0  0  0  0
 31 21  2  0  0  0  0
 31 32  1  0  0  0  0
 33 48  2  0  0  0  0
 33 34  1  0  0  0  0
 35 36  1  0  0  0  0
 37 23  1  0  0  0  0
 37 38  1  0  0  0  0
 39 20  1  0  0  0  0
 39 35  2  0  0  0  0
 40 41  1  0  0  0  0
 40 23  2  0  0  0  0
 42 40  1  0  0  0  0
 43 42  1  0  0  0  0
 44 56  1  0  0  0  0
 44 30  2  0  0  0  0
 45 44  1  0  0  0  0
 46 35  1  0  0  0  0
 46 47  1  0  0  0  0
 48 49  1  0  0  0  0
 50 51  1  0  0  0  0
 50 48  1  0  0  0  0
 52 26  2  0  0  0  0
 52 54  1  0  0  0  0
 53 52  1  0  0  0  0
 54 46  2  0  0  0  0
 55 54  1  0  0  0  0
 56 50  2  0  0  0  0
 57 56  1  0  0  0  0
M  END
