1,2,3
q = -1.0

 63 67  0  0  0  0  0  0  0  0999 V2000
   -1.7700    1.2683   -0.8900 N   0  0  0  0  0  2  0  0  0  0  0  0
    1.8239    1.0246    0.1338 N   0  0  0  0  0  2  0  0  0  0  0  0
   -0.2424   -0.7309   -0.1160 N   0  0  0  0  0  0  0  0  0  0  0  0
   -2.7350   -0.6789   -0.2263 C   0  0  0  0  0  0  0  0  0  0  0  0
   -2.8575    0.6131   -0.4931 N   0  0  0  0  0  0  0  0  0  0  0  0
    2.6368   -0.0218    0.0428 N   0  0  0  0  0  0  0  0  0  0  0  0
   -4.0330   -1.3677    0.0100 C   0  0  0  0  0  0  0  0  0  0  0  0
   -2.6196    3.4777   -0.0820 C   0  0  0  0  0  0  0  0  0  0  0  0
   -3.5268    3.0182    0.3339 H   0  0  0  0  0  0  0  0  0  0  0  0
    1.6828    3.2846    1.0109 C   0  0  0  0  0  0  0  0  0  0  0  0
    0.6068    3.1265    1.1762 H   0  0  0  0  0  0  0  0  0  0  0  0
   -1.4663   -1.3879   -0.1533 C   0  0  0  0  0  0  0  0  0  0  0  0
   -4.3512   -2.6292   -0.5401 C   0  0  0  0  0  0  0  0  0  0  0  0
   -3.6187   -3.1363   -1.1828 H   0  0  0  0  0  0  0  0  0  0  0  0
    4.4456   -2.0380   -0.7735 C   0  0  0  0  0  0  0  0  0  0  0  0
    4.5097   -1.0982   -1.3412 H   0  0  0  0  0  0  0  0  0  0  0  0
    3.6539    4.7112    1.1863 C   0  0  0  0  0  0  0  0  0  0  0  0
    4.1161    5.6746    1.4517 H   0  0  0  0  0  0  0  0  0  0  0  0
    2.1820   -1.2636   -0.0166 C   0  0  0  0  0  0  0  0  0  0  0  0
   -6.5967   -2.5806    0.4445 C   0  0  0  0  0  0  0  0  0  0  0  0
    3.2611   -2.2859   -0.0368 C   0  0  0  0  0  0  0  0  0  0  0  0
    0.1883   -2.9511   -0.0250 C   0  0  0  0  0  0  0  0  0  0  0  0
    0.7259   -3.9034    0.0009 H   0  0  0  0  0  0  0  0  0  0  0  0
   -1.2045   -2.7830   -0.0648 C   0  0  0  0  0  0  0  0  0  0  0  0
   -1.9515   -3.5812   -0.0338 H   0  0  0  0  0  0  0  0  0  0  0  0
    3.2090   -3.4865    0.7087 C   0  0  0  0  0  0  0  0  0  0  0  0
    2.3355   -3.6868    1.3443 H   0  0  0  0  0  0  0  0  0  0  0  0
   -5.0399   -0.7164    0.7614 C   0  0  0  0  0  0  0  0  0  0  0  0
   -4.8133    0.2769    1.1749 H   0  0  0  0  0  0  0  0  0  0  0  0
   -5.6051   -3.2194   -0.3239 C   0  0  0  0  0  0  0  0  0  0  0  0
   -5.8241   -4.2006   -0.7774 H   0  0  0  0  0  0  0  0  0  0  0  0
    2.4597    2.2192    0.4836 C   0  0  0  0  0  0  0  0  0  0  0  0
    3.8637    2.4180    0.3609 C   0  0  0  0  0  0  0  0  0  0  0  0
    4.4686    1.5774   -0.0037 H   0  0  0  0  0  0  0  0  0  0  0  0
    0.7767   -1.6542   -0.0398 C   0  0  0  0  0  3  0  0  0  0  0  0
    5.5055   -2.9493   -0.7816 C   0  0  0  0  0  0  0  0  0  0  0  0
    6.4089   -2.7228   -1.3731 H   0  0  0  0  0  0  0  0  0  0  0  0
    4.4384    3.6462    0.6995 C   0  0  0  0  0  0  0  0  0  0  0  0
    5.5269    3.7788    0.5808 H   0  0  0  0  0  0  0  0  0  0  0  0
   -1.7030    2.6359   -0.7839 C   0  0  0  0  0  0  0  0  0  0  0  0
   -1.1436    5.3957   -0.4716 C   0  0  0  0  0  0  0  0  0  0  0  0
   -0.9345    6.4679   -0.3402 H   0  0  0  0  0  0  0  0  0  0  0  0
   -7.9315   -3.2324    0.7104 C   0  0  0  0  0  0  0  0  0  0  0  0
   -8.7669   -2.5067    0.6249 H   0  0  0  0  0  0  0  0  0  0  0  0
   -7.9809   -3.6569    1.7376 H   0  0  0  0  0  0  0  0  0  0  0  0
   -8.1276   -4.0634    0.0035 H   0  0  0  0  0  0  0  0  0  0  0  0
   -0.2421    4.5793   -1.1646 C   0  0  0  0  0  0  0  0  0  0  0  0
    0.6837    5.0032   -1.5812 H   0  0  0  0  0  0  0  0  0  0  0  0
   -2.3363    4.8334    0.0515 C   0  0  0  0  0  0  0  0  0  0  0  0
   -3.0481    5.4825    0.5878 H   0  0  0  0  0  0  0  0  0  0  0  0
   -0.5210    3.2141   -1.3533 C   0  0  0  0  0  0  0  0  0  0  0  0
    0.1068    2.5924   -2.0194 H   0  0  0  0  0  0  0  0  0  0  0  0
   -6.2881   -1.3092    0.9743 C   0  0  0  0  0  0  0  0  0  0  0  0
   -7.0458   -0.7755    1.5724 H   0  0  0  0  0  0  0  0  0  0  0  0
    4.2746   -4.3981    0.6957 C   0  0  0  0  0  0  0  0  0  0  0  0
    4.2035   -5.3180    1.3004 H   0  0  0  0  0  0  0  0  0  0  0  0
    5.4416   -4.1582   -0.0551 C   0  0  0  0  0  0  0  0  0  0  0  0
    2.2716    4.5095    1.3442 C   0  0  0  0  0  0  0  0  0  0  0  0
    1.6340    5.3154    1.7424 H   0  0  0  0  0  0  0  0  0  0  0  0
    6.5712   -5.1577   -0.1014 C   0  0  0  0  0  0  0  0  0  0  0  0
    6.5590   -5.7481   -1.0447 H   0  0  0  0  0  0  0  0  0  0  0  0
    6.5098   -5.8812    0.7365 H   0  0  0  0  0  0  0  0  0  0  0  0
    7.5624   -4.6604   -0.0502 H   0  0  0  0  0  0  0  0  0  0  0  0
  1 40  1  0  0  0  0
  1  5  1  0  0  0  0
  2 32  1  0  0  0  0
  3 35  1  0  0  0  0
  4 12  1  0  0  0  0
  4  7  1  0  0  0  0
  5  4  2  0  0  0  0
  6  2  1  0  0  0  0
  7 28  1  0  0  0  0
  8 49  1  0  0  0  0
  8  9  1  0  0  0  0
 10 11  1  0  0  0  0
 10 58  1  0  0  0  0
 12  3  2  0  0  0  0
 12 24  1  0  0  0  0
 13 30  1  0  0  0  0
 13  7  2  0  0  0  0
 14 13  1  0  0  0  0
 15 21  1  0  0  0  0
 16 15  1  0  0  0  0
 17 58  2  0  0  0  0
 17 18  1  0  0  0  0
 19  6  2  0  0  0  0
 20 43  1  0  0  0  0
 20 53  1  0  0  0  0
 21 19  1  0  0  0  0
 21 26  2  0  0  0  0
 22 23  1  0  0  0  0
 24 25  1  0  0  0  0
 24 22  2  0  0  0  0
 26 27  1  0  0  0  0
 28 53  2  0  0  0  0
 28 29  1  0  0  0  0
 30 20  2  0  0  0  0
 31 30  1  0  0  0  0
 32 10  2  0  0  0  0
 33 32  1  0  0  0  0
 33 38  2  0  0  0  0
 34 33  1  0  0  0  0
 35 22  1  0  0  0  0
 35 19  1  0  0  0  0
 36 15  2  0  0  0  0
 36 57  1  0  0  0  0
 37 36  1  0  0  0  0
 38 17  1  0  0  0  0
 39 38  1  0  0  0  0
 40  8  2  0  0  0  0
 41 42  1  0  0  0  0
 41 49  2  0  0  0  0
 43 45  1  0  0  0  0
 44 43  1  0  0  0  0
 46 43  1  0  0  0  0
 47 41  1  0  0  0  0
 48 47  1  0  0  0  0
 49 50  1  0  0  0  0
 51 47  2  0  0  0  0
 51 40  1  0  0  0  0
 52 51  1  0  0  0  0
 53 54  1  0  0  0  0
 55 26  1  0  0  0  0
 55 56  1  0  0  0  0
 57 55  2  0  0  0  0
 58 59  1  0  0  0  0
 60 57  1  0  0  0  0
 60 63  1  0  0  0  0
 60 62  1  0  0  0  0
 61 60  1  0  0  0  0
M  END
