1,4,25
q = 0.0, confidence = 0.916

 45 47  0  0  1  0  0  0  0  0999 V2000
    1.8745    0.2046    0.4984 N   0  0  0  0  0  2  0  0  0  0  0  0
    2.2403    1.4762    0.6354 C   0  0  0  0  0  0  0  0  0  0  0  0
    1.1524    2.3907    0.3495 C   0  0  0  0  0  0  0  0  0  0  0  0
    0.0000    1.7085    0.0000 N   0  0  0  0  0  2  0  0  0  0  0  0
    1.1617    3.7947    0.3565 C   0  0  0  0  0  0  0  0  0  0  0  0
    2.0835    4.3262    0.6306 H   0  0  0  0  0  0  0  0  0  0  0  0
    4.2590    0.8885   -2.1709 N   0  0  0  0  0  0  0  0  0  0  0  0
    0.0001    4.4990    0.0000 C   0  0  0  0  0  0  0  0  0  0  0  0
    0.0001    5.5979    0.0000 H   0  0  0  0  0  0  0  0  0  0  0  0
    3.5990    1.9543    1.0380 C   0  0  0  0  0  0  0  0  0  0  0  0
    4.2186    1.1262    1.4278 H   0  0  0  0  0  0  0  0  0  0  0  0
    3.5147    2.7319    1.8237 H   0  0  0  0  0  0  0  0  0  0  0  0
    4.1295    2.3997    0.1705 H   0  0  0  0  0  0  0  0  0  0  0  0
    2.7798   -0.8780    0.5401 C   0  0  0  0  0  0  0  0  0  0  0  0
    3.8195   -0.9978   -0.4284 C   0  0  0  0  0  0  0  0  0  0  0  0
    4.6525   -2.1404   -0.4196 C   0  0  0  0  0  0  0  0  0  0  0  0
    5.4454   -2.2227   -1.1764 H   0  0  0  0  0  0  0  0  0  0  0  0
    4.4616   -3.1468    0.5317 C   0  0  0  0  0  0  0  0  0  0  0  0
    5.1146   -4.0318    0.5293 H   0  0  0  0  0  0  0  0  0  0  0  0
    3.4306   -3.0265    1.4801 C   0  0  0  0  0  0  0  0  0  0  0  0
    3.2743   -3.8188    2.2275 H   0  0  0  0  0  0  0  0  0  0  0  0
    2.5892   -1.9082    1.4806 C   0  0  0  0  0  0  0  0  0  0  0  0
    1.7550   -1.8058    2.1902 H   0  0  0  0  0  0  0  0  0  0  0  0
    4.0338    0.0284   -1.4034 C   0  0  0  0  0  0  0  0  0  0  0  0
   -1.8745    0.2047   -0.4984 N   0  0  0  0  0  2  0  0  0  0  0  0
   -2.2403    1.4763   -0.6354 C   0  0  1  0  0  3  0  0  0  0  0  0
   -1.1523    2.3908   -0.3495 C   0  0  0  0  0  0  0  0  0  0  0  0
   -1.1616    3.7947   -0.3565 C   0  0  0  0  0  0  0  0  0  0  0  0
   -2.0833    4.3262   -0.6306 H   0  0  0  0  0  0  0  0  0  0  0  0
   -4.2592    0.8883    2.1711 N   0  0  0  0  0  0  0  0  0  0  0  0
   -3.5989    1.9544   -1.0381 C   0  0  0  0  0  0  0  0  0  0  0  0
   -4.2185    1.1263   -1.4278 H   0  0  0  0  0  0  0  0  0  0  0  0
   -3.5146    2.7320   -1.8238 H   0  0  0  0  0  0  0  0  0  0  0  0
   -4.1294    2.3998   -0.1706 H   0  0  0  0  0  0  0  0  0  0  0  0
   -2.7799   -0.8780   -0.5402 C   0  0  0  0  0  0  0  0  0  0  0  0
   -3.8195   -0.9977    0.4284 C   0  0  0  0  0  0  0  0  0  0  0  0
   -4.6525   -2.1403    0.4196 C   0  0  0  0  0  0  0  0  0  0  0  0
   -5.4453   -2.2227    1.1764 H   0  0  0  0  0  0  0  0  0  0  0  0
   -4.4616   -3.1467   -0.5317 C   0  0  0  0  0  0  0  0  0  0  0  0
   -5.1146   -4.0317   -0.5294 H   0  0  0  0  0  0  0  0  0  0  0  0
   -3.4307   -3.0264   -1.4802 C   0  0  0  0  0  0  0  0  0  0  0  0
   -3.2744   -3.8187   -2.2276 H   0  0  0  0  0  0  0  0  0  0  0  0
   -2.5893   -1.9081   -1.4806 C   0  0  0  0  0  0  0  0  0  0  0  0
   -1.7551   -1.8057   -2.1903 H   0  0  0  0  0  0  0  0  0  0  0  0
   -4.0337    0.0283    1.4035 C   0  0  0  0  0  0  0  0  0  0  0  0
  1 14  1  0  0  0  0
  1  2  1  0  0  0  0
  2 10  1  0  0  0  0
  3  5  1  0  0  0  0
  3  2  2  0  0  0  0
  4  3  1  0  0  0  0
  5  6  1  0  0  0  0
  7 24  3  0  0  0  0
  8  9  1  0  0  0  0
  8  5  2  0  0  0  0
 10 11  1  0  0  0  0
 10 12  1  0  0  0  0
 13 10  1  0  0  0  0
 14 22  1  0  0  0  0
 15 16  1  0  0  0  0
 15 14  2  0  0  0  0
 16 18  2  0  0  0  0
 17 16  1  0  0  0  0
 18 20  1  0  0  0  0
 19 18  1  0  0  0  0
 20 22  2  0  0  0  0
 20 21  1  0  0  0  0
 22 23  1  0  0  0  0
 24 15  1  0  0  0  0
 26 25  1  6  0  0  0
 26 27  1  0  0  0  0
 27  4  1  0  0  0  0
 28 27  2  0  0  0  0
 28  8  1  0  0  0  0
 29 28  1  0  0  0  0
 31 26  1  0  0  0  0
 31 34  1  0  0  0  0
 32 31  1  0  0  0  0
 33 31  1  0  0  0  0
 35 25  1  0  0  0  0
 35 36  1  0  0  0  0
 36 45  1  0  0  0  0
 37 36  2  0  0  0  0
 37 38  1  0  0  0  0
 39 40  1  0  0  0  0
 39 37  1  0  0  0  0
 41 39  2  0  0  0  0
 42 41  1  0  0  0  0
 43 41  1  0  0  0  0
 43 35  2  0  0  0  0
 44 43  1  0  0  0  0
 45 30  3  0  0  0  0
M  END
