1,2,3
q = 0.0, confidence = 0.92

 50 52  0  0  1  0  0  0  0  0999 V2000
   -2.0820   -0.1126    0.1578 N   0  0  0  0  0  2  0  0  0  0  0  0
   -0.6633    1.8959   -0.0689 N   0  0  0  0  0  2  0  0  0  0  0  0
    1.6178    1.0047   -0.0313 N   0  0  0  0  0  2  0  0  0  0  0  0
    7.2067   -2.9272   -0.1067 N   0  0  0  0  0  0  0  0  0  0  0  0
   -2.8109    1.0006    0.1181 C   0  0  0  0  0  0  0  0  0  0  0  0
   -2.0067    2.2016    0.0012 C   0  0  0  0  0  0  0  0  0  0  0  0
   -2.4270    3.5384   -0.1038 C   0  0  0  0  0  0  0  0  0  0  0  0
   -3.4988    3.7741   -0.0502 H   0  0  0  0  0  0  0  0  0  0  0  0
   -1.4707    4.5534   -0.2764 C   0  0  0  0  0  0  0  0  0  0  0  0
   -1.7902    5.6013   -0.3646 H   0  0  0  0  0  0  0  0  0  0  0  0
   -0.1049    4.2283   -0.3248 C   0  0  0  0  0  0  0  0  0  0  0  0
    0.6584    5.0095   -0.4447 H   0  0  0  0  0  0  0  0  0  0  0  0
    0.2900    2.8846   -0.2053 C   0  0  0  0  0  0  0  0  0  0  0  0
    1.6275    2.3226   -0.1986 C   0  0  1  0  0  3  0  0  0  0  0  0
   -4.3067    1.0527    0.1362 C   0  0  0  0  0  0  0  0  0  0  0  0
   -4.7380    0.0442    0.2682 H   0  0  0  0  0  0  0  0  0  0  0  0
   -4.7073    1.4872   -0.8038 H   0  0  0  0  0  0  0  0  0  0  0  0
   -4.6553    1.7004    0.9672 H   0  0  0  0  0  0  0  0  0  0  0  0
    2.8537    3.1676   -0.3543 C   0  0  0  0  0  0  0  0  0  0  0  0
    3.7654    2.6107   -0.0721 H   0  0  0  0  0  0  0  0  0  0  0  0
    2.7806    4.0724    0.2821 H   0  0  0  0  0  0  0  0  0  0  0  0
    2.9741    3.5143   -1.4027 H   0  0  0  0  0  0  0  0  0  0  0  0
   -2.7143   -1.3859   -0.0131 C   0  0  0  0  0  0  0  0  0  0  0  0
   -2.8703   -2.2638    1.0881 C   0  0  0  0  0  0  0  0  0  0  0  0
   -3.4622   -3.5192    0.8512 C   0  0  0  0  0  0  0  0  0  0  0  0
   -3.5979   -4.2053    1.7018 H   0  0  0  0  0  0  0  0  0  0  0  0
   -3.8748   -3.9007   -0.4309 C   0  0  0  0  0  0  0  0  0  0  0  0
   -4.3254   -4.8913   -0.5941 H   0  0  0  0  0  0  0  0  0  0  0  0
   -3.7142   -3.0159   -1.5042 C   0  0  0  0  0  0  0  0  0  0  0  0
   -4.0354   -3.3099   -2.5156 H   0  0  0  0  0  0  0  0  0  0  0  0
   -3.1409   -1.7448   -1.3209 C   0  0  0  0  0  0  0  0  0  0  0  0
   -2.4338   -1.8767    2.4737 C   0  0  0  0  0  0  0  0  0  0  0  0
   -2.7533   -0.8500    2.7412 H   0  0  0  0  0  0  0  0  0  0  0  0
   -1.3284   -1.8605    2.5597 H   0  0  0  0  0  0  0  0  0  0  0  0
   -2.8358   -2.5830    3.2247 H   0  0  0  0  0  0  0  0  0  0  0  0
   -2.9920   -0.7979   -2.4841 C   0  0  0  0  0  0  0  0  0  0  0  0
   -1.9940   -0.3190   -2.4759 H   0  0  0  0  0  0  0  0  0  0  0  0
   -3.7586    0.0063   -2.4636 H   0  0  0  0  0  0  0  0  0  0  0  0
   -3.1101   -1.3376   -3.4427 H   0  0  0  0  0  0  0  0  0  0  0  0
    2.7966    0.2215   -0.0501 C   0  0  0  0  0  0  0  0  0  0  0  0
    3.1692   -0.4842    1.1125 C   0  0  0  0  0  0  0  0  0  0  0  0
    2.5412   -0.3828    2.0099 H   0  0  0  0  0  0  0  0  0  0  0  0
    4.3063   -1.2932    1.0983 C   0  0  0  0  0  0  0  0  0  0  0  0
    4.6087   -1.8375    2.0042 H   0  0  0  0  0  0  0  0  0  0  0  0
    5.0762   -1.4237   -0.0830 C   0  0  0  0  0  0  0  0  0  0  0  0
    4.6808   -0.7332   -1.2529 C   0  0  0  0  0  0  0  0  0  0  0  0
    5.2660   -0.8507   -2.1759 H   0  0  0  0  0  0  0  0  0  0  0  0
    3.5470    0.0815   -1.2356 C   0  0  0  0  0  0  0  0  0  0  0  0
    3.2128    0.5951   -2.1477 H   0  0  0  0  0  0  0  0  0  0  0  0
    6.2453   -2.2523   -0.0964 C   0  0  0  0  0  0  0  0  0  0  0  0
  2  6  1  0  0  0  0
  4 50  3  0  0  0  0
  5 15  1  0  0  0  0
  5  1  1  0  0  0  0
  6  5  2  0  0  0  0
  7  8  1  0  0  0  0
  7  6  1  0  0  0  0
  9  7  2  0  0  0  0
 10  9  1  0  0  0  0
 11  9  1  0  0  0  0
 11 13  2  0  0  0  0
 12 11  1  0  0  0  0
 13 14  1  0  0  0  0
 13  2  1  0  0  0  0
 14  3  1  1  0  0  0
 15 16  1  0  0  0  0
 15 18  1  0  0  0  0
 17 15  1  0  0  0  0
 19 14  1  0  0  0  0
 19 20  1  0  0  0  0
 19 21  1  0  0  0  0
 22 19  1  0  0  0  0
 23  1  1  0  0  0  0
 23 24  1  0  0  0  0
 24 32  1  0  0  0  0
 25 24  2  0  0  0  0
 25 26  1  0  0  0  0
 27 25  1  0  0  0  0
 28 27  1  0  0  0  0
 29 31  1  0  0  0  0
 29 27  2  0  0  0  0
 30 29  1  0  0  0  0
 31 23  2  0  0  0  0
 32 34  1  0  0  0  0
 32 33  1  0  0  0  0
 32 35  1  0  0  0  0
 36 37  1  0  0  0  0
 36 38  1  0  0  0  0
 36 31  1  0  0  0  0
 39 36  1  0  0  0  0
 40  3  1  0  0  0  0
 40 41  1  0  0  0  0
 41 42  1  0  0  0  0
 43 41  2  0  0  0  0
 43 44  1  0  0  0  0
 45 43  1  0  0  0  0
 46 48  1  0  0  0  0
 46 45  2  0  0  0  0
 47 46  1  0  0  0  0
 48 40  2  0  0  0  0
 49 48  1  0  0  0  0
 50 45  1  0  0  0  0
M  END
