1,3,4
q = 0.0, confidence = 0.992

 53 57  0  0  1  0  0  0  0  0999 V2000
   -0.1106   -0.7218   -1.1141 N   0  0  0  0  0  2  0  0  0  0  0  0
    2.0984   -0.5494   -1.2013 N   0  0  0  0  0  0  0  0  0  0  0  0
   -0.4418    0.2275    1.3522 N   0  0  0  0  0  0  0  0  0  0  0  0
   -2.4066    1.1809   -0.4003 N   0  0  0  0  0  2  0  0  0  0  0  0
   -0.8101    0.1590    2.8011 C   0  0  0  0  0  0  0  0  0  0  0  0
   -1.8086    0.6107    2.9303 H   0  0  0  0  0  0  0  0  0  0  0  0
   -0.0749    0.6999    3.4299 H   0  0  0  0  0  0  0  0  0  0  0  0
   -0.8561   -0.9034    3.1038 H   0  0  0  0  0  0  0  0  0  0  0  0
    1.0038   -0.5246   -0.3932 C   0  0  2  0  0  3  0  0  0  0  0  0
    1.6526   -0.7713   -2.4982 C   0  0  0  0  0  0  0  0  0  0  0  0
    2.3535   -0.8445   -3.3350 H   0  0  0  0  0  0  0  0  0  0  0  0
    0.2762   -0.8754   -2.4297 C   0  0  0  0  0  0  0  0  0  0  0  0
   -0.4493   -1.0579   -3.2290 H   0  0  0  0  0  0  0  0  0  0  0  0
    0.9294   -0.3449    1.1041 C   0  0  1  0  0  0  0  0  0  0  0  0
    0.9321   -1.3449    1.5918 H   0  0  0  0  0  0  0  0  0  0  0  0
    2.0217    0.5146    1.7121 C   0  0  0  0  0  0  0  0  0  0  0  0
    2.9373    0.0257    2.0726 H   0  0  0  0  0  0  0  0  0  0  0  0
    1.8378    1.8533    1.8117 C   0  0  0  0  0  0  0  0  0  0  0  0
    2.6104    2.5020    2.2509 H   0  0  0  0  0  0  0  0  0  0  0  0
    0.6383    2.4609    1.2367 C   0  0  0  0  0  0  0  0  0  0  0  0
   -0.4338    1.6233    0.8982 C   0  0  0  0  0  0  0  0  0  0  0  0
    0.5537    3.8487    0.9133 C   0  0  0  0  0  0  0  0  0  0  0  0
    1.3823    4.5112    1.2053 H   0  0  0  0  0  0  0  0  0  0  0  0
   -0.5411    4.3573    0.2345 C   0  0  0  0  0  0  0  0  0  0  0  0
   -0.6045    5.4308    0.0030 H   0  0  0  0  0  0  0  0  0  0  0  0
   -1.5823    3.4939   -0.2168 C   0  0  0  0  0  0  0  0  0  0  0  0
   -1.5036    2.0943    0.1021 C   0  0  1  0  0  3  0  0  0  0  0  0
   -2.6890    3.9284   -0.9959 C   0  0  0  0  0  0  0  0  0  0  0  0
   -2.7930    4.9958   -1.2430 H   0  0  0  0  0  0  0  0  0  0  0  0
   -3.6129    2.9963   -1.4477 C   0  0  0  0  0  0  0  0  0  0  0  0
   -4.4772    3.2948   -2.0567 H   0  0  0  0  0  0  0  0  0  0  0  0
   -3.4242    1.6277   -1.1472 C   0  0  0  0  0  0  0  0  0  0  0  0
   -4.1155    0.8653   -1.5364 H   0  0  0  0  0  0  0  0  0  0  0  0
    3.4688   -0.4389   -0.7717 C   0  0  0  0  0  0  0  0  0  0  0  0
    4.1276    0.8033   -0.9117 C   0  0  0  0  0  0  0  0  0  0  0  0
    5.4509    0.8866   -0.4481 C   0  0  0  0  0  0  0  0  0  0  0  0
    5.9835    1.8462   -0.5405 H   0  0  0  0  0  0  0  0  0  0  0  0
    6.1129   -0.2162    0.1284 C   0  0  0  0  0  0  0  0  0  0  0  0
    5.4141   -1.4346    0.2373 C   0  0  0  0  0  0  0  0  0  0  0  0
    5.9198   -2.3083    0.6776 H   0  0  0  0  0  0  0  0  0  0  0  0
    4.0891   -1.5778   -0.2106 C   0  0  0  0  0  0  0  0  0  0  0  0
    3.4257    1.9936   -1.5099 C   0  0  0  0  0  0  0  0  0  0  0  0
    3.1453    1.8185   -2.5691 H   0  0  0  0  0  0  0  0  0  0  0  0
    4.0699    2.8916   -1.4773 H   0  0  0  0  0  0  0  0  0  0  0  0
    2.4848    2.2238   -0.9674 H   0  0  0  0  0  0  0  0  0  0  0  0
    7.5447   -0.1057    0.5807 C   0  0  0  0  0  0  0  0  0  0  0  0
    8.2349   -0.3635   -0.2510 H   0  0  0  0  0  0  0  0  0  0  0  0
    7.7671   -0.7997    1.4140 H   0  0  0  0  0  0  0  0  0  0  0  0
    7.7953    0.9234    0.9031 H   0  0  0  0  0  0  0  0  0  0  0  0
    3.3581   -2.8912   -0.0869 C   0  0  0  0  0  0  0  0  0  0  0  0
    2.6246   -2.8862    0.7483 H   0  0  0  0  0  0  0  0  0  0  0  0
    4.0640   -3.7184    0.1127 H   0  0  0  0  0  0  0  0  0  0  0  0
    2.7904   -3.1385   -1.0062 H   0  0  0  0  0  0  0  0  0  0  0  0
  2 34  1  0  0  0  0
  2  9  1  0  0  0  0
  3  5  1  0  0  0  0
  5  6  1  0  0  0  0
  5  8  1  0  0  0  0
  5  7  1  0  0  0  0
  9  1  1  1  0  0  0
  9 14  1  0  0  0  0
 10 12  2  0  0  0  0
 10  2  1  0  0  0  0
 11 10  1  0  0  0  0
 12  1  1  0  0  0  0
 13 12  1  0  0  0  0
 14  3  1  0  0  0  0
 14 15  1  1  0  0  0
 14 16  1  0  0  0  0
 16 18  2  0  0  0  0
 16 17  1  0  0  0  0
 18 19  1  0  0  0  0
 20 18  1  0  0  0  0
 21 20  2  0  0  0  0
 21  3  1  0  0  0  0
 22 23  1  0  0  0  0
 22 20  1  0  0  0  0
 24 22  2  0  0  0  0
 25 24  1  0  0  0  0
 26 27  1  0  0  0  0
 26 24  1  0  0  0  0
 27  4  1  6  0  0  0
 27 21  1  0  0  0  0
 28 26  2  0  0  0  0
 29 28  1  0  0  0  0
 30 32  2  0  0  0  0
 30 28  1  0  0  0  0
 31 30  1  0  0  0  0
 32  4  1  0  0  0  0
 33 32  1  0  0  0  0
 34 41  1  0  0  0  0
 35 34  2  0  0  0  0
 35 36  1  0  0  0  0
 36 38  2  0  0  0  0
 37 36  1  0  0  0  0
 38 39  1  0  0  0  0
 38 46  1  0  0  0  0
 39 40  1  0  0  0  0
 41 50  1  0  0  0  0
 41 39  2  0  0  0  0
 42 44  1  0  0  0  0
 42 45  1  0  0  0  0
 42 35  1  0  0  0  0
 43 42  1  0  0  0  0
 46 49  1  0  0  0  0
 46 48  1  0  0  0  0
 47 46  1  0  0  0  0
 50 52  1  0  0  0  0
 50 51  1  0  0  0  0
 53 50  1  0  0  0  0
M  END
