3,4,5
q = -1.0

 25 26  0  0  1  0  0  0  0  0999 V2000
    1.4673   -3.4239   -0.0070 O   0  0  0  0  0  0  0  0  0  0  0  0
   -1.4649   -3.4248   -0.0069 O   0  0  0  0  0  0  0  0  0  0  0  0
    0.0006   -1.5854   -0.0018 N   0  0  0  0  0  2  0  0  0  0  0  0
    2.0444    0.1221    0.0012 N   0  0  0  0  0  2  0  0  0  0  0  0
   -2.0443    0.1207    0.0014 N   0  0  0  0  0  2  0  0  0  0  0  0
    1.2342   -2.2235   -0.0039 C   0  0  0  0  0  0  0  0  0  0  0  0
   -1.2326   -2.2243   -0.0039 C   0  0  0  0  0  0  0  0  0  0  0  0
    2.3651   -1.2052   -0.0017 C   0  0  2  0  0  3  0  0  0  0  0  0
    3.6964   -1.6367   -0.0022 C   0  0  0  0  0  0  0  0  0  0  0  0
    4.7251   -0.6866    0.0007 C   0  0  0  0  0  0  0  0  0  0  0  0
    4.3846    0.6757    0.0042 C   0  0  0  0  0  0  0  0  0  0  0  0
    3.0340    1.0417    0.0043 C   0  0  0  0  0  0  0  0  0  0  0  0
   -2.3641   -1.2068   -0.0016 C   0  0  1  0  0  3  0  0  0  0  0  0
   -3.6952   -1.6391   -0.0019 C   0  0  0  0  0  0  0  0  0  0  0  0
   -4.7245   -0.6896    0.0010 C   0  0  0  0  0  0  0  0  0  0  0  0
   -4.3849    0.6729    0.0045 C   0  0  0  0  0  0  0  0  0  0  0  0
   -3.0345    1.0398    0.0046 C   0  0  0  0  0  0  0  0  0  0  0  0
    3.8735   -2.7223   -0.0047 H   0  0  0  0  0  0  0  0  0  0  0  0
    5.7795   -1.0004    0.0004 H   0  0  0  0  0  0  0  0  0  0  0  0
    5.1569    1.4580    0.0068 H   0  0  0  0  0  0  0  0  0  0  0  0
    2.7159    2.0944    0.0073 H   0  0  0  0  0  0  0  0  0  0  0  0
   -3.8716   -2.7248   -0.0045 H   0  0  0  0  0  0  0  0  0  0  0  0
   -5.7786   -1.0041    0.0008 H   0  0  0  0  0  0  0  0  0  0  0  0
   -5.1577    1.4546    0.0072 H   0  0  0  0  0  0  0  0  0  0  0  0
   -2.7171    2.0926    0.0075 H   0  0  0  0  0  0  0  0  0  0  0  0
  1  6  2  0  0  0  0
  2  7  2  0  0  0  0
  4 12  1  0  0  0  0
  5 17  1  0  0  0  0
  6  3  1  0  0  0  0
  7  3  1  0  0  0  0
  8  6  1  1  0  0  0
  8  4  1  0  0  0  0
  9  8  1  0  0  0  0
  9 10  2  0  0  0  0
 10 11  1  0  0  0  0
 11 12  2  0  0  0  0
 11 20  1  0  0  0  0
 12 21  1  0  0  0  0
 13  7  1  1  0  0  0
 13  5  1  0  0  0  0
 14 13  1  0  0  0  0
 14 15  2  0  0  0  0
 15 16  1  0  0  0  0
 16 17  2  0  0  0  0
 16 24  1  0  0  0  0
 17 25  1  0  0  0  0
 18  9  1  0  0  0  0
 19 10  1  0  0  0  0
 22 14  1  0  0  0  0
 23 15  1  0  0  0  0
M  END
