4,6,13
q = 0.0, confidence = 1.0

 51 54  0  0  1  0  0  0  0  0999 V2000
   -0.9617    0.8702   -0.4703 C   0  0  0  0  0  0  0  0  0  0  0  0
   -1.6091    1.7556   -0.4911 H   0  0  0  0  0  0  0  0  0  0  0  0
   -2.9949   -0.6083   -0.3240 C   0  0  0  0  0  0  0  0  0  0  0  0
    2.4961    2.2358   -0.5074 N   0  0  0  0  0  2  0  0  0  0  0  0
   -1.5353   -0.4174   -0.3553 C   0  0  0  0  0  0  0  0  0  0  0  0
    1.2436   -0.0513   -0.4066 N   0  0  0  0  0  2  0  0  0  0  0  0
    0.5095    3.5650   -0.7421 C   0  0  0  0  0  0  0  0  0  0  0  0
   -0.5854    3.6289   -0.7970 H   0  0  0  0  0  0  0  0  0  0  0  0
    1.1491    2.3226   -0.5818 C   0  0  1  0  0  3  0  0  0  0  0  0
    1.7738   -2.3557   -0.1230 C   0  0  0  0  0  0  0  0  0  0  0  0
   -0.6426   -1.5125   -0.2457 C   0  0  0  0  0  0  0  0  0  0  0  0
   -1.0395   -2.5318   -0.1538 H   0  0  0  0  0  0  0  0  0  0  0  0
    3.0415   -1.9079    0.0381 N   0  0  0  0  0  2  0  0  0  0  0  0
    0.7406   -1.2909   -0.2642 C   0  0  0  0  0  0  0  0  0  0  0  0
    0.4326    1.0178   -0.4901 C   0  0  0  0  0  0  0  0  0  0  0  0
   -5.2587    0.1360   -0.9261 C   0  0  0  0  0  0  0  0  0  0  0  0
   -5.8846    0.8740   -1.4438 H   0  0  0  0  0  0  0  0  0  0  0  0
   -5.8546   -0.9685   -0.2490 C   0  0  0  0  0  0  0  0  0  0  0  0
   -3.5882   -1.7013    0.3493 C   0  0  0  0  0  0  0  0  0  0  0  0
   -2.9525   -2.4164    0.8928 H   0  0  0  0  0  0  0  0  0  0  0  0
   -7.2220   -1.1604   -0.2196 N   0  0  0  0  0  0  0  0  0  0  0  0
   -4.9696   -1.8798    0.3977 C   0  0  0  0  0  0  0  0  0  0  0  0
   -5.3674   -2.7339    0.9593 H   0  0  0  0  0  0  0  0  0  0  0  0
    1.4890   -3.7329   -0.1635 C   0  0  0  0  0  0  0  0  0  0  0  0
    0.4588   -4.0872   -0.3049 H   0  0  0  0  0  0  0  0  0  0  0  0
    1.2931    4.7216   -0.8284 C   0  0  0  0  0  0  0  0  0  0  0  0
    0.8143    5.7045   -0.9510 H   0  0  0  0  0  0  0  0  0  0  0  0
   -3.8767    0.3019   -0.9551 C   0  0  0  0  0  0  0  0  0  0  0  0
   -3.4674    1.1569   -1.5140 H   0  0  0  0  0  0  0  0  0  0  0  0
    2.5437   -4.6466   -0.0400 C   0  0  0  0  0  0  0  0  0  0  0  0
    2.3439   -5.7281   -0.0729 H   0  0  0  0  0  0  0  0  0  0  0  0
    2.6903    4.6138   -0.7504 C   0  0  0  0  0  0  0  0  0  0  0  0
    3.3377    5.5000   -0.8125 H   0  0  0  0  0  0  0  0  0  0  0  0
    3.8520   -4.1664    0.1126 C   0  0  0  0  0  0  0  0  0  0  0  0
    4.7091   -4.8488    0.2003 H   0  0  0  0  0  0  0  0  0  0  0  0
    3.2509    3.3397   -0.5867 C   0  0  0  0  0  0  0  0  0  0  0  0
    4.3397    3.1767   -0.5155 H   0  0  0  0  0  0  0  0  0  0  0  0
    4.0560   -2.7788    0.1459 C   0  0  0  0  0  0  0  0  0  0  0  0
    5.0672   -2.3483    0.2420 H   0  0  0  0  0  0  0  0  0  0  0  0
   -9.3203    1.8505   -0.5413 O   0  0  0  0  0  0  0  0  0  0  0  0
   -9.5138    2.6117    0.0329 H   0  0  0  0  0  0  0  0  0  0  0  0
   -7.7813   -2.2634    0.5402 C   0  0  0  0  0  0  0  0  0  0  0  0
   -7.4076   -3.2444    0.1737 H   0  0  0  0  0  0  0  0  0  0  0  0
   -8.8805   -2.2579    0.4280 H   0  0  0  0  0  0  0  0  0  0  0  0
   -7.5472   -2.1974    1.6269 H   0  0  0  0  0  0  0  0  0  0  0  0
   -8.1359   -0.1838   -0.7853 C   0  0  0  0  0  0  0  0  0  0  0  0
   -7.7419    0.2092   -1.7448 H   0  0  0  0  0  0  0  0  0  0  0  0
   -9.0913   -0.6880   -1.0346 H   0  0  0  0  0  0  0  0  0  0  0  0
   -8.4325    0.9949    0.1478 C   0  0  0  0  0  0  0  0  0  0  0  0
   -8.8665    0.5998    1.1006 H   0  0  0  0  0  0  0  0  0  0  0  0
   -7.4703    1.4965    0.4166 H   0  0  0  0  0  0  0  0  0  0  0  0
  1  5  1  0  0  0  0
  2  1  1  0  0  0  0
  3 19  1  0  0  0  0
  5  3  1  0  0  0  0
  5 11  2  0  0  0  0
  6 14  1  0  0  0  0
  7  9  1  0  0  0  0
  8  7  1  0  0  0  0
  9  4  1  0  0  0  0
  9 15  1  6  0  0  0
 10 13  1  0  0  0  0
 11 12  1  0  0  0  0
 13 38  1  0  0  0  0
 14 11  1  0  0  0  0
 14 10  2  0  0  0  0
 15  1  2  0  0  0  0
 15  6  1  0  0  0  0
 16 18  2  0  0  0  0
 17 16  1  0  0  0  0
 18 21  1  0  0  0  0
 18 22  1  0  0  0  0
 19 22  2  0  0  0  0
 19 20  1  0  0  0  0
 21 42  1  0  0  0  0
 22 23  1  0  0  0  0
 24 10  1  0  0  0  0
 24 30  2  0  0  0  0
 25 24  1  0  0  0  0
 26 32  1  0  0  0  0
 26  7  2  0  0  0  0
 27 26  1  0  0  0  0
 28 16  1  0  0  0  0
 28  3  2  0  0  0  0
 29 28  1  0  0  0  0
 30 34  1  0  0  0  0
 31 30  1  0  0  0  0
 32 36  2  0  0  0  0
 33 32  1  0  0  0  0
 34 38  2  0  0  0  0
 34 35  1  0  0  0  0
 36 37  1  0  0  0  0
 36  4  1  0  0  0  0
 38 39  1  0  0  0  0
 40 41  1  0  0  0  0
 40 49  1  0  0  0  0
 42 45  1  0  0  0  0
 43 42  1  0  0  0  0
 44 42  1  0  0  0  0
 46 21  1  0  0  0  0
 46 49  1  0  0  0  0
 47 46  1  0  0  0  0
 48 46  1  0  0  0  0
 49 51  1  0  0  0  0
 49 50  1  0  0  0  0
M  END
