1,2,3
q = 0.0, confidence = 0.998

 25 25  0  0  1  0  0  0  0  0999 V2000
    1.3212   -0.5320   -0.0742 N   0  0  0  0  0  2  0  0  0  0  0  0
   -0.3899    1.3968   -0.4933 N   0  0  0  0  0  2  0  0  0  0  0  0
   -2.8345    0.1138   -0.5553 N   0  0  0  0  0  0  0  0  0  0  0  0
   -3.3389   -0.5809   -1.1169 H   0  0  0  0  0  0  0  0  0  0  0  0
   -3.2579    0.1767    0.3821 H   0  0  0  0  0  0  0  0  0  0  0  0
    2.1241   -1.5981   -0.0040 C   0  0  0  0  0  3  0  0  0  0  0  0
    1.5993   -2.5693    0.0396 H   0  0  0  0  0  0  0  0  0  0  0  0
    3.5234   -1.4697   -0.0058 C   0  0  0  0  0  0  0  0  0  0  0  0
    4.1606   -2.3633    0.0607 H   0  0  0  0  0  0  0  0  0  0  0  0
    4.0759   -0.1847   -0.0885 C   0  0  0  0  0  0  0  0  0  0  0  0
    5.1673   -0.0436   -0.0885 H   0  0  0  0  0  0  0  0  0  0  0  0
    3.2230    0.9266   -0.1794 C   0  0  0  0  0  0  0  0  0  0  0  0
    3.6377    1.9410   -0.2586 H   0  0  0  0  0  0  0  0  0  0  0  0
    1.8330    0.7130   -0.1790 C   0  0  0  0  0  0  0  0  0  0  0  0
    0.8134    1.8061   -0.2892 C   0  0  2  0  0  3  0  0  0  0  0  0
    1.2422    3.2327   -0.0944 C   0  0  0  0  0  0  0  0  0  0  0  0
    2.0968    3.4945   -0.7498 H   0  0  0  0  0  0  0  0  0  0  0  0
    1.5770    3.3804    0.9542 H   0  0  0  0  0  0  0  0  0  0  0  0
    0.4200    3.9425   -0.2936 H   0  0  0  0  0  0  0  0  0  0  0  0
   -1.5773    2.2132   -0.5175 C   0  0  0  0  0  0  0  0  0  0  0  0
   -1.4373    3.1984   -1.0149 H   0  0  0  0  0  0  0  0  0  0  0  0
   -1.8587    2.3975    0.5454 H   0  0  0  0  0  0  0  0  0  0  0  0
   -2.7018    1.4175   -1.2015 C   0  0  0  0  0  0  0  0  0  0  0  0
   -3.6354    2.0254   -1.1949 H   0  0  0  0  0  0  0  0  0  0  0  0
   -2.4269    1.2471   -2.2633 H   0  0  0  0  0  0  0  0  0  0  0  0
  1  6  1  0  0  0  0
  3  5  1  0  0  0  0
  4  3  1  0  0  0  0
  6  7  1  0  0  0  0
  8  6  1  0  0  0  0
  8  9  1  0  0  0  0
 10  8  2  0  0  0  0
 11 10  1  0  0  0  0
 12 14  2  0  0  0  0
 12 10  1  0  0  0  0
 13 12  1  0  0  0  0
 14  1  1  0  0  0  0
 15  2  1  1  0  0  0
 15 14  1  0  0  0  0
 15 16  1  0  0  0  0
 16 18  1  0  0  0  0
 17 16  1  0  0  0  0
 19 16  1  0  0  0  0
 20  2  1  0  0  0  0
 20 22  1  0  0  0  0
 21 20  1  0  0  0  0
 23 24  1  0  0  0  0
 23  3  1  0  0  0  0
 23 20  1  0  0  0  0
 25 23  1  0  0  0  0
M  END
