1,6,7
q = -1.0, confidence = 0.012

 80 82  0  0  1  0  0  0  0  0999 V2000
   -0.3826    0.9921    1.3359 N   0  0  0  0  0  2  0  0  0  0  0  0
    1.5501    0.0214    0.0285 B   0  0  1  0  0  0  0  0  0  0  0  0
    0.9664    0.8263    1.2302 N   0  0  0  0  0  0  0  0  0  0  0  0
    1.0770   -1.4609    0.1153 N   0  0  0  0  0  0  0  0  0  0  0  0
    1.0372    0.6482   -1.2983 N   0  0  0  0  0  0  0  0  0  0  0  0
   -0.2983    0.6273   -1.5726 N   0  0  0  0  0  2  0  0  0  0  0  0
   -0.2561   -1.7374    0.1786 N   0  0  0  0  0  2  0  0  0  0  0  0
    1.5903    1.4588    2.2680 C   0  0  1  0  0  3  0  0  0  0  0  0
    3.2918   -2.6761    0.0355 C   0  0  0  0  0  0  0  0  0  0  0  0
    3.7039   -1.7961    0.5736 H   0  0  0  0  0  0  0  0  0  0  0  0
   -0.4119   -3.0708    0.2778 C   0  0  2  0  0  3  0  0  0  0  0  0
   -0.6380    1.7288    2.4336 C   0  0  0  0  0  0  0  0  0  0  0  0
    0.8659   -3.6747    0.2758 C   0  0  0  0  0  0  0  0  0  0  0  0
    1.0926   -4.7417    0.3500 H   0  0  0  0  0  0  0  0  0  0  0  0
   -0.4928    1.2216   -2.7646 C   0  0  2  0  0  3  0  0  0  0  0  0
    0.5901    2.0532    3.0534 C   0  0  0  0  0  0  0  0  0  0  0  0
    0.7361    2.6431    3.9621 H   0  0  0  0  0  0  0  0  0  0  0  0
    1.7911   -2.6246    0.1679 C   0  0  0  0  0  0  0  0  0  0  0  0
    0.7593    1.6353   -3.2764 C   0  0  0  0  0  0  0  0  0  0  0  0
    0.9516    2.1404   -4.2272 H   0  0  0  0  0  0  0  0  0  0  0  0
    1.7116    1.2606   -2.3173 C   0  0  0  0  0  0  0  0  0  0  0  0
   -1.7900   -3.6824    0.3412 C   0  0  0  0  0  0  0  0  0  0  0  0
   -2.3602   -3.1003    1.0984 H   0  0  0  0  0  0  0  0  0  0  0  0
    3.0787    1.3930    2.4968 C   0  0  0  0  0  0  0  0  0  0  0  0
    3.5700    1.4213    1.5011 H   0  0  0  0  0  0  0  0  0  0  0  0
   -1.8823    1.4226   -3.3145 C   0  0  0  0  0  0  0  0  0  0  0  0
   -2.5000    0.5730   -2.9534 H   0  0  0  0  0  0  0  0  0  0  0  0
   -2.1114    2.8298    4.1513 C   0  0  0  0  0  0  0  0  0  0  0  0
   -1.6395    2.2484    4.9684 H   0  0  0  0  0  0  0  0  0  0  0  0
   -3.1618    3.0303    4.4405 H   0  0  0  0  0  0  0  0  0  0  0  0
   -1.5901    3.8076    4.0825 H   0  0  0  0  0  0  0  0  0  0  0  0
   -2.0555    2.0788    2.8178 C   0  0  0  0  0  0  0  0  0  0  0  0
   -2.5999    1.1145    2.9305 H   0  0  0  0  0  0  0  0  0  0  0  0
   -2.5254   -3.5215   -1.0037 C   0  0  0  0  0  0  0  0  0  0  0  0
   -2.5975   -2.4575   -1.3056 H   0  0  0  0  0  0  0  0  0  0  0  0
   -3.5579   -3.9193   -0.9332 H   0  0  0  0  0  0  0  0  0  0  0  0
   -1.9966   -4.0689   -1.8113 H   0  0  0  0  0  0  0  0  0  0  0  0
   -2.7592    2.8647    1.6957 C   0  0  0  0  0  0  0  0  0  0  0  0
   -2.2524    3.8346    1.5116 H   0  0  0  0  0  0  0  0  0  0  0  0
   -3.8144    3.0699    1.9666 H   0  0  0  0  0  0  0  0  0  0  0  0
   -2.7662    2.2998    0.7424 H   0  0  0  0  0  0  0  0  0  0  0  0
    3.4621    0.0592    3.1677 C   0  0  0  0  0  0  0  0  0  0  0  0
    3.0067   -0.0134    4.1766 H   0  0  0  0  0  0  0  0  0  0  0  0
    4.5626   -0.0253    3.2783 H   0  0  0  0  0  0  0  0  0  0  0  0
    3.1043   -0.8073    2.5775 H   0  0  0  0  0  0  0  0  0  0  0  0
    3.8733   -3.9418    0.6769 C   0  0  0  0  0  0  0  0  0  0  0  0
    3.5790   -4.0310    1.7414 H   0  0  0  0  0  0  0  0  0  0  0  0
    4.9801   -3.9308    0.6229 H   0  0  0  0  0  0  0  0  0  0  0  0
    3.5263   -4.8548    0.1503 H   0  0  0  0  0  0  0  0  0  0  0  0
    3.5801    2.5922    3.3104 C   0  0  0  0  0  0  0  0  0  0  0  0
    3.3096    3.5528    2.8288 H   0  0  0  0  0  0  0  0  0  0  0  0
    4.6827    2.5559    3.4160 H   0  0  0  0  0  0  0  0  0  0  0  0
    3.1506    2.5916    4.3334 H   0  0  0  0  0  0  0  0  0  0  0  0
    3.1962    1.5197   -2.2831 C   0  0  0  0  0  0  0  0  0  0  0  0
    3.6763    0.6433   -1.7978 H   0  0  0  0  0  0  0  0  0  0  0  0
    3.7788    1.6613   -3.6945 C   0  0  0  0  0  0  0  0  0  0  0  0
    3.5597    0.7710   -4.3167 H   0  0  0  0  0  0  0  0  0  0  0  0
    4.8786    1.7909   -3.6495 H   0  0  0  0  0  0  0  0  0  0  0  0
    3.3628    2.5495   -4.2132 H   0  0  0  0  0  0  0  0  0  0  0  0
    3.5079    2.7588   -1.4209 C   0  0  0  0  0  0  0  0  0  0  0  0
    3.0611    3.6682   -1.8722 H   0  0  0  0  0  0  0  0  0  0  0  0
    4.6027    2.9167   -1.3369 H   0  0  0  0  0  0  0  0  0  0  0  0
    3.0923    2.6551   -0.3992 H   0  0  0  0  0  0  0  0  0  0  0  0
    3.7076   -2.5544   -1.4437 C   0  0  0  0  0  0  0  0  0  0  0  0
    3.3299   -3.4196   -2.0261 H   0  0  0  0  0  0  0  0  0  0  0  0
    4.8121   -2.5269   -1.5425 H   0  0  0  0  0  0  0  0  0  0  0  0
    3.2945   -1.6357   -1.9050 H   0  0  0  0  0  0  0  0  0  0  0  0
   -2.5044    2.7101   -2.7404 C   0  0  0  0  0  0  0  0  0  0  0  0
   -2.5138    2.6875   -1.6334 H   0  0  0  0  0  0  0  0  0  0  0  0
   -3.5517    2.8258   -3.0857 H   0  0  0  0  0  0  0  0  0  0  0  0
   -1.9301    3.6037   -3.0620 H   0  0  0  0  0  0  0  0  0  0  0  0
   -1.8958    1.4255   -4.8477 C   0  0  0  0  0  0  0  0  0  0  0  0
   -1.3251    2.2870   -5.2536 H   0  0  0  0  0  0  0  0  0  0  0  0
   -2.9336    1.5102   -5.2273 H   0  0  0  0  0  0  0  0  0  0  0  0
   -1.4515    0.4986   -5.2622 H   0  0  0  0  0  0  0  0  0  0  0  0
   -1.7408   -5.1486    0.7817 C   0  0  0  0  0  0  0  0  0  0  0  0
   -1.2080   -5.7740    0.0349 H   0  0  0  0  0  0  0  0  0  0  0  0
   -2.7652   -5.5575    0.8862 H   0  0  0  0  0  0  0  0  0  0  0  0
   -1.2243   -5.2662    1.7553 H   0  0  0  0  0  0  0  0  0  0  0  0
    2.7617    0.0630    0.0623 H   0  0  0  0  0  0  0  0  0  0  0  0
  1 12  1  0  0  0  0
  2 80  1  1  0  0  0
  2  4  1  0  0  0  0
  2  3  1  0  0  0  0
  3  1  1  0  0  0  0
  3  8  1  0  0  0  0
  4 18  1  0  0  0  0
  4  7  1  0  0  0  0
  5  2  1  0  0  0  0
  6  5  1  0  0  0  0
  7 11  1  0  0  0  0
  8 24  1  1  0  0  0
  8 16  1  0  0  0  0
  9 18  1  0  0  0  0
  9 10  1  0  0  0  0
  9 46  1  0  0  0  0
 11 22  1  6  0  0  0
 12 32  1  0  0  0  0
 12 16  2  0  0  0  0
 13 11  1  0  0  0  0
 13 14  1  0  0  0  0
 15 26  1  1  0  0  0
 15  6  1  0  0  0  0
 16 17  1  0  0  0  0
 18 13  2  0  0  0  0
 19 15  1  0  0  0  0
 19 21  2  0  0  0  0
 20 19  1  0  0  0  0
 21 54  1  0  0  0  0
 21  5  1  0  0  0  0
 22 76  1  0  0  0  0
 22 23  1  0  0  0  0
 24 42  1  0  0  0  0
 24 50  1  0  0  0  0
 25 24  1  0  0  0  0
 26 27  1  0  0  0  0
 26 68  1  0  0  0  0
 28 30  1  0  0  0  0
 28 29  1  0  0  0  0
 31 28  1  0  0  0  0
 32 33  1  0  0  0  0
 32 28  1  0  0  0  0
 34 36  1  0  0  0  0
 34 22  1  0  0  0  0
 35 34  1  0  0  0  0
 37 34  1  0  0  0  0
 38 40  1  0  0  0  0
 38 32  1  0  0  0  0
 39 38  1  0  0  0  0
 41 38  1  0  0  0  0
 42 44  1  0  0  0  0
 42 43  1  0  0  0  0
 45 42  1  0  0  0  0
 46 47  1  0  0  0  0
 48 46  1  0  0  0  0
 49 46  1  0  0  0  0
 50 52  1  0  0  0  0
 50 53  1  0  0  0  0
 51 50  1  0  0  0  0
 54 55  1  0  0  0  0
 54 60  1  0  0  0  0
 56 58  1  0  0  0  0
 56 54  1  0  0  0  0
 57 56  1  0  0  0  0
 59 56  1  0  0  0  0
 60 62  1  0  0  0  0
 60 63  1  0  0  0  0
 61 60  1  0  0  0  0
 64  9  1  0  0  0  0
 65 64  1  0  0  0  0
 66 64  1  0  0  0  0
 67 64  1  0  0  0  0
 68 69  1  0  0  0  0
 70 68  1  0  0  0  0
 71 68  1  0  0  0  0
 72 26  1  0  0  0  0
 73 72  1  0  0  0  0
 74 72  1  0  0  0  0
 75 72  1  0  0  0  0
 76 78  1  0  0  0  0
 76 79  1  0  0  0  0
 77 76  1  0  0  0  0
M  END
