1,3,6
q = 0.0, confidence = 0.928

 55 57  0  0  1  0  0  0  0  0999 V2000
   -1.8532    0.4310   -0.0697 N   0  0  0  0  0  2  0  0  0  0  0  0
    1.2119    2.6509   -0.1423 C   0  0  0  0  0  0  0  0  0  0  0  0
   -0.0001    1.9837   -0.2622 N   0  0  0  0  0  2  0  0  0  0  0  0
   -1.2213    4.0540   -0.0548 C   0  0  0  0  0  0  0  0  0  0  0  0
   -2.1762    4.5950    0.0122 H   0  0  0  0  0  0  0  0  0  0  0  0
    1.8531    0.4311   -0.0697 N   0  0  0  0  0  2  0  0  0  0  0  0
   -3.3924   -1.1932    1.0533 C   0  0  0  0  0  0  0  0  0  0  0  0
   -2.5653   -1.4998    1.7252 H   0  0  0  0  0  0  0  0  0  0  0  0
   -3.9244   -0.3652    1.5662 H   0  0  0  0  0  0  0  0  0  0  0  0
    2.0611   -1.8247   -1.0032 C   0  0  0  0  0  0  0  0  0  0  0  0
    1.6519   -1.4431   -1.9614 H   0  0  0  0  0  0  0  0  0  0  0  0
    1.1896   -2.1363   -0.3856 H   0  0  0  0  0  0  0  0  0  0  0  0
   -1.2121    2.6509   -0.1423 C   0  0  0  0  0  0  0  0  0  0  0  0
    3.3925   -1.1930    1.0534 C   0  0  0  0  0  0  0  0  0  0  0  0
    3.9245   -0.3650    1.5663 H   0  0  0  0  0  0  0  0  0  0  0  0
    2.5655   -1.4998    1.7252 H   0  0  0  0  0  0  0  0  0  0  0  0
   -2.9865   -3.0249   -1.2365 C   0  0  0  0  0  0  0  0  0  0  0  0
   -3.7977   -2.7303   -1.9404 H   0  0  0  0  0  0  0  0  0  0  0  0
   -2.4265   -3.8433   -1.7354 H   0  0  0  0  0  0  0  0  0  0  0  0
    2.2937    1.7018   -0.1366 C   0  0  0  0  0  0  0  0  0  0  0  0
    2.7803   -0.6834   -0.2667 C   0  0  0  0  0  0  0  0  0  0  0  0
    3.6221   -0.3483   -0.9172 H   0  0  0  0  0  0  0  0  0  0  0  0
   -2.2939    1.7017   -0.1366 C   0  0  1  0  0  3  0  0  0  0  0  0
    3.6127   -3.5185    0.0739 C   0  0  0  0  0  0  0  0  0  0  0  0
    2.8103   -3.9225    0.7313 H   0  0  0  0  0  0  0  0  0  0  0  0
    4.3114   -4.3587   -0.1220 H   0  0  0  0  0  0  0  0  0  0  0  0
   -2.7803   -0.6835   -0.2667 C   0  0  0  0  0  0  0  0  0  0  0  0
   -3.6221   -0.3486   -0.9173 H   0  0  0  0  0  0  0  0  0  0  0  0
   -4.3325   -2.3795    0.8071 C   0  0  0  0  0  0  0  0  0  0  0  0
   -5.2020   -2.0441    0.1971 H   0  0  0  0  0  0  0  0  0  0  0  0
   -4.7494   -2.7388    1.7712 H   0  0  0  0  0  0  0  0  0  0  0  0
   -2.0609   -1.8248   -1.0032 C   0  0  0  0  0  0  0  0  0  0  0  0
   -1.1894   -2.1364   -0.3855 H   0  0  0  0  0  0  0  0  0  0  0  0
   -1.6518   -1.4432   -1.9614 H   0  0  0  0  0  0  0  0  0  0  0  0
   -3.6124   -3.5187    0.0739 C   0  0  0  0  0  0  0  0  0  0  0  0
   -2.8100   -3.9226    0.7314 H   0  0  0  0  0  0  0  0  0  0  0  0
   -4.3111   -4.3590   -0.1219 H   0  0  0  0  0  0  0  0  0  0  0  0
    2.9867   -3.0247   -1.2366 C   0  0  0  0  0  0  0  0  0  0  0  0
    2.4268   -3.8431   -1.7355 H   0  0  0  0  0  0  0  0  0  0  0  0
    3.7979   -2.7300   -1.9404 H   0  0  0  0  0  0  0  0  0  0  0  0
    3.7344    2.0964   -0.2812 C   0  0  0  0  0  0  0  0  0  0  0  0
    4.3870    1.5965    0.4629 H   0  0  0  0  0  0  0  0  0  0  0  0
    3.8555    3.1882   -0.1551 H   0  0  0  0  0  0  0  0  0  0  0  0
    4.1326    1.8394   -1.2877 H   0  0  0  0  0  0  0  0  0  0  0  0
   -3.7346    2.0962   -0.2814 C   0  0  0  0  0  0  0  0  0  0  0  0
   -4.1327    1.8391   -1.2878 H   0  0  0  0  0  0  0  0  0  0  0  0
   -3.8557    3.1880   -0.1554 H   0  0  0  0  0  0  0  0  0  0  0  0
   -4.3872    1.5963    0.4627 H   0  0  0  0  0  0  0  0  0  0  0  0
   -0.0001    4.7540   -0.0339 C   0  0  0  0  0  0  0  0  0  0  0  0
   -0.0002    5.8515    0.0333 H   0  0  0  0  0  0  0  0  0  0  0  0
    4.3327   -2.3793    0.8071 C   0  0  0  0  0  0  0  0  0  0  0  0
    5.2022   -2.0437    0.1971 H   0  0  0  0  0  0  0  0  0  0  0  0
    4.7496   -2.7385    1.7711 H   0  0  0  0  0  0  0  0  0  0  0  0
    1.2211    4.0540   -0.0548 C   0  0  0  0  0  0  0  0  0  0  0  0
    2.1760    4.5952    0.0122 H   0  0  0  0  0  0  0  0  0  0  0  0
  2 20  2  0  0  0  0
  2 54  1  0  0  0  0
  3 13  1  0  0  0  0
  3  2  1  0  0  0  0
  4 49  1  0  0  0  0
  4  5  1  0  0  0  0
  7  9  1  0  0  0  0
  7  8  1  0  0  0  0
 10 12  1  0  0  0  0
 10 21  1  0  0  0  0
 11 10  1  0  0  0  0
 13 23  1  0  0  0  0
 13  4  2  0  0  0  0
 14 15  1  0  0  0  0
 14 16  1  0  0  0  0
 17 32  1  0  0  0  0
 17 35  1  0  0  0  0
 18 17  1  0  0  0  0
 19 17  1  0  0  0  0
 20  6  1  0  0  0  0
 21  6  1  0  0  0  0
 21 14  1  0  0  0  0
 22 21  1  0  0  0  0
 23  1  1  6  0  0  0
 24 25  1  0  0  0  0
 24 51  1  0  0  0  0
 26 24  1  0  0  0  0
 27  1  1  0  0  0  0
 27  7  1  0  0  0  0
 28 27  1  0  0  0  0
 29  7  1  0  0  0  0
 29 31  1  0  0  0  0
 30 29  1  0  0  0  0
 32 33  1  0  0  0  0
 32 27  1  0  0  0  0
 34 32  1  0  0  0  0
 35 36  1  0  0  0  0
 35 29  1  0  0  0  0
 37 35  1  0  0  0  0
 38 10  1  0  0  0  0
 38 24  1  0  0  0  0
 39 38  1  0  0  0  0
 40 38  1  0  0  0  0
 41 43  1  0  0  0  0
 41 20  1  0  0  0  0
 41 42  1  0  0  0  0
 44 41  1  0  0  0  0
 45 47  1  0  0  0  0
 45 23  1  0  0  0  0
 45 48  1  0  0  0  0
 46 45  1  0  0  0  0
 49 50  1  0  0  0  0
 51 14  1  0  0  0  0
 51 53  1  0  0  0  0
 52 51  1  0  0  0  0
 54 49  2  0  0  0  0
 54 55  1  0  0  0  0
M  END
