16,17,18
q = -1.0, confidence = 0.32

 51 54  0  0  1  0  0  0  0  0999 V2000
    2.2177   -0.6751   -1.5105 F   0  0  0  0  0  0  0  0  0  0  0  0
    4.7342   -0.5441   -2.5331 F   0  0  0  0  0  0  0  0  0  0  0  0
    6.9224   -1.0219   -0.8767 F   0  0  0  0  0  0  0  0  0  0  0  0
    6.4606   -1.5993    1.7675 F   0  0  0  0  0  0  0  0  0  0  0  0
    4.0251   -1.7554    2.7819 F   0  0  0  0  0  0  0  0  0  0  0  0
    2.0575    2.0061   -0.5619 F   0  0  0  0  0  0  0  0  0  0  0  0
    2.0358    4.5060   -1.6147 F   0  0  0  0  0  0  0  0  0  0  0  0
    0.0988    6.3089   -0.8683 F   0  0  0  0  0  0  0  0  0  0  0  0
   -1.8772    5.5331    0.8722 F   0  0  0  0  0  0  0  0  0  0  0  0
   -1.9512    2.9931    1.8258 F   0  0  0  0  0  0  0  0  0  0  0  0
   -2.2821   -1.7456   -1.8607 F   0  0  0  0  0  0  0  0  0  0  0  0
   -4.7616   -1.8082   -2.8776 F   0  0  0  0  0  0  0  0  0  0  0  0
   -6.9679   -1.4748   -1.2318 F   0  0  0  0  0  0  0  0  0  0  0  0
   -6.5466   -1.0449    1.4521 F   0  0  0  0  0  0  0  0  0  0  0  0
   -4.1374   -0.9095    2.4912 F   0  0  0  0  0  0  0  0  0  0  0  0
    1.6299   -1.3282    0.9579 N   0  0  0  0  0  2  0  0  0  0  0  0
    0.0114    1.0701    1.0767 N   0  0  0  0  0  2  0  0  0  0  0  0
   -1.7043   -1.3314    0.7673 N   0  0  0  0  0  2  0  0  0  0  0  0
    1.2149   -1.4005    2.3741 C   0  0  1  0  0  0  0  0  0  0  0  0
    1.1384    0.0034    3.0133 C   0  0  0  0  0  0  0  0  0  0  0  0
   -0.0919    0.7973    2.5301 C   0  0  2  0  0  0  0  0  0  0  0  0
   -1.3760    0.0243    2.8734 C   0  0  0  0  0  0  0  0  0  0  0  0
   -1.4209   -1.3778    2.2271 C   0  0  2  0  0  0  0  0  0  0  0  0
   -0.1235   -2.1493    2.5532 C   0  0  0  0  0  0  0  0  0  0  0  0
    2.9648   -1.2665    0.6477 C   0  0  0  0  0  0  0  0  0  0  0  0
    3.2913   -0.9486   -0.6967 C   0  0  0  0  0  0  0  0  0  0  0  0
    4.5682   -0.8541   -1.2418 C   0  0  0  0  0  0  0  0  0  0  0  0
    5.6722   -1.0836   -0.4027 C   0  0  0  0  0  0  0  0  0  0  0  0
    5.4260   -1.3836    0.9474 C   0  0  0  0  0  0  0  0  0  0  0  0
    4.1198   -1.4709    1.4636 C   0  0  0  0  0  0  0  0  0  0  0  0
    0.0479    2.3954    0.6654 C   0  0  0  0  0  0  0  0  0  0  0  0
    1.0669    2.8504   -0.2101 C   0  0  0  0  0  0  0  0  0  0  0  0
    1.0738    4.1398   -0.7575 C   0  0  0  0  0  0  0  0  0  0  0  0
    0.0902    5.0672   -0.3709 C   0  0  0  0  0  0  0  0  0  0  0  0
   -0.9176    4.6676    0.5238 C   0  0  0  0  0  0  0  0  0  0  0  0
   -0.9274    3.3589    1.0302 C   0  0  0  0  0  0  0  0  0  0  0  0
   -3.0304   -1.3539    0.3688 C   0  0  0  0  0  0  0  0  0  0  0  0
   -3.3289   -1.5688   -1.0074 C   0  0  0  0  0  0  0  0  0  0  0  0
   -4.6087   -1.6062   -1.5634 C   0  0  0  0  0  0  0  0  0  0  0  0
   -5.7278   -1.4378   -0.7329 C   0  0  0  0  0  0  0  0  0  0  0  0
   -5.5038   -1.2246    0.6347 C   0  0  0  0  0  0  0  0  0  0  0  0
   -4.2029   -1.1707    1.1675 C   0  0  0  0  0  0  0  0  0  0  0  0
    1.9643   -1.9931    2.9272 H   0  0  0  0  0  0  0  0  0  0  0  0
    1.0772   -0.1073    4.1171 H   0  0  0  0  0  0  0  0  0  0  0  0
    2.0706    0.5609    2.7903 H   0  0  0  0  0  0  0  0  0  0  0  0
   -0.1154    1.7652    3.0726 H   0  0  0  0  0  0  0  0  0  0  0  0
   -1.4313   -0.0981    3.9760 H   0  0  0  0  0  0  0  0  0  0  0  0
   -2.2618    0.6098    2.5684 H   0  0  0  0  0  0  0  0  0  0  0  0
   -2.2348   -1.9545    2.7043 H   0  0  0  0  0  0  0  0  0  0  0  0
   -0.1023   -3.1086    1.9957 H   0  0  0  0  0  0  0  0  0  0  0  0
   -0.1875   -2.4135    3.6292 H   0  0  0  0  0  0  0  0  0  0  0  0
  1 26  1  0  0  0  0
  2 27  1  0  0  0  0
  3 28  1  0  0  0  0
  6 32  1  0  0  0  0
  7 33  1  0  0  0  0
  8 34  1  0  0  0  0
 11 38  1  0  0  0  0
 12 39  1  0  0  0  0
 13 40  1  0  0  0  0
 16 19  1  0  0  0  0
 17 21  1  0  0  0  0
 18 23  1  0  0  0  0
 19 24  1  0  0  0  0
 19 43  1  1  0  0  0
 19 20  1  0  0  0  0
 20 44  1  0  0  0  0
 21 22  1  0  0  0  0
 21 20  1  0  0  0  0
 21 46  1  1  0  0  0
 22 47  1  0  0  0  0
 23 24  1  0  0  0  0
 23 49  1  1  0  0  0
 23 22  1  0  0  0  0
 24 51  1  0  0  0  0
 25 16  1  0  0  0  0
 25 30  1  0  0  0  0
 26 25  2  0  0  0  0
 27 26  1  0  0  0  0
 27 28  2  0  0  0  0
 28 29  1  0  0  0  0
 29 30  2  0  0  0  0
 29  4  1  0  0  0  0
 30  5  1  0  0  0  0
 31 36  1  0  0  0  0
 31 17  1  0  0  0  0
 32 31  2  0  0  0  0
 33 34  2  0  0  0  0
 33 32  1  0  0  0  0
 34 35  1  0  0  0  0
 35  9  1  0  0  0  0
 35 36  2  0  0  0  0
 36 10  1  0  0  0  0
 37 18  1  0  0  0  0
 37 42  1  0  0  0  0
 38 37  2  0  0  0  0
 39 38  1  0  0  0  0
 39 40  2  0  0  0  0
 40 41  1  0  0  0  0
 41 42  2  0  0  0  0
 41 14  1  0  0  0  0
 42 15  1  0  0  0  0
 45 20  1  0  0  0  0
 48 22  1  0  0  0  0
 50 24  1  0  0  0  0
M  END
