5,11,13
q = 0.0, confidence = 1.0

 33 34  0  0  1  0  0  0  0  0999 V2000
    2.7975   -1.6180   -0.7653 N   0  0  0  0  0  0  0  0  0  0  0  0
    4.9224   -0.7410   -0.4263 N   0  0  0  0  0  0  0  0  0  0  0  0
    5.3287   -1.5991   -0.7983 H   0  0  0  0  0  0  0  0  0  0  0  0
    5.5218    0.0124   -0.0913 H   0  0  0  0  0  0  0  0  0  0  0  0
    0.7689   -0.4334   -0.2010 N   0  0  0  0  0  2  0  0  0  0  0  0
    0.7408   -2.5836   -1.1542 N   0  0  0  0  0  0  0  0  0  0  0  0
    1.3103   -3.4043   -1.3702 H   0  0  0  0  0  0  0  0  0  0  0  0
   -0.1527   -2.7720   -0.6795 H   0  0  0  0  0  0  0  0  0  0  0  0
    3.5074    1.7537    0.6219 N   0  0  0  0  0  0  0  0  0  0  0  0
    1.2428    1.8486    0.6626 N   0  0  0  0  0  0  0  0  0  0  0  0
   -1.6146    1.3847   -0.9951 N   0  0  0  0  0  0  0  0  0  0  0  0
   -1.5311    1.1071   -1.9847 H   0  0  0  0  0  0  0  0  0  0  0  0
   -3.3144   -0.4253    0.3239 N   0  0  0  0  0  0  0  0  0  0  0  0
   -3.5396   -0.1358    1.2891 H   0  0  0  0  0  0  0  0  0  0  0  0
   -3.6507   -1.3970    0.2342 H   0  0  0  0  0  0  0  0  0  0  0  0
    3.5881   -0.6165   -0.3451 C   0  0  0  0  0  0  0  0  0  0  0  0
    2.9776    0.5633    0.1763 C   0  0  0  0  0  0  0  0  0  0  0  0
    1.5718    0.5887    0.2007 C   0  0  2  0  0  3  0  0  0  0  0  0
    1.4618   -1.5315   -0.6823 C   0  0  0  0  0  0  0  0  0  0  0  0
    2.4639    2.4996    0.8962 C   0  0  0  0  0  0  0  0  0  0  0  0
    2.4824    3.5299    1.2776 H   0  0  0  0  0  0  0  0  0  0  0  0
   -0.0583    2.4950    0.6554 C   0  0  0  0  0  0  0  0  0  0  0  0
    0.0978    3.5273    1.0227 H   0  0  0  0  0  0  0  0  0  0  0  0
   -0.7445    1.9910    1.3719 H   0  0  0  0  0  0  0  0  0  0  0  0
   -0.6861    2.5277   -0.7484 C   0  0  0  0  0  0  0  0  0  0  0  0
   -1.2379    3.4787   -0.9027 H   0  0  0  0  0  0  0  0  0  0  0  0
    0.1205    2.4955   -1.5060 H   0  0  0  0  0  0  0  0  0  0  0  0
   -3.0396    1.7462   -0.7246 C   0  0  0  0  0  0  0  0  0  0  0  0
   -3.4144    2.4688   -1.4813 H   0  0  0  0  0  0  0  0  0  0  0  0
   -3.0707    2.2584    0.2598 H   0  0  0  0  0  0  0  0  0  0  0  0
   -3.9003    0.4938   -0.6808 C   0  0  0  0  0  0  0  0  0  0  0  0
   -4.9553    0.7516   -0.4491 H   0  0  0  0  0  0  0  0  0  0  0  0
   -3.8918   -0.0231   -1.6619 H   0  0  0  0  0  0  0  0  0  0  0  0
  1 19  2  0  0  0  0
  1 16  1  0  0  0  0
  2 16  1  0  0  0  0
  2  4  1  0  0  0  0
  3  2  1  0  0  0  0
  6 19  1  0  0  0  0
  6  8  1  0  0  0  0
  7  6  1  0  0  0  0
  9 20  2  0  0  0  0
 10 20  1  0  0  0  0
 11 25  1  0  0  0  0
 11 28  1  0  0  0  0
 12 11  1  0  0  0  0
 13 14  1  0  0  0  0
 15 13  1  0  0  0  0
 16 17  2  0  0  0  0
 17 18  1  0  0  0  0
 17  9  1  0  0  0  0
 18  5  1  6  0  0  0
 18 10  1  0  0  0  0
 19  5  1  0  0  0  0
 20 21  1  0  0  0  0
 22 10  1  0  0  0  0
 22 23  1  0  0  0  0
 22 24  1  0  0  0  0
 25 22  1  0  0  0  0
 26 25  1  0  0  0  0
 27 25  1  0  0  0  0
 28 31  1  0  0  0  0
 28 30  1  0  0  0  0
 29 28  1  0  0  0  0
 31 32  1  0  0  0  0
 31 13  1  0  0  0  0
 33 31  1  0  0  0  0
M  END
