1,3,5
q = 0.0, confidence = 1.0

 44 47  0  0  0  0  0  0  0  0999 V2000
    0.2153    0.4984   -1.2153 N   0  0  0  0  0  0  0  0  0  0  0  0
    0.1243    0.2133   -2.2018 H   0  0  0  0  0  0  0  0  0  0  0  0
   -2.1725   -0.9515   -0.0919 N   0  0  0  0  0  2  0  0  0  0  0  0
   -2.7239    0.2177   -0.5281 N   0  0  0  0  0  0  0  0  0  0  0  0
    0.1553    0.1183    1.5469 N   0  0  0  0  0  2  0  0  0  0  0  0
    1.0736    1.1214    1.4256 N   0  0  0  0  0  0  0  0  0  0  0  0
   -3.1740   -1.8549   -0.0690 C   0  0  0  0  0  3  0  0  0  0  0  0
   -2.9677   -2.8868    0.2365 H   0  0  0  0  0  0  0  0  0  0  0  0
   -4.3819   -1.2745   -0.5014 C   0  0  0  0  0  0  0  0  0  0  0  0
   -5.3573   -1.7586   -0.6075 H   0  0  0  0  0  0  0  0  0  0  0  0
   -4.0603    0.0441   -0.7913 C   0  0  0  0  0  0  0  0  0  0  0  0
   -4.6676    0.8639   -1.1860 H   0  0  0  0  0  0  0  0  0  0  0  0
   -2.0404    1.4674   -0.5651 C   0  0  0  0  0  0  0  0  0  0  0  0
   -2.8051    2.6097   -0.2434 C   0  0  0  0  0  0  0  0  0  0  0  0
   -3.8321    2.4669    0.1203 H   0  0  0  0  0  0  0  0  0  0  0  0
   -2.2979    3.9134   -0.3467 C   0  0  0  0  0  0  0  0  0  0  0  0
   -0.9653    4.0576   -0.7827 C   0  0  0  0  0  0  0  0  0  0  0  0
   -0.5278    5.0613   -0.8924 H   0  0  0  0  0  0  0  0  0  0  0  0
   -0.1839    2.9360   -1.0629 C   0  0  0  0  0  0  0  0  0  0  0  0
    0.8594    3.0699   -1.3814 H   0  0  0  0  0  0  0  0  0  0  0  0
   -0.6897    1.6271   -0.9508 C   0  0  0  0  0  0  0  0  0  0  0  0
   -3.1402    5.1121   -0.0053 C   0  0  0  0  0  0  0  0  0  0  0  0
   -4.1271    4.8241    0.4027 H   0  0  0  0  0  0  0  0  0  0  0  0
   -3.3130    5.7388   -0.9048 H   0  0  0  0  0  0  0  0  0  0  0  0
   -2.6327    5.7574    0.7399 H   0  0  0  0  0  0  0  0  0  0  0  0
   -0.5637    0.3940    2.6506 C   0  0  0  0  0  3  0  0  0  0  0  0
   -1.3689   -0.2842    2.9554 H   0  0  0  0  0  0  0  0  0  0  0  0
   -0.1072    1.5856    3.2525 C   0  0  0  0  0  0  0  0  0  0  0  0
   -0.4886    2.0658    4.1585 H   0  0  0  0  0  0  0  0  0  0  0  0
    0.9359    2.0244    2.4424 C   0  0  0  0  0  0  0  0  0  0  0  0
    1.5769    2.9104    2.4948 H   0  0  0  0  0  0  0  0  0  0  0  0
    2.0221    1.1297    0.3642 C   0  0  0  0  0  0  0  0  0  0  0  0
    3.3660    1.4201    0.6307 C   0  0  0  0  0  0  0  0  0  0  0  0
    3.6677    1.6269    1.6681 H   0  0  0  0  0  0  0  0  0  0  0  0
    4.3354    1.4030   -0.3928 C   0  0  0  0  0  0  0  0  0  0  0  0
    3.9097    1.0757   -1.6957 C   0  0  0  0  0  0  0  0  0  0  0  0
    4.6442    1.0437   -2.5141 H   0  0  0  0  0  0  0  0  0  0  0  0
    2.5655    0.7916   -1.9743 C   0  0  0  0  0  0  0  0  0  0  0  0
    2.2539    0.5481   -3.0018 H   0  0  0  0  0  0  0  0  0  0  0  0
    1.6091    0.8154   -0.9536 C   0  0  0  0  0  0  0  0  0  0  0  0
    5.7848    1.6644   -0.0851 C   0  0  0  0  0  0  0  0  0  0  0  0
    6.2958    0.7197    0.1988 H   0  0  0  0  0  0  0  0  0  0  0  0
    5.9063    2.3693    0.7597 H   0  0  0  0  0  0  0  0  0  0  0  0
    6.3197    2.0740   -0.9631 H   0  0  0  0  0  0  0  0  0  0  0  0
  1 40  1  0  0  0  0
  1 21  1  0  0  0  0
  2  1  1  0  0  0  0
  3  7  1  0  0  0  0
  4  3  1  0  0  0  0
  5 26  1  0  0  0  0
  6  5  1  0  0  0  0
  6 30  1  0  0  0  0
  7  8  1  0  0  0  0
  9  7  1  0  0  0  0
 10  9  1  0  0  0  0
 11  4  1  0  0  0  0
 11  9  2  0  0  0  0
 12 11  1  0  0  0  0
 13  4  1  0  0  0  0
 13 14  1  0  0  0  0
 14 15  1  0  0  0  0
 16 14  2  0  0  0  0
 16 22  1  0  0  0  0
 17 16  1  0  0  0  0
 18 17  1  0  0  0  0
 19 21  1  0  0  0  0
 19 17  2  0  0  0  0
 20 19  1  0  0  0  0
 21 13  2  0  0  0  0
 22 23  1  0  0  0  0
 22 25  1  0  0  0  0
 24 22  1  0  0  0  0
 26 27  1  0  0  0  0
 26 28  1  0  0  0  0
 28 29  1  0  0  0  0
 30 31  1  0  0  0  0
 30 28  2  0  0  0  0
 32 33  1  0  0  0  0
 32  6  1  0  0  0  0
 33 34  1  0  0  0  0
 35 41  1  0  0  0  0
 35 33  2  0  0  0  0
 36 35  1  0  0  0  0
 37 36  1  0  0  0  0
 38 36  2  0  0  0  0
 38 40  1  0  0  0  0
 39 38  1  0  0  0  0
 40 32  2  0  0  0  0
 41 42  1  0  0  0  0
 41 43  1  0  0  0  0
 44 41  1  0  0  0  0
M  END
