3,4,5
q = -1.0, confidence = 0.072

 49 51  0  0  1  0  0  0  0  0999 V2000
   -3.8827    0.4346   -1.1112 O   0  0  0  0  0  0  0  0  0  0  0  0
    3.8828    0.4347    1.1112 O   0  0  0  0  0  0  0  0  0  0  0  0
   -1.8054   -0.1638   -0.4637 N   0  0  0  0  0  2  0  0  0  0  0  0
    0.0000    1.8425   -0.0000 N   0  0  0  0  0  2  0  0  0  0  0  0
    1.8055   -0.1638    0.4637 N   0  0  0  0  0  2  0  0  0  0  0  0
   -2.5819   -1.4190   -0.4042 C   0  0  2  0  0  0  0  0  0  0  0  0
   -2.0196   -2.2051   -0.9407 H   0  0  0  0  0  0  0  0  0  0  0  0
   -3.8752   -1.0139   -1.1398 C   0  0  0  0  0  0  0  0  0  0  0  0
   -3.8814   -1.3381   -2.2024 H   0  0  0  0  0  0  0  0  0  0  0  0
   -4.8022   -1.3718   -0.6510 H   0  0  0  0  0  0  0  0  0  0  0  0
   -2.6227    0.8173   -0.7926 C   0  0  2  0  0  3  0  0  0  0  0  0
   -2.2911    2.1953   -0.8119 C   0  0  0  0  0  0  0  0  0  0  0  0
   -3.0563    2.9101   -1.1373 H   0  0  0  0  0  0  0  0  0  0  0  0
   -1.0468    2.6390   -0.4195 C   0  0  0  0  0  0  0  0  0  0  0  0
   -0.6359    4.0961   -0.4277 C   0  0  0  0  0  0  0  0  0  0  0  0
   -1.4395    4.7596   -0.0548 H   0  0  0  0  0  0  0  0  0  0  0  0
   -0.4175    4.4038   -1.4737 H   0  0  0  0  0  0  0  0  0  0  0  0
    0.6360    4.0961    0.4276 C   0  0  0  0  0  0  0  0  0  0  0  0
    1.4396    4.7596    0.0547 H   0  0  0  0  0  0  0  0  0  0  0  0
    0.4176    4.4039    1.4736 H   0  0  0  0  0  0  0  0  0  0  0  0
    1.0469    2.6390    0.4195 C   0  0  1  0  0  3  0  0  0  0  0  0
    2.2912    2.1954    0.8119 C   0  0  0  0  0  0  0  0  0  0  0  0
    3.0564    2.9101    1.1372 H   0  0  0  0  0  0  0  0  0  0  0  0
    2.6228    0.8173    0.7926 C   0  0  0  0  0  0  0  0  0  0  0  0
    3.8753   -1.0139    1.1397 C   0  0  0  0  0  0  0  0  0  0  0  0
    3.8815   -1.3381    2.2024 H   0  0  0  0  0  0  0  0  0  0  0  0
    4.8023   -1.3719    0.6509 H   0  0  0  0  0  0  0  0  0  0  0  0
    2.5819   -1.4190    0.4043 C   0  0  2  0  0  0  0  0  0  0  0  0
    2.0196   -2.2050    0.9409 H   0  0  0  0  0  0  0  0  0  0  0  0
    2.7713   -1.8988   -1.0560 C   0  0  0  0  0  0  0  0  0  0  0  0
    1.7319   -2.0607   -1.4077 H   0  0  0  0  0  0  0  0  0  0  0  0
    3.4444   -0.8527   -1.9485 C   0  0  0  0  0  0  0  0  0  0  0  0
    2.8696    0.0950   -1.9581 H   0  0  0  0  0  0  0  0  0  0  0  0
    3.5088   -1.2152   -2.9944 H   0  0  0  0  0  0  0  0  0  0  0  0
    4.4797   -0.6214   -1.6177 H   0  0  0  0  0  0  0  0  0  0  0  0
    3.5007   -3.2453   -1.0904 C   0  0  0  0  0  0  0  0  0  0  0  0
    4.5506   -3.1603   -0.7346 H   0  0  0  0  0  0  0  0  0  0  0  0
    3.5420   -3.6442   -2.1241 H   0  0  0  0  0  0  0  0  0  0  0  0
    2.9887   -3.9998   -0.4585 H   0  0  0  0  0  0  0  0  0  0  0  0
   -2.7715   -1.8986    1.0561 C   0  0  0  0  0  0  0  0  0  0  0  0
   -1.7322   -2.0606    1.4080 H   0  0  0  0  0  0  0  0  0  0  0  0
   -3.4447   -0.8523    1.9484 C   0  0  0  0  0  0  0  0  0  0  0  0
   -2.8697    0.0953    1.9580 H   0  0  0  0  0  0  0  0  0  0  0  0
   -3.5093   -1.2148    2.9944 H   0  0  0  0  0  0  0  0  0  0  0  0
   -4.4799   -0.6210    1.6175 H   0  0  0  0  0  0  0  0  0  0  0  0
   -3.5011   -3.2450    1.0906 C   0  0  0  0  0  0  0  0  0  0  0  0
   -4.5509   -3.1599    0.7346 H   0  0  0  0  0  0  0  0  0  0  0  0
   -3.5427   -3.6438    2.1243 H   0  0  0  0  0  0  0  0  0  0  0  0
   -2.9891   -3.9997    0.4588 H   0  0  0  0  0  0  0  0  0  0  0  0
  1 11  1  0  0  0  0
  2 25  1  0  0  0  0
  3  6  1  0  0  0  0
  4 21  1  0  0  0  0
  5 24  1  0  0  0  0
  6  7  1  6  0  0  0
  6 40  1  0  0  0  0
  8  1  1  0  0  0  0
  8 10  1  0  0  0  0
  8  6  1  0  0  0  0
  9  8  1  0  0  0  0
 11 12  1  1  0  0  0
 11  3  1  0  0  0  0
 12 14  2  0  0  0  0
 13 12  1  0  0  0  0
 14  4  1  0  0  0  0
 15 14  1  0  0  0  0
 15 16  1  0  0  0  0
 15 18  1  0  0  0  0
 17 15  1  0  0  0  0
 18 20  1  0  0  0  0
 19 18  1  0  0  0  0
 21 18  1  0  0  0  0
 21 22  1  1  0  0  0
 22 23  1  0  0  0  0
 24 22  2  0  0  0  0
 24  2  1  0  0  0  0
 25 26  1  0  0  0  0
 27 25  1  0  0  0  0
 28  5  1  0  0  0  0
 28 29  1  1  0  0  0
 28 25  1  0  0  0  0
 30 28  1  0  0  0  0
 31 30  1  0  0  0  0
 32 35  1  0  0  0  0
 32 30  1  0  0  0  0
 33 32  1  0  0  0  0
 34 32  1  0  0  0  0
 36 30  1  0  0  0  0
 36 37  1  0  0  0  0
 36 39  1  0  0  0  0
 38 36  1  0  0  0  0
 40 46  1  0  0  0  0
 40 41  1  0  0  0  0
 40 42  1  0  0  0  0
 42 43  1  0  0  0  0
 42 44  1  0  0  0  0
 45 42  1  0  0  0  0
 46 48  1  0  0  0  0
 47 46  1  0  0  0  0
 49 46  1  0  0  0  0
M  END
