1,2,3
q = -1.0

 25 26  0  0  0  0  0  0  0  0999 V2000
   -1.9810   -0.7919    0.0320 N   0  0  0  0  0  2  0  0  0  0  0  0
   -0.0002   -2.3876   -0.0003 N   0  0  0  0  0  2  0  0  0  0  0  0
    1.9808   -0.7922   -0.0334 N   0  0  0  0  0  2  0  0  0  0  0  0
   -2.9810    0.1233    0.0306 C   0  0  0  0  0  0  0  0  0  0  0  0
   -2.6610    1.1744    0.0283 H   0  0  0  0  0  0  0  0  0  0  0  0
   -4.3376   -0.2150    0.0371 C   0  0  0  0  0  0  0  0  0  0  0  0
   -5.0946    0.5811    0.0389 H   0  0  0  0  0  0  0  0  0  0  0  0
   -4.6915   -1.5815    0.0415 C   0  0  0  0  0  0  0  0  0  0  0  0
   -5.7486   -1.8871    0.0475 H   0  0  0  0  0  0  0  0  0  0  0  0
   -3.6811   -2.5410    0.0349 C   0  0  0  0  0  0  0  0  0  0  0  0
   -3.9148   -3.6156    0.0336 H   0  0  0  0  0  0  0  0  0  0  0  0
   -2.3167   -2.1454    0.0270 C   0  0  0  0  0  0  0  0  0  0  0  0
   -1.1984   -3.0107    0.0128 C   0  0  0  0  0  0  0  0  0  0  0  0
   -1.2823   -4.1089    0.0110 H   0  0  0  0  0  0  0  0  0  0  0  0
    1.1979   -3.0109   -0.0128 C   0  0  0  0  0  0  0  0  0  0  0  0
    1.2817   -4.1091   -0.0104 H   0  0  0  0  0  0  0  0  0  0  0  0
    2.3164   -2.1457   -0.0276 C   0  0  0  0  0  0  0  0  0  0  0  0
    3.6807   -2.5414   -0.0354 C   0  0  0  0  0  0  0  0  0  0  0  0
    3.9143   -3.6160   -0.0334 H   0  0  0  0  0  0  0  0  0  0  0  0
    4.6912   -1.5820   -0.0428 C   0  0  0  0  0  0  0  0  0  0  0  0
    5.7482   -1.8878   -0.0487 H   0  0  0  0  0  0  0  0  0  0  0  0
    4.3374   -0.2155   -0.0393 C   0  0  0  0  0  0  0  0  0  0  0  0
    5.0946    0.5805   -0.0416 H   0  0  0  0  0  0  0  0  0  0  0  0
    2.9809    0.1229   -0.0328 C   0  0  0  0  0  0  0  0  0  0  0  0
    2.6609    1.1741   -0.0308 H   0  0  0  0  0  0  0  0  0  0  0  0
  2 13  1  0  0  0  0
  3 24  1  0  0  0  0
  3 17  1  0  0  0  0
  4  1  1  0  0  0  0
  4  6  2  0  0  0  0
  5  4  1  0  0  0  0
  6  7  1  0  0  0  0
  6  8  1  0  0  0  0
  8  9  1  0  0  0  0
 10  8  2  0  0  0  0
 11 10  1  0  0  0  0
 12  1  1  0  0  0  0
 12 10  1  0  0  0  0
 13 12  2  0  0  0  0
 14 13  1  0  0  0  0
 15 16  1  0  0  0  0
 15  2  1  0  0  0  0
 17 15  2  0  0  0  0
 18 19  1  0  0  0  0
 18 17  1  0  0  0  0
 20 22  1  0  0  0  0
 20 18  2  0  0  0  0
 21 20  1  0  0  0  0
 22 24  2  0  0  0  0
 23 22  1  0  0  0  0
 24 25  1  0  0  0  0
M  END
