1,2,3
q = 0.0, confidence = 0.992

 65 70  0  0  1  0  0  0  0  0999 V2000
   -1.2989    0.1253   -1.2549 N   0  0  0  0  0  2  0  0  0  0  0  0
   -1.2871   -0.1637    1.4832 N   0  0  0  0  0  2  0  0  0  0  0  0
    1.0510   -0.8100    0.0395 N   0  0  0  0  0  0  0  0  0  0  0  0
    8.0505    0.7140    1.3567 O   0  0  0  0  0  0  0  0  0  0  0  0
   -2.5658    0.6032   -1.5849 C   0  0  0  0  0  0  0  0  0  0  0  0
    7.9613    1.1624   -0.8678 O   0  0  0  0  0  0  0  0  0  0  0  0
   -3.5590   -0.3097   -2.0179 C   0  0  0  0  0  0  0  0  0  0  0  0
   -3.2794   -1.3599   -2.1651 H   0  0  0  0  0  0  0  0  0  0  0  0
   -4.8506    0.1272   -2.2838 C   0  0  0  0  0  0  0  0  0  0  0  0
   -5.6095   -0.5899   -2.6290 H   0  0  0  0  0  0  0  0  0  0  0  0
   -5.1828    1.4918   -2.1195 C   0  0  0  0  0  0  0  0  0  0  0  0
   -6.2088    1.8354   -2.3166 H   0  0  0  0  0  0  0  0  0  0  0  0
   -4.2056    2.4092   -1.7473 C   0  0  0  0  0  3  0  0  0  0  0  0
   -4.4720    3.4718   -1.6698 H   0  0  0  0  0  0  0  0  0  0  0  0
   -2.8701    1.9990   -1.4969 C   0  0  0  0  0  0  0  0  0  0  0  0
   -1.7964    2.9223   -1.1815 C   0  0  0  0  0  0  0  0  0  0  0  0
   -1.9990    4.3153   -1.0114 C   0  0  0  0  0  0  0  0  0  0  0  0
   -3.0134    4.7306   -1.0748 H   0  0  0  0  0  0  0  0  0  0  0  0
   -0.9290    5.1724   -0.7753 C   0  0  0  0  0  0  0  0  0  0  0  0
   -1.1100    6.2506   -0.6527 H   0  0  0  0  0  0  0  0  0  0  0  0
    0.3906    4.6678   -0.7035 C   0  0  0  0  0  0  0  0  0  0  0  0
    1.2338    5.3523   -0.5310 H   0  0  0  0  0  0  0  0  0  0  0  0
    0.6200    3.3062   -0.8488 C   0  0  0  0  0  0  0  0  0  0  0  0
    1.6507    2.9324   -0.7864 H   0  0  0  0  0  0  0  0  0  0  0  0
   -0.4607    2.4039   -1.0704 C   0  0  0  0  0  0  0  0  0  0  0  0
   -0.2846    0.9756   -1.0939 C   0  0  0  0  0  0  0  0  0  0  0  0
    1.0691    0.3221   -0.9307 C   0  0  0  0  0  0  0  0  0  0  0  0
    1.8657    1.0404   -0.6639 H   0  0  0  0  0  0  0  0  0  0  0  0
    1.3374   -0.1041   -1.9193 H   0  0  0  0  0  0  0  0  0  0  0  0
   -0.0387    1.6181    2.5671 C   0  0  0  0  0  0  0  0  0  0  0  0
    0.9486    2.0177    2.8365 H   0  0  0  0  0  0  0  0  0  0  0  0
   -1.2018    2.2958    2.8838 C   0  0  0  0  0  0  0  0  0  0  0  0
   -1.1694    3.2598    3.4138 H   0  0  0  0  0  0  0  0  0  0  0  0
   -2.4530    1.7472    2.5050 C   0  0  0  0  0  0  0  0  0  0  0  0
   -3.6802    2.4179    2.7786 C   0  0  0  0  0  0  0  0  0  0  0  0
   -3.6437    3.3861    3.3003 H   0  0  0  0  0  0  0  0  0  0  0  0
   -4.8891    1.8584    2.4013 C   0  0  0  0  0  0  0  0  0  0  0  0
   -5.8337    2.3799    2.6141 H   0  0  0  0  0  0  0  0  0  0  0  0
   -4.9075    0.5947    1.7547 C   0  0  0  0  0  0  0  0  0  0  0  0
   -5.8682    0.1382    1.4748 H   0  0  0  0  0  0  0  0  0  0  0  0
   -3.7301   -0.0822    1.4731 C   0  0  0  0  0  0  0  0  0  0  0  0
   -3.7662   -1.0580    0.9821 H   0  0  0  0  0  0  0  0  0  0  0  0
   -2.4706    0.4764    1.8165 C   0  0  1  0  0  3  0  0  0  0  0  0
    7.4697    0.6636    0.2873 C   0  0  0  0  0  0  0  0  0  0  0  0
    9.2618    1.7655   -0.7742 C   0  0  0  0  0  0  0  0  0  0  0  0
    9.5112    2.1131   -1.7917 H   0  0  0  0  0  0  0  0  0  0  0  0
   10.0086    1.0272   -0.4206 H   0  0  0  0  0  0  0  0  0  0  0  0
    9.2479    2.6153   -0.0630 H   0  0  0  0  0  0  0  0  0  0  0  0
   -0.1210    0.4009    1.8495 C   0  0  0  0  0  0  0  0  0  0  0  0
    1.1350   -0.3174    1.4426 C   0  0  0  0  0  0  0  0  0  0  0  0
    1.2728   -1.2065    2.0938 H   0  0  0  0  0  0  0  0  0  0  0  0
    2.0214    0.3354    1.5816 H   0  0  0  0  0  0  0  0  0  0  0  0
    2.1898   -1.7688   -0.2442 C   0  0  0  0  0  0  0  0  0  0  0  0
    2.0697   -2.6097    0.4650 H   0  0  0  0  0  0  0  0  0  0  0  0
    2.0189   -2.1645   -1.2626 H   0  0  0  0  0  0  0  0  0  0  0  0
    3.5690   -1.1616   -0.1303 C   0  0  0  0  0  0  0  0  0  0  0  0
    4.1947   -0.5793   -1.2535 C   0  0  0  0  0  0  0  0  0  0  0  0
    3.6978   -0.6141   -2.2361 H   0  0  0  0  0  0  0  0  0  0  0  0
    5.4568    0.0178   -1.1447 C   0  0  0  0  0  0  0  0  0  0  0  0
    5.9464    0.4618   -2.0222 H   0  0  0  0  0  0  0  0  0  0  0  0
    6.1185    0.0393    0.0983 C   0  0  0  0  0  0  0  0  0  0  0  0
    5.5137   -0.5593    1.2200 C   0  0  0  0  0  0  0  0  0  0  0  0
    6.0628   -0.5505    2.1731 H   0  0  0  0  0  0  0  0  0  0  0  0
    4.2550   -1.1578    1.1040 C   0  0  0  0  0  0  0  0  0  0  0  0
    3.8057   -1.6487    1.9816 H   0  0  0  0  0  0  0  0  0  0  0  0
  1 26  1  0  0  0  0
  2 43  1  0  0  0  0
  2 49  1  0  0  0  0
  3 50  1  0  0  0  0
  5 15  1  0  0  0  0
  5  1  1  0  0  0  0
  6 45  1  0  0  0  0
  6 44  1  0  0  0  0
  7  5  2  0  0  0  0
  8  7  1  0  0  0  0
  9 11  2  0  0  0  0
  9  7  1  0  0  0  0
 10  9  1  0  0  0  0
 11 13  1  0  0  0  0
 12 11  1  0  0  0  0
 13 14  1  0  0  0  0
 13 15  1  0  0  0  0
 15 16  2  0  0  0  0
 16 25  1  0  0  0  0
 16 17  1  0  0  0  0
 17 19  2  0  0  0  0
 18 17  1  0  0  0  0
 19 21  1  0  0  0  0
 19 20  1  0  0  0  0
 21 22  1  0  0  0  0
 23 24  1  0  0  0  0
 23 21  2  0  0  0  0
 25 23  1  0  0  0  0
 26 25  2  0  0  0  0
 26 27  1  0  0  0  0
 27 28  1  0  0  0  0
 27  3  1  0  0  0  0
 29 27  1  0  0  0  0
 30 31  1  0  0  0  0
 30 32  1  0  0  0  0
 32 33  1  0  0  0  0
 34 35  1  0  0  0  0
 34 32  2  0  0  0  0
 35 36  1  0  0  0  0
 37 38  1  0  0  0  0
 37 35  2  0  0  0  0
 39 37  1  0  0  0  0
 40 39  1  0  0  0  0
 41 39  2  0  0  0  0
 42 41  1  0  0  0  0
 43 41  1  6  0  0  0
 43 34  1  0  0  0  0
 44  4  2  0  0  0  0
 45 47  1  0  0  0  0
 45 48  1  0  0  0  0
 46 45  1  0  0  0  0
 49 30  2  0  0  0  0
 50 52  1  0  0  0  0
 50 49  1  0  0  0  0
 50 51  1  0  0  0  0
 53 56  1  0  0  0  0
 53  3  1  0  0  0  0
 53 54  1  0  0  0  0
 55 53  1  0  0  0  0
 56 64  1  0  0  0  0
 57 59  1  0  0  0  0
 57 56  2  0  0  0  0
 58 57  1  0  0  0  0
 59 61  2  0  0  0  0
 60 59  1  0  0  0  0
 61 44  1  0  0  0  0
 61 62  1  0  0  0  0
 62 63  1  0  0  0  0
 64 62  2  0  0  0  0
 64 65  1  0  0  0  0
M  END
