1,2,3
q = -1.0

 77 83  0  0  1  0  0  0  0  0999 V2000
    2.1802   -1.4847   -0.1328 N   0  0  0  0  0  0  0  0  0  0  0  0
    0.0028    0.6645   -0.0068 N   0  0  0  0  0  0  0  0  0  0  0  0
   -2.1815   -1.4860    0.0056 N   0  0  0  0  0  0  0  0  0  0  0  0
    6.4300    5.2107   -0.0495 N   0  0  0  0  0  0  0  0  0  0  0  0
   -6.4941    5.1409   -0.2091 N   0  0  0  0  0  0  0  0  0  0  0  0
    7.1255    5.3392   -1.0562 O   0  0  0  0  0  0  0  0  0  0  0  0
    6.5072    5.9044    0.9634 O   0  0  0  0  0  0  0  0  0  0  0  0
   -6.6191    5.7721   -1.2578 O   0  0  0  0  0  0  0  0  0  0  0  0
   -7.1584    5.3155    0.8113 O   0  0  0  0  0  0  0  0  0  0  0  0
   -1.2730   -3.8525   -2.2224 C   0  0  0  0  0  0  0  0  0  0  0  0
   -2.2325   -3.7275   -2.7450 H   0  0  0  0  0  0  0  0  0  0  0  0
   -0.0785   -3.7726   -2.9486 C   0  0  0  0  0  0  0  0  0  0  0  0
   -0.1103   -3.6160   -4.0376 H   0  0  0  0  0  0  0  0  0  0  0  0
    1.1567   -3.8466   -2.2924 C   0  0  0  0  0  0  0  0  0  0  0  0
    2.0829   -3.7186   -2.8707 H   0  0  0  0  0  0  0  0  0  0  0  0
    1.2163   -4.0436   -0.8995 C   0  0  0  0  0  0  0  0  0  0  0  0
    2.5712   -3.9779   -0.1790 C   0  0  0  0  0  0  0  0  0  0  0  0
    3.0280   -2.5218   -0.1747 C   0  0  0  0  0  0  0  0  0  0  0  0
    4.4015   -2.0642   -0.1654 C   0  0  0  0  0  0  0  0  0  0  0  0
    5.2940   -2.6981   -0.1965 H   0  0  0  0  0  0  0  0  0  0  0  0
    4.3577   -0.6878   -0.1082 C   0  0  0  0  0  0  0  0  0  0  0  0
    5.2057    0.0042   -0.0744 H   0  0  0  0  0  0  0  0  0  0  0  0
    2.9533   -0.3122   -0.0990 C   0  0  0  0  0  3  0  0  0  0  0  0
    2.4726    1.0068   -0.0772 C   0  0  2  0  0  3  0  0  0  0  0  0
    1.1085    1.4662   -0.0800 C   0  0  0  0  0  3  0  0  0  0  0  0
    0.6958    2.8468   -0.2077 C   0  0  0  0  0  0  0  0  0  0  0  0
    1.3593    3.7118   -0.3083 H   0  0  0  0  0  0  0  0  0  0  0  0
   -0.6872    2.8493   -0.1991 C   0  0  0  0  0  0  0  0  0  0  0  0
   -1.3478    3.7190   -0.2731 H   0  0  0  0  0  0  0  0  0  0  0  0
   -1.1029    1.4685   -0.0829 C   0  0  0  0  0  0  0  0  0  0  0  0
   -2.4645    1.0080   -0.0664 C   0  0  2  0  0  3  0  0  0  0  0  0
   -2.9466   -0.3114   -0.0429 C   0  0  0  0  0  3  0  0  0  0  0  0
   -4.3474   -0.6813   -0.1556 C   0  0  0  0  0  0  0  0  0  0  0  0
   -5.1872    0.0166   -0.2405 H   0  0  0  0  0  0  0  0  0  0  0  0
   -4.3957   -2.0596   -0.1744 C   0  0  0  0  0  0  0  0  0  0  0  0
   -5.2857   -2.6904   -0.2684 H   0  0  0  0  0  0  0  0  0  0  0  0
   -3.0291   -2.5221   -0.0706 C   0  0  0  0  0  0  0  0  0  0  0  0
   -2.5634   -3.9752   -0.0321 C   0  0  0  0  0  0  0  0  0  0  0  0
   -1.2502   -4.0478   -0.8278 C   0  0  0  0  0  0  0  0  0  0  0  0
    0.0025   -4.1769   -0.1887 C   0  0  0  0  0  0  0  0  0  0  0  0
    3.6083   -4.8635   -0.9089 C   0  0  0  0  0  0  0  0  0  0  0  0
    3.2255   -5.9003   -0.9810 H   0  0  0  0  0  0  0  0  0  0  0  0
    4.5623   -4.8957   -0.3476 H   0  0  0  0  0  0  0  0  0  0  0  0
    3.8309   -4.5056   -1.9323 H   0  0  0  0  0  0  0  0  0  0  0  0
    2.4950   -4.4469    1.2960 C   0  0  0  0  0  0  0  0  0  0  0  0
    1.8217   -3.8186    1.9127 H   0  0  0  0  0  0  0  0  0  0  0  0
    3.5033   -4.3974    1.7515 H   0  0  0  0  0  0  0  0  0  0  0  0
    2.1498   -5.5001    1.3418 H   0  0  0  0  0  0  0  0  0  0  0  0
   -3.6245   -4.9021   -0.6674 C   0  0  0  0  0  0  0  0  0  0  0  0
   -4.5520   -4.9097   -0.0622 H   0  0  0  0  0  0  0  0  0  0  0  0
   -3.2372   -5.9390   -0.7030 H   0  0  0  0  0  0  0  0  0  0  0  0
   -3.8942   -4.6001   -1.6975 H   0  0  0  0  0  0  0  0  0  0  0  0
   -2.3988   -4.3831    1.4525 C   0  0  0  0  0  0  0  0  0  0  0  0
   -1.6914   -3.7331    2.0053 H   0  0  0  0  0  0  0  0  0  0  0  0
   -2.0484   -5.4332    1.5216 H   0  0  0  0  0  0  0  0  0  0  0  0
   -3.3794   -4.3165    1.9631 H   0  0  0  0  0  0  0  0  0  0  0  0
    3.5031    2.0917   -0.0739 C   0  0  0  0  0  0  0  0  0  0  0  0
    4.3293    2.3046   -1.1992 C   0  0  0  0  0  0  0  0  0  0  0  0
    4.2067    1.6644   -2.0849 H   0  0  0  0  0  0  0  0  0  0  0  0
    3.6493    2.9243    1.0579 C   0  0  0  0  0  0  0  0  0  0  0  0
    3.0074    2.7581    1.9353 H   0  0  0  0  0  0  0  0  0  0  0  0
    5.2868    3.3253   -1.1983 C   0  0  0  0  0  0  0  0  0  0  0  0
    5.9388    3.5184   -2.0605 H   0  0  0  0  0  0  0  0  0  0  0  0
    4.6089    3.9423    1.0742 C   0  0  0  0  0  0  0  0  0  0  0  0
    4.7528    4.5973    1.9437 H   0  0  0  0  0  0  0  0  0  0  0  0
    5.4127    4.1276   -0.0579 C   0  0  0  0  0  0  0  0  0  0  0  0
   -3.5060    2.0830   -0.1072 C   0  0  0  0  0  0  0  0  0  0  0  0
   -3.7089    2.8434   -1.2797 C   0  0  0  0  0  0  0  0  0  0  0  0
   -3.0968    2.6362   -2.1696 H   0  0  0  0  0  0  0  0  0  0  0  0
   -4.2986    2.3434    1.0318 C   0  0  0  0  0  0  0  0  0  0  0  0
   -4.1364    1.7536    1.9457 H   0  0  0  0  0  0  0  0  0  0  0  0
   -4.6872    3.8429   -1.3201 C   0  0  0  0  0  0  0  0  0  0  0  0
   -4.8744    4.4440   -2.2197 H   0  0  0  0  0  0  0  0  0  0  0  0
   -5.2759    3.3451    1.0058 C   0  0  0  0  0  0  0  0  0  0  0  0
   -5.9039    3.5732    1.8773 H   0  0  0  0  0  0  0  0  0  0  0  0
   -5.4552    4.0791   -0.1728 C   0  0  0  0  0  0  0  0  0  0  0  0
    0.0342   -4.3522    0.8941 H   0  0  0  0  0  0  0  0  0  0  0  0
  1 23  1  0  0  0  0
  4  7  2  0  0  0  0
  5 76  1  0  0  0  0
  5  9  2  0  0  0  0
  6  4  2  0  0  0  0
  8  5  2  0  0  0  0
 10 39  1  0  0  0  0
 11 10  1  0  0  0  0
 12 14  1  0  0  0  0
 12 10  2  0  0  0  0
 13 12  1  0  0  0  0
 14 16  2  0  0  0  0
 15 14  1  0  0  0  0
 16 40  1  0  0  0  0
 16 17  1  0  0  0  0
 17 18  1  0  0  0  0
 17 45  1  0  0  0  0
 18 19  1  0  0  0  0
 18  1  2  0  0  0  0
 19 21  2  0  0  0  0
 20 19  1  0  0  0  0
 21 23  1  0  0  0  0
 21 22  1  0  0  0  0
 23 24  1  0  0  0  0
 24 57  1  6  0  0  0
 25 24  1  0  0  0  0
 25  2  1  0  0  0  0
 26 28  2  0  0  0  0
 26 25  1  0  0  0  0
 27 26  1  0  0  0  0
 28 30  1  0  0  0  0
 29 28  1  0  0  0  0
 30 31  1  0  0  0  0
 30  2  2  0  0  0  0
 31 67  1  6  0  0  0
 31 32  1  0  0  0  0
 32  3  1  0  0  0  0
 33 32  1  0  0  0  0
 34 33  1  0  0  0  0
 35 33  2  0  0  0  0
 35 37  1  0  0  0  0
 36 35  1  0  0  0  0
 37 38  1  0  0  0  0
 37  3  2  0  0  0  0
 38 53  1  0  0  0  0
 39 40  2  0  0  0  0
 39 38  1  0  0  0  0
 40 77  1  0  0  0  0
 41 43  1  0  0  0  0
 41 17  1  0  0  0  0
 42 41  1  0  0  0  0
 44 41  1  0  0  0  0
 45 48  1  0  0  0  0
 45 47  1  0  0  0  0
 45 46  1  0  0  0  0
 49 50  1  0  0  0  0
 49 38  1  0  0  0  0
 51 49  1  0  0  0  0
 52 49  1  0  0  0  0
 53 55  1  0  0  0  0
 53 56  1  0  0  0  0
 53 54  1  0  0  0  0
 57 60  1  0  0  0  0
 58 62  1  0  0  0  0
 58 57  2  0  0  0  0
 59 58  1  0  0  0  0
 60 64  2  0  0  0  0
 60 61  1  0  0  0  0
 62 66  2  0  0  0  0
 63 62  1  0  0  0  0
 64 65  1  0  0  0  0
 66  4  1  0  0  0  0
 66 64  1  0  0  0  0
 67 70  1  0  0  0  0
 68 67  2  0  0  0  0
 69 68  1  0  0  0  0
 70 71  1  0  0  0  0
 72 68  1  0  0  0  0
 72 76  2  0  0  0  0
 73 72  1  0  0  0  0
 74 70  2  0  0  0  0
 74 75  1  0  0  0  0
 76 74  1  0  0  0  0
M  END
