4,7,9
q = -1.0

 44 46  0  0  1  0  0  0  0  0999 V2000
   -1.7845   -4.1279    3.1133 Cl  0  0  0  0  0  0  0  0  0  0  0  0
    4.9743   -1.4351   -2.4367 Cl  0  0  0  0  0  0  0  0  0  0  0  0
    0.6832    5.0958    2.0154 Cl  0  0  0  0  0  0  0  0  0  0  0  0
    0.0791    1.6490    0.2621 N   0  0  0  0  0  2  0  0  0  0  0  0
    0.8766    1.2744    1.2936 N   0  0  0  0  0  0  0  0  0  0  0  0
    0.1899   -1.1627    1.5419 N   0  0  0  0  0  0  0  0  0  0  0  0
   -0.7553   -1.3254    0.5711 N   0  0  0  0  0  2  0  0  0  0  0  0
    2.0806   -0.5190    0.0048 N   0  0  0  0  0  0  0  0  0  0  0  0
    1.4118   -0.4230   -1.1804 N   0  0  0  0  0  2  0  0  0  0  0  0
    0.0192   -2.0575    2.5600 C   0  0  1  0  0  3  0  0  0  0  0  0
   -1.0931   -2.8266    2.2077 C   0  0  0  0  0  0  0  0  0  0  0  0
   -1.5472   -2.3514    0.9522 C   0  0  0  0  0  0  0  0  0  0  0  0
    0.8839   -2.1559    3.7703 C   0  0  0  0  0  0  0  0  0  0  0  0
   -2.6890   -2.9183    0.1754 C   0  0  0  0  0  0  0  0  0  0  0  0
    3.3818   -0.8765   -0.2065 C   0  0  1  0  0  3  0  0  0  0  0  0
    3.5279   -1.0047   -1.5928 C   0  0  0  0  0  0  0  0  0  0  0  0
    2.2725   -0.7093   -2.1800 C   0  0  0  0  0  0  0  0  0  0  0  0
    4.3952   -1.0691    0.8691 C   0  0  0  0  0  0  0  0  0  0  0  0
    1.9170   -0.6905   -3.6256 C   0  0  0  0  0  0  0  0  0  0  0  0
    1.2211    2.3483    2.0642 C   0  0  2  0  0  3  0  0  0  0  0  0
    0.5977    3.4556    1.4731 C   0  0  0  0  0  0  0  0  0  0  0  0
   -0.1040    2.9820    0.3356 C   0  0  0  0  0  0  0  0  0  0  0  0
    2.0985    2.2844    3.2671 C   0  0  0  0  0  0  0  0  0  0  0  0
   -0.8932    3.7621   -0.6599 C   0  0  0  0  0  0  0  0  0  0  0  0
    1.3724   -0.1866    1.3429 B   0  0  1  0  0  0  0  0  0  0  0  0
    0.9319   -1.1973    4.3253 H   0  0  0  0  0  0  0  0  0  0  0  0
    1.9254   -2.4392    3.5143 H   0  0  0  0  0  0  0  0  0  0  0  0
    0.4712   -2.9297    4.4447 H   0  0  0  0  0  0  0  0  0  0  0  0
   -2.7228   -2.5189   -0.8507 H   0  0  0  0  0  0  0  0  0  0  0  0
   -3.6609   -2.7175    0.6740 H   0  0  0  0  0  0  0  0  0  0  0  0
   -2.5921   -4.0215    0.1160 H   0  0  0  0  0  0  0  0  0  0  0  0
    1.7023    1.5869    4.0329 H   0  0  0  0  0  0  0  0  0  0  0  0
    2.1692    3.2924    3.7174 H   0  0  0  0  0  0  0  0  0  0  0  0
    3.1241    1.9455    3.0136 H   0  0  0  0  0  0  0  0  0  0  0  0
   -0.7850    3.3103   -1.6657 H   0  0  0  0  0  0  0  0  0  0  0  0
   -0.5384    4.8101   -0.6892 H   0  0  0  0  0  0  0  0  0  0  0  0
   -1.9748    3.7921   -0.4068 H   0  0  0  0  0  0  0  0  0  0  0  0
    4.5663   -0.1396    1.4499 H   0  0  0  0  0  0  0  0  0  0  0  0
    5.3543   -1.3711    0.4081 H   0  0  0  0  0  0  0  0  0  0  0  0
    4.0916   -1.8561    1.5893 H   0  0  0  0  0  0  0  0  0  0  0  0
    1.2506    0.1646   -3.8495 H   0  0  0  0  0  0  0  0  0  0  0  0
    1.3852   -1.6163   -3.9267 H   0  0  0  0  0  0  0  0  0  0  0  0
    2.8381   -0.6154   -4.2341 H   0  0  0  0  0  0  0  0  0  0  0  0
    2.1594   -0.3154    2.2593 H   0  0  0  0  0  0  0  0  0  0  0  0
  2 16  1  0  0  0  0
  4 22  1  0  0  0  0
  4  5  1  0  0  0  0
  5 25  1  0  0  0  0
  5 20  1  0  0  0  0
  6 10  1  0  0  0  0
  7 12  1  0  0  0  0
  7  6  1  0  0  0  0
  8 25  1  0  0  0  0
  9  8  1  0  0  0  0
 10 13  1  6  0  0  0
 11 10  1  0  0  0  0
 11  1  1  0  0  0  0
 12 11  2  0  0  0  0
 13 26  1  0  0  0  0
 13 28  1  0  0  0  0
 14 30  1  0  0  0  0
 14 12  1  0  0  0  0
 15  8  1  0  0  0  0
 15 18  1  6  0  0  0
 16 15  1  0  0  0  0
 17 16  2  0  0  0  0
 17  9  1  0  0  0  0
 18 38  1  0  0  0  0
 18 40  1  0  0  0  0
 19 17  1  0  0  0  0
 20 23  1  6  0  0  0
 21  3  1  0  0  0  0
 21 20  1  0  0  0  0
 22 21  2  0  0  0  0
 23 33  1  0  0  0  0
 23 32  1  0  0  0  0
 24 37  1  0  0  0  0
 24 22  1  0  0  0  0
 25  6  1  0  0  0  0
 25 44  1  1  0  0  0
 27 13  1  0  0  0  0
 29 14  1  0  0  0  0
 31 14  1  0  0  0  0
 34 23  1  0  0  0  0
 35 24  1  0  0  0  0
 36 24  1  0  0  0  0
 39 18  1  0  0  0  0
 41 19  1  0  0  0  0
 42 19  1  0  0  0  0
 43 19  1  0  0  0  0
M  END
