1,2,4
q = 0.0, confidence = 0.998

 33 33  0  0  0  0  0  0  0  0999 V2000
   -1.9981   -1.3513    0.4821 N   0  0  0  0  0  0  0  0  0  0  0  0
    0.1947    1.0096    0.9013 N   0  0  0  0  0  0  0  0  0  0  0  0
    1.1118    1.2177    0.4643 H   0  0  0  0  0  0  0  0  0  0  0  0
   -1.9899    1.6720   -0.8372 N   0  0  0  0  0  0  0  0  0  0  0  0
   -2.0503    1.8326   -1.8517 H   0  0  0  0  0  0  0  0  0  0  0  0
   -1.2452   -1.7410    1.7148 C   0  0  0  0  0  0  0  0  0  0  0  0
   -0.3699   -2.3331    1.3752 H   0  0  0  0  0  0  0  0  0  0  0  0
   -1.8854   -2.4328    2.3095 H   0  0  0  0  0  0  0  0  0  0  0  0
   -0.7639   -0.5938    2.6119 C   0  0  0  0  0  0  0  0  0  0  0  0
   -0.4728   -1.0529    3.5788 H   0  0  0  0  0  0  0  0  0  0  0  0
   -1.6043    0.0842    2.8747 H   0  0  0  0  0  0  0  0  0  0  0  0
    0.4471    0.2069    2.1235 C   0  0  0  0  0  0  0  0  0  0  0  0
    0.8099    0.8646    2.9443 H   0  0  0  0  0  0  0  0  0  0  0  0
    1.2779   -0.4836    1.8721 H   0  0  0  0  0  0  0  0  0  0  0  0
   -0.5577    2.2649    1.0968 C   0  0  0  0  0  0  0  0  0  0  0  0
    0.0762    3.0659    1.5351 H   0  0  0  0  0  0  0  0  0  0  0  0
   -1.3715    2.0738    1.8265 H   0  0  0  0  0  0  0  0  0  0  0  0
   -1.1499    2.7386   -0.2345 C   0  0  0  0  0  0  0  0  0  0  0  0
   -1.7209    3.6810   -0.0872 H   0  0  0  0  0  0  0  0  0  0  0  0
   -0.3302    2.9591   -0.9493 H   0  0  0  0  0  0  0  0  0  0  0  0
   -3.3681    1.5717   -0.2812 C   0  0  0  0  0  0  0  0  0  0  0  0
   -4.0485    2.2417   -0.8483 H   0  0  0  0  0  0  0  0  0  0  0  0
   -3.3460    1.9621    0.7574 H   0  0  0  0  0  0  0  0  0  0  0  0
   -3.9251    0.1449   -0.2644 C   0  0  0  0  0  0  0  0  0  0  0  0
   -3.8422   -0.3158   -1.2731 H   0  0  0  0  0  0  0  0  0  0  0  0
   -5.0149    0.2194   -0.0714 H   0  0  0  0  0  0  0  0  0  0  0  0
   -3.3335   -0.7733    0.8126 C   0  0  0  0  0  0  0  0  0  0  0  0
   -3.2393   -0.1976    1.7546 H   0  0  0  0  0  0  0  0  0  0  0  0
   -4.0337   -1.6112    1.0291 H   0  0  0  0  0  0  0  0  0  0  0  0
   -2.1640   -2.5496   -0.3796 C   0  0  0  0  0  0  0  0  0  0  0  0
   -2.6554   -3.3736    0.1831 H   0  0  0  0  0  0  0  0  0  0  0  0
   -1.1750   -2.8741   -0.7564 H   0  0  0  0  0  0  0  0  0  0  0  0
   -2.7881   -2.2977   -1.2576 H   0  0  0  0  0  0  0  0  0  0  0  0
  1 27  1  0  0  0  0
  1  6  1  0  0  0  0
  2 15  1  0  0  0  0
  2 12  1  0  0  0  0
  3  2  1  0  0  0  0
  4 21  1  0  0  0  0
  4 18  1  0  0  0  0
  5  4  1  0  0  0  0
  6  8  1  0  0  0  0
  6  9  1  0  0  0  0
  7  6  1  0  0  0  0
  9 11  1  0  0  0  0
  9 10  1  0  0  0  0
 12  9  1  0  0  0  0
 12 13  1  0  0  0  0
 14 12  1  0  0  0  0
 15 16  1  0  0  0  0
 15 17  1  0  0  0  0
 18 19  1  0  0  0  0
 18 15  1  0  0  0  0
 20 18  1  0  0  0  0
 21 24  1  0  0  0  0
 21 23  1  0  0  0  0
 22 21  1  0  0  0  0
 24 26  1  0  0  0  0
 24 27  1  0  0  0  0
 25 24  1  0  0  0  0
 27 29  1  0  0  0  0
 27 28  1  0  0  0  0
 30 31  1  0  0  0  0
 30  1  1  0  0  0  0
 32 30  1  0  0  0  0
 33 30  1  0  0  0  0
M  END
