3,4,5
q = -1.0

 25 26  0  0  0  0  0  0  0  0999 V2000
    3.7376    1.8185    0.0000 S   0  0  0  0  0  0  0  0  0  0  0  0
    3.2114   -2.0593    0.0002 O   0  0  0  0  0  0  0  0  0  0  0  0
    1.9225   -0.1155    0.0001 N   0  0  0  0  0  2  0  0  0  0  0  0
   -0.0999    1.4369   -0.0001 N   0  0  0  0  0  2  0  0  0  0  0  0
   -2.0908   -0.2384   -0.0000 N   0  0  0  0  0  2  0  0  0  0  0  0
    1.0728    2.1120   -0.0001 N   0  0  0  0  0  0  0  0  0  0  0  0
    3.1088   -0.8511    0.0001 C   0  0  0  0  0  0  0  0  0  0  0  0
    4.3339    0.0916    0.0000 C   0  0  0  0  0  0  0  0  0  0  0  0
    4.9507   -0.1071   -0.8986 H   0  0  0  0  0  0  0  0  0  0  0  0
    4.9509   -0.1070    0.8985 H   0  0  0  0  0  0  0  0  0  0  0  0
    2.0802    1.2440    0.0000 C   0  0  0  0  0  0  0  0  0  0  0  0
   -2.4118    1.1091   -0.0000 C   0  0  0  0  0  0  0  0  0  0  0  0
   -3.0556   -1.1757    0.0000 C   0  0  0  0  0  0  0  0  0  0  0  0
   -2.6810   -2.2136   -0.0000 H   0  0  0  0  0  0  0  0  0  0  0  0
   -4.4140   -0.8316    0.0001 C   0  0  0  0  0  0  0  0  0  0  0  0
   -5.1728   -1.6261    0.0002 H   0  0  0  0  0  0  0  0  0  0  0  0
   -4.7700    0.5252    0.0002 C   0  0  0  0  0  0  0  0  0  0  0  0
   -5.8279    0.8262    0.0002 H   0  0  0  0  0  0  0  0  0  0  0  0
   -1.4396    3.5256    0.0000 C   0  0  0  0  0  0  0  0  0  0  0  0
   -0.4387    3.9925   -0.0025 H   0  0  0  0  0  0  0  0  0  0  0  0
   -1.9947    3.8746    0.8960 H   0  0  0  0  0  0  0  0  0  0  0  0
   -1.9993    3.8742   -0.8933 H   0  0  0  0  0  0  0  0  0  0  0  0
   -1.2894    2.0406   -0.0001 C   0  0  0  0  0  0  0  0  0  0  0  0
   -3.7643    1.5002    0.0001 C   0  0  0  0  0  0  0  0  0  0  0  0
   -4.0146    2.5696    0.0002 H   0  0  0  0  0  0  0  0  0  0  0  0
  1 11  1  0  0  0  0
  1  8  1  0  0  0  0
  3  7  1  0  0  0  0
  5 12  1  0  0  0  0
  5 13  1  0  0  0  0
  6  4  1  0  0  0  0
  6 11  2  0  0  0  0
  7  2  2  0  0  0  0
  8  7  1  0  0  0  0
  8 10  1  0  0  0  0
  9  8  1  0  0  0  0
 11  3  1  0  0  0  0
 12 24  1  0  0  0  0
 13 15  2  0  0  0  0
 14 13  1  0  0  0  0
 15 17  1  0  0  0  0
 15 16  1  0  0  0  0
 17 18  1  0  0  0  0
 19 21  1  0  0  0  0
 20 19  1  0  0  0  0
 22 19  1  0  0  0  0
 23  4  1  0  0  0  0
 23 12  2  0  0  0  0
 23 19  1  0  0  0  0
 24 17  2  0  0  0  0
 24 25  1  0  0  0  0
M  END
