1,2,3
q = -2.0, confidence = 0.94

 59 60  0  0  0  0  0  0  0  0999 V2000
    1.7078   -0.7616    0.3883 N   0  0  0  0  0  2  0  0  0  0  0  0
   -0.1711   -2.6591    1.0993 N   0  0  0  0  0  0  0  0  0  0  0  0
   -1.5338   -0.2956    0.7751 N   0  0  0  0  0  2  0  0  0  0  0  0
    2.6319    0.3215    0.2226 C   0  0  0  0  0  0  0  0  0  0  0  0
    3.3298    0.4408   -1.0098 C   0  0  0  0  0  0  0  0  0  0  0  0
    4.2077    1.5224   -1.1830 C   0  0  0  0  0  0  0  0  0  0  0  0
    4.7441    1.6162   -2.1414 H   0  0  0  0  0  0  0  0  0  0  0  0
    4.4211    2.4855   -0.1787 C   0  0  0  0  0  0  0  0  0  0  0  0
    3.7391    2.3257    1.0383 C   0  0  0  0  0  0  0  0  0  0  0  0
    3.8961    3.0614    1.8444 H   0  0  0  0  0  0  0  0  0  0  0  0
    2.8541    1.2551    1.2663 C   0  0  0  0  0  0  0  0  0  0  0  0
    3.1285   -0.5622   -2.1154 C   0  0  0  0  0  0  0  0  0  0  0  0
    2.1480   -0.4212   -2.6159 H   0  0  0  0  0  0  0  0  0  0  0  0
    3.1274   -1.6030   -1.7347 H   0  0  0  0  0  0  0  0  0  0  0  0
    3.9196   -0.4678   -2.8835 H   0  0  0  0  0  0  0  0  0  0  0  0
    5.3357    3.6605   -0.4178 C   0  0  0  0  0  0  0  0  0  0  0  0
    6.2690    3.3527   -0.9318 H   0  0  0  0  0  0  0  0  0  0  0  0
    5.6138    4.1633    0.5291 H   0  0  0  0  0  0  0  0  0  0  0  0
    4.8477    4.4197   -1.0661 H   0  0  0  0  0  0  0  0  0  0  0  0
    2.1815    1.1199    2.6096 C   0  0  0  0  0  0  0  0  0  0  0  0
    2.8035    0.5320    3.3192 H   0  0  0  0  0  0  0  0  0  0  0  0
    1.2014    0.6148    2.5210 H   0  0  0  0  0  0  0  0  0  0  0  0
    2.0134    2.1114    3.0732 H   0  0  0  0  0  0  0  0  0  0  0  0
    2.1637   -1.8322    1.2916 C   0  0  0  0  0  0  0  0  0  0  0  0
    2.2225   -1.4666    2.3424 H   0  0  0  0  0  0  0  0  0  0  0  0
    3.1991   -2.1363    1.0213 H   0  0  0  0  0  0  0  0  0  0  0  0
    1.2534   -3.0539    1.1911 C   0  0  0  0  0  0  0  0  0  0  0  0
    1.4731   -3.6054    0.2550 H   0  0  0  0  0  0  0  0  0  0  0  0
    1.4309   -3.7467    2.0481 H   0  0  0  0  0  0  0  0  0  0  0  0
   -1.0118   -3.8036    0.7107 C   0  0  0  0  0  0  0  0  0  0  0  0
   -0.7140   -4.1491   -0.2964 H   0  0  0  0  0  0  0  0  0  0  0  0
   -2.0687   -3.4836    0.6527 H   0  0  0  0  0  0  0  0  0  0  0  0
   -0.9233   -4.6324    1.4496 H   0  0  0  0  0  0  0  0  0  0  0  0
   -0.6960   -1.9973    2.3205 C   0  0  0  0  0  0  0  0  0  0  0  0
    0.1145   -1.3687    2.7385 H   0  0  0  0  0  0  0  0  0  0  0  0
   -0.9787   -2.7480    3.0942 H   0  0  0  0  0  0  0  0  0  0  0  0
   -1.8776   -1.1008    1.9581 C   0  0  0  0  0  0  0  0  0  0  0  0
   -2.8011   -1.7012    1.7809 H   0  0  0  0  0  0  0  0  0  0  0  0
   -2.1084   -0.4351    2.8193 H   0  0  0  0  0  0  0  0  0  0  0  0
   -2.4344    0.7788    0.4746 C   0  0  0  0  0  0  0  0  0  0  0  0
   -3.5973    0.5031   -0.2905 C   0  0  0  0  0  0  0  0  0  0  0  0
   -4.4768    1.5611   -0.5816 C   0  0  0  0  0  0  0  0  0  0  0  0
   -5.3798    1.3477   -1.1768 H   0  0  0  0  0  0  0  0  0  0  0  0
   -4.2315    2.8773   -0.1528 C   0  0  0  0  0  0  0  0  0  0  0  0
   -3.0622    3.1205    0.5906 C   0  0  0  0  0  0  0  0  0  0  0  0
   -2.8414    4.1460    0.9296 H   0  0  0  0  0  0  0  0  0  0  0  0
   -2.1558    2.0969    0.9134 C   0  0  0  0  0  0  0  0  0  0  0  0
   -3.8669   -0.8816   -0.8223 C   0  0  0  0  0  0  0  0  0  0  0  0
   -4.7932   -0.8994   -1.4270 H   0  0  0  0  0  0  0  0  0  0  0  0
   -3.9870   -1.6305   -0.0107 H   0  0  0  0  0  0  0  0  0  0  0  0
   -3.0325   -1.2403   -1.4619 H   0  0  0  0  0  0  0  0  0  0  0  0
   -5.1670    4.0037   -0.5151 C   0  0  0  0  0  0  0  0  0  0  0  0
   -4.8047    4.5485   -1.4137 H   0  0  0  0  0  0  0  0  0  0  0  0
   -5.2469    4.7480    0.3025 H   0  0  0  0  0  0  0  0  0  0  0  0
   -6.1851    3.6328   -0.7454 H   0  0  0  0  0  0  0  0  0  0  0  0
   -0.8904    2.3982    1.6672 C   0  0  0  0  0  0  0  0  0  0  0  0
   -0.0025    2.2244    1.0240 H   0  0  0  0  0  0  0  0  0  0  0  0
   -0.7713    1.7439    2.5544 H   0  0  0  0  0  0  0  0  0  0  0  0
   -0.8680    3.4501    2.0100 H   0  0  0  0  0  0  0  0  0  0  0  0
  1 24  1  0  0  0  0
  2 27  1  0  0  0  0
  2 34  1  0  0  0  0
  3 37  1  0  0  0  0
  4  1  1  0  0  0  0
  4 11  1  0  0  0  0
  5  4  2  0  0  0  0
  6  5  1  0  0  0  0
  6  8  2  0  0  0  0
  7  6  1  0  0  0  0
  8  9  1  0  0  0  0
  9 11  2  0  0  0  0
  9 10  1  0  0  0  0
 11 20  1  0  0  0  0
 12 14  1  0  0  0  0
 12  5  1  0  0  0  0
 13 12  1  0  0  0  0
 15 12  1  0  0  0  0
 16  8  1  0  0  0  0
 16 18  1  0  0  0  0
 17 16  1  0  0  0  0
 19 16  1  0  0  0  0
 20 23  1  0  0  0  0
 20 21  1  0  0  0  0
 22 20  1  0  0  0  0
 24 25  1  0  0  0  0
 26 24  1  0  0  0  0
 27 24  1  0  0  0  0
 27 29  1  0  0  0  0
 28 27  1  0  0  0  0
 30  2  1  0  0  0  0
 30 33  1  0  0  0  0
 31 30  1  0  0  0  0
 32 30  1  0  0  0  0
 34 35  1  0  0  0  0
 34 36  1  0  0  0  0
 37 34  1  0  0  0  0
 37 39  1  0  0  0  0
 38 37  1  0  0  0  0
 40  3  1  0  0  0  0
 40 47  1  0  0  0  0
 41 40  2  0  0  0  0
 42 41  1  0  0  0  0
 42 44  2  0  0  0  0
 43 42  1  0  0  0  0
 44 45  1  0  0  0  0
 45 47  2  0  0  0  0
 45 46  1  0  0  0  0
 47 56  1  0  0  0  0
 48 41  1  0  0  0  0
 48 50  1  0  0  0  0
 49 48  1  0  0  0  0
 51 48  1  0  0  0  0
 52 44  1  0  0  0  0
 52 54  1  0  0  0  0
 53 52  1  0  0  0  0
 55 52  1  0  0  0  0
 56 59  1  0  0  0  0
 56 58  1  0  0  0  0
 57 56  1  0  0  0  0
M  END
