51,53,55
q = -1.0, confidence = 0.0

 56 61  0  0  1  0  0  0  0  0999 V2000
    0.7664   -1.5651   -2.9351 C   0  0  1  0  0  3  0  0  0  0  0  0
    1.8579   -0.5729   -2.9488 C   0  0  0  0  0  0  0  0  0  0  0  0
    3.2010   -0.9747   -2.7818 C   0  0  0  0  0  0  0  0  0  0  0  0
    3.4344   -2.0451   -2.6769 H   0  0  0  0  0  0  0  0  0  0  0  0
    4.2240   -0.0184   -2.7188 C   0  0  0  0  0  0  0  0  0  0  0  0
    5.2662   -0.3426   -2.5787 H   0  0  0  0  0  0  0  0  0  0  0  0
    3.9222    1.3491   -2.8345 C   0  0  0  0  0  0  0  0  0  0  0  0
    4.7273    2.0975   -2.7881 H   0  0  0  0  0  0  0  0  0  0  0  0
    2.5925    1.7551   -3.0299 C   0  0  0  0  0  0  0  0  0  0  0  0
    2.3529    2.8229   -3.1472 H   0  0  0  0  0  0  0  0  0  0  0  0
    1.5667    0.8012   -3.0870 C   0  0  0  0  0  0  0  0  0  0  0  0
    0.5250    1.1127   -3.2535 H   0  0  0  0  0  0  0  0  0  0  0  0
    0.5895   -2.7550   -3.6808 C   0  0  0  0  0  0  0  0  0  0  0  0
    1.2444   -3.1499   -4.4633 H   0  0  0  0  0  0  0  0  0  0  0  0
   -0.6300   -3.2784   -3.2423 C   0  0  0  0  0  0  0  0  0  0  0  0
   -1.1791   -4.1762   -3.5464 H   0  0  0  0  0  0  0  0  0  0  0  0
   -3.6702    0.6595   -0.4723 C   0  0  2  0  0  3  0  0  0  0  0  0
   -3.5045    1.9145    0.2789 C   0  0  0  0  0  0  0  0  0  0  0  0
   -4.0855    3.1185   -0.1773 C   0  0  0  0  0  0  0  0  0  0  0  0
   -4.6797    3.1153   -1.1038 H   0  0  0  0  0  0  0  0  0  0  0  0
   -3.8835    4.3144    0.5268 C   0  0  0  0  0  0  0  0  0  0  0  0
   -4.3377    5.2470    0.1593 H   0  0  0  0  0  0  0  0  0  0  0  0
   -3.1067    4.3247    1.6978 C   0  0  0  0  0  0  0  0  0  0  0  0
   -2.9532    5.2641    2.2496 H   0  0  0  0  0  0  0  0  0  0  0  0
   -2.5490    3.1268    2.1749 C   0  0  0  0  0  0  0  0  0  0  0  0
   -1.9665    3.1220    3.1089 H   0  0  0  0  0  0  0  0  0  0  0  0
   -2.7514    1.9307    1.4746 C   0  0  0  0  0  0  0  0  0  0  0  0
   -2.3467    0.9840    1.8620 H   0  0  0  0  0  0  0  0  0  0  0  0
   -4.8391    0.1373   -1.0796 C   0  0  0  0  0  0  0  0  0  0  0  0
   -5.8288    0.6017   -1.1207 H   0  0  0  0  0  0  0  0  0  0  0  0
   -4.4710   -1.1263   -1.5372 C   0  0  0  0  0  0  0  0  0  0  0  0
   -5.0532   -1.9102   -2.0334 H   0  0  0  0  0  0  0  0  0  0  0  0
   -0.7695   -2.6607    1.9732 C   0  0  2  0  0  3  0  0  0  0  0  0
    0.0665   -1.9686    2.9668 C   0  0  0  0  0  0  0  0  0  0  0  0
    0.0976   -0.5582    3.0422 C   0  0  0  0  0  0  0  0  0  0  0  0
   -0.5589    0.0325    2.3864 H   0  0  0  0  0  0  0  0  0  0  0  0
    0.9477    0.0951    3.9426 C   0  0  0  0  0  0  0  0  0  0  0  0
    0.9587    1.1951    3.9837 H   0  0  0  0  0  0  0  0  0  0  0  0
    1.7715   -0.6512    4.8016 C   0  0  0  0  0  0  0  0  0  0  0  0
    2.4354   -0.1400    5.5144 H   0  0  0  0  0  0  0  0  0  0  0  0
    1.7307   -2.0542    4.7561 C   0  0  0  0  0  0  0  0  0  0  0  0
    2.3661   -2.6459    5.4319 H   0  0  0  0  0  0  0  0  0  0  0  0
    0.8872   -2.7080    3.8473 C   0  0  0  0  0  0  0  0  0  0  0  0
    0.8792   -3.8073    3.7993 H   0  0  0  0  0  0  0  0  0  0  0  0
   -1.3945   -3.9314    2.0556 C   0  0  0  0  0  0  0  0  0  0  0  0
   -1.3941   -4.6192    2.9064 H   0  0  0  0  0  0  0  0  0  0  0  0
   -2.0562   -4.0892    0.8382 C   0  0  0  0  0  0  0  0  0  0  0  0
   -2.6823   -4.9041    0.4592 H   0  0  0  0  0  0  0  0  0  0  0  0
   -2.3480   -2.6414   -1.3466 B   0  0  2  0  0  0  0  0  0  0  0  0
   -3.0544   -3.5438   -1.7570 H   0  0  0  0  0  0  0  0  0  0  0  0
   -0.2900   -1.4054   -2.1019 N   0  0  0  0  0  2  0  0  0  0  0  0
   -1.1332   -2.4493   -2.2930 N   0  0  0  0  0  0  0  0  0  0  0  0
   -2.6556   -0.2319   -0.6024 N   0  0  0  0  0  2  0  0  0  0  0  0
   -3.1604   -1.3242   -1.2389 N   0  0  0  0  0  0  0  0  0  0  0  0
   -1.0396   -2.1127    0.7623 N   0  0  0  0  0  2  0  0  0  0  0  0
   -1.8258   -2.9851    0.0815 N   0  0  0  0  0  0  0  0  0  0  0  0
  1  2  1  1  0  0  0
  1 51  1  0  0  0  0
  2  3  1  0  0  0  0
  3  5  2  0  0  0  0
  3  4  1  0  0  0  0
  5  6  1  0  0  0  0
  7  8  1  0  0  0  0
  7  5  1  0  0  0  0
  9  7  2  0  0  0  0
 10  9  1  0  0  0  0
 11  9  1  0  0  0  0
 11  2  2  0  0  0  0
 12 11  1  0  0  0  0
 13 15  2  0  0  0  0
 13  1  1  0  0  0  0
 14 13  1  0  0  0  0
 15 52  1  0  0  0  0
 16 15  1  0  0  0  0
 17 18  1  1  0  0  0
 18 27  1  0  0  0  0
 19 18  2  0  0  0  0
 19 21  1  0  0  0  0
 20 19  1  0  0  0  0
 21 23  2  0  0  0  0
 22 21  1  0  0  0  0
 23 25  1  0  0  0  0
 23 24  1  0  0  0  0
 25 26  1  0  0  0  0
 27 28  1  0  0  0  0
 27 25  2  0  0  0  0
 29 17  1  0  0  0  0
 30 29  1  0  0  0  0
 31 54  1  0  0  0  0
 31 29  2  0  0  0  0
 32 31  1  0  0  0  0
 33 45  1  0  0  0  0
 33 34  1  6  0  0  0
 34 35  2  0  0  0  0
 34 43  1  0  0  0  0
 35 37  1  0  0  0  0
 36 35  1  0  0  0  0
 37 38  1  0  0  0  0
 37 39  2  0  0  0  0
 39 40  1  0  0  0  0
 41 39  1  0  0  0  0
 41 42  1  0  0  0  0
 43 41  2  0  0  0  0
 44 43  1  0  0  0  0
 45 46  1  0  0  0  0
 47 45  2  0  0  0  0
 48 47  1  0  0  0  0
 49 50  1  6  0  0  0
 49 54  1  0  0  0  0
 49 56  1  0  0  0  0
 52 51  1  0  0  0  0
 52 49  1  0  0  0  0
 53 17  1  0  0  0  0
 54 53  1  0  0  0  0
 55 33  1  0  0  0  0
 56 55  1  0  0  0  0
 56 47  1  0  0  0  0
M  END
