2,3,4
q = 0.0, confidence = 1.0

 36 37  0  0  0  0  0  0  0  0999 V2000
    4.4296    0.0139    0.6599 O   0  0  0  0  0  0  0  0  0  0  0  0
   -2.1337    0.5508   -0.0244 N   0  0  0  0  0  2  0  0  0  0  0  0
   -0.7283   -1.4327   -1.0153 N   0  0  0  0  0  2  0  0  0  0  0  0
    2.0700   -0.8012   -0.7974 N   0  0  0  0  0  0  0  0  0  0  0  0
   -2.8297   -0.5304   -0.4280 C   0  0  0  0  0  0  0  0  0  0  0  0
   -4.2335   -0.5757   -0.3341 C   0  0  0  0  0  0  0  0  0  0  0  0
   -4.7958   -1.4605   -0.6620 H   0  0  0  0  0  0  0  0  0  0  0  0
   -4.9074    0.5379    0.1894 C   0  0  0  0  0  0  0  0  0  0  0  0
   -6.0042    0.5294    0.2767 H   0  0  0  0  0  0  0  0  0  0  0  0
   -4.1675    1.6566    0.5951 C   0  0  0  0  0  0  0  0  0  0  0  0
   -4.6599    2.5487    1.0079 H   0  0  0  0  0  0  0  0  0  0  0  0
   -2.7688    1.6179    0.4659 C   0  0  0  0  0  0  0  0  0  0  0  0
   -2.1227    2.4652    0.7520 H   0  0  0  0  0  0  0  0  0  0  0  0
   -2.0003   -1.6516   -0.9653 C   0  0  0  0  0  0  0  0  0  0  0  0
   -2.6795   -2.9318   -1.3615 C   0  0  0  0  0  0  0  0  0  0  0  0
   -1.9808   -3.6575   -1.8124 H   0  0  0  0  0  0  0  0  0  0  0  0
   -3.5016   -2.7423   -2.0803 H   0  0  0  0  0  0  0  0  0  0  0  0
   -3.1339   -3.4059   -0.4663 H   0  0  0  0  0  0  0  0  0  0  0  0
    0.2597   -2.3780   -1.4810 C   0  0  0  0  0  0  0  0  0  0  0  0
   -0.0939   -2.9896   -2.3397 H   0  0  0  0  0  0  0  0  0  0  0  0
    0.4931   -3.0873   -0.6557 H   0  0  0  0  0  0  0  0  0  0  0  0
    1.5137   -1.6057   -1.8921 C   0  0  0  0  0  0  0  0  0  0  0  0
    2.2763   -2.3169   -2.2945 H   0  0  0  0  0  0  0  0  0  0  0  0
    1.2433   -0.9083   -2.7124 H   0  0  0  0  0  0  0  0  0  0  0  0
    3.0614    0.1550   -1.3438 C   0  0  0  0  0  0  0  0  0  0  0  0
    2.5233    0.8786   -1.9893 H   0  0  0  0  0  0  0  0  0  0  0  0
    3.8139   -0.4004   -1.9562 H   0  0  0  0  0  0  0  0  0  0  0  0
    3.7803    0.9066   -0.2301 C   0  0  0  0  0  0  0  0  0  0  0  0
    4.5562    1.5649   -0.6691 H   0  0  0  0  0  0  0  0  0  0  0  0
    3.0423    1.5483    0.3081 H   0  0  0  0  0  0  0  0  0  0  0  0
    3.4571   -0.8181    1.2672 C   0  0  0  0  0  0  0  0  0  0  0  0
    2.7213   -0.2183    1.8532 H   0  0  0  0  0  0  0  0  0  0  0  0
    3.9862   -1.4949    1.9673 H   0  0  0  0  0  0  0  0  0  0  0  0
    2.6984   -1.6543    0.2378 C   0  0  0  0  0  0  0  0  0  0  0  0
    3.4026   -2.3718   -0.2525 H   0  0  0  0  0  0  0  0  0  0  0  0
    1.9078   -2.2212    0.7700 H   0  0  0  0  0  0  0  0  0  0  0  0
  1 31  1  0  0  0  0
  2 12  1  0  0  0  0
  3 14  1  0  0  0  0
  4 34  1  0  0  0  0
  5  6  1  0  0  0  0
  5  2  1  0  0  0  0
  6  8  2  0  0  0  0
  7  6  1  0  0  0  0
  8  9  1  0  0  0  0
  8 10  1  0  0  0  0
 10 11  1  0  0  0  0
 12 10  2  0  0  0  0
 12 13  1  0  0  0  0
 14  5  2  0  0  0  0
 15 14  1  0  0  0  0
 15 18  1  0  0  0  0
 16 15  1  0  0  0  0
 17 15  1  0  0  0  0
 19  3  1  0  0  0  0
 19 21  1  0  0  0  0
 20 19  1  0  0  0  0
 22 19  1  0  0  0  0
 22  4  1  0  0  0  0
 23 22  1  0  0  0  0
 24 22  1  0  0  0  0
 25  4  1  0  0  0  0
 25 28  1  0  0  0  0
 26 25  1  0  0  0  0
 27 25  1  0  0  0  0
 28 30  1  0  0  0  0
 28  1  1  0  0  0  0
 29 28  1  0  0  0  0
 31 32  1  0  0  0  0
 31 33  1  0  0  0  0
 34 36  1  0  0  0  0
 34 31  1  0  0  0  0
 35 34  1  0  0  0  0
M  END
