2,3,4
q = -1.0, confidence = 0.002

 37 38  0  0  0  0  0  0  0  0999 V2000
   -0.4213    3.4476   -0.2370 O   0  0  0  0  0  0  0  0  0  0  0  0
    0.0732    1.1701   -0.1672 N   0  0  0  0  0  2  0  0  0  0  0  0
    1.1275   -1.1269   -0.0197 N   0  0  0  0  0  2  0  0  0  0  0  0
   -2.4140    0.3944    0.0035 N   0  0  0  0  0  0  0  0  0  0  0  0
    1.4585    1.2201   -0.1201 C   0  0  0  0  0  0  0  0  0  0  0  0
    2.3131    2.3323   -0.1448 C   0  0  0  0  0  0  0  0  0  0  0  0
    1.8760    3.3365   -0.1915 H   0  0  0  0  0  0  0  0  0  0  0  0
    3.7161    2.1288   -0.1109 C   0  0  0  0  0  0  0  0  0  0  0  0
    4.3716    3.0131   -0.1307 H   0  0  0  0  0  0  0  0  0  0  0  0
    4.2870    0.8602   -0.0568 C   0  0  0  0  0  3  0  0  0  0  0  0
    5.3789    0.7292   -0.0352 H   0  0  0  0  0  0  0  0  0  0  0  0
    3.4467   -0.2902   -0.0288 C   0  0  0  0  0  0  0  0  0  0  0  0
    3.8989   -1.6392    0.0182 C   0  0  0  0  0  0  0  0  0  0  0  0
    4.9796   -1.8487    0.0366 H   0  0  0  0  0  0  0  0  0  0  0  0
    2.9703   -2.6724    0.0375 C   0  0  0  0  0  0  0  0  0  0  0  0
    3.2900   -3.7236    0.0707 H   0  0  0  0  0  0  0  0  0  0  0  0
    1.5856   -2.3854    0.0193 C   0  0  0  0  0  0  0  0  0  0  0  0
    0.8128   -3.1687    0.0508 H   0  0  0  0  0  0  0  0  0  0  0  0
    2.0330   -0.0860   -0.0527 C   0  0  0  0  0  0  0  0  0  0  0  0
   -0.7516    2.2613   -0.2402 C   0  0  0  0  0  0  0  0  0  0  0  0
   -2.2004    1.8097   -0.4151 C   0  0  0  0  0  0  0  0  0  0  0  0
   -2.8881    2.4952    0.1227 H   0  0  0  0  0  0  0  0  0  0  0  0
   -2.4321    1.9040   -1.4948 H   0  0  0  0  0  0  0  0  0  0  0  0
   -3.4035   -0.2727   -0.9021 C   0  0  0  0  0  0  0  0  0  0  0  0
   -4.3070    0.3776   -0.9554 H   0  0  0  0  0  0  0  0  0  0  0  0
   -3.6833   -1.2227   -0.4100 H   0  0  0  0  0  0  0  0  0  0  0  0
   -2.8495   -0.5797   -2.2848 C   0  0  0  0  0  0  0  0  0  0  0  0
   -2.4514    0.3157   -2.8035 H   0  0  0  0  0  0  0  0  0  0  0  0
   -3.6544   -1.0002   -2.9201 H   0  0  0  0  0  0  0  0  0  0  0  0
   -2.0427   -1.3348   -2.2036 H   0  0  0  0  0  0  0  0  0  0  0  0
   -2.9137    0.3288    1.4140 C   0  0  0  0  0  0  0  0  0  0  0  0
   -3.0613   -0.7474    1.6305 H   0  0  0  0  0  0  0  0  0  0  0  0
   -3.9084    0.8328    1.4435 H   0  0  0  0  0  0  0  0  0  0  0  0
   -1.9747    0.9432    2.4419 C   0  0  0  0  0  0  0  0  0  0  0  0
   -0.9997    0.4168    2.4544 H   0  0  0  0  0  0  0  0  0  0  0  0
   -2.4307    0.8491    3.4473 H   0  0  0  0  0  0  0  0  0  0  0  0
   -1.7808    2.0194    2.2630 H   0  0  0  0  0  0  0  0  0  0  0  0
  2  5  1  0  0  0  0
  3 17  1  0  0  0  0
  4 31  1  0  0  0  0
  5 19  2  0  0  0  0
  6  5  1  0  0  0  0
  6  8  2  0  0  0  0
  7  6  1  0  0  0  0
  8 10  1  0  0  0  0
  9  8  1  0  0  0  0
 10 11  1  0  0  0  0
 10 12  1  0  0  0  0
 12 13  2  0  0  0  0
 13 14  1  0  0  0  0
 13 15  1  0  0  0  0
 15 16  1  0  0  0  0
 17 15  2  0  0  0  0
 17 18  1  0  0  0  0
 19 12  1  0  0  0  0
 19  3  1  0  0  0  0
 20  1  2  0  0  0  0
 20  2  1  0  0  0  0
 21 20  1  0  0  0  0
 21  4  1  0  0  0  0
 21 22  1  0  0  0  0
 23 21  1  0  0  0  0
 24 26  1  0  0  0  0
 24  4  1  0  0  0  0
 25 24  1  0  0  0  0
 27 30  1  0  0  0  0
 27 24  1  0  0  0  0
 28 27  1  0  0  0  0
 29 27  1  0  0  0  0
 31 33  1  0  0  0  0
 31 32  1  0  0  0  0
 31 34  1  0  0  0  0
 34 35  1  0  0  0  0
 34 36  1  0  0  0  0
 37 34  1  0  0  0  0
M  END
