2,3,4
q = -1.0

 28 29  0  0  1  0  0  0  0  0999 V2000
   -1.1234    3.3931   -0.1138 O   0  0  0  0  0  0  0  0  0  0  0  0
    1.2904   -0.9202   -0.0126 N   0  0  0  0  0  2  0  0  0  0  0  0
   -0.2438    1.2677   -0.0460 N   0  0  0  0  0  2  0  0  0  0  0  0
   -2.6794    0.0785    0.0596 N   0  0  0  0  0  0  0  0  0  0  0  0
   -3.3097   -0.4923   -0.5271 H   0  0  0  0  0  0  0  0  0  0  0  0
   -3.0168   -0.0264    1.0325 H   0  0  0  0  0  0  0  0  0  0  0  0
    1.9631   -2.0765   -0.0130 C   0  0  0  0  0  0  0  0  0  0  0  0
    1.3563   -2.9954   -0.0283 H   0  0  0  0  0  0  0  0  0  0  0  0
    3.3739   -2.0820    0.0089 C   0  0  0  0  0  0  0  0  0  0  0  0
    3.8994   -3.0468    0.0090 H   0  0  0  0  0  0  0  0  0  0  0  0
    4.0661   -0.8761    0.0310 C   0  0  0  0  0  0  0  0  0  0  0  0
    5.1668   -0.8672    0.0491 H   0  0  0  0  0  0  0  0  0  0  0  0
    3.3649    0.3616    0.0301 C   0  0  0  0  0  0  0  0  0  0  0  0
    3.9873    1.6422    0.0512 C   0  0  0  0  0  0  0  0  0  0  0  0
    5.0848    1.7038    0.0721 H   0  0  0  0  0  0  0  0  0  0  0  0
    3.2047    2.7898    0.0470 C   0  0  0  0  0  0  0  0  0  0  0  0
    3.6879    3.7778    0.0640 H   0  0  0  0  0  0  0  0  0  0  0  0
    1.7872    2.7363    0.0218 C   0  0  0  0  0  0  0  0  0  0  0  0
    1.1846    3.6526    0.0164 H   0  0  0  0  0  0  0  0  0  0  0  0
    1.1397    1.4959   -0.0004 C   0  0  0  0  0  0  0  0  0  0  0  0
    1.9337    0.3072    0.0067 C   0  0  1  0  0  3  0  0  0  0  0  0
   -1.2722    2.1805   -0.1312 C   0  0  0  0  0  0  0  0  0  0  0  0
   -2.6720    1.5332   -0.3413 C   0  0  2  0  0  0  0  0  0  0  0  0
   -2.8293    1.5445   -1.4417 H   0  0  0  0  0  0  0  0  0  0  0  0
   -3.7680    2.3244    0.3523 C   0  0  0  0  0  0  0  0  0  0  0  0
   -4.7785    1.9863    0.0527 H   0  0  0  0  0  0  0  0  0  0  0  0
   -3.6507    3.3886    0.0673 H   0  0  0  0  0  0  0  0  0  0  0  0
   -3.6703    2.2669    1.4561 H   0  0  0  0  0  0  0  0  0  0  0  0
  3 20  1  0  0  0  0
  4  6  1  0  0  0  0
  5  4  1  0  0  0  0
  7  2  1  0  0  0  0
  7  9  2  0  0  0  0
  8  7  1  0  0  0  0
  9 10  1  0  0  0  0
  9 11  1  0  0  0  0
 11 12  1  0  0  0  0
 13 11  2  0  0  0  0
 13 14  1  0  0  0  0
 14 15  1  0  0  0  0
 16 14  2  0  0  0  0
 16 17  1  0  0  0  0
 18 16  1  0  0  0  0
 19 18  1  0  0  0  0
 20 21  1  0  0  0  0
 20 18  2  0  0  0  0
 21  2  1  6  0  0  0
 21 13  1  0  0  0  0
 22  1  2  0  0  0  0
 22  3  1  0  0  0  0
 23 24  1  6  0  0  0
 23 22  1  0  0  0  0
 23  4  1  0  0  0  0
 23 25  1  0  0  0  0
 25 28  1  0  0  0  0
 26 25  1  0  0  0  0
 27 25  1  0  0  0  0
M  END
