1,5,7
q = -1.0

 45 45  0  0  1  0  0  0  0  0999 V2000
    0.8518    2.5373   -1.6205 N   0  0  0  0  0  0  0  0  0  0  0  0
   -0.2497    3.5385   -1.6977 C   0  0  0  0  0  0  0  0  0  0  0  0
   -1.5598    3.0749   -2.3402 C   0  0  0  0  0  0  0  0  0  0  0  0
   -2.3338    2.0399   -1.5213 C   0  0  0  0  0  0  0  0  0  0  0  0
   -1.4767    0.9256   -1.2143 N   0  0  0  0  0  2  0  0  0  0  0  0
   -1.8596   -0.2280   -0.6625 C   0  0  1  0  0  3  0  0  0  0  0  0
   -0.8446   -0.9570   -0.1834 N   0  0  0  0  0  2  0  0  0  0  0  0
    2.0478    3.1949   -1.0570 C   0  0  0  0  0  0  0  0  0  0  0  0
    1.1705    1.9635   -2.9417 C   0  0  0  0  0  0  0  0  0  0  0  0
   -3.2941   -0.6382   -0.5309 C   0  0  0  0  0  0  0  0  0  0  0  0
   -4.1589    0.0576    0.3378 C   0  0  0  0  0  0  0  0  0  0  0  0
   -5.4837   -0.3700    0.5063 C   0  0  0  0  0  0  0  0  0  0  0  0
   -5.9608   -1.4852   -0.2018 C   0  0  0  0  0  0  0  0  0  0  0  0
   -5.1078   -2.1721   -1.0806 C   0  0  0  0  0  0  0  0  0  0  0  0
   -3.7788   -1.7534   -1.2428 C   0  0  0  0  0  0  0  0  0  0  0  0
   -0.8091   -2.3937    0.8550 Si  0  0  0  0  0  0  0  0  0  0  0  0
    0.9035   -2.4227    1.6372 C   0  0  0  0  0  0  0  0  0  0  0  0
   -1.0557   -3.9638   -0.1743 C   0  0  0  0  0  0  0  0  0  0  0  0
   -2.1334   -2.3029    2.2061 C   0  0  0  0  0  0  0  0  0  0  0  0
    0.1345    4.4210   -2.2653 H   0  0  0  0  0  0  0  0  0  0  0  0
   -0.4402    3.8717   -0.6562 H   0  0  0  0  0  0  0  0  0  0  0  0
   -1.3712    2.6869   -3.3630 H   0  0  0  0  0  0  0  0  0  0  0  0
   -2.1922    3.9776   -2.4712 H   0  0  0  0  0  0  0  0  0  0  0  0
   -3.2486    1.7224   -2.0730 H   0  0  0  0  0  0  0  0  0  0  0  0
   -2.6905    2.5342   -0.5841 H   0  0  0  0  0  0  0  0  0  0  0  0
    2.8548    2.4479   -0.9475 H   0  0  0  0  0  0  0  0  0  0  0  0
    2.3942    4.0239   -1.7183 H   0  0  0  0  0  0  0  0  0  0  0  0
    1.8057    3.5946   -0.0559 H   0  0  0  0  0  0  0  0  0  0  0  0
    2.0591    1.3140   -2.8401 H   0  0  0  0  0  0  0  0  0  0  0  0
    1.3771    2.7619   -3.6923 H   0  0  0  0  0  0  0  0  0  0  0  0
    0.3271    1.3409   -3.2953 H   0  0  0  0  0  0  0  0  0  0  0  0
   -3.7790    0.9205    0.9050 H   0  0  0  0  0  0  0  0  0  0  0  0
   -6.1478    0.1689    1.1991 H   0  0  0  0  0  0  0  0  0  0  0  0
   -7.0010   -1.8191   -0.0691 H   0  0  0  0  0  0  0  0  0  0  0  0
   -5.4793   -3.0426   -1.6425 H   0  0  0  0  0  0  0  0  0  0  0  0
   -3.1047   -2.2912   -1.9259 H   0  0  0  0  0  0  0  0  0  0  0  0
    0.9692   -3.2275    2.3981 H   0  0  0  0  0  0  0  0  0  0  0  0
    1.6973   -2.5987    0.8840 H   0  0  0  0  0  0  0  0  0  0  0  0
    1.1236   -1.4575    2.1361 H   0  0  0  0  0  0  0  0  0  0  0  0
   -0.8668   -4.8637    0.4477 H   0  0  0  0  0  0  0  0  0  0  0  0
   -0.3479   -3.9877   -1.0280 H   0  0  0  0  0  0  0  0  0  0  0  0
   -2.0870   -4.0382   -0.5732 H   0  0  0  0  0  0  0  0  0  0  0  0
   -2.0010   -3.1371    2.9264 H   0  0  0  0  0  0  0  0  0  0  0  0
   -3.1583   -2.3677    1.7897 H   0  0  0  0  0  0  0  0  0  0  0  0
   -2.0534   -1.3506    2.7699 H   0  0  0  0  0  0  0  0  0  0  0  0
  1  8  1  0  0  0  0
  2  1  1  0  0  0  0
  2 21  1  0  0  0  0
  3  2  1  0  0  0  0
  3  4  1  0  0  0  0
  4  5  1  0  0  0  0
  4 25  1  0  0  0  0
  6  5  1  1  0  0  0
  6 10  1  0  0  0  0
  6  7  1  0  0  0  0
  7 16  1  0  0  0  0
  8 26  1  0  0  0  0
  8 28  1  0  0  0  0
  9 29  1  0  0  0  0
  9  1  1  0  0  0  0
 10 11  1  0  0  0  0
 11 12  2  0  0  0  0
 11 32  1  0  0  0  0
 12 33  1  0  0  0  0
 13 34  1  0  0  0  0
 13 12  1  0  0  0  0
 14 13  2  0  0  0  0
 15 14  1  0  0  0  0
 15 10  2  0  0  0  0
 16 17  1  0  0  0  0
 16 19  1  0  0  0  0
 17 39  1  0  0  0  0
 17 37  1  0  0  0  0
 18 40  1  0  0  0  0
 18 16  1  0  0  0  0
 19 45  1  0  0  0  0
 19 43  1  0  0  0  0
 20  2  1  0  0  0  0
 22  3  1  0  0  0  0
 23  3  1  0  0  0  0
 24  4  1  0  0  0  0
 27  8  1  0  0  0  0
 30  9  1  0  0  0  0
 31  9  1  0  0  0  0
 35 14  1  0  0  0  0
 36 15  1  0  0  0  0
 38 17  1  0  0  0  0
 41 18  1  0  0  0  0
 42 18  1  0  0  0  0
 44 19  1  0  0  0  0
M  END
