49,50,51
q = 0.0, confidence = 0.988

 57 61  0  0  1  0  0  0  0  0999 V2000
    6.6580   -2.3178    0.3201 C   0  0  0  0  0  0  0  0  0  0  0  0
    7.5100   -1.8450    0.8663 H   0  0  0  0  0  0  0  0  0  0  0  0
    6.3270   -3.1810    0.9381 H   0  0  0  0  0  0  0  0  0  0  0  0
    5.5413   -1.3056    0.1989 C   0  0  0  0  0  0  0  0  0  0  0  0
    5.6813   -0.0283    0.7309 C   0  0  0  0  0  0  0  0  0  0  0  0
    6.6275    0.2398    1.2279 H   0  0  0  0  0  0  0  0  0  0  0  0
    4.6584    0.9514    0.6541 C   0  0  0  0  0  0  0  0  0  0  0  0
    4.8377    1.9497    1.0744 H   0  0  0  0  0  0  0  0  0  0  0  0
    3.4510    0.6466    0.0373 C   0  0  0  0  0  0  0  0  0  0  0  0
    3.2264   -0.6849   -0.4636 C   0  0  1  0  0  3  0  0  0  0  0  0
    4.2927   -1.6462   -0.4277 C   0  0  0  0  0  0  0  0  0  0  0  0
    4.0261   -2.9144   -1.0244 C   0  0  0  0  0  0  0  0  0  0  0  0
    4.8350   -3.6567   -1.0758 H   0  0  0  0  0  0  0  0  0  0  0  0
    2.7757   -3.1726   -1.5675 C   0  0  0  0  0  0  0  0  0  0  0  0
    2.5526   -4.1383   -2.0441 H   0  0  0  0  0  0  0  0  0  0  0  0
    1.7694   -2.1771   -1.4852 C   0  0  0  0  0  0  0  0  0  0  0  0
    0.7473   -2.3387   -1.8721 H   0  0  0  0  0  0  0  0  0  0  0  0
    2.3281    2.6735    0.6385 C   0  0  0  0  0  0  0  0  0  0  0  0
    3.2173    3.3340    0.5445 H   0  0  0  0  0  0  0  0  0  0  0  0
    2.2211    2.3231    1.6945 H   0  0  0  0  0  0  0  0  0  0  0  0
    1.0914    3.4380    0.2287 C   0  0  2  0  0  3  0  0  0  0  0  0
    1.1107    4.8430    0.1773 C   0  0  0  0  0  0  0  0  0  0  0  0
    2.0419    5.3876    0.3922 H   0  0  0  0  0  0  0  0  0  0  0  0
   -0.0662    5.5249   -0.1521 C   0  0  0  0  0  0  0  0  0  0  0  0
   -0.0831    6.6243   -0.1937 H   0  0  0  0  0  0  0  0  0  0  0  0
   -1.2214    4.7844   -0.4271 C   0  0  0  0  0  0  0  0  0  0  0  0
   -2.1687    5.2823   -0.6808 H   0  0  0  0  0  0  0  0  0  0  0  0
   -1.1594    3.3806   -0.3717 C   0  0  0  0  0  0  0  0  0  0  0  0
   -2.3722    2.5496   -0.7181 C   0  0  0  0  0  0  0  0  0  0  0  0
   -3.2805    3.1890   -0.6741 H   0  0  0  0  0  0  0  0  0  0  0  0
   -2.2546    2.1221   -1.7443 H   0  0  0  0  0  0  0  0  0  0  0  0
   -3.4368    0.5446    0.0400 C   0  0  0  0  0  0  0  0  0  0  0  0
   -4.6547    0.7681   -0.5891 C   0  0  0  0  0  0  0  0  0  0  0  0
   -4.8667    1.7301   -1.0746 H   0  0  0  0  0  0  0  0  0  0  0  0
   -5.6508   -0.2417   -0.5922 C   0  0  0  0  0  0  0  0  0  0  0  0
   -6.6176   -0.0442   -1.0785 H   0  0  0  0  0  0  0  0  0  0  0  0
   -5.4660   -1.4751    0.0196 C   0  0  1  0  0  3  0  0  0  0  0  0
   -4.2092   -1.7373    0.6609 C   0  0  0  0  0  0  0  0  0  0  0  0
   -3.1721   -0.7406    0.6309 C   0  0  0  0  0  0  0  0  0  0  0  0
   -3.8959   -2.9503    1.3420 C   0  0  0  0  0  0  0  0  0  0  0  0
   -4.6501   -3.7473    1.4177 H   0  0  0  0  0  0  0  0  0  0  0  0
   -2.6436   -3.1276    1.9130 C   0  0  0  0  0  0  0  0  0  0  0  0
   -2.3906   -4.0517    2.4529 H   0  0  0  0  0  0  0  0  0  0  0  0
   -1.6717   -2.1065    1.7642 C   0  0  0  0  0  0  0  0  0  0  0  0
   -0.6468   -2.2054    2.1644 H   0  0  0  0  0  0  0  0  0  0  0  0
   -6.5833   -2.5041    0.0140 C   0  0  0  0  0  0  0  0  0  0  0  0
   -6.1534   -3.5222   -0.1552 H   0  0  0  0  0  0  0  0  0  0  0  0
   -7.0635   -2.5413    1.0174 H   0  0  0  0  0  0  0  0  0  0  0  0
    1.9908   -0.9850   -0.9445 N   0  0  0  0  0  2  0  0  0  0  0  0
   -0.0235    2.7331   -0.0461 N   0  0  0  0  0  2  0  0  0  0  0  0
   -1.9302   -0.9673    1.1340 N   0  0  0  0  0  2  0  0  0  0  0  0
    7.0711   -2.8827   -0.9197 O   0  0  0  0  0  0  0  0  0  0  0  0
    7.2107   -2.1392   -1.5358 H   0  0  0  0  0  0  0  0  0  0  0  0
    2.4438    1.5263   -0.1915 O   0  0  0  0  0  0  0  0  0  0  0  0
   -2.4530    1.4682    0.1988 O   0  0  0  0  0  0  0  0  0  0  0  0
   -7.6216   -2.2208   -0.9016 O   0  0  0  0  0  0  0  0  0  0  0  0
   -7.2206   -2.2254   -1.7915 H   0  0  0  0  0  0  0  0  0  0  0  0
  1  2  1  0  0  0  0
  1  3  1  0  0  0  0
  4  1  1  0  0  0  0
  4  5  2  0  0  0  0
  5  6  1  0  0  0  0
  7  5  1  0  0  0  0
  7  8  1  0  0  0  0
  9  7  2  0  0  0  0
 10 49  1  1  0  0  0
 10 11  1  0  0  0  0
 10  9  1  0  0  0  0
 11  4  1  0  0  0  0
 12 11  2  0  0  0  0
 13 12  1  0  0  0  0
 14 16  2  0  0  0  0
 14 12  1  0  0  0  0
 15 14  1  0  0  0  0
 16 49  1  0  0  0  0
 17 16  1  0  0  0  0
 18 20  1  0  0  0  0
 19 18  1  0  0  0  0
 21 18  1  1  0  0  0
 22 21  1  0  0  0  0
 22 23  1  0  0  0  0
 24 22  2  0  0  0  0
 25 24  1  0  0  0  0
 26 28  2  0  0  0  0
 26 24  1  0  0  0  0
 27 26  1  0  0  0  0
 28 50  1  0  0  0  0
 29 30  1  0  0  0  0
 29 28  1  0  0  0  0
 29 55  1  0  0  0  0
 31 29  1  0  0  0  0
 32 55  1  0  0  0  0
 32 39  2  0  0  0  0
 33 32  1  0  0  0  0
 34 33  1  0  0  0  0
 35 33  2  0  0  0  0
 35 37  1  0  0  0  0
 36 35  1  0  0  0  0
 37 46  1  1  0  0  0
 37 38  1  0  0  0  0
 38 40  2  0  0  0  0
 39 38  1  0  0  0  0
 39 51  1  0  0  0  0
 40 41  1  0  0  0  0
 40 42  1  0  0  0  0
 42 43  1  0  0  0  0
 44 42  2  0  0  0  0
 44 45  1  0  0  0  0
 46 48  1  0  0  0  0
 47 46  1  0  0  0  0
 50 21  1  0  0  0  0
 51 44  1  0  0  0  0
 52  1  1  0  0  0  0
 53 52  1  0  0  0  0
 54  9  1  0  0  0  0
 54 18  1  0  0  0  0
 56 46  1  0  0  0  0
 57 56  1  0  0  0  0
M  END
