1,2,27
q = 0.0, confidence = 0.998

 49 51  0  0  1  0  0  0  0  0999 V2000
    1.9480    0.0842    0.0010 N   0  0  0  0  0  2  0  0  0  0  0  0
    0.0000   -1.5297   -0.0000 N   0  0  0  0  0  2  0  0  0  0  0  0
    3.0486    0.8250    0.0008 N   0  0  0  0  0  0  0  0  0  0  0  0
    1.2020   -2.1687    0.0005 C   0  0  0  0  0  0  0  0  0  0  0  0
    3.7396   -1.2798    0.0004 C   0  0  0  0  0  0  0  0  0  0  0  0
    2.3208   -1.2220    0.0008 C   0  0  0  0  0  0  0  0  0  0  0  0
    4.1810    0.0503    0.0004 C   0  0  0  0  0  0  0  0  0  0  0  0
    1.2234   -3.5733    0.0005 C   0  0  0  0  0  0  0  0  0  0  0  0
    5.5669    0.6602    0.0001 C   0  0  0  0  0  0  0  0  0  0  0  0
    0.0000   -4.2653   -0.0000 C   0  0  0  0  0  0  0  0  0  0  0  0
    0.0000   -5.3649   -0.0000 H   0  0  0  0  0  0  0  0  0  0  0  0
    5.7400    1.5314   -1.2656 C   0  0  0  0  0  0  0  0  0  0  0  0
    5.6085    0.9285   -2.1858 H   0  0  0  0  0  0  0  0  0  0  0  0
    6.7536    1.9806   -1.2838 H   0  0  0  0  0  0  0  0  0  0  0  0
    5.0058    2.3618   -1.2981 H   0  0  0  0  0  0  0  0  0  0  0  0
    5.7407    1.5315    1.2655 C   0  0  0  0  0  0  0  0  0  0  0  0
    5.0065    2.3618    1.2984 H   0  0  0  0  0  0  0  0  0  0  0  0
    6.7542    1.9808    1.2831 H   0  0  0  0  0  0  0  0  0  0  0  0
    5.6097    0.9286    2.1858 H   0  0  0  0  0  0  0  0  0  0  0  0
    6.6168   -0.4633   -0.0002 C   0  0  0  0  0  0  0  0  0  0  0  0
    6.5225   -1.1049    0.8987 H   0  0  0  0  0  0  0  0  0  0  0  0
    7.6355   -0.0277   -0.0004 H   0  0  0  0  0  0  0  0  0  0  0  0
    6.5221   -1.1050   -0.8990 H   0  0  0  0  0  0  0  0  0  0  0  0
    4.3712   -2.1715    0.0002 H   0  0  0  0  0  0  0  0  0  0  0  0
    2.1813   -4.1109    0.0009 H   0  0  0  0  0  0  0  0  0  0  0  0
    2.9229    1.8433    0.0003 H   0  0  0  0  0  0  0  0  0  0  0  0
   -1.9480    0.0842   -0.0010 N   0  0  0  0  0  2  0  0  0  0  0  0
   -3.0486    0.8250   -0.0008 N   0  0  0  0  0  0  0  0  0  0  0  0
   -1.2020   -2.1687   -0.0005 C   0  0  0  0  0  0  0  0  0  0  0  0
   -3.7395   -1.2798   -0.0004 C   0  0  0  0  0  0  0  0  0  0  0  0
   -2.3208   -1.2220   -0.0008 C   0  0  1  0  0  3  0  0  0  0  0  0
   -4.1810    0.0503   -0.0004 C   0  0  0  0  0  0  0  0  0  0  0  0
   -1.2234   -3.5733   -0.0005 C   0  0  0  0  0  0  0  0  0  0  0  0
   -5.5669    0.6602   -0.0001 C   0  0  0  0  0  0  0  0  0  0  0  0
   -5.7400    1.5314    1.2656 C   0  0  0  0  0  0  0  0  0  0  0  0
   -5.6085    0.9285    2.1858 H   0  0  0  0  0  0  0  0  0  0  0  0
   -6.7536    1.9806    1.2838 H   0  0  0  0  0  0  0  0  0  0  0  0
   -5.0058    2.3618    1.2981 H   0  0  0  0  0  0  0  0  0  0  0  0
   -5.7407    1.5315   -1.2655 C   0  0  0  0  0  0  0  0  0  0  0  0
   -5.0065    2.3618   -1.2984 H   0  0  0  0  0  0  0  0  0  0  0  0
   -6.7542    1.9808   -1.2831 H   0  0  0  0  0  0  0  0  0  0  0  0
   -5.6097    0.9286   -2.1858 H   0  0  0  0  0  0  0  0  0  0  0  0
   -6.6168   -0.4633    0.0002 C   0  0  0  0  0  0  0  0  0  0  0  0
   -6.5225   -1.1049   -0.8987 H   0  0  0  0  0  0  0  0  0  0  0  0
   -7.6355   -0.0277    0.0004 H   0  0  0  0  0  0  0  0  0  0  0  0
   -6.5221   -1.1050    0.8989 H   0  0  0  0  0  0  0  0  0  0  0  0
   -4.3712   -2.1715   -0.0002 H   0  0  0  0  0  0  0  0  0  0  0  0
   -2.1813   -4.1109   -0.0009 H   0  0  0  0  0  0  0  0  0  0  0  0
   -2.9229    1.8433   -0.0003 H   0  0  0  0  0  0  0  0  0  0  0  0
  2  4  1  0  0  0  0
  3  1  1  0  0  0  0
  4  8  1  0  0  0  0
  4  6  2  0  0  0  0
  5  6  1  0  0  0  0
  6  1  1  0  0  0  0
  7  5  2  0  0  0  0
  7  3  1  0  0  0  0
  8 25  1  0  0  0  0
  9  7  1  0  0  0  0
  9 16  1  0  0  0  0
 10  8  2  0  0  0  0
 11 10  1  0  0  0  0
 12  9  1  0  0  0  0
 13 12  1  0  0  0  0
 14 12  1  0  0  0  0
 15 12  1  0  0  0  0
 16 18  1  0  0  0  0
 16 17  1  0  0  0  0
 16 19  1  0  0  0  0
 20  9  1  0  0  0  0
 20 21  1  0  0  0  0
 22 20  1  0  0  0  0
 23 20  1  0  0  0  0
 24  5  1  0  0  0  0
 26  3  1  0  0  0  0
 27 28  1  0  0  0  0
 27 31  1  0  0  0  0
 28 32  1  0  0  0  0
 28 49  1  0  0  0  0
 29  2  1  0  0  0  0
 30 32  2  0  0  0  0
 30 47  1  0  0  0  0
 31 29  1  1  0  0  0
 31 30  1  0  0  0  0
 32 34  1  0  0  0  0
 33 29  2  0  0  0  0
 33 10  1  0  0  0  0
 34 43  1  0  0  0  0
 34 35  1  0  0  0  0
 35 37  1  0  0  0  0
 35 38  1  0  0  0  0
 35 36  1  0  0  0  0
 39 34  1  0  0  0  0
 40 39  1  0  0  0  0
 41 39  1  0  0  0  0
 42 39  1  0  0  0  0
 43 45  1  0  0  0  0
 43 46  1  0  0  0  0
 44 43  1  0  0  0  0
 48 33  1  0  0  0  0
M  END
