1,2,4
q = 0.0, confidence = 0.996

 35 37  0  0  1  0  0  0  0  0999 V2000
    2.3992   -0.9433   -0.2564 N   0  0  0  0  0  2  0  0  0  0  0  0
   -0.1627   -0.5627   -0.6095 N   0  0  0  0  0  2  0  0  0  0  0  0
   -1.4132   -0.1063   -0.6048 N   0  0  0  0  0  0  0  0  0  0  0  0
   -0.3881    1.9933   -0.4623 N   0  0  0  0  0  2  0  0  0  0  0  0
    1.6352   -2.0415   -0.4861 C   0  0  0  0  0  0  0  0  0  0  0  0
    0.1907   -1.8097   -0.5743 C   0  0  0  0  0  0  0  0  0  0  0  0
   -0.5177   -2.6585   -0.5653 H   0  0  0  0  0  0  0  0  0  0  0  0
   -2.7955    1.9331   -0.5698 C   0  0  0  0  0  0  0  0  0  0  0  0
   -3.7187    1.3408   -0.6175 H   0  0  0  0  0  0  0  0  0  0  0  0
   -1.5362    1.3015   -0.5386 C   0  0  1  0  0  3  0  0  0  0  0  0
   -4.5920   -2.6700    0.4844 C   0  0  0  0  0  0  0  0  0  0  0  0
   -5.4155   -3.3390    0.7767 H   0  0  0  0  0  0  0  0  0  0  0  0
   -3.3635   -1.4819   -1.2466 C   0  0  0  0  0  0  0  0  0  0  0  0
   -3.2018   -1.2060   -2.2991 H   0  0  0  0  0  0  0  0  0  0  0  0
    3.7318   -1.0479   -0.1930 C   0  0  0  0  0  0  0  0  0  0  0  0
    4.2631   -0.0945   -0.0224 H   0  0  0  0  0  0  0  0  0  0  0  0
   -2.5131   -0.9683   -0.2555 C   0  0  0  0  0  0  0  0  0  0  0  0
   -2.6751   -1.3016    1.1018 C   0  0  0  0  0  0  0  0  0  0  0  0
   -1.9598   -0.8837    1.8325 H   0  0  0  0  0  0  0  0  0  0  0  0
   -0.4162    3.3358   -0.4348 C   0  0  0  0  0  0  0  0  0  0  0  0
    0.5774    3.8120   -0.3593 H   0  0  0  0  0  0  0  0  0  0  0  0
    2.2188   -3.3163   -0.6229 C   0  0  0  0  0  0  0  0  0  0  0  0
    1.5818   -4.1959   -0.7988 H   0  0  0  0  0  0  0  0  0  0  0  0
   -4.4125   -2.3349   -0.8675 C   0  0  0  0  0  0  0  0  0  0  0  0
   -5.0918   -2.7397   -1.6325 H   0  0  0  0  0  0  0  0  0  0  0  0
   -3.7242   -2.1576    1.4647 C   0  0  0  0  0  0  0  0  0  0  0  0
   -3.8670   -2.4246    2.5226 H   0  0  0  0  0  0  0  0  0  0  0  0
    4.3883   -2.2812   -0.3322 C   0  0  0  0  0  0  0  0  0  0  0  0
    5.4844   -2.3332   -0.2677 H   0  0  0  0  0  0  0  0  0  0  0  0
    3.6126   -3.4320   -0.5422 C   0  0  0  0  0  0  0  0  0  0  0  0
    4.0922   -4.4170   -0.6471 H   0  0  0  0  0  0  0  0  0  0  0  0
   -2.8201    3.3312   -0.5381 C   0  0  0  0  0  0  0  0  0  0  0  0
   -3.7862    3.8575   -0.5604 H   0  0  0  0  0  0  0  0  0  0  0  0
   -1.6160    4.0547   -0.4792 C   0  0  0  0  0  0  0  0  0  0  0  0
   -1.6071    5.1531   -0.4555 H   0  0  0  0  0  0  0  0  0  0  0  0
  1 15  1  0  0  0  0
  2  3  1  0  0  0  0
  2  6  1  0  0  0  0
  3 17  1  0  0  0  0
  4 20  1  0  0  0  0
  5  1  1  0  0  0  0
  6  7  1  0  0  0  0
  6  5  2  0  0  0  0
  8 10  1  0  0  0  0
  8 32  2  0  0  0  0
  9  8  1  0  0  0  0
 10  3  1  6  0  0  0
 10  4  1  0  0  0  0
 11 12  1  0  0  0  0
 11 26  1  0  0  0  0
 13 24  1  0  0  0  0
 13 17  2  0  0  0  0
 14 13  1  0  0  0  0
 15 16  1  0  0  0  0
 17 18  1  0  0  0  0
 18 26  2  0  0  0  0
 18 19  1  0  0  0  0
 20 21  1  0  0  0  0
 22 30  2  0  0  0  0
 22  5  1  0  0  0  0
 23 22  1  0  0  0  0
 24 11  2  0  0  0  0
 25 24  1  0  0  0  0
 26 27  1  0  0  0  0
 28 29  1  0  0  0  0
 28 15  2  0  0  0  0
 30 28  1  0  0  0  0
 31 30  1  0  0  0  0
 32 34  1  0  0  0  0
 33 32  1  0  0  0  0
 34 35  1  0  0  0  0
 34 20  2  0  0  0  0
M  END
