2,24,25
q = -1.0, confidence = 0.0

 37 40  0  0  0  0  0  0  0  0999 V2000
    2.5038   -2.5968   -0.0428 S   0  0  0  0  0  0  0  0  0  0  0  0
   -1.4204    2.1331   -0.0535 N   0  0  0  0  0  2  0  0  0  0  0  0
   -2.3959    1.1756   -0.1170 C   0  0  0  0  0  0  0  0  0  0  0  0
   -3.7460    1.5618   -0.2868 C   0  0  0  0  0  0  0  0  0  0  0  0
   -4.5203    0.7891   -0.3770 H   0  0  0  0  0  0  0  0  0  0  0  0
   -4.0687    2.9190   -0.3595 C   0  0  0  0  0  0  0  0  0  0  0  0
   -5.1168    3.2265   -0.4933 H   0  0  0  0  0  0  0  0  0  0  0  0
   -3.0492    3.8829   -0.2751 C   0  0  0  0  0  0  0  0  0  0  0  0
   -3.2634    4.9588   -0.3312 H   0  0  0  0  0  0  0  0  0  0  0  0
   -1.7302    3.4389   -0.1334 C   0  0  0  0  0  0  0  0  0  0  0  0
   -0.8778    4.1335   -0.0883 H   0  0  0  0  0  0  0  0  0  0  0  0
   -1.9271   -0.2079   -0.0570 C   0  0  0  0  0  0  0  0  0  0  0  0
   -2.8444   -1.3665   -0.0007 C   0  0  0  0  0  0  0  0  0  0  0  0
   -2.6611   -2.4817   -0.8504 C   0  0  0  0  0  0  0  0  0  0  0  0
   -1.8210   -2.4872   -1.5568 H   0  0  0  0  0  0  0  0  0  0  0  0
   -3.5396   -3.5703   -0.7889 C   0  0  0  0  0  0  0  0  0  0  0  0
   -3.3896   -4.4276   -1.4626 H   0  0  0  0  0  0  0  0  0  0  0  0
   -4.6033   -3.5755    0.1284 C   0  0  0  0  0  0  0  0  0  0  0  0
   -5.2875   -4.4361    0.1771 H   0  0  0  0  0  0  0  0  0  0  0  0
   -4.7840   -2.4822    0.9899 C   0  0  0  0  0  0  0  0  0  0  0  0
   -5.6036   -2.4856    1.7243 H   0  0  0  0  0  0  0  0  0  0  0  0
   -3.9132   -1.3858    0.9259 C   0  0  0  0  0  0  0  0  0  0  0  0
   -4.0434   -0.5439    1.6226 H   0  0  0  0  0  0  0  0  0  0  0  0
    1.9144   -0.0523    0.0016 N   0  0  0  0  0  2  0  0  0  0  0  0
   -0.5985   -0.3058   -0.0690 N   0  0  0  0  0  2  0  0  0  0  0  0
    0.0207   -1.4848   -0.0566 N   0  0  0  0  0  0  0  0  0  0  0  0
    1.3460   -1.2728   -0.0287 C   0  0  0  0  0  0  0  0  0  0  0  0
    3.8209   -1.4236   -0.0145 C   0  0  0  0  0  0  0  0  0  0  0  0
    3.2964   -0.0979    0.0031 C   0  0  0  0  0  0  0  0  0  0  0  0
    4.1716    1.0048    0.0154 C   0  0  0  0  0  0  0  0  0  0  0  0
    3.7533    2.0213    0.0144 H   0  0  0  0  0  0  0  0  0  0  0  0
    5.5498    0.7617    0.0172 C   0  0  0  0  0  0  0  0  0  0  0  0
    6.2462    1.6134    0.0264 H   0  0  0  0  0  0  0  0  0  0  0  0
    6.0620   -0.5531    0.0059 C   0  0  0  0  0  0  0  0  0  0  0  0
    7.1499   -0.7160    0.0089 H   0  0  0  0  0  0  0  0  0  0  0  0
    5.2016   -1.6615   -0.0116 C   0  0  0  0  0  0  0  0  0  0  0  0
    5.5999   -2.6863   -0.0240 H   0  0  0  0  0  0  0  0  0  0  0  0
  1 27  1  0  0  0  0
  1 28  1  0  0  0  0
  3 12  2  0  0  0  0
  3  2  1  0  0  0  0
  4  3  1  0  0  0  0
  5  4  1  0  0  0  0
  6  4  2  0  0  0  0
  6  8  1  0  0  0  0
  7  6  1  0  0  0  0
  8 10  2  0  0  0  0
  9  8  1  0  0  0  0
 10 11  1  0  0  0  0
 10  2  1  0  0  0  0
 12 13  1  0  0  0  0
 13 22  1  0  0  0  0
 14 16  1  0  0  0  0
 14 13  2  0  0  0  0
 15 14  1  0  0  0  0
 16 18  2  0  0  0  0
 17 16  1  0  0  0  0
 18 19  1  0  0  0  0
 18 20  1  0  0  0  0
 20 21  1  0  0  0  0
 22 20  2  0  0  0  0
 22 23  1  0  0  0  0
 24 29  1  0  0  0  0
 25 12  1  0  0  0  0
 25 26  1  0  0  0  0
 26 27  2  0  0  0  0
 27 24  1  0  0  0  0
 28 36  2  0  0  0  0
 28 29  1  0  0  0  0
 29 30  2  0  0  0  0
 30 32  1  0  0  0  0
 31 30  1  0  0  0  0
 32 33  1  0  0  0  0
 34 35  1  0  0  0  0
 34 32  2  0  0  0  0
 36 34  1  0  0  0  0
 37 36  1  0  0  0  0
M  END
