1,3,5
q = 0.0, confidence = 1.0

 50 53  0  0  1  0  0  0  0  0999 V2000
    2.2712   -0.0623   -0.3413 N   0  0  0  0  0  2  0  0  0  0  0  0
    2.2827    1.2260   -0.8139 N   0  0  0  0  0  0  0  0  0  0  0  0
   -0.2970    0.1751    1.4674 N   0  0  0  0  0  2  0  0  0  0  0  0
   -1.5462    0.7260    1.3507 N   0  0  0  0  0  0  0  0  0  0  0  0
   -0.5638    0.4207   -1.3000 N   0  0  0  0  0  0  0  0  0  0  0  0
   -0.3821    0.1803   -2.2859 H   0  0  0  0  0  0  0  0  0  0  0  0
    3.5474   -0.5200   -0.4565 C   0  0  2  0  0  3  0  0  0  0  0  0
    4.3680    0.4878   -1.0178 C   0  0  0  0  0  0  0  0  0  0  0  0
    5.4346    0.4092   -1.2485 H   0  0  0  0  0  0  0  0  0  0  0  0
    3.5391    1.5736   -1.2350 C   0  0  0  0  0  0  0  0  0  0  0  0
    3.7311    2.5568   -1.6744 H   0  0  0  0  0  0  0  0  0  0  0  0
    1.1944    2.1388   -0.7329 C   0  0  0  0  0  0  0  0  0  0  0  0
    1.5108    3.4718   -0.3939 C   0  0  0  0  0  0  0  0  0  0  0  0
    2.5419    3.7038   -0.0923 H   0  0  0  0  0  0  0  0  0  0  0  0
    0.5560    4.4999   -0.4094 C   0  0  0  0  0  0  0  0  0  0  0  0
   -0.7608    4.1562   -0.7761 C   0  0  0  0  0  0  0  0  0  0  0  0
   -1.5398    4.9324   -0.8177 H   0  0  0  0  0  0  0  0  0  0  0  0
   -1.0966    2.8340   -1.0724 C   0  0  0  0  0  0  0  0  0  0  0  0
   -2.1339    2.5846   -1.3360 H   0  0  0  0  0  0  0  0  0  0  0  0
   -0.1407    1.8024   -1.0437 C   0  0  0  0  0  0  0  0  0  0  0  0
    0.9209    5.9147   -0.0506 C   0  0  0  0  0  0  0  0  0  0  0  0
    1.9652    5.9969    0.3045 H   0  0  0  0  0  0  0  0  0  0  0  0
    0.2540    6.3106    0.7417 H   0  0  0  0  0  0  0  0  0  0  0  0
    0.8063    6.5845   -0.9282 H   0  0  0  0  0  0  0  0  0  0  0  0
    0.2703    0.7245    2.5667 C   0  0  1  0  0  3  0  0  0  0  0  0
   -0.6335    1.6458    3.1526 C   0  0  0  0  0  0  0  0  0  0  0  0
   -0.4643    2.2524    4.0474 H   0  0  0  0  0  0  0  0  0  0  0  0
   -1.7702    1.6226    2.3560 C   0  0  0  0  0  0  0  0  0  0  0  0
   -2.7093    2.1829    2.4069 H   0  0  0  0  0  0  0  0  0  0  0  0
   -2.4421    0.3504    0.3120 C   0  0  0  0  0  0  0  0  0  0  0  0
   -3.7916    0.1165    0.6057 C   0  0  0  0  0  0  0  0  0  0  0  0
   -4.1300    0.2065    1.6484 H   0  0  0  0  0  0  0  0  0  0  0  0
   -4.7026   -0.2772   -0.3959 C   0  0  0  0  0  0  0  0  0  0  0  0
   -4.2116   -0.4363   -1.7067 C   0  0  0  0  0  0  0  0  0  0  0  0
   -4.8958   -0.7525   -2.5080 H   0  0  0  0  0  0  0  0  0  0  0  0
   -2.8644   -0.1975   -2.0137 C   0  0  0  0  0  0  0  0  0  0  0  0
   -2.5027   -0.3185   -3.0466 H   0  0  0  0  0  0  0  0  0  0  0  0
   -1.9692    0.1961   -1.0143 C   0  0  0  0  0  0  0  0  0  0  0  0
   -6.1371   -0.5775   -0.0547 C   0  0  0  0  0  0  0  0  0  0  0  0
   -6.5083    0.0655    0.7666 H   0  0  0  0  0  0  0  0  0  0  0  0
   -6.2420   -1.6314    0.2807 H   0  0  0  0  0  0  0  0  0  0  0  0
   -6.8003   -0.4447   -0.9305 H   0  0  0  0  0  0  0  0  0  0  0  0
    3.9873   -1.8856   -0.0480 C   0  0  0  0  0  0  0  0  0  0  0  0
    3.4610   -2.6780   -0.6150 H   0  0  0  0  0  0  0  0  0  0  0  0
    3.8052   -2.0725    1.0277 H   0  0  0  0  0  0  0  0  0  0  0  0
    5.0709   -1.9949   -0.2349 H   0  0  0  0  0  0  0  0  0  0  0  0
    1.6333    0.3371    3.0350 C   0  0  0  0  0  0  0  0  0  0  0  0
    2.3691    0.3767    2.2089 H   0  0  0  0  0  0  0  0  0  0  0  0
    1.6369   -0.6987    3.4318 H   0  0  0  0  0  0  0  0  0  0  0  0
    1.9675    1.0118    3.8436 H   0  0  0  0  0  0  0  0  0  0  0  0
  2 12  1  0  0  0  0
  2  1  1  0  0  0  0
  3 25  1  0  0  0  0
  4  3  1  0  0  0  0
  4 28  1  0  0  0  0
  5 20  1  0  0  0  0
  5 38  1  0  0  0  0
  6  5  1  0  0  0  0
  7  1  1  0  0  0  0
  7 43  1  6  0  0  0
  8  7  1  0  0  0  0
  9  8  1  0  0  0  0
 10  8  2  0  0  0  0
 10  2  1  0  0  0  0
 11 10  1  0  0  0  0
 12 13  1  0  0  0  0
 13 14  1  0  0  0  0
 15 13  2  0  0  0  0
 15 21  1  0  0  0  0
 16 15  1  0  0  0  0
 17 16  1  0  0  0  0
 18 20  1  0  0  0  0
 18 16  2  0  0  0  0
 19 18  1  0  0  0  0
 20 12  2  0  0  0  0
 21 22  1  0  0  0  0
 21 23  1  0  0  0  0
 24 21  1  0  0  0  0
 25 47  1  1  0  0  0
 25 26  1  0  0  0  0
 26 27  1  0  0  0  0
 28 29  1  0  0  0  0
 28 26  2  0  0  0  0
 30 31  1  0  0  0  0
 30  4  1  0  0  0  0
 31 32  1  0  0  0  0
 33 39  1  0  0  0  0
 33 31  2  0  0  0  0
 34 33  1  0  0  0  0
 35 34  1  0  0  0  0
 36 34  2  0  0  0  0
 36 38  1  0  0  0  0
 37 36  1  0  0  0  0
 38 30  2  0  0  0  0
 39 41  1  0  0  0  0
 39 40  1  0  0  0  0
 42 39  1  0  0  0  0
 43 45  1  0  0  0  0
 44 43  1  0  0  0  0
 46 43  1  0  0  0  0
 47 49  1  0  0  0  0
 47 50  1  0  0  0  0
 48 47  1  0  0  0  0
M  END
