1,3,4
q = -1.0

 33 34  0  0  0  0  0  0  0  0999 V2000
    1.8987   -1.0950    0.2739 N   0  0  0  0  0  0  0  0  0  0  0  0
    2.3219   -1.7738   -0.3788 H   0  0  0  0  0  0  0  0  0  0  0  0
    0.0002    0.6351    0.0006 N   0  0  0  0  0  2  0  0  0  0  0  0
   -1.8989   -1.0951   -0.2725 N   0  0  0  0  0  0  0  0  0  0  0  0
   -2.3204   -1.7723    0.3829 H   0  0  0  0  0  0  0  0  0  0  0  0
    2.3181    0.2727   -0.0427 C   0  0  0  0  0  0  0  0  0  0  0  0
    3.6522    0.6437   -0.2017 C   0  0  0  0  0  0  0  0  0  0  0  0
    4.4462   -0.1153   -0.1180 H   0  0  0  0  0  0  0  0  0  0  0  0
    3.9702    1.9853   -0.4822 C   0  0  0  0  0  0  0  0  0  0  0  0
    5.0170    2.2896   -0.6232 H   0  0  0  0  0  0  0  0  0  0  0  0
    2.9294    2.9228   -0.5912 C   0  0  0  0  0  0  0  0  0  0  0  0
    3.1663    3.9718   -0.8274 H   0  0  0  0  0  0  0  0  0  0  0  0
    1.5861    2.5568   -0.4251 C   0  0  0  0  0  0  0  0  0  0  0  0
    0.8008    3.3087   -0.5650 H   0  0  0  0  0  0  0  0  0  0  0  0
    1.2463    1.2077   -0.1394 C   0  0  0  0  0  0  0  0  0  0  0  0
   -1.2459    1.2078    0.1400 C   0  0  0  0  0  0  0  0  0  0  0  0
   -1.5855    2.5571    0.4253 C   0  0  0  0  0  0  0  0  0  0  0  0
   -0.7999    3.3087    0.5658 H   0  0  0  0  0  0  0  0  0  0  0  0
   -2.9287    2.9238    0.5899 C   0  0  0  0  0  0  0  0  0  0  0  0
   -3.1654    3.9729    0.8256 H   0  0  0  0  0  0  0  0  0  0  0  0
   -3.9698    1.9867    0.4799 C   0  0  0  0  0  0  0  0  0  0  0  0
   -5.0166    2.2914    0.6198 H   0  0  0  0  0  0  0  0  0  0  0  0
   -3.6520    0.6449    0.2002 C   0  0  0  0  0  0  0  0  0  0  0  0
   -4.4463   -0.1138    0.1161 H   0  0  0  0  0  0  0  0  0  0  0  0
   -2.3179    0.2732    0.0427 C   0  0  0  0  0  0  0  0  0  0  0  0
    2.2397   -1.5126    1.6592 C   0  0  0  0  0  0  0  0  0  0  0  0
    3.3355   -1.4634    1.8327 H   0  0  0  0  0  0  0  0  0  0  0  0
    1.8684   -2.5441    1.8053 H   0  0  0  0  0  0  0  0  0  0  0  0
    1.7353   -0.8308    2.3680 H   0  0  0  0  0  0  0  0  0  0  0  0
   -2.2432   -1.5158   -1.6558 C   0  0  0  0  0  0  0  0  0  0  0  0
   -3.3394   -1.4673   -1.8269 H   0  0  0  0  0  0  0  0  0  0  0  0
   -1.8721   -2.5476   -1.8005 H   0  0  0  0  0  0  0  0  0  0  0  0
   -1.7406   -0.8356   -2.3675 H   0  0  0  0  0  0  0  0  0  0  0  0
  1 26  1  0  0  0  0
  2  1  1  0  0  0  0
  3 16  1  0  0  0  0
  4 25  1  0  0  0  0
  4  5  1  0  0  0  0
  6  1  1  0  0  0  0
  7  8  1  0  0  0  0
  7  6  2  0  0  0  0
  9  7  1  0  0  0  0
 10  9  1  0  0  0  0
 11  9  2  0  0  0  0
 11 13  1  0  0  0  0
 12 11  1  0  0  0  0
 13 15  2  0  0  0  0
 14 13  1  0  0  0  0
 15  6  1  0  0  0  0
 15  3  1  0  0  0  0
 16 17  1  0  0  0  0
 17 18  1  0  0  0  0
 17 19  2  0  0  0  0
 19 20  1  0  0  0  0
 21 19  1  0  0  0  0
 21 22  1  0  0  0  0
 23 21  2  0  0  0  0
 24 23  1  0  0  0  0
 25 16  2  0  0  0  0
 25 23  1  0  0  0  0
 26 28  1  0  0  0  0
 26 27  1  0  0  0  0
 26 29  1  0  0  0  0
 30  4  1  0  0  0  0
 31 30  1  0  0  0  0
 32 30  1  0  0  0  0
 33 30  1  0  0  0  0
M  END
