1,2,4
q = 0.0, confidence = 0.994

 40 41  0  0  0  0  0  0  0  0999 V2000
    2.2878   -0.5437    0.1425 N   0  0  0  0  0  2  0  0  0  0  0  0
    1.1368    1.3127   -1.2640 N   0  0  0  0  0  0  0  0  0  0  0  0
    1.0861    0.8339   -2.1784 H   0  0  0  0  0  0  0  0  0  0  0  0
   -1.3184    0.9267   -0.1257 N   0  0  0  0  0  0  0  0  0  0  0  0
   -1.3440    1.4257    0.7808 H   0  0  0  0  0  0  0  0  0  0  0  0
    2.7520   -1.7311    0.6272 C   0  0  0  0  0  3  0  0  0  0  0  0
    1.9974   -2.3237    1.1694 H   0  0  0  0  0  0  0  0  0  0  0  0
    4.0764   -2.1368    0.4576 C   0  0  0  0  0  0  0  0  0  0  0  0
    4.3962   -3.1015    0.8782 H   0  0  0  0  0  0  0  0  0  0  0  0
    4.9777   -1.3136   -0.2389 C   0  0  0  0  0  0  0  0  0  0  0  0
    6.0238   -1.6160   -0.3909 H   0  0  0  0  0  0  0  0  0  0  0  0
    4.5040   -0.0872   -0.7371 C   0  0  0  0  0  0  0  0  0  0  0  0
    5.1665    0.5970   -1.2884 H   0  0  0  0  0  0  0  0  0  0  0  0
    3.1738    0.2757   -0.5229 C   0  0  0  0  0  0  0  0  0  0  0  0
    2.5623    1.5818   -0.9502 C   0  0  0  0  0  0  0  0  0  0  0  0
    2.5518    2.2724   -0.0796 H   0  0  0  0  0  0  0  0  0  0  0  0
    3.1176    2.0553   -1.7897 H   0  0  0  0  0  0  0  0  0  0  0  0
    0.2223    2.4735   -1.2715 C   0  0  0  0  0  0  0  0  0  0  0  0
    0.3685    3.1334   -2.1566 H   0  0  0  0  0  0  0  0  0  0  0  0
    0.4382    3.0464   -0.3473 H   0  0  0  0  0  0  0  0  0  0  0  0
   -1.2024    1.9319   -1.2243 C   0  0  0  0  0  0  0  0  0  0  0  0
   -1.9383    2.7562   -1.1014 H   0  0  0  0  0  0  0  0  0  0  0  0
   -1.4611    1.4215   -2.1746 H   0  0  0  0  0  0  0  0  0  0  0  0
   -2.4608    0.0533   -0.2711 C   0  0  0  0  0  0  0  0  0  0  0  0
   -3.6240    0.2838    0.4941 C   0  0  0  0  0  0  0  0  0  0  0  0
   -4.7299   -0.5639    0.2918 C   0  0  0  0  0  0  0  0  0  0  0  0
   -5.6426   -0.3996    0.8854 H   0  0  0  0  0  0  0  0  0  0  0  0
   -4.6780   -1.6063   -0.6416 C   0  0  0  0  0  0  0  0  0  0  0  0
   -5.5524   -2.2573   -0.7902 H   0  0  0  0  0  0  0  0  0  0  0  0
   -3.4983   -1.8404   -1.3626 C   0  0  0  0  0  0  0  0  0  0  0  0
   -3.4377   -2.6898   -2.0607 H   0  0  0  0  0  0  0  0  0  0  0  0
   -2.3677   -1.0270   -1.1790 C   0  0  0  0  0  0  0  0  0  0  0  0
   -3.6482    1.3719    1.5382 C   0  0  0  0  0  0  0  0  0  0  0  0
   -3.4491    2.3781    1.1114 H   0  0  0  0  0  0  0  0  0  0  0  0
   -2.8772    1.1863    2.3174 H   0  0  0  0  0  0  0  0  0  0  0  0
   -4.6304    1.4157    2.0450 H   0  0  0  0  0  0  0  0  0  0  0  0
   -1.0539   -1.3618   -1.8380 C   0  0  0  0  0  0  0  0  0  0  0  0
   -0.6753   -0.5703   -2.5174 H   0  0  0  0  0  0  0  0  0  0  0  0
   -1.1331   -2.2907   -2.4355 H   0  0  0  0  0  0  0  0  0  0  0  0
   -0.2946   -1.5825   -1.0418 H   0  0  0  0  0  0  0  0  0  0  0  0
  1  6  1  0  0  0  0
  2 15  1  0  0  0  0
  3  2  1  0  0  0  0
  4  5  1  0  0  0  0
  6  7  1  0  0  0  0
  8  6  1  0  0  0  0
  8  9  1  0  0  0  0
 10  8  2  0  0  0  0
 11 10  1  0  0  0  0
 12 14  2  0  0  0  0
 12 10  1  0  0  0  0
 13 12  1  0  0  0  0
 14  1  1  0  0  0  0
 15 14  1  0  0  0  0
 15 16  1  0  0  0  0
 17 15  1  0  0  0  0
 18  2  1  0  0  0  0
 18 21  1  0  0  0  0
 18 20  1  0  0  0  0
 19 18  1  0  0  0  0
 21 22  1  0  0  0  0
 21  4  1  0  0  0  0
 23 21  1  0  0  0  0
 24  4  1  0  0  0  0
 24 25  1  0  0  0  0
 25 33  1  0  0  0  0
 26 25  2  0  0  0  0
 26 27  1  0  0  0  0
 28 26  1  0  0  0  0
 29 28  1  0  0  0  0
 30 32  1  0  0  0  0
 30 28  2  0  0  0  0
 31 30  1  0  0  0  0
 32 24  2  0  0  0  0
 33 36  1  0  0  0  0
 33 35  1  0  0  0  0
 34 33  1  0  0  0  0
 37 32  1  0  0  0  0
 37 40  1  0  0  0  0
 38 37  1  0  0  0  0
 39 37  1  0  0  0  0
M  END
