1,2,3
q = 0.0, confidence = 0.986

 64 66  0  0  1  0  0  0  0  0999 V2000
   -0.1605    1.0315    1.4321 N   0  0  0  0  0  2  0  0  0  0  0  0
    0.1410    1.0372   -1.2844 N   0  0  0  0  0  2  0  0  0  0  0  0
   -2.4817    1.1000   -0.2050 N   0  0  0  0  0  0  0  0  0  0  0  0
    2.9620    0.1232    0.4015 N   0  0  0  0  0  0  0  0  0  0  0  0
   -6.2836   -0.7056    0.4140 O   0  0  0  0  0  0  0  0  0  0  0  0
   -6.9801    0.1505   -1.5769 O   0  0  0  0  0  0  0  0  0  0  0  0
    7.4848   -0.9873   -0.9444 O   0  0  0  0  0  0  0  0  0  0  0  0
    6.8819   -1.2596    1.2311 O   0  0  0  0  0  0  0  0  0  0  0  0
   -2.4140    1.8544    1.0523 C   0  0  0  0  0  0  0  0  0  0  0  0
   -2.9176    1.2329    1.8237 H   0  0  0  0  0  0  0  0  0  0  0  0
   -2.9609    2.8269    1.0040 H   0  0  0  0  0  0  0  0  0  0  0  0
   -0.9881    2.1019    1.5119 C   0  0  2  0  0  3  0  0  0  0  0  0
   -0.5422    3.3461    1.9714 C   0  0  0  0  0  0  0  0  0  0  0  0
   -1.2410    4.1945    2.0233 H   0  0  0  0  0  0  0  0  0  0  0  0
    0.8077    3.4933    2.3352 C   0  0  0  0  0  0  0  0  0  0  0  0
    1.1869    4.4628    2.6914 H   0  0  0  0  0  0  0  0  0  0  0  0
    1.6643    2.3941    2.2073 C   0  0  0  0  0  0  0  0  0  0  0  0
    2.7369    2.4733    2.4364 H   0  0  0  0  0  0  0  0  0  0  0  0
    1.1475    1.1689    1.7502 C   0  0  0  0  0  0  0  0  0  0  0  0
    2.0379   -0.0374    1.5351 C   0  0  0  0  0  0  0  0  0  0  0  0
    2.6604   -0.1828    2.4414 H   0  0  0  0  0  0  0  0  0  0  0  0
    1.3749   -0.9333    1.4217 H   0  0  0  0  0  0  0  0  0  0  0  0
   -2.1391    1.8708   -1.4063 C   0  0  0  0  0  0  0  0  0  0  0  0
   -2.6754    2.8485   -1.4614 H   0  0  0  0  0  0  0  0  0  0  0  0
   -2.4726    1.2679   -2.2782 H   0  0  0  0  0  0  0  0  0  0  0  0
   -0.6457    2.1080   -1.5500 C   0  0  1  0  0  3  0  0  0  0  0  0
   -0.1056    3.3447   -1.9208 C   0  0  0  0  0  0  0  0  0  0  0  0
   -0.7728    4.1947   -2.1290 H   0  0  0  0  0  0  0  0  0  0  0  0
    1.2911    3.4823   -1.9956 C   0  0  0  0  0  0  0  0  0  0  0  0
    1.7423    4.4454   -2.2773 H   0  0  0  0  0  0  0  0  0  0  0  0
    2.0957    2.3826   -1.6762 C   0  0  0  0  0  0  0  0  0  0  0  0
    3.1930    2.4563   -1.6786 H   0  0  0  0  0  0  0  0  0  0  0  0
    1.4875    1.1662   -1.3200 C   0  0  0  0  0  0  0  0  0  0  0  0
    2.3012   -0.0410   -0.9038 C   0  0  0  0  0  0  0  0  0  0  0  0
    1.6225   -0.9323   -0.9196 H   0  0  0  0  0  0  0  0  0  0  0  0
    3.0927   -0.2018   -1.6623 H   0  0  0  0  0  0  0  0  0  0  0  0
   -3.6918    0.2792   -0.3433 C   0  0  0  0  0  0  0  0  0  0  0  0
   -3.7467   -0.3974    0.5317 H   0  0  0  0  0  0  0  0  0  0  0  0
   -3.5434   -0.3849   -1.2191 H   0  0  0  0  0  0  0  0  0  0  0  0
   -5.0101    1.0672   -0.4818 C   0  0  0  0  0  0  0  0  0  0  0  0
   -5.1716    1.6895    0.4247 H   0  0  0  0  0  0  0  0  0  0  0  0
   -5.0008    1.7358   -1.3637 H   0  0  0  0  0  0  0  0  0  0  0  0
   -6.2062    0.1483   -0.6382 C   0  0  0  0  0  0  0  0  0  0  0  0
   -7.3515   -1.6805    0.3804 C   0  0  0  0  0  0  0  0  0  0  0  0
   -6.9714   -2.5299    0.9805 H   0  0  0  0  0  0  0  0  0  0  0  0
   -7.4973   -2.0097   -0.6682 H   0  0  0  0  0  0  0  0  0  0  0  0
   -8.6388   -1.1140    0.9560 C   0  0  0  0  0  0  0  0  0  0  0  0
   -8.4816   -0.7333    1.9850 H   0  0  0  0  0  0  0  0  0  0  0  0
   -9.4164   -1.9034    0.9952 H   0  0  0  0  0  0  0  0  0  0  0  0
   -9.0194   -0.2892    0.3224 H   0  0  0  0  0  0  0  0  0  0  0  0
    4.1423   -0.7315    0.5352 C   0  0  0  0  0  0  0  0  0  0  0  0
    3.9169   -1.8097    0.3287 H   0  0  0  0  0  0  0  0  0  0  0  0
    4.4842   -0.6878    1.5882 H   0  0  0  0  0  0  0  0  0  0  0  0
    5.3106   -0.2711   -0.3370 C   0  0  0  0  0  0  0  0  0  0  0  0
    5.1650   -0.4656   -1.4176 H   0  0  0  0  0  0  0  0  0  0  0  0
    5.4180    0.8312   -0.2256 H   0  0  0  0  0  0  0  0  0  0  0  0
    6.6218   -0.8990    0.0972 C   0  0  0  0  0  0  0  0  0  0  0  0
    8.7997   -1.5119   -0.6444 C   0  0  0  0  0  0  0  0  0  0  0  0
    9.1607   -1.9232   -1.6071 H   0  0  0  0  0  0  0  0  0  0  0  0
    8.6938   -2.3367    0.0892 H   0  0  0  0  0  0  0  0  0  0  0  0
    9.7252   -0.4294   -0.1140 C   0  0  0  0  0  0  0  0  0  0  0  0
    9.7900    0.4212   -0.8216 H   0  0  0  0  0  0  0  0  0  0  0  0
   10.7456   -0.8389    0.0285 H   0  0  0  0  0  0  0  0  0  0  0  0
    9.3669   -0.0557    0.8649 H   0  0  0  0  0  0  0  0  0  0  0  0
  1 19  1  0  0  0  0
  3  9  1  0  0  0  0
  4 51  1  0  0  0  0
  4 20  1  0  0  0  0
  6 43  2  0  0  0  0
  7 58  1  0  0  0  0
  7 57  1  0  0  0  0
  9 12  1  0  0  0  0
  9 10  1  0  0  0  0
 11  9  1  0  0  0  0
 12  1  1  6  0  0  0
 12 13  1  0  0  0  0
 13 14  1  0  0  0  0
 13 15  2  0  0  0  0
 15 16  1  0  0  0  0
 17 15  1  0  0  0  0
 17 18  1  0  0  0  0
 19 17  2  0  0  0  0
 20 19  1  0  0  0  0
 20 21  1  0  0  0  0
 22 20  1  0  0  0  0
 23  3  1  0  0  0  0
 24 23  1  0  0  0  0
 25 23  1  0  0  0  0
 26 27  1  1  0  0  0
 26 23  1  0  0  0  0
 26  2  1  0  0  0  0
 28 27  1  0  0  0  0
 29 27  2  0  0  0  0
 29 31  1  0  0  0  0
 30 29  1  0  0  0  0
 31 33  2  0  0  0  0
 32 31  1  0  0  0  0
 33  2  1  0  0  0  0
 33 34  1  0  0  0  0
 34  4  1  0  0  0  0
 35 34  1  0  0  0  0
 36 34  1  0  0  0  0
 37  3  1  0  0  0  0
 37 38  1  0  0  0  0
 39 37  1  0  0  0  0
 40 37  1  0  0  0  0
 40 41  1  0  0  0  0
 42 40  1  0  0  0  0
 43 40  1  0  0  0  0
 43  5  1  0  0  0  0
 44  5  1  0  0  0  0
 44 47  1  0  0  0  0
 44 45  1  0  0  0  0
 46 44  1  0  0  0  0
 47 49  1  0  0  0  0
 47 48  1  0  0  0  0
 50 47  1  0  0  0  0
 51 53  1  0  0  0  0
 52 51  1  0  0  0  0
 54 56  1  0  0  0  0
 54 57  1  0  0  0  0
 54 51  1  0  0  0  0
 55 54  1  0  0  0  0
 57  8  2  0  0  0  0
 58 61  1  0  0  0  0
 58 60  1  0  0  0  0
 59 58  1  0  0  0  0
 61 63  1  0  0  0  0
 61 64  1  0  0  0  0
 62 61  1  0  0  0  0
M  END
