4,22,23
q = -1.0, confidence = 0.008

 53 58  0  0  1  0  0  0  0  0999 V2000
    0.0003   -0.0001    3.1666 B   0  0  2  0  0  0  0  0  0  0  0  0
    0.0003   -0.0002    4.3871 H   0  0  0  0  0  0  0  0  0  0  0  0
   -0.8001   -1.2101    2.6423 N   0  0  0  0  0  0  0  0  0  0  0  0
   -1.0352   -1.3740    1.3163 N   0  0  0  0  0  2  0  0  0  0  0  0
   -1.6995   -2.5515    1.1771 C   0  0  1  0  0  3  0  0  0  0  0  0
   -1.8773   -3.1465    2.4507 C   0  0  0  0  0  0  0  0  0  0  0  0
   -2.4010   -4.0805    2.6744 H   0  0  0  0  0  0  0  0  0  0  0  0
   -1.2968   -2.2569    3.3502 C   0  0  0  0  0  0  0  0  0  0  0  0
   -1.2066   -2.2813    4.4410 H   0  0  0  0  0  0  0  0  0  0  0  0
   -2.6289   -2.2060   -1.0232 N   0  0  0  0  0  0  0  0  0  0  0  0
   -2.1593   -3.0858   -0.1196 C   0  0  0  0  0  0  0  0  0  0  0  0
   -2.1167   -4.4749   -0.3722 C   0  0  0  0  0  0  0  0  0  0  0  0
   -1.7094   -5.1627    0.3831 H   0  0  0  0  0  0  0  0  0  0  0  0
   -2.5696   -4.9465   -1.6100 C   0  0  0  0  0  0  0  0  0  0  0  0
   -2.5392   -6.0225   -1.8400 H   0  0  0  0  0  0  0  0  0  0  0  0
   -3.0428   -4.0249   -2.5553 C   0  0  0  0  0  0  0  0  0  0  0  0
   -3.3979   -4.3505   -3.5443 H   0  0  0  0  0  0  0  0  0  0  0  0
   -3.0469   -2.6636   -2.2080 C   0  0  0  0  0  0  0  0  0  0  0  0
   -3.4040   -1.8976   -2.9197 H   0  0  0  0  0  0  0  0  0  0  0  0
   -0.6476    1.2981    2.6423 N   0  0  0  0  0  0  0  0  0  0  0  0
    1.4484   -0.0880    2.6422 N   0  0  0  0  0  0  0  0  0  0  0  0
   -0.6725    1.5834    1.3162 N   0  0  0  0  0  2  0  0  0  0  0  0
    1.7077   -0.2093    1.3162 N   0  0  0  0  0  2  0  0  0  0  0  0
    3.0596   -0.1956    1.1769 C   0  0  1  0  0  3  0  0  0  0  0  0
   -1.3603    2.7473    1.1771 C   0  0  1  0  0  3  0  0  0  0  0  0
    3.6639   -0.0519    2.4505 C   0  0  0  0  0  0  0  0  0  0  0  0
   -1.7866    3.1988    2.4507 C   0  0  0  0  0  0  0  0  0  0  0  0
    4.7346   -0.0382    2.6741 H   0  0  0  0  0  0  0  0  0  0  0  0
   -2.3340    4.1192    2.6744 H   0  0  0  0  0  0  0  0  0  0  0  0
    2.6033    0.0056    3.3501 C   0  0  0  0  0  0  0  0  0  0  0  0
   -1.3060    2.2515    3.3503 C   0  0  0  0  0  0  0  0  0  0  0  0
    2.5793    0.0957    4.4409 H   0  0  0  0  0  0  0  0  0  0  0  0
   -1.3720    2.1856    4.4411 H   0  0  0  0  0  0  0  0  0  0  0  0
    3.2264   -1.1740   -1.0230 N   0  0  0  0  0  0  0  0  0  0  0  0
   -0.5968    3.3806   -1.0231 N   0  0  0  0  0  0  0  0  0  0  0  0
    3.7524   -0.3265   -0.1197 C   0  0  0  0  0  0  0  0  0  0  0  0
   -1.5936    3.4125   -0.1196 C   0  0  0  0  0  0  0  0  0  0  0  0
    4.9334    0.4062   -0.3723 C   0  0  0  0  0  0  0  0  0  0  0  0
   -2.8187    4.0687   -0.3721 C   0  0  0  0  0  0  0  0  0  0  0  0
    5.3245    1.1034    0.3829 H   0  0  0  0  0  0  0  0  0  0  0  0
   -3.6179    4.0590    0.3832 H   0  0  0  0  0  0  0  0  0  0  0  0
    5.5687    0.2501   -1.6099 C   0  0  0  0  0  0  0  0  0  0  0  0
   -3.0014    4.6967   -1.6099 C   0  0  0  0  0  0  0  0  0  0  0  0
    6.4847    0.8154   -1.8398 H   0  0  0  0  0  0  0  0  0  0  0  0
   -3.9490    5.2072   -1.8399 H   0  0  0  0  0  0  0  0  0  0  0  0
    5.0082   -0.6215   -2.5550 C   0  0  0  0  0  0  0  0  0  0  0  0
   -1.9665    4.6469   -2.5552 C   0  0  0  0  0  0  0  0  0  0  0  0
    5.4681   -0.7660   -3.5439 H   0  0  0  0  0  0  0  0  0  0  0  0
   -2.0714    5.1171   -3.5442 H   0  0  0  0  0  0  0  0  0  0  0  0
    3.8321   -1.3069   -2.2077 C   0  0  0  0  0  0  0  0  0  0  0  0
   -0.7848    3.9712   -2.2079 C   0  0  0  0  0  0  0  0  0  0  0  0
    3.3483   -1.9999   -2.9193 H   0  0  0  0  0  0  0  0  0  0  0  0
    0.0572    3.8984   -2.9196 H   0  0  0  0  0  0  0  0  0  0  0  0
  1  2  1  1  0  0  0
  3  1  1  0  0  0  0
  3  8  1  0  0  0  0
  4  3  1  0  0  0  0
  5 11  1  1  0  0  0
  5  4  1  0  0  0  0
  5  6  1  0  0  0  0
  6  7  1  0  0  0  0
  6  8  2  0  0  0  0
  8  9  1  0  0  0  0
 10 11  1  0  0  0  0
 12 11  2  0  0  0  0
 12 13  1  0  0  0  0
 14 12  1  0  0  0  0
 15 14  1  0  0  0  0
 16 18  1  0  0  0  0
 16 14  2  0  0  0  0
 17 16  1  0  0  0  0
 18 10  2  0  0  0  0
 19 18  1  0  0  0  0
 20  1  1  0  0  0  0
 20 31  1  0  0  0  0
 21  1  1  0  0  0  0
 21 30  1  0  0  0  0
 22 20  1  0  0  0  0
 23 21  1  0  0  0  0
 24 36  1  1  0  0  0
 24 23  1  0  0  0  0
 24 26  1  0  0  0  0
 25 37  1  1  0  0  0
 25 22  1  0  0  0  0
 25 27  1  0  0  0  0
 26 28  1  0  0  0  0
 26 30  2  0  0  0  0
 27 29  1  0  0  0  0
 27 31  2  0  0  0  0
 30 32  1  0  0  0  0
 31 33  1  0  0  0  0
 34 36  1  0  0  0  0
 35 37  1  0  0  0  0
 38 36  2  0  0  0  0
 38 40  1  0  0  0  0
 39 37  2  0  0  0  0
 39 41  1  0  0  0  0
 42 38  1  0  0  0  0
 43 39  1  0  0  0  0
 44 42  1  0  0  0  0
 45 43  1  0  0  0  0
 46 50  1  0  0  0  0
 46 42  2  0  0  0  0
 47 51  1  0  0  0  0
 47 43  2  0  0  0  0
 48 46  1  0  0  0  0
 49 47  1  0  0  0  0
 50 34  2  0  0  0  0
 51 35  2  0  0  0  0
 52 50  1  0  0  0  0
 53 51  1  0  0  0  0
M  END
