1,2,3
q = -1.0

 45 47  0  0  0  0  0  0  0  0999 V2000
   -1.9130    0.0105    1.1921 N   0  0  0  0  0  0  0  0  0  0  0  0
   -1.7292    2.1769   -0.1746 N   0  0  0  0  0  0  0  0  0  0  0  0
   -2.0426   -2.0966   -0.2759 N   0  0  0  0  0  0  0  0  0  0  0  0
   -1.9829    1.1207    1.9923 C   0  0  0  0  0  3  0  0  0  0  0  0
   -2.3450    0.7169    3.2833 C   0  0  0  0  0  0  0  0  0  0  0  0
   -2.4983    1.3615    4.1576 H   0  0  0  0  0  0  0  0  0  0  0  0
   -2.4783   -0.7156    3.2444 C   0  0  0  0  0  0  0  0  0  0  0  0
   -2.7465   -1.3679    4.0847 H   0  0  0  0  0  0  0  0  0  0  0  0
   -2.1885   -1.1089    1.9328 C   0  0  0  0  0  0  0  0  0  0  0  0
   -1.5294    2.3714    1.3010 C   0  0  0  0  0  0  0  0  0  0  0  0
   -0.4400    2.5361    1.4494 H   0  0  0  0  0  0  0  0  0  0  0  0
   -2.0469    3.2827    1.6691 H   0  0  0  0  0  0  0  0  0  0  0  0
   -1.9090   -2.3805    1.1926 C   0  0  0  0  0  0  0  0  0  0  0  0
   -2.5583   -3.2235    1.5106 H   0  0  0  0  0  0  0  0  0  0  0  0
   -0.8560   -2.6966    1.3604 H   0  0  0  0  0  0  0  0  0  0  0  0
   -0.8314    3.0349   -1.0007 C   0  0  0  0  0  0  0  0  0  0  0  0
    0.2072    2.8517   -0.6674 H   0  0  0  0  0  0  0  0  0  0  0  0
   -0.9131    2.6606   -2.0435 H   0  0  0  0  0  0  0  0  0  0  0  0
   -1.1942    4.5211   -0.9500 C   0  0  0  0  0  0  0  0  0  0  0  0
   -0.5004    5.0754   -1.6151 H   0  0  0  0  0  0  0  0  0  0  0  0
   -1.0200    4.9166    0.0746 H   0  0  0  0  0  0  0  0  0  0  0  0
   -2.6539    4.7396   -1.3652 C   0  0  0  0  0  0  0  0  0  0  0  0
   -2.9351    5.8096   -1.2803 H   0  0  0  0  0  0  0  0  0  0  0  0
   -2.7711    4.4647   -2.4373 H   0  0  0  0  0  0  0  0  0  0  0  0
   -3.5876    3.8671   -0.5168 C   0  0  0  0  0  0  0  0  0  0  0  0
   -4.6349    3.9355   -0.8772 H   0  0  0  0  0  0  0  0  0  0  0  0
   -3.6000    4.2368    0.5315 H   0  0  0  0  0  0  0  0  0  0  0  0
   -3.1617    2.3948   -0.5534 C   0  0  0  0  0  0  0  0  0  0  0  0
   -3.7795    1.7790    0.1308 H   0  0  0  0  0  0  0  0  0  0  0  0
   -3.2874    1.9892   -1.5791 H   0  0  0  0  0  0  0  0  0  0  0  0
   -1.2494   -3.0316   -1.1243 C   0  0  0  0  0  0  0  0  0  0  0  0
   -0.2033   -2.9993   -0.7625 H   0  0  0  0  0  0  0  0  0  0  0  0
   -1.2535   -2.6043   -2.1498 H   0  0  0  0  0  0  0  0  0  0  0  0
   -1.8122   -4.4554   -1.1530 C   0  0  0  0  0  0  0  0  0  0  0  0
   -1.1866   -5.0702   -1.8326 H   0  0  0  0  0  0  0  0  0  0  0  0
   -1.7244   -4.9181   -0.1456 H   0  0  0  0  0  0  0  0  0  0  0  0
   -3.2771   -4.4504   -1.6062 C   0  0  0  0  0  0  0  0  0  0  0  0
   -3.3287   -4.1093   -2.6643 H   0  0  0  0  0  0  0  0  0  0  0  0
   -3.7017   -5.4753   -1.5829 H   0  0  0  0  0  0  0  0  0  0  0  0
   -4.1044   -3.5020   -0.7299 C   0  0  0  0  0  0  0  0  0  0  0  0
   -5.1426   -3.4105   -1.1108 H   0  0  0  0  0  0  0  0  0  0  0  0
   -4.1905   -3.9168    0.2978 H   0  0  0  0  0  0  0  0  0  0  0  0
   -3.4829   -2.1014   -0.6877 C   0  0  0  0  0  0  0  0  0  0  0  0
   -3.5317   -1.6352   -1.6936 H   0  0  0  0  0  0  0  0  0  0  0  0
   -4.0253   -1.4394    0.0171 H   0  0  0  0  0  0  0  0  0  0  0  0
  1  9  2  0  0  0  0
  1  4  1  0  0  0  0
  2 10  1  0  0  0  0
  3 13  1  0  0  0  0
  4  5  1  0  0  0  0
  5  6  1  0  0  0  0
  7  5  2  0  0  0  0
  7  8  1  0  0  0  0
  9  7  1  0  0  0  0
 10 11  1  0  0  0  0
 10 12  1  0  0  0  0
 10  4  1  0  0  0  0
 13 15  1  0  0  0  0
 13 14  1  0  0  0  0
 13  9  1  0  0  0  0
 16 19  1  0  0  0  0
 16 17  1  0  0  0  0
 16  2  1  0  0  0  0
 18 16  1  0  0  0  0
 19 21  1  0  0  0  0
 20 19  1  0  0  0  0
 22 23  1  0  0  0  0
 22 19  1  0  0  0  0
 22 25  1  0  0  0  0
 24 22  1  0  0  0  0
 25 27  1  0  0  0  0
 26 25  1  0  0  0  0
 28 25  1  0  0  0  0
 28  2  1  0  0  0  0
 28 29  1  0  0  0  0
 30 28  1  0  0  0  0
 31 32  1  0  0  0  0
 31  3  1  0  0  0  0
 33 31  1  0  0  0  0
 34 31  1  0  0  0  0
 34 36  1  0  0  0  0
 35 34  1  0  0  0  0
 37 39  1  0  0  0  0
 37 34  1  0  0  0  0
 37 40  1  0  0  0  0
 38 37  1  0  0  0  0
 40 43  1  0  0  0  0
 40 42  1  0  0  0  0
 41 40  1  0  0  0  0
 43  3  1  0  0  0  0
 43 45  1  0  0  0  0
 44 43  1  0  0  0  0
M  END
