36,37,38
q = 0.0, confidence = 0.988

 38 40  0  0  1  0  0  0  0  0999 V2000
    0.3742   -0.0077    2.0418 C   0  0  0  0  0  0  0  0  0  0  0  0
    2.3544    1.3296    2.5478 C   0  0  0  0  0  0  0  0  0  0  0  0
    2.8263    2.3203    2.6283 H   0  0  0  0  0  0  0  0  0  0  0  0
    1.0062    1.2476    2.1788 C   0  0  0  0  0  0  0  0  0  0  0  0
    0.4669    2.1751    1.9489 H   0  0  0  0  0  0  0  0  0  0  0  0
    1.1242   -1.1711    2.3079 C   0  0  0  0  0  0  0  0  0  0  0  0
    0.6858   -2.1695    2.2025 H   0  0  0  0  0  0  0  0  0  0  0  0
    2.4763   -1.0769    2.6713 C   0  0  0  0  0  0  0  0  0  0  0  0
    3.0421   -2.0042    2.8435 H   0  0  0  0  0  0  0  0  0  0  0  0
    3.1037    0.1689    2.7908 C   0  0  0  0  0  0  0  0  0  0  0  0
    4.1682    0.2360    3.0573 H   0  0  0  0  0  0  0  0  0  0  0  0
   -4.1419   -1.9752    1.2543 C   0  0  0  0  0  0  0  0  0  0  0  0
   -4.2927   -2.3871    2.2630 H   0  0  0  0  0  0  0  0  0  0  0  0
   -3.6586   -0.8925   -1.2411 C   0  0  0  0  0  3  0  0  0  0  0  0
   -3.3773   -0.4697   -2.2185 H   0  0  0  0  0  0  0  0  0  0  0  0
   -1.7282   -1.3275    1.8433 C   0  0  0  0  0  0  0  0  0  0  0  0
   -2.0161   -1.3812    2.9161 H   0  0  0  0  0  0  0  0  0  0  0  0
   -1.0671   -2.1769    1.5905 H   0  0  0  0  0  0  0  0  0  0  0  0
   -2.9110   -1.4058    0.9200 C   0  0  0  0  0  0  0  0  0  0  0  0
   -4.9082   -1.4595   -0.9737 C   0  0  0  0  0  0  0  0  0  0  0  0
   -5.6743   -1.4624   -1.7623 H   0  0  0  0  0  0  0  0  0  0  0  0
   -5.1630   -2.0130    0.2899 C   0  0  0  0  0  0  0  0  0  0  0  0
   -6.1385   -2.4631    0.5250 H   0  0  0  0  0  0  0  0  0  0  0  0
   -1.8641    3.5294    0.9382 C   0  0  0  0  0  0  0  0  0  0  0  0
   -2.1036    3.8939    1.9483 H   0  0  0  0  0  0  0  0  0  0  0  0
   -1.6685    2.1619    0.7275 C   0  0  1  0  0  3  0  0  0  0  0  0
   -1.7396    4.4169   -0.1447 C   0  0  0  0  0  0  0  0  0  0  0  0
   -1.8868    5.4975   -0.0031 H   0  0  0  0  0  0  0  0  0  0  0  0
   -1.4099    3.8885   -1.4018 C   0  0  0  0  0  0  0  0  0  0  0  0
   -1.2920    4.5392   -2.2804 H   0  0  0  0  0  0  0  0  0  0  0  0
   -1.8107    1.1276    1.8133 C   0  0  0  0  0  0  0  0  0  0  0  0
   -1.5732    1.5460    2.8135 H   0  0  0  0  0  0  0  0  0  0  0  0
   -2.8685    0.7971    1.8428 H   0  0  0  0  0  0  0  0  0  0  0  0
   -1.2221    2.5108   -1.5452 C   0  0  0  0  0  0  0  0  0  0  0  0
   -0.9746    2.0217   -2.5020 H   0  0  0  0  0  0  0  0  0  0  0  0
   -1.3613    1.6534   -0.5009 N   0  0  0  0  0  2  0  0  0  0  0  0
   -0.9810   -0.0797    1.5286 N   0  0  0  0  0  0  0  0  0  0  0  0
   -2.6708   -0.8705   -0.3126 N   0  0  0  0  0  2  0  0  0  0  0  0
  1  4  2  0  0  0  0
  1  6  1  0  0  0  0
  2  3  1  0  0  0  0
  2 10  2  0  0  0  0
  4  2  1  0  0  0  0
  5  4  1  0  0  0  0
  6  8  2  0  0  0  0
  7  6  1  0  0  0  0
  8 10  1  0  0  0  0
  8  9  1  0  0  0  0
 10 11  1  0  0  0  0
 12 13  1  0  0  0  0
 14 20  1  0  0  0  0
 14 38  1  0  0  0  0
 15 14  1  0  0  0  0
 16 17  1  0  0  0  0
 18 16  1  0  0  0  0
 19 12  2  0  0  0  0
 19 16  1  0  0  0  0
 20 22  2  0  0  0  0
 21 20  1  0  0  0  0
 22 23  1  0  0  0  0
 22 12  1  0  0  0  0
 24 25  1  0  0  0  0
 26 24  1  0  0  0  0
 26 31  1  6  0  0  0
 27 28  1  0  0  0  0
 27 24  2  0  0  0  0
 29 27  1  0  0  0  0
 30 29  1  0  0  0  0
 31 33  1  0  0  0  0
 31 32  1  0  0  0  0
 34 29  2  0  0  0  0
 34 36  1  0  0  0  0
 35 34  1  0  0  0  0
 36 26  1  0  0  0  0
 37 31  1  0  0  0  0
 37 16  1  0  0  0  0
 37  1  1  0  0  0  0
 38 19  1  0  0  0  0
M  END
