1,17,27
q = -1.0

 27 29  0  0  0  0  0  0  0  0999 V2000
   -1.3058   -0.9235    0.0000 N   0  0  0  0  0  2  0  0  0  0  0  0
   -1.9626   -2.0859   -0.0002 C   0  0  0  0  0  0  0  0  0  0  0  0
   -1.3212   -2.9832   -0.0001 H   0  0  0  0  0  0  0  0  0  0  0  0
   -3.3771   -2.1356   -0.0004 C   0  0  0  0  0  0  0  0  0  0  0  0
   -3.8756   -3.1152   -0.0005 H   0  0  0  0  0  0  0  0  0  0  0  0
   -4.1079   -0.9565   -0.0004 C   0  0  0  0  0  0  0  0  0  0  0  0
   -5.2086   -0.9738   -0.0005 H   0  0  0  0  0  0  0  0  0  0  0  0
   -3.4324    0.2990   -0.0002 C   0  0  0  0  0  0  0  0  0  0  0  0
   -2.0016    0.2702    0.0000 C   0  0  0  0  0  0  0  0  0  0  0  0
   -1.2377    1.4909    0.0001 C   0  0  0  0  0  0  0  0  0  0  0  0
   -1.9216    2.7141    0.0000 C   0  0  0  0  0  0  0  0  0  0  0  0
   -1.3617    3.6598    0.0000 H   0  0  0  0  0  0  0  0  0  0  0  0
   -3.3359    2.7364   -0.0001 C   0  0  0  0  0  0  0  0  0  0  0  0
   -3.8492    3.7097   -0.0002 H   0  0  0  0  0  0  0  0  0  0  0  0
   -4.0865    1.5644   -0.0002 C   0  0  0  0  0  3  0  0  0  0  0  0
   -5.1857    1.5989   -0.0004 H   0  0  0  0  0  0  0  0  0  0  0  0
    0.1344    1.2923    0.0001 N   0  0  0  0  0  2  0  0  0  0  0  0
    1.1388    2.1734    0.0000 C   0  0  0  0  0  3  0  0  0  0  0  0
    0.9549    3.2615   -0.0000 H   0  0  0  0  0  0  0  0  0  0  0  0
    2.4355    1.6272   -0.0002 C   0  0  0  0  0  0  0  0  0  0  0  0
    3.7608    2.1550   -0.0004 C   0  0  0  0  0  0  0  0  0  0  0  0
    4.0347    3.2164   -0.0004 H   0  0  0  0  0  0  0  0  0  0  0  0
    4.6205    1.0523   -0.0005 C   0  0  0  0  0  0  0  0  0  0  0  0
    5.7166    1.0683   -0.0006 H   0  0  0  0  0  0  0  0  0  0  0  0
    3.8059   -0.1235   -0.0004 C   0  0  0  0  0  0  0  0  0  0  0  0
    4.1020   -1.1801   -0.0004 H   0  0  0  0  0  0  0  0  0  0  0  0
    2.5126    0.2205   -0.0003 N   0  0  0  0  0  2  0  0  0  0  0  0
  1  9  1  0  0  0  0
  2  3  1  0  0  0  0
  2  1  1  0  0  0  0
  4  2  2  0  0  0  0
  5  4  1  0  0  0  0
  6  4  1  0  0  0  0
  6  8  2  0  0  0  0
  7  6  1  0  0  0  0
  8  9  1  0  0  0  0
  9 10  2  0  0  0  0
 11 10  1  0  0  0  0
 12 11  1  0  0  0  0
 13 11  2  0  0  0  0
 14 13  1  0  0  0  0
 15  8  1  0  0  0  0
 15 13  1  0  0  0  0
 16 15  1  0  0  0  0
 17 10  1  0  0  0  0
 18 17  1  0  0  0  0
 19 18  1  0  0  0  0
 20 18  1  0  0  0  0
 21 20  2  0  0  0  0
 22 21  1  0  0  0  0
 23 25  2  0  0  0  0
 23 21  1  0  0  0  0
 24 23  1  0  0  0  0
 25 27  1  0  0  0  0
 26 25  1  0  0  0  0
 27 20  1  0  0  0  0
M  END
