3,4,5
q = 0.0, confidence = 0.91

 72 75  0  0  1  0  0  0  0  0999 V2000
   -5.0329    0.0231   -0.9527 O   0  0  0  0  0  0  0  0  0  0  0  0
   -5.8776    1.2390    0.8150 O   0  0  0  0  0  0  0  0  0  0  0  0
    3.3318   -0.0838   -0.1943 N   0  0  0  0  0  2  0  0  0  0  0  0
    1.8963   -2.0782   -0.4499 N   0  0  0  0  0  2  0  0  0  0  0  0
   -0.1945   -1.4353    0.6592 N   0  0  0  0  0  2  0  0  0  0  0  0
    3.9736   -1.0768   -0.8072 C   0  0  0  0  0  0  0  0  0  0  0  0
    3.1642   -2.2694   -0.9588 C   0  0  0  0  0  0  0  0  0  0  0  0
    3.4931   -3.4863   -1.5813 C   0  0  0  0  0  0  0  0  0  0  0  0
    4.5042   -3.6307   -1.9867 H   0  0  0  0  0  0  0  0  0  0  0  0
    2.5234   -4.4982   -1.6765 C   0  0  0  0  0  0  0  0  0  0  0  0
    2.7686   -5.4512   -2.1664 H   0  0  0  0  0  0  0  0  0  0  0  0
    1.2425   -4.2952   -1.1351 C   0  0  0  0  0  0  0  0  0  0  0  0
    0.4754   -5.0799   -1.1887 H   0  0  0  0  0  0  0  0  0  0  0  0
    0.9428   -3.0746   -0.5059 C   0  0  0  0  0  0  0  0  0  0  0  0
   -0.2867   -2.6559    0.1418 C   0  0  1  0  0  3  0  0  0  0  0  0
    5.3681   -0.9983   -1.3468 C   0  0  0  0  0  0  0  0  0  0  0  0
    5.8347   -0.0274   -1.1012 H   0  0  0  0  0  0  0  0  0  0  0  0
    5.3834   -1.1278   -2.4497 H   0  0  0  0  0  0  0  0  0  0  0  0
    5.9895   -1.8112   -0.9167 H   0  0  0  0  0  0  0  0  0  0  0  0
   -1.4941   -3.5398    0.2085 C   0  0  0  0  0  0  0  0  0  0  0  0
   -2.1980   -3.1957    0.9878 H   0  0  0  0  0  0  0  0  0  0  0  0
   -1.1941   -4.5830    0.4327 H   0  0  0  0  0  0  0  0  0  0  0  0
   -2.0414   -3.5542   -0.7580 H   0  0  0  0  0  0  0  0  0  0  0  0
    3.8760    1.2391   -0.2198 C   0  0  0  0  0  0  0  0  0  0  0  0
    3.8020    1.9719   -1.4347 C   0  0  0  0  0  0  0  0  0  0  0  0
    4.2893    3.2895   -1.4471 C   0  0  0  0  0  0  0  0  0  0  0  0
    4.2227    3.8638   -2.3856 H   0  0  0  0  0  0  0  0  0  0  0  0
    4.8500    3.8931   -0.3078 C   0  0  0  0  0  0  0  0  0  0  0  0
    4.9235    3.1297    0.8701 C   0  0  0  0  0  0  0  0  0  0  0  0
    5.3761    3.5718    1.7727 H   0  0  0  0  0  0  0  0  0  0  0  0
    4.4401    1.8110    0.9463 C   0  0  0  0  0  0  0  0  0  0  0  0
    3.2208    1.3616   -2.6845 C   0  0  0  0  0  0  0  0  0  0  0  0
    2.2844    0.8178   -2.4535 H   0  0  0  0  0  0  0  0  0  0  0  0
    3.9242    0.6465   -3.1627 H   0  0  0  0  0  0  0  0  0  0  0  0
    2.9925    2.1455   -3.4314 H   0  0  0  0  0  0  0  0  0  0  0  0
    5.3280    5.3230   -0.3406 C   0  0  0  0  0  0  0  0  0  0  0  0
    6.1384    5.5007    0.3938 H   0  0  0  0  0  0  0  0  0  0  0  0
    4.5021    6.0239   -0.0906 H   0  0  0  0  0  0  0  0  0  0  0  0
    5.7014    5.6073   -1.3445 H   0  0  0  0  0  0  0  0  0  0  0  0
    4.5410    1.0378    2.2319 C   0  0  0  0  0  0  0  0  0  0  0  0
    3.5430    0.8833    2.6899 H   0  0  0  0  0  0  0  0  0  0  0  0
    5.1879    1.5641    2.9595 H   0  0  0  0  0  0  0  0  0  0  0  0
    4.9382    0.0153    2.0737 H   0  0  0  0  0  0  0  0  0  0  0  0
   -1.2953   -0.7860    1.2757 C   0  0  0  0  0  0  0  0  0  0  0  0
   -2.4694   -0.5132    0.5513 C   0  0  0  0  0  0  0  0  0  0  0  0
   -2.5348   -0.8124   -0.5051 H   0  0  0  0  0  0  0  0  0  0  0  0
   -3.5434    0.1746    1.1527 C   0  0  0  0  0  0  0  0  0  0  0  0
   -3.4128    0.5897    2.4971 C   0  0  0  0  0  0  0  0  0  0  0  0
   -4.2460    1.1279    2.9743 H   0  0  0  0  0  0  0  0  0  0  0  0
   -2.2344    0.3337    3.2143 C   0  0  0  0  0  0  0  0  0  0  0  0
   -2.1380    0.6690    4.2584 H   0  0  0  0  0  0  0  0  0  0  0  0
   -1.1678   -0.3434    2.6085 C   0  0  0  0  0  0  0  0  0  0  0  0
   -0.2255   -0.5447    3.1395 H   0  0  0  0  0  0  0  0  0  0  0  0
   -6.2072    0.7116   -1.4700 C   0  0  0  0  0  0  0  0  0  0  0  0
   -6.9677    1.1212   -0.1433 C   0  0  0  0  0  0  0  0  0  0  0  0
   -6.9748   -0.2412   -2.3811 C   0  0  0  0  0  0  0  0  0  0  0  0
   -7.2115   -1.1923   -1.8702 H   0  0  0  0  0  0  0  0  0  0  0  0
   -6.3637   -0.4767   -3.2744 H   0  0  0  0  0  0  0  0  0  0  0  0
   -7.9210    0.2221   -2.7257 H   0  0  0  0  0  0  0  0  0  0  0  0
   -5.6979    1.9191   -2.2659 C   0  0  0  0  0  0  0  0  0  0  0  0
   -4.9925    1.5638   -3.0419 H   0  0  0  0  0  0  0  0  0  0  0  0
   -5.1544    2.6294   -1.6127 H   0  0  0  0  0  0  0  0  0  0  0  0
   -6.5250    2.4601   -2.7657 H   0  0  0  0  0  0  0  0  0  0  0  0
   -7.8990    0.0203    0.3781 C   0  0  0  0  0  0  0  0  0  0  0  0
   -7.3813   -0.9582    0.4148 H   0  0  0  0  0  0  0  0  0  0  0  0
   -8.8052   -0.0833   -0.2501 H   0  0  0  0  0  0  0  0  0  0  0  0
   -8.2152    0.2779    1.4076 H   0  0  0  0  0  0  0  0  0  0  0  0
   -7.7065    2.4540   -0.2137 C   0  0  0  0  0  0  0  0  0  0  0  0
   -8.1987    2.6602    0.7569 H   0  0  0  0  0  0  0  0  0  0  0  0
   -8.4902    2.4276   -0.9972 H   0  0  0  0  0  0  0  0  0  0  0  0
   -7.0172    3.2905   -0.4294 H   0  0  0  0  0  0  0  0  0  0  0  0
   -4.8307    0.4822    0.3328 B   0  0  0  0  0  0  0  0  0  0  0  0
  1 72  1  0  0  0  0
  5 44  1  0  0  0  0
  6  3  1  0  0  0  0
  7  6  2  0  0  0  0
  7  4  1  0  0  0  0
  8  7  1  0  0  0  0
  9  8  1  0  0  0  0
 10  8  2  0  0  0  0
 10 12  1  0  0  0  0
 11 10  1  0  0  0  0
 12 14  2  0  0  0  0
 13 12  1  0  0  0  0
 14  4  1  0  0  0  0
 14 15  1  0  0  0  0
 15 20  1  0  0  0  0
 15  5  1  1  0  0  0
 16 17  1  0  0  0  0
 16 19  1  0  0  0  0
 16  6  1  0  0  0  0
 18 16  1  0  0  0  0
 20 22  1  0  0  0  0
 20 21  1  0  0  0  0
 23 20  1  0  0  0  0
 24  3  1  0  0  0  0
 24 31  1  0  0  0  0
 25 24  2  0  0  0  0
 26 25  1  0  0  0  0
 26 28  2  0  0  0  0
 27 26  1  0  0  0  0
 28 29  1  0  0  0  0
 29 31  2  0  0  0  0
 29 30  1  0  0  0  0
 31 40  1  0  0  0  0
 32 33  1  0  0  0  0
 32 25  1  0  0  0  0
 34 32  1  0  0  0  0
 35 32  1  0  0  0  0
 36 28  1  0  0  0  0
 36 38  1  0  0  0  0
 36 37  1  0  0  0  0
 39 36  1  0  0  0  0
 40 41  1  0  0  0  0
 40 42  1  0  0  0  0
 43 40  1  0  0  0  0
 44 52  1  0  0  0  0
 45 47  1  0  0  0  0
 45 44  2  0  0  0  0
 46 45  1  0  0  0  0
 47 48  2  0  0  0  0
 48 49  1  0  0  0  0
 48 50  1  0  0  0  0
 50 51  1  0  0  0  0
 52 53  1  0  0  0  0
 52 50  2  0  0  0  0
 54  1  1  0  0  0  0
 54 55  1  0  0  0  0
 55 64  1  0  0  0  0
 55  2  1  0  0  0  0
 56 57  1  0  0  0  0
 56 54  1  0  0  0  0
 58 56  1  0  0  0  0
 59 56  1  0  0  0  0
 60 62  1  0  0  0  0
 60 54  1  0  0  0  0
 61 60  1  0  0  0  0
 63 60  1  0  0  0  0
 64 65  1  0  0  0  0
 64 67  1  0  0  0  0
 66 64  1  0  0  0  0
 68 55  1  0  0  0  0
 68 69  1  0  0  0  0
 70 68  1  0  0  0  0
 71 68  1  0  0  0  0
 72  2  1  0  0  0  0
 72 47  1  0  0  0  0
M  END
