1,9,17
q = 0.0, confidence = 0.986

 39 41  0  0  1  0  0  0  0  0999 V2000
    0.3517    0.2228   -0.0740 N   0  0  0  0  0  0  0  0  0  0  0  0
    0.6215    0.2641    0.9197 H   0  0  0  0  0  0  0  0  0  0  0  0
    0.5163   -1.1874   -0.4919 C   0  0  0  0  0  0  0  0  0  0  0  0
    1.3952   -1.6465    0.0061 H   0  0  0  0  0  0  0  0  0  0  0  0
    0.7030   -1.2259   -1.5829 H   0  0  0  0  0  0  0  0  0  0  0  0
   -0.7309   -2.0430   -0.2054 C   0  0  2  0  0  0  0  0  0  0  0  0
   -0.4682   -3.1115   -0.3114 H   0  0  0  0  0  0  0  0  0  0  0  0
   -1.7827   -1.7587   -1.1630 N   0  0  0  0  0  0  0  0  0  0  0  0
   -2.2420   -0.4879   -1.2490 N   0  0  0  0  0  2  0  0  0  0  0  0
   -3.1415   -0.4859   -2.2506 C   0  0  0  0  0  3  0  0  0  0  0  0
   -3.6729    0.4368   -2.5111 H   0  0  0  0  0  0  0  0  0  0  0  0
   -3.2523   -1.7748   -2.8167 C   0  0  0  0  0  0  0  0  0  0  0  0
   -3.8989   -2.0868   -3.6428 H   0  0  0  0  0  0  0  0  0  0  0  0
   -2.3667   -2.5698   -2.0956 C   0  0  0  0  0  0  0  0  0  0  0  0
   -2.1071   -3.6316   -2.1742 H   0  0  0  0  0  0  0  0  0  0  0  0
   -1.2346   -1.8503    1.1455 N   0  0  0  0  0  0  0  0  0  0  0  0
   -1.7137   -0.6262    1.4937 N   0  0  0  0  0  2  0  0  0  0  0  0
   -2.1613   -0.7501    2.7564 C   0  0  0  0  0  3  0  0  0  0  0  0
   -2.6020    0.1131    3.2687 H   0  0  0  0  0  0  0  0  0  0  0  0
   -1.9700   -2.0696    3.2230 C   0  0  0  0  0  0  0  0  0  0  0  0
   -2.2303   -2.4735    4.2063 H   0  0  0  0  0  0  0  0  0  0  0  0
   -1.3813   -2.7517    2.1633 C   0  0  0  0  0  0  0  0  0  0  0  0
   -1.0551   -3.7925    2.0566 H   0  0  0  0  0  0  0  0  0  0  0  0
    1.2972    1.1362   -0.7964 C   0  0  0  0  0  0  0  0  0  0  0  0
    1.1228    2.1518   -0.3907 H   0  0  0  0  0  0  0  0  0  0  0  0
    0.9987    1.1508   -1.8626 H   0  0  0  0  0  0  0  0  0  0  0  0
    2.7430    0.7327   -0.6289 C   0  0  0  0  0  0  0  0  0  0  0  0
    3.4723    0.1687   -1.6935 C   0  0  0  0  0  0  0  0  0  0  0  0
    3.0016    0.0659   -2.6844 H   0  0  0  0  0  0  0  0  0  0  0  0
    4.7989   -0.2429   -1.5018 C   0  0  0  0  0  0  0  0  0  0  0  0
    5.3737   -0.6749   -2.3369 H   0  0  0  0  0  0  0  0  0  0  0  0
    5.4055   -0.1042   -0.2404 C   0  0  0  0  0  0  0  0  0  0  0  0
    4.6818    0.4653    0.8287 C   0  0  0  0  0  0  0  0  0  0  0  0
    5.1913    0.5760    1.7982 H   0  0  0  0  0  0  0  0  0  0  0  0
    3.3651    0.8855    0.6324 C   0  0  0  0  0  0  0  0  0  0  0  0
    2.8147    1.3598    1.4630 H   0  0  0  0  0  0  0  0  0  0  0  0
    6.8147   -0.5488   -0.0196 C   0  0  0  0  0  0  0  0  0  0  0  0
    7.3254   -0.9677   -0.9370 H   0  0  0  0  0  0  0  0  0  0  0  0
    7.3831   -0.4772    1.0532 O   0  0  0  0  0  0  0  0  0  0  0  0
  1  2  1  0  0  0  0
  3  6  1  0  0  0  0
  3  1  1  0  0  0  0
  3  4  1  0  0  0  0
  5  3  1  0  0  0  0
  6  7  1  6  0  0  0
  6 16  1  0  0  0  0
  8  6  1  0  0  0  0
  9  8  1  0  0  0  0
 10  9  1  0  0  0  0
 11 10  1  0  0  0  0
 12 10  1  0  0  0  0
 12 14  2  0  0  0  0
 13 12  1  0  0  0  0
 14  8  1  0  0  0  0
 15 14  1  0  0  0  0
 16 17  1  0  0  0  0
 16 22  1  0  0  0  0
 17 18  1  0  0  0  0
 18 20  1  0  0  0  0
 18 19  1  0  0  0  0
 20 21  1  0  0  0  0
 22 20  2  0  0  0  0
 23 22  1  0  0  0  0
 24 27  1  0  0  0  0
 24 25  1  0  0  0  0
 24  1  1  0  0  0  0
 26 24  1  0  0  0  0
 27 35  1  0  0  0  0
 28 30  1  0  0  0  0
 28 27  2  0  0  0  0
 29 28  1  0  0  0  0
 30 32  2  0  0  0  0
 31 30  1  0  0  0  0
 32 37  1  0  0  0  0
 32 33  1  0  0  0  0
 33 34  1  0  0  0  0
 35 33  2  0  0  0  0
 35 36  1  0  0  0  0
 37 39  2  0  0  0  0
 38 37  1  0  0  0  0
M  END
