2,3,4
q = 0.0, confidence = 0.988

 43 46  0  0  1  0  0  0  0  0999 V2000
   -9.6349    0.5092    0.2357 S   0  0  0  0  0  0  0  0  0  0  0  0
    0.7405   -1.1201   -1.7881 N   0  0  0  0  0  2  0  0  0  0  0  0
   -0.7915   -0.3849    0.1390 N   0  0  0  0  0  2  0  0  0  0  0  0
    0.8162   -0.1534    2.1296 N   0  0  0  0  0  2  0  0  0  0  0  0
    1.6314   -1.4800   -2.7390 C   0  0  0  0  0  3  0  0  0  0  0  0
    2.6792   -1.5431   -2.4113 H   0  0  0  0  0  0  0  0  0  0  0  0
    1.2535   -1.7677   -4.0525 C   0  0  0  0  0  0  0  0  0  0  0  0
    2.0185   -2.0591   -4.7857 H   0  0  0  0  0  0  0  0  0  0  0  0
   -0.1040   -1.6865   -4.4041 C   0  0  0  0  0  0  0  0  0  0  0  0
   -0.4346   -1.9111   -5.4283 H   0  0  0  0  0  0  0  0  0  0  0  0
   -1.0326   -1.3188   -3.4251 C   0  0  0  0  0  0  0  0  0  0  0  0
   -2.1017   -1.2494   -3.6680 H   0  0  0  0  0  0  0  0  0  0  0  0
   -0.5983   -1.0384   -2.1192 C   0  0  0  0  0  0  0  0  0  0  0  0
   -1.4826   -0.6419   -1.0126 C   0  0  2  0  0  3  0  0  0  0  0  0
   -2.8754   -0.5131   -1.0362 C   0  0  0  0  0  0  0  0  0  0  0  0
   -3.4217   -0.6906   -1.9718 H   0  0  0  0  0  0  0  0  0  0  0  0
   -3.5849   -0.1393    0.1326 C   0  0  0  0  0  0  0  0  0  0  0  0
   -2.8286    0.0778    1.3121 C   0  0  0  0  0  0  0  0  0  0  0  0
   -3.3437    0.3088    2.2537 H   0  0  0  0  0  0  0  0  0  0  0  0
   -1.4365   -0.0590    1.2999 C   0  0  0  0  0  0  0  0  0  0  0  0
   -0.5097    0.0885    2.4326 C   0  0  2  0  0  3  0  0  0  0  0  0
   -0.8941    0.4471    3.7350 C   0  0  0  0  0  0  0  0  0  0  0  0
   -1.9540    0.6324    3.9564 H   0  0  0  0  0  0  0  0  0  0  0  0
    0.0721    0.5609    4.7398 C   0  0  0  0  0  0  0  0  0  0  0  0
   -0.2195    0.8368    5.7633 H   0  0  0  0  0  0  0  0  0  0  0  0
    1.4162    0.3113    4.4173 C   0  0  0  0  0  0  0  0  0  0  0  0
    2.2094    0.3822    5.1746 H   0  0  0  0  0  0  0  0  0  0  0  0
    1.7438   -0.0438    3.1068 C   0  0  0  0  0  0  0  0  0  0  0  0
    2.7792   -0.2629    2.8083 H   0  0  0  0  0  0  0  0  0  0  0  0
   -5.0527   -0.0002    0.1299 C   0  0  0  0  0  0  0  0  0  0  0  0
   -5.8631   -0.7601   -0.7443 C   0  0  0  0  0  0  0  0  0  0  0  0
   -5.4005   -1.4970   -1.4181 H   0  0  0  0  0  0  0  0  0  0  0  0
   -7.2559   -0.6417   -0.7449 C   0  0  0  0  0  0  0  0  0  0  0  0
   -7.8420   -1.2691   -1.4293 H   0  0  0  0  0  0  0  0  0  0  0  0
   -7.8961    0.2601    0.1350 C   0  0  0  0  0  0  0  0  0  0  0  0
   -7.0938    1.0312    1.0134 C   0  0  0  0  0  0  0  0  0  0  0  0
   -7.5730    1.7480    1.6976 H   0  0  0  0  0  0  0  0  0  0  0  0
   -5.7075    0.8974    1.0106 C   0  0  0  0  0  0  0  0  0  0  0  0
   -5.1152    1.5323    1.6867 H   0  0  0  0  0  0  0  0  0  0  0  0
  -10.3026   -0.6242   -1.0116 C   0  0  0  0  0  0  0  0  0  0  0  0
   -9.9478   -0.3677   -2.0291 H   0  0  0  0  0  0  0  0  0  0  0  0
  -11.3999   -0.4892   -0.9722 H   0  0  0  0  0  0  0  0  0  0  0  0
  -10.0647   -1.6796   -0.7738 H   0  0  0  0  0  0  0  0  0  0  0  0
  3 20  1  0  0  0  0
  4 21  1  0  0  0  0
  4 28  1  0  0  0  0
  5  6  1  0  0  0  0
  5  2  1  0  0  0  0
  7  5  1  0  0  0  0
  8  7  1  0  0  0  0
  9  7  2  0  0  0  0
  9 11  1  0  0  0  0
 10  9  1  0  0  0  0
 11 13  2  0  0  0  0
 12 11  1  0  0  0  0
 13  2  1  0  0  0  0
 14 13  1  6  0  0  0
 14  3  1  0  0  0  0
 15 14  1  0  0  0  0
 15 17  2  0  0  0  0
 16 15  1  0  0  0  0
 17 18  1  0  0  0  0
 18 19  1  0  0  0  0
 20 18  2  0  0  0  0
 21 20  1  6  0  0  0
 21 22  1  0  0  0  0
 22 23  1  0  0  0  0
 22 24  2  0  0  0  0
 24 25  1  0  0  0  0
 26 24  1  0  0  0  0
 26 27  1  0  0  0  0
 28 26  2  0  0  0  0
 29 28  1  0  0  0  0
 30 17  1  0  0  0  0
 30 38  1  0  0  0  0
 31 30  2  0  0  0  0
 32 31  1  0  0  0  0
 33 31  1  0  0  0  0
 33 35  2  0  0  0  0
 34 33  1  0  0  0  0
 35  1  1  0  0  0  0
 35 36  1  0  0  0  0
 36 37  1  0  0  0  0
 38 36  2  0  0  0  0
 38 39  1  0  0  0  0
 40 42  1  0  0  0  0
 40 43  1  0  0  0  0
 40  1  1  0  0  0  0
 41 40  1  0  0  0  0
M  END
