1,2,3
q = 0.0, confidence = 0.988

 50 52  0  0  1  0  0  0  0  0999 V2000
   -1.7819    1.5668   -0.0758 N   0  0  0  0  0  2  0  0  0  0  0  0
   -2.2626   -1.6436    0.1934 N   0  0  0  0  0  0  0  0  0  0  0  0
    0.4375   -1.6259    0.1205 N   0  0  0  0  0  0  0  0  0  0  0  0
   -2.2954   -2.4401   -1.0491 C   0  0  0  0  0  0  0  0  0  0  0  0
   -0.9885   -3.1975   -1.2901 C   0  0  0  0  0  0  0  0  0  0  0  0
    0.2999   -2.3799   -1.1723 C   0  0  0  0  0  0  0  0  0  0  0  0
   -0.1038   -2.4125    1.2595 C   0  0  0  0  0  0  0  0  0  0  0  0
   -1.6654   -2.3658    1.3279 C   0  0  0  0  0  0  0  0  0  0  0  0
   -3.5545   -1.0126    0.5020 C   0  0  0  0  0  0  0  0  0  0  0  0
   -3.4256    0.3146    1.2866 C   0  0  0  0  0  0  0  0  0  0  0  0
   -3.0370    1.5214    0.4655 C   0  0  1  0  0  3  0  0  0  0  0  0
   -3.9373    2.5801    0.2572 C   0  0  0  0  0  0  0  0  0  0  0  0
   -3.5548    3.6908   -0.5059 C   0  0  0  0  0  0  0  0  0  0  0  0
   -2.2645    3.7220   -1.0546 C   0  0  0  0  0  0  0  0  0  0  0  0
   -1.4116    2.6433   -0.8158 C   0  0  0  0  0  0  0  0  0  0  0  0
    1.8540   -1.2344    0.3545 C   0  0  0  0  0  0  0  0  0  0  0  0
    2.3750   -0.2289   -0.6773 C   0  0  0  0  0  0  0  0  0  0  0  0
    3.7112    0.3488   -0.2690 C   0  0  0  0  0  0  0  0  0  0  0  0
    3.7743    1.4084    0.6588 C   0  0  0  0  0  0  0  0  0  0  0  0
    5.0105    1.9204    1.0781 C   0  0  0  0  0  0  0  0  0  0  0  0
    6.2033    1.3762    0.5753 C   0  0  0  0  0  0  0  0  0  0  0  0
    6.1526    0.3214   -0.3487 C   0  0  0  0  0  0  0  0  0  0  0  0
    4.9140   -0.1886   -0.7672 C   0  0  0  0  0  0  0  0  0  0  0  0
   -3.1333   -3.1791   -1.0248 H   0  0  0  0  0  0  0  0  0  0  0  0
   -2.5059   -1.7415   -1.8871 H   0  0  0  0  0  0  0  0  0  0  0  0
   -0.9361   -4.0745   -0.6132 H   0  0  0  0  0  0  0  0  0  0  0  0
   -1.0209   -3.6282   -2.3111 H   0  0  0  0  0  0  0  0  0  0  0  0
    0.3788   -1.6491   -2.0017 H   0  0  0  0  0  0  0  0  0  0  0  0
    1.1675   -3.0739   -1.2687 H   0  0  0  0  0  0  0  0  0  0  0  0
    0.2643   -3.4610    1.2126 H   0  0  0  0  0  0  0  0  0  0  0  0
    0.3175   -1.9730    2.1833 H   0  0  0  0  0  0  0  0  0  0  0  0
   -1.9614   -1.8349    2.2531 H   0  0  0  0  0  0  0  0  0  0  0  0
   -2.0831   -3.3958    1.4154 H   0  0  0  0  0  0  0  0  0  0  0  0
   -4.0703   -0.8138   -0.4591 H   0  0  0  0  0  0  0  0  0  0  0  0
   -4.2133   -1.7099    1.0711 H   0  0  0  0  0  0  0  0  0  0  0  0
   -4.4012    0.5229    1.7668 H   0  0  0  0  0  0  0  0  0  0  0  0
   -2.6992    0.1857    2.1190 H   0  0  0  0  0  0  0  0  0  0  0  0
   -4.9401    2.5280    0.7053 H   0  0  0  0  0  0  0  0  0  0  0  0
   -4.2542    4.5247   -0.6653 H   0  0  0  0  0  0  0  0  0  0  0  0
   -1.9136    4.5739   -1.6536 H   0  0  0  0  0  0  0  0  0  0  0  0
   -0.3858    2.6314   -1.2135 H   0  0  0  0  0  0  0  0  0  0  0  0
    1.9062   -0.7759    1.3623 H   0  0  0  0  0  0  0  0  0  0  0  0
    2.5014   -2.1426    0.3716 H   0  0  0  0  0  0  0  0  0  0  0  0
    2.4588   -0.7002   -1.6775 H   0  0  0  0  0  0  0  0  0  0  0  0
    1.6106    0.5816   -0.7590 H   0  0  0  0  0  0  0  0  0  0  0  0
    2.8406    1.8450    1.0510 H   0  0  0  0  0  0  0  0  0  0  0  0
    5.0441    2.7528    1.7971 H   0  0  0  0  0  0  0  0  0  0  0  0
    7.1740    1.7791    0.9007 H   0  0  0  0  0  0  0  0  0  0  0  0
    7.0837   -0.1055   -0.7506 H   0  0  0  0  0  0  0  0  0  0  0  0
    4.8802   -1.0128   -1.4977 H   0  0  0  0  0  0  0  0  0  0  0  0
  1 11  1  0  0  0  0
  2  9  1  0  0  0  0
  2  8  1  0  0  0  0
  3 16  1  0  0  0  0
  3  7  1  0  0  0  0
  4 24  1  0  0  0  0
  4  2  1  0  0  0  0
  5  6  1  0  0  0  0
  5  4  1  0  0  0  0
  5 26  1  0  0  0  0
  6  3  1  0  0  0  0
  7  8  1  0  0  0  0
  7 31  1  0  0  0  0
  8 33  1  0  0  0  0
  8 32  1  0  0  0  0
  9 35  1  0  0  0  0
  9 10  1  0  0  0  0
 10 36  1  0  0  0  0
 10 37  1  0  0  0  0
 11 10  1  1  0  0  0
 12 11  1  0  0  0  0
 12 38  1  0  0  0  0
 13 12  2  0  0  0  0
 14 15  2  0  0  0  0
 14 13  1  0  0  0  0
 15  1  1  0  0  0  0
 16 43  1  0  0  0  0
 16 42  1  0  0  0  0
 17 18  1  0  0  0  0
 17 16  1  0  0  0  0
 18 19  1  0  0  0  0
 19 46  1  0  0  0  0
 19 20  2  0  0  0  0
 20 47  1  0  0  0  0
 21 48  1  0  0  0  0
 21 20  1  0  0  0  0
 22 21  2  0  0  0  0
 23 22  1  0  0  0  0
 23 18  2  0  0  0  0
 25  4  1  0  0  0  0
 27  5  1  0  0  0  0
 28  6  1  0  0  0  0
 29  6  1  0  0  0  0
 30  7  1  0  0  0  0
 34  9  1  0  0  0  0
 39 13  1  0  0  0  0
 40 14  1  0  0  0  0
 41 15  1  0  0  0  0
 44 17  1  0  0  0  0
 45 17  1  0  0  0  0
 49 22  1  0  0  0  0
 50 23  1  0  0  0  0
M  END
