1,2,3
q = 0.0, confidence = 0.998

 39 39  0  0  1  0  0  0  0  0999 V2000
    1.6402   -0.5616    0.0052 N   0  0  0  0  0  2  0  0  0  0  0  0
   -0.6756    1.6161    0.4246 N   0  0  0  0  0  0  0  0  0  0  0  0
   -2.0833   -1.3089   -0.1650 N   0  0  0  0  0  0  0  0  0  0  0  0
   -1.7602    1.9460   -0.5322 C   0  0  0  0  0  0  0  0  0  0  0  0
   -3.0128    1.0681   -0.4459 C   0  0  0  0  0  0  0  0  0  0  0  0
   -2.9034   -0.3620   -0.9782 C   0  0  0  0  0  0  0  0  0  0  0  0
    0.5673    2.3396    0.0639 C   0  0  0  0  0  0  0  0  0  0  0  0
    1.4075    1.6532   -1.0341 C   0  0  0  0  0  0  0  0  0  0  0  0
    2.2716    0.5272   -0.5230 C   0  0  1  0  0  3  0  0  0  0  0  0
    3.6742    0.5978   -0.5528 C   0  0  0  0  0  0  0  0  0  0  0  0
    4.4392   -0.4540   -0.0319 C   0  0  0  0  0  0  0  0  0  0  0  0
    3.7784   -1.5625    0.5176 C   0  0  0  0  0  0  0  0  0  0  0  0
    2.3825   -1.5778    0.5130 C   0  0  0  0  0  0  0  0  0  0  0  0
   -1.0612    1.9418    1.8076 C   0  0  0  0  0  0  0  0  0  0  0  0
   -1.9441   -2.5838   -0.9101 C   0  0  0  0  0  0  0  0  0  0  0  0
   -2.7260   -1.5844    1.1402 C   0  0  0  0  0  0  0  0  0  0  0  0
   -2.0537    3.0159   -0.3973 H   0  0  0  0  0  0  0  0  0  0  0  0
   -1.3398    1.8677   -1.5573 H   0  0  0  0  0  0  0  0  0  0  0  0
   -3.4348    1.0781    0.5801 H   0  0  0  0  0  0  0  0  0  0  0  0
   -3.7878    1.5663   -1.0643 H   0  0  0  0  0  0  0  0  0  0  0  0
   -2.4587   -0.3429   -1.9951 H   0  0  0  0  0  0  0  0  0  0  0  0
   -3.9278   -0.7918   -1.0875 H   0  0  0  0  0  0  0  0  0  0  0  0
    0.3193    3.3794   -0.2537 H   0  0  0  0  0  0  0  0  0  0  0  0
    1.1859    2.4324    0.9785 H   0  0  0  0  0  0  0  0  0  0  0  0
    0.7422    1.2824   -1.8449 H   0  0  0  0  0  0  0  0  0  0  0  0
    2.0593    2.4163   -1.5015 H   0  0  0  0  0  0  0  0  0  0  0  0
    4.1601    1.4831   -0.9880 H   0  0  0  0  0  0  0  0  0  0  0  0
    5.5381   -0.4091   -0.0558 H   0  0  0  0  0  0  0  0  0  0  0  0
    4.3334   -2.4139    0.9359 H   0  0  0  0  0  0  0  0  0  0  0  0
    1.8232   -2.4352    0.9164 H   0  0  0  0  0  0  0  0  0  0  0  0
   -0.2627    1.6193    2.5029 H   0  0  0  0  0  0  0  0  0  0  0  0
   -1.2323    3.0356    1.9443 H   0  0  0  0  0  0  0  0  0  0  0  0
   -1.9918    1.4147    2.0874 H   0  0  0  0  0  0  0  0  0  0  0  0
   -1.4425   -2.4011   -1.8787 H   0  0  0  0  0  0  0  0  0  0  0  0
   -1.3339   -3.2937   -0.3219 H   0  0  0  0  0  0  0  0  0  0  0  0
   -2.9418   -3.0425   -1.1039 H   0  0  0  0  0  0  0  0  0  0  0  0
   -2.1073   -2.3002    1.7131 H   0  0  0  0  0  0  0  0  0  0  0  0
   -2.8235   -0.6569    1.7325 H   0  0  0  0  0  0  0  0  0  0  0  0
   -3.7404   -2.0238    0.9988 H   0  0  0  0  0  0  0  0  0  0  0  0
  1 13  1  0  0  0  0
  2 14  1  0  0  0  0
  3 16  1  0  0  0  0
  4  5  1  0  0  0  0
  4 17  1  0  0  0  0
  4  2  1  0  0  0  0
  5 19  1  0  0  0  0
  6  5  1  0  0  0  0
  6  3  1  0  0  0  0
  7  2  1  0  0  0  0
  7 24  1  0  0  0  0
  8  7  1  0  0  0  0
  9  8  1  1  0  0  0
  9  1  1  0  0  0  0
 10  9  1  0  0  0  0
 10 11  2  0  0  0  0
 11 12  1  0  0  0  0
 12 29  1  0  0  0  0
 13 12  2  0  0  0  0
 13 30  1  0  0  0  0
 14 32  1  0  0  0  0
 14 33  1  0  0  0  0
 14 31  1  0  0  0  0
 15 35  1  0  0  0  0
 15  3  1  0  0  0  0
 16 37  1  0  0  0  0
 16 38  1  0  0  0  0
 18  4  1  0  0  0  0
 20  5  1  0  0  0  0
 21  6  1  0  0  0  0
 22  6  1  0  0  0  0
 23  7  1  0  0  0  0
 25  8  1  0  0  0  0
 26  8  1  0  0  0  0
 27 10  1  0  0  0  0
 28 11  1  0  0  0  0
 34 15  1  0  0  0  0
 36 15  1  0  0  0  0
 39 16  1  0  0  0  0
M  END
