1,4,5
q = 0.0, confidence = 0.986

 43 47  0  0  0  0  0  0  0  0999 V2000
    1.9825   -0.0049   -0.0175 N   0  0  0  0  0  2  0  0  0  0  0  0
    3.0472   -0.7572   -0.0613 N   0  0  0  0  0  2  0  0  0  0  0  0
    4.0941    0.0840   -0.0042 N   0  0  0  0  0  0  0  0  0  0  0  0
   -0.0000    1.6394    0.0773 N   0  0  0  0  0  2  0  0  0  0  0  0
   -1.9825   -0.0049   -0.0175 N   0  0  0  0  0  2  0  0  0  0  0  0
   -3.0472   -0.7572   -0.0613 N   0  0  0  0  0  2  0  0  0  0  0  0
   -4.0941    0.0840   -0.0042 N   0  0  0  0  0  0  0  0  0  0  0  0
    3.6992    1.3931    0.0753 C   0  0  0  0  0  3  0  0  0  0  0  0
    4.4075    2.2207    0.1636 H   0  0  0  0  0  0  0  0  0  0  0  0
    2.3117    1.3472    0.0622 C   0  0  0  0  0  0  0  0  0  0  0  0
    1.1995    2.2912    0.1183 C   0  0  0  0  0  0  0  0  0  0  0  0
    1.2218    3.6912    0.2049 C   0  0  0  0  0  0  0  0  0  0  0  0
    2.1783    4.2302    0.2385 H   0  0  0  0  0  0  0  0  0  0  0  0
   -0.0000    4.3848    0.2477 C   0  0  0  0  0  0  0  0  0  0  0  0
   -0.0000    5.4819    0.3156 H   0  0  0  0  0  0  0  0  0  0  0  0
   -1.2218    3.6912    0.2049 C   0  0  0  0  0  0  0  0  0  0  0  0
   -2.1784    4.2302    0.2384 H   0  0  0  0  0  0  0  0  0  0  0  0
   -1.1995    2.2912    0.1183 C   0  0  0  0  0  0  0  0  0  0  0  0
   -2.3117    1.3472    0.0621 C   0  0  0  0  0  0  0  0  0  0  0  0
   -3.6992    1.3931    0.0753 C   0  0  0  0  0  0  0  0  0  0  0  0
   -4.4075    2.2207    0.1635 H   0  0  0  0  0  0  0  0  0  0  0  0
    5.4285   -0.4380   -0.0175 C   0  0  0  0  0  0  0  0  0  0  0  0
    6.4774    0.3574   -0.5089 C   0  0  0  0  0  0  0  0  0  0  0  0
    6.2851    1.3580   -0.9220 H   0  0  0  0  0  0  0  0  0  0  0  0
    7.7795   -0.1600   -0.5006 C   0  0  0  0  0  0  0  0  0  0  0  0
    8.6071    0.4524   -0.8869 H   0  0  0  0  0  0  0  0  0  0  0  0
    8.0228   -1.4570   -0.0210 C   0  0  0  0  0  0  0  0  0  0  0  0
    9.0465   -1.8590   -0.0217 H   0  0  0  0  0  0  0  0  0  0  0  0
    6.9597   -2.2432    0.4528 C   0  0  0  0  0  0  0  0  0  0  0  0
    7.1476   -3.2602    0.8267 H   0  0  0  0  0  0  0  0  0  0  0  0
    5.6530   -1.7396    0.4623 C   0  0  0  0  0  0  0  0  0  0  0  0
    4.8109   -2.3384    0.8347 H   0  0  0  0  0  0  0  0  0  0  0  0
   -5.4284   -0.4380   -0.0176 C   0  0  0  0  0  0  0  0  0  0  0  0
   -6.4774    0.3574   -0.5087 C   0  0  0  0  0  0  0  0  0  0  0  0
   -6.2851    1.3581   -0.9217 H   0  0  0  0  0  0  0  0  0  0  0  0
   -7.7795   -0.1600   -0.5005 C   0  0  0  0  0  0  0  0  0  0  0  0
   -8.6071    0.4525   -0.8867 H   0  0  0  0  0  0  0  0  0  0  0  0
   -8.0228   -1.4570   -0.0210 C   0  0  0  0  0  0  0  0  0  0  0  0
   -9.0465   -1.8590   -0.0217 H   0  0  0  0  0  0  0  0  0  0  0  0
   -6.9597   -2.2432    0.4527 C   0  0  0  0  0  0  0  0  0  0  0  0
   -7.1475   -3.2603    0.8264 H   0  0  0  0  0  0  0  0  0  0  0  0
   -5.6530   -1.7397    0.4621 C   0  0  0  0  0  0  0  0  0  0  0  0
   -4.8109   -2.3385    0.8345 H   0  0  0  0  0  0  0  0  0  0  0  0
  1 10  1  0  0  0  0
  2  1  1  0  0  0  0
  2  3  1  0  0  0  0
  3  8  1  0  0  0  0
  4 18  1  0  0  0  0
  4 11  1  0  0  0  0
  5 19  1  0  0  0  0
  6  5  1  0  0  0  0
  6  7  1  0  0  0  0
  7 20  1  0  0  0  0
  8  9  1  0  0  0  0
 10  8  1  0  0  0  0
 10 11  2  0  0  0  0
 11 12  1  0  0  0  0
 12 13  1  0  0  0  0
 12 14  2  0  0  0  0
 14 15  1  0  0  0  0
 16 17  1  0  0  0  0
 16 14  1  0  0  0  0
 18 16  2  0  0  0  0
 19 20  2  0  0  0  0
 19 18  1  0  0  0  0
 20 21  1  0  0  0  0
 22  3  1  0  0  0  0
 22 31  1  0  0  0  0
 23 25  1  0  0  0  0
 23 22  2  0  0  0  0
 24 23  1  0  0  0  0
 25 27  2  0  0  0  0
 26 25  1  0  0  0  0
 27 29  1  0  0  0  0
 28 27  1  0  0  0  0
 29 31  2  0  0  0  0
 29 30  1  0  0  0  0
 31 32  1  0  0  0  0
 33  7  1  0  0  0  0
 33 42  1  0  0  0  0
 34 36  1  0  0  0  0
 34 33  2  0  0  0  0
 35 34  1  0  0  0  0
 36 38  2  0  0  0  0
 37 36  1  0  0  0  0
 38 40  1  0  0  0  0
 39 38  1  0  0  0  0
 40 42  2  0  0  0  0
 40 41  1  0  0  0  0
 42 43  1  0  0  0  0
M  END
