2,4,5
q = -1.0

 32 34  0  0  1  0  0  0  0  0999 V2000
   -3.2464    2.6698    0.8027 O   0  0  0  0  0  0  0  0  0  0  0  0
    1.4917    0.6052   -0.0285 N   0  0  0  0  0  2  0  0  0  0  0  0
   -0.6341    2.8083   -0.0022 N   0  0  0  0  0  0  0  0  0  0  0  0
   -1.2130    1.6532    0.1965 N   0  0  0  0  0  2  0  0  0  0  0  0
   -2.3975   -0.6777   -0.1039 N   0  0  0  0  0  2  0  0  0  0  0  0
    2.5789   -0.1993    0.2732 C   0  0  2  0  0  3  0  0  0  0  0  0
    2.4010   -1.4663    0.8928 C   0  0  0  0  0  0  0  0  0  0  0  0
    3.4973   -2.2665    1.1855 C   0  0  0  0  0  0  0  0  0  0  0  0
    4.8145   -1.8505    0.8667 C   0  0  0  0  0  0  0  0  0  0  0  0
    5.0214   -0.6035    0.2962 C   0  0  0  0  0  0  0  0  0  0  0  0
    3.9226    0.2540    0.0140 C   0  0  0  0  0  0  0  0  0  0  0  0
    4.0990    1.5777   -0.4786 C   0  0  0  0  0  0  0  0  0  0  0  0
    3.0054    2.4032   -0.6001 C   0  0  0  0  0  0  0  0  0  0  0  0
    1.6880    1.9069   -0.3385 C   0  0  0  0  0  0  0  0  0  0  0  0
    0.6258    2.9082   -0.3348 C   0  0  0  0  0  0  0  0  0  0  0  0
   -2.5916    1.6857    0.4966 C   0  0  0  0  0  0  0  0  0  0  0  0
   -3.2059    0.3225    0.3274 C   0  0  1  0  0  3  0  0  0  0  0  0
   -4.5711    0.1198    0.5548 C   0  0  0  0  0  0  0  0  0  0  0  0
   -5.1121   -1.1522    0.3249 C   0  0  0  0  0  0  0  0  0  0  0  0
   -4.2656   -2.1752   -0.1276 C   0  0  0  0  0  0  0  0  0  0  0  0
   -2.9055   -1.9051   -0.3327 C   0  0  0  0  0  0  0  0  0  0  0  0
    1.3839   -1.7957    1.1351 H   0  0  0  0  0  0  0  0  0  0  0  0
    3.3351   -3.2392    1.6733 H   0  0  0  0  0  0  0  0  0  0  0  0
    5.6686   -2.5060    1.0929 H   0  0  0  0  0  0  0  0  0  0  0  0
    6.0378   -0.2442    0.0733 H   0  0  0  0  0  0  0  0  0  0  0  0
    5.1125    1.9387   -0.7116 H   0  0  0  0  0  0  0  0  0  0  0  0
    3.1123    3.4555   -0.8998 H   0  0  0  0  0  0  0  0  0  0  0  0
    0.9581    3.9361   -0.5536 H   0  0  0  0  0  0  0  0  0  0  0  0
   -5.1642    0.9786    0.9006 H   0  0  0  0  0  0  0  0  0  0  0  0
   -6.1822   -1.3439    0.4945 H   0  0  0  0  0  0  0  0  0  0  0  0
   -4.6462   -3.1875   -0.3248 H   0  0  0  0  0  0  0  0  0  0  0  0
   -2.1724   -2.6508   -0.6846 H   0  0  0  0  0  0  0  0  0  0  0  0
  3  4  1  0  0  0  0
  4 16  1  0  0  0  0
  5 17  1  0  0  0  0
  6  2  1  1  0  0  0
  6  7  1  0  0  0  0
  7 22  1  0  0  0  0
  7  8  2  0  0  0  0
  8 23  1  0  0  0  0
  9 24  1  0  0  0  0
  9  8  1  0  0  0  0
 10  9  2  0  0  0  0
 11  6  1  0  0  0  0
 11 10  1  0  0  0  0
 12 11  2  0  0  0  0
 13 12  1  0  0  0  0
 13 14  2  0  0  0  0
 14 15  1  0  0  0  0
 14  2  1  0  0  0  0
 15  3  2  0  0  0  0
 16  1  2  0  0  0  0
 17 16  1  6  0  0  0
 17 18  1  0  0  0  0
 18 29  1  0  0  0  0
 19 30  1  0  0  0  0
 19 18  2  0  0  0  0
 20 19  1  0  0  0  0
 21 20  2  0  0  0  0
 21  5  1  0  0  0  0
 25 10  1  0  0  0  0
 26 12  1  0  0  0  0
 27 13  1  0  0  0  0
 28 15  1  0  0  0  0
 31 20  1  0  0  0  0
 32 21  1  0  0  0  0
M  END
