3,9,17
q = -1.0, confidence = 0.012

 53 58  0  0  1  0  0  0  0  0999 V2000
   -0.5916   -1.2852    0.3680 B   0  0  1  0  0  0  0  0  0  0  0  0
   -0.5920    1.2851    0.3680 B   0  0  2  0  0  0  0  0  0  0  0  0
   -0.0668    0.0000   -0.3535 N   0  0  0  0  0  0  0  0  0  0  0  0
   -0.2320   -0.0001   -1.8239 C   0  0  0  0  0  0  0  0  0  0  0  0
    0.2598    0.8877   -2.2685 H   0  0  0  0  0  0  0  0  0  0  0  0
   -1.2992   -0.0003   -2.1291 H   0  0  0  0  0  0  0  0  0  0  0  0
    0.2602   -0.8876   -2.2684 H   0  0  0  0  0  0  0  0  0  0  0  0
    0.5886   -2.2791    0.6852 N   0  0  0  0  0  0  0  0  0  0  0  0
    1.8486   -1.8018    0.8212 N   0  0  0  0  0  2  0  0  0  0  0  0
    2.6324   -2.8197    1.2164 C   0  0  0  0  0  3  0  0  0  0  0  0
    3.7100   -2.6644    1.3463 H   0  0  0  0  0  0  0  0  0  0  0  0
    1.8574   -3.9870    1.3683 C   0  0  0  0  0  0  0  0  0  0  0  0
    2.1936   -4.9832    1.6722 H   0  0  0  0  0  0  0  0  0  0  0  0
    0.5607   -3.5957    1.0166 C   0  0  0  0  0  0  0  0  0  0  0  0
   -0.3759   -4.1609    0.9612 H   0  0  0  0  0  0  0  0  0  0  0  0
    0.5878    2.2795    0.6850 N   0  0  0  0  0  0  0  0  0  0  0  0
    1.8481    1.8027    0.8207 N   0  0  0  0  0  2  0  0  0  0  0  0
    2.6316    2.8209    1.2158 C   0  0  0  0  0  3  0  0  0  0  0  0
    3.7093    2.6660    1.3455 H   0  0  0  0  0  0  0  0  0  0  0  0
    1.8561    3.9878    1.3679 C   0  0  0  0  0  0  0  0  0  0  0  0
    2.1920    4.9842    1.6717 H   0  0  0  0  0  0  0  0  0  0  0  0
    0.5595    3.5960    1.0166 C   0  0  0  0  0  0  0  0  0  0  0  0
   -0.3774    4.1608    0.9615 H   0  0  0  0  0  0  0  0  0  0  0  0
   -1.0177   -0.6715    1.7594 N   0  0  0  0  0  0  0  0  0  0  0  0
   -1.0179    0.6714    1.7594 N   0  0  2  0  0  0  0  0  0  0  0  0
   -1.3946    1.1162    2.9749 C   0  0  0  0  0  3  0  0  0  0  0  0
   -1.4560    2.1898    3.1811 H   0  0  0  0  0  0  0  0  0  0  0  0
   -1.6471   -0.0001    3.7908 C   0  0  0  0  0  0  0  0  0  0  0  0
   -1.9678   -0.0001    4.8369 H   0  0  0  0  0  0  0  0  0  0  0  0
   -1.3943   -1.1163    2.9750 C   0  0  0  0  0  0  0  0  0  0  0  0
   -1.4554   -2.1900    3.1812 H   0  0  0  0  0  0  0  0  0  0  0  0
   -1.8088   -2.0790   -0.3313 C   0  0  0  0  0  0  0  0  0  0  0  0
   -3.1549   -1.8642    0.0363 C   0  0  0  0  0  0  0  0  0  0  0  0
   -3.3897   -1.1746    0.8625 H   0  0  0  0  0  0  0  0  0  0  0  0
   -4.2137   -2.5076   -0.6242 C   0  0  0  0  0  0  0  0  0  0  0  0
   -5.2525   -2.3161   -0.3132 H   0  0  0  0  0  0  0  0  0  0  0  0
   -3.9477   -3.3930   -1.6796 C   0  0  0  0  0  0  0  0  0  0  0  0
   -4.7742   -3.8997   -2.2014 H   0  0  0  0  0  0  0  0  0  0  0  0
   -2.6179   -3.6282   -2.0642 C   0  0  0  0  0  0  0  0  0  0  0  0
   -2.3971   -4.3212   -2.8909 H   0  0  0  0  0  0  0  0  0  0  0  0
   -1.5686   -2.9792   -1.3961 C   0  0  0  0  0  0  0  0  0  0  0  0
   -0.5323   -3.1797   -1.7137 H   0  0  0  0  0  0  0  0  0  0  0  0
   -1.8095    2.0785   -0.3314 C   0  0  0  0  0  0  0  0  0  0  0  0
   -3.1555    1.8631    0.0361 C   0  0  0  0  0  0  0  0  0  0  0  0
   -3.3902    1.1733    0.8622 H   0  0  0  0  0  0  0  0  0  0  0  0
   -4.2146    2.5062   -0.6245 C   0  0  0  0  0  0  0  0  0  0  0  0
   -5.2533    2.3142   -0.3136 H   0  0  0  0  0  0  0  0  0  0  0  0
   -3.9488    3.3918   -1.6798 C   0  0  0  0  0  0  0  0  0  0  0  0
   -4.7755    3.8981   -2.2016 H   0  0  0  0  0  0  0  0  0  0  0  0
   -2.6191    3.6275   -2.0642 C   0  0  0  0  0  0  0  0  0  0  0  0
   -2.3985    4.3208   -2.8908 H   0  0  0  0  0  0  0  0  0  0  0  0
   -1.5695    2.9789   -1.3961 C   0  0  0  0  0  0  0  0  0  0  0  0
   -0.5333    3.1799   -1.7135 H   0  0  0  0  0  0  0  0  0  0  0  0
  1 32  1  6  0  0  0
  1  8  1  0  0  0  0
  1 24  1  0  0  0  0
  2 43  1  6  0  0  0
  2 16  1  0  0  0  0
  2 25  1  0  0  0  0
  3  2  1  0  0  0  0
  3  1  1  0  0  0  0
  4  3  1  0  0  0  0
  5  4  1  0  0  0  0
  6  4  1  0  0  0  0
  7  4  1  0  0  0  0
  8  9  1  0  0  0  0
  8 14  1  0  0  0  0
  9 10  1  0  0  0  0
 10 11  1  0  0  0  0
 10 12  1  0  0  0  0
 12 13  1  0  0  0  0
 14 12  2  0  0  0  0
 15 14  1  0  0  0  0
 16 17  1  0  0  0  0
 16 22  1  0  0  0  0
 17 18  1  0  0  0  0
 18 19  1  0  0  0  0
 18 20  1  0  0  0  0
 20 21  1  0  0  0  0
 22 20  2  0  0  0  0
 23 22  1  0  0  0  0
 24 30  1  0  0  0  0
 25 24  1  0  0  0  0
 25 26  1  6  0  0  0
 26 27  1  0  0  0  0
 26 28  1  0  0  0  0
 28 29  1  0  0  0  0
 30 31  1  0  0  0  0
 30 28  2  0  0  0  0
 32 33  1  0  0  0  0
 33 34  1  0  0  0  0
 35 36  1  0  0  0  0
 35 33  2  0  0  0  0
 37 35  1  0  0  0  0
 38 37  1  0  0  0  0
 39 37  2  0  0  0  0
 39 41  1  0  0  0  0
 40 39  1  0  0  0  0
 41 32  2  0  0  0  0
 42 41  1  0  0  0  0
 43 44  1  0  0  0  0
 44 45  1  0  0  0  0
 46 47  1  0  0  0  0
 46 44  2  0  0  0  0
 48 46  1  0  0  0  0
 49 48  1  0  0  0  0
 50 48  2  0  0  0  0
 50 52  1  0  0  0  0
 51 50  1  0  0  0  0
 52 43  2  0  0  0  0
 53 52  1  0  0  0  0
M  END
