5,11,43
q = -2.0, confidence = 0.958

 61 67  0  0  1  0  0  0  0  0999 V2000
    5.3005   -0.7640    0.5704 C   0  0  0  0  0  0  0  0  0  0  0  0
    3.5499    4.0260   -0.1685 O   0  0  0  0  0  0  0  0  0  0  0  0
   -6.3771   -2.9151    0.4690 C   0  0  0  0  0  0  0  0  0  0  0  0
   -3.4962    3.3668   -0.3437 O   0  0  0  0  0  0  0  0  0  0  0  0
    2.2113    2.1092   -0.0467 N   0  0  0  0  0  2  0  0  0  0  0  0
   -5.2429   -2.6459    1.2623 C   0  0  0  0  0  0  0  0  0  0  0  0
   -5.0079   -3.3165    2.1049 H   0  0  0  0  0  0  0  0  0  0  0  0
   -6.6881   -2.0251   -0.6381 C   0  0  0  0  0  0  0  0  0  0  0  0
   -8.3425   -4.2698   -0.0813 C   0  0  0  0  0  0  0  0  0  0  0  0
   -8.9939   -5.1335    0.1208 H   0  0  0  0  0  0  0  0  0  0  0  0
    0.0401    3.5155   -0.1997 N   0  0  0  0  0  2  0  0  0  0  0  0
    1.0722    5.6244   -0.5154 C   0  0  0  0  0  0  0  0  0  0  0  0
    2.0043    6.2042   -0.5763 H   0  0  0  0  0  0  0  0  0  0  0  0
    4.3230    1.4327    1.0647 C   0  0  0  0  0  0  0  0  0  0  0  0
    4.3277    2.3790    1.6208 H   0  0  0  0  0  0  0  0  0  0  0  0
   -8.6484   -3.3960   -1.1695 C   0  0  0  0  0  0  0  0  0  0  0  0
   -9.5324   -3.5965   -1.7938 H   0  0  0  0  0  0  0  0  0  0  0  0
   -1.3564    5.3925   -0.5710 C   0  0  0  0  0  0  0  0  0  0  0  0
   -2.3777    5.7839   -0.6818 H   0  0  0  0  0  0  0  0  0  0  0  0
    6.2525   -1.7712    0.8075 C   0  0  0  0  0  0  0  0  0  0  0  0
    7.0297   -1.6037    1.5706 H   0  0  0  0  0  0  0  0  0  0  0  0
    6.1646   -5.4244   -1.3656 C   0  0  0  0  0  0  0  0  0  0  0  0
    6.1516   -6.3710   -1.9270 H   0  0  0  0  0  0  0  0  0  0  0  0
   -5.8510   -0.9199   -0.8867 C   0  0  0  0  0  0  0  0  0  0  0  0
   -6.0891   -0.2441   -1.7234 H   0  0  0  0  0  0  0  0  0  0  0  0
    5.2923    0.4793    1.2862 C   0  0  0  0  0  0  0  0  0  0  0  0
    6.0790    0.6578    2.0360 H   0  0  0  0  0  0  0  0  0  0  0  0
   -4.4060   -1.5446    1.0098 C   0  0  0  0  0  0  0  0  0  0  0  0
   -4.7148   -0.6519   -0.0953 C   0  0  0  0  0  0  0  0  0  0  0  0
    6.2402   -2.9920    0.1008 C   0  0  0  0  0  0  0  0  0  0  0  0
   -3.2528   -1.2502    1.8091 C   0  0  0  0  0  0  0  0  0  0  0  0
   -3.0265   -1.9010    2.6687 H   0  0  0  0  0  0  0  0  0  0  0  0
   -2.3224    3.0230   -0.1783 C   0  0  0  0  0  0  0  0  0  0  0  0
    4.2733   -0.9824   -0.4355 C   0  0  0  0  0  0  0  0  0  0  0  0
    1.1661    4.2456   -0.2895 C   0  0  2  0  0  3  0  0  0  0  0  0
    7.1648   -5.2116   -0.3681 C   0  0  0  0  0  0  0  0  0  0  0  0
    7.9103   -5.9966   -0.1708 H   0  0  0  0  0  0  0  0  0  0  0  0
   -7.8434   -2.3056   -1.4387 C   0  0  0  0  0  0  0  0  0  0  0  0
   -8.0779   -1.6298   -2.2761 H   0  0  0  0  0  0  0  0  0  0  0  0
    3.2786    1.2056    0.0980 C   0  0  0  0  0  0  0  0  0  0  0  0
   -0.2053    6.1949   -0.6594 C   0  0  0  0  0  0  0  0  0  0  0  0
   -0.3043    7.2753   -0.8442 H   0  0  0  0  0  0  0  0  0  0  0  0
   -1.8494    1.7758    0.1820 N   0  0  0  0  0  2  0  0  0  0  0  0
    4.2687   -2.1974   -1.1544 C   0  0  0  0  0  0  0  0  0  0  0  0
    3.5053   -2.3554   -1.9342 H   0  0  0  0  0  0  0  0  0  0  0  0
    2.4517    3.4633   -0.1475 C   0  0  0  0  0  0  0  0  0  0  0  0
   -1.1989    4.0221   -0.3252 C   0  0  0  0  0  0  0  0  0  0  0  0
    3.2952    0.0336   -0.6509 C   0  0  0  0  0  0  0  0  0  0  0  0
    2.5165   -0.1220   -1.4123 H   0  0  0  0  0  0  0  0  0  0  0  0
    5.2207   -4.4502   -1.6302 C   0  0  0  0  0  0  0  0  0  0  0  0
    4.4523   -4.6115   -2.4027 H   0  0  0  0  0  0  0  0  0  0  0  0
   -7.2372   -4.0335    0.7145 C   0  0  0  0  0  0  0  0  0  0  0  0
   -6.9995   -4.7044    1.5551 H   0  0  0  0  0  0  0  0  0  0  0  0
   -3.8598    0.4615   -0.3596 C   0  0  0  0  0  0  0  0  0  0  0  0
   -4.1098    1.1403   -1.1848 H   0  0  0  0  0  0  0  0  0  0  0  0
    5.2198   -3.2096   -0.9123 C   0  0  0  0  0  0  0  0  0  0  0  0
   -2.4506   -0.1665    1.5292 C   0  0  0  0  0  0  0  0  0  0  0  0
   -1.5835    0.0698    2.1627 H   0  0  0  0  0  0  0  0  0  0  0  0
   -2.7322    0.7078    0.4198 C   0  0  0  0  0  0  0  0  0  0  0  0
    7.2001   -4.0268    0.3430 C   0  0  0  0  0  0  0  0  0  0  0  0
    7.9718   -3.8576    1.1104 H   0  0  0  0  0  0  0  0  0  0  0  0
  1 20  1  0  0  0  0
  1 26  2  0  0  0  0
  2 46  2  0  0  0  0
  3 52  1  0  0  0  0
  3  6  2  0  0  0  0
  4 33  2  0  0  0  0
  5 40  1  0  0  0  0
  6  7  1  0  0  0  0
  8  3  1  0  0  0  0
  9 10  1  0  0  0  0
  9 52  2  0  0  0  0
 12 35  1  0  0  0  0
 13 12  1  0  0  0  0
 14 26  1  0  0  0  0
 14 15  1  0  0  0  0
 16  9  1  0  0  0  0
 17 16  1  0  0  0  0
 18 47  2  0  0  0  0
 19 18  1  0  0  0  0
 20 21  1  0  0  0  0
 22 36  1  0  0  0  0
 23 22  1  0  0  0  0
 24  8  2  0  0  0  0
 24 29  1  0  0  0  0
 25 24  1  0  0  0  0
 26 27  1  0  0  0  0
 28  6  1  0  0  0  0
 28 31  1  0  0  0  0
 29 28  2  0  0  0  0
 30 60  1  0  0  0  0
 30 20  2  0  0  0  0
 31 32  1  0  0  0  0
 33 43  1  0  0  0  0
 34  1  1  0  0  0  0
 35 11  1  0  0  0  0
 35 46  1  6  0  0  0
 36 37  1  0  0  0  0
 36 60  2  0  0  0  0
 38 16  2  0  0  0  0
 38  8  1  0  0  0  0
 39 38  1  0  0  0  0
 40 14  2  0  0  0  0
 41 18  1  0  0  0  0
 41 12  2  0  0  0  0
 42 41  1  0  0  0  0
 43 59  1  0  0  0  0
 44 56  2  0  0  0  0
 44 34  1  0  0  0  0
 45 44  1  0  0  0  0
 46  5  1  0  0  0  0
 47 11  1  0  0  0  0
 47 33  1  0  0  0  0
 48 34  2  0  0  0  0
 48 40  1  0  0  0  0
 49 48  1  0  0  0  0
 50 22  2  0  0  0  0
 50 56  1  0  0  0  0
 51 50  1  0  0  0  0
 52 53  1  0  0  0  0
 54 29  1  0  0  0  0
 54 59  2  0  0  0  0
 55 54  1  0  0  0  0
 56 30  1  0  0  0  0
 57 31  2  0  0  0  0
 57 58  1  0  0  0  0
 59 57  1  0  0  0  0
 60 61  1  0  0  0  0
M  END
