15,23,31
q = 0.0, confidence = 0.994

 46 47  0  0  0  0  0  0  0  0999 V2000
    4.5310    1.4290   -0.4261 C   0  0  0  0  0  0  0  0  0  0  0  0
    3.7340    2.1807   -0.5612 H   0  0  0  0  0  0  0  0  0  0  0  0
    5.8337    1.8284   -0.0944 C   0  0  0  0  0  0  0  0  0  0  0  0
    6.0587    2.8977    0.0371 H   0  0  0  0  0  0  0  0  0  0  0  0
    6.8500    0.8706    0.0580 C   0  0  0  0  0  0  0  0  0  0  0  0
    7.8729    1.1867    0.3131 H   0  0  0  0  0  0  0  0  0  0  0  0
    6.5602   -0.4905   -0.1258 C   0  0  0  0  0  0  0  0  0  0  0  0
    7.3553   -1.2440   -0.0183 H   0  0  0  0  0  0  0  0  0  0  0  0
    5.2559   -0.8914   -0.4540 C   0  0  0  0  0  0  0  0  0  0  0  0
    5.0320   -1.9593   -0.6094 H   0  0  0  0  0  0  0  0  0  0  0  0
    4.2295    0.0620   -0.6051 C   0  0  0  0  0  0  0  0  0  0  0  0
    2.8065   -0.3529   -0.8983 C   0  0  0  0  0  0  0  0  0  0  0  0
    2.3197    0.3573   -1.5907 H   0  0  0  0  0  0  0  0  0  0  0  0
    2.7614   -1.3504   -1.3758 H   0  0  0  0  0  0  0  0  0  0  0  0
    1.9745   -0.4104    0.3388 N   0  0  0  0  0  0  0  0  0  0  0  0
    2.1208    0.4587    0.8838 H   0  0  0  0  0  0  0  0  0  0  0  0
    2.3034   -1.5748    1.2029 C   0  0  0  0  0  0  0  0  0  0  0  0
    3.2943   -1.4555    1.6897 H   0  0  0  0  0  0  0  0  0  0  0  0
    2.3645   -2.4598    0.5353 H   0  0  0  0  0  0  0  0  0  0  0  0
    1.1903   -1.7830    2.2245 C   0  0  0  0  0  0  0  0  0  0  0  0
    1.3621   -2.7096    2.8165 H   0  0  0  0  0  0  0  0  0  0  0  0
    1.1249   -0.9206    2.9172 H   0  0  0  0  0  0  0  0  0  0  0  0
   -0.0614   -1.8283    1.4557 N   0  0  0  0  0  0  0  0  0  0  0  0
   -0.0502   -2.6121    0.7785 H   0  0  0  0  0  0  0  0  0  0  0  0
   -1.3541   -1.7652    2.1513 C   0  0  0  0  0  0  0  0  0  0  0  0
   -1.3066   -0.9296    2.8788 H   0  0  0  0  0  0  0  0  0  0  0  0
   -1.5838   -2.6998    2.7103 H   0  0  0  0  0  0  0  0  0  0  0  0
   -2.4011   -1.4973    1.0748 C   0  0  0  0  0  0  0  0  0  0  0  0
   -2.4233   -2.3432    0.3567 H   0  0  0  0  0  0  0  0  0  0  0  0
   -3.4204   -1.3892    1.5017 H   0  0  0  0  0  0  0  0  0  0  0  0
   -1.9972   -0.2918    0.3068 N   0  0  0  0  0  0  0  0  0  0  0  0
   -2.2197    0.5406    0.8797 H   0  0  0  0  0  0  0  0  0  0  0  0
   -2.7426   -0.1222   -0.9720 C   0  0  0  0  0  0  0  0  0  0  0  0
   -2.5906   -1.0423   -1.5671 H   0  0  0  0  0  0  0  0  0  0  0  0
   -2.2352    0.7076   -1.5037 H   0  0  0  0  0  0  0  0  0  0  0  0
   -4.2069    0.1667   -0.7397 C   0  0  0  0  0  0  0  0  0  0  0  0
   -4.5944    1.3842   -0.1383 C   0  0  0  0  0  0  0  0  0  0  0  0
   -3.8288    2.1316    0.1304 H   0  0  0  0  0  0  0  0  0  0  0  0
   -5.9459    1.6515    0.1209 C   0  0  0  0  0  0  0  0  0  0  0  0
   -6.2332    2.6055    0.5884 H   0  0  0  0  0  0  0  0  0  0  0  0
   -6.9302    0.7100   -0.2236 C   0  0  0  0  0  0  0  0  0  0  0  0
   -7.9915    0.9231   -0.0246 H   0  0  0  0  0  0  0  0  0  0  0  0
   -6.5560   -0.5008   -0.8260 C   0  0  0  0  0  0  0  0  0  0  0  0
   -7.3228   -1.2406   -1.1020 H   0  0  0  0  0  0  0  0  0  0  0  0
   -5.2015   -0.7710   -1.0776 C   0  0  0  0  0  0  0  0  0  0  0  0
   -4.9081   -1.7214   -1.5518 H   0  0  0  0  0  0  0  0  0  0  0  0
  1  3  1  0  0  0  0
  2  1  1  0  0  0  0
  3  4  1  0  0  0  0
  3  5  2  0  0  0  0
  5  6  1  0  0  0  0
  7  8  1  0  0  0  0
  7  5  1  0  0  0  0
  9  7  2  0  0  0  0
 10  9  1  0  0  0  0
 11  9  1  0  0  0  0
 11  1  2  0  0  0  0
 12 11  1  0  0  0  0
 12 15  1  0  0  0  0
 13 12  1  0  0  0  0
 14 12  1  0  0  0  0
 15 16  1  0  0  0  0
 15 17  1  0  0  0  0
 17 18  1  0  0  0  0
 17 20  1  0  0  0  0
 19 17  1  0  0  0  0
 20 21  1  0  0  0  0
 20 22  1  0  0  0  0
 23 25  1  0  0  0  0
 23 20  1  0  0  0  0
 24 23  1  0  0  0  0
 25 27  1  0  0  0  0
 25 26  1  0  0  0  0
 28 30  1  0  0  0  0
 28 25  1  0  0  0  0
 29 28  1  0  0  0  0
 31 32  1  0  0  0  0
 31 28  1  0  0  0  0
 33 36  1  0  0  0  0
 33 31  1  0  0  0  0
 34 33  1  0  0  0  0
 35 33  1  0  0  0  0
 36 37  1  0  0  0  0
 37 39  2  0  0  0  0
 37 38  1  0  0  0  0
 39 40  1  0  0  0  0
 41 42  1  0  0  0  0
 41 39  1  0  0  0  0
 43 41  2  0  0  0  0
 44 43  1  0  0  0  0
 45 43  1  0  0  0  0
 45 36  2  0  0  0  0
 46 45  1  0  0  0  0
M  END
