2,3,4
q = -2.0, confidence = 0.952

 38 40  0  0  1  0  0  0  0  0999 V2000
    0.9824   -0.7185    1.8606 N   0  0  0  0  0  0  0  0  0  0  0  0
   -1.3217   -1.3849    0.8257 N   0  0  0  0  0  2  0  0  0  0  0  0
   -2.0918    0.9095    0.0111 N   0  0  0  0  0  2  0  0  0  0  0  0
   -0.0415    1.8368   -1.3721 N   0  0  0  0  0  0  0  0  0  0  0  0
    2.0799   -0.5281    2.6296 C   0  0  0  0  0  3  0  0  0  0  0  0
    2.6946    0.3747    2.5361 H   0  0  0  0  0  0  0  0  0  0  0  0
    2.2613   -1.6028    3.5397 C   0  0  0  0  0  0  0  0  0  0  0  0
    3.0602   -1.6874    4.2862 H   0  0  0  0  0  0  0  0  0  0  0  0
    1.2008   -2.4975    3.3150 C   0  0  0  0  0  0  0  0  0  0  0  0
    0.9846   -3.4342    3.8433 H   0  0  0  0  0  0  0  0  0  0  0  0
    0.4251   -1.9156    2.2766 C   0  0  0  0  0  0  0  0  0  0  0  0
   -0.8457   -2.2039    1.7373 C   0  0  0  0  0  3  0  0  0  0  0  0
   -1.4423   -3.0483    2.1284 H   0  0  0  0  0  0  0  0  0  0  0  0
   -2.7357   -1.3467    0.4858 C   0  0  1  0  0  0  0  0  0  0  0  0
   -2.8453   -1.5715   -0.5968 H   0  0  0  0  0  0  0  0  0  0  0  0
   -3.6797   -2.2672    1.2608 C   0  0  0  0  0  0  0  0  0  0  0  0
   -3.5822   -2.0773    2.3534 H   0  0  0  0  0  0  0  0  0  0  0  0
   -3.4072   -3.3296    1.0900 H   0  0  0  0  0  0  0  0  0  0  0  0
   -5.1294   -2.0157    0.8208 C   0  0  0  0  0  0  0  0  0  0  0  0
   -5.2379   -2.2962   -0.2502 H   0  0  0  0  0  0  0  0  0  0  0  0
   -5.8183   -2.6742    1.3888 H   0  0  0  0  0  0  0  0  0  0  0  0
   -5.5275   -0.5455    1.0025 C   0  0  0  0  0  0  0  0  0  0  0  0
   -5.5176   -0.2965    2.0870 H   0  0  0  0  0  0  0  0  0  0  0  0
   -6.5682   -0.3804    0.6551 H   0  0  0  0  0  0  0  0  0  0  0  0
   -4.5731    0.4013    0.2610 C   0  0  0  0  0  0  0  0  0  0  0  0
   -4.6599    0.2463   -0.8370 H   0  0  0  0  0  0  0  0  0  0  0  0
   -4.8529    1.4563    0.4627 H   0  0  0  0  0  0  0  0  0  0  0  0
   -3.1244    0.1395    0.6825 C   0  0  2  0  0  0  0  0  0  0  0  0
   -3.0393    0.3282    1.7827 H   0  0  0  0  0  0  0  0  0  0  0  0
   -2.3224    1.9876   -0.6985 C   0  0  0  0  0  3  0  0  0  0  0  0
   -3.3265    2.4477   -0.7562 H   0  0  0  0  0  0  0  0  0  0  0  0
   -1.2491    2.5263   -1.4450 C   0  0  0  0  0  3  0  0  0  0  0  0
   -1.1299    3.6198   -2.3378 C   0  0  0  0  0  0  0  0  0  0  0  0
   -1.9171    4.3399   -2.5915 H   0  0  0  0  0  0  0  0  0  0  0  0
    0.1910    3.5801   -2.8211 C   0  0  0  0  0  0  0  0  0  0  0  0
    0.6562    4.2628   -3.5422 H   0  0  0  0  0  0  0  0  0  0  0  0
    0.8190    2.4726   -2.1968 C   0  0  0  0  0  0  0  0  0  0  0  0
    1.8516    2.1257   -2.3222 H   0  0  0  0  0  0  0  0  0  0  0  0
  1 11  2  0  0  0  0
  1  5  1  0  0  0  0
  2 12  1  0  0  0  0
  3 28  1  0  0  0  0
  5  7  1  0  0  0  0
  6  5  1  0  0  0  0
  7  8  1  0  0  0  0
  9  7  2  0  0  0  0
  9 10  1  0  0  0  0
 11  9  1  0  0  0  0
 12 13  1  0  0  0  0
 12 11  1  0  0  0  0
 14 15  1  6  0  0  0
 14 28  1  0  0  0  0
 14  2  1  0  0  0  0
 14 16  1  0  0  0  0
 16 17  1  0  0  0  0
 18 16  1  0  0  0  0
 19 22  1  0  0  0  0
 19 16  1  0  0  0  0
 19 21  1  0  0  0  0
 20 19  1  0  0  0  0
 22 23  1  0  0  0  0
 24 22  1  0  0  0  0
 25 27  1  0  0  0  0
 25 28  1  0  0  0  0
 25 22  1  0  0  0  0
 26 25  1  0  0  0  0
 28 29  1  1  0  0  0
 30  3  1  0  0  0  0
 31 30  1  0  0  0  0
 32  4  1  0  0  0  0
 32 30  1  0  0  0  0
 33 32  1  0  0  0  0
 34 33  1  0  0  0  0
 35 33  2  0  0  0  0
 35 37  1  0  0  0  0
 36 35  1  0  0  0  0
 37  4  2  0  0  0  0
 38 37  1  0  0  0  0
M  END
