1,2,3
q = 0.0, confidence = 0.972

 55 58  0  0  1  0  0  0  0  0999 V2000
   -0.0613    1.5156   -0.4246 N   0  0  0  0  0  2  0  0  0  0  0  0
   -1.4186   -0.5608   -0.5829 N   0  0  0  0  0  2  0  0  0  0  0  0
    2.1741    0.5390   -0.1733 N   0  0  0  0  0  2  0  0  0  0  0  0
    0.9142    2.4726   -0.3865 C   0  0  0  0  0  0  0  0  0  0  0  0
   -3.4843    0.3109   -0.2887 N   0  0  0  0  0  0  0  0  0  0  0  0
   -2.1455    0.5729   -0.4755 C   0  0  1  0  0  3  0  0  0  0  0  0
    3.3895   -0.1936   -0.0330 C   0  0  0  0  0  0  0  0  0  0  0  0
   -1.7862    3.1526   -0.6582 C   0  0  0  0  0  0  0  0  0  0  0  0
   -2.8405    3.4170   -0.8084 H   0  0  0  0  0  0  0  0  0  0  0  0
    5.1562   -1.0944    1.3402 C   0  0  0  0  0  0  0  0  0  0  0  0
    5.6016   -1.2615    2.3332 H   0  0  0  0  0  0  0  0  0  0  0  0
   -2.3056   -1.6143   -0.4791 C   0  0  0  0  0  0  0  0  0  0  0  0
   -4.4490    1.2624    0.3035 C   0  0  0  0  0  0  0  0  0  0  0  0
   -3.9355    2.2403    0.2775 H   0  0  0  0  0  0  0  0  0  0  0  0
   -3.6171   -1.0802   -0.2930 C   0  0  0  0  0  0  0  0  0  0  0  0
   -4.7333   -1.9249   -0.1493 C   0  0  0  0  0  0  0  0  0  0  0  0
   -5.7479   -1.5334   -0.0030 H   0  0  0  0  0  0  0  0  0  0  0  0
    3.5004    2.6487   -0.2036 C   0  0  0  0  0  0  0  0  0  0  0  0
    4.2378    2.2276   -0.9160 H   0  0  0  0  0  0  0  0  0  0  0  0
    3.9675    2.5878    0.8014 H   0  0  0  0  0  0  0  0  0  0  0  0
    3.3378    3.7142   -0.4478 H   0  0  0  0  0  0  0  0  0  0  0  0
   -1.3911    1.8142   -0.5089 C   0  0  0  0  0  0  0  0  0  0  0  0
    3.9420   -0.3881    1.2562 C   0  0  0  0  0  0  0  0  0  0  0  0
   -3.2010   -3.8345   -0.3895 C   0  0  0  0  0  0  0  0  0  0  0  0
   -3.0669   -4.9260   -0.4197 H   0  0  0  0  0  0  0  0  0  0  0  0
    3.9908   -0.7134   -1.2053 C   0  0  0  0  0  0  0  0  0  0  0  0
    5.7896   -1.5915    0.1931 C   0  0  0  0  0  0  0  0  0  0  0  0
    6.7381   -2.1422    0.2843 H   0  0  0  0  0  0  0  0  0  0  0  0
    2.2215    1.8714   -0.2483 C   0  0  0  0  0  0  0  0  0  0  0  0
    5.2070   -1.4049   -1.0679 C   0  0  0  0  0  0  0  0  0  0  0  0
    5.6897   -1.8161   -1.9681 H   0  0  0  0  0  0  0  0  0  0  0  0
    0.5524    3.8299   -0.4869 C   0  0  0  0  0  0  0  0  0  0  0  0
    1.3235    4.6115   -0.4538 H   0  0  0  0  0  0  0  0  0  0  0  0
   -0.7999    4.1601   -0.6425 C   0  0  0  0  0  0  0  0  0  0  0  0
   -1.0983    5.2121   -0.7550 H   0  0  0  0  0  0  0  0  0  0  0  0
    3.3038   -0.5657   -2.5349 C   0  0  0  0  0  0  0  0  0  0  0  0
    2.3147   -1.0700   -2.4845 H   0  0  0  0  0  0  0  0  0  0  0  0
    3.8988   -1.0240   -3.3473 H   0  0  0  0  0  0  0  0  0  0  0  0
    3.1155    0.4960   -2.7995 H   0  0  0  0  0  0  0  0  0  0  0  0
   -2.0879   -3.0042   -0.5325 C   0  0  0  0  0  0  0  0  0  0  0  0
   -1.0620   -3.3775   -0.6552 H   0  0  0  0  0  0  0  0  0  0  0  0
   -5.7262    1.3826   -0.5300 C   0  0  0  0  0  0  0  0  0  0  0  0
   -5.4922    1.6351   -1.5830 H   0  0  0  0  0  0  0  0  0  0  0  0
   -6.3683    2.1838   -0.1141 H   0  0  0  0  0  0  0  0  0  0  0  0
   -6.3174    0.4468   -0.5264 H   0  0  0  0  0  0  0  0  0  0  0  0
   -4.5011   -3.3039   -0.2011 C   0  0  0  0  0  0  0  0  0  0  0  0
   -5.3534   -3.9912   -0.0920 H   0  0  0  0  0  0  0  0  0  0  0  0
   -4.6758    0.9161    1.7803 C   0  0  0  0  0  0  0  0  0  0  0  0
   -3.7000    0.8223    2.2983 H   0  0  0  0  0  0  0  0  0  0  0  0
   -5.2222   -0.0396    1.8992 H   0  0  0  0  0  0  0  0  0  0  0  0
   -5.2675    1.7147    2.2698 H   0  0  0  0  0  0  0  0  0  0  0  0
    3.2304    0.1094    2.4833 C   0  0  0  0  0  0  0  0  0  0  0  0
    3.7688   -0.1917    3.4017 H   0  0  0  0  0  0  0  0  0  0  0  0
    2.1871   -0.2731    2.5272 H   0  0  0  0  0  0  0  0  0  0  0  0
    3.1359    1.2166    2.4938 H   0  0  0  0  0  0  0  0  0  0  0  0
  1  4  1  0  0  0  0
  2 12  1  0  0  0  0
  2  6  1  0  0  0  0
  3  7  1  0  0  0  0
  4 29  2  0  0  0  0
  5 13  1  0  0  0  0
  6 22  1  1  0  0  0
  6  5  1  0  0  0  0
  7 23  1  0  0  0  0
  8 34  1  0  0  0  0
  8 22  2  0  0  0  0
  9  8  1  0  0  0  0
 10 11  1  0  0  0  0
 12 15  1  0  0  0  0
 13 48  1  0  0  0  0
 14 13  1  0  0  0  0
 15  5  1  0  0  0  0
 15 16  2  0  0  0  0
 16 17  1  0  0  0  0
 18 20  1  0  0  0  0
 19 18  1  0  0  0  0
 21 18  1  0  0  0  0
 22  1  1  0  0  0  0
 23 10  2  0  0  0  0
 23 52  1  0  0  0  0
 24 46  2  0  0  0  0
 25 24  1  0  0  0  0
 26 30  1  0  0  0  0
 26  7  2  0  0  0  0
 27 28  1  0  0  0  0
 27 10  1  0  0  0  0
 29 18  1  0  0  0  0
 29  3  1  0  0  0  0
 30 27  2  0  0  0  0
 31 30  1  0  0  0  0
 32 33  1  0  0  0  0
 32  4  1  0  0  0  0
 34 32  2  0  0  0  0
 35 34  1  0  0  0  0
 36 37  1  0  0  0  0
 36 26  1  0  0  0  0
 38 36  1  0  0  0  0
 39 36  1  0  0  0  0
 40 12  2  0  0  0  0
 40 24  1  0  0  0  0
 41 40  1  0  0  0  0
 42 45  1  0  0  0  0
 42 44  1  0  0  0  0
 42 13  1  0  0  0  0
 43 42  1  0  0  0  0
 46 16  1  0  0  0  0
 46 47  1  0  0  0  0
 48 50  1  0  0  0  0
 48 51  1  0  0  0  0
 48 49  1  0  0  0  0
 52 55  1  0  0  0  0
 52 54  1  0  0  0  0
 52 53  1  0  0  0  0
M  END
