1,15,22
q = 0.0, confidence = 0.986

 54 54  0  0  1  0  0  0  0  0999 V2000
    2.7864    0.6963    0.0103 N   0  0  0  0  0  2  0  0  0  0  0  0
    4.1450    0.6488   -0.0022 C   0  0  2  0  0  3  0  0  0  0  0  0
    4.6587    1.9608    0.0631 C   0  0  0  0  0  0  0  0  0  0  0  0
    5.7134    2.2533    0.0652 H   0  0  0  0  0  0  0  0  0  0  0  0
    3.5591    2.8198    0.1131 C   0  0  0  0  0  0  0  0  0  0  0  0
    2.4495    2.0199    0.0751 N   0  0  0  0  0  0  0  0  0  0  0  0
    4.9293   -0.6168   -0.1268 C   0  0  0  0  0  0  0  0  0  0  0  0
    4.5019   -1.4502    0.4632 H   0  0  0  0  0  0  0  0  0  0  0  0
    5.9685   -0.4528    0.2128 H   0  0  0  0  0  0  0  0  0  0  0  0
    4.9715   -0.9620   -1.1798 H   0  0  0  0  0  0  0  0  0  0  0  0
    3.5008    4.3090    0.1891 C   0  0  0  0  0  0  0  0  0  0  0  0
    3.0039    4.6649    1.1156 H   0  0  0  0  0  0  0  0  0  0  0  0
    2.9622    4.7474   -0.6761 H   0  0  0  0  0  0  0  0  0  0  0  0
    4.5266    4.7190    0.1853 H   0  0  0  0  0  0  0  0  0  0  0  0
   -0.1143    0.4237    1.2070 N   0  0  0  0  0  0  0  0  0  0  0  0
    1.2730   -0.7800    2.8962 C   0  0  0  0  0  0  0  0  0  0  0  0
    1.9305    0.0996    3.0449 H   0  0  0  0  0  0  0  0  0  0  0  0
    1.2278   -1.3143    3.8679 H   0  0  0  0  0  0  0  0  0  0  0  0
   -0.1275   -0.3390    2.4894 C   0  0  0  0  0  0  0  0  0  0  0  0
   -0.7779   -1.2254    2.3402 H   0  0  0  0  0  0  0  0  0  0  0  0
   -0.5794    0.2633    3.3079 H   0  0  0  0  0  0  0  0  0  0  0  0
    1.8875   -1.6210    1.8341 N   0  0  0  0  0  0  0  0  0  0  0  0
    1.5955   -2.6031    1.9402 H   0  0  0  0  0  0  0  0  0  0  0  0
    2.9118   -1.6245    1.9391 H   0  0  0  0  0  0  0  0  0  0  0  0
    0.3883    1.8112    1.4286 C   0  0  0  0  0  0  0  0  0  0  0  0
   -0.4556    2.4562    1.7503 H   0  0  0  0  0  0  0  0  0  0  0  0
    1.1181    1.8093    2.2606 H   0  0  0  0  0  0  0  0  0  0  0  0
    1.0613    2.4286    0.2039 C   0  0  0  0  0  0  0  0  0  0  0  0
    0.5046    2.1911   -0.7261 H   0  0  0  0  0  0  0  0  0  0  0  0
    1.0605    3.5289    0.3034 H   0  0  0  0  0  0  0  0  0  0  0  0
   -1.4844    0.4733    0.5881 C   0  0  0  0  0  0  0  0  0  0  0  0
   -1.7476   -0.5528    0.2762 H   0  0  0  0  0  0  0  0  0  0  0  0
   -1.4057    1.0653   -0.3430 H   0  0  0  0  0  0  0  0  0  0  0  0
   -2.6264    1.0302    1.4364 C   0  0  0  0  0  0  0  0  0  0  0  0
   -2.4946    2.0898    1.7368 H   0  0  0  0  0  0  0  0  0  0  0  0
   -2.8135    0.4406    2.3567 H   0  0  0  0  0  0  0  0  0  0  0  0
   -4.1949    0.9685    0.4847 P   0  0  0  0  0  0  0  0  0  0  0  0
   -4.2176   -0.5437   -0.1644 O   0  0  0  0  0  0  0  0  0  0  0  0
   -3.7164    1.8639   -0.7894 O   0  0  0  0  0  0  0  0  0  0  0  0
   -5.4293    1.3520    1.2375 O   0  0  0  0  0  0  0  0  0  0  0  0
   -5.0910   -1.5631    0.3867 C   0  0  0  0  0  0  0  0  0  0  0  0
   -5.9471   -1.0668    0.8888 H   0  0  0  0  0  0  0  0  0  0  0  0
   -5.4760   -2.1278   -0.4857 H   0  0  0  0  0  0  0  0  0  0  0  0
   -4.3318   -2.4735    1.3362 C   0  0  0  0  0  0  0  0  0  0  0  0
   -4.9876   -3.2982    1.6806 H   0  0  0  0  0  0  0  0  0  0  0  0
   -3.9934   -1.9224    2.2387 H   0  0  0  0  0  0  0  0  0  0  0  0
   -3.4491   -2.9219    0.8366 H   0  0  0  0  0  0  0  0  0  0  0  0
   -4.5655    1.9658   -1.9679 C   0  0  0  0  0  0  0  0  0  0  0  0
   -5.6146    1.7340   -1.6860 H   0  0  0  0  0  0  0  0  0  0  0  0
   -4.5319    3.0331   -2.2652 H   0  0  0  0  0  0  0  0  0  0  0  0
   -4.0584    1.0579   -3.0722 C   0  0  0  0  0  0  0  0  0  0  0  0
   -4.6637    1.2007   -3.9898 H   0  0  0  0  0  0  0  0  0  0  0  0
   -4.1258   -0.0045   -2.7680 H   0  0  0  0  0  0  0  0  0  0  0  0
   -3.0015    1.2852   -3.3186 H   0  0  0  0  0  0  0  0  0  0  0  0
  1  6  1  0  0  0  0
  2  7  1  6  0  0  0
  2  1  1  0  0  0  0
  2  3  1  0  0  0  0
  3  4  1  0  0  0  0
  3  5  2  0  0  0  0
  5 11  1  0  0  0  0
  6  5  1  0  0  0  0
  6 28  1  0  0  0  0
  7  9  1  0  0  0  0
  7  8  1  0  0  0  0
 10  7  1  0  0  0  0
 11 12  1  0  0  0  0
 13 11  1  0  0  0  0
 14 11  1  0  0  0  0
 15 25  1  0  0  0  0
 15 19  1  0  0  0  0
 16 17  1  0  0  0  0
 16 18  1  0  0  0  0
 19 16  1  0  0  0  0
 19 21  1  0  0  0  0
 20 19  1  0  0  0  0
 22 24  1  0  0  0  0
 22 23  1  0  0  0  0
 22 16  1  0  0  0  0
 25 26  1  0  0  0  0
 25 27  1  0  0  0  0
 28 30  1  0  0  0  0
 28 25  1  0  0  0  0
 29 28  1  0  0  0  0
 31 15  1  0  0  0  0
 31 34  1  0  0  0  0
 32 31  1  0  0  0  0
 33 31  1  0  0  0  0
 34 35  1  0  0  0  0
 34 36  1  0  0  0  0
 37 40  2  0  0  0  0
 37 34  1  0  0  0  0
 38 41  1  0  0  0  0
 38 37  1  0  0  0  0
 39 37  1  0  0  0  0
 41 42  1  0  0  0  0
 41 44  1  0  0  0  0
 43 41  1  0  0  0  0
 44 45  1  0  0  0  0
 44 46  1  0  0  0  0
 47 44  1  0  0  0  0
 48 49  1  0  0  0  0
 48 39  1  0  0  0  0
 50 48  1  0  0  0  0
 51 53  1  0  0  0  0
 51 48  1  0  0  0  0
 52 51  1  0  0  0  0
 54 51  1  0  0  0  0
M  END
