1,2,3
q = -1.0, confidence = 0.0

 35 35  0  0  0  0  0  0  0  0999 V2000
    0.8390   -1.3708   -0.0318 N   0  0  0  0  0  0  0  0  0  0  0  0
    0.3128    1.1758   -0.1678 N   0  0  0  0  0  2  0  0  0  0  0  0
   -2.2798    1.0402   -0.0188 N   0  0  0  0  0  0  0  0  0  0  0  0
    0.8365   -2.2736   -1.2116 C   0  0  0  0  0  0  0  0  0  0  0  0
    1.7315   -2.9330   -1.2027 H   0  0  0  0  0  0  0  0  0  0  0  0
    0.8507   -1.6580   -2.1296 H   0  0  0  0  0  0  0  0  0  0  0  0
   -0.0869   -2.8813   -1.1858 H   0  0  0  0  0  0  0  0  0  0  0  0
    0.8371   -2.1567    1.2320 C   0  0  0  0  0  0  0  0  0  0  0  0
    1.7329   -2.8131    1.2807 H   0  0  0  0  0  0  0  0  0  0  0  0
   -0.0897   -2.7584    1.2732 H   0  0  0  0  0  0  0  0  0  0  0  0
    0.8613   -1.4552    2.0860 H   0  0  0  0  0  0  0  0  0  0  0  0
    1.9976   -0.4529   -0.0565 C   0  0  0  0  0  0  0  0  0  0  0  0
    3.3261   -0.8764   -0.0421 C   0  0  0  0  0  0  0  0  0  0  0  0
    3.5688   -1.9502   -0.0566 H   0  0  0  0  0  0  0  0  0  0  0  0
    4.3610    0.0772    0.0150 C   0  0  0  0  0  0  0  0  0  0  0  0
    5.4110   -0.2476    0.0330 H   0  0  0  0  0  0  0  0  0  0  0  0
    4.0310    1.4434    0.0735 C   0  0  0  0  0  0  0  0  0  0  0  0
    4.8349    2.1934    0.1403 H   0  0  0  0  0  0  0  0  0  0  0  0
    2.6993    1.8771    0.0538 C   0  0  0  0  0  0  0  0  0  0  0  0
    2.4674    2.9507    0.1037 H   0  0  0  0  0  0  0  0  0  0  0  0
    1.6463    0.9248   -0.0457 C   0  0  0  0  0  0  0  0  0  0  0  0
   -0.2755    2.4685    0.0555 C   0  0  0  0  0  0  0  0  0  0  0  0
    0.2481    3.2817   -0.5006 H   0  0  0  0  0  0  0  0  0  0  0  0
   -0.2639    2.7795    1.1333 H   0  0  0  0  0  0  0  0  0  0  0  0
   -1.6970    2.3435   -0.4679 C   0  0  0  0  0  0  0  0  0  0  0  0
   -2.3594    3.1841   -0.1597 H   0  0  0  0  0  0  0  0  0  0  0  0
   -1.6686    2.3087   -1.5743 H   0  0  0  0  0  0  0  0  0  0  0  0
   -2.6880    1.0836    1.4038 C   0  0  0  0  0  0  0  0  0  0  0  0
   -3.5129    1.8182    1.5531 H   0  0  0  0  0  0  0  0  0  0  0  0
   -1.8269    1.3727    2.0339 H   0  0  0  0  0  0  0  0  0  0  0  0
   -3.0216    0.0707    1.6958 H   0  0  0  0  0  0  0  0  0  0  0  0
   -3.4465    0.7051   -0.8638 C   0  0  0  0  0  0  0  0  0  0  0  0
   -3.8489   -0.2730   -0.5468 H   0  0  0  0  0  0  0  0  0  0  0  0
   -3.1216    0.6225   -1.9175 H   0  0  0  0  0  0  0  0  0  0  0  0
   -4.2217    1.5000   -0.7774 H   0  0  0  0  0  0  0  0  0  0  0  0
  1  8  1  0  0  0  0
  2 21  1  0  0  0  0
  2 22  1  0  0  0  0
  3 28  1  0  0  0  0
  4  5  1  0  0  0  0
  4  7  1  0  0  0  0
  4  1  1  0  0  0  0
  6  4  1  0  0  0  0
  8 10  1  0  0  0  0
  8  9  1  0  0  0  0
  8 11  1  0  0  0  0
 12 21  2  0  0  0  0
 12 13  1  0  0  0  0
 12  1  1  0  0  0  0
 13 15  2  0  0  0  0
 14 13  1  0  0  0  0
 15 16  1  0  0  0  0
 15 17  1  0  0  0  0
 17 18  1  0  0  0  0
 19 17  2  0  0  0  0
 19 20  1  0  0  0  0
 21 19  1  0  0  0  0
 22 24  1  0  0  0  0
 23 22  1  0  0  0  0
 25 26  1  0  0  0  0
 25  3  1  0  0  0  0
 25 22  1  0  0  0  0
 27 25  1  0  0  0  0
 28 29  1  0  0  0  0
 28 31  1  0  0  0  0
 28 30  1  0  0  0  0
 32 35  1  0  0  0  0
 32 33  1  0  0  0  0
 32  3  1  0  0  0  0
 34 32  1  0  0  0  0
M  END
