1,2,3
q = -1.0, confidence = 0.022

 31 33  0  0  1  0  0  0  0  0999 V2000
    1.5802   -1.6454   -0.4464 N   0  0  0  0  0  2  0  0  0  0  0  0
    0.9550   -0.4298    1.8137 N   0  0  0  0  0  2  0  0  0  0  0  0
   -1.4974    0.7190    0.7252 N   0  0  0  0  0  0  0  0  0  0  0  0
   -2.4510    1.2112   -0.0605 N   0  0  0  0  0  0  0  0  0  0  0  0
   -1.1299    1.1663    4.3040 O   0  0  0  0  0  0  0  0  0  0  0  0
    1.8062   -2.2388   -1.6408 C   0  0  0  0  0  3  0  0  0  0  0  0
    0.9686   -2.2205   -2.3524 H   0  0  0  0  0  0  0  0  0  0  0  0
    3.0333   -2.8156   -1.9710 C   0  0  0  0  0  0  0  0  0  0  0  0
    3.1690   -3.2761   -2.9595 H   0  0  0  0  0  0  0  0  0  0  0  0
    4.0769   -2.7706   -1.0320 C   0  0  0  0  0  0  0  0  0  0  0  0
    5.0642   -3.1942   -1.2657 H   0  0  0  0  0  0  0  0  0  0  0  0
    3.8432   -2.1668    0.2064 C   0  0  0  0  0  0  0  0  0  0  0  0
    4.6469   -2.1066    0.9512 H   0  0  0  0  0  0  0  0  0  0  0  0
    2.5821   -1.6125    0.4874 C   0  0  0  0  0  0  0  0  0  0  0  0
    2.2196   -0.9803    1.7640 C   0  0  2  0  0  3  0  0  0  0  0  0
    3.0759   -0.9603    2.8730 C   0  0  0  0  0  0  0  0  0  0  0  0
    4.0772   -1.4030    2.7951 H   0  0  0  0  0  0  0  0  0  0  0  0
    2.6504   -0.3752    4.0701 C   0  0  0  0  0  0  0  0  0  0  0  0
    3.3122   -0.3468    4.9475 H   0  0  0  0  0  0  0  0  0  0  0  0
    1.3691    0.1737    4.1169 C   0  0  0  0  0  0  0  0  0  0  0  0
    0.9493    0.6511    5.0128 H   0  0  0  0  0  0  0  0  0  0  0  0
    0.5403    0.1472    2.9797 C   0  0  0  0  0  0  0  0  0  0  0  0
   -0.8133    0.8237    3.1574 C   0  0  0  0  0  0  0  0  0  0  0  0
   -1.6794    1.1300    2.0265 C   0  0  0  0  0  3  0  0  0  0  0  0
   -2.8367    1.9431    2.0637 C   0  0  0  0  0  0  0  0  0  0  0  0
   -3.2589    2.4403    2.9411 H   0  0  0  0  0  0  0  0  0  0  0  0
   -3.2632    1.9629    0.7328 C   0  0  0  0  0  0  0  0  0  0  0  0
   -4.4341    2.6671    0.1255 C   0  0  0  0  0  0  0  0  0  0  0  0
   -4.0658    3.4450   -0.9260 F   0  0  0  0  0  0  0  0  0  0  0  0
   -5.0458    3.4657    1.0325 F   0  0  0  0  0  0  0  0  0  0  0  0
   -5.3695    1.8009   -0.3456 F   0  0  0  0  0  0  0  0  0  0  0  0
  1 14  1  0  0  0  0
  2 22  1  0  0  0  0
  3 24  1  0  0  0  0
  4  3  2  0  0  0  0
  4 27  1  0  0  0  0
  6  1  1  0  0  0  0
  7  6  1  0  0  0  0
  8  6  1  0  0  0  0
  8 10  2  0  0  0  0
  9  8  1  0  0  0  0
 10 12  1  0  0  0  0
 11 10  1  0  0  0  0
 12 14  2  0  0  0  0
 12 13  1  0  0  0  0
 15 14  1  1  0  0  0
 15  2  1  0  0  0  0
 15 16  1  0  0  0  0
 16 18  2  0  0  0  0
 17 16  1  0  0  0  0
 18 20  1  0  0  0  0
 18 19  1  0  0  0  0
 20 21  1  0  0  0  0
 22 23  1  0  0  0  0
 22 20  2  0  0  0  0
 23  5  2  0  0  0  0
 24 25  1  0  0  0  0
 24 23  1  0  0  0  0
 25 26  1  0  0  0  0
 27 25  2  0  0  0  0
 28 27  1  0  0  0  0
 28 30  1  0  0  0  0
 29 28  1  0  0  0  0
 31 28  1  0  0  0  0
M  END
