1,10,20
q = -1.0

 35 38  0  0  0  0  0  0  0  0999 V2000
   -2.0654   -0.1303    0.1043 N   0  0  0  0  0  2  0  0  0  0  0  0
   -2.6590   -1.3511    0.0198 C   0  0  0  0  0  0  0  0  0  0  0  0
   -4.0296   -1.5117   -0.1839 C   0  0  0  0  0  0  0  0  0  0  0  0
   -4.8577   -0.3796   -0.2997 C   0  0  0  0  0  0  0  0  0  0  0  0
   -4.2494    0.8628   -0.2238 C   0  0  0  0  0  0  0  0  0  0  0  0
   -2.8417    1.0006   -0.0451 C   0  0  0  0  0  0  0  0  0  0  0  0
   -4.7480   -3.2590   -0.2928 Br  0  0  0  0  0  0  0  0  0  0  0  0
   -2.3851    2.2831   -0.0435 N   0  0  0  0  0  0  0  0  0  0  0  0
   -1.1306    2.6420   -0.0742 C   0  0  0  0  0  0  0  0  0  0  0  0
   -0.0000    1.8496   -0.1105 N   0  0  0  0  0  0  0  0  0  0  0  0
    1.1305    2.6421   -0.0743 C   0  0  0  0  0  0  0  0  0  0  0  0
    0.7043    4.0568   -0.0700 C   0  0  0  0  0  0  0  0  0  0  0  0
   -0.7045    4.0567   -0.0700 C   0  0  0  0  0  3  0  0  0  0  0  0
   -1.4334    5.2488   -0.0634 C   0  0  0  0  0  0  0  0  0  0  0  0
   -0.7054    6.4532   -0.0564 C   0  0  0  0  0  0  0  0  0  0  0  0
    0.7052    6.4532   -0.0565 C   0  0  0  0  0  0  0  0  0  0  0  0
    1.4332    5.2489   -0.0635 C   0  0  0  0  0  0  0  0  0  0  0  0
    2.3850    2.2832   -0.0437 N   0  0  0  0  0  0  0  0  0  0  0  0
    2.8417    1.0007   -0.0453 C   0  0  0  0  0  0  0  0  0  0  0  0
    2.0654   -0.1303    0.1043 N   0  0  0  0  0  2  0  0  0  0  0  0
    2.6590   -1.3511    0.0198 C   0  0  0  0  0  0  0  0  0  0  0  0
    4.0297   -1.5116   -0.1840 C   0  0  0  0  0  0  0  0  0  0  0  0
    4.8577   -0.3795   -0.2999 C   0  0  0  0  0  0  0  0  0  0  0  0
    4.2494    0.8630   -0.2241 C   0  0  0  0  0  0  0  0  0  0  0  0
    4.7482   -3.2589   -0.2927 Br  0  0  0  0  0  0  0  0  0  0  0  0
   -1.9948   -2.2174    0.1514 H   0  0  0  0  0  0  0  0  0  0  0  0
   -5.9419   -0.4820   -0.4488 H   0  0  0  0  0  0  0  0  0  0  0  0
   -4.8180    1.7976   -0.3141 H   0  0  0  0  0  0  0  0  0  0  0  0
   -2.5329    5.2306   -0.0620 H   0  0  0  0  0  0  0  0  0  0  0  0
   -1.2436    7.4131   -0.0498 H   0  0  0  0  0  0  0  0  0  0  0  0
    1.2434    7.4132   -0.0500 H   0  0  0  0  0  0  0  0  0  0  0  0
    2.5327    5.2307   -0.0623 H   0  0  0  0  0  0  0  0  0  0  0  0
    1.9949   -2.2174    0.1516 H   0  0  0  0  0  0  0  0  0  0  0  0
    5.9419   -0.4818   -0.4490 H   0  0  0  0  0  0  0  0  0  0  0  0
    4.8179    1.7977   -0.3145 H   0  0  0  0  0  0  0  0  0  0  0  0
  2  1  1  0  0  0  0
  2 26  1  0  0  0  0
  3  2  2  0  0  0  0
  4  5  2  0  0  0  0
  4  3  1  0  0  0  0
  5  6  1  0  0  0  0
  6  8  2  0  0  0  0
  6  1  1  0  0  0  0
  7  3  1  0  0  0  0
  9 13  1  0  0  0  0
  9  8  1  0  0  0  0
 10 11  1  0  0  0  0
 10  9  2  0  0  0  0
 11 12  2  0  0  0  0
 11 18  1  0  0  0  0
 12 13  1  0  0  0  0
 12 17  1  0  0  0  0
 13 14  1  0  0  0  0
 14 29  1  0  0  0  0
 14 15  2  0  0  0  0
 15 30  1  0  0  0  0
 16 15  1  0  0  0  0
 16 31  1  0  0  0  0
 17 32  1  0  0  0  0
 17 16  2  0  0  0  0
 19 18  2  0  0  0  0
 19 20  1  0  0  0  0
 21 20  1  0  0  0  0
 21 33  1  0  0  0  0
 22 21  2  0  0  0  0
 23 24  2  0  0  0  0
 23 22  1  0  0  0  0
 24 19  1  0  0  0  0
 25 22  1  0  0  0  0
 27  4  1  0  0  0  0
 28  5  1  0  0  0  0
 34 23  1  0  0  0  0
 35 24  1  0  0  0  0
M  END
