1,15,25
q = -1.0

 63 66  0  0  0  0  0  0  0  0999 V2000
   -2.0650   -0.9812    0.1465 N   0  0  0  0  0  2  0  0  0  0  0  0
   -2.6541    0.2380    0.1016 C   0  0  0  0  0  0  0  0  0  0  0  0
   -4.0337    0.4384   -0.1034 C   0  0  0  0  0  0  0  0  0  0  0  0
   -4.8506   -0.7132   -0.2601 C   0  0  0  0  0  0  0  0  0  0  0  0
   -4.2502   -1.9575   -0.2268 C   0  0  0  0  0  0  0  0  0  0  0  0
   -2.8431   -2.1057   -0.0486 C   0  0  0  0  0  0  0  0  0  0  0  0
   -4.5603    1.7588   -0.1380 C   0  0  0  0  0  0  0  0  0  0  0  0
   -5.0179    2.9066   -0.1681 C   0  0  0  0  0  0  0  0  0  0  0  0
   -5.6706    4.6389   -0.1987 Si  0  0  0  0  0  0  0  0  0  0  0  0
   -7.3952    4.6110   -0.9710 C   0  0  0  0  0  0  0  0  0  0  0  0
   -5.7474    5.2741    1.5792 C   0  0  0  0  0  0  0  0  0  0  0  0
   -4.4924    5.6941   -1.2320 C   0  0  0  0  0  0  0  0  0  0  0  0
   -2.3866   -3.3860   -0.0945 N   0  0  0  0  0  0  0  0  0  0  0  0
   -1.1314   -3.7449   -0.1393 C   0  0  0  0  0  0  0  0  0  0  0  0
   -0.0009   -2.9523   -0.1503 N   0  0  0  0  0  2  0  0  0  0  0  0
    1.1292   -3.7456   -0.1401 C   0  0  0  0  0  0  0  0  0  0  0  0
    0.7030   -5.1592   -0.1839 C   0  0  0  0  0  0  0  0  0  0  0  0
   -0.7061   -5.1588   -0.1834 C   0  0  0  0  0  0  0  0  0  0  0  0
   -1.4352   -6.3505   -0.2166 C   0  0  0  0  0  0  0  0  0  0  0  0
   -0.7076   -7.5546   -0.2504 C   0  0  0  0  0  0  0  0  0  0  0  0
    0.7031   -7.5550   -0.2509 C   0  0  0  0  0  0  0  0  0  0  0  0
    1.4314   -6.3513   -0.2177 C   0  0  0  0  0  0  0  0  0  0  0  0
    2.3845   -3.3873   -0.0961 N   0  0  0  0  0  0  0  0  0  0  0  0
    2.8419   -2.1074   -0.0501 C   0  0  0  0  0  0  0  0  0  0  0  0
    2.0646   -0.9824    0.1460 N   0  0  0  0  0  2  0  0  0  0  0  0
    2.6545    0.2364    0.1015 C   0  0  0  0  0  0  0  0  0  0  0  0
    4.0340    0.4360   -0.1043 C   0  0  0  0  0  0  0  0  0  0  0  0
    4.8501   -0.7160   -0.2623 C   0  0  0  0  0  0  0  0  0  0  0  0
    4.2489   -1.9599   -0.2292 C   0  0  0  0  0  0  0  0  0  0  0  0
    4.5615    1.7561   -0.1383 C   0  0  0  0  0  0  0  0  0  0  0  0
    5.0198    2.9036   -0.1680 C   0  0  0  0  0  0  0  0  0  0  0  0
    5.6732    4.6357   -0.1977 Si  0  0  0  0  0  0  0  0  0  0  0  0
    4.4962    5.6916   -1.2315 C   0  0  0  0  0  0  0  0  0  0  0  0
    5.7493    5.2704    1.5803 C   0  0  0  0  0  0  0  0  0  0  0  0
    7.3983    4.6072   -0.9691 C   0  0  0  0  0  0  0  0  0  0  0  0
   -1.9878    1.0963    0.2649 H   0  0  0  0  0  0  0  0  0  0  0  0
   -5.9342   -0.6043   -0.4091 H   0  0  0  0  0  0  0  0  0  0  0  0
   -4.8181   -2.8884   -0.3529 H   0  0  0  0  0  0  0  0  0  0  0  0
   -7.8207    5.6353   -1.0059 H   0  0  0  0  0  0  0  0  0  0  0  0
   -7.3610    4.2168   -2.0067 H   0  0  0  0  0  0  0  0  0  0  0  0
   -8.0841    3.9721   -0.3826 H   0  0  0  0  0  0  0  0  0  0  0  0
   -6.1290    6.3160    1.6020 H   0  0  0  0  0  0  0  0  0  0  0  0
   -6.4198    4.6459    2.1974 H   0  0  0  0  0  0  0  0  0  0  0  0
   -4.7423    5.2632    2.0466 H   0  0  0  0  0  0  0  0  0  0  0  0
   -4.8449    6.7457   -1.2692 H   0  0  0  0  0  0  0  0  0  0  0  0
   -3.4722    5.6864   -0.7984 H   0  0  0  0  0  0  0  0  0  0  0  0
   -4.4262    5.3145   -2.2714 H   0  0  0  0  0  0  0  0  0  0  0  0
   -2.5347   -6.3318   -0.2142 H   0  0  0  0  0  0  0  0  0  0  0  0
   -1.2461   -8.5142   -0.2758 H   0  0  0  0  0  0  0  0  0  0  0  0
    1.2410   -8.5149   -0.2767 H   0  0  0  0  0  0  0  0  0  0  0  0
    2.5309   -6.3332   -0.2161 H   0  0  0  0  0  0  0  0  0  0  0  0
    1.9888    1.0950    0.2657 H   0  0  0  0  0  0  0  0  0  0  0  0
    5.9337   -0.6077   -0.4120 H   0  0  0  0  0  0  0  0  0  0  0  0
    4.8161   -2.8912   -0.3562 H   0  0  0  0  0  0  0  0  0  0  0  0
    4.8491    6.7431   -1.2683 H   0  0  0  0  0  0  0  0  0  0  0  0
    4.4304    5.3123   -2.2711 H   0  0  0  0  0  0  0  0  0  0  0  0
    3.4756    5.6843   -0.7985 H   0  0  0  0  0  0  0  0  0  0  0  0
    6.1316    6.3120    1.6037 H   0  0  0  0  0  0  0  0  0  0  0  0
    4.7438    5.2602    2.0470 H   0  0  0  0  0  0  0  0  0  0  0  0
    6.4207    4.6415    2.1989 H   0  0  0  0  0  0  0  0  0  0  0  0
    7.8243    5.6314   -1.0036 H   0  0  0  0  0  0  0  0  0  0  0  0
    8.0867    3.9680   -0.3803 H   0  0  0  0  0  0  0  0  0  0  0  0
    7.3646    4.2131   -2.0047 H   0  0  0  0  0  0  0  0  0  0  0  0
  2  1  1  0  0  0  0
  2 36  1  0  0  0  0
  3  2  2  0  0  0  0
  4  5  2  0  0  0  0
  4  3  1  0  0  0  0
  5  6  1  0  0  0  0
  6  1  1  0  0  0  0
  7  3  1  0  0  0  0
  8  7  3  0  0  0  0
  9  8  1  0  0  0  0
  9 11  1  0  0  0  0
 10 41  1  0  0  0  0
 10  9  1  0  0  0  0
 11 42  1  0  0  0  0
 11 44  1  0  0  0  0
 11 43  1  0  0  0  0
 12 46  1  0  0  0  0
 12  9  1  0  0  0  0
 13  6  2  0  0  0  0
 14 13  1  0  0  0  0
 15 16  1  0  0  0  0
 15 14  1  0  0  0  0
 16 23  1  0  0  0  0
 17 18  1  0  0  0  0
 17 16  2  0  0  0  0
 18 14  2  0  0  0  0
 19 48  1  0  0  0  0
 19 18  1  0  0  0  0
 20 19  2  0  0  0  0
 21 20  1  0  0  0  0
 21 22  2  0  0  0  0
 22 51  1  0  0  0  0
 22 17  1  0  0  0  0
 23 24  2  0  0  0  0
 24 25  1  0  0  0  0
 26 25  1  0  0  0  0
 26 52  1  0  0  0  0
 27 26  2  0  0  0  0
 28 29  2  0  0  0  0
 28 27  1  0  0  0  0
 29 24  1  0  0  0  0
 30 27  1  0  0  0  0
 31 30  3  0  0  0  0
 32 31  1  0  0  0  0
 32 34  1  0  0  0  0
 33 57  1  0  0  0  0
 33 32  1  0  0  0  0
 34 58  1  0  0  0  0
 34 59  1  0  0  0  0
 34 60  1  0  0  0  0
 35 62  1  0  0  0  0
 35 32  1  0  0  0  0
 37  4  1  0  0  0  0
 38  5  1  0  0  0  0
 39 10  1  0  0  0  0
 40 10  1  0  0  0  0
 45 12  1  0  0  0  0
 47 12  1  0  0  0  0
 49 20  1  0  0  0  0
 50 21  1  0  0  0  0
 53 28  1  0  0  0  0
 54 29  1  0  0  0  0
 55 33  1  0  0  0  0
 56 33  1  0  0  0  0
 61 35  1  0  0  0  0
 63 35  1  0  0  0  0
M  END
