2,3,5
q = -1.0

 61 63  0  0  1  0  0  0  0  0999 V2000
   -1.6339   -3.1654    1.1204 O   0  0  0  0  0  0  0  0  0  0  0  0
   -0.8099   -1.2400    0.3320 N   0  0  0  0  0  2  0  0  0  0  0  0
    1.7939   -1.1863   -0.0874 N   0  0  0  0  0  0  0  0  0  0  0  0
    3.6717    2.3247   -0.9786 O   0  0  0  0  0  0  0  0  0  0  0  0
    1.7107    1.4502   -0.3410 N   0  0  0  0  0  2  0  0  0  0  0  0
    3.1451    0.0499   -1.8064 C   0  0  0  0  0  0  0  0  0  0  0  0
    0.7672   -4.1725    2.0298 C   0  0  0  0  0  0  0  0  0  0  0  0
    0.6634   -4.8262    1.1429 H   0  0  0  0  0  0  0  0  0  0  0  0
   -0.0493   -4.4090    2.7382 H   0  0  0  0  0  0  0  0  0  0  0  0
    1.7321   -4.4037    2.5197 H   0  0  0  0  0  0  0  0  0  0  0  0
    1.7894    2.7011    0.4333 C   0  0  2  0  0  0  0  0  0  0  0  0
    0.8735    3.2965    0.2499 H   0  0  0  0  0  0  0  0  0  0  0  0
    2.9382   -1.1139   -0.8505 C   0  0  0  0  0  0  0  0  0  0  0  0
    3.0499    1.5021    2.3160 C   0  0  0  0  0  0  0  0  0  0  0  0
    3.0299    0.5505    1.7479 H   0  0  0  0  0  0  0  0  0  0  0  0
    3.0247    1.2494    3.3950 H   0  0  0  0  0  0  0  0  0  0  0  0
    4.0233    2.0013    2.1218 H   0  0  0  0  0  0  0  0  0  0  0  0
   -3.4598   -1.4275   -2.4234 C   0  0  0  0  0  0  0  0  0  0  0  0
   -4.0565   -2.3193   -2.1344 H   0  0  0  0  0  0  0  0  0  0  0  0
   -3.3899   -1.4297   -3.5298 H   0  0  0  0  0  0  0  0  0  0  0  0
   -4.0274   -0.5274   -2.1125 H   0  0  0  0  0  0  0  0  0  0  0  0
   -2.1598   -1.2973   -0.2544 C   0  0  1  0  0  0  0  0  0  0  0  0
   -2.6847   -0.3516   -0.0209 H   0  0  0  0  0  0  0  0  0  0  0  0
   -2.0654   -1.4551   -1.7907 C   0  0  0  0  0  0  0  0  0  0  0  0
   -1.5153   -0.5480   -2.1273 H   0  0  0  0  0  0  0  0  0  0  0  0
    1.8247   -2.3662    0.6219 C   0  0  0  0  0  3  0  0  0  0  0  0
    1.8321    3.6947    2.7601 C   0  0  0  0  0  0  0  0  0  0  0  0
    2.7389    4.3132    2.5846 H   0  0  0  0  0  0  0  0  0  0  0  0
    1.7946    3.4777    3.8464 H   0  0  0  0  0  0  0  0  0  0  0  0
    0.9458    4.3127    2.5080 H   0  0  0  0  0  0  0  0  0  0  0  0
    4.5888    0.1005   -2.3243 C   0  0  0  0  0  0  0  0  0  0  0  0
    5.3126    0.1619   -1.4897 H   0  0  0  0  0  0  0  0  0  0  0  0
    4.7422    0.9741   -2.9865 H   0  0  0  0  0  0  0  0  0  0  0  0
    4.8034   -0.8178   -2.9030 H   0  0  0  0  0  0  0  0  0  0  0  0
    0.7380   -2.6889    1.6337 C   0  0  0  0  0  0  0  0  0  0  0  0
    3.0393    3.3720   -0.1855 C   0  0  0  0  0  0  0  0  0  0  0  0
    2.7891    4.2051   -0.8730 H   0  0  0  0  0  0  0  0  0  0  0  0
    3.7793    3.7262    0.5581 H   0  0  0  0  0  0  0  0  0  0  0  0
   -2.7748   -2.4899    0.5074 C   0  0  0  0  0  0  0  0  0  0  0  0
   -3.4542   -2.1682    1.3232 H   0  0  0  0  0  0  0  0  0  0  0  0
   -3.2977   -3.2241   -0.1347 H   0  0  0  0  0  0  0  0  0  0  0  0
    2.8050    1.2990   -1.0246 C   0  0  2  0  0  3  0  0  0  0  0  0
   -0.5878   -2.3289    1.0013 C   0  0  1  0  0  3  0  0  0  0  0  0
    2.1517   -0.0482   -2.9978 C   0  0  0  0  0  0  0  0  0  0  0  0
    2.3544   -0.9798   -3.5609 H   0  0  0  0  0  0  0  0  0  0  0  0
    2.2494    0.8195   -3.6826 H   0  0  0  0  0  0  0  0  0  0  0  0
    1.1115   -0.0890   -2.6168 H   0  0  0  0  0  0  0  0  0  0  0  0
    3.7165   -2.2591   -0.6272 C   0  0  0  0  0  0  0  0  0  0  0  0
    4.6772   -2.4976   -1.0974 H   0  0  0  0  0  0  0  0  0  0  0  0
    1.8626    2.3968    1.9473 C   0  0  0  0  0  0  0  0  0  0  0  0
    0.9228    1.8390    2.1526 H   0  0  0  0  0  0  0  0  0  0  0  0
   -1.2482   -2.6786   -2.2181 C   0  0  0  0  0  0  0  0  0  0  0  0
   -1.7189   -3.6282   -1.8852 H   0  0  0  0  0  0  0  0  0  0  0  0
   -0.2186   -2.6416   -1.8084 H   0  0  0  0  0  0  0  0  0  0  0  0
   -1.1690   -2.7256   -3.3229 H   0  0  0  0  0  0  0  0  0  0  0  0
    0.8990   -1.7983    2.8991 C   0  0  0  0  0  0  0  0  0  0  0  0
    0.0883   -1.9861    3.6333 H   0  0  0  0  0  0  0  0  0  0  0  0
    0.8795   -0.7293    2.6103 H   0  0  0  0  0  0  0  0  0  0  0  0
    1.8757   -2.0161    3.3735 H   0  0  0  0  0  0  0  0  0  0  0  0
    3.0036   -3.0604    0.3102 C   0  0  0  0  0  0  0  0  0  0  0  0
    3.3197   -4.0265    0.7197 H   0  0  0  0  0  0  0  0  0  0  0  0
  2 43  1  0  0  0  0
  3 26  1  0  0  0  0
  4 36  1  0  0  0  0
  5 11  1  0  0  0  0
  6 13  1  0  0  0  0
  7 10  1  0  0  0  0
  7  9  1  0  0  0  0
  8  7  1  0  0  0  0
 11 12  1  6  0  0  0
 11 50  1  0  0  0  0
 13 48  1  0  0  0  0
 13  3  2  0  0  0  0
 14 16  1  0  0  0  0
 15 14  1  0  0  0  0
 17 14  1  0  0  0  0
 18 19  1  0  0  0  0
 18 21  1  0  0  0  0
 18 24  1  0  0  0  0
 20 18  1  0  0  0  0
 22 23  1  1  0  0  0
 22  2  1  0  0  0  0
 22 39  1  0  0  0  0
 24 22  1  0  0  0  0
 25 24  1  0  0  0  0
 26 35  1  0  0  0  0
 27 29  1  0  0  0  0
 28 27  1  0  0  0  0
 30 27  1  0  0  0  0
 31  6  1  0  0  0  0
 31 32  1  0  0  0  0
 33 31  1  0  0  0  0
 34 31  1  0  0  0  0
 35  7  1  0  0  0  0
 35 56  1  0  0  0  0
 36 11  1  0  0  0  0
 36 38  1  0  0  0  0
 37 36  1  0  0  0  0
 39  1  1  0  0  0  0
 39 40  1  0  0  0  0
 41 39  1  0  0  0  0
 42  6  1  1  0  0  0
 42  4  1  0  0  0  0
 42  5  1  0  0  0  0
 43  1  1  0  0  0  0
 43 35  1  1  0  0  0
 44 47  1  0  0  0  0
 44  6  1  0  0  0  0
 45 44  1  0  0  0  0
 46 44  1  0  0  0  0
 48 60  2  0  0  0  0
 49 48  1  0  0  0  0
 50 51  1  0  0  0  0
 50 14  1  0  0  0  0
 50 27  1  0  0  0  0
 52 53  1  0  0  0  0
 52 54  1  0  0  0  0
 52 24  1  0  0  0  0
 55 52  1  0  0  0  0
 56 59  1  0  0  0  0
 56 57  1  0  0  0  0
 58 56  1  0  0  0  0
 60 26  1  0  0  0  0
 60 61  1  0  0  0  0
M  END
