1,4,5
q = -1.0, confidence = 0.0

 23 24  0  0  1  0  0  0  0  0999 V2000
   -1.3642   -1.3639    0.3423 N   0  0  0  0  0  2  0  0  0  0  0  0
   -1.9649   -1.9502   -0.7303 C   0  0  2  0  0  3  0  0  0  0  0  0
   -1.4533   -1.4104   -2.3100 S   0  0  0  0  0  0  0  0  0  0  0  0
   -0.0001   -0.5271   -1.8800 N   0  0  0  0  0  2  0  0  0  0  0  0
    1.3639   -1.3642    0.3424 N   0  0  0  0  0  2  0  0  0  0  0  0
    1.9644   -1.9507   -0.7303 C   0  0  1  0  0  3  0  0  0  0  0  0
    1.4530   -1.4106   -2.3100 S   0  0  0  0  0  0  0  0  0  0  0  0
    2.9793   -2.9178   -0.5731 C   0  0  0  0  0  0  0  0  0  0  0  0
    3.3545   -3.2990    0.7147 C   0  0  0  0  0  0  0  0  0  0  0  0
    2.6991   -2.7228    1.8178 C   0  0  0  0  0  0  0  0  0  0  0  0
    1.7097   -1.7681    1.5894 C   0  0  0  0  0  0  0  0  0  0  0  0
    1.1553   -1.2839    2.4050 H   0  0  0  0  0  0  0  0  0  0  0  0
    2.9465   -3.0082    2.8491 H   0  0  0  0  0  0  0  0  0  0  0  0
    4.1381   -4.0575    0.8598 H   0  0  0  0  0  0  0  0  0  0  0  0
    3.4391   -3.3694   -1.4636 H   0  0  0  0  0  0  0  0  0  0  0  0
   -2.9801   -2.9170   -0.5731 C   0  0  0  0  0  0  0  0  0  0  0  0
   -3.3556   -3.2980    0.7147 C   0  0  0  0  0  0  0  0  0  0  0  0
   -2.6999   -2.7220    1.8178 C   0  0  0  0  0  0  0  0  0  0  0  0
   -1.7102   -1.7676    1.5894 C   0  0  0  0  0  0  0  0  0  0  0  0
   -1.1556   -1.2836    2.4050 H   0  0  0  0  0  0  0  0  0  0  0  0
   -2.9475   -3.0072    2.8491 H   0  0  0  0  0  0  0  0  0  0  0  0
   -4.1394   -4.0562    0.8598 H   0  0  0  0  0  0  0  0  0  0  0  0
   -3.4401   -3.3684   -1.4636 H   0  0  0  0  0  0  0  0  0  0  0  0
  1 19  1  0  0  0  0
  2  3  1  6  0  0  0
  2 16  1  0  0  0  0
  2  1  1  0  0  0  0
  3  4  1  0  0  0  0
  5 11  1  0  0  0  0
  6  7  1  6  0  0  0
  6  8  1  0  0  0  0
  6  5  1  0  0  0  0
  7  4  1  0  0  0  0
  8  9  2  0  0  0  0
  9 14  1  0  0  0  0
  9 10  1  0  0  0  0
 10 13  1  0  0  0  0
 11 10  2  0  0  0  0
 11 12  1  0  0  0  0
 15  8  1  0  0  0  0
 16 17  2  0  0  0  0
 17 22  1  0  0  0  0
 17 18  1  0  0  0  0
 18 21  1  0  0  0  0
 19 18  2  0  0  0  0
 19 20  1  0  0  0  0
 23 16  1  0  0  0  0
M  END
