1,2,3
q = -1.0, confidence = 0.0

 26 27  0  0  1  0  0  0  0  0999 V2000
    0.3032    0.0589   -1.8628 N   0  0  0  0  0  2  0  0  0  0  0  0
    1.3862   -1.2865    0.0077 N   0  0  0  0  0  2  0  0  0  0  0  0
   -1.2747    1.4115   -0.4918 N   0  0  0  0  0  2  0  0  0  0  0  0
    3.4037   -3.1730   -0.3896 N   0  0  0  0  0  0  0  0  0  0  0  0
   -0.4102    0.8647   -2.6217 N   0  0  0  0  0  2  0  0  0  0  0  0
   -2.9856    3.2986   -1.6094 C   0  0  0  0  0  0  0  0  0  0  0  0
   -3.6654    4.0449   -2.0465 H   0  0  0  0  0  0  0  0  0  0  0  0
   -2.9658    3.0882   -0.2148 C   0  0  0  0  0  0  0  0  0  0  0  0
   -3.6155    3.6566    0.4639 H   0  0  0  0  0  0  0  0  0  0  0  0
    1.9284   -1.9371    1.0489 C   0  0  0  0  0  3  0  0  0  0  0  0
    1.5537   -1.6912    2.0534 H   0  0  0  0  0  0  0  0  0  0  0  0
    2.9436   -2.8843    0.8404 C   0  0  0  0  0  0  0  0  0  0  0  0
    3.3894   -3.4167    1.6963 H   0  0  0  0  0  0  0  0  0  0  0  0
    1.5711   -0.9187   -3.7737 C   0  0  0  0  0  0  0  0  0  0  0  0
    1.3946   -1.9502   -4.1441 H   0  0  0  0  0  0  0  0  0  0  0  0
    2.6400   -0.6835   -3.9594 H   0  0  0  0  0  0  0  0  0  0  0  0
    0.9493   -0.2206   -4.3621 H   0  0  0  0  0  0  0  0  0  0  0  0
    1.2290   -0.7920   -2.3254 C   0  0  1  0  0  3  0  0  0  0  0  0
    2.8687   -2.5204   -1.4192 C   0  0  0  0  0  0  0  0  0  0  0  0
    3.2495   -2.7553   -2.4275 H   0  0  0  0  0  0  0  0  0  0  0  0
   -2.0914    2.1318    0.3030 C   0  0  0  0  0  3  0  0  0  0  0  0
   -2.0260    1.9303    1.3825 H   0  0  0  0  0  0  0  0  0  0  0  0
   -2.1394    2.5630   -2.4354 C   0  0  0  0  0  0  0  0  0  0  0  0
   -2.1160    2.6957   -3.5250 H   0  0  0  0  0  0  0  0  0  0  0  0
    1.8435   -1.5484   -1.2634 C   0  0  0  0  0  0  0  0  0  0  0  0
   -1.2672    1.6059   -1.8613 C   0  0  0  0  0  0  0  0  0  0  0  0
  2 10  1  0  0  0  0
  3 21  1  0  0  0  0
  4 12  2  0  0  0  0
  5  1  1  0  0  0  0
  5 26  1  0  0  0  0
  6  8  2  0  0  0  0
  7  6  1  0  0  0  0
  8 21  1  0  0  0  0
  8  9  1  0  0  0  0
 10 11  1  0  0  0  0
 12 10  1  0  0  0  0
 12 13  1  0  0  0  0
 14 18  1  0  0  0  0
 15 14  1  0  0  0  0
 16 14  1  0  0  0  0
 17 14  1  0  0  0  0
 18  1  1  1  0  0  0
 18 25  1  0  0  0  0
 19 25  2  0  0  0  0
 19  4  1  0  0  0  0
 20 19  1  0  0  0  0
 21 22  1  0  0  0  0
 23 26  2  0  0  0  0
 23  6  1  0  0  0  0
 24 23  1  0  0  0  0
 25  2  1  0  0  0  0
 26  3  1  0  0  0  0
M  END
