6,8,10
q = -1.0

 68 73  0  0  1  0  0  0  0  0999 V2000
   -1.9496   -0.2275   -0.3152 B   0  0  2  0  0  0  0  0  0  0  0  0
   -3.1465   -0.3846   -0.4872 H   0  0  0  0  0  0  0  0  0  0  0  0
   -4.0567    2.0239   -1.3676 S   0  0  0  0  0  0  0  0  0  0  0  0
   -4.1869   -0.5550    2.0481 S   0  0  0  0  0  0  0  0  0  0  0  0
   -3.3676   -2.6802   -1.9016 S   0  0  0  0  0  0  0  0  0  0  0  0
   -0.2290    1.5639   -0.7441 N   0  0  0  0  0  2  0  0  0  0  0  0
   -1.5334    1.1823   -0.7932 N   0  0  0  0  0  0  0  0  0  0  0  0
   -0.3157   -0.3347    1.5918 N   0  0  0  0  0  2  0  0  0  0  0  0
   -1.6134   -0.3633    1.1891 N   0  0  0  0  0  0  0  0  0  0  0  0
    0.1997   -1.2936   -1.1248 N   0  0  0  0  0  2  0  0  0  0  0  0
   -1.1613   -1.3019   -1.1021 N   0  0  0  0  0  0  0  0  0  0  0  0
   -2.3162    2.2209   -1.2101 C   0  0  1  0  0  3  0  0  0  0  0  0
   -1.4765    3.3194   -1.4463 C   0  0  0  0  0  0  0  0  0  0  0  0
   -1.7508    4.3063   -1.8271 H   0  0  0  0  0  0  0  0  0  0  0  0
   -0.1705    2.8504   -1.1469 C   0  0  0  0  0  0  0  0  0  0  0  0
    1.1060    3.5720   -1.2609 C   0  0  0  0  0  0  0  0  0  0  0  0
    1.1851    4.9502   -0.9633 C   0  0  0  0  0  0  0  0  0  0  0  0
    0.2825    5.4793   -0.6217 H   0  0  0  0  0  0  0  0  0  0  0  0
    2.4037    5.6342   -1.0705 C   0  0  0  0  0  0  0  0  0  0  0  0
    2.4506    6.7065   -0.8264 H   0  0  0  0  0  0  0  0  0  0  0  0
    3.5643    4.9540   -1.4740 C   0  0  0  0  0  0  0  0  0  0  0  0
    4.5217    5.4911   -1.5516 H   0  0  0  0  0  0  0  0  0  0  0  0
    3.4948    3.5858   -1.7830 C   0  0  0  0  0  0  0  0  0  0  0  0
    4.3969    3.0469   -2.1107 H   0  0  0  0  0  0  0  0  0  0  0  0
    2.2755    2.9034   -1.6863 C   0  0  0  0  0  0  0  0  0  0  0  0
    2.2074    1.8398   -1.9557 H   0  0  0  0  0  0  0  0  0  0  0  0
   -4.4856    3.6872   -1.9600 C   0  0  0  0  0  0  0  0  0  0  0  0
   -5.5838    3.6860   -2.0936 H   0  0  0  0  0  0  0  0  0  0  0  0
   -4.0026    3.9067   -2.9325 H   0  0  0  0  0  0  0  0  0  0  0  0
   -4.2123    4.4621   -1.2170 H   0  0  0  0  0  0  0  0  0  0  0  0
   -2.4430   -0.4880    2.2660 C   0  0  2  0  0  3  0  0  0  0  0  0
   -1.6413   -0.5474    3.4161 C   0  0  0  0  0  0  0  0  0  0  0  0
   -1.9606   -0.6878    4.4519 H   0  0  0  0  0  0  0  0  0  0  0  0
   -0.3084   -0.4583    2.9355 C   0  0  0  0  0  0  0  0  0  0  0  0
    0.9467   -0.5297    3.6989 C   0  0  0  0  0  0  0  0  0  0  0  0
    2.0788   -1.1770    3.1546 C   0  0  0  0  0  0  0  0  0  0  0  0
    1.9971   -1.6426    2.1615 H   0  0  0  0  0  0  0  0  0  0  0  0
    3.2791   -1.2392    3.8739 C   0  0  0  0  0  0  0  0  0  0  0  0
    4.1531   -1.7415    3.4320 H   0  0  0  0  0  0  0  0  0  0  0  0
    3.3646   -0.6726    5.1562 C   0  0  0  0  0  0  0  0  0  0  0  0
    4.3072   -0.7234    5.7220 H   0  0  0  0  0  0  0  0  0  0  0  0
    2.2391   -0.0451    5.7150 C   0  0  0  0  0  0  0  0  0  0  0  0
    2.2993    0.4017    6.7192 H   0  0  0  0  0  0  0  0  0  0  0  0
    1.0400    0.0276    4.9929 C   0  0  0  0  0  0  0  0  0  0  0  0
    0.1667    0.5423    5.4216 H   0  0  0  0  0  0  0  0  0  0  0  0
   -4.6900   -0.7476    3.7833 C   0  0  0  0  0  0  0  0  0  0  0  0
   -5.7951   -0.7965    3.7738 H   0  0  0  0  0  0  0  0  0  0  0  0
   -4.3714    0.1204    4.3935 H   0  0  0  0  0  0  0  0  0  0  0  0
   -4.2895   -1.6844    4.2182 H   0  0  0  0  0  0  0  0  0  0  0  0
   -1.6372   -2.3980   -1.7647 C   0  0  2  0  0  3  0  0  0  0  0  0
   -0.5346   -3.1243   -2.2376 C   0  0  0  0  0  0  0  0  0  0  0  0
   -0.5396   -4.0344   -2.8424 H   0  0  0  0  0  0  0  0  0  0  0  0
    0.5992   -2.3829   -1.8128 C   0  0  0  0  0  0  0  0  0  0  0  0
    2.0221   -2.6693   -2.0498 C   0  0  0  0  0  0  0  0  0  0  0  0
    2.9554   -1.6186   -2.1964 C   0  0  0  0  0  0  0  0  0  0  0  0
    2.5933   -0.5814   -2.1589 H   0  0  0  0  0  0  0  0  0  0  0  0
    4.3137   -1.8905   -2.4021 C   0  0  0  0  0  0  0  0  0  0  0  0
    5.0259   -1.0580   -2.5090 H   0  0  0  0  0  0  0  0  0  0  0  0
    4.7637   -3.2186   -2.4833 C   0  0  0  0  0  0  0  0  0  0  0  0
    5.8306   -3.4329   -2.6476 H   0  0  0  0  0  0  0  0  0  0  0  0
    3.8426   -4.2715   -2.3588 C   0  0  0  0  0  0  0  0  0  0  0  0
    4.1872   -5.3151   -2.4207 H   0  0  0  0  0  0  0  0  0  0  0  0
    2.4845   -4.0007   -2.1422 C   0  0  0  0  0  0  0  0  0  0  0  0
    1.7704   -4.8288   -2.0181 H   0  0  0  0  0  0  0  0  0  0  0  0
   -3.3365   -4.2155   -2.8731 C   0  0  0  0  0  0  0  0  0  0  0  0
   -4.3952   -4.5004   -3.0207 H   0  0  0  0  0  0  0  0  0  0  0  0
   -2.8161   -5.0269   -2.3272 H   0  0  0  0  0  0  0  0  0  0  0  0
   -2.8625   -4.0582   -3.8620 H   0  0  0  0  0  0  0  0  0  0  0  0
  1  2  1  6  0  0  0
  1  9  1  0  0  0  0
  4 46  1  0  0  0  0
  7  6  1  0  0  0  0
  7  1  1  0  0  0  0
  8 34  1  0  0  0  0
  9  8  1  0  0  0  0
  9 31  1  0  0  0  0
 10 11  1  0  0  0  0
 11  1  1  0  0  0  0
 12  3  1  6  0  0  0
 12  7  1  0  0  0  0
 13 12  1  0  0  0  0
 13 15  2  0  0  0  0
 14 13  1  0  0  0  0
 15  6  1  0  0  0  0
 16 15  1  0  0  0  0
 16 17  1  0  0  0  0
 17 18  1  0  0  0  0
 19 17  2  0  0  0  0
 19 20  1  0  0  0  0
 21 19  1  0  0  0  0
 22 21  1  0  0  0  0
 23 25  1  0  0  0  0
 23 21  2  0  0  0  0
 24 23  1  0  0  0  0
 25 16  2  0  0  0  0
 26 25  1  0  0  0  0
 27  3  1  0  0  0  0
 27 30  1  0  0  0  0
 28 27  1  0  0  0  0
 29 27  1  0  0  0  0
 31  4  1  6  0  0  0
 31 32  1  0  0  0  0
 32 33  1  0  0  0  0
 34 32  2  0  0  0  0
 34 35  1  0  0  0  0
 35 44  1  0  0  0  0
 36 35  2  0  0  0  0
 36 38  1  0  0  0  0
 37 36  1  0  0  0  0
 38 40  2  0  0  0  0
 39 38  1  0  0  0  0
 40 42  1  0  0  0  0
 40 41  1  0  0  0  0
 42 43  1  0  0  0  0
 44 45  1  0  0  0  0
 44 42  2  0  0  0  0
 46 49  1  0  0  0  0
 46 48  1  0  0  0  0
 47 46  1  0  0  0  0
 50  5  1  6  0  0  0
 50 11  1  0  0  0  0
 51 53  2  0  0  0  0
 51 50  1  0  0  0  0
 52 51  1  0  0  0  0
 53 10  1  0  0  0  0
 54 53  1  0  0  0  0
 55 56  1  0  0  0  0
 55 54  2  0  0  0  0
 57 55  1  0  0  0  0
 58 57  1  0  0  0  0
 59 57  2  0  0  0  0
 59 61  1  0  0  0  0
 60 59  1  0  0  0  0
 61 63  2  0  0  0  0
 62 61  1  0  0  0  0
 63 54  1  0  0  0  0
 63 64  1  0  0  0  0
 65 67  1  0  0  0  0
 65  5  1  0  0  0  0
 66 65  1  0  0  0  0
 68 65  1  0  0  0  0
M  END
