1,2,4
q = -1.0

 36 39  0  0  1  0  0  0  0  0999 V2000
   -0.4572   -1.5088    0.9918 N   0  0  0  0  0  2  0  0  0  0  0  0
    1.9275   -0.8459    0.1793 N   0  0  0  0  0  0  0  0  0  0  0  0
    2.9961   -1.5075    2.1244 N   0  0  0  0  0  0  0  0  0  0  0  0
   -1.9807   -0.9028   -0.9779 N   0  0  0  0  0  2  0  0  0  0  0  0
   -2.5838   -1.4932    0.1318 N   0  0  1  0  0  0  0  0  0  0  0  0
   -1.7470   -1.8563    1.2067 C   0  0  1  0  0  3  0  0  0  0  0  0
   -2.1300   -2.5057    2.3885 C   0  0  0  0  0  0  0  0  0  0  0  0
   -3.1673   -2.7922    2.5747 H   0  0  0  0  0  0  0  0  0  0  0  0
   -1.1319   -2.7906    3.3398 C   0  0  0  0  0  0  0  0  0  0  0  0
   -1.4146   -3.3029    4.2708 H   0  0  0  0  0  0  0  0  0  0  0  0
    0.2003   -2.4372    3.1091 C   0  0  0  0  0  0  0  0  0  0  0  0
    1.0099   -2.6510    3.8193 H   0  0  0  0  0  0  0  0  0  0  0  0
    0.5226   -1.7877    1.9062 C   0  0  0  0  0  0  0  0  0  0  0  0
    1.8374   -1.3748    1.4625 C   0  0  0  0  0  3  0  0  0  0  0  0
    3.2723   -0.6540   -0.0086 C   0  0  0  0  0  0  0  0  0  0  0  0
    3.9243   -1.0545    1.2217 C   0  0  0  0  0  0  0  0  0  0  0  0
    5.3314   -0.9581    1.3379 C   0  0  0  0  0  0  0  0  0  0  0  0
    5.8266   -1.2549    2.2744 H   0  0  0  0  0  0  0  0  0  0  0  0
    6.0535   -0.4919    0.2392 C   0  0  0  0  0  0  0  0  0  0  0  0
    7.1496   -0.4112    0.3037 H   0  0  0  0  0  0  0  0  0  0  0  0
    5.4053   -0.1298   -0.9764 C   0  0  0  0  0  0  0  0  0  0  0  0
    6.0173    0.2143   -1.8247 H   0  0  0  0  0  0  0  0  0  0  0  0
    4.0191   -0.2067   -1.1226 C   0  0  0  0  0  0  0  0  0  0  0  0
    3.5114    0.0627   -2.0602 H   0  0  0  0  0  0  0  0  0  0  0  0
   -3.9495   -1.6006   -0.0580 C   0  0  2  0  0  3  0  0  0  0  0  0
   -4.2062   -1.0764   -1.3183 C   0  0  0  0  0  0  0  0  0  0  0  0
   -5.1889   -1.0080   -1.7958 H   0  0  0  0  0  0  0  0  0  0  0  0
   -2.9623   -0.6573   -1.8639 C   0  0  0  0  0  0  0  0  0  0  0  0
   -4.9143   -2.1630    0.9294 C   0  0  0  0  0  0  0  0  0  0  0  0
   -5.9367   -2.0784    0.5180 H   0  0  0  0  0  0  0  0  0  0  0  0
   -4.8861   -1.6132    1.8928 H   0  0  0  0  0  0  0  0  0  0  0  0
   -4.7236   -3.2352    1.1414 H   0  0  0  0  0  0  0  0  0  0  0  0
   -2.6816   -0.0509   -3.1962 C   0  0  0  0  0  0  0  0  0  0  0  0
   -1.5896   -0.0113   -3.3765 H   0  0  0  0  0  0  0  0  0  0  0  0
   -3.0768    0.9840   -3.2514 H   0  0  0  0  0  0  0  0  0  0  0  0
   -3.1691   -0.6374   -4.0012 H   0  0  0  0  0  0  0  0  0  0  0  0
  1 13  1  0  0  0  0
  2 14  1  0  0  0  0
  5  4  1  1  0  0  0
  5  6  1  0  0  0  0
  6  1  1  6  0  0  0
  6  7  1  0  0  0  0
  7  8  1  0  0  0  0
  7  9  2  0  0  0  0
  9 10  1  0  0  0  0
 11  9  1  0  0  0  0
 11 12  1  0  0  0  0
 13 11  2  0  0  0  0
 14 13  1  0  0  0  0
 14  3  1  0  0  0  0
 15  2  2  0  0  0  0
 15 16  1  0  0  0  0
 16 17  1  0  0  0  0
 16  3  2  0  0  0  0
 17 18  1  0  0  0  0
 19 20  1  0  0  0  0
 19 17  2  0  0  0  0
 21 19  1  0  0  0  0
 22 21  1  0  0  0  0
 23 21  2  0  0  0  0
 23 15  1  0  0  0  0
 24 23  1  0  0  0  0
 25  5  1  0  0  0  0
 25 29  1  1  0  0  0
 26 25  1  0  0  0  0
 27 26  1  0  0  0  0
 28 26  2  0  0  0  0
 28  4  1  0  0  0  0
 29 32  1  0  0  0  0
 29 31  1  0  0  0  0
 30 29  1  0  0  0  0
 33 28  1  0  0  0  0
 34 33  1  0  0  0  0
 35 33  1  0  0  0  0
 36 33  1  0  0  0  0
M  END
