1,2,4
q = 0.0, confidence = 0.992

 40 43  0  0  1  0  0  0  0  0999 V2000
    0.3840   -1.8702    0.0646 N   0  0  0  0  0  2  0  0  0  0  0  0
   -1.7819   -0.7599   -0.7107 N   0  0  0  0  0  2  0  0  0  0  0  0
   -3.2593   -1.9794    0.4844 N   0  0  0  0  0  0  0  0  0  0  0  0
    2.2051   -0.6636   -1.2713 N   0  0  0  0  0  2  0  0  0  0  0  0
    2.6206   -1.6976   -0.4284 N   0  0  1  0  0  0  0  0  0  0  0  0
    1.6251   -2.3937    0.2720 C   0  0  1  0  0  3  0  0  0  0  0  0
    1.8120   -3.5011    1.1102 C   0  0  0  0  0  0  0  0  0  0  0  0
    2.8056   -3.9234    1.2792 H   0  0  0  0  0  0  0  0  0  0  0  0
    0.6870   -4.0659    1.7366 C   0  0  0  0  0  0  0  0  0  0  0  0
    0.8168   -4.9310    2.4014 H   0  0  0  0  0  0  0  0  0  0  0  0
   -0.5903   -3.5386    1.5152 C   0  0  0  0  0  0  0  0  0  0  0  0
   -1.4637   -3.9874    1.9998 H   0  0  0  0  0  0  0  0  0  0  0  0
   -0.7309   -2.4368    0.6535 C   0  0  0  0  0  0  0  0  0  0  0  0
   -1.9242   -1.7524    0.2028 C   0  0  1  0  0  3  0  0  0  0  0  0
   -3.0527   -0.3833   -1.0977 C   0  0  0  0  0  0  0  0  0  0  0  0
   -3.9980   -1.1270   -0.3301 C   0  0  0  0  0  0  0  0  0  0  0  0
   -5.3815   -0.9399   -0.4879 C   0  0  0  0  0  0  0  0  0  0  0  0
   -6.1198   -1.5058    0.0985 H   0  0  0  0  0  0  0  0  0  0  0  0
   -5.7880   -0.0074   -1.4507 C   0  0  0  0  0  0  0  0  0  0  0  0
   -6.8638    0.1617   -1.6075 H   0  0  0  0  0  0  0  0  0  0  0  0
   -4.8519    0.7024   -2.2453 C   0  0  0  0  0  0  0  0  0  0  0  0
   -5.2215    1.3979   -3.0133 H   0  0  0  0  0  0  0  0  0  0  0  0
   -3.4751    0.5235   -2.0880 C   0  0  0  0  0  0  0  0  0  0  0  0
   -2.7200    1.0288   -2.7090 H   0  0  0  0  0  0  0  0  0  0  0  0
   -3.7994   -2.9055    1.4559 C   0  0  0  0  0  0  0  0  0  0  0  0
   -3.6448   -3.9596    1.1454 H   0  0  0  0  0  0  0  0  0  0  0  0
   -4.8853   -2.7284    1.5528 H   0  0  0  0  0  0  0  0  0  0  0  0
   -3.3320   -2.7445    2.4482 H   0  0  0  0  0  0  0  0  0  0  0  0
    3.9822   -1.9281   -0.5784 C   0  0  2  0  0  3  0  0  0  0  0  0
    4.4133   -1.0376   -1.5466 C   0  0  0  0  0  0  0  0  0  0  0  0
    5.4382   -0.9424   -1.9195 H   0  0  0  0  0  0  0  0  0  0  0  0
    3.2830   -0.2815   -1.9709 C   0  0  0  0  0  0  0  0  0  0  0  0
    4.7775   -2.9457    0.1679 C   0  0  0  0  0  0  0  0  0  0  0  0
    5.8410   -2.8395   -0.1144 H   0  0  0  0  0  0  0  0  0  0  0  0
    4.4709   -3.9845   -0.0754 H   0  0  0  0  0  0  0  0  0  0  0  0
    4.7072   -2.8181    1.2680 H   0  0  0  0  0  0  0  0  0  0  0  0
    3.2235    0.7361   -3.0563 C   0  0  0  0  0  0  0  0  0  0  0  0
    2.1827    1.0835   -3.2073 H   0  0  0  0  0  0  0  0  0  0  0  0
    3.5864    0.2866   -4.0032 H   0  0  0  0  0  0  0  0  0  0  0  0
    3.8755    1.6029   -2.8254 H   0  0  0  0  0  0  0  0  0  0  0  0
  1 13  1  0  0  0  0
  2 14  1  0  0  0  0
  3 25  1  0  0  0  0
  5  4  1  6  0  0  0
  5  6  1  0  0  0  0
  6  1  1  1  0  0  0
  6  7  1  0  0  0  0
  7  8  1  0  0  0  0
  7  9  2  0  0  0  0
  9 10  1  0  0  0  0
 11  9  1  0  0  0  0
 11 12  1  0  0  0  0
 13 11  2  0  0  0  0
 14  3  1  0  0  0  0
 14 13  1  6  0  0  0
 15  2  1  0  0  0  0
 15 16  1  0  0  0  0
 16  3  1  0  0  0  0
 17 16  2  0  0  0  0
 17 18  1  0  0  0  0
 19 17  1  0  0  0  0
 20 19  1  0  0  0  0
 21 23  1  0  0  0  0
 21 19  2  0  0  0  0
 22 21  1  0  0  0  0
 23 15  2  0  0  0  0
 24 23  1  0  0  0  0
 25 27  1  0  0  0  0
 25 28  1  0  0  0  0
 26 25  1  0  0  0  0
 29  5  1  0  0  0  0
 29 33  1  6  0  0  0
 30 29  1  0  0  0  0
 31 30  1  0  0  0  0
 32 30  2  0  0  0  0
 32  4  1  0  0  0  0
 33 36  1  0  0  0  0
 34 33  1  0  0  0  0
 35 33  1  0  0  0  0
 37 40  1  0  0  0  0
 37 32  1  0  0  0  0
 38 37  1  0  0  0  0
 39 37  1  0  0  0  0
M  END
