3,4,5
q = -1.0, confidence = 0.006

 36 38  0  0  0  0  0  0  0  0999 V2000
    4.3037    0.4904    0.0000 O   0  0  0  0  0  0  0  0  0  0  0  0
    4.4423   -1.7623    0.0003 O   0  0  0  0  0  0  0  0  0  0  0  0
   -0.1028    2.2113   -0.0000 N   0  0  0  0  0  2  0  0  0  0  0  0
    0.1105   -0.2719   -0.0001 N   0  0  0  0  0  2  0  0  0  0  0  0
   -2.2070   -1.2592    0.0000 N   0  0  0  0  0  2  0  0  0  0  0  0
   -0.3788    3.5259   -0.0001 C   0  0  0  0  0  0  0  0  0  0  0  0
   -1.4527    3.7750    0.0001 H   0  0  0  0  0  0  0  0  0  0  0  0
    0.6334    4.4938   -0.0002 C   0  0  0  0  0  0  0  0  0  0  0  0
    0.3662    5.5596   -0.0003 H   0  0  0  0  0  0  0  0  0  0  0  0
    1.9694    4.0649   -0.0003 C   0  0  0  0  0  0  0  0  0  0  0  0
    2.7895    4.7989   -0.0005 H   0  0  0  0  0  0  0  0  0  0  0  0
    2.2654    2.6966   -0.0003 C   0  0  0  0  0  0  0  0  0  0  0  0
    3.2919    2.3051   -0.0003 H   0  0  0  0  0  0  0  0  0  0  0  0
    1.2155    1.7593   -0.0001 C   0  0  0  0  0  0  0  0  0  0  0  0
    1.3278    0.2996   -0.0001 C   0  0  0  0  0  0  0  0  0  0  0  0
    2.2787   -0.7923   -0.0001 C   0  0  0  0  0  0  0  0  0  0  0  0
    1.5194   -2.0173   -0.0001 C   0  0  0  0  0  0  0  0  0  0  0  0
    0.1485   -1.6306   -0.0001 C   0  0  0  0  0  0  0  0  0  0  0  0
   -1.1862   -2.2057   -0.0001 C   0  0  0  0  0  0  0  0  0  0  0  0
   -1.5170   -3.5757   -0.0002 C   0  0  0  0  0  0  0  0  0  0  0  0
   -0.7102   -4.3201   -0.0002 H   0  0  0  0  0  0  0  0  0  0  0  0
   -2.8606   -3.9655   -0.0002 C   0  0  0  0  0  0  0  0  0  0  0  0
   -3.1206   -5.0348   -0.0003 H   0  0  0  0  0  0  0  0  0  0  0  0
   -3.8698   -2.9892   -0.0001 C   0  0  0  0  0  0  0  0  0  0  0  0
   -4.9346   -3.2593   -0.0001 H   0  0  0  0  0  0  0  0  0  0  0  0
   -3.4954   -1.6396    0.0000 C   0  0  0  0  0  0  0  0  0  0  0  0
   -4.2227   -0.8107    0.0002 H   0  0  0  0  0  0  0  0  0  0  0  0
    3.7334   -0.5970    0.0001 C   0  0  0  0  0  0  0  0  0  0  0  0
    5.8638   -1.6074    0.0005 C   0  0  0  0  0  0  0  0  0  0  0  0
    6.2040   -1.0513   -0.8966 H   0  0  0  0  0  0  0  0  0  0  0  0
    6.2816   -2.6302    0.0009 H   0  0  0  0  0  0  0  0  0  0  0  0
    6.2037   -1.0507    0.8972 H   0  0  0  0  0  0  0  0  0  0  0  0
    2.0008   -3.4369   -0.0002 C   0  0  0  0  0  0  0  0  0  0  0  0
    3.1012   -3.4891   -0.0002 H   0  0  0  0  0  0  0  0  0  0  0  0
    1.6277   -3.9833   -0.8928 H   0  0  0  0  0  0  0  0  0  0  0  0
    1.6277   -3.9835    0.8922 H   0  0  0  0  0  0  0  0  0  0  0  0
  1 28  2  0  0  0  0
  2 29  1  0  0  0  0
  4 18  1  0  0  0  0
  4 15  1  0  0  0  0
  6  3  1  0  0  0  0
  6  7  1  0  0  0  0
  8  6  2  0  0  0  0
  9  8  1  0  0  0  0
 10 12  2  0  0  0  0
 10  8  1  0  0  0  0
 11 10  1  0  0  0  0
 12 14  1  0  0  0  0
 13 12  1  0  0  0  0
 14 15  2  0  0  0  0
 14  3  1  0  0  0  0
 15 16  1  0  0  0  0
 16 28  1  0  0  0  0
 17 18  1  0  0  0  0
 17 16  2  0  0  0  0
 18 19  2  0  0  0  0
 19  5  1  0  0  0  0
 20 19  1  0  0  0  0
 21 20  1  0  0  0  0
 22 20  2  0  0  0  0
 22 24  1  0  0  0  0
 23 22  1  0  0  0  0
 24 26  2  0  0  0  0
 25 24  1  0  0  0  0
 26  5  1  0  0  0  0
 26 27  1  0  0  0  0
 28  2  1  0  0  0  0
 29 31  1  0  0  0  0
 29 32  1  0  0  0  0
 30 29  1  0  0  0  0
 33 34  1  0  0  0  0
 33 17  1  0  0  0  0
 33 36  1  0  0  0  0
 35 33  1  0  0  0  0
M  END
