1,10,17
q = -1.0, confidence = 0.0

 19 18  0  0  0  0  0  0  0  0999 V2000
   -1.2720    2.1024   -0.3307 N   0  0  0  0  0  0  0  0  0  0  0  0
   -0.8512    2.4304    0.5565 H   0  0  0  0  0  0  0  0  0  0  0  0
   -0.8648    2.6837   -1.0795 H   0  0  0  0  0  0  0  0  0  0  0  0
   -2.7659    2.2668   -0.2904 C   0  0  0  0  0  0  0  0  0  0  0  0
   -3.0442    3.2863    0.0443 H   0  0  0  0  0  0  0  0  0  0  0  0
   -3.1295    2.1225   -1.3263 H   0  0  0  0  0  0  0  0  0  0  0  0
   -3.3359    1.1868    0.6222 C   0  0  0  0  0  0  0  0  0  0  0  0
   -4.4327    1.0996    0.4570 H   0  0  0  0  0  0  0  0  0  0  0  0
   -3.1940    1.4563    1.6977 H   0  0  0  0  0  0  0  0  0  0  0  0
   -2.6498   -0.0673    0.3160 N   0  0  0  0  0  2  0  0  0  0  0  0
   -3.1329   -1.2677    0.9967 C   0  0  0  0  0  0  0  0  0  0  0  0
   -4.2272   -1.4035    0.8491 H   0  0  0  0  0  0  0  0  0  0  0  0
   -2.9653   -1.1876    2.0990 H   0  0  0  0  0  0  0  0  0  0  0  0
   -2.3861   -2.4623    0.4156 C   0  0  0  0  0  0  0  0  0  0  0  0
   -2.7489   -2.6777   -0.6081 H   0  0  0  0  0  0  0  0  0  0  0  0
   -2.5073   -3.3740    1.0345 H   0  0  0  0  0  0  0  0  0  0  0  0
   -0.9357   -2.0866    0.2895 N   0  0  0  0  0  0  0  0  0  0  0  0
   -0.4296   -2.7814   -0.2806 H   0  0  0  0  0  0  0  0  0  0  0  0
   -0.4871   -2.0926    1.2214 H   0  0  0  0  0  0  0  0  0  0  0  0
  1  4  1  0  0  0  0
  1  2  1  0  0  0  0
  3  1  1  0  0  0  0
  4  5  1  0  0  0  0
  4  7  1  0  0  0  0
  6  4  1  0  0  0  0
  7  9  1  0  0  0  0
  8  7  1  0  0  0  0
 10  7  1  0  0  0  0
 10 11  1  0  0  0  0
 11 13  1  0  0  0  0
 12 11  1  0  0  0  0
 14 11  1  0  0  0  0
 14 16  1  0  0  0  0
 15 14  1  0  0  0  0
 17 14  1  0  0  0  0
 17 19  1  0  0  0  0
 18 17  1  0  0  0  0
M  END
