1,15,50
q = 0.0, confidence = 0.942

 61 62  0  0  1  0  0  0  0  0999 V2000
    1.0847    1.4448   -0.5071 N   0  0  0  0  0  2  0  0  0  0  0  0
    0.1720    2.0274   -1.3565 C   0  0  0  0  0  0  0  0  0  0  0  0
    0.5268    3.1758   -2.0859 C   0  0  0  0  0  0  0  0  0  0  0  0
   -0.2048    3.6389   -2.7620 H   0  0  0  0  0  0  0  0  0  0  0  0
    1.8182    3.7083   -1.9401 C   0  0  0  0  0  0  0  0  0  0  0  0
    2.1080    4.6094   -2.4991 H   0  0  0  0  0  0  0  0  0  0  0  0
    2.7474    3.0793   -1.0947 C   0  0  0  0  0  0  0  0  0  0  0  0
    3.7682    3.4722   -0.9940 H   0  0  0  0  0  0  0  0  0  0  0  0
    2.3710    1.9211   -0.3907 C   0  0  0  0  0  0  0  0  0  0  0  0
   -1.1089    1.3482   -1.2950 C   0  0  0  0  0  0  0  0  0  0  0  0
   -2.2827    1.8123   -2.0999 C   0  0  0  0  0  0  0  0  0  0  0  0
   -3.2030    1.2718   -1.8166 H   0  0  0  0  0  0  0  0  0  0  0  0
   -2.0870    1.6265   -3.1778 H   0  0  0  0  0  0  0  0  0  0  0  0
   -2.4538    2.9016   -1.9839 H   0  0  0  0  0  0  0  0  0  0  0  0
   -1.1145    0.3166   -0.4529 N   0  0  0  0  0  2  0  0  0  0  0  0
   -2.3694   -0.2571   -0.0552 C   0  0  0  0  0  0  0  0  0  0  0  0
   -3.1170    0.3999    0.9618 C   0  0  0  0  0  0  0  0  0  0  0  0
   -4.3573   -0.1544    1.3269 C   0  0  0  0  0  0  0  0  0  0  0  0
   -4.9546    0.3411    2.1074 H   0  0  0  0  0  0  0  0  0  0  0  0
   -4.8393   -1.3233    0.7264 C   0  0  0  0  0  0  0  0  0  0  0  0
   -5.8137   -1.7375    1.0274 H   0  0  0  0  0  0  0  0  0  0  0  0
   -4.0702   -1.9706   -0.2470 C   0  0  0  0  0  0  0  0  0  0  0  0
   -4.4407   -2.8997   -0.7058 H   0  0  0  0  0  0  0  0  0  0  0  0
   -2.8235   -1.4588   -0.6524 C   0  0  0  0  0  0  0  0  0  0  0  0
   -2.6188    1.6640    1.6572 C   0  0  0  0  0  0  0  0  0  0  0  0
   -1.5575    1.8003    1.3683 H   0  0  0  0  0  0  0  0  0  0  0  0
   -3.4088    2.9068    1.2088 C   0  0  0  0  0  0  0  0  0  0  0  0
   -3.3719    3.0532    0.1121 H   0  0  0  0  0  0  0  0  0  0  0  0
   -3.0062    3.8222    1.6896 H   0  0  0  0  0  0  0  0  0  0  0  0
   -4.4779    2.8199    1.4945 H   0  0  0  0  0  0  0  0  0  0  0  0
   -2.6496    1.5272    3.1884 C   0  0  0  0  0  0  0  0  0  0  0  0
   -3.6870    1.4459    3.5740 H   0  0  0  0  0  0  0  0  0  0  0  0
   -2.1920    2.4203    3.6615 H   0  0  0  0  0  0  0  0  0  0  0  0
   -2.0821    0.6334    3.5094 H   0  0  0  0  0  0  0  0  0  0  0  0
   -1.9670   -2.2157   -1.6542 C   0  0  0  0  0  0  0  0  0  0  0  0
   -1.1437   -1.5465   -1.9738 H   0  0  0  0  0  0  0  0  0  0  0  0
   -2.7377   -2.6392   -2.9122 C   0  0  0  0  0  0  0  0  0  0  0  0
   -3.5373   -3.3756   -2.6870 H   0  0  0  0  0  0  0  0  0  0  0  0
   -2.0502   -3.1162   -3.6401 H   0  0  0  0  0  0  0  0  0  0  0  0
   -3.2131   -1.7695   -3.4104 H   0  0  0  0  0  0  0  0  0  0  0  0
   -1.3060   -3.4183   -0.9555 C   0  0  0  0  0  0  0  0  0  0  0  0
   -0.7656   -3.0914   -0.0454 H   0  0  0  0  0  0  0  0  0  0  0  0
   -0.5744   -3.9086   -1.6290 H   0  0  0  0  0  0  0  0  0  0  0  0
   -2.0656   -4.1691   -0.6513 H   0  0  0  0  0  0  0  0  0  0  0  0
    3.1587    1.0735    0.4911 C   0  0  1  0  0  3  0  0  0  0  0  0
    4.5855    1.3808    0.8424 C   0  0  0  0  0  0  0  0  0  0  0  0
    4.6913    1.6470    1.9153 H   0  0  0  0  0  0  0  0  0  0  0  0
    4.9679    2.2302    0.2490 H   0  0  0  0  0  0  0  0  0  0  0  0
    5.2373    0.5053    0.6496 H   0  0  0  0  0  0  0  0  0  0  0  0
    2.4744    0.0329    0.9485 N   0  0  0  0  0  2  0  0  0  0  0  0
    3.0774   -0.9281    1.8639 C   0  0  0  0  0  0  0  0  0  0  0  0
    2.3402   -1.0843    2.6785 H   0  0  0  0  0  0  0  0  0  0  0  0
    4.0143   -0.5309    2.3046 H   0  0  0  0  0  0  0  0  0  0  0  0
    3.3554   -2.2859    1.1847 C   0  0  0  0  0  0  0  0  0  0  0  0
    3.7105   -2.9841    1.9713 H   0  0  0  0  0  0  0  0  0  0  0  0
    2.3893   -2.6732    0.7967 H   0  0  0  0  0  0  0  0  0  0  0  0
    4.3489   -2.2006    0.0608 C   0  0  0  0  0  0  0  0  0  0  0  0
    3.9760   -1.7079   -0.8557 H   0  0  0  0  0  0  0  0  0  0  0  0
    5.6100   -2.6669    0.1082 C   0  0  0  0  0  0  0  0  0  0  0  0
    6.0031   -3.1774    1.0046 H   0  0  0  0  0  0  0  0  0  0  0  0
    6.2928   -2.5716   -0.7509 H   0  0  0  0  0  0  0  0  0  0  0  0
  1  9  1  0  0  0  0
  2 10  2  0  0  0  0
  2  1  1  0  0  0  0
  3  5  2  0  0  0  0
  3  2  1  0  0  0  0
  4  3  1  0  0  0  0
  5  7  1  0  0  0  0
  6  5  1  0  0  0  0
  7  8  1  0  0  0  0
  7  9  2  0  0  0  0
  9 45  1  0  0  0  0
 10 15  1  0  0  0  0
 11 14  1  0  0  0  0
 11 12  1  0  0  0  0
 11 10  1  0  0  0  0
 13 11  1  0  0  0  0
 15 16  1  0  0  0  0
 16 17  1  0  0  0  0
 17 18  2  0  0  0  0
 17 25  1  0  0  0  0
 18 19  1  0  0  0  0
 20 21  1  0  0  0  0
 20 18  1  0  0  0  0
 22 20  2  0  0  0  0
 23 22  1  0  0  0  0
 24 22  1  0  0  0  0
 24 16  2  0  0  0  0
 25 31  1  0  0  0  0
 26 25  1  0  0  0  0
 27 30  1  0  0  0  0
 27 25  1  0  0  0  0
 27 29  1  0  0  0  0
 28 27  1  0  0  0  0
 31 34  1  0  0  0  0
 31 32  1  0  0  0  0
 31 33  1  0  0  0  0
 35 41  1  0  0  0  0
 35 24  1  0  0  0  0
 36 35  1  0  0  0  0
 37 38  1  0  0  0  0
 37 35  1  0  0  0  0
 39 37  1  0  0  0  0
 40 37  1  0  0  0  0
 41 44  1  0  0  0  0
 41 42  1  0  0  0  0
 43 41  1  0  0  0  0
 45 46  1  0  0  0  0
 45 50  1  1  0  0  0
 46 47  1  0  0  0  0
 48 46  1  0  0  0  0
 49 46  1  0  0  0  0
 50 51  1  0  0  0  0
 51 53  1  0  0  0  0
 51 52  1  0  0  0  0
 54 51  1  0  0  0  0
 54 55  1  0  0  0  0
 56 54  1  0  0  0  0
 57 59  2  0  0  0  0
 57 54  1  0  0  0  0
 58 57  1  0  0  0  0
 59 60  1  0  0  0  0
 61 59  1  0  0  0  0
M  END
