7,9,10
q = 0.0, confidence = 0.992

 73 79  0  0  1  0  0  0  0  0999 V2000
    3.1440   -2.1238   -0.2242 O   0  0  0  0  0  0  0  0  0  0  0  0
    4.9277    0.0002   -0.5643 O   0  0  0  0  0  0  0  0  0  0  0  0
    3.1438    2.1241   -0.2242 O   0  0  0  0  0  0  0  0  0  0  0  0
    2.1214    0.0001   -2.6279 O   0  0  0  0  0  0  0  0  0  0  0  0
    1.3165    0.0001    0.8303 N   0  0  0  0  0  0  0  0  0  0  0  0
    2.3022    0.0001    0.5301 H   0  0  0  0  0  0  0  0  0  0  0  0
   -1.5817   -0.0001   -1.5458 N   0  0  0  0  0  0  0  0  0  0  0  0
   -2.5203   -0.0001   -1.9959 H   0  0  0  0  0  0  0  0  0  0  0  0
   -2.4577   -2.1228   -0.1513 N   0  0  0  0  0  2  0  0  0  0  0  0
   -2.4578    2.1226   -0.1512 N   0  0  0  0  0  2  0  0  0  0  0  0
    0.6160   -1.1850    0.3451 C   0  0  1  0  0  0  0  0  0  0  0  0
   -0.4220   -1.0738    0.7178 H   0  0  0  0  0  0  0  0  0  0  0  0
    0.5607   -1.2456   -1.2422 C   0  0  2  0  0  0  0  0  0  0  0  0
    1.0951   -2.1308   -1.6296 H   0  0  0  0  0  0  0  0  0  0  0  0
    1.2200    0.0001   -1.8016 C   0  0  0  0  0  0  0  0  0  0  0  0
    0.5605    1.2458   -1.2422 C   0  0  2  0  0  0  0  0  0  0  0  0
    1.0949    2.1310   -1.6295 H   0  0  0  0  0  0  0  0  0  0  0  0
    0.6159    1.1851    0.3452 C   0  0  2  0  0  0  0  0  0  0  0  0
   -0.4221    1.0738    0.7179 H   0  0  0  0  0  0  0  0  0  0  0  0
   -0.8903    1.2608   -1.8165 C   0  0  2  0  0  0  0  0  0  0  0  0
   -0.7996    1.4517   -2.9129 H   0  0  0  0  0  0  0  0  0  0  0  0
   -0.8902   -1.2608   -1.8165 C   0  0  1  0  0  0  0  0  0  0  0  0
   -0.7995   -1.4517   -2.9129 H   0  0  0  0  0  0  0  0  0  0  0  0
   -1.6702   -2.4145   -1.1998 C   0  0  1  0  0  3  0  0  0  0  0  0
   -1.5034   -3.7365   -1.6447 C   0  0  0  0  0  0  0  0  0  0  0  0
   -0.8526   -3.9486   -2.5061 H   0  0  0  0  0  0  0  0  0  0  0  0
   -2.1681   -4.7647   -0.9664 C   0  0  0  0  0  0  0  0  0  0  0  0
   -2.0525   -5.8095   -1.2917 H   0  0  0  0  0  0  0  0  0  0  0  0
   -2.9809   -4.4460    0.1334 C   0  0  0  0  0  0  0  0  0  0  0  0
   -3.5156   -5.2256    0.6943 H   0  0  0  0  0  0  0  0  0  0  0  0
   -3.0989   -3.1030    0.5065 C   0  0  0  0  0  0  0  0  0  0  0  0
   -3.7104   -2.7797    1.3649 H   0  0  0  0  0  0  0  0  0  0  0  0
   -1.6705    2.4143   -1.1998 C   0  0  2  0  0  3  0  0  0  0  0  0
   -1.5040    3.7364   -1.6448 C   0  0  0  0  0  0  0  0  0  0  0  0
   -0.8533    3.9486   -2.5063 H   0  0  0  0  0  0  0  0  0  0  0  0
   -2.1689    4.7645   -0.9665 C   0  0  0  0  0  0  0  0  0  0  0  0
   -2.0536    5.8092   -1.2919 H   0  0  0  0  0  0  0  0  0  0  0  0
   -2.9815    4.4457    0.1334 C   0  0  0  0  0  0  0  0  0  0  0  0
   -3.5163    5.2252    0.6943 H   0  0  0  0  0  0  0  0  0  0  0  0
   -3.0992    3.1027    0.5066 C   0  0  0  0  0  0  0  0  0  0  0  0
   -3.7104    2.7793    1.3651 H   0  0  0  0  0  0  0  0  0  0  0  0
    1.1468   -2.4635    0.9518 C   0  0  0  0  0  0  0  0  0  0  0  0
    0.3709   -3.2081    1.8519 C   0  0  0  0  0  0  0  0  0  0  0  0
   -0.6255   -2.8242    2.1217 H   0  0  0  0  0  0  0  0  0  0  0  0
    0.8625   -4.3925    2.4276 C   0  0  0  0  0  0  0  0  0  0  0  0
    0.2407   -4.9614    3.1344 H   0  0  0  0  0  0  0  0  0  0  0  0
    2.1540   -4.8312    2.1076 C   0  0  0  0  0  0  0  0  0  0  0  0
    2.5525   -5.7542    2.5560 H   0  0  0  0  0  0  0  0  0  0  0  0
    2.9613   -4.0955    1.2219 C   0  0  0  0  0  0  0  0  0  0  0  0
    3.9765   -4.4434    0.9869 H   0  0  0  0  0  0  0  0  0  0  0  0
    2.4562   -2.9154    0.6487 C   0  0  0  0  0  0  0  0  0  0  0  0
    4.5261   -2.3363   -0.4614 C   0  0  0  0  0  0  0  0  0  0  0  0
    4.7005   -3.3032   -0.9881 H   0  0  0  0  0  0  0  0  0  0  0  0
    5.0852   -2.3556    0.5017 H   0  0  0  0  0  0  0  0  0  0  0  0
    5.0046   -1.1867   -1.3253 C   0  0  0  0  0  0  0  0  0  0  0  0
    6.0504   -1.3929   -1.6658 H   0  0  0  0  0  0  0  0  0  0  0  0
    4.3505   -1.1172   -2.2260 H   0  0  0  0  0  0  0  0  0  0  0  0
    5.0046    1.1871   -1.3252 C   0  0  0  0  0  0  0  0  0  0  0  0
    4.3505    1.1176   -2.2260 H   0  0  0  0  0  0  0  0  0  0  0  0
    6.0504    1.3934   -1.6656 H   0  0  0  0  0  0  0  0  0  0  0  0
    4.5260    2.3366   -0.4613 C   0  0  0  0  0  0  0  0  0  0  0  0
    5.0850    2.3559    0.5018 H   0  0  0  0  0  0  0  0  0  0  0  0
    4.7003    3.3036   -0.9879 H   0  0  0  0  0  0  0  0  0  0  0  0
    2.4560    2.9156    0.6488 C   0  0  0  0  0  0  0  0  0  0  0  0
    2.9610    4.0957    1.2220 C   0  0  0  0  0  0  0  0  0  0  0  0
    3.9763    4.4437    0.9870 H   0  0  0  0  0  0  0  0  0  0  0  0
    2.1537    4.8313    2.1077 C   0  0  0  0  0  0  0  0  0  0  0  0
    2.5522    5.7543    2.5561 H   0  0  0  0  0  0  0  0  0  0  0  0
    0.8622    4.3926    2.4277 C   0  0  0  0  0  0  0  0  0  0  0  0
    0.2404    4.9614    3.1345 H   0  0  0  0  0  0  0  0  0  0  0  0
    0.3707    3.2082    1.8519 C   0  0  0  0  0  0  0  0  0  0  0  0
   -0.6257    2.8241    2.1217 H   0  0  0  0  0  0  0  0  0  0  0  0
    1.1467    2.4636    0.9519 C   0  0  0  0  0  0  0  0  0  0  0  0
  1 51  1  0  0  0  0
  3 64  1  0  0  0  0
  4 15  2  0  0  0  0
  6  5  1  0  0  0  0
  8  7  1  0  0  0  0
  9 31  1  0  0  0  0
 10 40  1  0  0  0  0
 11 12  1  1  0  0  0
 11  5  1  0  0  0  0
 11 42  1  0  0  0  0
 13 14  1  6  0  0  0
 13 11  1  0  0  0  0
 15 13  1  0  0  0  0
 15 16  1  0  0  0  0
 16 17  1  6  0  0  0
 16 18  1  0  0  0  0
 18 19  1  1  0  0  0
 18  5  1  0  0  0  0
 18 73  1  0  0  0  0
 20 21  1  6  0  0  0
 20  7  1  0  0  0  0
 20 16  1  0  0  0  0
 20 33  1  0  0  0  0
 22 23  1  6  0  0  0
 22  7  1  0  0  0  0
 22 13  1  0  0  0  0
 22 24  1  0  0  0  0
 24 25  1  1  0  0  0
 24  9  1  0  0  0  0
 25 27  2  0  0  0  0
 26 25  1  0  0  0  0
 27 29  1  0  0  0  0
 28 27  1  0  0  0  0
 29 31  2  0  0  0  0
 29 30  1  0  0  0  0
 31 32  1  0  0  0  0
 33 34  1  1  0  0  0
 33 10  1  0  0  0  0
 34 36  2  0  0  0  0
 35 34  1  0  0  0  0
 36 38  1  0  0  0  0
 37 36  1  0  0  0  0
 38 40  2  0  0  0  0
 38 39  1  0  0  0  0
 40 41  1  0  0  0  0
 42 43  1  0  0  0  0
 43 44  1  0  0  0  0
 43 45  2  0  0  0  0
 45 46  1  0  0  0  0
 47 45  1  0  0  0  0
 47 48  1  0  0  0  0
 49 47  2  0  0  0  0
 50 49  1  0  0  0  0
 51 42  2  0  0  0  0
 51 49  1  0  0  0  0
 52  1  1  0  0  0  0
 52 54  1  0  0  0  0
 53 52  1  0  0  0  0
 55  2  1  0  0  0  0
 55 52  1  0  0  0  0
 56 55  1  0  0  0  0
 57 55  1  0  0  0  0
 58  2  1  0  0  0  0
 58 61  1  0  0  0  0
 59 58  1  0  0  0  0
 60 58  1  0  0  0  0
 61  3  1  0  0  0  0
 61 62  1  0  0  0  0
 63 61  1  0  0  0  0
 64 73  2  0  0  0  0
 64 65  1  0  0  0  0
 65 67  2  0  0  0  0
 66 65  1  0  0  0  0
 67 69  1  0  0  0  0
 67 68  1  0  0  0  0
 69 70  1  0  0  0  0
 71 72  1  0  0  0  0
 71 69  2  0  0  0  0
 73 71  1  0  0  0  0
M  END
