1,2,4
q = -1.0, confidence = 0.0

 37 39  0  0  0  0  0  0  0  0999 V2000
   -1.1005   -0.7805    1.2402 N   0  0  0  0  0  2  0  0  0  0  0  0
    0.0586    1.5757    1.0898 N   0  0  0  0  0  2  0  0  0  0  0  0
    0.4432    2.8102    0.9468 N   0  0  0  0  0  0  0  0  0  0  0  0
   -1.5029    2.9102   -0.4238 N   0  0  0  0  0  2  0  0  0  0  0  0
   -4.1593   -5.5636    0.3056 C   0  0  0  0  0  0  0  0  0  0  0  0
   -4.3279   -6.1221    1.2511 H   0  0  0  0  0  0  0  0  0  0  0  0
   -3.6576   -6.2522   -0.4008 H   0  0  0  0  0  0  0  0  0  0  0  0
   -5.1609   -5.3173   -0.1009 H   0  0  0  0  0  0  0  0  0  0  0  0
   -3.3430   -4.3230    0.5546 C   0  0  0  0  0  0  0  0  0  0  0  0
   -1.9818   -4.2537    0.1937 C   0  0  0  0  0  0  0  0  0  0  0  0
   -1.5115   -5.1176   -0.3019 H   0  0  0  0  0  0  0  0  0  0  0  0
   -1.2181   -3.1052    0.4389 C   0  0  0  0  0  0  0  0  0  0  0  0
   -0.1642   -3.0579    0.1270 H   0  0  0  0  0  0  0  0  0  0  0  0
   -1.8067   -1.9846    1.0652 C   0  0  0  0  0  0  0  0  0  0  0  0
   -3.1685   -2.0419    1.4380 C   0  0  0  0  0  0  0  0  0  0  0  0
   -3.6109   -1.1670    1.9364 H   0  0  0  0  0  0  0  0  0  0  0  0
   -3.9165   -3.1935    1.1828 C   0  0  0  0  0  0  0  0  0  0  0  0
   -4.9754   -3.2241    1.4844 H   0  0  0  0  0  0  0  0  0  0  0  0
    0.0870   -0.6602    1.8627 C   0  0  0  0  0  0  0  0  0  0  0  0
    0.7490   -1.6958    2.6047 C   0  0  0  0  0  0  0  0  0  0  0  0
    0.2695   -2.6793    2.6951 H   0  0  0  0  0  0  0  0  0  0  0  0
    1.9640   -1.4388    3.2134 C   0  0  0  0  0  0  0  0  0  0  0  0
    2.4524   -2.2414    3.7868 H   0  0  0  0  0  0  0  0  0  0  0  0
    2.5979   -0.1569    3.1387 C   0  0  0  0  0  0  0  0  0  0  0  0
    3.5606    0.0037    3.6451 H   0  0  0  0  0  0  0  0  0  0  0  0
    1.9856    0.8789    2.4578 C   0  0  0  0  0  0  0  0  0  0  0  0
    2.4227    1.8843    2.3910 H   0  0  0  0  0  0  0  0  0  0  0  0
    0.7405    0.6398    1.8143 C   0  0  0  0  0  0  0  0  0  0  0  0
   -0.4151    3.5373    0.1539 C   0  0  0  0  0  0  0  0  0  0  0  0
   -0.1893    4.9120   -0.0739 C   0  0  0  0  0  0  0  0  0  0  0  0
    0.6814    5.3807    0.4031 H   0  0  0  0  0  0  0  0  0  0  0  0
   -1.0795    5.6273   -0.8776 C   0  0  0  0  0  0  0  0  0  0  0  0
   -0.9165    6.6999   -1.0586 H   0  0  0  0  0  0  0  0  0  0  0  0
   -2.1857    4.9712   -1.4458 C   0  0  0  0  0  0  0  0  0  0  0  0
   -2.9075    5.5028   -2.0802 H   0  0  0  0  0  0  0  0  0  0  0  0
   -2.3621    3.6066   -1.1857 C   0  0  0  0  0  0  0  0  0  0  0  0
   -3.2138    3.0429   -1.5944 H   0  0  0  0  0  0  0  0  0  0  0  0
  1 19  1  0  0  0  0
  2 28  1  0  0  0  0
  3  2  1  0  0  0  0
  4 29  1  0  0  0  0
  5  9  1  0  0  0  0
  5  6  1  0  0  0  0
  7  5  1  0  0  0  0
  8  5  1  0  0  0  0
  9 17  1  0  0  0  0
 10 12  1  0  0  0  0
 10  9  2  0  0  0  0
 11 10  1  0  0  0  0
 12 14  2  0  0  0  0
 13 12  1  0  0  0  0
 14  1  1  0  0  0  0
 14 15  1  0  0  0  0
 15 16  1  0  0  0  0
 17 15  2  0  0  0  0
 17 18  1  0  0  0  0
 19 20  1  0  0  0  0
 20 21  1  0  0  0  0
 20 22  2  0  0  0  0
 22 23  1  0  0  0  0
 24 22  1  0  0  0  0
 24 25  1  0  0  0  0
 26 24  2  0  0  0  0
 27 26  1  0  0  0  0
 28 19  2  0  0  0  0
 28 26  1  0  0  0  0
 29  3  2  0  0  0  0
 30 29  1  0  0  0  0
 30 31  1  0  0  0  0
 32 30  2  0  0  0  0
 33 32  1  0  0  0  0
 34 36  2  0  0  0  0
 34 32  1  0  0  0  0
 35 34  1  0  0  0  0
 36  4  1  0  0  0  0
 37 36  1  0  0  0  0
M  END
