3,5,6
q = -1.0, confidence = 0.002

 28 30  0  0  1  0  0  0  0  0999 V2000
    6.6443    0.7328   -1.1058 O   0  0  0  0  0  0  0  0  0  0  0  0
    6.7989   -0.8952    0.4705 O   0  0  0  0  0  0  0  0  0  0  0  0
    0.4139   -1.3663    1.5365 N   0  0  0  0  0  2  0  0  0  0  0  0
    1.7555   -1.6252    1.6477 N   0  0  0  0  0  0  0  0  0  0  0  0
    1.8847    0.0422    0.1207 N   0  0  0  0  0  2  0  0  0  0  0  0
    0.2028    1.3708   -1.1143 N   0  0  0  0  0  0  0  0  0  0  0  0
   -0.5794    2.1976   -1.7939 N   0  0  0  0  0  0  0  0  0  0  0  0
    0.2143    2.9847   -2.5268 N   0  0  0  0  0  0  0  0  0  0  0  0
    1.5100    2.6811   -2.3309 N   0  0  0  0  0  0  0  0  0  0  0  0
   -0.2000   -2.2296    2.3570 C   0  0  0  0  0  3  0  0  0  0  0  0
   -1.2930   -2.2256    2.4318 H   0  0  0  0  0  0  0  0  0  0  0  0
    0.7522   -3.0541    3.0091 C   0  0  0  0  0  0  0  0  0  0  0  0
    0.5581   -3.8528    3.7314 H   0  0  0  0  0  0  0  0  0  0  0  0
    1.9914   -2.6437    2.5324 C   0  0  0  0  0  0  0  0  0  0  0  0
    3.0076   -2.9912    2.7423 H   0  0  0  0  0  0  0  0  0  0  0  0
    2.6017   -0.8403    0.8456 C   0  0  2  0  0  3  0  0  0  0  0  0
    3.9899   -0.9182    0.7670 C   0  0  0  0  0  0  0  0  0  0  0  0
    4.5903   -1.6273    1.3520 H   0  0  0  0  0  0  0  0  0  0  0  0
    4.6375   -0.0365   -0.1281 C   0  0  0  0  0  0  0  0  0  0  0  0
    3.8917    0.8685   -0.9081 C   0  0  0  0  0  0  0  0  0  0  0  0
    4.3802    1.5447   -1.6203 H   0  0  0  0  0  0  0  0  0  0  0  0
    2.4963    0.8841   -0.7704 C   0  0  0  0  0  0  0  0  0  0  0  0
    1.4943    1.6753   -1.4474 C   0  0  0  0  0  3  0  0  0  0  0  0
    6.1289   -0.1301   -0.2037 C   0  0  0  0  0  0  0  0  0  0  0  0
    8.0701    0.6973   -1.2469 C   0  0  0  0  0  0  0  0  0  0  0  0
    8.4063   -0.3091   -1.5676 H   0  0  0  0  0  0  0  0  0  0  0  0
    8.5654    0.9395   -0.2851 H   0  0  0  0  0  0  0  0  0  0  0  0
    8.3197    1.4517   -2.0132 H   0  0  0  0  0  0  0  0  0  0  0  0
  1 24  1  0  0  0  0
  3  4  1  0  0  0  0
  3 10  1  0  0  0  0
  4 14  1  0  0  0  0
  5 16  1  0  0  0  0
  7  6  2  0  0  0  0
  8  9  2  0  0  0  0
  8  7  1  0  0  0  0
  9 23  1  0  0  0  0
 10 11  1  0  0  0  0
 10 12  1  0  0  0  0
 12 13  1  0  0  0  0
 14 15  1  0  0  0  0
 14 12  2  0  0  0  0
 16  4  1  6  0  0  0
 17 16  1  0  0  0  0
 17 18  1  0  0  0  0
 19 17  2  0  0  0  0
 20 22  2  0  0  0  0
 20 19  1  0  0  0  0
 21 20  1  0  0  0  0
 22  5  1  0  0  0  0
 23  6  1  0  0  0  0
 23 22  1  0  0  0  0
 24 19  1  0  0  0  0
 24  2  2  0  0  0  0
 25  1  1  0  0  0  0
 25 27  1  0  0  0  0
 26 25  1  0  0  0  0
 28 25  1  0  0  0  0
M  END
