1,18,36
q = 0.0, confidence = 0.998

 36 39  0  0  1  0  0  0  0  0999 V2000
    1.9527    0.3081    0.1002 N   0  0  0  0  0  2  0  0  0  0  0  0
    3.1128   -0.4459   -0.0682 C   0  0  0  0  0  0  0  0  0  0  0  0
    3.2998   -1.8366   -0.1542 C   0  0  0  0  0  0  0  0  0  0  0  0
    2.4276   -2.5006   -0.0724 H   0  0  0  0  0  0  0  0  0  0  0  0
    4.6094   -2.2975   -0.3278 C   0  0  0  0  0  0  0  0  0  0  0  0
    4.7930   -3.3800   -0.3991 H   0  0  0  0  0  0  0  0  0  0  0  0
    5.7082   -1.4075   -0.4193 C   0  0  0  0  0  0  0  0  0  0  0  0
    6.7212   -1.8146   -0.5573 H   0  0  0  0  0  0  0  0  0  0  0  0
    5.5374   -0.0191   -0.3444 C   0  0  0  0  0  0  0  0  0  0  0  0
    6.3910    0.6700   -0.4238 H   0  0  0  0  0  0  0  0  0  0  0  0
    4.2237    0.4438   -0.1720 C   0  0  0  0  0  0  0  0  0  0  0  0
    3.6855    1.7223   -0.0761 N   0  0  0  0  0  0  0  0  0  0  0  0
    4.1999    2.5990   -0.1377 H   0  0  0  0  0  0  0  0  0  0  0  0
    2.3280    1.5881    0.0784 C   0  0  1  0  0  3  0  0  0  0  0  0
    1.2808    2.6525    0.1831 C   0  0  0  0  0  0  0  0  0  0  0  0
    1.1036    2.9118    1.2507 H   0  0  0  0  0  0  0  0  0  0  0  0
    1.5782    3.5867   -0.3495 H   0  0  0  0  0  0  0  0  0  0  0  0
    0.0549    2.0325   -0.3440 N   0  0  0  0  0  0  0  0  0  0  0  0
    0.1317    1.8215   -1.3744 H   0  0  0  0  0  0  0  0  0  0  0  0
   -1.2303    2.6772   -0.0345 C   0  0  0  0  0  0  0  0  0  0  0  0
   -1.4625    3.5450   -0.6956 H   0  0  0  0  0  0  0  0  0  0  0  0
   -1.1864    3.0660    1.0089 H   0  0  0  0  0  0  0  0  0  0  0  0
   -2.2569    1.5929   -0.1465 C   0  0  2  0  0  3  0  0  0  0  0  0
   -3.6072    1.7038   -0.3767 N   0  0  0  0  0  0  0  0  0  0  0  0
   -4.1156    2.5656   -0.5662 H   0  0  0  0  0  0  0  0  0  0  0  0
   -4.1388    0.4195   -0.3759 C   0  0  0  0  0  0  0  0  0  0  0  0
   -5.4417   -0.0656   -0.5674 C   0  0  0  0  0  0  0  0  0  0  0  0
   -6.2902    0.6076   -0.7591 H   0  0  0  0  0  0  0  0  0  0  0  0
   -5.6094   -1.4554   -0.5082 C   0  0  0  0  0  0  0  0  0  0  0  0
   -6.6144   -1.8790   -0.6550 H   0  0  0  0  0  0  0  0  0  0  0  0
   -4.5175   -2.3263   -0.2700 C   0  0  0  0  0  0  0  0  0  0  0  0
   -4.6976   -3.4112   -0.2391 H   0  0  0  0  0  0  0  0  0  0  0  0
   -3.2177   -1.8434   -0.0800 C   0  0  0  0  0  0  0  0  0  0  0  0
   -2.3496   -2.4921    0.1070 H   0  0  0  0  0  0  0  0  0  0  0  0
   -3.0346   -0.4505   -0.1294 C   0  0  0  0  0  0  0  0  0  0  0  0
   -1.8817    0.3205    0.0191 N   0  0  0  0  0  2  0  0  0  0  0  0
  2  1  1  0  0  0  0
  3  4  1  0  0  0  0
  3  2  1  0  0  0  0
  5  3  2  0  0  0  0
  6  5  1  0  0  0  0
  7  9  2  0  0  0  0
  7  5  1  0  0  0  0
  8  7  1  0  0  0  0
  9 11  1  0  0  0  0
 10  9  1  0  0  0  0
 11 12  1  0  0  0  0
 11  2  2  0  0  0  0
 12 14  1  0  0  0  0
 13 12  1  0  0  0  0
 14  1  1  0  0  0  0
 14 15  1  6  0  0  0
 15 16  1  0  0  0  0
 17 15  1  0  0  0  0
 18 20  1  0  0  0  0
 18 15  1  0  0  0  0
 19 18  1  0  0  0  0
 20 22  1  0  0  0  0
 21 20  1  0  0  0  0
 23 20  1  1  0  0  0
 23 36  1  0  0  0  0
 24 26  1  0  0  0  0
 24 23  1  0  0  0  0
 25 24  1  0  0  0  0
 26 35  1  0  0  0  0
 27 29  1  0  0  0  0
 27 26  2  0  0  0  0
 28 27  1  0  0  0  0
 29 31  2  0  0  0  0
 30 29  1  0  0  0  0
 31 32  1  0  0  0  0
 31 33  1  0  0  0  0
 33 34  1  0  0  0  0
 35 33  2  0  0  0  0
 35 36  1  0  0  0  0
M  END
