5,8,9
q = -1.0, confidence = 0.002

 26 26  0  0  1  0  0  0  0  0999 V2000
    2.3139    2.8980   -0.6974 O   0  0  0  0  0  0  0  0  0  0  0  0
   -0.2118    1.6440    1.9850 O   0  0  0  0  0  0  0  0  0  0  0  0
   -1.5888    3.3105    1.3018 O   0  0  0  0  0  0  0  0  0  0  0  0
   -1.7498    3.3734    2.2703 H   0  0  0  0  0  0  0  0  0  0  0  0
    2.5458   -0.5697    0.2398 N   0  0  0  0  0  0  0  0  0  0  0  0
    2.6903   -0.4614    1.2578 H   0  0  0  0  0  0  0  0  0  0  0  0
    2.9750   -1.4704   -0.0283 H   0  0  0  0  0  0  0  0  0  0  0  0
    0.7228    1.2426   -0.5699 N   0  0  0  0  0  2  0  0  0  0  0  0
   -1.5270   -0.6478   -0.2994 N   0  0  0  0  0  2  0  0  0  0  0  0
   -3.6327   -1.1944   -0.2194 N   0  0  0  0  0  0  0  0  0  0  0  0
   -4.4815   -1.7452   -0.0659 H   0  0  0  0  0  0  0  0  0  0  0  0
    3.0778    0.6020   -0.5092 C   0  0  0  0  0  0  0  0  0  0  0  0
    3.9918    0.9975   -0.0286 H   0  0  0  0  0  0  0  0  0  0  0  0
    3.3337    0.2789   -1.5378 H   0  0  0  0  0  0  0  0  0  0  0  0
    2.0214    1.7193   -0.5824 C   0  0  0  0  0  0  0  0  0  0  0  0
   -0.3773    2.1634   -0.3952 C   0  0  1  0  0  0  0  0  0  0  0  0
   -0.0438    3.1521   -0.7756 H   0  0  0  0  0  0  0  0  0  0  0  0
   -1.6181    1.7367   -1.2053 C   0  0  0  0  0  0  0  0  0  0  0  0
   -2.3764    2.5408   -1.1610 H   0  0  0  0  0  0  0  0  0  0  0  0
   -1.3075    1.6365   -2.2673 H   0  0  0  0  0  0  0  0  0  0  0  0
   -2.2485    0.4595   -0.7378 C   0  0  0  0  0  0  0  0  0  0  0  0
   -3.5848    0.1072   -0.6804 C   0  0  0  0  0  0  0  0  0  0  0  0
   -4.4833    0.6752   -0.9395 H   0  0  0  0  0  0  0  0  0  0  0  0
   -2.3806   -1.6359    0.0107 C   0  0  0  0  0  3  0  0  0  0  0  0
   -2.0901   -2.6225    0.3902 H   0  0  0  0  0  0  0  0  0  0  0  0
   -0.6946    2.3297    1.1035 C   0  0  0  0  0  0  0  0  0  0  0  0
  1 15  2  0  0  0  0
  3  4  1  0  0  0  0
  5  6  1  0  0  0  0
  7  5  1  0  0  0  0
  8 16  1  0  0  0  0
  9 24  1  0  0  0  0
 10 11  1  0  0  0  0
 10 24  1  0  0  0  0
 12 13  1  0  0  0  0
 12  5  1  0  0  0  0
 14 12  1  0  0  0  0
 15  8  1  0  0  0  0
 15 12  1  0  0  0  0
 16 17  1  6  0  0  0
 16 26  1  0  0  0  0
 18 19  1  0  0  0  0
 18 21  1  0  0  0  0
 18 16  1  0  0  0  0
 20 18  1  0  0  0  0
 21 22  2  0  0  0  0
 21  9  1  0  0  0  0
 22 10  1  0  0  0  0
 23 22  1  0  0  0  0
 24 25  1  0  0  0  0
 26  3  1  0  0  0  0
 26  2  2  0  0  0  0
M  END
