4,5,6
q = 0.0, confidence = 1.0

 69 72  0  0  1  0  0  0  0  0999 V2000
    5.6159    0.4119    0.6298 O   0  0  0  0  0  0  0  0  0  0  0  0
   -3.6841    4.0725    0.3983 O   0  0  0  0  0  0  0  0  0  0  0  0
   -2.9504   -4.6976    0.2769 O   0  0  0  0  0  0  0  0  0  0  0  0
    1.7010    0.0924    1.5189 N   0  0  0  0  0  2  0  0  0  0  0  0
   -0.9648    1.4901    1.6485 N   0  0  0  0  0  2  0  0  0  0  0  0
   -0.7288   -1.6914    1.5915 N   0  0  0  0  0  2  0  0  0  0  0  0
    1.4777    0.0483    2.9768 C   0  0  1  0  0  0  0  0  0  0  0  0
    2.4694    0.1134    3.4815 H   0  0  0  0  0  0  0  0  0  0  0  0
    0.6354    1.2411    3.4725 C   0  0  0  0  0  0  0  0  0  0  0  0
    1.0786    2.1937    3.1195 H   0  0  0  0  0  0  0  0  0  0  0  0
    0.6935    1.2479    4.5812 H   0  0  0  0  0  0  0  0  0  0  0  0
   -0.8540    1.1838    3.0743 C   0  0  2  0  0  0  0  0  0  0  0  0
   -1.3958    1.9647    3.6592 H   0  0  0  0  0  0  0  0  0  0  0  0
   -1.4749   -0.1809    3.4331 C   0  0  0  0  0  0  0  0  0  0  0  0
   -2.4991   -0.2500    3.0143 H   0  0  0  0  0  0  0  0  0  0  0  0
   -1.5813   -0.2082    4.5376 H   0  0  0  0  0  0  0  0  0  0  0  0
   -0.6590   -1.4243    3.0274 C   0  0  2  0  0  0  0  0  0  0  0  0
   -1.0763   -2.2978    3.5826 H   0  0  0  0  0  0  0  0  0  0  0  0
    0.8236   -1.2736    3.4268 C   0  0  0  0  0  0  0  0  0  0  0  0
    0.8860   -1.3117    4.5346 H   0  0  0  0  0  0  0  0  0  0  0  0
    1.4025   -2.1362    3.0404 H   0  0  0  0  0  0  0  0  0  0  0  0
    2.9376    0.1959    1.1340 C   0  0  0  0  0  3  0  0  0  0  0  0
    3.7334    0.2419    1.9062 H   0  0  0  0  0  0  0  0  0  0  0  0
    3.4176    0.2620   -0.2409 C   0  0  0  0  0  0  0  0  0  0  0  0
    2.5586    0.2205   -1.3606 C   0  0  0  0  0  0  0  0  0  0  0  0
    1.4776    0.1334   -1.1784 H   0  0  0  0  0  0  0  0  0  0  0  0
    3.0499    0.2870   -2.6660 C   0  0  0  0  0  0  0  0  0  0  0  0
    2.3586    0.2521   -3.5206 H   0  0  0  0  0  0  0  0  0  0  0  0
    4.4359    0.3982   -2.8732 C   0  0  0  0  0  0  0  0  0  0  0  0
    4.8401    0.4514   -3.8954 H   0  0  0  0  0  0  0  0  0  0  0  0
    5.3215    0.4425   -1.7882 C   0  0  0  0  0  0  0  0  0  0  0  0
    6.3994    0.5293   -1.9747 H   0  0  0  0  0  0  0  0  0  0  0  0
    4.8277    0.3754   -0.4687 C   0  0  0  0  0  0  0  0  0  0  0  0
    7.0253    0.5241    0.4749 C   0  0  0  0  0  0  0  0  0  0  0  0
    7.4436   -0.3406   -0.0841 H   0  0  0  0  0  0  0  0  0  0  0  0
    7.4472    0.5346    1.4958 H   0  0  0  0  0  0  0  0  0  0  0  0
    7.3040    1.4660   -0.0449 H   0  0  0  0  0  0  0  0  0  0  0  0
   -1.5741    2.5795    1.3066 C   0  0  0  0  0  3  0  0  0  0  0  0
   -2.1201    3.1668    2.0780 H   0  0  0  0  0  0  0  0  0  0  0  0
   -1.5683    3.1349   -0.0461 C   0  0  0  0  0  0  0  0  0  0  0  0
   -0.4634    2.9615   -0.9048 C   0  0  0  0  0  0  0  0  0  0  0  0
    0.3876    2.3685   -0.5377 H   0  0  0  0  0  0  0  0  0  0  0  0
   -0.4356    3.5409   -2.1777 C   0  0  0  0  0  0  0  0  0  0  0  0
    0.4437    3.4099   -2.8252 H   0  0  0  0  0  0  0  0  0  0  0  0
   -1.5310    4.3119   -2.6041 C   0  0  0  0  0  0  0  0  0  0  0  0
   -1.5210    4.7807   -3.6002 H   0  0  0  0  0  0  0  0  0  0  0  0
   -2.6386    4.5186   -1.7669 C   0  0  0  0  0  0  0  0  0  0  0  0
   -3.4764    5.1341   -2.1190 H   0  0  0  0  0  0  0  0  0  0  0  0
   -2.6632    3.9392   -0.4819 C   0  0  0  0  0  0  0  0  0  0  0  0
   -4.7779    4.9177    0.0644 C   0  0  0  0  0  0  0  0  0  0  0  0
   -4.4453    5.9609   -0.1262 H   0  0  0  0  0  0  0  0  0  0  0  0
   -5.4557    4.9054    0.9368 H   0  0  0  0  0  0  0  0  0  0  0  0
   -5.3259    4.5411   -0.8265 H   0  0  0  0  0  0  0  0  0  0  0  0
   -1.1510   -2.8542    1.2090 C   0  0  0  0  0  3  0  0  0  0  0  0
   -1.5843   -3.5516    1.9596 H   0  0  0  0  0  0  0  0  0  0  0  0
   -1.0651   -3.3516   -0.1618 C   0  0  0  0  0  0  0  0  0  0  0  0
   -0.0317   -2.9397   -1.0291 C   0  0  0  0  0  0  0  0  0  0  0  0
    0.6980   -2.2080   -0.6513 H   0  0  0  0  0  0  0  0  0  0  0  0
    0.0834   -3.4627   -2.3204 C   0  0  0  0  0  0  0  0  0  0  0  0
    0.9071   -3.1424   -2.9750 H   0  0  0  0  0  0  0  0  0  0  0  0
   -0.8484   -4.4196   -2.7579 C   0  0  0  0  0  0  0  0  0  0  0  0
   -0.7681   -4.8446   -3.7701 H   0  0  0  0  0  0  0  0  0  0  0  0
   -1.8778   -4.8645   -1.9142 C   0  0  0  0  0  0  0  0  0  0  0  0
   -2.5866   -5.6200   -2.2767 H   0  0  0  0  0  0  0  0  0  0  0  0
   -1.9915   -4.3399   -0.6109 C   0  0  0  0  0  0  0  0  0  0  0  0
   -3.8656   -5.7279   -0.0734 C   0  0  0  0  0  0  0  0  0  0  0  0
   -4.4918   -5.4370   -0.9447 H   0  0  0  0  0  0  0  0  0  0  0  0
   -4.5173   -5.8749    0.8066 H   0  0  0  0  0  0  0  0  0  0  0  0
   -3.3409   -6.6803   -0.3034 H   0  0  0  0  0  0  0  0  0  0  0  0
  4  7  1  0  0  0  0
  5 12  1  0  0  0  0
  6 17  1  0  0  0  0
  7 19  1  0  0  0  0
  7  9  1  0  0  0  0
  7  8  1  1  0  0  0
  9 11  1  0  0  0  0
 10  9  1  0  0  0  0
 12 14  1  0  0  0  0
 12  9  1  0  0  0  0
 12 13  1  1  0  0  0
 14 16  1  0  0  0  0
 15 14  1  0  0  0  0
 17 19  1  0  0  0  0
 17 14  1  0  0  0  0
 17 18  1  1  0  0  0
 19 20  1  0  0  0  0
 21 19  1  0  0  0  0
 22  4  1  0  0  0  0
 22 23  1  0  0  0  0
 24 22  1  0  0  0  0
 25 26  1  0  0  0  0
 25 24  2  0  0  0  0
 27 25  1  0  0  0  0
 28 27  1  0  0  0  0
 29 27  2  0  0  0  0
 29 31  1  0  0  0  0
 30 29  1  0  0  0  0
 31 33  2  0  0  0  0
 32 31  1  0  0  0  0
 33 24  1  0  0  0  0
 33  1  1  0  0  0  0
 34  1  1  0  0  0  0
 34 36  1  0  0  0  0
 35 34  1  0  0  0  0
 37 34  1  0  0  0  0
 38  5  1  0  0  0  0
 38 39  1  0  0  0  0
 40 38  1  0  0  0  0
 41 42  1  0  0  0  0
 41 40  2  0  0  0  0
 43 41  1  0  0  0  0
 44 43  1  0  0  0  0
 45 43  2  0  0  0  0
 45 47  1  0  0  0  0
 46 45  1  0  0  0  0
 47 49  2  0  0  0  0
 48 47  1  0  0  0  0
 49 40  1  0  0  0  0
 49  2  1  0  0  0  0
 50  2  1  0  0  0  0
 50 52  1  0  0  0  0
 51 50  1  0  0  0  0
 53 50  1  0  0  0  0
 54  6  1  0  0  0  0
 54 55  1  0  0  0  0
 56 54  1  0  0  0  0
 57 58  1  0  0  0  0
 57 56  2  0  0  0  0
 59 57  1  0  0  0  0
 60 59  1  0  0  0  0
 61 59  2  0  0  0  0
 61 63  1  0  0  0  0
 62 61  1  0  0  0  0
 63 65  2  0  0  0  0
 64 63  1  0  0  0  0
 65 56  1  0  0  0  0
 65  3  1  0  0  0  0
 66  3  1  0  0  0  0
 66 68  1  0  0  0  0
 67 66  1  0  0  0  0
 69 66  1  0  0  0  0
M  END
