1,4,5
q = 0.0, confidence = 0.998

 25 27  0  0  1  0  0  0  0  0999 V2000
    1.9963   -0.4547   -0.0001 N   0  0  0  0  0  2  0  0  0  0  0  0
    3.6434    1.0430   -0.0004 N   0  0  0  0  0  0  0  0  0  0  0  0
    4.1312    1.9353   -0.0005 H   0  0  0  0  0  0  0  0  0  0  0  0
   -0.0001    1.1506   -0.0004 N   0  0  0  0  0  2  0  0  0  0  0  0
   -1.9963   -0.4549   -0.0000 N   0  0  0  0  0  2  0  0  0  0  0  0
   -3.6435    1.0426   -0.0004 N   0  0  0  0  0  0  0  0  0  0  0  0
   -4.1314    1.9350   -0.0005 H   0  0  0  0  0  0  0  0  0  0  0  0
    3.1924   -1.1297   -0.0001 C   0  0  0  0  0  0  0  0  0  0  0  0
    3.2124   -2.2240    0.0000 H   0  0  0  0  0  0  0  0  0  0  0  0
    4.2293   -0.2106   -0.0003 C   0  0  0  0  0  0  0  0  0  0  0  0
    5.3157   -0.3409   -0.0004 H   0  0  0  0  0  0  0  0  0  0  0  0
    2.2802    0.8773   -0.0002 C   0  0  0  0  0  0  0  0  0  0  0  0
    1.1966    1.8298   -0.0003 C   0  0  0  0  0  0  0  0  0  0  0  0
    1.2209    3.2370   -0.0003 C   0  0  0  0  0  0  0  0  0  0  0  0
    2.1779    3.7805   -0.0002 H   0  0  0  0  0  0  0  0  0  0  0  0
   -0.0002    3.9382   -0.0003 C   0  0  0  0  0  0  0  0  0  0  0  0
   -0.0003    5.0381   -0.0002 H   0  0  0  0  0  0  0  0  0  0  0  0
   -1.2213    3.2369   -0.0003 C   0  0  0  0  0  0  0  0  0  0  0  0
   -2.1783    3.7803   -0.0002 H   0  0  0  0  0  0  0  0  0  0  0  0
   -1.1968    1.8297   -0.0003 C   0  0  0  0  0  0  0  0  0  0  0  0
   -2.2803    0.8770   -0.0002 C   0  0  2  0  0  3  0  0  0  0  0  0
   -4.2294   -0.2110   -0.0003 C   0  0  0  0  0  0  0  0  0  0  0  0
   -5.3157   -0.3413   -0.0003 H   0  0  0  0  0  0  0  0  0  0  0  0
   -3.1923   -1.1300   -0.0001 C   0  0  0  0  0  0  0  0  0  0  0  0
   -3.2122   -2.2243   -0.0000 H   0  0  0  0  0  0  0  0  0  0  0  0
  2 10  1  0  0  0  0
  2 12  1  0  0  0  0
  3  2  1  0  0  0  0
  4 13  1  0  0  0  0
  4 20  1  0  0  0  0
  6 22  1  0  0  0  0
  6 21  1  0  0  0  0
  7  6  1  0  0  0  0
  8  1  1  0  0  0  0
  8  9  1  0  0  0  0
 10  8  2  0  0  0  0
 11 10  1  0  0  0  0
 12  1  1  0  0  0  0
 13 14  1  0  0  0  0
 13 12  2  0  0  0  0
 14 16  2  0  0  0  0
 14 15  1  0  0  0  0
 16 18  1  0  0  0  0
 16 17  1  0  0  0  0
 18 19  1  0  0  0  0
 20 18  2  0  0  0  0
 21 20  1  6  0  0  0
 21  5  1  0  0  0  0
 22 24  2  0  0  0  0
 23 22  1  0  0  0  0
 24  5  1  0  0  0  0
 24 25  1  0  0  0  0
M  END
