3,4,5
q = 0.0, confidence = 0.88

 57 61  0  0  1  0  0  0  0  0999 V2000
   -4.2473    2.2562    0.5512 O   0  0  0  0  0  0  0  0  0  0  0  0
   -6.3505   -1.8013   -0.0198 O   0  0  0  0  0  0  0  0  0  0  0  0
   -1.0531    0.0172    1.2242 N   0  0  0  0  0  0  0  0  0  0  0  0
    0.9537    1.4206   -0.1595 N   0  0  0  0  0  2  0  0  0  0  0  0
    1.5472   -1.1229    0.9580 N   0  0  0  0  0  2  0  0  0  0  0  0
   -5.2439    0.1435    0.6497 N   0  0  0  0  0  0  0  0  0  0  0  0
    0.2051    2.1134    0.7164 C   0  0  0  0  0  0  0  0  0  0  0  0
    0.5654    3.3976    1.1957 C   0  0  0  0  0  0  0  0  0  0  0  0
   -0.1005    3.9134    1.9016 H   0  0  0  0  0  0  0  0  0  0  0  0
    1.7407    3.9782    0.7586 C   0  0  0  0  0  0  0  0  0  0  0  0
    2.0404    4.9794    1.1038 H   0  0  0  0  0  0  0  0  0  0  0  0
    2.5852    3.2620   -0.1289 C   0  0  0  0  0  0  0  0  0  0  0  0
    3.8304    3.7935   -0.5720 C   0  0  0  0  0  3  0  0  0  0  0  0
    4.1241    4.7972   -0.2297 H   0  0  0  0  0  0  0  0  0  0  0  0
    4.6535    3.0592   -1.4098 C   0  0  0  0  0  0  0  0  0  0  0  0
    5.6140    3.4736   -1.7488 H   0  0  0  0  0  0  0  0  0  0  0  0
    4.2527    1.7643   -1.8276 C   0  0  0  0  0  0  0  0  0  0  0  0
    4.9083    1.1754   -2.4859 H   0  0  0  0  0  0  0  0  0  0  0  0
    3.0406    1.2237   -1.4211 C   0  0  0  0  0  0  0  0  0  0  0  0
    2.7540    0.2217   -1.7509 H   0  0  0  0  0  0  0  0  0  0  0  0
    2.1676    1.9523   -0.5717 C   0  0  0  0  0  0  0  0  0  0  0  0
   -1.0946    1.5063    1.1624 C   0  0  0  0  0  0  0  0  0  0  0  0
   -1.3809    1.9348    2.1453 H   0  0  0  0  0  0  0  0  0  0  0  0
   -1.9055    1.7978    0.4597 H   0  0  0  0  0  0  0  0  0  0  0  0
   -0.2965   -0.4627    2.4116 C   0  0  0  0  0  0  0  0  0  0  0  0
   -0.4643    0.1972    3.2883 H   0  0  0  0  0  0  0  0  0  0  0  0
   -0.7066   -1.4599    2.6804 H   0  0  0  0  0  0  0  0  0  0  0  0
    1.1794   -0.6618    2.1679 C   0  0  0  0  0  0  0  0  0  0  0  0
    2.1018   -0.4600    3.2223 C   0  0  0  0  0  0  0  0  0  0  0  0
    1.7453   -0.0606    4.1820 H   0  0  0  0  0  0  0  0  0  0  0  0
    3.4394   -0.7557    3.0195 C   0  0  0  0  0  0  0  0  0  0  0  0
    4.1837   -0.5753    3.8101 H   0  0  0  0  0  0  0  0  0  0  0  0
    3.8518   -1.3226    1.7861 C   0  0  0  0  0  0  0  0  0  0  0  0
    5.2022   -1.7032    1.5362 C   0  0  0  0  0  0  0  0  0  0  0  0
    5.9540   -1.5215    2.3190 H   0  0  0  0  0  0  0  0  0  0  0  0
    5.5536   -2.3084    0.3407 C   0  0  0  0  0  0  0  0  0  0  0  0
    6.5955   -2.6075    0.1557 H   0  0  0  0  0  0  0  0  0  0  0  0
    4.5577   -2.5735   -0.6365 C   0  0  0  0  0  0  0  0  0  0  0  0
    4.8305   -3.0976   -1.5644 H   0  0  0  0  0  0  0  0  0  0  0  0
    3.2384   -2.1941   -0.4329 C   0  0  0  0  0  0  0  0  0  0  0  0
    2.4699   -2.4294   -1.1781 H   0  0  0  0  0  0  0  0  0  0  0  0
    2.8551   -1.5335    0.7644 C   0  0  1  0  0  3  0  0  0  0  0  0
   -2.4496   -0.5393    1.2153 C   0  0  0  0  0  0  0  0  0  0  0  0
   -2.3618   -1.6427    1.2369 H   0  0  0  0  0  0  0  0  0  0  0  0
   -2.8726   -0.2818    0.2278 H   0  0  0  0  0  0  0  0  0  0  0  0
   -3.3839   -0.0375    2.3170 C   0  0  0  0  0  0  0  0  0  0  0  0
   -3.1616   -0.5179    3.2921 H   0  0  0  0  0  0  0  0  0  0  0  0
   -3.2716    1.0551    2.4465 H   0  0  0  0  0  0  0  0  0  0  0  0
   -4.8583   -0.3143    1.9770 C   0  0  0  0  0  0  0  0  0  0  0  0
   -5.0889   -1.3999    1.9871 H   0  0  0  0  0  0  0  0  0  0  0  0
   -5.5032    0.1627    2.7449 H   0  0  0  0  0  0  0  0  0  0  0  0
   -4.9364    1.3724    0.0545 C   0  0  0  0  0  0  0  0  0  0  0  0
   -5.5637    1.3491   -1.3118 C   0  0  0  0  0  0  0  0  0  0  0  0
   -5.4780    2.1989   -2.0001 H   0  0  0  0  0  0  0  0  0  0  0  0
   -6.1778    0.1616   -1.4894 C   0  0  0  0  0  0  0  0  0  0  0  0
   -6.7292   -0.2158   -2.3596 H   0  0  0  0  0  0  0  0  0  0  0  0
   -5.9867   -0.6652   -0.2502 C   0  0  0  0  0  0  0  0  0  0  0  0
  3 25  1  0  0  0  0
  4  7  1  0  0  0  0
  5 28  1  0  0  0  0
  6 49  1  0  0  0  0
  7 22  1  0  0  0  0
  7  8  2  0  0  0  0
  8  9  1  0  0  0  0
 10 11  1  0  0  0  0
 10  8  1  0  0  0  0
 12 10  2  0  0  0  0
 13 14  1  0  0  0  0
 13 12  1  0  0  0  0
 15 13  1  0  0  0  0
 16 15  1  0  0  0  0
 17 19  1  0  0  0  0
 17 15  2  0  0  0  0
 18 17  1  0  0  0  0
 19 21  2  0  0  0  0
 20 19  1  0  0  0  0
 21  4  1  0  0  0  0
 21 12  1  0  0  0  0
 22  3  1  0  0  0  0
 22 23  1  0  0  0  0
 24 22  1  0  0  0  0
 25 27  1  0  0  0  0
 25 26  1  0  0  0  0
 28 25  1  0  0  0  0
 28 29  2  0  0  0  0
 29 30  1  0  0  0  0
 31 29  1  0  0  0  0
 31 32  1  0  0  0  0
 33 31  2  0  0  0  0
 34 33  1  0  0  0  0
 34 35  1  0  0  0  0
 36 34  2  0  0  0  0
 37 36  1  0  0  0  0
 38 40  2  0  0  0  0
 38 36  1  0  0  0  0
 39 38  1  0  0  0  0
 41 40  1  0  0  0  0
 42 40  1  1  0  0  0
 42  5  1  0  0  0  0
 42 33  1  0  0  0  0
 43  3  1  0  0  0  0
 43 44  1  0  0  0  0
 43 46  1  0  0  0  0
 45 43  1  0  0  0  0
 46 48  1  0  0  0  0
 46 47  1  0  0  0  0
 49 50  1  0  0  0  0
 49 46  1  0  0  0  0
 49 51  1  0  0  0  0
 52  1  2  0  0  0  0
 52  6  1  0  0  0  0
 53 52  1  0  0  0  0
 54 53  1  0  0  0  0
 55 53  2  0  0  0  0
 55 57  1  0  0  0  0
 56 55  1  0  0  0  0
 57  2  2  0  0  0  0
 57  6  1  0  0  0  0
M  END
