6,7,8
q = 0.0, confidence = 0.992

 55 57  0  0  1  0  0  0  0  0999 V2000
   -4.9203   -2.8966    0.1096 O   0  0  0  0  0  0  0  0  0  0  0  0
   -7.0750   -1.0953    0.5026 O   0  0  0  0  0  0  0  0  0  0  0  0
   -5.7393    1.1984    1.2000 O   0  0  0  0  0  0  0  0  0  0  0  0
   -3.2651    0.3409   -0.0980 O   0  0  0  0  0  0  0  0  0  0  0  0
   -2.7483    2.9367   -1.2979 O   0  0  0  0  0  0  0  0  0  0  0  0
   -0.0487   -0.4739    0.0291 N   0  0  0  0  0  0  0  0  0  0  0  0
    2.1272    0.5184    1.5268 N   0  0  0  0  0  2  0  0  0  0  0  0
    1.9855    1.0725   -1.1902 N   0  0  0  0  0  2  0  0  0  0  0  0
   -3.4217   -1.0657   -0.2842 C   0  0  2  0  0  0  0  0  0  0  0  0
   -4.7606   -1.5136    0.3296 C   0  0  1  0  0  0  0  0  0  0  0  0
   -5.9254   -0.7209   -0.2602 C   0  0  2  0  0  0  0  0  0  0  0  0
   -5.6747    0.7923   -0.1476 C   0  0  2  0  0  0  0  0  0  0  0  0
   -4.2897    1.1203   -0.7177 C   0  0  1  0  0  0  0  0  0  0  0  0
   -3.9141    2.5895   -0.5589 C   0  0  0  0  0  0  0  0  0  0  0  0
   -2.2811   -1.8174    0.3917 C   0  0  0  0  0  0  0  0  0  0  0  0
   -0.8512   -1.7440   -0.1523 C   0  0  0  0  0  0  0  0  0  0  0  0
   -0.2630    0.0742    1.3987 C   0  0  0  0  0  0  0  0  0  0  0  0
    0.8801    0.9123    1.9025 C   0  0  1  0  0  3  0  0  0  0  0  0
    0.6878    1.9734    2.7983 C   0  0  0  0  0  0  0  0  0  0  0  0
    1.8033    2.6234    3.3423 C   0  0  0  0  0  0  0  0  0  0  0  0
    3.0854    2.1926    2.9710 C   0  0  0  0  0  0  0  0  0  0  0  0
    3.2058    1.1447    2.0548 C   0  0  0  0  0  0  0  0  0  0  0  0
   -0.3802    0.5419   -1.0196 C   0  0  0  0  0  0  0  0  0  0  0  0
    0.7121    1.5548   -1.2216 C   0  0  2  0  0  3  0  0  0  0  0  0
    0.4452    2.9026   -1.5023 C   0  0  0  0  0  0  0  0  0  0  0  0
    1.5123    3.7567   -1.8144 C   0  0  0  0  0  0  0  0  0  0  0  0
    2.8160    3.2399   -1.8331 C   0  0  0  0  0  0  0  0  0  0  0  0
    3.0137    1.8972   -1.4989 C   0  0  0  0  0  0  0  0  0  0  0  0
   -5.8129   -3.1208    0.4389 H   0  0  0  0  0  0  0  0  0  0  0  0
   -7.8743   -0.9231   -0.0295 H   0  0  0  0  0  0  0  0  0  0  0  0
   -6.4736    0.6749    1.5871 H   0  0  0  0  0  0  0  0  0  0  0  0
   -2.9775    2.8968   -2.2456 H   0  0  0  0  0  0  0  0  0  0  0  0
   -3.4383   -1.3040   -1.3788 H   0  0  0  0  0  0  0  0  0  0  0  0
   -4.7148   -1.2614    1.4180 H   0  0  0  0  0  0  0  0  0  0  0  0
   -6.0369   -1.0135   -1.3302 H   0  0  0  0  0  0  0  0  0  0  0  0
   -6.4321    1.3306   -0.7775 H   0  0  0  0  0  0  0  0  0  0  0  0
   -4.3245    0.8770   -1.8127 H   0  0  0  0  0  0  0  0  0  0  0  0
   -4.7852    3.2224   -0.8419 H   0  0  0  0  0  0  0  0  0  0  0  0
   -3.6989    2.7831    0.5098 H   0  0  0  0  0  0  0  0  0  0  0  0
   -2.5663   -2.8879    0.3308 H   0  0  0  0  0  0  0  0  0  0  0  0
   -2.3054   -1.5801    1.4757 H   0  0  0  0  0  0  0  0  0  0  0  0
   -0.2727   -2.5379    0.3559 H   0  0  0  0  0  0  0  0  0  0  0  0
   -0.8243   -1.9803   -1.2340 H   0  0  0  0  0  0  0  0  0  0  0  0
   -1.2262    0.6222    1.4524 H   0  0  0  0  0  0  0  0  0  0  0  0
   -0.3426   -0.7953    2.0863 H   0  0  0  0  0  0  0  0  0  0  0  0
   -0.3342    2.2755    3.0684 H   0  0  0  0  0  0  0  0  0  0  0  0
    1.6734    3.4554    4.0499 H   0  0  0  0  0  0  0  0  0  0  0  0
    3.9905    2.6647    3.3776 H   0  0  0  0  0  0  0  0  0  0  0  0
    4.1897    0.7843    1.7216 H   0  0  0  0  0  0  0  0  0  0  0  0
   -0.4838   -0.0191   -1.9734 H   0  0  0  0  0  0  0  0  0  0  0  0
   -1.3552    1.0279   -0.8188 H   0  0  0  0  0  0  0  0  0  0  0  0
   -0.5967    3.2544   -1.4556 H   0  0  0  0  0  0  0  0  0  0  0  0
    1.3274    4.8175   -2.0398 H   0  0  0  0  0  0  0  0  0  0  0  0
    3.6811    3.8686   -2.0857 H   0  0  0  0  0  0  0  0  0  0  0  0
    4.0206    1.4564   -1.4664 H   0  0  0  0  0  0  0  0  0  0  0  0
  1 10  1  0  0  0  0
  1 29  1  0  0  0  0
  3 31  1  0  0  0  0
  5 14  1  0  0  0  0
  6 17  1  0  0  0  0
  7 18  1  0  0  0  0
  7 22  1  0  0  0  0
  9 33  1  6  0  0  0
  9  4  1  0  0  0  0
  9 10  1  0  0  0  0
  9 15  1  0  0  0  0
 10 34  1  1  0  0  0
 11 35  1  6  0  0  0
 11 12  1  0  0  0  0
 11 10  1  0  0  0  0
 11  2  1  0  0  0  0
 12 36  1  6  0  0  0
 12  3  1  0  0  0  0
 13 37  1  6  0  0  0
 13 14  1  0  0  0  0
 13 12  1  0  0  0  0
 13  4  1  0  0  0  0
 14 39  1  0  0  0  0
 15 41  1  0  0  0  0
 16  6  1  0  0  0  0
 16 42  1  0  0  0  0
 16 15  1  0  0  0  0
 17 44  1  0  0  0  0
 17 45  1  0  0  0  0
 18 17  1  1  0  0  0
 18 19  1  0  0  0  0
 19 46  1  0  0  0  0
 19 20  2  0  0  0  0
 20 47  1  0  0  0  0
 21 20  1  0  0  0  0
 21 48  1  0  0  0  0
 22 21  2  0  0  0  0
 23 51  1  0  0  0  0
 23  6  1  0  0  0  0
 24  8  1  0  0  0  0
 24 23  1  6  0  0  0
 25 52  1  0  0  0  0
 25 24  1  0  0  0  0
 26 25  2  0  0  0  0
 27 26  1  0  0  0  0
 27 28  2  0  0  0  0
 28 55  1  0  0  0  0
 28  8  1  0  0  0  0
 30  2  1  0  0  0  0
 32  5  1  0  0  0  0
 38 14  1  0  0  0  0
 40 15  1  0  0  0  0
 43 16  1  0  0  0  0
 49 22  1  0  0  0  0
 50 23  1  0  0  0  0
 53 26  1  0  0  0  0
 54 27  1  0  0  0  0
M  END
