3,4,5
q = -2.0, confidence = 0.93

 49 51  0  0  1  0  0  0  0  0999 V2000
    0.3412    4.1184    0.4583 O   0  0  0  0  0  0  0  0  0  0  0  0
    4.6995   -1.4326   -0.2015 O   0  0  0  0  0  0  0  0  0  0  0  0
    2.4312    1.2908   -0.0362 N   0  0  0  0  0  2  0  0  0  0  0  0
   -0.0318    1.9640   -0.3633 N   0  0  0  0  0  2  0  0  0  0  0  0
    2.4450   -1.1925   -0.7530 N   0  0  0  0  0  2  0  0  0  0  0  0
    2.1772    2.5732    0.2848 C   0  0  2  0  0  3  0  0  0  0  0  0
    3.2259    3.3807    0.7423 C   0  0  0  0  0  0  0  0  0  0  0  0
    4.5098    2.8161    0.8510 C   0  0  0  0  0  0  0  0  0  0  0  0
    4.7271    1.4675    0.5144 C   0  0  0  0  0  0  0  0  0  0  0  0
    3.6403    0.7090    0.0616 C   0  0  0  0  0  0  0  0  0  0  0  0
    0.7278    2.9864    0.1380 C   0  0  0  0  0  0  0  0  0  0  0  0
   -1.4613    2.1510   -0.4825 C   0  0  0  0  0  0  0  0  0  0  0  0
   -2.2214    1.5812    0.7409 C   0  0  0  0  0  0  0  0  0  0  0  0
   -3.6842    1.3341    0.4688 C   0  0  0  0  0  0  0  0  0  0  0  0
   -4.2175    0.0301    0.5459 C   0  0  0  0  0  0  0  0  0  0  0  0
   -5.5660   -0.2236    0.2453 C   0  0  0  0  0  0  0  0  0  0  0  0
   -6.4091    0.8287   -0.1453 C   0  0  0  0  0  0  0  0  0  0  0  0
   -5.8937    2.1331   -0.2218 C   0  0  0  0  0  0  0  0  0  0  0  0
   -4.5471    2.3820    0.0826 C   0  0  0  0  0  0  0  0  0  0  0  0
    3.6669   -0.7564   -0.3140 C   0  0  0  0  0  0  0  0  0  0  0  0
    2.3338   -2.5992   -1.0830 C   0  0  0  0  0  0  0  0  0  0  0  0
    2.0589   -3.5020    0.1470 C   0  0  0  0  0  0  0  0  0  0  0  0
    0.7185   -3.2585    0.7939 C   0  0  0  0  0  0  0  0  0  0  0  0
   -0.4007   -4.0493    0.4586 C   0  0  0  0  0  0  0  0  0  0  0  0
   -1.6616   -3.8020    1.0251 C   0  0  0  0  0  0  0  0  0  0  0  0
   -1.8310   -2.7424    1.9323 C   0  0  0  0  0  0  0  0  0  0  0  0
   -0.7274   -1.9433    2.2729 C   0  0  0  0  0  0  0  0  0  0  0  0
    0.5330   -2.2032    1.7135 C   0  0  0  0  0  0  0  0  0  0  0  0
    3.0001    4.4243    1.0042 H   0  0  0  0  0  0  0  0  0  0  0  0
    5.3493    3.4322    1.2078 H   0  0  0  0  0  0  0  0  0  0  0  0
    5.7066    0.9747    0.5931 H   0  0  0  0  0  0  0  0  0  0  0  0
   -1.6761    3.2346   -0.5930 H   0  0  0  0  0  0  0  0  0  0  0  0
   -1.8154    1.6392   -1.4017 H   0  0  0  0  0  0  0  0  0  0  0  0
   -1.7366    0.6273    1.0339 H   0  0  0  0  0  0  0  0  0  0  0  0
   -2.0869    2.2840    1.5907 H   0  0  0  0  0  0  0  0  0  0  0  0
   -3.5572   -0.7940    0.8616 H   0  0  0  0  0  0  0  0  0  0  0  0
   -5.9630   -1.2481    0.3254 H   0  0  0  0  0  0  0  0  0  0  0  0
   -7.4666    0.6353   -0.3811 H   0  0  0  0  0  0  0  0  0  0  0  0
   -6.5489    2.9662   -0.5195 H   0  0  0  0  0  0  0  0  0  0  0  0
   -4.1561    3.4100    0.0228 H   0  0  0  0  0  0  0  0  0  0  0  0
    1.5232   -2.7288   -1.8291 H   0  0  0  0  0  0  0  0  0  0  0  0
    3.2879   -2.9355   -1.5425 H   0  0  0  0  0  0  0  0  0  0  0  0
    2.1275   -4.5600   -0.1826 H   0  0  0  0  0  0  0  0  0  0  0  0
    2.8822   -3.3333    0.8708 H   0  0  0  0  0  0  0  0  0  0  0  0
   -0.2723   -4.8865   -0.2470 H   0  0  0  0  0  0  0  0  0  0  0  0
   -2.5139   -4.4541    0.7743 H   0  0  0  0  0  0  0  0  0  0  0  0
   -2.8133   -2.5559    2.3928 H   0  0  0  0  0  0  0  0  0  0  0  0
   -0.8466   -1.1156    2.9886 H   0  0  0  0  0  0  0  0  0  0  0  0
    1.3964   -1.5837    1.9986 H   0  0  0  0  0  0  0  0  0  0  0  0
  3 10  1  0  0  0  0
  3  6  1  0  0  0  0
  4 11  1  0  0  0  0
  5 20  1  0  0  0  0
  6 11  1  1  0  0  0
  6  7  1  0  0  0  0
  7  8  2  0  0  0  0
  7 29  1  0  0  0  0
  8 30  1  0  0  0  0
  9 31  1  0  0  0  0
  9  8  1  0  0  0  0
 10  9  2  0  0  0  0
 11  1  2  0  0  0  0
 12  4  1  0  0  0  0
 12 13  1  0  0  0  0
 13 34  1  0  0  0  0
 13 35  1  0  0  0  0
 14 15  1  0  0  0  0
 14 13  1  0  0  0  0
 15 36  1  0  0  0  0
 16 37  1  0  0  0  0
 16 15  2  0  0  0  0
 17 16  1  0  0  0  0
 18 17  2  0  0  0  0
 18 19  1  0  0  0  0
 19 14  2  0  0  0  0
 20  2  2  0  0  0  0
 20 10  1  0  0  0  0
 21  5  1  0  0  0  0
 21 22  1  0  0  0  0
 22 23  1  0  0  0  0
 22 44  1  0  0  0  0
 23 28  1  0  0  0  0
 24 23  2  0  0  0  0
 24 25  1  0  0  0  0
 25 26  2  0  0  0  0
 26 27  1  0  0  0  0
 26 47  1  0  0  0  0
 27 48  1  0  0  0  0
 28 49  1  0  0  0  0
 28 27  2  0  0  0  0
 32 12  1  0  0  0  0
 33 12  1  0  0  0  0
 38 17  1  0  0  0  0
 39 18  1  0  0  0  0
 40 19  1  0  0  0  0
 41 21  1  0  0  0  0
 42 21  1  0  0  0  0
 43 22  1  0  0  0  0
 45 24  1  0  0  0  0
 46 25  1  0  0  0  0
M  END
