1,3,4
q = -1.0

 61 63  0  0  0  0  0  0  0  0999 V2000
   -2.1527    1.9709   -0.0069 N   0  0  0  0  0  2  0  0  0  0  0  0
   -3.0763    2.4256   -0.0183 H   0  0  0  0  0  0  0  0  0  0  0  0
   -0.1976   -0.0000   -0.0000 N   0  0  0  0  0  0  0  0  0  0  0  0
   -2.1527   -1.9708    0.0070 N   0  0  0  0  0  2  0  0  0  0  0  0
   -3.0764   -2.4255    0.0183 H   0  0  0  0  0  0  0  0  0  0  0  0
   -1.1079   -2.7840    0.0116 C   0  0  0  0  0  0  0  0  0  0  0  0
    0.1884   -2.3781   -0.0072 N   0  0  0  0  0  0  0  0  0  0  0  0
    0.1885    2.3781    0.0074 N   0  0  0  0  0  0  0  0  0  0  0  0
    0.5894    1.1227    0.0175 C   0  0  0  0  0  3  0  0  0  0  0  0
   -1.1078    2.7840   -0.0113 C   0  0  0  0  0  0  0  0  0  0  0  0
    0.5894   -1.1228   -0.0174 C   0  0  0  0  0  0  0  0  0  0  0  0
    3.1464   -1.6272    0.0453 C   0  0  0  0  0  0  0  0  0  0  0  0
    3.1464    1.6271   -0.0455 C   0  0  0  0  0  0  0  0  0  0  0  0
   -1.3002   -4.3108    0.0456 C   0  0  0  0  0  0  0  0  0  0  0  0
    4.2494    1.3687   -0.8944 C   0  0  0  0  0  0  0  0  0  0  0  0
    4.2473    0.4624   -1.5169 H   0  0  0  0  0  0  0  0  0  0  0  0
    3.1530    2.8099    0.7312 C   0  0  0  0  0  0  0  0  0  0  0  0
    2.3007    3.0209    1.3905 H   0  0  0  0  0  0  0  0  0  0  0  0
    2.0145    0.6927    0.0117 C   0  0  0  0  0  0  0  0  0  0  0  0
    2.0144   -0.6928   -0.0118 C   0  0  0  0  0  0  0  0  0  0  0  0
    5.3259   -3.4272    0.1731 C   0  0  0  0  0  0  0  0  0  0  0  0
    6.1741   -4.1268    0.2226 H   0  0  0  0  0  0  0  0  0  0  0  0
    5.3260   -2.2607    0.9569 C   0  0  0  0  0  0  0  0  0  0  0  0
    6.1717   -2.0467    1.6280 H   0  0  0  0  0  0  0  0  0  0  0  0
   -0.6273   -4.9042   -1.2113 C   0  0  0  0  0  0  0  0  0  0  0  0
   -1.1085   -4.5319   -2.1385 H   0  0  0  0  0  0  0  0  0  0  0  0
   -0.7098   -6.0100   -1.1990 H   0  0  0  0  0  0  0  0  0  0  0  0
    0.4450   -4.6325   -1.2408 H   0  0  0  0  0  0  0  0  0  0  0  0
    5.3260    2.2605   -0.9572 C   0  0  0  0  0  0  0  0  0  0  0  0
    6.1716    2.0465   -1.6285 H   0  0  0  0  0  0  0  0  0  0  0  0
   -2.7840   -4.7089    0.0728 C   0  0  0  0  0  0  0  0  0  0  0  0
   -3.3048   -4.3166    0.9710 H   0  0  0  0  0  0  0  0  0  0  0  0
   -2.8730   -5.8127    0.1020 H   0  0  0  0  0  0  0  0  0  0  0  0
   -3.3266   -4.3625   -0.8315 H   0  0  0  0  0  0  0  0  0  0  0  0
    4.2494   -1.3688    0.8941 C   0  0  0  0  0  0  0  0  0  0  0  0
    4.2474   -0.4625    1.5167 H   0  0  0  0  0  0  0  0  0  0  0  0
   -2.7838    4.7090   -0.0724 C   0  0  0  0  0  0  0  0  0  0  0  0
   -3.3041    4.3171   -0.9709 H   0  0  0  0  0  0  0  0  0  0  0  0
   -2.8727    5.8128   -0.1011 H   0  0  0  0  0  0  0  0  0  0  0  0
   -3.3269    4.3623    0.8315 H   0  0  0  0  0  0  0  0  0  0  0  0
    3.1529   -2.8100   -0.7314 C   0  0  0  0  0  0  0  0  0  0  0  0
    2.3005   -3.0210   -1.3906 H   0  0  0  0  0  0  0  0  0  0  0  0
   -1.3000    4.3108   -0.0446 C   0  0  0  0  0  0  0  0  0  0  0  0
   -0.5930   -4.8439    1.3110 C   0  0  0  0  0  0  0  0  0  0  0  0
    0.4719   -4.5423    1.3131 H   0  0  0  0  0  0  0  0  0  0  0  0
   -0.6514   -5.9510    1.3406 H   0  0  0  0  0  0  0  0  0  0  0  0
   -1.0685   -4.4480    2.2313 H   0  0  0  0  0  0  0  0  0  0  0  0
   -0.6278    4.9034    1.2130 C   0  0  0  0  0  0  0  0  0  0  0  0
   -1.1094    4.5306    2.1397 H   0  0  0  0  0  0  0  0  0  0  0  0
   -0.7101    6.0093    1.2014 H   0  0  0  0  0  0  0  0  0  0  0  0
    0.4445    4.6317    1.2429 H   0  0  0  0  0  0  0  0  0  0  0  0
    4.2364    3.6968    0.6695 C   0  0  0  0  0  0  0  0  0  0  0  0
    4.2289    4.6081    1.2869 H   0  0  0  0  0  0  0  0  0  0  0  0
    4.2362   -3.6969   -0.6698 C   0  0  0  0  0  0  0  0  0  0  0  0
    4.2287   -4.6082   -1.2872 H   0  0  0  0  0  0  0  0  0  0  0  0
    5.3259    3.4271   -0.1735 C   0  0  0  0  0  0  0  0  0  0  0  0
    6.1742    4.1266   -0.2230 H   0  0  0  0  0  0  0  0  0  0  0  0
   -0.5921    4.8447   -1.3094 C   0  0  0  0  0  0  0  0  0  0  0  0
    0.4727    4.5430   -1.3111 H   0  0  0  0  0  0  0  0  0  0  0  0
   -0.6505    5.9518   -1.3383 H   0  0  0  0  0  0  0  0  0  0  0  0
   -1.0672    4.4494   -2.2301 H   0  0  0  0  0  0  0  0  0  0  0  0
  2  1  1  0  0  0  0
  3  9  1  0  0  0  0
  4  6  1  0  0  0  0
  4  5  1  0  0  0  0
  6 14  1  0  0  0  0
  7  6  2  0  0  0  0
  8  9  1  0  0  0  0
 10  1  1  0  0  0  0
 10  8  2  0  0  0  0
 11 20  1  0  0  0  0
 11  7  1  0  0  0  0
 11  3  2  0  0  0  0
 12 35  1  0  0  0  0
 13 19  1  0  0  0  0
 13 17  1  0  0  0  0
 14 31  1  0  0  0  0
 14 44  1  0  0  0  0
 15 13  2  0  0  0  0
 16 15  1  0  0  0  0
 17 18  1  0  0  0  0
 19  9  1  0  0  0  0
 20 19  2  0  0  0  0
 20 12  1  0  0  0  0
 21 22  1  0  0  0  0
 21 23  1  0  0  0  0
 23 24  1  0  0  0  0
 25 27  1  0  0  0  0
 25 14  1  0  0  0  0
 26 25  1  0  0  0  0
 28 25  1  0  0  0  0
 29 15  1  0  0  0  0
 29 56  2  0  0  0  0
 30 29  1  0  0  0  0
 31 33  1  0  0  0  0
 31 32  1  0  0  0  0
 34 31  1  0  0  0  0
 35 23  2  0  0  0  0
 35 36  1  0  0  0  0
 37 43  1  0  0  0  0
 37 40  1  0  0  0  0
 38 37  1  0  0  0  0
 39 37  1  0  0  0  0
 41 54  1  0  0  0  0
 41 12  2  0  0  0  0
 42 41  1  0  0  0  0
 43 10  1  0  0  0  0
 43 48  1  0  0  0  0
 44 45  1  0  0  0  0
 44 46  1  0  0  0  0
 44 47  1  0  0  0  0
 48 51  1  0  0  0  0
 48 49  1  0  0  0  0
 50 48  1  0  0  0  0
 52 17  2  0  0  0  0
 52 53  1  0  0  0  0
 54 21  2  0  0  0  0
 55 54  1  0  0  0  0
 56 52  1  0  0  0  0
 57 56  1  0  0  0  0
 58 43  1  0  0  0  0
 59 58  1  0  0  0  0
 60 58  1  0  0  0  0
 61 58  1  0  0  0  0
M  END
