3,4,5
q = 0.0, confidence = 1.0

 30 32  0  0  0  0  0  0  0  0999 V2000
    0.0645    5.1499   -0.0004 O   0  0  0  0  0  0  0  0  0  0  0  0
   -0.8253    5.5538   -0.0007 H   0  0  0  0  0  0  0  0  0  0  0  0
   -2.0052   -0.5772    0.0000 N   0  0  0  0  0  2  0  0  0  0  0  0
   -0.0052    1.0646    0.0002 N   0  0  0  0  0  2  0  0  0  0  0  0
    2.0110   -0.5625    0.0000 N   0  0  0  0  0  2  0  0  0  0  0  0
   -2.9641   -1.5265    0.0001 C   0  0  0  0  0  3  0  0  0  0  0  0
   -2.5943   -2.5644    0.0000 H   0  0  0  0  0  0  0  0  0  0  0  0
   -4.3235   -1.1923    0.0003 C   0  0  0  0  0  0  0  0  0  0  0  0
   -5.0748   -1.9943    0.0005 H   0  0  0  0  0  0  0  0  0  0  0  0
   -4.6954    0.1590    0.0004 C   0  0  0  0  0  0  0  0  0  0  0  0
   -5.7560    0.4490    0.0006 H   0  0  0  0  0  0  0  0  0  0  0  0
   -3.6967    1.1432    0.0003 C   0  0  0  0  0  0  0  0  0  0  0  0
   -3.9649    2.2085    0.0004 H   0  0  0  0  0  0  0  0  0  0  0  0
   -2.3485    0.7631    0.0001 C   0  0  0  0  0  0  0  0  0  0  0  0
   -1.2065    1.7020    0.0000 C   0  0  0  0  0  0  0  0  0  0  0  0
   -1.2363    3.1017   -0.0002 C   0  0  0  0  0  0  0  0  0  0  0  0
   -2.1935    3.6425   -0.0003 H   0  0  0  0  0  0  0  0  0  0  0  0
   -0.0121    3.8131   -0.0003 C   0  0  0  0  0  0  0  0  0  0  0  0
    1.2167    3.1063   -0.0001 C   0  0  0  0  0  0  0  0  0  0  0  0
    2.1541    3.6773   -0.0002 H   0  0  0  0  0  0  0  0  0  0  0  0
    1.1949    1.7114    0.0001 C   0  0  0  0  0  0  0  0  0  0  0  0
    2.3433    0.7801    0.0002 C   0  0  0  0  0  0  0  0  0  0  0  0
    3.6876    1.1728    0.0004 C   0  0  0  0  0  0  0  0  0  0  0  0
    3.9444    2.2409    0.0005 H   0  0  0  0  0  0  0  0  0  0  0  0
    4.6944    0.1969    0.0004 C   0  0  0  0  0  0  0  0  0  0  0  0
    5.7526    0.4960    0.0006 H   0  0  0  0  0  0  0  0  0  0  0  0
    4.3341   -1.1575    0.0003 C   0  0  0  0  0  0  0  0  0  0  0  0
    5.0922   -1.9531    0.0003 H   0  0  0  0  0  0  0  0  0  0  0  0
    2.9777   -1.5038    0.0001 C   0  0  0  0  0  0  0  0  0  0  0  0
    2.6172   -2.5449   -0.0001 H   0  0  0  0  0  0  0  0  0  0  0  0
  1 18  1  0  0  0  0
  2  1  1  0  0  0  0
  3 14  1  0  0  0  0
  3  6  1  0  0  0  0
  5 29  1  0  0  0  0
  5 22  1  0  0  0  0
  6  8  1  0  0  0  0
  7  6  1  0  0  0  0
  8 10  2  0  0  0  0
  8  9  1  0  0  0  0
 10 11  1  0  0  0  0
 12 13  1  0  0  0  0
 12 10  1  0  0  0  0
 14 12  2  0  0  0  0
 15 14  1  0  0  0  0
 15  4  1  0  0  0  0
 16 15  2  0  0  0  0
 17 16  1  0  0  0  0
 18 16  1  0  0  0  0
 18 19  2  0  0  0  0
 19 21  1  0  0  0  0
 20 19  1  0  0  0  0
 21 22  2  0  0  0  0
 21  4  1  0  0  0  0
 22 23  1  0  0  0  0
 23 25  2  0  0  0  0
 23 24  1  0  0  0  0
 25 26  1  0  0  0  0
 27 28  1  0  0  0  0
 27 25  1  0  0  0  0
 29 27  2  0  0  0  0
 30 29  1  0  0  0  0
M  END
