4,5,6
q = 0.0, confidence = 0.946

 44 46  0  0  1  0  0  0  0  0999 V2000
    1.8996   -1.3757    0.0003 S   0  0  0  0  0  0  0  0  0  0  0  0
    1.6714   -2.0222    1.3022 O   0  0  0  0  0  0  0  0  0  0  0  0
    1.6714   -2.0230   -1.3012 O   0  0  0  0  0  0  0  0  0  0  0  0
   -1.5791    0.9102   -1.4179 N   0  0  0  0  0  2  0  0  0  0  0  0
    0.6607    0.0481   -0.0001 N   0  0  0  0  0  0  0  0  0  0  0  0
   -1.5791    0.9105    1.4176 N   0  0  0  0  0  2  0  0  0  0  0  0
   -2.7338    1.4399   -1.8899 C   0  0  0  0  0  3  0  0  0  0  0  0
   -3.6549    0.8877   -1.6549 H   0  0  0  0  0  0  0  0  0  0  0  0
   -2.7646    2.6203   -2.6364 C   0  0  0  0  0  0  0  0  0  0  0  0
   -3.7266    3.0049   -3.0028 H   0  0  0  0  0  0  0  0  0  0  0  0
   -1.5606    3.2913   -2.8946 C   0  0  0  0  0  0  0  0  0  0  0  0
   -1.5511    4.2287   -3.4700 H   0  0  0  0  0  0  0  0  0  0  0  0
   -0.3661    2.7444   -2.4078 C   0  0  0  0  0  0  0  0  0  0  0  0
    0.5997    3.2355   -2.5950 H   0  0  0  0  0  0  0  0  0  0  0  0
   -0.4067    1.5449   -1.6841 C   0  0  0  0  0  0  0  0  0  0  0  0
    0.8463    0.8318   -1.2475 C   0  0  0  0  0  0  0  0  0  0  0  0
    1.6970    1.5395   -1.1556 H   0  0  0  0  0  0  0  0  0  0  0  0
    1.0971    0.0951   -2.0417 H   0  0  0  0  0  0  0  0  0  0  0  0
    0.8463    0.8327    1.2468 C   0  0  0  0  0  0  0  0  0  0  0  0
    1.0976    0.0964    2.0414 H   0  0  0  0  0  0  0  0  0  0  0  0
    1.6966    1.5406    1.1542 H   0  0  0  0  0  0  0  0  0  0  0  0
   -0.4068    1.5455    1.6834 C   0  0  2  0  0  3  0  0  0  0  0  0
   -0.3663    2.7451    2.4069 C   0  0  0  0  0  0  0  0  0  0  0  0
    0.5994    3.2365    2.5938 H   0  0  0  0  0  0  0  0  0  0  0  0
   -1.5609    3.2919    2.8940 C   0  0  0  0  0  0  0  0  0  0  0  0
   -1.5514    4.2293    3.4692 H   0  0  0  0  0  0  0  0  0  0  0  0
   -2.7648    2.6205    2.6361 C   0  0  0  0  0  0  0  0  0  0  0  0
   -3.7267    3.0050    3.0027 H   0  0  0  0  0  0  0  0  0  0  0  0
   -2.7339    1.4400    1.8898 C   0  0  0  0  0  0  0  0  0  0  0  0
   -3.6549    0.8876    1.6550 H   0  0  0  0  0  0  0  0  0  0  0  0
    3.4856   -0.5738    0.0001 C   0  0  0  0  0  0  0  0  0  0  0  0
    4.1069   -0.2824    1.2284 C   0  0  0  0  0  0  0  0  0  0  0  0
    3.6279   -0.5692    2.1752 H   0  0  0  0  0  0  0  0  0  0  0  0
    5.3594    0.3398    1.2137 C   0  0  0  0  0  0  0  0  0  0  0  0
    5.8578    0.5652    2.1689 H   0  0  0  0  0  0  0  0  0  0  0  0
    6.0072    0.6633   -0.0005 C   0  0  0  0  0  0  0  0  0  0  0  0
    5.3597    0.3384   -1.2142 C   0  0  0  0  0  0  0  0  0  0  0  0
    5.8583    0.5628   -2.1695 H   0  0  0  0  0  0  0  0  0  0  0  0
    4.1071   -0.2838   -1.2284 C   0  0  0  0  0  0  0  0  0  0  0  0
    3.6282   -0.5717   -2.1750 H   0  0  0  0  0  0  0  0  0  0  0  0
    7.3727    1.2909    0.0002 C   0  0  0  0  0  0  0  0  0  0  0  0
    7.5302    1.9321    0.8887 H   0  0  0  0  0  0  0  0  0  0  0  0
    7.5496    1.8936   -0.9111 H   0  0  0  0  0  0  0  0  0  0  0  0
    8.1550    0.5018    0.0264 H   0  0  0  0  0  0  0  0  0  0  0  0
  1  2  2  0  0  0  0
  3  1  2  0  0  0  0
  5  1  1  0  0  0  0
  5 19  1  0  0  0  0
  6 22  1  0  0  0  0
  6 29  1  0  0  0  0
  7  8  1  0  0  0  0
  7  4  1  0  0  0  0
  9  7  1  0  0  0  0
 10  9  1  0  0  0  0
 11  9  2  0  0  0  0
 11 13  1  0  0  0  0
 12 11  1  0  0  0  0
 13 15  2  0  0  0  0
 14 13  1  0  0  0  0
 15  4  1  0  0  0  0
 15 16  1  0  0  0  0
 16 17  1  0  0  0  0
 16  5  1  0  0  0  0
 18 16  1  0  0  0  0
 19 20  1  0  0  0  0
 21 19  1  0  0  0  0
 22 19  1  1  0  0  0
 22 23  1  0  0  0  0
 23 24  1  0  0  0  0
 23 25  2  0  0  0  0
 25 26  1  0  0  0  0
 27 25  1  0  0  0  0
 27 28  1  0  0  0  0
 29 27  2  0  0  0  0
 30 29  1  0  0  0  0
 31  1  1  0  0  0  0
 31 32  1  0  0  0  0
 32 33  1  0  0  0  0
 34 32  2  0  0  0  0
 34 35  1  0  0  0  0
 36 41  1  0  0  0  0
 36 34  1  0  0  0  0
 37 36  2  0  0  0  0
 38 37  1  0  0  0  0
 39 37  1  0  0  0  0
 39 31  2  0  0  0  0
 40 39  1  0  0  0  0
 41 44  1  0  0  0  0
 41 42  1  0  0  0  0
 43 41  1  0  0  0  0
M  END
