1,2,3
q = -1.0

 56 57  0  0  1  0  0  0  0  0999 V2000
   -1.9301    0.7743    0.8612 N   0  0  0  0  0  2  0  0  0  0  0  0
   -0.5893    2.5679   -0.5935 N   0  0  0  0  0  2  0  0  0  0  0  0
    1.7578    0.8037   -0.1051 N   0  0  0  0  0  2  0  0  0  0  0  0
   -2.5087   -0.2297    1.5547 C   0  0  0  0  0  3  0  0  0  0  0  0
   -1.8494   -1.0515    1.8668 H   0  0  0  0  0  0  0  0  0  0  0  0
   -3.8724   -0.2364    1.8606 C   0  0  0  0  0  0  0  0  0  0  0  0
   -4.3091   -1.0883    2.3985 H   0  0  0  0  0  0  0  0  0  0  0  0
   -4.6530    0.8487    1.4360 C   0  0  0  0  0  0  0  0  0  0  0  0
   -5.7328    0.8757    1.6465 H   0  0  0  0  0  0  0  0  0  0  0  0
   -4.0455    1.8961    0.7330 C   0  0  0  0  0  0  0  0  0  0  0  0
   -4.6298    2.7617    0.3856 H   0  0  0  0  0  0  0  0  0  0  0  0
   -2.6709    1.8242    0.4499 C   0  0  0  0  0  0  0  0  0  0  0  0
   -1.9638    2.9178   -0.3464 C   0  0  0  0  0  0  0  0  0  0  0  0
   -2.5427    3.0738   -1.2906 H   0  0  0  0  0  0  0  0  0  0  0  0
   -2.0731    3.8686    0.2262 H   0  0  0  0  0  0  0  0  0  0  0  0
    0.3708    3.4828   -0.7459 C   0  0  0  0  0  0  0  0  0  0  0  0
    1.7532    3.1662   -0.7199 C   0  0  0  0  0  0  0  0  0  0  0  0
    2.4295    4.0101   -0.9092 H   0  0  0  0  0  0  0  0  0  0  0  0
    2.3975    1.9558   -0.3496 C   0  0  1  0  0  3  0  0  0  0  0  0
    2.4304   -0.3615    0.3593 C   0  0  0  0  0  0  0  0  0  0  0  0
    2.2879   -0.7149    1.7330 C   0  0  0  0  0  0  0  0  0  0  0  0
    2.8981   -1.8957    2.1919 C   0  0  0  0  0  0  0  0  0  0  0  0
    2.8040   -2.1781    3.2507 H   0  0  0  0  0  0  0  0  0  0  0  0
    3.6149   -2.7243    1.3189 C   0  0  0  0  0  0  0  0  0  0  0  0
    4.0858   -3.6457    1.6939 H   0  0  0  0  0  0  0  0  0  0  0  0
    3.7106   -2.3866   -0.0357 C   0  0  0  0  0  0  0  0  0  0  0  0
    4.2470   -3.0576   -0.7242 H   0  0  0  0  0  0  0  0  0  0  0  0
    3.1209   -1.2138   -0.5443 C   0  0  0  0  0  0  0  0  0  0  0  0
   -0.0071    4.9403   -0.9129 C   0  0  0  0  0  0  0  0  0  0  0  0
   -0.7646    5.0706   -1.7130 H   0  0  0  0  0  0  0  0  0  0  0  0
    0.8739    5.5608   -1.1567 H   0  0  0  0  0  0  0  0  0  0  0  0
   -0.4528    5.3447    0.0214 H   0  0  0  0  0  0  0  0  0  0  0  0
    3.9062    1.9936   -0.2193 C   0  0  0  0  0  0  0  0  0  0  0  0
    4.2834    3.0317   -0.1960 H   0  0  0  0  0  0  0  0  0  0  0  0
    4.3833    1.4706   -1.0734 H   0  0  0  0  0  0  0  0  0  0  0  0
    4.2397    1.4631    0.6943 H   0  0  0  0  0  0  0  0  0  0  0  0
    1.4886    0.1787    2.6764 C   0  0  0  0  0  0  0  0  0  0  0  0
    0.7086    0.6776    2.0599 H   0  0  0  0  0  0  0  0  0  0  0  0
    2.3623    1.3012    3.2648 C   0  0  0  0  0  0  0  0  0  0  0  0
    1.7671    1.9560    3.9347 H   0  0  0  0  0  0  0  0  0  0  0  0
    2.7955    1.9382    2.4698 H   0  0  0  0  0  0  0  0  0  0  0  0
    3.1997    0.8755    3.8561 H   0  0  0  0  0  0  0  0  0  0  0  0
    0.7678   -0.5967    3.7871 C   0  0  0  0  0  0  0  0  0  0  0  0
    1.4765   -1.0050    4.5371 H   0  0  0  0  0  0  0  0  0  0  0  0
    0.1861   -1.4478    3.3786 H   0  0  0  0  0  0  0  0  0  0  0  0
    0.0687    0.0706    4.3308 H   0  0  0  0  0  0  0  0  0  0  0  0
    3.1632   -0.9313   -2.0418 C   0  0  0  0  0  0  0  0  0  0  0  0
    2.7919    0.1018   -2.1971 H   0  0  0  0  0  0  0  0  0  0  0  0
    4.5853   -1.0122   -2.6192 C   0  0  0  0  0  0  0  0  0  0  0  0
    5.2932   -0.3537   -2.0749 H   0  0  0  0  0  0  0  0  0  0  0  0
    4.5881   -0.7120   -3.6869 H   0  0  0  0  0  0  0  0  0  0  0  0
    4.9892   -2.0447   -2.5700 H   0  0  0  0  0  0  0  0  0  0  0  0
    2.1967   -1.8708   -2.7878 C   0  0  0  0  0  0  0  0  0  0  0  0
    2.5002   -2.9311   -2.6571 H   0  0  0  0  0  0  0  0  0  0  0  0
    2.2020   -1.6504   -3.8758 H   0  0  0  0  0  0  0  0  0  0  0  0
    1.1614   -1.7523   -2.4088 H   0  0  0  0  0  0  0  0  0  0  0  0
  1  4  1  0  0  0  0
  2 13  1  0  0  0  0
  3 20  1  0  0  0  0
  4  6  1  0  0  0  0
  4  5  1  0  0  0  0
  6  7  1  0  0  0  0
  8  9  1  0  0  0  0
  8  6  2  0  0  0  0
 10  8  1  0  0  0  0
 11 10  1  0  0  0  0
 12 10  2  0  0  0  0
 12  1  1  0  0  0  0
 13 15  1  0  0  0  0
 13 12  1  0  0  0  0
 14 13  1  0  0  0  0
 16 17  2  0  0  0  0
 16  2  1  0  0  0  0
 18 17  1  0  0  0  0
 19 17  1  1  0  0  0
 19 33  1  0  0  0  0
 19  3  1  0  0  0  0
 20 21  1  0  0  0  0
 21 22  2  0  0  0  0
 21 37  1  0  0  0  0
 22 23  1  0  0  0  0
 24 25  1  0  0  0  0
 24 22  1  0  0  0  0
 26 24  2  0  0  0  0
 27 26  1  0  0  0  0
 28 26  1  0  0  0  0
 28 20  2  0  0  0  0
 29 16  1  0  0  0  0
 29 32  1  0  0  0  0
 30 29  1  0  0  0  0
 31 29  1  0  0  0  0
 33 34  1  0  0  0  0
 33 36  1  0  0  0  0
 35 33  1  0  0  0  0
 37 39  1  0  0  0  0
 37 43  1  0  0  0  0
 38 37  1  0  0  0  0
 39 42  1  0  0  0  0
 39 40  1  0  0  0  0
 41 39  1  0  0  0  0
 43 46  1  0  0  0  0
 43 44  1  0  0  0  0
 45 43  1  0  0  0  0
 47 28  1  0  0  0  0
 48 47  1  0  0  0  0
 49 52  1  0  0  0  0
 49 50  1  0  0  0  0
 49 47  1  0  0  0  0
 51 49  1  0  0  0  0
 53 54  1  0  0  0  0
 53 56  1  0  0  0  0
 53 47  1  0  0  0  0
 55 53  1  0  0  0  0
M  END
