3,5,7
q = 0.0, confidence = 0.996

 61 64  0  0  0  0  0  0  0  0999 V2000
   -2.6294   -1.6404   -0.8200 O   0  0  0  0  0  0  0  0  0  0  0  0
    2.7474   -1.8708   -0.0330 O   0  0  0  0  0  0  0  0  0  0  0  0
    1.6438    0.6756   -0.4633 N   0  0  0  0  0  0  0  0  0  0  0  0
    1.3683   -0.3100   -0.3310 H   0  0  0  0  0  0  0  0  0  0  0  0
    0.0630    2.7717   -1.6069 N   0  0  0  0  0  0  0  0  0  0  0  0
   -0.0045    3.7639   -1.3602 H   0  0  0  0  0  0  0  0  0  0  0  0
   -1.8382    1.0554   -0.3879 N   0  0  0  0  0  0  0  0  0  0  0  0
   -1.5812    0.1681   -0.8518 H   0  0  0  0  0  0  0  0  0  0  0  0
    0.0539   -3.2833   -0.6073 N   0  0  0  0  0  0  0  0  0  0  0  0
    1.7169    0.9796   -1.8997 C   0  0  0  0  0  0  0  0  0  0  0  0
    0.9942    0.3189   -2.4229 H   0  0  0  0  0  0  0  0  0  0  0  0
    2.7185    0.7430   -2.3225 H   0  0  0  0  0  0  0  0  0  0  0  0
    1.3739    2.4499   -2.1684 C   0  0  0  0  0  0  0  0  0  0  0  0
    2.1127    3.0998   -1.6580 H   0  0  0  0  0  0  0  0  0  0  0  0
    1.4471    2.6571   -3.2624 H   0  0  0  0  0  0  0  0  0  0  0  0
   -1.1164    2.3297   -2.3519 C   0  0  0  0  0  0  0  0  0  0  0  0
   -0.8569    1.3950   -2.8940 H   0  0  0  0  0  0  0  0  0  0  0  0
   -1.4401    3.0598   -3.1292 H   0  0  0  0  0  0  0  0  0  0  0  0
   -2.2677    2.0423   -1.3902 C   0  0  0  0  0  0  0  0  0  0  0  0
   -2.5439    2.9695   -0.8445 H   0  0  0  0  0  0  0  0  0  0  0  0
   -3.1632    1.7031   -1.9577 H   0  0  0  0  0  0  0  0  0  0  0  0
   -2.8931    0.6909    0.5869 C   0  0  0  0  0  0  0  0  0  0  0  0
   -3.1870    1.6044    1.1403 H   0  0  0  0  0  0  0  0  0  0  0  0
   -2.4161   -0.0114    1.2988 H   0  0  0  0  0  0  0  0  0  0  0  0
   -4.0954    0.0338   -0.0561 C   0  0  0  0  0  0  0  0  0  0  0  0
   -5.3860    0.5789    0.0166 C   0  0  0  0  0  0  0  0  0  0  0  0
   -5.5276    1.5236    0.5655 H   0  0  0  0  0  0  0  0  0  0  0  0
   -6.4872   -0.0601   -0.5791 C   0  0  0  0  0  0  0  0  0  0  0  0
   -7.4912    0.3819   -0.5018 H   0  0  0  0  0  0  0  0  0  0  0  0
   -6.2927   -1.2607   -1.2746 C   0  0  0  0  0  0  0  0  0  0  0  0
   -7.1436   -1.7660   -1.7563 H   0  0  0  0  0  0  0  0  0  0  0  0
   -5.0105   -1.8267   -1.3779 C   0  0  0  0  0  0  0  0  0  0  0  0
   -4.8652   -2.7557   -1.9469 H   0  0  0  0  0  0  0  0  0  0  0  0
   -3.9189   -1.1875   -0.7640 C   0  0  0  0  0  0  0  0  0  0  0  0
   -2.3235   -3.0216   -1.0786 C   0  0  0  0  0  0  0  0  0  0  0  0
   -2.0007   -3.1388   -2.1342 H   0  0  0  0  0  0  0  0  0  0  0  0
   -3.2205   -3.6468   -0.8921 H   0  0  0  0  0  0  0  0  0  0  0  0
   -1.1999   -3.4113   -0.1452 C   0  0  0  0  0  0  0  0  0  0  0  0
   -1.4931   -3.7929    1.1786 C   0  0  0  0  0  0  0  0  0  0  0  0
   -2.5392   -3.8793    1.5094 H   0  0  0  0  0  0  0  0  0  0  0  0
   -0.4374   -4.0252    2.0629 C   0  0  0  0  0  0  0  0  0  0  0  0
   -0.6274   -4.2959    3.1115 H   0  0  0  0  0  0  0  0  0  0  0  0
    0.8716   -3.8753    1.5912 C   0  0  0  0  0  0  0  0  0  0  0  0
    1.7330   -4.0147    2.2599 H   0  0  0  0  0  0  0  0  0  0  0  0
    1.0682   -3.5093    0.2496 C   0  0  0  0  0  0  0  0  0  0  0  0
    2.4606   -3.2536   -0.2738 C   0  0  0  0  0  0  0  0  0  0  0  0
    3.2069   -3.8904    0.2503 H   0  0  0  0  0  0  0  0  0  0  0  0
    2.4993   -3.4650   -1.3645 H   0  0  0  0  0  0  0  0  0  0  0  0
    3.9444   -1.3450   -0.4290 C   0  0  0  0  0  0  0  0  0  0  0  0
    4.9982   -2.1017   -0.9724 C   0  0  0  0  0  0  0  0  0  0  0  0
    4.8966   -3.1866   -1.1082 H   0  0  0  0  0  0  0  0  0  0  0  0
    6.1954   -1.4625   -1.3377 C   0  0  0  0  0  0  0  0  0  0  0  0
    7.0175   -2.0620   -1.7574 H   0  0  0  0  0  0  0  0  0  0  0  0
    6.3431   -0.0796   -1.1747 C   0  0  0  0  0  0  0  0  0  0  0  0
    7.2803    0.4190   -1.4615 H   0  0  0  0  0  0  0  0  0  0  0  0
    5.2762    0.6686   -0.6472 C   0  0  0  0  0  0  0  0  0  0  0  0
    5.3760    1.7590   -0.5241 H   0  0  0  0  0  0  0  0  0  0  0  0
    4.0697    0.0625   -0.2663 C   0  0  0  0  0  0  0  0  0  0  0  0
    2.9127    0.8669    0.2840 C   0  0  0  0  0  0  0  0  0  0  0  0
    2.6974    0.5940    1.3372 H   0  0  0  0  0  0  0  0  0  0  0  0
    3.1628    1.9460    0.2961 H   0  0  0  0  0  0  0  0  0  0  0  0
  1 34  1  0  0  0  0
  3  4  1  0  0  0  0
  3 59  1  0  0  0  0
  5  6  1  0  0  0  0
  7 22  1  0  0  0  0
  8  7  1  0  0  0  0
  9 38  2  0  0  0  0
  9 45  1  0  0  0  0
 10  3  1  0  0  0  0
 11 10  1  0  0  0  0
 12 10  1  0  0  0  0
 13 10  1  0  0  0  0
 13 14  1  0  0  0  0
 13  5  1  0  0  0  0
 15 13  1  0  0  0  0
 16  5  1  0  0  0  0
 16 19  1  0  0  0  0
 17 16  1  0  0  0  0
 18 16  1  0  0  0  0
 19 20  1  0  0  0  0
 19  7  1  0  0  0  0
 21 19  1  0  0  0  0
 22 23  1  0  0  0  0
 22 24  1  0  0  0  0
 25 26  1  0  0  0  0
 25 22  1  0  0  0  0
 26 27  1  0  0  0  0
 28 29  1  0  0  0  0
 28 26  2  0  0  0  0
 30 28  1  0  0  0  0
 31 30  1  0  0  0  0
 32 30  2  0  0  0  0
 32 34  1  0  0  0  0
 33 32  1  0  0  0  0
 34 25  2  0  0  0  0
 35 37  1  0  0  0  0
 35  1  1  0  0  0  0
 35 38  1  0  0  0  0
 36 35  1  0  0  0  0
 38 39  1  0  0  0  0
 39 40  1  0  0  0  0
 39 41  2  0  0  0  0
 41 42  1  0  0  0  0
 43 41  1  0  0  0  0
 43 44  1  0  0  0  0
 45 43  2  0  0  0  0
 46  2  1  0  0  0  0
 46 45  1  0  0  0  0
 46 47  1  0  0  0  0
 48 46  1  0  0  0  0
 49 58  1  0  0  0  0
 49  2  1  0  0  0  0
 50 49  2  0  0  0  0
 51 50  1  0  0  0  0
 52 54  2  0  0  0  0
 52 50  1  0  0  0  0
 53 52  1  0  0  0  0
 54 56  1  0  0  0  0
 55 54  1  0  0  0  0
 56 57  1  0  0  0  0
 56 58  2  0  0  0  0
 58 59  1  0  0  0  0
 59 61  1  0  0  0  0
 59 60  1  0  0  0  0
M  END
