1,9,17
q = 0.0, confidence = 0.992

 40 41  0  0  0  0  0  0  0  0999 V2000
    2.6017    1.4014   -0.9673 N   0  0  0  0  0  0  0  0  0  0  0  0
    3.3021    1.3360   -1.7191 H   0  0  0  0  0  0  0  0  0  0  0  0
    3.0663    2.3536    0.0799 C   0  0  0  0  0  0  0  0  0  0  0  0
    2.2221    3.0210    0.3410 H   0  0  0  0  0  0  0  0  0  0  0  0
    3.8671    3.0083   -0.3171 H   0  0  0  0  0  0  0  0  0  0  0  0
    3.5726    1.6122    1.3211 C   0  0  0  0  0  0  0  0  0  0  0  0
    4.5728    1.1783    1.1326 H   0  0  0  0  0  0  0  0  0  0  0  0
    3.6542    2.3137    2.1785 H   0  0  0  0  0  0  0  0  0  0  0  0
    2.6657    0.4830    1.6265 N   0  0  0  0  0  0  0  0  0  0  0  0
    3.1463   -0.1777    2.2535 H   0  0  0  0  0  0  0  0  0  0  0  0
    1.3475    0.8628    2.2037 C   0  0  0  0  0  0  0  0  0  0  0  0
    1.2128    1.9537    2.0720 H   0  0  0  0  0  0  0  0  0  0  0  0
    1.3373    0.6835    3.2975 H   0  0  0  0  0  0  0  0  0  0  0  0
    0.2019    0.0878    1.5552 C   0  0  0  0  0  0  0  0  0  0  0  0
   -0.7701    0.5345    1.8543 H   0  0  0  0  0  0  0  0  0  0  0  0
    0.2118   -0.9645    1.8981 H   0  0  0  0  0  0  0  0  0  0  0  0
    0.3424    0.0578    0.0763 N   0  0  0  0  0  0  0  0  0  0  0  0
    0.1857    1.4143   -0.5288 C   0  0  0  0  0  0  0  0  0  0  0  0
   -0.8150    1.5095   -0.9948 H   0  0  0  0  0  0  0  0  0  0  0  0
    0.2053    2.1700    0.2789 H   0  0  0  0  0  0  0  0  0  0  0  0
    1.2761    1.7098   -1.5525 C   0  0  0  0  0  0  0  0  0  0  0  0
    1.1612    1.0685   -2.4473 H   0  0  0  0  0  0  0  0  0  0  0  0
    1.2132    2.7705   -1.8771 H   0  0  0  0  0  0  0  0  0  0  0  0
   -0.5952   -0.9584   -0.5538 C   0  0  0  0  0  0  0  0  0  0  0  0
   -0.3332   -0.9953   -1.6277 H   0  0  0  0  0  0  0  0  0  0  0  0
   -0.3187   -1.9380   -0.1181 H   0  0  0  0  0  0  0  0  0  0  0  0
   -2.0631   -0.6657   -0.3627 C   0  0  0  0  0  0  0  0  0  0  0  0
   -2.7379   -1.0656    0.8122 C   0  0  0  0  0  0  0  0  0  0  0  0
   -2.2036   -1.6403    1.5845 H   0  0  0  0  0  0  0  0  0  0  0  0
   -4.0921   -0.7683    0.9920 C   0  0  0  0  0  0  0  0  0  0  0  0
   -4.6346   -1.0756    1.8983 H   0  0  0  0  0  0  0  0  0  0  0  0
   -4.8029   -0.0738   -0.0058 C   0  0  0  0  0  0  0  0  0  0  0  0
   -4.1506    0.3040   -1.1943 C   0  0  0  0  0  0  0  0  0  0  0  0
   -4.7170    0.8197   -1.9820 H   0  0  0  0  0  0  0  0  0  0  0  0
   -2.7924    0.0066   -1.3676 C   0  0  0  0  0  0  0  0  0  0  0  0
   -2.2980    0.2734   -2.3159 H   0  0  0  0  0  0  0  0  0  0  0  0
   -6.2528    0.2171    0.2462 C   0  0  0  0  0  0  0  0  0  0  0  0
   -6.8374   -0.0879    1.2688 O   0  0  0  0  0  0  0  0  0  0  0  0
   -6.8372    0.8598   -0.7908 O   0  0  0  0  0  0  0  0  0  0  0  0
   -7.7753    0.9971   -0.5342 H   0  0  0  0  0  0  0  0  0  0  0  0
  1  3  1  0  0  0  0
  2  1  1  0  0  0  0
  3  4  1  0  0  0  0
  3  6  1  0  0  0  0
  5  3  1  0  0  0  0
  6  9  1  0  0  0  0
  6  8  1  0  0  0  0
  7  6  1  0  0  0  0
  9 11  1  0  0  0  0
  9 10  1  0  0  0  0
 11 13  1  0  0  0  0
 12 11  1  0  0  0  0
 14 15  1  0  0  0  0
 14 16  1  0  0  0  0
 14 11  1  0  0  0  0
 17 14  1  0  0  0  0
 18 17  1  0  0  0  0
 18 20  1  0  0  0  0
 19 18  1  0  0  0  0
 21  1  1  0  0  0  0
 21 18  1  0  0  0  0
 22 21  1  0  0  0  0
 23 21  1  0  0  0  0
 24 27  1  0  0  0  0
 24 26  1  0  0  0  0
 24 17  1  0  0  0  0
 25 24  1  0  0  0  0
 27 28  1  0  0  0  0
 28 30  2  0  0  0  0
 28 29  1  0  0  0  0
 30 31  1  0  0  0  0
 32 37  1  0  0  0  0
 32 30  1  0  0  0  0
 33 32  2  0  0  0  0
 34 33  1  0  0  0  0
 35 33  1  0  0  0  0
 35 27  2  0  0  0  0
 36 35  1  0  0  0  0
 37 38  2  0  0  0  0
 39 40  1  0  0  0  0
 39 37  1  0  0  0  0
M  END
