1,2,3
q = -1.0, confidence = 0.004

 51 54  0  0  1  0  0  0  0  0999 V2000
   -1.8547    0.9038   -0.1450 N   0  0  0  0  0  2  0  0  0  0  0  0
    0.3840    2.3174   -0.0430 N   0  0  0  0  0  2  0  0  0  0  0  0
    2.0787    0.2847   -0.2346 N   0  0  0  0  0  2  0  0  0  0  0  0
   -2.9119    0.0922   -0.1547 C   0  0  0  0  0  0  0  0  0  0  0  0
   -4.2378    0.5781   -0.0149 C   0  0  0  0  0  0  0  0  0  0  0  0
   -4.4097    1.9535    0.1031 C   0  0  0  0  0  0  0  0  0  0  0  0
   -3.2955    2.8456    0.1071 C   0  0  0  0  0  0  0  0  0  0  0  0
   -3.3985    4.2596    0.2283 C   0  0  0  0  0  0  0  0  0  0  0  0
   -2.2382    5.0263    0.2377 C   0  0  0  0  0  0  0  0  0  0  0  0
   -0.9466    4.4558    0.1455 C   0  0  0  0  0  0  0  0  0  0  0  0
   -0.7815    3.0616    0.0344 C   0  0  0  0  0  0  0  0  0  0  0  0
   -1.9936    2.2690   -0.0045 C   0  0  1  0  0  3  0  0  0  0  0  0
    2.8416   -0.8071   -0.3001 C   0  0  0  0  0  0  0  0  0  0  0  0
    4.2588   -0.7497   -0.2046 C   0  0  0  0  0  0  0  0  0  0  0  0
    4.8419    0.5057   -0.0682 C   0  0  0  0  0  0  0  0  0  0  0  0
    4.0486    1.6906   -0.0018 C   0  0  0  0  0  0  0  0  0  0  0  0
    4.5825    3.0001    0.1537 C   0  0  0  0  0  0  0  0  0  0  0  0
    3.7134    4.0824    0.2406 C   0  0  0  0  0  0  0  0  0  0  0  0
    2.3078    3.9358    0.1806 C   0  0  0  0  0  0  0  0  0  0  0  0
    1.7225    2.6647    0.0203 C   0  0  0  0  0  0  0  0  0  0  0  0
    2.6311    1.5408   -0.0777 C   0  0  2  0  0  3  0  0  0  0  0  0
   -5.3820   -0.4185    0.0339 C   0  0  0  0  0  0  0  0  0  0  0  0
   -5.2717   -1.2987    1.2935 C   0  0  0  0  0  0  0  0  0  0  0  0
   -5.4453   -1.2760   -1.2421 C   0  0  0  0  0  0  0  0  0  0  0  0
    5.0208   -2.0655   -0.2126 C   0  0  0  0  0  0  0  0  0  0  0  0
    4.6848   -2.8756    1.0570 C   0  0  0  0  0  0  0  0  0  0  0  0
    6.5320   -1.9013   -0.3889 C   0  0  0  0  0  0  0  0  0  0  0  0
   -2.6862   -0.9773   -0.2540 H   0  0  0  0  0  0  0  0  0  0  0  0
   -5.4235    2.3732    0.2066 H   0  0  0  0  0  0  0  0  0  0  0  0
   -4.3908    4.7254    0.3130 H   0  0  0  0  0  0  0  0  0  0  0  0
   -2.3145    6.1209    0.3246 H   0  0  0  0  0  0  0  0  0  0  0  0
   -0.0826    5.1260    0.1582 H   0  0  0  0  0  0  0  0  0  0  0  0
    2.3040   -1.7616   -0.4028 H   0  0  0  0  0  0  0  0  0  0  0  0
    5.9348    0.6099    0.0012 H   0  0  0  0  0  0  0  0  0  0  0  0
    5.6719    3.1371    0.2111 H   0  0  0  0  0  0  0  0  0  0  0  0
    4.1228    5.0963    0.3669 H   0  0  0  0  0  0  0  0  0  0  0  0
    1.6892    4.8328    0.2714 H   0  0  0  0  0  0  0  0  0  0  0  0
   -6.3217    0.1719    0.1009 H   0  0  0  0  0  0  0  0  0  0  0  0
   -4.3289   -1.8843    1.2931 H   0  0  0  0  0  0  0  0  0  0  0  0
   -6.1178   -2.0138    1.3435 H   0  0  0  0  0  0  0  0  0  0  0  0
   -5.2815   -0.6855    2.2164 H   0  0  0  0  0  0  0  0  0  0  0  0
   -5.5103   -0.6487   -2.1534 H   0  0  0  0  0  0  0  0  0  0  0  0
   -6.3324   -1.9407   -1.2164 H   0  0  0  0  0  0  0  0  0  0  0  0
   -4.5508   -1.9256   -1.3357 H   0  0  0  0  0  0  0  0  0  0  0  0
    4.6350   -2.6423   -1.0839 H   0  0  0  0  0  0  0  0  0  0  0  0
    5.1787   -3.8678    1.0239 H   0  0  0  0  0  0  0  0  0  0  0  0
    3.5943   -3.0387    1.1707 H   0  0  0  0  0  0  0  0  0  0  0  0
    5.0450   -2.3428    1.9614 H   0  0  0  0  0  0  0  0  0  0  0  0
    6.9874   -1.3831    0.4809 H   0  0  0  0  0  0  0  0  0  0  0  0
    6.7848   -1.3258   -1.3022 H   0  0  0  0  0  0  0  0  0  0  0  0
    7.0185   -2.8934   -0.4673 H   0  0  0  0  0  0  0  0  0  0  0  0
  2 20  1  0  0  0  0
  2 11  1  0  0  0  0
  4  1  1  0  0  0  0
  4  5  2  0  0  0  0
  5 22  1  0  0  0  0
  5  6  1  0  0  0  0
  6  7  2  0  0  0  0
  6 29  1  0  0  0  0
  7  8  1  0  0  0  0
  8  9  2  0  0  0  0
  8 30  1  0  0  0  0
  9 31  1  0  0  0  0
 10 32  1  0  0  0  0
 10  9  1  0  0  0  0
 11 10  2  0  0  0  0
 12  1  1  1  0  0  0
 12 11  1  0  0  0  0
 12  7  1  0  0  0  0
 13  3  1  0  0  0  0
 13 14  2  0  0  0  0
 14 15  1  0  0  0  0
 15 16  2  0  0  0  0
 15 34  1  0  0  0  0
 16 17  1  0  0  0  0
 17 35  1  0  0  0  0
 17 18  2  0  0  0  0
 18 36  1  0  0  0  0
 19 18  1  0  0  0  0
 19 37  1  0  0  0  0
 20 19  2  0  0  0  0
 21  3  1  1  0  0  0
 21 16  1  0  0  0  0
 21 20  1  0  0  0  0
 22 38  1  0  0  0  0
 22 23  1  0  0  0  0
 23 40  1  0  0  0  0
 23 41  1  0  0  0  0
 24 43  1  0  0  0  0
 24 22  1  0  0  0  0
 25 14  1  0  0  0  0
 25 26  1  0  0  0  0
 26 47  1  0  0  0  0
 26 48  1  0  0  0  0
 27 25  1  0  0  0  0
 27 49  1  0  0  0  0
 28  4  1  0  0  0  0
 33 13  1  0  0  0  0
 39 23  1  0  0  0  0
 42 24  1  0  0  0  0
 44 24  1  0  0  0  0
 45 25  1  0  0  0  0
 46 26  1  0  0  0  0
 50 27  1  0  0  0  0
 51 27  1  0  0  0  0
M  END
