1,2,3
q = 0.0, confidence = 1.0

 38 39  0  0  1  0  0  0  0  0999 V2000
    0.1959    1.8165    0.0295 N   0  0  0  0  0  2  0  0  0  0  0  0
   -0.3641   -0.7126   -0.4323 N   0  0  0  0  0  2  0  0  0  0  0  0
    1.8893   -2.2419    0.2368 N   0  0  0  0  0  0  0  0  0  0  0  0
    0.5615    3.0793    0.2702 C   0  0  0  0  0  3  0  0  0  0  0  0
    1.6293    3.2351    0.4982 H   0  0  0  0  0  0  0  0  0  0  0  0
   -0.3581    4.1411    0.2311 C   0  0  0  0  0  0  0  0  0  0  0  0
   -0.0229    5.1684    0.4334 H   0  0  0  0  0  0  0  0  0  0  0  0
   -1.6994    3.8563   -0.0624 C   0  0  0  0  0  0  0  0  0  0  0  0
   -2.4492    4.6609   -0.0894 H   0  0  0  0  0  0  0  0  0  0  0  0
   -2.0785    2.5303   -0.3153 C   0  0  0  0  0  0  0  0  0  0  0  0
   -3.1203    2.2631   -0.5397 H   0  0  0  0  0  0  0  0  0  0  0  0
   -1.0904    1.5313   -0.2670 C   0  0  0  0  0  0  0  0  0  0  0  0
   -1.3743    0.0904   -0.5282 C   0  0  1  0  0  3  0  0  0  0  0  0
   -2.7448   -0.3494   -0.9166 C   0  0  0  0  0  0  0  0  0  0  0  0
   -3.2252   -0.0700   -2.2138 C   0  0  0  0  0  0  0  0  0  0  0  0
   -2.5961    0.4946   -2.9193 H   0  0  0  0  0  0  0  0  0  0  0  0
   -4.4962   -0.5179   -2.6040 C   0  0  0  0  0  0  0  0  0  0  0  0
   -4.8630   -0.3017   -3.6187 H   0  0  0  0  0  0  0  0  0  0  0  0
   -5.2964   -1.2363   -1.7018 C   0  0  0  0  0  0  0  0  0  0  0  0
   -6.2954   -1.5821   -2.0074 H   0  0  0  0  0  0  0  0  0  0  0  0
   -4.8233   -1.5073   -0.4075 C   0  0  0  0  0  0  0  0  0  0  0  0
   -5.4534   -2.0594    0.3060 H   0  0  0  0  0  0  0  0  0  0  0  0
   -3.5512   -1.0707   -0.0112 C   0  0  0  0  0  0  0  0  0  0  0  0
   -3.1797   -1.2479    1.0108 H   0  0  0  0  0  0  0  0  0  0  0  0
   -0.4410   -2.1431   -0.6330 C   0  0  0  0  0  0  0  0  0  0  0  0
   -1.0873   -2.4107   -1.4971 H   0  0  0  0  0  0  0  0  0  0  0  0
   -0.9130   -2.6093    0.2602 H   0  0  0  0  0  0  0  0  0  0  0  0
    0.9801   -2.6757   -0.8370 C   0  0  0  0  0  0  0  0  0  0  0  0
    0.9598   -3.7886   -0.9313 H   0  0  0  0  0  0  0  0  0  0  0  0
    1.3786   -2.2700   -1.7897 H   0  0  0  0  0  0  0  0  0  0  0  0
    1.6036   -2.9205    1.5087 C   0  0  0  0  0  0  0  0  0  0  0  0
    0.5641   -2.7292    1.8322 H   0  0  0  0  0  0  0  0  0  0  0  0
    2.2628   -2.5138    2.2976 H   0  0  0  0  0  0  0  0  0  0  0  0
    1.7665   -4.0219    1.4256 H   0  0  0  0  0  0  0  0  0  0  0  0
    3.2943   -2.4454   -0.1457 C   0  0  0  0  0  0  0  0  0  0  0  0
    3.5262   -3.5293   -0.2758 H   0  0  0  0  0  0  0  0  0  0  0  0
    3.9539   -2.0308    0.6393 H   0  0  0  0  0  0  0  0  0  0  0  0
    3.5227   -1.9110   -1.0865 H   0  0  0  0  0  0  0  0  0  0  0  0
  1  4  1  0  0  0  0
  3 31  1  0  0  0  0
  4  5  1  0  0  0  0
  6  4  1  0  0  0  0
  6  7  1  0  0  0  0
  8  6  2  0  0  0  0
  9  8  1  0  0  0  0
 10 12  2  0  0  0  0
 10  8  1  0  0  0  0
 11 10  1  0  0  0  0
 12  1  1  0  0  0  0
 13  2  1  6  0  0  0
 13 12  1  0  0  0  0
 14 13  1  0  0  0  0
 14 23  1  0  0  0  0
 15 14  2  0  0  0  0
 16 15  1  0  0  0  0
 17 15  1  0  0  0  0
 17 19  2  0  0  0  0
 18 17  1  0  0  0  0
 19 21  1  0  0  0  0
 20 19  1  0  0  0  0
 21 23  2  0  0  0  0
 21 22  1  0  0  0  0
 23 24  1  0  0  0  0
 25  2  1  0  0  0  0
 25 27  1  0  0  0  0
 26 25  1  0  0  0  0
 28 25  1  0  0  0  0
 28  3  1  0  0  0  0
 29 28  1  0  0  0  0
 30 28  1  0  0  0  0
 31 32  1  0  0  0  0
 31 33  1  0  0  0  0
 34 31  1  0  0  0  0
 35  3  1  0  0  0  0
 35 37  1  0  0  0  0
 36 35  1  0  0  0  0
 38 35  1  0  0  0  0
M  END
