7,10,11
q = 0.0, confidence = 0.902

 45 46  0  0  0  0  0  0  0  0999 V2000
   -9.3135   -1.0703    0.0014 F   0  0  0  0  0  0  0  0  0  0  0  0
   -7.7863   -2.1851   -1.0889 F   0  0  0  0  0  0  0  0  0  0  0  0
   -7.7863   -2.1823    1.0946 F   0  0  0  0  0  0  0  0  0  0  0  0
   -0.6703    1.5231   -0.0002 O   0  0  0  0  0  0  0  0  0  0  0  0
   -5.4117    2.0318   -0.0026 O   0  0  0  0  0  0  0  0  0  0  0  0
   -7.1942    3.4022   -0.0046 O   0  0  0  0  0  0  0  0  0  0  0  0
    3.8970    0.1485    2.0559 N   0  0  0  0  0  0  0  0  0  0  0  0
    4.0628   -0.7339    2.5666 H   0  0  0  0  0  0  0  0  0  0  0  0
    4.6828    0.7673    2.3173 H   0  0  0  0  0  0  0  0  0  0  0  0
    2.0350    0.7872   -0.0008 N   0  0  0  0  0  0  0  0  0  0  0  0
    3.8937    0.1372   -2.0568 N   0  0  0  0  0  0  0  0  0  0  0  0
    4.6796    0.7539   -2.3231 H   0  0  0  0  0  0  0  0  0  0  0  0
    4.0581   -0.7482   -2.5627 H   0  0  0  0  0  0  0  0  0  0  0  0
   -1.4231   -0.6602    0.0007 N   0  0  0  0  0  0  0  0  0  0  0  0
   -1.1029   -1.6322    0.0016 H   0  0  0  0  0  0  0  0  0  0  0  0
    2.5737    0.7606    2.4234 C   0  0  0  0  0  0  0  0  0  0  0  0
    2.6658    1.3871    3.3334 H   0  0  0  0  0  0  0  0  0  0  0  0
    1.8813   -0.0656    2.6768 H   0  0  0  0  0  0  0  0  0  0  0  0
    2.0308    1.6007    1.2673 C   0  0  0  0  0  0  0  0  0  0  0  0
    1.0114    1.9776    1.4842 H   0  0  0  0  0  0  0  0  0  0  0  0
    2.6870    2.4744    1.0862 H   0  0  0  0  0  0  0  0  0  0  0  0
    2.0294    1.5943   -1.2729 C   0  0  0  0  0  0  0  0  0  0  0  0
    2.6862    2.4686   -1.0972 H   0  0  0  0  0  0  0  0  0  0  0  0
    1.0099    1.9706   -1.4904 H   0  0  0  0  0  0  0  0  0  0  0  0
    2.5702    0.7482   -2.4256 C   0  0  0  0  0  0  0  0  0  0  0  0
    1.8771   -0.0789   -2.6741 H   0  0  0  0  0  0  0  0  0  0  0  0
    2.6616    1.3701   -3.3388 H   0  0  0  0  0  0  0  0  0  0  0  0
    0.9795   -0.2603    0.0025 C   0  0  0  0  0  0  0  0  0  0  0  0
    1.1314   -0.9112    0.8860 H   0  0  0  0  0  0  0  0  0  0  0  0
    1.1318   -0.9173   -0.8764 H   0  0  0  0  0  0  0  0  0  0  0  0
   -0.4608    0.3104    0.0007 C   0  0  0  0  0  0  0  0  0  0  0  0
   -2.8300   -0.5124    0.0006 C   0  0  0  0  0  0  0  0  0  0  0  0
   -3.6023   -1.7002    0.0021 C   0  0  0  0  0  0  0  0  0  0  0  0
   -3.1057   -2.6831    0.0034 H   0  0  0  0  0  0  0  0  0  0  0  0
   -4.9915   -1.6327    0.0020 C   0  0  0  0  0  0  0  0  0  0  0  0
   -5.5743   -2.5625    0.0032 H   0  0  0  0  0  0  0  0  0  0  0  0
   -5.6601   -0.3841    0.0005 C   0  0  0  0  0  0  0  0  0  0  0  0
   -7.0999   -0.2016    0.0003 C   0  0  0  0  0  0  0  0  0  0  0  0
   -7.6362    1.0534   -0.0014 C   0  0  0  0  0  0  0  0  0  0  0  0
   -8.7216    1.2171   -0.0016 H   0  0  0  0  0  0  0  0  0  0  0  0
   -6.8091    2.2595   -0.0029 C   0  0  0  0  0  0  0  0  0  0  0  0
   -4.8634    0.7935   -0.0010 C   0  0  0  0  0  0  0  0  0  0  0  0
   -3.4595    0.7407   -0.0009 C   0  0  0  0  0  0  0  0  0  0  0  0
   -2.8878    1.6740   -0.0021 H   0  0  0  0  0  0  0  0  0  0  0  0
   -8.0159   -1.4145    0.0019 C   0  0  0  0  0  0  0  0  0  0  0  0
  1 45  1  0  0  0  0
  2 45  1  0  0  0  0
  4 31  2  0  0  0  0
  5 42  1  0  0  0  0
  6 41  2  0  0  0  0
  7  9  1  0  0  0  0
  7 16  1  0  0  0  0
  7  8  1  0  0  0  0
 10 28  1  0  0  0  0
 10 19  1  0  0  0  0
 12 11  1  0  0  0  0
 13 11  1  0  0  0  0
 14 15  1  0  0  0  0
 16 18  1  0  0  0  0
 16 17  1  0  0  0  0
 19 20  1  0  0  0  0
 19 16  1  0  0  0  0
 21 19  1  0  0  0  0
 22 23  1  0  0  0  0
 22 10  1  0  0  0  0
 24 22  1  0  0  0  0
 25 11  1  0  0  0  0
 25 22  1  0  0  0  0
 26 25  1  0  0  0  0
 27 25  1  0  0  0  0
 28 29  1  0  0  0  0
 30 28  1  0  0  0  0
 31 14  1  0  0  0  0
 31 28  1  0  0  0  0
 32 14  1  0  0  0  0
 32 33  1  0  0  0  0
 33 34  1  0  0  0  0
 35 33  2  0  0  0  0
 35 36  1  0  0  0  0
 37 35  1  0  0  0  0
 38 37  1  0  0  0  0
 38 45  1  0  0  0  0
 39 38  2  0  0  0  0
 40 39  1  0  0  0  0
 41  5  1  0  0  0  0
 41 39  1  0  0  0  0
 42 43  1  0  0  0  0
 42 37  2  0  0  0  0
 43 32  2  0  0  0  0
 44 43  1  0  0  0  0
 45  3  1  0  0  0  0
M  END
