1,2,3
q = 0.0, confidence = 0.95

 53 56  0  0  1  0  0  0  0  0999 V2000
    2.1467   -1.4010    0.1600 N   0  0  0  0  0  2  0  0  0  0  0  0
    1.1315    0.8981    0.0091 N   0  0  0  0  0  2  0  0  0  0  0  0
   -1.2487    0.4599   -0.1834 N   0  0  0  0  0  2  0  0  0  0  0  0
    2.6193   -2.6520    0.2654 C   0  0  0  0  0  0  0  0  0  0  0  0
    1.8688   -3.4556    0.2371 H   0  0  0  0  0  0  0  0  0  0  0  0
    3.9998   -2.9125    0.4193 C   0  0  0  0  0  0  0  0  0  0  0  0
    4.3323   -3.9573    0.4994 H   0  0  0  0  0  0  0  0  0  0  0  0
    4.9279   -1.8676    0.4613 C   0  0  0  0  0  0  0  0  0  0  0  0
    6.0033   -2.0727    0.5726 H   0  0  0  0  0  0  0  0  0  0  0  0
    4.4607   -0.5314    0.3557 C   0  0  0  0  0  0  0  0  0  0  0  0
    5.2497    0.6749    0.3768 C   0  0  0  0  0  0  0  0  0  0  0  0
    6.3411    0.5826    0.4856 H   0  0  0  0  0  0  0  0  0  0  0  0
    4.6758    1.9321    0.2603 C   0  0  0  0  0  0  0  0  0  0  0  0
    5.3174    2.8265    0.2728 H   0  0  0  0  0  0  0  0  0  0  0  0
    3.2547    2.1048    0.1220 C   0  0  0  0  0  0  0  0  0  0  0  0
    2.5238    3.3244   -0.0282 C   0  0  0  0  0  0  0  0  0  0  0  0
    3.0581    4.2856   -0.0363 H   0  0  0  0  0  0  0  0  0  0  0  0
    1.1365    3.2918   -0.1819 C   0  0  0  0  0  0  0  0  0  0  0  0
    0.5742    4.2264   -0.3189 H   0  0  0  0  0  0  0  0  0  0  0  0
    0.4272    2.0599   -0.1709 C   0  0  0  0  0  0  0  0  0  0  0  0
    2.4880    0.9168    0.1168 C   0  0  0  0  0  0  0  0  0  0  0  0
    3.0569   -0.3747    0.2110 C   0  0  0  0  0  0  0  0  0  0  0  0
   -0.9843    1.7720   -0.2587 C   0  0  1  0  0  3  0  0  0  0  0  0
   -2.0285    2.8375   -0.4417 C   0  0  0  0  0  0  0  0  0  0  0  0
   -1.6764    3.7779    0.0300 H   0  0  0  0  0  0  0  0  0  0  0  0
   -2.9550    2.5382    0.0864 H   0  0  0  0  0  0  0  0  0  0  0  0
   -2.3426    3.0751   -1.9298 C   0  0  0  0  0  0  0  0  0  0  0  0
   -3.0991    3.8764   -2.0470 H   0  0  0  0  0  0  0  0  0  0  0  0
   -2.7416    2.1529   -2.3956 H   0  0  0  0  0  0  0  0  0  0  0  0
   -1.4340    3.3688   -2.4926 H   0  0  0  0  0  0  0  0  0  0  0  0
   -2.5975    0.0346    0.0444 C   0  0  0  0  0  0  0  0  0  0  0  0
   -3.1199    0.1976    1.3605 C   0  0  0  0  0  0  0  0  0  0  0  0
   -4.4417   -0.2134    1.5993 C   0  0  0  0  0  0  0  0  0  0  0  0
   -4.8653   -0.1068    2.6081 H   0  0  0  0  0  0  0  0  0  0  0  0
   -5.2282   -0.7611    0.5752 C   0  0  0  0  0  0  0  0  0  0  0  0
   -6.2656   -1.0655    0.7817 H   0  0  0  0  0  0  0  0  0  0  0  0
   -4.6857   -0.9332   -0.7013 C   0  0  0  0  0  0  0  0  0  0  0  0
   -5.2933   -1.3789   -1.5050 H   0  0  0  0  0  0  0  0  0  0  0  0
   -3.3592   -0.5550   -0.9900 C   0  0  0  0  0  0  0  0  0  0  0  0
   -2.2534    0.7884    2.4563 C   0  0  0  0  0  0  0  0  0  0  0  0
   -1.2184    0.4263    2.2925 H   0  0  0  0  0  0  0  0  0  0  0  0
   -2.2044    1.8949    2.3299 H   0  0  0  0  0  0  0  0  0  0  0  0
   -2.6785    0.4603    3.8863 C   0  0  0  0  0  0  0  0  0  0  0  0
   -1.9474    0.8718    4.6101 H   0  0  0  0  0  0  0  0  0  0  0  0
   -2.7239   -0.6371    4.0380 H   0  0  0  0  0  0  0  0  0  0  0  0
   -3.6700    0.8839    4.1464 H   0  0  0  0  0  0  0  0  0  0  0  0
   -2.7738   -0.8632   -2.3479 C   0  0  0  0  0  0  0  0  0  0  0  0
   -1.8660   -0.2558   -2.5312 H   0  0  0  0  0  0  0  0  0  0  0  0
   -3.5154   -0.5998   -3.1327 H   0  0  0  0  0  0  0  0  0  0  0  0
   -2.4006   -2.3499   -2.4686 C   0  0  0  0  0  0  0  0  0  0  0  0
   -1.9020   -2.5557   -3.4364 H   0  0  0  0  0  0  0  0  0  0  0  0
   -3.2970   -2.9982   -2.3859 H   0  0  0  0  0  0  0  0  0  0  0  0
   -1.6993   -2.6385   -1.6608 H   0  0  0  0  0  0  0  0  0  0  0  0
  1 22  1  0  0  0  0
  1  4  1  0  0  0  0
  2 21  1  0  0  0  0
  3 31  1  0  0  0  0
  4  6  2  0  0  0  0
  5  4  1  0  0  0  0
  6  8  1  0  0  0  0
  6  7  1  0  0  0  0
  8  9  1  0  0  0  0
 10 11  1  0  0  0  0
 10  8  2  0  0  0  0
 11 12  1  0  0  0  0
 13 14  1  0  0  0  0
 13 11  2  0  0  0  0
 15 13  1  0  0  0  0
 16 15  2  0  0  0  0
 17 16  1  0  0  0  0
 18 20  2  0  0  0  0
 18 16  1  0  0  0  0
 19 18  1  0  0  0  0
 20  2  1  0  0  0  0
 21 15  1  0  0  0  0
 21 22  2  0  0  0  0
 22 10  1  0  0  0  0
 23  3  1  6  0  0  0
 23 20  1  0  0  0  0
 24 23  1  0  0  0  0
 24 25  1  0  0  0  0
 24 26  1  0  0  0  0
 27 24  1  0  0  0  0
 28 27  1  0  0  0  0
 29 27  1  0  0  0  0
 30 27  1  0  0  0  0
 31 32  1  0  0  0  0
 32 33  2  0  0  0  0
 32 40  1  0  0  0  0
 33 34  1  0  0  0  0
 35 36  1  0  0  0  0
 35 33  1  0  0  0  0
 37 35  2  0  0  0  0
 38 37  1  0  0  0  0
 39 37  1  0  0  0  0
 39 31  2  0  0  0  0
 40 43  1  0  0  0  0
 41 40  1  0  0  0  0
 42 40  1  0  0  0  0
 43 45  1  0  0  0  0
 43 46  1  0  0  0  0
 43 44  1  0  0  0  0
 47 39  1  0  0  0  0
 48 47  1  0  0  0  0
 49 47  1  0  0  0  0
 50 52  1  0  0  0  0
 50 47  1  0  0  0  0
 50 53  1  0  0  0  0
 51 50  1  0  0  0  0
M  END
