1,2,5
q = -2.0, confidence = 0.96

 53 58  0  0  0  0  0  0  0  0999 V2000
   -1.6527   -1.7027    0.2184 N   0  0  0  0  0  0  0  0  0  0  0  0
    0.2179    1.8878    0.3483 N   0  0  0  0  0  0  0  0  0  0  0  0
    4.0247   -0.3174   -0.4577 N   0  0  0  0  0  0  0  0  0  0  0  0
    3.8117    0.6834   -0.4579 H   0  0  0  0  0  0  0  0  0  0  0  0
    0.8778   -0.7471    0.5800 N   0  0  0  0  0  0  0  0  0  0  0  0
    0.5861   -2.0528    1.2129 C   0  0  0  0  0  0  0  0  0  0  0  0
    1.4459   -2.7527    1.1294 H   0  0  0  0  0  0  0  0  0  0  0  0
    0.4333   -1.8659    2.2966 H   0  0  0  0  0  0  0  0  0  0  0  0
   -0.6618   -2.6171    0.6144 C   0  0  0  0  0  3  0  0  0  0  0  0
   -1.0968   -3.9232    0.4869 C   0  0  0  0  0  0  0  0  0  0  0  0
   -0.5216   -4.8236    0.7324 H   0  0  0  0  0  0  0  0  0  0  0  0
   -2.4524   -3.8630    0.0009 C   0  0  0  0  0  0  0  0  0  0  0  0
   -3.4228   -4.8348   -0.3216 C   0  0  0  0  0  0  0  0  0  0  0  0
   -3.1934   -5.9063   -0.2154 H   0  0  0  0  0  0  0  0  0  0  0  0
   -4.6791   -4.4158   -0.7750 C   0  0  0  0  0  0  0  0  0  0  0  0
   -5.4452   -5.1646   -1.0272 H   0  0  0  0  0  0  0  0  0  0  0  0
   -4.9811   -3.0410   -0.9106 C   0  0  0  0  0  0  0  0  0  0  0  0
   -5.9789   -2.7368   -1.2612 H   0  0  0  0  0  0  0  0  0  0  0  0
   -4.0334   -2.0560   -0.6008 C   0  0  0  0  0  0  0  0  0  0  0  0
   -4.2708   -0.9876   -0.6976 H   0  0  0  0  0  0  0  0  0  0  0  0
   -2.7685   -2.4698   -0.1453 C   0  0  0  0  0  0  0  0  0  0  0  0
    1.5748    0.1985    1.4882 C   0  0  0  0  0  0  0  0  0  0  0  0
    1.0368    0.1514    2.4586 H   0  0  0  0  0  0  0  0  0  0  0  0
    2.6316   -0.0897    1.6716 H   0  0  0  0  0  0  0  0  0  0  0  0
    1.4515    1.5696    0.9130 C   0  0  0  0  0  3  0  0  0  0  0  0
    2.3306    2.6448    0.8644 C   0  0  0  0  0  0  0  0  0  0  0  0
    3.3521    2.6686    1.2642 H   0  0  0  0  0  0  0  0  0  0  0  0
    1.6042    3.7331    0.2589 C   0  0  0  0  0  0  0  0  0  0  0  0
    1.9135    5.0743   -0.0558 C   0  0  0  0  0  0  0  0  0  0  0  0
    2.9102    5.4842    0.1697 H   0  0  0  0  0  0  0  0  0  0  0  0
    0.9332    5.8749   -0.6524 C   0  0  0  0  0  0  0  0  0  0  0  0
    1.1626    6.9225   -0.8998 H   0  0  0  0  0  0  0  0  0  0  0  0
   -0.3549    5.3610   -0.9388 C   0  0  0  0  0  0  0  0  0  0  0  0
   -1.1078    6.0164   -1.4024 H   0  0  0  0  0  0  0  0  0  0  0  0
   -0.6894    4.0349   -0.6393 C   0  0  0  0  0  0  0  0  0  0  0  0
   -1.6887    3.6338   -0.8570 H   0  0  0  0  0  0  0  0  0  0  0  0
    0.2928    3.2226   -0.0427 C   0  0  0  0  0  0  0  0  0  0  0  0
    1.6192   -0.9366   -0.7138 C   0  0  0  0  0  0  0  0  0  0  0  0
    1.5421    0.0103   -1.2734 H   0  0  0  0  0  0  0  0  0  0  0  0
    1.0653   -1.7047   -1.2853 H   0  0  0  0  0  0  0  0  0  0  0  0
    3.0588   -1.3113   -0.5748 C   0  0  0  0  0  0  0  0  0  0  0  0
    3.6860   -2.5501   -0.5078 C   0  0  0  0  0  0  0  0  0  0  0  0
    3.1859   -3.5208   -0.6013 H   0  0  0  0  0  0  0  0  0  0  0  0
    5.0945   -2.3123   -0.3396 C   0  0  0  0  0  0  0  0  0  0  0  0
    6.2318   -3.1426   -0.2143 C   0  0  0  0  0  0  0  0  0  0  0  0
    6.1245   -4.2379   -0.2364 H   0  0  0  0  0  0  0  0  0  0  0  0
    7.4890   -2.5528   -0.0613 C   0  0  0  0  0  0  0  0  0  0  0  0
    8.3807   -3.1899    0.0386 H   0  0  0  0  0  0  0  0  0  0  0  0
    7.6402   -1.1434   -0.0324 C   0  0  0  0  0  0  0  0  0  0  0  0
    8.6445   -0.7103    0.0892 H   0  0  0  0  0  0  0  0  0  0  0  0
    6.5376   -0.2921   -0.1572 C   0  0  0  0  0  0  0  0  0  0  0  0
    6.6555    0.8018   -0.1376 H   0  0  0  0  0  0  0  0  0  0  0  0
    5.2724   -0.8869   -0.3099 C   0  0  0  0  0  0  0  0  0  0  0  0
  1  9  1  0  0  0  0
  2 25  1  0  0  0  0
  3 53  1  0  0  0  0
  4  3  1  0  0  0  0
  5  6  1  0  0  0  0
  5 22  1  0  0  0  0
  6  8  1  0  0  0  0
  7  6  1  0  0  0  0
  9  6  1  0  0  0  0
 10  9  1  0  0  0  0
 10 11  1  0  0  0  0
 12 10  2  0  0  0  0
 13 14  1  0  0  0  0
 13 12  1  0  0  0  0
 15 13  2  0  0  0  0
 16 15  1  0  0  0  0
 17 15  1  0  0  0  0
 17 19  2  0  0  0  0
 18 17  1  0  0  0  0
 19 21  1  0  0  0  0
 20 19  1  0  0  0  0
 21 12  1  0  0  0  0
 21  1  2  0  0  0  0
 22 24  1  0  0  0  0
 22 23  1  0  0  0  0
 25 22  1  0  0  0  0
 26 25  1  0  0  0  0
 26 27  1  0  0  0  0
 28 26  2  0  0  0  0
 29 30  1  0  0  0  0
 29 28  1  0  0  0  0
 31 29  2  0  0  0  0
 32 31  1  0  0  0  0
 33 31  1  0  0  0  0
 33 35  2  0  0  0  0
 34 33  1  0  0  0  0
 35 37  1  0  0  0  0
 36 35  1  0  0  0  0
 37 28  1  0  0  0  0
 37  2  2  0  0  0  0
 38 41  1  0  0  0  0
 38  5  1  0  0  0  0
 39 38  1  0  0  0  0
 40 38  1  0  0  0  0
 41 42  2  0  0  0  0
 41  3  1  0  0  0  0
 42 44  1  0  0  0  0
 43 42  1  0  0  0  0
 44 53  2  0  0  0  0
 44 45  1  0  0  0  0
 45 47  2  0  0  0  0
 46 45  1  0  0  0  0
 47 49  1  0  0  0  0
 47 48  1  0  0  0  0
 49 50  1  0  0  0  0
 51 52  1  0  0  0  0
 51 49  2  0  0  0  0
 53 51  1  0  0  0  0
M  END
