1,4,20
q = 0.0, confidence = 0.996

 33 34  0  0  0  0  0  0  0  0999 V2000
    0.9844    0.0166    1.4028 N   0  0  0  0  0  2  0  0  0  0  0  0
    2.1025   -0.5954    1.8614 C   0  0  0  0  0  3  0  0  0  0  0  0
    2.1950   -1.6693    1.6442 H   0  0  0  0  0  0  0  0  0  0  0  0
   -1.0849    1.3031   -0.0001 N   0  0  0  0  0  0  0  0  0  0  0  0
    3.0893    0.0904    2.5746 C   0  0  0  0  0  0  0  0  0  0  0  0
    3.9748   -0.4520    2.9340 H   0  0  0  0  0  0  0  0  0  0  0  0
    2.9256    1.4633    2.8089 C   0  0  0  0  0  0  0  0  0  0  0  0
    3.6889    2.0348    3.3572 H   0  0  0  0  0  0  0  0  0  0  0  0
    1.7687    2.0967    2.3351 C   0  0  0  0  0  0  0  0  0  0  0  0
    1.5993    3.1694    2.5069 H   0  0  0  0  0  0  0  0  0  0  0  0
    0.8081    1.3439    1.6460 C   0  0  0  0  0  0  0  0  0  0  0  0
   -0.5211    1.9204    1.2395 C   0  0  0  0  0  0  0  0  0  0  0  0
   -1.2393    1.7024    2.0590 H   0  0  0  0  0  0  0  0  0  0  0  0
   -0.4740    3.0250    1.1449 H   0  0  0  0  0  0  0  0  0  0  0  0
   -2.5836    1.4773   -0.0002 C   0  0  0  0  0  0  0  0  0  0  0  0
   -2.9802    0.9462   -0.8893 H   0  0  0  0  0  0  0  0  0  0  0  0
   -3.0077    2.8750   -0.0002 C   0  0  0  0  0  0  0  0  0  0  0  0
   -3.3558    4.0462   -0.0003 C   0  0  0  0  0  0  0  0  0  0  0  0
   -3.6875    5.0774   -0.0006 H   0  0  0  0  0  0  0  0  0  0  0  0
    0.9845    0.0164   -1.4028 N   0  0  0  0  0  2  0  0  0  0  0  0
    2.1026   -0.5957   -1.8613 C   0  0  0  0  0  3  0  0  0  0  0  0
    2.1951   -1.6695   -1.6438 H   0  0  0  0  0  0  0  0  0  0  0  0
    3.0894    0.0901   -2.5745 C   0  0  0  0  0  0  0  0  0  0  0  0
    3.9749   -0.4525   -2.9337 H   0  0  0  0  0  0  0  0  0  0  0  0
    2.9257    1.4629   -2.8090 C   0  0  0  0  0  0  0  0  0  0  0  0
    3.6890    2.0343   -3.3573 H   0  0  0  0  0  0  0  0  0  0  0  0
    1.7688    2.0963   -2.3353 C   0  0  0  0  0  0  0  0  0  0  0  0
    1.5994    3.1690   -2.5072 H   0  0  0  0  0  0  0  0  0  0  0  0
    0.8082    1.3436   -1.6462 C   0  0  0  0  0  0  0  0  0  0  0  0
   -0.5210    1.9202   -1.2398 C   0  0  0  0  0  0  0  0  0  0  0  0
   -1.2392    1.7021   -2.0592 H   0  0  0  0  0  0  0  0  0  0  0  0
   -0.4739    3.0248   -1.1454 H   0  0  0  0  0  0  0  0  0  0  0  0
   -2.9802    0.9463    0.8890 H   0  0  0  0  0  0  0  0  0  0  0  0
  1 11  1  0  0  0  0
  1  2  1  0  0  0  0
  2  5  1  0  0  0  0
  3  2  1  0  0  0  0
  4 12  1  0  0  0  0
  5  7  2  0  0  0  0
  5  6  1  0  0  0  0
  7  8  1  0  0  0  0
  9 10  1  0  0  0  0
  9  7  1  0  0  0  0
 11  9  2  0  0  0  0
 12 11  1  0  0  0  0
 12 13  1  0  0  0  0
 14 12  1  0  0  0  0
 15  4  1  0  0  0  0
 15 33  1  0  0  0  0
 16 15  1  0  0  0  0
 17 15  1  0  0  0  0
 18 17  3  0  0  0  0
 19 18  1  0  0  0  0
 21 22  1  0  0  0  0
 21 20  1  0  0  0  0
 23 21  1  0  0  0  0
 24 23  1  0  0  0  0
 25 23  2  0  0  0  0
 25 27  1  0  0  0  0
 26 25  1  0  0  0  0
 27 29  2  0  0  0  0
 28 27  1  0  0  0  0
 29 20  1  0  0  0  0
 29 30  1  0  0  0  0
 30 32  1  0  0  0  0
 30  4  1  0  0  0  0
 31 30  1  0  0  0  0
M  END
