1,4,5
q = 0.0, confidence = 0.996

 28 29  0  0  1  0  0  0  0  0999 V2000
    2.0712   -0.2120   -0.4145 N   0  0  0  0  0  2  0  0  0  0  0  0
    1.1316    1.9163   -0.4157 N   0  0  0  0  0  0  0  0  0  0  0  0
    1.2140    2.9000   -0.1313 H   0  0  0  0  0  0  0  0  0  0  0  0
   -0.0396    1.2993   -0.4676 N   0  0  0  0  0  2  0  0  0  0  0  0
   -1.9882   -0.3826   -0.2543 N   0  0  0  0  0  2  0  0  0  0  0  0
    3.1219   -1.0479   -0.4420 C   0  0  0  0  0  3  0  0  0  0  0  0
    2.8535   -2.1190   -0.4461 H   0  0  0  0  0  0  0  0  0  0  0  0
    4.4425   -0.5843   -0.4473 C   0  0  0  0  0  0  0  0  0  0  0  0
    5.2808   -1.2942   -0.4663 H   0  0  0  0  0  0  0  0  0  0  0  0
    4.6597    0.8054   -0.4154 C   0  0  0  0  0  0  0  0  0  0  0  0
    5.6830    1.2100   -0.4090 H   0  0  0  0  0  0  0  0  0  0  0  0
    3.5691    1.6797   -0.3970 C   0  0  0  0  0  0  0  0  0  0  0  0
    3.7066    2.7713   -0.3847 H   0  0  0  0  0  0  0  0  0  0  0  0
    2.2785    1.1148   -0.4024 C   0  0  0  0  0  0  0  0  0  0  0  0
   -1.1908    1.8820   -0.3013 C   0  0  1  0  0  3  0  0  0  0  0  0
   -2.3255    0.9307   -0.3212 C   0  0  1  0  0  3  0  0  0  0  0  0
   -2.9283   -1.3331   -0.3007 C   0  0  0  0  0  0  0  0  0  0  0  0
   -2.5419   -2.3673   -0.2547 H   0  0  0  0  0  0  0  0  0  0  0  0
   -4.2945   -1.0253   -0.3973 C   0  0  0  0  0  0  0  0  0  0  0  0
   -5.0429   -1.8298   -0.4268 H   0  0  0  0  0  0  0  0  0  0  0  0
   -4.6679    0.3253   -0.4460 C   0  0  0  0  0  0  0  0  0  0  0  0
   -5.7284    0.6102   -0.5181 H   0  0  0  0  0  0  0  0  0  0  0  0
   -3.6777    1.3169   -0.4097 C   0  0  0  0  0  0  0  0  0  0  0  0
   -3.9551    2.3786   -0.4662 H   0  0  0  0  0  0  0  0  0  0  0  0
   -1.3315    3.3421    0.0096 C   0  0  0  0  0  0  0  0  0  0  0  0
   -0.9151    3.5368    1.0237 H   0  0  0  0  0  0  0  0  0  0  0  0
   -2.3814    3.6822    0.0144 H   0  0  0  0  0  0  0  0  0  0  0  0
   -0.7771    3.9727   -0.7178 H   0  0  0  0  0  0  0  0  0  0  0  0
  1 14  1  0  0  0  0
  2 14  1  0  0  0  0
  2  3  1  0  0  0  0
  4  2  1  0  0  0  0
  6  1  1  0  0  0  0
  7  6  1  0  0  0  0
  8  6  1  0  0  0  0
  8 10  2  0  0  0  0
  9  8  1  0  0  0  0
 10 11  1  0  0  0  0
 10 12  1  0  0  0  0
 12 13  1  0  0  0  0
 14 12  2  0  0  0  0
 15  4  1  1  0  0  0
 15 25  1  0  0  0  0
 16 15  1  6  0  0  0
 16  5  1  0  0  0  0
 17 18  1  0  0  0  0
 17  5  1  0  0  0  0
 19 17  2  0  0  0  0
 20 19  1  0  0  0  0
 21 23  2  0  0  0  0
 21 19  1  0  0  0  0
 22 21  1  0  0  0  0
 23 16  1  0  0  0  0
 24 23  1  0  0  0  0
 25 27  1  0  0  0  0
 25 26  1  0  0  0  0
 28 25  1  0  0  0  0
M  END
