1,4,59
q = 0.0, confidence = 0.978

 73 78  0  0  1  0  0  0  0  0999 V2000
   -1.0731   -1.6101    1.5860 N   0  0  0  0  0  2  0  0  0  0  0  0
   -1.9074   -1.7526    2.1734 H   0  0  0  0  0  0  0  0  0  0  0  0
    0.0002   -0.0001   -0.8000 N   0  0  0  0  0  0  0  0  0  0  0  0
   -0.8580    1.7342    1.5856 N   0  0  0  0  0  2  0  0  0  0  0  0
   -0.5649    2.5279    2.1733 H   0  0  0  0  0  0  0  0  0  0  0  0
   -2.1646    3.5080    0.5390 C   0  0  0  0  0  0  0  0  0  0  0  0
   -2.6215   -4.1120    1.6900 C   0  0  0  0  0  0  0  0  0  0  0  0
   -2.3599   -3.7159    2.6840 H   0  0  0  0  0  0  0  0  0  0  0  0
   -3.5812   -5.1252    1.5874 C   0  0  0  0  0  0  0  0  0  0  0  0
   -4.0779   -5.5013    2.4940 H   0  0  0  0  0  0  0  0  0  0  0  0
   -2.9642    6.2103    0.3329 C   0  0  0  0  0  0  0  0  0  0  0  0
   -3.2770    7.2621    0.2532 H   0  0  0  0  0  0  0  0  0  0  0  0
    6.8604   -0.5383    0.3319 C   0  0  0  0  0  0  0  0  0  0  0  0
    7.9276   -0.7933    0.2519 H   0  0  0  0  0  0  0  0  0  0  0  0
    2.6679    0.4081    0.6469 C   0  0  1  0  0  3  0  0  0  0  0  0
   -2.2696   -4.2008   -0.7160 C   0  0  0  0  0  0  0  0  0  0  0  0
   -1.7578   -3.8402   -1.6194 H   0  0  0  0  0  0  0  0  0  0  0  0
    1.7164   -1.3778   -1.8562 C   0  0  0  0  0  0  0  0  0  0  0  0
    2.0281   -0.4810   -2.4088 H   0  0  0  0  0  0  0  0  0  0  0  0
    4.7729    0.1357   -0.7159 C   0  0  0  0  0  0  0  0  0  0  0  0
    4.2047    0.3989   -1.6192 H   0  0  0  0  0  0  0  0  0  0  0  0
   -2.2083    1.0944   -0.3167 C   0  0  0  0  0  0  0  0  0  0  0  0
    6.2291   -0.5389    1.5874 C   0  0  0  0  0  0  0  0  0  0  0  0
    6.8032   -0.7814    2.4938 H   0  0  0  0  0  0  0  0  0  0  0  0
   -0.9810   -2.5141    0.6468 C   0  0  1  0  0  3  0  0  0  0  0  0
    0.8416   -3.6735   -0.5562 C   0  0  0  0  0  0  0  0  0  0  0  0
    0.4848   -4.5803   -0.0463 H   0  0  0  0  0  0  0  0  0  0  0  0
   -4.2246    0.1705   -1.3884 C   0  0  0  0  0  0  0  0  0  0  0  0
   -5.3144    0.1957   -1.5301 H   0  0  0  0  0  0  0  0  0  0  0  0
    2.0520    1.3655   -0.3162 C   0  0  0  0  0  0  0  0  0  0  0  0
    2.7603    2.5659   -0.5567 C   0  0  0  0  0  0  0  0  0  0  0  0
    3.7239    2.7108   -0.0467 H   0  0  0  0  0  0  0  0  0  0  0  0
    2.3964   -2.5856   -2.0477 C   0  0  0  0  0  0  0  0  0  0  0  0
    3.2555   -2.6214   -2.7338 H   0  0  0  0  0  0  0  0  0  0  0  0
    0.3353    2.1744   -1.8572 C   0  0  0  0  0  0  0  0  0  0  0  0
   -0.5968    1.9952   -2.4103 H   0  0  0  0  0  0  0  0  0  0  0  0
    1.9651   -3.7442   -1.3866 C   0  0  0  0  0  0  0  0  0  0  0  0
    2.4882   -4.7006   -1.5278 H   0  0  0  0  0  0  0  0  0  0  0  0
   -2.5035    4.0661   -0.7158 C   0  0  0  0  0  0  0  0  0  0  0  0
   -2.4470    3.4427   -1.6193 H   0  0  0  0  0  0  0  0  0  0  0  0
    6.1289   -0.1994   -0.8176 C   0  0  0  0  0  0  0  0  0  0  0  0
    6.6199   -0.1946   -1.8021 H   0  0  0  0  0  0  0  0  0  0  0  0
    4.8719   -0.2140    1.6900 C   0  0  0  0  0  0  0  0  0  0  0  0
    4.3981   -0.1857    2.6841 H   0  0  0  0  0  0  0  0  0  0  0  0
   -2.8914    5.4079   -0.8171 C   0  0  0  0  0  0  0  0  0  0  0  0
   -3.1407    5.8312   -1.8014 H   0  0  0  0  0  0  0  0  0  0  0  0
   -3.4365   -0.7824   -2.0492 C   0  0  0  0  0  0  0  0  0  0  0  0
   -3.8968   -1.5084   -2.7356 H   0  0  0  0  0  0  0  0  0  0  0  0
   -3.8965   -5.6721    0.3320 C   0  0  0  0  0  0  0  0  0  0  0  0
   -4.6508   -6.4689    0.2520 H   0  0  0  0  0  0  0  0  0  0  0  0
   -3.6019    1.1080   -0.5575 C   0  0  0  0  0  0  0  0  0  0  0  0
   -4.2091    1.8703   -0.0479 H   0  0  0  0  0  0  0  0  0  0  0  0
    1.0411    3.3673   -2.0492 C   0  0  0  0  0  0  0  0  0  0  0  0
    0.6425    4.1287   -2.7359 H   0  0  0  0  0  0  0  0  0  0  0  0
    0.1563   -2.4597   -0.3161 C   0  0  0  0  0  0  0  0  0  0  0  0
   -2.0506   -0.7975   -1.8569 C   0  0  0  0  0  0  0  0  0  0  0  0
   -1.4296   -1.5156   -2.4095 H   0  0  0  0  0  0  0  0  0  0  0  0
    4.1204    0.1206    0.5390 C   0  0  0  0  0  0  0  0  0  0  0  0
    1.9309   -0.1242    1.5859 N   0  0  0  0  0  2  0  0  0  0  0  0
    2.4717   -0.7752    2.1733 H   0  0  0  0  0  0  0  0  0  0  0  0
   -1.6872    2.1064    0.6464 C   0  0  2  0  0  3  0  0  0  0  0  0
   -3.2377   -5.2077   -0.8177 C   0  0  0  0  0  0  0  0  0  0  0  0
   -3.4792   -5.6352   -1.8021 H   0  0  0  0  0  0  0  0  0  0  0  0
    0.7985    1.1760   -0.9766 C   0  0  0  0  0  0  0  0  0  0  0  0
   -2.2513    4.3256    1.6904 C   0  0  0  0  0  0  0  0  0  0  0  0
   -2.0393    3.9007    2.6843 H   0  0  0  0  0  0  0  0  0  0  0  0
   -1.9563   -3.6282    0.5389 C   0  0  0  0  0  0  0  0  0  0  0  0
    2.2598    3.5737   -1.3877 C   0  0  0  0  0  0  0  0  0  0  0  0
    2.8263    4.5051   -1.5292 H   0  0  0  0  0  0  0  0  0  0  0  0
    0.6196   -1.2795   -0.9763 C   0  0  0  0  0  0  0  0  0  0  0  0
   -2.6486    5.6634    1.5882 C   0  0  0  0  0  0  0  0  0  0  0  0
   -2.7261    6.2814    2.4949 H   0  0  0  0  0  0  0  0  0  0  0  0
   -1.4175    0.1032   -0.9767 C   0  0  0  0  0  0  0  0  0  0  0  0
  1  2  1  0  0  0  0
  4  5  1  0  0  0  0
  6 61  1  0  0  0  0
  6 65  1  0  0  0  0
  7  8  1  0  0  0  0
  9  7  1  0  0  0  0
  9 10  1  0  0  0  0
 11 71  1  0  0  0  0
 12 11  1  0  0  0  0
 13 23  1  0  0  0  0
 14 13  1  0  0  0  0
 15 59  1  1  0  0  0
 16 67  1  0  0  0  0
 17 16  1  0  0  0  0
 18 70  1  0  0  0  0
 19 18  1  0  0  0  0
 20 58  2  0  0  0  0
 21 20  1  0  0  0  0
 22 61  1  0  0  0  0
 23 43  2  0  0  0  0
 23 24  1  0  0  0  0
 25  1  1  1  0  0  0
 26 55  1  0  0  0  0
 26 27  1  0  0  0  0
 28 51  2  0  0  0  0
 29 28  1  0  0  0  0
 30 15  1  0  0  0  0
 31 30  1  0  0  0  0
 31 32  1  0  0  0  0
 33 18  2  0  0  0  0
 33 37  1  0  0  0  0
 34 33  1  0  0  0  0
 35 64  1  0  0  0  0
 36 35  1  0  0  0  0
 37 26  2  0  0  0  0
 38 37  1  0  0  0  0
 39  6  2  0  0  0  0
 40 39  1  0  0  0  0
 41 20  1  0  0  0  0
 41 13  2  0  0  0  0
 42 41  1  0  0  0  0
 43 44  1  0  0  0  0
 45 39  1  0  0  0  0
 45 11  2  0  0  0  0
 46 45  1  0  0  0  0
 47 56  2  0  0  0  0
 47 28  1  0  0  0  0
 48 47  1  0  0  0  0
 49  9  2  0  0  0  0
 50 49  1  0  0  0  0
 51 22  1  0  0  0  0
 51 52  1  0  0  0  0
 53 35  2  0  0  0  0
 53 68  1  0  0  0  0
 54 53  1  0  0  0  0
 55 25  1  0  0  0  0
 56 73  1  0  0  0  0
 57 56  1  0  0  0  0
 58 15  1  0  0  0  0
 58 43  1  0  0  0  0
 59 60  1  0  0  0  0
 61  4  1  1  0  0  0
 62 16  2  0  0  0  0
 62 49  1  0  0  0  0
 63 62  1  0  0  0  0
 64  3  1  0  0  0  0
 64 30  2  0  0  0  0
 65 66  1  0  0  0  0
 67 25  1  0  0  0  0
 67  7  2  0  0  0  0
 68 31  2  0  0  0  0
 69 68  1  0  0  0  0
 70  3  1  0  0  0  0
 70 55  2  0  0  0  0
 71 65  2  0  0  0  0
 71 72  1  0  0  0  0
 73  3  1  0  0  0  0
 73 22  2  0  0  0  0
M  END
