1,4,9
q = 0.0, confidence = 0.942

 51 54  0  0  1  0  0  0  0  0999 V2000
   -1.0522    0.3309    0.4818 N   0  0  0  0  0  0  0  0  0  0  0  0
    1.8064    1.4149   -0.4687 N   0  0  0  0  0  0  0  0  0  0  0  0
   -3.1308    1.5659    0.6719 C   0  0  2  0  0  3  0  0  0  0  0  0
   -3.6231    0.4530    0.0415 N   0  0  0  0  0  2  0  0  0  0  0  0
    2.8763    2.2181   -0.3127 C   0  0  0  0  0  0  0  0  0  0  0  0
   -0.0097   -0.4167    1.2501 C   0  0  0  0  0  0  0  0  0  0  0  0
   -0.4671   -0.6367    2.2371 H   0  0  0  0  0  0  0  0  0  0  0  0
    0.9249    0.1666    1.3695 H   0  0  0  0  0  0  0  0  0  0  0  0
   -0.8765   -2.2230   -0.0712 N   0  0  0  0  0  2  0  0  0  0  0  0
    4.1757    1.5148   -0.1103 C   0  0  0  0  0  0  0  0  0  0  0  0
   -1.7855    1.3346    1.3074 C   0  0  0  0  0  0  0  0  0  0  0  0
   -1.2078    2.2748    1.4409 H   0  0  0  0  0  0  0  0  0  0  0  0
   -1.9563    0.8527    2.2926 H   0  0  0  0  0  0  0  0  0  0  0  0
    0.3603    3.3251   -0.6638 C   0  0  0  0  0  0  0  0  0  0  0  0
   -0.6539    3.7256   -0.8121 H   0  0  0  0  0  0  0  0  0  0  0  0
    5.3662   -0.6239    0.0236 C   0  0  0  0  0  0  0  0  0  0  0  0
    4.1855    0.1093   -0.2019 C   0  0  0  0  0  0  0  0  0  0  0  0
    3.2438   -0.4003   -0.4451 H   0  0  0  0  0  0  0  0  0  0  0  0
    1.4659    4.1750   -0.5155 C   0  0  0  0  0  0  0  0  0  0  0  0
    1.3362    5.2675   -0.5432 H   0  0  0  0  0  0  0  0  0  0  0  0
    0.2327   -1.7285    0.5560 C   0  0  2  0  0  3  0  0  0  0  0  0
    5.3012   -2.0572   -0.0365 C   0  0  0  0  0  0  0  0  0  0  0  0
   -0.7843   -3.4121   -0.7142 C   0  0  0  0  0  0  0  0  0  0  0  0
   -1.6950   -3.7349   -1.2391 H   0  0  0  0  0  0  0  0  0  0  0  0
    1.5437   -3.6546   -0.0963 C   0  0  0  0  0  0  0  0  0  0  0  0
    2.5012   -4.1963   -0.1125 H   0  0  0  0  0  0  0  0  0  0  0  0
    1.4490   -2.4145    0.5584 C   0  0  0  0  0  0  0  0  0  0  0  0
    2.3182   -1.9804    1.0728 H   0  0  0  0  0  0  0  0  0  0  0  0
   -0.5365    0.9275   -0.8034 C   0  0  0  0  0  0  0  0  0  0  0  0
   -1.4100    1.3683   -1.3177 H   0  0  0  0  0  0  0  0  0  0  0  0
   -0.1829    0.0842   -1.4240 H   0  0  0  0  0  0  0  0  0  0  0  0
    0.5802    1.9325   -0.6410 C   0  0  0  0  0  0  0  0  0  0  0  0
    2.7419    3.6241   -0.3395 C   0  0  0  0  0  0  0  0  0  0  0  0
    3.6159    4.2814   -0.2332 H   0  0  0  0  0  0  0  0  0  0  0  0
    5.3851    2.1772    0.1905 C   0  0  0  0  0  0  0  0  0  0  0  0
    5.4134    3.2731    0.2754 H   0  0  0  0  0  0  0  0  0  0  0  0
    6.5672    1.4501    0.4000 C   0  0  0  0  0  0  0  0  0  0  0  0
    7.4996    1.9843    0.6348 H   0  0  0  0  0  0  0  0  0  0  0  0
    6.5719    0.0517    0.3252 C   0  0  0  0  0  0  0  0  0  0  0  0
    7.4936   -0.5207    0.5007 H   0  0  0  0  0  0  0  0  0  0  0  0
    5.1913   -3.2257   -0.0749 N   0  0  0  0  0  0  0  0  0  0  0  0
   -4.8502    0.5233   -0.5349 C   0  0  0  0  0  0  0  0  0  0  0  0
   -5.1731   -0.3841   -1.0650 H   0  0  0  0  0  0  0  0  0  0  0  0
   -5.6304    1.6820   -0.4841 C   0  0  0  0  0  0  0  0  0  0  0  0
   -6.6235    1.6824   -0.9561 H   0  0  0  0  0  0  0  0  0  0  0  0
   -5.1296    2.8258    0.1557 C   0  0  0  0  0  0  0  0  0  0  0  0
   -5.7198    3.7525    0.2023 H   0  0  0  0  0  0  0  0  0  0  0  0
   -3.8476    2.7616    0.7324 C   0  0  0  0  0  0  0  0  0  0  0  0
   -3.4060    3.6327    1.2391 H   0  0  0  0  0  0  0  0  0  0  0  0
    0.4014   -4.1548   -0.7392 C   0  0  0  0  0  0  0  0  0  0  0  0
    0.4236   -5.1157   -1.2731 H   0  0  0  0  0  0  0  0  0  0  0  0
  1  6  1  0  0  0  0
  1 11  1  0  0  0  0
  2  5  1  0  0  0  0
  3 48  1  0  0  0  0
  3 11  1  1  0  0  0
  4  3  1  0  0  0  0
  5 10  1  0  0  0  0
  6  8  1  0  0  0  0
  6  7  1  0  0  0  0
  9 21  1  0  0  0  0
 10 35  1  0  0  0  0
 11 12  1  0  0  0  0
 11 13  1  0  0  0  0
 14 32  1  0  0  0  0
 14 19  2  0  0  0  0
 15 14  1  0  0  0  0
 16 39  2  0  0  0  0
 17 10  2  0  0  0  0
 17 16  1  0  0  0  0
 18 17  1  0  0  0  0
 19 33  1  0  0  0  0
 20 19  1  0  0  0  0
 21 27  1  0  0  0  0
 21  6  1  1  0  0  0
 22 16  1  0  0  0  0
 23  9  1  0  0  0  0
 24 23  1  0  0  0  0
 25 27  2  0  0  0  0
 26 25  1  0  0  0  0
 27 28  1  0  0  0  0
 29 32  1  0  0  0  0
 29  1  1  0  0  0  0
 30 29  1  0  0  0  0
 31 29  1  0  0  0  0
 32  2  2  0  0  0  0
 33  5  2  0  0  0  0
 33 34  1  0  0  0  0
 35 36  1  0  0  0  0
 35 37  2  0  0  0  0
 37 38  1  0  0  0  0
 39 37  1  0  0  0  0
 39 40  1  0  0  0  0
 41 22  3  0  0  0  0
 42 44  2  0  0  0  0
 42  4  1  0  0  0  0
 43 42  1  0  0  0  0
 44 46  1  0  0  0  0
 45 44  1  0  0  0  0
 46 47  1  0  0  0  0
 46 48  2  0  0  0  0
 48 49  1  0  0  0  0
 50 23  2  0  0  0  0
 50 25  1  0  0  0  0
 51 50  1  0  0  0  0
M  END
