4,5,6
q = -3.0, confidence = 0.346

 61 60  0  0  0  0  0  0  0  0999 V2000
    3.3872   -0.3017   -0.5414 Si  0  0  0  0  0  0  0  0  0  0  0  0
   -3.2272    0.8208   -1.1673 Si  0  0  0  0  0  0  0  0  0  0  0  0
   -0.8277   -0.7514    2.9192 Si  0  0  0  0  0  0  0  0  0  0  0  0
    1.7705   -0.5277   -1.2551 N   0  0  0  0  0  2  0  0  0  0  0  0
   -1.8824   -0.3593   -1.1033 N   0  0  0  0  0  2  0  0  0  0  0  0
   -0.0894   -1.2071    1.3674 N   0  0  0  0  0  2  0  0  0  0  0  0
   -0.1087   -2.5052   -1.1079 N   0  0  0  0  0  0  0  0  0  0  0  0
    1.6598   -1.4488   -2.3778 C   0  0  0  0  0  0  0  0  0  0  0  0
    2.6215   -1.6073   -2.9151 H   0  0  0  0  0  0  0  0  0  0  0  0
    0.9466   -1.0609   -3.1422 H   0  0  0  0  0  0  0  0  0  0  0  0
    1.1433   -2.7842   -1.8337 C   0  0  0  0  0  0  0  0  0  0  0  0
    0.9836   -3.5565   -2.6227 H   0  0  0  0  0  0  0  0  0  0  0  0
    1.8888   -3.1817   -1.1168 H   0  0  0  0  0  0  0  0  0  0  0  0
   -2.3911   -1.6980   -1.4551 C   0  0  0  0  0  0  0  0  0  0  0  0
   -3.2042   -1.6560   -2.2172 H   0  0  0  0  0  0  0  0  0  0  0  0
   -2.8447   -2.1955   -0.5626 H   0  0  0  0  0  0  0  0  0  0  0  0
   -1.2727   -2.5572   -2.0124 C   0  0  0  0  0  0  0  0  0  0  0  0
   -0.9534   -2.1351   -2.9862 H   0  0  0  0  0  0  0  0  0  0  0  0
   -1.6081   -3.6085   -2.1874 H   0  0  0  0  0  0  0  0  0  0  0  0
    0.3883   -2.6004    1.2880 C   0  0  0  0  0  0  0  0  0  0  0  0
    0.1889   -3.1789    2.2201 H   0  0  0  0  0  0  0  0  0  0  0  0
    1.4944   -2.6187    1.1509 H   0  0  0  0  0  0  0  0  0  0  0  0
   -0.2813   -3.3175    0.1194 C   0  0  0  0  0  0  0  0  0  0  0  0
   -1.3655   -3.4029    0.3328 H   0  0  0  0  0  0  0  0  0  0  0  0
    0.1155   -4.3489   -0.0290 H   0  0  0  0  0  0  0  0  0  0  0  0
    3.3678   -0.4948    1.3464 C   0  0  0  0  0  0  0  0  0  0  0  0
    3.5794   -1.5502    1.6161 H   0  0  0  0  0  0  0  0  0  0  0  0
    2.3830   -0.2333    1.7773 H   0  0  0  0  0  0  0  0  0  0  0  0
    4.1441    0.1356    1.8263 H   0  0  0  0  0  0  0  0  0  0  0  0
    4.5836   -1.6291   -1.2036 C   0  0  0  0  0  0  0  0  0  0  0  0
    4.2165   -2.6613   -1.0291 H   0  0  0  0  0  0  0  0  0  0  0  0
    5.5482   -1.5268   -0.6631 H   0  0  0  0  0  0  0  0  0  0  0  0
    4.8009   -1.5184   -2.2856 H   0  0  0  0  0  0  0  0  0  0  0  0
    4.1771    1.3542   -1.0307 C   0  0  0  0  0  0  0  0  0  0  0  0
    3.6867    2.2269   -0.5587 H   0  0  0  0  0  0  0  0  0  0  0  0
    4.1331    1.4947   -2.1302 H   0  0  0  0  0  0  0  0  0  0  0  0
    5.2455    1.3596   -0.7276 H   0  0  0  0  0  0  0  0  0  0  0  0
   -3.7358    1.0270   -2.9841 C   0  0  0  0  0  0  0  0  0  0  0  0
   -3.9833    0.0618   -3.4703 H   0  0  0  0  0  0  0  0  0  0  0  0
   -2.9109    1.4944   -3.5602 H   0  0  0  0  0  0  0  0  0  0  0  0
   -4.6277    1.6818   -3.0698 H   0  0  0  0  0  0  0  0  0  0  0  0
   -4.7035    0.1359   -0.1863 C   0  0  0  0  0  0  0  0  0  0  0  0
   -4.4260   -0.0509    0.8719 H   0  0  0  0  0  0  0  0  0  0  0  0
   -5.0829   -0.8165   -0.6079 H   0  0  0  0  0  0  0  0  0  0  0  0
   -5.5427    0.8621   -0.1930 H   0  0  0  0  0  0  0  0  0  0  0  0
   -2.8510    2.5493   -0.5166 C   0  0  0  0  0  0  0  0  0  0  0  0
   -2.5856    2.5823    0.5570 H   0  0  0  0  0  0  0  0  0  0  0  0
   -3.7784    3.1452   -0.6510 H   0  0  0  0  0  0  0  0  0  0  0  0
   -2.0497    3.0471   -1.0930 H   0  0  0  0  0  0  0  0  0  0  0  0
   -1.7565    0.8895    2.8156 C   0  0  0  0  0  0  0  0  0  0  0  0
   -1.1046    1.7588    2.6088 H   0  0  0  0  0  0  0  0  0  0  0  0
   -2.2614    1.0676    3.7881 H   0  0  0  0  0  0  0  0  0  0  0  0
   -2.5399    0.8447    2.0336 H   0  0  0  0  0  0  0  0  0  0  0  0
   -2.1227   -2.0605    3.3988 C   0  0  0  0  0  0  0  0  0  0  0  0
   -1.6900   -3.0750    3.5153 H   0  0  0  0  0  0  0  0  0  0  0  0
   -2.9167   -2.1159    2.6248 H   0  0  0  0  0  0  0  0  0  0  0  0
   -2.6065   -1.7955    4.3620 H   0  0  0  0  0  0  0  0  0  0  0  0
    0.4897   -0.6679    4.2803 C   0  0  0  0  0  0  0  0  0  0  0  0
    1.2297    0.1311    4.0700 H   0  0  0  0  0  0  0  0  0  0  0  0
    1.0460   -1.6252    4.3517 H   0  0  0  0  0  0  0  0  0  0  0  0
    0.0363   -0.4636    5.2726 H   0  0  0  0  0  0  0  0  0  0  0  0
  1 26  1  0  0  0  0
  2  5  1  0  0  0  0
  2 46  1  0  0  0  0
  2 42  1  0  0  0  0
  3 54  1  0  0  0  0
  3 58  1  0  0  0  0
  4  1  1  0  0  0  0
  6  3  1  0  0  0  0
  7 23  1  0  0  0  0
  8 11  1  0  0  0  0
  8  4  1  0  0  0  0
  9  8  1  0  0  0  0
 10  8  1  0  0  0  0
 11 13  1  0  0  0  0
 11  7  1  0  0  0  0
 12 11  1  0  0  0  0
 14  5  1  0  0  0  0
 14 16  1  0  0  0  0
 15 14  1  0  0  0  0
 17 14  1  0  0  0  0
 17  7  1  0  0  0  0
 18 17  1  0  0  0  0
 19 17  1  0  0  0  0
 20  6  1  0  0  0  0
 20 21  1  0  0  0  0
 22 20  1  0  0  0  0
 23 24  1  0  0  0  0
 23 20  1  0  0  0  0
 25 23  1  0  0  0  0
 26 27  1  0  0  0  0
 26 28  1  0  0  0  0
 26 29  1  0  0  0  0
 30 31  1  0  0  0  0
 30 32  1  0  0  0  0
 30  1  1  0  0  0  0
 33 30  1  0  0  0  0
 34 37  1  0  0  0  0
 34 35  1  0  0  0  0
 34  1  1  0  0  0  0
 36 34  1  0  0  0  0
 38  2  1  0  0  0  0
 39 38  1  0  0  0  0
 40 38  1  0  0  0  0
 41 38  1  0  0  0  0
 42 43  1  0  0  0  0
 44 42  1  0  0  0  0
 45 42  1  0  0  0  0
 46 47  1  0  0  0  0
 48 46  1  0  0  0  0
 49 46  1  0  0  0  0
 50  3  1  0  0  0  0
 50 52  1  0  0  0  0
 51 50  1  0  0  0  0
 53 50  1  0  0  0  0
 54 55  1  0  0  0  0
 54 57  1  0  0  0  0
 56 54  1  0  0  0  0
 58 60  1  0  0  0  0
 58 61  1  0  0  0  0
 59 58  1  0  0  0  0
M  END
