5,6,7
q = -1.0

 52 53  0  0  1  0  0  0  0  0999 V2000
   -3.9851    1.8012    0.7102 O   0  0  0  0  0  0  0  0  0  0  0  0
    2.9099    2.0813   -0.9548 O   0  0  0  0  0  0  0  0  0  0  0  0
    3.3063   -0.0610    1.5435 O   0  0  0  0  0  0  0  0  0  0  0  0
    5.4404   -0.1333    0.7569 O   0  0  0  0  0  0  0  0  0  0  0  0
   -2.4306    0.1780    0.4226 N   0  0  0  0  0  2  0  0  0  0  0  0
   -0.5374    1.7964   -0.2363 N   0  0  0  0  0  2  0  0  0  0  0  0
    1.4985    0.2481   -0.5698 N   0  0  0  0  0  2  0  0  0  0  0  0
   -3.6714   -0.5737    0.7002 C   0  0  2  0  0  0  0  0  0  0  0  0
   -3.4490   -1.2834    1.5204 H   0  0  0  0  0  0  0  0  0  0  0  0
   -4.1699   -1.3583   -0.5419 C   0  0  0  0  0  0  0  0  0  0  0  0
   -5.1961   -1.6902   -0.2602 H   0  0  0  0  0  0  0  0  0  0  0  0
   -3.3294   -2.6106   -0.8076 C   0  0  0  0  0  0  0  0  0  0  0  0
   -3.7463   -3.1833   -1.6601 H   0  0  0  0  0  0  0  0  0  0  0  0
   -3.3090   -3.2749    0.0784 H   0  0  0  0  0  0  0  0  0  0  0  0
   -2.2803   -2.3488   -1.0497 H   0  0  0  0  0  0  0  0  0  0  0  0
   -4.2758   -0.4731   -1.7899 C   0  0  0  0  0  0  0  0  0  0  0  0
   -4.7459   -1.0305   -2.6239 H   0  0  0  0  0  0  0  0  0  0  0  0
   -3.2690   -0.1539   -2.1301 H   0  0  0  0  0  0  0  0  0  0  0  0
   -4.8826    0.4400   -1.6183 H   0  0  0  0  0  0  0  0  0  0  0  0
   -4.6309    0.5585    1.1473 C   0  0  0  0  0  0  0  0  0  0  0  0
   -5.6292    0.5143    0.6718 H   0  0  0  0  0  0  0  0  0  0  0  0
   -4.7462    0.6213    2.2482 H   0  0  0  0  0  0  0  0  0  0  0  0
   -2.7353    1.4505    0.3932 C   0  0  0  0  0  0  0  0  0  0  0  0
   -1.7102    2.4278    0.0272 C   0  0  0  0  0  0  0  0  0  0  0  0
   -1.7943    3.8250   -0.0528 C   0  0  0  0  0  0  0  0  0  0  0  0
   -2.7461    4.3297    0.1607 H   0  0  0  0  0  0  0  0  0  0  0  0
   -0.6310    4.5372   -0.4017 C   0  0  0  0  0  0  0  0  0  0  0  0
   -0.6677    5.6342   -0.4739 H   0  0  0  0  0  0  0  0  0  0  0  0
    0.5744    3.8563   -0.6412 C   0  0  0  0  0  0  0  0  0  0  0  0
    1.5164    4.3635   -0.8944 H   0  0  0  0  0  0  0  0  0  0  0  0
    0.5901    2.4567   -0.5433 C   0  0  0  0  0  0  0  0  0  0  0  0
    1.8027    1.5746   -0.7161 C   0  0  0  0  0  0  0  0  0  0  0  0
    2.5891   -0.7159   -0.6813 C   0  0  2  0  0  0  0  0  0  0  0  0
    3.4636   -0.1554   -1.0796 H   0  0  0  0  0  0  0  0  0  0  0  0
    2.2718   -1.8574   -1.6791 C   0  0  0  0  0  0  0  0  0  0  0  0
    1.4029   -2.4171   -1.2755 H   0  0  0  0  0  0  0  0  0  0  0  0
    1.8857   -1.2728   -3.0428 C   0  0  0  0  0  0  0  0  0  0  0  0
    1.0158   -0.5918   -2.9566 H   0  0  0  0  0  0  0  0  0  0  0  0
    1.6214   -2.0789   -3.7571 H   0  0  0  0  0  0  0  0  0  0  0  0
    2.7264   -0.6928   -3.4802 H   0  0  0  0  0  0  0  0  0  0  0  0
    3.4591   -2.8197   -1.8193 C   0  0  0  0  0  0  0  0  0  0  0  0
    3.6677   -3.3786   -0.8856 H   0  0  0  0  0  0  0  0  0  0  0  0
    4.3866   -2.2756   -2.0979 H   0  0  0  0  0  0  0  0  0  0  0  0
    3.2577   -3.5697   -2.6111 H   0  0  0  0  0  0  0  0  0  0  0  0
    2.9765   -1.1987    0.7250 C   0  0  0  0  0  0  0  0  0  0  0  0
    2.1162   -1.6905    1.2147 H   0  0  0  0  0  0  0  0  0  0  0  0
    3.8478   -1.8788    0.6768 H   0  0  0  0  0  0  0  0  0  0  0  0
    4.5661    0.4356    1.3826 C   0  0  0  0  0  0  0  0  0  0  0  0
    4.6880    1.7909    2.0300 C   0  0  0  0  0  0  0  0  0  0  0  0
    5.7491    2.0195    2.2322 H   0  0  0  0  0  0  0  0  0  0  0  0
    4.0804    1.8591    2.9516 H   0  0  0  0  0  0  0  0  0  0  0  0
    4.2917    2.5267    1.2987 H   0  0  0  0  0  0  0  0  0  0  0  0
  1 20  1  0  0  0  0
  2 32  2  0  0  0  0
  4 48  2  0  0  0  0
  5  8  1  0  0  0  0
  6 24  1  0  0  0  0
  8 20  1  0  0  0  0
  8  9  1  1  0  0  0
 10 11  1  0  0  0  0
 10  8  1  0  0  0  0
 12 10  1  0  0  0  0
 12 14  1  0  0  0  0
 13 12  1  0  0  0  0
 15 12  1  0  0  0  0
 16 19  1  0  0  0  0
 16 10  1  0  0  0  0
 17 16  1  0  0  0  0
 18 16  1  0  0  0  0
 20 22  1  0  0  0  0
 21 20  1  0  0  0  0
 23  5  1  0  0  0  0
 23  1  1  0  0  0  0
 24 23  2  0  0  0  0
 25 24  1  0  0  0  0
 25 26  1  0  0  0  0
 27 25  2  0  0  0  0
 28 27  1  0  0  0  0
 29 31  2  0  0  0  0
 29 27  1  0  0  0  0
 30 29  1  0  0  0  0
 31  6  1  0  0  0  0
 32  7  1  0  0  0  0
 32 31  1  0  0  0  0
 33 34  1  6  0  0  0
 33  7  1  0  0  0  0
 33 45  1  0  0  0  0
 35 36  1  0  0  0  0
 35 33  1  0  0  0  0
 37 38  1  0  0  0  0
 37 35  1  0  0  0  0
 39 37  1  0  0  0  0
 40 37  1  0  0  0  0
 41 35  1  0  0  0  0
 41 42  1  0  0  0  0
 43 41  1  0  0  0  0
 44 41  1  0  0  0  0
 45 46  1  0  0  0  0
 45  3  1  0  0  0  0
 47 45  1  0  0  0  0
 48  3  1  0  0  0  0
 48 49  1  0  0  0  0
 49 50  1  0  0  0  0
 49 51  1  0  0  0  0
 52 49  1  0  0  0  0
M  END
