5,6,7
q = -1.0

 54 57  0  0  1  0  0  0  0  0999 V2000
   -4.2402    2.1542    0.6595 O   0  0  0  0  0  0  0  0  0  0  0  0
    2.6345    2.3742   -1.1519 O   0  0  0  0  0  0  0  0  0  0  0  0
    3.8909   -1.6963   -1.7273 O   0  0  0  0  0  0  0  0  0  0  0  0
    5.7452   -0.4624   -2.2270 O   0  0  0  0  0  0  0  0  0  0  0  0
   -2.6169    0.5750    0.6012 N   0  0  0  0  0  2  0  0  0  0  0  0
   -0.7791    2.1483   -0.2467 N   0  0  0  0  0  2  0  0  0  0  0  0
    1.2742    0.6010   -0.4537 N   0  0  0  0  0  2  0  0  0  0  0  0
   -4.1707   -1.2062   -0.0864 C   0  0  0  0  0  0  0  0  0  0  0  0
   -4.1329   -2.5822    0.2030 C   0  0  0  0  0  0  0  0  0  0  0  0
   -3.8224   -2.9064    1.2075 H   0  0  0  0  0  0  0  0  0  0  0  0
   -4.4491   -3.5217   -0.7905 C   0  0  0  0  0  0  0  0  0  0  0  0
   -4.4153   -4.5965   -0.5555 H   0  0  0  0  0  0  0  0  0  0  0  0
   -4.8001   -3.0947   -2.0804 C   0  0  0  0  0  0  0  0  0  0  0  0
   -5.0438   -3.8325   -2.8599 H   0  0  0  0  0  0  0  0  0  0  0  0
   -4.8347   -1.7220   -2.3767 C   0  0  0  0  0  0  0  0  0  0  0  0
   -5.1035   -1.3816   -3.3881 H   0  0  0  0  0  0  0  0  0  0  0  0
   -4.5210   -0.7833   -1.3840 C   0  0  0  0  0  0  0  0  0  0  0  0
   -4.5425    0.2916   -1.6282 H   0  0  0  0  0  0  0  0  0  0  0  0
   -3.8201   -0.1917    0.9881 C   0  0  2  0  0  0  0  0  0  0  0  0
   -3.5777   -0.7301    1.9226 H   0  0  0  0  0  0  0  0  0  0  0  0
   -4.8686    0.9412    1.1947 C   0  0  0  0  0  0  0  0  0  0  0  0
   -5.8114    0.7781    0.6401 H   0  0  0  0  0  0  0  0  0  0  0  0
   -5.0911    1.1320    2.2632 H   0  0  0  0  0  0  0  0  0  0  0  0
   -2.9693    1.8211    0.4137 C   0  0  0  0  0  0  0  0  0  0  0  0
   -1.9680    2.7780   -0.0617 C   0  0  0  0  0  0  0  0  0  0  0  0
   -2.0857    4.1509   -0.3215 C   0  0  0  0  0  0  0  0  0  0  0  0
   -3.0480    4.6583   -0.1696 H   0  0  0  0  0  0  0  0  0  0  0  0
   -0.9418    4.8373   -0.7725 C   0  0  0  0  0  0  0  0  0  0  0  0
   -1.0046    5.9151   -0.9832 H   0  0  0  0  0  0  0  0  0  0  0  0
    0.2750    4.1564   -0.9500 C   0  0  0  0  0  0  0  0  0  0  0  0
    1.1974    4.6466   -1.2934 H   0  0  0  0  0  0  0  0  0  0  0  0
    0.3253    2.7827   -0.6714 C   0  0  0  0  0  0  0  0  0  0  0  0
    1.5505    1.8995   -0.7891 C   0  0  0  0  0  0  0  0  0  0  0  0
    2.3470   -0.3963   -0.4113 C   0  0  2  0  0  0  0  0  0  0  0  0
    1.8285   -1.3587   -0.2256 H   0  0  0  0  0  0  0  0  0  0  0  0
    3.2698   -0.1516    0.7800 C   0  0  0  0  0  0  0  0  0  0  0  0
    4.4796    0.5631    0.6861 C   0  0  0  0  0  0  0  0  0  0  0  0
    4.8199    0.9451   -0.2857 H   0  0  0  0  0  0  0  0  0  0  0  0
    5.2600    0.7841    1.8325 C   0  0  0  0  0  0  0  0  0  0  0  0
    6.2071    1.3385    1.7432 H   0  0  0  0  0  0  0  0  0  0  0  0
    4.8401    0.3074    3.0839 C   0  0  0  0  0  0  0  0  0  0  0  0
    5.4554    0.4852    3.9795 H   0  0  0  0  0  0  0  0  0  0  0  0
    3.6311   -0.4005    3.1861 C   0  0  0  0  0  0  0  0  0  0  0  0
    3.2932   -0.7819    4.1621 H   0  0  0  0  0  0  0  0  0  0  0  0
    2.8555   -0.6288    2.0410 C   0  0  0  0  0  0  0  0  0  0  0  0
    1.9064   -1.1830    2.1123 H   0  0  0  0  0  0  0  0  0  0  0  0
    3.0467   -0.5323   -1.7715 C   0  0  0  0  0  0  0  0  0  0  0  0
    2.2779   -0.7070   -2.5515 H   0  0  0  0  0  0  0  0  0  0  0  0
    3.6411    0.3595   -2.0394 H   0  0  0  0  0  0  0  0  0  0  0  0
    5.2264   -1.5196   -1.9247 C   0  0  0  0  0  0  0  0  0  0  0  0
    5.9628   -2.8155   -1.6820 C   0  0  0  0  0  0  0  0  0  0  0  0
    6.9677   -2.7636   -2.1361 H   0  0  0  0  0  0  0  0  0  0  0  0
    5.3937   -3.6791   -2.0742 H   0  0  0  0  0  0  0  0  0  0  0  0
    6.0707   -2.9580   -0.5869 H   0  0  0  0  0  0  0  0  0  0  0  0
  1 21  1  0  0  0  0
  2 33  2  0  0  0  0
  4 50  2  0  0  0  0
  5 19  1  0  0  0  0
  6 25  1  0  0  0  0
  7 34  1  0  0  0  0
  8  9  1  0  0  0  0
  8 19  1  0  0  0  0
  9 10  1  0  0  0  0
 11 12  1  0  0  0  0
 11  9  2  0  0  0  0
 13 11  1  0  0  0  0
 14 13  1  0  0  0  0
 15 13  2  0  0  0  0
 15 17  1  0  0  0  0
 16 15  1  0  0  0  0
 17  8  2  0  0  0  0
 18 17  1  0  0  0  0
 19 21  1  0  0  0  0
 19 20  1  1  0  0  0
 21 23  1  0  0  0  0
 22 21  1  0  0  0  0
 24  5  1  0  0  0  0
 24  1  1  0  0  0  0
 25 24  2  0  0  0  0
 26 27  1  0  0  0  0
 26 25  1  0  0  0  0
 28 26  2  0  0  0  0
 29 28  1  0  0  0  0
 30 28  1  0  0  0  0
 30 32  2  0  0  0  0
 31 30  1  0  0  0  0
 32  6  1  0  0  0  0
 33 32  1  0  0  0  0
 33  7  1  0  0  0  0
 34 35  1  1  0  0  0
 34 36  1  0  0  0  0
 36 45  1  0  0  0  0
 37 36  2  0  0  0  0
 37 39  1  0  0  0  0
 38 37  1  0  0  0  0
 39 41  2  0  0  0  0
 40 39  1  0  0  0  0
 41 43  1  0  0  0  0
 41 42  1  0  0  0  0
 43 44  1  0  0  0  0
 45 46  1  0  0  0  0
 45 43  2  0  0  0  0
 47  3  1  0  0  0  0
 47 34  1  0  0  0  0
 48 47  1  0  0  0  0
 49 47  1  0  0  0  0
 50  3  1  0  0  0  0
 50 51  1  0  0  0  0
 51 54  1  0  0  0  0
 52 51  1  0  0  0  0
 53 51  1  0  0  0  0
M  END
