1,2,3
q = 0.0, confidence = 1.0

 38 38  0  0  0  0  0  0  0  0999 V2000
   -0.9601    0.6724    1.1718 N   0  0  0  0  0  0  0  0  0  0  0  0
    0.3552   -1.6568   -0.1717 N   0  0  0  0  0  0  0  0  0  0  0  0
    1.8386    0.4257    1.2705 N   0  0  0  0  0  0  0  0  0  0  0  0
   -2.4249   -1.6455    0.5183 N   0  0  0  0  0  0  0  0  0  0  0  0
   -3.5918   -0.7363    0.6222 C   0  0  0  0  0  0  0  0  0  0  0  0
   -2.0532   -1.9570   -0.8680 C   0  0  0  0  0  0  0  0  0  0  0  0
   -0.6040   -2.4246   -1.0109 C   0  0  0  0  0  0  0  0  0  0  0  0
    1.6860   -2.3258   -0.1794 C   0  0  0  0  0  0  0  0  0  0  0  0
    2.5482   -1.9867    1.0326 C   0  0  0  0  0  0  0  0  0  0  0  0
    2.9753   -0.5297    1.1836 C   0  0  0  0  0  0  0  0  0  0  0  0
    1.0480    0.3041    2.5177 C   0  0  0  0  0  0  0  0  0  0  0  0
   -0.2332    1.1025    2.3833 C   0  0  0  0  0  0  0  0  0  0  0  0
   -2.2356    1.4281    1.0185 C   0  0  0  0  0  0  0  0  0  0  0  0
   -3.2742    0.6962    0.1689 C   0  0  0  0  0  0  0  0  0  0  0  0
   -1.2688   -0.3286    1.2538 H   0  0  0  0  0  0  0  0  0  0  0  0
   -2.6594    1.5918    2.0361 H   0  0  0  0  0  0  0  0  0  0  0  0
   -2.0180    2.4316    0.5985 H   0  0  0  0  0  0  0  0  0  0  0  0
   -4.2138    1.2832    0.2177 H   0  0  0  0  0  0  0  0  0  0  0  0
   -2.9854    0.7143   -0.8999 H   0  0  0  0  0  0  0  0  0  0  0  0
   -2.6359   -2.5124    1.0292 H   0  0  0  0  0  0  0  0  0  0  0  0
   -3.9085   -0.7278    1.6867 H   0  0  0  0  0  0  0  0  0  0  0  0
   -4.4611   -1.1163    0.0354 H   0  0  0  0  0  0  0  0  0  0  0  0
   -2.7117   -2.7307   -1.3268 H   0  0  0  0  0  0  0  0  0  0  0  0
   -2.2046   -1.0472   -1.4718 H   0  0  0  0  0  0  0  0  0  0  0  0
   -0.5202   -3.5001   -0.7300 H   0  0  0  0  0  0  0  0  0  0  0  0
   -0.2921   -2.3488   -2.0717 H   0  0  0  0  0  0  0  0  0  0  0  0
   -0.0250   -1.7464    0.7849 H   0  0  0  0  0  0  0  0  0  0  0  0
    1.5341   -3.4281   -0.1968 H   0  0  0  0  0  0  0  0  0  0  0  0
    2.2012   -2.0649   -1.1254 H   0  0  0  0  0  0  0  0  0  0  0  0
    3.4739   -2.5937    0.9658 H   0  0  0  0  0  0  0  0  0  0  0  0
    2.0432   -2.3454    1.9568 H   0  0  0  0  0  0  0  0  0  0  0  0
    3.5907   -0.2234    0.3149 H   0  0  0  0  0  0  0  0  0  0  0  0
    3.6134   -0.4286    2.0897 H   0  0  0  0  0  0  0  0  0  0  0  0
    2.2499    1.3687    1.2608 H   0  0  0  0  0  0  0  0  0  0  0  0
    1.6338    0.6290    3.4051 H   0  0  0  0  0  0  0  0  0  0  0  0
    0.8062   -0.7666    2.6772 H   0  0  0  0  0  0  0  0  0  0  0  0
   -0.8593    0.9783    3.2952 H   0  0  0  0  0  0  0  0  0  0  0  0
   -0.0125    2.1880    2.2944 H   0  0  0  0  0  0  0  0  0  0  0  0
  1 15  1  0  0  0  0
  1 12  1  0  0  0  0
  2 27  1  0  0  0  0
  3 11  1  0  0  0  0
  4  5  1  0  0  0  0
  4 20  1  0  0  0  0
  5 21  1  0  0  0  0
  6  4  1  0  0  0  0
  7  6  1  0  0  0  0
  7 25  1  0  0  0  0
  7  2  1  0  0  0  0
  8  2  1  0  0  0  0
  8  9  1  0  0  0  0
  9 10  1  0  0  0  0
  9 31  1  0  0  0  0
 10  3  1  0  0  0  0
 10 33  1  0  0  0  0
 11 36  1  0  0  0  0
 11 35  1  0  0  0  0
 12 11  1  0  0  0  0
 12 37  1  0  0  0  0
 13  1  1  0  0  0  0
 13 16  1  0  0  0  0
 14 18  1  0  0  0  0
 14  5  1  0  0  0  0
 14 13  1  0  0  0  0
 17 13  1  0  0  0  0
 19 14  1  0  0  0  0
 22  5  1  0  0  0  0
 23  6  1  0  0  0  0
 24  6  1  0  0  0  0
 26  7  1  0  0  0  0
 28  8  1  0  0  0  0
 29  8  1  0  0  0  0
 30  9  1  0  0  0  0
 32 10  1  0  0  0  0
 34  3  1  0  0  0  0
 38 12  1  0  0  0  0
M  END
