3,4,5
q = -1.0, confidence = 0.022

 43 42  0  0  0  0  0  0  0  0999 V2000
   -1.7979    1.4998   -0.4463 Si  0  0  0  0  0  0  0  0  0  0  0  0
   -1.7994   -1.4979    0.4466 Si  0  0  0  0  0  0  0  0  0  0  0  0
   -0.9763    0.0006    0.0004 N   0  0  0  0  0  2  0  0  0  0  0  0
    0.7258    2.2328    0.5717 N   0  0  0  0  0  0  0  0  0  0  0  0
    0.7232   -2.2334   -0.5724 N   0  0  0  0  0  0  0  0  0  0  0  0
   -0.3806    2.7799   -0.2718 C   0  0  0  0  0  0  0  0  0  0  0  0
   -0.3834   -2.7795    0.2713 C   0  0  0  0  0  0  0  0  0  0  0  0
   -2.4291    1.4938   -2.2215 C   0  0  0  0  0  0  0  0  0  0  0  0
   -3.2324    1.8842    0.7290 C   0  0  0  0  0  0  0  0  0  0  0  0
   -2.4304   -1.4918    2.2218 C   0  0  0  0  0  0  0  0  0  0  0  0
   -3.2344   -1.8803   -0.7287 C   0  0  0  0  0  0  0  0  0  0  0  0
    0.3524    2.3558    1.9985 C   0  0  0  0  0  0  0  0  0  0  0  0
    1.9735    2.9940    0.3257 C   0  0  0  0  0  0  0  0  0  0  0  0
    0.3493   -2.3562   -1.9991 C   0  0  0  0  0  0  0  0  0  0  0  0
    1.9704   -2.9955   -0.3268 C   0  0  0  0  0  0  0  0  0  0  0  0
    0.0244    2.9500   -1.2878 H   0  0  0  0  0  0  0  0  0  0  0  0
   -0.7063    3.7668    0.1336 H   0  0  0  0  0  0  0  0  0  0  0  0
    0.0217   -2.9505    1.2872 H   0  0  0  0  0  0  0  0  0  0  0  0
   -0.7104   -3.7659   -0.1343 H   0  0  0  0  0  0  0  0  0  0  0  0
   -1.6014    1.2137   -2.9026 H   0  0  0  0  0  0  0  0  0  0  0  0
   -3.2604    0.7719   -2.3488 H   0  0  0  0  0  0  0  0  0  0  0  0
   -2.8024    2.4983   -2.5112 H   0  0  0  0  0  0  0  0  0  0  0  0
   -3.6587    2.8826    0.4969 H   0  0  0  0  0  0  0  0  0  0  0  0
   -4.0505    1.1427    0.6203 H   0  0  0  0  0  0  0  0  0  0  0  0
   -2.9121    1.8858    1.7899 H   0  0  0  0  0  0  0  0  0  0  0  0
   -3.2608   -0.7688    2.3493 H   0  0  0  0  0  0  0  0  0  0  0  0
   -2.8051   -2.4959    2.5111 H   0  0  0  0  0  0  0  0  0  0  0  0
   -1.6024   -1.2130    2.9030 H   0  0  0  0  0  0  0  0  0  0  0  0
   -2.9144   -1.8819   -1.7896 H   0  0  0  0  0  0  0  0  0  0  0  0
   -3.6617   -2.8784   -0.4969 H   0  0  0  0  0  0  0  0  0  0  0  0
   -4.0518   -1.1381   -0.6195 H   0  0  0  0  0  0  0  0  0  0  0  0
    0.1454    3.4225    2.2452 H   0  0  0  0  0  0  0  0  0  0  0  0
   -0.5462    1.7469    2.2052 H   0  0  0  0  0  0  0  0  0  0  0  0
    1.1721    1.9753    2.6327 H   0  0  0  0  0  0  0  0  0  0  0  0
    2.7799    2.5992    0.9697 H   0  0  0  0  0  0  0  0  0  0  0  0
    2.2743    2.8607   -0.7292 H   0  0  0  0  0  0  0  0  0  0  0  0
    1.8085    4.0742    0.5403 H   0  0  0  0  0  0  0  0  0  0  0  0
    1.1691   -1.9765   -2.6336 H   0  0  0  0  0  0  0  0  0  0  0  0
    0.1413   -3.4226   -2.2456 H   0  0  0  0  0  0  0  0  0  0  0  0
   -0.5488   -1.7464   -2.2055 H   0  0  0  0  0  0  0  0  0  0  0  0
    2.2715   -2.8628    0.7281 H   0  0  0  0  0  0  0  0  0  0  0  0
    1.8048   -4.0756   -0.5418 H   0  0  0  0  0  0  0  0  0  0  0  0
    2.7770   -2.6010   -0.9708 H   0  0  0  0  0  0  0  0  0  0  0  0
  1  6  1  0  0  0  0
  1  3  1  0  0  0  0
  1  9  1  0  0  0  0
  2 10  1  0  0  0  0
  3  2  1  0  0  0  0
  4 12  1  0  0  0  0
  5 15  1  0  0  0  0
  5  7  1  0  0  0  0
  6 17  1  0  0  0  0
  6  4  1  0  0  0  0
  7  2  1  0  0  0  0
  7 18  1  0  0  0  0
  8  1  1  0  0  0  0
  9 25  1  0  0  0  0
 10 26  1  0  0  0  0
 10 27  1  0  0  0  0
 10 28  1  0  0  0  0
 11 31  1  0  0  0  0
 11 30  1  0  0  0  0
 11  2  1  0  0  0  0
 12 33  1  0  0  0  0
 12 32  1  0  0  0  0
 12 34  1  0  0  0  0
 13 37  1  0  0  0  0
 13  4  1  0  0  0  0
 13 35  1  0  0  0  0
 14  5  1  0  0  0  0
 15 41  1  0  0  0  0
 16  6  1  0  0  0  0
 19  7  1  0  0  0  0
 20  8  1  0  0  0  0
 21  8  1  0  0  0  0
 22  8  1  0  0  0  0
 23  9  1  0  0  0  0
 24  9  1  0  0  0  0
 29 11  1  0  0  0  0
 36 13  1  0  0  0  0
 38 14  1  0  0  0  0
 39 14  1  0  0  0  0
 40 14  1  0  0  0  0
 42 15  1  0  0  0  0
 43 15  1  0  0  0  0
M  END
