1,25,34
q = 0.0, confidence = 0.994

 57 63  0  0  1  0  0  0  0  0999 V2000
   -2.0538   -1.1240   -0.2216 N   0  0  0  0  0  2  0  0  0  0  0  0
   -3.2706   -1.7652   -0.2434 C   0  0  0  0  0  0  0  0  0  0  0  0
   -3.5684   -3.1410   -0.3090 C   0  0  0  0  0  0  0  0  0  0  0  0
   -2.7409   -3.8663   -0.3549 H   0  0  0  0  0  0  0  0  0  0  0  0
   -4.9202   -3.4940   -0.3225 C   0  0  0  0  0  0  0  0  0  0  0  0
   -5.1999   -4.5569   -0.3719 H   0  0  0  0  0  0  0  0  0  0  0  0
   -5.9490   -2.5161   -0.2778 C   0  0  0  0  0  0  0  0  0  0  0  0
   -6.9992   -2.8445   -0.2939 H   0  0  0  0  0  0  0  0  0  0  0  0
   -5.6686   -1.1449   -0.2150 C   0  0  0  0  0  0  0  0  0  0  0  0
   -6.4664   -0.3894   -0.1837 H   0  0  0  0  0  0  0  0  0  0  0  0
   -4.3108   -0.7914   -0.1913 C   0  0  0  0  0  0  0  0  0  0  0  0
   -3.6620    0.4453   -0.1427 N   0  0  0  0  0  0  0  0  0  0  0  0
   -4.3179    1.7128   -0.1571 C   0  0  0  0  0  0  0  0  0  0  0  0
   -5.0601    2.1216    0.9649 C   0  0  0  0  0  0  0  0  0  0  0  0
   -5.1121    1.4638    1.8446 H   0  0  0  0  0  0  0  0  0  0  0  0
   -5.7066    3.3663    0.9475 C   0  0  0  0  0  0  0  0  0  0  0  0
   -6.2857    3.6905    1.8250 H   0  0  0  0  0  0  0  0  0  0  0  0
   -5.6068    4.1989   -0.1790 C   0  0  0  0  0  0  0  0  0  0  0  0
   -6.1110    5.1767   -0.1864 H   0  0  0  0  0  0  0  0  0  0  0  0
   -4.8677    3.7816   -1.2983 C   0  0  0  0  0  0  0  0  0  0  0  0
   -4.7952    4.4284   -2.1854 H   0  0  0  0  0  0  0  0  0  0  0  0
   -4.2289    2.5337   -1.2958 C   0  0  0  0  0  0  0  0  0  0  0  0
   -3.6550    2.1861   -2.1672 H   0  0  0  0  0  0  0  0  0  0  0  0
   -2.2987    0.1822   -0.1602 C   0  0  0  0  0  0  0  0  0  0  0  0
    0.0000    0.4935   -0.2108 N   0  0  0  0  0  2  0  0  0  0  0  0
   -1.1729    1.1237   -0.0435 C   0  0  0  0  0  0  0  0  0  0  0  0
   -1.2199    2.4961    0.2822 C   0  0  0  0  0  0  0  0  0  0  0  0
   -2.1723    3.0182    0.4346 H   0  0  0  0  0  0  0  0  0  0  0  0
    0.0000    3.1708    0.4385 C   0  0  0  0  0  0  0  0  0  0  0  0
    0.0000    4.2375    0.7074 H   0  0  0  0  0  0  0  0  0  0  0  0
    1.2199    2.4961    0.2822 C   0  0  0  0  0  0  0  0  0  0  0  0
    2.1723    3.0182    0.4346 H   0  0  0  0  0  0  0  0  0  0  0  0
    1.1729    1.1237   -0.0435 C   0  0  0  0  0  0  0  0  0  0  0  0
    2.0539   -1.1240   -0.2216 N   0  0  0  0  0  2  0  0  0  0  0  0
    2.2987    0.1822   -0.1602 C   0  0  2  0  0  3  0  0  0  0  0  0
    3.6620    0.4453   -0.1428 N   0  0  0  0  0  0  0  0  0  0  0  0
    4.3179    1.7128   -0.1570 C   0  0  0  0  0  0  0  0  0  0  0  0
    4.2293    2.5336   -1.2958 C   0  0  0  0  0  0  0  0  0  0  0  0
    3.6558    2.1860   -2.1674 H   0  0  0  0  0  0  0  0  0  0  0  0
    4.8680    3.7816   -1.2981 C   0  0  0  0  0  0  0  0  0  0  0  0
    4.7959    4.4284   -2.1852 H   0  0  0  0  0  0  0  0  0  0  0  0
    5.6067    4.1989   -0.1785 C   0  0  0  0  0  0  0  0  0  0  0  0
    6.1108    5.1768   -0.1857 H   0  0  0  0  0  0  0  0  0  0  0  0
    5.7060    3.3664    0.9481 C   0  0  0  0  0  0  0  0  0  0  0  0
    6.2848    3.6907    1.8258 H   0  0  0  0  0  0  0  0  0  0  0  0
    5.0596    2.1217    0.9653 C   0  0  0  0  0  0  0  0  0  0  0  0
    5.1114    1.4638    1.8450 H   0  0  0  0  0  0  0  0  0  0  0  0
    4.3108   -0.7914   -0.1914 C   0  0  0  0  0  0  0  0  0  0  0  0
    5.6686   -1.1449   -0.2153 C   0  0  0  0  0  0  0  0  0  0  0  0
    6.4665   -0.3893   -0.1840 H   0  0  0  0  0  0  0  0  0  0  0  0
    5.9490   -2.5161   -0.2781 C   0  0  0  0  0  0  0  0  0  0  0  0
    6.9992   -2.8444   -0.2943 H   0  0  0  0  0  0  0  0  0  0  0  0
    4.9202   -3.4940   -0.3227 C   0  0  0  0  0  0  0  0  0  0  0  0
    5.1999   -4.5569   -0.3722 H   0  0  0  0  0  0  0  0  0  0  0  0
    3.5684   -3.1410   -0.3092 C   0  0  0  0  0  0  0  0  0  0  0  0
    2.7409   -3.8663   -0.3551 H   0  0  0  0  0  0  0  0  0  0  0  0
    3.2706   -1.7652   -0.2435 C   0  0  0  0  0  0  0  0  0  0  0  0
  1 24  1  0  0  0  0
  2  1  1  0  0  0  0
  2 11  1  0  0  0  0
  3  2  2  0  0  0  0
  4  3  1  0  0  0  0
  5  3  1  0  0  0  0
  5  7  2  0  0  0  0
  6  5  1  0  0  0  0
  7  9  1  0  0  0  0
  8  7  1  0  0  0  0
  9 11  2  0  0  0  0
  9 10  1  0  0  0  0
 11 12  1  0  0  0  0
 13 12  1  0  0  0  0
 13 14  1  0  0  0  0
 14 15  1  0  0  0  0
 16 14  2  0  0  0  0
 16 17  1  0  0  0  0
 18 16  1  0  0  0  0
 19 18  1  0  0  0  0
 20 22  1  0  0  0  0
 20 18  2  0  0  0  0
 21 20  1  0  0  0  0
 22 13  2  0  0  0  0
 23 22  1  0  0  0  0
 24 12  1  0  0  0  0
 24 26  2  0  0  0  0
 25 26  1  0  0  0  0
 25 33  1  0  0  0  0
 26 27  1  0  0  0  0
 27 28  1  0  0  0  0
 27 29  2  0  0  0  0
 29 30  1  0  0  0  0
 31 32  1  0  0  0  0
 31 29  1  0  0  0  0
 33 31  2  0  0  0  0
 34 35  1  0  0  0  0
 35 36  1  0  0  0  0
 35 33  1  1  0  0  0
 37 36  1  0  0  0  0
 37 46  1  0  0  0  0
 38 37  2  0  0  0  0
 39 38  1  0  0  0  0
 40 38  1  0  0  0  0
 40 42  2  0  0  0  0
 41 40  1  0  0  0  0
 42 44  1  0  0  0  0
 43 42  1  0  0  0  0
 44 46  2  0  0  0  0
 44 45  1  0  0  0  0
 46 47  1  0  0  0  0
 48 36  1  0  0  0  0
 49 48  1  0  0  0  0
 49 50  1  0  0  0  0
 51 49  2  0  0  0  0
 52 51  1  0  0  0  0
 53 55  2  0  0  0  0
 53 51  1  0  0  0  0
 54 53  1  0  0  0  0
 55 57  1  0  0  0  0
 56 55  1  0  0  0  0
 57 34  1  0  0  0  0
 57 48  2  0  0  0  0
M  END
