1,15,29
q = 0.0, confidence = 1.0

 42 42  0  0  0  0  0  0  0  0999 V2000
   -0.6942    1.7611   -0.1133 N   0  0  0  0  0  0  0  0  0  0  0  0
   -0.5150    2.7460    0.9836 C   0  0  0  0  0  0  0  0  0  0  0  0
   -1.0364    3.6988    0.7450 H   0  0  0  0  0  0  0  0  0  0  0  0
    0.5600    2.9543    1.1337 H   0  0  0  0  0  0  0  0  0  0  0  0
   -0.9060    2.3227    1.9282 H   0  0  0  0  0  0  0  0  0  0  0  0
   -2.1514    1.5104   -0.3004 C   0  0  0  0  0  0  0  0  0  0  0  0
   -2.6689    2.4726   -0.5202 H   0  0  0  0  0  0  0  0  0  0  0  0
   -2.5223    1.1841    0.6934 H   0  0  0  0  0  0  0  0  0  0  0  0
   -2.5500    0.4884   -1.3809 C   0  0  0  0  0  0  0  0  0  0  0  0
   -3.5986    0.2058   -1.1563 H   0  0  0  0  0  0  0  0  0  0  0  0
   -2.6016    0.9819   -2.3732 H   0  0  0  0  0  0  0  0  0  0  0  0
   -1.6970   -0.7767   -1.5814 C   0  0  0  0  0  0  0  0  0  0  0  0
   -2.2889   -1.5122   -2.1748 H   0  0  0  0  0  0  0  0  0  0  0  0
   -0.8102   -0.5313   -2.1980 H   0  0  0  0  0  0  0  0  0  0  0  0
   -1.1921   -1.4264   -0.3463 N   0  0  0  0  0  0  0  0  0  0  0  0
   -2.2971   -1.8633    0.5401 C   0  0  0  0  0  0  0  0  0  0  0  0
   -2.8881   -2.6747    0.0612 H   0  0  0  0  0  0  0  0  0  0  0  0
   -2.9700   -1.0168    0.7639 H   0  0  0  0  0  0  0  0  0  0  0  0
   -1.8742   -2.2158    1.4993 H   0  0  0  0  0  0  0  0  0  0  0  0
   -0.3409   -2.6131   -0.6637 C   0  0  0  0  0  0  0  0  0  0  0  0
   -0.9471   -3.3272   -1.2678 H   0  0  0  0  0  0  0  0  0  0  0  0
   -0.1306   -3.1112    0.3052 H   0  0  0  0  0  0  0  0  0  0  0  0
    0.9826   -2.3404   -1.3863 C   0  0  0  0  0  0  0  0  0  0  0  0
    1.3772   -3.3355   -1.6776 H   0  0  0  0  0  0  0  0  0  0  0  0
    0.8166   -1.8239   -2.3547 H   0  0  0  0  0  0  0  0  0  0  0  0
    2.0947   -1.6675   -0.5762 C   0  0  0  0  0  0  0  0  0  0  0  0
    2.2038   -2.1899    0.3966 H   0  0  0  0  0  0  0  0  0  0  0  0
    3.0657   -1.7795   -1.1112 H   0  0  0  0  0  0  0  0  0  0  0  0
    1.8930   -0.2211   -0.2576 N   0  0  0  0  0  0  0  0  0  0  0  0
    2.8881    0.1854    0.7679 C   0  0  0  0  0  0  0  0  0  0  0  0
    3.9221   -0.0175    0.4126 H   0  0  0  0  0  0  0  0  0  0  0  0
    2.6909   -0.3628    1.7082 H   0  0  0  0  0  0  0  0  0  0  0  0
    2.7910    1.2645    0.9854 H   0  0  0  0  0  0  0  0  0  0  0  0
    2.0263    0.6243   -1.4799 C   0  0  0  0  0  0  0  0  0  0  0  0
    1.4879    0.1163   -2.3049 H   0  0  0  0  0  0  0  0  0  0  0  0
    3.1009    0.6441   -1.7729 H   0  0  0  0  0  0  0  0  0  0  0  0
    1.5014    2.0592   -1.3549 C   0  0  0  0  0  0  0  0  0  0  0  0
    1.8856    2.6147   -2.2347 H   0  0  0  0  0  0  0  0  0  0  0  0
    1.9551    2.5728   -0.4820 H   0  0  0  0  0  0  0  0  0  0  0  0
   -0.0213    2.2270   -1.3565 C   0  0  0  0  0  0  0  0  0  0  0  0
   -0.2833    3.2961   -1.5273 H   0  0  0  0  0  0  0  0  0  0  0  0
   -0.4448    1.6628   -2.2105 H   0  0  0  0  0  0  0  0  0  0  0  0
  1  2  1  0  0  0  0
  2  4  1  0  0  0  0
  2  5  1  0  0  0  0
  3  2  1  0  0  0  0
  6  1  1  0  0  0  0
  6  8  1  0  0  0  0
  7  6  1  0  0  0  0
  9 10  1  0  0  0  0
  9  6  1  0  0  0  0
 11  9  1  0  0  0  0
 12  9  1  0  0  0  0
 12 15  1  0  0  0  0
 13 12  1  0  0  0  0
 14 12  1  0  0  0  0
 15 16  1  0  0  0  0
 16 18  1  0  0  0  0
 16 19  1  0  0  0  0
 17 16  1  0  0  0  0
 20 15  1  0  0  0  0
 20 22  1  0  0  0  0
 21 20  1  0  0  0  0
 23 20  1  0  0  0  0
 23 26  1  0  0  0  0
 24 23  1  0  0  0  0
 25 23  1  0  0  0  0
 26 29  1  0  0  0  0
 26 27  1  0  0  0  0
 28 26  1  0  0  0  0
 29 30  1  0  0  0  0
 30 33  1  0  0  0  0
 30 32  1  0  0  0  0
 31 30  1  0  0  0  0
 34 37  1  0  0  0  0
 34 29  1  0  0  0  0
 35 34  1  0  0  0  0
 36 34  1  0  0  0  0
 37 39  1  0  0  0  0
 38 37  1  0  0  0  0
 40 37  1  0  0  0  0
 40  1  1  0  0  0  0
 41 40  1  0  0  0  0
 42 40  1  0  0  0  0
M  END
