1,2,3
q = 0.0, confidence = 0.998

 41 43  0  0  1  0  0  0  0  0999 V2000
    1.8671   -0.9730   -0.1894 N   0  0  0  0  0  2  0  0  0  0  0  0
   -0.0129    0.9596   -0.7514 N   0  0  0  0  0  0  0  0  0  0  0  0
   -2.1333   -0.6308   -0.0810 N   0  0  0  0  0  2  0  0  0  0  0  0
    2.7346   -1.8559    0.3508 C   0  0  0  0  0  3  0  0  0  0  0  0
    2.2735   -2.6843    0.9115 H   0  0  0  0  0  0  0  0  0  0  0  0
    4.1153   -1.7116    0.1802 C   0  0  0  0  0  0  0  0  0  0  0  0
    4.7952   -2.4492    0.6287 H   0  0  0  0  0  0  0  0  0  0  0  0
    4.5998   -0.6248   -0.5605 C   0  0  0  0  0  0  0  0  0  0  0  0
    5.6809   -0.4849   -0.7074 H   0  0  0  0  0  0  0  0  0  0  0  0
    3.6892    0.2896   -1.1117 C   0  0  0  0  0  0  0  0  0  0  0  0
    4.0382    1.1545   -1.6941 H   0  0  0  0  0  0  0  0  0  0  0  0
    2.3180    0.0919   -0.9138 C   0  0  0  0  0  0  0  0  0  0  0  0
    1.2600    0.9787   -1.5341 C   0  0  0  0  0  0  0  0  0  0  0  0
    1.6396    2.0131   -1.6670 H   0  0  0  0  0  0  0  0  0  0  0  0
    1.0323    0.5871   -2.5476 H   0  0  0  0  0  0  0  0  0  0  0  0
   -1.2489    1.0542   -1.5929 C   0  0  0  0  0  0  0  0  0  0  0  0
   -1.0746    0.4557   -2.5114 H   0  0  0  0  0  0  0  0  0  0  0  0
   -1.4533    2.0993   -1.9045 H   0  0  0  0  0  0  0  0  0  0  0  0
   -2.4247    0.4593   -0.8519 C   0  0  1  0  0  3  0  0  0  0  0  0
   -3.7395    0.9192   -0.9696 C   0  0  0  0  0  0  0  0  0  0  0  0
   -3.9572    1.8031   -1.5861 H   0  0  0  0  0  0  0  0  0  0  0  0
   -4.7656    0.2328   -0.2991 C   0  0  0  0  0  0  0  0  0  0  0  0
   -5.8070    0.5771   -0.3828 H   0  0  0  0  0  0  0  0  0  0  0  0
   -4.4464   -0.8890    0.4769 C   0  0  0  0  0  0  0  0  0  0  0  0
   -5.2212   -1.4536    1.0142 H   0  0  0  0  0  0  0  0  0  0  0  0
   -3.1097   -1.2945    0.5716 C   0  0  0  0  0  0  0  0  0  0  0  0
   -2.7771   -2.1660    1.1575 H   0  0  0  0  0  0  0  0  0  0  0  0
   -0.0641    1.9703    0.3658 C   0  0  0  0  0  0  0  0  0  0  0  0
   -1.0184    1.7518    0.8871 H   0  0  0  0  0  0  0  0  0  0  0  0
    1.0601    1.8689    1.4072 C   0  0  0  0  0  0  0  0  0  0  0  0
    0.9590    0.9777    2.0576 H   0  0  0  0  0  0  0  0  0  0  0  0
    2.0534    1.8135    0.9134 H   0  0  0  0  0  0  0  0  0  0  0  0
    0.9355    3.2122    2.1354 C   0  0  0  0  0  0  0  0  0  0  0  0
    0.0391    3.2025    2.7913 H   0  0  0  0  0  0  0  0  0  0  0  0
    1.8067    3.4373    2.7796 H   0  0  0  0  0  0  0  0  0  0  0  0
    0.7523    4.2172    0.9826 C   0  0  0  0  0  0  0  0  0  0  0  0
    1.7440    4.4904    0.5674 H   0  0  0  0  0  0  0  0  0  0  0  0
    0.2712    5.1605    1.3031 H   0  0  0  0  0  0  0  0  0  0  0  0
   -0.0778    3.4611   -0.0889 C   0  0  0  0  0  0  0  0  0  0  0  0
    0.3574    3.5900   -1.1016 H   0  0  0  0  0  0  0  0  0  0  0  0
   -1.1177    3.8380   -0.1491 H   0  0  0  0  0  0  0  0  0  0  0  0
  1  4  1  0  0  0  0
  2 28  1  0  0  0  0
  3 26  1  0  0  0  0
  4  5  1  0  0  0  0
  6  4  1  0  0  0  0
  6  7  1  0  0  0  0
  8  6  2  0  0  0  0
  9  8  1  0  0  0  0
 10 12  2  0  0  0  0
 10  8  1  0  0  0  0
 11 10  1  0  0  0  0
 12  1  1  0  0  0  0
 13 12  1  0  0  0  0
 13  2  1  0  0  0  0
 14 13  1  0  0  0  0
 15 13  1  0  0  0  0
 16  2  1  0  0  0  0
 17 16  1  0  0  0  0
 18 16  1  0  0  0  0
 19 16  1  6  0  0  0
 19  3  1  0  0  0  0
 20 19  1  0  0  0  0
 20 22  2  0  0  0  0
 21 20  1  0  0  0  0
 22 24  1  0  0  0  0
 23 22  1  0  0  0  0
 24 26  2  0  0  0  0
 24 25  1  0  0  0  0
 26 27  1  0  0  0  0
 28 29  1  0  0  0  0
 28 30  1  0  0  0  0
 30 31  1  0  0  0  0
 30 33  1  0  0  0  0
 32 30  1  0  0  0  0
 33 35  1  0  0  0  0
 33 34  1  0  0  0  0
 36 38  1  0  0  0  0
 36 33  1  0  0  0  0
 37 36  1  0  0  0  0
 39 28  1  0  0  0  0
 39 36  1  0  0  0  0
 40 39  1  0  0  0  0
 41 39  1  0  0  0  0
M  END
