1,3,5
q = 0.0, confidence = 1.0

 52 55  0  0  0  0  0  0  0  0999 V2000
    2.0925   -0.1380   -0.2695 N   0  0  0  0  0  0  0  0  0  0  0  0
    2.0933    0.6101   -0.9795 H   0  0  0  0  0  0  0  0  0  0  0  0
   -2.0924   -0.1380   -0.2696 N   0  0  0  0  0  0  0  0  0  0  0  0
   -2.0933    0.6101   -0.9795 H   0  0  0  0  0  0  0  0  0  0  0  0
   -0.0000   -1.8093   -1.0864 N   0  0  0  0  0  0  0  0  0  0  0  0
   -0.0000   -2.4631   -0.2854 H   0  0  0  0  0  0  0  0  0  0  0  0
    7.7508   -1.0593    0.2437 O   0  0  0  0  0  0  0  0  0  0  0  0
    8.3314    0.9655   -0.7217 O   0  0  0  0  0  0  0  0  0  0  0  0
   -7.7508   -1.0593    0.2437 O   0  0  0  0  0  0  0  0  0  0  0  0
   -8.3314    0.9654   -0.7217 O   0  0  0  0  0  0  0  0  0  0  0  0
    2.9470    0.2860    0.8609 C   0  0  0  0  0  0  0  0  0  0  0  0
    2.8455   -0.4857    1.6511 H   0  0  0  0  0  0  0  0  0  0  0  0
    2.4854    1.2177    1.2476 H   0  0  0  0  0  0  0  0  0  0  0  0
    4.3900    0.5242    0.4785 C   0  0  0  0  0  0  0  0  0  0  0  0
    5.3580   -0.5008    0.6465 C   0  0  0  0  0  0  0  0  0  0  0  0
    5.0981   -1.4639    1.1087 H   0  0  0  0  0  0  0  0  0  0  0  0
    6.6530   -0.2357    0.2175 C   0  0  0  0  0  0  0  0  0  0  0  0
    7.0054    0.9923   -0.3684 C   0  0  0  0  0  0  0  0  0  0  0  0
    6.0744    2.0098   -0.5469 C   0  0  0  0  0  0  0  0  0  0  0  0
    6.3591    2.9692   -1.0000 H   0  0  0  0  0  0  0  0  0  0  0  0
    4.7565    1.7517   -0.1079 C   0  0  0  0  0  0  0  0  0  0  0  0
    3.9908    2.5365   -0.2159 H   0  0  0  0  0  0  0  0  0  0  0  0
    8.8550   -0.2384   -0.1516 C   0  0  0  0  0  0  0  0  0  0  0  0
    9.4663   -0.7745   -0.9082 H   0  0  0  0  0  0  0  0  0  0  0  0
    9.4756    0.0109    0.7448 H   0  0  0  0  0  0  0  0  0  0  0  0
   -2.9470    0.2860    0.8609 C   0  0  0  0  0  0  0  0  0  0  0  0
   -2.4854    1.2177    1.2476 H   0  0  0  0  0  0  0  0  0  0  0  0
   -2.8455   -0.4856    1.6511 H   0  0  0  0  0  0  0  0  0  0  0  0
   -4.3900    0.5243    0.4785 C   0  0  0  0  0  0  0  0  0  0  0  0
   -5.3580   -0.5008    0.6465 C   0  0  0  0  0  0  0  0  0  0  0  0
   -5.0981   -1.4639    1.1088 H   0  0  0  0  0  0  0  0  0  0  0  0
   -6.6530   -0.2357    0.2175 C   0  0  0  0  0  0  0  0  0  0  0  0
   -7.0054    0.9923   -0.3685 C   0  0  0  0  0  0  0  0  0  0  0  0
   -6.0744    2.0098   -0.5470 C   0  0  0  0  0  0  0  0  0  0  0  0
   -6.3591    2.9692   -1.0002 H   0  0  0  0  0  0  0  0  0  0  0  0
   -4.7565    1.7517   -0.1080 C   0  0  0  0  0  0  0  0  0  0  0  0
   -3.9908    2.5365   -0.2160 H   0  0  0  0  0  0  0  0  0  0  0  0
   -8.8550   -0.2383   -0.1514 C   0  0  0  0  0  0  0  0  0  0  0  0
   -9.4754    0.0111    0.7451 H   0  0  0  0  0  0  0  0  0  0  0  0
   -9.4665   -0.7745   -0.9078 H   0  0  0  0  0  0  0  0  0  0  0  0
    2.3980   -1.4369   -0.8700 C   0  0  0  0  0  0  0  0  0  0  0  0
    3.3712   -1.4550   -1.4109 H   0  0  0  0  0  0  0  0  0  0  0  0
    2.4719   -2.1698   -0.0374 H   0  0  0  0  0  0  0  0  0  0  0  0
    1.2613   -1.8549   -1.8124 C   0  0  0  0  0  0  0  0  0  0  0  0
    1.1944   -1.1417   -2.6642 H   0  0  0  0  0  0  0  0  0  0  0  0
    1.4913   -2.8546   -2.2527 H   0  0  0  0  0  0  0  0  0  0  0  0
   -2.3979   -1.4369   -0.8700 C   0  0  0  0  0  0  0  0  0  0  0  0
   -3.3712   -1.4550   -1.4109 H   0  0  0  0  0  0  0  0  0  0  0  0
   -2.4719   -2.1697   -0.0374 H   0  0  0  0  0  0  0  0  0  0  0  0
   -1.2613   -1.8548   -1.8124 C   0  0  0  0  0  0  0  0  0  0  0  0
   -1.4913   -2.8546   -2.2528 H   0  0  0  0  0  0  0  0  0  0  0  0
   -1.1943   -1.1417   -2.6642 H   0  0  0  0  0  0  0  0  0  0  0  0
  1 11  1  0  0  0  0
  2  1  1  0  0  0  0
  3 26  1  0  0  0  0
  4  3  1  0  0  0  0
  5  6  1  0  0  0  0
  8 18  1  0  0  0  0
  8 23  1  0  0  0  0
 10 33  1  0  0  0  0
 10 38  1  0  0  0  0
 11 13  1  0  0  0  0
 11 12  1  0  0  0  0
 14 15  1  0  0  0  0
 14 11  1  0  0  0  0
 15 16  1  0  0  0  0
 17  7  1  0  0  0  0
 17 15  2  0  0  0  0
 18 17  1  0  0  0  0
 19 18  2  0  0  0  0
 19 21  1  0  0  0  0
 20 19  1  0  0  0  0
 21 14  2  0  0  0  0
 22 21  1  0  0  0  0
 23  7  1  0  0  0  0
 23 25  1  0  0  0  0
 24 23  1  0  0  0  0
 26 27  1  0  0  0  0
 26 28  1  0  0  0  0
 29 30  1  0  0  0  0
 29 26  1  0  0  0  0
 30 31  1  0  0  0  0
 32  9  1  0  0  0  0
 32 30  2  0  0  0  0
 33 32  1  0  0  0  0
 34 33  2  0  0  0  0
 34 36  1  0  0  0  0
 35 34  1  0  0  0  0
 36 29  2  0  0  0  0
 37 36  1  0  0  0  0
 38  9  1  0  0  0  0
 38 39  1  0  0  0  0
 40 38  1  0  0  0  0
 41  1  1  0  0  0  0
 41 43  1  0  0  0  0
 42 41  1  0  0  0  0
 44  5  1  0  0  0  0
 44 41  1  0  0  0  0
 45 44  1  0  0  0  0
 46 44  1  0  0  0  0
 47  3  1  0  0  0  0
 47 49  1  0  0  0  0
 48 47  1  0  0  0  0
 50  5  1  0  0  0  0
 50 47  1  0  0  0  0
 51 50  1  0  0  0  0
 52 50  1  0  0  0  0
M  END
