8,11,12
q = -1.0

 46 48  0  0  1  0  0  0  0  0999 V2000
   -0.7481   -1.1572   -1.4342 S   0  0  0  0  0  0  0  0  0  0  0  0
   -3.2966   -2.4905   -2.1037 F   0  0  0  0  0  0  0  0  0  0  0  0
   -5.5666   -2.7666   -0.6637 F   0  0  0  0  0  0  0  0  0  0  0  0
   -5.7255   -1.7386    1.8702 F   0  0  0  0  0  0  0  0  0  0  0  0
   -3.5719   -0.4140    2.9398 F   0  0  0  0  0  0  0  0  0  0  0  0
   -0.2585   -2.5373   -1.6009 O   0  0  0  0  0  0  0  0  0  0  0  0
   -1.2391   -0.3729   -2.5886 O   0  0  0  0  0  0  0  0  0  0  0  0
    1.4122    1.1250    1.4276 N   0  0  0  0  0  0  0  0  0  0  0  0
    1.9240    2.0017    1.6082 H   0  0  0  0  0  0  0  0  0  0  0  0
    1.2351    0.7434    2.3714 H   0  0  0  0  0  0  0  0  0  0  0  0
    0.3492   -0.2422   -0.5949 N   0  0  0  0  0  2  0  0  0  0  0  0
   -1.2221   -0.0808    1.5921 N   0  0  0  0  0  0  0  0  0  0  0  0
   -0.4527   -0.7406    1.7949 H   0  0  0  0  0  0  0  0  0  0  0  0
   -1.5555    0.2735    2.5013 H   0  0  0  0  0  0  0  0  0  0  0  0
    2.3239    0.1810    0.6968 C   0  0  2  0  0  0  0  0  0  0  0  0
    2.7393    0.7588   -0.1517 H   0  0  0  0  0  0  0  0  0  0  0  0
    1.4564   -0.9389    0.0753 C   0  0  2  0  0  0  0  0  0  0  0  0
    1.1127   -1.6116    0.9084 H   0  0  0  0  0  0  0  0  0  0  0  0
    3.4503   -0.3167    1.5719 C   0  0  0  0  0  0  0  0  0  0  0  0
    3.1834   -0.9630    2.7968 C   0  0  0  0  0  0  0  0  0  0  0  0
    2.1450   -1.1127    3.1417 H   0  0  0  0  0  0  0  0  0  0  0  0
    4.2312   -1.4511    3.5901 C   0  0  0  0  0  0  0  0  0  0  0  0
    4.0109   -1.9543    4.5432 H   0  0  0  0  0  0  0  0  0  0  0  0
    5.5600   -1.3066    3.1593 C   0  0  0  0  0  0  0  0  0  0  0  0
    6.3833   -1.6938    3.7777 H   0  0  0  0  0  0  0  0  0  0  0  0
    5.8348   -0.6727    1.9378 C   0  0  0  0  0  0  0  0  0  0  0  0
    6.8740   -0.5648    1.5936 H   0  0  0  0  0  0  0  0  0  0  0  0
    4.7853   -0.1785    1.1498 C   0  0  0  0  0  0  0  0  0  0  0  0
    5.0002    0.3033    0.1834 H   0  0  0  0  0  0  0  0  0  0  0  0
    2.3452   -1.7737   -0.8373 C   0  0  0  0  0  0  0  0  0  0  0  0
    2.9712   -2.9271   -0.3359 C   0  0  0  0  0  0  0  0  0  0  0  0
    2.7463   -3.2715    0.6855 H   0  0  0  0  0  0  0  0  0  0  0  0
    3.8796   -3.6423   -1.1295 C   0  0  0  0  0  0  0  0  0  0  0  0
    4.3593   -4.5478   -0.7291 H   0  0  0  0  0  0  0  0  0  0  0  0
    4.1678   -3.2093   -2.4328 C   0  0  0  0  0  0  0  0  0  0  0  0
    4.8746   -3.7740   -3.0587 H   0  0  0  0  0  0  0  0  0  0  0  0
    3.5384   -2.0613   -2.9405 C   0  0  0  0  0  0  0  0  0  0  0  0
    3.7453   -1.7274   -3.9682 H   0  0  0  0  0  0  0  0  0  0  0  0
    2.6321   -1.3455   -2.1463 C   0  0  0  0  0  0  0  0  0  0  0  0
    2.1097   -0.4685   -2.5568 H   0  0  0  0  0  0  0  0  0  0  0  0
   -2.2267   -1.3114   -0.3388 C   0  0  0  0  0  0  0  0  0  0  0  0
   -3.3342   -1.9882   -0.8763 C   0  0  0  0  0  0  0  0  0  0  0  0
   -4.5276   -2.1318   -0.1399 C   0  0  0  0  0  0  0  0  0  0  0  0
   -4.6096   -1.6141    1.1651 C   0  0  0  0  0  0  0  0  0  0  0  0
   -3.4972   -0.9489    1.7037 C   0  0  0  0  0  0  0  0  0  0  0  0
   -2.3084   -0.8096    0.9726 C   0  0  0  0  0  0  0  0  0  0  0  0
  1 11  1  0  0  0  0
  1 41  1  0  0  0  0
  2 42  1  0  0  0  0
  3 43  1  0  0  0  0
  6  1  2  0  0  0  0
  7  1  2  0  0  0  0
  8  9  1  0  0  0  0
  8 10  1  0  0  0  0
 11 17  1  0  0  0  0
 12 13  1  0  0  0  0
 12 14  1  0  0  0  0
 15 16  1  6  0  0  0
 15  8  1  0  0  0  0
 15 19  1  0  0  0  0
 17 15  1  0  0  0  0
 17 18  1  1  0  0  0
 19 20  1  0  0  0  0
 20 21  1  0  0  0  0
 20 22  2  0  0  0  0
 22 23  1  0  0  0  0
 24 22  1  0  0  0  0
 24 25  1  0  0  0  0
 26 24  2  0  0  0  0
 27 26  1  0  0  0  0
 28 19  2  0  0  0  0
 28 26  1  0  0  0  0
 29 28  1  0  0  0  0
 30 31  1  0  0  0  0
 30 17  1  0  0  0  0
 31 32  1  0  0  0  0
 33 34  1  0  0  0  0
 33 31  2  0  0  0  0
 35 33  1  0  0  0  0
 36 35  1  0  0  0  0
 37 35  2  0  0  0  0
 37 39  1  0  0  0  0
 38 37  1  0  0  0  0
 39 30  2  0  0  0  0
 40 39  1  0  0  0  0
 41 46  1  0  0  0  0
 42 41  2  0  0  0  0
 42 43  1  0  0  0  0
 43 44  2  0  0  0  0
 44 45  1  0  0  0  0
 44  4  1  0  0  0  0
 45  5  1  0  0  0  0
 46 12  1  0  0  0  0
 46 45  2  0  0  0  0
M  END
