8,11,12
q = -2.0, confidence = 0.968

 48 50  0  0  1  0  0  0  0  0999 V2000
   -0.4157   -1.8745   -0.8440 S   0  0  0  0  0  0  0  0  0  0  0  0
   -2.6038   -3.6955   -0.9399 F   0  0  0  0  0  0  0  0  0  0  0  0
   -4.9572   -3.7662    0.4032 F   0  0  0  0  0  0  0  0  0  0  0  0
   -5.5518   -1.7273    2.1598 F   0  0  0  0  0  0  0  0  0  0  0  0
   -3.8934    0.2964    2.5450 F   0  0  0  0  0  0  0  0  0  0  0  0
   -0.9152   -1.7736   -2.2435 O   0  0  0  0  0  0  0  0  0  0  0  0
    0.2645   -3.1195   -0.4136 O   0  0  0  0  0  0  0  0  0  0  0  0
    1.3582    1.2768    1.1356 N   0  0  0  0  0  0  0  0  0  0  0  0
    1.7129    2.2090    1.3893 H   0  0  0  0  0  0  0  0  0  0  0  0
    1.0096    0.8348    2.0019 H   0  0  0  0  0  0  0  0  0  0  0  0
    0.5790   -0.5836   -0.5459 N   0  0  0  0  0  2  0  0  0  0  0  0
   -1.2162    0.2984    1.4380 N   0  0  0  0  0  2  0  0  0  0  0  0
    2.4476    0.4408    0.5674 C   0  0  2  0  0  0  0  0  0  0  0  0
    2.7626    0.9365   -0.3731 H   0  0  0  0  0  0  0  0  0  0  0  0
    1.8057   -0.9123    0.1852 C   0  0  2  0  0  0  0  0  0  0  0  0
    1.5995   -1.4733    1.1287 H   0  0  0  0  0  0  0  0  0  0  0  0
    3.6387    0.3075    1.4908 C   0  0  0  0  0  0  0  0  0  0  0  0
    3.4789   -0.1141    2.8267 C   0  0  0  0  0  0  0  0  0  0  0  0
    2.4750   -0.3424    3.2213 H   0  0  0  0  0  0  0  0  0  0  0  0
    4.5928   -0.2717    3.6635 C   0  0  0  0  0  0  0  0  0  0  0  0
    4.4532   -0.6034    4.7034 H   0  0  0  0  0  0  0  0  0  0  0  0
    5.8836   -0.0184    3.1715 C   0  0  0  0  0  0  0  0  0  0  0  0
    6.7586   -0.1475    3.8263 H   0  0  0  0  0  0  0  0  0  0  0  0
    6.0532    0.3933    1.8407 C   0  0  0  0  0  0  0  0  0  0  0  0
    7.0624    0.5842    1.4458 H   0  0  0  0  0  0  0  0  0  0  0  0
    4.9366    0.5565    1.0079 C   0  0  0  0  0  0  0  0  0  0  0  0
    5.0698    0.8618   -0.0417 H   0  0  0  0  0  0  0  0  0  0  0  0
    2.8088   -1.7115   -0.6373 C   0  0  0  0  0  0  0  0  0  0  0  0
    3.6861   -2.6126   -0.0095 C   0  0  0  0  0  0  0  0  0  0  0  0
    3.5877   -2.7986    1.0712 H   0  0  0  0  0  0  0  0  0  0  0  0
    4.6730   -3.2783   -0.7506 C   0  0  0  0  0  0  0  0  0  0  0  0
    5.3483   -3.9877   -0.2482 H   0  0  0  0  0  0  0  0  0  0  0  0
    4.7924   -3.0490   -2.1305 C   0  0  0  0  0  0  0  0  0  0  0  0
    5.5614   -3.5773   -2.7146 H   0  0  0  0  0  0  0  0  0  0  0  0
    3.9144   -2.1545   -2.7638 C   0  0  0  0  0  0  0  0  0  0  0  0
    3.9906   -1.9826   -3.8487 H   0  0  0  0  0  0  0  0  0  0  0  0
    2.9290   -1.4886   -2.0209 C   0  0  0  0  0  0  0  0  0  0  0  0
    2.2130   -0.8111   -2.5097 H   0  0  0  0  0  0  0  0  0  0  0  0
   -1.9182   -1.7041    0.1793 C   0  0  0  0  0  0  0  0  0  0  0  0
   -2.8552   -2.7235   -0.0553 C   0  0  0  0  0  0  0  0  0  0  0  0
   -4.0838   -2.7722    0.6190 C   0  0  0  0  0  0  0  0  0  0  0  0
   -4.3684   -1.7516    1.5342 C   0  0  0  0  0  0  0  0  0  0  0  0
   -3.4513   -0.7146    1.7515 C   0  0  0  0  0  0  0  0  0  0  0  0
   -2.1547   -0.6701    1.1493 C   0  0  0  0  0  0  0  0  0  0  0  0
   -1.3844    1.1089    2.6342 C   0  0  0  0  0  0  0  0  0  0  0  0
   -1.6957    0.4891    3.5010 H   0  0  0  0  0  0  0  0  0  0  0  0
   -2.1149    1.9440    2.5456 H   0  0  0  0  0  0  0  0  0  0  0  0
   -0.4158    1.5786    2.9142 H   0  0  0  0  0  0  0  0  0  0  0  0
  1 11  1  0  0  0  0
  1  7  2  0  0  0  0
  1 39  1  0  0  0  0
  2 40  1  0  0  0  0
  3 41  1  0  0  0  0
  6  1  2  0  0  0  0
  8  9  1  0  0  0  0
  8 10  1  0  0  0  0
 11 15  1  0  0  0  0
 12 45  1  0  0  0  0
 13 14  1  6  0  0  0
 13  8  1  0  0  0  0
 13 17  1  0  0  0  0
 15 13  1  0  0  0  0
 15 16  1  1  0  0  0
 17 18  1  0  0  0  0
 18 19  1  0  0  0  0
 18 20  2  0  0  0  0
 20 21  1  0  0  0  0
 22 20  1  0  0  0  0
 22 23  1  0  0  0  0
 24 22  2  0  0  0  0
 25 24  1  0  0  0  0
 26 17  2  0  0  0  0
 26 24  1  0  0  0  0
 27 26  1  0  0  0  0
 28 29  1  0  0  0  0
 28 15  1  0  0  0  0
 29 30  1  0  0  0  0
 31 32  1  0  0  0  0
 31 29  2  0  0  0  0
 33 31  1  0  0  0  0
 34 33  1  0  0  0  0
 35 33  2  0  0  0  0
 35 37  1  0  0  0  0
 36 35  1  0  0  0  0
 37 28  2  0  0  0  0
 38 37  1  0  0  0  0
 39 44  1  0  0  0  0
 40 39  2  0  0  0  0
 40 41  1  0  0  0  0
 41 42  2  0  0  0  0
 42 43  1  0  0  0  0
 42  4  1  0  0  0  0
 43  5  1  0  0  0  0
 44 12  1  0  0  0  0
 44 43  2  0  0  0  0
 45 48  1  0  0  0  0
 45 46  1  0  0  0  0
 47 45  1  0  0  0  0
M  END
