4,6,8
q = -1.0

 26 28  0  0  0  0  0  0  0  0999 V2000
    2.8511   -4.0349    3.7702 Br  0  0  0  0  0  0  0  0  0  0  0  0
    2.9082   -1.2556   -5.3535 Br  0  0  0  0  0  0  0  0  0  0  0  0
    2.8823    5.2747    1.6095 Br  0  0  0  0  0  0  0  0  0  0  0  0
    1.2041   -1.2933    1.2390 N   0  0  0  0  0  2  0  0  0  0  0  0
    2.5223   -1.0738    1.0183 N   0  0  0  0  0  0  0  0  0  0  0  0
    1.2225   -0.4183   -1.7350 N   0  0  0  0  0  2  0  0  0  0  0  0
    2.5375   -0.3361   -1.4207 N   0  0  0  0  0  0  0  0  0  0  0  0
    1.2140    1.7192    0.5086 N   0  0  0  0  0  2  0  0  0  0  0  0
    2.5303    1.4081    0.4372 N   0  0  0  0  0  0  0  0  0  0  0  0
    1.1063   -2.2719    2.1525 C   0  0  0  0  0  3  0  0  0  0  0  0
    2.4006   -2.6958    2.5305 C   0  0  0  0  0  0  0  0  0  0  0  0
    3.2795   -1.9062    1.7837 C   0  0  0  0  0  0  0  0  0  0  0  0
    1.1387   -0.7246   -3.0392 C   0  0  0  0  0  3  0  0  0  0  0  0
    2.4388   -0.8422   -3.5811 C   0  0  0  0  0  0  0  0  0  0  0  0
    3.3064   -0.5865   -2.5153 C   0  0  0  0  0  0  0  0  0  0  0  0
    1.1237    3.0019    0.8935 C   0  0  0  0  0  3  0  0  0  0  0  0
    2.4211    3.5321    1.0769 C   0  0  0  0  0  0  0  0  0  0  0  0
    3.2938    2.4829    0.7745 C   0  0  0  0  0  0  0  0  0  0  0  0
    3.0263   -0.0015    0.0149 B   0  0  0  0  0  0  0  0  0  0  0  0
    4.2482   -0.0039    0.0220 H   0  0  0  0  0  0  0  0  0  0  0  0
    0.1283   -2.6258    2.4995 H   0  0  0  0  0  0  0  0  0  0  0  0
    4.3731   -1.8846    1.7504 H   0  0  0  0  0  0  0  0  0  0  0  0
    0.1659   -0.8502   -3.5292 H   0  0  0  0  0  0  0  0  0  0  0  0
    4.3996   -0.5691   -2.4683 H   0  0  0  0  0  0  0  0  0  0  0  0
    0.1486    3.4870    1.0192 H   0  0  0  0  0  0  0  0  0  0  0  0
    4.3870    2.4354    0.7777 H   0  0  0  0  0  0  0  0  0  0  0  0
  2 14  1  0  0  0  0
  4 10  1  0  0  0  0
  5  4  1  0  0  0  0
  5 12  1  0  0  0  0
  6  7  1  0  0  0  0
  7 19  1  0  0  0  0
  8 16  1  0  0  0  0
  9  8  1  0  0  0  0
  9 18  1  0  0  0  0
 10 21  1  0  0  0  0
 10 11  1  0  0  0  0
 11  1  1  0  0  0  0
 12 11  2  0  0  0  0
 13  6  1  0  0  0  0
 14 13  1  0  0  0  0
 14 15  2  0  0  0  0
 15 24  1  0  0  0  0
 15  7  1  0  0  0  0
 16 25  1  0  0  0  0
 16 17  1  0  0  0  0
 17  3  1  0  0  0  0
 18 26  1  0  0  0  0
 18 17  2  0  0  0  0
 19 20  1  0  0  0  0
 19  9  1  0  0  0  0
 19  5  1  0  0  0  0
 22 12  1  0  0  0  0
 23 13  1  0  0  0  0
M  END
