1,2,3
q = 0.0, confidence = 0.956

 37 39  0  0  0  0  0  0  0  0999 V2000
    0.0333    2.3333   -0.2944 N   0  0  0  0  0  2  0  0  0  0  0  0
   -2.0443    0.9915   -0.8975 N   0  0  0  0  0  2  0  0  0  0  0  0
    2.0148    0.8830   -0.9490 N   0  0  0  0  0  2  0  0  0  0  0  0
   -1.1424    3.0210   -0.1020 C   0  0  0  0  0  0  0  0  0  0  0  0
   -2.2824    2.2198   -0.4571 C   0  0  0  0  0  0  0  0  0  0  0  0
   -3.3121    2.6077   -0.3878 H   0  0  0  0  0  0  0  0  0  0  0  0
    2.3372    2.0608   -0.4309 C   0  0  0  0  0  3  0  0  0  0  0  0
    3.3894    2.3811   -0.3581 H   0  0  0  0  0  0  0  0  0  0  0  0
    1.2520    2.9227   -0.0475 C   0  0  0  0  0  0  0  0  0  0  0  0
   -3.1494    0.1642   -1.2233 C   0  0  0  0  0  0  0  0  0  0  0  0
    3.0503    0.0189   -1.3881 C   0  0  0  0  0  0  0  0  0  0  0  0
    2.9251   -0.6040   -2.6474 C   0  0  0  0  0  0  0  0  0  0  0  0
    2.0420   -0.3756   -3.2601 H   0  0  0  0  0  0  0  0  0  0  0  0
   -4.2424    0.0423   -0.3392 C   0  0  0  0  0  0  0  0  0  0  0  0
   -4.2115    0.5515    0.6357 H   0  0  0  0  0  0  0  0  0  0  0  0
    1.3111    4.2287    0.4713 C   0  0  0  0  0  0  0  0  0  0  0  0
    2.2892    4.6842    0.6800 H   0  0  0  0  0  0  0  0  0  0  0  0
   -1.1179    4.3371    0.3954 C   0  0  0  0  0  0  0  0  0  0  0  0
   -2.0635    4.8778    0.5426 H   0  0  0  0  0  0  0  0  0  0  0  0
    4.1736   -0.2379   -0.5739 C   0  0  0  0  0  0  0  0  0  0  0  0
    4.2374    0.2219    0.4236 H   0  0  0  0  0  0  0  0  0  0  0  0
    3.9303   -1.4784   -3.0787 C   0  0  0  0  0  0  0  0  0  0  0  0
    3.8357   -1.9614   -4.0628 H   0  0  0  0  0  0  0  0  0  0  0  0
    5.0462   -1.7469   -2.2667 C   0  0  0  0  0  0  0  0  0  0  0  0
    5.8230   -2.4470   -2.6097 H   0  0  0  0  0  0  0  0  0  0  0  0
   -3.1372   -0.5435   -2.4430 C   0  0  0  0  0  0  0  0  0  0  0  0
   -2.2737   -0.4238   -3.1108 H   0  0  0  0  0  0  0  0  0  0  0  0
    0.1170    4.9338    0.6946 C   0  0  0  0  0  0  0  0  0  0  0  0
    0.1507    5.9579    1.0928 H   0  0  0  0  0  0  0  0  0  0  0  0
   -5.3206   -0.7855   -0.6738 C   0  0  0  0  0  0  0  0  0  0  0  0
   -6.1579   -0.8994    0.0311 H   0  0  0  0  0  0  0  0  0  0  0  0
    5.1655   -1.1234   -1.0139 C   0  0  0  0  0  0  0  0  0  0  0  0
    6.0274   -1.3414   -0.3653 H   0  0  0  0  0  0  0  0  0  0  0  0
   -4.2267   -1.3608   -2.7683 C   0  0  0  0  0  0  0  0  0  0  0  0
   -4.2210   -1.9082   -3.7229 H   0  0  0  0  0  0  0  0  0  0  0  0
   -5.3163   -1.4888   -1.8895 C   0  0  0  0  0  0  0  0  0  0  0  0
   -6.1614   -2.1440   -2.1499 H   0  0  0  0  0  0  0  0  0  0  0  0
  1  4  1  0  0  0  0
  1  9  1  0  0  0  0
  2  5  1  0  0  0  0
  3  7  1  0  0  0  0
  4 18  1  0  0  0  0
  5  6  1  0  0  0  0
  5  4  2  0  0  0  0
  7  8  1  0  0  0  0
  7  9  1  0  0  0  0
  9 16  2  0  0  0  0
 10  2  1  0  0  0  0
 10 14  1  0  0  0  0
 11  3  1  0  0  0  0
 11 20  1  0  0  0  0
 12 11  2  0  0  0  0
 13 12  1  0  0  0  0
 14 15  1  0  0  0  0
 16 17  1  0  0  0  0
 16 28  1  0  0  0  0
 18 19  1  0  0  0  0
 18 28  2  0  0  0  0
 20 21  1  0  0  0  0
 22 12  1  0  0  0  0
 22 24  2  0  0  0  0
 23 22  1  0  0  0  0
 24 32  1  0  0  0  0
 25 24  1  0  0  0  0
 26 10  2  0  0  0  0
 27 26  1  0  0  0  0
 28 29  1  0  0  0  0
 30 14  2  0  0  0  0
 30 31  1  0  0  0  0
 32 20  2  0  0  0  0
 32 33  1  0  0  0  0
 34 26  1  0  0  0  0
 34 36  2  0  0  0  0
 35 34  1  0  0  0  0
 36 30  1  0  0  0  0
 37 36  1  0  0  0  0
M  END
