1,4,7
q = 0.0, confidence = 0.974

 79 78  0  0  0  0  0  0  0  0999 V2000
    1.7177   -1.1091    0.6948 N   0  0  0  0  0  2  0  0  0  0  0  0
    1.8346   -2.5904   -1.1165 N   0  0  0  0  0  0  0  0  0  0  0  0
    3.8230   -1.8782   -0.1244 N   0  0  0  0  0  0  0  0  0  0  0  0
    0.1017    2.0419    0.6944 N   0  0  0  0  0  2  0  0  0  0  0  0
   -0.2833    4.2500   -0.1244 N   0  0  0  0  0  0  0  0  0  0  0  0
    1.3261    2.8827   -1.1173 N   0  0  0  0  0  0  0  0  0  0  0  0
   -1.8198   -0.9325    0.6950 N   0  0  0  0  0  2  0  0  0  0  0  0
   -3.5389   -2.3707   -0.1242 N   0  0  0  0  0  0  0  0  0  0  0  0
   -3.1610   -0.2926   -1.1162 N   0  0  0  0  0  0  0  0  0  0  0  0
    0.0001   -0.0000    2.6688 N   0  0  0  0  0  0  0  0  0  0  0  0
    2.4429   -1.8199   -0.1622 C   0  0  0  0  0  3  0  0  0  0  0  0
    0.5025   -3.1277   -0.9103 C   0  0  0  0  0  0  0  0  0  0  0  0
    0.2760   -3.1179    0.1711 H   0  0  0  0  0  0  0  0  0  0  0  0
    0.4665   -4.1733   -1.2844 H   0  0  0  0  0  0  0  0  0  0  0  0
   -0.2599   -2.5209   -1.4447 H   0  0  0  0  0  0  0  0  0  0  0  0
    2.3189   -2.6413   -2.4900 C   0  0  0  0  0  0  0  0  0  0  0  0
    1.5640   -2.1688   -3.1541 H   0  0  0  0  0  0  0  0  0  0  0  0
    2.5011   -3.6863   -2.8201 H   0  0  0  0  0  0  0  0  0  0  0  0
    3.2565   -2.0663   -2.5839 H   0  0  0  0  0  0  0  0  0  0  0  0
    4.5566   -3.0924   -0.4511 C   0  0  0  0  0  0  0  0  0  0  0  0
    3.8593   -3.9463   -0.5151 H   0  0  0  0  0  0  0  0  0  0  0  0
    5.3007   -3.3027    0.3469 H   0  0  0  0  0  0  0  0  0  0  0  0
    5.1072   -3.0114   -1.4146 H   0  0  0  0  0  0  0  0  0  0  0  0
    4.6391   -0.7220    0.2034 C   0  0  0  0  0  0  0  0  0  0  0  0
    4.0100    0.1806    0.2624 H   0  0  0  0  0  0  0  0  0  0  0  0
    5.3984   -0.5595   -0.5922 H   0  0  0  0  0  0  0  0  0  0  0  0
    5.1793   -0.8449    1.1677 H   0  0  0  0  0  0  0  0  0  0  0  0
    2.2361   -0.8309    2.0250 C   0  0  0  0  0  0  0  0  0  0  0  0
    2.7036    0.1806    2.0870 H   0  0  0  0  0  0  0  0  0  0  0  0
    3.0288   -1.5535    2.3173 H   0  0  0  0  0  0  0  0  0  0  0  0
    1.0899   -0.9089    3.0372 C   0  0  0  0  0  0  0  0  0  0  0  0
    0.6946   -1.9444    3.0335 H   0  0  0  0  0  0  0  0  0  0  0  0
    1.4667   -0.7081    4.0690 H   0  0  0  0  0  0  0  0  0  0  0  0
    0.3552    3.0252   -0.1626 C   0  0  0  0  0  3  0  0  0  0  0  0
    0.4023    5.4919   -0.4508 C   0  0  0  0  0  0  0  0  0  0  0  0
    1.4904    5.3140   -0.5147 H   0  0  0  0  0  0  0  0  0  0  0  0
    0.2130    6.2415    0.3473 H   0  0  0  0  0  0  0  0  0  0  0  0
    0.0575    5.9287   -1.4143 H   0  0  0  0  0  0  0  0  0  0  0  0
   -1.6927    4.3795    0.2033 C   0  0  0  0  0  0  0  0  0  0  0  0
   -2.1603    3.3837    0.2621 H   0  0  0  0  0  0  0  0  0  0  0  0
   -2.2127    4.9563   -0.5923 H   0  0  0  0  0  0  0  0  0  0  0  0
   -1.8560    4.9087    1.1677 H   0  0  0  0  0  0  0  0  0  0  0  0
    1.1278    3.3280   -2.4906 C   0  0  0  0  0  0  0  0  0  0  0  0
    1.0948    2.4381   -3.1549 H   0  0  0  0  0  0  0  0  0  0  0  0
    1.9423    4.0073   -2.8211 H   0  0  0  0  0  0  0  0  0  0  0  0
    0.1616    3.8535   -2.5841 H   0  0  0  0  0  0  0  0  0  0  0  0
    2.4564    1.9963   -0.9117 C   0  0  0  0  0  0  0  0  0  0  0  0
    2.5615    1.7955    0.1697 H   0  0  0  0  0  0  0  0  0  0  0  0
    3.3803    2.4866   -1.2865 H   0  0  0  0  0  0  0  0  0  0  0  0
    2.3104    1.0325   -1.4455 H   0  0  0  0  0  0  0  0  0  0  0  0
   -0.3980    2.3519    2.0248 C   0  0  0  0  0  0  0  0  0  0  0  0
   -1.5077    2.2513    2.0870 H   0  0  0  0  0  0  0  0  0  0  0  0
   -0.1682    3.3996    2.3171 H   0  0  0  0  0  0  0  0  0  0  0  0
    0.2426    1.3982    3.0370 C   0  0  0  0  0  0  0  0  0  0  0  0
    1.3371    1.5734    3.0331 H   0  0  0  0  0  0  0  0  0  0  0  0
   -0.1195    1.6243    4.0688 H   0  0  0  0  0  0  0  0  0  0  0  0
   -2.7982   -1.2048   -0.1619 C   0  0  0  0  0  3  0  0  0  0  0  0
   -2.9453   -3.6556    0.2030 C   0  0  0  0  0  0  0  0  0  0  0  0
   -1.8492   -3.5617    0.2618 H   0  0  0  0  0  0  0  0  0  0  0  0
   -3.1842   -4.3942   -0.5928 H   0  0  0  0  0  0  0  0  0  0  0  0
   -3.3215   -4.0624    1.1672 H   0  0  0  0  0  0  0  0  0  0  0  0
   -4.9571   -2.3989   -0.4510 C   0  0  0  0  0  0  0  0  0  0  0  0
   -5.3479   -1.3680   -0.5149 H   0  0  0  0  0  0  0  0  0  0  0  0
   -5.5114   -2.9383    0.3468 H   0  0  0  0  0  0  0  0  0  0  0  0
   -5.1622   -2.9160   -1.4147 H   0  0  0  0  0  0  0  0  0  0  0  0
   -3.4472   -0.6865   -2.4897 C   0  0  0  0  0  0  0  0  0  0  0  0
   -3.4188   -1.7860   -2.5835 H   0  0  0  0  0  0  0  0  0  0  0  0
   -2.6601   -0.2697   -3.1536 H   0  0  0  0  0  0  0  0  0  0  0  0
   -4.4429   -0.3212   -2.8201 H   0  0  0  0  0  0  0  0  0  0  0  0
   -2.9593    1.1295   -0.9102 C   0  0  0  0  0  0  0  0  0  0  0  0
   -2.8372    1.3207    0.1712 H   0  0  0  0  0  0  0  0  0  0  0  0
   -3.8466    1.6842   -1.2841 H   0  0  0  0  0  0  0  0  0  0  0  0
   -2.0524    1.4857   -1.4447 H   0  0  0  0  0  0  0  0  0  0  0  0
   -1.8379   -1.5206    2.0253 C   0  0  0  0  0  0  0  0  0  0  0  0
   -1.1957   -2.4312    2.0870 H   0  0  0  0  0  0  0  0  0  0  0  0
   -2.8600   -1.8457    2.3178 H   0  0  0  0  0  0  0  0  0  0  0  0
   -1.3319   -0.4891    3.0375 C   0  0  0  0  0  0  0  0  0  0  0  0
   -2.0308    0.3711    3.0339 H   0  0  0  0  0  0  0  0  0  0  0  0
   -1.3462   -0.9160    4.0692 H   0  0  0  0  0  0  0  0  0  0  0  0
  1 28  1  0  0  0  0
  2 12  1  0  0  0  0
  2 11  1  0  0  0  0
  3 24  1  0  0  0  0
  4 51  1  0  0  0  0
  5 39  1  0  0  0  0
  6 47  1  0  0  0  0
  6 34  1  0  0  0  0
  7 74  1  0  0  0  0
  8 58  1  0  0  0  0
  9 70  1  0  0  0  0
  9 57  1  0  0  0  0
 10 54  1  0  0  0  0
 10 31  1  0  0  0  0
 10 77  1  0  0  0  0
 11  3  1  0  0  0  0
 11  1  1  0  0  0  0
 12 13  1  0  0  0  0
 14 12  1  0  0  0  0
 15 12  1  0  0  0  0
 16  2  1  0  0  0  0
 17 16  1  0  0  0  0
 18 16  1  0  0  0  0
 19 16  1  0  0  0  0
 20  3  1  0  0  0  0
 20 22  1  0  0  0  0
 21 20  1  0  0  0  0
 23 20  1  0  0  0  0
 24 25  1  0  0  0  0
 24 27  1  0  0  0  0
 26 24  1  0  0  0  0
 28 29  1  0  0  0  0
 28 30  1  0  0  0  0
 28 31  1  0  0  0  0
 31 33  1  0  0  0  0
 32 31  1  0  0  0  0
 34  5  1  0  0  0  0
 34  4  1  0  0  0  0
 35  5  1  0  0  0  0
 35 37  1  0  0  0  0
 36 35  1  0  0  0  0
 38 35  1  0  0  0  0
 39 40  1  0  0  0  0
 39 42  1  0  0  0  0
 41 39  1  0  0  0  0
 43  6  1  0  0  0  0
 44 43  1  0  0  0  0
 45 43  1  0  0  0  0
 46 43  1  0  0  0  0
 47 48  1  0  0  0  0
 49 47  1  0  0  0  0
 50 47  1  0  0  0  0
 51 52  1  0  0  0  0
 51 53  1  0  0  0  0
 51 54  1  0  0  0  0
 54 56  1  0  0  0  0
 55 54  1  0  0  0  0
 57  8  1  0  0  0  0
 57  7  1  0  0  0  0
 58 59  1  0  0  0  0
 58 61  1  0  0  0  0
 60 58  1  0  0  0  0
 62  8  1  0  0  0  0
 62 64  1  0  0  0  0
 63 62  1  0  0  0  0
 65 62  1  0  0  0  0
 66  9  1  0  0  0  0
 67 66  1  0  0  0  0
 68 66  1  0  0  0  0
 69 66  1  0  0  0  0
 70 71  1  0  0  0  0
 72 70  1  0  0  0  0
 73 70  1  0  0  0  0
 74 75  1  0  0  0  0
 74 76  1  0  0  0  0
 74 77  1  0  0  0  0
 77 79  1  0  0  0  0
 78 77  1  0  0  0  0
M  END
