1,11,14
q = 0.0, confidence = 0.978

 53 55  0  0  1  0  0  0  0  0999 V2000
   -0.0000    1.6723   -0.2007 N   0  0  0  0  0  2  0  0  0  0  0  0
   -1.2061    2.2521   -0.5350 C   0  0  0  0  0  0  0  0  0  0  0  0
   -1.2179    3.4606   -1.2585 C   0  0  0  0  0  0  0  0  0  0  0  0
   -2.1770    3.9173   -1.5377 H   0  0  0  0  0  0  0  0  0  0  0  0
   -0.0000    4.0592   -1.6185 C   0  0  0  0  0  0  0  0  0  0  0  0
    0.0000    5.0005   -2.1866 H   0  0  0  0  0  0  0  0  0  0  0  0
    1.2179    3.4606   -1.2585 C   0  0  0  0  0  0  0  0  0  0  0  0
    2.1770    3.9172   -1.5377 H   0  0  0  0  0  0  0  0  0  0  0  0
    1.2061    2.2521   -0.5350 C   0  0  0  0  0  0  0  0  0  0  0  0
   -2.3270    1.4706   -0.0627 C   0  0  0  0  0  0  0  0  0  0  0  0
   -1.9331    0.3498    0.5612 N   0  0  0  0  0  2  0  0  0  0  0  0
   -2.8833   -0.5426    0.9884 N   0  0  0  0  0  0  0  0  0  0  0  0
    2.3270    1.4706   -0.0627 C   0  0  2  0  0  3  0  0  0  0  0  0
    1.9331    0.3498    0.5612 N   0  0  0  0  0  2  0  0  0  0  0  0
    2.8833   -0.5426    0.9884 N   0  0  0  0  0  0  0  0  0  0  0  0
   -3.7500    1.8864   -0.2335 C   0  0  0  0  0  0  0  0  0  0  0  0
   -4.2245    1.4256   -1.1263 H   0  0  0  0  0  0  0  0  0  0  0  0
   -3.8235    2.9861   -0.3291 H   0  0  0  0  0  0  0  0  0  0  0  0
   -4.3426    1.5619    0.6442 H   0  0  0  0  0  0  0  0  0  0  0  0
    3.7500    1.8864   -0.2336 C   0  0  0  0  0  0  0  0  0  0  0  0
    3.8235    2.9861   -0.3291 H   0  0  0  0  0  0  0  0  0  0  0  0
    4.2245    1.4256   -1.1264 H   0  0  0  0  0  0  0  0  0  0  0  0
    4.3426    1.5619    0.6441 H   0  0  0  0  0  0  0  0  0  0  0  0
   -2.4089   -1.4663    2.0195 C   0  0  0  0  0  0  0  0  0  0  0  0
   -1.8835   -0.8884    2.8033 H   0  0  0  0  0  0  0  0  0  0  0  0
   -1.7183   -2.2243    1.5859 H   0  0  0  0  0  0  0  0  0  0  0  0
   -3.2812   -1.9821    2.4600 H   0  0  0  0  0  0  0  0  0  0  0  0
   -3.4684   -1.2317   -1.3145 C   0  0  0  0  0  0  0  0  0  0  0  0
   -2.4423   -0.9961   -1.6332 H   0  0  0  0  0  0  0  0  0  0  0  0
   -4.4106   -1.7445   -2.2166 C   0  0  0  0  0  0  0  0  0  0  0  0
   -4.1259   -1.8815   -3.2711 H   0  0  0  0  0  0  0  0  0  0  0  0
   -5.6964   -2.1071   -1.7826 C   0  0  0  0  0  0  0  0  0  0  0  0
   -6.4289   -2.5140   -2.4955 H   0  0  0  0  0  0  0  0  0  0  0  0
   -6.0383   -1.9495   -0.4295 C   0  0  0  0  0  0  0  0  0  0  0  0
   -7.0434   -2.2271   -0.0771 H   0  0  0  0  0  0  0  0  0  0  0  0
   -5.1108   -1.4200    0.4777 C   0  0  0  0  0  0  0  0  0  0  0  0
   -5.3860   -1.2667    1.5320 H   0  0  0  0  0  0  0  0  0  0  0  0
   -3.8206   -1.0591    0.0396 C   0  0  0  0  0  0  0  0  0  0  0  0
    2.4089   -1.4663    2.0196 C   0  0  0  0  0  0  0  0  0  0  0  0
    1.8837   -0.8883    2.8034 H   0  0  0  0  0  0  0  0  0  0  0  0
    3.2811   -1.9822    2.4599 H   0  0  0  0  0  0  0  0  0  0  0  0
    1.7182   -2.2242    1.5860 H   0  0  0  0  0  0  0  0  0  0  0  0
    5.1108   -1.4201    0.4778 C   0  0  0  0  0  0  0  0  0  0  0  0
    5.3859   -1.2668    1.5320 H   0  0  0  0  0  0  0  0  0  0  0  0
    6.0383   -1.9496   -0.4295 C   0  0  0  0  0  0  0  0  0  0  0  0
    7.0434   -2.2271   -0.0770 H   0  0  0  0  0  0  0  0  0  0  0  0
    5.6965   -2.1070   -1.7826 C   0  0  0  0  0  0  0  0  0  0  0  0
    6.4289   -2.5140   -2.4955 H   0  0  0  0  0  0  0  0  0  0  0  0
    4.4107   -1.7444   -2.2167 C   0  0  0  0  0  0  0  0  0  0  0  0
    4.1260   -1.8814   -3.2712 H   0  0  0  0  0  0  0  0  0  0  0  0
    3.4684   -1.2316   -1.3145 C   0  0  0  0  0  0  0  0  0  0  0  0
    2.4424   -0.9960   -1.6333 H   0  0  0  0  0  0  0  0  0  0  0  0
    3.8206   -1.0590    0.0397 C   0  0  0  0  0  0  0  0  0  0  0  0
  2  1  1  0  0  0  0
  2 10  2  0  0  0  0
  3  2  1  0  0  0  0
  4  3  1  0  0  0  0
  5  7  1  0  0  0  0
  5  3  2  0  0  0  0
  6  5  1  0  0  0  0
  7  9  2  0  0  0  0
  8  7  1  0  0  0  0
  9  1  1  0  0  0  0
  9 13  1  0  0  0  0
 10 11  1  0  0  0  0
 11 12  1  0  0  0  0
 12 24  1  0  0  0  0
 13 14  1  1  0  0  0
 14 15  1  0  0  0  0
 15 39  1  0  0  0  0
 16 10  1  0  0  0  0
 16 19  1  0  0  0  0
 17 16  1  0  0  0  0
 18 16  1  0  0  0  0
 20 13  1  0  0  0  0
 20 23  1  0  0  0  0
 21 20  1  0  0  0  0
 22 20  1  0  0  0  0
 24 27  1  0  0  0  0
 24 25  1  0  0  0  0
 26 24  1  0  0  0  0
 28 38  1  0  0  0  0
 29 28  1  0  0  0  0
 30 32  1  0  0  0  0
 30 28  2  0  0  0  0
 31 30  1  0  0  0  0
 32 34  2  0  0  0  0
 33 32  1  0  0  0  0
 34 35  1  0  0  0  0
 34 36  1  0  0  0  0
 36 37  1  0  0  0  0
 38 36  2  0  0  0  0
 38 12  1  0  0  0  0
 39 41  1  0  0  0  0
 39 40  1  0  0  0  0
 42 39  1  0  0  0  0
 43 44  1  0  0  0  0
 45 46  1  0  0  0  0
 45 43  2  0  0  0  0
 47 45  1  0  0  0  0
 48 47  1  0  0  0  0
 49 47  2  0  0  0  0
 49 51  1  0  0  0  0
 50 49  1  0  0  0  0
 51 53  2  0  0  0  0
 52 51  1  0  0  0  0
 53 43  1  0  0  0  0
 53 15  1  0  0  0  0
M  END
