1,3,8
q = -2.0, confidence = 0.992

 45 49  0  0  1  0  0  0  0  0999 V2000
   -2.1134    0.0806   -0.9886 N   0  0  0  0  0  0  0  0  0  0  0  0
   -3.2058   -0.5066   -1.5977 C   0  0  0  0  0  0  0  0  0  0  0  0
   -0.2485    1.5617   -0.1778 N   0  0  0  0  0  2  0  0  0  0  0  0
   -3.3634    1.7720   -1.9556 N   0  0  0  0  0  0  0  0  0  0  0  0
    2.3009   -2.1463    1.4104 O   0  0  0  0  0  0  0  0  0  0  0  0
    1.9158    1.1795    0.5998 C   0  0  0  0  0  0  0  0  0  0  0  0
   -2.2812    1.4298   -1.2550 C   0  0  0  0  0  3  0  0  0  0  0  0
    1.4705   -0.1331    0.6100 N   0  0  0  0  0  2  0  0  0  0  0  0
   -1.0322    3.6720   -1.0189 C   0  0  0  0  0  0  0  0  0  0  0  0
   -1.8391    4.2228   -1.5211 H   0  0  0  0  0  0  0  0  0  0  0  0
   -5.1641    0.2799   -2.9038 C   0  0  0  0  0  0  0  0  0  0  0  0
   -5.7449    1.0988   -3.3527 H   0  0  0  0  0  0  0  0  0  0  0  0
   -3.9787    0.5636   -2.1902 C   0  0  0  0  0  0  0  0  0  0  0  0
    3.4594   -0.4208   -1.5438 C   0  0  0  0  0  0  0  0  0  0  0  0
    2.5352    0.1205   -1.7932 H   0  0  0  0  0  0  0  0  0  0  0  0
   -1.2003    2.2768   -0.8027 C   0  0  0  0  0  0  0  0  0  0  0  0
   -3.5992   -1.8511   -1.7481 C   0  0  0  0  0  0  0  0  0  0  0  0
   -2.9859   -2.6651   -1.3408 H   0  0  0  0  0  0  0  0  0  0  0  0
   -4.7764   -2.1033   -2.4613 C   0  0  0  0  0  0  0  0  0  0  0  0
   -5.1055   -3.1447   -2.5989 H   0  0  0  0  0  0  0  0  0  0  0  0
    0.9406    2.1193    0.1461 C   0  0  1  0  0  3  0  0  0  0  0  0
    3.5520   -1.1096   -0.3180 C   0  0  0  0  0  0  0  0  0  0  0  0
    4.7264   -1.8345   -0.0314 C   0  0  0  0  0  0  0  0  0  0  0  0
    4.7761   -2.3932    0.9149 H   0  0  0  0  0  0  0  0  0  0  0  0
    5.7943   -1.8397   -0.9336 C   0  0  0  0  0  0  0  0  0  0  0  0
    6.7119   -2.3982   -0.6885 H   0  0  0  0  0  0  0  0  0  0  0  0
    1.2022    3.5119   -0.0251 C   0  0  0  0  0  0  0  0  0  0  0  0
    2.4844    3.9918    0.3657 C   0  0  0  0  0  0  0  0  0  0  0  0
    2.7223    5.0608    0.2659 H   0  0  0  0  0  0  0  0  0  0  0  0
    0.1464    4.2810   -0.6071 C   0  0  0  0  0  0  0  0  0  0  0  0
    0.2917    5.3623   -0.7564 H   0  0  0  0  0  0  0  0  0  0  0  0
    3.1644    1.6991    0.9832 C   0  0  0  0  0  0  0  0  0  0  0  0
    3.9500    1.0300    1.3597 H   0  0  0  0  0  0  0  0  0  0  0  0
    4.5250   -0.4452   -2.4508 C   0  0  0  0  0  0  0  0  0  0  0  0
    4.4341    0.0897   -3.4094 H   0  0  0  0  0  0  0  0  0  0  0  0
   -5.5541   -1.0556   -3.0234 C   0  0  0  0  0  0  0  0  0  0  0  0
   -6.4730   -1.3078   -3.5740 H   0  0  0  0  0  0  0  0  0  0  0  0
    3.4234    3.0898    0.8651 C   0  0  0  0  0  0  0  0  0  0  0  0
    4.4125    3.4611    1.1736 H   0  0  0  0  0  0  0  0  0  0  0  0
    5.7141   -1.1466   -2.1615 C   0  0  0  0  0  0  0  0  0  0  0  0
    2.4101   -1.1774    0.6592 C   0  0  0  0  0  0  0  0  0  0  0  0
    6.8539   -1.1889   -3.1463 C   0  0  0  0  0  0  0  0  0  0  0  0
    6.7927   -0.3628   -3.8811 H   0  0  0  0  0  0  0  0  0  0  0  0
    6.8461   -2.1416   -3.7189 H   0  0  0  0  0  0  0  0  0  0  0  0
    7.8361   -1.1296   -2.6359 H   0  0  0  0  0  0  0  0  0  0  0  0
  2  1  2  0  0  0  0
  4  7  1  0  0  0  0
  6  8  1  0  0  0  0
  6 32  2  0  0  0  0
  7  1  1  0  0  0  0
  7 16  1  0  0  0  0
  8 41  1  0  0  0  0
  9 16  2  0  0  0  0
  9 30  1  0  0  0  0
 10  9  1  0  0  0  0
 11 13  1  0  0  0  0
 12 11  1  0  0  0  0
 13  4  2  0  0  0  0
 13  2  1  0  0  0  0
 14 22  1  0  0  0  0
 15 14  1  0  0  0  0
 16  3  1  0  0  0  0
 17  2  1  0  0  0  0
 17 18  1  0  0  0  0
 19 17  2  0  0  0  0
 20 19  1  0  0  0  0
 21  3  1  6  0  0  0
 21  6  1  0  0  0  0
 22 23  2  0  0  0  0
 22 41  1  0  0  0  0
 23 24  1  0  0  0  0
 25 26  1  0  0  0  0
 25 23  1  0  0  0  0
 27 21  1  0  0  0  0
 27 28  1  0  0  0  0
 28 38  2  0  0  0  0
 29 28  1  0  0  0  0
 30 27  2  0  0  0  0
 31 30  1  0  0  0  0
 32 33  1  0  0  0  0
 34 40  1  0  0  0  0
 34 14  2  0  0  0  0
 35 34  1  0  0  0  0
 36 11  2  0  0  0  0
 36 19  1  0  0  0  0
 37 36  1  0  0  0  0
 38 32  1  0  0  0  0
 38 39  1  0  0  0  0
 40 25  2  0  0  0  0
 41  5  2  0  0  0  0
 42 45  1  0  0  0  0
 42 40  1  0  0  0  0
 43 42  1  0  0  0  0
 44 42  1  0  0  0  0
M  END
