4,12,20
q = 0.0, confidence = 0.996

 59 61  0  0  1  0  0  0  0  0999 V2000
   -0.0007   -0.0027    2.2442 C   0  0  2  0  0  0  0  0  0  0  0  0
   -0.0018   -0.0045    3.7728 C   0  0  0  0  0  0  0  0  0  0  0  0
   -1.0130    0.9656    1.6391 C   0  0  1  0  0  3  0  0  0  0  0  0
   -1.0961    1.1749    0.3663 N   0  0  0  0  0  2  0  0  0  0  0  0
   -2.1856    2.1402    0.1090 C   0  0  2  0  0  0  0  0  0  0  0  0
   -1.6662    3.4431   -0.5321 C   0  0  0  0  0  0  0  0  0  0  0  0
   -0.5455    4.0915    0.2839 C   0  0  0  0  0  0  0  0  0  0  0  0
   -2.8330    4.3964   -0.8080 C   0  0  0  0  0  0  0  0  0  0  0  0
   -2.8080    2.2938    1.5245 C   0  0  0  0  0  0  0  0  0  0  0  0
   -1.8909    1.5908    2.4317 O   0  0  0  0  0  0  0  0  0  0  0  0
   -0.3322   -1.3628    1.6369 C   0  0  1  0  0  3  0  0  0  0  0  0
   -0.4697   -1.5378    0.3636 N   0  0  0  0  0  2  0  0  0  0  0  0
   -0.7639   -2.9631    0.1045 C   0  0  2  0  0  0  0  0  0  0  0  0
   -2.1534   -3.1603   -0.5349 C   0  0  0  0  0  0  0  0  0  0  0  0
   -3.2725   -2.5120    0.2833 C   0  0  0  0  0  0  0  0  0  0  0  0
   -2.4001   -4.6463   -0.8127 C   0  0  0  0  0  0  0  0  0  0  0  0
   -0.5850   -3.5811    1.5188 C   0  0  0  0  0  0  0  0  0  0  0  0
   -0.4372   -2.4365    2.4280 O   0  0  0  0  0  0  0  0  0  0  0  0
    1.3441    0.3908    1.6400 C   0  0  1  0  0  3  0  0  0  0  0  0
    1.5668    0.3610    0.3672 N   0  0  0  0  0  2  0  0  0  0  0  0
    2.9480    0.8213    0.1111 C   0  0  2  0  0  0  0  0  0  0  0  0
    3.8155   -0.2794   -0.5325 C   0  0  0  0  0  0  0  0  0  0  0  0
    5.2249    0.2534   -0.8078 C   0  0  0  0  0  0  0  0  0  0  0  0
    3.8155   -1.5759    0.2807 C   0  0  0  0  0  0  0  0  0  0  0  0
    3.3927    1.2796    1.5277 C   0  0  0  0  0  0  0  0  0  0  0  0
    2.3248    0.8356    2.4338 O   0  0  0  0  0  0  0  0  0  0  0  0
    0.7339   -0.7360    4.1513 H   0  0  0  0  0  0  0  0  0  0  0  0
    0.2632    0.9980    4.1529 H   0  0  0  0  0  0  0  0  0  0  0  0
   -1.0032   -0.2767    4.1506 H   0  0  0  0  0  0  0  0  0  0  0  0
   -2.8790    1.6476   -0.6041 H   0  0  0  0  0  0  0  0  0  0  0  0
   -1.2229    3.1270   -1.5002 H   0  0  0  0  0  0  0  0  0  0  0  0
   -0.1976    5.0202   -0.2106 H   0  0  0  0  0  0  0  0  0  0  0  0
   -0.8652    4.3675    1.3129 H   0  0  0  0  0  0  0  0  0  0  0  0
    0.3261    3.4100    0.3462 H   0  0  0  0  0  0  0  0  0  0  0  0
   -2.4807    5.2883   -1.3633 H   0  0  0  0  0  0  0  0  0  0  0  0
   -3.6184    3.9089   -1.4211 H   0  0  0  0  0  0  0  0  0  0  0  0
   -3.3095    4.7649    0.1270 H   0  0  0  0  0  0  0  0  0  0  0  0
   -3.7988    1.8092    1.6286 H   0  0  0  0  0  0  0  0  0  0  0  0
   -2.8743    3.3429    1.8707 H   0  0  0  0  0  0  0  0  0  0  0  0
    0.0078   -3.3180   -0.6100 H   0  0  0  0  0  0  0  0  0  0  0  0
   -2.1010   -2.6171   -1.5023 H   0  0  0  0  0  0  0  0  0  0  0  0
   -4.2518   -2.6720   -0.2099 H   0  0  0  0  0  0  0  0  0  0  0  0
   -3.3513   -2.9276    1.3121 H   0  0  0  0  0  0  0  0  0  0  0  0
   -3.1150   -1.4169    0.3464 H   0  0  0  0  0  0  0  0  0  0  0  0
   -3.3493   -4.7835   -1.3679 H   0  0  0  0  0  0  0  0  0  0  0  0
   -1.5868   -5.0844   -1.4267 H   0  0  0  0  0  0  0  0  0  0  0  0
   -2.4825   -5.2443    0.1214 H   0  0  0  0  0  0  0  0  0  0  0  0
    0.3316   -4.1949    1.6219 H   0  0  0  0  0  0  0  0  0  0  0  0
   -1.4591   -4.1656    1.8640 H   0  0  0  0  0  0  0  0  0  0  0  0
    2.8688    1.6699   -0.5999 H   0  0  0  0  0  0  0  0  0  0  0  0
    3.3195   -0.5028   -1.5009 H   0  0  0  0  0  0  0  0  0  0  0  0
    5.8198   -0.4969   -1.3655 H   0  0  0  0  0  0  0  0  0  0  0  0
    5.1962    1.1790   -1.4184 H   0  0  0  0  0  0  0  0  0  0  0  0
    5.7831    0.4786    0.1274 H   0  0  0  0  0  0  0  0  0  0  0  0
    4.4445   -2.3413   -0.2157 H   0  0  0  0  0  0  0  0  0  0  0  0
    4.2150   -1.4397    1.3099 H   0  0  0  0  0  0  0  0  0  0  0  0
    2.7889   -1.9886    0.3426 H   0  0  0  0  0  0  0  0  0  0  0  0
    3.4695    2.3797    1.6346 H   0  0  0  0  0  0  0  0  0  0  0  0
    4.3339    0.8108    1.8727 H   0  0  0  0  0  0  0  0  0  0  0  0
  1  2  1  1  0  0  0
  2 29  1  0  0  0  0
  2 27  1  0  0  0  0
  2 28  1  0  0  0  0
  3  1  1  6  0  0  0
  3 10  1  0  0  0  0
  4  3  1  0  0  0  0
  5 30  1  6  0  0  0
  5  4  1  0  0  0  0
  5  9  1  0  0  0  0
  6  5  1  0  0  0  0
  6  7  1  0  0  0  0
  7 34  1  0  0  0  0
  7 33  1  0  0  0  0
  8  6  1  0  0  0  0
  8 37  1  0  0  0  0
  9 38  1  0  0  0  0
  9 39  1  0  0  0  0
  9 10  1  0  0  0  0
 11  1  1  6  0  0  0
 11 18  1  0  0  0  0
 12 11  1  0  0  0  0
 13 40  1  6  0  0  0
 13 12  1  0  0  0  0
 13 17  1  0  0  0  0
 14 13  1  0  0  0  0
 14 15  1  0  0  0  0
 15 44  1  0  0  0  0
 15 43  1  0  0  0  0
 16 14  1  0  0  0  0
 16 47  1  0  0  0  0
 17 48  1  0  0  0  0
 17 49  1  0  0  0  0
 17 18  1  0  0  0  0
 19  1  1  6  0  0  0
 19 26  1  0  0  0  0
 20 19  1  0  0  0  0
 21 50  1  6  0  0  0
 21 20  1  0  0  0  0
 21 25  1  0  0  0  0
 22 21  1  0  0  0  0
 22 24  1  0  0  0  0
 23 22  1  0  0  0  0
 23 54  1  0  0  0  0
 24 57  1  0  0  0  0
 24 56  1  0  0  0  0
 25 58  1  0  0  0  0
 25 59  1  0  0  0  0
 25 26  1  0  0  0  0
 31  6  1  0  0  0  0
 32  7  1  0  0  0  0
 35  8  1  0  0  0  0
 36  8  1  0  0  0  0
 41 14  1  0  0  0  0
 42 15  1  0  0  0  0
 45 16  1  0  0  0  0
 46 16  1  0  0  0  0
 51 22  1  0  0  0  0
 52 23  1  0  0  0  0
 53 23  1  0  0  0  0
 55 24  1  0  0  0  0
M  END
