1,2,3
q = -1.0

 76 78  0  0  0  0  0  0  0  0999 V2000
    0.0251   -2.0347   -0.6620 N   0  0  0  0  0  2  0  0  0  0  0  0
    1.8976   -0.4832   -0.3075 N   0  0  0  0  0  2  0  0  0  0  0  0
   -1.8704   -0.5728   -0.0489 N   0  0  0  0  0  2  0  0  0  0  0  0
    1.2259   -2.6174   -0.9319 C   0  0  0  0  0  0  0  0  0  0  0  0
    1.2625   -3.9601   -1.3529 C   0  0  0  0  0  0  0  0  0  0  0  0
    2.2244   -4.4456   -1.5680 H   0  0  0  0  0  0  0  0  0  0  0  0
    0.0507   -4.6603   -1.4870 C   0  0  0  0  0  0  0  0  0  0  0  0
    0.0625   -5.7100   -1.8155 H   0  0  0  0  0  0  0  0  0  0  0  0
   -1.1719   -4.0232   -1.2018 C   0  0  0  0  0  0  0  0  0  0  0  0
   -2.1477   -4.5216   -1.2892 H   0  0  0  0  0  0  0  0  0  0  0  0
   -1.1417   -2.6889   -0.7834 C   0  0  0  0  0  0  0  0  0  0  0  0
    2.3180   -1.6707   -0.7167 C   0  0  0  0  0  0  0  0  0  0  0  0
    3.7485   -2.0476   -0.9300 C   0  0  0  0  0  0  0  0  0  0  0  0
    4.3959   -1.1529   -0.9636 H   0  0  0  0  0  0  0  0  0  0  0  0
    3.8670   -2.6245   -1.8689 H   0  0  0  0  0  0  0  0  0  0  0  0
    4.1053   -2.6948   -0.0995 H   0  0  0  0  0  0  0  0  0  0  0  0
   -2.3152   -1.8209   -0.4179 C   0  0  0  0  0  0  0  0  0  0  0  0
   -3.4794   -2.2282   -0.4610 O   0  0  0  0  0  0  0  0  0  0  0  0
    2.8327    0.5604   -0.0292 C   0  0  0  0  0  0  0  0  0  0  0  0
    2.9879    1.5879   -0.9917 C   0  0  0  0  0  0  0  0  0  0  0  0
    3.9170    2.6058   -0.7169 C   0  0  0  0  0  0  0  0  0  0  0  0
    4.0652    3.4119   -1.4507 H   0  0  0  0  0  0  0  0  0  0  0  0
    4.6420    2.6155    0.4814 C   0  0  0  0  0  0  0  0  0  0  0  0
    5.3630    3.4225    0.6814 H   0  0  0  0  0  0  0  0  0  0  0  0
    4.4370    1.6106    1.4356 C   0  0  0  0  0  0  0  0  0  0  0  0
    4.9897    1.6449    2.3858 H   0  0  0  0  0  0  0  0  0  0  0  0
    3.5272    0.5621    1.2072 C   0  0  0  0  0  0  0  0  0  0  0  0
    2.1826    1.5652   -2.2834 C   0  0  0  0  0  0  0  0  0  0  0  0
    1.3197    0.8897   -2.1012 H   0  0  0  0  0  0  0  0  0  0  0  0
    3.0074    0.9722   -3.4390 C   0  0  0  0  0  0  0  0  0  0  0  0
    3.8983    1.5991   -3.6527 H   0  0  0  0  0  0  0  0  0  0  0  0
    2.4019    0.9134   -4.3667 H   0  0  0  0  0  0  0  0  0  0  0  0
    3.3696   -0.0496   -3.2036 H   0  0  0  0  0  0  0  0  0  0  0  0
    1.6004    2.9392   -2.6373 C   0  0  0  0  0  0  0  0  0  0  0  0
    1.0201    3.3385   -1.7828 H   0  0  0  0  0  0  0  0  0  0  0  0
    0.9194    2.8540   -3.5084 H   0  0  0  0  0  0  0  0  0  0  0  0
    2.3893    3.6721   -2.9057 H   0  0  0  0  0  0  0  0  0  0  0  0
    3.2158   -0.4627    2.2918 C   0  0  0  0  0  0  0  0  0  0  0  0
    2.8041   -1.3670    1.7973 H   0  0  0  0  0  0  0  0  0  0  0  0
    4.4504   -0.9065    3.0875 C   0  0  0  0  0  0  0  0  0  0  0  0
    5.2594   -1.2725    2.4227 H   0  0  0  0  0  0  0  0  0  0  0  0
    4.1828   -1.7229    3.7882 H   0  0  0  0  0  0  0  0  0  0  0  0
    4.8657   -0.0805    3.7004 H   0  0  0  0  0  0  0  0  0  0  0  0
    2.1082    0.0832    3.2150 C   0  0  0  0  0  0  0  0  0  0  0  0
    2.4659    0.9806    3.7607 H   0  0  0  0  0  0  0  0  0  0  0  0
    1.8061   -0.6786    3.9631 H   0  0  0  0  0  0  0  0  0  0  0  0
    1.2156    0.3859    2.6331 H   0  0  0  0  0  0  0  0  0  0  0  0
   -2.8175    0.4102    0.3399 C   0  0  0  0  0  0  0  0  0  0  0  0
   -3.0660    0.6156    1.7223 C   0  0  0  0  0  0  0  0  0  0  0  0
   -4.0178    1.5798    2.0912 C   0  0  0  0  0  0  0  0  0  0  0  0
   -4.2313    1.7500    3.1573 H   0  0  0  0  0  0  0  0  0  0  0  0
   -4.6934    2.3331    1.1208 C   0  0  0  0  0  0  0  0  0  0  0  0
   -5.4385    3.0833    1.4275 H   0  0  0  0  0  0  0  0  0  0  0  0
   -4.4085    2.1435   -0.2371 C   0  0  0  0  0  0  0  0  0  0  0  0
   -4.9281    2.7533   -0.9927 H   0  0  0  0  0  0  0  0  0  0  0  0
   -3.4612    1.1910   -0.6522 C   0  0  0  0  0  0  0  0  0  0  0  0
   -2.3233   -0.2118    2.7598 C   0  0  0  0  0  0  0  0  0  0  0  0
   -1.4205   -0.6068    2.2481 H   0  0  0  0  0  0  0  0  0  0  0  0
   -3.1752   -1.4172    3.1973 C   0  0  0  0  0  0  0  0  0  0  0  0
   -4.0869   -1.0775    3.7325 H   0  0  0  0  0  0  0  0  0  0  0  0
   -2.6062   -2.0803    3.8824 H   0  0  0  0  0  0  0  0  0  0  0  0
   -3.5063   -2.0119    2.3227 H   0  0  0  0  0  0  0  0  0  0  0  0
   -1.8359    0.6209    3.9518 C   0  0  0  0  0  0  0  0  0  0  0  0
   -1.2312    1.4816    3.6027 H   0  0  0  0  0  0  0  0  0  0  0  0
   -1.2048    0.0027    4.6233 H   0  0  0  0  0  0  0  0  0  0  0  0
   -2.6769    1.0113    4.5621 H   0  0  0  0  0  0  0  0  0  0  0  0
   -3.1292    1.0153   -2.1262 C   0  0  0  0  0  0  0  0  0  0  0  0
   -2.2933    0.2884   -2.1818 H   0  0  0  0  0  0  0  0  0  0  0  0
   -4.3174    0.4138   -2.8949 C   0  0  0  0  0  0  0  0  0  0  0  0
   -4.6277   -0.5471   -2.4386 H   0  0  0  0  0  0  0  0  0  0  0  0
   -4.0510    0.2305   -3.9570 H   0  0  0  0  0  0  0  0  0  0  0  0
   -5.1920    1.0976   -2.8813 H   0  0  0  0  0  0  0  0  0  0  0  0
   -2.6227    2.3268   -2.7479 C   0  0  0  0  0  0  0  0  0  0  0  0
   -3.4072    3.1120   -2.7489 H   0  0  0  0  0  0  0  0  0  0  0  0
   -2.3114    2.1673   -3.8015 H   0  0  0  0  0  0  0  0  0  0  0  0
   -1.7530    2.7141   -2.1802 H   0  0  0  0  0  0  0  0  0  0  0  0
  2 19  1  0  0  0  0
  3 48  1  0  0  0  0
  4 12  2  0  0  0  0
  4  1  1  0  0  0  0
  5  4  1  0  0  0  0
  6  5  1  0  0  0  0
  7  5  2  0  0  0  0
  7  9  1  0  0  0  0
  8  7  1  0  0  0  0
  9 11  2  0  0  0  0
 10  9  1  0  0  0  0
 11  1  1  0  0  0  0
 11 17  1  0  0  0  0
 12  2  1  0  0  0  0
 13 12  1  0  0  0  0
 13 16  1  0  0  0  0
 14 13  1  0  0  0  0
 15 13  1  0  0  0  0
 17  3  1  0  0  0  0
 18 17  2  0  0  0  0
 19 27  1  0  0  0  0
 20 21  1  0  0  0  0
 20 19  2  0  0  0  0
 21 23  2  0  0  0  0
 22 21  1  0  0  0  0
 23 24  1  0  0  0  0
 23 25  1  0  0  0  0
 25 26  1  0  0  0  0
 27 25  2  0  0  0  0
 27 38  1  0  0  0  0
 28 29  1  0  0  0  0
 28 20  1  0  0  0  0
 30 33  1  0  0  0  0
 30 28  1  0  0  0  0
 31 30  1  0  0  0  0
 32 30  1  0  0  0  0
 34 28  1  0  0  0  0
 34 35  1  0  0  0  0
 36 34  1  0  0  0  0
 37 34  1  0  0  0  0
 38 40  1  0  0  0  0
 38 44  1  0  0  0  0
 39 38  1  0  0  0  0
 40 43  1  0  0  0  0
 40 42  1  0  0  0  0
 41 40  1  0  0  0  0
 44 45  1  0  0  0  0
 44 46  1  0  0  0  0
 47 44  1  0  0  0  0
 48 49  1  0  0  0  0
 49 50  2  0  0  0  0
 49 57  1  0  0  0  0
 50 51  1  0  0  0  0
 52 53  1  0  0  0  0
 52 50  1  0  0  0  0
 54 52  2  0  0  0  0
 55 54  1  0  0  0  0
 56 54  1  0  0  0  0
 56 48  2  0  0  0  0
 57 59  1  0  0  0  0
 57 63  1  0  0  0  0
 58 57  1  0  0  0  0
 59 60  1  0  0  0  0
 59 61  1  0  0  0  0
 62 59  1  0  0  0  0
 63 66  1  0  0  0  0
 63 65  1  0  0  0  0
 64 63  1  0  0  0  0
 67 56  1  0  0  0  0
 68 67  1  0  0  0  0
 69 72  1  0  0  0  0
 69 70  1  0  0  0  0
 69 67  1  0  0  0  0
 71 69  1  0  0  0  0
 73 76  1  0  0  0  0
 73 67  1  0  0  0  0
 74 73  1  0  0  0  0
 75 73  1  0  0  0  0
M  END
