3,4,5
q = 0.0, confidence = 0.99

 45 50  0  0  1  0  0  0  0  0999 V2000
    0.8993   -3.8170   -1.2005 S   0  0  0  0  0  0  0  0  0  0  0  0
    0.8993    3.8170    1.2005 S   0  0  0  0  0  0  0  0  0  0  0  0
    0.8755   -0.0000    0.0000 N   0  0  0  0  0  2  0  0  0  0  0  0
    2.5035   -1.9062   -0.5990 N   0  0  0  0  0  2  0  0  0  0  0  0
    2.5035    1.9062    0.5990 N   0  0  0  0  0  2  0  0  0  0  0  0
    0.2212   -1.1456   -0.3542 C   0  0  0  0  0  0  0  0  0  0  0  0
   -1.1787   -1.1666   -0.3583 C   0  0  0  0  0  0  0  0  0  0  0  0
   -1.7213   -2.0745   -0.6568 H   0  0  0  0  0  0  0  0  0  0  0  0
   -1.9023   -0.0000   -0.0000 C   0  0  0  0  0  0  0  0  0  0  0  0
   -1.1787    1.1666    0.3583 C   0  0  0  0  0  0  0  0  0  0  0  0
   -1.7213    2.0745    0.6568 H   0  0  0  0  0  0  0  0  0  0  0  0
    0.2212    1.1456    0.3542 C   0  0  0  0  0  0  0  0  0  0  0  0
    1.1807   -2.1945   -0.6889 C   0  0  2  0  0  3  0  0  0  0  0  0
    2.6074   -4.0924   -1.2886 C   0  0  0  0  0  0  0  0  0  0  0  0
    2.9983   -5.0693   -1.5976 H   0  0  0  0  0  0  0  0  0  0  0  0
    3.3116   -2.9626   -0.9329 C   0  0  0  0  0  0  0  0  0  0  0  0
    4.4014   -2.8325   -0.8927 H   0  0  0  0  0  0  0  0  0  0  0  0
    1.1807    2.1945    0.6889 C   0  0  0  0  0  0  0  0  0  0  0  0
    2.6074    4.0924    1.2885 C   0  0  0  0  0  0  0  0  0  0  0  0
    2.9983    5.0693    1.5975 H   0  0  0  0  0  0  0  0  0  0  0  0
    3.3116    2.9626    0.9329 C   0  0  0  0  0  0  0  0  0  0  0  0
    4.4014    2.8325    0.8927 H   0  0  0  0  0  0  0  0  0  0  0  0
   -3.3824   -0.0000   -0.0000 C   0  0  0  0  0  0  0  0  0  0  0  0
   -4.0854    0.9200   -0.8363 C   0  0  0  0  0  0  0  0  0  0  0  0
   -3.4343    1.8190   -1.7438 C   0  0  0  0  0  0  0  0  0  0  0  0
   -2.3391    1.8004   -1.8365 H   0  0  0  0  0  0  0  0  0  0  0  0
   -4.1598    2.6937   -2.5334 C   0  0  0  0  0  0  0  0  0  0  0  0
   -3.6321    3.3699   -3.2228 H   0  0  0  0  0  0  0  0  0  0  0  0
   -5.5838    2.7181   -2.4796 C   0  0  0  0  0  0  0  0  0  0  0  0
   -6.1433    3.4210   -3.1140 H   0  0  0  0  0  0  0  0  0  0  0  0
   -6.2530    1.8428   -1.6477 C   0  0  0  0  0  0  0  0  0  0  0  0
   -7.3530    1.8310   -1.6137 H   0  0  0  0  0  0  0  0  0  0  0  0
   -5.5381    0.9204   -0.8169 C   0  0  0  0  0  0  0  0  0  0  0  0
   -6.2188    0.0000   -0.0000 C   0  0  0  0  0  0  0  0  0  0  0  0
   -7.3201    0.0000   -0.0000 H   0  0  0  0  0  0  0  0  0  0  0  0
   -5.5381   -0.9204    0.8169 C   0  0  0  0  0  0  0  0  0  0  0  0
   -6.2530   -1.8428    1.6477 C   0  0  0  0  0  0  0  0  0  0  0  0
   -7.3530   -1.8310    1.6137 H   0  0  0  0  0  0  0  0  0  0  0  0
   -5.5838   -2.7181    2.4796 C   0  0  0  0  0  0  0  0  0  0  0  0
   -6.1433   -3.4210    3.1140 H   0  0  0  0  0  0  0  0  0  0  0  0
   -4.1598   -2.6937    2.5334 C   0  0  0  0  0  0  0  0  0  0  0  0
   -3.6322   -3.3699    3.2228 H   0  0  0  0  0  0  0  0  0  0  0  0
   -3.4343   -1.8190    1.7438 C   0  0  0  0  0  0  0  0  0  0  0  0
   -2.3392   -1.8004    1.8365 H   0  0  0  0  0  0  0  0  0  0  0  0
   -4.0854   -0.9200    0.8363 C   0  0  0  0  0  0  0  0  0  0  0  0
  1 13  1  0  0  0  0
  2 19  1  0  0  0  0
  3 12  1  0  0  0  0
  5 18  1  0  0  0  0
  5 21  1  0  0  0  0
  6  3  1  0  0  0  0
  7  6  2  0  0  0  0
  7  9  1  0  0  0  0
  8  7  1  0  0  0  0
  9 10  2  0  0  0  0
 10 11  1  0  0  0  0
 12 10  1  0  0  0  0
 12 18  2  0  0  0  0
 13  4  1  0  0  0  0
 13  6  1  1  0  0  0
 14  1  1  0  0  0  0
 14 16  2  0  0  0  0
 15 14  1  0  0  0  0
 16 17  1  0  0  0  0
 16  4  1  0  0  0  0
 18  2  1  0  0  0  0
 19 20  1  0  0  0  0
 21 19  2  0  0  0  0
 22 21  1  0  0  0  0
 23  9  1  0  0  0  0
 23 45  1  0  0  0  0
 24 33  1  0  0  0  0
 24 23  2  0  0  0  0
 25 24  1  0  0  0  0
 26 25  1  0  0  0  0
 27 29  1  0  0  0  0
 27 25  2  0  0  0  0
 28 27  1  0  0  0  0
 29 31  2  0  0  0  0
 30 29  1  0  0  0  0
 31 32  1  0  0  0  0
 31 33  1  0  0  0  0
 33 34  2  0  0  0  0
 34 36  1  0  0  0  0
 35 34  1  0  0  0  0
 36 45  2  0  0  0  0
 36 37  1  0  0  0  0
 37 39  2  0  0  0  0
 38 37  1  0  0  0  0
 39 41  1  0  0  0  0
 39 40  1  0  0  0  0
 41 42  1  0  0  0  0
 43 44  1  0  0  0  0
 43 41  2  0  0  0  0
 45 43  1  0  0  0  0
M  END
