37,38,75
q = 0.0, confidence = 0.982

 79 84  0  0  1  0  0  0  0  0999 V2000
    4.5028    1.6768    1.5541 C   0  0  0  0  0  0  0  0  0  0  0  0
    4.0819    2.7555    2.3523 C   0  0  0  0  0  0  0  0  0  0  0  0
    3.0150    2.9277    2.5520 H   0  0  0  0  0  0  0  0  0  0  0  0
    5.0525    3.6050    2.9019 C   0  0  0  0  0  0  0  0  0  0  0  0
    4.7483    4.4565    3.5288 H   0  0  0  0  0  0  0  0  0  0  0  0
    6.4090    3.3539    2.6492 C   0  0  0  0  0  0  0  0  0  0  0  0
    7.1969    3.9964    3.0678 H   0  0  0  0  0  0  0  0  0  0  0  0
    6.7463    2.2546    1.8443 C   0  0  0  0  0  0  0  0  0  0  0  0
    7.7874    1.9759    1.6021 H   0  0  0  0  0  0  0  0  0  0  0  0
    3.5810    0.6930    0.9173 C   0  0  0  0  0  0  0  0  0  0  0  0
    2.1803    0.7970    0.8972 C   0  0  0  0  0  0  0  0  0  0  0  0
    1.6705    1.6300    1.3996 H   0  0  0  0  0  0  0  0  0  0  0  0
    1.4219   -0.1903    0.2314 C   0  0  0  0  0  0  0  0  0  0  0  0
   -0.0587   -0.1093    0.1768 C   0  0  0  0  0  0  0  0  0  0  0  0
   -0.7033    1.1387    0.0632 C   0  0  0  0  0  0  0  0  0  0  0  0
   -0.0998    2.0564    0.0102 H   0  0  0  0  0  0  0  0  0  0  0  0
   -2.1091    1.2331    0.0076 C   0  0  0  0  0  0  0  0  0  0  0  0
   -2.8654    0.0446    0.0711 C   0  0  0  0  0  0  0  0  0  0  0  0
   -3.9626    0.1046    0.0294 H   0  0  0  0  0  0  0  0  0  0  0  0
   -2.7756    2.5543   -0.1133 C   0  0  0  0  0  0  0  0  0  0  0  0
   -2.1958    3.5924   -0.8800 C   0  0  0  0  0  0  0  0  0  0  0  0
   -1.2545    3.4092   -1.4195 H   0  0  0  0  0  0  0  0  0  0  0  0
   -2.8228    4.8356   -0.9927 C   0  0  0  0  0  0  0  0  0  0  0  0
   -2.3854    5.6443   -1.5965 H   0  0  0  0  0  0  0  0  0  0  0  0
   -4.0463    5.0779   -0.3376 C   0  0  0  0  0  0  0  0  0  0  0  0
   -4.6355    4.0517    0.4281 C   0  0  0  0  0  0  0  0  0  0  0  0
   -5.5887    4.2445    0.9392 H   0  0  0  0  0  0  0  0  0  0  0  0
   -4.0065    2.8077    0.5355 C   0  0  0  0  0  0  0  0  0  0  0  0
   -4.4630    2.0232    1.1575 H   0  0  0  0  0  0  0  0  0  0  0  0
   -4.6726    6.4244   -0.4932 C   0  0  0  0  0  0  0  0  0  0  0  0
   -6.5150    7.7896    0.1251 C   0  0  0  0  0  0  0  0  0  0  0  0
   -7.1126    7.8653    1.0542 H   0  0  0  0  0  0  0  0  0  0  0  0
   -5.7841    8.6213    0.0685 H   0  0  0  0  0  0  0  0  0  0  0  0
   -7.4306    7.8339   -1.0846 C   0  0  0  0  0  0  0  0  0  0  0  0
   -7.8430    8.8741   -1.1419 H   0  0  0  0  0  0  0  0  0  0  0  0
   -6.8132    7.6807   -2.0015 H   0  0  0  0  0  0  0  0  0  0  0  0
    5.8134    1.4548    1.3160 N   0  0  0  0  0  2  0  0  0  0  0  0
    4.2028   -0.3385    0.3280 N   0  0  0  0  0  2  0  0  0  0  0  0
   -4.2153    7.3213   -1.1849 O   0  0  0  0  0  0  0  0  0  0  0  0
   -5.8137    6.5377    0.2322 O   0  0  0  0  0  0  0  0  0  0  0  0
   -8.4388    6.8552   -0.9316 O   0  0  0  0  0  0  0  0  0  0  0  0
   -8.9320    6.8076   -1.7687 H   0  0  0  0  0  0  0  0  0  0  0  0
    4.3777   -2.3184   -0.9762 C   0  0  1  0  0  3  0  0  0  0  0  0
    3.8874   -3.4840   -1.5919 C   0  0  0  0  0  0  0  0  0  0  0  0
    2.8092   -3.6939   -1.6251 H   0  0  0  0  0  0  0  0  0  0  0  0
    4.8033   -4.3843   -2.1543 C   0  0  0  0  0  0  0  0  0  0  0  0
    4.4443   -5.3026   -2.6429 H   0  0  0  0  0  0  0  0  0  0  0  0
    6.1758   -4.1052   -2.0809 C   0  0  0  0  0  0  0  0  0  0  0  0
    6.9223   -4.7911   -2.5063 H   0  0  0  0  0  0  0  0  0  0  0  0
    6.5838   -2.9217   -1.4461 C   0  0  0  0  0  0  0  0  0  0  0  0
    7.6425   -2.6278   -1.3317 H   0  0  0  0  0  0  0  0  0  0  0  0
    3.5186   -1.2857   -0.3295 C   0  0  0  0  0  0  0  0  0  0  0  0
    2.1157   -1.2490   -0.3939 C   0  0  0  0  0  0  0  0  0  0  0  0
    1.5586   -2.0063   -0.9618 H   0  0  0  0  0  0  0  0  0  0  0  0
   -0.8423   -1.2790    0.2358 C   0  0  0  0  0  0  0  0  0  0  0  0
   -0.3482   -2.2574    0.3248 H   0  0  0  0  0  0  0  0  0  0  0  0
   -2.2502   -1.2192    0.1859 C   0  0  0  0  0  0  0  0  0  0  0  0
   -3.0642   -2.4591    0.2502 C   0  0  0  0  0  0  0  0  0  0  0  0
   -2.6627   -3.5500    1.0567 C   0  0  0  0  0  0  0  0  0  0  0  0
   -1.7516   -3.4665    1.6680 H   0  0  0  0  0  0  0  0  0  0  0  0
   -3.4281   -4.7169    1.1173 C   0  0  0  0  0  0  0  0  0  0  0  0
   -3.1304   -5.5651    1.7510 H   0  0  0  0  0  0  0  0  0  0  0  0
   -4.6162   -4.8283    0.3685 C   0  0  0  0  0  0  0  0  0  0  0  0
   -5.0286   -3.7484   -0.4380 C   0  0  0  0  0  0  0  0  0  0  0  0
   -5.9544   -3.8392   -1.0225 H   0  0  0  0  0  0  0  0  0  0  0  0
   -4.2614   -2.5808   -0.4929 C   0  0  0  0  0  0  0  0  0  0  0  0
   -4.5797   -1.7550   -1.1465 H   0  0  0  0  0  0  0  0  0  0  0  0
   -5.3954   -6.0978    0.4713 C   0  0  0  0  0  0  0  0  0  0  0  0
   -7.3203   -7.2591   -0.2954 C   0  0  0  0  0  0  0  0  0  0  0  0
   -7.8441   -7.2767   -1.2708 H   0  0  0  0  0  0  0  0  0  0  0  0
   -6.6913   -8.1646   -0.1796 H   0  0  0  0  0  0  0  0  0  0  0  0
   -8.3319   -7.1942    0.8343 C   0  0  0  0  0  0  0  0  0  0  0  0
   -8.8585   -8.1830    0.8558 H   0  0  0  0  0  0  0  0  0  0  0  0
   -7.7792   -7.1022    1.7994 H   0  0  0  0  0  0  0  0  0  0  0  0
    5.7026   -2.0625   -0.9220 N   0  0  0  0  0  2  0  0  0  0  0  0
   -5.0940   -7.0344    1.1954 O   0  0  0  0  0  0  0  0  0  0  0  0
   -6.4808   -6.0914   -0.3425 O   0  0  0  0  0  0  0  0  0  0  0  0
   -9.2110   -6.1129    0.5996 O   0  0  0  0  0  0  0  0  0  0  0  0
   -9.7676   -6.0090    1.3907 H   0  0  0  0  0  0  0  0  0  0  0  0
  1  2  1  0  0  0  0
  2  3  1  0  0  0  0
  2  4  2  0  0  0  0
  4  5  1  0  0  0  0
  6  4  1  0  0  0  0
  6  7  1  0  0  0  0
  8  6  2  0  0  0  0
  9  8  1  0  0  0  0
 10  1  2  0  0  0  0
 11 10  1  0  0  0  0
 11 12  1  0  0  0  0
 13 11  2  0  0  0  0
 14 13  1  0  0  0  0
 14 55  1  0  0  0  0
 15 14  2  0  0  0  0
 16 15  1  0  0  0  0
 17 15  1  0  0  0  0
 17 18  2  0  0  0  0
 18 57  1  0  0  0  0
 19 18  1  0  0  0  0
 20 17  1  0  0  0  0
 20 28  1  0  0  0  0
 21 20  2  0  0  0  0
 22 21  1  0  0  0  0
 23 21  1  0  0  0  0
 23 25  2  0  0  0  0
 24 23  1  0  0  0  0
 25 26  1  0  0  0  0
 26 28  2  0  0  0  0
 26 27  1  0  0  0  0
 28 29  1  0  0  0  0
 30 25  1  0  0  0  0
 30 40  1  0  0  0  0
 31 40  1  0  0  0  0
 31 32  1  0  0  0  0
 33 31  1  0  0  0  0
 34 41  1  0  0  0  0
 34 31  1  0  0  0  0
 35 34  1  0  0  0  0
 36 34  1  0  0  0  0
 37  1  1  0  0  0  0
 37  8  1  0  0  0  0
 38 10  1  0  0  0  0
 39 30  2  0  0  0  0
 42 41  1  0  0  0  0
 43 75  1  0  0  0  0
 43 52  1  1  0  0  0
 44 43  1  0  0  0  0
 45 44  1  0  0  0  0
 46 48  1  0  0  0  0
 46 44  2  0  0  0  0
 47 46  1  0  0  0  0
 48 50  2  0  0  0  0
 49 48  1  0  0  0  0
 50 51  1  0  0  0  0
 50 75  1  0  0  0  0
 52 38  1  0  0  0  0
 53 52  2  0  0  0  0
 53 13  1  0  0  0  0
 54 53  1  0  0  0  0
 55 56  1  0  0  0  0
 57 55  2  0  0  0  0
 57 58  1  0  0  0  0
 58 59  1  0  0  0  0
 59 61  2  0  0  0  0
 59 60  1  0  0  0  0
 61 62  1  0  0  0  0
 63 68  1  0  0  0  0
 63 61  1  0  0  0  0
 64 63  2  0  0  0  0
 65 64  1  0  0  0  0
 66 64  1  0  0  0  0
 66 58  2  0  0  0  0
 67 66  1  0  0  0  0
 68 76  2  0  0  0  0
 69 71  1  0  0  0  0
 69 72  1  0  0  0  0
 70 69  1  0  0  0  0
 72 73  1  0  0  0  0
 72 74  1  0  0  0  0
 77 69  1  0  0  0  0
 77 68  1  0  0  0  0
 78 72  1  0  0  0  0
 78 79  1  0  0  0  0
M  END
