22,24,26
q = -1.0

 44 46  0  0  1  0  0  0  0  0999 V2000
   -2.4447   -4.9695   -0.5787 Br  0  0  0  0  0  0  0  0  0  0  0  0
   -3.0352    4.5790   -0.8557 Br  0  0  0  0  0  0  0  0  0  0  0  0
    5.5445    0.3179   -0.4840 Br  0  0  0  0  0  0  0  0  0  0  0  0
   -1.0257   -3.3097    2.9430 F   0  0  0  0  0  0  0  0  0  0  0  0
   -3.0480   -3.7437    2.2497 F   0  0  0  0  0  0  0  0  0  0  0  0
   -2.5139   -1.7186    2.8660 F   0  0  0  0  0  0  0  0  0  0  0  0
   -1.2396   -3.9319   -3.1725 F   0  0  0  0  0  0  0  0  0  0  0  0
    0.5122   -2.6386   -3.0649 F   0  0  0  0  0  0  0  0  0  0  0  0
   -1.4335   -1.8058   -3.6021 F   0  0  0  0  0  0  0  0  0  0  0  0
   -2.4797    2.5439    2.7653 F   0  0  0  0  0  0  0  0  0  0  0  0
   -1.8980    4.5264    2.0645 F   0  0  0  0  0  0  0  0  0  0  0  0
   -0.3796    3.1262    2.7720 F   0  0  0  0  0  0  0  0  0  0  0  0
   -2.5611    2.9786   -3.3990 F   0  0  0  0  0  0  0  0  0  0  0  0
   -2.3208    0.8177   -3.2387 F   0  0  0  0  0  0  0  0  0  0  0  0
   -0.5972    2.0820   -3.6845 F   0  0  0  0  0  0  0  0  0  0  0  0
    3.4642    0.9776    2.9092 F   0  0  0  0  0  0  0  0  0  0  0  0
    4.7029   -0.7377    2.3799 F   0  0  0  0  0  0  0  0  0  0  0  0
    2.6434   -1.0386    3.0396 F   0  0  0  0  0  0  0  0  0  0  0  0
    4.0957    0.6729   -3.1393 F   0  0  0  0  0  0  0  0  0  0  0  0
    2.0945    1.5383   -3.1347 F   0  0  0  0  0  0  0  0  0  0  0  0
    2.3658   -0.5935   -3.5220 F   0  0  0  0  0  0  0  0  0  0  0  0
   -1.0325   -1.3250    0.5748 N   0  0  0  0  0  2  0  0  0  0  0  0
   -0.7064   -1.2901   -0.7306 N   0  0  0  0  0  0  0  0  0  0  0  0
   -0.6497    1.5672    0.5042 N   0  0  0  0  0  2  0  0  0  0  0  0
   -0.6977    1.2450   -0.8013 N   0  0  0  0  0  0  0  0  0  0  0  0
    1.6600   -0.2065    0.6255 N   0  0  0  0  0  2  0  0  0  0  0  0
    1.4924   -0.0281   -0.6987 N   0  0  0  0  0  0  0  0  0  0  0  0
   -1.6480   -2.4929    0.8146 C   0  0  1  0  0  3  0  0  0  0  0  0
   -1.7057   -3.2602   -0.3760 C   0  0  0  0  0  0  0  0  0  0  0  0
   -1.0919   -2.4502   -1.3477 C   0  0  0  0  0  0  0  0  0  0  0  0
   -2.0668   -2.8228    2.2235 C   0  0  0  0  0  0  0  0  0  0  0  0
   -0.8166   -2.7085   -2.8080 C   0  0  0  0  0  0  0  0  0  0  0  0
   -1.3736    2.6831    0.6807 C   0  0  1  0  0  3  0  0  0  0  0  0
   -1.9335    3.0940   -0.5552 C   0  0  0  0  0  0  0  0  0  0  0  0
   -1.4727    2.1440   -1.4841 C   0  0  0  0  0  0  0  0  0  0  0  0
   -1.5349    3.2309    2.0747 C   0  0  0  0  0  0  0  0  0  0  0  0
   -1.7372    2.0093   -2.9628 C   0  0  0  0  0  0  0  0  0  0  0  0
    2.9744   -0.1399    0.8858 C   0  0  1  0  0  3  0  0  0  0  0  0
    3.6906    0.1160   -0.3103 C   0  0  0  0  0  0  0  0  0  0  0  0
    2.7018    0.1780   -1.3073 C   0  0  0  0  0  0  0  0  0  0  0  0
    3.4540   -0.2384    2.3103 C   0  0  0  0  0  0  0  0  0  0  0  0
    2.8177    0.4463   -2.7868 C   0  0  0  0  0  0  0  0  0  0  0  0
    0.0463   -0.0399   -1.2940 B   0  0  1  0  0  0  0  0  0  0  0  0
    0.0828   -0.0739   -2.4926 H   0  0  0  0  0  0  0  0  0  0  0  0
  1 29  1  0  0  0  0
  2 34  1  0  0  0  0
  3 39  1  0  0  0  0
  7 32  1  0  0  0  0
  8 32  1  0  0  0  0
  9 32  1  0  0  0  0
 11 36  1  0  0  0  0
 13 37  1  0  0  0  0
 14 37  1  0  0  0  0
 15 37  1  0  0  0  0
 19 42  1  0  0  0  0
 20 42  1  0  0  0  0
 21 42  1  0  0  0  0
 22 28  1  0  0  0  0
 23 22  1  0  0  0  0
 24 33  1  0  0  0  0
 25 24  1  0  0  0  0
 26 38  1  0  0  0  0
 27 26  1  0  0  0  0
 28 31  1  1  0  0  0
 29 28  1  0  0  0  0
 30 23  1  0  0  0  0
 30 29  2  0  0  0  0
 31  5  1  0  0  0  0
 31  6  1  0  0  0  0
 31  4  1  0  0  0  0
 32 30  1  0  0  0  0
 33 36  1  1  0  0  0
 34 33  1  0  0  0  0
 35 25  1  0  0  0  0
 35 34  2  0  0  0  0
 36 10  1  0  0  0  0
 36 12  1  0  0  0  0
 37 35  1  0  0  0  0
 38 41  1  1  0  0  0
 39 38  1  0  0  0  0
 40 27  1  0  0  0  0
 40 39  2  0  0  0  0
 41 17  1  0  0  0  0
 41 16  1  0  0  0  0
 41 18  1  0  0  0  0
 42 40  1  0  0  0  0
 43 44  1  6  0  0  0
 43 25  1  0  0  0  0
 43 23  1  0  0  0  0
 43 27  1  0  0  0  0
M  END
