1,2,3
q = 0.0, confidence = 0.986

 31 33  0  0  1  0  0  0  0  0999 V2000
   -0.0833   -1.9107    0.4709 N   0  0  0  0  0  2  0  0  0  0  0  0
   -2.0225   -0.9545   -0.9345 N   0  0  0  0  0  2  0  0  0  0  0  0
    2.0697   -1.1138   -0.7198 N   0  0  0  0  0  2  0  0  0  0  0  0
   -2.6021    0.0212   -2.9665 O   0  0  0  0  0  0  0  0  0  0  0  0
    2.9733   -0.1067   -2.6166 O   0  0  0  0  0  0  0  0  0  0  0  0
    1.0634   -2.4053    1.0334 C   0  0  0  0  0  0  0  0  0  0  0  0
   -2.9596   -0.5960   -1.8521 C   0  0  2  0  0  3  0  0  0  0  0  0
   -2.4216   -1.7222    0.1436 C   0  0  0  0  0  0  0  0  0  0  0  0
    0.9861   -3.2773    2.1303 C   0  0  0  0  0  0  0  0  0  0  0  0
    1.9061   -3.6761    2.5780 H   0  0  0  0  0  0  0  0  0  0  0  0
    4.4592   -1.1286   -1.1224 C   0  0  0  0  0  0  0  0  0  0  0  0
    5.2759   -0.7915   -1.7742 H   0  0  0  0  0  0  0  0  0  0  0  0
    2.2838   -1.9398    0.3679 C   0  0  0  0  0  0  0  0  0  0  0  0
   -1.3209   -2.2678    0.9414 C   0  0  0  0  0  0  0  0  0  0  0  0
    3.1367   -0.7796   -1.4940 C   0  0  0  0  0  0  0  0  0  0  0  0
   -1.4301   -3.1210    2.0490 C   0  0  0  0  0  0  0  0  0  0  0  0
   -2.4211   -3.3925    2.4348 H   0  0  0  0  0  0  0  0  0  0  0  0
   -4.7423   -1.5283   -0.4989 C   0  0  0  0  0  0  0  0  0  0  0  0
   -5.8092   -1.7245   -0.3181 H   0  0  0  0  0  0  0  0  0  0  0  0
    3.5693   -2.3180    0.7732 C   0  0  0  0  0  0  0  0  0  0  0  0
    3.7017   -2.9583    1.6543 H   0  0  0  0  0  0  0  0  0  0  0  0
   -4.3365   -0.8428   -1.6415 C   0  0  0  0  0  0  0  0  0  0  0  0
   -5.0421   -0.4909   -2.4055 H   0  0  0  0  0  0  0  0  0  0  0  0
   -3.7711   -1.9970    0.3980 C   0  0  0  0  0  0  0  0  0  0  0  0
   -4.0531   -2.5883    1.2781 H   0  0  0  0  0  0  0  0  0  0  0  0
    4.6745   -1.8849    0.0241 C   0  0  0  0  0  0  0  0  0  0  0  0
    5.6955   -2.1600    0.3264 H   0  0  0  0  0  0  0  0  0  0  0  0
   -0.2684   -3.6310    2.6458 C   0  0  0  0  0  0  0  0  0  0  0  0
   -0.3415   -4.3066    3.5094 H   0  0  0  0  0  0  0  0  0  0  0  0
    1.9953    0.0691   -2.8068 H   0  0  0  0  0  0  0  0  0  0  0  0
   -1.5982    0.1064   -3.0342 H   0  0  0  0  0  0  0  0  0  0  0  0
  1 14  1  0  0  0  0
  1  6  1  0  0  0  0
  2  8  1  0  0  0  0
  3 13  1  0  0  0  0
  5 15  1  0  0  0  0
  6  9  1  0  0  0  0
  7  4  1  1  0  0  0
  7 22  1  0  0  0  0
  7  2  1  0  0  0  0
  8 24  2  0  0  0  0
  8 14  1  0  0  0  0
  9 10  1  0  0  0  0
  9 28  2  0  0  0  0
 11 26  1  0  0  0  0
 12 11  1  0  0  0  0
 13 20  1  0  0  0  0
 13  6  2  0  0  0  0
 14 16  2  0  0  0  0
 15 11  2  0  0  0  0
 15  3  1  0  0  0  0
 16 17  1  0  0  0  0
 16 28  1  0  0  0  0
 18 19  1  0  0  0  0
 18 24  1  0  0  0  0
 20 21  1  0  0  0  0
 22 18  2  0  0  0  0
 23 22  1  0  0  0  0
 24 25  1  0  0  0  0
 26 27  1  0  0  0  0
 26 20  2  0  0  0  0
 28 29  1  0  0  0  0
 30  5  1  0  0  0  0
 31  4  1  0  0  0  0
M  END
