5,6,7
q = 0.0, confidence = 0.986

 31 33  0  0  1  0  0  0  0  0999 V2000
   -2.8704   -2.2076   -0.0001 O   0  0  0  0  0  0  0  0  0  0  0  0
   -1.8853   -2.4087   -0.0000 H   0  0  0  0  0  0  0  0  0  0  0  0
    2.8705   -2.2076    0.0003 O   0  0  0  0  0  0  0  0  0  0  0  0
    1.8854   -2.4088    0.0002 H   0  0  0  0  0  0  0  0  0  0  0  0
   -2.0685   -0.0208   -0.0001 N   0  0  0  0  0  2  0  0  0  0  0  0
    0.0000    1.5450   -0.0001 N   0  0  0  0  0  2  0  0  0  0  0  0
    2.0685   -0.0209    0.0001 N   0  0  0  0  0  2  0  0  0  0  0  0
   -3.1026   -0.9072   -0.0001 C   0  0  1  0  0  3  0  0  0  0  0  0
   -4.4526   -0.4788   -0.0001 C   0  0  0  0  0  0  0  0  0  0  0  0
   -5.2330   -1.2513   -0.0001 H   0  0  0  0  0  0  0  0  0  0  0  0
   -4.7413    0.8816   -0.0002 C   0  0  0  0  0  0  0  0  0  0  0  0
   -5.7842    1.2294   -0.0003 H   0  0  0  0  0  0  0  0  0  0  0  0
   -3.6830    1.8048   -0.0003 C   0  0  0  0  0  0  0  0  0  0  0  0
   -3.8821    2.8837   -0.0004 H   0  0  0  0  0  0  0  0  0  0  0  0
   -2.3653    1.3333   -0.0002 C   0  0  0  0  0  0  0  0  0  0  0  0
   -1.1956    2.2180   -0.0003 C   0  0  1  0  0  3  0  0  0  0  0  0
   -1.2114    3.6218   -0.0004 C   0  0  0  0  0  0  0  0  0  0  0  0
   -2.1676    4.1613   -0.0005 H   0  0  0  0  0  0  0  0  0  0  0  0
    0.0000    4.3272   -0.0003 C   0  0  0  0  0  0  0  0  0  0  0  0
    0.0000    5.4260   -0.0004 H   0  0  0  0  0  0  0  0  0  0  0  0
    1.2115    3.6218   -0.0002 C   0  0  0  0  0  0  0  0  0  0  0  0
    2.1676    4.1613   -0.0001 H   0  0  0  0  0  0  0  0  0  0  0  0
    1.1956    2.2180   -0.0001 C   0  0  0  0  0  0  0  0  0  0  0  0
    2.3653    1.3333    0.0000 C   0  0  1  0  0  3  0  0  0  0  0  0
    3.6830    1.8048   -0.0000 C   0  0  0  0  0  0  0  0  0  0  0  0
    3.8821    2.8837   -0.0001 H   0  0  0  0  0  0  0  0  0  0  0  0
    4.7413    0.8817    0.0000 C   0  0  0  0  0  0  0  0  0  0  0  0
    5.7842    1.2295    0.0000 H   0  0  0  0  0  0  0  0  0  0  0  0
    4.4526   -0.4787    0.0001 C   0  0  0  0  0  0  0  0  0  0  0  0
    5.2331   -1.2513    0.0002 H   0  0  0  0  0  0  0  0  0  0  0  0
    3.1027   -0.9072    0.0002 C   0  0  0  0  0  0  0  0  0  0  0  0
  1  2  1  0  0  0  0
  4  3  1  0  0  0  0
  5  8  1  0  0  0  0
  6 23  1  0  0  0  0
  7 31  1  0  0  0  0
  8  1  1  6  0  0  0
  9  8  1  0  0  0  0
  9 10  1  0  0  0  0
 11  9  2  0  0  0  0
 12 11  1  0  0  0  0
 13 15  2  0  0  0  0
 13 11  1  0  0  0  0
 14 13  1  0  0  0  0
 15  5  1  0  0  0  0
 16 15  1  1  0  0  0
 16  6  1  0  0  0  0
 17 19  2  0  0  0  0
 17 16  1  0  0  0  0
 18 17  1  0  0  0  0
 19 21  1  0  0  0  0
 20 19  1  0  0  0  0
 21 22  1  0  0  0  0
 21 23  2  0  0  0  0
 24 23  1  1  0  0  0
 24  7  1  0  0  0  0
 25 24  1  0  0  0  0
 25 27  2  0  0  0  0
 26 25  1  0  0  0  0
 27 29  1  0  0  0  0
 28 27  1  0  0  0  0
 29 30  1  0  0  0  0
 29 31  2  0  0  0  0
 31  3  1  0  0  0  0
M  END
