7,8,9
q = -2.0, confidence = 0.994

 39 41  0  0  1  0  0  0  0  0999 V2000
   -3.5556    2.0513    0.2004 O   0  0  0  0  0  0  0  0  0  0  0  0
   -4.6970    0.3069   -1.1908 O   0  0  0  0  0  0  0  0  0  0  0  0
   -4.3288    1.1421   -0.7204 H   0  0  0  0  0  0  0  0  0  0  0  0
    3.5046    2.1227   -0.2726 O   0  0  0  0  0  0  0  0  0  0  0  0
    3.8687    0.1421    1.8335 O   0  0  0  0  0  0  0  0  0  0  0  0
    4.6155   -0.0011    2.4421 H   0  0  0  0  0  0  0  0  0  0  0  0
   -0.0191    1.8423    0.0054 N   0  0  0  0  0  2  0  0  0  0  0  0
   -2.0673    0.2280    0.1476 N   0  0  0  0  0  2  0  0  0  0  0  0
    2.0330    0.2962   -0.2412 N   0  0  0  0  0  2  0  0  0  0  0  0
   -2.3947    1.5451    0.1394 C   0  0  0  0  0  0  0  0  0  0  0  0
   -1.2163    2.4591    0.0758 C   0  0  1  0  0  3  0  0  0  0  0  0
   -1.2742    3.8611    0.0889 C   0  0  0  0  0  0  0  0  0  0  0  0
   -2.2648    4.3341    0.1418 H   0  0  0  0  0  0  0  0  0  0  0  0
   -0.0710    4.5855    0.0290 C   0  0  0  0  0  0  0  0  0  0  0  0
   -0.0919    5.6864    0.0417 H   0  0  0  0  0  0  0  0  0  0  0  0
    1.1580    3.9058   -0.0560 C   0  0  0  0  0  0  0  0  0  0  0  0
    2.1321    4.4122   -0.1158 H   0  0  0  0  0  0  0  0  0  0  0  0
    1.1505    2.5053   -0.0736 C   0  0  0  0  0  0  0  0  0  0  0  0
    2.3711    1.6290   -0.1960 C   0  0  0  0  0  0  0  0  0  0  0  0
   -3.0580   -0.7756    0.2636 C   0  0  0  0  0  0  0  0  0  0  0  0
   -2.7585   -1.9169    1.0437 C   0  0  0  0  0  0  0  0  0  0  0  0
   -1.7743   -1.9547    1.5288 H   0  0  0  0  0  0  0  0  0  0  0  0
   -3.6533   -2.9833    1.1667 C   0  0  0  0  0  0  0  0  0  0  0  0
   -3.3786   -3.8569    1.7773 H   0  0  0  0  0  0  0  0  0  0  0  0
   -4.8839   -2.9402    0.4871 C   0  0  0  0  0  0  0  0  0  0  0  0
   -5.5928   -3.7806    0.5608 H   0  0  0  0  0  0  0  0  0  0  0  0
   -5.2105   -1.8199   -0.2819 C   0  0  0  0  0  0  0  0  0  0  0  0
   -6.1693   -1.7452   -0.8171 H   0  0  0  0  0  0  0  0  0  0  0  0
   -4.3240   -0.7247   -0.4124 C   0  0  0  0  0  0  0  0  0  0  0  0
    3.0689   -0.6541   -0.2688 C   0  0  0  0  0  0  0  0  0  0  0  0
    3.1668   -1.5952   -1.3110 C   0  0  0  0  0  0  0  0  0  0  0  0
    2.3967   -1.5635   -2.0932 H   0  0  0  0  0  0  0  0  0  0  0  0
    4.1973   -2.5456   -1.3470 C   0  0  0  0  0  0  0  0  0  0  0  0
    4.2477   -3.2678   -2.1758 H   0  0  0  0  0  0  0  0  0  0  0  0
    5.1547   -2.5738   -0.3218 C   0  0  0  0  0  0  0  0  0  0  0  0
    5.9723   -3.3114   -0.3371 H   0  0  0  0  0  0  0  0  0  0  0  0
    5.0621   -1.6614    0.7406 C   0  0  0  0  0  0  0  0  0  0  0  0
    5.7976   -1.6857    1.5640 H   0  0  0  0  0  0  0  0  0  0  0  0
    4.0217   -0.7160    0.7867 C   0  0  0  0  0  0  0  0  0  0  0  0
  2  3  1  0  0  0  0
  2 29  1  0  0  0  0
  4 19  2  0  0  0  0
  5  6  1  0  0  0  0
  7 11  1  0  0  0  0
  8 20  1  0  0  0  0
  9 19  1  0  0  0  0
 10  8  1  0  0  0  0
 10  1  2  0  0  0  0
 11 12  1  0  0  0  0
 11 10  1  1  0  0  0
 12 13  1  0  0  0  0
 14 15  1  0  0  0  0
 14 12  2  0  0  0  0
 16 14  1  0  0  0  0
 17 16  1  0  0  0  0
 18 16  2  0  0  0  0
 18  7  1  0  0  0  0
 19 18  1  0  0  0  0
 20 21  1  0  0  0  0
 21 23  2  0  0  0  0
 21 22  1  0  0  0  0
 23 24  1  0  0  0  0
 25 26  1  0  0  0  0
 25 23  1  0  0  0  0
 27 25  2  0  0  0  0
 28 27  1  0  0  0  0
 29 27  1  0  0  0  0
 29 20  2  0  0  0  0
 30  9  1  0  0  0  0
 30 39  1  0  0  0  0
 31 30  2  0  0  0  0
 32 31  1  0  0  0  0
 33 31  1  0  0  0  0
 33 35  2  0  0  0  0
 34 33  1  0  0  0  0
 35 37  1  0  0  0  0
 36 35  1  0  0  0  0
 37 39  2  0  0  0  0
 37 38  1  0  0  0  0
 39  5  1  0  0  0  0
M  END
