4,8,42
q = -1.0, confidence = 0.038

 42 44  0  0  1  0  0  0  0  0999 V2000
   -3.6690   -0.0180    2.6890 S   0  0  0  0  0  0  0  0  0  0  0  0
    0.7719    0.0027   -3.5845 Cl  0  0  0  0  0  0  0  0  0  0  0  0
   -2.0894   -1.7862    1.3229 N   0  0  0  0  0  2  0  0  0  0  0  0
   -1.4196    0.4702    1.4064 N   0  0  0  0  0  2  0  0  0  0  0  0
    0.6232   -2.7146   -0.7060 N   0  0  0  0  0  0  0  0  0  0  0  0
   -1.8378    1.6915    1.8957 C   0  0  0  0  0  0  0  0  0  0  0  0
   -2.2878   -0.5257    1.7234 C   0  0  2  0  0  3  0  0  0  0  0  0
    0.9014   -1.4416   -0.8776 N   0  0  0  0  0  2  0  0  0  0  0  0
   -0.4627   -2.9205    0.0449 C   0  0  0  0  0  0  0  0  0  0  0  0
   -1.0006   -4.2780    0.3680 C   0  0  0  0  0  0  0  0  0  0  0  0
   -2.0209   -4.3485   -0.0747 H   0  0  0  0  0  0  0  0  0  0  0  0
   -1.1685   -4.3318    1.4665 H   0  0  0  0  0  0  0  0  0  0  0  0
   -1.1741    2.9282    1.7657 C   0  0  0  0  0  0  0  0  0  0  0  0
   -0.2134    2.9741    1.2400 H   0  0  0  0  0  0  0  0  0  0  0  0
   -3.6365    2.7815    3.1927 C   0  0  0  0  0  0  0  0  0  0  0  0
   -4.5818    2.7223    3.7516 H   0  0  0  0  0  0  0  0  0  0  0  0
   -0.7102   -6.8058    0.2208 C   0  0  0  0  0  0  0  0  0  0  0  0
   -1.7262   -6.8873   -0.2262 H   0  0  0  0  0  0  0  0  0  0  0  0
   -0.8626   -6.8812    1.3208 H   0  0  0  0  0  0  0  0  0  0  0  0
   -3.0648    1.6335    2.6275 C   0  0  0  0  0  0  0  0  0  0  0  0
    2.1323   -1.1618   -1.5091 C   0  0  0  0  0  0  0  0  0  0  0  0
   -2.9758    4.0074    3.0231 C   0  0  0  0  0  0  0  0  0  0  0  0
   -3.4127    4.9213    3.4517 H   0  0  0  0  0  0  0  0  0  0  0  0
    3.3284   -1.5969   -0.8980 C   0  0  0  0  0  0  0  0  0  0  0  0
    3.2462   -2.1810    0.0290 H   0  0  0  0  0  0  0  0  0  0  0  0
   -0.1225   -5.4327   -0.1145 C   0  0  0  0  0  0  0  0  0  0  0  0
    0.0316   -5.3416   -1.2108 H   0  0  0  0  0  0  0  0  0  0  0  0
    0.8914   -5.3350    0.3306 H   0  0  0  0  0  0  0  0  0  0  0  0
   -1.7538    4.0740    2.3209 C   0  0  0  0  0  0  0  0  0  0  0  0
   -1.2399    5.0408    2.2120 H   0  0  0  0  0  0  0  0  0  0  0  0
    3.4681   -0.0803   -3.2511 C   0  0  0  0  0  0  0  0  0  0  0  0
    3.5009    0.4940   -4.1876 H   0  0  0  0  0  0  0  0  0  0  0  0
    4.5739   -1.2663   -1.4406 C   0  0  0  0  0  0  0  0  0  0  0  0
    5.4923   -1.6008   -0.9364 H   0  0  0  0  0  0  0  0  0  0  0  0
    0.1598   -7.9672   -0.2606 C   0  0  0  0  0  0  0  0  0  0  0  0
   -0.2875   -8.9494   -0.0073 H   0  0  0  0  0  0  0  0  0  0  0  0
    1.1700   -7.9304    0.1984 H   0  0  0  0  0  0  0  0  0  0  0  0
    0.2991   -7.9357   -1.3614 H   0  0  0  0  0  0  0  0  0  0  0  0
    2.2195   -0.4235   -2.7114 C   0  0  0  0  0  0  0  0  0  0  0  0
    4.6450   -0.4909   -2.6094 C   0  0  0  0  0  0  0  0  0  0  0  0
    5.6202   -0.2112   -3.0347 H   0  0  0  0  0  0  0  0  0  0  0  0
   -1.0629   -1.7849    0.4849 N   0  0  0  0  0  2  0  0  0  0  0  0
  2 39  1  0  0  0  0
  4  7  1  0  0  0  0
  4  6  1  0  0  0  0
  5  9  2  0  0  0  0
  6 20  1  0  0  0  0
  7  3  1  1  0  0  0
  7  1  1  0  0  0  0
  8  5  1  0  0  0  0
  9 10  1  0  0  0  0
  9 42  1  0  0  0  0
 10 12  1  0  0  0  0
 11 10  1  0  0  0  0
 13  6  2  0  0  0  0
 13 29  1  0  0  0  0
 14 13  1  0  0  0  0
 15 16  1  0  0  0  0
 17 19  1  0  0  0  0
 18 17  1  0  0  0  0
 20  1  1  0  0  0  0
 20 15  2  0  0  0  0
 21 24  1  0  0  0  0
 21  8  1  0  0  0  0
 22 15  1  0  0  0  0
 22 23  1  0  0  0  0
 24 25  1  0  0  0  0
 26 17  1  0  0  0  0
 26 28  1  0  0  0  0
 26 10  1  0  0  0  0
 27 26  1  0  0  0  0
 29 22  2  0  0  0  0
 30 29  1  0  0  0  0
 31 39  1  0  0  0  0
 31 40  2  0  0  0  0
 32 31  1  0  0  0  0
 33 34  1  0  0  0  0
 33 24  2  0  0  0  0
 35 36  1  0  0  0  0
 35 37  1  0  0  0  0
 35 17  1  0  0  0  0
 38 35  1  0  0  0  0
 39 21  2  0  0  0  0
 40 33  1  0  0  0  0
 41 40  1  0  0  0  0
 42  3  1  0  0  0  0
M  END
