4,5,6
q = -3.0, confidence = 0.378

 64 69  0  0  0  0  0  0  0  0999 V2000
   -0.6263   -0.4174    1.7040 F   0  0  0  0  0  0  0  0  0  0  0  0
   -0.6236    1.6855   -0.4900 F   0  0  0  0  0  0  0  0  0  0  0  0
   -0.6259   -1.2671   -1.2147 F   0  0  0  0  0  0  0  0  0  0  0  0
    1.4161   -1.7127    0.4137 N   0  0  0  0  0  0  0  0  0  0  0  0
    1.4182    1.2126    1.2755 N   0  0  0  0  0  0  0  0  0  0  0  0
    1.4181    0.4967   -1.6884 N   0  0  0  0  0  0  0  0  0  0  0  0
   -1.1088    3.3595    3.9346 F   0  0  0  0  0  0  0  0  0  0  0  0
    3.7832   -0.0034    0.0005 N   0  0  0  0  0  0  0  0  0  0  0  0
    2.6644   -2.1905    0.1222 C   0  0  0  0  0  0  0  0  0  0  0  0
    0.6763    2.1817    1.9757 C   0  0  0  0  0  3  0  0  0  0  0  0
   -1.1157   -5.0858    0.9401 F   0  0  0  0  0  0  0  0  0  0  0  0
    1.5050    2.7790    2.9597 C   0  0  0  0  0  0  0  0  0  0  0  0
    1.2034    3.5810    3.6400 H   0  0  0  0  0  0  0  0  0  0  0  0
    2.7608   -3.5590    0.4526 C   0  0  0  0  0  0  0  0  0  0  0  0
    3.6611   -4.1773    0.3437 H   0  0  0  0  0  0  0  0  0  0  0  0
   -1.1095    1.7311   -4.8742 F   0  0  0  0  0  0  0  0  0  0  0  0
    2.7656    2.1681    2.8536 C   0  0  0  0  0  0  0  0  0  0  0  0
    3.6667    2.3818    3.4427 H   0  0  0  0  0  0  0  0  0  0  0  0
   -0.7294    2.4628    1.7468 C   0  0  0  0  0  0  0  0  0  0  0  0
   -0.7307    0.2827   -3.0055 C   0  0  0  0  0  0  0  0  0  0  0  0
   -1.6068    3.0174    2.7245 C   0  0  0  0  0  0  0  0  0  0  0  0
   -1.4040   -1.5498    1.6148 C   0  0  0  0  0  0  0  0  0  0  0  0
    0.6721   -2.8028    0.9017 C   0  0  0  0  0  3  0  0  0  0  0  0
    2.7654    1.3848   -3.3055 C   0  0  0  0  0  0  0  0  0  0  0  0
    3.6666    1.7873   -3.7856 H   0  0  0  0  0  0  0  0  0  0  0  0
    2.6669    1.1974    1.8340 C   0  0  0  0  0  0  0  0  0  0  0  0
   -1.4005    2.1752    0.5356 C   0  0  0  0  0  0  0  0  0  0  0  0
    2.6673    0.9865   -1.9553 C   0  0  0  0  0  3  0  0  0  0  0  0
   -2.7576    2.3301    0.2776 C   0  0  0  0  0  0  0  0  0  0  0  0
   -3.1481    2.0403   -0.7084 H   0  0  0  0  0  0  0  0  0  0  0  0
   -1.6125   -3.8663    1.2490 C   0  0  0  0  0  0  0  0  0  0  0  0
    1.4991   -3.9548    0.9272 C   0  0  0  0  0  0  0  0  0  0  0  0
    1.1959   -4.9447    1.2809 H   0  0  0  0  0  0  0  0  0  0  0  0
    3.7335    1.1119   -0.9050 C   0  0  0  0  0  0  0  0  0  0  0  0
    4.7064    1.3043   -1.4338 H   0  0  0  0  0  0  0  0  0  0  0  0
    3.5420    2.0194   -0.2897 H   0  0  0  0  0  0  0  0  0  0  0  0
   -1.4023   -0.6226   -2.1512 C   0  0  0  0  0  0  0  0  0  0  0  0
    0.6754    0.6201   -2.8772 C   0  0  0  0  0  0  0  0  0  0  0  0
   -2.9757    3.2104    2.5221 C   0  0  0  0  0  0  0  0  0  0  0  0
   -3.5633    3.6298    3.3515 H   0  0  0  0  0  0  0  0  0  0  0  0
    3.7319    0.2232    1.4190 C   0  0  0  0  0  0  0  0  0  0  0  0
    4.7048    0.5832    1.8516 H   0  0  0  0  0  0  0  0  0  0  0  0
    3.5379   -0.7630    1.8970 H   0  0  0  0  0  0  0  0  0  0  0  0
    1.5039    1.1733   -3.8867 C   0  0  0  0  0  0  0  0  0  0  0  0
    1.2018    1.3625   -4.9211 H   0  0  0  0  0  0  0  0  0  0  0  0
    3.7309   -1.3450   -0.5127 C   0  0  0  0  0  0  0  0  0  0  0  0
    4.7032   -1.9006   -0.4165 H   0  0  0  0  0  0  0  0  0  0  0  0
    3.5379   -1.2654   -1.6060 H   0  0  0  0  0  0  0  0  0  0  0  0
   -0.7339   -2.7433    1.2585 C   0  0  0  0  0  0  0  0  0  0  0  0
   -3.5678    2.8593    1.2962 C   0  0  0  0  0  0  0  0  0  0  0  0
   -4.6459    3.0013    1.1352 H   0  0  0  0  0  0  0  0  0  0  0  0
   -1.6080    0.8538   -3.9736 C   0  0  0  0  0  0  0  0  0  0  0  0
   -2.9772    0.5832   -4.0394 C   0  0  0  0  0  0  0  0  0  0  0  0
   -3.5646    1.0930   -4.8167 H   0  0  0  0  0  0  0  0  0  0  0  0
   -2.7612   -1.4026    1.8772 C   0  0  0  0  0  0  0  0  0  0  0  0
   -3.1507   -0.4035    2.1195 H   0  0  0  0  0  0  0  0  0  0  0  0
   -2.7597   -0.9224   -2.1563 C   0  0  0  0  0  0  0  0  0  0  0  0
   -3.1504   -1.6319   -1.4130 H   0  0  0  0  0  0  0  0  0  0  0  0
   -3.5725   -2.5485    1.8256 C   0  0  0  0  0  0  0  0  0  0  0  0
   -4.6506   -2.4790    2.0286 H   0  0  0  0  0  0  0  0  0  0  0  0
   -3.5696   -0.3033   -3.1231 C   0  0  0  0  0  0  0  0  0  0  0  0
   -4.6480   -0.5130   -3.1656 H   0  0  0  0  0  0  0  0  0  0  0  0
   -2.9816   -3.7862    1.5166 C   0  0  0  0  0  0  0  0  0  0  0  0
   -3.5701   -4.7135    1.4646 H   0  0  0  0  0  0  0  0  0  0  0  0
  2 27  1  0  0  0  0
  4 23  1  0  0  0  0
  5 26  2  0  0  0  0
  5 10  1  0  0  0  0
  8 41  1  0  0  0  0
  9  4  2  0  0  0  0
  9 14  1  0  0  0  0
 10 12  1  0  0  0  0
 11 31  1  0  0  0  0
 12 13  1  0  0  0  0
 14 32  2  0  0  0  0
 15 14  1  0  0  0  0
 16 52  1  0  0  0  0
 17 12  2  0  0  0  0
 17 18  1  0  0  0  0
 19 10  1  0  0  0  0
 19 21  1  0  0  0  0
 20 38  1  0  0  0  0
 20 37  1  0  0  0  0
 21  7  1  0  0  0  0
 22  1  1  0  0  0  0
 22 55  1  0  0  0  0
 23 32  1  0  0  0  0
 23 49  1  0  0  0  0
 24 28  1  0  0  0  0
 25 24  1  0  0  0  0
 26 17  1  0  0  0  0
 27 19  2  0  0  0  0
 28  6  1  0  0  0  0
 28 34  1  0  0  0  0
 29 27  1  0  0  0  0
 29 50  2  0  0  0  0
 30 29  1  0  0  0  0
 31 49  1  0  0  0  0
 31 63  2  0  0  0  0
 32 33  1  0  0  0  0
 34 36  1  0  0  0  0
 34  8  1  0  0  0  0
 35 34  1  0  0  0  0
 37  3  1  0  0  0  0
 38  6  2  0  0  0  0
 39 21  2  0  0  0  0
 39 40  1  0  0  0  0
 41 26  1  0  0  0  0
 41 42  1  0  0  0  0
 41 43  1  0  0  0  0
 44 24  2  0  0  0  0
 44 38  1  0  0  0  0
 45 44  1  0  0  0  0
 46 47  1  0  0  0  0
 46  8  1  0  0  0  0
 46  9  1  0  0  0  0
 48 46  1  0  0  0  0
 49 22  2  0  0  0  0
 50 39  1  0  0  0  0
 51 50  1  0  0  0  0
 52 20  2  0  0  0  0
 53 52  1  0  0  0  0
 53 61  2  0  0  0  0
 54 53  1  0  0  0  0
 55 56  1  0  0  0  0
 57 37  2  0  0  0  0
 57 58  1  0  0  0  0
 59 55  2  0  0  0  0
 59 60  1  0  0  0  0
 61 57  1  0  0  0  0
 62 61  1  0  0  0  0
 63 59  1  0  0  0  0
 64 63  1  0  0  0  0
M  END
