1,2,3
q = -2.0, confidence = 0.938

 63 65  0  0  0  0  0  0  0  0999 V2000
   -0.1591    1.4273   -0.9246 N   0  0  0  0  0  0  0  0  0  0  0  0
    1.9138    0.5696    0.4170 N   0  0  0  0  0  2  0  0  0  0  0  0
   -1.3083   -0.8724   -1.2629 N   0  0  0  0  0  2  0  0  0  0  0  0
    3.0708    0.0421    1.4826 S   0  0  0  0  0  0  0  0  0  0  0  0
   -2.1960   -2.2807   -1.2529 S   0  0  0  0  0  0  0  0  0  0  0  0
    3.2922    1.0670    2.5390 O   0  0  0  0  0  0  0  0  0  0  0  0
    2.7236   -1.3521    1.8551 O   0  0  0  0  0  0  0  0  0  0  0  0
   -1.5618   -3.2133   -0.2929 O   0  0  0  0  0  0  0  0  0  0  0  0
   -2.4796   -2.7267   -2.6428 O   0  0  0  0  0  0  0  0  0  0  0  0
   -1.0752    1.9496    0.1476 C   0  0  0  0  0  0  0  0  0  0  0  0
   -1.6231    3.3389   -0.0908 C   0  0  0  0  0  0  0  0  0  0  0  0
   -0.9271    4.4773    0.3670 C   0  0  0  0  0  0  0  0  0  0  0  0
   -1.4180    5.7678    0.1193 C   0  0  0  0  0  0  0  0  0  0  0  0
   -2.6186    5.9397   -0.5875 C   0  0  0  0  0  0  0  0  0  0  0  0
   -3.3306    4.8152   -1.0337 C   0  0  0  0  0  0  0  0  0  0  0  0
   -2.8371    3.5260   -0.7839 C   0  0  0  0  0  0  0  0  0  0  0  0
    1.0818    2.2199   -1.0665 C   0  0  0  0  0  0  0  0  0  0  0  0
    1.9591    2.0016    0.1508 C   0  0  0  0  0  0  0  0  0  0  0  0
    4.5742   -0.0248    0.4970 C   0  0  0  0  0  0  0  0  0  0  0  0
    5.5809    0.9298    0.6864 C   0  0  0  0  0  0  0  0  0  0  0  0
    6.7283    0.8799   -0.1214 C   0  0  0  0  0  0  0  0  0  0  0  0
    6.8830   -0.1111   -1.1101 C   0  0  0  0  0  0  0  0  0  0  0  0
    5.8496   -1.0636   -1.2723 C   0  0  0  0  0  0  0  0  0  0  0  0
    4.7007   -1.0299   -0.4775 C   0  0  0  0  0  0  0  0  0  0  0  0
    8.1208   -0.1761   -1.9677 C   0  0  0  0  0  0  0  0  0  0  0  0
   -0.8256    1.2516   -2.2327 C   0  0  0  0  0  0  0  0  0  0  0  0
   -1.8714    0.1577   -2.1249 C   0  0  0  0  0  0  0  0  0  0  0  0
   -3.7713   -1.7418   -0.5503 C   0  0  0  0  0  0  0  0  0  0  0  0
   -4.9576   -1.9257   -1.2684 C   0  0  0  0  0  0  0  0  0  0  0  0
   -6.1679   -1.4826   -0.7116 C   0  0  0  0  0  0  0  0  0  0  0  0
   -6.2058   -0.8529    0.5481 C   0  0  0  0  0  0  0  0  0  0  0  0
   -4.9882   -0.6751    1.2450 C   0  0  0  0  0  0  0  0  0  0  0  0
   -3.7744   -1.1174    0.7089 C   0  0  0  0  0  0  0  0  0  0  0  0
   -7.5064   -0.3889    1.1528 C   0  0  0  0  0  0  0  0  0  0  0  0
   -0.5071    1.9143    1.0970 H   0  0  0  0  0  0  0  0  0  0  0  0
   -1.9001    1.2179    0.2439 H   0  0  0  0  0  0  0  0  0  0  0  0
    0.0047    4.3470    0.9398 H   0  0  0  0  0  0  0  0  0  0  0  0
   -0.8635    6.6443    0.4877 H   0  0  0  0  0  0  0  0  0  0  0  0
   -3.0059    6.9515   -0.7808 H   0  0  0  0  0  0  0  0  0  0  0  0
   -4.2815    4.9419   -1.5730 H   0  0  0  0  0  0  0  0  0  0  0  0
   -3.4106    2.6460   -1.1158 H   0  0  0  0  0  0  0  0  0  0  0  0
    1.6055    1.8261   -1.9608 H   0  0  0  0  0  0  0  0  0  0  0  0
    0.8619    3.2958   -1.2474 H   0  0  0  0  0  0  0  0  0  0  0  0
    1.6190    2.6014    1.0271 H   0  0  0  0  0  0  0  0  0  0  0  0
    2.9906    2.3567   -0.0780 H   0  0  0  0  0  0  0  0  0  0  0  0
    5.4569    1.6895    1.4718 H   0  0  0  0  0  0  0  0  0  0  0  0
    7.5254    1.6262    0.0238 H   0  0  0  0  0  0  0  0  0  0  0  0
    5.9557   -1.8505   -2.0363 H   0  0  0  0  0  0  0  0  0  0  0  0
    3.8958   -1.7687   -0.5962 H   0  0  0  0  0  0  0  0  0  0  0  0
    8.7837    0.6939   -1.7980 H   0  0  0  0  0  0  0  0  0  0  0  0
    8.7072   -1.0943   -1.7521 H   0  0  0  0  0  0  0  0  0  0  0  0
    7.8640   -0.2079   -3.0466 H   0  0  0  0  0  0  0  0  0  0  0  0
   -0.0351    0.9412   -2.9458 H   0  0  0  0  0  0  0  0  0  0  0  0
   -1.2560    2.2087   -2.6049 H   0  0  0  0  0  0  0  0  0  0  0  0
   -2.8311    0.5606   -1.7143 H   0  0  0  0  0  0  0  0  0  0  0  0
   -2.1101   -0.2351   -3.1375 H   0  0  0  0  0  0  0  0  0  0  0  0
   -4.9132   -2.4075   -2.2561 H   0  0  0  0  0  0  0  0  0  0  0  0
   -7.1060   -1.6255   -1.2713 H   0  0  0  0  0  0  0  0  0  0  0  0
   -4.9966   -0.1820    2.2306 H   0  0  0  0  0  0  0  0  0  0  0  0
   -2.8253   -0.9832    1.2487 H   0  0  0  0  0  0  0  0  0  0  0  0
   -7.7831   -1.0142    2.0282 H   0  0  0  0  0  0  0  0  0  0  0  0
   -7.4344    0.6563    1.5173 H   0  0  0  0  0  0  0  0  0  0  0  0
   -8.3395   -0.4440    0.4260 H   0  0  0  0  0  0  0  0  0  0  0  0
  1 10  1  0  0  0  0
  2  4  1  0  0  0  0
  3  5  1  0  0  0  0
  4  7  2  0  0  0  0
  4  6  2  0  0  0  0
  5 28  1  0  0  0  0
  5  8  2  0  0  0  0
  9  5  2  0  0  0  0
 10 36  1  0  0  0  0
 10 35  1  0  0  0  0
 11 10  1  0  0  0  0
 11 12  1  0  0  0  0
 12 37  1  0  0  0  0
 13 12  2  0  0  0  0
 13 38  1  0  0  0  0
 14 13  1  0  0  0  0
 15 16  1  0  0  0  0
 15 14  2  0  0  0  0
 16 11  2  0  0  0  0
 17  1  1  0  0  0  0
 17 18  1  0  0  0  0
 18  2  1  0  0  0  0
 18 44  1  0  0  0  0
 19 20  1  0  0  0  0
 19  4  1  0  0  0  0
 20 46  1  0  0  0  0
 21 47  1  0  0  0  0
 21 20  2  0  0  0  0
 22 21  1  0  0  0  0
 23 22  2  0  0  0  0
 23 24  1  0  0  0  0
 24 19  2  0  0  0  0
 25 50  1  0  0  0  0
 25 51  1  0  0  0  0
 25 22  1  0  0  0  0
 26 27  1  0  0  0  0
 26  1  1  0  0  0  0
 27 55  1  0  0  0  0
 27  3  1  0  0  0  0
 28 33  1  0  0  0  0
 29 30  1  0  0  0  0
 29 28  2  0  0  0  0
 30 31  2  0  0  0  0
 31 34  1  0  0  0  0
 31 32  1  0  0  0  0
 32 59  1  0  0  0  0
 33 32  2  0  0  0  0
 33 60  1  0  0  0  0
 34 62  1  0  0  0  0
 34 61  1  0  0  0  0
 39 14  1  0  0  0  0
 40 15  1  0  0  0  0
 41 16  1  0  0  0  0
 42 17  1  0  0  0  0
 43 17  1  0  0  0  0
 45 18  1  0  0  0  0
 48 23  1  0  0  0  0
 49 24  1  0  0  0  0
 52 25  1  0  0  0  0
 53 26  1  0  0  0  0
 54 26  1  0  0  0  0
 56 27  1  0  0  0  0
 57 29  1  0  0  0  0
 58 30  1  0  0  0  0
 63 34  1  0  0  0  0
M  END
