1,7,12
q = 0.0, confidence = 0.996

 45 49  0  0  1  0  0  0  0  0999 V2000
   -0.0016   -2.7606   -0.2366 N   0  0  0  0  0  2  0  0  0  0  0  0
   -1.1752   -3.4257   -0.3164 C   0  0  2  0  0  3  0  0  0  0  0  0
   -1.2255   -4.8152   -0.4894 C   0  0  0  0  0  0  0  0  0  0  0  0
   -0.0030   -5.5024   -0.5756 C   0  0  0  0  0  0  0  0  0  0  0  0
    1.2202   -4.8165   -0.4896 C   0  0  0  0  0  0  0  0  0  0  0  0
    1.1713   -3.4269   -0.3165 C   0  0  0  0  0  0  0  0  0  0  0  0
   -2.0634   -1.2017   -0.0257 N   0  0  0  0  0  2  0  0  0  0  0  0
   -3.2938   -0.6339   -0.1180 C   0  0  2  0  0  3  0  0  0  0  0  0
   -4.2774   -1.6468   -0.3610 C   0  0  0  0  0  0  0  0  0  0  0  0
   -3.6059   -2.8465   -0.4120 C   0  0  0  0  0  0  0  0  0  0  0  0
   -2.2739   -2.5695   -0.2139 N   0  0  0  0  0  0  0  0  0  0  0  0
    2.0618   -1.2037   -0.0260 N   0  0  0  0  0  2  0  0  0  0  0  0
    3.2929   -0.6373   -0.1181 C   0  0  1  0  0  3  0  0  0  0  0  0
    4.2754   -1.6514   -0.3606 C   0  0  0  0  0  0  0  0  0  0  0  0
    3.6027   -2.8504   -0.4116 C   0  0  0  0  0  0  0  0  0  0  0  0
    2.2709   -2.5718   -0.2140 N   0  0  0  0  0  0  0  0  0  0  0  0
   -3.5821    0.8020   -0.0378 C   0  0  0  0  0  0  0  0  0  0  0  0
   -2.9291    1.6604    0.8672 C   0  0  0  0  0  0  0  0  0  0  0  0
   -3.2093    3.0288    0.8937 C   0  0  0  0  0  0  0  0  0  0  0  0
   -4.1743    3.5538    0.0178 C   0  0  0  0  0  0  0  0  0  0  0  0
   -4.8627    2.7115   -0.8761 C   0  0  0  0  0  0  0  0  0  0  0  0
   -4.5670    1.3463   -0.8981 C   0  0  0  0  0  0  0  0  0  0  0  0
   -4.5257    5.2519    0.0367 Cl  0  0  0  0  0  0  0  0  0  0  0  0
    3.5829    0.7982   -0.0380 C   0  0  0  0  0  0  0  0  0  0  0  0
    2.9307    1.6575    0.8667 C   0  0  0  0  0  0  0  0  0  0  0  0
    3.2126    3.0255    0.8932 C   0  0  0  0  0  0  0  0  0  0  0  0
    4.1784    3.5493    0.0175 C   0  0  0  0  0  0  0  0  0  0  0  0
    4.8660    2.7060   -0.8762 C   0  0  0  0  0  0  0  0  0  0  0  0
    4.5687    1.3413   -0.8981 C   0  0  0  0  0  0  0  0  0  0  0  0
    4.5319    5.2470    0.0363 Cl  0  0  0  0  0  0  0  0  0  0  0  0
   -2.1802   -5.3524   -0.5502 H   0  0  0  0  0  0  0  0  0  0  0  0
   -0.0036   -6.5933   -0.7083 H   0  0  0  0  0  0  0  0  0  0  0  0
    2.1743   -5.3546   -0.5504 H   0  0  0  0  0  0  0  0  0  0  0  0
   -5.3562   -1.4895   -0.4492 H   0  0  0  0  0  0  0  0  0  0  0  0
   -3.9592   -3.8703   -0.5675 H   0  0  0  0  0  0  0  0  0  0  0  0
    5.3544   -1.4953   -0.4485 H   0  0  0  0  0  0  0  0  0  0  0  0
    3.9549   -3.8745   -0.5668 H   0  0  0  0  0  0  0  0  0  0  0  0
   -2.1866    1.2605    1.5638 H   0  0  0  0  0  0  0  0  0  0  0  0
   -2.6732    3.6894    1.5883 H   0  0  0  0  0  0  0  0  0  0  0  0
   -5.6161    3.1360   -1.5539 H   0  0  0  0  0  0  0  0  0  0  0  0
   -5.0881    0.6991   -1.6196 H   0  0  0  0  0  0  0  0  0  0  0  0
    2.1876    1.2586    1.5633 H   0  0  0  0  0  0  0  0  0  0  0  0
    2.6772    3.6868    1.5877 H   0  0  0  0  0  0  0  0  0  0  0  0
    5.6200    3.1296   -1.5539 H   0  0  0  0  0  0  0  0  0  0  0  0
    5.0891    0.6933   -1.6195 H   0  0  0  0  0  0  0  0  0  0  0  0
  2  1  1  0  0  0  0
  2 11  1  6  0  0  0
  3  2  1  0  0  0  0
  4  5  1  0  0  0  0
  4  3  2  0  0  0  0
  5  6  2  0  0  0  0
  6  1  1  0  0  0  0
  6 16  1  0  0  0  0
  8 17  1  6  0  0  0
  8  7  1  0  0  0  0
  9  8  1  0  0  0  0
 10  9  2  0  0  0  0
 10 11  1  0  0  0  0
 11  7  1  0  0  0  0
 13 24  1  6  0  0  0
 13 12  1  0  0  0  0
 14 13  1  0  0  0  0
 15 14  2  0  0  0  0
 15 16  1  0  0  0  0
 16 12  1  0  0  0  0
 17 18  1  0  0  0  0
 18 19  2  0  0  0  0
 18 38  1  0  0  0  0
 19 39  1  0  0  0  0
 20 23  1  0  0  0  0
 20 19  1  0  0  0  0
 21 20  2  0  0  0  0
 22 21  1  0  0  0  0
 22 17  2  0  0  0  0
 24 25  1  0  0  0  0
 25 26  2  0  0  0  0
 25 42  1  0  0  0  0
 26 43  1  0  0  0  0
 27 30  1  0  0  0  0
 27 26  1  0  0  0  0
 28 27  2  0  0  0  0
 29 28  1  0  0  0  0
 29 24  2  0  0  0  0
 31  3  1  0  0  0  0
 32  4  1  0  0  0  0
 33  5  1  0  0  0  0
 34  9  1  0  0  0  0
 35 10  1  0  0  0  0
 36 14  1  0  0  0  0
 37 15  1  0  0  0  0
 40 21  1  0  0  0  0
 41 22  1  0  0  0  0
 44 28  1  0  0  0  0
 45 29  1  0  0  0  0
M  END
