1,2,3
q = 0.0, confidence = 1.0

 32 32  0  0  1  0  0  0  0  0999 V2000
    2.1671   -0.3629   -0.4177 N   0  0  0  0  0  2  0  0  0  0  0  0
    1.0713    0.2710    1.9643 N   0  0  0  0  0  2  0  0  0  0  0  0
   -1.7692    0.5327    1.7565 N   0  0  0  0  0  0  0  0  0  0  0  0
   -2.0270   -0.3989    2.1272 H   0  0  0  0  0  0  0  0  0  0  0  0
   -3.8141   -1.1446    1.0774 O   0  0  0  0  0  0  0  0  0  0  0  0
   -3.2157   -1.7468    0.5739 H   0  0  0  0  0  0  0  0  0  0  0  0
    2.6651   -0.6645   -1.6211 C   0  0  0  0  0  3  0  0  0  0  0  0
    1.9328   -0.7559   -2.4407 H   0  0  0  0  0  0  0  0  0  0  0  0
    4.0388   -0.8590   -1.8401 C   0  0  0  0  0  0  0  0  0  0  0  0
    4.4089   -1.1078   -2.8448 H   0  0  0  0  0  0  0  0  0  0  0  0
    4.9079   -0.7290   -0.7502 C   0  0  0  0  0  0  0  0  0  0  0  0
    5.9915   -0.8724   -0.8756 H   0  0  0  0  0  0  0  0  0  0  0  0
    4.3804   -0.4131    0.5100 C   0  0  0  0  0  0  0  0  0  0  0  0
    5.0491   -0.3093    1.3745 H   0  0  0  0  0  0  0  0  0  0  0  0
    2.9888   -0.2332    0.6450 C   0  0  0  0  0  0  0  0  0  0  0  0
    2.3490    0.1012    1.9627 C   0  0  2  0  0  3  0  0  0  0  0  0
    0.2765    0.5817    3.1323 C   0  0  0  0  0  0  0  0  0  0  0  0
    0.8200    1.1929    3.8860 H   0  0  0  0  0  0  0  0  0  0  0  0
    0.0102   -0.3797    3.6314 H   0  0  0  0  0  0  0  0  0  0  0  0
   -1.0138    1.3073    2.7319 C   0  0  0  0  0  0  0  0  0  0  0  0
   -1.6034    1.5220    3.6558 H   0  0  0  0  0  0  0  0  0  0  0  0
   -0.7599    2.2861    2.2703 H   0  0  0  0  0  0  0  0  0  0  0  0
   -3.0294    1.1373    1.3100 C   0  0  0  0  0  0  0  0  0  0  0  0
   -3.6596    1.4181    2.1887 H   0  0  0  0  0  0  0  0  0  0  0  0
   -2.8106    2.0583    0.7287 H   0  0  0  0  0  0  0  0  0  0  0  0
   -3.7653    0.1181    0.4330 C   0  0  0  0  0  0  0  0  0  0  0  0
   -4.7972    0.4866    0.2383 H   0  0  0  0  0  0  0  0  0  0  0  0
   -3.2488    0.0488   -0.5516 H   0  0  0  0  0  0  0  0  0  0  0  0
    3.2415    0.1920    3.1736 C   0  0  0  0  0  0  0  0  0  0  0  0
    4.0418    0.9436    3.0196 H   0  0  0  0  0  0  0  0  0  0  0  0
    3.7423   -0.7813    3.3544 H   0  0  0  0  0  0  0  0  0  0  0  0
    2.6838    0.4610    4.0867 H   0  0  0  0  0  0  0  0  0  0  0  0
  1 15  1  0  0  0  0
  2 17  1  0  0  0  0
  3  4  1  0  0  0  0
  3 20  1  0  0  0  0
  6  5  1  0  0  0  0
  7  1  1  0  0  0  0
  8  7  1  0  0  0  0
  9  7  1  0  0  0  0
  9 11  2  0  0  0  0
 10  9  1  0  0  0  0
 11 13  1  0  0  0  0
 12 11  1  0  0  0  0
 13 15  2  0  0  0  0
 13 14  1  0  0  0  0
 15 16  1  0  0  0  0
 16  2  1  1  0  0  0
 16 29  1  0  0  0  0
 17 19  1  0  0  0  0
 17 18  1  0  0  0  0
 20 17  1  0  0  0  0
 20 21  1  0  0  0  0
 22 20  1  0  0  0  0
 23  3  1  0  0  0  0
 23 24  1  0  0  0  0
 25 23  1  0  0  0  0
 26  5  1  0  0  0  0
 26 23  1  0  0  0  0
 27 26  1  0  0  0  0
 28 26  1  0  0  0  0
 29 31  1  0  0  0  0
 29 32  1  0  0  0  0
 30 29  1  0  0  0  0
M  END
