1,4,6
q = -1.0

 27 28  0  0  0  0  0  0  0  0999 V2000
    1.5910   -1.6358   -1.4954 N   0  0  0  0  0  0  0  0  0  0  0  0
    1.3762   -2.0157   -2.4459 H   0  0  0  0  0  0  0  0  0  0  0  0
    2.5292   -1.2104   -1.4916 H   0  0  0  0  0  0  0  0  0  0  0  0
   -0.7901   -1.7534   -0.2131 N   0  0  0  0  0  2  0  0  0  0  0  0
   -1.9535   -1.8382    0.3134 N   0  0  0  0  0  2  0  0  0  0  0  0
   -1.8068    0.6052   -1.4395 N   0  0  0  0  0  2  0  0  0  0  0  0
   -1.8900    1.4277   -2.0465 H   0  0  0  0  0  0  0  0  0  0  0  0
   -2.8759    0.2799   -0.7255 C   0  0  0  0  0  0  0  0  0  0  0  0
   -4.0557    1.1105   -0.7535 C   0  0  0  0  0  0  0  0  0  0  0  0
   -4.0268    2.0097   -1.3881 H   0  0  0  0  0  0  0  0  0  0  0  0
   -5.1802    0.8083   -0.0149 C   0  0  0  0  0  0  0  0  0  0  0  0
   -6.0539    1.4764   -0.0676 H   0  0  0  0  0  0  0  0  0  0  0  0
   -5.2287   -0.3541    0.8140 C   0  0  0  0  0  0  0  0  0  0  0  0
   -6.1333   -0.5822    1.3954 H   0  0  0  0  0  0  0  0  0  0  0  0
   -4.1298   -1.1853    0.8657 C   0  0  0  0  0  0  0  0  0  0  0  0
   -4.1193   -2.0923    1.4868 H   0  0  0  0  0  0  0  0  0  0  0  0
   -2.9304   -0.9191    0.1249 C   0  0  0  0  0  0  0  0  0  0  0  0
    0.1465   -2.7615    0.1093 C   0  0  0  0  0  0  0  0  0  0  0  0
   -0.1077   -3.7936    1.0365 C   0  0  0  0  0  0  0  0  0  0  0  0
   -1.1076   -3.8500    1.4850 H   0  0  0  0  0  0  0  0  0  0  0  0
    0.9176   -4.6782    1.3840 C   0  0  0  0  0  0  0  0  0  0  0  0
    0.7199   -5.4736    2.1184 H   0  0  0  0  0  0  0  0  0  0  0  0
    2.1999   -4.5531    0.8164 C   0  0  0  0  0  0  0  0  0  0  0  0
    3.0049   -5.2451    1.1036 H   0  0  0  0  0  0  0  0  0  0  0  0
    2.4469   -3.5486   -0.1323 C   0  0  0  0  0  0  0  0  0  0  0  0
    3.4363   -3.4518   -0.6049 H   0  0  0  0  0  0  0  0  0  0  0  0
    1.4237   -2.6642   -0.4947 C   0  0  0  0  0  0  0  0  0  0  0  0
  1  3  1  0  0  0  0
  1 27  1  0  0  0  0
  2  1  1  0  0  0  0
  4 18  1  0  0  0  0
  4  5  1  0  0  0  0
  6  8  1  0  0  0  0
  7  6  1  0  0  0  0
  8 17  1  0  0  0  0
  9  8  2  0  0  0  0
  9 11  1  0  0  0  0
 10  9  1  0  0  0  0
 11 13  2  0  0  0  0
 12 11  1  0  0  0  0
 13 15  1  0  0  0  0
 13 14  1  0  0  0  0
 15 16  1  0  0  0  0
 17  5  1  0  0  0  0
 17 15  2  0  0  0  0
 18 19  1  0  0  0  0
 19 21  2  0  0  0  0
 19 20  1  0  0  0  0
 21 22  1  0  0  0  0
 23 24  1  0  0  0  0
 23 21  1  0  0  0  0
 25 23  2  0  0  0  0
 26 25  1  0  0  0  0
 27 25  1  0  0  0  0
 27 18  2  0  0  0  0
M  END
