3,5,6
q = -1.0, confidence = 0.0

 26 28  0  0  0  0  0  0  0  0999 V2000
   -2.4423   -2.0125   -2.4405 S   0  0  0  0  0  0  0  0  0  0  0  0
   -3.7698   -3.3182   -0.4303 N   0  0  0  0  0  0  0  0  0  0  0  0
   -1.2832   -0.7090   -0.4820 N   0  0  0  0  0  2  0  0  0  0  0  0
   -0.5303   -0.0836   -2.6395 N   0  0  0  0  0  0  0  0  0  0  0  0
    0.2250    0.6972   -1.8796 N   0  0  0  0  0  2  0  0  0  0  0  0
    1.4030    2.0094   -0.0338 N   0  0  0  0  0  2  0  0  0  0  0  0
   -2.8829   -2.3983   -0.7600 C   0  0  0  0  0  0  0  0  0  0  0  0
   -2.1335   -1.5903    0.1523 C   0  0  0  0  0  0  0  0  0  0  0  0
   -2.3441   -1.8176    1.5257 C   0  0  0  0  0  0  0  0  0  0  0  0
   -1.7801   -1.2648    2.2880 H   0  0  0  0  0  0  0  0  0  0  0  0
   -3.2822   -2.7947    1.8817 C   0  0  0  0  0  0  0  0  0  0  0  0
   -3.4787   -3.0106    2.9417 H   0  0  0  0  0  0  0  0  0  0  0  0
   -3.9739   -3.5125    0.8835 C   0  0  0  0  0  0  0  0  0  0  0  0
   -4.7167   -4.2799    1.1572 H   0  0  0  0  0  0  0  0  0  0  0  0
   -1.3181   -0.8246   -1.8332 C   0  0  0  0  0  0  0  0  0  0  0  0
    1.1126    1.5656   -2.3436 C   0  0  0  0  0  0  0  0  0  0  0  0
    1.2907    1.6822   -3.4230 H   0  0  0  0  0  0  0  0  0  0  0  0
    1.8007    2.3049   -1.3196 C   0  0  0  0  0  0  0  0  0  0  0  0
    2.8153    3.2583   -1.5489 C   0  0  0  0  0  0  0  0  0  0  0  0
    3.1170    3.4837   -2.5814 H   0  0  0  0  0  0  0  0  0  0  0  0
    3.4212    3.8890   -0.4594 C   0  0  0  0  0  0  0  0  0  0  0  0
    4.2159    4.6318   -0.6227 H   0  0  0  0  0  0  0  0  0  0  0  0
    3.0114    3.5597    0.8439 C   0  0  0  0  0  0  0  0  0  0  0  0
    3.4696    4.0248    1.7271 H   0  0  0  0  0  0  0  0  0  0  0  0
    1.9955    2.6113    1.0124 C   0  0  0  0  0  0  0  0  0  0  0  0
    1.6496    2.3165    2.0136 H   0  0  0  0  0  0  0  0  0  0  0  0
  1 15  1  0  0  0  0
  1  7  1  0  0  0  0
  2 13  1  0  0  0  0
  3  8  1  0  0  0  0
  4  5  1  0  0  0  0
  4 15  2  0  0  0  0
  6 25  1  0  0  0  0
  7  2  2  0  0  0  0
  7  8  1  0  0  0  0
  8  9  2  0  0  0  0
  9 11  1  0  0  0  0
  9 10  1  0  0  0  0
 11 12  1  0  0  0  0
 13 14  1  0  0  0  0
 13 11  2  0  0  0  0
 15  3  1  0  0  0  0
 16  5  1  0  0  0  0
 16 18  2  0  0  0  0
 17 16  1  0  0  0  0
 18  6  1  0  0  0  0
 19 18  1  0  0  0  0
 19 21  2  0  0  0  0
 20 19  1  0  0  0  0
 21 23  1  0  0  0  0
 22 21  1  0  0  0  0
 23 25  2  0  0  0  0
 23 24  1  0  0  0  0
 25 26  1  0  0  0  0
M  END
