1,2,3
q = 0.0, confidence = 1.0

 61 63  0  0  1  0  0  0  0  0999 V2000
    2.3460    0.4933    0.3081 N   0  0  0  0  0  2  0  0  0  0  0  0
    0.1520    2.0084   -0.0309 N   0  0  0  0  0  2  0  0  0  0  0  0
   -2.2095    0.7347   -0.2981 N   0  0  0  0  0  2  0  0  0  0  0  0
    3.5861    2.3201    1.4704 C   0  0  0  0  0  0  0  0  0  0  0  0
    4.3429    1.5498    1.7029 H   0  0  0  0  0  0  0  0  0  0  0  0
    3.2281    2.7687    2.4204 H   0  0  0  0  0  0  0  0  0  0  0  0
    4.0771    3.1296    0.8907 H   0  0  0  0  0  0  0  0  0  0  0  0
    2.4437    1.7268    0.6904 C   0  0  1  0  0  3  0  0  0  0  0  0
    1.3186    2.6160    0.2952 C   0  0  2  0  0  3  0  0  0  0  0  0
    1.4171    4.0242    0.2724 C   0  0  0  0  0  0  0  0  0  0  0  0
    2.3727    4.5092    0.5093 H   0  0  0  0  0  0  0  0  0  0  0  0
    0.2965    4.7832   -0.0811 C   0  0  0  0  0  0  0  0  0  0  0  0
    0.3537    5.8817   -0.0999 H   0  0  0  0  0  0  0  0  0  0  0  0
   -0.8974    4.1330   -0.4107 C   0  0  0  0  0  0  0  0  0  0  0  0
   -1.7976    4.7064   -0.6670 H   0  0  0  0  0  0  0  0  0  0  0  0
   -0.9471    2.7227   -0.3836 C   0  0  0  0  0  0  0  0  0  0  0  0
   -2.1579    1.9443   -0.7582 C   0  0  2  0  0  3  0  0  0  0  0  0
   -3.2060    2.6061   -1.6115 C   0  0  0  0  0  0  0  0  0  0  0  0
   -4.0322    1.9056   -1.8287 H   0  0  0  0  0  0  0  0  0  0  0  0
   -2.7719    2.9586   -2.5703 H   0  0  0  0  0  0  0  0  0  0  0  0
   -3.6286    3.4947   -1.0972 H   0  0  0  0  0  0  0  0  0  0  0  0
    3.2068   -0.5357    0.7013 C   0  0  0  0  0  0  0  0  0  0  0  0
    3.3233   -0.8974    2.0638 C   0  0  0  0  0  0  0  0  0  0  0  0
    2.7390   -0.3342    2.8055 H   0  0  0  0  0  0  0  0  0  0  0  0
    4.7704   -2.7465    1.4487 C   0  0  0  0  0  0  0  0  0  0  0  0
    5.3876   -3.6124    1.7329 H   0  0  0  0  0  0  0  0  0  0  0  0
    4.0997   -2.0028    2.4320 C   0  0  0  0  0  0  0  0  0  0  0  0
    4.1727   -2.2881    3.4927 H   0  0  0  0  0  0  0  0  0  0  0  0
    4.6393   -2.3937    0.0951 C   0  0  0  0  0  0  0  0  0  0  0  0
    5.1568   -2.9924   -0.6693 H   0  0  0  0  0  0  0  0  0  0  0  0
    3.8515   -1.3030   -0.3109 C   0  0  0  0  0  0  0  0  0  0  0  0
    3.6904   -0.8827   -1.7609 C   0  0  0  0  0  0  0  0  0  0  0  0
    2.6679   -0.4504   -1.8429 H   0  0  0  0  0  0  0  0  0  0  0  0
    4.6866    0.2367   -2.1173 C   0  0  0  0  0  0  0  0  0  0  0  0
    4.5122    0.6040   -3.1498 H   0  0  0  0  0  0  0  0  0  0  0  0
    5.7345   -0.1253   -2.0517 H   0  0  0  0  0  0  0  0  0  0  0  0
    4.5858    1.1016   -1.4308 H   0  0  0  0  0  0  0  0  0  0  0  0
    3.7800   -2.0435   -2.7556 C   0  0  0  0  0  0  0  0  0  0  0  0
    3.5178   -1.6915   -3.7736 H   0  0  0  0  0  0  0  0  0  0  0  0
    3.0743   -2.8554   -2.4882 H   0  0  0  0  0  0  0  0  0  0  0  0
    4.8009   -2.4778   -2.8110 H   0  0  0  0  0  0  0  0  0  0  0  0
   -3.1365   -0.2451   -0.6499 C   0  0  0  0  0  0  0  0  0  0  0  0
   -3.2399   -0.6963   -1.9875 C   0  0  0  0  0  0  0  0  0  0  0  0
   -2.6141   -0.2129   -2.7513 H   0  0  0  0  0  0  0  0  0  0  0  0
   -4.0477   -1.7977   -2.2980 C   0  0  0  0  0  0  0  0  0  0  0  0
   -4.1111   -2.1492   -3.3393 H   0  0  0  0  0  0  0  0  0  0  0  0
   -4.7655   -2.4509   -1.2829 C   0  0  0  0  0  0  0  0  0  0  0  0
   -5.4129   -3.3081   -1.5236 H   0  0  0  0  0  0  0  0  0  0  0  0
   -4.6499   -2.0093    0.0478 C   0  0  0  0  0  0  0  0  0  0  0  0
   -5.2049   -2.5349    0.8394 H   0  0  0  0  0  0  0  0  0  0  0  0
   -3.8305   -0.9221    0.3966 C   0  0  0  0  0  0  0  0  0  0  0  0
   -3.6669   -0.4211    1.8197 C   0  0  0  0  0  0  0  0  0  0  0  0
   -2.6203   -0.0469    1.8906 H   0  0  0  0  0  0  0  0  0  0  0  0
   -4.5995    0.7755    2.0858 C   0  0  0  0  0  0  0  0  0  0  0  0
   -4.4173    1.1982    3.0953 H   0  0  0  0  0  0  0  0  0  0  0  0
   -5.6664    0.4728    2.0256 H   0  0  0  0  0  0  0  0  0  0  0  0
   -4.4370    1.5859    1.3467 H   0  0  0  0  0  0  0  0  0  0  0  0
   -3.8375   -1.5085    2.8838 C   0  0  0  0  0  0  0  0  0  0  0  0
   -3.5739   -1.1062    3.8824 H   0  0  0  0  0  0  0  0  0  0  0  0
   -3.1693   -2.3713    2.6868 H   0  0  0  0  0  0  0  0  0  0  0  0
   -4.8807   -1.8850    2.9458 H   0  0  0  0  0  0  0  0  0  0  0  0
  1 22  1  0  0  0  0
  2  9  1  0  0  0  0
  4  5  1  0  0  0  0
  4  6  1  0  0  0  0
  7  4  1  0  0  0  0
  8  1  1  6  0  0  0
  8  4  1  0  0  0  0
  9  8  1  1  0  0  0
 10  9  1  0  0  0  0
 10 11  1  0  0  0  0
 12 10  2  0  0  0  0
 13 12  1  0  0  0  0
 14 16  2  0  0  0  0
 14 12  1  0  0  0  0
 15 14  1  0  0  0  0
 16  2  1  0  0  0  0
 17 16  1  0  0  0  0
 17  3  1  1  0  0  0
 18 21  1  0  0  0  0
 18 17  1  0  0  0  0
 19 18  1  0  0  0  0
 20 18  1  0  0  0  0
 22 23  1  0  0  0  0
 23 27  2  0  0  0  0
 23 24  1  0  0  0  0
 25 26  1  0  0  0  0
 25 27  1  0  0  0  0
 27 28  1  0  0  0  0
 29 25  2  0  0  0  0
 30 29  1  0  0  0  0
 31 29  1  0  0  0  0
 31 22  2  0  0  0  0
 32 31  1  0  0  0  0
 33 32  1  0  0  0  0
 34 36  1  0  0  0  0
 34 32  1  0  0  0  0
 34 37  1  0  0  0  0
 35 34  1  0  0  0  0
 38 40  1  0  0  0  0
 38 32  1  0  0  0  0
 39 38  1  0  0  0  0
 41 38  1  0  0  0  0
 42  3  1  0  0  0  0
 42 51  1  0  0  0  0
 43 42  2  0  0  0  0
 44 43  1  0  0  0  0
 45 43  1  0  0  0  0
 45 47  2  0  0  0  0
 46 45  1  0  0  0  0
 47 49  1  0  0  0  0
 48 47  1  0  0  0  0
 49 51  2  0  0  0  0
 49 50  1  0  0  0  0
 51 52  1  0  0  0  0
 52 53  1  0  0  0  0
 52 54  1  0  0  0  0
 52 58  1  0  0  0  0
 54 55  1  0  0  0  0
 56 54  1  0  0  0  0
 57 54  1  0  0  0  0
 58 61  1  0  0  0  0
 58 59  1  0  0  0  0
 60 58  1  0  0  0  0
M  END
