1,2,4
q = 0.0, confidence = 0.994

 34 35  0  0  1  0  0  0  0  0999 V2000
    1.0700   -0.2530    1.5561 N   0  0  0  0  0  2  0  0  0  0  0  0
   -1.3189   -0.0273    0.3373 N   0  0  2  0  0  0  0  0  0  0  0  0
   -1.5064   -0.9581   -0.7563 N   0  0  2  0  0  0  0  0  0  0  0  0
    1.4833   -0.3364   -1.3981 N   0  0  0  0  0  0  0  0  0  0  0  0
    2.8246   -1.5419    0.4316 C   0  0  0  0  0  0  0  0  0  0  0  0
    2.6012   -2.5989    0.1538 H   0  0  0  0  0  0  0  0  0  0  0  0
    3.8667   -1.5970    0.8177 H   0  0  0  0  0  0  0  0  0  0  0  0
    1.9008   -1.2305    1.5656 C   0  0  0  0  0  3  0  0  0  0  0  0
    1.6620    0.2930   -2.1927 H   0  0  0  0  0  0  0  0  0  0  0  0
    1.8991   -1.9537    2.4131 H   0  0  0  0  0  0  0  0  0  0  0  0
   -0.0469   -0.1786    2.4923 C   0  0  0  0  0  0  0  0  0  0  0  0
    0.1031   -0.8087    3.3955 H   0  0  0  0  0  0  0  0  0  0  0  0
   -0.1656    0.8769    2.8142 H   0  0  0  0  0  0  0  0  0  0  0  0
   -1.2925   -0.6544    1.7130 C   0  0  0  0  0  0  0  0  0  0  0  0
   -2.2170   -0.4209    2.2769 H   0  0  0  0  0  0  0  0  0  0  0  0
   -1.2475   -1.7557    1.5979 H   0  0  0  0  0  0  0  0  0  0  0  0
   -2.4926    0.8675    0.1346 C   0  0  0  0  0  0  0  0  0  0  0  0
   -2.6637    1.4709    1.0454 H   0  0  0  0  0  0  0  0  0  0  0  0
   -2.2379    1.5627   -0.6877 H   0  0  0  0  0  0  0  0  0  0  0  0
   -3.6458   -0.0932   -0.2372 C   0  0  0  0  0  0  0  0  0  0  0  0
   -4.2852    0.3520   -1.0216 H   0  0  0  0  0  0  0  0  0  0  0  0
   -4.2964   -0.3140    0.6304 H   0  0  0  0  0  0  0  0  0  0  0  0
   -2.9205   -1.3696   -0.7251 C   0  0  0  0  0  0  0  0  0  0  0  0
   -3.1045   -2.2310   -0.0377 H   0  0  0  0  0  0  0  0  0  0  0  0
   -3.2244   -1.6838   -1.7427 H   0  0  0  0  0  0  0  0  0  0  0  0
   -0.4652   -1.9487   -0.9661 C   0  0  0  0  0  0  0  0  0  0  0  0
   -0.0617   -2.3686   -0.0121 H   0  0  0  0  0  0  0  0  0  0  0  0
   -0.9434   -2.8091   -1.4757 H   0  0  0  0  0  0  0  0  0  0  0  0
    0.6699   -1.4807   -1.8958 C   0  0  0  0  0  0  0  0  0  0  0  0
    0.2026   -1.1574   -2.8461 H   0  0  0  0  0  0  0  0  0  0  0  0
    1.3297   -2.3450   -2.1327 H   0  0  0  0  0  0  0  0  0  0  0  0
    2.8183   -0.6385   -0.8057 C   0  0  0  0  0  0  0  0  0  0  0  0
    3.4739   -1.1135   -1.5683 H   0  0  0  0  0  0  0  0  0  0  0  0
    3.2749    0.3423   -0.5570 H   0  0  0  0  0  0  0  0  0  0  0  0
  1  8  1  0  0  0  0
  1 11  1  0  0  0  0
  2 17  1  1  0  0  0
  2 14  1  0  0  0  0
  3 26  1  1  0  0  0
  3 23  1  0  0  0  0
  3  2  1  0  0  0  0
  4 32  1  0  0  0  0
  5  7  1  0  0  0  0
  5  8  1  0  0  0  0
  6  5  1  0  0  0  0
  8 10  1  0  0  0  0
  9  4  1  0  0  0  0
 11 13  1  0  0  0  0
 11 12  1  0  0  0  0
 14 15  1  0  0  0  0
 14 11  1  0  0  0  0
 16 14  1  0  0  0  0
 17 18  1  0  0  0  0
 19 17  1  0  0  0  0
 20 17  1  0  0  0  0
 20 22  1  0  0  0  0
 21 20  1  0  0  0  0
 23 20  1  0  0  0  0
 23 24  1  0  0  0  0
 25 23  1  0  0  0  0
 26 27  1  0  0  0  0
 28 26  1  0  0  0  0
 29  4  1  0  0  0  0
 29 26  1  0  0  0  0
 30 29  1  0  0  0  0
 31 29  1  0  0  0  0
 32 34  1  0  0  0  0
 32  5  1  0  0  0  0
 33 32  1  0  0  0  0
M  END
