4,5,6
q = 0.0, confidence = 0.994

 46 48  0  0  1  0  0  0  0  0999 V2000
    4.5106   -2.0386   -1.2524 O   0  0  0  0  0  0  0  0  0  0  0  0
    3.2913    3.6468    1.5047 O   0  0  0  0  0  0  0  0  0  0  0  0
    0.3920   -2.5576    2.4046 N   0  0  0  0  0  0  0  0  0  0  0  0
   -0.0146    1.4202    0.3606 N   0  0  0  0  0  2  0  0  0  0  0  0
    0.0404   -0.5069   -1.5720 N   0  0  0  0  0  0  0  0  0  0  0  0
   -0.9278   -1.2373    1.1883 N   0  0  0  0  0  2  0  0  0  0  0  0
    0.9665    3.3394    1.4453 C   0  0  0  0  0  0  0  0  0  0  0  0
    0.8410    4.2761    2.0047 H   0  0  0  0  0  0  0  0  0  0  0  0
    2.3827    1.6882    0.3729 C   0  0  0  0  0  0  0  0  0  0  0  0
    3.3531    1.2834    0.0621 H   0  0  0  0  0  0  0  0  0  0  0  0
    1.5505   -3.2723    2.9179 C   0  0  0  0  0  0  0  0  0  0  0  0
    1.8039   -4.1385    2.2748 H   0  0  0  0  0  0  0  0  0  0  0  0
    1.3162   -3.6435    3.9312 H   0  0  0  0  0  0  0  0  0  0  0  0
    2.4229   -2.5947    2.9823 H   0  0  0  0  0  0  0  0  0  0  0  0
    2.5821   -0.5269   -1.4973 C   0  0  0  0  0  0  0  0  0  0  0  0
    2.8779    0.1270   -2.3225 H   0  0  0  0  0  0  0  0  0  0  0  0
    3.3133   -1.5419   -0.9368 C   0  0  0  0  0  0  0  0  0  0  0  0
    0.3302   -1.7361    1.2954 C   0  0  0  0  0  0  0  0  0  0  0  0
    1.2966   -0.3615   -0.7166 C   0  0  2  0  0  0  0  0  0  0  0  0
   -1.6654   -1.7554    2.2278 C   0  0  0  0  0  0  0  0  0  0  0  0
   -2.7216   -1.5073    2.3685 H   0  0  0  0  0  0  0  0  0  0  0  0
    2.2655    2.8885    1.1073 C   0  0  0  0  0  0  0  0  0  0  0  0
    5.1636   -1.4683   -2.3870 C   0  0  0  0  0  0  0  0  0  0  0  0
    6.1157   -2.0129   -2.5121 H   0  0  0  0  0  0  0  0  0  0  0  0
    4.5410   -1.5860   -3.2997 H   0  0  0  0  0  0  0  0  0  0  0  0
    5.3700   -0.3885   -2.2229 H   0  0  0  0  0  0  0  0  0  0  0  0
    1.3903   -1.4857    0.3533 C   0  0  0  0  0  0  0  0  0  0  0  0
    1.2245    0.9859    0.0232 C   0  0  1  0  0  3  0  0  0  0  0  0
    2.5935   -2.1221    0.1987 C   0  0  0  0  0  3  0  0  0  0  0  0
    3.0011   -2.9589    0.7744 H   0  0  0  0  0  0  0  0  0  0  0  0
   -0.1286    2.5863    1.0543 C   0  0  0  0  0  0  0  0  0  0  0  0
   -1.1522    2.9072    1.2938 H   0  0  0  0  0  0  0  0  0  0  0  0
   -0.1301   -1.9110   -2.0305 C   0  0  0  0  0  0  0  0  0  0  0  0
   -0.3813   -2.5673   -1.1797 H   0  0  0  0  0  0  0  0  0  0  0  0
   -0.9653   -1.9412   -2.7528 H   0  0  0  0  0  0  0  0  0  0  0  0
    0.7944   -2.2761   -2.5259 H   0  0  0  0  0  0  0  0  0  0  0  0
   -0.8557   -2.5737    2.9894 C   0  0  0  0  0  0  0  0  0  0  0  0
   -1.0622   -3.1532    3.8946 H   0  0  0  0  0  0  0  0  0  0  0  0
    4.6236    3.2475    1.1832 C   0  0  0  0  0  0  0  0  0  0  0  0
    5.2859    4.0191    1.6131 H   0  0  0  0  0  0  0  0  0  0  0  0
    4.8672    2.2614    1.6328 H   0  0  0  0  0  0  0  0  0  0  0  0
    4.7749    3.2048    0.0837 H   0  0  0  0  0  0  0  0  0  0  0  0
    0.1535    0.3645   -2.7753 C   0  0  0  0  0  0  0  0  0  0  0  0
    0.3727    1.4047   -2.4721 H   0  0  0  0  0  0  0  0  0  0  0  0
    0.9508   -0.0001   -3.4548 H   0  0  0  0  0  0  0  0  0  0  0  0
   -0.8089    0.3485   -3.3156 H   0  0  0  0  0  0  0  0  0  0  0  0
  1 17  1  0  0  0  0
  3 11  1  0  0  0  0
  3 37  1  0  0  0  0
  4 31  1  0  0  0  0
  6 18  1  0  0  0  0
  6 20  1  0  0  0  0
  7  8  1  0  0  0  0
  9 22  2  0  0  0  0
 10  9  1  0  0  0  0
 11 14  1  0  0  0  0
 11 13  1  0  0  0  0
 12 11  1  0  0  0  0
 15 17  2  0  0  0  0
 15 19  1  0  0  0  0
 16 15  1  0  0  0  0
 17 29  1  0  0  0  0
 18  3  1  0  0  0  0
 19  5  1  6  0  0  0
 19 28  1  0  0  0  0
 19 27  1  0  0  0  0
 20 21  1  0  0  0  0
 20 37  2  0  0  0  0
 22  7  1  0  0  0  0
 22  2  1  0  0  0  0
 23 26  1  0  0  0  0
 23  1  1  0  0  0  0
 24 23  1  0  0  0  0
 25 23  1  0  0  0  0
 27 18  2  0  0  0  0
 28  4  1  1  0  0  0
 28  9  1  0  0  0  0
 29 27  1  0  0  0  0
 29 30  1  0  0  0  0
 31 32  1  0  0  0  0
 31  7  2  0  0  0  0
 33  5  1  0  0  0  0
 33 34  1  0  0  0  0
 35 33  1  0  0  0  0
 36 33  1  0  0  0  0
 37 38  1  0  0  0  0
 39  2  1  0  0  0  0
 39 40  1  0  0  0  0
 39 41  1  0  0  0  0
 42 39  1  0  0  0  0
 43 44  1  0  0  0  0
 43  5  1  0  0  0  0
 45 43  1  0  0  0  0
 46 43  1  0  0  0  0
M  END
