1,2,3
q = 0.0, confidence = 0.996

 54 55  0  0  1  0  0  0  0  0999 V2000
    2.2078    0.2458   -0.5738 N   0  0  0  0  0  2  0  0  0  0  0  0
   -0.1668   -0.8319   -1.4316 N   0  0  0  0  0  0  0  0  0  0  0  0
   -0.8996    1.6542   -0.3377 N   0  0  0  0  0  2  0  0  0  0  0  0
   -1.2227   -0.8976    1.4970 O   0  0  0  0  0  0  0  0  0  0  0  0
   -0.6184   -1.5384    1.9432 H   0  0  0  0  0  0  0  0  0  0  0  0
   -3.1583   -0.6165    0.3265 O   0  0  0  0  0  0  0  0  0  0  0  0
    3.2771    1.0367   -0.2897 C   0  0  1  0  0  3  0  0  0  0  0  0
    4.5307    0.7554   -0.8631 C   0  0  0  0  0  0  0  0  0  0  0  0
    5.3899    1.3959   -0.6197 H   0  0  0  0  0  0  0  0  0  0  0  0
    4.6675   -0.3229   -1.7451 C   0  0  0  0  0  0  0  0  0  0  0  0
    5.6441   -0.5509   -2.1974 H   0  0  0  0  0  0  0  0  0  0  0  0
    3.5407   -1.0890   -2.0677 C   0  0  0  0  0  0  0  0  0  0  0  0
    3.6005   -1.9196   -2.7858 H   0  0  0  0  0  0  0  0  0  0  0  0
    2.3211   -0.7735   -1.4550 C   0  0  0  0  0  0  0  0  0  0  0  0
    1.0667   -1.5689   -1.7592 C   0  0  0  0  0  0  0  0  0  0  0  0
    1.0790   -1.8844   -2.8289 H   0  0  0  0  0  0  0  0  0  0  0  0
    1.0790   -2.4987   -1.1573 H   0  0  0  0  0  0  0  0  0  0  0  0
   -0.3357    0.3538   -2.3104 C   0  0  0  0  0  0  0  0  0  0  0  0
   -0.7724    0.0704   -3.2928 H   0  0  0  0  0  0  0  0  0  0  0  0
    0.6670    0.7823   -2.5167 H   0  0  0  0  0  0  0  0  0  0  0  0
   -1.1725    1.4271   -1.6438 C   0  0  2  0  0  3  0  0  0  0  0  0
   -2.1389    2.1729   -2.3264 C   0  0  0  0  0  0  0  0  0  0  0  0
   -2.3503    1.9680   -3.3855 H   0  0  0  0  0  0  0  0  0  0  0  0
   -2.8286    3.1738   -1.6253 C   0  0  0  0  0  0  0  0  0  0  0  0
   -3.5983    3.7753   -2.1317 H   0  0  0  0  0  0  0  0  0  0  0  0
   -2.5359    3.3946   -0.2748 C   0  0  0  0  0  0  0  0  0  0  0  0
   -3.0648    4.1696    0.2976 H   0  0  0  0  0  0  0  0  0  0  0  0
   -1.5553    2.6110    0.3631 C   0  0  0  0  0  0  0  0  0  0  0  0
   -1.3861   -1.6872   -1.5325 C   0  0  0  0  0  0  0  0  0  0  0  0
   -1.2660   -2.3715   -2.4039 H   0  0  0  0  0  0  0  0  0  0  0  0
   -2.2271   -1.0093   -1.7710 H   0  0  0  0  0  0  0  0  0  0  0  0
   -1.8445   -2.5149   -0.3112 C   0  0  0  0  0  0  0  0  0  0  0  0
   -2.3115   -1.5831    0.8357 C   0  0  1  0  0  0  0  0  0  0  0  0
   -2.8240   -2.1996    1.6163 H   0  0  0  0  0  0  0  0  0  0  0  0
    3.0684    2.2149    0.6143 C   0  0  0  0  0  0  0  0  0  0  0  0
    2.2066    2.8187    0.2614 H   0  0  0  0  0  0  0  0  0  0  0  0
    3.9637    2.8612    0.6414 H   0  0  0  0  0  0  0  0  0  0  0  0
    2.8239    1.8882    1.6456 H   0  0  0  0  0  0  0  0  0  0  0  0
   -1.1848    2.7877    1.8048 C   0  0  0  0  0  0  0  0  0  0  0  0
   -1.1914    1.8151    2.3371 H   0  0  0  0  0  0  0  0  0  0  0  0
   -1.8673    3.4889    2.3172 H   0  0  0  0  0  0  0  0  0  0  0  0
   -0.1508    3.1809    1.8976 H   0  0  0  0  0  0  0  0  0  0  0  0
   -3.0836   -3.3066   -0.7811 C   0  0  0  0  0  0  0  0  0  0  0  0
   -2.8145   -4.0112   -1.5926 H   0  0  0  0  0  0  0  0  0  0  0  0
   -3.8791   -2.6308   -1.1494 H   0  0  0  0  0  0  0  0  0  0  0  0
   -3.5016   -3.9047    0.0530 H   0  0  0  0  0  0  0  0  0  0  0  0
   -0.7968   -3.5069    0.2208 C   0  0  0  0  0  0  0  0  0  0  0  0
    0.1170   -3.0240    0.6173 H   0  0  0  0  0  0  0  0  0  0  0  0
   -0.4959   -4.2166   -0.5757 H   0  0  0  0  0  0  0  0  0  0  0  0
   -1.2283   -4.1157    1.0420 H   0  0  0  0  0  0  0  0  0  0  0  0
   -3.9707    0.0464    1.2923 C   0  0  0  0  0  0  0  0  0  0  0  0
   -4.6473   -0.6723    1.8057 H   0  0  0  0  0  0  0  0  0  0  0  0
   -4.5794    0.7881    0.7436 H   0  0  0  0  0  0  0  0  0  0  0  0
   -3.3546    0.5683    2.0543 H   0  0  0  0  0  0  0  0  0  0  0  0
  1  7  1  0  0  0  0
  3 28  1  0  0  0  0
  4  5  1  0  0  0  0
  6 33  1  0  0  0  0
  6 51  1  0  0  0  0
  7 35  1  6  0  0  0
  8  9  1  0  0  0  0
  8  7  1  0  0  0  0
 10  8  2  0  0  0  0
 11 10  1  0  0  0  0
 12 10  1  0  0  0  0
 12 14  2  0  0  0  0
 13 12  1  0  0  0  0
 14  1  1  0  0  0  0
 15 14  1  0  0  0  0
 15  2  1  0  0  0  0
 15 17  1  0  0  0  0
 16 15  1  0  0  0  0
 18  2  1  0  0  0  0
 19 18  1  0  0  0  0
 20 18  1  0  0  0  0
 21 18  1  6  0  0  0
 21  3  1  0  0  0  0
 22 21  1  0  0  0  0
 22 24  2  0  0  0  0
 23 22  1  0  0  0  0
 24 26  1  0  0  0  0
 25 24  1  0  0  0  0
 26 27  1  0  0  0  0
 26 28  2  0  0  0  0
 28 39  1  0  0  0  0
 29  2  1  0  0  0  0
 29 32  1  0  0  0  0
 30 29  1  0  0  0  0
 31 29  1  0  0  0  0
 32 47  1  0  0  0  0
 32 33  1  0  0  0  0
 33  4  1  0  0  0  0
 33 34  1  1  0  0  0
 35 37  1  0  0  0  0
 35 38  1  0  0  0  0
 36 35  1  0  0  0  0
 39 42  1  0  0  0  0
 39 41  1  0  0  0  0
 39 40  1  0  0  0  0
 43 32  1  0  0  0  0
 43 46  1  0  0  0  0
 44 43  1  0  0  0  0
 45 43  1  0  0  0  0
 47 48  1  0  0  0  0
 47 50  1  0  0  0  0
 49 47  1  0  0  0  0
 51 52  1  0  0  0  0
 51 54  1  0  0  0  0
 53 51  1  0  0  0  0
M  END
