11,12,13
q = -1.0, confidence = 0.37

 37 38  0  0  0  0  0  0  0  0999 V2000
   -1.4358    1.3031    0.7638 F   0  0  0  0  0  0  0  0  0  0  0  0
   -3.1760    3.4041    0.5742 F   0  0  0  0  0  0  0  0  0  0  0  0
   -5.7284    2.9849   -0.4186 F   0  0  0  0  0  0  0  0  0  0  0  0
   -6.4496    0.4557   -1.1944 F   0  0  0  0  0  0  0  0  0  0  0  0
   -4.7610   -1.5921   -1.0619 F   0  0  0  0  0  0  0  0  0  0  0  0
    1.4358    1.3030    0.7637 F   0  0  0  0  0  0  0  0  0  0  0  0
    3.1761    3.4038    0.5750 F   0  0  0  0  0  0  0  0  0  0  0  0
    5.7287    2.9847   -0.4178 F   0  0  0  0  0  0  0  0  0  0  0  0
    6.4496    0.4557   -1.1942 F   0  0  0  0  0  0  0  0  0  0  0  0
    4.7610   -1.5920   -1.0626 F   0  0  0  0  0  0  0  0  0  0  0  0
   -2.0253   -1.1959    0.0688 N   0  0  0  0  0  2  0  0  0  0  0  0
    2.0252   -1.1959    0.0681 N   0  0  0  0  0  2  0  0  0  0  0  0
   -0.0000   -2.6823    0.1890 N   0  0  0  0  0  2  0  0  0  0  0  0
   -2.3556   -2.5995   -0.1980 C   0  0  0  0  0  0  0  0  0  0  0  0
   -2.4228   -2.7784   -1.2948 H   0  0  0  0  0  0  0  0  0  0  0  0
   -3.3321   -2.8774    0.2442 H   0  0  0  0  0  0  0  0  0  0  0  0
   -1.2294   -3.4235    0.4037 C   0  0  0  0  0  0  0  0  0  0  0  0
   -1.4146   -3.6046    1.4934 H   0  0  0  0  0  0  0  0  0  0  0  0
   -1.1778   -4.4254   -0.0811 H   0  0  0  0  0  0  0  0  0  0  0  0
    2.3552   -2.5994   -0.1998 C   0  0  0  0  0  0  0  0  0  0  0  0
    3.3319   -2.8776    0.2417 H   0  0  0  0  0  0  0  0  0  0  0  0
    2.4220   -2.7775   -1.2967 H   0  0  0  0  0  0  0  0  0  0  0  0
    1.2294   -3.4238    0.4019 C   0  0  0  0  0  0  0  0  0  0  0  0
    1.1773   -4.4252   -0.0840 H   0  0  0  0  0  0  0  0  0  0  0  0
    1.4153   -3.6063    1.4912 H   0  0  0  0  0  0  0  0  0  0  0  0
   -2.6977    1.1011    0.2643 C   0  0  0  0  0  0  0  0  0  0  0  0
   -3.5686    2.1870    0.1935 C   0  0  0  0  0  0  0  0  0  0  0  0
   -4.8604    1.9743   -0.3185 C   0  0  0  0  0  0  0  0  0  0  0  0
   -5.2267    0.6737   -0.7023 C   0  0  0  0  0  0  0  0  0  0  0  0
   -4.3191   -0.3980   -0.6253 C   0  0  0  0  0  0  0  0  0  0  0  0
   -3.0078   -0.2325   -0.0938 C   0  0  0  0  0  0  0  0  0  0  0  0
    2.6977    1.1010    0.2642 C   0  0  0  0  0  0  0  0  0  0  0  0
    3.5687    2.1868    0.1939 C   0  0  0  0  0  0  0  0  0  0  0  0
    4.8606    1.9742   -0.3180 C   0  0  0  0  0  0  0  0  0  0  0  0
    5.2268    0.6737   -0.7022 C   0  0  0  0  0  0  0  0  0  0  0  0
    4.3190   -0.3980   -0.6256 C   0  0  0  0  0  0  0  0  0  0  0  0
    3.0077   -0.2325   -0.0942 C   0  0  0  0  0  0  0  0  0  0  0  0
  3 28  1  0  0  0  0
  4 29  1  0  0  0  0
  5 30  1  0  0  0  0
  8 34  1  0  0  0  0
  9 35  1  0  0  0  0
 10 36  1  0  0  0  0
 13 23  1  0  0  0  0
 13 17  1  0  0  0  0
 14 11  1  0  0  0  0
 14 16  1  0  0  0  0
 14 17  1  0  0  0  0
 15 14  1  0  0  0  0
 17 18  1  0  0  0  0
 19 17  1  0  0  0  0
 20 12  1  0  0  0  0
 20 21  1  0  0  0  0
 20 23  1  0  0  0  0
 22 20  1  0  0  0  0
 23 25  1  0  0  0  0
 24 23  1  0  0  0  0
 26  1  1  0  0  0  0
 27 26  1  0  0  0  0
 27  2  1  0  0  0  0
 28 27  2  0  0  0  0
 29 30  2  0  0  0  0
 29 28  1  0  0  0  0
 30 31  1  0  0  0  0
 31 11  1  0  0  0  0
 31 26  2  0  0  0  0
 32  6  1  0  0  0  0
 33 32  1  0  0  0  0
 33  7  1  0  0  0  0
 34 33  2  0  0  0  0
 35 36  2  0  0  0  0
 35 34  1  0  0  0  0
 36 37  1  0  0  0  0
 37 12  1  0  0  0  0
 37 32  2  0  0  0  0
M  END
