4,5,6
q = -1.0, confidence = 0.0

 36 38  0  0  1  0  0  0  0  0999 V2000
   -2.0291   -1.1270   -1.9260 S   0  0  0  0  0  0  0  0  0  0  0  0
   -1.0102   -2.1975   -1.7972 O   0  0  0  0  0  0  0  0  0  0  0  0
   -3.0556   -1.1604   -2.9966 O   0  0  0  0  0  0  0  0  0  0  0  0
   -0.9613   -0.8594    1.0393 N   0  0  0  0  0  2  0  0  0  0  0  0
   -1.2296    0.2853   -1.8797 N   0  0  0  0  0  2  0  0  0  0  0  0
    0.0860    2.1623    0.0992 N   0  0  0  0  0  2  0  0  0  0  0  0
   -0.3725   -0.9311    2.2364 C   0  0  0  0  0  0  0  0  0  0  0  0
    0.7083   -0.6964    2.2420 H   0  0  0  0  0  0  0  0  0  0  0  0
   -1.0691   -1.2607    3.4229 C   0  0  0  0  0  0  0  0  0  0  0  0
   -0.5213   -1.3104    4.3743 H   0  0  0  0  0  0  0  0  0  0  0  0
   -2.4335   -1.4788    3.3539 C   0  0  0  0  0  0  0  0  0  0  0  0
   -3.0235   -1.6991    4.2577 H   0  0  0  0  0  0  0  0  0  0  0  0
   -3.0933   -1.4308    2.0952 C   0  0  0  0  0  0  0  0  0  0  0  0
   -4.4947   -1.6633    1.9758 C   0  0  0  0  0  0  0  0  0  0  0  0
   -5.0740   -1.8653    2.8898 H   0  0  0  0  0  0  0  0  0  0  0  0
   -5.1049   -1.6442    0.7334 C   0  0  0  0  0  0  0  0  0  0  0  0
   -6.1869   -1.8203    0.6407 H   0  0  0  0  0  0  0  0  0  0  0  0
   -4.3257   -1.4338   -0.4324 C   0  0  0  0  0  0  0  0  0  0  0  0
   -4.7750   -1.4702   -1.4365 H   0  0  0  0  0  0  0  0  0  0  0  0
   -2.9583   -1.2060   -0.3549 C   0  0  0  0  0  0  0  0  0  0  0  0
   -2.3015   -1.1550    0.9188 C   0  0  2  0  0  3  0  0  0  0  0  0
   -1.9859    1.4988   -2.1353 C   0  0  0  0  0  0  0  0  0  0  0  0
   -2.8427    1.6393   -1.4266 H   0  0  0  0  0  0  0  0  0  0  0  0
   -2.4253    1.4756   -3.1566 H   0  0  0  0  0  0  0  0  0  0  0  0
   -1.0483    2.7107   -2.0298 C   0  0  0  0  0  0  0  0  0  0  0  0
   -0.1467    2.4906   -2.6429 H   0  0  0  0  0  0  0  0  0  0  0  0
   -1.5414    3.5947   -2.4789 H   0  0  0  0  0  0  0  0  0  0  0  0
   -0.6066    3.0741   -0.6332 C   0  0  2  0  0  3  0  0  0  0  0  0
   -0.8769    4.3500   -0.1011 C   0  0  0  0  0  0  0  0  0  0  0  0
   -1.4448    5.0726   -0.7050 H   0  0  0  0  0  0  0  0  0  0  0  0
   -0.4145    4.6905    1.1754 C   0  0  0  0  0  0  0  0  0  0  0  0
   -0.6208    5.6874    1.5941 H   0  0  0  0  0  0  0  0  0  0  0  0
    0.3254    3.7468    1.9002 C   0  0  0  0  0  0  0  0  0  0  0  0
    0.7313    3.9728    2.8964 H   0  0  0  0  0  0  0  0  0  0  0  0
    0.5504    2.4924    1.3240 C   0  0  0  0  0  0  0  0  0  0  0  0
    1.1577    1.7130    1.8146 H   0  0  0  0  0  0  0  0  0  0  0  0
  1  5  1  0  0  0  0
  1  2  2  0  0  0  0
  1 20  1  0  0  0  0
  3  1  2  0  0  0  0
  4  7  1  0  0  0  0
  6 35  1  0  0  0  0
  7  8  1  0  0  0  0
  7  9  2  0  0  0  0
  9 10  1  0  0  0  0
 11  9  1  0  0  0  0
 11 12  1  0  0  0  0
 13 11  2  0  0  0  0
 14 13  1  0  0  0  0
 14 15  1  0  0  0  0
 16 14  2  0  0  0  0
 17 16  1  0  0  0  0
 18 20  2  0  0  0  0
 18 16  1  0  0  0  0
 19 18  1  0  0  0  0
 21 20  1  6  0  0  0
 21  4  1  0  0  0  0
 21 13  1  0  0  0  0
 22 25  1  0  0  0  0
 22  5  1  0  0  0  0
 22 23  1  0  0  0  0
 24 22  1  0  0  0  0
 26 25  1  0  0  0  0
 27 25  1  0  0  0  0
 28 25  1  6  0  0  0
 28 29  1  0  0  0  0
 28  6  1  0  0  0  0
 29 31  2  0  0  0  0
 30 29  1  0  0  0  0
 31 32  1  0  0  0  0
 31 33  1  0  0  0  0
 33 34  1  0  0  0  0
 35 36  1  0  0  0  0
 35 33  2  0  0  0  0
M  END
