1,3,4
q = 0.0, confidence = 0.978

 46 49  0  0  1  0  0  0  0  0999 V2000
    0.4890   -1.6651    1.1601 N   0  0  0  0  0  2  0  0  0  0  0  0
    0.8265    0.8634   -0.3304 N   0  0  0  0  0  2  0  0  0  0  0  0
   -0.4316    0.4969   -0.2315 N   0  0  0  0  0  2  0  0  0  0  0  0
   -2.7807   -0.5313   -0.6403 N   0  0  0  0  0  2  0  0  0  0  0  0
    3.5240    1.7958   -0.6129 C   0  0  0  0  0  0  0  0  0  0  0  0
    4.7818    2.1211   -1.1360 C   0  0  0  0  0  0  0  0  0  0  0  0
    5.6737    1.1033   -1.5132 C   0  0  0  0  0  0  0  0  0  0  0  0
    5.2991   -0.2437   -1.3734 C   0  0  0  0  0  0  0  0  0  0  0  0
    4.0468   -0.5761   -0.8420 C   0  0  0  0  0  0  0  0  0  0  0  0
    3.1522    0.4442   -0.4480 C   0  0  0  0  0  0  0  0  0  0  0  0
    1.8069    0.0908    0.0571 C   0  0  1  0  0  3  0  0  0  0  0  0
    1.6650   -0.9999    1.0684 C   0  0  1  0  0  3  0  0  0  0  0  0
    2.7256   -1.2767    1.9569 C   0  0  0  0  0  0  0  0  0  0  0  0
    2.5522   -2.2530    2.9471 C   0  0  0  0  0  0  0  0  0  0  0  0
    1.3316   -2.9345    3.0220 C   0  0  0  0  0  0  0  0  0  0  0  0
    0.3266   -2.6124    2.0967 C   0  0  0  0  0  0  0  0  0  0  0  0
   -3.9513   -1.1444   -0.8606 C   0  0  0  0  0  3  0  0  0  0  0  0
   -5.1831   -0.4944   -0.6846 C   0  0  0  0  0  0  0  0  0  0  0  0
   -5.1783    0.8260   -0.2152 C   0  0  0  0  0  0  0  0  0  0  0  0
   -3.9546    1.4615    0.0312 C   0  0  0  0  0  0  0  0  0  0  0  0
   -2.7565    0.7606   -0.2227 C   0  0  0  0  0  0  0  0  0  0  0  0
   -1.4125    1.3430   -0.0155 C   0  0  2  0  0  3  0  0  0  0  0  0
   -1.1754    2.7499    0.3716 C   0  0  0  0  0  0  0  0  0  0  0  0
   -0.2366    3.0538    1.3843 C   0  0  0  0  0  0  0  0  0  0  0  0
    0.0535    4.3850    1.7106 C   0  0  0  0  0  0  0  0  0  0  0  0
   -0.5785    5.4336    1.0237 C   0  0  0  0  0  0  0  0  0  0  0  0
   -1.5026    5.1442    0.0064 C   0  0  0  0  0  0  0  0  0  0  0  0
   -1.8028    3.8146   -0.3171 C   0  0  0  0  0  0  0  0  0  0  0  0
    2.8101    2.5797   -0.3200 H   0  0  0  0  0  0  0  0  0  0  0  0
    5.0695    3.1772   -1.2513 H   0  0  0  0  0  0  0  0  0  0  0  0
    6.6610    1.3605   -1.9261 H   0  0  0  0  0  0  0  0  0  0  0  0
    5.9831   -1.0430   -1.6962 H   0  0  0  0  0  0  0  0  0  0  0  0
    3.7238   -1.6259   -0.7799 H   0  0  0  0  0  0  0  0  0  0  0  0
    3.6694   -0.7223    1.8668 H   0  0  0  0  0  0  0  0  0  0  0  0
    3.3679   -2.4775    3.6511 H   0  0  0  0  0  0  0  0  0  0  0  0
    1.1504   -3.7097    3.7804 H   0  0  0  0  0  0  0  0  0  0  0  0
   -0.6438   -3.1401    2.0557 H   0  0  0  0  0  0  0  0  0  0  0  0
   -3.8739   -2.2106   -1.1327 H   0  0  0  0  0  0  0  0  0  0  0  0
   -6.1213   -1.0311   -0.8843 H   0  0  0  0  0  0  0  0  0  0  0  0
   -6.1229    1.3588   -0.0278 H   0  0  0  0  0  0  0  0  0  0  0  0
   -3.9202    2.4849    0.4268 H   0  0  0  0  0  0  0  0  0  0  0  0
    0.2502    2.2342    1.9319 H   0  0  0  0  0  0  0  0  0  0  0  0
    0.7784    4.6054    2.5087 H   0  0  0  0  0  0  0  0  0  0  0  0
   -0.3477    6.4790    1.2782 H   0  0  0  0  0  0  0  0  0  0  0  0
   -1.9870    5.9621   -0.5481 H   0  0  0  0  0  0  0  0  0  0  0  0
   -2.5010    3.5956   -1.1383 H   0  0  0  0  0  0  0  0  0  0  0  0
  1 16  1  0  0  0  0
  2  3  1  0  0  0  0
  4 21  1  0  0  0  0
  5 10  1  0  0  0  0
  5 29  1  0  0  0  0
  6  5  2  0  0  0  0
  7  8  2  0  0  0  0
  7  6  1  0  0  0  0
  8  9  1  0  0  0  0
  9 33  1  0  0  0  0
  9 10  2  0  0  0  0
 10 11  1  0  0  0  0
 11  2  1  1  0  0  0
 12 11  1  1  0  0  0
 12  1  1  0  0  0  0
 12 13  1  0  0  0  0
 13 14  2  0  0  0  0
 14 15  1  0  0  0  0
 14 35  1  0  0  0  0
 15 36  1  0  0  0  0
 16 15  2  0  0  0  0
 17 18  1  0  0  0  0
 17  4  1  0  0  0  0
 18 19  2  0  0  0  0
 19 40  1  0  0  0  0
 19 20  1  0  0  0  0
 20 41  1  0  0  0  0
 21 22  1  0  0  0  0
 21 20  2  0  0  0  0
 22  3  1  6  0  0  0
 22 23  1  0  0  0  0
 23 24  1  0  0  0  0
 24 25  2  0  0  0  0
 24 42  1  0  0  0  0
 25 43  1  0  0  0  0
 26 44  1  0  0  0  0
 26 25  1  0  0  0  0
 27 26  2  0  0  0  0
 28 27  1  0  0  0  0
 28 23  2  0  0  0  0
 30  6  1  0  0  0  0
 31  7  1  0  0  0  0
 32  8  1  0  0  0  0
 34 13  1  0  0  0  0
 37 16  1  0  0  0  0
 38 17  1  0  0  0  0
 39 18  1  0  0  0  0
 45 27  1  0  0  0  0
 46 28  1  0  0  0  0
M  END
