4,6,15
q = -1.0, confidence = 0.012

 21 22  0  0  0  0  0  0  0  0999 V2000
   -2.4249   -2.4711   -1.9240 N   0  0  0  0  0  0  0  0  0  0  0  0
   -2.7585   -2.8118   -0.6714 N   0  0  0  0  0  0  0  0  0  0  0  0
   -2.1160   -2.1573    0.2946 N   0  0  0  0  0  2  0  0  0  0  0  0
   -1.3166   -1.3418   -0.3485 N   0  0  0  0  0  2  0  0  0  0  0  0
   -0.7874   -0.8016   -2.6170 N   0  0  0  0  0  2  0  0  0  0  0  0
   -0.0002    0.0002   -1.9357 N   0  0  0  0  0  2  0  0  0  0  0  0
   -1.4976   -1.5257   -1.7145 C   0  0  0  0  0  0  0  0  0  0  0  0
   -3.7502   -3.8238   -0.3793 C   0  0  0  0  0  0  0  0  0  0  0  0
   -3.4367   -4.7929   -0.8132 H   0  0  0  0  0  0  0  0  0  0  0  0
   -4.7251   -3.5304   -0.8144 H   0  0  0  0  0  0  0  0  0  0  0  0
   -3.8300   -3.9042    0.7184 H   0  0  0  0  0  0  0  0  0  0  0  0
    2.4247    2.4712   -1.9240 N   0  0  0  0  0  0  0  0  0  0  0  0
    2.7589    2.8115   -0.6714 N   0  0  0  0  0  0  0  0  0  0  0  0
    2.1165    2.1569    0.2946 N   0  0  0  0  0  2  0  0  0  0  0  0
    1.3166    1.3419   -0.3485 N   0  0  0  0  0  2  0  0  0  0  0  0
    0.7867    0.8023   -2.6170 N   0  0  0  0  0  2  0  0  0  0  0  0
    1.4972    1.5261   -1.7145 C   0  0  0  0  0  0  0  0  0  0  0  0
    3.7511    3.8229   -0.3793 C   0  0  0  0  0  0  0  0  0  0  0  0
    3.4378    4.7923   -0.8129 H   0  0  0  0  0  0  0  0  0  0  0  0
    4.7257    3.5293   -0.8147 H   0  0  0  0  0  0  0  0  0  0  0  0
    3.8311    3.9031    0.7184 H   0  0  0  0  0  0  0  0  0  0  0  0
  1  7  2  0  0  0  0
  1  2  1  0  0  0  0
  2  8  1  0  0  0  0
  2  3  1  0  0  0  0
  4  3  1  0  0  0  0
  5  6  1  0  0  0  0
  5  7  1  0  0  0  0
  7  4  1  0  0  0  0
  8 11  1  0  0  0  0
  9  8  1  0  0  0  0
 10  8  1  0  0  0  0
 12 17  2  0  0  0  0
 12 13  1  0  0  0  0
 13 18  1  0  0  0  0
 13 14  1  0  0  0  0
 15 14  1  0  0  0  0
 16  6  1  0  0  0  0
 16 17  1  0  0  0  0
 17 15  1  0  0  0  0
 18 21  1  0  0  0  0
 19 18  1  0  0  0  0
 20 18  1  0  0  0  0
M  END
