1,3,5
q = -1.0

 47 50  0  0  0  0  0  0  0  0999 V2000
    0.8188    0.0000   -0.2868 N   0  0  0  0  0  0  0  0  0  0  0  0
    1.2334    2.3868   -0.0895 N   0  0  0  0  0  0  0  0  0  0  0  0
   -1.1897    2.0894   -0.0188 N   0  0  0  0  0  2  0  0  0  0  0  0
    1.2334   -2.3867   -0.0899 N   0  0  0  0  0  0  0  0  0  0  0  0
   -1.1897   -2.0894   -0.0189 N   0  0  0  0  0  2  0  0  0  0  0  0
    1.6088    1.1446   -0.1537 C   0  0  0  0  0  0  0  0  0  0  0  0
    3.0078    0.7039   -0.0785 C   0  0  0  0  0  0  0  0  0  0  0  0
    3.0078   -0.7039   -0.0787 C   0  0  0  0  0  3  0  0  0  0  0  0
    1.6088   -1.1445   -0.1539 C   0  0  0  0  0  0  0  0  0  0  0  0
    4.2016    1.4245   -0.0090 C   0  0  0  0  0  0  0  0  0  0  0  0
    4.1884    2.5244   -0.0079 H   0  0  0  0  0  0  0  0  0  0  0  0
    5.4201    0.7165    0.0639 C   0  0  0  0  0  0  0  0  0  0  0  0
    5.4201   -0.7165    0.0637 C   0  0  0  0  0  0  0  0  0  0  0  0
    4.2017   -1.4245   -0.0094 C   0  0  0  0  0  0  0  0  0  0  0  0
    4.1884   -2.5244   -0.0086 H   0  0  0  0  0  0  0  0  0  0  0  0
   -0.0440    2.8485   -0.1330 C   0  0  0  0  0  0  0  0  0  0  0  0
   -0.1884    4.2521   -0.3184 C   0  0  0  0  0  0  0  0  0  0  0  0
    0.7477    4.8224   -0.3819 H   0  0  0  0  0  0  0  0  0  0  0  0
   -1.4339    4.8450   -0.4356 C   0  0  0  0  0  0  0  0  0  0  0  0
   -1.5167    5.9322   -0.5874 H   0  0  0  0  0  0  0  0  0  0  0  0
   -2.5983    4.0451   -0.3644 C   0  0  0  0  0  0  0  0  0  0  0  0
   -2.4151    2.6771   -0.1520 C   0  0  0  0  0  0  0  0  0  0  0  0
   -3.2811    2.0111   -0.0535 H   0  0  0  0  0  0  0  0  0  0  0  0
   -3.9779    4.6250   -0.4910 C   0  0  0  0  0  0  0  0  0  0  0  0
   -4.1592    5.3842    0.2975 H   0  0  0  0  0  0  0  0  0  0  0  0
   -4.7619    3.8497   -0.4073 H   0  0  0  0  0  0  0  0  0  0  0  0
   -4.1010    5.1377   -1.4671 H   0  0  0  0  0  0  0  0  0  0  0  0
   -0.0440   -2.8485   -0.1331 C   0  0  0  0  0  0  0  0  0  0  0  0
   -0.1883   -4.2521   -0.3183 C   0  0  0  0  0  0  0  0  0  0  0  0
    0.7477   -4.8224   -0.3819 H   0  0  0  0  0  0  0  0  0  0  0  0
   -1.4339   -4.8450   -0.4353 C   0  0  0  0  0  0  0  0  0  0  0  0
   -1.5166   -5.9323   -0.5869 H   0  0  0  0  0  0  0  0  0  0  0  0
   -2.5983   -4.0452   -0.3641 C   0  0  0  0  0  0  0  0  0  0  0  0
   -2.4151   -2.6771   -0.1518 C   0  0  0  0  0  0  0  0  0  0  0  0
   -3.2811   -2.0112   -0.0531 H   0  0  0  0  0  0  0  0  0  0  0  0
   -3.9779   -4.6251   -0.4909 C   0  0  0  0  0  0  0  0  0  0  0  0
   -4.1574   -5.3883    0.2939 H   0  0  0  0  0  0  0  0  0  0  0  0
   -4.1026   -5.1328   -1.4695 H   0  0  0  0  0  0  0  0  0  0  0  0
   -4.7621   -3.8505   -0.4020 H   0  0  0  0  0  0  0  0  0  0  0  0
    6.7207    1.4662    0.1447 C   0  0  0  0  0  0  0  0  0  0  0  0
    7.2794    1.2074    1.0686 H   0  0  0  0  0  0  0  0  0  0  0  0
    6.5635    2.5605    0.1346 H   0  0  0  0  0  0  0  0  0  0  0  0
    7.3892    1.2068   -0.7029 H   0  0  0  0  0  0  0  0  0  0  0  0
    6.7207   -1.4662    0.1443 C   0  0  0  0  0  0  0  0  0  0  0  0
    6.5635   -2.5604    0.1345 H   0  0  0  0  0  0  0  0  0  0  0  0
    7.2798   -1.2071    1.0679 H   0  0  0  0  0  0  0  0  0  0  0  0
    7.3889   -1.2070   -0.7036 H   0  0  0  0  0  0  0  0  0  0  0  0
  1  9  2  0  0  0  0
  1  6  1  0  0  0  0
  6  2  1  0  0  0  0
  6  7  2  0  0  0  0
  7 10  1  0  0  0  0
  8  7  1  0  0  0  0
  8 14  1  0  0  0  0
  9  4  1  0  0  0  0
  9  8  1  0  0  0  0
 10 11  1  0  0  0  0
 10 12  2  0  0  0  0
 12 40  1  0  0  0  0
 13 12  1  0  0  0  0
 13 44  1  0  0  0  0
 14 15  1  0  0  0  0
 14 13  2  0  0  0  0
 16  2  2  0  0  0  0
 16  3  1  0  0  0  0
 17 16  1  0  0  0  0
 18 17  1  0  0  0  0
 19 21  1  0  0  0  0
 19 17  2  0  0  0  0
 20 19  1  0  0  0  0
 21 22  2  0  0  0  0
 22 23  1  0  0  0  0
 22  3  1  0  0  0  0
 24 26  1  0  0  0  0
 24 21  1  0  0  0  0
 24 25  1  0  0  0  0
 27 24  1  0  0  0  0
 28  4  2  0  0  0  0
 28  5  1  0  0  0  0
 29 28  1  0  0  0  0
 30 29  1  0  0  0  0
 31 33  1  0  0  0  0
 31 29  2  0  0  0  0
 32 31  1  0  0  0  0
 33 34  2  0  0  0  0
 34 35  1  0  0  0  0
 34  5  1  0  0  0  0
 36 39  1  0  0  0  0
 36 33  1  0  0  0  0
 36 37  1  0  0  0  0
 38 36  1  0  0  0  0
 40 41  1  0  0  0  0
 42 40  1  0  0  0  0
 43 40  1  0  0  0  0
 44 46  1  0  0  0  0
 45 44  1  0  0  0  0
 47 44  1  0  0  0  0
M  END
