1,3,5
q = -1.0, confidence = 0.026

 59 62  0  0  0  0  0  0  0  0999 V2000
   -0.0000    1.2851    0.1419 N   0  0  0  0  0  0  0  0  0  0  0  0
    2.3870    1.7011   -0.0357 N   0  0  0  0  0  0  0  0  0  0  0  0
    2.0861   -0.7205   -0.0989 N   0  0  0  0  0  2  0  0  0  0  0  0
   -2.3870    1.7011   -0.0360 N   0  0  0  0  0  0  0  0  0  0  0  0
   -2.0861   -0.7205   -0.0989 N   0  0  0  0  0  2  0  0  0  0  0  0
   -1.1451    2.0726    0.0257 C   0  0  0  0  0  0  0  0  0  0  0  0
   -0.7052    3.4763   -0.0381 C   0  0  0  0  0  0  0  0  0  0  0  0
    0.7052    3.4763   -0.0380 C   0  0  0  0  0  0  0  0  0  0  0  0
    1.1451    2.0726    0.0259 C   0  0  0  0  0  0  0  0  0  0  0  0
   -1.4362    4.6663   -0.1010 C   0  0  0  0  0  0  0  0  0  0  0  0
   -2.5353    4.6526   -0.1026 H   0  0  0  0  0  0  0  0  0  0  0  0
   -0.7056    5.8668   -0.1648 C   0  0  0  0  0  0  0  0  0  0  0  0
   -1.2429    6.8253   -0.2178 H   0  0  0  0  0  0  0  0  0  0  0  0
    0.7055    5.8668   -0.1647 C   0  0  0  0  0  0  0  0  0  0  0  0
    1.2428    6.8253   -0.2175 H   0  0  0  0  0  0  0  0  0  0  0  0
    1.4361    4.6663   -0.1007 C   0  0  0  0  0  3  0  0  0  0  0  0
    2.5353    4.6527   -0.1021 H   0  0  0  0  0  0  0  0  0  0  0  0
    2.8530    0.4215    0.0042 C   0  0  0  0  0  0  0  0  0  0  0  0
    4.2575    0.2937    0.1731 C   0  0  0  0  0  0  0  0  0  0  0  0
    4.7966    1.2469    0.2238 H   0  0  0  0  0  0  0  0  0  0  0  0
    4.9011   -0.9387    0.2909 C   0  0  0  0  0  0  0  0  0  0  0  0
    4.0587   -2.0760    0.2282 C   0  0  0  0  0  0  0  0  0  0  0  0
    4.4576   -3.0956    0.3175 H   0  0  0  0  0  0  0  0  0  0  0  0
    2.6943   -1.9371    0.0335 C   0  0  0  0  0  0  0  0  0  0  0  0
    2.0432   -2.8155   -0.0469 H   0  0  0  0  0  0  0  0  0  0  0  0
    6.4102   -1.0850    0.4787 C   0  0  0  0  0  0  0  0  0  0  0  0
    6.9713   -1.9113   -0.7037 C   0  0  0  0  0  0  0  0  0  0  0  0
    6.5247   -2.9239   -0.7564 H   0  0  0  0  0  0  0  0  0  0  0  0
    8.0660   -2.0353   -0.5835 H   0  0  0  0  0  0  0  0  0  0  0  0
    6.7882   -1.4032   -1.6714 H   0  0  0  0  0  0  0  0  0  0  0  0
    7.1194    0.2784    0.5205 C   0  0  0  0  0  0  0  0  0  0  0  0
    6.9795    0.8476   -0.4203 H   0  0  0  0  0  0  0  0  0  0  0  0
    8.2079    0.1257    0.6544 H   0  0  0  0  0  0  0  0  0  0  0  0
    6.7677    0.9034    1.3658 H   0  0  0  0  0  0  0  0  0  0  0  0
    6.6691   -1.8316    1.8093 C   0  0  0  0  0  0  0  0  0  0  0  0
    6.2655   -1.2657    2.6726 H   0  0  0  0  0  0  0  0  0  0  0  0
    7.7601   -1.9540    1.9602 H   0  0  0  0  0  0  0  0  0  0  0  0
    6.2163   -2.8428    1.8176 H   0  0  0  0  0  0  0  0  0  0  0  0
   -2.8530    0.4214    0.0040 C   0  0  0  0  0  0  0  0  0  0  0  0
   -4.2575    0.2937    0.1731 C   0  0  0  0  0  0  0  0  0  0  0  0
   -4.7966    1.2469    0.2237 H   0  0  0  0  0  0  0  0  0  0  0  0
   -4.9011   -0.9387    0.2910 C   0  0  0  0  0  0  0  0  0  0  0  0
   -4.0586   -2.0760    0.2283 C   0  0  0  0  0  0  0  0  0  0  0  0
   -4.4576   -3.0956    0.3177 H   0  0  0  0  0  0  0  0  0  0  0  0
   -2.6943   -1.9371    0.0336 C   0  0  0  0  0  0  0  0  0  0  0  0
   -2.0432   -2.8155   -0.0467 H   0  0  0  0  0  0  0  0  0  0  0  0
   -6.4102   -1.0850    0.4787 C   0  0  0  0  0  0  0  0  0  0  0  0
   -6.9712   -1.9112   -0.7037 C   0  0  0  0  0  0  0  0  0  0  0  0
   -6.7881   -1.4031   -1.6714 H   0  0  0  0  0  0  0  0  0  0  0  0
   -8.0659   -2.0352   -0.5835 H   0  0  0  0  0  0  0  0  0  0  0  0
   -6.5247   -2.9238   -0.7564 H   0  0  0  0  0  0  0  0  0  0  0  0
   -7.1194    0.2784    0.5206 C   0  0  0  0  0  0  0  0  0  0  0  0
   -8.2079    0.1257    0.6546 H   0  0  0  0  0  0  0  0  0  0  0  0
   -6.9795    0.8476   -0.4202 H   0  0  0  0  0  0  0  0  0  0  0  0
   -6.7677    0.9033    1.3659 H   0  0  0  0  0  0  0  0  0  0  0  0
   -6.6691   -1.8317    1.8093 C   0  0  0  0  0  0  0  0  0  0  0  0
   -6.2164   -2.8429    1.8175 H   0  0  0  0  0  0  0  0  0  0  0  0
   -7.7601   -1.9541    1.9602 H   0  0  0  0  0  0  0  0  0  0  0  0
   -6.2655   -1.2659    2.6727 H   0  0  0  0  0  0  0  0  0  0  0  0
  2 18  2  0  0  0  0
  2  9  1  0  0  0  0
  3 18  1  0  0  0  0
  3 24  1  0  0  0  0
  4 39  2  0  0  0  0
  4  6  1  0  0  0  0
  5 39  1  0  0  0  0
  5 45  1  0  0  0  0
  6  1  2  0  0  0  0
  7  8  1  0  0  0  0
  7  6  1  0  0  0  0
  8  9  2  0  0  0  0
  9  1  1  0  0  0  0
 10  7  2  0  0  0  0
 11 10  1  0  0  0  0
 12 14  2  0  0  0  0
 12 10  1  0  0  0  0
 13 12  1  0  0  0  0
 14 16  1  0  0  0  0
 15 14  1  0  0  0  0
 16  8  1  0  0  0  0
 17 16  1  0  0  0  0
 18 19  1  0  0  0  0
 19 20  1  0  0  0  0
 19 21  2  0  0  0  0
 21 26  1  0  0  0  0
 22 21  1  0  0  0  0
 22 23  1  0  0  0  0
 24 22  2  0  0  0  0
 25 24  1  0  0  0  0
 26 31  1  0  0  0  0
 26 35  1  0  0  0  0
 27 29  1  0  0  0  0
 27 26  1  0  0  0  0
 28 27  1  0  0  0  0
 30 27  1  0  0  0  0
 31 33  1  0  0  0  0
 31 34  1  0  0  0  0
 32 31  1  0  0  0  0
 35 38  1  0  0  0  0
 35 37  1  0  0  0  0
 35 36  1  0  0  0  0
 39 40  1  0  0  0  0
 40 41  1  0  0  0  0
 40 42  2  0  0  0  0
 42 47  1  0  0  0  0
 43 42  1  0  0  0  0
 43 44  1  0  0  0  0
 45 43  2  0  0  0  0
 46 45  1  0  0  0  0
 47 52  1  0  0  0  0
 47 56  1  0  0  0  0
 48 50  1  0  0  0  0
 48 47  1  0  0  0  0
 49 48  1  0  0  0  0
 51 48  1  0  0  0  0
 52 53  1  0  0  0  0
 52 55  1  0  0  0  0
 54 52  1  0  0  0  0
 56 57  1  0  0  0  0
 56 58  1  0  0  0  0
 56 59  1  0  0  0  0
M  END
