1,3,5
q = -1.0, confidence = 0.0

 41 44  0  0  0  0  0  0  0  0999 V2000
    0.5719    1.0973   -0.2450 N   0  0  0  0  0  0  0  0  0  0  0  0
    2.8785    0.3606   -0.0530 N   0  0  0  0  0  0  0  0  0  0  0  0
    1.4959   -1.6537   -0.0201 N   0  0  0  0  0  2  0  0  0  0  0  0
   -1.3538    2.5657   -0.0574 N   0  0  0  0  0  0  0  0  0  0  0  0
   -2.2127    0.2785   -0.0196 N   0  0  0  0  0  2  0  0  0  0  0  0
   -0.0797    2.3239   -0.1159 C   0  0  0  0  0  0  0  0  0  0  0  0
    0.9575    3.3644   -0.0323 C   0  0  0  0  0  3  0  0  0  0  0  0
    2.2086    2.7125   -0.0307 C   0  0  0  0  0  0  0  0  0  0  0  0
    1.9504    1.2662   -0.1135 C   0  0  0  0  0  0  0  0  0  0  0  0
    0.8586    4.7568    0.0466 C   0  0  0  0  0  0  0  0  0  0  0  0
   -0.1222    5.2530    0.0467 H   0  0  0  0  0  0  0  0  0  0  0  0
    2.0608    5.4826    0.1284 C   0  0  0  0  0  0  0  0  0  0  0  0
    2.0268    6.5802    0.1944 H   0  0  0  0  0  0  0  0  0  0  0  0
    3.3123    4.8305    0.1299 C   0  0  0  0  0  0  0  0  0  0  0  0
    4.2312    5.4315    0.1972 H   0  0  0  0  0  0  0  0  0  0  0  0
    3.4063    3.4292    0.0497 C   0  0  0  0  0  0  0  0  0  0  0  0
    4.3750    2.9097    0.0523 H   0  0  0  0  0  0  0  0  0  0  0  0
    2.6995   -0.9864   -0.1091 C   0  0  0  0  0  0  0  0  0  0  0  0
    3.8812   -1.7586   -0.2845 C   0  0  0  0  0  0  0  0  0  0  0  0
    4.8196   -1.1901   -0.3277 H   0  0  0  0  0  0  0  0  0  0  0  0
    3.8356   -3.1362   -0.4176 C   0  0  0  0  0  0  0  0  0  0  0  0
    4.7647   -3.7091   -0.5609 H   0  0  0  0  0  0  0  0  0  0  0  0
    2.5882   -3.8010   -0.3747 C   0  0  0  0  0  0  0  0  0  0  0  0
    1.4549   -3.0100   -0.1706 C   0  0  0  0  0  0  0  0  0  0  0  0
    0.4636   -3.4733   -0.0937 H   0  0  0  0  0  0  0  0  0  0  0  0
    2.4683   -5.2906   -0.5222 C   0  0  0  0  0  0  0  0  0  0  0  0
    2.8779   -5.6230   -1.4982 H   0  0  0  0  0  0  0  0  0  0  0  0
    1.4181   -5.6302   -0.4551 H   0  0  0  0  0  0  0  0  0  0  0  0
    3.0498   -5.8114    0.2660 H   0  0  0  0  0  0  0  0  0  0  0  0
   -2.3552    1.6472   -0.1121 C   0  0  0  0  0  0  0  0  0  0  0  0
   -3.6651    2.1730   -0.2889 C   0  0  0  0  0  0  0  0  0  0  0  0
   -3.7365    3.2677   -0.3351 H   0  0  0  0  0  0  0  0  0  0  0  0
   -4.7682    1.3461   -0.4193 C   0  0  0  0  0  0  0  0  0  0  0  0
   -5.7700    1.7793   -0.5637 H   0  0  0  0  0  0  0  0  0  0  0  0
   -4.5987   -0.0569   -0.3719 C   0  0  0  0  0  0  0  0  0  0  0  0
   -3.3011   -0.5323   -0.1670 C   0  0  0  0  0  0  0  0  0  0  0  0
   -3.1131   -1.6100   -0.0872 H   0  0  0  0  0  0  0  0  0  0  0  0
   -5.7512   -1.0088   -0.5157 C   0  0  0  0  0  0  0  0  0  0  0  0
   -6.5104   -0.8284    0.2729 H   0  0  0  0  0  0  0  0  0  0  0  0
   -5.4281   -2.0640   -0.4462 H   0  0  0  0  0  0  0  0  0  0  0  0
   -6.2594   -0.8660   -1.4915 H   0  0  0  0  0  0  0  0  0  0  0  0
  1  6  2  0  0  0  0
  1  9  1  0  0  0  0
  6  4  1  0  0  0  0
  6  7  1  0  0  0  0
  7  8  1  0  0  0  0
  7 10  1  0  0  0  0
  8 16  1  0  0  0  0
  9  2  1  0  0  0  0
  9  8  2  0  0  0  0
 10 11  1  0  0  0  0
 10 12  2  0  0  0  0
 12 14  1  0  0  0  0
 12 13  1  0  0  0  0
 14 15  1  0  0  0  0
 16 17  1  0  0  0  0
 16 14  2  0  0  0  0
 18  2  2  0  0  0  0
 18  3  1  0  0  0  0
 19 18  1  0  0  0  0
 20 19  1  0  0  0  0
 21 23  1  0  0  0  0
 21 19  2  0  0  0  0
 22 21  1  0  0  0  0
 23 24  2  0  0  0  0
 24 25  1  0  0  0  0
 24  3  1  0  0  0  0
 26 28  1  0  0  0  0
 26 23  1  0  0  0  0
 26 29  1  0  0  0  0
 27 26  1  0  0  0  0
 30  4  2  0  0  0  0
 30  5  1  0  0  0  0
 31 30  1  0  0  0  0
 32 31  1  0  0  0  0
 33 35  1  0  0  0  0
 33 31  2  0  0  0  0
 34 33  1  0  0  0  0
 35 36  2  0  0  0  0
 36 37  1  0  0  0  0
 36  5  1  0  0  0  0
 38 40  1  0  0  0  0
 38 35  1  0  0  0  0
 38 39  1  0  0  0  0
 41 38  1  0  0  0  0
M  END
