2,3,4
q = -2.0, confidence = 0.874

 41 41  0  0  1  0  0  0  0  0999 V2000
    1.1612    2.3883    0.1422 Si  0  0  0  0  0  0  0  0  0  0  0  0
   -2.1475   -1.6597    0.8914 N   0  0  0  0  0  2  0  0  0  0  0  0
   -0.0394   -1.2741   -0.7964 N   0  0  0  0  0  2  0  0  0  0  0  0
    0.3808    0.8251   -0.2117 N   0  0  0  0  0  2  0  0  0  0  0  0
   -3.2074   -2.6290    0.9398 C   0  0  0  0  0  0  0  0  0  0  0  0
   -0.9571   -2.0169    1.6472 C   0  0  0  0  0  0  0  0  0  0  0  0
   -0.0529   -3.0457    0.9332 C   0  0  0  0  0  0  0  0  0  0  0  0
    0.0848   -2.7000   -0.5706 C   0  0  0  0  0  0  0  0  0  0  0  0
    0.8964   -0.3757   -0.4620 C   0  0  1  0  0  3  0  0  0  0  0  0
    2.3417   -0.7394   -0.3323 C   0  0  0  0  0  0  0  0  0  0  0  0
    2.9872   -0.6709    0.9185 C   0  0  0  0  0  0  0  0  0  0  0  0
    4.3428   -1.0110    1.0330 C   0  0  0  0  0  0  0  0  0  0  0  0
    5.0652   -1.4175   -0.1009 C   0  0  0  0  0  0  0  0  0  0  0  0
    4.4242   -1.4969   -1.3480 C   0  0  0  0  0  0  0  0  0  0  0  0
    3.0655   -1.1688   -1.4630 C   0  0  0  0  0  0  0  0  0  0  0  0
    1.6386    2.5256    1.9655 C   0  0  0  0  0  0  0  0  0  0  0  0
    2.6968    2.5796   -0.9515 C   0  0  0  0  0  0  0  0  0  0  0  0
   -0.0771    3.7490   -0.2681 C   0  0  0  0  0  0  0  0  0  0  0  0
   -2.9313   -3.6025    0.4633 H   0  0  0  0  0  0  0  0  0  0  0  0
   -3.4892   -2.8591    1.9952 H   0  0  0  0  0  0  0  0  0  0  0  0
   -4.1151   -2.2546    0.4305 H   0  0  0  0  0  0  0  0  0  0  0  0
   -1.2307   -2.3645    2.6711 H   0  0  0  0  0  0  0  0  0  0  0  0
   -0.3756   -1.0795    1.8342 H   0  0  0  0  0  0  0  0  0  0  0  0
   -0.4552   -4.0743    1.0485 H   0  0  0  0  0  0  0  0  0  0  0  0
    0.9431   -3.0368    1.4242 H   0  0  0  0  0  0  0  0  0  0  0  0
   -0.7253   -3.1950   -1.1458 H   0  0  0  0  0  0  0  0  0  0  0  0
    1.0469   -3.0942   -0.9653 H   0  0  0  0  0  0  0  0  0  0  0  0
    2.4168   -0.3495    1.8024 H   0  0  0  0  0  0  0  0  0  0  0  0
    4.8396   -0.9561    2.0136 H   0  0  0  0  0  0  0  0  0  0  0  0
    6.1312   -1.6758   -0.0118 H   0  0  0  0  0  0  0  0  0  0  0  0
    4.9879   -1.8150   -2.2382 H   0  0  0  0  0  0  0  0  0  0  0  0
    2.5576   -1.2242   -2.4379 H   0  0  0  0  0  0  0  0  0  0  0  0
    0.7767    2.2198    2.5915 H   0  0  0  0  0  0  0  0  0  0  0  0
    2.5140    1.8950    2.2171 H   0  0  0  0  0  0  0  0  0  0  0  0
    1.8966    3.5762    2.2141 H   0  0  0  0  0  0  0  0  0  0  0  0
    3.4940    1.8589   -0.6811 H   0  0  0  0  0  0  0  0  0  0  0  0
    2.4463    2.4272   -2.0214 H   0  0  0  0  0  0  0  0  0  0  0  0
    3.1105    3.6039   -0.8418 H   0  0  0  0  0  0  0  0  0  0  0  0
   -0.3044    3.8015   -1.3519 H   0  0  0  0  0  0  0  0  0  0  0  0
   -1.0166    3.5719    0.2922 H   0  0  0  0  0  0  0  0  0  0  0  0
    0.3317    4.7343    0.0375 H   0  0  0  0  0  0  0  0  0  0  0  0
  1 16  1  0  0  0  0
  2  5  1  0  0  0  0
  2  6  1  0  0  0  0
  3  8  1  0  0  0  0
  4  1  1  0  0  0  0
  5 20  1  0  0  0  0
  6 23  1  0  0  0  0
  6 22  1  0  0  0  0
  7 24  1  0  0  0  0
  7 25  1  0  0  0  0
  7  6  1  0  0  0  0
  8  7  1  0  0  0  0
  9  3  1  1  0  0  0
  9 10  1  0  0  0  0
  9  4  1  0  0  0  0
 10 11  1  0  0  0  0
 11 12  2  0  0  0  0
 11 28  1  0  0  0  0
 12 29  1  0  0  0  0
 13 30  1  0  0  0  0
 13 12  1  0  0  0  0
 14 13  2  0  0  0  0
 15 14  1  0  0  0  0
 15 10  2  0  0  0  0
 16 35  1  0  0  0  0
 16 34  1  0  0  0  0
 16 33  1  0  0  0  0
 17 38  1  0  0  0  0
 17 36  1  0  0  0  0
 17  1  1  0  0  0  0
 18 41  1  0  0  0  0
 18  1  1  0  0  0  0
 18 40  1  0  0  0  0
 19  5  1  0  0  0  0
 21  5  1  0  0  0  0
 26  8  1  0  0  0  0
 27  8  1  0  0  0  0
 31 14  1  0  0  0  0
 32 15  1  0  0  0  0
 37 17  1  0  0  0  0
 39 18  1  0  0  0  0
M  END
