1,2,3
q = 0.0, confidence = 0.892

 69 73  0  0  1  0  0  0  0  0999 V2000
    1.9831   -0.1217   -0.1174 N   0  0  0  0  0  2  0  0  0  0  0  0
    0.0000    1.4314   -0.0001 N   0  0  0  0  0  2  0  0  0  0  0  0
   -1.9830   -0.1218    0.1171 N   0  0  0  0  0  2  0  0  0  0  0  0
    3.7361    1.6526   -0.0830 C   0  0  0  0  0  0  0  0  0  0  0  0
    2.3333    1.1788   -0.0952 C   0  0  2  0  0  3  0  0  0  0  0  0
    1.2127    2.1045   -0.0541 C   0  0  0  0  0  0  0  0  0  0  0  0
    1.2170    3.5098   -0.0802 C   0  0  0  0  0  0  0  0  0  0  0  0
    2.1725    4.0450   -0.1597 H   0  0  0  0  0  0  0  0  0  0  0  0
    0.0000    4.2076   -0.0003 C   0  0  0  0  0  0  0  0  0  0  0  0
    0.0000    5.3068   -0.0004 H   0  0  0  0  0  0  0  0  0  0  0  0
   -1.2170    3.5098    0.0796 C   0  0  0  0  0  0  0  0  0  0  0  0
   -2.1725    4.0450    0.1590 H   0  0  0  0  0  0  0  0  0  0  0  0
   -1.2127    2.1045    0.0538 C   0  0  0  0  0  0  0  0  0  0  0  0
   -2.3333    1.1788    0.0950 C   0  0  0  0  0  0  0  0  0  0  0  0
   -3.7360    1.6526    0.0831 C   0  0  0  0  0  0  0  0  0  0  0  0
    2.9755   -1.1546   -0.0728 C   0  0  0  0  0  0  0  0  0  0  0  0
    3.2288   -1.9038   -1.2470 C   0  0  0  0  0  0  0  0  0  0  0  0
    4.1808   -2.9355   -1.1729 C   0  0  0  0  0  0  0  0  0  0  0  0
    4.4007   -3.5193   -2.0803 H   0  0  0  0  0  0  0  0  0  0  0  0
    4.8342   -3.2332    0.0308 C   0  0  0  0  0  0  0  0  0  0  0  0
    5.5717   -4.0489    0.0700 H   0  0  0  0  0  0  0  0  0  0  0  0
    4.5303   -2.5064    1.1887 C   0  0  0  0  0  0  0  0  0  0  0  0
    5.0190   -2.7574    2.1431 H   0  0  0  0  0  0  0  0  0  0  0  0
    3.5925   -1.4578    1.1641 C   0  0  0  0  0  0  0  0  0  0  0  0
   -2.9755   -1.1546    0.0732 C   0  0  0  0  0  0  0  0  0  0  0  0
   -3.5931   -1.4580   -1.1633 C   0  0  0  0  0  0  0  0  0  0  0  0
   -4.5309   -2.5066   -1.1873 C   0  0  0  0  0  0  0  0  0  0  0  0
   -5.0201   -2.7578   -2.1414 H   0  0  0  0  0  0  0  0  0  0  0  0
   -4.8342   -3.2332   -0.0290 C   0  0  0  0  0  0  0  0  0  0  0  0
   -5.5717   -4.0490   -0.0677 H   0  0  0  0  0  0  0  0  0  0  0  0
   -4.1802   -2.9353    1.1743 C   0  0  0  0  0  0  0  0  0  0  0  0
   -4.3996   -3.5190    2.0819 H   0  0  0  0  0  0  0  0  0  0  0  0
   -3.2281   -1.9037    1.2476 C   0  0  0  0  0  0  0  0  0  0  0  0
   -2.4864   -1.6058    2.5221 C   0  0  0  0  0  0  0  0  0  0  0  0
   -2.8755   -2.2116    3.3623 H   0  0  0  0  0  0  0  0  0  0  0  0
   -2.5462   -0.5339    2.8054 H   0  0  0  0  0  0  0  0  0  0  0  0
   -1.4068   -1.8315    2.3902 H   0  0  0  0  0  0  0  0  0  0  0  0
   -3.2272   -0.7036   -2.4133 C   0  0  0  0  0  0  0  0  0  0  0  0
   -3.6109   -1.2202   -3.3134 H   0  0  0  0  0  0  0  0  0  0  0  0
   -2.1250   -0.6043   -2.5025 H   0  0  0  0  0  0  0  0  0  0  0  0
   -3.6467    0.3248   -2.4108 H   0  0  0  0  0  0  0  0  0  0  0  0
    2.4875   -1.6065   -2.5219 C   0  0  0  0  0  0  0  0  0  0  0  0
    2.8786   -2.2107   -3.3622 H   0  0  0  0  0  0  0  0  0  0  0  0
    2.5453   -0.5342   -2.8042 H   0  0  0  0  0  0  0  0  0  0  0  0
    1.4083   -1.8346   -2.3910 H   0  0  0  0  0  0  0  0  0  0  0  0
    3.2260   -0.7031    2.4138 C   0  0  0  0  0  0  0  0  0  0  0  0
    3.6456    0.3251    2.4113 H   0  0  0  0  0  0  0  0  0  0  0  0
    3.6091   -1.2198    3.3141 H   0  0  0  0  0  0  0  0  0  0  0  0
    2.1237   -0.6037    2.5023 H   0  0  0  0  0  0  0  0  0  0  0  0
    4.1543    2.5818    0.8993 C   0  0  0  0  0  0  0  0  0  0  0  0
    3.4333    2.9330    1.6527 H   0  0  0  0  0  0  0  0  0  0  0  0
    5.4819    3.0294    0.9412 C   0  0  0  0  0  0  0  0  0  0  0  0
    5.7920    3.7433    1.7192 H   0  0  0  0  0  0  0  0  0  0  0  0
    6.4135    2.5601    0.0021 C   0  0  0  0  0  0  0  0  0  0  0  0
    7.4563    2.9101    0.0354 H   0  0  0  0  0  0  0  0  0  0  0  0
    6.0086    1.6407   -0.9790 C   0  0  0  0  0  0  0  0  0  0  0  0
    6.7321    1.2700   -1.7205 H   0  0  0  0  0  0  0  0  0  0  0  0
    4.6840    1.1882   -1.0227 C   0  0  0  0  0  0  0  0  0  0  0  0
    4.3761    0.4737   -1.7969 H   0  0  0  0  0  0  0  0  0  0  0  0
   -4.1545    2.5816   -0.8993 C   0  0  0  0  0  0  0  0  0  0  0  0
   -3.4338    2.9326   -1.6529 H   0  0  0  0  0  0  0  0  0  0  0  0
   -5.4821    3.0291   -0.9409 C   0  0  0  0  0  0  0  0  0  0  0  0
   -5.7924    3.7429   -1.7190 H   0  0  0  0  0  0  0  0  0  0  0  0
   -6.4135    2.5601   -0.0015 C   0  0  0  0  0  0  0  0  0  0  0  0
   -7.4563    2.9100   -0.0346 H   0  0  0  0  0  0  0  0  0  0  0  0
   -6.0083    1.6409    0.9797 C   0  0  0  0  0  0  0  0  0  0  0  0
   -6.7316    1.2703    1.7215 H   0  0  0  0  0  0  0  0  0  0  0  0
   -4.6837    1.1884    1.0231 C   0  0  0  0  0  0  0  0  0  0  0  0
   -4.3756    0.4740    1.7974 H   0  0  0  0  0  0  0  0  0  0  0  0
  1 16  1  0  0  0  0
  2 13  1  0  0  0  0
  4 50  1  0  0  0  0
  5  1  1  1  0  0  0
  5  4  1  0  0  0  0
  5  6  1  0  0  0  0
  6  2  1  0  0  0  0
  7  6  2  0  0  0  0
  7  9  1  0  0  0  0
  8  7  1  0  0  0  0
  9 11  2  0  0  0  0
 10  9  1  0  0  0  0
 11 12  1  0  0  0  0
 13 11  1  0  0  0  0
 13 14  2  0  0  0  0
 14  3  1  0  0  0  0
 15 14  1  0  0  0  0
 15 68  1  0  0  0  0
 16 24  1  0  0  0  0
 17 18  1  0  0  0  0
 17 16  2  0  0  0  0
 18 20  2  0  0  0  0
 19 18  1  0  0  0  0
 20 21  1  0  0  0  0
 20 22  1  0  0  0  0
 22 23  1  0  0  0  0
 24 22  2  0  0  0  0
 24 46  1  0  0  0  0
 25  3  1  0  0  0  0
 25 33  1  0  0  0  0
 26 25  2  0  0  0  0
 27 26  1  0  0  0  0
 27 29  2  0  0  0  0
 28 27  1  0  0  0  0
 29 31  1  0  0  0  0
 30 29  1  0  0  0  0
 31 33  2  0  0  0  0
 31 32  1  0  0  0  0
 33 34  1  0  0  0  0
 34 36  1  0  0  0  0
 34 35  1  0  0  0  0
 37 34  1  0  0  0  0
 38 41  1  0  0  0  0
 38 26  1  0  0  0  0
 39 38  1  0  0  0  0
 40 38  1  0  0  0  0
 42 45  1  0  0  0  0
 42 17  1  0  0  0  0
 43 42  1  0  0  0  0
 44 42  1  0  0  0  0
 46 49  1  0  0  0  0
 46 48  1  0  0  0  0
 47 46  1  0  0  0  0
 50 52  2  0  0  0  0
 50 51  1  0  0  0  0
 52 53  1  0  0  0  0
 54 55  1  0  0  0  0
 54 52  1  0  0  0  0
 56 54  2  0  0  0  0
 57 56  1  0  0  0  0
 58 56  1  0  0  0  0
 58  4  2  0  0  0  0
 59 58  1  0  0  0  0
 60 15  2  0  0  0  0
 61 60  1  0  0  0  0
 62 60  1  0  0  0  0
 62 64  2  0  0  0  0
 63 62  1  0  0  0  0
 64 66  1  0  0  0  0
 65 64  1  0  0  0  0
 66 68  2  0  0  0  0
 66 67  1  0  0  0  0
 68 69  1  0  0  0  0
M  END
