2,3,4
q = -2.0, confidence = 0.818

 64 71  0  0  1  0  0  0  0  0999 V2000
   -1.4649    0.6281   -0.0085 O   0  0  0  0  0  0  0  0  0  0  0  0
   -1.2098   -2.0824   -0.0569 N   0  0  0  0  0  2  0  0  0  0  0  0
    1.2230   -2.0966   -0.0594 N   0  0  0  0  0  2  0  0  0  0  0  0
    1.4201    0.5508    0.0110 N   0  0  0  0  0  0  0  0  0  0  0  0
   -2.5794   -2.1250   -0.0030 C   0  0  0  0  0  0  0  0  0  0  0  0
   -2.9764   -3.5138    0.0508 C   0  0  0  0  0  0  0  0  0  0  0  0
   -4.0094   -3.8730    0.1098 H   0  0  0  0  0  0  0  0  0  0  0  0
   -1.8136   -4.2820    0.0240 C   0  0  0  0  0  0  0  0  0  0  0  0
   -1.7407   -5.3750    0.0562 H   0  0  0  0  0  0  0  0  0  0  0  0
   -0.7177   -3.3658   -0.0361 C   0  0  0  0  0  0  0  0  0  0  0  0
    0.7054   -3.3732   -0.0339 C   0  0  0  0  0  0  0  0  0  0  0  0
    1.7906   -4.3028    0.0278 C   0  0  0  0  0  0  0  0  0  0  0  0
    1.7001   -5.3942    0.0640 H   0  0  0  0  0  0  0  0  0  0  0  0
    2.9629   -3.5511    0.0507 C   0  0  0  0  0  0  0  0  0  0  0  0
    3.9904   -3.9253    0.1139 H   0  0  0  0  0  0  0  0  0  0  0  0
    2.5945   -2.1546   -0.0098 C   0  0  0  0  0  0  0  0  0  0  0  0
    3.3867   -0.9848    0.0066 C   0  0  0  0  0  0  0  0  0  0  0  0
    4.8663   -1.1106    0.0411 C   0  0  0  0  0  0  0  0  0  0  0  0
    5.6256   -0.4888    1.0588 C   0  0  0  0  0  0  0  0  0  0  0  0
    5.1038    0.0849    1.8390 H   0  0  0  0  0  0  0  0  0  0  0  0
    7.0210   -0.6191    1.0932 C   0  0  0  0  0  0  0  0  0  0  0  0
    7.5937   -0.1339    1.8983 H   0  0  0  0  0  0  0  0  0  0  0  0
    7.6855   -1.3738    0.1131 C   0  0  0  0  0  0  0  0  0  0  0  0
    8.7810   -1.4756    0.1409 H   0  0  0  0  0  0  0  0  0  0  0  0
    6.9433   -1.9981   -0.9021 C   0  0  0  0  0  0  0  0  0  0  0  0
    7.4564   -2.5851   -1.6792 H   0  0  0  0  0  0  0  0  0  0  0  0
    5.5478   -1.8688   -0.9384 C   0  0  0  0  0  0  0  0  0  0  0  0
    4.9685   -2.3416   -1.7453 H   0  0  0  0  0  0  0  0  0  0  0  0
    2.7871    0.3019   -0.0102 C   0  0  0  0  0  3  0  0  0  0  0  0
    3.4813    1.5638   -0.1045 C   0  0  0  0  0  0  0  0  0  0  0  0
    4.5684    1.6763   -0.1709 H   0  0  0  0  0  0  0  0  0  0  0  0
    2.5308    2.5618   -0.1295 C   0  0  0  0  0  0  0  0  0  0  0  0
    2.6922    3.6413   -0.2128 H   0  0  0  0  0  0  0  0  0  0  0  0
    1.2381    1.9208   -0.0505 C   0  0  0  0  0  0  0  0  0  0  0  0
   -0.0079    2.6041   -0.0570 C   0  0  2  0  0  3  0  0  0  0  0  0
    0.0130    4.1004   -0.0943 C   0  0  0  0  0  0  0  0  0  0  0  0
   -0.4606    4.8002   -1.2243 C   0  0  0  0  0  0  0  0  0  0  0  0
   -0.8382    4.2304   -2.0868 H   0  0  0  0  0  0  0  0  0  0  0  0
   -0.4393    6.2025   -1.2573 C   0  0  0  0  0  0  0  0  0  0  0  0
   -0.8068    6.7334   -2.1488 H   0  0  0  0  0  0  0  0  0  0  0  0
    0.0581    6.9262   -0.1618 C   0  0  0  0  0  0  0  0  0  0  0  0
    0.0765    8.0263   -0.1883 H   0  0  0  0  0  0  0  0  0  0  0  0
    0.5332    6.2397    0.9671 C   0  0  0  0  0  0  0  0  0  0  0  0
    0.9214    6.8004    1.8310 H   0  0  0  0  0  0  0  0  0  0  0  0
    0.5093    4.8377    1.0019 C   0  0  0  0  0  0  0  0  0  0  0  0
    0.8753    4.2969    1.8876 H   0  0  0  0  0  0  0  0  0  0  0  0
   -1.2806    2.0239   -0.0300 C   0  0  0  0  0  0  0  0  0  0  0  0
   -2.5670    2.6157   -0.0135 C   0  0  0  0  0  0  0  0  0  0  0  0
   -2.7433    3.6953   -0.0167 H   0  0  0  0  0  0  0  0  0  0  0  0
   -3.5167    1.6036    0.0013 C   0  0  0  0  0  0  0  0  0  0  0  0
   -4.6051    1.7156    0.0004 H   0  0  0  0  0  0  0  0  0  0  0  0
   -2.8572    0.3517    0.0146 C   0  0  0  0  0  0  0  0  0  0  0  0
   -3.3763   -0.9528    0.0281 C   0  0  0  0  0  0  0  0  0  0  0  0
   -4.8603   -1.0917    0.0798 C   0  0  0  0  0  0  0  0  0  0  0  0
   -5.6043   -0.5651    1.1586 C   0  0  0  0  0  0  0  0  0  0  0  0
   -5.0740   -0.0526    1.9754 H   0  0  0  0  0  0  0  0  0  0  0  0
   -6.9982   -0.7107    1.2048 C   0  0  0  0  0  0  0  0  0  0  0  0
   -7.5614   -0.3002    2.0568 H   0  0  0  0  0  0  0  0  0  0  0  0
   -7.6721   -1.3882    0.1761 C   0  0  0  0  0  0  0  0  0  0  0  0
   -8.7659   -1.5036    0.2135 H   0  0  0  0  0  0  0  0  0  0  0  0
   -6.9424   -1.9197   -0.8992 C   0  0  0  0  0  0  0  0  0  0  0  0
   -7.4635   -2.4487   -1.7118 H   0  0  0  0  0  0  0  0  0  0  0  0
   -5.5487   -1.7723   -0.9486 C   0  0  0  0  0  0  0  0  0  0  0  0
   -4.9769   -2.1777   -1.7967 H   0  0  0  0  0  0  0  0  0  0  0  0
  1 52  1  0  0  0  0
  2 10  1  0  0  0  0
  2  5  1  0  0  0  0
  3 11  1  0  0  0  0
  3 16  1  0  0  0  0
  5 53  2  0  0  0  0
  5  6  1  0  0  0  0
  6  7  1  0  0  0  0
  8  6  2  0  0  0  0
  8  9  1  0  0  0  0
 10 11  2  0  0  0  0
 10  8  1  0  0  0  0
 11 12  1  0  0  0  0
 12 14  2  0  0  0  0
 12 13  1  0  0  0  0
 14 15  1  0  0  0  0
 16 17  2  0  0  0  0
 16 14  1  0  0  0  0
 17 18  1  0  0  0  0
 18 19  1  0  0  0  0
 19 21  2  0  0  0  0
 19 20  1  0  0  0  0
 21 22  1  0  0  0  0
 23 24  1  0  0  0  0
 23 21  1  0  0  0  0
 25 23  2  0  0  0  0
 26 25  1  0  0  0  0
 27 25  1  0  0  0  0
 27 18  2  0  0  0  0
 28 27  1  0  0  0  0
 29 17  1  0  0  0  0
 29  4  1  0  0  0  0
 30 29  1  0  0  0  0
 31 30  1  0  0  0  0
 32 30  2  0  0  0  0
 32 34  1  0  0  0  0
 33 32  1  0  0  0  0
 34  4  2  0  0  0  0
 35 36  1  1  0  0  0
 35 34  1  0  0  0  0
 35 47  1  0  0  0  0
 36 45  1  0  0  0  0
 37 36  2  0  0  0  0
 38 37  1  0  0  0  0
 39 37  1  0  0  0  0
 39 41  2  0  0  0  0
 40 39  1  0  0  0  0
 41 43  1  0  0  0  0
 42 41  1  0  0  0  0
 43 45  2  0  0  0  0
 43 44  1  0  0  0  0
 45 46  1  0  0  0  0
 47 48  2  0  0  0  0
 47  1  1  0  0  0  0
 48 50  1  0  0  0  0
 49 48  1  0  0  0  0
 50 52  2  0  0  0  0
 51 50  1  0  0  0  0
 52 53  1  0  0  0  0
 53 54  1  0  0  0  0
 54 55  1  0  0  0  0
 55 57  2  0  0  0  0
 55 56  1  0  0  0  0
 57 58  1  0  0  0  0
 59 60  1  0  0  0  0
 59 57  1  0  0  0  0
 61 59  2  0  0  0  0
 62 61  1  0  0  0  0
 63 61  1  0  0  0  0
 63 54  2  0  0  0  0
 64 63  1  0  0  0  0
M  END
