1,4,6
q = 0.0, confidence = 0.996

 26 25  0  0  0  0  0  0  0  0999 V2000
   -1.9236   -1.0686   -0.4628 N   0  0  0  0  0  0  0  0  0  0  0  0
   -1.9384   -1.2076   -1.4840 H   0  0  0  0  0  0  0  0  0  0  0  0
   -2.0937   -1.9846   -0.0242 H   0  0  0  0  0  0  0  0  0  0  0  0
   -0.9407    1.3716    0.2959 N   0  0  0  0  0  0  0  0  0  0  0  0
   -1.0607    1.3585    1.3228 H   0  0  0  0  0  0  0  0  0  0  0  0
    1.7937    0.0896    0.4791 N   0  0  0  0  0  0  0  0  0  0  0  0
    1.7405    0.0522    1.5097 H   0  0  0  0  0  0  0  0  0  0  0  0
   -2.8887   -0.0396   -0.0300 C   0  0  0  0  0  0  0  0  0  0  0  0
   -3.0339   -0.1572    1.0631 H   0  0  0  0  0  0  0  0  0  0  0  0
   -3.8745   -0.1555   -0.5279 H   0  0  0  0  0  0  0  0  0  0  0  0
   -2.2725    1.3159   -0.3390 C   0  0  0  0  0  0  0  0  0  0  0  0
   -2.1200    1.4281   -1.4327 H   0  0  0  0  0  0  0  0  0  0  0  0
   -2.9276    2.1463    0.0064 H   0  0  0  0  0  0  0  0  0  0  0  0
   -0.1599    2.5583   -0.0843 C   0  0  0  0  0  0  0  0  0  0  0  0
   -0.7192    3.4825    0.1875 H   0  0  0  0  0  0  0  0  0  0  0  0
   -0.0450    2.5376   -1.1876 H   0  0  0  0  0  0  0  0  0  0  0  0
    1.2084    2.5521    0.5862 C   0  0  0  0  0  0  0  0  0  0  0  0
    1.6900    3.5323    0.3948 H   0  0  0  0  0  0  0  0  0  0  0  0
    1.0962    2.4810    1.6923 H   0  0  0  0  0  0  0  0  0  0  0  0
    2.1536    1.4697    0.0770 C   0  0  0  0  0  0  0  0  0  0  0  0
    2.1912    1.4834   -1.0313 H   0  0  0  0  0  0  0  0  0  0  0  0
    3.1814    1.6782    0.4503 H   0  0  0  0  0  0  0  0  0  0  0  0
    2.8548   -0.8492    0.0457 C   0  0  0  0  0  0  0  0  0  0  0  0
    2.6566   -1.8531    0.4564 H   0  0  0  0  0  0  0  0  0  0  0  0
    3.8479   -0.4827    0.3842 H   0  0  0  0  0  0  0  0  0  0  0  0
    2.8420   -0.9196   -1.0574 H   0  0  0  0  0  0  0  0  0  0  0  0
  1  8  1  0  0  0  0
  1  3  1  0  0  0  0
  2  1  1  0  0  0  0
  4  5  1  0  0  0  0
  6  7  1  0  0  0  0
  8  9  1  0  0  0  0
 10  8  1  0  0  0  0
 11  8  1  0  0  0  0
 11 13  1  0  0  0  0
 11  4  1  0  0  0  0
 12 11  1  0  0  0  0
 14 15  1  0  0  0  0
 14  4  1  0  0  0  0
 14 17  1  0  0  0  0
 16 14  1  0  0  0  0
 17 19  1  0  0  0  0
 18 17  1  0  0  0  0
 20 22  1  0  0  0  0
 20  6  1  0  0  0  0
 20 17  1  0  0  0  0
 21 20  1  0  0  0  0
 23 25  1  0  0  0  0
 23 24  1  0  0  0  0
 23  6  1  0  0  0  0
 26 23  1  0  0  0  0
M  END
