1,2,3
q = 0.0, confidence = 0.998

 26 27  0  0  0  0  0  0  0  0999 V2000
    2.3636   -0.3400   -0.2052 N   0  0  0  0  0  2  0  0  0  0  0  0
    0.1897   -1.8855   -0.8669 N   0  0  0  0  0  2  0  0  0  0  0  0
   -2.1158   -0.4726   -0.4576 N   0  0  0  0  0  2  0  0  0  0  0  0
    3.3467    0.4521    0.2639 C   0  0  0  0  0  3  0  0  0  0  0  0
    3.0713    1.5074    0.4296 H   0  0  0  0  0  0  0  0  0  0  0  0
    4.6336   -0.0330    0.5259 C   0  0  0  0  0  0  0  0  0  0  0  0
    5.4107    0.6424    0.9108 H   0  0  0  0  0  0  0  0  0  0  0  0
    4.8922   -1.3925    0.2952 C   0  0  0  0  0  0  0  0  0  0  0  0
    5.8873   -1.8159    0.4989 H   0  0  0  0  0  0  0  0  0  0  0  0
    3.8640   -2.2095   -0.1912 C   0  0  0  0  0  0  0  0  0  0  0  0
    4.0330   -3.2811   -0.3774 H   0  0  0  0  0  0  0  0  0  0  0  0
    2.6008   -1.6430   -0.4358 C   0  0  0  0  0  0  0  0  0  0  0  0
    1.4777   -2.4945   -1.0240 C   0  0  0  0  0  0  0  0  0  0  0  0
    1.6815   -2.5845   -2.1179 H   0  0  0  0  0  0  0  0  0  0  0  0
    1.5304   -3.5273   -0.6085 H   0  0  0  0  0  0  0  0  0  0  0  0
   -0.9067   -2.5376   -0.7880 C   0  0  0  0  0  0  0  0  0  0  0  0
   -0.9592   -3.6490   -0.8417 H   0  0  0  0  0  0  0  0  0  0  0  0
   -2.1842   -1.8151   -0.5892 C   0  0  0  0  0  0  0  0  0  0  0  0
   -3.4097   -2.5003   -0.5185 C   0  0  0  0  0  0  0  0  0  0  0  0
   -3.4371   -3.5952   -0.6243 H   0  0  0  0  0  0  0  0  0  0  0  0
   -4.5822   -1.7601   -0.3031 C   0  0  0  0  0  0  0  0  0  0  0  0
   -5.5558   -2.2683   -0.2384 H   0  0  0  0  0  0  0  0  0  0  0  0
   -4.4934   -0.3689   -0.1638 C   0  0  0  0  0  0  0  0  0  0  0  0
   -5.3872    0.2458    0.0139 H   0  0  0  0  0  0  0  0  0  0  0  0
   -3.2270    0.2394   -0.2442 C   0  0  0  0  0  0  0  0  0  0  0  0
   -3.0850    1.3272   -0.1287 H   0  0  0  0  0  0  0  0  0  0  0  0
  1  4  1  0  0  0  0
  2 16  1  0  0  0  0
  3 25  1  0  0  0  0
  4  5  1  0  0  0  0
  4  6  1  0  0  0  0
  6  7  1  0  0  0  0
  8  9  1  0  0  0  0
  8  6  2  0  0  0  0
 10  8  1  0  0  0  0
 11 10  1  0  0  0  0
 12  1  1  0  0  0  0
 12 10  2  0  0  0  0
 13  2  1  0  0  0  0
 13 15  1  0  0  0  0
 13 12  1  0  0  0  0
 14 13  1  0  0  0  0
 16 18  2  0  0  0  0
 17 16  1  0  0  0  0
 18 19  1  0  0  0  0
 18  3  1  0  0  0  0
 19 21  2  0  0  0  0
 20 19  1  0  0  0  0
 21 22  1  0  0  0  0
 21 23  1  0  0  0  0
 23 24  1  0  0  0  0
 25 23  2  0  0  0  0
 25 26  1  0  0  0  0
M  END
