1,2,3
q = -1.0

 41 41  0  0  0  0  0  0  0  0999 V2000
    0.7714   -1.4414    1.2265 N   0  0  0  0  0  2  0  0  0  0  0  0
    1.0869    1.2134    1.6415 N   0  0  0  0  0  0  0  0  0  0  0  0
    3.0610   -0.5241   -0.0384 N   0  0  0  0  0  0  0  0  0  0  0  0
    0.1554   -0.9471    2.4456 C   0  0  0  0  0  0  0  0  0  0  0  0
    0.8916    0.3445    2.8477 C   0  0  0  0  0  0  0  0  0  0  0  0
    2.5285    1.5184    1.4019 C   0  0  0  0  0  0  0  0  0  0  0  0
    3.4336    0.3156    1.1307 C   0  0  0  0  0  0  0  0  0  0  0  0
    3.0055   -1.9637    0.3339 C   0  0  0  0  0  0  0  0  0  0  0  0
    1.9775   -2.2172    1.4357 C   0  0  0  0  0  0  0  0  0  0  0  0
    0.3065    2.5135    1.7541 C   0  0  0  0  0  0  0  0  0  0  0  0
    0.8914    3.5055    2.7704 C   0  0  0  0  0  0  0  0  0  0  0  0
   -1.1724    2.2683    2.0502 C   0  0  0  0  0  0  0  0  0  0  0  0
    3.9773   -0.3437   -1.2321 C   0  0  0  0  0  0  0  0  0  0  0  0
    4.1744    1.1217   -1.6186 C   0  0  0  0  0  0  0  0  0  0  0  0
    5.3493   -1.0188   -1.0649 C   0  0  0  0  0  0  0  0  0  0  0  0
    0.1968   -1.6890    3.2762 H   0  0  0  0  0  0  0  0  0  0  0  0
   -0.9150   -0.7245    2.2593 H   0  0  0  0  0  0  0  0  0  0  0  0
    1.8829    0.0899    3.2743 H   0  0  0  0  0  0  0  0  0  0  0  0
    0.3499    0.8931    3.6432 H   0  0  0  0  0  0  0  0  0  0  0  0
    2.5615    2.2168    0.5430 H   0  0  0  0  0  0  0  0  0  0  0  0
    2.9608    2.0449    2.2821 H   0  0  0  0  0  0  0  0  0  0  0  0
    4.4638    0.7122    1.0127 H   0  0  0  0  0  0  0  0  0  0  0  0
    3.4796   -0.3250    2.0328 H   0  0  0  0  0  0  0  0  0  0  0  0
    2.7294   -2.5166   -0.5856 H   0  0  0  0  0  0  0  0  0  0  0  0
    3.9949   -2.3422    0.6737 H   0  0  0  0  0  0  0  0  0  0  0  0
    2.4322   -1.9908    2.4311 H   0  0  0  0  0  0  0  0  0  0  0  0
    1.7599   -3.3128    1.4576 H   0  0  0  0  0  0  0  0  0  0  0  0
    0.3862    2.9570    0.7410 H   0  0  0  0  0  0  0  0  0  0  0  0
    0.9300    3.0792    3.7949 H   0  0  0  0  0  0  0  0  0  0  0  0
    1.9034    3.8645    2.5034 H   0  0  0  0  0  0  0  0  0  0  0  0
    0.2343    4.3960    2.8145 H   0  0  0  0  0  0  0  0  0  0  0  0
   -1.7355    3.2046    1.8717 H   0  0  0  0  0  0  0  0  0  0  0  0
   -1.5993    1.4903    1.3950 H   0  0  0  0  0  0  0  0  0  0  0  0
   -1.3495    1.9788    3.1061 H   0  0  0  0  0  0  0  0  0  0  0  0
    3.4324   -0.8483   -2.0581 H   0  0  0  0  0  0  0  0  0  0  0  0
    3.2130    1.6510   -1.7419 H   0  0  0  0  0  0  0  0  0  0  0  0
    4.7122    1.1641   -2.5857 H   0  0  0  0  0  0  0  0  0  0  0  0
    4.7992    1.6670   -0.8807 H   0  0  0  0  0  0  0  0  0  0  0  0
    5.8966   -0.6283   -0.1806 H   0  0  0  0  0  0  0  0  0  0  0  0
    5.9708   -0.7945   -1.9537 H   0  0  0  0  0  0  0  0  0  0  0  0
    5.2915   -2.1201   -0.9786 H   0  0  0  0  0  0  0  0  0  0  0  0
  1  9  1  0  0  0  0
  1  4  1  0  0  0  0
  2 10  1  0  0  0  0
  2  5  1  0  0  0  0
  3  8  1  0  0  0  0
  3  7  1  0  0  0  0
  4  5  1  0  0  0  0
  4 16  1  0  0  0  0
  5 18  1  0  0  0  0
  5 19  1  0  0  0  0
  6  2  1  0  0  0  0
  6 21  1  0  0  0  0
  7  6  1  0  0  0  0
  7 23  1  0  0  0  0
  8 25  1  0  0  0  0
  8  9  1  0  0  0  0
  9 27  1  0  0  0  0
  9 26  1  0  0  0  0
 10 12  1  0  0  0  0
 10 11  1  0  0  0  0
 11 31  1  0  0  0  0
 11 29  1  0  0  0  0
 12 34  1  0  0  0  0
 13 15  1  0  0  0  0
 13  3  1  0  0  0  0
 14 13  1  0  0  0  0
 14 38  1  0  0  0  0
 15 41  1  0  0  0  0
 15 39  1  0  0  0  0
 17  4  1  0  0  0  0
 20  6  1  0  0  0  0
 22  7  1  0  0  0  0
 24  8  1  0  0  0  0
 28 10  1  0  0  0  0
 30 11  1  0  0  0  0
 32 12  1  0  0  0  0
 33 12  1  0  0  0  0
 35 13  1  0  0  0  0
 36 14  1  0  0  0  0
 37 14  1  0  0  0  0
 40 15  1  0  0  0  0
M  END
