1,2,3
q = 0.0, confidence = 0.988

 36 39  0  0  0  0  0  0  0  0999 V2000
   -0.3032    0.0629   -0.0251 N   0  0  0  0  0  2  0  0  0  0  0  0
    1.1564    2.0617    0.0494 N   0  0  0  0  0  2  0  0  0  0  0  0
    1.2813   -1.8336    0.0701 N   0  0  0  0  0  2  0  0  0  0  0  0
   -0.9793   -1.1210   -0.0162 C   0  0  0  0  0  0  0  0  0  0  0  0
   -1.0488    1.2088   -0.0135 C   0  0  0  0  0  0  0  0  0  0  0  0
   -2.3721    1.2101   -0.0305 N   0  0  0  0  0  0  0  0  0  0  0  0
   -2.9759   -0.0075   -0.0495 C   0  0  0  0  0  0  0  0  0  0  0  0
   -2.3036   -1.1935   -0.0286 N   0  0  0  0  0  2  0  0  0  0  0  0
   -0.0382   -2.2431    0.0425 C   0  0  0  0  0  0  0  0  0  0  0  0
   -0.4127   -3.5918    0.0866 C   0  0  0  0  0  0  0  0  0  0  0  0
    0.5878   -4.5677    0.1678 C   0  0  0  0  0  0  0  0  0  0  0  0
    1.9302   -4.1528    0.1955 C   0  0  0  0  0  0  0  0  0  0  0  0
    2.2390   -2.7875    0.1418 C   0  0  0  0  0  0  0  0  0  0  0  0
   -0.1805    2.3898    0.0236 C   0  0  0  0  0  0  0  0  0  0  0  0
   -0.6287    3.7167    0.0335 C   0  0  0  0  0  0  0  0  0  0  0  0
    0.3251    4.7422    0.0716 C   0  0  0  0  0  0  0  0  0  0  0  0
    1.6896    4.4031    0.0996 C   0  0  0  0  0  0  0  0  0  0  0  0
    2.0705    3.0546    0.0872 C   0  0  0  0  0  0  0  0  0  0  0  0
   -4.4570   -0.0518   -0.0881 C   0  0  0  0  0  0  0  0  0  0  0  0
   -5.1318   -1.2931   -0.0918 C   0  0  0  0  0  0  0  0  0  0  0  0
   -6.5315   -1.2892   -0.1276 C   0  0  0  0  0  0  0  0  0  0  0  0
   -7.1998   -0.0577   -0.1591 C   0  0  0  0  0  0  0  0  0  0  0  0
   -6.4308    1.1239   -0.1541 C   0  0  0  0  0  0  0  0  0  0  0  0
   -5.0960    1.1362   -0.1193 N   0  0  0  0  0  0  0  0  0  0  0  0
   -1.4831   -3.8401    0.0595 H   0  0  0  0  0  0  0  0  0  0  0  0
    0.3278   -5.6355    0.2062 H   0  0  0  0  0  0  0  0  0  0  0  0
    2.7503   -4.8828    0.2518 H   0  0  0  0  0  0  0  0  0  0  0  0
    3.2762   -2.4217    0.1140 H   0  0  0  0  0  0  0  0  0  0  0  0
   -1.7120    3.9050    0.0127 H   0  0  0  0  0  0  0  0  0  0  0  0
    0.0107    5.7959    0.0823 H   0  0  0  0  0  0  0  0  0  0  0  0
    2.4672    5.1795    0.1347 H   0  0  0  0  0  0  0  0  0  0  0  0
    3.1212    2.7256    0.1260 H   0  0  0  0  0  0  0  0  0  0  0  0
   -4.5558   -2.2277   -0.0663 H   0  0  0  0  0  0  0  0  0  0  0  0
   -7.0930   -2.2353   -0.1307 H   0  0  0  0  0  0  0  0  0  0  0  0
   -8.2982   -0.0048   -0.1875 H   0  0  0  0  0  0  0  0  0  0  0  0
   -6.9301    2.1087   -0.1797 H   0  0  0  0  0  0  0  0  0  0  0  0
  1  4  1  0  0  0  0
  1  5  1  0  0  0  0
  2 18  1  0  0  0  0
  3 13  1  0  0  0  0
  4  9  2  0  0  0  0
  5 14  2  0  0  0  0
  6  5  1  0  0  0  0
  7  6  2  0  0  0  0
  7  8  1  0  0  0  0
  8  4  1  0  0  0  0
  9  3  1  0  0  0  0
  9 10  1  0  0  0  0
 10 11  2  0  0  0  0
 11 12  1  0  0  0  0
 11 26  1  0  0  0  0
 12 27  1  0  0  0  0
 13 12  2  0  0  0  0
 14 15  1  0  0  0  0
 14  2  1  0  0  0  0
 15 16  2  0  0  0  0
 16 30  1  0  0  0  0
 16 17  1  0  0  0  0
 17 31  1  0  0  0  0
 18 17  2  0  0  0  0
 18 32  1  0  0  0  0
 19  7  1  0  0  0  0
 20 19  1  0  0  0  0
 20 33  1  0  0  0  0
 21 20  2  0  0  0  0
 22 23  2  0  0  0  0
 22 21  1  0  0  0  0
 23 24  1  0  0  0  0
 24 19  2  0  0  0  0
 25 10  1  0  0  0  0
 28 13  1  0  0  0  0
 29 15  1  0  0  0  0
 34 21  1  0  0  0  0
 35 22  1  0  0  0  0
 36 23  1  0  0  0  0
M  END
