1,2,3
q = 0.0, confidence = 1.0

 46 47  0  0  1  0  0  0  0  0999 V2000
    0.1426   -0.5898   -3.2000 N   0  0  0  0  0  0  0  0  0  0  0  0
    2.0084   -0.5472   -0.9038 N   0  0  0  0  0  0  0  0  0  0  0  0
   -0.5756   -2.3994   -0.3760 N   0  0  0  0  0  2  0  0  0  0  0  0
   -0.7649   -1.5696   -3.8178 C   0  0  0  0  0  0  0  0  0  0  0  0
   -0.6673   -2.5455   -3.3052 H   0  0  0  0  0  0  0  0  0  0  0  0
   -0.5475   -1.7105   -4.9029 H   0  0  0  0  0  0  0  0  0  0  0  0
   -1.8118   -1.2225   -3.7205 H   0  0  0  0  0  0  0  0  0  0  0  0
   -0.0419    0.7273   -3.8320 C   0  0  0  0  0  0  0  0  0  0  0  0
    0.6556    1.4672   -3.3985 H   0  0  0  0  0  0  0  0  0  0  0  0
   -1.0709    1.0906   -3.6488 H   0  0  0  0  0  0  0  0  0  0  0  0
    0.1343    0.6812   -4.9331 H   0  0  0  0  0  0  0  0  0  0  0  0
    1.5469   -1.0488   -3.3011 C   0  0  0  0  0  0  0  0  0  0  0  0
    1.5515   -2.1427   -3.1221 H   0  0  0  0  0  0  0  0  0  0  0  0
    1.9457   -0.8979   -4.3328 H   0  0  0  0  0  0  0  0  0  0  0  0
    2.4634   -0.3511   -2.2971 C   0  0  0  0  0  0  0  0  0  0  0  0
    3.5105   -0.7020   -2.4481 H   0  0  0  0  0  0  0  0  0  0  0  0
    2.4724    0.7392   -2.4959 H   0  0  0  0  0  0  0  0  0  0  0  0
    2.3626   -1.8978   -0.4096 C   0  0  0  0  0  0  0  0  0  0  0  0
    3.4520   -1.9399   -0.1837 H   0  0  0  0  0  0  0  0  0  0  0  0
    2.1819   -2.6212   -1.2287 H   0  0  0  0  0  0  0  0  0  0  0  0
    1.5723   -2.3406    0.8293 C   0  0  0  0  0  0  0  0  0  0  0  0
    2.1852   -3.0680    1.3967 H   0  0  0  0  0  0  0  0  0  0  0  0
    1.4285   -1.4804    1.5205 H   0  0  0  0  0  0  0  0  0  0  0  0
    0.2224   -2.9628    0.5670 C   0  0  1  0  0  3  0  0  0  0  0  0
   -0.2103   -4.0785    1.3087 C   0  0  0  0  0  0  0  0  0  0  0  0
    0.4613   -4.5191    2.0600 H   0  0  0  0  0  0  0  0  0  0  0  0
   -1.4869   -4.6095    1.0917 C   0  0  0  0  0  0  0  0  0  0  0  0
   -1.8373   -5.4771    1.6704 H   0  0  0  0  0  0  0  0  0  0  0  0
   -2.3067   -4.0152    0.1201 C   0  0  0  0  0  0  0  0  0  0  0  0
   -3.3184   -4.3900   -0.0889 H   0  0  0  0  0  0  0  0  0  0  0  0
   -1.8070   -2.9201   -0.5889 C   0  0  0  0  0  0  0  0  0  0  0  0
   -2.4224   -2.4180   -1.3512 H   0  0  0  0  0  0  0  0  0  0  0  0
    2.4882    0.5357    0.0107 C   0  0  0  0  0  0  0  0  0  0  0  0
    1.9304    0.4374    0.9621 H   0  0  0  0  0  0  0  0  0  0  0  0
    2.1642    1.4945   -0.4396 H   0  0  0  0  0  0  0  0  0  0  0  0
    3.9754    0.5525    0.2912 C   0  0  0  0  0  0  0  0  0  0  0  0
    4.8826    1.1677   -0.5964 C   0  0  0  0  0  0  0  0  0  0  0  0
    4.5050    1.6917   -1.4885 H   0  0  0  0  0  0  0  0  0  0  0  0
    6.2622    1.1433   -0.3442 C   0  0  0  0  0  0  0  0  0  0  0  0
    6.9560    1.6339   -1.0432 H   0  0  0  0  0  0  0  0  0  0  0  0
    6.7563    0.5062    0.8053 C   0  0  0  0  0  0  0  0  0  0  0  0
    7.8381    0.4902    1.0053 H   0  0  0  0  0  0  0  0  0  0  0  0
    5.8643   -0.0963    1.7060 C   0  0  0  0  0  0  0  0  0  0  0  0
    6.2446   -0.5823    2.6171 H   0  0  0  0  0  0  0  0  0  0  0  0
    4.4853   -0.0703    1.4497 C   0  0  0  0  0  0  0  0  0  0  0  0
    3.7867   -0.5276    2.1694 H   0  0  0  0  0  0  0  0  0  0  0  0
  2 18  1  0  0  0  0
  2 33  1  0  0  0  0
  3 24  1  0  0  0  0
  4  7  1  0  0  0  0
  4  5  1  0  0  0  0
  4  1  1  0  0  0  0
  6  4  1  0  0  0  0
  8 10  1  0  0  0  0
  8  9  1  0  0  0  0
  8  1  1  0  0  0  0
 11  8  1  0  0  0  0
 12  1  1  0  0  0  0
 12 13  1  0  0  0  0
 12 15  1  0  0  0  0
 14 12  1  0  0  0  0
 15  2  1  0  0  0  0
 16 15  1  0  0  0  0
 17 15  1  0  0  0  0
 18 19  1  0  0  0  0
 18 21  1  0  0  0  0
 20 18  1  0  0  0  0
 21 22  1  0  0  0  0
 21 23  1  0  0  0  0
 24 21  1  1  0  0  0
 24 25  1  0  0  0  0
 25 26  1  0  0  0  0
 27 25  2  0  0  0  0
 27 28  1  0  0  0  0
 29 27  1  0  0  0  0
 30 29  1  0  0  0  0
 31  3  1  0  0  0  0
 31 29  2  0  0  0  0
 32 31  1  0  0  0  0
 33 36  1  0  0  0  0
 33 34  1  0  0  0  0
 35 33  1  0  0  0  0
 36 45  1  0  0  0  0
 37 39  1  0  0  0  0
 37 36  2  0  0  0  0
 38 37  1  0  0  0  0
 39 41  2  0  0  0  0
 40 39  1  0  0  0  0
 41 42  1  0  0  0  0
 41 43  1  0  0  0  0
 43 44  1  0  0  0  0
 45 43  2  0  0  0  0
 45 46  1  0  0  0  0
M  END
