2,3,4
q = -1.0

 38 40  0  0  1  0  0  0  0  0999 V2000
    2.6614    3.1199    0.0126 O   0  0  0  0  0  0  0  0  0  0  0  0
   -0.6236    1.7466   -0.3653 N   0  0  0  0  0  2  0  0  0  0  0  0
    1.9067    0.9223   -0.1571 N   0  0  0  0  0  2  0  0  0  0  0  0
    1.6093   -1.6837    0.4447 N   0  0  0  0  0  0  0  0  0  0  0  0
    1.4637   -1.7783    1.4655 H   0  0  0  0  0  0  0  0  0  0  0  0
    1.4641   -2.6194    0.0370 H   0  0  0  0  0  0  0  0  0  0  0  0
   -1.9453    2.0922   -0.5475 C   0  0  2  0  0  3  0  0  0  0  0  0
   -2.9178    1.1266   -0.9195 C   0  0  0  0  0  0  0  0  0  0  0  0
   -2.6032    0.0941   -1.1061 H   0  0  0  0  0  0  0  0  0  0  0  0
   -4.2455    1.4974   -1.0808 C   0  0  0  0  0  0  0  0  0  0  0  0
   -4.9852    0.7398   -1.3797 H   0  0  0  0  0  0  0  0  0  0  0  0
   -4.6585    2.8402   -0.8769 C   0  0  0  0  0  0  0  0  0  0  0  0
   -5.7167    3.1122   -1.0006 H   0  0  0  0  0  0  0  0  0  0  0  0
   -3.7235    3.8084   -0.5457 C   0  0  0  0  0  0  0  0  0  0  0  0
   -4.0237    4.8585   -0.4119 H   0  0  0  0  0  0  0  0  0  0  0  0
   -2.3493    3.4693   -0.3881 C   0  0  0  0  0  0  0  0  0  0  0  0
   -1.3511    4.4422   -0.1040 C   0  0  0  0  0  0  0  0  0  0  0  0
   -1.6478    5.4939    0.0284 H   0  0  0  0  0  0  0  0  0  0  0  0
   -0.0235    4.0632   -0.0213 C   0  0  0  0  0  0  0  0  0  0  0  0
    0.8034    4.7651    0.1569 H   0  0  0  0  0  0  0  0  0  0  0  0
    0.3084    2.6970   -0.1550 C   0  0  0  0  0  0  0  0  0  0  0  0
    1.7626    2.2868   -0.0821 C   0  0  0  0  0  0  0  0  0  0  0  0
    3.1025    0.1975   -0.0613 C   0  0  0  0  0  0  0  0  0  0  0  0
    4.4025    0.7289   -0.2065 C   0  0  0  0  0  0  0  0  0  0  0  0
    4.5106    1.8080   -0.3702 H   0  0  0  0  0  0  0  0  0  0  0  0
    5.5336   -0.1023   -0.1445 C   0  0  0  0  0  0  0  0  0  0  0  0
    5.3830   -1.5029    0.0708 C   0  0  0  0  0  0  0  0  0  0  0  0
    4.0867   -2.0237    0.2416 C   0  0  0  0  0  0  0  0  0  0  0  0
    3.9555   -3.1006    0.4355 H   0  0  0  0  0  0  0  0  0  0  0  0
    2.9708   -1.1873    0.1830 C   0  0  0  0  0  0  0  0  0  0  0  0
    6.9063    0.4915   -0.3139 C   0  0  0  0  0  0  0  0  0  0  0  0
    7.4386    0.0410   -1.1776 H   0  0  0  0  0  0  0  0  0  0  0  0
    7.5401    0.2995    0.5771 H   0  0  0  0  0  0  0  0  0  0  0  0
    6.8602    1.5848   -0.4712 H   0  0  0  0  0  0  0  0  0  0  0  0
    6.5842   -2.4064    0.1275 C   0  0  0  0  0  0  0  0  0  0  0  0
    7.2817   -2.1022    0.9360 H   0  0  0  0  0  0  0  0  0  0  0  0
    7.1679   -2.3645   -0.8161 H   0  0  0  0  0  0  0  0  0  0  0  0
    6.2985   -3.4604    0.3042 H   0  0  0  0  0  0  0  0  0  0  0  0
  2 21  1  0  0  0  0
  3 22  1  0  0  0  0
  3 23  1  0  0  0  0
  4  5  1  0  0  0  0
  6  4  1  0  0  0  0
  7  8  1  6  0  0  0
  7 16  1  0  0  0  0
  7  2  1  0  0  0  0
  9  8  1  0  0  0  0
 10  8  2  0  0  0  0
 10 12  1  0  0  0  0
 11 10  1  0  0  0  0
 12 14  2  0  0  0  0
 13 12  1  0  0  0  0
 14 15  1  0  0  0  0
 14 16  1  0  0  0  0
 16 17  2  0  0  0  0
 17 19  1  0  0  0  0
 17 18  1  0  0  0  0
 19 20  1  0  0  0  0
 21 22  1  0  0  0  0
 21 19  2  0  0  0  0
 22  1  2  0  0  0  0
 23 30  1  0  0  0  0
 24 26  1  0  0  0  0
 24 23  2  0  0  0  0
 25 24  1  0  0  0  0
 26 27  2  0  0  0  0
 27 35  1  0  0  0  0
 27 28  1  0  0  0  0
 28 29  1  0  0  0  0
 30 28  2  0  0  0  0
 30  4  1  0  0  0  0
 31 26  1  0  0  0  0
 31 33  1  0  0  0  0
 32 31  1  0  0  0  0
 34 31  1  0  0  0  0
 35 38  1  0  0  0  0
 35 36  1  0  0  0  0
 37 35  1  0  0  0  0
M  END
