2,5,6
q = -1.0, confidence = 0.018

 25 26  0  0  0  0  0  0  0  0999 V2000
    4.1985   -4.1888    1.1908 Cl  0  0  0  0  0  0  0  0  0  0  0  0
    1.2099   -1.0001    0.3450 N   0  0  0  0  0  2  0  0  0  0  0  0
    2.3814   -2.9744   -0.2776 N   0  0  0  0  0  0  0  0  0  0  0  0
    1.5511    0.0421    2.4268 N   0  0  0  0  0  2  0  0  0  0  0  0
    0.6237    0.8248    1.8771 N   0  0  0  0  0  2  0  0  0  0  0  0
   -1.0074    2.0346    0.4067 N   0  0  0  0  0  2  0  0  0  0  0  0
   -2.3889    4.3651    1.1459 N   0  0  0  0  0  0  0  0  0  0  0  0
    1.4947   -2.0102   -0.4984 C   0  0  0  0  0  3  0  0  0  0  0  0
    0.9361   -2.0233   -1.4489 H   0  0  0  0  0  0  0  0  0  0  0  0
    3.0267   -2.9319    0.8998 C   0  0  0  0  0  0  0  0  0  0  0  0
    2.8124   -1.9650    1.8779 C   0  0  0  0  0  0  0  0  0  0  0  0
    3.3414   -1.9593    2.8382 H   0  0  0  0  0  0  0  0  0  0  0  0
    1.8591   -0.9557    1.5845 C   0  0  0  0  0  0  0  0  0  0  0  0
    0.1559    1.9334    2.4729 C   0  0  0  0  0  0  0  0  0  0  0  0
   -0.8006    2.6112    1.6461 C   0  0  0  0  0  0  0  0  0  0  0  0
   -1.5289    3.7826    1.9798 C   0  0  0  0  0  0  0  0  0  0  0  0
   -1.3888    4.2436    2.9729 H   0  0  0  0  0  0  0  0  0  0  0  0
   -2.5702    3.7771   -0.0553 C   0  0  0  0  0  0  0  0  0  0  0  0
   -3.2739    4.2533   -0.7576 H   0  0  0  0  0  0  0  0  0  0  0  0
   -1.8975    2.6053   -0.4241 C   0  0  0  0  0  0  0  0  0  0  0  0
   -2.0630    2.1147   -1.3948 H   0  0  0  0  0  0  0  0  0  0  0  0
    0.6083    2.3878    3.8227 C   0  0  0  0  0  0  0  0  0  0  0  0
    1.4066    1.7147    4.1837 H   0  0  0  0  0  0  0  0  0  0  0  0
   -0.2247    2.3703    4.5573 H   0  0  0  0  0  0  0  0  0  0  0  0
    0.9982    3.4266    3.7922 H   0  0  0  0  0  0  0  0  0  0  0  0
  2 13  1  0  0  0  0
  3 10  2  0  0  0  0
  5  4  1  0  0  0  0
  5 14  1  0  0  0  0
  6 15  1  0  0  0  0
  7 16  2  0  0  0  0
  8  3  1  0  0  0  0
  8  2  1  0  0  0  0
  9  8  1  0  0  0  0
 10  1  1  0  0  0  0
 10 11  1  0  0  0  0
 11 12  1  0  0  0  0
 13 11  2  0  0  0  0
 13  4  1  0  0  0  0
 14 22  1  0  0  0  0
 15 16  1  0  0  0  0
 15 14  2  0  0  0  0
 16 17  1  0  0  0  0
 18  7  1  0  0  0  0
 19 18  1  0  0  0  0
 20 18  2  0  0  0  0
 20  6  1  0  0  0  0
 21 20  1  0  0  0  0
 22 23  1  0  0  0  0
 22 24  1  0  0  0  0
 25 22  1  0  0  0  0
M  END
