4,5,32
q = 0.0, confidence = 0.974

 42 45  0  0  1  0  0  0  0  0999 V2000
   -9.6392    0.9378   -0.0274 O   0  0  0  0  0  0  0  0  0  0  0  0
  -10.5959    0.7894    0.1359 H   0  0  0  0  0  0  0  0  0  0  0  0
   -9.5797   -1.0337    1.0874 O   0  0  0  0  0  0  0  0  0  0  0  0
    1.1289    2.0579   -0.3861 N   0  0  0  0  0  2  0  0  0  0  0  0
   -0.4377    0.0207   -0.2818 N   0  0  0  0  0  2  0  0  0  0  0  0
   -9.0010   -0.1241    0.5210 C   0  0  0  0  0  0  0  0  0  0  0  0
    2.0357    3.0583   -0.4404 C   0  0  0  0  0  3  0  0  0  0  0  0
    3.0782    2.7514   -0.6073 H   0  0  0  0  0  0  0  0  0  0  0  0
    1.6794    4.4026   -0.3069 C   0  0  0  0  0  0  0  0  0  0  0  0
    2.4564    5.1777   -0.3621 H   0  0  0  0  0  0  0  0  0  0  0  0
    0.3284    4.7330   -0.1134 C   0  0  0  0  0  0  0  0  0  0  0  0
    0.0149    5.7816   -0.0086 H   0  0  0  0  0  0  0  0  0  0  0  0
   -0.6168    3.7034   -0.0611 C   0  0  0  0  0  0  0  0  0  0  0  0
   -1.6815    3.9307    0.0857 H   0  0  0  0  0  0  0  0  0  0  0  0
   -0.2034    2.3684   -0.2005 C   0  0  0  0  0  0  0  0  0  0  0  0
   -1.1064    1.2078   -0.1663 C   0  0  1  0  0  3  0  0  0  0  0  0
   -2.5002    1.2146   -0.0391 C   0  0  0  0  0  0  0  0  0  0  0  0
   -3.0337    2.1668    0.0807 H   0  0  0  0  0  0  0  0  0  0  0  0
   -3.2255   -0.0004   -0.0480 C   0  0  0  0  0  0  0  0  0  0  0  0
   -2.4961   -1.2024   -0.2108 C   0  0  0  0  0  0  0  0  0  0  0  0
   -3.0317   -2.1583   -0.2819 H   0  0  0  0  0  0  0  0  0  0  0  0
   -1.1028   -1.1728   -0.3392 C   0  0  0  0  0  0  0  0  0  0  0  0
   -0.1983   -2.3115   -0.5600 C   0  0  1  0  0  3  0  0  0  0  0  0
   -0.6099   -3.6522   -0.6344 C   0  0  0  0  0  0  0  0  0  0  0  0
   -1.6741   -3.9015   -0.5255 H   0  0  0  0  0  0  0  0  0  0  0  0
    0.3366   -4.6589   -0.8515 C   0  0  0  0  0  0  0  0  0  0  0  0
    0.0244   -5.7111   -0.9157 H   0  0  0  0  0  0  0  0  0  0  0  0
    1.6870   -4.3000   -0.9910 C   0  0  0  0  0  0  0  0  0  0  0  0
    2.4649   -5.0553   -1.1694 H   0  0  0  0  0  0  0  0  0  0  0  0
    2.0413   -2.9509   -0.9099 C   0  0  0  0  0  0  0  0  0  0  0  0
    3.0832   -2.6199   -1.0268 H   0  0  0  0  0  0  0  0  0  0  0  0
    1.1331   -1.9732   -0.6972 N   0  0  0  0  0  2  0  0  0  0  0  0
   -4.6987   -0.0155    0.0894 C   0  0  0  0  0  0  0  0  0  0  0  0
   -5.4871    1.0349   -0.4361 C   0  0  0  0  0  0  0  0  0  0  0  0
   -5.0070    1.8586   -0.9853 H   0  0  0  0  0  0  0  0  0  0  0  0
   -6.8796    1.0185   -0.3100 C   0  0  0  0  0  0  0  0  0  0  0  0
   -7.4874    1.8300   -0.7329 H   0  0  0  0  0  0  0  0  0  0  0  0
   -7.5157   -0.0503    0.3517 C   0  0  0  0  0  0  0  0  0  0  0  0
   -6.7408   -1.1007    0.8802 C   0  0  0  0  0  0  0  0  0  0  0  0
   -7.2594   -1.9193    1.4004 H   0  0  0  0  0  0  0  0  0  0  0  0
   -5.3509   -1.0849    0.7485 C   0  0  0  0  0  0  0  0  0  0  0  0
   -4.7575   -1.8980    1.1929 H   0  0  0  0  0  0  0  0  0  0  0  0
  1  2  1  0  0  0  0
  1  6  1  0  0  0  0
  4 15  1  0  0  0  0
  5 16  1  0  0  0  0
  6  3  2  0  0  0  0
  7  4  1  0  0  0  0
  7  9  1  0  0  0  0
  8  7  1  0  0  0  0
  9 11  2  0  0  0  0
 10  9  1  0  0  0  0
 11 13  1  0  0  0  0
 11 12  1  0  0  0  0
 13 14  1  0  0  0  0
 15 13  2  0  0  0  0
 16 15  1  6  0  0  0
 16 17  1  0  0  0  0
 17 18  1  0  0  0  0
 19 17  2  0  0  0  0
 19 33  1  0  0  0  0
 20 19  1  0  0  0  0
 21 20  1  0  0  0  0
 22  5  1  0  0  0  0
 22 20  2  0  0  0  0
 23 22  1  6  0  0  0
 24 23  1  0  0  0  0
 24 25  1  0  0  0  0
 26 24  2  0  0  0  0
 27 26  1  0  0  0  0
 28 30  2  0  0  0  0
 28 26  1  0  0  0  0
 29 28  1  0  0  0  0
 30 32  1  0  0  0  0
 31 30  1  0  0  0  0
 32 23  1  0  0  0  0
 33 41  1  0  0  0  0
 34 36  1  0  0  0  0
 34 33  2  0  0  0  0
 35 34  1  0  0  0  0
 36 38  2  0  0  0  0
 37 36  1  0  0  0  0
 38  6  1  0  0  0  0
 38 39  1  0  0  0  0
 39 40  1  0  0  0  0
 41 39  2  0  0  0  0
 41 42  1  0  0  0  0
M  END
