3,4,5
q = -1.0

 48 49  0  0  0  0  0  0  0  0999 V2000
   -6.1588    1.0094   -0.0353 Br  0  0  0  0  0  0  0  0  0  0  0  0
    5.2526   -0.3302   -0.5261 O   0  0  0  0  0  0  0  0  0  0  0  0
   -0.4535   -1.1495    0.1851 N   0  0  0  0  0  2  0  0  0  0  0  0
    2.0441   -1.6931    0.0719 N   0  0  0  0  0  2  0  0  0  0  0  0
    3.0912    0.5595   -0.6110 N   0  0  0  0  0  2  0  0  0  0  0  0
   -1.1805   -3.4407    0.8501 C   0  0  0  0  0  0  0  0  0  0  0  0
   -2.1939   -3.0049    0.9081 H   0  0  0  0  0  0  0  0  0  0  0  0
   -0.9260   -3.8931    1.8309 H   0  0  0  0  0  0  0  0  0  0  0  0
   -1.1898   -4.2664    0.1078 H   0  0  0  0  0  0  0  0  0  0  0  0
   -0.1651   -2.4069    0.4758 C   0  0  0  0  0  0  0  0  0  0  0  0
    1.2643   -2.7510    0.4198 C   0  0  0  0  0  0  0  0  0  0  0  0
    1.8846   -3.9903    0.6723 C   0  0  0  0  0  0  0  0  0  0  0  0
    1.2833   -4.8660    0.9524 H   0  0  0  0  0  0  0  0  0  0  0  0
    3.2839   -4.0809    0.5584 C   0  0  0  0  0  0  0  0  0  0  0  0
    3.7808   -5.0428    0.7537 H   0  0  0  0  0  0  0  0  0  0  0  0
    4.0481   -2.9554    0.2007 C   0  0  0  0  0  0  0  0  0  0  0  0
    5.1430   -2.9734    0.1039 H   0  0  0  0  0  0  0  0  0  0  0  0
    3.3809   -1.7476   -0.0432 C   0  0  0  0  0  0  0  0  0  0  0  0
    4.0244   -0.4294   -0.4206 C   0  0  0  0  0  0  0  0  0  0  0  0
    3.5479    1.9032   -0.9250 C   0  0  0  0  0  0  0  0  0  0  0  0
    2.8388    2.3448   -1.6547 H   0  0  0  0  0  0  0  0  0  0  0  0
    4.5499    1.8290   -1.3985 H   0  0  0  0  0  0  0  0  0  0  0  0
    3.6179    2.8039    0.3153 C   0  0  0  0  0  0  0  0  0  0  0  0
    4.3270    2.3558    1.0457 H   0  0  0  0  0  0  0  0  0  0  0  0
    2.6138    2.8108    0.7918 H   0  0  0  0  0  0  0  0  0  0  0  0
    4.0394    4.2372   -0.0160 C   0  0  0  0  0  0  0  0  0  0  0  0
    5.0260    4.2242   -0.5309 H   0  0  0  0  0  0  0  0  0  0  0  0
    3.3194    4.6624   -0.7501 H   0  0  0  0  0  0  0  0  0  0  0  0
    4.1118    5.1418    1.2147 C   0  0  0  0  0  0  0  0  0  0  0  0
    4.4118    6.1760    0.9495 H   0  0  0  0  0  0  0  0  0  0  0  0
    4.8468    4.7589    1.9535 H   0  0  0  0  0  0  0  0  0  0  0  0
    3.1290    5.1987    1.7277 H   0  0  0  0  0  0  0  0  0  0  0  0
   -1.7952   -0.6726    0.1469 C   0  0  0  0  0  0  0  0  0  0  0  0
   -2.5722   -0.9101   -1.0124 C   0  0  0  0  0  0  0  0  0  0  0  0
   -3.8798   -0.3960   -1.0520 C   0  0  0  0  0  0  0  0  0  0  0  0
   -4.5044   -0.5621   -1.9412 H   0  0  0  0  0  0  0  0  0  0  0  0
   -4.3791    0.3374    0.0326 C   0  0  0  0  0  0  0  0  0  0  0  0
   -3.5876    0.5969    1.1592 C   0  0  0  0  0  0  0  0  0  0  0  0
   -3.9879    1.1966    1.9889 H   0  0  0  0  0  0  0  0  0  0  0  0
   -2.2717    0.1075    1.2273 C   0  0  0  0  0  0  0  0  0  0  0  0
   -1.9906   -1.6499   -2.1883 C   0  0  0  0  0  0  0  0  0  0  0  0
   -1.7692   -2.7117   -1.9507 H   0  0  0  0  0  0  0  0  0  0  0  0
   -1.0337   -1.1833   -2.5043 H   0  0  0  0  0  0  0  0  0  0  0  0
   -2.6851   -1.6382   -3.0485 H   0  0  0  0  0  0  0  0  0  0  0  0
   -1.3752    0.4367    2.3886 C   0  0  0  0  0  0  0  0  0  0  0  0
   -1.9296    0.9607    3.1890 H   0  0  0  0  0  0  0  0  0  0  0  0
   -0.5537    1.0978    2.0358 H   0  0  0  0  0  0  0  0  0  0  0  0
   -0.9016   -0.4667    2.8243 H   0  0  0  0  0  0  0  0  0  0  0  0
  1 37  1  0  0  0  0
  2 19  2  0  0  0  0
  3 10  1  0  0  0  0
  4 11  1  0  0  0  0
  5 19  1  0  0  0  0
  6  7  1  0  0  0  0
  6  8  1  0  0  0  0
  9  6  1  0  0  0  0
 10  6  1  0  0  0  0
 11 10  2  0  0  0  0
 11 12  1  0  0  0  0
 12 13  1  0  0  0  0
 14 12  2  0  0  0  0
 14 15  1  0  0  0  0
 16 14  1  0  0  0  0
 17 16  1  0  0  0  0
 18  4  1  0  0  0  0
 18 16  2  0  0  0  0
 19 18  1  0  0  0  0
 20  5  1  0  0  0  0
 20 23  1  0  0  0  0
 21 20  1  0  0  0  0
 22 20  1  0  0  0  0
 23 25  1  0  0  0  0
 23 24  1  0  0  0  0
 26 23  1  0  0  0  0
 26 29  1  0  0  0  0
 27 26  1  0  0  0  0
 28 26  1  0  0  0  0
 29 32  1  0  0  0  0
 29 31  1  0  0  0  0
 30 29  1  0  0  0  0
 33  3  1  0  0  0  0
 33 40  1  0  0  0  0
 34 33  2  0  0  0  0
 35 34  1  0  0  0  0
 35 37  2  0  0  0  0
 36 35  1  0  0  0  0
 37 38  1  0  0  0  0
 38 40  2  0  0  0  0
 38 39  1  0  0  0  0
 40 45  1  0  0  0  0
 41 42  1  0  0  0  0
 41 34  1  0  0  0  0
 43 41  1  0  0  0  0
 44 41  1  0  0  0  0
 45 48  1  0  0  0  0
 45 46  1  0  0  0  0
 47 45  1  0  0  0  0
M  END
