1,11,17
q = -1.0

 62 64  0  0  0  0  0  0  0  0999 V2000
   -0.0112    2.1815    0.3614 N   0  0  0  0  0  0  0  0  0  0  0  0
   -1.0394    2.4543   -0.6393 C   0  0  0  0  0  0  0  0  0  0  0  0
   -0.9694    3.7053   -1.2686 C   0  0  0  0  0  3  0  0  0  0  0  0
   -1.8005    4.0537   -1.9007 H   0  0  0  0  0  0  0  0  0  0  0  0
    0.2321    4.4496   -1.2193 C   0  0  0  0  0  3  0  0  0  0  0  0
    0.2948    5.4447   -1.6808 H   0  0  0  0  0  0  0  0  0  0  0  0
    1.4013    3.7630   -0.8236 C   0  0  0  0  0  3  0  0  0  0  0  0
    2.3881    4.1566   -1.1132 H   0  0  0  0  0  0  0  0  0  0  0  0
    1.2866    2.4961   -0.2269 C   0  0  0  0  0  0  0  0  0  0  0  0
   -1.9664    1.3973   -0.9265 C   0  0  0  0  0  0  0  0  0  0  0  0
   -1.7309    0.2028   -0.4049 N   0  0  0  0  0  2  0  0  0  0  0  0
   -3.1334    1.6611   -1.8471 C   0  0  0  0  0  0  0  0  0  0  0  0
   -2.7692    1.8539   -2.8768 H   0  0  0  0  0  0  0  0  0  0  0  0
   -3.7020    2.5576   -1.5299 H   0  0  0  0  0  0  0  0  0  0  0  0
   -3.8174    0.7935   -1.8799 H   0  0  0  0  0  0  0  0  0  0  0  0
    2.2272    1.4222   -0.3368 C   0  0  0  0  0  0  0  0  0  0  0  0
    1.8402    0.2045    0.0215 N   0  0  0  0  0  2  0  0  0  0  0  0
    3.6038    1.6906   -0.8918 C   0  0  0  0  0  0  0  0  0  0  0  0
    4.2951    0.8631   -0.6448 H   0  0  0  0  0  0  0  0  0  0  0  0
    4.0141    2.6370   -0.4900 H   0  0  0  0  0  0  0  0  0  0  0  0
    3.5713    1.7890   -1.9960 H   0  0  0  0  0  0  0  0  0  0  0  0
   -2.6539   -0.8644   -0.4326 C   0  0  0  0  0  0  0  0  0  0  0  0
   -2.3325   -2.0430   -1.1561 C   0  0  0  0  0  0  0  0  0  0  0  0
   -3.2185   -3.1331   -1.1003 C   0  0  0  0  0  0  0  0  0  0  0  0
   -2.9745   -4.0450   -1.6677 H   0  0  0  0  0  0  0  0  0  0  0  0
   -4.3899   -3.0752   -0.3328 C   0  0  0  0  0  0  0  0  0  0  0  0
   -5.0703   -3.9391   -0.2955 H   0  0  0  0  0  0  0  0  0  0  0  0
   -4.6797   -1.9186    0.4027 C   0  0  0  0  0  0  0  0  0  0  0  0
   -5.5838   -1.8775    1.0307 H   0  0  0  0  0  0  0  0  0  0  0  0
   -3.8241   -0.8019    0.3741 C   0  0  0  0  0  0  0  0  0  0  0  0
   -1.0510   -2.1132   -1.9400 C   0  0  0  0  0  0  0  0  0  0  0  0
   -0.1669   -2.0326   -1.2707 H   0  0  0  0  0  0  0  0  0  0  0  0
   -0.9667   -1.2812   -2.6681 H   0  0  0  0  0  0  0  0  0  0  0  0
   -0.9662   -3.0692   -2.4908 H   0  0  0  0  0  0  0  0  0  0  0  0
   -4.1072    0.4141    1.2182 C   0  0  0  0  0  0  0  0  0  0  0  0
   -4.9210    0.2139    1.9408 H   0  0  0  0  0  0  0  0  0  0  0  0
   -4.4102    1.2933    0.6114 H   0  0  0  0  0  0  0  0  0  0  0  0
   -3.2020    0.7168    1.7844 H   0  0  0  0  0  0  0  0  0  0  0  0
    2.6213   -0.9510   -0.2177 C   0  0  0  0  0  0  0  0  0  0  0  0
    3.2399   -1.5961    0.8881 C   0  0  0  0  0  0  0  0  0  0  0  0
    3.9199   -2.8059    0.6678 C   0  0  0  0  0  0  0  0  0  0  0  0
    4.4008   -3.3084    1.5217 H   0  0  0  0  0  0  0  0  0  0  0  0
    3.9896   -3.3742   -0.6127 C   0  0  0  0  0  0  0  0  0  0  0  0
    4.5154   -4.3287   -0.7655 H   0  0  0  0  0  0  0  0  0  0  0  0
    3.3889   -2.7215   -1.6955 C   0  0  0  0  0  0  0  0  0  0  0  0
    3.4445   -3.1623   -2.7037 H   0  0  0  0  0  0  0  0  0  0  0  0
    2.7043   -1.5021   -1.5249 C   0  0  0  0  0  0  0  0  0  0  0  0
    3.1711   -0.9650    2.2526 C   0  0  0  0  0  0  0  0  0  0  0  0
    3.6681    0.0283    2.2641 H   0  0  0  0  0  0  0  0  0  0  0  0
    3.6557   -1.6023    3.0164 H   0  0  0  0  0  0  0  0  0  0  0  0
    2.1185   -0.7883    2.5532 H   0  0  0  0  0  0  0  0  0  0  0  0
    2.0929   -0.7973   -2.7098 C   0  0  0  0  0  0  0  0  0  0  0  0
    2.8239   -0.1114   -3.1905 H   0  0  0  0  0  0  0  0  0  0  0  0
    1.2186   -0.1849   -2.4191 H   0  0  0  0  0  0  0  0  0  0  0  0
    1.7735   -1.5216   -3.4843 H   0  0  0  0  0  0  0  0  0  0  0  0
   -0.2728    2.9457    1.6244 C   0  0  0  0  0  0  0  0  0  0  0  0
   -0.2937    4.0354    1.4015 H   0  0  0  0  0  0  0  0  0  0  0  0
   -1.2940    2.6550    1.9484 H   0  0  0  0  0  0  0  0  0  0  0  0
    0.7465    2.6380    2.7115 C   0  0  0  0  0  0  0  0  0  0  0  0
    0.5180    3.2273    3.6213 H   0  0  0  0  0  0  0  0  0  0  0  0
    1.7721    2.9027    2.3859 H   0  0  0  0  0  0  0  0  0  0  0  0
    0.7340    1.5628    2.9860 H   0  0  0  0  0  0  0  0  0  0  0  0
  1 56  1  0  0  0  0
  2  1  1  0  0  0  0
  3  5  1  0  0  0  0
  3  2  1  0  0  0  0
  4  3  1  0  0  0  0
  5  7  1  0  0  0  0
  6  5  1  0  0  0  0
  7  9  1  0  0  0  0
  8  7  1  0  0  0  0
  9  1  1  0  0  0  0
 10  2  2  0  0  0  0
 10 11  1  0  0  0  0
 12 14  1  0  0  0  0
 12 10  1  0  0  0  0
 13 12  1  0  0  0  0
 15 12  1  0  0  0  0
 16  9  2  0  0  0  0
 16 17  1  0  0  0  0
 18 19  1  0  0  0  0
 18 20  1  0  0  0  0
 18 16  1  0  0  0  0
 21 18  1  0  0  0  0
 22 11  1  0  0  0  0
 22 30  1  0  0  0  0
 23 24  1  0  0  0  0
 23 22  2  0  0  0  0
 24 26  2  0  0  0  0
 25 24  1  0  0  0  0
 26 27  1  0  0  0  0
 26 28  1  0  0  0  0
 28 29  1  0  0  0  0
 30 28  2  0  0  0  0
 30 35  1  0  0  0  0
 31 32  1  0  0  0  0
 31 23  1  0  0  0  0
 33 31  1  0  0  0  0
 34 31  1  0  0  0  0
 35 38  1  0  0  0  0
 35 36  1  0  0  0  0
 37 35  1  0  0  0  0
 39 17  1  0  0  0  0
 39 40  1  0  0  0  0
 40 48  1  0  0  0  0
 41 40  2  0  0  0  0
 41 42  1  0  0  0  0
 43 41  1  0  0  0  0
 44 43  1  0  0  0  0
 45 47  1  0  0  0  0
 45 43  2  0  0  0  0
 46 45  1  0  0  0  0
 47 39  2  0  0  0  0
 48 49  1  0  0  0  0
 48 51  1  0  0  0  0
 48 50  1  0  0  0  0
 52 54  1  0  0  0  0
 52 47  1  0  0  0  0
 53 52  1  0  0  0  0
 55 52  1  0  0  0  0
 56 58  1  0  0  0  0
 56 59  1  0  0  0  0
 57 56  1  0  0  0  0
 59 62  1  0  0  0  0
 59 60  1  0  0  0  0
 61 59  1  0  0  0  0
M  END
