1,3,16
q = -1.0

 29 30  0  0  0  0  0  0  0  0999 V2000
    1.3177   -1.9739   -0.0003 N   0  0  0  0  0  2  0  0  0  0  0  0
   -1.0277   -2.3946   -0.0003 N   0  0  0  0  0  0  0  0  0  0  0  0
   -0.6442   -0.0000   -0.0000 N   0  0  0  0  0  0  0  0  0  0  0  0
    0.2740   -2.7890   -0.0001 C   0  0  0  0  0  0  0  0  0  0  0  0
    0.4866   -4.2813    0.0005 C   0  0  0  0  0  0  0  0  0  0  0  0
   -0.0051   -4.7253   -0.8880 H   0  0  0  0  0  0  0  0  0  0  0  0
   -0.0046   -4.7243    0.8898 H   0  0  0  0  0  0  0  0  0  0  0  0
    1.5577   -4.5566    0.0005 H   0  0  0  0  0  0  0  0  0  0  0  0
   -1.4232   -1.1384   -0.0003 C   0  0  0  0  0  0  0  0  0  0  0  0
   -2.8357   -0.7075   -0.0002 C   0  0  0  0  0  3  0  0  0  0  0  0
   -4.0295   -1.4328   -0.0004 C   0  0  0  0  0  0  0  0  0  0  0  0
   -4.0127   -2.5323   -0.0007 H   0  0  0  0  0  0  0  0  0  0  0  0
   -5.2349   -0.7047   -0.0002 C   0  0  0  0  0  0  0  0  0  0  0  0
   -6.1946   -1.2435   -0.0004 H   0  0  0  0  0  0  0  0  0  0  0  0
    2.2436   -2.4252   -0.0004 H   0  0  0  0  0  0  0  0  0  0  0  0
    1.3178    1.9738    0.0003 N   0  0  0  0  0  2  0  0  0  0  0  0
   -1.0276    2.3946    0.0003 N   0  0  0  0  0  0  0  0  0  0  0  0
    0.2741    2.7890    0.0001 C   0  0  0  0  0  0  0  0  0  0  0  0
    0.4868    4.2813   -0.0005 C   0  0  0  0  0  0  0  0  0  0  0  0
   -0.0049    4.7252    0.8880 H   0  0  0  0  0  0  0  0  0  0  0  0
   -0.0045    4.7243   -0.8897 H   0  0  0  0  0  0  0  0  0  0  0  0
    1.5579    4.5566   -0.0004 H   0  0  0  0  0  0  0  0  0  0  0  0
   -1.4232    1.1384    0.0002 C   0  0  0  0  0  0  0  0  0  0  0  0
   -2.8356    0.7076    0.0002 C   0  0  0  0  0  0  0  0  0  0  0  0
   -4.0295    1.4329    0.0004 C   0  0  0  0  0  0  0  0  0  0  0  0
   -4.0126    2.5324    0.0007 H   0  0  0  0  0  0  0  0  0  0  0  0
   -5.2349    0.7048    0.0002 C   0  0  0  0  0  0  0  0  0  0  0  0
   -6.1945    1.2436    0.0004 H   0  0  0  0  0  0  0  0  0  0  0  0
    2.2437    2.4251    0.0004 H   0  0  0  0  0  0  0  0  0  0  0  0
  1  4  1  0  0  0  0
  2  9  1  0  0  0  0
  2  4  2  0  0  0  0
  3 23  1  0  0  0  0
  4  5  1  0  0  0  0
  5  7  1  0  0  0  0
  6  5  1  0  0  0  0
  8  5  1  0  0  0  0
  9 10  1  0  0  0  0
  9  3  2  0  0  0  0
 10 24  1  0  0  0  0
 11 10  1  0  0  0  0
 11 13  2  0  0  0  0
 12 11  1  0  0  0  0
 13 27  1  0  0  0  0
 14 13  1  0  0  0  0
 15  1  1  0  0  0  0
 16 29  1  0  0  0  0
 18 17  2  0  0  0  0
 18 16  1  0  0  0  0
 19 22  1  0  0  0  0
 19 18  1  0  0  0  0
 19 20  1  0  0  0  0
 21 19  1  0  0  0  0
 23 17  1  0  0  0  0
 24 23  2  0  0  0  0
 24 25  1  0  0  0  0
 25 26  1  0  0  0  0
 27 28  1  0  0  0  0
 27 25  2  0  0  0  0
M  END
