2,4,6
q = -1.0

 44 46  0  0  1  0  0  0  0  0999 V2000
    1.5523   -1.2339    2.1396 N   0  0  0  0  0  0  0  0  0  0  0  0
    1.6936   -1.1076    0.8030 N   0  0  0  0  0  2  0  0  0  0  0  0
    0.1341    0.8056    2.5390 N   0  0  0  0  0  0  0  0  0  0  0  0
    0.0687    1.2455    1.2635 N   0  0  0  0  0  2  0  0  0  0  0  0
   -0.9587   -1.4603    2.2399 N   0  0  0  0  0  0  0  0  0  0  0  0
   -1.2101   -1.4042    0.9140 N   0  0  0  0  0  2  0  0  0  0  0  0
    2.9022   -1.6087    0.4937 C   0  0  2  0  0  3  0  0  0  0  0  0
    3.5663   -2.0645    1.6538 C   0  0  0  0  0  0  0  0  0  0  0  0
    2.6607   -1.8070    2.6838 C   0  0  0  0  0  0  0  0  0  0  0  0
    3.4171   -1.5701   -0.9145 C   0  0  0  0  0  0  0  0  0  0  0  0
    3.9491   -0.1681   -1.3426 C   0  0  0  0  0  0  0  0  0  0  0  0
    0.0681    2.5894    1.3208 C   0  0  2  0  0  3  0  0  0  0  0  0
    0.1169    3.0335    2.6605 C   0  0  0  0  0  0  0  0  0  0  0  0
    0.1636    1.8552    3.4054 C   0  0  0  0  0  0  0  0  0  0  0  0
    0.0002    3.4290    0.0789 C   0  0  0  0  0  0  0  0  0  0  0  0
   -1.4358    3.5805   -0.5047 C   0  0  0  0  0  0  0  0  0  0  0  0
   -2.2765   -2.1941    0.6928 C   0  0  1  0  0  3  0  0  0  0  0  0
   -2.7372   -2.7635    1.9003 C   0  0  0  0  0  0  0  0  0  0  0  0
   -1.8587   -2.2685    2.8638 C   0  0  0  0  0  0  0  0  0  0  0  0
   -2.8572   -2.3675   -0.6799 C   0  0  0  0  0  0  0  0  0  0  0  0
   -3.7991   -1.2067   -1.1175 C   0  0  0  0  0  0  0  0  0  0  0  0
    2.4460   -1.9196   -1.8097 F   0  0  0  0  0  0  0  0  0  0  0  0
    4.4586   -2.4422   -1.0444 F   0  0  0  0  0  0  0  0  0  0  0  0
    4.9375    0.2119   -0.5111 F   0  0  0  0  0  0  0  0  0  0  0  0
    4.4262   -0.2046   -2.5951 F   0  0  0  0  0  0  0  0  0  0  0  0
    2.9631    0.7480   -1.2819 F   0  0  0  0  0  0  0  0  0  0  0  0
    0.4423    4.6894    0.3615 F   0  0  0  0  0  0  0  0  0  0  0  0
    0.7828    2.9088   -0.9127 F   0  0  0  0  0  0  0  0  0  0  0  0
   -2.2507    4.1049    0.4301 F   0  0  0  0  0  0  0  0  0  0  0  0
   -1.9192    2.3787   -0.8704 F   0  0  0  0  0  0  0  0  0  0  0  0
   -1.4303    4.3870   -1.5760 F   0  0  0  0  0  0  0  0  0  0  0  0
   -3.6036   -3.5102   -0.7139 F   0  0  0  0  0  0  0  0  0  0  0  0
   -1.8754   -2.4646   -1.6248 F   0  0  0  0  0  0  0  0  0  0  0  0
   -4.8019   -1.0786   -0.2281 F   0  0  0  0  0  0  0  0  0  0  0  0
   -3.1176   -0.0469   -1.1657 F   0  0  0  0  0  0  0  0  0  0  0  0
   -4.3222   -1.4500   -2.3279 F   0  0  0  0  0  0  0  0  0  0  0  0
    0.2628   -0.7130    2.8342 B   0  0  1  0  0  0  0  0  0  0  0  0
    4.5593   -2.5174    1.7197 H   0  0  0  0  0  0  0  0  0  0  0  0
    2.7234   -1.9904    3.7616 H   0  0  0  0  0  0  0  0  0  0  0  0
    0.1250    4.0658    3.0207 H   0  0  0  0  0  0  0  0  0  0  0  0
    0.2220    1.6865    4.4858 H   0  0  0  0  0  0  0  0  0  0  0  0
   -3.5833   -3.4423    2.0369 H   0  0  0  0  0  0  0  0  0  0  0  0
   -1.8044   -2.4358    3.9446 H   0  0  0  0  0  0  0  0  0  0  0  0
    0.3272   -0.9028    4.0369 H   0  0  0  0  0  0  0  0  0  0  0  0
  1  9  1  0  0  0  0
  1 37  1  0  0  0  0
  2  1  1  0  0  0  0
  3 37  1  0  0  0  0
  3 14  1  0  0  0  0
  4 12  1  0  0  0  0
  4  3  1  0  0  0  0
  5 37  1  0  0  0  0
  5 19  1  0  0  0  0
  6  5  1  0  0  0  0
  7 10  1  1  0  0  0
  7  2  1  0  0  0  0
  7  8  1  0  0  0  0
  8 38  1  0  0  0  0
  8  9  2  0  0  0  0
  9 39  1  0  0  0  0
 11 26  1  0  0  0  0
 11 10  1  0  0  0  0
 11 24  1  0  0  0  0
 12 15  1  1  0  0  0
 12 13  1  0  0  0  0
 13 40  1  0  0  0  0
 13 14  2  0  0  0  0
 14 41  1  0  0  0  0
 15 27  1  0  0  0  0
 16 15  1  0  0  0  0
 16 29  1  0  0  0  0
 17 20  1  1  0  0  0
 17  6  1  0  0  0  0
 17 18  1  0  0  0  0
 18 42  1  0  0  0  0
 18 19  2  0  0  0  0
 19 43  1  0  0  0  0
 21 20  1  0  0  0  0
 21 34  1  0  0  0  0
 22 10  1  0  0  0  0
 23 10  1  0  0  0  0
 25 11  1  0  0  0  0
 28 15  1  0  0  0  0
 30 16  1  0  0  0  0
 31 16  1  0  0  0  0
 32 20  1  0  0  0  0
 33 20  1  0  0  0  0
 35 21  1  0  0  0  0
 36 21  1  0  0  0  0
 37 44  1  1  0  0  0
M  END
