1,12,16
q = -1.0

 38 40  0  0  1  0  0  0  0  0999 V2000
   -1.5218   -0.9484    0.1312 N   0  0  0  0  0  2  0  0  0  0  0  0
   -2.3768    0.0440    0.1423 C   0  0  0  0  0  0  0  0  0  0  0  0
   -3.6573   -0.3096    0.3985 O   0  0  0  0  0  0  0  0  0  0  0  0
   -3.6417   -1.6863    0.8190 C   0  0  0  0  0  0  0  0  0  0  0  0
   -2.2705   -2.2333    0.3538 C   0  0  0  0  0  0  0  0  0  0  0  0
   -2.1575    1.4644   -0.1000 C   0  0  0  0  0  0  0  0  0  0  0  0
   -0.8661    2.0888   -0.0625 C   0  0  0  0  0  0  0  0  0  0  0  0
   -0.8280    3.4962   -0.2891 C   0  0  0  0  0  0  0  0  0  0  0  0
   -1.9834    4.2307   -0.5488 C   0  0  0  0  0  0  0  0  0  0  0  0
   -3.2463    3.6127   -0.5743 C   0  0  0  0  0  0  0  0  0  0  0  0
   -3.3190    2.2427   -0.3426 C   0  0  0  0  0  3  0  0  0  0  0  0
    0.2948    1.3469    0.1478 N   0  0  0  0  0  2  0  0  0  0  0  0
    1.4939    1.9533    0.4797 C   0  0  0  0  0  0  0  0  0  0  0  0
    1.6778    3.1195    0.8437 O   0  0  0  0  0  0  0  0  0  0  0  0
    2.6812    1.0462    0.2982 C   0  0  1  0  0  3  0  0  0  0  0  0
    2.4479   -0.2177   -0.1310 N   0  0  0  0  0  2  0  0  0  0  0  0
    3.4843   -1.0424   -0.3887 C   0  0  0  0  0  0  0  0  0  0  0  0
    4.8084   -0.6216   -0.2123 C   0  0  0  0  0  0  0  0  0  0  0  0
    5.0639    0.6781    0.2504 C   0  0  0  0  0  0  0  0  0  0  0  0
    3.9792    1.5250    0.5078 C   0  0  0  0  0  0  0  0  0  0  0  0
   -1.6347   -3.0954    1.4453 C   0  0  0  0  0  0  0  0  0  0  0  0
   -2.4016   -2.9768   -0.9835 C   0  0  0  0  0  0  0  0  0  0  0  0
   -3.7520   -1.7067    1.9248 H   0  0  0  0  0  0  0  0  0  0  0  0
   -4.5019   -2.2050    0.3547 H   0  0  0  0  0  0  0  0  0  0  0  0
    0.1397    4.0034   -0.2389 H   0  0  0  0  0  0  0  0  0  0  0  0
   -1.8930    5.3126   -0.7320 H   0  0  0  0  0  0  0  0  0  0  0  0
   -4.1587    4.1936   -0.7710 H   0  0  0  0  0  0  0  0  0  0  0  0
   -4.2895    1.7301   -0.3520 H   0  0  0  0  0  0  0  0  0  0  0  0
    3.2060   -2.0544   -0.7230 H   0  0  0  0  0  0  0  0  0  0  0  0
    5.6259   -1.3218   -0.4355 H   0  0  0  0  0  0  0  0  0  0  0  0
    6.0963    1.0262    0.4047 H   0  0  0  0  0  0  0  0  0  0  0  0
    4.0823    2.5609    0.8614 H   0  0  0  0  0  0  0  0  0  0  0  0
   -1.4860   -2.5044    2.3709 H   0  0  0  0  0  0  0  0  0  0  0  0
   -0.6575   -3.4882    1.1089 H   0  0  0  0  0  0  0  0  0  0  0  0
   -2.3048   -3.9486    1.6773 H   0  0  0  0  0  0  0  0  0  0  0  0
   -1.3993   -3.2439   -1.3665 H   0  0  0  0  0  0  0  0  0  0  0  0
   -2.9919   -3.9046   -0.8387 H   0  0  0  0  0  0  0  0  0  0  0  0
   -2.9196   -2.3435   -1.7318 H   0  0  0  0  0  0  0  0  0  0  0  0
  1  2  1  0  0  0  0
  1  5  1  0  0  0  0
  2  3  1  0  0  0  0
  3  4  1  0  0  0  0
  4 23  1  0  0  0  0
  5  4  1  0  0  0  0
  5 21  1  0  0  0  0
  6  7  1  0  0  0  0
  6  2  2  0  0  0  0
  7 12  1  0  0  0  0
  8 25  1  0  0  0  0
  8  7  2  0  0  0  0
  9  8  1  0  0  0  0
 10  9  2  0  0  0  0
 10 11  1  0  0  0  0
 11  6  1  0  0  0  0
 12 13  1  0  0  0  0
 13 14  2  0  0  0  0
 15 13  1  6  0  0  0
 15 20  1  0  0  0  0
 16 15  1  0  0  0  0
 17 18  2  0  0  0  0
 17 16  1  0  0  0  0
 18 19  1  0  0  0  0
 19 31  1  0  0  0  0
 19 20  2  0  0  0  0
 20 32  1  0  0  0  0
 21 35  1  0  0  0  0
 21 33  1  0  0  0  0
 22 37  1  0  0  0  0
 22  5  1  0  0  0  0
 24  4  1  0  0  0  0
 26  9  1  0  0  0  0
 27 10  1  0  0  0  0
 28 11  1  0  0  0  0
 29 17  1  0  0  0  0
 30 18  1  0  0  0  0
 34 21  1  0  0  0  0
 36 22  1  0  0  0  0
 38 22  1  0  0  0  0
M  END
