41,44,46
q = 0.0, confidence = 0.958

 47 50  0  0  0  0  0  0  0  0999 V2000
   -3.4988    2.1719    1.8285 C   0  0  0  0  0  0  0  0  0  0  0  0
   -4.2957    2.8498    2.1970 H   0  0  0  0  0  0  0  0  0  0  0  0
   -2.5397    2.7086    1.9735 H   0  0  0  0  0  0  0  0  0  0  0  0
   -3.5073    0.8750    2.6326 C   0  0  0  0  0  0  0  0  0  0  0  0
   -3.3062    1.0947    3.7038 H   0  0  0  0  0  0  0  0  0  0  0  0
   -4.5011    0.3879    2.5723 H   0  0  0  0  0  0  0  0  0  0  0  0
   -1.0895    0.2828    2.4104 C   0  0  0  0  0  0  0  0  0  0  0  0
   -1.0559    1.3655    2.6490 H   0  0  0  0  0  0  0  0  0  0  0  0
   -0.7562   -0.2483    3.3250 H   0  0  0  0  0  0  0  0  0  0  0  0
   -0.1522   -0.0107    1.2512 C   0  0  0  0  0  0  0  0  0  0  0  0
    0.8664    0.3720    1.4727 H   0  0  0  0  0  0  0  0  0  0  0  0
   -0.0587   -1.1011    1.0803 H   0  0  0  0  0  0  0  0  0  0  0  0
    0.1816    0.3565   -1.2037 C   0  0  0  0  0  0  0  0  0  0  0  0
    0.1245   -0.7228   -1.4309 H   0  0  0  0  0  0  0  0  0  0  0  0
   -0.3073    0.8869   -2.0436 H   0  0  0  0  0  0  0  0  0  0  0  0
    1.5913    0.8467   -1.0106 C   0  0  0  0  0  0  0  0  0  0  0  0
    1.8376    2.2273   -1.1609 C   0  0  0  0  0  0  0  0  0  0  0  0
    1.0179    2.8841   -1.4988 H   0  0  0  0  0  0  0  0  0  0  0  0
    3.0960    2.7805   -0.9190 C   0  0  0  0  0  0  0  0  0  0  0  0
    3.2642    3.8595   -1.0541 H   0  0  0  0  0  0  0  0  0  0  0  0
    4.1730    1.9595   -0.5149 C   0  0  0  0  0  0  0  0  0  0  0  0
    5.4804    2.4988   -0.2553 C   0  0  0  0  0  0  0  0  0  0  0  0
    5.6328    3.5820   -0.3760 H   0  0  0  0  0  0  0  0  0  0  0  0
    6.5195    1.6879    0.1306 C   0  0  0  0  0  0  0  0  0  0  0  0
    7.5157    2.1140    0.3244 H   0  0  0  0  0  0  0  0  0  0  0  0
    6.3383    0.2703    0.2877 C   0  0  0  0  0  0  0  0  0  0  0  0
    7.3948   -0.5814    0.6818 C   0  0  0  0  0  0  0  0  0  0  0  0
    8.3865   -0.1449    0.8759 H   0  0  0  0  0  0  0  0  0  0  0  0
    7.1935   -1.9609    0.8230 C   0  0  0  0  0  0  0  0  0  0  0  0
    8.0301   -2.6067    1.1280 H   0  0  0  0  0  0  0  0  0  0  0  0
    5.9344   -2.5226    0.5753 C   0  0  0  0  0  0  0  0  0  0  0  0
    5.7800   -3.6072    0.6831 H   0  0  0  0  0  0  0  0  0  0  0  0
    4.8478   -1.7103    0.1804 C   0  0  0  0  0  0  0  0  0  0  0  0
    3.5458   -2.2514   -0.0903 C   0  0  0  0  0  0  0  0  0  0  0  0
    3.3993   -3.3384    0.0043 H   0  0  0  0  0  0  0  0  0  0  0  0
    2.4985   -1.4476   -0.4733 C   0  0  0  0  0  0  0  0  0  0  0  0
    1.5280   -1.9180   -0.6873 H   0  0  0  0  0  0  0  0  0  0  0  0
    2.6544   -0.0218   -0.6229 C   0  0  0  0  0  0  0  0  0  0  0  0
    3.9556    0.5451   -0.3690 C   0  0  0  0  0  0  0  0  0  0  0  0
    5.0425   -0.2958    0.0325 C   0  0  0  0  0  0  0  0  0  0  0  0
   -3.6443    1.8823    0.3736 N   0  0  0  0  0  0  0  0  0  0  0  0
   -3.2561    2.6568   -0.1838 H   0  0  0  0  0  0  0  0  0  0  0  0
   -4.6413    1.8522    0.1161 H   0  0  0  0  0  0  0  0  0  0  0  0
   -2.5059   -0.0775    2.0739 N   0  0  0  0  0  0  0  0  0  0  0  0
   -2.7072   -1.0136    2.4498 H   0  0  0  0  0  0  0  0  0  0  0  0
   -0.6974    0.5996    0.0053 N   0  0  0  0  0  0  0  0  0  0  0  0
   -0.6775    1.6238    0.1484 H   0  0  0  0  0  0  0  0  0  0  0  0
  1  3  1  0  0  0  0
  1  2  1  0  0  0  0
  1  4  1  0  0  0  0
  4  5  1  0  0  0  0
  6  4  1  0  0  0  0
  7  8  1  0  0  0  0
  7  9  1  0  0  0  0
 10 11  1  0  0  0  0
 10  7  1  0  0  0  0
 12 10  1  0  0  0  0
 13 16  1  0  0  0  0
 13 46  1  0  0  0  0
 14 13  1  0  0  0  0
 15 13  1  0  0  0  0
 16 38  1  0  0  0  0
 17 16  2  0  0  0  0
 17 19  1  0  0  0  0
 18 17  1  0  0  0  0
 19 21  2  0  0  0  0
 20 19  1  0  0  0  0
 21 39  1  0  0  0  0
 21 22  1  0  0  0  0
 22 24  2  0  0  0  0
 23 22  1  0  0  0  0
 24 26  1  0  0  0  0
 24 25  1  0  0  0  0
 26 27  1  0  0  0  0
 27 29  2  0  0  0  0
 27 28  1  0  0  0  0
 29 30  1  0  0  0  0
 31 32  1  0  0  0  0
 31 29  1  0  0  0  0
 33 31  2  0  0  0  0
 34 35  1  0  0  0  0
 34 33  1  0  0  0  0
 36 34  2  0  0  0  0
 37 36  1  0  0  0  0
 38 36  1  0  0  0  0
 38 39  2  0  0  0  0
 39 40  1  0  0  0  0
 40 33  1  0  0  0  0
 40 26  2  0  0  0  0
 41  1  1  0  0  0  0
 42 41  1  0  0  0  0
 43 41  1  0  0  0  0
 44  7  1  0  0  0  0
 44 45  1  0  0  0  0
 44  4  1  0  0  0  0
 46 47  1  0  0  0  0
 46 10  1  0  0  0  0
M  END
