4,5,6
q = -2.0, confidence = 0.976

 81 84  0  0  1  0  0  0  0  0999 V2000
    1.9163   -3.8092    0.3457 O   0  0  0  0  0  0  0  0  0  0  0  0
    2.9979    3.1304    0.0367 O   0  0  0  0  0  0  0  0  0  0  0  0
    6.2864   -1.0362   -0.6630 O   0  0  0  0  0  0  0  0  0  0  0  0
    0.4642   -1.9551    0.3465 N   0  0  0  0  0  2  0  0  0  0  0  0
    2.2662   -0.3153   -0.0222 N   0  0  0  0  0  2  0  0  0  0  0  0
    1.0431    1.8215    0.2383 N   0  0  0  0  0  2  0  0  0  0  0  0
   -3.6260    3.7262   -0.9861 N   0  0  0  0  0  0  0  0  0  0  0  0
   -5.1361    0.3530   -0.3795 N   0  0  0  0  0  0  0  0  0  0  0  0
   -5.2781   -3.4537   -0.3833 N   0  0  0  0  0  0  0  0  0  0  0  0
    1.6811   -2.5958    0.2397 C   0  0  0  0  0  0  0  0  0  0  0  0
    2.7462   -1.5812   -0.0422 C   0  0  2  0  0  3  0  0  0  0  0  0
    4.0998   -1.8338   -0.2556 C   0  0  0  0  0  0  0  0  0  0  0  0
    4.4618   -2.8710   -0.2575 H   0  0  0  0  0  0  0  0  0  0  0  0
    4.9732   -0.7368   -0.4484 C   0  0  0  0  0  0  0  0  0  0  0  0
    4.4583    0.5775   -0.3951 C   0  0  0  0  0  0  0  0  0  0  0  0
    5.0598    1.4909   -0.4929 H   0  0  0  0  0  0  0  0  0  0  0  0
    3.0867    0.7430   -0.1739 C   0  0  0  0  0  0  0  0  0  0  0  0
    2.3851    2.0491    0.0333 C   0  0  0  0  0  0  0  0  0  0  0  0
    0.2591    2.8934    0.7026 C   0  0  0  0  0  0  0  0  0  0  0  0
    0.6515    3.6199    1.8531 C   0  0  0  0  0  0  0  0  0  0  0  0
    1.5866    3.3453    2.3607 H   0  0  0  0  0  0  0  0  0  0  0  0
   -0.1400    4.6669    2.3342 C   0  0  0  0  0  0  0  0  0  0  0  0
    0.1700    5.2154    3.2383 H   0  0  0  0  0  0  0  0  0  0  0  0
   -1.3315    5.0142    1.6779 C   0  0  0  0  0  0  0  0  0  0  0  0
   -1.9614    5.8340    2.0613 H   0  0  0  0  0  0  0  0  0  0  0  0
   -1.7251    4.3184    0.5196 C   0  0  0  0  0  0  0  0  0  0  0  0
   -0.9332    3.2571    0.0456 C   0  0  0  0  0  0  0  0  0  0  0  0
   -1.2392    2.6977   -0.8477 H   0  0  0  0  0  0  0  0  0  0  0  0
   -2.9589    4.7732   -0.2349 C   0  0  0  0  0  0  0  0  0  0  0  0
   -3.6567    5.2909    0.4838 H   0  0  0  0  0  0  0  0  0  0  0  0
   -2.6587    5.5586   -0.9671 H   0  0  0  0  0  0  0  0  0  0  0  0
   -4.6062    4.2601   -1.9037 C   0  0  0  0  0  0  0  0  0  0  0  0
   -5.0632    3.4446   -2.4999 H   0  0  0  0  0  0  0  0  0  0  0  0
   -4.1281    4.9707   -2.6105 H   0  0  0  0  0  0  0  0  0  0  0  0
   -5.4462    4.8078   -1.3878 H   0  0  0  0  0  0  0  0  0  0  0  0
   -4.1563    2.6497   -0.1552 C   0  0  0  0  0  0  0  0  0  0  0  0
   -5.1684    2.9190    0.2524 H   0  0  0  0  0  0  0  0  0  0  0  0
   -3.4880    2.5123    0.7169 H   0  0  0  0  0  0  0  0  0  0  0  0
   -4.1912    1.3236   -0.9261 C   0  0  0  0  0  0  0  0  0  0  0  0
   -4.4018    1.5227   -2.0137 H   0  0  0  0  0  0  0  0  0  0  0  0
   -3.1703    0.8894   -0.8575 H   0  0  0  0  0  0  0  0  0  0  0  0
   -6.5173    0.7196   -0.6155 C   0  0  0  0  0  0  0  0  0  0  0  0
   -6.7413    1.7168   -0.1873 H   0  0  0  0  0  0  0  0  0  0  0  0
   -7.2058   -0.0061   -0.1365 H   0  0  0  0  0  0  0  0  0  0  0  0
   -6.7761    0.7555   -1.7127 H   0  0  0  0  0  0  0  0  0  0  0  0
   -4.8522   -0.9970   -0.8430 C   0  0  0  0  0  0  0  0  0  0  0  0
   -3.7534   -1.0837   -0.9482 H   0  0  0  0  0  0  0  0  0  0  0  0
   -5.2830   -1.1790   -1.8677 H   0  0  0  0  0  0  0  0  0  0  0  0
   -5.3296   -2.0858    0.1340 C   0  0  0  0  0  0  0  0  0  0  0  0
   -4.7067   -2.0206    1.0507 H   0  0  0  0  0  0  0  0  0  0  0  0
   -6.3761   -1.8897    0.4502 H   0  0  0  0  0  0  0  0  0  0  0  0
   -6.3589   -3.7926   -1.2835 C   0  0  0  0  0  0  0  0  0  0  0  0
   -7.3358   -3.5683   -0.8062 H   0  0  0  0  0  0  0  0  0  0  0  0
   -6.3321   -4.8810   -1.5076 H   0  0  0  0  0  0  0  0  0  0  0  0
   -6.3382   -3.2570   -2.2717 H   0  0  0  0  0  0  0  0  0  0  0  0
   -3.9722   -3.8409   -0.9122 C   0  0  0  0  0  0  0  0  0  0  0  0
   -3.7084   -3.3023   -1.8604 H   0  0  0  0  0  0  0  0  0  0  0  0
   -4.0410   -4.9179   -1.1887 H   0  0  0  0  0  0  0  0  0  0  0  0
   -2.8504   -3.6602    0.0877 C   0  0  0  0  0  0  0  0  0  0  0  0
   -2.9049   -4.3275    1.3273 C   0  0  0  0  0  0  0  0  0  0  0  0
   -3.7931   -4.9316    1.5695 H   0  0  0  0  0  0  0  0  0  0  0  0
   -1.8389   -4.2120    2.2315 C   0  0  0  0  0  0  0  0  0  0  0  0
   -1.8795   -4.7402    3.1977 H   0  0  0  0  0  0  0  0  0  0  0  0
   -0.7161   -3.4364    1.9145 C   0  0  0  0  0  0  0  0  0  0  0  0
    0.1296   -3.3539    2.6116 H   0  0  0  0  0  0  0  0  0  0  0  0
   -0.6509   -2.7432    0.6852 C   0  0  0  0  0  0  0  0  0  0  0  0
   -1.7360   -2.8578   -0.2118 C   0  0  0  0  0  0  0  0  0  0  0  0
   -1.6684   -2.3217   -1.1708 H   0  0  0  0  0  0  0  0  0  0  0  0
    7.2032    0.0349   -0.8337 C   0  0  0  0  0  0  0  0  0  0  0  0
    7.1866    0.7048    0.0599 H   0  0  0  0  0  0  0  0  0  0  0  0
    6.9106    0.6548   -1.7134 H   0  0  0  0  0  0  0  0  0  0  0  0
    8.6038   -0.5459   -1.0287 C   0  0  0  0  0  0  0  0  0  0  0  0
    8.5487   -1.2155   -1.9166 H   0  0  0  0  0  0  0  0  0  0  0  0
    9.0321   -1.3856    0.1795 C   0  0  0  0  0  0  0  0  0  0  0  0
    8.2886   -2.1784    0.3891 H   0  0  0  0  0  0  0  0  0  0  0  0
    9.1172   -0.7512    1.0880 H   0  0  0  0  0  0  0  0  0  0  0  0
   10.0179   -1.8640    0.0075 H   0  0  0  0  0  0  0  0  0  0  0  0
    9.5990    0.5804   -1.3273 C   0  0  0  0  0  0  0  0  0  0  0  0
    9.3045    1.1651   -2.2230 H   0  0  0  0  0  0  0  0  0  0  0  0
   10.6157    0.1755   -1.5059 H   0  0  0  0  0  0  0  0  0  0  0  0
    9.6680    1.2869   -0.4726 H   0  0  0  0  0  0  0  0  0  0  0  0
  3 14  1  0  0  0  0
  4 66  1  0  0  0  0
  6 19  1  0  0  0  0
  7 29  1  0  0  0  0
  7 36  1  0  0  0  0
  9 49  1  0  0  0  0
 10  1  2  0  0  0  0
 10  4  1  0  0  0  0
 11 12  1  1  0  0  0
 11  5  1  0  0  0  0
 11 10  1  0  0  0  0
 13 12  1  0  0  0  0
 14 15  1  0  0  0  0
 14 12  2  0  0  0  0
 15 17  2  0  0  0  0
 16 15  1  0  0  0  0
 17  5  1  0  0  0  0
 17 18  1  0  0  0  0
 18  2  2  0  0  0  0
 18  6  1  0  0  0  0
 19 20  1  0  0  0  0
 20 22  2  0  0  0  0
 20 21  1  0  0  0  0
 22 23  1  0  0  0  0
 24 25  1  0  0  0  0
 24 22  1  0  0  0  0
 26 24  2  0  0  0  0
 27 26  1  0  0  0  0
 27 19  2  0  0  0  0
 28 27  1  0  0  0  0
 29 30  1  0  0  0  0
 29 26  1  0  0  0  0
 31 29  1  0  0  0  0
 32 35  1  0  0  0  0
 32  7  1  0  0  0  0
 33 32  1  0  0  0  0
 34 32  1  0  0  0  0
 36 37  1  0  0  0  0
 36 38  1  0  0  0  0
 39 41  1  0  0  0  0
 39  8  1  0  0  0  0
 39 36  1  0  0  0  0
 40 39  1  0  0  0  0
 42  8  1  0  0  0  0
 42 43  1  0  0  0  0
 42 44  1  0  0  0  0
 45 42  1  0  0  0  0
 46  8  1  0  0  0  0
 46 49  1  0  0  0  0
 47 46  1  0  0  0  0
 48 46  1  0  0  0  0
 49 51  1  0  0  0  0
 49 50  1  0  0  0  0
 52 53  1  0  0  0  0
 52  9  1  0  0  0  0
 54 52  1  0  0  0  0
 55 52  1  0  0  0  0
 56  9  1  0  0  0  0
 56 59  1  0  0  0  0
 57 56  1  0  0  0  0
 58 56  1  0  0  0  0
 59 60  1  0  0  0  0
 60 61  1  0  0  0  0
 60 62  2  0  0  0  0
 62 63  1  0  0  0  0
 64 62  1  0  0  0  0
 64 65  1  0  0  0  0
 66 64  2  0  0  0  0
 67 59  2  0  0  0  0
 67 66  1  0  0  0  0
 68 67  1  0  0  0  0
 69  3  1  0  0  0  0
 69 70  1  0  0  0  0
 71 69  1  0  0  0  0
 72 69  1  0  0  0  0
 72 74  1  0  0  0  0
 73 72  1  0  0  0  0
 74 75  1  0  0  0  0
 74 76  1  0  0  0  0
 77 74  1  0  0  0  0
 78 72  1  0  0  0  0
 78 81  1  0  0  0  0
 79 78  1  0  0  0  0
 80 78  1  0  0  0  0
M  END
