3,7,8
q = 0.0, confidence = 1.0

 40 43  0  0  1  0  0  0  0  0999 V2000
    8.0094    0.0533    0.1467 O   0  0  0  0  0  0  0  0  0  0  0  0
    8.3329   -0.7197    0.6464 H   0  0  0  0  0  0  0  0  0  0  0  0
   -0.4442    0.0103   -0.3731 N   0  0  0  0  0  2  0  0  0  0  0  0
    0.2099   -1.1602   -0.3436 C   0  0  0  0  0  0  0  0  0  0  0  0
    3.8200    0.0002   -0.1021 C   0  0  0  0  0  0  0  0  0  0  0  0
    6.6556    0.0014    0.0871 C   0  0  0  0  0  0  0  0  0  0  0  0
   -2.0000   -2.0771   -0.3103 N   0  0  0  0  0  2  0  0  0  0  0  0
   -1.9949    2.0953   -0.2006 N   0  0  0  0  0  2  0  0  0  0  0  0
    1.6109   -1.2034   -0.2668 C   0  0  0  0  0  0  0  0  0  0  0  0
    2.1419   -2.1647   -0.2702 H   0  0  0  0  0  0  0  0  0  0  0  0
    2.3443    0.0033   -0.1984 C   0  0  0  0  0  0  0  0  0  0  0  0
    0.2129    1.1769   -0.2934 C   0  0  0  0  0  0  0  0  0  0  0  0
    4.5060   -1.0309    0.5781 C   0  0  0  0  0  0  0  0  0  0  0  0
    3.9364   -1.8313    1.0734 H   0  0  0  0  0  0  0  0  0  0  0  0
    1.6139    1.2137   -0.2103 C   0  0  0  0  0  0  0  0  0  0  0  0
    2.1429    2.1705   -0.1067 H   0  0  0  0  0  0  0  0  0  0  0  0
   -0.6811   -2.3552   -0.3909 C   0  0  0  0  0  0  0  0  0  0  0  0
    5.9005   -1.0332    0.6775 C   0  0  0  0  0  0  0  0  0  0  0  0
    6.4121   -1.8384    1.2299 H   0  0  0  0  0  0  0  0  0  0  0  0
    4.5948    1.0322   -0.6842 C   0  0  0  0  0  0  0  0  0  0  0  0
    4.0943    1.8356   -1.2453 H   0  0  0  0  0  0  0  0  0  0  0  0
   -0.6758    2.3743   -0.2753 C   0  0  1  0  0  3  0  0  0  0  0  0
   -0.2177    3.7025   -0.3416 C   0  0  0  0  0  0  0  0  0  0  0  0
    0.8559    3.9255   -0.4127 H   0  0  0  0  0  0  0  0  0  0  0  0
    5.9874    1.0370   -0.5995 C   0  0  0  0  0  0  0  0  0  0  0  0
    6.5857    1.8321   -1.0666 H   0  0  0  0  0  0  0  0  0  0  0  0
   -2.5253    4.4308   -0.2585 C   0  0  0  0  0  0  0  0  0  0  0  0
   -3.2913    5.2195   -0.2513 H   0  0  0  0  0  0  0  0  0  0  0  0
   -1.1593    4.7412   -0.3280 C   0  0  0  0  0  0  0  0  0  0  0  0
   -0.8253    5.7885   -0.3772 H   0  0  0  0  0  0  0  0  0  0  0  0
   -2.9007    3.0797   -0.1990 C   0  0  0  0  0  0  0  0  0  0  0  0
   -3.9517    2.7429   -0.1552 H   0  0  0  0  0  0  0  0  0  0  0  0
   -2.5353   -4.4056   -0.4853 C   0  0  0  0  0  0  0  0  0  0  0  0
   -3.3031   -5.1917   -0.5214 H   0  0  0  0  0  0  0  0  0  0  0  0
   -0.2257   -3.6797   -0.5200 C   0  0  0  0  0  0  0  0  0  0  0  0
    0.8479   -3.9020   -0.5958 H   0  0  0  0  0  0  0  0  0  0  0  0
   -2.9079   -3.0582   -0.3606 C   0  0  0  0  0  0  0  0  0  0  0  0
   -3.9583   -2.7212   -0.3043 H   0  0  0  0  0  0  0  0  0  0  0  0
   -1.1696   -4.7154   -0.5635 C   0  0  0  0  0  0  0  0  0  0  0  0
   -0.8378   -5.7598   -0.6635 H   0  0  0  0  0  0  0  0  0  0  0  0
  1  2  1  0  0  0  0
  3  4  1  0  0  0  0
  3 12  1  0  0  0  0
  4  9  1  0  0  0  0
  5 13  1  0  0  0  0
  6  1  1  0  0  0  0
  6 18  1  0  0  0  0
  8 31  1  0  0  0  0
  9 11  2  0  0  0  0
 10  9  1  0  0  0  0
 11  5  1  0  0  0  0
 12 15  2  0  0  0  0
 13 18  2  0  0  0  0
 13 14  1  0  0  0  0
 15 11  1  0  0  0  0
 15 16  1  0  0  0  0
 17  4  2  0  0  0  0
 17  7  1  0  0  0  0
 18 19  1  0  0  0  0
 20 25  1  0  0  0  0
 20  5  2  0  0  0  0
 21 20  1  0  0  0  0
 22 12  1  6  0  0  0
 22  8  1  0  0  0  0
 23 29  2  0  0  0  0
 23 22  1  0  0  0  0
 24 23  1  0  0  0  0
 25  6  2  0  0  0  0
 26 25  1  0  0  0  0
 27 28  1  0  0  0  0
 27 31  2  0  0  0  0
 29 27  1  0  0  0  0
 30 29  1  0  0  0  0
 31 32  1  0  0  0  0
 33 37  2  0  0  0  0
 34 33  1  0  0  0  0
 35 17  1  0  0  0  0
 36 35  1  0  0  0  0
 37  7  1  0  0  0  0
 37 38  1  0  0  0  0
 39 35  2  0  0  0  0
 39 33  1  0  0  0  0
 40 39  1  0  0  0  0
M  END
