3,4,5
q = 0.0, confidence = 1.0

 40 43  0  0  1  0  0  0  0  0999 V2000
   -6.6892    1.4613    1.1695 O   0  0  0  0  0  0  0  0  0  0  0  0
   -7.6433    1.2613    1.1418 H   0  0  0  0  0  0  0  0  0  0  0  0
    2.1121   -2.0068   -0.1587 N   0  0  0  0  0  2  0  0  0  0  0  0
    0.4034   -0.0550   -0.3925 N   0  0  0  0  0  2  0  0  0  0  0  0
    1.7896    2.1496   -0.3409 N   0  0  0  0  0  2  0  0  0  0  0  0
    3.0923   -2.9162   -0.1178 C   0  0  0  0  0  3  0  0  0  0  0  0
    4.1128   -2.4964   -0.0674 H   0  0  0  0  0  0  0  0  0  0  0  0
    2.8253   -4.2938   -0.1462 C   0  0  0  0  0  0  0  0  0  0  0  0
    3.6507   -5.0190   -0.1070 H   0  0  0  0  0  0  0  0  0  0  0  0
    1.4892   -4.7129   -0.2261 C   0  0  0  0  0  0  0  0  0  0  0  0
    1.2394   -5.7843   -0.2510 H   0  0  0  0  0  0  0  0  0  0  0  0
    0.4692   -3.7526   -0.2805 C   0  0  0  0  0  0  0  0  0  0  0  0
   -0.5824   -4.0618   -0.3585 H   0  0  0  0  0  0  0  0  0  0  0  0
    0.8204   -2.3912   -0.2439 C   0  0  0  0  0  0  0  0  0  0  0  0
   -0.1596   -1.2691   -0.3057 C   0  0  1  0  0  3  0  0  0  0  0  0
   -1.5558   -1.4156   -0.2587 C   0  0  0  0  0  0  0  0  0  0  0  0
   -2.0140   -2.4082   -0.1555 H   0  0  0  0  0  0  0  0  0  0  0  0
   -2.3757   -0.2663   -0.2895 C   0  0  0  0  0  0  0  0  0  0  0  0
   -1.7424    0.9939   -0.3595 C   0  0  0  0  0  0  0  0  0  0  0  0
   -2.3508    1.9076   -0.3908 H   0  0  0  0  0  0  0  0  0  0  0  0
   -0.3402    1.0609   -0.4017 C   0  0  0  0  0  0  0  0  0  0  0  0
    0.4547    2.3216   -0.4498 C   0  0  2  0  0  3  0  0  0  0  0  0
   -0.1019    3.6038   -0.6053 C   0  0  0  0  0  0  0  0  0  0  0  0
   -1.1881    3.7394   -0.7025 H   0  0  0  0  0  0  0  0  0  0  0  0
    0.7579    4.7105   -0.6460 C   0  0  0  0  0  0  0  0  0  0  0  0
    0.3463    5.7239   -0.7658 H   0  0  0  0  0  0  0  0  0  0  0  0
    2.1420    4.5109   -0.5390 C   0  0  0  0  0  0  0  0  0  0  0  0
    2.8457    5.3550   -0.5721 H   0  0  0  0  0  0  0  0  0  0  0  0
    2.6177    3.1990   -0.3886 C   0  0  0  0  0  0  0  0  0  0  0  0
    3.6903    2.9475   -0.3084 H   0  0  0  0  0  0  0  0  0  0  0  0
   -3.8541   -0.3809   -0.2381 C   0  0  0  0  0  0  0  0  0  0  0  0
   -4.6169    0.5923    0.4361 C   0  0  0  0  0  0  0  0  0  0  0  0
   -4.1361    1.4270    0.9655 H   0  0  0  0  0  0  0  0  0  0  0  0
   -6.0198    0.4931    0.4909 C   0  0  0  0  0  0  0  0  0  0  0  0
   -6.6687   -0.5877   -0.1402 C   0  0  0  0  0  0  0  0  0  0  0  0
   -7.7673   -0.6684   -0.0997 H   0  0  0  0  0  0  0  0  0  0  0  0
   -5.9105   -1.5548   -0.8149 C   0  0  0  0  0  0  0  0  0  0  0  0
   -6.4232   -2.3904   -1.3146 H   0  0  0  0  0  0  0  0  0  0  0  0
   -4.5142   -1.4629   -0.8661 C   0  0  0  0  0  0  0  0  0  0  0  0
   -3.9344   -2.2120   -1.4238 H   0  0  0  0  0  0  0  0  0  0  0  0
  2  1  1  0  0  0  0
  3  6  1  0  0  0  0
  4 15  1  0  0  0  0
  6  7  1  0  0  0  0
  8  6  1  0  0  0  0
  8  9  1  0  0  0  0
 10  8  2  0  0  0  0
 11 10  1  0  0  0  0
 12 14  2  0  0  0  0
 12 10  1  0  0  0  0
 13 12  1  0  0  0  0
 14  3  1  0  0  0  0
 15 16  1  0  0  0  0
 15 14  1  1  0  0  0
 16 17  1  0  0  0  0
 18 16  2  0  0  0  0
 18 31  1  0  0  0  0
 19 18  1  0  0  0  0
 20 19  1  0  0  0  0
 21  4  1  0  0  0  0
 21 19  2  0  0  0  0
 22 21  1  6  0  0  0
 22  5  1  0  0  0  0
 23 22  1  0  0  0  0
 24 23  1  0  0  0  0
 25 23  2  0  0  0  0
 25 27  1  0  0  0  0
 26 25  1  0  0  0  0
 27 29  2  0  0  0  0
 28 27  1  0  0  0  0
 29  5  1  0  0  0  0
 29 30  1  0  0  0  0
 31 32  1  0  0  0  0
 32 34  2  0  0  0  0
 32 33  1  0  0  0  0
 34  1  1  0  0  0  0
 35 36  1  0  0  0  0
 35 34  1  0  0  0  0
 37 35  2  0  0  0  0
 38 37  1  0  0  0  0
 39 37  1  0  0  0  0
 39 31  2  0  0  0  0
 40 39  1  0  0  0  0
M  END
