3,4,5
q = 0.0, confidence = 1.0

 40 43  0  0  1  0  0  0  0  0999 V2000
    4.1233   -1.7318    1.1928 O   0  0  0  0  0  0  0  0  0  0  0  0
    4.7881   -2.2328    1.7014 H   0  0  0  0  0  0  0  0  0  0  0  0
   -1.9265    2.0833   -0.1747 N   0  0  0  0  0  2  0  0  0  0  0  0
   -0.3073    0.0541   -0.3855 N   0  0  0  0  0  2  0  0  0  0  0  0
   -1.7908   -2.0866   -0.3658 N   0  0  0  0  0  2  0  0  0  0  0  0
   -2.8637    3.0373   -0.1456 C   0  0  0  0  0  3  0  0  0  0  0  0
   -3.9034    2.6653   -0.1176 H   0  0  0  0  0  0  0  0  0  0  0  0
   -2.5324    4.4010   -0.1593 C   0  0  0  0  0  0  0  0  0  0  0  0
   -3.3235    5.1639   -0.1303 H   0  0  0  0  0  0  0  0  0  0  0  0
   -1.1767    4.7573   -0.2115 C   0  0  0  0  0  0  0  0  0  0  0  0
   -0.8767    5.8159   -0.2242 H   0  0  0  0  0  0  0  0  0  0  0  0
   -0.2019    3.7507   -0.2539 C   0  0  0  0  0  0  0  0  0  0  0  0
    0.8643    4.0107   -0.3105 H   0  0  0  0  0  0  0  0  0  0  0  0
   -0.6169    2.4069   -0.2331 C   0  0  0  0  0  0  0  0  0  0  0  0
    0.3100    1.2399   -0.2841 C   0  0  1  0  0  3  0  0  0  0  0  0
    1.7101    1.3196   -0.2132 C   0  0  0  0  0  0  0  0  0  0  0  0
    2.2103    2.2904   -0.0972 H   0  0  0  0  0  0  0  0  0  0  0  0
    2.4808    0.1346   -0.2381 C   0  0  0  0  0  0  0  0  0  0  0  0
    1.7893   -1.0953   -0.3191 C   0  0  0  0  0  0  0  0  0  0  0  0
    2.3507   -2.0361   -0.3152 H   0  0  0  0  0  0  0  0  0  0  0  0
    0.3867   -1.0934   -0.3861 C   0  0  0  0  0  0  0  0  0  0  0  0
   -0.4629   -2.3171   -0.4495 C   0  0  2  0  0  3  0  0  0  0  0  0
    0.0391   -3.6229   -0.5955 C   0  0  0  0  0  0  0  0  0  0  0  0
    1.1201   -3.8048   -0.6716 H   0  0  0  0  0  0  0  0  0  0  0  0
   -0.8679   -4.6902   -0.6542 C   0  0  0  0  0  0  0  0  0  0  0  0
   -0.4996   -5.7209   -0.7676 H   0  0  0  0  0  0  0  0  0  0  0  0
   -2.2439   -4.4298   -0.5737 C   0  0  0  0  0  0  0  0  0  0  0  0
   -2.9835   -5.2418   -0.6217 H   0  0  0  0  0  0  0  0  0  0  0  0
   -2.6636   -3.0982   -0.4305 C   0  0  0  0  0  0  0  0  0  0  0  0
   -3.7253   -2.7993   -0.3707 H   0  0  0  0  0  0  0  0  0  0  0  0
    3.9608    0.2126   -0.1942 C   0  0  0  0  0  0  0  0  0  0  0  0
    4.7521   -0.7208    0.5332 C   0  0  0  0  0  0  0  0  0  0  0  0
    6.1524   -0.5786    0.5759 C   0  0  0  0  0  0  0  0  0  0  0  0
    6.7450   -1.3069    1.1541 H   0  0  0  0  0  0  0  0  0  0  0  0
    6.7878    0.4692   -0.1005 C   0  0  0  0  0  0  0  0  0  0  0  0
    7.8836    0.5580   -0.0574 H   0  0  0  0  0  0  0  0  0  0  0  0
    6.0259    1.3934   -0.8320 C   0  0  0  0  0  0  0  0  0  0  0  0
    6.5147    2.2126   -1.3785 H   0  0  0  0  0  0  0  0  0  0  0  0
    4.6333    1.2582   -0.8660 C   0  0  0  0  0  0  0  0  0  0  0  0
    4.0347    1.9696   -1.4545 H   0  0  0  0  0  0  0  0  0  0  0  0
  1  2  1  0  0  0  0
  3  6  1  0  0  0  0
  4 15  1  0  0  0  0
  6  7  1  0  0  0  0
  8  6  1  0  0  0  0
  8  9  1  0  0  0  0
 10  8  2  0  0  0  0
 11 10  1  0  0  0  0
 12 14  2  0  0  0  0
 12 10  1  0  0  0  0
 13 12  1  0  0  0  0
 14  3  1  0  0  0  0
 15 14  1  1  0  0  0
 15 16  1  0  0  0  0
 16 17  1  0  0  0  0
 18 16  2  0  0  0  0
 18 31  1  0  0  0  0
 19 20  1  0  0  0  0
 19 18  1  0  0  0  0
 21  4  1  0  0  0  0
 21 19  2  0  0  0  0
 22 21  1  6  0  0  0
 22  5  1  0  0  0  0
 23 22  1  0  0  0  0
 24 23  1  0  0  0  0
 25 23  2  0  0  0  0
 25 27  1  0  0  0  0
 26 25  1  0  0  0  0
 27 29  2  0  0  0  0
 28 27  1  0  0  0  0
 29 30  1  0  0  0  0
 29  5  1  0  0  0  0
 31 32  1  0  0  0  0
 32 33  2  0  0  0  0
 32  1  1  0  0  0  0
 33 34  1  0  0  0  0
 35 36  1  0  0  0  0
 35 33  1  0  0  0  0
 37 35  2  0  0  0  0
 38 37  1  0  0  0  0
 39 37  1  0  0  0  0
 39 31  2  0  0  0  0
 40 39  1  0  0  0  0
M  END
