1,2,3
q = 0.0, confidence = 0.984

 63 66  0  0  1  0  0  0  0  0999 V2000
   -1.8102   -0.4665   -0.2045 N   0  0  0  0  0  0  0  0  0  0  0  0
   -0.0436    1.3743    1.4790 N   0  0  0  0  0  0  0  0  0  0  0  0
    0.6640   -1.6745    1.1271 N   0  0  0  0  0  0  0  0  0  0  0  0
   -2.3915   -0.7322    1.1419 C   0  0  2  0  0  0  0  0  0  0  0  0
   -2.2761    0.4787    2.0810 C   0  0  0  0  0  0  0  0  0  0  0  0
   -0.8541    0.7827    2.5771 C   0  0  1  0  0  0  0  0  0  0  0  0
   -0.2008   -0.4803    3.1648 C   0  0  0  0  0  0  0  0  0  0  0  0
   -0.2809   -1.7325    2.2750 C   0  0  1  0  0  0  0  0  0  0  0  0
   -1.7177   -1.9585    1.7762 C   0  0  0  0  0  0  0  0  0  0  0  0
   -2.5565    0.5299   -1.0289 C   0  0  0  0  0  0  0  0  0  0  0  0
   -4.0307    0.2300   -1.1824 C   0  0  0  0  0  0  0  0  0  0  0  0
   -5.0067    1.0008   -0.5218 C   0  0  0  0  0  0  0  0  0  0  0  0
   -6.3689    0.6819   -0.6355 C   0  0  0  0  0  0  0  0  0  0  0  0
   -6.7696   -0.4169   -1.4106 C   0  0  0  0  0  0  0  0  0  0  0  0
   -5.8057   -1.1906   -2.0785 C   0  0  0  0  0  0  0  0  0  0  0  0
   -4.4466   -0.8663   -1.9668 C   0  0  0  0  0  0  0  0  0  0  0  0
    1.1612    2.1084    1.9437 C   0  0  0  0  0  0  0  0  0  0  0  0
    1.9417    2.6727    0.7819 C   0  0  0  0  0  0  0  0  0  0  0  0
    3.2869    2.3124    0.5771 C   0  0  0  0  0  0  0  0  0  0  0  0
    3.9989    2.7965   -0.5315 C   0  0  0  0  0  0  0  0  0  0  0  0
    3.3700    3.6492   -1.4509 C   0  0  0  0  0  0  0  0  0  0  0  0
    2.0349    4.0343   -1.2449 C   0  0  0  0  0  0  0  0  0  0  0  0
    1.3299    3.5555   -0.1322 C   0  0  0  0  0  0  0  0  0  0  0  0
    2.0989   -1.8329    1.5012 C   0  0  0  0  0  0  0  0  0  0  0  0
    2.9102   -2.2288    0.2931 C   0  0  0  0  0  0  0  0  0  0  0  0
    2.9157   -3.5718   -0.1370 C   0  0  0  0  0  0  0  0  0  0  0  0
    3.5991   -3.9434   -1.3042 C   0  0  0  0  0  0  0  0  0  0  0  0
    4.2872   -2.9749   -2.0533 C   0  0  0  0  0  0  0  0  0  0  0  0
    4.2948   -1.6374   -1.6280 C   0  0  0  0  0  0  0  0  0  0  0  0
    3.6098   -1.2679   -0.4611 C   0  0  0  0  0  0  0  0  0  0  0  0
   -3.4747   -0.9592    1.0219 H   0  0  0  0  0  0  0  0  0  0  0  0
   -2.7231    1.3832    1.6184 H   0  0  0  0  0  0  0  0  0  0  0  0
   -2.9067    0.2663    2.9679 H   0  0  0  0  0  0  0  0  0  0  0  0
   -0.9335    1.5323    3.3998 H   0  0  0  0  0  0  0  0  0  0  0  0
    0.8483   -0.2810    3.4612 H   0  0  0  0  0  0  0  0  0  0  0  0
   -0.7282   -0.7134    4.1122 H   0  0  0  0  0  0  0  0  0  0  0  0
    0.0000   -2.6068    2.9090 H   0  0  0  0  0  0  0  0  0  0  0  0
   -2.3321   -2.2671    2.6461 H   0  0  0  0  0  0  0  0  0  0  0  0
   -1.7484   -2.8206    1.0730 H   0  0  0  0  0  0  0  0  0  0  0  0
   -1.8550   -1.3575   -0.7208 H   0  0  0  0  0  0  0  0  0  0  0  0
   -0.6396    2.0682    1.0053 H   0  0  0  0  0  0  0  0  0  0  0  0
    0.4505   -2.4787    0.5176 H   0  0  0  0  0  0  0  0  0  0  0  0
   -2.4126    1.5356   -0.5857 H   0  0  0  0  0  0  0  0  0  0  0  0
   -2.0532    0.5495   -2.0169 H   0  0  0  0  0  0  0  0  0  0  0  0
   -4.6985    1.8709    0.0806 H   0  0  0  0  0  0  0  0  0  0  0  0
   -7.1211    1.2967   -0.1191 H   0  0  0  0  0  0  0  0  0  0  0  0
   -7.8369   -0.6670   -1.5028 H   0  0  0  0  0  0  0  0  0  0  0  0
   -6.1173   -2.0431   -2.7002 H   0  0  0  0  0  0  0  0  0  0  0  0
   -3.6989   -1.4665   -2.5123 H   0  0  0  0  0  0  0  0  0  0  0  0
    0.8594    2.9172    2.6514 H   0  0  0  0  0  0  0  0  0  0  0  0
    1.7997    1.4083    2.5161 H   0  0  0  0  0  0  0  0  0  0  0  0
    3.7863    1.6496    1.3018 H   0  0  0  0  0  0  0  0  0  0  0  0
    5.0500    2.5055   -0.6767 H   0  0  0  0  0  0  0  0  0  0  0  0
    3.9235    4.0254   -2.3239 H   0  0  0  0  0  0  0  0  0  0  0  0
    1.5438    4.7190   -1.9521 H   0  0  0  0  0  0  0  0  0  0  0  0
    0.2890    3.8854    0.0250 H   0  0  0  0  0  0  0  0  0  0  0  0
    2.4687   -0.8784    1.9240 H   0  0  0  0  0  0  0  0  0  0  0  0
    2.1908   -2.6083    2.2972 H   0  0  0  0  0  0  0  0  0  0  0  0
    2.3943   -4.3402    0.4579 H   0  0  0  0  0  0  0  0  0  0  0  0
    3.6044   -4.9957   -1.6253 H   0  0  0  0  0  0  0  0  0  0  0  0
    4.8269   -3.2666   -2.9665 H   0  0  0  0  0  0  0  0  0  0  0  0
    4.8356   -0.8751   -2.2086 H   0  0  0  0  0  0  0  0  0  0  0  0
    3.6165   -0.2186   -0.1314 H   0  0  0  0  0  0  0  0  0  0  0  0
  1  4  1  0  0  0  0
  2 17  1  0  0  0  0
  2  6  1  0  0  0  0
  3 24  1  0  0  0  0
  3  8  1  0  0  0  0
  4 31  1  6  0  0  0
  4  9  1  0  0  0  0
  4  5  1  0  0  0  0
  5  6  1  0  0  0  0
  5 33  1  0  0  0  0
  6  7  1  0  0  0  0
  6 34  1  1  0  0  0
  7 35  1  0  0  0  0
  7 36  1  0  0  0  0
  8 37  1  1  0  0  0
  8  7  1  0  0  0  0
  9  8  1  0  0  0  0
  9 38  1  0  0  0  0
 10 43  1  0  0  0  0
 10  1  1  0  0  0  0
 11 10  1  0  0  0  0
 11 12  1  0  0  0  0
 12 45  1  0  0  0  0
 13 12  2  0  0  0  0
 13 46  1  0  0  0  0
 14 13  1  0  0  0  0
 15 16  1  0  0  0  0
 15 14  2  0  0  0  0
 16 11  2  0  0  0  0
 17 51  1  0  0  0  0
 17 50  1  0  0  0  0
 18 17  1  0  0  0  0
 19 18  1  0  0  0  0
 19 52  1  0  0  0  0
 20 19  2  0  0  0  0
 21 22  2  0  0  0  0
 21 20  1  0  0  0  0
 22 23  1  0  0  0  0
 23 56  1  0  0  0  0
 23 18  2  0  0  0  0
 24 57  1  0  0  0  0
 24 58  1  0  0  0  0
 25 24  1  0  0  0  0
 26 25  1  0  0  0  0
 26 59  1  0  0  0  0
 27 26  2  0  0  0  0
 28 29  2  0  0  0  0
 28 27  1  0  0  0  0
 29 30  1  0  0  0  0
 30 63  1  0  0  0  0
 30 25  2  0  0  0  0
 32  5  1  0  0  0  0
 39  9  1  0  0  0  0
 40  1  1  0  0  0  0
 41  2  1  0  0  0  0
 42  3  1  0  0  0  0
 44 10  1  0  0  0  0
 47 14  1  0  0  0  0
 48 15  1  0  0  0  0
 49 16  1  0  0  0  0
 53 20  1  0  0  0  0
 54 21  1  0  0  0  0
 55 22  1  0  0  0  0
 60 27  1  0  0  0  0
 61 28  1  0  0  0  0
 62 29  1  0  0  0  0
M  END
