1,16,43
q = -2.0, confidence = 0.824

 53 56  0  0  0  0  0  0  0  0999 V2000
   -1.7987   -1.9676   -0.2964 N   0  0  0  0  0  2  0  0  0  0  0  0
   -1.7145   -3.2716   -0.0260 C   0  0  0  0  0  0  0  0  0  0  0  0
   -0.7676   -3.6275    0.4055 H   0  0  0  0  0  0  0  0  0  0  0  0
   -2.7776   -4.1793   -0.2411 C   0  0  0  0  0  0  0  0  0  0  0  0
   -2.6366   -5.2432   -0.0025 H   0  0  0  0  0  0  0  0  0  0  0  0
   -3.9809   -3.7018   -0.7396 C   0  0  0  0  0  0  0  0  0  0  0  0
   -4.8307   -4.3797   -0.9158 H   0  0  0  0  0  0  0  0  0  0  0  0
   -4.1294   -2.3138   -1.0118 C   0  0  0  0  0  0  0  0  0  0  0  0
   -5.3370   -1.7281   -1.4859 C   0  0  0  0  0  3  0  0  0  0  0  0
   -6.2102   -2.3689   -1.6757 H   0  0  0  0  0  0  0  0  0  0  0  0
   -5.3903   -0.3531   -1.6903 C   0  0  0  0  0  0  0  0  0  0  0  0
   -6.3241    0.1064   -2.0500 H   0  0  0  0  0  0  0  0  0  0  0  0
   -4.2754    0.4795   -1.4428 C   0  0  0  0  0  0  0  0  0  0  0  0
   -4.3638    1.5642   -1.6079 H   0  0  0  0  0  0  0  0  0  0  0  0
   -3.0500   -0.0460   -0.9851 C   0  0  0  0  0  0  0  0  0  0  0  0
   -1.9184    0.6599   -0.7062 N   0  0  0  0  0  2  0  0  0  0  0  0
   -2.9860   -1.4748   -0.7710 C   0  0  0  0  0  0  0  0  0  0  0  0
   -1.5992    2.3705   -0.7479 Si  0  0  0  0  0  0  0  0  0  0  0  0
   -1.7331    3.2190   -2.4162 C   0  0  0  0  0  0  0  0  0  0  0  0
   -2.7909    3.3042   -2.7388 H   0  0  0  0  0  0  0  0  0  0  0  0
   -1.1757    2.6596   -3.1914 H   0  0  0  0  0  0  0  0  0  0  0  0
   -1.3156    4.2456   -2.3598 H   0  0  0  0  0  0  0  0  0  0  0  0
   -2.4205    3.3750    0.5989 C   0  0  0  0  0  0  0  0  0  0  0  0
   -2.2948    2.8860    1.5849 H   0  0  0  0  0  0  0  0  0  0  0  0
   -3.5090    3.4632    0.4022 H   0  0  0  0  0  0  0  0  0  0  0  0
   -2.0016    4.4014    0.6473 H   0  0  0  0  0  0  0  0  0  0  0  0
    0.0525    2.1051   -0.3857 O   0  0  0  0  0  0  0  0  0  0  0  0
    1.8240   -1.8936    0.3523 N   0  0  0  0  0  0  0  0  0  0  0  0
    1.8322   -3.2021    0.0936 C   0  0  0  0  0  0  0  0  0  0  0  0
    0.9808   -3.5984   -0.4797 H   0  0  0  0  0  0  0  0  0  0  0  0
    2.8788   -4.0668    0.4917 C   0  0  0  0  0  0  0  0  0  0  0  0
    2.8168   -5.1378    0.2514 H   0  0  0  0  0  0  0  0  0  0  0  0
    3.9667   -3.5379    1.1703 C   0  0  0  0  0  0  0  0  0  0  0  0
    4.8000   -4.1809    1.4944 H   0  0  0  0  0  0  0  0  0  0  0  0
    4.0210   -2.1416    1.4367 C   0  0  0  0  0  0  0  0  0  0  0  0
    5.1168   -1.5063    2.0852 C   0  0  0  0  0  0  0  0  0  0  0  0
    5.9688   -2.1128    2.4250 H   0  0  0  0  0  0  0  0  0  0  0  0
    5.0915   -0.1273    2.2686 C   0  0  0  0  0  0  0  0  0  0  0  0
    5.9385    0.3699    2.7666 H   0  0  0  0  0  0  0  0  0  0  0  0
    4.0046    0.6609    1.8285 C   0  0  0  0  0  0  0  0  0  0  0  0
    4.0243    1.7497    1.9902 H   0  0  0  0  0  0  0  0  0  0  0  0
    2.8882    0.0860    1.1866 C   0  0  0  0  0  0  0  0  0  0  0  0
    1.8012    0.7523    0.7067 N   0  0  0  0  0  2  0  0  0  0  0  0
    2.9029   -1.3486    0.9994 C   0  0  0  0  0  0  0  0  0  0  0  0
    1.5511    2.4423    0.3739 Si  0  0  0  0  0  0  0  0  0  0  0  0
    2.7574    3.1804   -0.8477 C   0  0  0  0  0  0  0  0  0  0  0  0
    3.7605    3.2801   -0.3838 H   0  0  0  0  0  0  0  0  0  0  0  0
    2.4315    4.1908   -1.1694 H   0  0  0  0  0  0  0  0  0  0  0  0
    2.8524    2.5331   -1.7413 H   0  0  0  0  0  0  0  0  0  0  0  0
    1.2532    3.5911    1.8280 C   0  0  0  0  0  0  0  0  0  0  0  0
    1.0145    4.6141    1.4700 H   0  0  0  0  0  0  0  0  0  0  0  0
    2.1554    3.6634    2.4697 H   0  0  0  0  0  0  0  0  0  0  0  0
    0.4121    3.2289    2.4497 H   0  0  0  0  0  0  0  0  0  0  0  0
  1  2  1  0  0  0  0
  2  3  1  0  0  0  0
  4  2  2  0  0  0  0
  4  5  1  0  0  0  0
  6  4  1  0  0  0  0
  7  6  1  0  0  0  0
  8 17  1  0  0  0  0
  8  6  2  0  0  0  0
  9  8  1  0  0  0  0
 10  9  1  0  0  0  0
 11  9  1  0  0  0  0
 11 13  2  0  0  0  0
 12 11  1  0  0  0  0
 13 15  1  0  0  0  0
 14 13  1  0  0  0  0
 15 17  2  0  0  0  0
 15 16  1  0  0  0  0
 17  1  1  0  0  0  0
 18 16  1  0  0  0  0
 18 27  1  0  0  0  0
 18 23  1  0  0  0  0
 19 22  1  0  0  0  0
 19 18  1  0  0  0  0
 20 19  1  0  0  0  0
 21 19  1  0  0  0  0
 23 26  1  0  0  0  0
 23 24  1  0  0  0  0
 25 23  1  0  0  0  0
 27 45  1  0  0  0  0
 28 44  1  0  0  0  0
 29 28  2  0  0  0  0
 29 31  1  0  0  0  0
 30 29  1  0  0  0  0
 31 33  2  0  0  0  0
 32 31  1  0  0  0  0
 33 35  1  0  0  0  0
 33 34  1  0  0  0  0
 35 36  1  0  0  0  0
 36 38  2  0  0  0  0
 36 37  1  0  0  0  0
 38 39  1  0  0  0  0
 40 41  1  0  0  0  0
 40 38  1  0  0  0  0
 42 40  2  0  0  0  0
 43 42  1  0  0  0  0
 44 42  1  0  0  0  0
 44 35  2  0  0  0  0
 45 43  1  0  0  0  0
 45 50  1  0  0  0  0
 46 47  1  0  0  0  0
 46 45  1  0  0  0  0
 48 46  1  0  0  0  0
 49 46  1  0  0  0  0
 50 53  1  0  0  0  0
 50 52  1  0  0  0  0
 51 50  1  0  0  0  0
M  END
