31,32,35
q = -1.0

 37 36  0  0  1  0  0  0  0  0999 V2000
    1.5402    2.5186   -0.0585 C   0  0  0  0  0  0  0  0  0  0  0  0
    2.5818    2.4156    0.3485 H   0  0  0  0  0  0  0  0  0  0  0  0
    0.7752    3.3809    0.9525 C   0  0  0  0  0  0  0  0  0  0  0  0
    0.7836    2.9216    1.9592 H   0  0  0  0  0  0  0  0  0  0  0  0
   -0.2828    3.4958    0.6427 H   0  0  0  0  0  0  0  0  0  0  0  0
    1.2234    4.3919    1.0284 H   0  0  0  0  0  0  0  0  0  0  0  0
    1.6505    3.2362   -1.4188 C   0  0  0  0  0  0  0  0  0  0  0  0
    2.1971    2.6132   -2.1561 H   0  0  0  0  0  0  0  0  0  0  0  0
    2.1774    4.2087   -1.3265 H   0  0  0  0  0  0  0  0  0  0  0  0
    0.6396    3.4282   -1.8320 H   0  0  0  0  0  0  0  0  0  0  0  0
    1.6457    0.1151   -0.4830 C   0  0  1  0  0  3  0  0  0  0  0  0
    3.9540   -0.7177    0.0510 C   0  0  0  0  0  0  0  0  0  0  0  0
    3.8696   -1.7504   -0.3465 H   0  0  0  0  0  0  0  0  0  0  0  0
    5.3805   -0.2377   -0.2160 C   0  0  0  0  0  0  0  0  0  0  0  0
    5.5989   -0.2293   -1.3024 H   0  0  0  0  0  0  0  0  0  0  0  0
    6.1181   -0.8947    0.2844 H   0  0  0  0  0  0  0  0  0  0  0  0
    5.5300    0.7919    0.1760 H   0  0  0  0  0  0  0  0  0  0  0  0
    3.6253   -0.7580    1.5490 C   0  0  0  0  0  0  0  0  0  0  0  0
    2.5821   -1.0969    1.7105 H   0  0  0  0  0  0  0  0  0  0  0  0
    3.7288    0.2503    2.0025 H   0  0  0  0  0  0  0  0  0  0  0  0
    4.3028   -1.4510    2.0881 H   0  0  0  0  0  0  0  0  0  0  0  0
    1.4785   -2.2717   -0.9832 C   0  0  0  0  0  0  0  0  0  0  0  0
    2.0081   -2.8029   -0.1475 H   0  0  0  0  0  0  0  0  0  0  0  0
    2.2437   -2.1299   -1.7843 H   0  0  0  0  0  0  0  0  0  0  0  0
    0.4033   -3.2323   -1.5023 C   0  0  0  0  0  0  0  0  0  0  0  0
    0.8877   -4.2024   -1.7400 H   0  0  0  0  0  0  0  0  0  0  0  0
   -0.0152   -2.8502   -2.4609 H   0  0  0  0  0  0  0  0  0  0  0  0
   -0.7484   -3.4877   -0.5255 C   0  0  0  0  0  0  0  0  0  0  0  0
   -1.2280   -4.4646   -0.7644 H   0  0  0  0  0  0  0  0  0  0  0  0
   -0.3551   -3.5677    0.5106 H   0  0  0  0  0  0  0  0  0  0  0  0
    0.9283    1.2124   -0.1976 N   0  0  0  0  0  2  0  0  0  0  0  0
    0.9245   -1.0186   -0.5548 N   0  0  0  0  0  2  0  0  0  0  0  0
    3.0291    0.1507   -0.7048 N   0  0  0  0  0  0  0  0  0  0  0  0
    3.3734    1.1156   -0.7071 H   0  0  0  0  0  0  0  0  0  0  0  0
   -1.7400   -2.3944   -0.5555 N   0  0  0  0  0  0  0  0  0  0  0  0
   -2.5378   -2.6211    0.0529 H   0  0  0  0  0  0  0  0  0  0  0  0
   -2.1284   -2.3170   -1.5049 H   0  0  0  0  0  0  0  0  0  0  0  0
  1  2  1  0  0  0  0
  1  3  1  0  0  0  0
  3  6  1  0  0  0  0
  3  4  1  0  0  0  0
  5  3  1  0  0  0  0
  7  9  1  0  0  0  0
  7  1  1  0  0  0  0
  8  7  1  0  0  0  0
 10  7  1  0  0  0  0
 11 32  1  6  0  0  0
 11 31  1  0  0  0  0
 12 18  1  0  0  0  0
 13 12  1  0  0  0  0
 14 12  1  0  0  0  0
 14 17  1  0  0  0  0
 14 16  1  0  0  0  0
 15 14  1  0  0  0  0
 18 19  1  0  0  0  0
 18 20  1  0  0  0  0
 18 21  1  0  0  0  0
 22 32  1  0  0  0  0
 22 23  1  0  0  0  0
 24 22  1  0  0  0  0
 25 22  1  0  0  0  0
 25 28  1  0  0  0  0
 26 25  1  0  0  0  0
 27 25  1  0  0  0  0
 28 30  1  0  0  0  0
 29 28  1  0  0  0  0
 31  1  1  0  0  0  0
 33 11  1  0  0  0  0
 33 12  1  0  0  0  0
 34 33  1  0  0  0  0
 35 28  1  0  0  0  0
 35 36  1  0  0  0  0
 37 35  1  0  0  0  0
M  END
