3,5,25
q = 0.0, confidence = 0.994

 34 36  0  0  1  0  0  0  0  0999 V2000
    1.2854    1.6361   -1.1961 N   0  0  0  0  0  0  0  0  0  0  0  0
    2.3007    1.9047   -1.2600 H   0  0  0  0  0  0  0  0  0  0  0  0
    1.0390    0.3489   -1.0683 N   0  0  0  0  0  2  0  0  0  0  0  0
    1.9827   -0.5547   -0.9005 C   0  0  2  0  0  3  0  0  0  0  0  0
    0.1735   -2.1063   -0.4663 N   0  0  0  0  0  2  0  0  0  0  0  0
    1.4591   -1.9482   -0.8628 C   0  0  1  0  0  3  0  0  0  0  0  0
    2.2153   -3.0578   -1.2996 C   0  0  0  0  0  0  0  0  0  0  0  0
    3.2383   -2.9169   -1.6749 H   0  0  0  0  0  0  0  0  0  0  0  0
    1.6302   -4.3306   -1.2930 C   0  0  0  0  0  0  0  0  0  0  0  0
    2.2062   -5.2030   -1.6370 H   0  0  0  0  0  0  0  0  0  0  0  0
    0.3028   -4.4741   -0.8664 C   0  0  0  0  0  0  0  0  0  0  0  0
   -0.1954   -5.4537   -0.8496 H   0  0  0  0  0  0  0  0  0  0  0  0
   -0.3922   -3.3207   -0.4729 C   0  0  0  0  0  0  0  0  0  0  0  0
   -1.4505   -3.3564   -0.1592 H   0  0  0  0  0  0  0  0  0  0  0  0
    3.8253    1.0036   -1.0615 N   0  0  0  0  0  0  0  0  0  0  0  0
    3.4032   -0.2292   -0.6670 C   0  0  0  0  0  0  0  0  0  0  0  0
    4.2710   -1.1015    0.0366 C   0  0  0  0  0  0  0  0  0  0  0  0
    3.8984   -2.0611    0.4179 H   0  0  0  0  0  0  0  0  0  0  0  0
    5.5880   -0.7046    0.2802 C   0  0  0  0  0  0  0  0  0  0  0  0
    6.2704   -1.3679    0.8327 H   0  0  0  0  0  0  0  0  0  0  0  0
    6.0212    0.5533   -0.1691 C   0  0  0  0  0  0  0  0  0  0  0  0
    7.0499    0.9019    0.0004 H   0  0  0  0  0  0  0  0  0  0  0  0
    5.0907    1.3748   -0.8186 C   0  0  0  0  0  0  0  0  0  0  0  0
    5.3741    2.3868   -1.1552 H   0  0  0  0  0  0  0  0  0  0  0  0
   -0.9908    2.0731   -0.8545 N   0  0  0  0  0  2  0  0  0  0  0  0
    0.2267    2.5411   -1.1823 C   0  0  1  0  0  3  0  0  0  0  0  0
    0.4561    3.8964   -1.5054 C   0  0  0  0  0  0  0  0  0  0  0  0
    1.4679    4.2424   -1.7620 H   0  0  0  0  0  0  0  0  0  0  0  0
   -0.6376    4.7645   -1.4982 C   0  0  0  0  0  0  0  0  0  0  0  0
   -0.4950    5.8274   -1.7442 H   0  0  0  0  0  0  0  0  0  0  0  0
   -1.9166    4.2693   -1.1849 C   0  0  0  0  0  0  0  0  0  0  0  0
   -2.7992    4.9236   -1.1762 H   0  0  0  0  0  0  0  0  0  0  0  0
   -2.0406    2.9110   -0.8683 C   0  0  0  0  0  0  0  0  0  0  0  0
   -3.0119    2.4575   -0.6044 H   0  0  0  0  0  0  0  0  0  0  0  0
  1  3  1  0  0  0  0
  2  1  1  0  0  0  0
  4  3  1  1  0  0  0
  4 16  1  0  0  0  0
  6  4  1  6  0  0  0
  6  5  1  0  0  0  0
  7  9  2  0  0  0  0
  7  6  1  0  0  0  0
  8  7  1  0  0  0  0
  9 11  1  0  0  0  0
 10  9  1  0  0  0  0
 11 12  1  0  0  0  0
 11 13  2  0  0  0  0
 13  5  1  0  0  0  0
 13 14  1  0  0  0  0
 15 23  2  0  0  0  0
 15 16  1  0  0  0  0
 16 17  2  0  0  0  0
 17 19  1  0  0  0  0
 17 18  1  0  0  0  0
 19 20  1  0  0  0  0
 21 22  1  0  0  0  0
 21 19  2  0  0  0  0
 23 21  1  0  0  0  0
 24 23  1  0  0  0  0
 26  1  1  1  0  0  0
 26 25  1  0  0  0  0
 27 29  2  0  0  0  0
 27 26  1  0  0  0  0
 28 27  1  0  0  0  0
 29 31  1  0  0  0  0
 30 29  1  0  0  0  0
 31 32  1  0  0  0  0
 31 33  2  0  0  0  0
 33 25  1  0  0  0  0
 33 34  1  0  0  0  0
M  END
