1,2,3
q = 0.0, confidence = 0.998

 40 41  0  0  0  0  0  0  0  0999 V2000
    0.2915   -2.3677    0.0146 N   0  0  0  0  0  0  0  0  0  0  0  0
    1.6808   -0.8276   -1.8169 N   0  0  0  0  0  0  0  0  0  0  0  0
   -1.3460   -0.9845   -1.9239 N   0  0  0  0  0  0  0  0  0  0  0  0
   -0.2968   -2.9294    1.2453 C   0  0  0  0  0  0  0  0  0  0  0  0
    1.7562   -2.5043    0.0822 C   0  0  0  0  0  0  0  0  0  0  0  0
    2.4946   -1.8198   -1.0769 C   0  0  0  0  0  0  0  0  0  0  0  0
    2.5932    0.1445   -2.4490 C   0  0  0  0  0  0  0  0  0  0  0  0
    0.8735   -1.4862   -2.8613 C   0  0  0  0  0  0  0  0  0  0  0  0
   -0.4552   -2.0972   -2.3827 C   0  0  0  0  0  0  0  0  0  0  0  0
   -1.0403   -2.9204   -3.5483 C   0  0  0  0  0  0  0  0  0  0  0  0
   -0.2393   -3.0439   -1.1868 C   0  0  0  0  0  0  0  0  0  0  0  0
   -1.7433   -0.0090   -2.9750 C   0  0  0  0  0  0  0  0  0  0  0  0
   -2.9144    0.7300   -2.3412 C   0  0  0  0  0  0  0  0  0  0  0  0
   -3.6971   -0.3989   -1.6574 C   0  0  0  0  0  0  0  0  0  0  0  0
   -2.6277   -1.4497   -1.2967 C   0  0  0  0  0  0  0  0  0  0  0  0
   -1.3961   -2.8101    1.2436 H   0  0  0  0  0  0  0  0  0  0  0  0
    0.0846   -2.3805    2.1255 H   0  0  0  0  0  0  0  0  0  0  0  0
   -0.0440   -4.0100    1.3573 H   0  0  0  0  0  0  0  0  0  0  0  0
    2.0347   -3.5861    0.1218 H   0  0  0  0  0  0  0  0  0  0  0  0
    2.0817   -2.0504    1.0332 H   0  0  0  0  0  0  0  0  0  0  0  0
    3.3674   -1.2938   -0.6456 H   0  0  0  0  0  0  0  0  0  0  0  0
    2.8922   -2.5721   -1.7995 H   0  0  0  0  0  0  0  0  0  0  0  0
    3.1837    0.6572   -1.6667 H   0  0  0  0  0  0  0  0  0  0  0  0
    2.0133    0.9023   -3.0057 H   0  0  0  0  0  0  0  0  0  0  0  0
    3.2954   -0.3608   -3.1542 H   0  0  0  0  0  0  0  0  0  0  0  0
    1.4745   -2.2845   -3.3609 H   0  0  0  0  0  0  0  0  0  0  0  0
    0.6446   -0.7370   -3.6429 H   0  0  0  0  0  0  0  0  0  0  0  0
   -2.0618   -3.2835   -3.3226 H   0  0  0  0  0  0  0  0  0  0  0  0
   -0.4084   -3.8087   -3.7434 H   0  0  0  0  0  0  0  0  0  0  0  0
   -1.0837   -2.3340   -4.4862 H   0  0  0  0  0  0  0  0  0  0  0  0
   -1.2063   -3.5152   -0.9311 H   0  0  0  0  0  0  0  0  0  0  0  0
    0.4348   -3.8749   -1.4986 H   0  0  0  0  0  0  0  0  0  0  0  0
   -2.0725   -0.5301   -3.9043 H   0  0  0  0  0  0  0  0  0  0  0  0
   -0.9026    0.6616   -3.2295 H   0  0  0  0  0  0  0  0  0  0  0  0
   -3.5102    1.2942   -3.0841 H   0  0  0  0  0  0  0  0  0  0  0  0
   -2.5359    1.4558   -1.5947 H   0  0  0  0  0  0  0  0  0  0  0  0
   -4.2528   -0.0491   -0.7663 H   0  0  0  0  0  0  0  0  0  0  0  0
   -4.4388   -0.8365   -2.3555 H   0  0  0  0  0  0  0  0  0  0  0  0
   -2.4932   -1.5529   -0.2035 H   0  0  0  0  0  0  0  0  0  0  0  0
   -2.9223   -2.4467   -1.6887 H   0  0  0  0  0  0  0  0  0  0  0  0
  1  5  1  0  0  0  0
  1  4  1  0  0  0  0
  2  6  1  0  0  0  0
  3 15  1  0  0  0  0
  4 18  1  0  0  0  0
  4 17  1  0  0  0  0
  5 19  1  0  0  0  0
  5 20  1  0  0  0  0
  6 21  1  0  0  0  0
  6  5  1  0  0  0  0
  7  2  1  0  0  0  0
  7 23  1  0  0  0  0
  8  9  1  0  0  0  0
  8  2  1  0  0  0  0
  9  3  1  0  0  0  0
  9 11  1  0  0  0  0
 10 28  1  0  0  0  0
 10  9  1  0  0  0  0
 11 31  1  0  0  0  0
 11  1  1  0  0  0  0
 12 13  1  0  0  0  0
 12  3  1  0  0  0  0
 13 14  1  0  0  0  0
 13 36  1  0  0  0  0
 14 15  1  0  0  0  0
 14 37  1  0  0  0  0
 15 39  1  0  0  0  0
 16  4  1  0  0  0  0
 22  6  1  0  0  0  0
 24  7  1  0  0  0  0
 25  7  1  0  0  0  0
 26  8  1  0  0  0  0
 27  8  1  0  0  0  0
 29 10  1  0  0  0  0
 30 10  1  0  0  0  0
 32 11  1  0  0  0  0
 33 12  1  0  0  0  0
 34 12  1  0  0  0  0
 35 13  1  0  0  0  0
 38 14  1  0  0  0  0
 40 15  1  0  0  0  0
M  END
