2,3,4
q = 0.0, confidence = 1.0

 33 34  0  0  0  0  0  0  0  0999 V2000
    4.5231    0.3105   -0.1898 O   0  0  0  0  0  0  0  0  0  0  0  0
   -1.8785    0.6934    0.3081 N   0  0  0  0  0  2  0  0  0  0  0  0
   -0.4766   -1.3453    1.2908 N   0  0  0  0  0  2  0  0  0  0  0  0
    2.1215   -1.2175    0.2600 N   0  0  0  0  0  0  0  0  0  0  0  0
   -2.5777   -0.3299    0.8493 C   0  0  0  0  0  0  0  0  0  0  0  0
   -3.9780   -0.3028    0.9629 C   0  0  0  0  0  0  0  0  0  0  0  0
   -4.5131   -1.1623    1.3925 H   0  0  0  0  0  0  0  0  0  0  0  0
   -4.6606    0.8349    0.5130 C   0  0  0  0  0  0  0  0  0  0  0  0
   -5.7568    0.8917    0.5871 H   0  0  0  0  0  0  0  0  0  0  0  0
   -3.9263    1.8972   -0.0348 C   0  0  0  0  0  0  0  0  0  0  0  0
   -4.4232    2.8093   -0.3948 H   0  0  0  0  0  0  0  0  0  0  0  0
   -2.5280    1.7826   -0.1229 C   0  0  0  0  0  0  0  0  0  0  0  0
   -1.9086    2.5964   -0.5374 H   0  0  0  0  0  0  0  0  0  0  0  0
   -1.7599   -1.4663    1.3147 C   0  0  0  0  0  0  0  0  0  0  0  0
   -2.2710   -2.3786    1.6816 H   0  0  0  0  0  0  0  0  0  0  0  0
    0.4187   -2.4243    1.6373 C   0  0  0  0  0  0  0  0  0  0  0  0
   -0.1039   -3.4020    1.7302 H   0  0  0  0  0  0  0  0  0  0  0  0
    0.8796   -2.1961    2.6239 H   0  0  0  0  0  0  0  0  0  0  0  0
    1.5037   -2.5227    0.5556 C   0  0  0  0  0  0  0  0  0  0  0  0
    2.2761   -3.2660    0.8670 H   0  0  0  0  0  0  0  0  0  0  0  0
    1.0388   -2.8905   -0.3803 H   0  0  0  0  0  0  0  0  0  0  0  0
    2.9929   -0.7643    1.3698 C   0  0  0  0  0  0  0  0  0  0  0  0
    3.7128   -1.5803    1.6274 H   0  0  0  0  0  0  0  0  0  0  0  0
    2.3709   -0.5612    2.2657 H   0  0  0  0  0  0  0  0  0  0  0  0
    3.7688    0.4989    0.9957 C   0  0  0  0  0  0  0  0  0  0  0  0
    3.0576    1.3486    0.8788 H   0  0  0  0  0  0  0  0  0  0  0  0
    4.4849    0.7403    1.8063 H   0  0  0  0  0  0  0  0  0  0  0  0
    3.6520   -0.0059   -1.2650 C   0  0  0  0  0  0  0  0  0  0  0  0
    4.2765   -0.1167   -2.1733 H   0  0  0  0  0  0  0  0  0  0  0  0
    2.9224    0.8209   -1.4361 H   0  0  0  0  0  0  0  0  0  0  0  0
    2.9029   -1.3064   -0.9975 C   0  0  0  0  0  0  0  0  0  0  0  0
    2.1937   -1.5245   -1.8215 H   0  0  0  0  0  0  0  0  0  0  0  0
    3.6388   -2.1436   -0.9213 H   0  0  0  0  0  0  0  0  0  0  0  0
  1 25  1  0  0  0  0
  2  5  1  0  0  0  0
  3 14  1  0  0  0  0
  3 16  1  0  0  0  0
  4 19  1  0  0  0  0
  4 22  1  0  0  0  0
  5  6  1  0  0  0  0
  5 14  2  0  0  0  0
  6  7  1  0  0  0  0
  8  9  1  0  0  0  0
  8  6  2  0  0  0  0
 10  8  1  0  0  0  0
 11 10  1  0  0  0  0
 12 10  2  0  0  0  0
 12  2  1  0  0  0  0
 13 12  1  0  0  0  0
 14 15  1  0  0  0  0
 16 17  1  0  0  0  0
 16 18  1  0  0  0  0
 19 20  1  0  0  0  0
 19 16  1  0  0  0  0
 21 19  1  0  0  0  0
 22 23  1  0  0  0  0
 22 24  1  0  0  0  0
 25 22  1  0  0  0  0
 25 27  1  0  0  0  0
 26 25  1  0  0  0  0
 28 31  1  0  0  0  0
 28  1  1  0  0  0  0
 29 28  1  0  0  0  0
 30 28  1  0  0  0  0
 31 33  1  0  0  0  0
 31  4  1  0  0  0  0
 32 31  1  0  0  0  0
M  END
