1,2,3
q = -1.0

 78 79  0  0  1  0  0  0  0  0999 V2000
    1.9828    0.4134    0.2709 N   0  0  0  0  0  2  0  0  0  0  0  0
   -0.0157    2.1260    0.2761 N   0  0  0  0  0  2  0  0  0  0  0  0
   -2.0775    1.1796   -1.0530 N   0  0  0  0  0  2  0  0  0  0  0  0
   -3.7586   -1.0954   -0.0438 N   0  3  0  0  0  0  0  0  0  0  0  0
    3.4158    1.7518    1.7921 C   0  0  0  0  0  0  0  0  0  0  0  0
    4.2087    1.0224    1.5480 H   0  0  0  0  0  0  0  0  0  0  0  0
    3.2125    1.6916    2.8820 H   0  0  0  0  0  0  0  0  0  0  0  0
    3.7842    2.7757    1.5818 H   0  0  0  0  0  0  0  0  0  0  0  0
    2.1701    1.4564    1.0158 C   0  0  0  0  0  0  0  0  0  0  0  0
    1.0376    2.4367    1.0501 C   0  0  0  0  0  0  0  0  0  0  0  0
    1.0463    3.6301    1.7997 C   0  0  0  0  0  0  0  0  0  0  0  0
    1.9016    3.8875    2.4382 H   0  0  0  0  0  0  0  0  0  0  0  0
   -0.0597    4.4866    1.7101 C   0  0  0  0  0  0  0  0  0  0  0  0
   -0.0786    5.4249    2.2836 H   0  0  0  0  0  0  0  0  0  0  0  0
   -1.1416    4.1442    0.8853 C   0  0  0  0  0  0  0  0  0  0  0  0
   -2.0128    4.8082    0.8065 H   0  0  0  0  0  0  0  0  0  0  0  0
   -1.0884    2.9272    0.1783 C   0  0  0  0  0  0  0  0  0  0  0  0
   -2.1861    2.4201   -0.7129 C   0  0  2  0  0  3  0  0  0  0  0  0
   -3.2793    3.3728   -1.1064 C   0  0  0  0  0  0  0  0  0  0  0  0
   -3.9532    2.9469   -1.8706 H   0  0  0  0  0  0  0  0  0  0  0  0
   -2.8570    4.3186   -1.5012 H   0  0  0  0  0  0  0  0  0  0  0  0
   -3.8944    3.6415   -0.2216 H   0  0  0  0  0  0  0  0  0  0  0  0
    2.9790   -0.5873    0.0710 C   0  0  0  0  0  0  0  0  0  0  0  0
    3.6388   -0.5885   -1.1896 C   0  0  0  0  0  0  0  0  0  0  0  0
    4.6021   -1.5831   -1.4224 C   0  0  0  0  0  0  0  0  0  0  0  0
    5.1358   -1.5985   -2.3833 H   0  0  0  0  0  0  0  0  0  0  0  0
    4.8920   -2.5528   -0.4534 C   0  0  0  0  0  0  0  0  0  0  0  0
    5.6491   -3.3247   -0.6564 H   0  0  0  0  0  0  0  0  0  0  0  0
    4.2110   -2.5442    0.7676 C   0  0  0  0  0  0  0  0  0  0  0  0
    4.4299   -3.3210    1.5159 H   0  0  0  0  0  0  0  0  0  0  0  0
    3.2384   -1.5690    1.0629 C   0  0  0  0  0  0  0  0  0  0  0  0
    3.3614    0.5102   -2.2078 C   0  0  0  0  0  0  0  0  0  0  0  0
    2.3131    0.8384   -2.0413 H   0  0  0  0  0  0  0  0  0  0  0  0
    3.4482    0.0287   -3.6602 C   0  0  0  0  0  0  0  0  0  0  0  0
    2.7931   -0.8482   -3.8234 H   0  0  0  0  0  0  0  0  0  0  0  0
    4.4848   -0.2395   -3.9501 H   0  0  0  0  0  0  0  0  0  0  0  0
    3.1178    0.8335   -4.3469 H   0  0  0  0  0  0  0  0  0  0  0  0
    4.2829    1.7207   -1.9659 C   0  0  0  0  0  0  0  0  0  0  0  0
    4.1856    2.1233   -0.9374 H   0  0  0  0  0  0  0  0  0  0  0  0
    4.0509    2.5410   -2.6756 H   0  0  0  0  0  0  0  0  0  0  0  0
    5.3464    1.4385   -2.1079 H   0  0  0  0  0  0  0  0  0  0  0  0
    2.4760   -1.6423    2.3816 C   0  0  0  0  0  0  0  0  0  0  0  0
    1.7432   -0.8098    2.4070 H   0  0  0  0  0  0  0  0  0  0  0  0
    1.6616   -2.9460    2.4659 C   0  0  0  0  0  0  0  0  0  0  0  0
    0.9692   -3.0358    1.6074 H   0  0  0  0  0  0  0  0  0  0  0  0
    1.0555   -2.9638    3.3943 H   0  0  0  0  0  0  0  0  0  0  0  0
    2.3254   -3.8346    2.4774 H   0  0  0  0  0  0  0  0  0  0  0  0
    3.4106   -1.4982    3.5957 C   0  0  0  0  0  0  0  0  0  0  0  0
    2.8269   -1.4930    4.5386 H   0  0  0  0  0  0  0  0  0  0  0  0
    4.0090   -0.5663    3.5566 H   0  0  0  0  0  0  0  0  0  0  0  0
    4.1256   -2.3440    3.6556 H   0  0  0  0  0  0  0  0  0  0  0  0
   -2.9992    0.4861   -1.9299 C   0  0  0  0  0  0  0  0  0  0  0  0
   -2.3839   -0.2570   -2.4785 H   0  0  0  0  0  0  0  0  0  0  0  0
   -3.4669    1.1540   -2.6870 H   0  0  0  0  0  0  0  0  0  0  0  0
   -4.1570   -0.1897   -1.1835 C   0  0  0  0  0  0  0  0  0  0  0  0
   -4.8401    0.5756   -0.7733 H   0  0  0  0  0  0  0  0  0  0  0  0
   -4.7446   -0.7852   -1.9065 H   0  0  0  0  0  0  0  0  0  0  0  0
   -4.5605   -0.7763    1.2318 C   0  0  0  0  0  0  0  0  0  0  0  0
   -5.6256   -0.8037    0.9184 H   0  0  0  0  0  0  0  0  0  0  0  0
   -4.1916    0.6265    1.7236 C   0  0  0  0  0  0  0  0  0  0  0  0
   -4.7705    0.8462    2.6403 H   0  0  0  0  0  0  0  0  0  0  0  0
   -4.4277    1.4241    0.9939 H   0  0  0  0  0  0  0  0  0  0  0  0
   -3.1117    0.6706    1.9702 H   0  0  0  0  0  0  0  0  0  0  0  0
   -4.3161   -1.8032    2.3369 C   0  0  0  0  0  0  0  0  0  0  0  0
   -4.8556   -1.4684    3.2434 H   0  0  0  0  0  0  0  0  0  0  0  0
   -3.2384   -1.8649    2.5863 H   0  0  0  0  0  0  0  0  0  0  0  0
   -4.6925   -2.8128    2.0916 H   0  0  0  0  0  0  0  0  0  0  0  0
   -3.7484   -2.5815   -0.4315 C   0  0  0  0  0  0  0  0  0  0  0  0
   -3.3107   -3.0666    0.4612 H   0  0  0  0  0  0  0  0  0  0  0  0
   -5.1518   -3.1220   -0.6832 C   0  0  0  0  0  0  0  0  0  0  0  0
   -5.0756   -4.2080   -0.8841 H   0  0  0  0  0  0  0  0  0  0  0  0
   -5.6245   -2.6675   -1.5776 H   0  0  0  0  0  0  0  0  0  0  0  0
   -5.8354   -2.9945    0.1777 H   0  0  0  0  0  0  0  0  0  0  0  0
   -2.7991   -2.8285   -1.5987 C   0  0  0  0  0  0  0  0  0  0  0  0
   -2.6567   -3.9214   -1.7028 H   0  0  0  0  0  0  0  0  0  0  0  0
   -1.7995   -2.3755   -1.4455 H   0  0  0  0  0  0  0  0  0  0  0  0
   -3.2066   -2.4645   -2.5632 H   0  0  0  0  0  0  0  0  0  0  0  0
   -2.7429   -0.9066    0.2471 H   0  0  0  0  0  0  0  0  0  0  0  0
  1  9  1  0  0  0  0
  2 10  1  0  0  0  0
  4 78  1  0  0  0  0
  4 58  1  0  0  0  0
  5  7  1  0  0  0  0
  6  5  1  0  0  0  0
  8  5  1  0  0  0  0
  9 10  2  0  0  0  0
  9  5  1  0  0  0  0
 10 11  1  0  0  0  0
 11 12  1  0  0  0  0
 13 11  2  0  0  0  0
 13 14  1  0  0  0  0
 15 13  1  0  0  0  0
 16 15  1  0  0  0  0
 17  2  1  0  0  0  0
 17 15  2  0  0  0  0
 18  3  1  1  0  0  0
 18 17  1  0  0  0  0
 19 18  1  0  0  0  0
 19 22  1  0  0  0  0
 20 19  1  0  0  0  0
 21 19  1  0  0  0  0
 23  1  1  0  0  0  0
 23 31  1  0  0  0  0
 24 23  2  0  0  0  0
 25 24  1  0  0  0  0
 25 27  2  0  0  0  0
 26 25  1  0  0  0  0
 27 29  1  0  0  0  0
 28 27  1  0  0  0  0
 29 31  2  0  0  0  0
 29 30  1  0  0  0  0
 31 42  1  0  0  0  0
 32 33  1  0  0  0  0
 32 38  1  0  0  0  0
 32 24  1  0  0  0  0
 34 32  1  0  0  0  0
 35 34  1  0  0  0  0
 36 34  1  0  0  0  0
 37 34  1  0  0  0  0
 38 39  1  0  0  0  0
 40 38  1  0  0  0  0
 41 38  1  0  0  0  0
 42 43  1  0  0  0  0
 42 44  1  0  0  0  0
 42 48  1  0  0  0  0
 44 47  1  0  0  0  0
 44 46  1  0  0  0  0
 45 44  1  0  0  0  0
 48 51  1  0  0  0  0
 48 49  1  0  0  0  0
 50 48  1  0  0  0  0
 52 55  1  0  0  0  0
 52  3  1  0  0  0  0
 53 52  1  0  0  0  0
 54 52  1  0  0  0  0
 55 56  1  0  0  0  0
 55  4  1  0  0  0  0
 57 55  1  0  0  0  0
 58 60  1  0  0  0  0
 58 64  1  0  0  0  0
 59 58  1  0  0  0  0
 60 63  1  0  0  0  0
 60 61  1  0  0  0  0
 62 60  1  0  0  0  0
 64 66  1  0  0  0  0
 64 65  1  0  0  0  0
 67 64  1  0  0  0  0
 68  4  1  0  0  0  0
 68 69  1  0  0  0  0
 70 68  1  0  0  0  0
 70 73  1  0  0  0  0
 71 70  1  0  0  0  0
 72 70  1  0  0  0  0
 74 76  1  0  0  0  0
 74 68  1  0  0  0  0
 75 74  1  0  0  0  0
 77 74  1  0  0  0  0
M  CHG  1   4   1
M  END
