1,2,3
q = 0.0, confidence = 0.998

 40 41  0  0  1  0  0  0  0  0999 V2000
    0.9351   -1.8650   -0.0086 N   0  0  0  0  0  2  0  0  0  0  0  0
   -1.7954    1.3100    0.0706 N   0  0  0  0  0  2  0  0  0  0  0  0
   -0.0569    0.1194   -1.6429 N   0  0  0  0  0  0  0  0  0  0  0  0
    4.1049    2.0177    0.0913 O   0  0  0  0  0  0  0  0  0  0  0  0
    2.5270    3.3785   -0.8029 O   0  0  0  0  0  0  0  0  0  0  0  0
    1.6175   -2.5801    0.9002 C   0  0  0  0  0  3  0  0  0  0  0  0
    1.3201   -2.4141    1.9498 H   0  0  0  0  0  0  0  0  0  0  0  0
    2.6531   -3.4483    0.5310 C   0  0  0  0  0  0  0  0  0  0  0  0
    3.1916   -4.0219    1.2988 H   0  0  0  0  0  0  0  0  0  0  0  0
    2.9866   -3.5531   -0.8276 C   0  0  0  0  0  0  0  0  0  0  0  0
    3.8014   -4.2171   -1.1541 H   0  0  0  0  0  0  0  0  0  0  0  0
    2.2769   -2.7910   -1.7664 C   0  0  0  0  0  0  0  0  0  0  0  0
    2.5195   -2.8363   -2.8386 H   0  0  0  0  0  0  0  0  0  0  0  0
    1.2440   -1.9548   -1.3153 C   0  0  0  0  0  0  0  0  0  0  0  0
    0.3712   -1.1435   -2.2486 C   0  0  0  0  0  0  0  0  0  0  0  0
    0.8819   -0.9956   -3.2296 H   0  0  0  0  0  0  0  0  0  0  0  0
   -0.5483   -1.7481   -2.4182 H   0  0  0  0  0  0  0  0  0  0  0  0
   -1.3197    0.6236   -2.1972 C   0  0  0  0  0  0  0  0  0  0  0  0
   -2.0090   -0.2468   -2.2879 H   0  0  0  0  0  0  0  0  0  0  0  0
   -1.1951    1.0908   -3.2023 H   0  0  0  0  0  0  0  0  0  0  0  0
   -1.9615    1.5991   -1.2350 C   0  0  1  0  0  3  0  0  0  0  0  0
   -2.7111    2.7109   -1.6467 C   0  0  0  0  0  0  0  0  0  0  0  0
   -2.8191    2.9350   -2.7184 H   0  0  0  0  0  0  0  0  0  0  0  0
   -3.3057    3.5232   -0.6705 C   0  0  0  0  0  0  0  0  0  0  0  0
   -3.8991    4.4015   -0.9664 H   0  0  0  0  0  0  0  0  0  0  0  0
   -3.1220    3.2105    0.6844 C   0  0  0  0  0  0  0  0  0  0  0  0
   -3.5623    3.8290    1.4795 H   0  0  0  0  0  0  0  0  0  0  0  0
   -2.3486    2.0897    1.0134 C   0  0  0  0  0  0  0  0  0  0  0  0
   -2.1343    1.7927    2.0545 H   0  0  0  0  0  0  0  0  0  0  0  0
    0.9767    1.1730   -1.6391 C   0  0  0  0  0  0  0  0  0  0  0  0
    0.4816    2.1352   -1.4037 H   0  0  0  0  0  0  0  0  0  0  0  0
    1.4019    1.2892   -2.6661 H   0  0  0  0  0  0  0  0  0  0  0  0
    2.0960    0.9917   -0.6172 C   0  0  0  0  0  0  0  0  0  0  0  0
    1.6619    0.7725    0.3881 H   0  0  0  0  0  0  0  0  0  0  0  0
    2.7837    0.1550   -0.8457 H   0  0  0  0  0  0  0  0  0  0  0  0
    2.9017    2.2657   -0.4776 C   0  0  0  0  0  0  0  0  0  0  0  0
    4.9118    3.1742    0.3465 C   0  0  0  0  0  0  0  0  0  0  0  0
    5.1340    3.7171   -0.5944 H   0  0  0  0  0  0  0  0  0  0  0  0
    5.8439    2.8020    0.8073 H   0  0  0  0  0  0  0  0  0  0  0  0
    4.3935    3.8724    1.0344 H   0  0  0  0  0  0  0  0  0  0  0  0
  1  6  1  0  0  0  0
  2 28  1  0  0  0  0
  3 30  1  0  0  0  0
  4 37  1  0  0  0  0
  5 36  2  0  0  0  0
  6  7  1  0  0  0  0
  8  6  1  0  0  0  0
  8  9  1  0  0  0  0
 10  8  2  0  0  0  0
 11 10  1  0  0  0  0
 12 14  2  0  0  0  0
 12 10  1  0  0  0  0
 13 12  1  0  0  0  0
 14  1  1  0  0  0  0
 15  3  1  0  0  0  0
 15 14  1  0  0  0  0
 16 15  1  0  0  0  0
 17 15  1  0  0  0  0
 18  3  1  0  0  0  0
 19 18  1  0  0  0  0
 20 18  1  0  0  0  0
 21 18  1  6  0  0  0
 21  2  1  0  0  0  0
 22 21  1  0  0  0  0
 22 24  2  0  0  0  0
 23 22  1  0  0  0  0
 24 26  1  0  0  0  0
 25 24  1  0  0  0  0
 26 28  2  0  0  0  0
 26 27  1  0  0  0  0
 28 29  1  0  0  0  0
 30 31  1  0  0  0  0
 30 33  1  0  0  0  0
 32 30  1  0  0  0  0
 33 36  1  0  0  0  0
 33 34  1  0  0  0  0
 35 33  1  0  0  0  0
 36  4  1  0  0  0  0
 37 39  1  0  0  0  0
 37 40  1  0  0  0  0
 38 37  1  0  0  0  0
M  END
