1,2,3
q = 0.0, confidence = 0.994

 62 67  0  0  1  0  0  0  0  0999 V2000
   -2.4848   -1.0755   -0.1390 N   0  0  0  0  0  2  0  0  0  0  0  0
    0.7232    1.5871   -0.6847 N   0  0  0  0  0  2  0  0  0  0  0  0
    0.2439   -1.1737   -0.6828 N   0  0  0  0  0  0  0  0  0  0  0  0
   -3.7626   -1.0099    0.3564 C   0  0  2  0  0  3  0  0  0  0  0  0
   -4.2019    0.1644    1.0287 C   0  0  0  0  0  0  0  0  0  0  0  0
   -3.4942    0.9913    1.1751 H   0  0  0  0  0  0  0  0  0  0  0  0
   -5.5000    0.2308    1.5142 C   0  0  0  0  0  0  0  0  0  0  0  0
   -5.8346    1.1405    2.0348 H   0  0  0  0  0  0  0  0  0  0  0  0
   -6.4012   -0.8562    1.3546 C   0  0  0  0  0  0  0  0  0  0  0  0
   -7.4265   -0.7756    1.7457 H   0  0  0  0  0  0  0  0  0  0  0  0
   -5.9905   -2.0169    0.7167 C   0  0  0  0  0  0  0  0  0  0  0  0
   -6.6766   -2.8694    0.5962 H   0  0  0  0  0  0  0  0  0  0  0  0
   -4.6651   -2.1236    0.2079 C   0  0  0  0  0  0  0  0  0  0  0  0
   -4.1715   -3.2903   -0.4392 C   0  0  0  0  0  0  0  0  0  0  0  0
   -4.8361   -4.1601   -0.5609 H   0  0  0  0  0  0  0  0  0  0  0  0
   -2.8668   -3.3263   -0.8982 C   0  0  0  0  0  0  0  0  0  0  0  0
   -2.4586   -4.2198   -1.3932 H   0  0  0  0  0  0  0  0  0  0  0  0
   -2.0447   -2.1782   -0.7339 C   0  0  0  0  0  0  0  0  0  0  0  0
   -0.6464   -2.1518   -1.3202 C   0  0  0  0  0  0  0  0  0  0  0  0
   -0.7723   -1.8399   -2.3781 H   0  0  0  0  0  0  0  0  0  0  0  0
   -0.2199   -3.1775   -1.3412 H   0  0  0  0  0  0  0  0  0  0  0  0
    1.1986   -0.5872   -1.6405 C   0  0  0  0  0  0  0  0  0  0  0  0
    0.6689   -0.4844   -2.6103 H   0  0  0  0  0  0  0  0  0  0  0  0
    2.0865   -1.2357   -1.8019 H   0  0  0  0  0  0  0  0  0  0  0  0
    1.6378    0.8097   -1.2553 C   0  0  0  0  0  0  0  0  0  0  0  0
    2.9408    1.2810   -1.5669 C   0  0  0  0  0  0  0  0  0  0  0  0
    3.6710    0.5943   -2.0174 H   0  0  0  0  0  0  0  0  0  0  0  0
    3.2683    2.5922   -1.2703 C   0  0  0  0  0  0  0  0  0  0  0  0
    4.2741    2.9838   -1.4887 H   0  0  0  0  0  0  0  0  0  0  0  0
    2.3063    3.4457   -0.6630 C   0  0  0  0  0  0  0  0  0  0  0  0
    2.5703    4.8033   -0.3254 C   0  0  0  0  0  0  0  0  0  0  0  0
    3.5659    5.2203   -0.5423 H   0  0  0  0  0  0  0  0  0  0  0  0
    1.5867    5.5807    0.2669 C   0  0  0  0  0  0  0  0  0  0  0  0
    1.7959    6.6285    0.5292 H   0  0  0  0  0  0  0  0  0  0  0  0
    0.3047    5.0310    0.5373 C   0  0  0  0  0  0  0  0  0  0  0  0
   -0.4675    5.6574    1.0077 H   0  0  0  0  0  0  0  0  0  0  0  0
    0.0116    3.7131    0.2208 C   0  0  0  0  0  0  0  0  0  0  0  0
   -0.9794    3.2848    0.4228 H   0  0  0  0  0  0  0  0  0  0  0  0
    1.0070    2.8924   -0.3777 C   0  0  1  0  0  3  0  0  0  0  0  0
    0.9199   -1.6108    0.6045 C   0  0  1  0  0  0  0  0  0  0  0  0
    1.2358   -0.6537    1.0556 H   0  0  0  0  0  0  0  0  0  0  0  0
   -0.0584   -2.2115    1.6128 C   0  0  0  0  0  0  0  0  0  0  0  0
   -0.8541   -1.4850    1.8628 H   0  0  0  0  0  0  0  0  0  0  0  0
    0.5000   -2.4375    2.5413 H   0  0  0  0  0  0  0  0  0  0  0  0
   -0.5289   -3.1545    1.2688 H   0  0  0  0  0  0  0  0  0  0  0  0
    2.1451   -2.4833    0.3661 C   0  0  0  0  0  0  0  0  0  0  0  0
    2.0072   -3.8177   -0.0164 C   0  0  0  0  0  0  0  0  0  0  0  0
    1.0047   -4.2683   -0.0622 H   0  0  0  0  0  0  0  0  0  0  0  0
    3.1261   -4.6280   -0.3365 C   0  0  0  0  0  0  0  0  0  0  0  0
    2.9708   -5.6739   -0.6415 H   0  0  0  0  0  0  0  0  0  0  0  0
    4.4046   -4.1020   -0.2651 C   0  0  0  0  0  0  0  0  0  0  0  0
    5.2812   -4.7170   -0.5219 H   0  0  0  0  0  0  0  0  0  0  0  0
    4.6121   -2.7595    0.1650 C   0  0  0  0  0  0  0  0  0  0  0  0
    5.9275   -2.2195    0.2771 C   0  0  0  0  0  0  0  0  0  0  0  0
    6.7814   -2.8592    0.0039 H   0  0  0  0  0  0  0  0  0  0  0  0
    6.1329   -0.9266    0.7318 C   0  0  0  0  0  0  0  0  0  0  0  0
    7.1540   -0.5254    0.8191 H   0  0  0  0  0  0  0  0  0  0  0  0
    5.0219   -0.1263    1.1040 C   0  0  0  0  0  0  0  0  0  0  0  0
    5.1832    0.8919    1.4894 H   0  0  0  0  0  0  0  0  0  0  0  0
    3.7271   -0.6135    0.9949 C   0  0  0  0  0  0  0  0  0  0  0  0
    2.8968    0.0308    1.3154 H   0  0  0  0  0  0  0  0  0  0  0  0
    3.4725   -1.9344    0.5080 C   0  0  0  0  0  0  0  0  0  0  0  0
  3 40  1  0  0  0  0
  4  1  1  1  0  0  0
  4  5  1  0  0  0  0
  5  6  1  0  0  0  0
  5  7  2  0  0  0  0
  7  8  1  0  0  0  0
  9  7  1  0  0  0  0
  9 10  1  0  0  0  0
 11  9  2  0  0  0  0
 12 11  1  0  0  0  0
 13  4  1  0  0  0  0
 13 11  1  0  0  0  0
 14 13  2  0  0  0  0
 15 14  1  0  0  0  0
 16 18  2  0  0  0  0
 16 14  1  0  0  0  0
 17 16  1  0  0  0  0
 18  1  1  0  0  0  0
 19 18  1  0  0  0  0
 19  3  1  0  0  0  0
 20 19  1  0  0  0  0
 21 19  1  0  0  0  0
 22 25  1  0  0  0  0
 22  3  1  0  0  0  0
 23 22  1  0  0  0  0
 24 22  1  0  0  0  0
 25  2  1  0  0  0  0
 26 28  1  0  0  0  0
 26 25  2  0  0  0  0
 27 26  1  0  0  0  0
 28 30  2  0  0  0  0
 29 28  1  0  0  0  0
 30 39  1  0  0  0  0
 30 31  1  0  0  0  0
 31 33  2  0  0  0  0
 32 31  1  0  0  0  0
 33 34  1  0  0  0  0
 33 35  1  0  0  0  0
 35 36  1  0  0  0  0
 37 38  1  0  0  0  0
 37 35  2  0  0  0  0
 39  2  1  6  0  0  0
 39 37  1  0  0  0  0
 40 41  1  1  0  0  0
 40 42  1  0  0  0  0
 42 43  1  0  0  0  0
 42 44  1  0  0  0  0
 45 42  1  0  0  0  0
 46 62  1  0  0  0  0
 46 40  1  0  0  0  0
 47 46  2  0  0  0  0
 48 47  1  0  0  0  0
 49 51  2  0  0  0  0
 49 47  1  0  0  0  0
 50 49  1  0  0  0  0
 51 53  1  0  0  0  0
 52 51  1  0  0  0  0
 53 54  2  0  0  0  0
 53 62  1  0  0  0  0
 54 56  1  0  0  0  0
 55 54  1  0  0  0  0
 56 57  1  0  0  0  0
 56 58  2  0  0  0  0
 58 59  1  0  0  0  0
 60 58  1  0  0  0  0
 60 61  1  0  0  0  0
 62 60  2  0  0  0  0
M  END
