22,23,24
q = -1.0, confidence = 0.012

 28 30  0  0  0  0  0  0  0  0999 V2000
   -0.1840   -1.6690    1.9497 C   0  0  0  0  0  0  0  0  0  0  0  0
   -0.9725   -2.2114    3.0083 C   0  0  0  0  0  0  0  0  0  0  0  0
   -0.4402   -2.7173    3.8267 H   0  0  0  0  0  0  0  0  0  0  0  0
   -2.3573   -2.1069    3.0173 C   0  0  0  0  0  0  0  0  0  0  0  0
   -2.9504   -2.5126    3.8516 H   0  0  0  0  0  0  0  0  0  0  0  0
   -3.0060   -1.4722    1.9210 C   0  0  0  0  0  0  0  0  0  0  0  0
   -2.7085   -0.3765   -0.2500 C   0  0  0  0  0  0  0  0  0  0  0  0
   -2.1257    0.7219   -2.2857 C   0  0  0  0  0  0  0  0  0  0  0  0
   -3.5044    0.9819   -2.5199 C   0  0  0  0  0  0  0  0  0  0  0  0
   -3.7966    1.5314   -3.4267 H   0  0  0  0  0  0  0  0  0  0  0  0
   -4.4750    0.5611   -1.6083 C   0  0  0  0  0  0  0  0  0  0  0  0
   -5.5374    0.7734   -1.7992 H   0  0  0  0  0  0  0  0  0  0  0  0
   -4.0957   -0.1501   -0.4178 C   0  0  0  0  0  0  0  0  0  0  0  0
   -4.9451   -0.6354    0.6332 C   0  0  0  0  0  0  0  0  0  0  0  0
   -6.0333   -0.4931    0.5462 H   0  0  0  0  0  0  0  0  0  0  0  0
   -4.4185   -1.2730    1.7509 C   0  0  0  0  0  0  0  0  0  0  0  0
   -5.0948   -1.6400    2.5381 H   0  0  0  0  0  0  0  0  0  0  0  0
   -2.1529   -0.9977    0.8892 C   0  0  0  0  0  0  0  0  0  0  0  0
    1.3360   -1.8046    1.9649 C   0  0  0  0  0  0  0  0  0  0  0  0
   -0.9512    1.0582   -3.0127 C   0  0  0  0  0  3  0  0  0  0  0  0
   -0.8930    1.6233   -3.9528 H   0  0  0  0  0  0  0  0  0  0  0  0
   -1.7668    0.0432   -1.1391 N   0  0  0  0  0  2  0  0  0  0  0  0
   -0.7723   -1.0686    0.8951 N   0  0  0  0  0  2  0  0  0  0  0  0
    0.1605    0.5996   -2.4125 N   0  0  0  0  0  2  0  0  0  0  0  0
    1.9735   -0.7861    2.3130 O   0  5  0  0  0  0  0  0  0  0  0  0
    1.7333   -2.9338    1.5721 O   0  0  0  0  0  0  0  0  0  0  0  0
    1.3310    0.9984   -3.0218 O   0  0  0  0  0  0  0  0  0  0  0  0
    2.0065    0.4360   -2.5880 H   0  0  0  0  0  0  0  0  0  0  0  0
  1 19  1  0  0  0  0
  1  2  2  0  0  0  0
  2  4  1  0  0  0  0
  2  3  1  0  0  0  0
  4  5  1  0  0  0  0
  6  4  2  0  0  0  0
  7 18  2  0  0  0  0
  8 22  1  0  0  0  0
  9  8  2  0  0  0  0
  9 11  1  0  0  0  0
 10  9  1  0  0  0  0
 11 13  2  0  0  0  0
 12 11  1  0  0  0  0
 13  7  1  0  0  0  0
 13 14  1  0  0  0  0
 14 16  2  0  0  0  0
 15 14  1  0  0  0  0
 16  6  1  0  0  0  0
 16 17  1  0  0  0  0
 18 23  1  0  0  0  0
 18  6  1  0  0  0  0
 19 25  1  0  0  0  0
 20 24  1  0  0  0  0
 20  8  1  0  0  0  0
 21 20  1  0  0  0  0
 22  7  1  0  0  0  0
 23  1  1  0  0  0  0
 26 19  2  0  0  0  0
 27 28  1  0  0  0  0
 27 24  1  0  0  0  0
M  CHG  1  25  -1
M  END
