1,16,17
q = -1.0

 38 41  0  0  0  0  0  0  0  0999 V2000
    0.1317    1.4514    1.3639 N   0  0  0  0  0  2  0  0  0  0  0  0
   -0.9426    1.7328    2.1473 C   0  0  0  0  0  3  0  0  0  0  0  0
   -1.0710    2.8829    2.9217 C   0  0  0  0  0  0  0  0  0  0  0  0
   -0.0280    3.8291    2.9035 C   0  0  0  0  0  0  0  0  0  0  0  0
    1.1139    3.5232    2.1768 C   0  0  0  0  0  0  0  0  0  0  0  0
    1.2199    2.3019    1.4492 C   0  0  0  0  0  0  0  0  0  0  0  0
    2.4621    2.0222    0.9558 N   0  0  0  0  0  2  0  0  0  0  0  0
    2.7679    0.9096    0.3338 C   0  0  0  0  0  0  0  0  0  0  0  0
    4.1577    0.4723    0.0886 C   0  0  0  0  0  0  0  0  0  0  0  0
    5.3879    1.0709    0.3592 C   0  0  0  0  0  0  0  0  0  0  0  0
    6.5721    0.3676    0.0321 C   0  0  0  0  0  0  0  0  0  0  0  0
    6.4715   -0.9181   -0.5505 C   0  0  0  0  0  0  0  0  0  0  0  0
    5.2297   -1.5228   -0.8231 C   0  0  0  0  0  3  0  0  0  0  0  0
    4.0742   -0.8111   -0.4955 C   0  0  0  0  0  0  0  0  0  0  0  0
    2.6377   -1.1103   -0.6517 C   0  0  0  0  0  0  0  0  0  0  0  0
    1.9063   -0.0520   -0.1485 N   0  0  0  0  0  0  0  0  0  0  0  0
   -0.1093   -1.4288   -1.4034 N   0  0  0  0  0  2  0  0  0  0  0  0
    0.8893   -2.3632   -1.6092 C   0  0  0  0  0  0  0  0  0  0  0  0
    2.1864   -2.2048   -1.2132 N   0  0  0  0  0  0  0  0  0  0  0  0
    0.6206   -3.5371   -2.3711 C   0  0  0  0  0  0  0  0  0  0  0  0
   -0.5885   -3.7004   -3.0328 C   0  0  0  0  0  0  0  0  0  0  0  0
   -1.5313   -2.6573   -2.9490 C   0  0  0  0  0  0  0  0  0  0  0  0
   -1.2484   -1.5645   -2.1345 C   0  0  0  0  0  0  0  0  0  0  0  0
   -1.9754   -0.7491   -2.0462 H   0  0  0  0  0  0  0  0  0  0  0  0
   -2.4845   -2.6879   -3.4945 H   0  0  0  0  0  0  0  0  0  0  0  0
   -0.7862   -4.6004   -3.6340 H   0  0  0  0  0  0  0  0  0  0  0  0
    1.4417   -4.2625   -2.4465 H   0  0  0  0  0  0  0  0  0  0  0  0
    5.1596   -2.5226   -1.2759 H   0  0  0  0  0  0  0  0  0  0  0  0
    7.3994   -1.4585   -0.7962 H   0  0  0  0  0  0  0  0  0  0  0  0
    7.9187    0.9922    0.3007 C   0  0  0  0  0  0  0  0  0  0  0  0
    8.7484    0.2981    0.0659 H   0  0  0  0  0  0  0  0  0  0  0  0
    8.0632    1.9102   -0.3074 H   0  0  0  0  0  0  0  0  0  0  0  0
    8.0171    1.2967    1.3633 H   0  0  0  0  0  0  0  0  0  0  0  0
    5.4241    2.0706    0.8190 H   0  0  0  0  0  0  0  0  0  0  0  0
    2.0006    4.1711    2.1642 H   0  0  0  0  0  0  0  0  0  0  0  0
   -0.1000    4.7679    3.4728 H   0  0  0  0  0  0  0  0  0  0  0  0
   -1.9828    3.0316    3.5163 H   0  0  0  0  0  0  0  0  0  0  0  0
   -1.7481    0.9897    2.1307 H   0  0  0  0  0  0  0  0  0  0  0  0
  1  6  1  0  0  0  0
  1  2  1  0  0  0  0
  2  3  1  0  0  0  0
  3 37  1  0  0  0  0
  4  3  2  0  0  0  0
  4 36  1  0  0  0  0
  5  4  1  0  0  0  0
  6  5  2  0  0  0  0
  7  6  1  0  0  0  0
  8  7  1  0  0  0  0
  9  8  1  0  0  0  0
  9 10  2  0  0  0  0
 10 34  1  0  0  0  0
 11 30  1  0  0  0  0
 11 10  1  0  0  0  0
 12 11  2  0  0  0  0
 13 12  1  0  0  0  0
 13 14  1  0  0  0  0
 14  9  1  0  0  0  0
 15 14  2  0  0  0  0
 15 16  1  0  0  0  0
 16  8  2  0  0  0  0
 18 17  1  0  0  0  0
 18 19  2  0  0  0  0
 19 15  1  0  0  0  0
 20 18  1  0  0  0  0
 21 22  1  0  0  0  0
 21 20  2  0  0  0  0
 22 23  2  0  0  0  0
 23 24  1  0  0  0  0
 23 17  1  0  0  0  0
 25 22  1  0  0  0  0
 26 21  1  0  0  0  0
 27 20  1  0  0  0  0
 28 13  1  0  0  0  0
 29 12  1  0  0  0  0
 30 33  1  0  0  0  0
 31 30  1  0  0  0  0
 32 30  1  0  0  0  0
 35  5  1  0  0  0  0
 38  2  1  0  0  0  0
M  END
