1,11,14
q = 0.0, confidence = 0.918

 77 81  0  0  1  0  0  0  0  0999 V2000
   -0.0095    1.7179   -0.1772 N   0  0  0  0  0  2  0  0  0  0  0  0
    1.1702    2.3890   -0.3721 C   0  0  0  0  0  0  0  0  0  0  0  0
    1.1826    3.7788   -0.5694 C   0  0  0  0  0  0  0  0  0  0  0  0
    2.1438    4.2863   -0.7280 H   0  0  0  0  0  0  0  0  0  0  0  0
   -0.0377    4.4780   -0.5438 C   0  0  0  0  0  0  0  0  0  0  0  0
   -0.0504    5.5661   -0.6992 H   0  0  0  0  0  0  0  0  0  0  0  0
   -1.2384    3.7904   -0.2915 C   0  0  0  0  0  0  0  0  0  0  0  0
   -2.2058    4.3068   -0.2262 H   0  0  0  0  0  0  0  0  0  0  0  0
   -1.1940    2.4012   -0.0921 C   0  0  0  0  0  0  0  0  0  0  0  0
    2.2714    1.4528   -0.3569 C   0  0  0  0  0  0  0  0  0  0  0  0
    1.9487    0.1812   -0.1653 N   0  0  0  0  0  2  0  0  0  0  0  0
    3.5099    1.9235   -0.6489 O   0  0  0  0  0  0  0  0  0  0  0  0
   -2.2743    1.4799    0.1904 C   0  0  1  0  0  3  0  0  0  0  0  0
   -1.9210    0.2123    0.3182 N   0  0  0  0  0  2  0  0  0  0  0  0
   -3.5262    1.9880    0.3293 O   0  0  0  0  0  0  0  0  0  0  0  0
    2.9081   -0.8298   -0.4837 C   0  0  0  0  0  0  0  0  0  0  0  0
    3.2895   -0.9771   -1.8421 C   0  0  0  0  0  0  0  0  0  0  0  0
    4.2793   -1.9227   -2.1565 C   0  0  0  0  0  0  0  0  0  0  0  0
    4.5790   -2.0415   -3.2105 H   0  0  0  0  0  0  0  0  0  0  0  0
    4.8859   -2.7222   -1.1719 C   0  0  0  0  0  0  0  0  0  0  0  0
    4.4279   -2.5968    0.1519 C   0  0  0  0  0  0  0  0  0  0  0  0
    4.8574   -3.2419    0.9354 H   0  0  0  0  0  0  0  0  0  0  0  0
    3.4283   -1.6816    0.5202 C   0  0  0  0  0  0  0  0  0  0  0  0
    2.6222   -0.1698   -2.9253 C   0  0  0  0  0  0  0  0  0  0  0  0
    2.9542    0.8899   -2.9231 H   0  0  0  0  0  0  0  0  0  0  0  0
    1.5221   -0.1752   -2.7831 H   0  0  0  0  0  0  0  0  0  0  0  0
    2.8478   -0.5896   -3.9239 H   0  0  0  0  0  0  0  0  0  0  0  0
    5.9955   -3.6825   -1.5173 C   0  0  0  0  0  0  0  0  0  0  0  0
    6.9865   -3.2565   -1.2479 H   0  0  0  0  0  0  0  0  0  0  0  0
    6.0179   -3.9117   -2.6007 H   0  0  0  0  0  0  0  0  0  0  0  0
    5.8961   -4.6381   -0.9640 H   0  0  0  0  0  0  0  0  0  0  0  0
    2.9057   -1.6447    1.9263 C   0  0  0  0  0  0  0  0  0  0  0  0
    2.7945   -0.6152    2.3139 H   0  0  0  0  0  0  0  0  0  0  0  0
    3.5582   -2.2219    2.6087 H   0  0  0  0  0  0  0  0  0  0  0  0
    1.8861   -2.0844    1.9600 H   0  0  0  0  0  0  0  0  0  0  0  0
   -2.9254   -0.7916    0.5095 C   0  0  0  0  0  0  0  0  0  0  0  0
   -3.4664   -0.9874    1.8057 C   0  0  0  0  0  0  0  0  0  0  0  0
   -4.4671   -1.9603    1.9645 C   0  0  0  0  0  0  0  0  0  0  0  0
   -4.8928   -2.1138    2.9697 H   0  0  0  0  0  0  0  0  0  0  0  0
   -4.9467   -2.7278    0.8876 C   0  0  0  0  0  0  0  0  0  0  0  0
   -4.3922   -2.4964   -0.3814 C   0  0  0  0  0  0  0  0  0  0  0  0
   -4.7630   -3.0717   -1.2455 H   0  0  0  0  0  0  0  0  0  0  0  0
   -3.3819   -1.5439   -0.6012 C   0  0  0  0  0  0  0  0  0  0  0  0
   -3.0229   -0.1464    2.9725 C   0  0  0  0  0  0  0  0  0  0  0  0
   -3.3175    0.9164    2.8350 H   0  0  0  0  0  0  0  0  0  0  0  0
   -1.9198   -0.1459    3.0816 H   0  0  0  0  0  0  0  0  0  0  0  0
   -3.4810   -0.5054    3.9136 H   0  0  0  0  0  0  0  0  0  0  0  0
   -6.0073   -3.7803    1.0903 C   0  0  0  0  0  0  0  0  0  0  0  0
   -5.5532   -4.7888    1.1999 H   0  0  0  0  0  0  0  0  0  0  0  0
   -6.7010   -3.8308    0.2270 H   0  0  0  0  0  0  0  0  0  0  0  0
   -6.6044   -3.5895    2.0037 H   0  0  0  0  0  0  0  0  0  0  0  0
   -2.8680   -1.3332   -2.0021 C   0  0  0  0  0  0  0  0  0  0  0  0
   -2.3003   -2.2227   -2.3393 H   0  0  0  0  0  0  0  0  0  0  0  0
   -2.1775   -0.4745   -2.0710 H   0  0  0  0  0  0  0  0  0  0  0  0
   -3.7124   -1.1718   -2.7014 H   0  0  0  0  0  0  0  0  0  0  0  0
    4.5131    1.4332    1.5084 C   0  0  0  0  0  0  0  0  0  0  0  0
    3.5834    1.7415    2.0107 H   0  0  0  0  0  0  0  0  0  0  0  0
    5.6227    0.9825    2.2373 C   0  0  0  0  0  0  0  0  0  0  0  0
    5.5688    0.9511    3.3360 H   0  0  0  0  0  0  0  0  0  0  0  0
    6.7901    0.5706    1.5745 C   0  0  0  0  0  0  0  0  0  0  0  0
    7.6551    0.2132    2.1525 H   0  0  0  0  0  0  0  0  0  0  0  0
    6.8508    0.6162    0.1719 C   0  0  0  0  0  0  0  0  0  0  0  0
    7.7618    0.2915   -0.3529 H   0  0  0  0  0  0  0  0  0  0  0  0
    5.7485    1.0595   -0.5722 C   0  0  0  0  0  0  0  0  0  0  0  0
    5.7611    1.0792   -1.6704 H   0  0  0  0  0  0  0  0  0  0  0  0
    4.5901    1.4518    0.1083 C   0  0  0  0  0  0  0  0  0  0  0  0
   -5.7250    1.0107    0.3128 C   0  0  0  0  0  0  0  0  0  0  0  0
   -5.7096    1.0191    1.4107 H   0  0  0  0  0  0  0  0  0  0  0  0
   -6.8260    0.5262   -0.4056 C   0  0  0  0  0  0  0  0  0  0  0  0
   -7.7043    0.1515    0.1409 H   0  0  0  0  0  0  0  0  0  0  0  0
   -6.8071    0.5055   -1.8105 C   0  0  0  0  0  0  0  0  0  0  0  0
   -7.6732    0.1197   -2.3681 H   0  0  0  0  0  0  0  0  0  0  0  0
   -5.6823    0.9837   -2.5007 C   0  0  0  0  0  0  0  0  0  0  0  0
   -5.6651    0.9807   -3.6011 H   0  0  0  0  0  0  0  0  0  0  0  0
   -4.5717    1.4699   -1.7948 C   0  0  0  0  0  0  0  0  0  0  0  0
   -3.6807    1.8457   -2.3185 H   0  0  0  0  0  0  0  0  0  0  0  0
   -4.6019    1.4594   -0.3937 C   0  0  0  0  0  0  0  0  0  0  0  0
  1  9  1  0  0  0  0
  2 10  2  0  0  0  0
  2  1  1  0  0  0  0
  3  5  2  0  0  0  0
  3  2  1  0  0  0  0
  4  3  1  0  0  0  0
  5  7  1  0  0  0  0
  6  5  1  0  0  0  0
  7  8  1  0  0  0  0
  7  9  2  0  0  0  0
  9 13  1  0  0  0  0
 10 11  1  0  0  0  0
 12 10  1  0  0  0  0
 12 66  1  0  0  0  0
 13 14  1  1  0  0  0
 13 15  1  0  0  0  0
 14 36  1  0  0  0  0
 16 11  1  0  0  0  0
 16 23  1  0  0  0  0
 17 16  2  0  0  0  0
 18 17  1  0  0  0  0
 18 20  2  0  0  0  0
 19 18  1  0  0  0  0
 20 21  1  0  0  0  0
 21 23  2  0  0  0  0
 21 22  1  0  0  0  0
 23 32  1  0  0  0  0
 24 25  1  0  0  0  0
 24 26  1  0  0  0  0
 24 17  1  0  0  0  0
 27 24  1  0  0  0  0
 28 29  1  0  0  0  0
 28 20  1  0  0  0  0
 28 31  1  0  0  0  0
 30 28  1  0  0  0  0
 32 35  1  0  0  0  0
 32 33  1  0  0  0  0
 32 34  1  0  0  0  0
 36 37  1  0  0  0  0
 37 38  2  0  0  0  0
 37 44  1  0  0  0  0
 38 39  1  0  0  0  0
 40 48  1  0  0  0  0
 40 38  1  0  0  0  0
 41 40  2  0  0  0  0
 42 41  1  0  0  0  0
 43 41  1  0  0  0  0
 43 36  2  0  0  0  0
 44 46  1  0  0  0  0
 44 47  1  0  0  0  0
 45 44  1  0  0  0  0
 48 49  1  0  0  0  0
 48 51  1  0  0  0  0
 50 48  1  0  0  0  0
 52 43  1  0  0  0  0
 53 52  1  0  0  0  0
 54 52  1  0  0  0  0
 55 52  1  0  0  0  0
 56 57  1  0  0  0  0
 56 58  1  0  0  0  0
 58 59  1  0  0  0  0
 60 61  1  0  0  0  0
 60 58  2  0  0  0  0
 62 60  1  0  0  0  0
 63 62  1  0  0  0  0
 64 66  1  0  0  0  0
 64 62  2  0  0  0  0
 65 64  1  0  0  0  0
 66 56  2  0  0  0  0
 67 68  1  0  0  0  0
 69 70  1  0  0  0  0
 69 67  2  0  0  0  0
 71 69  1  0  0  0  0
 72 71  1  0  0  0  0
 73 71  2  0  0  0  0
 73 75  1  0  0  0  0
 74 73  1  0  0  0  0
 75 77  2  0  0  0  0
 76 75  1  0  0  0  0
 77 67  1  0  0  0  0
 77 15  1  0  0  0  0
M  END
