1,16,23
q = -1.0, confidence = 0.016

 52 55  0  0  0  0  0  0  0  0999 V2000
    1.0469    2.4508   -0.0106 N   0  0  0  0  0  2  0  0  0  0  0  0
    1.7804    3.5946   -0.1170 C   0  0  0  0  0  0  0  0  0  0  0  0
    1.2253    4.8470   -0.3468 C   0  0  0  0  0  0  0  0  0  0  0  0
   -0.1756    4.9879   -0.4767 C   0  0  0  0  0  0  0  0  0  0  0  0
   -0.9212    3.8164   -0.3790 C   0  0  0  0  0  0  0  0  0  0  0  0
   -0.3184    2.5436   -0.1675 C   0  0  0  0  0  0  0  0  0  0  0  0
   -1.1908    1.4944   -0.1401 N   0  0  0  0  0  0  0  0  0  0  0  0
   -0.8531    0.2336   -0.1422 C   0  0  0  0  0  0  0  0  0  0  0  0
   -1.8545   -0.8554   -0.1023 C   0  0  0  0  0  3  0  0  0  0  0  0
   -3.2498   -0.8091   -0.0877 C   0  0  0  0  0  0  0  0  0  0  0  0
   -3.9320   -2.0477   -0.0420 C   0  0  0  0  0  0  0  0  0  0  0  0
   -3.2106   -3.2716   -0.0134 C   0  0  0  0  0  0  0  0  0  0  0  0
   -1.8120   -3.2916   -0.0293 C   0  0  0  0  0  0  0  0  0  0  0  0
   -1.1380   -2.0640   -0.0739 C   0  0  0  0  0  0  0  0  0  0  0  0
    0.2932   -1.7149   -0.0978 C   0  0  0  0  0  0  0  0  0  0  0  0
    0.4021   -0.3361   -0.1740 N   0  0  0  0  0  0  0  0  0  0  0  0
    1.2412   -2.6102   -0.0493 N   0  0  0  0  0  0  0  0  0  0  0  0
    2.5798   -2.3464   -0.0701 C   0  0  0  0  0  0  0  0  0  0  0  0
    3.4106   -3.4914   -0.2348 C   0  0  0  0  0  0  0  0  0  0  0  0
    4.7969   -3.4007   -0.3253 C   0  0  0  0  0  0  0  0  0  0  0  0
    5.3429   -2.0994   -0.2375 C   0  0  0  0  0  0  0  0  0  0  0  0
    4.5074   -1.0055   -0.0508 C   0  0  0  0  0  0  0  0  0  0  0  0
    3.1514   -1.0991    0.0499 N   0  0  0  0  0  2  0  0  0  0  0  0
   -0.8126    6.3297   -0.7076 C   0  0  0  0  0  0  0  0  0  0  0  0
   -5.2843   -2.1681   -0.0221 O   0  0  0  0  0  0  0  0  0  0  0  0
   -6.0793   -0.9862   -0.0448 C   0  0  0  0  0  0  0  0  0  0  0  0
   -7.5468   -1.4060   -0.0021 C   0  0  0  0  0  0  0  0  0  0  0  0
   -8.4743   -0.2298   -0.1221 C   0  0  0  0  0  0  0  0  0  0  0  0
   -9.3439    0.1694    0.8213 C   0  0  0  0  0  0  0  0  0  0  0  0
    5.6715   -4.6095   -0.5077 C   0  0  0  0  0  0  0  0  0  0  0  0
    2.8632    3.4655    0.0185 H   0  0  0  0  0  0  0  0  0  0  0  0
    1.8958    5.7161   -0.4161 H   0  0  0  0  0  0  0  0  0  0  0  0
   -2.0156    3.8137   -0.4752 H   0  0  0  0  0  0  0  0  0  0  0  0
   -3.7612    0.1617   -0.1084 H   0  0  0  0  0  0  0  0  0  0  0  0
   -3.7953   -4.2021    0.0231 H   0  0  0  0  0  0  0  0  0  0  0  0
   -1.2506   -4.2369   -0.0058 H   0  0  0  0  0  0  0  0  0  0  0  0
    2.8846   -4.4536   -0.3020 H   0  0  0  0  0  0  0  0  0  0  0  0
    6.4273   -1.9289   -0.3055 H   0  0  0  0  0  0  0  0  0  0  0  0
    4.9117    0.0108    0.0536 H   0  0  0  0  0  0  0  0  0  0  0  0
   -1.9120    6.2521   -0.8028 H   0  0  0  0  0  0  0  0  0  0  0  0
   -0.5845    7.0227    0.1288 H   0  0  0  0  0  0  0  0  0  0  0  0
   -0.4154    6.8024   -1.6298 H   0  0  0  0  0  0  0  0  0  0  0  0
   -5.8642   -0.3974   -0.9673 H   0  0  0  0  0  0  0  0  0  0  0  0
   -5.8344   -0.3370    0.8268 H   0  0  0  0  0  0  0  0  0  0  0  0
   -7.7387   -1.9633    0.9379 H   0  0  0  0  0  0  0  0  0  0  0  0
   -7.7174   -2.1162   -0.8415 H   0  0  0  0  0  0  0  0  0  0  0  0
   -8.4105    0.3436   -1.0662 H   0  0  0  0  0  0  0  0  0  0  0  0
   -9.9962    1.0435    0.6712 H   0  0  0  0  0  0  0  0  0  0  0  0
   -9.4405   -0.3710    1.7781 H   0  0  0  0  0  0  0  0  0  0  0  0
    5.0776   -5.5404   -0.5745 H   0  0  0  0  0  0  0  0  0  0  0  0
    6.2833   -4.5194   -1.4292 H   0  0  0  0  0  0  0  0  0  0  0  0
    6.3830   -4.7114    0.3381 H   0  0  0  0  0  0  0  0  0  0  0  0
  2  1  1  0  0  0  0
  2 31  1  0  0  0  0
  3  2  2  0  0  0  0
  4  5  2  0  0  0  0
  4  3  1  0  0  0  0
  5  6  1  0  0  0  0
  6  7  2  0  0  0  0
  6  1  1  0  0  0  0
  8  7  1  0  0  0  0
  8  9  1  0  0  0  0
  9 10  1  0  0  0  0
  9 14  1  0  0  0  0
 10 11  2  0  0  0  0
 11 25  1  0  0  0  0
 11 12  1  0  0  0  0
 12 35  1  0  0  0  0
 13 12  2  0  0  0  0
 13 36  1  0  0  0  0
 14 13  1  0  0  0  0
 15 14  2  0  0  0  0
 15 17  1  0  0  0  0
 16  8  2  0  0  0  0
 16 15  1  0  0  0  0
 18 17  2  0  0  0  0
 18 23  1  0  0  0  0
 19 18  1  0  0  0  0
 20 21  1  0  0  0  0
 20 19  2  0  0  0  0
 21 22  2  0  0  0  0
 22 23  1  0  0  0  0
 22 39  1  0  0  0  0
 24  4  1  0  0  0  0
 24 41  1  0  0  0  0
 26 25  1  0  0  0  0
 26 27  1  0  0  0  0
 26 44  1  0  0  0  0
 27 45  1  0  0  0  0
 28 27  1  0  0  0  0
 28 29  2  0  0  0  0
 29 49  1  0  0  0  0
 30 20  1  0  0  0  0
 30 52  1  0  0  0  0
 32  3  1  0  0  0  0
 33  5  1  0  0  0  0
 34 10  1  0  0  0  0
 37 19  1  0  0  0  0
 38 21  1  0  0  0  0
 40 24  1  0  0  0  0
 42 24  1  0  0  0  0
 43 26  1  0  0  0  0
 46 27  1  0  0  0  0
 47 28  1  0  0  0  0
 48 29  1  0  0  0  0
 50 30  1  0  0  0  0
 51 30  1  0  0  0  0
M  END
