1,2,30
q = -2.0, confidence = 0.534

 37 39  0  0  1  0  0  0  0  0999 V2000
   -2.4427    0.2557   -1.6923 N   0  0  0  0  0  2  0  0  0  0  0  0
    0.9475   -1.4804   -0.4534 N   0  0  0  0  0  2  0  0  0  0  0  0
    5.0645   -0.6344   -0.4154 C   0  0  0  0  0  0  0  0  0  0  0  0
    4.4788   -1.2298    0.7165 C   0  0  0  0  0  0  0  0  0  0  0  0
    5.0826   -1.4249    1.6133 H   0  0  0  0  0  0  0  0  0  0  0  0
    3.1188   -1.5427    0.6924 C   0  0  0  0  0  0  0  0  0  0  0  0
    2.6301   -1.9928    1.5668 H   0  0  0  0  0  0  0  0  0  0  0  0
   -3.3891   -0.4597   -0.9953 C   0  0  2  0  0  3  0  0  0  0  0  0
   -2.9362   -1.5408   -0.1550 C   0  0  0  0  0  0  0  0  0  0  0  0
    4.3106   -0.3656   -1.5696 C   0  0  0  0  0  0  0  0  0  0  0  0
    4.7878    0.0850   -2.4509 H   0  0  0  0  0  0  0  0  0  0  0  0
   -4.7817   -0.1564   -1.1190 C   0  0  0  0  0  0  0  0  0  0  0  0
    2.3419   -1.2345   -0.4453 C   0  0  0  0  0  0  0  0  0  0  0  0
   -2.8216    1.1667   -2.5923 C   0  0  0  0  0  0  0  0  0  0  0  0
   -2.0000    1.6353   -3.1567 H   0  0  0  0  0  0  0  0  0  0  0  0
    2.9428   -0.6578   -1.5817 C   0  0  0  0  0  0  0  0  0  0  0  0
    2.3193   -0.4274   -2.4563 H   0  0  0  0  0  0  0  0  0  0  0  0
   -3.8887   -2.2413    0.5921 C   0  0  0  0  0  0  0  0  0  0  0  0
   -3.5454   -3.0585    1.2388 H   0  0  0  0  0  0  0  0  0  0  0  0
   -4.1809    1.5045   -2.7876 C   0  0  0  0  0  0  0  0  0  0  0  0
   -4.4394    2.2750   -3.5274 H   0  0  0  0  0  0  0  0  0  0  0  0
   -5.7115   -0.8955   -0.3333 C   0  0  0  0  0  0  0  0  0  0  0  0
   -6.7830   -0.6562   -0.4096 H   0  0  0  0  0  0  0  0  0  0  0  0
   -5.2603   -1.9056    0.5045 C   0  0  0  0  0  0  0  0  0  0  0  0
   -5.9786   -2.4744    1.1137 H   0  0  0  0  0  0  0  0  0  0  0  0
   -5.1565    0.8675   -2.0369 C   0  0  0  0  0  0  0  0  0  0  0  0
   -6.2209    1.1236   -2.1507 H   0  0  0  0  0  0  0  0  0  0  0  0
    6.9023   -0.1490   -0.3613 Br  0  0  0  0  0  0  0  0  0  0  0  0
    0.5913   -2.5700    0.1783 N   0  0  0  0  0  0  0  0  0  0  0  0
   -1.5411   -1.7465   -0.1901 N   0  0  0  0  0  2  0  0  0  0  0  0
   -0.7518   -2.7461    0.3130 C   0  0  0  0  0  0  0  0  0  0  0  0
   -2.1700   -4.2832    1.5445 O   0  0  0  0  0  0  0  0  0  0  0  0
   -1.0868   -4.0290    1.0182 C   0  0  0  0  0  0  0  0  0  0  0  0
    0.0369   -5.0485    1.0732 C   0  0  0  0  0  0  0  0  0  0  0  0
   -0.3629   -5.9742    1.5247 H   0  0  0  0  0  0  0  0  0  0  0  0
    0.8823   -4.6625    1.6756 H   0  0  0  0  0  0  0  0  0  0  0  0
    0.4498   -5.2486    0.0653 H   0  0  0  0  0  0  0  0  0  0  0  0
  2 13  1  0  0  0  0
  2 29  1  0  0  0  0
  3 28  1  0  0  0  0
  3  4  1  0  0  0  0
  4  5  1  0  0  0  0
  6  4  2  0  0  0  0
  6  7  1  0  0  0  0
  8  1  1  6  0  0  0
  8  9  1  0  0  0  0
  9 18  2  0  0  0  0
 10  3  2  0  0  0  0
 11 10  1  0  0  0  0
 12  8  1  0  0  0  0
 12 22  1  0  0  0  0
 13  6  1  0  0  0  0
 14  1  1  0  0  0  0
 15 14  1  0  0  0  0
 16 10  1  0  0  0  0
 16 13  2  0  0  0  0
 17 16  1  0  0  0  0
 18 19  1  0  0  0  0
 20 14  2  0  0  0  0
 20 26  1  0  0  0  0
 21 20  1  0  0  0  0
 22 24  2  0  0  0  0
 23 22  1  0  0  0  0
 24 18  1  0  0  0  0
 24 25  1  0  0  0  0
 26 12  2  0  0  0  0
 27 26  1  0  0  0  0
 29 31  2  0  0  0  0
 30  9  1  0  0  0  0
 30 31  1  0  0  0  0
 31 33  1  0  0  0  0
 33 34  1  0  0  0  0
 33 32  2  0  0  0  0
 34 35  1  0  0  0  0
 34 36  1  0  0  0  0
 37 34  1  0  0  0  0
M  END
