1,2,3
q = 0.0, confidence = 0.996

 29 30  0  0  1  0  0  0  0  0999 V2000
   -1.8973   -0.4012    0.0384 N   0  0  0  0  0  2  0  0  0  0  0  0
   -0.3180    0.3450    1.8051 N   0  0  0  0  0  2  0  0  0  0  0  0
    1.8315    0.2799   -0.0120 N   0  0  0  0  0  2  0  0  0  0  0  0
   -2.6077   -0.8041   -1.0298 C   0  0  0  0  0  3  0  0  0  0  0  0
   -2.0155   -1.0486   -1.9245 H   0  0  0  0  0  0  0  0  0  0  0  0
   -4.0002   -0.9090   -0.9683 C   0  0  0  0  0  0  0  0  0  0  0  0
   -4.5551   -1.2513   -1.8524 H   0  0  0  0  0  0  0  0  0  0  0  0
   -4.6645   -0.5706    0.2289 C   0  0  0  0  0  0  0  0  0  0  0  0
   -5.7604   -0.6399    0.2937 H   0  0  0  0  0  0  0  0  0  0  0  0
   -3.9221   -0.1427    1.3308 C   0  0  0  0  0  0  0  0  0  0  0  0
   -4.4056    0.1377    2.2772 H   0  0  0  0  0  0  0  0  0  0  0  0
   -2.5192   -0.0605    1.2161 C   0  0  0  0  0  0  0  0  0  0  0  0
   -1.5726    0.3446    2.2142 C   0  0  0  0  0  3  0  0  0  0  0  0
   -1.8581    0.6229    3.2426 H   0  0  0  0  0  0  0  0  0  0  0  0
    0.7672    0.7248    2.6827 C   0  0  0  0  0  0  0  0  0  0  0  0
    1.0074    1.7978    2.5083 H   0  0  0  0  0  0  0  0  0  0  0  0
    0.4571    0.6169    3.7445 H   0  0  0  0  0  0  0  0  0  0  0  0
    1.9933   -0.1503    2.4028 C   0  0  0  0  0  0  0  0  0  0  0  0
    1.6788   -1.2169    2.4053 H   0  0  0  0  0  0  0  0  0  0  0  0
    2.7442   -0.0132    3.2043 H   0  0  0  0  0  0  0  0  0  0  0  0
    2.6329    0.1485    1.0750 C   0  0  1  0  0  3  0  0  0  0  0  0
    4.0249    0.2899    0.9456 C   0  0  0  0  0  0  0  0  0  0  0  0
    4.6553    0.1796    1.8395 H   0  0  0  0  0  0  0  0  0  0  0  0
    4.5897    0.5571   -0.3066 C   0  0  0  0  0  0  0  0  0  0  0  0
    5.6795    0.6616   -0.4157 H   0  0  0  0  0  0  0  0  0  0  0  0
    3.7403    0.6931   -1.4125 C   0  0  0  0  0  0  0  0  0  0  0  0
    4.1285    0.9109   -2.4170 H   0  0  0  0  0  0  0  0  0  0  0  0
    2.3642    0.5476   -1.2284 C   0  0  0  0  0  0  0  0  0  0  0  0
    1.6352    0.6614   -2.0445 H   0  0  0  0  0  0  0  0  0  0  0  0
  1 12  1  0  0  0  0
  2 13  1  0  0  0  0
  2 15  1  0  0  0  0
  3 21  1  0  0  0  0
  4  6  1  0  0  0  0
  4  1  1  0  0  0  0
  5  4  1  0  0  0  0
  6  8  2  0  0  0  0
  7  6  1  0  0  0  0
  8  9  1  0  0  0  0
  8 10  1  0  0  0  0
 10 11  1  0  0  0  0
 12 10  2  0  0  0  0
 12 13  1  0  0  0  0
 13 14  1  0  0  0  0
 15 17  1  0  0  0  0
 16 15  1  0  0  0  0
 18 19  1  0  0  0  0
 18 15  1  0  0  0  0
 18 20  1  0  0  0  0
 21 18  1  6  0  0  0
 22 21  1  0  0  0  0
 22 23  1  0  0  0  0
 24 22  2  0  0  0  0
 25 24  1  0  0  0  0
 26 28  2  0  0  0  0
 26 24  1  0  0  0  0
 27 26  1  0  0  0  0
 28  3  1  0  0  0  0
 29 28  1  0  0  0  0
M  END
