2,3,4
q = -1.0

 59 59  0  0  0  0  0  0  0  0999 V2000
    1.5892    0.7530    2.6957 O   0  0  0  0  0  0  0  0  0  0  0  0
   -0.9301   -0.9325   -0.4398 N   0  0  0  0  0  2  0  0  0  0  0  0
   -0.0294   -1.2514    2.1420 N   0  0  0  0  0  2  0  0  0  0  0  0
    0.0262    1.8990    0.7709 N   0  0  0  0  0  2  0  0  0  0  0  0
   -1.0182   -2.0331   -1.8464 Si  0  0  0  0  0  0  0  0  0  0  0  0
   -0.5760    2.9293   -0.5615 Si  0  0  0  0  0  0  0  0  0  0  0  0
   -1.3772   -1.0650    1.9216 C   0  0  0  0  0  0  0  0  0  0  0  0
   -1.8668   -0.9396    0.6155 C   0  0  0  0  0  0  0  0  0  0  0  0
   -3.3025   -0.6470    0.3954 C   0  0  0  0  0  0  0  0  0  0  0  0
   -3.7289    0.2033   -0.6467 C   0  0  0  0  0  0  0  0  0  0  0  0
   -5.0873    0.4811   -0.8464 C   0  0  0  0  0  0  0  0  0  0  0  0
   -6.0800   -0.0780   -0.0181 C   0  0  0  0  0  0  0  0  0  0  0  0
   -5.6544   -0.9348    1.0208 C   0  0  0  0  0  0  0  0  0  0  0  0
   -4.3001   -1.2188    1.2212 C   0  0  0  0  0  0  0  0  0  0  0  0
   -7.5447    0.2008   -0.2414 C   0  0  0  0  0  0  0  0  0  0  0  0
    1.7625   -0.4055    3.5109 C   0  0  0  0  0  0  0  0  0  0  0  0
    0.5006   -1.2850    3.4824 C   0  0  0  0  0  0  0  0  0  0  0  0
    0.6591    1.7383    3.1516 C   0  0  0  0  0  0  0  0  0  0  0  0
    0.4186    2.6529    1.9604 C   0  0  0  0  0  0  0  0  0  0  0  0
   -1.1832   -3.7936   -1.1777 C   0  0  0  0  0  0  0  0  0  0  0  0
   -2.4969   -1.6950   -2.9816 C   0  0  0  0  0  0  0  0  0  0  0  0
    0.5496   -1.8184   -2.8655 C   0  0  0  0  0  0  0  0  0  0  0  0
   -2.3064    3.5630   -0.1245 C   0  0  0  0  0  0  0  0  0  0  0  0
    0.5867    4.4123   -0.7495 C   0  0  0  0  0  0  0  0  0  0  0  0
   -0.5822    1.9857   -2.1929 C   0  0  0  0  0  0  0  0  0  0  0  0
   -2.9745    0.6596   -1.2998 H   0  0  0  0  0  0  0  0  0  0  0  0
   -5.3847    1.1566   -1.6645 H   0  0  0  0  0  0  0  0  0  0  0  0
   -6.4067   -1.4006    1.6779 H   0  0  0  0  0  0  0  0  0  0  0  0
   -4.0033   -1.9180    2.0181 H   0  0  0  0  0  0  0  0  0  0  0  0
   -8.0570    0.4715    0.7048 H   0  0  0  0  0  0  0  0  0  0  0  0
   -8.0684   -0.6929   -0.6439 H   0  0  0  0  0  0  0  0  0  0  0  0
   -7.6975    1.0275   -0.9621 H   0  0  0  0  0  0  0  0  0  0  0  0
    2.0420   -0.1214    4.5503 H   0  0  0  0  0  0  0  0  0  0  0  0
    2.6125   -0.9452    3.0482 H   0  0  0  0  0  0  0  0  0  0  0  0
   -0.2585   -0.9294    4.2203 H   0  0  0  0  0  0  0  0  0  0  0  0
    0.7834   -2.3163    3.7974 H   0  0  0  0  0  0  0  0  0  0  0  0
   -0.2966    1.2601    3.4677 H   0  0  0  0  0  0  0  0  0  0  0  0
    1.0796    2.2968    4.0195 H   0  0  0  0  0  0  0  0  0  0  0  0
   -0.3495    3.4050    2.2630 H   0  0  0  0  0  0  0  0  0  0  0  0
    1.3578    3.2263    1.7680 H   0  0  0  0  0  0  0  0  0  0  0  0
   -1.3494   -4.5179   -2.0017 H   0  0  0  0  0  0  0  0  0  0  0  0
   -2.0461   -3.8598   -0.4834 H   0  0  0  0  0  0  0  0  0  0  0  0
   -0.2716   -4.0998   -0.6276 H   0  0  0  0  0  0  0  0  0  0  0  0
   -2.4484   -2.4000   -3.8387 H   0  0  0  0  0  0  0  0  0  0  0  0
   -3.4663   -1.8420   -2.4674 H   0  0  0  0  0  0  0  0  0  0  0  0
   -2.4776   -0.6655   -3.3923 H   0  0  0  0  0  0  0  0  0  0  0  0
    1.4599   -2.0483   -2.2799 H   0  0  0  0  0  0  0  0  0  0  0  0
    0.5147   -2.5035   -3.7376 H   0  0  0  0  0  0  0  0  0  0  0  0
    0.6237   -0.7823   -3.2517 H   0  0  0  0  0  0  0  0  0  0  0  0
   -2.6994    4.2217   -0.9269 H   0  0  0  0  0  0  0  0  0  0  0  0
   -3.0202    2.7277    0.0198 H   0  0  0  0  0  0  0  0  0  0  0  0
   -2.2858    4.1586    0.8117 H   0  0  0  0  0  0  0  0  0  0  0  0
    0.2750    5.0257   -1.6204 H   0  0  0  0  0  0  0  0  0  0  0  0
    1.6275    4.0712   -0.9233 H   0  0  0  0  0  0  0  0  0  0  0  0
    0.5793    5.0718    0.1419 H   0  0  0  0  0  0  0  0  0  0  0  0
   -1.0467    2.6131   -2.9815 H   0  0  0  0  0  0  0  0  0  0  0  0
   -1.1334    1.0301   -2.1235 H   0  0  0  0  0  0  0  0  0  0  0  0
    0.4577    1.7588   -2.5010 H   0  0  0  0  0  0  0  0  0  0  0  0
   -2.0404   -0.8395    2.7793 H   0  0  0  0  0  0  0  0  0  0  0  0
  1 18  1  0  0  0  0
  1 16  1  0  0  0  0
  2  8  1  0  0  0  0
  3 17  1  0  0  0  0
  4 19  1  0  0  0  0
  5 20  1  0  0  0  0
  5  2  1  0  0  0  0
  6 23  1  0  0  0  0
  6  4  1  0  0  0  0
  7  3  1  0  0  0  0
  7 59  1  0  0  0  0
  8  7  2  0  0  0  0
  9  8  1  0  0  0  0
  9 14  1  0  0  0  0
 10  9  2  0  0  0  0
 11 10  1  0  0  0  0
 11 12  2  0  0  0  0
 12 13  1  0  0  0  0
 13 14  2  0  0  0  0
 13 28  1  0  0  0  0
 14 29  1  0  0  0  0
 15 12  1  0  0  0  0
 15 30  1  0  0  0  0
 16 33  1  0  0  0  0
 17 16  1  0  0  0  0
 17 36  1  0  0  0  0
 17 35  1  0  0  0  0
 18 37  1  0  0  0  0
 18 38  1  0  0  0  0
 19 39  1  0  0  0  0
 19 18  1  0  0  0  0
 20 43  1  0  0  0  0
 20 42  1  0  0  0  0
 21 45  1  0  0  0  0
 21  5  1  0  0  0  0
 22 47  1  0  0  0  0
 22  5  1  0  0  0  0
 23 51  1  0  0  0  0
 23 52  1  0  0  0  0
 24  6  1  0  0  0  0
 24 55  1  0  0  0  0
 25 57  1  0  0  0  0
 25  6  1  0  0  0  0
 26 10  1  0  0  0  0
 27 11  1  0  0  0  0
 31 15  1  0  0  0  0
 32 15  1  0  0  0  0
 34 16  1  0  0  0  0
 40 19  1  0  0  0  0
 41 20  1  0  0  0  0
 44 21  1  0  0  0  0
 46 21  1  0  0  0  0
 48 22  1  0  0  0  0
 49 22  1  0  0  0  0
 50 23  1  0  0  0  0
 53 24  1  0  0  0  0
 54 24  1  0  0  0  0
 56 25  1  0  0  0  0
 58 25  1  0  0  0  0
M  END
