19,22,24
q = 0.0, confidence = 0.994

 24 24  0  0  1  0  0  0  0  0999 V2000
   -0.8993    2.4882   -1.3863 C   0  0  0  0  0  0  0  0  0  0  0  0
   -1.9265    2.6596   -1.0062 H   0  0  0  0  0  0  0  0  0  0  0  0
   -0.7312    3.2008   -2.2220 H   0  0  0  0  0  0  0  0  0  0  0  0
    0.1284    2.7222   -0.2906 C   0  0  0  0  0  0  0  0  0  0  0  0
    0.0690    3.7607    0.0961 H   0  0  0  0  0  0  0  0  0  0  0  0
    1.1481    2.5941   -0.7112 H   0  0  0  0  0  0  0  0  0  0  0  0
    1.2629    1.4170    1.4784 C   0  0  0  0  0  0  0  0  0  0  0  0
    1.0362    0.9031    2.4366 H   0  0  0  0  0  0  0  0  0  0  0  0
    1.8366    2.3366    1.7244 H   0  0  0  0  0  0  0  0  0  0  0  0
    2.0792    0.4953    0.6027 C   0  0  1  0  0  3  0  0  0  0  0  0
    3.4802    0.4910    0.6089 C   0  0  0  0  0  0  0  0  0  0  0  0
    4.0251    1.2079    1.2400 H   0  0  0  0  0  0  0  0  0  0  0  0
    4.1673   -0.4374   -0.1861 C   0  0  0  0  0  0  0  0  0  0  0  0
    5.2669   -0.4621   -0.1891 H   0  0  0  0  0  0  0  0  0  0  0  0
    3.4283   -1.3294   -0.9759 C   0  0  0  0  0  0  0  0  0  0  0  0
    3.9218   -2.0764   -1.6133 H   0  0  0  0  0  0  0  0  0  0  0  0
    2.0322   -1.2626   -0.9435 C   0  0  0  0  0  0  0  0  0  0  0  0
    1.4142   -1.9499   -1.5399 H   0  0  0  0  0  0  0  0  0  0  0  0
   -0.8045    1.0727   -1.8254 N   0  0  0  0  0  0  0  0  0  0  0  0
    0.0560    0.9289   -2.3762 H   0  0  0  0  0  0  0  0  0  0  0  0
   -1.5832    0.8398   -2.4570 H   0  0  0  0  0  0  0  0  0  0  0  0
   -0.0273    1.7260    0.8130 N   0  0  0  0  0  0  0  0  0  0  0  0
   -0.6832    2.0930    1.5147 H   0  0  0  0  0  0  0  0  0  0  0  0
    1.3667   -0.3700   -0.1719 N   0  0  0  0  0  2  0  0  0  0  0  0
  1  2  1  0  0  0  0
  1  4  1  0  0  0  0
  3  1  1  0  0  0  0
  4  5  1  0  0  0  0
  4 22  1  0  0  0  0
  6  4  1  0  0  0  0
  7  9  1  0  0  0  0
  7  8  1  0  0  0  0
 10 11  1  0  0  0  0
 10  7  1  1  0  0  0
 11 12  1  0  0  0  0
 13 11  2  0  0  0  0
 14 13  1  0  0  0  0
 15 17  2  0  0  0  0
 15 13  1  0  0  0  0
 16 15  1  0  0  0  0
 17 24  1  0  0  0  0
 18 17  1  0  0  0  0
 19  1  1  0  0  0  0
 20 19  1  0  0  0  0
 21 19  1  0  0  0  0
 22  7  1  0  0  0  0
 22 23  1  0  0  0  0
 24 10  1  0  0  0  0
M  END
