1,2,3
q = -1.0, confidence = 0.026

 59 62  0  0  1  0  0  0  0  0999 V2000
   -1.1996    0.4811    0.1594 N   0  0  0  0  0  2  0  0  0  0  0  0
    1.9209   -1.2536   -0.9908 N   0  0  0  0  0  2  0  0  0  0  0  0
    1.4589    1.0700   -0.0072 N   0  0  0  0  0  2  0  0  0  0  0  0
   -2.3158   -0.3618    0.5053 C   0  0  0  0  0  0  0  0  0  0  0  0
   -0.2779    2.7413    0.3475 C   0  0  0  0  0  0  0  0  0  0  0  0
    1.0925    2.3907    0.0790 C   0  0  2  0  0  3  0  0  0  0  0  0
   -1.2890    1.7398    0.5185 C   0  0  0  0  0  0  0  0  0  0  0  0
   -2.2331    2.0567    1.0013 H   0  0  0  0  0  0  0  0  0  0  0  0
   -4.6377   -0.9844    0.2644 C   0  0  0  0  0  0  0  0  0  0  0  0
   -5.6095   -0.8787   -0.2421 H   0  0  0  0  0  0  0  0  0  0  0  0
   -4.5012   -1.9026    1.3121 C   0  0  0  0  0  0  0  0  0  0  0  0
   -5.3658   -2.5012    1.6368 H   0  0  0  0  0  0  0  0  0  0  0  0
    1.6032    4.7969   -0.0044 C   0  0  0  0  0  0  0  0  0  0  0  0
    2.3399    5.5945   -0.1876 H   0  0  0  0  0  0  0  0  0  0  0  0
    2.7496    0.6155    0.2018 C   0  0  0  0  0  0  0  0  0  0  0  0
   -3.2566   -2.0733    1.9315 C   0  0  0  0  0  0  0  0  0  0  0  0
   -3.1458   -2.8150    2.7376 H   0  0  0  0  0  0  0  0  0  0  0  0
   -2.1400   -1.3148    1.5388 C   0  0  0  0  0  0  0  0  0  0  0  0
    4.2808   -1.3043   -0.3009 C   0  0  0  0  0  0  0  0  0  0  0  0
   -0.6501    4.1035    0.4911 C   0  0  0  0  0  0  0  0  0  0  0  0
   -1.7026    4.3319    0.7223 H   0  0  0  0  0  0  0  0  0  0  0  0
    5.0550    0.5755    1.0296 C   0  0  0  0  0  0  0  0  0  0  0  0
    5.8457    1.0707    1.6139 H   0  0  0  0  0  0  0  0  0  0  0  0
    2.0713   -2.4441   -1.5852 C   0  0  0  0  0  0  0  0  0  0  0  0
    1.1634   -2.8481   -2.0605 H   0  0  0  0  0  0  0  0  0  0  0  0
    3.0019   -0.6710   -0.3762 C   0  0  1  0  0  3  0  0  0  0  0  0
    2.0073    3.4683   -0.1138 C   0  0  0  0  0  0  0  0  0  0  0  0
    3.0440    3.2409   -0.3940 H   0  0  0  0  0  0  0  0  0  0  0  0
    5.3199   -0.6456    0.4171 C   0  0  0  0  0  0  0  0  0  0  0  0
    6.3080   -1.1215    0.4972 H   0  0  0  0  0  0  0  0  0  0  0  0
    4.4077   -2.5705   -0.9384 C   0  0  0  0  0  0  0  0  0  0  0  0
    5.3742   -3.0969   -0.9087 H   0  0  0  0  0  0  0  0  0  0  0  0
    0.2704    5.1324    0.3224 C   0  0  0  0  0  0  0  0  0  0  0  0
   -0.0360    6.1832    0.4227 H   0  0  0  0  0  0  0  0  0  0  0  0
   -3.5507   -0.2036   -0.1713 C   0  0  0  0  0  0  0  0  0  0  0  0
    3.7931    1.2107    0.9340 C   0  0  0  0  0  0  0  0  0  0  0  0
    3.6294    2.1644    1.4520 H   0  0  0  0  0  0  0  0  0  0  0  0
   -0.7760   -1.5623    2.1702 C   0  0  0  0  0  0  0  0  0  0  0  0
   -0.0762   -0.8102    1.7463 H   0  0  0  0  0  0  0  0  0  0  0  0
   -3.7082    0.7280   -1.3679 C   0  0  0  0  0  0  0  0  0  0  0  0
   -2.7035    1.1242   -1.6150 H   0  0  0  0  0  0  0  0  0  0  0  0
    3.3096   -3.1262   -1.5816 C   0  0  0  0  0  0  0  0  0  0  0  0
    3.3770   -4.1012   -2.0847 H   0  0  0  0  0  0  0  0  0  0  0  0
   -4.6278    1.9190   -1.0489 C   0  0  0  0  0  0  0  0  0  0  0  0
   -5.6518    1.5773   -0.7906 H   0  0  0  0  0  0  0  0  0  0  0  0
   -4.7103    2.5980   -1.9223 H   0  0  0  0  0  0  0  0  0  0  0  0
   -4.2531    2.5128   -0.1901 H   0  0  0  0  0  0  0  0  0  0  0  0
   -0.2452   -2.9482    1.7631 C   0  0  0  0  0  0  0  0  0  0  0  0
   -0.8715   -3.7596    2.1887 H   0  0  0  0  0  0  0  0  0  0  0  0
    0.7933   -3.0935    2.1270 H   0  0  0  0  0  0  0  0  0  0  0  0
   -0.2546   -3.0530    0.6599 H   0  0  0  0  0  0  0  0  0  0  0  0
   -4.1912   -0.0411   -2.6093 C   0  0  0  0  0  0  0  0  0  0  0  0
   -3.4980   -0.8749   -2.8329 H   0  0  0  0  0  0  0  0  0  0  0  0
   -4.2263    0.6324   -3.4903 H   0  0  0  0  0  0  0  0  0  0  0  0
   -5.2102   -0.4566   -2.4668 H   0  0  0  0  0  0  0  0  0  0  0  0
   -0.7877   -1.3702    3.6934 C   0  0  0  0  0  0  0  0  0  0  0  0
   -1.1374   -0.3551    3.9702 H   0  0  0  0  0  0  0  0  0  0  0  0
    0.2303   -1.5091    4.1119 H   0  0  0  0  0  0  0  0  0  0  0  0
   -1.4547   -2.1032    4.1932 H   0  0  0  0  0  0  0  0  0  0  0  0
  1  4  1  0  0  0  0
  1  7  1  0  0  0  0
  3 15  1  0  0  0  0
  4 18  1  0  0  0  0
  5 20  1  0  0  0  0
  5  7  2  0  0  0  0
  6  3  1  6  0  0  0
  6  5  1  0  0  0  0
  7  8  1  0  0  0  0
  9 11  2  0  0  0  0
 10  9  1  0  0  0  0
 11 12  1  0  0  0  0
 11 16  1  0  0  0  0
 13 33  1  0  0  0  0
 14 13  1  0  0  0  0
 15 36  2  0  0  0  0
 16 17  1  0  0  0  0
 18 16  2  0  0  0  0
 18 38  1  0  0  0  0
 19 29  1  0  0  0  0
 20 21  1  0  0  0  0
 22 23  1  0  0  0  0
 24 42  2  0  0  0  0
 24  2  1  0  0  0  0
 25 24  1  0  0  0  0
 26  2  1  1  0  0  0
 26 19  1  0  0  0  0
 26 15  1  0  0  0  0
 27 13  2  0  0  0  0
 27  6  1  0  0  0  0
 28 27  1  0  0  0  0
 29 30  1  0  0  0  0
 29 22  2  0  0  0  0
 31 32  1  0  0  0  0
 31 19  2  0  0  0  0
 33 34  1  0  0  0  0
 33 20  2  0  0  0  0
 35  9  1  0  0  0  0
 35  4  2  0  0  0  0
 36 22  1  0  0  0  0
 36 37  1  0  0  0  0
 38 56  1  0  0  0  0
 39 38  1  0  0  0  0
 40 44  1  0  0  0  0
 40 35  1  0  0  0  0
 41 40  1  0  0  0  0
 42 31  1  0  0  0  0
 43 42  1  0  0  0  0
 44 45  1  0  0  0  0
 44 47  1  0  0  0  0
 46 44  1  0  0  0  0
 48 50  1  0  0  0  0
 48 38  1  0  0  0  0
 48 49  1  0  0  0  0
 51 48  1  0  0  0  0
 52 55  1  0  0  0  0
 52 40  1  0  0  0  0
 53 52  1  0  0  0  0
 54 52  1  0  0  0  0
 56 57  1  0  0  0  0
 56 58  1  0  0  0  0
 56 59  1  0  0  0  0
M  END
