14,20,25
q = -1.0, confidence = 0.09

 68 71  0  0  1  0  0  0  0  0999 V2000
    1.5967   -5.1004   -0.3949 O   0  0  0  0  0  0  0  0  0  0  0  0
    0.6379   -2.9930   -0.2902 N   0  0  0  0  0  0  0  0  0  0  0  0
    0.8263   -2.0192    0.0223 H   0  0  0  0  0  0  0  0  0  0  0  0
    1.6777   -3.8922   -0.1799 C   0  0  0  0  0  0  0  0  0  0  0  0
    5.6272    0.6039    0.3981 O   0  0  0  0  0  0  0  0  0  0  0  0
    3.1045   -1.9162    0.1362 N   0  0  0  0  0  0  0  0  0  0  0  0
    2.9799   -3.2504    0.2409 C   0  0  0  0  0  0  0  0  0  0  0  0
   -5.4952   -1.2173   -1.5308 O   0  0  0  0  0  0  0  0  0  0  0  0
    3.3967    0.8133   -0.1962 N   0  0  0  0  0  0  0  0  0  0  0  0
    2.4908    0.3148   -0.1842 H   0  0  0  0  0  0  0  0  0  0  0  0
    4.0204   -4.0896    0.6815 C   0  0  0  0  0  0  0  0  0  0  0  0
    3.8444   -5.1738    0.7168 H   0  0  0  0  0  0  0  0  0  0  0  0
   -1.4915    4.3126   -2.3180 O   0  0  0  0  0  0  0  0  0  0  0  0
   -1.5076   -2.2227   -0.6142 N   0  0  0  0  0  2  0  0  0  0  0  0
    5.2366   -3.5018    1.0499 C   0  0  0  0  0  0  0  0  0  0  0  0
    6.0705   -4.1205    1.4142 H   0  0  0  0  0  0  0  0  0  0  0  0
    2.1392    2.5321   -1.0862 N   0  0  0  0  0  0  0  0  0  0  0  0
    5.3781   -2.1142    0.9313 C   0  0  0  0  0  0  0  0  0  0  0  0
    6.3099   -1.5844    1.1726 H   0  0  0  0  0  0  0  0  0  0  0  0
   -3.3427   -1.0522   -0.7479 N   0  0  0  0  0  2  0  0  0  0  0  0
    4.2844   -1.3624    0.4570 C   0  0  0  0  0  0  0  0  0  0  0  0
    0.7477    4.1791   -2.0502 N   0  0  0  0  0  0  0  0  0  0  0  0
    0.7418    4.9876   -2.6783 H   0  0  0  0  0  0  0  0  0  0  0  0
    4.5054    0.1200    0.2343 C   0  0  0  0  0  0  0  0  0  0  0  0
   -2.5461    1.5241    0.6508 N   0  0  0  0  0  0  0  0  0  0  0  0
   -0.6514   -3.2543   -0.7255 C   0  0  1  0  0  3  0  0  0  0  0  0
   -1.1107   -4.4712   -1.2822 C   0  0  0  0  0  0  0  0  0  0  0  0
   -0.4169   -5.3157   -1.3513 H   0  0  0  0  0  0  0  0  0  0  0  0
   -2.4425   -4.5417   -1.7216 C   0  0  0  0  0  0  0  0  0  0  0  0
   -2.8006   -5.4851   -2.1616 H   0  0  0  0  0  0  0  0  0  0  0  0
   -3.3284   -3.4552   -1.6221 C   0  0  0  0  0  0  0  0  0  0  0  0
   -4.3714   -3.4782   -1.9578 H   0  0  0  0  0  0  0  0  0  0  0  0
   -2.8075   -2.2888   -1.0427 C   0  0  0  0  0  0  0  0  0  0  0  0
    3.3560    2.1296   -0.6686 C   0  0  0  0  0  0  0  0  0  0  0  0
    4.5055    2.9503   -0.7465 C   0  0  0  0  0  0  0  0  0  0  0  0
    5.4658    2.5748   -0.3789 H   0  0  0  0  0  0  0  0  0  0  0  0
    4.3511    4.2212   -1.3118 C   0  0  0  0  0  0  0  0  0  0  0  0
    5.2229    4.8872   -1.3988 H   0  0  0  0  0  0  0  0  0  0  0  0
    3.0984    4.6505   -1.7569 C   0  0  0  0  0  0  0  0  0  0  0  0
    2.9516    5.6500   -2.1916 H   0  0  0  0  0  0  0  0  0  0  0  0
    2.0113    3.7576   -1.6065 C   0  0  0  0  0  0  0  0  0  0  0  0
   -4.5990   -0.5741   -0.9804 C   0  0  0  0  0  0  0  0  0  0  0  0
   -4.7891    0.8763   -0.5256 C   0  0  0  0  0  0  0  0  0  0  0  0
   -5.8727    0.9972   -0.3281 H   0  0  0  0  0  0  0  0  0  0  0  0
   -4.5814    1.5348   -1.3959 H   0  0  0  0  0  0  0  0  0  0  0  0
   -4.0408    1.3416    0.7282 C   0  0  0  0  0  0  0  0  0  0  0  0
   -4.4635    2.3219    1.0497 H   0  0  0  0  0  0  0  0  0  0  0  0
   -4.2286    0.6232    1.5471 H   0  0  0  0  0  0  0  0  0  0  0  0
   -0.5451    3.7640   -1.7546 C   0  0  0  0  0  0  0  0  0  0  0  0
   -0.7362    2.6811   -0.7130 C   0  0  0  0  0  0  0  0  0  0  0  0
   -0.1175    2.9132    0.1761 H   0  0  0  0  0  0  0  0  0  0  0  0
   -0.3042    1.7277   -1.0810 H   0  0  0  0  0  0  0  0  0  0  0  0
   -2.2197    2.5372   -0.3976 C   0  0  0  0  0  0  0  0  0  0  0  0
   -2.6460    3.5158   -0.0814 H   0  0  0  0  0  0  0  0  0  0  0  0
   -2.7464    2.2583   -1.3269 H   0  0  0  0  0  0  0  0  0  0  0  0
   -2.0521    2.0005    1.9836 C   0  0  0  0  0  0  0  0  0  0  0  0
   -2.5092    2.9994    2.1685 H   0  0  0  0  0  0  0  0  0  0  0  0
   -0.9595    2.1346    1.8802 H   0  0  0  0  0  0  0  0  0  0  0  0
   -2.3134    1.0468    3.1504 C   0  0  0  0  0  0  0  0  0  0  0  0
   -3.3744    1.1005    3.4768 H   0  0  0  0  0  0  0  0  0  0  0  0
   -2.1304    0.0089    2.7962 H   0  0  0  0  0  0  0  0  0  0  0  0
   -1.3960    1.3292    4.3485 C   0  0  0  0  0  0  0  0  0  0  0  0
   -0.3440    1.1720    4.0259 H   0  0  0  0  0  0  0  0  0  0  0  0
   -1.5943    0.5603    5.1248 H   0  0  0  0  0  0  0  0  0  0  0  0
   -1.5584    2.7229    4.9601 C   0  0  0  0  0  0  0  0  0  0  0  0
   -1.2772    3.5268    4.2486 H   0  0  0  0  0  0  0  0  0  0  0  0
   -0.9174    2.8460    5.8560 H   0  0  0  0  0  0  0  0  0  0  0  0
   -2.6077    2.9091    5.2734 H   0  0  0  0  0  0  0  0  0  0  0  0
  1  4  2  0  0  0  0
  2  4  1  0  0  0  0
  2  3  1  0  0  0  0
  4  7  1  0  0  0  0
  6  7  2  0  0  0  0
  6 21  1  0  0  0  0
  7 11  1  0  0  0  0
  8 42  2  0  0  0  0
  9 10  1  0  0  0  0
  9 24  1  0  0  0  0
 11 12  1  0  0  0  0
 11 15  2  0  0  0  0
 13 49  2  0  0  0  0
 15 16  1  0  0  0  0
 17 34  1  0  0  0  0
 18 15  1  0  0  0  0
 18 19  1  0  0  0  0
 21 18  2  0  0  0  0
 22 49  1  0  0  0  0
 22 41  1  0  0  0  0
 23 22  1  0  0  0  0
 24  5  2  0  0  0  0
 24 21  1  0  0  0  0
 25 46  1  0  0  0  0
 25 56  1  0  0  0  0
 26 27  1  6  0  0  0
 26 14  1  0  0  0  0
 26  2  1  0  0  0  0
 28 27  1  0  0  0  0
 29 31  1  0  0  0  0
 29 27  2  0  0  0  0
 30 29  1  0  0  0  0
 31 33  2  0  0  0  0
 32 31  1  0  0  0  0
 33 20  1  0  0  0  0
 33 14  1  0  0  0  0
 34  9  1  0  0  0  0
 35 34  2  0  0  0  0
 35 36  1  0  0  0  0
 37 35  1  0  0  0  0
 38 37  1  0  0  0  0
 39 41  1  0  0  0  0
 39 37  2  0  0  0  0
 40 39  1  0  0  0  0
 41 17  2  0  0  0  0
 42 20  1  0  0  0  0
 42 43  1  0  0  0  0
 43 44  1  0  0  0  0
 43 46  1  0  0  0  0
 45 43  1  0  0  0  0
 46 47  1  0  0  0  0
 46 48  1  0  0  0  0
 49 50  1  0  0  0  0
 50 53  1  0  0  0  0
 50 51  1  0  0  0  0
 52 50  1  0  0  0  0
 53 54  1  0  0  0  0
 53 25  1  0  0  0  0
 55 53  1  0  0  0  0
 56 57  1  0  0  0  0
 56 59  1  0  0  0  0
 58 56  1  0  0  0  0
 59 60  1  0  0  0  0
 59 62  1  0  0  0  0
 61 59  1  0  0  0  0
 62 65  1  0  0  0  0
 62 64  1  0  0  0  0
 63 62  1  0  0  0  0
 65 68  1  0  0  0  0
 65 67  1  0  0  0  0
 66 65  1  0  0  0  0
M  END
