5,6,7
q = -2.0, confidence = 0.976

 67 70  0  0  1  0  0  0  0  0999 V2000
    5.0509    2.2998    0.0935 O   0  0  0  0  0  0  0  0  0  0  0  0
    2.4225   -4.2494    0.4494 O   0  0  0  0  0  0  0  0  0  0  0  0
   -1.8668    1.7655   -0.4246 O   0  0  0  0  0  0  0  0  0  0  0  0
   -4.9594   -2.3170   -1.7919 O   0  0  0  0  0  0  0  0  0  0  0  0
    2.8538    1.5435   -0.3291 N   0  0  0  0  0  2  0  0  0  0  0  0
    3.5304   -0.8965    0.2203 N   0  0  0  0  0  2  0  0  0  0  0  0
    1.3425   -2.2571   -0.2279 N   0  0  0  0  0  2  0  0  0  0  0  0
    0.8828    2.7558   -0.1819 N   0  0  0  0  0  0  0  0  0  0  0  0
   -0.8952   -1.8667   -0.7245 N   0  0  0  0  0  0  0  0  0  0  0  0
   -1.1625    3.8630    0.2259 N   0  0  0  0  0  0  0  0  0  0  0  0
   -1.5118    4.7290    0.6382 H   0  0  0  0  0  0  0  0  0  0  0  0
   -3.0556   -1.1698   -1.1578 N   0  0  0  0  0  0  0  0  0  0  0  0
   -2.6991   -0.2284   -0.9352 H   0  0  0  0  0  0  0  0  0  0  0  0
   -4.6909    1.0072    0.6879 N   0  0  0  0  0  0  0  0  0  0  0  0
    4.1963    1.4134   -0.0013 C   0  0  0  0  0  0  0  0  0  0  0  0
    4.5507   -0.0215    0.3139 C   0  0  1  0  0  3  0  0  0  0  0  0
    5.8162   -0.4811    0.6986 C   0  0  0  0  0  0  0  0  0  0  0  0
    6.6339    0.2497    0.7728 H   0  0  0  0  0  0  0  0  0  0  0  0
    5.9804   -1.8520    0.9682 C   0  0  0  0  0  0  0  0  0  0  0  0
    6.9649   -2.2361    1.2745 H   0  0  0  0  0  0  0  0  0  0  0  0
    4.8944   -2.7354    0.8355 C   0  0  0  0  0  0  0  0  0  0  0  0
    4.9704   -3.8169    1.0173 H   0  0  0  0  0  0  0  0  0  0  0  0
    3.6532   -2.2183    0.4423 C   0  0  0  0  0  0  0  0  0  0  0  0
    2.4012   -3.0352    0.2213 C   0  0  0  0  0  0  0  0  0  0  0  0
    2.2243    2.7828   -0.3859 C   0  0  0  0  0  0  0  0  0  0  0  0
    2.9140    4.0102   -0.5904 C   0  0  0  0  0  0  0  0  0  0  0  0
    3.9978    3.9975   -0.7428 H   0  0  0  0  0  0  0  0  0  0  0  0
    2.1807    5.1978   -0.5555 C   0  0  0  0  0  0  0  0  0  0  0  0
    2.6918    6.1592   -0.7168 H   0  0  0  0  0  0  0  0  0  0  0  0
    0.8015    5.1712   -0.3114 C   0  0  0  0  0  0  0  0  0  0  0  0
    0.2024    6.0929   -0.2718 H   0  0  0  0  0  0  0  0  0  0  0  0
    0.2108    3.9049   -0.1240 C   0  0  0  0  0  0  0  0  0  0  0  0
    0.0658   -2.7811   -0.4271 C   0  0  0  0  0  0  0  0  0  0  0  0
   -0.2690   -4.1585   -0.3378 C   0  0  0  0  0  0  0  0  0  0  0  0
    0.5135   -4.8827   -0.0935 H   0  0  0  0  0  0  0  0  0  0  0  0
   -1.5957   -4.5309   -0.5679 C   0  0  0  0  0  0  0  0  0  0  0  0
   -1.8713   -5.5953   -0.5099 H   0  0  0  0  0  0  0  0  0  0  0  0
   -2.5841   -3.5838   -0.8626 C   0  0  0  0  0  0  0  0  0  0  0  0
   -3.6300   -3.8421   -1.0547 H   0  0  0  0  0  0  0  0  0  0  0  0
   -2.1753   -2.2359   -0.9189 C   0  0  0  0  0  0  0  0  0  0  0  0
   -2.0654    2.8241    0.1788 C   0  0  0  0  0  0  0  0  0  0  0  0
   -3.3288    3.1024    0.9858 C   0  0  0  0  0  0  0  0  0  0  0  0
   -3.4962    4.1977    1.0604 H   0  0  0  0  0  0  0  0  0  0  0  0
   -3.1157    2.7653    2.0244 H   0  0  0  0  0  0  0  0  0  0  0  0
   -4.6096    2.4418    0.4707 C   0  0  0  0  0  0  0  0  0  0  0  0
   -5.4853    2.9809    0.9259 H   0  0  0  0  0  0  0  0  0  0  0  0
   -4.6798    2.6277   -0.6214 H   0  0  0  0  0  0  0  0  0  0  0  0
   -4.3797   -1.2597   -1.5544 C   0  0  0  0  0  0  0  0  0  0  0  0
   -5.1200    0.0695   -1.5929 C   0  0  0  0  0  0  0  0  0  0  0  0
   -5.9551   -0.0654   -2.3060 H   0  0  0  0  0  0  0  0  0  0  0  0
   -4.4777    0.8990   -1.9539 H   0  0  0  0  0  0  0  0  0  0  0  0
   -5.6805    0.3978   -0.1940 C   0  0  0  0  0  0  0  0  0  0  0  0
   -6.5878    1.0488   -0.2969 H   0  0  0  0  0  0  0  0  0  0  0  0
   -6.0406   -0.5469    0.2612 H   0  0  0  0  0  0  0  0  0  0  0  0
   -4.8278    0.5977    2.0881 C   0  0  0  0  0  0  0  0  0  0  0  0
   -5.9061    0.5018    2.3746 H   0  0  0  0  0  0  0  0  0  0  0  0
   -4.4244    1.4039    2.7369 H   0  0  0  0  0  0  0  0  0  0  0  0
   -4.0696   -0.6969    2.4029 C   0  0  0  0  0  0  0  0  0  0  0  0
   -4.3860   -1.0595    3.4060 H   0  0  0  0  0  0  0  0  0  0  0  0
   -4.3792   -1.4893    1.6849 H   0  0  0  0  0  0  0  0  0  0  0  0
   -2.5459   -0.5357    2.3650 C   0  0  0  0  0  0  0  0  0  0  0  0
   -2.2504   -0.1200    1.3794 H   0  0  0  0  0  0  0  0  0  0  0  0
   -2.2488    0.2339    3.1143 H   0  0  0  0  0  0  0  0  0  0  0  0
   -1.7834   -1.8324    2.6352 C   0  0  0  0  0  0  0  0  0  0  0  0
   -2.0029   -2.2312    3.6479 H   0  0  0  0  0  0  0  0  0  0  0  0
   -0.6877   -1.6816    2.5599 H   0  0  0  0  0  0  0  0  0  0  0  0
   -2.0571   -2.6207    1.9041 H   0  0  0  0  0  0  0  0  0  0  0  0
  3 41  2  0  0  0  0
  4 48  2  0  0  0  0
  5 15  1  0  0  0  0
  6 16  1  0  0  0  0
  6 23  1  0  0  0  0
  7 24  1  0  0  0  0
  8 32  1  0  0  0  0
  9 33  1  0  0  0  0
 10 11  1  0  0  0  0
 12 13  1  0  0  0  0
 12 40  1  0  0  0  0
 14 55  1  0  0  0  0
 15  1  2  0  0  0  0
 16 15  1  1  0  0  0
 16 17  1  0  0  0  0
 17 18  1  0  0  0  0
 17 19  2  0  0  0  0
 19 20  1  0  0  0  0
 21 19  1  0  0  0  0
 21 22  1  0  0  0  0
 23 21  2  0  0  0  0
 24 23  1  0  0  0  0
 24  2  2  0  0  0  0
 25  5  1  0  0  0  0
 25  8  2  0  0  0  0
 26 28  2  0  0  0  0
 26 25  1  0  0  0  0
 27 26  1  0  0  0  0
 28 30  1  0  0  0  0
 29 28  1  0  0  0  0
 30 31  1  0  0  0  0
 30 32  2  0  0  0  0
 32 10  1  0  0  0  0
 33 34  2  0  0  0  0
 33  7  1  0  0  0  0
 34 35  1  0  0  0  0
 36 37  1  0  0  0  0
 36 34  1  0  0  0  0
 38 36  2  0  0  0  0
 39 38  1  0  0  0  0
 40 38  1  0  0  0  0
 40  9  2  0  0  0  0
 41 10  1  0  0  0  0
 41 42  1  0  0  0  0
 42 43  1  0  0  0  0
 42 44  1  0  0  0  0
 45 14  1  0  0  0  0
 45 46  1  0  0  0  0
 45 42  1  0  0  0  0
 47 45  1  0  0  0  0
 48 12  1  0  0  0  0
 49 48  1  0  0  0  0
 49 52  1  0  0  0  0
 50 49  1  0  0  0  0
 51 49  1  0  0  0  0
 52 54  1  0  0  0  0
 52 14  1  0  0  0  0
 53 52  1  0  0  0  0
 55 56  1  0  0  0  0
 55 58  1  0  0  0  0
 55 57  1  0  0  0  0
 58 59  1  0  0  0  0
 60 58  1  0  0  0  0
 61 58  1  0  0  0  0
 61 64  1  0  0  0  0
 61 63  1  0  0  0  0
 62 61  1  0  0  0  0
 64 65  1  0  0  0  0
 66 64  1  0  0  0  0
 67 64  1  0  0  0  0
M  END
