3,4,5
q = 0.0, confidence = 1.0

 56 59  0  0  1  0  0  0  0  0999 V2000
   -2.4634    1.3136    0.1605 O   0  0  0  0  0  0  0  0  0  0  0  0
    2.3226    0.8562   -0.8780 O   0  0  0  0  0  0  0  0  0  0  0  0
    0.0733    2.3555   -0.3793 N   0  0  0  0  0  2  0  0  0  0  0  0
   -1.3719   -1.3434    1.4024 N   0  0  0  0  0  0  0  0  0  0  0  0
    1.0433   -1.8425   -0.7854 N   0  0  0  0  0  0  0  0  0  0  0  0
   -3.6227    0.5744    0.1045 C   0  0  0  0  0  0  0  0  0  0  0  0
   -4.6742    0.8413   -0.7893 C   0  0  0  0  0  0  0  0  0  0  0  0
   -5.8132    0.0163   -0.7808 C   0  0  0  0  0  0  0  0  0  0  0  0
   -5.9003   -1.0658    0.1050 C   0  0  0  0  0  0  0  0  0  0  0  0
   -4.8451   -1.3092    1.0017 C   0  0  0  0  0  0  0  0  0  0  0  0
   -3.6982   -0.4993    1.0250 C   0  0  0  0  0  0  0  0  0  0  0  0
   -2.5777   -0.7308    2.0090 C   0  0  0  0  0  0  0  0  0  0  0  0
   -1.6009   -2.7339    0.9641 C   0  0  0  0  0  0  0  0  0  0  0  0
   -0.3187   -3.4691    0.5705 C   0  0  0  0  0  0  0  0  0  0  0  0
    0.2931   -3.1139   -0.7852 C   0  0  0  0  0  0  0  0  0  0  0  0
    1.7741   -1.5976   -2.0679 C   0  0  0  0  0  0  0  0  0  0  0  0
    3.1864   -1.1456   -1.8065 C   0  0  0  0  0  0  0  0  0  0  0  0
    4.2798   -1.9645   -2.1333 C   0  0  0  0  0  0  0  0  0  0  0  0
    5.5945   -1.5907   -1.8176 C   0  0  0  0  0  0  0  0  0  0  0  0
    5.8181   -0.3857   -1.1418 C   0  0  0  0  0  0  0  0  0  0  0  0
    4.7446    0.4529   -0.8000 C   0  0  0  0  0  0  0  0  0  0  0  0
    3.4363    0.0809   -1.1476 C   0  0  0  0  0  0  0  0  0  0  0  0
    2.5330    2.0851   -0.2080 C   0  0  0  0  0  0  0  0  0  0  0  0
    1.2853    2.9312   -0.2380 C   0  0  2  0  0  3  0  0  0  0  0  0
    1.4260    4.3248   -0.0993 C   0  0  0  0  0  0  0  0  0  0  0  0
    0.2882    5.1326   -0.0950 C   0  0  0  0  0  0  0  0  0  0  0  0
   -0.9657    4.5276   -0.2562 C   0  0  0  0  0  0  0  0  0  0  0  0
   -1.0331    3.1371   -0.4056 C   0  0  0  0  0  0  0  0  0  0  0  0
   -2.3593    2.4692   -0.6627 C   0  0  0  0  0  0  0  0  0  0  0  0
   -0.6513   -1.3742    2.1555 H   0  0  0  0  0  0  0  0  0  0  0  0
    1.7451   -1.8809   -0.0194 H   0  0  0  0  0  0  0  0  0  0  0  0
   -4.6276    1.6877   -1.4868 H   0  0  0  0  0  0  0  0  0  0  0  0
   -6.6403    0.2352   -1.4728 H   0  0  0  0  0  0  0  0  0  0  0  0
   -6.7945   -1.7053    0.1174 H   0  0  0  0  0  0  0  0  0  0  0  0
   -4.9177   -2.1397    1.7212 H   0  0  0  0  0  0  0  0  0  0  0  0
   -2.9517   -1.3788    2.8333 H   0  0  0  0  0  0  0  0  0  0  0  0
   -2.2623    0.2319    2.4583 H   0  0  0  0  0  0  0  0  0  0  0  0
   -2.0990   -3.2985    1.7873 H   0  0  0  0  0  0  0  0  0  0  0  0
   -2.3192   -2.7266    0.1160 H   0  0  0  0  0  0  0  0  0  0  0  0
   -0.5587   -4.5515    0.5462 H   0  0  0  0  0  0  0  0  0  0  0  0
    0.4421   -3.3507    1.3733 H   0  0  0  0  0  0  0  0  0  0  0  0
   -0.4986   -3.0555   -1.5631 H   0  0  0  0  0  0  0  0  0  0  0  0
    0.9779   -3.9356   -1.0981 H   0  0  0  0  0  0  0  0  0  0  0  0
    1.8076   -2.5404   -2.6528 H   0  0  0  0  0  0  0  0  0  0  0  0
    1.2072   -0.8612   -2.6758 H   0  0  0  0  0  0  0  0  0  0  0  0
    4.0889   -2.9207   -2.6453 H   0  0  0  0  0  0  0  0  0  0  0  0
    6.4358   -2.2457   -2.0848 H   0  0  0  0  0  0  0  0  0  0  0  0
    6.8393   -0.0870   -0.8630 H   0  0  0  0  0  0  0  0  0  0  0  0
    4.9481    1.3794   -0.2492 H   0  0  0  0  0  0  0  0  0  0  0  0
    2.8245    1.8997    0.8518 H   0  0  0  0  0  0  0  0  0  0  0  0
    3.3467    2.6607   -0.6996 H   0  0  0  0  0  0  0  0  0  0  0  0
    2.4304    4.7608    0.0029 H   0  0  0  0  0  0  0  0  0  0  0  0
    0.3739    6.2224    0.0257 H   0  0  0  0  0  0  0  0  0  0  0  0
   -1.8881    5.1255   -0.2650 H   0  0  0  0  0  0  0  0  0  0  0  0
   -2.4234    2.1761   -1.7368 H   0  0  0  0  0  0  0  0  0  0  0  0
   -3.1874    3.1761   -0.4457 H   0  0  0  0  0  0  0  0  0  0  0  0
  2 23  1  0  0  0  0
  4 12  1  0  0  0  0
  4 30  1  0  0  0  0
  5 15  1  0  0  0  0
  5 31  1  0  0  0  0
  6  1  1  0  0  0  0
  6 11  1  0  0  0  0
  7  8  1  0  0  0  0
  7  6  2  0  0  0  0
  8  9  2  0  0  0  0
  9 34  1  0  0  0  0
  9 10  1  0  0  0  0
 10 11  2  0  0  0  0
 10 35  1  0  0  0  0
 11 12  1  0  0  0  0
 12 37  1  0  0  0  0
 12 36  1  0  0  0  0
 13  4  1  0  0  0  0
 13 38  1  0  0  0  0
 14 13  1  0  0  0  0
 14 41  1  0  0  0  0
 15 14  1  0  0  0  0
 16 17  1  0  0  0  0
 16  5  1  0  0  0  0
 17 22  1  0  0  0  0
 18 19  1  0  0  0  0
 18 17  2  0  0  0  0
 19 20  2  0  0  0  0
 20 48  1  0  0  0  0
 20 21  1  0  0  0  0
 21 49  1  0  0  0  0
 22  2  1  0  0  0  0
 22 21  2  0  0  0  0
 23 50  1  0  0  0  0
 24  3  1  1  0  0  0
 24 23  1  0  0  0  0
 24 25  1  0  0  0  0
 25 26  2  0  0  0  0
 25 52  1  0  0  0  0
 26 53  1  0  0  0  0
 27 26  1  0  0  0  0
 28  3  1  0  0  0  0
 28 27  2  0  0  0  0
 29 56  1  0  0  0  0
 29 28  1  0  0  0  0
 29  1  1  0  0  0  0
 32  7  1  0  0  0  0
 33  8  1  0  0  0  0
 39 13  1  0  0  0  0
 40 14  1  0  0  0  0
 42 15  1  0  0  0  0
 43 15  1  0  0  0  0
 44 16  1  0  0  0  0
 45 16  1  0  0  0  0
 46 18  1  0  0  0  0
 47 19  1  0  0  0  0
 51 23  1  0  0  0  0
 54 27  1  0  0  0  0
 55 29  1  0  0  0  0
M  END
