22,24,26
q = -1.0

 53 58  0  0  1  0  0  0  0  0999 V2000
    0.4033    2.0271   -3.5491 F   0  0  0  0  0  0  0  0  0  0  0  0
    1.2631    4.5117   -4.2430 F   0  0  0  0  0  0  0  0  0  0  0  0
    2.2144    6.2492   -2.4194 F   0  0  0  0  0  0  0  0  0  0  0  0
    2.3609    5.5784    0.2297 F   0  0  0  0  0  0  0  0  0  0  0  0
    0.7188    3.7979    2.9271 F   0  0  0  0  0  0  0  0  0  0  0  0
    2.8184    3.9256    2.3509 F   0  0  0  0  0  0  0  0  0  0  0  0
    2.0173    2.0592    3.1518 F   0  0  0  0  0  0  0  0  0  0  0  0
    1.5425   -1.3246   -3.5676 F   0  0  0  0  0  0  0  0  0  0  0  0
    3.2660   -3.3010   -4.2874 F   0  0  0  0  0  0  0  0  0  0  0  0
    4.3027   -5.0113   -2.4849 F   0  0  0  0  0  0  0  0  0  0  0  0
    3.6552   -4.8325    0.1681 F   0  0  0  0  0  0  0  0  0  0  0  0
    2.9361   -2.5512    2.8932 F   0  0  0  0  0  0  0  0  0  0  0  0
    1.9993   -4.4284    2.2975 F   0  0  0  0  0  0  0  0  0  0  0  0
    0.7821   -2.8130    3.1190 F   0  0  0  0  0  0  0  0  0  0  0  0
   -1.9366   -0.6362   -3.5666 F   0  0  0  0  0  0  0  0  0  0  0  0
   -4.5137   -1.1289   -4.2802 F   0  0  0  0  0  0  0  0  0  0  0  0
   -6.5054   -1.1882   -2.4695 F   0  0  0  0  0  0  0  0  0  0  0  0
   -6.0138   -0.7457    0.1868 F   0  0  0  0  0  0  0  0  0  0  0  0
   -3.6837   -1.2984    2.8886 F   0  0  0  0  0  0  0  0  0  0  0  0
   -4.8226    0.4731    2.3219 F   0  0  0  0  0  0  0  0  0  0  0  0
   -2.8105    0.6848    3.1425 F   0  0  0  0  0  0  0  0  0  0  0  0
    0.8705    1.4622    0.7382 N   0  0  0  0  0  2  0  0  0  0  0  0
    0.6198    1.3267   -0.5852 N   0  0  0  0  0  0  0  0  0  0  0  0
    0.8315   -1.4939    0.7200 N   0  0  0  0  0  2  0  0  0  0  0  0
    0.8352   -1.1952   -0.6003 N   0  0  0  0  0  0  0  0  0  0  0  0
   -1.7081    0.0183    0.7277 N   0  0  0  0  0  2  0  0  0  0  0  0
   -1.4568   -0.1206   -0.5954 N   0  0  0  0  0  0  0  0  0  0  0  0
    1.3944    2.6714    0.9587 C   0  0  0  0  0  0  0  0  0  0  0  0
    1.4722    3.4022   -0.2665 C   0  0  0  0  0  0  0  0  0  0  0  0
    0.9651    2.4833   -1.2441 C   0  0  2  0  0  3  0  0  0  0  0  0
    0.8845    2.8465   -2.6086 C   0  0  0  0  0  0  0  0  0  0  0  0
    1.3225    4.1220   -2.9683 C   0  0  0  0  0  0  0  0  0  0  0  0
    1.8254    5.0408   -2.0041 C   0  0  0  0  0  0  0  0  0  0  0  0
    1.9051    4.6906   -0.6579 C   0  0  0  0  0  0  0  0  0  0  0  0
    1.7399    3.1146    2.3534 C   0  0  0  0  0  0  0  0  0  0  0  0
    1.6190   -2.5533    0.9270 C   0  0  0  0  0  0  0  0  0  0  0  0
    2.2103   -2.9721   -0.3044 C   0  0  0  0  0  0  0  0  0  0  0  0
    1.6639   -2.0640   -1.2708 C   0  0  2  0  0  3  0  0  0  0  0  0
    2.0154   -2.1604   -2.6374 C   0  0  0  0  0  0  0  0  0  0  0  0
    2.9018   -3.1720   -3.0103 C   0  0  0  0  0  0  0  0  0  0  0  0
    3.4502   -4.0763   -2.0572 C   0  0  0  0  0  0  0  0  0  0  0  0
    3.1104   -3.9853   -0.7090 C   0  0  0  0  0  0  0  0  0  0  0  0
    1.8338   -3.0894    2.3154 C   0  0  0  0  0  0  0  0  0  0  0  0
   -3.0186   -0.1348    0.9384 C   0  0  0  0  0  0  0  0  0  0  0  0
   -3.6822   -0.4236   -0.2934 C   0  0  0  0  0  0  0  0  0  0  0  0
   -2.6267   -0.3955   -1.2639 C   0  0  2  0  0  3  0  0  0  0  0  0
   -2.8925   -0.6365   -2.6319 C   0  0  0  0  0  0  0  0  0  0  0  0
   -4.2139   -0.8924   -3.0018 C   0  0  0  0  0  0  0  0  0  0  0  0
   -5.2672   -0.9240   -2.0444 C   0  0  0  0  0  0  0  0  0  0  0  0
   -5.0120   -0.6900   -0.6948 C   0  0  0  0  0  0  0  0  0  0  0  0
   -3.5860   -0.0671    2.3292 C   0  0  0  0  0  0  0  0  0  0  0  0
   -0.0003    0.0068   -1.1289 B   0  0  1  0  0  0  0  0  0  0  0  0
    0.0004    0.0139   -2.3298 H   0  0  0  0  0  0  0  0  0  0  0  0
  1 31  1  0  0  0  0
  2 32  1  0  0  0  0
  3 33  1  0  0  0  0
  6 35  1  0  0  0  0
  8 39  1  0  0  0  0
  9 40  1  0  0  0  0
 10 41  1  0  0  0  0
 13 43  1  0  0  0  0
 15 47  1  0  0  0  0
 16 48  1  0  0  0  0
 17 49  1  0  0  0  0
 20 51  1  0  0  0  0
 22 28  1  0  0  0  0
 23 22  1  0  0  0  0
 24 36  1  0  0  0  0
 25 24  1  0  0  0  0
 26 44  1  0  0  0  0
 27 26  1  0  0  0  0
 28 35  1  0  0  0  0
 29 28  2  0  0  0  0
 30 31  1  1  0  0  0
 30 23  1  0  0  0  0
 30 29  1  0  0  0  0
 32 31  2  0  0  0  0
 32 33  1  0  0  0  0
 33 34  2  0  0  0  0
 34 29  1  0  0  0  0
 34  4  1  0  0  0  0
 35  5  1  0  0  0  0
 35  7  1  0  0  0  0
 36 43  1  0  0  0  0
 37 36  2  0  0  0  0
 38 39  1  1  0  0  0
 38 25  1  0  0  0  0
 38 37  1  0  0  0  0
 40 39  2  0  0  0  0
 40 41  1  0  0  0  0
 41 42  2  0  0  0  0
 42 37  1  0  0  0  0
 42 11  1  0  0  0  0
 43 12  1  0  0  0  0
 43 14  1  0  0  0  0
 44 51  1  0  0  0  0
 45 44  2  0  0  0  0
 46 47  1  1  0  0  0
 46 27  1  0  0  0  0
 46 45  1  0  0  0  0
 48 47  2  0  0  0  0
 48 49  1  0  0  0  0
 49 50  2  0  0  0  0
 50 45  1  0  0  0  0
 50 18  1  0  0  0  0
 51 19  1  0  0  0  0
 51 21  1  0  0  0  0
 52 53  1  6  0  0  0
 52 25  1  0  0  0  0
 52 27  1  0  0  0  0
 52 23  1  0  0  0  0
M  END
