1,3,6
q = 0.0, confidence = 0.994

 53 57  0  0  1  0  0  0  0  0999 V2000
    2.7845    1.0849    0.2916 N   0  0  0  0  0  2  0  0  0  0  0  0
    2.4817    2.3611   -0.0838 C   0  0  1  0  0  3  0  0  0  0  0  0
    0.2553    1.4622   -0.6652 N   0  0  0  0  0  0  0  0  0  0  0  0
    3.2857    3.4317    0.3202 C   0  0  0  0  0  0  0  0  0  0  0  0
    3.0273    4.4572    0.0195 H   0  0  0  0  0  0  0  0  0  0  0  0
   -0.2021   -1.2144   -1.1075 N   0  0  0  0  0  2  0  0  0  0  0  0
    4.4248    3.1719    1.1000 C   0  0  0  0  0  0  0  0  0  0  0  0
    5.0732    3.9999    1.4224 H   0  0  0  0  0  0  0  0  0  0  0  0
    4.7246    1.8514    1.4632 C   0  0  0  0  0  0  0  0  0  0  0  0
    5.6092    1.6105    2.0690 H   0  0  0  0  0  0  0  0  0  0  0  0
    3.8713    0.8242    1.0446 C   0  0  0  0  0  0  0  0  0  0  0  0
    4.0354   -0.2348    1.2986 H   0  0  0  0  0  0  0  0  0  0  0  0
    1.2922    2.4848   -1.0105 C   0  0  0  0  0  0  0  0  0  0  0  0
    1.6377    2.2748   -2.0445 H   0  0  0  0  0  0  0  0  0  0  0  0
    0.8678    3.5117   -0.9939 H   0  0  0  0  0  0  0  0  0  0  0  0
   -0.6337    1.0707   -1.8098 C   0  0  0  0  0  0  0  0  0  0  0  0
   -1.4842    1.7732   -1.9261 H   0  0  0  0  0  0  0  0  0  0  0  0
   -0.0139    1.1231   -2.7293 H   0  0  0  0  0  0  0  0  0  0  0  0
   -1.1160   -0.3521   -1.6421 C   0  0  1  0  0  3  0  0  0  0  0  0
   -2.3698   -0.8171   -2.0513 C   0  0  0  0  0  0  0  0  0  0  0  0
   -3.1092   -0.1124   -2.4568 H   0  0  0  0  0  0  0  0  0  0  0  0
   -2.6664   -2.1825   -1.9147 C   0  0  0  0  0  0  0  0  0  0  0  0
   -3.6485   -2.5645   -2.2296 H   0  0  0  0  0  0  0  0  0  0  0  0
   -0.4775   -2.5241   -0.9620 C   0  0  0  0  0  0  0  0  0  0  0  0
    0.3190   -3.1293   -0.5020 H   0  0  0  0  0  0  0  0  0  0  0  0
   -0.5331    1.9262    0.5516 C   0  0  0  0  0  0  0  0  0  0  0  0
    0.1948    2.0023    1.3814 H   0  0  0  0  0  0  0  0  0  0  0  0
   -0.8704    2.9591    0.3341 H   0  0  0  0  0  0  0  0  0  0  0  0
   -1.6950    1.0339    0.8901 C   0  0  0  0  0  0  0  0  0  0  0  0
   -1.4552   -0.1833    1.5903 C   0  0  0  0  0  0  0  0  0  0  0  0
   -0.1840   -0.5237    2.1619 C   0  0  0  0  0  0  0  0  0  0  0  0
    0.6182    0.2256    2.2030 H   0  0  0  0  0  0  0  0  0  0  0  0
    0.0440   -1.7690    2.7249 C   0  0  0  0  0  0  0  0  0  0  0  0
    1.0301   -1.9992    3.1540 H   0  0  0  0  0  0  0  0  0  0  0  0
   -0.9864   -2.7516    2.7614 C   0  0  0  0  0  0  0  0  0  0  0  0
   -0.7841   -3.7380    3.2037 H   0  0  0  0  0  0  0  0  0  0  0  0
   -2.2438   -2.4461    2.2767 C   0  0  0  0  0  0  0  0  0  0  0  0
   -3.0617   -3.1804    2.3357 H   0  0  0  0  0  0  0  0  0  0  0  0
   -2.5188   -1.1662    1.6946 C   0  0  0  0  0  0  0  0  0  0  0  0
   -3.7950   -0.8512    1.1974 C   0  0  0  0  0  0  0  0  0  0  0  0
   -4.5998   -1.5988    1.2798 H   0  0  0  0  0  0  0  0  0  0  0  0
   -4.0767    0.3896    0.5982 C   0  0  0  0  0  0  0  0  0  0  0  0
   -5.3922    0.6884    0.1154 C   0  0  0  0  0  0  0  0  0  0  0  0
   -6.1848   -0.0605    0.2654 H   0  0  0  0  0  0  0  0  0  0  0  0
   -5.6651    1.8827   -0.5202 C   0  0  0  0  0  0  0  0  0  0  0  0
   -6.6789    2.1030   -0.8849 H   0  0  0  0  0  0  0  0  0  0  0  0
   -4.6250    2.8421   -0.6903 C   0  0  0  0  0  0  0  0  0  0  0  0
   -4.8481    3.8033   -1.1771 H   0  0  0  0  0  0  0  0  0  0  0  0
   -3.3427    2.5885   -0.2349 C   0  0  0  0  0  0  0  0  0  0  0  0
   -2.5834    3.3724   -0.3652 H   0  0  0  0  0  0  0  0  0  0  0  0
   -3.0065    1.3589    0.4254 C   0  0  0  0  0  0  0  0  0  0  0  0
   -1.7077   -3.0496   -1.3711 C   0  0  0  0  0  0  0  0  0  0  0  0
   -1.9066   -4.1233   -1.2511 H   0  0  0  0  0  0  0  0  0  0  0  0
  1 11  1  0  0  0  0
  2 13  1  6  0  0  0
  2  1  1  0  0  0  0
  2  4  1  0  0  0  0
  3 26  1  0  0  0  0
  4  7  2  0  0  0  0
  5  4  1  0  0  0  0
  6 24  1  0  0  0  0
  7  8  1  0  0  0  0
  7  9  1  0  0  0  0
  9 10  1  0  0  0  0
 11 12  1  0  0  0  0
 11  9  2  0  0  0  0
 13 15  1  0  0  0  0
 13  3  1  0  0  0  0
 14 13  1  0  0  0  0
 16  3  1  0  0  0  0
 17 16  1  0  0  0  0
 18 16  1  0  0  0  0
 19 16  1  6  0  0  0
 19  6  1  0  0  0  0
 20 22  2  0  0  0  0
 20 19  1  0  0  0  0
 21 20  1  0  0  0  0
 22 52  1  0  0  0  0
 23 22  1  0  0  0  0
 24 25  1  0  0  0  0
 26 29  1  0  0  0  0
 26 27  1  0  0  0  0
 28 26  1  0  0  0  0
 29 30  1  0  0  0  0
 30 39  2  0  0  0  0
 30 31  1  0  0  0  0
 31 32  1  0  0  0  0
 31 33  2  0  0  0  0
 33 35  1  0  0  0  0
 33 34  1  0  0  0  0
 35 36  1  0  0  0  0
 37 38  1  0  0  0  0
 37 35  2  0  0  0  0
 39 37  1  0  0  0  0
 40 41  1  0  0  0  0
 40 39  1  0  0  0  0
 42 40  2  0  0  0  0
 43 44  1  0  0  0  0
 43 42  1  0  0  0  0
 45 43  2  0  0  0  0
 46 45  1  0  0  0  0
 47 45  1  0  0  0  0
 47 49  2  0  0  0  0
 48 47  1  0  0  0  0
 49 51  1  0  0  0  0
 50 49  1  0  0  0  0
 51 42  1  0  0  0  0
 51 29  2  0  0  0  0
 52 53  1  0  0  0  0
 52 24  2  0  0  0  0
M  END
