1,3,5
q = 0.0, confidence = 1.0

 29 31  0  0  1  0  0  0  0  0999 V2000
   -1.9847   -0.5183    0.0109 N   0  0  0  0  0  2  0  0  0  0  0  0
   -3.6334    1.0078   -0.0481 N   0  0  0  0  0  0  0  0  0  0  0  0
    1.9847   -0.5183    0.0110 N   0  0  0  0  0  2  0  0  0  0  0  0
    3.6334    1.0078   -0.0480 N   0  0  0  0  0  0  0  0  0  0  0  0
    0.0000    1.0966    0.0067 N   0  0  0  0  0  2  0  0  0  0  0  0
   -3.2156   -1.3143   -0.0751 C   0  0  0  0  0  0  0  0  0  0  0  0
   -4.3502   -0.2708    0.1379 C   0  0  0  0  0  0  0  0  0  0  0  0
   -2.3026    0.7687    0.0004 C   0  0  2  0  0  3  0  0  0  0  0  0
    3.2155   -1.3144   -0.0748 C   0  0  0  0  0  0  0  0  0  0  0  0
    4.3502   -0.2708    0.1375 C   0  0  0  0  0  0  0  0  0  0  0  0
    2.3026    0.7686    0.0005 C   0  0  0  0  0  0  0  0  0  0  0  0
   -1.1944    1.7431   -0.0020 C   0  0  0  0  0  0  0  0  0  0  0  0
   -1.2227    3.1458   -0.0238 C   0  0  0  0  0  0  0  0  0  0  0  0
    0.0000    3.8417   -0.0344 C   0  0  0  0  0  0  0  0  0  0  0  0
    1.2228    3.1458   -0.0237 C   0  0  0  0  0  0  0  0  0  0  0  0
    1.1944    1.7431   -0.0020 C   0  0  0  0  0  0  0  0  0  0  0  0
   -4.0537    1.9091    0.1778 H   0  0  0  0  0  0  0  0  0  0  0  0
    4.0537    1.9090    0.1777 H   0  0  0  0  0  0  0  0  0  0  0  0
   -3.2595   -1.7951   -1.0753 H   0  0  0  0  0  0  0  0  0  0  0  0
   -3.2061   -2.1242    0.6787 H   0  0  0  0  0  0  0  0  0  0  0  0
   -5.1722   -0.3755   -0.5958 H   0  0  0  0  0  0  0  0  0  0  0  0
   -4.7833   -0.3232    1.1601 H   0  0  0  0  0  0  0  0  0  0  0  0
    3.2061   -2.1239    0.6795 H   0  0  0  0  0  0  0  0  0  0  0  0
    3.2592   -1.7958   -1.0747 H   0  0  0  0  0  0  0  0  0  0  0  0
    4.7841   -0.3232    1.1594 H   0  0  0  0  0  0  0  0  0  0  0  0
    5.1718   -0.3755   -0.5967 H   0  0  0  0  0  0  0  0  0  0  0  0
   -2.1760    3.6925   -0.0405 H   0  0  0  0  0  0  0  0  0  0  0  0
    0.0000    4.9407   -0.0552 H   0  0  0  0  0  0  0  0  0  0  0  0
    2.1760    3.6925   -0.0404 H   0  0  0  0  0  0  0  0  0  0  0  0
  2  8  1  0  0  0  0
  2  7  1  0  0  0  0
  2 17  1  0  0  0  0
  4 11  1  0  0  0  0
  4 10  1  0  0  0  0
  4 18  1  0  0  0  0
  6  1  1  0  0  0  0
  6  7  1  0  0  0  0
  6 20  1  0  0  0  0
  7 22  1  0  0  0  0
  8 12  1  6  0  0  0
  8  1  1  0  0  0  0
  9  3  1  0  0  0  0
  9 10  1  0  0  0  0
  9 23  1  0  0  0  0
 10 25  1  0  0  0  0
 11  3  1  0  0  0  0
 12  5  1  0  0  0  0
 13 12  2  0  0  0  0
 14 13  1  0  0  0  0
 14 15  2  0  0  0  0
 15 16  1  0  0  0  0
 16 11  2  0  0  0  0
 16  5  1  0  0  0  0
 19  6  1  0  0  0  0
 21  7  1  0  0  0  0
 24  9  1  0  0  0  0
 26 10  1  0  0  0  0
 27 13  1  0  0  0  0
 28 14  1  0  0  0  0
 29 15  1  0  0  0  0
M  END
