1,2,3
q = -1.0

 43 45  0  0  1  0  0  0  0  0999 V2000
    0.1667    0.3348   -0.6749 N   0  0  0  0  0  2  0  0  0  0  0  0
    2.5452   -0.0788    0.2905 N   0  0  0  0  0  0  0  0  0  0  0  0
   -0.7672   -1.9506   -0.3216 N   0  0  0  0  0  2  0  0  0  0  0  0
    0.9423    1.4575   -0.7081 C   0  0  0  0  0  0  0  0  0  0  0  0
    2.2672    1.2762   -0.2319 C   0  0  0  0  0  0  0  0  0  0  0  0
    3.2039    2.3099   -0.2459 C   0  0  0  0  0  0  0  0  0  0  0  0
    4.2255    2.1416    0.1274 H   0  0  0  0  0  0  0  0  0  0  0  0
    2.8331    3.5779   -0.7322 C   0  0  0  0  0  0  0  0  0  0  0  0
    3.5635    4.3993   -0.7444 H   0  0  0  0  0  0  0  0  0  0  0  0
    1.5184    3.7802   -1.1885 C   0  0  0  0  0  0  0  0  0  0  0  0
    1.2185    4.7729   -1.5593 H   0  0  0  0  0  0  0  0  0  0  0  0
    0.5726    2.7472   -1.1789 C   0  0  0  0  0  0  0  0  0  0  0  0
   -0.4524    2.9328   -1.5276 H   0  0  0  0  0  0  0  0  0  0  0  0
   -1.2442    0.3435   -0.9531 C   0  0  1  0  0  0  0  0  0  0  0  0
   -1.4589    0.6998   -1.9926 H   0  0  0  0  0  0  0  0  0  0  0  0
   -1.6952   -1.0960   -0.8487 C   0  0  2  0  0  3  0  0  0  0  0  0
   -2.9723   -1.5368   -1.2137 C   0  0  0  0  0  0  0  0  0  0  0  0
   -3.6911   -0.8084   -1.6157 H   0  0  0  0  0  0  0  0  0  0  0  0
   -3.3120   -2.8848   -1.0477 C   0  0  0  0  0  0  0  0  0  0  0  0
   -4.3095   -3.2500   -1.3334 H   0  0  0  0  0  0  0  0  0  0  0  0
   -2.3528   -3.7549   -0.5058 C   0  0  0  0  0  0  0  0  0  0  0  0
   -2.5690   -4.8215   -0.3506 H   0  0  0  0  0  0  0  0  0  0  0  0
   -1.0975   -3.2580   -0.1538 C   0  0  0  0  0  0  0  0  0  0  0  0
   -0.2997   -3.8811    0.2790 H   0  0  0  0  0  0  0  0  0  0  0  0
   -2.0735    1.2099    0.0054 C   0  0  0  0  0  0  0  0  0  0  0  0
   -1.8279    1.1423    1.3894 C   0  0  0  0  0  0  0  0  0  0  0  0
   -1.0195    0.4872    1.7518 H   0  0  0  0  0  0  0  0  0  0  0  0
   -2.5904    1.9071    2.2811 C   0  0  0  0  0  0  0  0  0  0  0  0
   -2.3900    1.8491    3.3619 H   0  0  0  0  0  0  0  0  0  0  0  0
   -3.6077    2.7493    1.7987 C   0  0  0  0  0  0  0  0  0  0  0  0
   -4.2029    3.3541    2.4996 H   0  0  0  0  0  0  0  0  0  0  0  0
   -3.8550    2.8231    0.4198 C   0  0  0  0  0  0  0  0  0  0  0  0
   -4.6423    3.4890    0.0345 H   0  0  0  0  0  0  0  0  0  0  0  0
   -3.0891    2.0550   -0.4726 C   0  0  0  0  0  0  0  0  0  0  0  0
   -3.2736    2.1223   -1.5578 H   0  0  0  0  0  0  0  0  0  0  0  0
    3.6653   -0.7140   -0.4533 C   0  0  0  0  0  0  0  0  0  0  0  0
    3.4187   -0.7193   -1.5309 H   0  0  0  0  0  0  0  0  0  0  0  0
    3.7810   -1.7532   -0.0943 H   0  0  0  0  0  0  0  0  0  0  0  0
    4.6065   -0.1434   -0.3001 H   0  0  0  0  0  0  0  0  0  0  0  0
    2.8431   -0.0208    1.7472 C   0  0  0  0  0  0  0  0  0  0  0  0
    3.7722    0.5613    1.9294 H   0  0  0  0  0  0  0  0  0  0  0  0
    2.9517   -1.0540    2.1261 H   0  0  0  0  0  0  0  0  0  0  0  0
    2.0016    0.4783    2.2623 H   0  0  0  0  0  0  0  0  0  0  0  0
  2 40  1  0  0  0  0
  3 23  1  0  0  0  0
  4  1  1  0  0  0  0
  4  5  1  0  0  0  0
  5  2  1  0  0  0  0
  6  5  2  0  0  0  0
  6  7  1  0  0  0  0
  8  6  1  0  0  0  0
  9  8  1  0  0  0  0
 10 12  1  0  0  0  0
 10  8  2  0  0  0  0
 11 10  1  0  0  0  0
 12  4  2  0  0  0  0
 13 12  1  0  0  0  0
 14 15  1  6  0  0  0
 14  1  1  0  0  0  0
 14 25  1  0  0  0  0
 16 14  1  1  0  0  0
 16  3  1  0  0  0  0
 17 19  2  0  0  0  0
 17 16  1  0  0  0  0
 18 17  1  0  0  0  0
 19 21  1  0  0  0  0
 20 19  1  0  0  0  0
 21 22  1  0  0  0  0
 21 23  2  0  0  0  0
 23 24  1  0  0  0  0
 25 26  1  0  0  0  0
 26 27  1  0  0  0  0
 26 28  2  0  0  0  0
 28 29  1  0  0  0  0
 30 28  1  0  0  0  0
 30 31  1  0  0  0  0
 32 30  2  0  0  0  0
 33 32  1  0  0  0  0
 34 25  2  0  0  0  0
 34 32  1  0  0  0  0
 35 34  1  0  0  0  0
 36 39  1  0  0  0  0
 36 38  1  0  0  0  0
 36  2  1  0  0  0  0
 37 36  1  0  0  0  0
 40 41  1  0  0  0  0
 40 42  1  0  0  0  0
 40 43  1  0  0  0  0
M  END
