1,2,3
q = 0.0, confidence = 1.0

 76 77  0  0  1  0  0  0  0  0999 V2000
    1.5168    0.4153   -1.7963 N   0  0  0  0  0  0  0  0  0  0  0  0
   -0.7817   -0.7595   -0.3585 N   0  0  0  0  0  0  0  0  0  0  0  0
    1.9974   -1.5942    0.3272 N   0  0  0  0  0  0  0  0  0  0  0  0
   -3.2787   -0.9599    0.3468 C   0  0  1  0  0  0  0  0  0  0  0  0
   -3.0239   -1.7875    1.0437 H   0  0  0  0  0  0  0  0  0  0  0  0
   -2.1926    1.3092   -0.3127 C   0  0  0  0  0  0  0  0  0  0  0  0
   -2.4961    1.2578   -1.3780 H   0  0  0  0  0  0  0  0  0  0  0  0
   -1.2203    1.8462   -0.2781 H   0  0  0  0  0  0  0  0  0  0  0  0
    0.1864    0.3151   -2.4417 C   0  0  0  0  0  0  0  0  0  0  0  0
    0.2727    0.1142   -3.5354 H   0  0  0  0  0  0  0  0  0  0  0  0
   -0.3117    1.2932   -2.3356 H   0  0  0  0  0  0  0  0  0  0  0  0
   -0.7222   -0.7685   -1.8392 C   0  0  0  0  0  0  0  0  0  0  0  0
   -1.7250   -0.6361   -2.2901 H   0  0  0  0  0  0  0  0  0  0  0  0
   -0.3893   -1.7717   -2.1715 H   0  0  0  0  0  0  0  0  0  0  0  0
    1.6425   -1.9318    2.7669 C   0  0  0  0  0  0  0  0  0  0  0  0
    1.0335   -1.0054    2.7776 H   0  0  0  0  0  0  0  0  0  0  0  0
    2.1439   -2.0288    3.7488 H   0  0  0  0  0  0  0  0  0  0  0  0
    0.9670   -2.8029    2.6647 H   0  0  0  0  0  0  0  0  0  0  0  0
   -1.9803   -0.1007    0.2555 C   0  0  2  0  0  0  0  0  0  0  0  0
   -1.6750    0.0433    1.3161 H   0  0  0  0  0  0  0  0  0  0  0  0
    2.7015   -1.8666    1.6540 C   0  0  0  0  0  0  0  0  0  0  0  0
    2.9408   -1.4473   -0.8043 C   0  0  0  0  0  0  0  0  0  0  0  0
    3.3813   -2.4261   -1.1080 H   0  0  0  0  0  0  0  0  0  0  0  0
    3.7761   -0.8145   -0.4622 H   0  0  0  0  0  0  0  0  0  0  0  0
    3.6509   -0.6991    1.9767 C   0  0  0  0  0  0  0  0  0  0  0  0
    4.5475   -0.6749    1.3283 H   0  0  0  0  0  0  0  0  0  0  0  0
    4.0145   -0.7984    3.0175 H   0  0  0  0  0  0  0  0  0  0  0  0
    3.1188    0.2688    1.8850 H   0  0  0  0  0  0  0  0  0  0  0  0
    2.3116   -0.8159   -2.0527 C   0  0  0  0  0  0  0  0  0  0  0  0
    3.1245   -0.6259   -2.7840 H   0  0  0  0  0  0  0  0  0  0  0  0
    1.6556   -1.5550   -2.5511 H   0  0  0  0  0  0  0  0  0  0  0  0
   -2.7641    2.5723    1.8402 C   0  0  0  0  0  0  0  0  0  0  0  0
   -2.4886    1.7275    2.5050 H   0  0  0  0  0  0  0  0  0  0  0  0
   -3.5464    3.1593    2.3618 H   0  0  0  0  0  0  0  0  0  0  0  0
   -1.8712    3.2215    1.7320 H   0  0  0  0  0  0  0  0  0  0  0  0
   -0.4983   -2.0726    0.2520 C   0  0  0  0  0  0  0  0  0  0  0  0
   -1.1998   -2.8651   -0.1021 H   0  0  0  0  0  0  0  0  0  0  0  0
   -0.6719   -1.9621    1.3398 H   0  0  0  0  0  0  0  0  0  0  0  0
   -4.3562   -0.1250    1.0838 C   0  0  0  0  0  0  0  0  0  0  0  0
   -5.3181   -0.6766    1.0815 H   0  0  0  0  0  0  0  0  0  0  0  0
   -4.0659   -0.0568    2.1546 H   0  0  0  0  0  0  0  0  0  0  0  0
   -3.7730   -1.7048   -0.9298 C   0  0  0  0  0  0  0  0  0  0  0  0
   -2.8743   -2.1819   -1.3786 H   0  0  0  0  0  0  0  0  0  0  0  0
   -3.2606    2.1078    0.4630 C   0  0  2  0  0  0  0  0  0  0  0  0
   -3.4697    3.0266   -0.1256 H   0  0  0  0  0  0  0  0  0  0  0  0
    2.5114    1.8230   -3.6639 C   0  0  0  0  0  0  0  0  0  0  0  0
    3.1138    0.9796   -4.0570 H   0  0  0  0  0  0  0  0  0  0  0  0
    3.0781    2.7502   -3.8765 H   0  0  0  0  0  0  0  0  0  0  0  0
    1.5689    1.8760   -4.2431 H   0  0  0  0  0  0  0  0  0  0  0  0
    0.9286   -2.5766    0.0062 C   0  0  0  0  0  0  0  0  0  0  0  0
    1.0615   -3.5186    0.5778 H   0  0  0  0  0  0  0  0  0  0  0  0
    1.0342   -2.8779   -1.0542 H   0  0  0  0  0  0  0  0  0  0  0  0
    1.4212    2.9130   -1.6800 C   0  0  0  0  0  0  0  0  0  0  0  0
    0.5013    3.0679   -2.2756 H   0  0  0  0  0  0  0  0  0  0  0  0
    2.0251    3.8352   -1.7805 H   0  0  0  0  0  0  0  0  0  0  0  0
    1.1395    2.7961   -0.6142 H   0  0  0  0  0  0  0  0  0  0  0  0
   -4.4353   -0.8592   -2.0277 C   0  0  0  0  0  0  0  0  0  0  0  0
   -5.4085   -0.4489   -1.6916 H   0  0  0  0  0  0  0  0  0  0  0  0
   -4.6422   -1.4861   -2.9185 H   0  0  0  0  0  0  0  0  0  0  0  0
   -3.8150   -0.0044   -2.3624 H   0  0  0  0  0  0  0  0  0  0  0  0
    3.5036   -3.1813    1.6170 C   0  0  0  0  0  0  0  0  0  0  0  0
    2.8650   -4.0611    1.4007 H   0  0  0  0  0  0  0  0  0  0  0  0
    3.9761   -3.3600    2.6023 H   0  0  0  0  0  0  0  0  0  0  0  0
    4.3168   -3.1494    0.8657 H   0  0  0  0  0  0  0  0  0  0  0  0
   -4.5658    1.2936    0.5367 C   0  0  0  0  0  0  0  0  0  0  0  0
   -5.3052    1.8280    1.1693 H   0  0  0  0  0  0  0  0  0  0  0  0
   -5.0112    1.2484   -0.4766 H   0  0  0  0  0  0  0  0  0  0  0  0
    2.2525    1.7066   -2.1502 C   0  0  0  0  0  0  0  0  0  0  0  0
    3.5851    1.7329   -1.3848 C   0  0  0  0  0  0  0  0  0  0  0  0
    3.4081    1.6087   -0.2968 H   0  0  0  0  0  0  0  0  0  0  0  0
    4.0853    2.7071   -1.5443 H   0  0  0  0  0  0  0  0  0  0  0  0
    4.2905    0.9502   -1.7244 H   0  0  0  0  0  0  0  0  0  0  0  0
   -4.7071   -2.8621   -0.5384 C   0  0  0  0  0  0  0  0  0  0  0  0
   -4.2283   -3.5464    0.1917 H   0  0  0  0  0  0  0  0  0  0  0  0
   -4.9901   -3.4604   -1.4273 H   0  0  0  0  0  0  0  0  0  0  0  0
   -5.6485   -2.4920   -0.0827 H   0  0  0  0  0  0  0  0  0  0  0  0
  2 36  1  0  0  0  0
  2 19  1  0  0  0  0
  3 21  1  0  0  0  0
  4  5  1  1  0  0  0
  4 39  1  0  0  0  0
  6  8  1  0  0  0  0
  6 19  1  0  0  0  0
  6 44  1  0  0  0  0
  7  6  1  0  0  0  0
  9 11  1  0  0  0  0
  9 12  1  0  0  0  0
  9  1  1  0  0  0  0
 10  9  1  0  0  0  0
 12  2  1  0  0  0  0
 13 12  1  0  0  0  0
 14 12  1  0  0  0  0
 15 16  1  0  0  0  0
 15 17  1  0  0  0  0
 18 15  1  0  0  0  0
 19  4  1  0  0  0  0
 19 20  1  1  0  0  0
 21 25  1  0  0  0  0
 21 15  1  0  0  0  0
 22 24  1  0  0  0  0
 22  3  1  0  0  0  0
 23 22  1  0  0  0  0
 25 27  1  0  0  0  0
 26 25  1  0  0  0  0
 28 25  1  0  0  0  0
 29  1  1  0  0  0  0
 29 22  1  0  0  0  0
 30 29  1  0  0  0  0
 31 29  1  0  0  0  0
 32 34  1  0  0  0  0
 32 33  1  0  0  0  0
 35 32  1  0  0  0  0
 36 38  1  0  0  0  0
 37 36  1  0  0  0  0
 39 41  1  0  0  0  0
 40 39  1  0  0  0  0
 42 73  1  0  0  0  0
 42  4  1  0  0  0  0
 43 42  1  0  0  0  0
 44 45  1  6  0  0  0
 44 65  1  0  0  0  0
 44 32  1  0  0  0  0
 46 68  1  0  0  0  0
 47 46  1  0  0  0  0
 48 46  1  0  0  0  0
 49 46  1  0  0  0  0
 50 36  1  0  0  0  0
 50  3  1  0  0  0  0
 50 51  1  0  0  0  0
 52 50  1  0  0  0  0
 53 56  1  0  0  0  0
 54 53  1  0  0  0  0
 55 53  1  0  0  0  0
 57 58  1  0  0  0  0
 57 42  1  0  0  0  0
 59 57  1  0  0  0  0
 60 57  1  0  0  0  0
 61 21  1  0  0  0  0
 61 63  1  0  0  0  0
 62 61  1  0  0  0  0
 64 61  1  0  0  0  0
 65 39  1  0  0  0  0
 65 66  1  0  0  0  0
 67 65  1  0  0  0  0
 68  1  1  0  0  0  0
 68 53  1  0  0  0  0
 68 69  1  0  0  0  0
 69 70  1  0  0  0  0
 71 69  1  0  0  0  0
 72 69  1  0  0  0  0
 73 76  1  0  0  0  0
 73 74  1  0  0  0  0
 75 73  1  0  0  0  0
M  END
