1,2,3
q = 0.0, confidence = 0.996

 64 65  0  0  1  0  0  0  0  0999 V2000
    1.9454   -0.0026    1.4328 N   0  0  0  0  0  0  0  0  0  0  0  0
    1.6328   -2.2447   -0.4933 N   0  0  0  0  0  0  0  0  0  0  0  0
    1.6730    0.5671   -1.4482 N   0  0  0  0  0  0  0  0  0  0  0  0
   -0.3671    2.8366   -0.4512 C   0  0  0  0  0  0  0  0  0  0  0  0
   -0.9651    1.9210   -0.3497 H   0  0  0  0  0  0  0  0  0  0  0  0
    2.5340    1.2222    0.8351 C   0  0  0  0  0  0  0  0  0  0  0  0
    3.4811    1.5163    1.3448 H   0  0  0  0  0  0  0  0  0  0  0  0
    1.8169    2.0499    0.9728 H   0  0  0  0  0  0  0  0  0  0  0  0
    2.5561   -1.7960   -1.5691 C   0  0  0  0  0  0  0  0  0  0  0  0
    2.7278   -2.6001   -2.3142 H   0  0  0  0  0  0  0  0  0  0  0  0
    3.5530   -1.6117   -1.1242 H   0  0  0  0  0  0  0  0  0  0  0  0
    0.6961    2.8721   -1.3756 C   0  0  0  0  0  0  0  0  0  0  0  0
    0.2611    1.2954    2.7566 C   0  0  0  0  0  0  0  0  0  0  0  0
    0.6396    2.3075    2.5201 H   0  0  0  0  0  0  0  0  0  0  0  0
   -0.2441    1.3600    3.7395 H   0  0  0  0  0  0  0  0  0  0  0  0
   -0.4939    1.0173    1.9960 H   0  0  0  0  0  0  0  0  0  0  0  0
    1.4460    4.0584   -1.4919 C   0  0  0  0  0  0  0  0  0  0  0  0
    2.2654    4.1118   -2.2269 H   0  0  0  0  0  0  0  0  0  0  0  0
    1.1591    5.1750   -0.6904 C   0  0  0  0  0  0  0  0  0  0  0  0
    1.7569    6.0925   -0.7963 H   0  0  0  0  0  0  0  0  0  0  0  0
   -0.6577    3.9495    0.3509 C   0  0  0  0  0  0  0  0  0  0  0  0
   -1.4893    3.9021    1.0705 H   0  0  0  0  0  0  0  0  0  0  0  0
    0.1078    5.1217    0.2373 C   0  0  0  0  0  0  0  0  0  0  0  0
   -0.1210    5.9960    0.8649 H   0  0  0  0  0  0  0  0  0  0  0  0
    2.8288    1.0773   -0.6595 C   0  0  0  0  0  0  0  0  0  0  0  0
    3.1620    2.0648   -1.0395 H   0  0  0  0  0  0  0  0  0  0  0  0
    3.6903    0.4005   -0.8160 H   0  0  0  0  0  0  0  0  0  0  0  0
   -0.2259    1.1803   -2.9971 C   0  0  0  0  0  0  0  0  0  0  0  0
    0.0131    0.4977   -3.8342 H   0  0  0  0  0  0  0  0  0  0  0  0
   -0.7561    2.0509   -3.4270 H   0  0  0  0  0  0  0  0  0  0  0  0
   -0.9184    0.6581   -2.3071 H   0  0  0  0  0  0  0  0  0  0  0  0
    0.7900   -3.4575   -0.8810 C   0  0  0  0  0  0  0  0  0  0  0  0
    2.0836   -0.5513   -2.3282 C   0  0  0  0  0  0  0  0  0  0  0  0
    2.8953   -0.2339   -3.0283 H   0  0  0  0  0  0  0  0  0  0  0  0
    1.2137   -0.8204   -2.9498 H   0  0  0  0  0  0  0  0  0  0  0  0
    2.3554   -2.4310    0.7852 C   0  0  0  0  0  0  0  0  0  0  0  0
    3.2054   -3.1464    0.6820 H   0  0  0  0  0  0  0  0  0  0  0  0
    1.6486   -2.8773    1.5036 H   0  0  0  0  0  0  0  0  0  0  0  0
    0.0005   -3.1146   -2.1551 C   0  0  0  0  0  0  0  0  0  0  0  0
   -0.6887   -3.9453   -2.3994 H   0  0  0  0  0  0  0  0  0  0  0  0
    0.6542   -2.9724   -3.0372 H   0  0  0  0  0  0  0  0  0  0  0  0
   -0.6026   -2.1967   -2.0038 H   0  0  0  0  0  0  0  0  0  0  0  0
    0.7299   -1.0754    3.3198 C   0  0  0  0  0  0  0  0  0  0  0  0
   -0.0207   -1.4371    2.5879 H   0  0  0  0  0  0  0  0  0  0  0  0
    0.2133   -0.8958    4.2818 H   0  0  0  0  0  0  0  0  0  0  0  0
    1.4719   -1.8774    3.4989 H   0  0  0  0  0  0  0  0  0  0  0  0
    1.0203    1.6682   -2.2494 C   0  0  2  0  0  0  0  0  0  0  0  0
    1.7693    2.0096   -3.0046 H   0  0  0  0  0  0  0  0  0  0  0  0
    2.9137   -1.1317    1.3791 C   0  0  0  0  0  0  0  0  0  0  0  0
    3.3115   -1.3674    2.3877 H   0  0  0  0  0  0  0  0  0  0  0  0
    3.8004   -0.8080    0.8013 H   0  0  0  0  0  0  0  0  0  0  0  0
   -0.2245   -3.7584    0.2372 C   0  0  0  0  0  0  0  0  0  0  0  0
    0.2418   -4.1989    1.1392 H   0  0  0  0  0  0  0  0  0  0  0  0
   -0.9637   -4.4957   -0.1304 H   0  0  0  0  0  0  0  0  0  0  0  0
   -0.7681   -2.8387    0.5288 H   0  0  0  0  0  0  0  0  0  0  0  0
    1.3698    0.2333    2.8287 C   0  0  0  0  0  0  0  0  0  0  0  0
    2.4524    0.6971    3.8217 C   0  0  0  0  0  0  0  0  0  0  0  0
    3.2815   -0.0321    3.9198 H   0  0  0  0  0  0  0  0  0  0  0  0
    2.0080    0.8168    4.8287 H   0  0  0  0  0  0  0  0  0  0  0  0
    2.8831    1.6769    3.5365 H   0  0  0  0  0  0  0  0  0  0  0  0
    1.6590   -4.7069   -1.1215 C   0  0  0  0  0  0  0  0  0  0  0  0
    2.3931   -4.5643   -1.9395 H   0  0  0  0  0  0  0  0  0  0  0  0
    1.0149   -5.5593   -1.4127 H   0  0  0  0  0  0  0  0  0  0  0  0
    2.2097   -5.0102   -0.2095 H   0  0  0  0  0  0  0  0  0  0  0  0
  1 56  1  0  0  0  0
  2 36  1  0  0  0  0
  3 25  1  0  0  0  0
  4  5  1  0  0  0  0
  4 21  1  0  0  0  0
  6  8  1  0  0  0  0
  6  7  1  0  0  0  0
  6  1  1  0  0  0  0
  9 11  1  0  0  0  0
  9  2  1  0  0  0  0
 10  9  1  0  0  0  0
 12  4  2  0  0  0  0
 13 56  1  0  0  0  0
 13 15  1  0  0  0  0
 14 13  1  0  0  0  0
 16 13  1  0  0  0  0
 17 12  1  0  0  0  0
 17 19  2  0  0  0  0
 18 17  1  0  0  0  0
 19 23  1  0  0  0  0
 20 19  1  0  0  0  0
 21 22  1  0  0  0  0
 23 21  2  0  0  0  0
 23 24  1  0  0  0  0
 25  6  1  0  0  0  0
 26 25  1  0  0  0  0
 27 25  1  0  0  0  0
 28 31  1  0  0  0  0
 28 47  1  0  0  0  0
 29 28  1  0  0  0  0
 30 28  1  0  0  0  0
 32  2  1  0  0  0  0
 32 52  1  0  0  0  0
 33  9  1  0  0  0  0
 33  3  1  0  0  0  0
 34 33  1  0  0  0  0
 35 33  1  0  0  0  0
 36 49  1  0  0  0  0
 36 38  1  0  0  0  0
 37 36  1  0  0  0  0
 39 42  1  0  0  0  0
 39 32  1  0  0  0  0
 40 39  1  0  0  0  0
 41 39  1  0  0  0  0
 43 46  1  0  0  0  0
 43 45  1  0  0  0  0
 44 43  1  0  0  0  0
 47 48  1  6  0  0  0
 47  3  1  0  0  0  0
 47 12  1  0  0  0  0
 49  1  1  0  0  0  0
 49 50  1  0  0  0  0
 51 49  1  0  0  0  0
 52 55  1  0  0  0  0
 52 53  1  0  0  0  0
 54 52  1  0  0  0  0
 56 43  1  0  0  0  0
 56 57  1  0  0  0  0
 57 58  1  0  0  0  0
 57 59  1  0  0  0  0
 60 57  1  0  0  0  0
 61 32  1  0  0  0  0
 61 64  1  0  0  0  0
 62 61  1  0  0  0  0
 63 61  1  0  0  0  0
M  END
