1,2,47
q = 0.0, confidence = 1.0

 47 50  0  0  1  0  0  0  0  0999 V2000
   -2.5761   -2.0763   -0.3233 N   0  0  0  0  0  2  0  0  0  0  0  0
   -1.0235    0.0137   -0.3665 N   0  0  0  0  0  2  0  0  0  0  0  0
    7.4974   -0.0114    0.0945 N   0  0  0  0  0  0  0  0  0  0  0  0
   -3.4833   -3.0577   -0.3777 C   0  0  0  0  0  3  0  0  0  0  0  0
   -4.5340   -2.7216   -0.3194 H   0  0  0  0  0  0  0  0  0  0  0  0
   -3.1102   -4.4041   -0.5094 C   0  0  0  0  0  0  0  0  0  0  0  0
   -3.8773   -5.1907   -0.5489 H   0  0  0  0  0  0  0  0  0  0  0  0
   -1.7441   -4.7121   -0.5900 C   0  0  0  0  0  0  0  0  0  0  0  0
   -1.4113   -5.7558   -0.6950 H   0  0  0  0  0  0  0  0  0  0  0  0
   -0.8010   -3.6760   -0.5422 C   0  0  0  0  0  0  0  0  0  0  0  0
    0.2727   -3.8971   -0.6189 H   0  0  0  0  0  0  0  0  0  0  0  0
   -1.2570   -2.3522   -0.4065 C   0  0  0  0  0  0  0  0  0  0  0  0
   -0.3668   -1.1564   -0.3542 C   0  0  2  0  0  3  0  0  0  0  0  0
    1.0339   -1.2009   -0.2918 C   0  0  0  0  0  0  0  0  0  0  0  0
    1.5616   -2.1636   -0.3123 H   0  0  0  0  0  0  0  0  0  0  0  0
    1.7736    0.0039   -0.2179 C   0  0  0  0  0  0  0  0  0  0  0  0
    3.2459   -0.0011   -0.1392 C   0  0  0  0  0  0  0  0  0  0  0  0
    3.9542   -1.0777    0.4447 C   0  0  0  0  0  0  0  0  0  0  0  0
    3.3978   -1.9199    0.8831 H   0  0  0  0  0  0  0  0  0  0  0  0
    5.3451   -1.0885    0.5308 C   0  0  0  0  0  0  0  0  0  0  0  0
    5.8347   -1.9418    1.0164 H   0  0  0  0  0  0  0  0  0  0  0  0
    6.1212   -0.0081    0.0185 C   0  0  0  0  0  0  0  0  0  0  0  0
    8.2549    1.1168   -0.4105 C   0  0  0  0  0  0  0  0  0  0  0  0
    8.0957    1.2739   -1.5012 H   0  0  0  0  0  0  0  0  0  0  0  0
    9.3326    0.9356   -0.2499 H   0  0  0  0  0  0  0  0  0  0  0  0
    7.9884    2.0656    0.1076 H   0  0  0  0  0  0  0  0  0  0  0  0
   -3.4724    3.0866   -0.1564 C   0  0  0  0  0  3  0  0  0  0  0  0
   -4.5240    2.7508   -0.1179 H   0  0  0  0  0  0  0  0  0  0  0  0
   -3.0948    4.4376   -0.1957 C   0  0  0  0  0  0  0  0  0  0  0  0
   -3.8591    5.2277   -0.1763 H   0  0  0  0  0  0  0  0  0  0  0  0
   -1.7279    4.7459   -0.2613 C   0  0  0  0  0  0  0  0  0  0  0  0
   -1.3919    5.7933   -0.2948 H   0  0  0  0  0  0  0  0  0  0  0  0
   -0.7886    3.7059   -0.2911 C   0  0  0  0  0  0  0  0  0  0  0  0
    0.2856    3.9276   -0.3591 H   0  0  0  0  0  0  0  0  0  0  0  0
   -1.2488    2.3773   -0.2441 C   0  0  0  0  0  0  0  0  0  0  0  0
   -0.3624    1.1783   -0.2804 C   0  0  0  0  0  0  0  0  0  0  0  0
    1.0383    1.2137   -0.2088 C   0  0  0  0  0  0  0  0  0  0  0  0
    1.5654    2.1706   -0.0984 H   0  0  0  0  0  0  0  0  0  0  0  0
    4.0192    1.0722   -0.6408 C   0  0  0  0  0  0  0  0  0  0  0  0
    3.5175    1.9198   -1.1318 H   0  0  0  0  0  0  0  0  0  0  0  0
    5.4112    1.0764   -0.5745 C   0  0  0  0  0  0  0  0  0  0  0  0
    5.9552    1.9293   -0.9993 H   0  0  0  0  0  0  0  0  0  0  0  0
    8.1884   -1.1343    0.6976 C   0  0  0  0  0  0  0  0  0  0  0  0
    7.9135   -1.2718    1.7679 H   0  0  0  0  0  0  0  0  0  0  0  0
    9.2784   -0.9628    0.6481 H   0  0  0  0  0  0  0  0  0  0  0  0
    7.9705   -2.0898    0.1699 H   0  0  0  0  0  0  0  0  0  0  0  0
   -2.5685    2.1007   -0.1729 N   0  0  0  0  0  2  0  0  0  0  0  0
  2 13  1  0  0  0  0
  2 36  1  0  0  0  0
  3 43  1  0  0  0  0
  4  1  1  0  0  0  0
  4  5  1  0  0  0  0
  6  4  1  0  0  0  0
  7  6  1  0  0  0  0
  8 10  1  0  0  0  0
  8  6  2  0  0  0  0
  9  8  1  0  0  0  0
 10 12  2  0  0  0  0
 11 10  1  0  0  0  0
 12  1  1  0  0  0  0
 13 12  1  1  0  0  0
 13 14  1  0  0  0  0
 14 16  2  0  0  0  0
 15 14  1  0  0  0  0
 16 37  1  0  0  0  0
 16 17  1  0  0  0  0
 17 18  1  0  0  0  0
 18 20  2  0  0  0  0
 18 19  1  0  0  0  0
 20 21  1  0  0  0  0
 22  3  1  0  0  0  0
 22 20  1  0  0  0  0
 23 25  1  0  0  0  0
 23  3  1  0  0  0  0
 23 26  1  0  0  0  0
 24 23  1  0  0  0  0
 27 28  1  0  0  0  0
 29 30  1  0  0  0  0
 29 27  1  0  0  0  0
 31 29  2  0  0  0  0
 32 31  1  0  0  0  0
 33 31  1  0  0  0  0
 33 35  2  0  0  0  0
 34 33  1  0  0  0  0
 35 47  1  0  0  0  0
 36 35  1  0  0  0  0
 36 37  2  0  0  0  0
 37 38  1  0  0  0  0
 39 41  1  0  0  0  0
 39 17  2  0  0  0  0
 40 39  1  0  0  0  0
 41 22  2  0  0  0  0
 42 41  1  0  0  0  0
 43 44  1  0  0  0  0
 45 43  1  0  0  0  0
 46 43  1  0  0  0  0
 47 27  1  0  0  0  0
M  END
