2,4,6
q = -1.0

 35 37  0  0  1  0  0  0  0  0999 V2000
    1.4929   -0.6104    2.0579 N   0  0  0  0  0  0  0  0  0  0  0  0
    1.7111   -0.5344    0.7255 N   0  0  0  0  0  2  0  0  0  0  0  0
   -0.2083    1.2148    2.1602 N   0  0  0  0  0  0  0  0  0  0  0  0
   -0.3472    1.4993    0.8422 N   0  0  0  0  0  2  0  0  0  0  0  0
   -0.9493   -1.1628    2.0768 N   0  0  0  0  0  0  0  0  0  0  0  0
   -1.2024   -1.2003    0.7481 N   0  0  0  0  0  2  0  0  0  0  0  0
    3.0147   -0.8669    0.5456 C   0  0  2  0  0  3  0  0  0  0  0  0
    3.6246   -1.1643    1.7831 C   0  0  0  0  0  0  0  0  0  0  0  0
    2.6146   -0.9856    2.7224 C   0  0  0  0  0  0  0  0  0  0  0  0
    3.7887   -0.7846   -0.7453 C   0  0  0  0  0  0  0  0  0  0  0  0
   -0.7110    2.8027    0.7804 C   0  0  2  0  0  3  0  0  0  0  0  0
   -0.7973    3.3570    2.0749 C   0  0  0  0  0  0  0  0  0  0  0  0
   -0.4689    2.3060    2.9250 C   0  0  0  0  0  0  0  0  0  0  0  0
   -1.0919    3.5400   -0.4756 C   0  0  0  0  0  0  0  0  0  0  0  0
   -2.2455   -2.0529    0.5934 C   0  0  1  0  0  3  0  0  0  0  0  0
   -2.6530   -2.5686    1.8421 C   0  0  0  0  0  0  0  0  0  0  0  0
   -1.7975   -1.9709    2.7620 C   0  0  0  0  0  0  0  0  0  0  0  0
   -2.9881   -2.3134   -0.6913 C   0  0  0  0  0  0  0  0  0  0  0  0
    3.1388   -1.2903   -1.8123 F   0  0  0  0  0  0  0  0  0  0  0  0
    4.9493   -1.4703   -0.6125 F   0  0  0  0  0  0  0  0  0  0  0  0
    4.1126    0.4977   -1.0346 F   0  0  0  0  0  0  0  0  0  0  0  0
   -1.2115    4.8605   -0.2014 F   0  0  0  0  0  0  0  0  0  0  0  0
   -2.2864    3.1178   -0.9520 F   0  0  0  0  0  0  0  0  0  0  0  0
   -0.1893    3.4109   -1.4698 F   0  0  0  0  0  0  0  0  0  0  0  0
   -3.7758   -1.2623   -1.0192 F   0  0  0  0  0  0  0  0  0  0  0  0
   -2.1860   -2.5645   -1.7459 F   0  0  0  0  0  0  0  0  0  0  0  0
   -3.7973   -3.3870   -0.5295 F   0  0  0  0  0  0  0  0  0  0  0  0
    0.1264   -0.2148    2.6344 B   0  0  1  0  0  0  0  0  0  0  0  0
    4.6636   -1.4605    1.9481 H   0  0  0  0  0  0  0  0  0  0  0  0
    2.6070   -1.0918    3.8119 H   0  0  0  0  0  0  0  0  0  0  0  0
   -1.0679    4.3837    2.3338 H   0  0  0  0  0  0  0  0  0  0  0  0
   -0.4035    2.2482    4.0161 H   0  0  0  0  0  0  0  0  0  0  0  0
   -3.4670   -3.2740    2.0274 H   0  0  0  0  0  0  0  0  0  0  0  0
   -1.7289   -2.0539    3.8513 H   0  0  0  0  0  0  0  0  0  0  0  0
    0.1476   -0.2652    3.8512 H   0  0  0  0  0  0  0  0  0  0  0  0
  1 28  1  0  0  0  0
  1  9  1  0  0  0  0
  2  1  1  0  0  0  0
  3 28  1  0  0  0  0
  3 13  1  0  0  0  0
  4  3  1  0  0  0  0
  5 28  1  0  0  0  0
  5 17  1  0  0  0  0
  6  5  1  0  0  0  0
  7 10  1  1  0  0  0
  7  2  1  0  0  0  0
  7  8  1  0  0  0  0
  8 29  1  0  0  0  0
  8  9  2  0  0  0  0
  9 30  1  0  0  0  0
 10 20  1  0  0  0  0
 11 14  1  1  0  0  0
 11  4  1  0  0  0  0
 11 12  1  0  0  0  0
 12 31  1  0  0  0  0
 12 13  2  0  0  0  0
 13 32  1  0  0  0  0
 14 22  1  0  0  0  0
 15 18  1  1  0  0  0
 15  6  1  0  0  0  0
 15 16  1  0  0  0  0
 16 33  1  0  0  0  0
 16 17  2  0  0  0  0
 17 34  1  0  0  0  0
 18 27  1  0  0  0  0
 19 10  1  0  0  0  0
 21 10  1  0  0  0  0
 23 14  1  0  0  0  0
 24 14  1  0  0  0  0
 25 18  1  0  0  0  0
 26 18  1  0  0  0  0
 28 35  1  1  0  0  0
M  END
