2,3,40
q = 0.0, confidence = 0.996

 58 61  0  0  1  0  0  0  0  0999 V2000
    0.7200   -1.1536    1.9520 N   0  0  0  0  0  0  0  0  0  0  0  0
    1.0471   -1.3869    0.6611 N   0  0  0  0  0  2  0  0  0  0  0  0
   -1.6173   -0.2134    0.3635 N   0  0  0  0  0  2  0  0  0  0  0  0
   -0.1257   -0.0157    2.2927 C   0  0  2  0  0  0  0  0  0  0  0  0
   -0.2142   -0.0170    3.3940 H   0  0  0  0  0  0  0  0  0  0  0  0
    1.2468   -2.0966    2.7919 C   0  0  0  0  0  3  0  0  0  0  0  0
    1.0805   -2.0594    3.8742 H   0  0  0  0  0  0  0  0  0  0  0  0
    1.9500   -2.9860    1.9877 C   0  0  0  0  0  0  0  0  0  0  0  0
    2.5028   -3.8696    2.3185 H   0  0  0  0  0  0  0  0  0  0  0  0
    1.8005   -2.5033    0.6550 C   0  0  0  0  0  0  0  0  0  0  0  0
    2.3388   -3.0752   -0.6452 C   0  0  0  0  0  0  0  0  0  0  0  0
    1.1472   -3.4688   -1.5484 C   0  0  0  0  0  0  0  0  0  0  0  0
    0.5491   -2.5748   -1.8178 H   0  0  0  0  0  0  0  0  0  0  0  0
    0.4930   -4.2100   -1.0451 H   0  0  0  0  0  0  0  0  0  0  0  0
    1.5215   -3.9186   -2.4907 H   0  0  0  0  0  0  0  0  0  0  0  0
    3.1995   -4.3141   -0.3460 C   0  0  0  0  0  0  0  0  0  0  0  0
    2.6110   -5.1121    0.1521 H   0  0  0  0  0  0  0  0  0  0  0  0
    4.0655   -4.0649    0.3013 H   0  0  0  0  0  0  0  0  0  0  0  0
    3.5962   -4.7322   -1.2924 H   0  0  0  0  0  0  0  0  0  0  0  0
    3.1904   -2.0029   -1.3602 C   0  0  0  0  0  0  0  0  0  0  0  0
    2.5646   -1.1309   -1.6363 H   0  0  0  0  0  0  0  0  0  0  0  0
    3.6136   -2.4208   -2.2963 H   0  0  0  0  0  0  0  0  0  0  0  0
    4.0294   -1.6636   -0.7189 H   0  0  0  0  0  0  0  0  0  0  0  0
   -1.5271   -0.1134    1.6908 C   0  0  0  0  0  0  0  0  0  0  0  0
   -2.6591   -0.0699    2.5461 C   0  0  0  0  0  0  0  0  0  0  0  0
   -2.5252    0.0087    3.6355 H   0  0  0  0  0  0  0  0  0  0  0  0
   -3.9258   -0.1368    1.9861 C   0  0  0  0  0  0  0  0  0  0  0  0
   -4.8258   -0.1135    2.6197 H   0  0  0  0  0  0  0  0  0  0  0  0
   -4.0641   -0.2378    0.5737 C   0  0  0  0  0  0  0  0  0  0  0  0
   -5.3256   -0.3057   -0.0837 C   0  0  0  0  0  0  0  0  0  0  0  0
   -6.2439   -0.2768    0.5232 H   0  0  0  0  0  0  0  0  0  0  0  0
   -5.3892   -0.4017   -1.4664 C   0  0  0  0  0  0  0  0  0  0  0  0
   -6.3672   -0.4519   -1.9688 H   0  0  0  0  0  0  0  0  0  0  0  0
   -4.1976   -0.4294   -2.2410 C   0  0  0  0  0  0  0  0  0  0  0  0
   -4.2644   -0.4972   -3.3375 H   0  0  0  0  0  0  0  0  0  0  0  0
   -2.9494   -0.3668   -1.6377 C   0  0  0  0  0  0  0  0  0  0  0  0
   -2.0102   -0.3681   -2.2219 H   0  0  0  0  0  0  0  0  0  0  0  0
   -2.8599   -0.2720   -0.2208 C   0  0  1  0  0  3  0  0  0  0  0  0
    0.5242    1.2422    1.9383 N   0  0  0  0  0  0  0  0  0  0  0  0
    0.7100    1.5550    0.6352 N   0  0  0  0  0  2  0  0  0  0  0  0
    1.0302    2.2030    2.7699 C   0  0  0  0  0  3  0  0  0  0  0  0
    0.9679    2.1095    3.8598 H   0  0  0  0  0  0  0  0  0  0  0  0
    1.5625    3.1905    1.9487 C   0  0  0  0  0  0  0  0  0  0  0  0
    2.0428    4.1190    2.2699 H   0  0  0  0  0  0  0  0  0  0  0  0
    1.3439    2.7438    0.6134 C   0  0  0  0  0  0  0  0  0  0  0  0
    1.7181    3.4044   -0.7021 C   0  0  0  0  0  0  0  0  0  0  0  0
    0.4514    3.5499   -1.5750 C   0  0  0  0  0  0  0  0  0  0  0  0
    0.0311    2.5541   -1.8233 H   0  0  0  0  0  0  0  0  0  0  0  0
   -0.3222    4.1552   -1.0597 H   0  0  0  0  0  0  0  0  0  0  0  0
    0.7086    4.0527   -2.5295 H   0  0  0  0  0  0  0  0  0  0  0  0
    2.3290    4.7887   -0.4276 C   0  0  0  0  0  0  0  0  0  0  0  0
    1.6170    5.4526    0.1048 H   0  0  0  0  0  0  0  0  0  0  0  0
    3.2557    4.7152    0.1781 H   0  0  0  0  0  0  0  0  0  0  0  0
    2.5942    5.2781   -1.3857 H   0  0  0  0  0  0  0  0  0  0  0  0
    2.7451    2.5129   -1.4371 C   0  0  0  0  0  0  0  0  0  0  0  0
    2.2928    1.5340   -1.6947 H   0  0  0  0  0  0  0  0  0  0  0  0
    3.0570    2.9986   -2.3841 H   0  0  0  0  0  0  0  0  0  0  0  0
    3.6490    2.3466   -0.8160 H   0  0  0  0  0  0  0  0  0  0  0  0
  1  4  1  0  0  0  0
  1  6  1  0  0  0  0
  2  1  1  0  0  0  0
  3 24  1  0  0  0  0
  4  5  1  1  0  0  0
  6  7  1  0  0  0  0
  8  9  1  0  0  0  0
  8  6  1  0  0  0  0
 10  2  1  0  0  0  0
 10  8  2  0  0  0  0
 11 16  1  0  0  0  0
 11 10  1  0  0  0  0
 12 14  1  0  0  0  0
 12 11  1  0  0  0  0
 13 12  1  0  0  0  0
 15 12  1  0  0  0  0
 16 17  1  0  0  0  0
 16 18  1  0  0  0  0
 19 16  1  0  0  0  0
 20 23  1  0  0  0  0
 20 11  1  0  0  0  0
 21 20  1  0  0  0  0
 22 20  1  0  0  0  0
 24  4  1  0  0  0  0
 24 25  2  0  0  0  0
 25 26  1  0  0  0  0
 27 25  1  0  0  0  0
 27 28  1  0  0  0  0
 29 27  2  0  0  0  0
 30 31  1  0  0  0  0
 30 29  1  0  0  0  0
 32 30  2  0  0  0  0
 33 32  1  0  0  0  0
 34 36  2  0  0  0  0
 34 32  1  0  0  0  0
 35 34  1  0  0  0  0
 37 36  1  0  0  0  0
 38 36  1  6  0  0  0
 38  3  1  0  0  0  0
 38 29  1  0  0  0  0
 39  4  1  0  0  0  0
 39 41  1  0  0  0  0
 40 39  1  0  0  0  0
 41 42  1  0  0  0  0
 43 44  1  0  0  0  0
 43 41  1  0  0  0  0
 45 40  1  0  0  0  0
 45 43  2  0  0  0  0
 46 51  1  0  0  0  0
 46 45  1  0  0  0  0
 47 49  1  0  0  0  0
 47 46  1  0  0  0  0
 48 47  1  0  0  0  0
 50 47  1  0  0  0  0
 51 52  1  0  0  0  0
 51 53  1  0  0  0  0
 54 51  1  0  0  0  0
 55 58  1  0  0  0  0
 55 46  1  0  0  0  0
 56 55  1  0  0  0  0
 57 55  1  0  0  0  0
M  END
