1,2,3
q = -2.0, confidence = 0.932

 55 57  0  0  1  0  0  0  0  0999 V2000
    0.0037    2.1522   -0.1980 N   0  0  0  0  0  2  0  0  0  0  0  0
    1.9076    0.5614   -0.1650 N   0  0  0  0  0  2  0  0  0  0  0  0
   -1.9150    0.5934   -0.1150 N   0  0  0  0  0  2  0  0  0  0  0  0
    3.5360    2.2646   -0.1870 O   0  0  0  0  0  0  0  0  0  0  0  0
   -3.5259    2.3060   -0.0243 O   0  0  0  0  0  0  0  0  0  0  0  0
    2.3607    1.8577   -0.1982 C   0  0  0  0  0  0  0  0  0  0  0  0
    1.1922    2.7978   -0.2355 C   0  0  2  0  0  3  0  0  0  0  0  0
    1.2373    4.1954   -0.2678 C   0  0  0  0  0  0  0  0  0  0  0  0
    2.2257    4.6771   -0.2936 H   0  0  0  0  0  0  0  0  0  0  0  0
    0.0251    4.9141   -0.2554 C   0  0  0  0  0  0  0  0  0  0  0  0
    0.0339    6.0149   -0.2795 H   0  0  0  0  0  0  0  0  0  0  0  0
   -1.1983    4.2171   -0.2037 C   0  0  0  0  0  0  0  0  0  0  0  0
   -2.1774    4.7174   -0.1794 H   0  0  0  0  0  0  0  0  0  0  0  0
   -1.1750    2.8187   -0.1747 C   0  0  0  0  0  0  0  0  0  0  0  0
   -2.3541    1.8964   -0.0961 C   0  0  0  0  0  0  0  0  0  0  0  0
    2.8326   -0.4937   -0.0172 C   0  0  0  0  0  0  0  0  0  0  0  0
    2.9784   -1.4555   -1.0536 C   0  0  0  0  0  0  0  0  0  0  0  0
    3.8953   -2.5049   -0.8843 C   0  0  0  0  0  0  0  0  0  0  0  0
    4.0093   -3.2411   -1.6988 H   0  0  0  0  0  0  0  0  0  0  0  0
    4.6678   -2.6446    0.2841 C   0  0  0  0  0  0  0  0  0  0  0  0
    4.4981   -1.6892    1.2998 C   0  0  0  0  0  0  0  0  0  0  0  0
    5.0862   -1.7788    2.2295 H   0  0  0  0  0  0  0  0  0  0  0  0
    3.5949   -0.6180    1.1744 C   0  0  0  0  0  0  0  0  0  0  0  0
    2.1421   -1.3539   -2.2985 C   0  0  0  0  0  0  0  0  0  0  0  0
    2.5029   -2.0427   -3.0883 H   0  0  0  0  0  0  0  0  0  0  0  0
    2.1280   -0.3189   -2.6957 H   0  0  0  0  0  0  0  0  0  0  0  0
    1.0964   -1.6105   -2.0240 H   0  0  0  0  0  0  0  0  0  0  0  0
    5.6247   -3.8018    0.4445 C   0  0  0  0  0  0  0  0  0  0  0  0
    6.2922   -3.6605    1.3184 H   0  0  0  0  0  0  0  0  0  0  0  0
    6.2651   -3.9329   -0.4536 H   0  0  0  0  0  0  0  0  0  0  0  0
    5.0849   -4.7632    0.5928 H   0  0  0  0  0  0  0  0  0  0  0  0
    3.4298    0.3827    2.2846 C   0  0  0  0  0  0  0  0  0  0  0  0
    3.9014    0.0303    3.2233 H   0  0  0  0  0  0  0  0  0  0  0  0
    2.3541    0.5823    2.4722 H   0  0  0  0  0  0  0  0  0  0  0  0
    3.8820    1.3539    1.9907 H   0  0  0  0  0  0  0  0  0  0  0  0
   -2.8446   -0.4599    0.0099 C   0  0  0  0  0  0  0  0  0  0  0  0
   -3.0348   -1.3526   -1.0813 C   0  0  0  0  0  0  0  0  0  0  0  0
   -3.9225   -2.4325   -0.9331 C   0  0  0  0  0  0  0  0  0  0  0  0
   -4.0669   -3.1179   -1.7856 H   0  0  0  0  0  0  0  0  0  0  0  0
   -4.6349   -2.6550    0.2595 C   0  0  0  0  0  0  0  0  0  0  0  0
   -4.4372   -1.7541    1.3216 C   0  0  0  0  0  0  0  0  0  0  0  0
   -4.9847   -1.9065    2.2676 H   0  0  0  0  0  0  0  0  0  0  0  0
   -3.5553   -0.6640    1.2241 C   0  0  0  0  0  0  0  0  0  0  0  0
   -2.2929   -1.1179   -2.3691 C   0  0  0  0  0  0  0  0  0  0  0  0
   -2.5338   -0.1210   -2.7929 H   0  0  0  0  0  0  0  0  0  0  0  0
   -2.5268   -1.8956   -3.1221 H   0  0  0  0  0  0  0  0  0  0  0  0
   -1.2020   -1.1167   -2.1632 H   0  0  0  0  0  0  0  0  0  0  0  0
   -5.5512   -3.8459    0.4079 C   0  0  0  0  0  0  0  0  0  0  0  0
   -6.3747   -3.6422    1.1224 H   0  0  0  0  0  0  0  0  0  0  0  0
   -5.0042   -4.7368    0.7891 H   0  0  0  0  0  0  0  0  0  0  0  0
   -6.0038   -4.1367   -0.5621 H   0  0  0  0  0  0  0  0  0  0  0  0
   -3.3521    0.2809    2.3750 C   0  0  0  0  0  0  0  0  0  0  0  0
   -3.8071   -0.1067    3.3076 H   0  0  0  0  0  0  0  0  0  0  0  0
   -3.7967    1.2692    2.1317 H   0  0  0  0  0  0  0  0  0  0  0  0
   -2.2695    0.4588    2.5444 H   0  0  0  0  0  0  0  0  0  0  0  0
  1 14  1  0  0  0  0
  2 16  1  0  0  0  0
  3 15  1  0  0  0  0
  3 36  1  0  0  0  0
  6  4  2  0  0  0  0
  6  2  1  0  0  0  0
  7  6  1  1  0  0  0
  7  1  1  0  0  0  0
  8 10  2  0  0  0  0
  8  7  1  0  0  0  0
  9  8  1  0  0  0  0
 10 12  1  0  0  0  0
 11 10  1  0  0  0  0
 12 13  1  0  0  0  0
 12 14  2  0  0  0  0
 14 15  1  0  0  0  0
 15  5  2  0  0  0  0
 16 23  1  0  0  0  0
 17 18  1  0  0  0  0
 17 16  2  0  0  0  0
 18 20  2  0  0  0  0
 19 18  1  0  0  0  0
 20 28  1  0  0  0  0
 20 21  1  0  0  0  0
 21 22  1  0  0  0  0
 23 21  2  0  0  0  0
 23 32  1  0  0  0  0
 24 27  1  0  0  0  0
 24 17  1  0  0  0  0
 25 24  1  0  0  0  0
 26 24  1  0  0  0  0
 28 31  1  0  0  0  0
 28 29  1  0  0  0  0
 30 28  1  0  0  0  0
 32 34  1  0  0  0  0
 32 33  1  0  0  0  0
 35 32  1  0  0  0  0
 36 43  1  0  0  0  0
 37 38  1  0  0  0  0
 37 36  2  0  0  0  0
 38 40  2  0  0  0  0
 39 38  1  0  0  0  0
 40 48  1  0  0  0  0
 40 41  1  0  0  0  0
 41 42  1  0  0  0  0
 43 41  2  0  0  0  0
 43 52  1  0  0  0  0
 44 47  1  0  0  0  0
 44 37  1  0  0  0  0
 45 44  1  0  0  0  0
 46 44  1  0  0  0  0
 48 50  1  0  0  0  0
 48 49  1  0  0  0  0
 51 48  1  0  0  0  0
 52 55  1  0  0  0  0
 52 53  1  0  0  0  0
 54 52  1  0  0  0  0
M  END
