1,2,3
q = 0.0, confidence = 1.0

 43 44  0  0  1  0  0  0  0  0999 V2000
   -0.9488    0.0272    0.0508 N   0  0  0  0  0  0  0  0  0  0  0  0
    1.1934   -1.3273    1.6632 N   0  0  0  0  0  0  0  0  0  0  0  0
    1.3996    1.5310    0.0425 N   0  0  0  0  0  2  0  0  0  0  0  0
    0.2280    2.2147    0.0921 C   0  0  1  0  0  3  0  0  0  0  0  0
    0.1968    3.5742    0.4386 C   0  0  0  0  0  0  0  0  0  0  0  0
   -0.7667    4.1017    0.4876 H   0  0  0  0  0  0  0  0  0  0  0  0
    1.3994    4.2413    0.7096 C   0  0  0  0  0  0  0  0  0  0  0  0
    1.3953    5.3082    0.9775 H   0  0  0  0  0  0  0  0  0  0  0  0
    2.6042    3.5274    0.6348 C   0  0  0  0  0  0  0  0  0  0  0  0
    3.5710    4.0102    0.8346 H   0  0  0  0  0  0  0  0  0  0  0  0
    2.5587    2.1697    0.3020 C   0  0  0  0  0  0  0  0  0  0  0  0
    3.4738    1.5620    0.2350 H   0  0  0  0  0  0  0  0  0  0  0  0
   -1.0205    1.4623   -0.3079 C   0  0  0  0  0  0  0  0  0  0  0  0
   -1.9212    1.9492    0.1242 H   0  0  0  0  0  0  0  0  0  0  0  0
   -1.1217    1.5246   -1.4122 H   0  0  0  0  0  0  0  0  0  0  0  0
   -2.0040   -0.7753   -0.6582 C   0  0  0  0  0  0  0  0  0  0  0  0
   -1.8340   -1.8338   -0.3862 H   0  0  0  0  0  0  0  0  0  0  0  0
   -1.7860   -0.6864   -1.7405 H   0  0  0  0  0  0  0  0  0  0  0  0
   -3.4322   -0.3815   -0.3604 C   0  0  0  0  0  0  0  0  0  0  0  0
   -4.0714    0.6393   -1.0956 C   0  0  0  0  0  0  0  0  0  0  0  0
   -3.5419    1.1262   -1.9300 H   0  0  0  0  0  0  0  0  0  0  0  0
   -5.3874    1.0209   -0.7973 C   0  0  0  0  0  0  0  0  0  0  0  0
   -5.8753    1.8119   -1.3863 H   0  0  0  0  0  0  0  0  0  0  0  0
   -6.0876    0.3821    0.2387 C   0  0  0  0  0  0  0  0  0  0  0  0
   -7.1222    0.6772    0.4686 H   0  0  0  0  0  0  0  0  0  0  0  0
   -5.4722   -0.6491    0.9649 C   0  0  0  0  0  0  0  0  0  0  0  0
   -6.0248   -1.1697    1.7611 H   0  0  0  0  0  0  0  0  0  0  0  0
   -4.1557   -1.0290    0.6639 C   0  0  0  0  0  0  0  0  0  0  0  0
   -3.6917   -1.8623    1.2165 H   0  0  0  0  0  0  0  0  0  0  0  0
   -1.0020   -0.1396    1.5324 C   0  0  0  0  0  0  0  0  0  0  0  0
   -0.5591    0.7652    1.9927 H   0  0  0  0  0  0  0  0  0  0  0  0
   -2.0570   -0.1763    1.8779 H   0  0  0  0  0  0  0  0  0  0  0  0
   -0.2543   -1.3788    1.9980 C   0  0  0  0  0  0  0  0  0  0  0  0
   -0.3951   -1.5088    3.0959 H   0  0  0  0  0  0  0  0  0  0  0  0
   -0.6754   -2.2823    1.5137 H   0  0  0  0  0  0  0  0  0  0  0  0
    1.9123   -0.3860    2.5449 C   0  0  0  0  0  0  0  0  0  0  0  0
    1.8969   -0.7419    3.5993 H   0  0  0  0  0  0  0  0  0  0  0  0
    1.4602    0.6197    2.5021 H   0  0  0  0  0  0  0  0  0  0  0  0
    2.9652   -0.3060    2.2161 H   0  0  0  0  0  0  0  0  0  0  0  0
    1.7988   -2.6670    1.8196 C   0  0  0  0  0  0  0  0  0  0  0  0
    2.8609   -2.6306    1.5150 H   0  0  0  0  0  0  0  0  0  0  0  0
    1.2759   -3.3990    1.1811 H   0  0  0  0  0  0  0  0  0  0  0  0
    1.7418   -3.0025    2.8787 H   0  0  0  0  0  0  0  0  0  0  0  0
  1 30  1  0  0  0  0
  2 40  1  0  0  0  0
  2 33  1  0  0  0  0
  2 36  1  0  0  0  0
  3  4  1  0  0  0  0
  3 11  1  0  0  0  0
  4 13  1  6  0  0  0
  4  5  1  0  0  0  0
  5  6  1  0  0  0  0
  5  7  2  0  0  0  0
  7  8  1  0  0  0  0
  9  7  1  0  0  0  0
  9 10  1  0  0  0  0
 11  9  2  0  0  0  0
 12 11  1  0  0  0  0
 13  1  1  0  0  0  0
 13 14  1  0  0  0  0
 15 13  1  0  0  0  0
 16 17  1  0  0  0  0
 16 19  1  0  0  0  0
 16  1  1  0  0  0  0
 18 16  1  0  0  0  0
 19 28  1  0  0  0  0
 20 22  1  0  0  0  0
 20 19  2  0  0  0  0
 21 20  1  0  0  0  0
 22 24  2  0  0  0  0
 23 22  1  0  0  0  0
 24 25  1  0  0  0  0
 24 26  1  0  0  0  0
 26 27  1  0  0  0  0
 28 26  2  0  0  0  0
 28 29  1  0  0  0  0
 30 32  1  0  0  0  0
 30 31  1  0  0  0  0
 30 33  1  0  0  0  0
 33 34  1  0  0  0  0
 35 33  1  0  0  0  0
 36 37  1  0  0  0  0
 38 36  1  0  0  0  0
 39 36  1  0  0  0  0
 40 43  1  0  0  0  0
 41 40  1  0  0  0  0
 42 40  1  0  0  0  0
M  END
