3,4,5
q = -1.0

 31 33  0  0  1  0  0  0  0  0999 V2000
    4.0850   -2.2236   -2.2387 S   0  0  0  0  0  0  0  0  0  0  0  0
    5.6158    0.3323   -0.4845 S   0  0  0  0  0  0  0  0  0  0  0  0
   -0.4922   -0.6690   -1.4962 N   0  0  0  0  0  2  0  0  0  0  0  0
    1.6852    0.7033   -1.0071 N   0  0  0  0  0  0  0  0  0  0  0  0
    1.4819    2.5797    0.8071 N   0  0  0  0  0  2  0  0  0  0  0  0
    3.8768   -3.9055    0.0986 N   0  0  0  0  0  0  0  0  0  0  0  0
    5.4338   -0.8457    2.1461 N   0  0  0  0  0  0  0  0  0  0  0  0
   -1.6672   -1.2762   -1.7074 C   0  0  0  0  0  3  0  0  0  0  0  0
   -2.5563   -0.7995   -1.2628 H   0  0  0  0  0  0  0  0  0  0  0  0
   -1.7913   -2.4677   -2.4376 C   0  0  0  0  0  0  0  0  0  0  0  0
   -2.7783   -2.9382   -2.5461 H   0  0  0  0  0  0  0  0  0  0  0  0
   -0.6258   -3.0280   -2.9802 C   0  0  0  0  0  0  0  0  0  0  0  0
   -0.6736   -3.9633   -3.5581 H   0  0  0  0  0  0  0  0  0  0  0  0
    0.6074   -2.3938   -2.7762 C   0  0  0  0  0  0  0  0  0  0  0  0
    1.5386   -2.8100   -3.1846 H   0  0  0  0  0  0  0  0  0  0  0  0
    0.6444   -1.2088   -2.0148 C   0  0  0  0  0  0  0  0  0  0  0  0
    1.8682   -0.4755   -1.6509 C   0  0  0  0  0  0  0  0  0  0  0  0
    3.2569   -0.7741   -1.6355 C   0  0  0  0  0  0  0  0  0  0  0  0
    3.8952    0.2895   -0.9195 C   0  0  0  0  0  0  0  0  0  0  0  0
    2.8629    1.1804   -0.5279 C   0  0  0  0  0  3  0  0  0  0  0  0
    2.7572    2.3140    0.3941 C   0  0  2  0  0  3  0  0  0  0  0  0
    3.8447    3.0781    0.8680 C   0  0  0  0  0  0  0  0  0  0  0  0
    4.8612    2.8413    0.5249 H   0  0  0  0  0  0  0  0  0  0  0  0
    3.6007    4.1210    1.7666 C   0  0  0  0  0  0  0  0  0  0  0  0
    4.4377    4.7252    2.1479 H   0  0  0  0  0  0  0  0  0  0  0  0
    2.2837    4.3909    2.1750 C   0  0  0  0  0  0  0  0  0  0  0  0
    2.0543    5.2009    2.8813 H   0  0  0  0  0  0  0  0  0  0  0  0
    1.2567    3.5878    1.6621 C   0  0  0  0  0  0  0  0  0  0  0  0
    0.2048    3.7471    1.9535 H   0  0  0  0  0  0  0  0  0  0  0  0
    3.9583   -3.2133   -0.8512 C   0  0  0  0  0  0  0  0  0  0  0  0
    5.5116   -0.3730    1.0694 C   0  0  0  0  0  0  0  0  0  0  0  0
  1 18  1  0  0  0  0
  1 30  1  0  0  0  0
  2 31  1  0  0  0  0
  4 20  1  0  0  0  0
  5 28  1  0  0  0  0
  8  3  1  0  0  0  0
  8  9  1  0  0  0  0
 10  8  1  0  0  0  0
 11 10  1  0  0  0  0
 12 14  1  0  0  0  0
 12 10  2  0  0  0  0
 13 12  1  0  0  0  0
 14 16  2  0  0  0  0
 15 14  1  0  0  0  0
 16 17  1  0  0  0  0
 16  3  1  0  0  0  0
 17 18  1  0  0  0  0
 17  4  2  0  0  0  0
 18 19  2  0  0  0  0
 19 20  1  0  0  0  0
 19  2  1  0  0  0  0
 21 20  1  1  0  0  0
 21  5  1  0  0  0  0
 21 22  1  0  0  0  0
 22 24  2  0  0  0  0
 23 22  1  0  0  0  0
 24 25  1  0  0  0  0
 24 26  1  0  0  0  0
 26 27  1  0  0  0  0
 28 29  1  0  0  0  0
 28 26  2  0  0  0  0
 30  6  3  0  0  0  0
 31  7  3  0  0  0  0
M  END
