11,12,13
q = -1.0

 65 67  0  0  1  0  0  0  0  0999 V2000
   -1.6797    0.6479    1.6726 O   0  0  0  0  0  0  0  0  0  0  0  0
   -4.3469   -0.0817    2.4777 O   0  0  0  0  0  0  0  0  0  0  0  0
   -5.6255   -2.0046    0.8007 O   0  0  0  0  0  0  0  0  0  0  0  0
   -3.0287   -0.6078   -1.4352 O   0  0  0  0  0  0  0  0  0  0  0  0
   -5.9892   -1.0830   -2.1196 O   0  0  0  0  0  0  0  0  0  0  0  0
    0.6304   -0.8538    1.0638 O   0  0  0  0  0  0  0  0  0  0  0  0
    2.3099   -3.3575    1.3361 O   0  0  0  0  0  0  0  0  0  0  0  0
    4.8794   -3.1827    0.6865 O   0  0  0  0  0  1  0  0  0  0  0  0
    3.6585   -0.0940   -0.8802 O   0  0  0  0  0  0  0  0  0  0  0  0
    6.4551    0.1914   -1.4393 O   0  0  0  0  0  0  0  0  0  0  0  0
   -1.0581    0.6294   -0.9745 N   0  0  1  0  0  0  0  0  0  0  0  0
    1.6433    1.0835   -0.6029 N   0  0  2  0  0  0  0  0  0  0  0  0
   -0.2007    2.9572    0.1536 N   0  0  0  0  0  0  0  0  0  0  0  0
   -0.1470   -0.0329   -1.9540 C   0  0  0  0  0  0  0  0  0  0  0  0
    1.2000    0.6883   -1.9845 C   0  0  0  0  0  0  0  0  0  0  0  0
    2.1365    2.4854   -0.5293 C   0  0  0  0  0  0  0  0  0  0  0  0
    0.9494    3.4331   -0.6818 C   0  0  0  0  0  0  0  0  0  0  0  0
   -1.5264    3.0435   -0.4975 C   0  0  0  0  0  0  0  0  0  0  0  0
   -1.6440    1.9085   -1.5159 C   0  0  0  0  0  0  0  0  0  0  0  0
   -2.0819   -0.3022   -0.4479 C   0  0  1  0  0  0  0  0  0  0  0  0
   -2.7490    0.3002    0.7906 C   0  0  1  0  0  0  0  0  0  0  0  0
   -3.7267   -0.7002    1.3774 C   0  0  2  0  0  0  0  0  0  0  0  0
   -4.7139   -1.0702    0.2652 C   0  0  1  0  0  0  0  0  0  0  0  0
   -3.9597   -1.6165   -0.9673 C   0  0  1  0  0  0  0  0  0  0  0  0
   -4.9078   -1.9983   -2.0957 C   0  0  0  0  0  0  0  0  0  0  0  0
    2.5940    0.1106   -0.0087 C   0  0  1  0  0  0  0  0  0  0  0  0
    1.8530   -1.1958    0.3256 C   0  0  1  0  0  0  0  0  0  0  0  0
    2.8123   -2.0969    1.0487 C   0  0  2  0  0  0  0  0  0  0  0  0
    4.0886   -2.3029    0.0928 C   0  0  1  0  0  0  0  0  0  0  0  0
    4.6958   -0.9287   -0.2800 C   0  0  1  0  0  0  0  0  0  0  0  0
    5.8334   -1.0640   -1.2616 C   0  0  0  0  0  0  0  0  0  0  0  0
   -0.0296   -1.0797   -1.6218 H   0  0  0  0  0  0  0  0  0  0  0  0
   -0.6069   -0.0656   -2.9639 H   0  0  0  0  0  0  0  0  0  0  0  0
    1.1410    1.6036   -2.6026 H   0  0  0  0  0  0  0  0  0  0  0  0
    1.9836    0.0513   -2.4425 H   0  0  0  0  0  0  0  0  0  0  0  0
    2.5896    2.6072    0.4729 H   0  0  0  0  0  0  0  0  0  0  0  0
    2.9195    2.6770   -1.2928 H   0  0  0  0  0  0  0  0  0  0  0  0
    0.6107    3.4861   -1.7352 H   0  0  0  0  0  0  0  0  0  0  0  0
    1.2386    4.4634   -0.3931 H   0  0  0  0  0  0  0  0  0  0  0  0
   -2.2874    2.9510    0.2989 H   0  0  0  0  0  0  0  0  0  0  0  0
   -1.6879    4.0261   -0.9933 H   0  0  0  0  0  0  0  0  0  0  0  0
   -1.0910    2.1632   -2.4396 H   0  0  0  0  0  0  0  0  0  0  0  0
   -2.6950    1.7314   -1.8203 H   0  0  0  0  0  0  0  0  0  0  0  0
   -5.2502   -3.0425   -1.9050 H   0  0  0  0  0  0  0  0  0  0  0  0
   -4.3241   -2.0057   -3.0457 H   0  0  0  0  0  0  0  0  0  0  0  0
    5.4277   -1.4838   -2.2174 H   0  0  0  0  0  0  0  0  0  0  0  0
    6.5023   -1.8396   -0.8179 H   0  0  0  0  0  0  0  0  0  0  0  0
   -1.5255   -1.2136   -0.1243 H   0  0  0  0  0  0  0  0  0  0  0  0
   -3.3366    1.2040    0.5127 H   0  0  0  0  0  0  0  0  0  0  0  0
   -3.1695   -1.6223    1.6824 H   0  0  0  0  0  0  0  0  0  0  0  0
   -5.2319   -0.1404   -0.0600 H   0  0  0  0  0  0  0  0  0  0  0  0
   -3.3792   -2.5227   -0.6730 H   0  0  0  0  0  0  0  0  0  0  0  0
    2.9331    0.5677    0.9510 H   0  0  0  0  0  0  0  0  0  0  0  0
    1.5085   -1.7157   -0.5883 H   0  0  0  0  0  0  0  0  0  0  0  0
    3.1981   -1.5670    1.9616 H   0  0  0  0  0  0  0  0  0  0  0  0
    3.6200   -2.7019   -0.8670 H   0  0  0  0  0  0  0  0  0  0  0  0
    5.0738   -0.4184    0.6367 H   0  0  0  0  0  0  0  0  0  0  0  0
   -0.1946    3.4517    1.0588 H   0  0  0  0  0  0  0  0  0  0  0  0
   -2.0081    0.9410    2.5487 H   0  0  0  0  0  0  0  0  0  0  0  0
    0.8821   -0.7078    2.0094 H   0  0  0  0  0  0  0  0  0  0  0  0
   -6.5689   -1.3134   -2.8674 H   0  0  0  0  0  0  0  0  0  0  0  0
    7.2708    0.0466   -1.9504 H   0  0  0  0  0  0  0  0  0  0  0  0
    3.1524   -3.8929    1.3516 H   0  0  0  0  0  0  0  0  0  0  0  0
   -5.0794   -0.6708    2.7500 H   0  0  0  0  0  0  0  0  0  0  0  0
   -6.4398   -1.9399    0.2649 H   0  0  0  0  0  0  0  0  0  0  0  0
  1 59  1  0  0  0  0
  2 64  1  0  0  0  0
  4 24  1  0  0  0  0
  4 20  1  0  0  0  0
  5 25  1  0  0  0  0
  6 60  1  0  0  0  0
  7 63  1  0  0  0  0
  9 30  1  0  0  0  0
  9 26  1  0  0  0  0
 10 31  1  0  0  0  0
 11 14  1  6  0  0  0
 11 20  1  0  0  0  0
 12 15  1  6  0  0  0
 12 16  1  0  0  0  0
 12 26  1  0  0  0  0
 13 58  1  0  0  0  0
 14 32  1  0  0  0  0
 15 14  1  0  0  0  0
 16 36  1  0  0  0  0
 17 16  1  0  0  0  0
 17 39  1  0  0  0  0
 17 13  1  0  0  0  0
 18 13  1  0  0  0  0
 18 40  1  0  0  0  0
 19 11  1  0  0  0  0
 19 18  1  0  0  0  0
 20 48  1  1  0  0  0
 20 21  1  0  0  0  0
 21 49  1  6  0  0  0
 21 22  1  0  0  0  0
 21  1  1  0  0  0  0
 22 50  1  1  0  0  0
 22  2  1  0  0  0  0
 23 51  1  6  0  0  0
 23  3  1  0  0  0  0
 23 22  1  0  0  0  0
 24 52  1  1  0  0  0
 24 23  1  0  0  0  0
 25 44  1  0  0  0  0
 25 24  1  0  0  0  0
 26 27  1  0  0  0  0
 26 53  1  1  0  0  0
 27 54  1  6  0  0  0
 27 28  1  0  0  0  0
 27  6  1  0  0  0  0
 28  7  1  0  0  0  0
 28 55  1  1  0  0  0
 29 56  1  6  0  0  0
 29  8  1  0  0  0  0
 29 28  1  0  0  0  0
 30 29  1  0  0  0  0
 30 57  1  1  0  0  0
 31 47  1  0  0  0  0
 31 30  1  0  0  0  0
 33 14  1  0  0  0  0
 34 15  1  0  0  0  0
 35 15  1  0  0  0  0
 37 16  1  0  0  0  0
 38 17  1  0  0  0  0
 41 18  1  0  0  0  0
 42 19  1  0  0  0  0
 43 19  1  0  0  0  0
 45 25  1  0  0  0  0
 46 31  1  0  0  0  0
 61  5  1  0  0  0  0
 62 10  1  0  0  0  0
 65  3  1  0  0  0  0
M  END
