2,4,6
q = 0.0, confidence = 0.99

 43 45  0  0  1  0  0  0  0  0999 V2000
   -0.3508   -0.0353    1.6873 N   0  0  0  0  0  0  0  0  0  0  0  0
    1.0239   -1.8394   -0.0590 N   0  0  0  0  0  2  0  0  0  0  0  0
    1.4012   -3.2808    1.5792 N   0  0  0  0  0  0  0  0  0  0  0  0
    0.9082    1.9258    0.0134 N   0  0  0  0  0  2  0  0  0  0  0  0
    1.7756    3.0102    1.7414 N   0  0  0  0  0  0  0  0  0  0  0  0
   -2.0749    0.0064   -0.6408 N   0  0  0  0  0  2  0  0  0  0  0  0
   -3.8758    0.1839    0.6261 N   0  0  0  0  0  0  0  0  0  0  0  0
   -0.3604   -1.4590    1.9902 C   0  0  0  0  0  0  0  0  0  0  0  0
   -1.3637   -1.8524    1.7138 H   0  0  0  0  0  0  0  0  0  0  0  0
   -0.2360   -1.6764    3.0807 H   0  0  0  0  0  0  0  0  0  0  0  0
    0.6872   -2.1784    1.1852 C   0  0  2  0  0  3  0  0  0  0  0  0
    1.9724   -2.7333   -0.4926 C   0  0  0  0  0  0  0  0  0  0  0  0
    2.4166   -2.6500   -1.4917 H   0  0  0  0  0  0  0  0  0  0  0  0
    2.2162   -3.6458    0.5172 C   0  0  0  0  0  0  0  0  0  0  0  0
    2.8913   -4.5054    0.5812 H   0  0  0  0  0  0  0  0  0  0  0  0
    1.2958   -3.9918    2.8461 C   0  0  0  0  0  0  0  0  0  0  0  0
    0.3903   -4.6307    2.8755 H   0  0  0  0  0  0  0  0  0  0  0  0
    1.2608   -3.2774    3.6908 H   0  0  0  0  0  0  0  0  0  0  0  0
    2.1857   -4.6338    2.9741 H   0  0  0  0  0  0  0  0  0  0  0  0
    0.7842    0.7058    2.2094 C   0  0  0  0  0  0  0  0  0  0  0  0
    1.6514    0.0085    2.2278 H   0  0  0  0  0  0  0  0  0  0  0  0
    0.6392    1.0444    3.2669 H   0  0  0  0  0  0  0  0  0  0  0  0
    1.1249    1.8763    1.3289 C   0  0  2  0  0  3  0  0  0  0  0  0
    1.4380    3.1093   -0.4455 C   0  0  0  0  0  0  0  0  0  0  0  0
    1.4033    3.3851   -1.5053 H   0  0  0  0  0  0  0  0  0  0  0  0
    1.9852    3.7983    0.6200 C   0  0  0  0  0  0  0  0  0  0  0  0
    2.4951    4.7650    0.6833 H   0  0  0  0  0  0  0  0  0  0  0  0
    2.2303    3.3158    3.0910 C   0  0  0  0  0  0  0  0  0  0  0  0
    3.0926    2.6807    3.3770 H   0  0  0  0  0  0  0  0  0  0  0  0
    1.4126    3.1660    3.8225 H   0  0  0  0  0  0  0  0  0  0  0  0
    2.5431    4.3742    3.1338 H   0  0  0  0  0  0  0  0  0  0  0  0
   -1.6336    0.6376    1.7613 C   0  0  0  0  0  0  0  0  0  0  0  0
   -1.4407    1.7321    1.7162 H   0  0  0  0  0  0  0  0  0  0  0  0
   -2.1769    0.4588    2.7229 H   0  0  0  0  0  0  0  0  0  0  0  0
   -2.5108    0.2618    0.5991 C   0  0  2  0  0  3  0  0  0  0  0  0
   -3.1760   -0.2388   -1.4321 C   0  0  0  0  0  0  0  0  0  0  0  0
   -3.0873   -0.4812   -2.4963 H   0  0  0  0  0  0  0  0  0  0  0  0
   -4.3094   -0.1267   -0.6531 C   0  0  0  0  0  0  0  0  0  0  0  0
   -5.3714   -0.2446   -0.8907 H   0  0  0  0  0  0  0  0  0  0  0  0
   -4.7401    0.4299    1.7747 C   0  0  0  0  0  0  0  0  0  0  0  0
   -4.4032   -0.1587    2.6495 H   0  0  0  0  0  0  0  0  0  0  0  0
   -5.7682    0.1171    1.5205 H   0  0  0  0  0  0  0  0  0  0  0  0
   -4.7519    1.5051    2.0416 H   0  0  0  0  0  0  0  0  0  0  0  0
  1 32  1  0  0  0  0
  1  8  1  0  0  0  0
  1 20  1  0  0  0  0
  2 11  1  0  0  0  0
  3 16  1  0  0  0  0
  4 23  1  0  0  0  0
  5 28  1  0  0  0  0
  6 35  1  0  0  0  0
  7 40  1  0  0  0  0
  8 10  1  0  0  0  0
  9  8  1  0  0  0  0
 11  3  1  0  0  0  0
 11  8  1  6  0  0  0
 12  2  1  0  0  0  0
 12 14  2  0  0  0  0
 13 12  1  0  0  0  0
 14 15  1  0  0  0  0
 14  3  1  0  0  0  0
 16 17  1  0  0  0  0
 16 19  1  0  0  0  0
 16 18  1  0  0  0  0
 20 21  1  0  0  0  0
 20 22  1  0  0  0  0
 23  5  1  0  0  0  0
 23 20  1  6  0  0  0
 24  4  1  0  0  0  0
 24 26  2  0  0  0  0
 25 24  1  0  0  0  0
 26 27  1  0  0  0  0
 26  5  1  0  0  0  0
 28 31  1  0  0  0  0
 28 29  1  0  0  0  0
 28 30  1  0  0  0  0
 32 34  1  0  0  0  0
 33 32  1  0  0  0  0
 35  7  1  0  0  0  0
 35 32  1  6  0  0  0
 36 38  2  0  0  0  0
 36  6  1  0  0  0  0
 37 36  1  0  0  0  0
 38  7  1  0  0  0  0
 39 38  1  0  0  0  0
 40 43  1  0  0  0  0
 40 41  1  0  0  0  0
 42 40  1  0  0  0  0
M  END
