2,3,5
q = 0.0, confidence = 0.99

 63 68  0  0  1  0  0  0  0  0999 V2000
    5.2069    0.6337   -0.0182 N   0  0  0  0  0  0  0  0  0  0  0  0
   -3.2924   -0.0544   -0.3909 N   0  0  0  0  0  2  0  0  0  0  0  0
   -4.6656   -2.2653   -0.3000 N   0  0  0  0  0  2  0  0  0  0  0  0
    0.9606    0.2899   -0.2098 C   0  0  0  0  0  0  0  0  0  0  0  0
   -5.0097    1.8912   -0.1725 N   0  0  0  0  0  2  0  0  0  0  0  0
   -1.3403    1.3164   -0.2579 C   0  0  0  0  0  0  0  0  0  0  0  0
   -0.8890    2.3167   -0.2169 H   0  0  0  0  0  0  0  0  0  0  0  0
   -1.1410   -1.0929   -0.3403 C   0  0  0  0  0  0  0  0  0  0  0  0
   -0.5346   -2.0076   -0.3017 H   0  0  0  0  0  0  0  0  0  0  0  0
   -0.5111    0.1713   -0.2747 C   0  0  0  0  0  0  0  0  0  0  0  0
   -2.5421   -1.1662   -0.3917 C   0  0  0  0  0  0  0  0  0  0  0  0
   -3.3311   -2.4311   -0.4231 C   0  0  0  0  0  0  0  0  0  0  0  0
    1.5819    1.3475    0.4950 C   0  0  0  0  0  0  0  0  0  0  0  0
    0.9629    2.0749    1.0411 H   0  0  0  0  0  0  0  0  0  0  0  0
   -3.7203    2.2812   -0.2656 C   0  0  1  0  0  3  0  0  0  0  0  0
   -2.7347    1.1627   -0.3077 C   0  0  0  0  0  0  0  0  0  0  0  0
    5.7930    1.9344   -0.0405 C   0  0  0  0  0  0  0  0  0  0  0  0
    3.1912   -0.5422   -0.7974 C   0  0  0  0  0  0  0  0  0  0  0  0
    3.8206   -1.2686   -1.3307 H   0  0  0  0  0  0  0  0  0  0  0  0
    3.8008    0.5120   -0.0778 C   0  0  0  0  0  0  0  0  0  0  0  0
    2.9712    1.4569    0.5690 C   0  0  0  0  0  0  0  0  0  0  0  0
    3.4301    2.2726    1.1452 H   0  0  0  0  0  0  0  0  0  0  0  0
   -3.3769    3.6437   -0.3259 C   0  0  0  0  0  0  0  0  0  0  0  0
   -2.3273    3.9578   -0.4115 H   0  0  0  0  0  0  0  0  0  0  0  0
   -5.4892   -3.3189   -0.3348 C   0  0  0  0  0  0  0  0  0  0  0  0
   -6.5622   -3.0720   -0.2456 H   0  0  0  0  0  0  0  0  0  0  0  0
   -2.7703   -3.7115   -0.5795 C   0  0  0  0  0  0  0  0  0  0  0  0
   -1.6848   -3.8418   -0.6906 H   0  0  0  0  0  0  0  0  0  0  0  0
    6.0366   -0.5032    0.0720 C   0  0  0  0  0  0  0  0  0  0  0  0
    1.8012   -0.6514   -0.8498 C   0  0  0  0  0  0  0  0  0  0  0  0
    1.3551   -1.4626   -1.4445 H   0  0  0  0  0  0  0  0  0  0  0  0
   -5.9949    2.7956   -0.1445 C   0  0  0  0  0  0  0  0  0  0  0  0
   -7.0128    2.3709   -0.0846 H   0  0  0  0  0  0  0  0  0  0  0  0
    7.3087   -0.5087   -0.5579 C   0  0  0  0  0  0  0  0  0  0  0  0
    7.6302    0.3753   -1.1267 H   0  0  0  0  0  0  0  0  0  0  0  0
   -3.6249   -4.8226   -0.6048 C   0  0  0  0  0  0  0  0  0  0  0  0
   -3.2098   -5.8347   -0.7247 H   0  0  0  0  0  0  0  0  0  0  0  0
    5.3676    2.8872   -0.9892 C   0  0  0  0  0  0  0  0  0  0  0  0
    4.5884    2.6142   -1.7156 H   0  0  0  0  0  0  0  0  0  0  0  0
    6.7980    2.2759    0.8879 C   0  0  0  0  0  0  0  0  0  0  0  0
    7.1222    1.5324    1.6304 H   0  0  0  0  0  0  0  0  0  0  0  0
   -5.0087   -4.6292   -0.4835 C   0  0  0  0  0  0  0  0  0  0  0  0
   -5.7086   -5.4768   -0.5046 H   0  0  0  0  0  0  0  0  0  0  0  0
   -4.4023    4.5991   -0.2871 C   0  0  0  0  0  0  0  0  0  0  0  0
   -4.1587    5.6713   -0.3319 H   0  0  0  0  0  0  0  0  0  0  0  0
   -5.7358    4.1740   -0.1974 C   0  0  0  0  0  0  0  0  0  0  0  0
   -6.5652    4.8951   -0.1698 H   0  0  0  0  0  0  0  0  0  0  0  0
    6.9457    4.5046   -0.0820 C   0  0  0  0  0  0  0  0  0  0  0  0
    7.3963    5.5079   -0.0985 H   0  0  0  0  0  0  0  0  0  0  0  0
    8.1332   -1.6260   -0.4638 C   0  0  0  0  0  0  0  0  0  0  0  0
    9.1181   -1.6533   -0.9547 H   0  0  0  0  0  0  0  0  0  0  0  0
    9.7076   -4.0404   -0.1644 O   0  0  0  0  0  0  0  0  0  0  0  0
    7.7187   -2.7708    0.2538 C   0  0  0  0  0  0  0  0  0  0  0  0
    7.3741    3.5527    0.8578 C   0  0  0  0  0  0  0  0  0  0  0  0
    8.1577    3.8099    1.5863 H   0  0  0  0  0  0  0  0  0  0  0  0
    5.6215   -1.6464    0.7982 C   0  0  0  0  0  0  0  0  0  0  0  0
    4.6466   -1.6411    1.3057 H   0  0  0  0  0  0  0  0  0  0  0  0
    5.9384    4.1666   -1.0007 C   0  0  0  0  0  0  0  0  0  0  0  0
    5.6016    4.9029   -1.7461 H   0  0  0  0  0  0  0  0  0  0  0  0
    8.6004   -3.9544    0.3445 C   0  0  0  0  0  0  0  0  0  0  0  0
    8.1615   -4.8118    0.9419 H   0  0  0  0  0  0  0  0  0  0  0  0
    6.4546   -2.7631    0.8794 C   0  0  0  0  0  0  0  0  0  0  0  0
    6.1315   -3.6467    1.4540 H   0  0  0  0  0  0  0  0  0  0  0  0
  1 29  1  0  0  0  0
  2 16  1  0  0  0  0
  4 13  1  0  0  0  0
  5 32  1  0  0  0  0
  6  7  1  0  0  0  0
  8  9  1  0  0  0  0
  8 10  2  0  0  0  0
 10  6  1  0  0  0  0
 10  4  1  0  0  0  0
 11  2  1  0  0  0  0
 11  8  1  0  0  0  0
 12 11  2  0  0  0  0
 12  3  1  0  0  0  0
 13 21  2  0  0  0  0
 13 14  1  0  0  0  0
 15 16  1  6  0  0  0
 15  5  1  0  0  0  0
 16  6  2  0  0  0  0
 17  1  1  0  0  0  0
 17 40  1  0  0  0  0
 18 20  2  0  0  0  0
 19 18  1  0  0  0  0
 20  1  1  0  0  0  0
 20 21  1  0  0  0  0
 21 22  1  0  0  0  0
 23 44  2  0  0  0  0
 23 15  1  0  0  0  0
 24 23  1  0  0  0  0
 25  3  1  0  0  0  0
 25 26  1  0  0  0  0
 27 12  1  0  0  0  0
 28 27  1  0  0  0  0
 29 56  1  0  0  0  0
 30 18  1  0  0  0  0
 30  4  2  0  0  0  0
 31 30  1  0  0  0  0
 32 33  1  0  0  0  0
 34 50  1  0  0  0  0
 34 29  2  0  0  0  0
 35 34  1  0  0  0  0
 36 27  2  0  0  0  0
 36 42  1  0  0  0  0
 37 36  1  0  0  0  0
 38 17  2  0  0  0  0
 39 38  1  0  0  0  0
 40 41  1  0  0  0  0
 42 25  2  0  0  0  0
 43 42  1  0  0  0  0
 44 46  1  0  0  0  0
 45 44  1  0  0  0  0
 46 47  1  0  0  0  0
 46 32  2  0  0  0  0
 48 54  1  0  0  0  0
 49 48  1  0  0  0  0
 50 53  2  0  0  0  0
 51 50  1  0  0  0  0
 52 60  2  0  0  0  0
 53 60  1  0  0  0  0
 53 62  1  0  0  0  0
 54 40  2  0  0  0  0
 54 55  1  0  0  0  0
 56 62  2  0  0  0  0
 56 57  1  0  0  0  0
 58 38  1  0  0  0  0
 58 48  2  0  0  0  0
 59 58  1  0  0  0  0
 60 61  1  0  0  0  0
 62 63  1  0  0  0  0
M  END
