24,30,31
q = 0.0, confidence = 0.998

 31 32  0  0  1  0  0  0  0  0999 V2000
    2.4681   -1.7537   -0.7399 C   0  0  0  0  0  3  0  0  0  0  0  0
    1.7868   -2.6250   -0.7129 H   0  0  0  0  0  0  0  0  0  0  0  0
    3.8258   -1.8666   -1.0706 C   0  0  0  0  0  0  0  0  0  0  0  0
    4.2454   -2.8468   -1.3388 H   0  0  0  0  0  0  0  0  0  0  0  0
    4.6152   -0.7127   -1.0313 C   0  0  0  0  0  0  0  0  0  0  0  0
    5.6895   -0.7510   -1.2673 H   0  0  0  0  0  0  0  0  0  0  0  0
    4.0149    0.5015   -0.6813 C   0  0  0  0  0  0  0  0  0  0  0  0
    4.6192    1.4161   -0.6497 H   0  0  0  0  0  0  0  0  0  0  0  0
    2.6316    0.5511   -0.3834 C   0  0  0  0  0  0  0  0  0  0  0  0
    2.0182    1.8735   -0.0756 C   0  0  0  0  0  0  0  0  0  0  0  0
   -1.4114    1.8309   -0.4076 C   0  0  1  0  0  3  0  0  0  0  0  0
   -1.6233    3.1668   -0.3730 N   0  0  0  0  0  0  0  0  0  0  0  0
   -0.7529    3.6808   -0.1682 H   0  0  0  0  0  0  0  0  0  0  0  0
   -2.5042    3.5281   -0.0096 H   0  0  0  0  0  0  0  0  0  0  0  0
   -2.5495    0.8874   -0.4824 C   0  0  2  0  0  3  0  0  0  0  0  0
   -3.8430    1.2633   -0.8877 C   0  0  0  0  0  0  0  0  0  0  0  0
   -4.0494    2.2900   -1.2233 H   0  0  0  0  0  0  0  0  0  0  0  0
   -4.8494    0.2869   -0.8904 C   0  0  0  0  0  0  0  0  0  0  0  0
   -5.8717    0.5462   -1.2040 H   0  0  0  0  0  0  0  0  0  0  0  0
   -4.5305   -1.0222   -0.5031 C   0  0  0  0  0  0  0  0  0  0  0  0
   -5.2919   -1.8152   -0.4929 H   0  0  0  0  0  0  0  0  0  0  0  0
   -3.2069   -1.3155   -0.1339 C   0  0  0  0  0  0  0  0  0  0  0  0
   -2.8587   -2.3261    0.1449 H   0  0  0  0  0  0  0  0  0  0  0  0
    1.8889   -0.5874   -0.4072 N   0  0  0  0  0  2  0  0  0  0  0  0
    2.9451    3.0011    0.3062 C   0  0  0  0  0  0  0  0  0  0  0  0
    2.3383    3.8798    0.5859 H   0  0  0  0  0  0  0  0  0  0  0  0
    3.6207    3.2949   -0.5245 H   0  0  0  0  0  0  0  0  0  0  0  0
    3.5807    2.7148    1.1690 H   0  0  0  0  0  0  0  0  0  0  0  0
    0.7607    2.2186   -0.1394 N   0  0  0  0  0  0  0  0  0  0  0  0
   -0.2018    1.2902   -0.3809 N   0  0  0  0  0  2  0  0  0  0  0  0
   -2.2523   -0.3768   -0.1203 N   0  0  0  0  0  2  0  0  0  0  0  0
  1  2  1  0  0  0  0
  1 24  1  0  0  0  0
  3  5  2  0  0  0  0
  3  1  1  0  0  0  0
  4  3  1  0  0  0  0
  5  7  1  0  0  0  0
  6  5  1  0  0  0  0
  7  8  1  0  0  0  0
  7  9  2  0  0  0  0
  9 10  1  0  0  0  0
 10 25  1  0  0  0  0
 11 30  1  6  0  0  0
 11 12  1  0  0  0  0
 12 13  1  0  0  0  0
 12 14  1  0  0  0  0
 15 11  1  1  0  0  0
 15 31  1  0  0  0  0
 16 15  1  0  0  0  0
 17 16  1  0  0  0  0
 18 16  2  0  0  0  0
 18 20  1  0  0  0  0
 19 18  1  0  0  0  0
 20 21  1  0  0  0  0
 20 22  2  0  0  0  0
 22 31  1  0  0  0  0
 22 23  1  0  0  0  0
 24  9  1  0  0  0  0
 25 26  1  0  0  0  0
 25 28  1  0  0  0  0
 27 25  1  0  0  0  0
 29 10  2  0  0  0  0
 30 29  1  0  0  0  0
M  END
