1,2,4
q = 0.0, confidence = 0.984

 49 53  0  0  1  0  0  0  0  0999 V2000
   -1.8973   -0.4465   -0.1359 N   0  0  0  0  0  2  0  0  0  0  0  0
    0.0000    1.1060   -0.3569 N   0  0  0  0  0  2  0  0  0  0  0  0
   -3.6592    0.9564   -0.2865 N   0  0  0  0  0  0  0  0  0  0  0  0
    1.8973   -0.4465   -0.1359 N   0  0  0  0  0  2  0  0  0  0  0  0
    1.2051    1.7962   -0.4056 C   0  0  0  0  0  0  0  0  0  0  0  0
   -3.0458   -1.2034   -0.0264 C   0  0  0  0  0  0  0  0  0  0  0  0
    3.0458   -1.2034   -0.0263 C   0  0  0  0  0  0  0  0  0  0  0  0
   -2.2803    0.8441   -0.2787 C   0  0  2  0  0  3  0  0  0  0  0  0
    3.6592    0.9564   -0.2866 N   0  0  0  0  0  0  0  0  0  0  0  0
   -1.2051    1.7962   -0.4056 C   0  0  0  0  0  0  0  0  0  0  0  0
   -4.1690   -0.3273   -0.1068 C   0  0  0  0  0  0  0  0  0  0  0  0
    2.2803    0.8441   -0.2787 C   0  0  0  0  0  0  0  0  0  0  0  0
   -3.2165   -2.5893    0.1349 C   0  0  0  0  0  0  0  0  0  0  0  0
   -2.3342   -3.2424    0.1674 H   0  0  0  0  0  0  0  0  0  0  0  0
   -5.4846   -0.8102   -0.0126 C   0  0  0  0  0  0  0  0  0  0  0  0
   -6.3568   -0.1425   -0.0620 H   0  0  0  0  0  0  0  0  0  0  0  0
   -5.6404   -2.1931    0.1550 C   0  0  0  0  0  0  0  0  0  0  0  0
   -6.6560   -2.6092    0.2336 H   0  0  0  0  0  0  0  0  0  0  0  0
   -4.5274   -3.0676    0.2257 C   0  0  0  0  0  0  0  0  0  0  0  0
   -4.7024   -4.1462    0.3529 H   0  0  0  0  0  0  0  0  0  0  0  0
    4.1690   -0.3273   -0.1068 C   0  0  0  0  0  0  0  0  0  0  0  0
    0.0000    3.8908   -0.6343 C   0  0  0  0  0  0  0  0  0  0  0  0
    0.0000    4.9840   -0.7450 H   0  0  0  0  0  0  0  0  0  0  0  0
   -1.2170    3.1944   -0.5537 C   0  0  0  0  0  0  0  0  0  0  0  0
   -2.1681    3.7394   -0.5898 H   0  0  0  0  0  0  0  0  0  0  0  0
    1.2170    3.1944   -0.5537 C   0  0  0  0  0  0  0  0  0  0  0  0
    2.1681    3.7394   -0.5899 H   0  0  0  0  0  0  0  0  0  0  0  0
    4.4507    2.1763   -0.3479 C   0  0  0  0  0  0  0  0  0  0  0  0
    3.9973    2.8463   -1.1061 H   0  0  0  0  0  0  0  0  0  0  0  0
    5.4461    1.8965   -0.7470 H   0  0  0  0  0  0  0  0  0  0  0  0
    3.2165   -2.5893    0.1350 C   0  0  0  0  0  0  0  0  0  0  0  0
    2.3342   -3.2424    0.1675 H   0  0  0  0  0  0  0  0  0  0  0  0
    5.4846   -0.8102   -0.0126 C   0  0  0  0  0  0  0  0  0  0  0  0
    6.3568   -0.1425   -0.0620 H   0  0  0  0  0  0  0  0  0  0  0  0
    4.5274   -3.0676    0.2258 C   0  0  0  0  0  0  0  0  0  0  0  0
    4.7023   -4.1462    0.3530 H   0  0  0  0  0  0  0  0  0  0  0  0
    4.5844    2.8730    1.0062 C   0  0  0  0  0  0  0  0  0  0  0  0
    3.5925    3.1641    1.4059 H   0  0  0  0  0  0  0  0  0  0  0  0
    5.2028    3.7878    0.9112 H   0  0  0  0  0  0  0  0  0  0  0  0
    5.0649    2.2029    1.7461 H   0  0  0  0  0  0  0  0  0  0  0  0
    5.6404   -2.1931    0.1550 C   0  0  0  0  0  0  0  0  0  0  0  0
    6.6560   -2.6092    0.2337 H   0  0  0  0  0  0  0  0  0  0  0  0
   -4.4507    2.1763   -0.3478 C   0  0  0  0  0  0  0  0  0  0  0  0
   -5.4461    1.8965   -0.7469 H   0  0  0  0  0  0  0  0  0  0  0  0
   -3.9973    2.8464   -1.1060 H   0  0  0  0  0  0  0  0  0  0  0  0
   -4.5844    2.8730    1.0063 C   0  0  0  0  0  0  0  0  0  0  0  0
   -5.0648    2.2029    1.7462 H   0  0  0  0  0  0  0  0  0  0  0  0
   -5.2028    3.7878    0.9113 H   0  0  0  0  0  0  0  0  0  0  0  0
   -3.5925    3.1641    1.4059 H   0  0  0  0  0  0  0  0  0  0  0  0
  1  6  1  0  0  0  0
  3  8  1  0  0  0  0
  3 11  1  0  0  0  0
  4  7  1  0  0  0  0
  5  2  1  0  0  0  0
  5 12  2  0  0  0  0
  6 13  1  0  0  0  0
  7 31  1  0  0  0  0
  8 10  1  6  0  0  0
  8  1  1  0  0  0  0
  9 12  1  0  0  0  0
  9 21  1  0  0  0  0
 10  2  1  0  0  0  0
 11  6  2  0  0  0  0
 11 15  1  0  0  0  0
 12  4  1  0  0  0  0
 13 14  1  0  0  0  0
 13 19  2  0  0  0  0
 15 17  2  0  0  0  0
 16 15  1  0  0  0  0
 17 19  1  0  0  0  0
 17 18  1  0  0  0  0
 19 20  1  0  0  0  0
 21  7  2  0  0  0  0
 21 33  1  0  0  0  0
 22 26  2  0  0  0  0
 22 24  1  0  0  0  0
 23 22  1  0  0  0  0
 24 10  2  0  0  0  0
 25 24  1  0  0  0  0
 26  5  1  0  0  0  0
 27 26  1  0  0  0  0
 28  9  1  0  0  0  0
 28 37  1  0  0  0  0
 29 28  1  0  0  0  0
 30 28  1  0  0  0  0
 31 32  1  0  0  0  0
 31 35  2  0  0  0  0
 33 41  2  0  0  0  0
 34 33  1  0  0  0  0
 35 36  1  0  0  0  0
 37 38  1  0  0  0  0
 37 40  1  0  0  0  0
 39 37  1  0  0  0  0
 41 35  1  0  0  0  0
 41 42  1  0  0  0  0
 43  3  1  0  0  0  0
 43 46  1  0  0  0  0
 44 43  1  0  0  0  0
 45 43  1  0  0  0  0
 46 49  1  0  0  0  0
 46 47  1  0  0  0  0
 48 46  1  0  0  0  0
M  END
