12,21,30
q = 0.0, confidence = 1.0

 49 53  0  0  1  0  0  0  0  0999 V2000
    1.3287    3.0615    0.3389 C   0  0  0  0  0  0  0  0  0  0  0  0
    1.7056    2.1575    1.3569 C   0  0  0  0  0  0  0  0  0  0  0  0
    0.9232    1.6790    1.9649 H   0  0  0  0  0  0  0  0  0  0  0  0
    3.0586    1.9006    1.6132 C   0  0  0  0  0  0  0  0  0  0  0  0
    3.3398    1.2169    2.4279 H   0  0  0  0  0  0  0  0  0  0  0  0
    4.0542    2.5303    0.8476 C   0  0  0  0  0  0  0  0  0  0  0  0
    5.1176    2.3375    1.0571 H   0  0  0  0  0  0  0  0  0  0  0  0
    3.6887    3.4256   -0.1719 C   0  0  0  0  0  0  0  0  0  0  0  0
    4.4637    3.9246   -0.7731 H   0  0  0  0  0  0  0  0  0  0  0  0
    2.3354    3.6962   -0.4197 C   0  0  0  0  0  0  0  0  0  0  0  0
    2.0563    4.3887   -1.2282 H   0  0  0  0  0  0  0  0  0  0  0  0
   -0.9534    2.2759    0.1749 N   0  0  0  0  0  2  0  0  0  0  0  0
   -0.1084    3.3248    0.0750 C   0  0  1  0  0  3  0  0  0  0  0  0
   -0.5850    4.6138   -0.2515 C   0  0  0  0  0  0  0  0  0  0  0  0
    0.1119    5.4619   -0.3016 H   0  0  0  0  0  0  0  0  0  0  0  0
   -1.9543    4.7959   -0.4741 C   0  0  0  0  0  0  0  0  0  0  0  0
   -2.3480    5.7895   -0.7345 H   0  0  0  0  0  0  0  0  0  0  0  0
   -2.8212    3.7011   -0.3585 C   0  0  0  0  0  0  0  0  0  0  0  0
   -3.8964    3.8182   -0.5501 H   0  0  0  0  0  0  0  0  0  0  0  0
   -2.2780    2.4450   -0.0274 C   0  0  0  0  0  0  0  0  0  0  0  0
   -2.5038    0.0398   -0.0583 N   0  0  0  0  0  2  0  0  0  0  0  0
   -3.1241    1.2239    0.1156 C   0  0  1  0  0  3  0  0  0  0  0  0
   -4.4933    1.2819    0.4436 C   0  0  0  0  0  0  0  0  0  0  0  0
   -4.9914    2.2474    0.6044 H   0  0  0  0  0  0  0  0  0  0  0  0
   -5.1996    0.0828    0.6012 C   0  0  0  0  0  0  0  0  0  0  0  0
   -6.2652    0.0998    0.8730 H   0  0  0  0  0  0  0  0  0  0  0  0
   -4.5320   -1.1381    0.4432 C   0  0  0  0  0  0  0  0  0  0  0  0
   -5.0607   -2.0873    0.6037 H   0  0  0  0  0  0  0  0  0  0  0  0
   -3.1616   -1.1238    0.1152 C   0  0  0  0  0  0  0  0  0  0  0  0
   -1.0256   -2.2446    0.1740 N   0  0  0  0  0  2  0  0  0  0  0  0
   -2.3550   -2.3713   -0.0280 C   0  0  2  0  0  3  0  0  0  0  0  0
   -2.9381   -3.6095   -0.3587 C   0  0  0  0  0  0  0  0  0  0  0  0
   -4.0166   -3.6922   -0.5503 H   0  0  0  0  0  0  0  0  0  0  0  0
   -2.1068   -4.7316   -0.4737 C   0  0  0  0  0  0  0  0  0  0  0  0
   -2.5322   -5.7122   -0.7336 H   0  0  0  0  0  0  0  0  0  0  0  0
   -0.7325   -4.5934   -0.2510 C   0  0  0  0  0  0  0  0  0  0  0  0
   -0.0632   -5.4635   -0.3004 H   0  0  0  0  0  0  0  0  0  0  0  0
   -0.2147   -3.3202    0.0747 C   0  0  0  0  0  0  0  0  0  0  0  0
    1.2302   -3.1031    0.3385 C   0  0  0  0  0  0  0  0  0  0  0  0
    1.6362   -2.2097    1.3545 C   0  0  0  0  0  0  0  0  0  0  0  0
    0.8696   -1.7047    1.9615 H   0  0  0  0  0  0  0  0  0  0  0  0
    2.9967   -1.9960    1.6103 C   0  0  0  0  0  0  0  0  0  0  0  0
    3.2999   -1.3198    2.4235 H   0  0  0  0  0  0  0  0  0  0  0  0
    3.9714   -2.6594    0.8463 C   0  0  0  0  0  0  0  0  0  0  0  0
    5.0405   -2.5009    1.0556 H   0  0  0  0  0  0  0  0  0  0  0  0
    3.5773   -3.5444   -0.1714 C   0  0  0  0  0  0  0  0  0  0  0  0
    4.3357   -4.0694   -0.7716 H   0  0  0  0  0  0  0  0  0  0  0  0
    2.2159   -3.7716   -0.4188 C   0  0  0  0  0  0  0  0  0  0  0  0
    1.9146   -4.4563   -1.2260 H   0  0  0  0  0  0  0  0  0  0  0  0
  1  2  1  0  0  0  0
  2  4  2  0  0  0  0
  2  3  1  0  0  0  0
  4  5  1  0  0  0  0
  6  7  1  0  0  0  0
  6  4  1  0  0  0  0
  8  6  2  0  0  0  0
  9  8  1  0  0  0  0
 10  8  1  0  0  0  0
 10  1  2  0  0  0  0
 11 10  1  0  0  0  0
 13 12  1  0  0  0  0
 13  1  1  1  0  0  0
 14 13  1  0  0  0  0
 15 14  1  0  0  0  0
 16 18  1  0  0  0  0
 16 14  2  0  0  0  0
 17 16  1  0  0  0  0
 18 20  2  0  0  0  0
 19 18  1  0  0  0  0
 20 12  1  0  0  0  0
 21 29  1  0  0  0  0
 21 22  1  0  0  0  0
 22 20  1  1  0  0  0
 22 23  1  0  0  0  0
 23 25  2  0  0  0  0
 23 24  1  0  0  0  0
 25 26  1  0  0  0  0
 27 25  1  0  0  0  0
 27 28  1  0  0  0  0
 29 27  2  0  0  0  0
 31 29  1  6  0  0  0
 31 30  1  0  0  0  0
 32 31  1  0  0  0  0
 33 32  1  0  0  0  0
 34 32  2  0  0  0  0
 34 36  1  0  0  0  0
 35 34  1  0  0  0  0
 36 38  2  0  0  0  0
 37 36  1  0  0  0  0
 38 30  1  0  0  0  0
 38 39  1  0  0  0  0
 39 40  1  0  0  0  0
 40 42  2  0  0  0  0
 40 41  1  0  0  0  0
 42 43  1  0  0  0  0
 44 45  1  0  0  0  0
 44 42  1  0  0  0  0
 46 44  2  0  0  0  0
 47 46  1  0  0  0  0
 48 46  1  0  0  0  0
 48 39  2  0  0  0  0
 49 48  1  0  0  0  0
M  END
