1,2,3
q = 0.0, confidence = 0.988

 44 46  0  0  1  0  0  0  0  0999 V2000
   -0.7689    0.9133   -1.1648 N   0  0  0  0  0  2  0  0  0  0  0  0
    0.6784   -1.3765   -0.6740 N   0  0  0  0  0  0  0  0  0  0  0  0
    2.8310   -0.0303    0.3477 N   0  0  0  0  0  2  0  0  0  0  0  0
   -1.5535    2.0079   -1.0453 C   0  0  0  0  0  3  0  0  0  0  0  0
   -1.0849    2.8734   -0.5529 H   0  0  0  0  0  0  0  0  0  0  0  0
   -2.8686    2.0072   -1.5214 C   0  0  0  0  0  0  0  0  0  0  0  0
   -3.4836    2.9101   -1.4044 H   0  0  0  0  0  0  0  0  0  0  0  0
   -3.3759    0.8472   -2.1208 C   0  0  0  0  0  0  0  0  0  0  0  0
   -4.4103    0.8177   -2.4935 H   0  0  0  0  0  0  0  0  0  0  0  0
   -2.5528   -0.2856   -2.2345 C   0  0  0  0  0  0  0  0  0  0  0  0
   -2.9255   -1.2137   -2.6898 H   0  0  0  0  0  0  0  0  0  0  0  0
   -1.2459   -0.2316   -1.7460 C   0  0  0  0  0  0  0  0  0  0  0  0
   -0.2625   -1.3817   -1.8457 C   0  0  0  0  0  0  0  0  0  0  0  0
    0.3553   -1.2405   -2.7566 H   0  0  0  0  0  0  0  0  0  0  0  0
   -0.7876   -2.3553   -1.9326 H   0  0  0  0  0  0  0  0  0  0  0  0
    2.0449   -1.9208   -0.9686 C   0  0  0  0  0  0  0  0  0  0  0  0
    2.3123   -1.6048   -1.9984 H   0  0  0  0  0  0  0  0  0  0  0  0
    2.0519   -3.0308   -0.9351 H   0  0  0  0  0  0  0  0  0  0  0  0
    3.0571   -1.3338   -0.0078 C   0  0  1  0  0  3  0  0  0  0  0  0
    4.1860   -2.0135    0.4543 C   0  0  0  0  0  0  0  0  0  0  0  0
    4.3475   -3.0625    0.1677 H   0  0  0  0  0  0  0  0  0  0  0  0
    5.1048   -1.3371    1.2748 C   0  0  0  0  0  0  0  0  0  0  0  0
    6.0014   -1.8557    1.6446 H   0  0  0  0  0  0  0  0  0  0  0  0
    4.8621   -0.0003    1.6165 C   0  0  0  0  0  0  0  0  0  0  0  0
    5.5575    0.5634    2.2538 H   0  0  0  0  0  0  0  0  0  0  0  0
    3.7059    0.6278    1.1409 C   0  0  0  0  0  0  0  0  0  0  0  0
    3.4443    1.6747    1.3608 H   0  0  0  0  0  0  0  0  0  0  0  0
    0.1015   -2.1028    0.5299 C   0  0  0  0  0  0  0  0  0  0  0  0
    0.1995   -3.1904    0.3358 H   0  0  0  0  0  0  0  0  0  0  0  0
    0.7451   -1.8403    1.3912 H   0  0  0  0  0  0  0  0  0  0  0  0
   -1.3379   -1.7646    0.8037 C   0  0  0  0  0  0  0  0  0  0  0  0
   -2.3650   -2.6683    0.4185 C   0  0  0  0  0  0  0  0  0  0  0  0
   -1.9825   -3.8275   -0.1764 O   0  0  0  0  0  0  0  0  0  0  0  0
   -2.7623   -4.3964   -0.3273 H   0  0  0  0  0  0  0  0  0  0  0  0
   -3.7218   -2.3394    0.6224 C   0  0  0  0  0  0  0  0  0  0  0  0
   -4.5065   -3.0581    0.3370 H   0  0  0  0  0  0  0  0  0  0  0  0
   -4.0715   -1.0968    1.1535 C   0  0  0  0  0  0  0  0  0  0  0  0
   -5.1190   -0.7968    1.2935 H   0  0  0  0  0  0  0  0  0  0  0  0
   -3.0518   -0.2008    1.5045 C   0  0  0  0  0  0  0  0  0  0  0  0
   -3.4066    1.1626    1.9575 N   0  0  0  0  0  0  0  0  0  0  0  0
   -4.5987    1.4102    2.1192 O   0  0  0  0  0  0  0  0  0  0  0  0
   -2.4797    1.9619    2.1040 O   0  0  0  0  0  0  0  0  0  0  0  0
   -1.7025   -0.5374    1.3752 C   0  0  0  0  0  0  0  0  0  0  0  0
   -0.9400    0.1961    1.6761 H   0  0  0  0  0  0  0  0  0  0  0  0
  1  4  1  0  0  0  0
  2 28  1  0  0  0  0
  3 26  1  0  0  0  0
  4  5  1  0  0  0  0
  6  7  1  0  0  0  0
  6  4  1  0  0  0  0
  8  6  2  0  0  0  0
  9  8  1  0  0  0  0
 10  8  1  0  0  0  0
 10 12  2  0  0  0  0
 11 10  1  0  0  0  0
 12  1  1  0  0  0  0
 13 12  1  0  0  0  0
 13  2  1  0  0  0  0
 14 13  1  0  0  0  0
 15 13  1  0  0  0  0
 16 18  1  0  0  0  0
 16  2  1  0  0  0  0
 17 16  1  0  0  0  0
 19 16  1  6  0  0  0
 19  3  1  0  0  0  0
 19 20  1  0  0  0  0
 20 22  2  0  0  0  0
 21 20  1  0  0  0  0
 22 24  1  0  0  0  0
 22 23  1  0  0  0  0
 24 25  1  0  0  0  0
 26 27  1  0  0  0  0
 26 24  2  0  0  0  0
 28 31  1  0  0  0  0
 28 30  1  0  0  0  0
 29 28  1  0  0  0  0
 31 43  1  0  0  0  0
 32 35  1  0  0  0  0
 32 31  2  0  0  0  0
 33 32  1  0  0  0  0
 34 33  1  0  0  0  0
 35 37  2  0  0  0  0
 36 35  1  0  0  0  0
 37 38  1  0  0  0  0
 37 39  1  0  0  0  0
 39 40  1  0  0  0  0
 40 42  2  0  0  0  0
 40 41  2  0  0  0  0
 43 39  2  0  0  0  0
 43 44  1  0  0  0  0
M  END
