1,3,13
q = 0.0, confidence = 0.984

 59 64  0  0  1  0  0  0  0  0999 V2000
    2.9309    0.0974   -0.6345 N   0  0  0  0  0  2  0  0  0  0  0  0
    3.0135   -2.2940   -0.8639 C   0  0  1  0  0  3  0  0  0  0  0  0
    4.5328    2.2084   -0.2072 N   0  0  0  0  0  2  0  0  0  0  0  0
    2.3216    1.2898   -0.5338 C   0  0  0  0  0  0  0  0  0  0  0  0
    0.8112   -1.0109   -0.7294 C   0  0  0  0  0  0  0  0  0  0  0  0
    0.2345   -1.9407   -0.8181 H   0  0  0  0  0  0  0  0  0  0  0  0
   -7.9971   -0.2637    0.0803 C   0  0  0  0  0  0  0  0  0  0  0  0
   -2.1037   -0.7482    0.0259 C   0  0  0  0  0  0  0  0  0  0  0  0
   -1.5864   -1.5953    0.5008 H   0  0  0  0  0  0  0  0  0  0  0  0
  -10.8328   -0.1516    0.1725 C   0  0  0  0  0  0  0  0  0  0  0  0
    3.2757   -4.6460   -1.3758 C   0  0  0  0  0  0  0  0  0  0  0  0
    2.8515   -5.6147   -1.6798 H   0  0  0  0  0  0  0  0  0  0  0  0
    4.3355   -2.1899   -0.6121 N   0  0  0  0  0  2  0  0  0  0  0  0
   -1.3437    0.2850   -0.5748 C   0  0  0  0  0  0  0  0  0  0  0  0
   -4.2048    0.4004   -0.4958 C   0  0  0  0  0  0  0  0  0  0  0  0
   -6.5415   -0.3715    0.0645 C   0  0  0  0  0  0  0  0  0  0  0  0
   -6.1445   -1.2743    0.5592 H   0  0  0  0  0  0  0  0  0  0  0  0
    2.2167   -1.0352   -0.7362 C   0  0  0  0  0  0  0  0  0  0  0  0
  -12.2472   -0.0714    0.2157 N   0  0  0  0  0  0  0  0  0  0  0  0
   -8.7115    0.8121   -0.5071 C   0  0  0  0  0  0  0  0  0  0  0  0
   -8.1657    1.6240   -1.0094 H   0  0  0  0  0  0  0  0  0  0  0  0
  -12.9203    0.8518   -0.5203 N   0  0  0  0  0  0  0  0  0  0  0  0
    2.4459   -3.5238   -1.2519 C   0  0  0  0  0  0  0  0  0  0  0  0
    1.3732   -3.6036   -1.4747 H   0  0  0  0  0  0  0  0  0  0  0  0
    3.2288    2.4740   -0.4327 C   0  0  0  0  0  0  0  0  0  0  0  0
    2.7773    3.7993   -0.5897 C   0  0  0  0  0  0  0  0  0  0  0  0
    1.7187    4.0130   -0.7906 H   0  0  0  0  0  0  0  0  0  0  0  0
    0.1336    0.2220   -0.6122 C   0  0  0  0  0  0  0  0  0  0  0  0
   -5.6604    0.5119   -0.4834 C   0  0  0  0  0  0  0  0  0  0  0  0
   -6.0552    1.4176   -0.9742 H   0  0  0  0  0  0  0  0  0  0  0  0
  -10.1028    0.8735   -0.4641 C   0  0  0  0  0  0  0  0  0  0  0  0
  -10.6576    1.7045   -0.9187 H   0  0  0  0  0  0  0  0  0  0  0  0
   -3.4387    1.4292   -1.0992 C   0  0  0  0  0  0  0  0  0  0  0  0
   -3.9613    2.2844   -1.5554 H   0  0  0  0  0  0  0  0  0  0  0  0
    5.1353   -3.2558   -0.7405 C   0  0  0  0  0  0  0  0  0  0  0  0
    6.2056   -3.0759   -0.5369 H   0  0  0  0  0  0  0  0  0  0  0  0
    0.9193    1.3911   -0.5212 C   0  0  0  0  0  0  0  0  0  0  0  0
    0.4300    2.3645   -0.3860 H   0  0  0  0  0  0  0  0  0  0  0  0
   -8.7571   -1.2810    0.7085 C   0  0  0  0  0  0  0  0  0  0  0  0
   -8.2329   -2.1341    1.1663 H   0  0  0  0  0  0  0  0  0  0  0  0
   -3.4956   -0.6910    0.0688 C   0  0  0  0  0  0  0  0  0  0  0  0
   -4.0452   -1.5074    0.5596 H   0  0  0  0  0  0  0  0  0  0  0  0
    3.7044    4.8468   -0.5101 C   0  0  0  0  0  0  0  0  0  0  0  0
    3.3714    5.8886   -0.6311 H   0  0  0  0  0  0  0  0  0  0  0  0
   -2.0440    1.3774   -1.1341 C   0  0  0  0  0  0  0  0  0  0  0  0
   -1.4866    2.1841   -1.6335 H   0  0  0  0  0  0  0  0  0  0  0  0
  -13.1469   -0.8134    0.9426 C   0  0  0  0  0  0  0  0  0  0  0  0
  -12.8518   -1.6123    1.6326 H   0  0  0  0  0  0  0  0  0  0  0  0
  -14.3820   -0.4039    0.6978 N   0  0  0  0  0  0  0  0  0  0  0  0
    4.6479   -4.5159   -1.1203 C   0  0  0  0  0  0  0  0  0  0  0  0
    5.3333   -5.3702   -1.2147 H   0  0  0  0  0  0  0  0  0  0  0  0
  -14.1894    0.6108   -0.1996 C   0  0  0  0  0  0  0  0  0  0  0  0
  -15.0101    1.1951   -0.6357 H   0  0  0  0  0  0  0  0  0  0  0  0
    5.0563    4.5505   -0.2870 C   0  0  0  0  0  0  0  0  0  0  0  0
    5.8156    5.3431   -0.2267 H   0  0  0  0  0  0  0  0  0  0  0  0
    5.4255    3.2041   -0.1437 C   0  0  0  0  0  0  0  0  0  0  0  0
    6.4730    2.8956    0.0199 H   0  0  0  0  0  0  0  0  0  0  0  0
  -10.1525   -1.2372    0.7552 C   0  0  0  0  0  0  0  0  0  0  0  0
  -10.7040   -2.0571    1.2351 H   0  0  0  0  0  0  0  0  0  0  0  0
  1  4  1  0  0  0  0
  2 18  1  6  0  0  0
  2 13  1  0  0  0  0
  3 56  1  0  0  0  0
  4 37  1  0  0  0  0
  4 25  2  0  0  0  0
  5 28  1  0  0  0  0
  6  5  1  0  0  0  0
  7 39  1  0  0  0  0
  8 41  1  0  0  0  0
  8  9  1  0  0  0  0
 10 19  1  0  0  0  0
 10 58  1  0  0  0  0
 11 23  2  0  0  0  0
 11 50  1  0  0  0  0
 12 11  1  0  0  0  0
 14  8  2  0  0  0  0
 15 29  1  0  0  0  0
 15 41  2  0  0  0  0
 16  7  1  0  0  0  0
 16 17  1  0  0  0  0
 18  5  2  0  0  0  0
 18  1  1  0  0  0  0
 19 47  1  0  0  0  0
 20 31  1  0  0  0  0
 20  7  2  0  0  0  0
 21 20  1  0  0  0  0
 22 52  2  0  0  0  0
 22 19  1  0  0  0  0
 23  2  1  0  0  0  0
 24 23  1  0  0  0  0
 25  3  1  0  0  0  0
 26 43  2  0  0  0  0
 26 25  1  0  0  0  0
 27 26  1  0  0  0  0
 28 14  1  0  0  0  0
 28 37  2  0  0  0  0
 29 16  2  0  0  0  0
 30 29  1  0  0  0  0
 31 10  2  0  0  0  0
 32 31  1  0  0  0  0
 33 15  1  0  0  0  0
 34 33  1  0  0  0  0
 35 13  1  0  0  0  0
 35 36  1  0  0  0  0
 37 38  1  0  0  0  0
 39 58  2  0  0  0  0
 39 40  1  0  0  0  0
 41 42  1  0  0  0  0
 43 54  1  0  0  0  0
 44 43  1  0  0  0  0
 45 33  2  0  0  0  0
 45 14  1  0  0  0  0
 46 45  1  0  0  0  0
 47 48  1  0  0  0  0
 49 47  2  0  0  0  0
 50 35  2  0  0  0  0
 51 50  1  0  0  0  0
 52 49  1  0  0  0  0
 53 52  1  0  0  0  0
 54 55  1  0  0  0  0
 54 56  2  0  0  0  0
 56 57  1  0  0  0  0
 58 59  1  0  0  0  0
M  END
