1,2,3
q = 0.0, confidence = 0.996

 32 33  0  0  1  0  0  0  0  0999 V2000
   -1.7677    0.5493    0.2990 N   0  0  0  0  0  2  0  0  0  0  0  0
   -0.4219   -1.4694    0.7939 N   0  0  0  0  0  2  0  0  0  0  0  0
    1.9001   -0.2033   -0.2213 N   0  0  0  0  0  2  0  0  0  0  0  0
   -2.3355    1.7282   -0.0137 C   0  0  0  0  0  3  0  0  0  0  0  0
   -1.6303    2.5356   -0.2637 H   0  0  0  0  0  0  0  0  0  0  0  0
   -3.7233    1.8871    0.0013 C   0  0  0  0  0  0  0  0  0  0  0  0
   -4.1586    2.8656   -0.2431 H   0  0  0  0  0  0  0  0  0  0  0  0
   -4.5345    0.7809    0.3242 C   0  0  0  0  0  0  0  0  0  0  0  0
   -5.6301    0.8772    0.3306 H   0  0  0  0  0  0  0  0  0  0  0  0
   -3.9376   -0.4438    0.6286 C   0  0  0  0  0  0  0  0  0  0  0  0
   -4.5500   -1.3238    0.8675 H   0  0  0  0  0  0  0  0  0  0  0  0
   -2.5313   -0.5486    0.6140 C   0  0  0  0  0  0  0  0  0  0  0  0
   -1.7220   -1.7118    0.9080 C   0  0  1  0  0  3  0  0  0  0  0  0
    0.5738   -2.4847    1.0615 C   0  0  0  0  0  0  0  0  0  0  0  0
    0.7736   -3.0562    0.1258 H   0  0  0  0  0  0  0  0  0  0  0  0
    0.1976   -3.2099    1.8129 H   0  0  0  0  0  0  0  0  0  0  0  0
    1.8622   -1.8450    1.5916 C   0  0  0  0  0  0  0  0  0  0  0  0
    1.5977   -1.1482    2.4168 H   0  0  0  0  0  0  0  0  0  0  0  0
    2.5255   -2.6291    2.0045 H   0  0  0  0  0  0  0  0  0  0  0  0
    2.6077   -1.0700    0.5439 C   0  0  1  0  0  3  0  0  0  0  0  0
    3.9899   -1.2233    0.3455 C   0  0  0  0  0  0  0  0  0  0  0  0
    4.5433   -1.9318    0.9783 H   0  0  0  0  0  0  0  0  0  0  0  0
    4.6422   -0.4721   -0.6391 C   0  0  0  0  0  0  0  0  0  0  0  0
    5.7258   -0.5801   -0.7961 H   0  0  0  0  0  0  0  0  0  0  0  0
    3.8878    0.4129   -1.4210 C   0  0  0  0  0  0  0  0  0  0  0  0
    4.3476    1.0200   -2.2131 H   0  0  0  0  0  0  0  0  0  0  0  0
    2.5162    0.5225   -1.1847 C   0  0  0  0  0  0  0  0  0  0  0  0
    1.8575    1.1776   -1.7734 H   0  0  0  0  0  0  0  0  0  0  0  0
   -2.2921   -3.0460    1.2781 C   0  0  0  0  0  0  0  0  0  0  0  0
   -1.8861   -3.4153    2.2431 H   0  0  0  0  0  0  0  0  0  0  0  0
   -2.0484   -3.8041    0.5042 H   0  0  0  0  0  0  0  0  0  0  0  0
   -3.3911   -3.0053    1.3750 H   0  0  0  0  0  0  0  0  0  0  0  0
  1 12  1  0  0  0  0
  2 14  1  0  0  0  0
  3 20  1  0  0  0  0
  4  6  1  0  0  0  0
  4  1  1  0  0  0  0
  5  4  1  0  0  0  0
  6  8  2  0  0  0  0
  7  6  1  0  0  0  0
  8  9  1  0  0  0  0
  8 10  1  0  0  0  0
 10 11  1  0  0  0  0
 12 10  2  0  0  0  0
 12 13  1  0  0  0  0
 13  2  1  6  0  0  0
 13 29  1  0  0  0  0
 14 17  1  0  0  0  0
 14 16  1  0  0  0  0
 15 14  1  0  0  0  0
 17 19  1  0  0  0  0
 17 18  1  0  0  0  0
 20 17  1  6  0  0  0
 21 20  1  0  0  0  0
 21 22  1  0  0  0  0
 23 21  2  0  0  0  0
 24 23  1  0  0  0  0
 25 27  2  0  0  0  0
 25 23  1  0  0  0  0
 26 25  1  0  0  0  0
 27  3  1  0  0  0  0
 28 27  1  0  0  0  0
 29 32  1  0  0  0  0
 29 30  1  0  0  0  0
 31 29  1  0  0  0  0
M  END
