1,2,3
q = 0.0, confidence = 0.99

 40 42  0  0  1  0  0  0  0  0999 V2000
    1.0958   -1.8416    0.4150 N   0  0  0  0  0  2  0  0  0  0  0  0
   -1.4364   -1.6776    0.1658 N   0  0  0  0  0  2  0  0  0  0  0  0
    2.0357   -0.4285   -1.4851 N   0  0  0  0  0  2  0  0  0  0  0  0
    2.9606   -0.9879   -0.6020 N   0  0  1  0  0  0  0  0  0  0  0  0
    2.4557   -1.8232    0.4062 C   0  0  2  0  0  3  0  0  0  0  0  0
    3.1876   -2.6006    1.3121 C   0  0  0  0  0  0  0  0  0  0  0  0
    4.2802   -2.5842    1.3210 H   0  0  0  0  0  0  0  0  0  0  0  0
    2.4854   -3.4267    2.2140 C   0  0  0  0  0  0  0  0  0  0  0  0
    3.0516   -4.0442    2.9253 H   0  0  0  0  0  0  0  0  0  0  0  0
    1.0892   -3.4721    2.1956 C   0  0  0  0  0  0  0  0  0  0  0  0
    0.5248   -4.1216    2.8789 H   0  0  0  0  0  0  0  0  0  0  0  0
    0.4000   -2.6593    1.2761 C   0  0  0  0  0  0  0  0  0  0  0  0
   -1.0188   -2.5279    1.0979 C   0  0  0  0  0  3  0  0  0  0  0  0
   -1.7364   -3.1165    1.6918 H   0  0  0  0  0  0  0  0  0  0  0  0
    4.2535   -0.7061   -1.0105 C   0  0  1  0  0  3  0  0  0  0  0  0
    4.1329    0.0127   -2.1899 C   0  0  0  0  0  0  0  0  0  0  0  0
    4.9605    0.3981   -2.7942 H   0  0  0  0  0  0  0  0  0  0  0  0
    2.7432    0.1491   -2.4679 C   0  0  0  0  0  0  0  0  0  0  0  0
    5.4901   -1.1053   -0.2788 C   0  0  0  0  0  0  0  0  0  0  0  0
    5.6523   -2.2034   -0.2865 H   0  0  0  0  0  0  0  0  0  0  0  0
    5.4726   -0.7696    0.7786 H   0  0  0  0  0  0  0  0  0  0  0  0
    6.3627   -0.6381   -0.7709 H   0  0  0  0  0  0  0  0  0  0  0  0
    2.1018    0.7601   -3.6652 C   0  0  0  0  0  0  0  0  0  0  0  0
    2.4983    0.2787   -4.5822 H   0  0  0  0  0  0  0  0  0  0  0  0
    2.3272    1.8437   -3.7316 H   0  0  0  0  0  0  0  0  0  0  0  0
    1.0044    0.6134   -3.6319 H   0  0  0  0  0  0  0  0  0  0  0  0
   -2.8333   -1.5055   -0.0041 C   0  0  0  0  0  0  0  0  0  0  0  0
   -3.3833   -1.5682   -1.3014 C   0  0  0  0  0  0  0  0  0  0  0  0
   -2.7127   -1.7696   -2.1472 H   0  0  0  0  0  0  0  0  0  0  0  0
   -4.7597   -1.3939   -1.4693 C   0  0  0  0  0  0  0  0  0  0  0  0
   -5.1835   -1.4527   -2.4844 H   0  0  0  0  0  0  0  0  0  0  0  0
   -5.6163   -1.1401   -0.3750 C   0  0  0  0  0  0  0  0  0  0  0  0
   -5.0468   -1.0869    0.9130 C   0  0  0  0  0  0  0  0  0  0  0  0
   -5.6885   -0.8736    1.7823 H   0  0  0  0  0  0  0  0  0  0  0  0
   -3.6726   -1.2700    1.1031 C   0  0  0  0  0  0  0  0  0  0  0  0
   -3.2330   -1.1703    2.1068 H   0  0  0  0  0  0  0  0  0  0  0  0
   -7.0897   -0.9043   -0.5891 C   0  0  0  0  0  0  0  0  0  0  0  0
   -7.2727    0.0940   -1.0423 H   0  0  0  0  0  0  0  0  0  0  0  0
   -7.6549   -0.9462    0.3622 H   0  0  0  0  0  0  0  0  0  0  0  0
   -7.5244   -1.6526   -1.2826 H   0  0  0  0  0  0  0  0  0  0  0  0
  1 12  1  0  0  0  0
  2 13  1  0  0  0  0
  4  3  1  6  0  0  0
  4  5  1  0  0  0  0
  5  1  1  6  0  0  0
  5  6  1  0  0  0  0
  6  7  1  0  0  0  0
  6  8  2  0  0  0  0
  8  9  1  0  0  0  0
 10  8  1  0  0  0  0
 10 11  1  0  0  0  0
 12 10  2  0  0  0  0
 13 12  1  0  0  0  0
 13 14  1  0  0  0  0
 15  4  1  0  0  0  0
 15 19  1  1  0  0  0
 16 15  1  0  0  0  0
 17 16  1  0  0  0  0
 18 16  2  0  0  0  0
 18  3  1  0  0  0  0
 19 21  1  0  0  0  0
 20 19  1  0  0  0  0
 22 19  1  0  0  0  0
 23 26  1  0  0  0  0
 23 18  1  0  0  0  0
 24 23  1  0  0  0  0
 25 23  1  0  0  0  0
 27  2  1  0  0  0  0
 27 35  1  0  0  0  0
 28 27  2  0  0  0  0
 29 28  1  0  0  0  0
 30 28  1  0  0  0  0
 30 32  2  0  0  0  0
 31 30  1  0  0  0  0
 32 33  1  0  0  0  0
 33 35  2  0  0  0  0
 33 34  1  0  0  0  0
 35 36  1  0  0  0  0
 37 32  1  0  0  0  0
 37 39  1  0  0  0  0
 38 37  1  0  0  0  0
 40 37  1  0  0  0  0
M  END
