3,4,5
q = -1.0

 55 57  0  0  1  0  0  0  0  0999 V2000
   -3.5587    2.5344    1.0641 O   0  0  0  0  0  0  0  0  0  0  0  0
    3.9198   -0.0292    0.4522 O   0  0  0  0  0  0  0  0  0  0  0  0
   -1.8817    1.2768    0.2217 N   0  0  0  0  0  2  0  0  0  0  0  0
    0.0237    0.4801    2.0436 N   0  0  0  0  0  2  0  0  0  0  0  0
    1.8147    0.6535    0.0178 N   0  0  0  0  0  2  0  0  0  0  0  0
   -2.7960    1.5297   -0.9229 C   0  0  2  0  0  0  0  0  0  0  0  0
   -2.1939    1.7997   -1.8107 H   0  0  0  0  0  0  0  0  0  0  0  0
   -3.5943    2.7210   -0.3738 C   0  0  0  0  0  0  0  0  0  0  0  0
   -3.1102    3.6945   -0.6068 H   0  0  0  0  0  0  0  0  0  0  0  0
   -4.6530    2.7552   -0.6869 H   0  0  0  0  0  0  0  0  0  0  0  0
   -2.4623    1.7737    1.3022 C   0  0  2  0  0  3  0  0  0  0  0  0
   -2.0801    1.5459    2.6513 C   0  0  0  0  0  0  0  0  0  0  0  0
   -2.7420    1.9168    3.4429 H   0  0  0  0  0  0  0  0  0  0  0  0
   -0.9284    0.8585    2.9620 C   0  0  0  0  0  0  0  0  0  0  0  0
   -0.4947    0.4665    4.3588 C   0  0  0  0  0  0  0  0  0  0  0  0
   -1.3333    0.0755    4.9659 H   0  0  0  0  0  0  0  0  0  0  0  0
   -0.0957    1.3619    4.8838 H   0  0  0  0  0  0  0  0  0  0  0  0
    0.6235   -0.5522    4.0859 C   0  0  0  0  0  0  0  0  0  0  0  0
    1.4683   -0.5124    4.7991 H   0  0  0  0  0  0  0  0  0  0  0  0
    0.2221   -1.5898    4.0994 H   0  0  0  0  0  0  0  0  0  0  0  0
    1.0363   -0.2088    2.6721 C   0  0  2  0  0  3  0  0  0  0  0  0
    2.2632   -0.5074    2.1140 C   0  0  0  0  0  0  0  0  0  0  0  0
    3.0238   -1.0443    2.6928 H   0  0  0  0  0  0  0  0  0  0  0  0
    2.6251    0.0263    0.8491 C   0  0  0  0  0  0  0  0  0  0  0  0
    3.9441    0.5122   -0.8937 C   0  0  0  0  0  0  0  0  0  0  0  0
    3.9501   -0.3387   -1.6085 H   0  0  0  0  0  0  0  0  0  0  0  0
    4.8728    1.1004   -1.0098 H   0  0  0  0  0  0  0  0  0  0  0  0
    2.6431    1.3272   -1.0051 C   0  0  2  0  0  0  0  0  0  0  0  0
    2.1992    1.2016   -2.0098 H   0  0  0  0  0  0  0  0  0  0  0  0
    2.7714    2.8636   -0.7461 C   0  0  0  0  0  0  0  0  0  0  0  0
    3.4185    3.1479    0.6203 C   0  0  0  0  0  0  0  0  0  0  0  0
    2.8021    2.7348    1.4441 H   0  0  0  0  0  0  0  0  0  0  0  0
    3.5038    4.2417    0.7829 H   0  0  0  0  0  0  0  0  0  0  0  0
    4.4369    2.7172    0.7042 H   0  0  0  0  0  0  0  0  0  0  0  0
    1.3697    3.4988   -0.7874 C   0  0  0  0  0  0  0  0  0  0  0  0
    0.8472    3.2589   -1.7342 H   0  0  0  0  0  0  0  0  0  0  0  0
    1.4466    4.6013   -0.6897 H   0  0  0  0  0  0  0  0  0  0  0  0
    0.7361    3.1211    0.0420 H   0  0  0  0  0  0  0  0  0  0  0  0
    3.6244    3.4662   -1.8773 C   0  0  0  0  0  0  0  0  0  0  0  0
    4.6598    3.0674   -1.8834 H   0  0  0  0  0  0  0  0  0  0  0  0
    3.6982    4.5662   -1.7590 H   0  0  0  0  0  0  0  0  0  0  0  0
    3.1735    3.2624   -2.8704 H   0  0  0  0  0  0  0  0  0  0  0  0
   -3.6934    0.2960   -1.2933 C   0  0  0  0  0  0  0  0  0  0  0  0
   -4.5261   -0.1771   -0.0873 C   0  0  0  0  0  0  0  0  0  0  0  0
   -3.8694   -0.5246    0.7358 H   0  0  0  0  0  0  0  0  0  0  0  0
   -5.1671   -1.0320   -0.3842 H   0  0  0  0  0  0  0  0  0  0  0  0
   -5.1881    0.6155    0.3148 H   0  0  0  0  0  0  0  0  0  0  0  0
   -4.6278    0.7129   -2.4463 C   0  0  0  0  0  0  0  0  0  0  0  0
   -5.3671    1.4838   -2.1465 H   0  0  0  0  0  0  0  0  0  0  0  0
   -5.2022   -0.1660   -2.8030 H   0  0  0  0  0  0  0  0  0  0  0  0
   -4.0492    1.1059   -3.3078 H   0  0  0  0  0  0  0  0  0  0  0  0
   -2.8212   -0.8707   -1.7788 C   0  0  0  0  0  0  0  0  0  0  0  0
   -2.3001   -0.6215   -2.7237 H   0  0  0  0  0  0  0  0  0  0  0  0
   -3.4572   -1.7596   -1.9714 H   0  0  0  0  0  0  0  0  0  0  0  0
   -2.0572   -1.1454   -1.0277 H   0  0  0  0  0  0  0  0  0  0  0  0
  1 11  1  0  0  0  0
  2 24  1  0  0  0  0
  3 11  1  0  0  0  0
  4 21  1  0  0  0  0
  4 14  1  0  0  0  0
  5 24  1  0  0  0  0
  6  7  1  6  0  0  0
  6  8  1  0  0  0  0
  6  3  1  0  0  0  0
  8  1  1  0  0  0  0
  9  8  1  0  0  0  0
 10  8  1  0  0  0  0
 11 12  1  1  0  0  0
 12 14  2  0  0  0  0
 12 13  1  0  0  0  0
 14 15  1  0  0  0  0
 15 17  1  0  0  0  0
 15 16  1  0  0  0  0
 18 20  1  0  0  0  0
 18 15  1  0  0  0  0
 18 19  1  0  0  0  0
 21 22  1  1  0  0  0
 21 18  1  0  0  0  0
 22 23  1  0  0  0  0
 24 22  2  0  0  0  0
 25  2  1  0  0  0  0
 26 25  1  0  0  0  0
 27 25  1  0  0  0  0
 28 29  1  6  0  0  0
 28 25  1  0  0  0  0
 28 30  1  0  0  0  0
 28  5  1  0  0  0  0
 30 31  1  0  0  0  0
 31 34  1  0  0  0  0
 31 33  1  0  0  0  0
 31 32  1  0  0  0  0
 35 30  1  0  0  0  0
 35 37  1  0  0  0  0
 35 38  1  0  0  0  0
 36 35  1  0  0  0  0
 39 41  1  0  0  0  0
 39 30  1  0  0  0  0
 40 39  1  0  0  0  0
 42 39  1  0  0  0  0
 43  6  1  0  0  0  0
 43 44  1  0  0  0  0
 44 47  1  0  0  0  0
 44 45  1  0  0  0  0
 46 44  1  0  0  0  0
 48 49  1  0  0  0  0
 48 43  1  0  0  0  0
 50 48  1  0  0  0  0
 51 48  1  0  0  0  0
 52 43  1  0  0  0  0
 52 55  1  0  0  0  0
 53 52  1  0  0  0  0
 54 52  1  0  0  0  0
M  END
