1,4,5
q = -2.0, confidence = 0.988

 35 37  0  0  1  0  0  0  0  0999 V2000
    0.0001   -1.8597    0.0005 N   0  0  0  0  0  2  0  0  0  0  0  0
   -2.9138   -2.0074    1.9921 O   0  0  0  0  0  0  0  0  0  0  0  0
    2.9141   -2.0078   -1.9909 O   0  0  0  0  0  0  0  0  0  0  0  0
   -1.4454   -0.2967    1.3293 N   0  0  0  0  0  2  0  0  0  0  0  0
    1.4451   -0.2971   -1.3295 N   0  0  0  0  0  2  0  0  0  0  0  0
   -0.9734   -2.5041    0.6656 C   0  0  2  0  0  3  0  0  0  0  0  0
   -1.9188   -1.5862    1.3888 C   0  0  0  0  0  0  0  0  0  0  0  0
    0.9735   -2.5042   -0.6647 C   0  0  0  0  0  0  0  0  0  0  0  0
    1.9189   -1.5865   -1.3881 C   0  0  0  0  0  0  0  0  0  0  0  0
    2.1660    0.7462   -1.9169 C   0  0  0  0  0  0  0  0  0  0  0  0
    1.0158   -3.9028   -0.6698 C   0  0  0  0  0  0  0  0  0  0  0  0
    1.8378   -4.3938   -1.2093 H   0  0  0  0  0  0  0  0  0  0  0  0
   -1.0157   -3.9027    0.6710 C   0  0  0  0  0  0  0  0  0  0  0  0
   -1.8377   -4.3936    1.2106 H   0  0  0  0  0  0  0  0  0  0  0  0
   -2.1661    0.7467    1.9168 C   0  0  0  0  0  0  0  0  0  0  0  0
    3.5529    2.9782   -3.0228 N   0  0  0  0  0  0  0  0  0  0  0  0
    0.0001   -4.6058    0.0007 C   0  0  0  0  0  0  0  0  0  0  0  0
    0.0001   -5.7063    0.0008 H   0  0  0  0  0  0  0  0  0  0  0  0
    3.5652    0.8940   -1.7704 C   0  0  0  0  0  0  0  0  0  0  0  0
    4.1432    0.1376   -1.2244 H   0  0  0  0  0  0  0  0  0  0  0  0
    1.4959    1.7401   -2.6666 C   0  0  0  0  0  0  0  0  0  0  0  0
    0.4168    1.6449   -2.8463 H   0  0  0  0  0  0  0  0  0  0  0  0
    2.2260    2.8190   -3.1782 C   0  0  0  0  0  0  0  0  0  0  0  0
    1.7014    3.6036   -3.7547 H   0  0  0  0  0  0  0  0  0  0  0  0
    4.1899    2.0136   -2.3345 C   0  0  0  0  0  0  0  0  0  0  0  0
    5.2817    2.1409   -2.2125 H   0  0  0  0  0  0  0  0  0  0  0  0
   -3.5653    0.8943    1.7707 C   0  0  0  0  0  0  0  0  0  0  0  0
   -4.1434    0.1377    1.2249 H   0  0  0  0  0  0  0  0  0  0  0  0
   -3.5528    2.9787    3.0227 N   0  0  0  0  0  0  0  0  0  0  0  0
   -1.4958    1.7407    2.6662 C   0  0  0  0  0  0  0  0  0  0  0  0
   -0.4167    1.6456    2.8456 H   0  0  0  0  0  0  0  0  0  0  0  0
   -4.1900    2.0139    2.3348 C   0  0  0  0  0  0  0  0  0  0  0  0
   -5.2818    2.1411    2.2131 H   0  0  0  0  0  0  0  0  0  0  0  0
   -2.2259    2.8196    3.1778 C   0  0  0  0  0  0  0  0  0  0  0  0
   -1.7012    3.6044    3.7540 H   0  0  0  0  0  0  0  0  0  0  0  0
  1  6  1  0  0  0  0
  3  9  2  0  0  0  0
  4  7  1  0  0  0  0
  4 15  1  0  0  0  0
  6 13  1  0  0  0  0
  6  7  1  1  0  0  0
  7  2  2  0  0  0  0
  8  1  1  0  0  0  0
  9  5  1  0  0  0  0
  9  8  1  0  0  0  0
 10 19  1  0  0  0  0
 10  5  1  0  0  0  0
 11  8  2  0  0  0  0
 11 17  1  0  0  0  0
 12 11  1  0  0  0  0
 13 14  1  0  0  0  0
 15 30  1  0  0  0  0
 16 25  1  0  0  0  0
 17 18  1  0  0  0  0
 17 13  2  0  0  0  0
 19 20  1  0  0  0  0
 21 10  2  0  0  0  0
 22 21  1  0  0  0  0
 23 16  2  0  0  0  0
 23 21  1  0  0  0  0
 24 23  1  0  0  0  0
 25 26  1  0  0  0  0
 25 19  2  0  0  0  0
 27 15  2  0  0  0  0
 27 32  1  0  0  0  0
 28 27  1  0  0  0  0
 29 34  1  0  0  0  0
 30 31  1  0  0  0  0
 30 34  2  0  0  0  0
 32 29  2  0  0  0  0
 33 32  1  0  0  0  0
 34 35  1  0  0  0  0
M  END
