1,2,3
q = -1.0

 24 25  0  0  0  0  0  0  0  0999 V2000
   -0.4703    1.9598    0.1341 N   0  0  0  0  0  2  0  0  0  0  0  0
   -0.0574    0.5507   -2.0616 N   0  0  0  0  0  2  0  0  0  0  0  0
    0.4525   -1.8130   -1.0764 N   0  0  0  0  0  0  0  0  0  0  0  0
   -0.6170    2.6214    1.3117 C   0  0  0  0  0  3  0  0  0  0  0  0
   -0.4718    2.0199    2.2212 H   0  0  0  0  0  0  0  0  0  0  0  0
   -0.9262    3.9811    1.3902 C   0  0  0  0  0  0  0  0  0  0  0  0
   -1.0293    4.4575    2.3753 H   0  0  0  0  0  0  0  0  0  0  0  0
   -1.0977    4.7076    0.2032 C   0  0  0  0  0  0  0  0  0  0  0  0
   -1.3400    5.7798    0.2252 H   0  0  0  0  0  0  0  0  0  0  0  0
   -0.9544    4.0320   -1.0170 C   0  0  0  0  0  0  0  0  0  0  0  0
   -1.0840    4.5625   -1.9720 H   0  0  0  0  0  0  0  0  0  0  0  0
   -0.6467    2.6659   -1.0325 C   0  0  0  0  0  0  0  0  0  0  0  0
   -0.5089    1.9003   -2.3358 C   0  0  0  0  0  0  0  0  0  0  0  0
   -1.5025    1.8906   -2.8437 H   0  0  0  0  0  0  0  0  0  0  0  0
    0.1801    2.4430   -3.0235 H   0  0  0  0  0  0  0  0  0  0  0  0
    0.2738   -0.3562   -2.9676 C   0  0  0  0  0  3  0  0  0  0  0  0
    0.2901   -0.1203   -4.0465 H   0  0  0  0  0  0  0  0  0  0  0  0
    0.5720   -1.6529   -2.4667 C   0  0  0  0  0  0  0  0  0  0  0  0
    0.9229   -2.8984   -3.0536 C   0  0  0  0  0  0  0  0  0  0  0  0
    1.0861   -3.0903   -4.1205 H   0  0  0  0  0  0  0  0  0  0  0  0
    1.0177   -3.8190   -1.9975 C   0  0  0  0  0  0  0  0  0  0  0  0
    1.2687   -4.8836   -2.0691 H   0  0  0  0  0  0  0  0  0  0  0  0
    0.7230   -3.1110   -0.8019 C   0  0  0  0  0  3  0  0  0  0  0  0
    0.6968   -3.4973    0.2260 H   0  0  0  0  0  0  0  0  0  0  0  0
  1  4  1  0  0  0  0
  3 23  1  0  0  0  0
  4  6  1  0  0  0  0
  4  5  1  0  0  0  0
  6  7  1  0  0  0  0
  8  9  1  0  0  0  0
  8  6  2  0  0  0  0
 10  8  1  0  0  0  0
 11 10  1  0  0  0  0
 12 10  2  0  0  0  0
 12  1  1  0  0  0  0
 13  2  1  0  0  0  0
 13 12  1  0  0  0  0
 14 13  1  0  0  0  0
 15 13  1  0  0  0  0
 16 18  1  0  0  0  0
 16  2  1  0  0  0  0
 17 16  1  0  0  0  0
 18  3  2  0  0  0  0
 19 18  1  0  0  0  0
 19 21  2  0  0  0  0
 20 19  1  0  0  0  0
 21 23  1  0  0  0  0
 22 21  1  0  0  0  0
 23 24  1  0  0  0  0
M  END
