2,4,6
q = 0.0, confidence = 0.984

 37 38  0  0  1  0  0  0  0  0999 V2000
    0.1963   -1.6454    0.0129 N   0  0  0  0  0  0  0  0  0  0  0  0
   -1.7868   -0.0650    1.4854 N   0  0  0  0  0  0  0  0  0  0  0  0
   -1.7257    0.5873    2.2773 H   0  0  0  0  0  0  0  0  0  0  0  0
   -1.9355   -0.2821   -1.3486 N   0  0  0  0  0  0  0  0  0  0  0  0
   -2.1437    0.4380   -2.0521 H   0  0  0  0  0  0  0  0  0  0  0  0
    1.4608    0.8095    0.0091 N   0  0  0  0  0  2  0  0  0  0  0  0
    3.5296    0.0406    0.0180 N   0  0  0  0  0  0  0  0  0  0  0  0
   -0.0378   -1.8636    1.4470 C   0  0  0  0  0  0  0  0  0  0  0  0
    0.1337   -2.9266    1.7462 H   0  0  0  0  0  0  0  0  0  0  0  0
    0.7140   -1.2545    1.9926 H   0  0  0  0  0  0  0  0  0  0  0  0
   -1.4404   -1.4416    1.9071 C   0  0  0  0  0  0  0  0  0  0  0  0
   -1.4921   -1.5461    3.0104 H   0  0  0  0  0  0  0  0  0  0  0  0
   -2.2028   -2.1407    1.5089 H   0  0  0  0  0  0  0  0  0  0  0  0
   -3.1100    0.1116    0.8372 C   0  0  0  0  0  0  0  0  0  0  0  0
   -3.9420   -0.2771    1.4649 H   0  0  0  0  0  0  0  0  0  0  0  0
   -3.2375    1.2064    0.7110 H   0  0  0  0  0  0  0  0  0  0  0  0
   -3.1524   -0.5665   -0.5416 C   0  0  0  0  0  0  0  0  0  0  0  0
   -4.0668   -0.2318   -1.0716 H   0  0  0  0  0  0  0  0  0  0  0  0
   -3.2532   -1.6650   -0.4319 H   0  0  0  0  0  0  0  0  0  0  0  0
   -1.3013   -1.4576   -1.9719 C   0  0  0  0  0  0  0  0  0  0  0  0
   -2.0154   -2.0479   -2.5897 H   0  0  0  0  0  0  0  0  0  0  0  0
   -0.5144   -1.0815   -2.6586 H   0  0  0  0  0  0  0  0  0  0  0  0
   -0.6748   -2.3814   -0.9126 C   0  0  0  0  0  0  0  0  0  0  0  0
   -0.1362   -3.2084   -1.4255 H   0  0  0  0  0  0  0  0  0  0  0  0
   -1.4756   -2.8771   -0.3303 H   0  0  0  0  0  0  0  0  0  0  0  0
    1.6157   -1.6464   -0.3435 C   0  0  0  0  0  0  0  0  0  0  0  0
    1.7093   -1.8803   -1.4264 H   0  0  0  0  0  0  0  0  0  0  0  0
    2.1878   -2.4448    0.1890 H   0  0  0  0  0  0  0  0  0  0  0  0
    2.2119   -0.2910   -0.0836 C   0  0  2  0  0  3  0  0  0  0  0  0
    2.3051    1.8873    0.1665 C   0  0  0  0  0  0  0  0  0  0  0  0
    1.9110    2.9052    0.2638 H   0  0  0  0  0  0  0  0  0  0  0  0
    3.6034    1.4205    0.1717 C   0  0  0  0  0  0  0  0  0  0  0  0
    4.5635    1.9359    0.2760 H   0  0  0  0  0  0  0  0  0  0  0  0
    4.6680   -0.8640   -0.0889 C   0  0  0  0  0  0  0  0  0  0  0  0
    4.4232   -1.8402    0.3697 H   0  0  0  0  0  0  0  0  0  0  0  0
    5.5284   -0.4313    0.4525 H   0  0  0  0  0  0  0  0  0  0  0  0
    4.9533   -1.0219   -1.1483 H   0  0  0  0  0  0  0  0  0  0  0  0
  1  8  1  0  0  0  0
  2 11  1  0  0  0  0
  2  3  1  0  0  0  0
  4 17  1  0  0  0  0
  5  4  1  0  0  0  0
  6 30  1  0  0  0  0
  7 32  1  0  0  0  0
  8  9  1  0  0  0  0
  8 11  1  0  0  0  0
  8 10  1  0  0  0  0
 11 12  1  0  0  0  0
 13 11  1  0  0  0  0
 14 15  1  0  0  0  0
 14  2  1  0  0  0  0
 16 14  1  0  0  0  0
 17 19  1  0  0  0  0
 17 14  1  0  0  0  0
 18 17  1  0  0  0  0
 20  4  1  0  0  0  0
 20 23  1  0  0  0  0
 21 20  1  0  0  0  0
 22 20  1  0  0  0  0
 23 25  1  0  0  0  0
 23  1  1  0  0  0  0
 24 23  1  0  0  0  0
 26  1  1  0  0  0  0
 26 28  1  0  0  0  0
 27 26  1  0  0  0  0
 29 26  1  6  0  0  0
 29  6  1  0  0  0  0
 29  7  1  0  0  0  0
 30 32  2  0  0  0  0
 30 31  1  0  0  0  0
 32 33  1  0  0  0  0
 34  7  1  0  0  0  0
 34 35  1  0  0  0  0
 34 36  1  0  0  0  0
 37 34  1  0  0  0  0
M  END
