40,42,44
q = 0.0, confidence = 0.99

 44 47  0  0  1  0  0  0  0  0999 V2000
    1.1220   -0.2033    0.1318 C   0  0  1  0  0  0  0  0  0  0  0  0
    2.6531   -0.2703    0.1389 C   0  0  0  0  0  0  0  0  0  0  0  0
    3.3688    0.0906    1.3006 C   0  0  0  0  0  0  0  0  0  0  0  0
    2.8375    0.3319    2.2311 H   0  0  0  0  0  0  0  0  0  0  0  0
    4.7670    0.1923    1.2748 C   0  0  0  0  0  0  0  0  0  0  0  0
    5.3063    0.4686    2.1926 H   0  0  0  0  0  0  0  0  0  0  0  0
    5.4715   -0.0405    0.0840 C   0  0  0  0  0  0  0  0  0  0  0  0
    6.5687    0.0351    0.0658 H   0  0  0  0  0  0  0  0  0  0  0  0
    4.7641   -0.3389   -1.0900 C   0  0  0  0  0  0  0  0  0  0  0  0
    5.3011   -0.4816   -2.0392 H   0  0  0  0  0  0  0  0  0  0  0  0
    3.3652   -0.4360   -1.0683 C   0  0  0  0  0  0  0  0  0  0  0  0
    2.8319   -0.6058   -2.0129 H   0  0  0  0  0  0  0  0  0  0  0  0
    1.6652    2.2526   -0.4257 C   0  0  0  0  0  3  0  0  0  0  0  0
    2.7490    2.1283   -0.3801 H   0  0  0  0  0  0  0  0  0  0  0  0
    0.9023    3.3860   -0.6940 C   0  0  0  0  0  0  0  0  0  0  0  0
   -0.4379    2.9324   -0.6121 C   0  0  0  0  0  0  0  0  0  0  0  0
   -1.3704    3.4909   -0.7576 H   0  0  0  0  0  0  0  0  0  0  0  0
    1.3884    4.7684   -0.9998 C   0  0  0  0  0  0  0  0  0  0  0  0
    2.4933    4.8153   -0.9965 H   0  0  0  0  0  0  0  0  0  0  0  0
    1.0149    5.4996   -0.2548 H   0  0  0  0  0  0  0  0  0  0  0  0
    1.0368    5.1063   -1.9954 H   0  0  0  0  0  0  0  0  0  0  0  0
    1.0022   -2.2605   -1.4364 C   0  0  0  0  0  3  0  0  0  0  0  0
    2.0427   -2.5694   -1.3092 H   0  0  0  0  0  0  0  0  0  0  0  0
   -0.0474   -2.8821   -2.1112 C   0  0  0  0  0  0  0  0  0  0  0  0
   -1.1575   -2.0299   -1.8848 C   0  0  0  0  0  0  0  0  0  0  0  0
   -2.1937   -2.1420   -2.2252 H   0  0  0  0  0  0  0  0  0  0  0  0
   -0.0085   -4.1505   -2.9047 C   0  0  0  0  0  0  0  0  0  0  0  0
   -0.0984   -3.9470   -3.9915 H   0  0  0  0  0  0  0  0  0  0  0  0
   -0.8448   -4.8222   -2.6273 H   0  0  0  0  0  0  0  0  0  0  0  0
    0.9384   -4.6984   -2.7423 H   0  0  0  0  0  0  0  0  0  0  0  0
    0.4257   -0.6494    1.4426 C   0  0  2  0  0  3  0  0  0  0  0  0
    1.0660   -1.4740    2.3823 C   0  0  0  0  0  0  0  0  0  0  0  0
    2.0990   -1.8004    2.2147 H   0  0  0  0  0  0  0  0  0  0  0  0
    0.3744   -1.8830    3.5293 C   0  0  0  0  0  0  0  0  0  0  0  0
    0.8668   -2.5269    4.2727 H   0  0  0  0  0  0  0  0  0  0  0  0
   -0.9461   -1.4543    3.7074 C   0  0  0  0  0  0  0  0  0  0  0  0
   -1.5281   -1.7239    4.5997 H   0  0  0  0  0  0  0  0  0  0  0  0
   -1.5436   -0.7030    2.6935 C   0  0  0  0  0  0  0  0  0  0  0  0
   -2.5967   -0.3978    2.7669 H   0  0  0  0  0  0  0  0  0  0  0  0
   -0.4822    1.6252   -0.3129 N   0  0  0  0  0  2  0  0  0  0  0  0
    0.7998    1.2046   -0.1984 N   0  0  0  0  0  0  0  0  0  0  0  0
   -0.8115   -0.9766   -1.1260 N   0  0  0  0  0  2  0  0  0  0  0  0
    0.5229   -1.0894   -0.8993 N   0  0  0  0  0  0  0  0  0  0  0  0
   -0.8901   -0.3384    1.5646 N   0  0  0  0  0  2  0  0  0  0  0  0
  1  2  1  1  0  0  0
  2  3  1  0  0  0  0
  3  4  1  0  0  0  0
  5  3  2  0  0  0  0
  5  6  1  0  0  0  0
  7  5  1  0  0  0  0
  8  7  1  0  0  0  0
  9 11  1  0  0  0  0
  9  7  2  0  0  0  0
 10  9  1  0  0  0  0
 11  2  2  0  0  0  0
 12 11  1  0  0  0  0
 13 14  1  0  0  0  0
 13 41  1  0  0  0  0
 15 16  2  0  0  0  0
 15 13  1  0  0  0  0
 16 40  1  0  0  0  0
 17 16  1  0  0  0  0
 18 19  1  0  0  0  0
 18 15  1  0  0  0  0
 18 20  1  0  0  0  0
 21 18  1  0  0  0  0
 22 23  1  0  0  0  0
 22 43  1  0  0  0  0
 24 25  2  0  0  0  0
 24 22  1  0  0  0  0
 25 42  1  0  0  0  0
 26 25  1  0  0  0  0
 27 30  1  0  0  0  0
 27 29  1  0  0  0  0
 27 24  1  0  0  0  0
 28 27  1  0  0  0  0
 31  1  1  6  0  0  0
 31 44  1  0  0  0  0
 31 32  1  0  0  0  0
 32 34  2  0  0  0  0
 33 32  1  0  0  0  0
 34 36  1  0  0  0  0
 34 35  1  0  0  0  0
 36 37  1  0  0  0  0
 38 39  1  0  0  0  0
 38 36  2  0  0  0  0
 40 41  1  0  0  0  0
 41  1  1  0  0  0  0
 42 43  1  0  0  0  0
 43  1  1  0  0  0  0
 44 38  1  0  0  0  0
M  END
