1,2,5
q = 0.0, confidence = 0.962

 61 65  0  0  0  0  0  0  0  0999 V2000
   -0.0000    1.7662    0.0003 N   0  0  0  0  0  2  0  0  0  0  0  0
   -1.9840    0.1185    0.0079 N   0  0  0  0  0  2  0  0  0  0  0  0
   -3.0492   -0.6354    0.0101 N   0  0  0  0  0  2  0  0  0  0  0  0
   -4.0946    0.2104   -0.0026 N   0  0  0  0  0  0  0  0  0  0  0  0
    1.9841    0.1186   -0.0080 N   0  0  0  0  0  2  0  0  0  0  0  0
    3.0493   -0.6352   -0.0105 N   0  0  0  0  0  2  0  0  0  0  0  0
    4.0947    0.2105    0.0027 N   0  0  0  0  0  0  0  0  0  0  0  0
    1.1997    2.4193   -0.0005 C   0  0  0  0  0  0  0  0  0  0  0  0
    1.2217    3.8219    0.0001 C   0  0  0  0  0  0  0  0  0  0  0  0
    2.1785    4.3614   -0.0003 H   0  0  0  0  0  0  0  0  0  0  0  0
   -0.0001    4.5169    0.0009 C   0  0  0  0  0  0  0  0  0  0  0  0
   -0.0001    5.6161    0.0011 H   0  0  0  0  0  0  0  0  0  0  0  0
   -1.2218    3.8218    0.0014 C   0  0  0  0  0  0  0  0  0  0  0  0
   -2.1787    4.3614    0.0021 H   0  0  0  0  0  0  0  0  0  0  0  0
   -1.1997    2.4192    0.0014 C   0  0  0  0  0  0  0  0  0  0  0  0
   -2.3125    1.4745    0.0024 C   0  0  0  0  0  0  0  0  0  0  0  0
   -3.7003    1.5188   -0.0088 C   0  0  0  0  0  3  0  0  0  0  0  0
   -4.4194    2.3423   -0.0328 H   0  0  0  0  0  0  0  0  0  0  0  0
   -5.4429   -0.2966   -0.0222 C   0  0  0  0  0  0  0  0  0  0  0  0
   -6.2343   -0.1462    1.1365 C   0  0  0  0  0  0  0  0  0  0  0  0
   -7.5477   -0.6448    1.0799 C   0  0  0  0  0  0  0  0  0  0  0  0
   -8.1871   -0.5466    1.9709 H   0  0  0  0  0  0  0  0  0  0  0  0
   -8.0600   -1.2740   -0.0698 C   0  0  0  0  0  0  0  0  0  0  0  0
   -7.2200   -1.4054   -1.1944 C   0  0  0  0  0  0  0  0  0  0  0  0
   -7.6052   -1.8978   -2.1011 H   0  0  0  0  0  0  0  0  0  0  0  0
   -5.8997   -0.9298   -1.2010 C   0  0  0  0  0  0  0  0  0  0  0  0
   -5.7004    0.5045    2.3876 C   0  0  0  0  0  0  0  0  0  0  0  0
   -6.3452    0.2700    3.2547 H   0  0  0  0  0  0  0  0  0  0  0  0
   -5.6664    1.6114    2.2995 H   0  0  0  0  0  0  0  0  0  0  0  0
   -4.6733    0.1614    2.6251 H   0  0  0  0  0  0  0  0  0  0  0  0
   -9.4631   -1.8189   -0.0996 C   0  0  0  0  0  0  0  0  0  0  0  0
   -9.4521   -2.9292   -0.1076 H   0  0  0  0  0  0  0  0  0  0  0  0
  -10.0000   -1.4982   -1.0149 H   0  0  0  0  0  0  0  0  0  0  0  0
  -10.0507   -1.4947    0.7797 H   0  0  0  0  0  0  0  0  0  0  0  0
   -5.0077   -1.0984   -2.4028 C   0  0  0  0  0  0  0  0  0  0  0  0
   -4.2105   -1.8448   -2.2064 H   0  0  0  0  0  0  0  0  0  0  0  0
   -4.5001   -0.1512   -2.6797 H   0  0  0  0  0  0  0  0  0  0  0  0
   -5.5881   -1.4414   -3.2788 H   0  0  0  0  0  0  0  0  0  0  0  0
    2.3125    1.4746   -0.0019 C   0  0  0  0  0  0  0  0  0  0  0  0
    3.7003    1.5190    0.0093 C   0  0  0  0  0  0  0  0  0  0  0  0
    4.4194    2.3425    0.0339 H   0  0  0  0  0  0  0  0  0  0  0  0
    5.4429   -0.2965    0.0222 C   0  0  0  0  0  0  0  0  0  0  0  0
    6.2347   -0.1449   -1.1361 C   0  0  0  0  0  0  0  0  0  0  0  0
    7.5481   -0.6436   -1.0796 C   0  0  0  0  0  0  0  0  0  0  0  0
    8.1878   -0.5444   -1.9703 H   0  0  0  0  0  0  0  0  0  0  0  0
    8.0599   -1.2741    0.0695 C   0  0  0  0  0  0  0  0  0  0  0  0
    7.2195   -1.4067    1.1937 C   0  0  0  0  0  0  0  0  0  0  0  0
    7.6044   -1.9001    2.1000 H   0  0  0  0  0  0  0  0  0  0  0  0
    5.8993   -0.9310    1.2004 C   0  0  0  0  0  0  0  0  0  0  0  0
    5.7013    0.5072   -2.3867 C   0  0  0  0  0  0  0  0  0  0  0  0
    6.3468    0.2743   -3.2537 H   0  0  0  0  0  0  0  0  0  0  0  0
    5.6665    1.6139   -2.2973 H   0  0  0  0  0  0  0  0  0  0  0  0
    4.6746    0.1638   -2.6254 H   0  0  0  0  0  0  0  0  0  0  0  0
    9.4629   -1.8195    0.0991 C   0  0  0  0  0  0  0  0  0  0  0  0
    9.9987   -1.5028    1.0164 H   0  0  0  0  0  0  0  0  0  0  0  0
   10.0517   -1.4919   -0.7782 H   0  0  0  0  0  0  0  0  0  0  0  0
    9.4515   -2.9298    0.1023 H   0  0  0  0  0  0  0  0  0  0  0  0
    5.0070   -1.1009    2.4017 C   0  0  0  0  0  0  0  0  0  0  0  0
    5.5874   -1.4434    3.2780 H   0  0  0  0  0  0  0  0  0  0  0  0
    4.2108   -1.8483    2.2048 H   0  0  0  0  0  0  0  0  0  0  0  0
    4.4979   -0.1545    2.6786 H   0  0  0  0  0  0  0  0  0  0  0  0
  1 15  1  0  0  0  0
  2  3  1  0  0  0  0
  4  3  1  0  0  0  0
  5 39  1  0  0  0  0
  6  5  1  0  0  0  0
  6  7  1  0  0  0  0
  7 40  1  0  0  0  0
  7 42  1  0  0  0  0
  8  9  2  0  0  0  0
  8  1  1  0  0  0  0
  9 11  1  0  0  0  0
 10  9  1  0  0  0  0
 11 12  1  0  0  0  0
 11 13  2  0  0  0  0
 13 14  1  0  0  0  0
 15 13  1  0  0  0  0
 15 16  2  0  0  0  0
 16  2  1  0  0  0  0
 17  4  1  0  0  0  0
 17 16  1  0  0  0  0
 18 17  1  0  0  0  0
 19  4  1  0  0  0  0
 19 20  1  0  0  0  0
 20 27  1  0  0  0  0
 21 20  2  0  0  0  0
 21 22  1  0  0  0  0
 23 21  1  0  0  0  0
 24 23  2  0  0  0  0
 25 24  1  0  0  0  0
 26 24  1  0  0  0  0
 26 19  2  0  0  0  0
 27 30  1  0  0  0  0
 27 28  1  0  0  0  0
 29 27  1  0  0  0  0
 31 23  1  0  0  0  0
 31 34  1  0  0  0  0
 32 31  1  0  0  0  0
 33 31  1  0  0  0  0
 35 36  1  0  0  0  0
 35 26  1  0  0  0  0
 37 35  1  0  0  0  0
 38 35  1  0  0  0  0
 39  8  1  0  0  0  0
 39 40  2  0  0  0  0
 40 41  1  0  0  0  0
 42 49  1  0  0  0  0
 43 44  1  0  0  0  0
 43 42  2  0  0  0  0
 44 46  2  0  0  0  0
 45 44  1  0  0  0  0
 46 54  1  0  0  0  0
 46 47  1  0  0  0  0
 47 49  2  0  0  0  0
 47 48  1  0  0  0  0
 49 58  1  0  0  0  0
 50 52  1  0  0  0  0
 50 43  1  0  0  0  0
 51 50  1  0  0  0  0
 53 50  1  0  0  0  0
 54 57  1  0  0  0  0
 54 55  1  0  0  0  0
 56 54  1  0  0  0  0
 58 61  1  0  0  0  0
 58 59  1  0  0  0  0
 60 58  1  0  0  0  0
M  END
