1,2,3
q = 0.0, confidence = 0.986

 58 60  0  0  0  0  0  0  0  0999 V2000
    1.9281    1.3282   -0.0164 N   0  0  0  0  0  0  0  0  0  0  0  0
   -1.4256    0.2676    0.2156 N   0  0  0  0  0  0  0  0  0  0  0  0
    0.0351    1.9032    2.0783 N   0  0  0  0  0  0  0  0  0  0  0  0
    2.3070   -2.1066    0.2350 O   0  0  0  0  0  0  0  0  0  0  0  0
   -1.8926   -2.4906   -0.4092 O   0  0  0  0  0  0  0  0  0  0  0  0
    0.6516   -3.6648    0.9082 C   0  0  0  0  0  0  0  0  0  0  0  0
    2.1466   -3.3858    0.8523 C   0  0  0  0  0  0  0  0  0  0  0  0
    3.5485   -1.6664   -0.1367 C   0  0  0  0  0  0  0  0  0  0  0  0
    4.7443   -2.3559    0.1327 C   0  0  0  0  0  0  0  0  0  0  0  0
    5.9684   -1.8070   -0.2833 C   0  0  0  0  0  0  0  0  0  0  0  0
    6.0120   -0.5820   -0.9636 C   0  0  0  0  0  0  0  0  0  0  0  0
    4.8137    0.0992   -1.2275 C   0  0  0  0  0  0  0  0  0  0  0  0
    3.5741   -0.4214   -0.8206 C   0  0  0  0  0  0  0  0  0  0  0  0
    2.2822    0.3152   -1.0649 C   0  0  0  0  0  0  0  0  0  0  0  0
    2.1766    0.8990    1.3799 C   0  0  0  0  0  0  0  0  0  0  0  0
    1.4798    1.8378    2.3659 C   0  0  0  0  0  0  0  0  0  0  0  0
    0.0343   -3.9137   -0.4744 C   0  0  0  0  0  0  0  0  0  0  0  0
   -1.4847   -3.8649   -0.4927 C   0  0  0  0  0  0  0  0  0  0  0  0
   -3.2357   -2.1995   -0.3802 C   0  0  0  0  0  0  0  0  0  0  0  0
   -4.2457   -3.1597   -0.1938 C   0  0  0  0  0  0  0  0  0  0  0  0
   -5.5899   -2.7535   -0.1467 C   0  0  0  0  0  0  0  0  0  0  0  0
   -5.9354   -1.4032   -0.2850 C   0  0  0  0  0  0  0  0  0  0  0  0
   -4.9218   -0.4531   -0.4840 C   0  0  0  0  0  0  0  0  0  0  0  0
   -3.5705   -0.8297   -0.5456 C   0  0  0  0  0  0  0  0  0  0  0  0
   -2.4890    0.1842   -0.8254 C   0  0  0  0  0  0  0  0  0  0  0  0
   -1.9448    0.5132    1.5813 C   0  0  0  0  0  0  0  0  0  0  0  0
   -0.7780    0.7568    2.5369 C   0  0  0  0  0  0  0  0  0  0  0  0
    2.4796    2.1822   -0.1907 H   0  0  0  0  0  0  0  0  0  0  0  0
   -0.9597   -0.6559    0.2121 H   0  0  0  0  0  0  0  0  0  0  0  0
   -0.3674    2.7806    2.4293 H   0  0  0  0  0  0  0  0  0  0  0  0
    0.4773   -4.5401    1.5686 H   0  0  0  0  0  0  0  0  0  0  0  0
    0.1544   -2.8008    1.4022 H   0  0  0  0  0  0  0  0  0  0  0  0
    2.6719   -4.1655    0.2556 H   0  0  0  0  0  0  0  0  0  0  0  0
    2.5981   -3.3749    1.8700 H   0  0  0  0  0  0  0  0  0  0  0  0
    4.7331   -3.3157    0.6660 H   0  0  0  0  0  0  0  0  0  0  0  0
    6.8998   -2.3527   -0.0705 H   0  0  0  0  0  0  0  0  0  0  0  0
    6.9728   -0.1628   -1.2943 H   0  0  0  0  0  0  0  0  0  0  0  0
    4.8364    1.0560   -1.7743 H   0  0  0  0  0  0  0  0  0  0  0  0
    2.3024    0.8589   -2.0280 H   0  0  0  0  0  0  0  0  0  0  0  0
    1.4472   -0.4091   -1.1206 H   0  0  0  0  0  0  0  0  0  0  0  0
    1.7897   -0.1354    1.4782 H   0  0  0  0  0  0  0  0  0  0  0  0
    3.2620    0.8458    1.6065 H   0  0  0  0  0  0  0  0  0  0  0  0
    1.8854    2.8654    2.2623 H   0  0  0  0  0  0  0  0  0  0  0  0
    1.6923    1.5066    3.4069 H   0  0  0  0  0  0  0  0  0  0  0  0
    0.3543   -4.9080   -0.8505 H   0  0  0  0  0  0  0  0  0  0  0  0
    0.4155   -3.1675   -1.2031 H   0  0  0  0  0  0  0  0  0  0  0  0
   -1.9043   -4.4387    0.3643 H   0  0  0  0  0  0  0  0  0  0  0  0
   -1.8927   -4.3053   -1.4288 H   0  0  0  0  0  0  0  0  0  0  0  0
   -4.0001   -4.2236   -0.0829 H   0  0  0  0  0  0  0  0  0  0  0  0
   -6.3728   -3.5121    0.0015 H   0  0  0  0  0  0  0  0  0  0  0  0
   -6.9882   -1.0897   -0.2457 H   0  0  0  0  0  0  0  0  0  0  0  0
   -5.1815    0.6102   -0.6093 H   0  0  0  0  0  0  0  0  0  0  0  0
   -2.9334    1.1939   -0.9349 H   0  0  0  0  0  0  0  0  0  0  0  0
   -1.9659   -0.0675   -1.7728 H   0  0  0  0  0  0  0  0  0  0  0  0
   -2.5983    1.4095    1.5372 H   0  0  0  0  0  0  0  0  0  0  0  0
   -2.5681   -0.3334    1.9393 H   0  0  0  0  0  0  0  0  0  0  0  0
   -0.1278   -0.1433    2.5593 H   0  0  0  0  0  0  0  0  0  0  0  0
   -1.1537    0.9006    3.5726 H   0  0  0  0  0  0  0  0  0  0  0  0
  1 15  1  0  0  0  0
  2 26  1  0  0  0  0
  3 16  1  0  0  0  0
  3 30  1  0  0  0  0
  3 27  1  0  0  0  0
  4  7  1  0  0  0  0
  5 19  1  0  0  0  0
  6 32  1  0  0  0  0
  6 31  1  0  0  0  0
  7  6  1  0  0  0  0
  7 34  1  0  0  0  0
  8  9  1  0  0  0  0
  8  4  1  0  0  0  0
  9 35  1  0  0  0  0
 10 36  1  0  0  0  0
 10  9  2  0  0  0  0
 11 10  1  0  0  0  0
 12 11  2  0  0  0  0
 12 13  1  0  0  0  0
 13  8  2  0  0  0  0
 14 13  1  0  0  0  0
 14  1  1  0  0  0  0
 15 41  1  0  0  0  0
 15 42  1  0  0  0  0
 15 16  1  0  0  0  0
 16 44  1  0  0  0  0
 17  6  1  0  0  0  0
 18 17  1  0  0  0  0
 18  5  1  0  0  0  0
 18 47  1  0  0  0  0
 19 20  1  0  0  0  0
 20 21  2  0  0  0  0
 20 49  1  0  0  0  0
 21 50  1  0  0  0  0
 22 51  1  0  0  0  0
 22 21  1  0  0  0  0
 23 22  2  0  0  0  0
 24 23  1  0  0  0  0
 24 19  2  0  0  0  0
 25 24  1  0  0  0  0
 25  2  1  0  0  0  0
 26 56  1  0  0  0  0
 26 27  1  0  0  0  0
 27 57  1  0  0  0  0
 27 58  1  0  0  0  0
 28  1  1  0  0  0  0
 29  2  1  0  0  0  0
 33  7  1  0  0  0  0
 37 11  1  0  0  0  0
 38 12  1  0  0  0  0
 39 14  1  0  0  0  0
 40 14  1  0  0  0  0
 43 16  1  0  0  0  0
 45 17  1  0  0  0  0
 46 17  1  0  0  0  0
 48 18  1  0  0  0  0
 52 23  1  0  0  0  0
 53 25  1  0  0  0  0
 54 25  1  0  0  0  0
 55 26  1  0  0  0  0
M  END
