1,3,5
q = 0.0, confidence = 0.996

 65 71  0  0  1  0  0  0  0  0999 V2000
   -0.0001   -1.2509   -0.0743 N   0  0  0  0  0  2  0  0  0  0  0  0
   -2.2312   -0.9500   -0.0409 N   0  0  1  0  0  0  0  0  0  0  0  0
   -1.8639    0.3852   -0.0893 N   0  0  0  0  0  2  0  0  0  0  0  0
    2.2310   -0.9502   -0.0413 N   0  0  0  0  0  0  0  0  0  0  0  0
    1.8638    0.3851   -0.0898 N   0  0  0  0  0  2  0  0  0  0  0  0
   -1.1786   -1.8569    0.1685 C   0  0  2  0  0  3  0  0  0  0  0  0
   -1.2313   -3.1788    0.6274 C   0  0  0  0  0  0  0  0  0  0  0  0
   -2.1838   -3.6770    0.8402 H   0  0  0  0  0  0  0  0  0  0  0  0
   -0.0002   -3.8293    0.8395 C   0  0  0  0  0  0  0  0  0  0  0  0
   -0.0002   -4.8614    1.2178 H   0  0  0  0  0  0  0  0  0  0  0  0
    1.2309   -3.1789    0.6271 C   0  0  0  0  0  0  0  0  0  0  0  0
    2.1834   -3.6772    0.8398 H   0  0  0  0  0  0  0  0  0  0  0  0
    1.1784   -1.8570    0.1683 C   0  0  0  0  0  0  0  0  0  0  0  0
   -3.6098   -1.0771   -0.0597 C   0  0  1  0  0  3  0  0  0  0  0  0
   -4.1115    0.2194   -0.0880 C   0  0  0  0  0  0  0  0  0  0  0  0
   -5.1688    0.4986   -0.1191 H   0  0  0  0  0  0  0  0  0  0  0  0
   -2.9998    1.1112   -0.0974 C   0  0  0  0  0  0  0  0  0  0  0  0
   -3.0437    2.5777   -0.0763 C   0  0  0  0  0  0  0  0  0  0  0  0
   -2.0909    3.3217    0.6543 C   0  0  0  0  0  0  0  0  0  0  0  0
   -1.3161    2.7869    1.2255 H   0  0  0  0  0  0  0  0  0  0  0  0
   -2.1769    4.7182    0.6863 C   0  0  0  0  0  0  0  0  0  0  0  0
   -1.4330    5.2908    1.2609 H   0  0  0  0  0  0  0  0  0  0  0  0
   -3.1973    5.3876   -0.0082 C   0  0  0  0  0  0  0  0  0  0  0  0
   -3.2525    6.4868    0.0139 H   0  0  0  0  0  0  0  0  0  0  0  0
   -4.1514    4.6511   -0.7294 C   0  0  0  0  0  0  0  0  0  0  0  0
   -4.9520    5.1696   -1.2785 H   0  0  0  0  0  0  0  0  0  0  0  0
   -4.0796    3.2528   -0.7588 C   0  0  0  0  0  0  0  0  0  0  0  0
   -4.8146    2.6774   -1.3423 H   0  0  0  0  0  0  0  0  0  0  0  0
   -4.3321   -2.3566   -0.1262 C   0  0  0  0  0  0  0  0  0  0  0  0
   -3.9799   -3.3493   -1.0701 C   0  0  0  0  0  0  0  0  0  0  0  0
   -3.1350   -3.1741   -1.7529 H   0  0  0  0  0  0  0  0  0  0  0  0
   -4.7114   -4.5407   -1.1505 C   0  0  0  0  0  0  0  0  0  0  0  0
   -4.4301   -5.3031   -1.8925 H   0  0  0  0  0  0  0  0  0  0  0  0
   -5.8090   -4.7564   -0.3000 C   0  0  0  0  0  0  0  0  0  0  0  0
   -6.3828   -5.6929   -0.3665 H   0  0  0  0  0  0  0  0  0  0  0  0
   -6.1740   -3.7706    0.6303 C   0  0  0  0  0  0  0  0  0  0  0  0
   -7.0328   -3.9331    1.2988 H   0  0  0  0  0  0  0  0  0  0  0  0
   -5.4415   -2.5786    0.7192 C   0  0  0  0  0  0  0  0  0  0  0  0
   -5.7139   -1.8110    1.4588 H   0  0  0  0  0  0  0  0  0  0  0  0
    3.6096   -1.0775   -0.0597 C   0  0  2  0  0  3  0  0  0  0  0  0
    4.1114    0.2190   -0.0880 C   0  0  0  0  0  0  0  0  0  0  0  0
    5.1688    0.4981   -0.1189 H   0  0  0  0  0  0  0  0  0  0  0  0
    2.9998    1.1109   -0.0976 C   0  0  0  0  0  0  0  0  0  0  0  0
    3.0440    2.5774   -0.0767 C   0  0  0  0  0  0  0  0  0  0  0  0
    4.0802    3.2521   -0.7591 C   0  0  0  0  0  0  0  0  0  0  0  0
    4.8153    2.6765   -1.3423 H   0  0  0  0  0  0  0  0  0  0  0  0
    4.1523    4.6505   -0.7301 C   0  0  0  0  0  0  0  0  0  0  0  0
    4.9532    5.1687   -1.2790 H   0  0  0  0  0  0  0  0  0  0  0  0
    3.1981    5.3873   -0.0093 C   0  0  0  0  0  0  0  0  0  0  0  0
    3.2535    6.4866    0.0125 H   0  0  0  0  0  0  0  0  0  0  0  0
    2.1774    4.7183    0.6850 C   0  0  0  0  0  0  0  0  0  0  0  0
    1.4334    5.2912    1.2593 H   0  0  0  0  0  0  0  0  0  0  0  0
    2.0911    3.3218    0.6533 C   0  0  0  0  0  0  0  0  0  0  0  0
    1.3160    2.7873    1.2245 H   0  0  0  0  0  0  0  0  0  0  0  0
    4.3318   -2.3570   -0.1260 C   0  0  0  0  0  0  0  0  0  0  0  0
    5.4412   -2.5789    0.7194 C   0  0  0  0  0  0  0  0  0  0  0  0
    5.7137   -1.8112    1.4589 H   0  0  0  0  0  0  0  0  0  0  0  0
    6.1736   -3.7709    0.6307 C   0  0  0  0  0  0  0  0  0  0  0  0
    7.0325   -3.9334    1.2992 H   0  0  0  0  0  0  0  0  0  0  0  0
    5.8086   -4.7569   -0.2994 C   0  0  0  0  0  0  0  0  0  0  0  0
    6.3824   -5.6934   -0.3658 H   0  0  0  0  0  0  0  0  0  0  0  0
    4.7110   -4.5412   -1.1499 C   0  0  0  0  0  0  0  0  0  0  0  0
    4.4296   -5.3037   -1.8918 H   0  0  0  0  0  0  0  0  0  0  0  0
    3.9795   -3.3498   -1.0696 C   0  0  0  0  0  0  0  0  0  0  0  0
    3.1346   -3.1748   -1.7525 H   0  0  0  0  0  0  0  0  0  0  0  0
  1 13  1  0  0  0  0
  2  3  1  1  0  0  0
  2  6  1  0  0  0  0
  4 13  1  0  0  0  0
  5  4  1  0  0  0  0
  6  1  1  1  0  0  0
  6  7  1  0  0  0  0
  7  9  2  0  0  0  0
  7  8  1  0  0  0  0
  9 10  1  0  0  0  0
 11  9  1  0  0  0  0
 11 12  1  0  0  0  0
 13 11  2  0  0  0  0
 14 29  1  6  0  0  0
 14  2  1  0  0  0  0
 15 14  1  0  0  0  0
 16 15  1  0  0  0  0
 17  3  1  0  0  0  0
 17 15  2  0  0  0  0
 17 18  1  0  0  0  0
 18 19  1  0  0  0  0
 19 21  2  0  0  0  0
 19 20  1  0  0  0  0
 21 22  1  0  0  0  0
 23 24  1  0  0  0  0
 23 21  1  0  0  0  0
 25 23  2  0  0  0  0
 26 25  1  0  0  0  0
 27 25  1  0  0  0  0
 27 18  2  0  0  0  0
 28 27  1  0  0  0  0
 29 38  1  0  0  0  0
 30 29  2  0  0  0  0
 31 30  1  0  0  0  0
 32 30  1  0  0  0  0
 32 34  2  0  0  0  0
 33 32  1  0  0  0  0
 34 36  1  0  0  0  0
 35 34  1  0  0  0  0
 36 38  2  0  0  0  0
 36 37  1  0  0  0  0
 38 39  1  0  0  0  0
 40 55  1  6  0  0  0
 40  4  1  0  0  0  0
 41 40  1  0  0  0  0
 42 41  1  0  0  0  0
 43  5  1  0  0  0  0
 43 41  2  0  0  0  0
 43 44  1  0  0  0  0
 44 53  1  0  0  0  0
 45 47  1  0  0  0  0
 45 44  2  0  0  0  0
 46 45  1  0  0  0  0
 47 49  2  0  0  0  0
 48 47  1  0  0  0  0
 49 50  1  0  0  0  0
 49 51  1  0  0  0  0
 51 52  1  0  0  0  0
 53 51  2  0  0  0  0
 53 54  1  0  0  0  0
 55 56  1  0  0  0  0
 56 57  1  0  0  0  0
 58 56  2  0  0  0  0
 58 59  1  0  0  0  0
 60 58  1  0  0  0  0
 61 60  1  0  0  0  0
 62 64  1  0  0  0  0
 62 60  2  0  0  0  0
 63 62  1  0  0  0  0
 64 55  2  0  0  0  0
 65 64  1  0  0  0  0
M  END
