2,3,5
q = -2.0, confidence = 0.738

 59 62  0  0  1  0  0  0  0  0999 V2000
   -0.9334    0.6447   -2.1191 Si  0  0  0  0  0  0  0  0  0  0  0  0
    2.4271    0.0698   -0.1850 N   0  0  0  0  0  2  0  0  0  0  0  0
    0.6929    0.3166   -1.5543 N   0  0  0  0  0  2  0  0  0  0  0  0
   -2.0571    0.1533   -0.7621 N   0  0  0  0  0  0  0  0  0  0  0  0
   -0.7710   -1.7892   -0.7256 N   0  0  0  0  0  1  0  0  0  0  0  0
    3.5558    0.4136    0.5625 C   0  0  0  0  0  0  0  0  0  0  0  0
    4.0808   -0.5008    1.5067 C   0  0  0  0  0  0  0  0  0  0  0  0
    3.5265   -1.4299    1.6952 H   0  0  0  0  0  0  0  0  0  0  0  0
    5.2470   -0.1926    2.2181 C   0  0  0  0  0  0  0  0  0  0  0  0
    5.6320   -0.9138    2.9556 H   0  0  0  0  0  0  0  0  0  0  0  0
    5.9208    1.0210    2.0048 C   0  0  0  0  0  0  0  0  0  0  0  0
    6.8374    1.2570    2.5659 H   0  0  0  0  0  0  0  0  0  0  0  0
    5.4155    1.9258    1.0568 C   0  0  0  0  0  0  0  0  0  0  0  0
    5.9402    2.8744    0.8639 H   0  0  0  0  0  0  0  0  0  0  0  0
    4.2527    1.6279    0.3363 C   0  0  0  0  0  0  0  0  0  0  0  0
    3.8868    2.3295   -0.4259 H   0  0  0  0  0  0  0  0  0  0  0  0
    1.5064    0.9064   -0.6599 C   0  0  1  0  0  3  0  0  0  0  0  0
    1.2360    2.2581   -0.0826 C   0  0  0  0  0  0  0  0  0  0  0  0
    0.8664    2.3160    1.2782 C   0  0  0  0  0  0  0  0  0  0  0  0
    0.8492    1.3833    1.8641 H   0  0  0  0  0  0  0  0  0  0  0  0
    0.5132    3.5445    1.8535 C   0  0  0  0  0  0  0  0  0  0  0  0
    0.2150    3.5854    2.9121 H   0  0  0  0  0  0  0  0  0  0  0  0
    0.5481    4.7203    1.0845 C   0  0  0  0  0  0  0  0  0  0  0  0
    0.2794    5.6852    1.5407 H   0  0  0  0  0  0  0  0  0  0  0  0
    0.9339    4.6655   -0.2650 C   0  0  0  0  0  0  0  0  0  0  0  0
    0.9704    5.5869   -0.8659 H   0  0  0  0  0  0  0  0  0  0  0  0
    1.2697    3.4359   -0.8512 C   0  0  0  0  0  0  0  0  0  0  0  0
    1.5632    3.3851   -1.9105 H   0  0  0  0  0  0  0  0  0  0  0  0
   -1.3385    2.4200   -2.5833 C   0  0  0  0  0  0  0  0  0  0  0  0
   -1.1854    3.1522   -1.7710 H   0  0  0  0  0  0  0  0  0  0  0  0
   -2.3976    2.4759   -2.9085 H   0  0  0  0  0  0  0  0  0  0  0  0
   -0.7038    2.7170   -3.4436 H   0  0  0  0  0  0  0  0  0  0  0  0
   -1.2954   -0.4400   -3.6098 C   0  0  0  0  0  0  0  0  0  0  0  0
   -1.3945   -1.4999   -3.3116 H   0  0  0  0  0  0  0  0  0  0  0  0
   -0.4750   -0.3596   -4.3517 H   0  0  0  0  0  0  0  0  0  0  0  0
   -2.2362   -0.1147   -4.0981 H   0  0  0  0  0  0  0  0  0  0  0  0
   -3.2093    0.9099   -0.3945 C   0  0  0  0  0  0  0  0  0  0  0  0
   -3.0514    2.1786    0.2005 C   0  0  0  0  0  0  0  0  0  0  0  0
   -2.0371    2.5511    0.4087 H   0  0  0  0  0  0  0  0  0  0  0  0
   -4.1784    2.9357    0.5494 C   0  0  0  0  0  0  0  0  0  0  0  0
   -4.0444    3.9241    1.0147 H   0  0  0  0  0  0  0  0  0  0  0  0
   -5.4693    2.4309    0.3231 C   0  0  0  0  0  0  0  0  0  0  0  0
   -6.3524    3.0238    0.6044 H   0  0  0  0  0  0  0  0  0  0  0  0
   -5.6274    1.1637   -0.2611 C   0  0  0  0  0  0  0  0  0  0  0  0
   -6.6356    0.7601   -0.4396 H   0  0  0  0  0  0  0  0  0  0  0  0
   -4.5049    0.4078   -0.6267 C   0  0  0  0  0  0  0  0  0  0  0  0
   -4.6191   -0.5838   -1.0884 H   0  0  0  0  0  0  0  0  0  0  0  0
   -1.7643   -1.0989   -0.2449 C   0  0  1  0  0  3  0  0  0  0  0  0
   -2.5251   -1.6535    0.9153 C   0  0  0  0  0  0  0  0  0  0  0  0
   -2.8410   -0.8717    2.0461 C   0  0  0  0  0  0  0  0  0  0  0  0
   -2.5747    0.1936    2.0692 H   0  0  0  0  0  0  0  0  0  0  0  0
   -3.4730   -1.4576    3.1507 C   0  0  0  0  0  0  0  0  0  0  0  0
   -3.7038   -0.8432    4.0340 H   0  0  0  0  0  0  0  0  0  0  0  0
   -3.8053   -2.8216    3.1354 C   0  0  0  0  0  0  0  0  0  0  0  0
   -4.3083   -3.2763    4.0025 H   0  0  0  0  0  0  0  0  0  0  0  0
   -3.4828   -3.6068    2.0164 C   0  0  0  0  0  0  0  0  0  0  0  0
   -3.7307   -4.6791    2.0043 H   0  0  0  0  0  0  0  0  0  0  0  0
   -2.8334   -3.0293    0.9186 C   0  0  0  0  0  0  0  0  0  0  0  0
   -2.5476   -3.6338    0.0455 H   0  0  0  0  0  0  0  0  0  0  0  0
  1  3  1  0  0  0  0
  1  4  1  0  0  0  0
  2  6  1  0  0  0  0
  4 37  1  0  0  0  0
  4 48  1  0  0  0  0
  6  7  1  0  0  0  0
  7  8  1  0  0  0  0
  7  9  2  0  0  0  0
  9 10  1  0  0  0  0
 11  9  1  0  0  0  0
 11 12  1  0  0  0  0
 13 11  2  0  0  0  0
 14 13  1  0  0  0  0
 15  6  2  0  0  0  0
 15 13  1  0  0  0  0
 16 15  1  0  0  0  0
 17  3  1  1  0  0  0
 17  2  1  0  0  0  0
 17 18  1  0  0  0  0
 18 19  1  0  0  0  0
 19 21  2  0  0  0  0
 19 20  1  0  0  0  0
 21 22  1  0  0  0  0
 23 24  1  0  0  0  0
 23 21  1  0  0  0  0
 25 23  2  0  0  0  0
 26 25  1  0  0  0  0
 27 25  1  0  0  0  0
 27 18  2  0  0  0  0
 28 27  1  0  0  0  0
 29  1  1  0  0  0  0
 29 30  1  0  0  0  0
 31 29  1  0  0  0  0
 32 29  1  0  0  0  0
 33 34  1  0  0  0  0
 33  1  1  0  0  0  0
 35 33  1  0  0  0  0
 36 33  1  0  0  0  0
 37 38  1  0  0  0  0
 38 39  1  0  0  0  0
 38 40  2  0  0  0  0
 40 41  1  0  0  0  0
 42 40  1  0  0  0  0
 42 43  1  0  0  0  0
 44 42  2  0  0  0  0
 45 44  1  0  0  0  0
 46 37  2  0  0  0  0
 46 44  1  0  0  0  0
 47 46  1  0  0  0  0
 48  5  1  1  0  0  0
 48 49  1  0  0  0  0
 49 58  2  0  0  0  0
 49 50  1  0  0  0  0
 50 51  1  0  0  0  0
 50 52  2  0  0  0  0
 52 53  1  0  0  0  0
 54 52  1  0  0  0  0
 54 55  1  0  0  0  0
 56 54  2  0  0  0  0
 57 56  1  0  0  0  0
 58 56  1  0  0  0  0
 59 58  1  0  0  0  0
M  END
