2,3,5
q = -2.0, confidence = 0.788

 71 74  0  0  1  0  0  0  0  0999 V2000
   -0.8277    1.3472   -1.5180 Si  0  0  0  0  0  0  0  0  0  0  0  0
    2.1372   -0.4673    0.2572 N   0  0  0  0  0  2  0  0  0  0  0  0
    0.5762    0.4170   -1.0593 N   0  0  0  0  0  2  0  0  0  0  0  0
   -2.2662    0.6632   -0.6102 N   0  0  0  0  0  0  0  0  0  0  0  0
   -1.3533   -1.4552   -0.9772 N   0  0  0  0  0  1  0  0  0  0  0  0
    3.3723   -0.5761    0.9369 C   0  0  0  0  0  0  0  0  0  0  0  0
    4.6094   -0.4835    0.2383 C   0  0  0  0  0  0  0  0  0  0  0  0
    5.8070   -0.7008    0.9494 C   0  0  0  0  0  0  0  0  0  0  0  0
    6.7625   -0.6446    0.4038 H   0  0  0  0  0  0  0  0  0  0  0  0
    5.8008   -0.9717    2.3206 C   0  0  0  0  0  0  0  0  0  0  0  0
    6.7461   -1.1456    2.8566 H   0  0  0  0  0  0  0  0  0  0  0  0
    4.5811   -0.9971    3.0113 C   0  0  0  0  0  0  0  0  0  0  0  0
    4.5676   -1.1677    4.0993 H   0  0  0  0  0  0  0  0  0  0  0  0
    3.3601   -0.7957    2.3459 C   0  0  0  0  0  0  0  0  0  0  0  0
    4.6937   -0.0938   -1.2169 C   0  0  0  0  0  0  0  0  0  0  0  0
    5.4819   -0.6689   -1.7428 H   0  0  0  0  0  0  0  0  0  0  0  0
    4.9520    0.9823   -1.3147 H   0  0  0  0  0  0  0  0  0  0  0  0
    3.7402   -0.2400   -1.7516 H   0  0  0  0  0  0  0  0  0  0  0  0
    2.0717   -0.7357    3.1207 C   0  0  0  0  0  0  0  0  0  0  0  0
    2.2493   -0.9054    4.1998 H   0  0  0  0  0  0  0  0  0  0  0  0
    1.3418   -1.4816    2.7496 H   0  0  0  0  0  0  0  0  0  0  0  0
    1.5803    0.2558    3.0081 H   0  0  0  0  0  0  0  0  0  0  0  0
    1.6743    0.6369   -0.3074 C   0  0  2  0  0  3  0  0  0  0  0  0
    2.3242    1.9759   -0.1971 C   0  0  0  0  0  0  0  0  0  0  0  0
    2.7568    2.4892    1.0422 C   0  0  0  0  0  0  0  0  0  0  0  0
    2.5987    1.9034    1.9582 H   0  0  0  0  0  0  0  0  0  0  0  0
    3.3777    3.7443    1.1068 C   0  0  0  0  0  0  0  0  0  0  0  0
    3.7023    4.1418    2.0801 H   0  0  0  0  0  0  0  0  0  0  0  0
    3.5913    4.4891   -0.0644 C   0  0  0  0  0  0  0  0  0  0  0  0
    4.0864    5.4706   -0.0109 H   0  0  0  0  0  0  0  0  0  0  0  0
    3.1759    3.9776   -1.3049 C   0  0  0  0  0  0  0  0  0  0  0  0
    3.3493    4.5539   -2.2264 H   0  0  0  0  0  0  0  0  0  0  0  0
    2.5401    2.7307   -1.3693 C   0  0  0  0  0  0  0  0  0  0  0  0
    2.2176    2.3171   -2.3371 H   0  0  0  0  0  0  0  0  0  0  0  0
   -0.7411    3.1578   -1.0212 C   0  0  0  0  0  0  0  0  0  0  0  0
   -0.4671    3.2617    0.0473 H   0  0  0  0  0  0  0  0  0  0  0  0
   -1.7154    3.6616   -1.1711 H   0  0  0  0  0  0  0  0  0  0  0  0
    0.0238    3.6896   -1.6190 H   0  0  0  0  0  0  0  0  0  0  0  0
   -1.1774    1.1063   -3.3480 C   0  0  0  0  0  0  0  0  0  0  0  0
   -1.5308    0.0736   -3.5330 H   0  0  0  0  0  0  0  0  0  0  0  0
   -0.2620    1.2737   -3.9507 H   0  0  0  0  0  0  0  0  0  0  0  0
   -1.9606    1.8078   -3.6978 H   0  0  0  0  0  0  0  0  0  0  0  0
   -2.9938    1.5022    0.3009 C   0  0  0  0  0  0  0  0  0  0  0  0
   -2.6484    1.4773    1.6780 C   0  0  0  0  0  0  0  0  0  0  0  0
   -3.3510    2.3255    2.5541 C   0  0  0  0  0  0  0  0  0  0  0  0
   -3.0941    2.3145    3.6248 H   0  0  0  0  0  0  0  0  0  0  0  0
   -4.3539    3.1830    2.0829 C   0  0  0  0  0  0  0  0  0  0  0  0
   -4.8921    3.8386    2.7840 H   0  0  0  0  0  0  0  0  0  0  0  0
   -4.6671    3.2092    0.7178 C   0  0  0  0  0  0  0  0  0  0  0  0
   -5.4548    3.8831    0.3459 H   0  0  0  0  0  0  0  0  0  0  0  0
   -3.9935    2.3761   -0.1949 C   0  0  0  0  0  0  0  0  0  0  0  0
   -1.5487    0.5811    2.1861 C   0  0  0  0  0  0  0  0  0  0  0  0
   -0.6481    0.6262    1.5415 H   0  0  0  0  0  0  0  0  0  0  0  0
   -1.8499   -0.4871    2.2008 H   0  0  0  0  0  0  0  0  0  0  0  0
   -1.2542    0.8578    3.2159 H   0  0  0  0  0  0  0  0  0  0  0  0
   -4.3356    2.4107   -1.6629 C   0  0  0  0  0  0  0  0  0  0  0  0
   -4.2559    1.4080   -2.1269 H   0  0  0  0  0  0  0  0  0  0  0  0
   -3.6426    3.0707   -2.2285 H   0  0  0  0  0  0  0  0  0  0  0  0
   -5.3585    2.8012   -1.8259 H   0  0  0  0  0  0  0  0  0  0  0  0
   -2.3189   -0.7231   -0.5079 C   0  0  2  0  0  3  0  0  0  0  0  0
   -3.4904   -1.3920    0.1431 C   0  0  0  0  0  0  0  0  0  0  0  0
   -4.8106   -0.9069    0.0347 C   0  0  0  0  0  0  0  0  0  0  0  0
   -5.0170    0.0134   -0.5251 H   0  0  0  0  0  0  0  0  0  0  0  0
   -5.8713   -1.6088    0.6240 C   0  0  0  0  0  0  0  0  0  0  0  0
   -6.8983   -1.2260    0.5242 H   0  0  0  0  0  0  0  0  0  0  0  0
   -5.6256   -2.7925    1.3377 C   0  0  0  0  0  0  0  0  0  0  0  0
   -6.4598   -3.3360    1.8074 H   0  0  0  0  0  0  0  0  0  0  0  0
   -4.3136   -3.2834    1.4439 C   0  0  0  0  0  0  0  0  0  0  0  0
   -4.1143   -4.2127    1.9991 H   0  0  0  0  0  0  0  0  0  0  0  0
   -3.2520   -2.5974    0.8411 C   0  0  0  0  0  0  0  0  0  0  0  0
   -2.2184   -2.9712    0.9134 H   0  0  0  0  0  0  0  0  0  0  0  0
  1  3  1  0  0  0  0
  1 35  1  0  0  0  0
  1  4  1  0  0  0  0
  2  6  1  0  0  0  0
  4 60  1  0  0  0  0
  4 43  1  0  0  0  0
  6 14  1  0  0  0  0
  7  6  2  0  0  0  0
  7  8  1  0  0  0  0
  8 10  2  0  0  0  0
  9  8  1  0  0  0  0
 10 11  1  0  0  0  0
 10 12  1  0  0  0  0
 12 13  1  0  0  0  0
 14 12  2  0  0  0  0
 14 19  1  0  0  0  0
 15  7  1  0  0  0  0
 16 15  1  0  0  0  0
 17 15  1  0  0  0  0
 18 15  1  0  0  0  0
 19 20  1  0  0  0  0
 21 19  1  0  0  0  0
 22 19  1  0  0  0  0
 23  3  1  6  0  0  0
 23 24  1  0  0  0  0
 23  2  1  0  0  0  0
 24 25  1  0  0  0  0
 25 27  2  0  0  0  0
 25 26  1  0  0  0  0
 27 28  1  0  0  0  0
 29 30  1  0  0  0  0
 29 27  1  0  0  0  0
 31 29  2  0  0  0  0
 32 31  1  0  0  0  0
 33 31  1  0  0  0  0
 33 24  2  0  0  0  0
 34 33  1  0  0  0  0
 35 36  1  0  0  0  0
 37 35  1  0  0  0  0
 38 35  1  0  0  0  0
 39  1  1  0  0  0  0
 40 39  1  0  0  0  0
 41 39  1  0  0  0  0
 42 39  1  0  0  0  0
 43 44  1  0  0  0  0
 44 52  1  0  0  0  0
 44 45  2  0  0  0  0
 45 46  1  0  0  0  0
 47 45  1  0  0  0  0
 47 48  1  0  0  0  0
 49 47  2  0  0  0  0
 50 49  1  0  0  0  0
 51 43  2  0  0  0  0
 51 49  1  0  0  0  0
 52 54  1  0  0  0  0
 52 55  1  0  0  0  0
 53 52  1  0  0  0  0
 56 51  1  0  0  0  0
 57 56  1  0  0  0  0
 58 56  1  0  0  0  0
 59 56  1  0  0  0  0
 60  5  1  6  0  0  0
 60 61  1  0  0  0  0
 61 70  1  0  0  0  0
 62 61  2  0  0  0  0
 62 64  1  0  0  0  0
 63 62  1  0  0  0  0
 64 66  2  0  0  0  0
 65 64  1  0  0  0  0
 66 68  1  0  0  0  0
 66 67  1  0  0  0  0
 68 69  1  0  0  0  0
 70 71  1  0  0  0  0
 70 68  2  0  0  0  0
M  END
