2,3,6
q = -1.0

 26 28  0  0  1  0  0  0  0  0999 V2000
    4.4513   -0.2478   -0.0810 S   0  0  0  0  0  0  0  0  0  0  0  0
    0.1240    1.4252   -1.3641 N   0  0  0  0  0  2  0  0  0  0  0  0
    1.8905    0.1027   -0.1393 N   0  0  0  0  0  2  0  0  0  0  0  0
    2.5968   -1.6129    1.3777 N   0  0  0  0  0  0  0  0  0  0  0  0
    0.2270   -3.3899    3.4464 N   0  0  0  0  0  0  0  0  0  0  0  0
    0.1589   -1.3855    1.4232 N   0  0  0  0  0  2  0  0  0  0  0  0
   -0.9073    2.0824   -1.9438 C   0  0  0  0  0  3  0  0  0  0  0  0
   -0.7282    3.0969   -2.8867 C   0  0  0  0  0  0  0  0  0  0  0  0
    0.5765    3.4628   -3.2621 C   0  0  0  0  0  0  0  0  0  0  0  0
    1.6516    2.7926   -2.6729 C   0  0  0  0  0  0  0  0  0  0  0  0
    1.4045    1.7808   -1.7292 C   0  0  0  0  0  0  0  0  0  0  0  0
    2.4222    1.0000   -1.0432 C   0  0  0  0  0  0  0  0  0  0  0  0
    3.8002    0.9634   -1.1479 C   0  0  0  0  0  0  0  0  0  0  0  0
    2.7985   -0.6722    0.4839 C   0  0  0  0  0  0  0  0  0  0  0  0
    1.3643   -1.9368    1.8355 C   0  0  2  0  0  3  0  0  0  0  0  0
    1.3239   -2.9533    2.8545 C   0  0  0  0  0  0  0  0  0  0  0  0
   -0.9302   -2.8135    3.0416 C   0  0  0  0  0  0  0  0  0  0  0  0
   -0.9590   -1.8365    2.0533 C   0  0  0  0  0  0  0  0  0  0  0  0
   -1.9140    1.7755   -1.6294 H   0  0  0  0  0  0  0  0  0  0  0  0
   -1.6094    3.5947   -3.3152 H   0  0  0  0  0  0  0  0  0  0  0  0
    0.7498    4.2600   -3.9995 H   0  0  0  0  0  0  0  0  0  0  0  0
    2.6900    3.0448   -2.9303 H   0  0  0  0  0  0  0  0  0  0  0  0
    4.4512    1.5660   -1.7902 H   0  0  0  0  0  0  0  0  0  0  0  0
    2.2986   -3.3801    3.1481 H   0  0  0  0  0  0  0  0  0  0  0  0
   -1.8669   -3.1417    3.5213 H   0  0  0  0  0  0  0  0  0  0  0  0
   -1.9119   -1.3901    1.7425 H   0  0  0  0  0  0  0  0  0  0  0  0
  1 14  1  0  0  0  0
  3 14  1  0  0  0  0
  6 15  1  0  0  0  0
  6 18  1  0  0  0  0
  7 19  1  0  0  0  0
  7  2  1  0  0  0  0
  8  7  1  0  0  0  0
  9  8  2  0  0  0  0
  9 10  1  0  0  0  0
 10 11  2  0  0  0  0
 11  2  1  0  0  0  0
 11 12  1  0  0  0  0
 12  3  1  0  0  0  0
 13 12  2  0  0  0  0
 13  1  1  0  0  0  0
 14  4  2  0  0  0  0
 15  4  1  1  0  0  0
 15 16  1  0  0  0  0
 16 24  1  0  0  0  0
 16  5  2  0  0  0  0
 17  5  1  0  0  0  0
 17 25  1  0  0  0  0
 18 17  2  0  0  0  0
 20  8  1  0  0  0  0
 21  9  1  0  0  0  0
 22 10  1  0  0  0  0
 23 13  1  0  0  0  0
 26 18  1  0  0  0  0
M  END
