1,2,3
q = 0.0, confidence = 0.99

 81 86  0  0  1  0  0  0  0  0999 V2000
    2.7176   -0.0876    0.9755 N   0  0  0  0  0  2  0  0  0  0  0  0
    3.6133    2.3621    1.0371 N   0  0  0  0  0  2  0  0  0  0  0  0
    4.4991   -1.5173   -0.2811 N   0  0  0  0  0  2  0  0  0  0  0  0
   -3.7557   -0.4982   -0.1705 B   0  0  0  0  0  0  0  0  0  0  0  0
   -4.5579    0.7711   -0.6468 C   0  0  0  0  0  0  0  0  0  0  0  0
   -5.0084    1.7448    0.2921 C   0  0  0  0  0  0  0  0  0  0  0  0
   -5.7029    2.8822   -0.1566 C   0  0  0  0  0  0  0  0  0  0  0  0
   -6.0175    3.6410    0.5793 H   0  0  0  0  0  0  0  0  0  0  0  0
   -6.0059    3.0809   -1.5146 C   0  0  0  0  0  0  0  0  0  0  0  0
   -5.5695    2.1085   -2.4330 C   0  0  0  0  0  0  0  0  0  0  0  0
   -5.7942    2.2433   -3.5042 H   0  0  0  0  0  0  0  0  0  0  0  0
   -4.8419    0.9752   -2.0309 C   0  0  0  0  0  0  0  0  0  0  0  0
   -4.7225    1.6150    1.7733 C   0  0  0  0  0  0  0  0  0  0  0  0
   -4.8508    2.5869    2.2887 H   0  0  0  0  0  0  0  0  0  0  0  0
   -3.6934    1.2561    1.9776 H   0  0  0  0  0  0  0  0  0  0  0  0
   -5.4062    0.8867    2.2560 H   0  0  0  0  0  0  0  0  0  0  0  0
   -6.7891    4.2833   -1.9761 C   0  0  0  0  0  0  0  0  0  0  0  0
   -6.3740    4.7041   -2.9143 H   0  0  0  0  0  0  0  0  0  0  0  0
   -6.7995    5.0844   -1.2116 H   0  0  0  0  0  0  0  0  0  0  0  0
   -7.8463    4.0126   -2.1869 H   0  0  0  0  0  0  0  0  0  0  0  0
   -4.3784    0.0011   -3.0915 C   0  0  0  0  0  0  0  0  0  0  0  0
   -4.5937   -1.0519   -2.8213 H   0  0  0  0  0  0  0  0  0  0  0  0
   -3.2811    0.0618   -3.2413 H   0  0  0  0  0  0  0  0  0  0  0  0
   -4.8676    0.2095   -4.0626 H   0  0  0  0  0  0  0  0  0  0  0  0
   -2.3834   -0.8970   -0.8218 C   0  0  0  0  0  0  0  0  0  0  0  0
   -1.3659    0.0860   -1.0360 C   0  0  0  0  0  0  0  0  0  0  0  0
   -0.1364   -0.2795   -1.6130 C   0  0  0  0  0  0  0  0  0  0  0  0
    0.6586    0.4760   -1.7384 H   0  0  0  0  0  0  0  0  0  0  0  0
    0.1252   -1.5986   -2.0259 C   0  0  0  0  0  0  0  0  0  0  0  0
   -0.8787   -2.5625   -1.8153 C   0  0  0  0  0  0  0  0  0  0  0  0
   -0.6993   -3.6023   -2.1383 H   0  0  0  0  0  0  0  0  0  0  0  0
   -2.1101   -2.2433   -1.2172 C   0  0  0  0  0  0  0  0  0  0  0  0
   -1.5400    1.5351   -0.6329 C   0  0  0  0  0  0  0  0  0  0  0  0
   -0.5662    2.0620   -0.6582 H   0  0  0  0  0  0  0  0  0  0  0  0
   -1.9679    1.6451    0.3837 H   0  0  0  0  0  0  0  0  0  0  0  0
   -2.2316    2.0686   -1.3165 H   0  0  0  0  0  0  0  0  0  0  0  0
    1.4297   -1.9529   -2.6916 C   0  0  0  0  0  0  0  0  0  0  0  0
    1.3063   -1.9770   -3.7963 H   0  0  0  0  0  0  0  0  0  0  0  0
    1.7846   -2.9591   -2.3884 H   0  0  0  0  0  0  0  0  0  0  0  0
    2.2119   -1.1974   -2.4731 H   0  0  0  0  0  0  0  0  0  0  0  0
   -3.1222   -3.3559   -1.0456 C   0  0  0  0  0  0  0  0  0  0  0  0
   -2.8450   -4.2371   -1.6566 H   0  0  0  0  0  0  0  0  0  0  0  0
   -4.1460   -3.0505   -1.3393 H   0  0  0  0  0  0  0  0  0  0  0  0
   -3.1899   -3.6898    0.0101 H   0  0  0  0  0  0  0  0  0  0  0  0
   -4.4247   -1.3741    0.9669 C   0  0  0  0  0  0  0  0  0  0  0  0
   -3.6990   -1.9392    2.0657 C   0  0  0  0  0  0  0  0  0  0  0  0
   -4.3570   -2.7327    3.0337 C   0  0  0  0  0  0  0  0  0  0  0  0
   -3.7793   -3.1423    3.8753 H   0  0  0  0  0  0  0  0  0  0  0  0
   -5.7289   -2.9907    2.9200 C   0  0  0  0  0  0  0  0  0  0  0  0
   -6.2316   -3.6158    3.6734 H   0  0  0  0  0  0  0  0  0  0  0  0
   -6.4593   -2.4413    1.8537 C   0  0  0  0  0  0  0  0  0  0  0  0
   -7.5397   -2.6336    1.7680 H   0  0  0  0  0  0  0  0  0  0  0  0
   -5.8116   -1.6320    0.9083 C   0  0  0  0  0  0  0  0  0  0  0  0
   -6.3930   -1.1811    0.0882 H   0  0  0  0  0  0  0  0  0  0  0  0
   -2.3032   -1.6657    2.1718 C   0  0  0  0  0  0  0  0  0  0  0  0
   -1.1109   -1.3630    2.1254 C   0  0  0  0  0  0  0  0  0  0  0  0
    0.2177   -0.9560    1.8256 C   0  0  0  0  0  0  0  0  0  0  0  0
    0.5975    0.4012    1.9598 C   0  0  0  0  0  0  0  0  0  0  0  0
   -0.1184    1.1198    2.3778 H   0  0  0  0  0  0  0  0  0  0  0  0
    1.8635    0.8013    1.5086 C   0  0  0  0  0  0  0  0  0  0  0  0
    2.3944   -1.3850    0.8474 C   0  0  0  0  0  0  0  0  0  0  0  0
    1.1479   -1.8675    1.2720 C   0  0  0  0  0  0  0  0  0  0  0  0
    0.8539   -2.9146    1.1292 H   0  0  0  0  0  0  0  0  0  0  0  0
    2.3748    2.2014    1.5472 C   0  0  0  0  0  0  0  0  0  0  0  0
    1.6547    3.2925    2.0661 C   0  0  0  0  0  0  0  0  0  0  0  0
    0.6443    3.1597    2.4768 H   0  0  0  0  0  0  0  0  0  0  0  0
    2.2523    4.5607    2.0475 C   0  0  0  0  0  0  0  0  0  0  0  0
    1.7083    5.4315    2.4430 H   0  0  0  0  0  0  0  0  0  0  0  0
    3.5451    4.7056    1.5231 C   0  0  0  0  0  0  0  0  0  0  0  0
    4.0447    5.6846    1.4968 H   0  0  0  0  0  0  0  0  0  0  0  0
    4.1942    3.5663    1.0228 C   0  0  0  0  0  0  0  0  0  0  0  0
    5.2115    3.5879    0.5936 H   0  0  0  0  0  0  0  0  0  0  0  0
    3.4483   -2.2155    0.1991 C   0  0  2  0  0  3  0  0  0  0  0  0
    3.3921   -3.6164    0.0850 C   0  0  0  0  0  0  0  0  0  0  0  0
    2.5385   -4.1799    0.4861 H   0  0  0  0  0  0  0  0  0  0  0  0
    4.4530   -4.2819   -0.5442 C   0  0  0  0  0  0  0  0  0  0  0  0
    4.4321   -5.3771   -0.6484 H   0  0  0  0  0  0  0  0  0  0  0  0
    5.5406   -3.5403   -1.0297 C   0  0  0  0  0  0  0  0  0  0  0  0
    6.3927   -4.0304   -1.5220 H   0  0  0  0  0  0  0  0  0  0  0  0
    5.5238   -2.1466   -0.8689 C   0  0  0  0  0  0  0  0  0  0  0  0
    6.3486   -1.4887   -1.1946 H   0  0  0  0  0  0  0  0  0  0  0  0
  1 60  1  0  0  0  0
  2 64  1  0  0  0  0
  3 73  1  0  0  0  0
  4 45  1  0  0  0  0
  5  4  1  0  0  0  0
  5  6  1  0  0  0  0
  6 13  1  0  0  0  0
  7  6  2  0  0  0  0
  7  8  1  0  0  0  0
  9  7  1  0  0  0  0
 10 12  1  0  0  0  0
 10  9  2  0  0  0  0
 11 10  1  0  0  0  0
 12  5  2  0  0  0  0
 13 15  1  0  0  0  0
 13 16  1  0  0  0  0
 13 14  1  0  0  0  0
 17  9  1  0  0  0  0
 17 19  1  0  0  0  0
 18 17  1  0  0  0  0
 20 17  1  0  0  0  0
 21 22  1  0  0  0  0
 21 12  1  0  0  0  0
 23 21  1  0  0  0  0
 24 21  1  0  0  0  0
 25  4  1  0  0  0  0
 26 25  1  0  0  0  0
 26 33  1  0  0  0  0
 27 26  2  0  0  0  0
 28 27  1  0  0  0  0
 29 30  2  0  0  0  0
 29 27  1  0  0  0  0
 30 32  1  0  0  0  0
 31 30  1  0  0  0  0
 32 41  1  0  0  0  0
 32 25  2  0  0  0  0
 33 35  1  0  0  0  0
 34 33  1  0  0  0  0
 36 33  1  0  0  0  0
 37 40  1  0  0  0  0
 37 39  1  0  0  0  0
 37 29  1  0  0  0  0
 38 37  1  0  0  0  0
 41 44  1  0  0  0  0
 42 41  1  0  0  0  0
 43 41  1  0  0  0  0
 45 46  1  0  0  0  0
 46 55  1  0  0  0  0
 46 47  2  0  0  0  0
 47 48  1  0  0  0  0
 49 47  1  0  0  0  0
 49 50  1  0  0  0  0
 51 49  2  0  0  0  0
 52 51  1  0  0  0  0
 53 45  2  0  0  0  0
 53 51  1  0  0  0  0
 54 53  1  0  0  0  0
 56 55  3  0  0  0  0
 57 58  2  0  0  0  0
 57 56  1  0  0  0  0
 58 59  1  0  0  0  0
 60 64  2  0  0  0  0
 60 58  1  0  0  0  0
 61  1  1  0  0  0  0
 61 62  2  0  0  0  0
 62 57  1  0  0  0  0
 63 62  1  0  0  0  0
 64 65  1  0  0  0  0
 65 66  1  0  0  0  0
 67 65  2  0  0  0  0
 67 68  1  0  0  0  0
 69 67  1  0  0  0  0
 70 69  1  0  0  0  0
 71  2  1  0  0  0  0
 71 69  2  0  0  0  0
 72 71  1  0  0  0  0
 73 61  1  1  0  0  0
 74 73  1  0  0  0  0
 74 75  1  0  0  0  0
 76 74  2  0  0  0  0
 77 76  1  0  0  0  0
 78 80  2  0  0  0  0
 78 76  1  0  0  0  0
 79 78  1  0  0  0  0
 80  3  1  0  0  0  0
 81 80  1  0  0  0  0
M  END
