1,11,20
q = 0.0, confidence = 0.988

 44 47  0  0  1  0  0  0  0  0999 V2000
    2.2820   -1.2442   -0.0536 N   0  0  0  0  0  2  0  0  0  0  0  0
    3.3074   -0.3688    0.0645 C   0  0  0  0  0  0  0  0  0  0  0  0
    4.6340   -0.8041    0.2125 C   0  0  0  0  0  0  0  0  0  0  0  0
    5.4600   -0.0892    0.3204 H   0  0  0  0  0  0  0  0  0  0  0  0
    4.8832   -2.1834    0.2315 C   0  0  0  0  0  0  0  0  0  0  0  0
    5.9104   -2.5579    0.3520 H   0  0  0  0  0  0  0  0  0  0  0  0
    3.8157   -3.0754    0.0938 C   0  0  0  0  0  0  0  0  0  0  0  0
    3.9842   -4.1615    0.0971 H   0  0  0  0  0  0  0  0  0  0  0  0
    2.5024   -2.5773   -0.0500 C   0  0  0  0  0  0  0  0  0  0  0  0
    2.9231    1.0688    0.0089 C   0  0  0  0  0  0  0  0  0  0  0  0
    1.5963    1.3152   -0.0150 N   0  0  0  0  0  2  0  0  0  0  0  0
    1.1052    2.5668   -0.1041 C   0  0  0  0  0  0  0  0  0  0  0  0
    1.9778    3.6703   -0.1673 C   0  0  0  0  0  0  0  0  0  0  0  0
    1.5938    4.6947   -0.2504 H   0  0  0  0  0  0  0  0  0  0  0  0
    3.3590    3.4403   -0.1286 C   0  0  0  0  0  0  0  0  0  0  0  0
    4.0593    4.2869   -0.1756 H   0  0  0  0  0  0  0  0  0  0  0  0
    3.8461    2.1309   -0.0398 C   0  0  0  0  0  0  0  0  0  0  0  0
    4.9269    1.9412   -0.0224 H   0  0  0  0  0  0  0  0  0  0  0  0
   -0.3821    2.6831   -0.1206 C   0  0  1  0  0  3  0  0  0  0  0  0
   -1.0723    1.5192   -0.1417 N   0  0  0  0  0  2  0  0  0  0  0  0
   -2.4225    1.5410   -0.1052 C   0  0  0  0  0  0  0  0  0  0  0  0
   -3.1349    2.7607   -0.0923 C   0  0  0  0  0  0  0  0  0  0  0  0
   -4.2333    2.7536   -0.1025 H   0  0  0  0  0  0  0  0  0  0  0  0
   -2.4284    3.9661   -0.0910 C   0  0  0  0  0  0  0  0  0  0  0  0
   -2.9624    4.9275   -0.0850 H   0  0  0  0  0  0  0  0  0  0  0  0
   -1.0297    3.9325   -0.0929 C   0  0  0  0  0  0  0  0  0  0  0  0
   -0.4568    4.8682   -0.0662 H   0  0  0  0  0  0  0  0  0  0  0  0
   -3.1703    0.2514   -0.0336 C   0  0  0  0  0  0  0  0  0  0  0  0
   -2.7243   -0.7996   -0.7533 N   0  0  0  0  0  0  0  0  0  0  0  0
   -3.3331   -2.0009   -0.6628 C   0  0  0  0  0  0  0  0  0  0  0  0
   -2.7113   -3.1477   -1.4051 C   0  0  0  0  0  0  0  0  0  0  0  0
   -1.8180   -3.4902   -0.8409 H   0  0  0  0  0  0  0  0  0  0  0  0
   -2.3648   -2.8433   -2.4108 H   0  0  0  0  0  0  0  0  0  0  0  0
   -3.4080   -4.0001   -1.4991 H   0  0  0  0  0  0  0  0  0  0  0  0
   -4.4748   -2.1691    0.1460 C   0  0  0  0  0  0  0  0  0  0  0  0
   -4.9610   -3.1533    0.2025 H   0  0  0  0  0  0  0  0  0  0  0  0
   -4.9623   -1.0839    0.8787 C   0  0  0  0  0  0  0  0  0  0  0  0
   -5.8432   -1.1982    1.5275 H   0  0  0  0  0  0  0  0  0  0  0  0
   -4.3019    0.1482    0.7943 C   0  0  0  0  0  0  0  0  0  0  0  0
   -4.6348    1.0054    1.3950 H   0  0  0  0  0  0  0  0  0  0  0  0
    1.3117   -3.4699   -0.2049 C   0  0  0  0  0  0  0  0  0  0  0  0
    0.5977   -3.2715    0.6250 H   0  0  0  0  0  0  0  0  0  0  0  0
    1.5952   -4.5372   -0.2121 H   0  0  0  0  0  0  0  0  0  0  0  0
    0.7782   -3.2197   -1.1449 H   0  0  0  0  0  0  0  0  0  0  0  0
  1  9  1  0  0  0  0
  1  2  1  0  0  0  0
  2  3  1  0  0  0  0
  3  5  2  0  0  0  0
  3  4  1  0  0  0  0
  5  6  1  0  0  0  0
  7  8  1  0  0  0  0
  7  5  1  0  0  0  0
  9  7  2  0  0  0  0
 10  2  2  0  0  0  0
 11 10  1  0  0  0  0
 12 11  1  0  0  0  0
 13 15  1  0  0  0  0
 13 12  2  0  0  0  0
 14 13  1  0  0  0  0
 15 17  2  0  0  0  0
 16 15  1  0  0  0  0
 17 18  1  0  0  0  0
 17 10  1  0  0  0  0
 19 12  1  1  0  0  0
 19 26  1  0  0  0  0
 20 19  1  0  0  0  0
 20 21  1  0  0  0  0
 21 22  2  0  0  0  0
 21 28  1  0  0  0  0
 22 24  1  0  0  0  0
 23 22  1  0  0  0  0
 24 25  1  0  0  0  0
 26 24  2  0  0  0  0
 26 27  1  0  0  0  0
 28 39  1  0  0  0  0
 29 30  1  0  0  0  0
 29 28  2  0  0  0  0
 30 35  2  0  0  0  0
 31 32  1  0  0  0  0
 31 30  1  0  0  0  0
 33 31  1  0  0  0  0
 34 31  1  0  0  0  0
 35 36  1  0  0  0  0
 35 37  1  0  0  0  0
 37 38  1  0  0  0  0
 39 37  2  0  0  0  0
 39 40  1  0  0  0  0
 41  9  1  0  0  0  0
 41 42  1  0  0  0  0
 43 41  1  0  0  0  0
 44 41  1  0  0  0  0
M  END
