1,2,3
q = -2.0, confidence = 0.948

 40 39  0  0  0  0  0  0  0  0999 V2000
   -0.5816   -1.3727   -1.4116 N   0  0  0  0  0  2  0  0  0  0  0  0
   -2.0685    0.7528   -0.8412 N   0  0  0  0  0  0  0  0  0  0  0  0
   -0.3270    1.9048    0.7775 N   0  0  0  0  0  2  0  0  0  0  0  0
    0.2857   -2.3658   -1.8218 C   0  0  0  0  0  0  0  0  0  0  0  0
    0.0069   -3.5152   -2.4959 C   0  0  0  0  0  0  0  0  0  0  0  0
   -1.9918   -1.5783   -1.6534 C   0  0  0  0  0  0  0  0  0  0  0  0
   -2.7517   -0.5695   -0.8069 C   0  0  0  0  0  0  0  0  0  0  0  0
   -2.6417    1.6475    0.1995 C   0  0  0  0  0  0  0  0  0  0  0  0
   -1.5909    2.5964    0.7819 C   0  0  0  0  0  0  0  0  0  0  0  0
   -2.0509    1.3280   -2.2386 C   0  0  0  0  0  0  0  0  0  0  0  0
   -3.4425    1.4692   -2.8691 C   0  0  0  0  0  0  0  0  0  0  0  0
   -1.2846    2.6504   -2.3271 C   0  0  0  0  0  0  0  0  0  0  0  0
    0.7972    2.5136    1.4859 C   0  0  0  0  0  0  0  0  0  0  0  0
    1.1915    3.8910    0.9256 C   0  0  0  0  0  0  0  0  0  0  0  0
    0.6078    2.5661    3.0114 C   0  0  0  0  0  0  0  0  0  0  0  0
    1.3384   -2.1790   -1.5337 H   0  0  0  0  0  0  0  0  0  0  0  0
    0.8185   -4.2151   -2.7366 H   0  0  0  0  0  0  0  0  0  0  0  0
   -1.0077   -3.7795   -2.8273 H   0  0  0  0  0  0  0  0  0  0  0  0
   -2.3069   -2.6026   -1.3445 H   0  0  0  0  0  0  0  0  0  0  0  0
   -2.2410   -1.4966   -2.7406 H   0  0  0  0  0  0  0  0  0  0  0  0
   -2.7361   -0.9073    0.2479 H   0  0  0  0  0  0  0  0  0  0  0  0
   -3.8190   -0.4905   -1.1106 H   0  0  0  0  0  0  0  0  0  0  0  0
   -2.9945    0.9805    1.0094 H   0  0  0  0  0  0  0  0  0  0  0  0
   -3.5295    2.1992   -0.1818 H   0  0  0  0  0  0  0  0  0  0  0  0
   -1.9228    2.8792    1.8107 H   0  0  0  0  0  0  0  0  0  0  0  0
   -1.5480    3.5548    0.2108 H   0  0  0  0  0  0  0  0  0  0  0  0
   -1.4793    0.5808   -2.8285 H   0  0  0  0  0  0  0  0  0  0  0  0
   -3.9729    0.5028   -2.9644 H   0  0  0  0  0  0  0  0  0  0  0  0
   -3.3380    1.8878   -3.8892 H   0  0  0  0  0  0  0  0  0  0  0  0
   -4.0871    2.1657   -2.2940 H   0  0  0  0  0  0  0  0  0  0  0  0
   -1.0840    2.8818   -3.3912 H   0  0  0  0  0  0  0  0  0  0  0  0
   -1.8665    3.4942   -1.9076 H   0  0  0  0  0  0  0  0  0  0  0  0
   -0.3129    2.6023   -1.7982 H   0  0  0  0  0  0  0  0  0  0  0  0
    1.6680    1.8319    1.3072 H   0  0  0  0  0  0  0  0  0  0  0  0
    1.3465    3.8445   -0.1708 H   0  0  0  0  0  0  0  0  0  0  0  0
    0.4036    4.6456    1.1281 H   0  0  0  0  0  0  0  0  0  0  0  0
    2.1279    4.2582    1.3922 H   0  0  0  0  0  0  0  0  0  0  0  0
   -0.2444    3.2206    3.2882 H   0  0  0  0  0  0  0  0  0  0  0  0
    1.5117    2.9724    3.5084 H   0  0  0  0  0  0  0  0  0  0  0  0
    0.4142    1.5567    3.4230 H   0  0  0  0  0  0  0  0  0  0  0  0
  2  7  1  0  0  0  0
  2  8  1  0  0  0  0
  3  9  1  0  0  0  0
  3 13  1  0  0  0  0
  4 16  1  0  0  0  0
  4  1  1  0  0  0  0
  5  4  2  0  0  0  0
  6  1  1  0  0  0  0
  6 19  1  0  0  0  0
  6  7  1  0  0  0  0
  7 21  1  0  0  0  0
  8  9  1  0  0  0  0
  8 23  1  0  0  0  0
  9 25  1  0  0  0  0
 10  2  1  0  0  0  0
 11 30  1  0  0  0  0
 11 10  1  0  0  0  0
 12 10  1  0  0  0  0
 12 32  1  0  0  0  0
 12 33  1  0  0  0  0
 13 15  1  0  0  0  0
 14 36  1  0  0  0  0
 14 37  1  0  0  0  0
 14 13  1  0  0  0  0
 15 38  1  0  0  0  0
 15 40  1  0  0  0  0
 15 39  1  0  0  0  0
 17  5  1  0  0  0  0
 18  5  1  0  0  0  0
 20  6  1  0  0  0  0
 22  7  1  0  0  0  0
 24  8  1  0  0  0  0
 26  9  1  0  0  0  0
 27 10  1  0  0  0  0
 28 11  1  0  0  0  0
 29 11  1  0  0  0  0
 31 12  1  0  0  0  0
 34 13  1  0  0  0  0
 35 14  1  0  0  0  0
M  END
