3,4,5
q = 0.0, confidence = 0.994

 43 47  0  0  0  0  0  0  0  0999 V2000
   -4.1187    0.6149    0.0003 S   0  0  0  0  0  0  0  0  0  0  0  0
   -8.2328   -0.9815    0.0006 S   0  0  0  0  0  0  0  0  0  0  0  0
    3.0890   -1.8651    0.0001 N   0  0  0  0  0  2  0  0  0  0  0  0
    1.1869   -0.1137   -0.0002 N   0  0  0  0  0  2  0  0  0  0  0  0
    2.5071    2.1094   -0.0000 N   0  0  0  0  0  2  0  0  0  0  0  0
    1.8103   -2.3927   -0.0001 C   0  0  0  0  0  0  0  0  0  0  0  0
    1.6258   -3.7817   -0.0002 C   0  0  0  0  0  0  0  0  0  0  0  0
    0.6086   -4.1960   -0.0004 H   0  0  0  0  0  0  0  0  0  0  0  0
    2.7410   -4.6307   -0.0002 C   0  0  0  0  0  0  0  0  0  0  0  0
    2.6039   -5.7218   -0.0003 H   0  0  0  0  0  0  0  0  0  0  0  0
    4.0270   -4.0722    0.0000 C   0  0  0  0  0  0  0  0  0  0  0  0
    4.9269   -4.7029    0.0001 H   0  0  0  0  0  0  0  0  0  0  0  0
    4.1650   -2.6800    0.0001 C   0  0  0  0  0  3  0  0  0  0  0  0
    5.1395   -2.1660    0.0003 H   0  0  0  0  0  0  0  0  0  0  0  0
    0.7189   -1.3950   -0.0002 C   0  0  0  0  0  0  0  0  0  0  0  0
   -0.6566   -1.6186   -0.0002 C   0  0  0  0  0  0  0  0  0  0  0  0
   -1.0387   -2.6468   -0.0001 H   0  0  0  0  0  0  0  0  0  0  0  0
   -1.5649   -0.5178   -0.0002 C   0  0  0  0  0  0  0  0  0  0  0  0
   -1.0096    0.7968   -0.0003 C   0  0  0  0  0  0  0  0  0  0  0  0
   -1.6739    1.6719   -0.0003 H   0  0  0  0  0  0  0  0  0  0  0  0
    0.3725    0.9785   -0.0002 C   0  0  0  0  0  0  0  0  0  0  0  0
    1.1308    2.2477   -0.0002 C   0  0  0  0  0  0  0  0  0  0  0  0
    0.5540    3.5245   -0.0003 C   0  0  0  0  0  0  0  0  0  0  0  0
   -0.5396    3.6279   -0.0005 H   0  0  0  0  0  0  0  0  0  0  0  0
    1.3781    4.6583   -0.0003 C   0  0  0  0  0  0  0  0  0  0  0  0
    0.9332    5.6639   -0.0004 H   0  0  0  0  0  0  0  0  0  0  0  0
    2.7703    4.4931   -0.0001 C   0  0  0  0  0  0  0  0  0  0  0  0
    3.4509    5.3558   -0.0001 H   0  0  0  0  0  0  0  0  0  0  0  0
    3.3032    3.1993    0.0000 C   0  0  0  0  0  0  0  0  0  0  0  0
    4.3844    2.9876    0.0002 H   0  0  0  0  0  0  0  0  0  0  0  0
   -2.9933   -0.7344   -0.0002 C   0  0  0  0  0  0  0  0  0  0  0  0
   -3.6988   -1.9458   -0.0006 C   0  0  0  0  0  0  0  0  0  0  0  0
   -3.2108   -2.9295   -0.0010 H   0  0  0  0  0  0  0  0  0  0  0  0
   -5.0964   -1.7885   -0.0005 C   0  0  0  0  0  0  0  0  0  0  0  0
   -5.8093   -2.6242   -0.0009 H   0  0  0  0  0  0  0  0  0  0  0  0
   -5.5072   -0.4459   -0.0001 C   0  0  0  0  0  0  0  0  0  0  0  0
   -6.8430    0.0895   -0.0000 C   0  0  0  0  0  0  0  0  0  0  0  0
   -7.2571    1.4254   -0.0003 C   0  0  0  0  0  0  0  0  0  0  0  0
   -6.5516    2.2683   -0.0007 H   0  0  0  0  0  0  0  0  0  0  0  0
   -8.6674    1.5711   -0.0001 C   0  0  0  0  0  0  0  0  0  0  0  0
   -9.1899    2.5367   -0.0002 H   0  0  0  0  0  0  0  0  0  0  0  0
   -9.3265    0.3507    0.0004 C   0  0  0  0  0  0  0  0  0  0  0  0
  -10.4075    0.1627    0.0006 H   0  0  0  0  0  0  0  0  0  0  0  0
  3 13  1  0  0  0  0
  4 15  1  0  0  0  0
  5 29  1  0  0  0  0
  6  3  1  0  0  0  0
  7  9  1  0  0  0  0
  7  6  2  0  0  0  0
  8  7  1  0  0  0  0
  9 11  2  0  0  0  0
 10  9  1  0  0  0  0
 11 12  1  0  0  0  0
 11 13  1  0  0  0  0
 13 14  1  0  0  0  0
 15 16  2  0  0  0  0
 15  6  1  0  0  0  0
 16 17  1  0  0  0  0
 18 16  1  0  0  0  0
 19 18  2  0  0  0  0
 19 21  1  0  0  0  0
 20 19  1  0  0  0  0
 21  4  1  0  0  0  0
 21 22  2  0  0  0  0
 22  5  1  0  0  0  0
 23 25  2  0  0  0  0
 23 22  1  0  0  0  0
 24 23  1  0  0  0  0
 25 27  1  0  0  0  0
 26 25  1  0  0  0  0
 27 28  1  0  0  0  0
 27 29  2  0  0  0  0
 29 30  1  0  0  0  0
 31 18  1  0  0  0  0
 31  1  1  0  0  0  0
 32 34  1  0  0  0  0
 32 31  2  0  0  0  0
 33 32  1  0  0  0  0
 34 36  2  0  0  0  0
 35 34  1  0  0  0  0
 36 37  1  0  0  0  0
 36  1  1  0  0  0  0
 37  2  1  0  0  0  0
 38 40  1  0  0  0  0
 38 37  2  0  0  0  0
 39 38  1  0  0  0  0
 40 42  2  0  0  0  0
 41 40  1  0  0  0  0
 42 43  1  0  0  0  0
 42  2  1  0  0  0  0
M  END
