1,31,33
q = -1.0

 53 54  0  0  1  0  0  0  0  0999 V2000
    0.6212    1.9623   -0.3073 N   0  0  0  0  0  2  0  0  0  0  0  0
    3.0609   -1.4394   -1.2382 N   0  0  0  0  0  0  0  0  0  0  0  0
    2.2892    0.2901    0.3958 C   0  0  2  0  0  0  0  0  0  0  0  0
    3.3707    0.3292    0.6050 H   0  0  0  0  0  0  0  0  0  0  0  0
    4.4232   -1.4216   -0.7844 C   0  0  0  0  0  0  0  0  0  0  0  0
    4.6631   -0.5752   -0.0768 H   0  0  0  0  0  0  0  0  0  0  0  0
    2.7741    2.6742   -0.2936 C   0  0  2  0  0  3  0  0  0  0  0  0
    1.1537   -0.3463    3.7861 C   0  0  0  0  0  0  0  0  0  0  0  0
    1.2267   -0.5040    4.8672 H   0  0  0  0  0  0  0  0  0  0  0  0
   -0.5774    3.9579   -1.2170 C   0  0  0  0  0  0  0  0  0  0  0  0
   -1.4755    3.6341   -0.6639 H   0  0  0  0  0  0  0  0  0  0  0  0
   -0.7690    3.7788   -2.2953 H   0  0  0  0  0  0  0  0  0  0  0  0
   -0.4500    5.0483   -1.0784 H   0  0  0  0  0  0  0  0  0  0  0  0
    0.6460    3.2311   -0.7618 C   0  0  0  0  0  0  0  0  0  0  0  0
   -1.4635   -0.2783    3.4321 C   0  0  0  0  0  0  0  0  0  0  0  0
   -1.6727    0.5260    4.1662 H   0  0  0  0  0  0  0  0  0  0  0  0
   -1.7224   -1.2425    3.9146 H   0  0  0  0  0  0  0  0  0  0  0  0
   -2.1136   -0.1365    2.5463 H   0  0  0  0  0  0  0  0  0  0  0  0
    0.3933   -2.9691   -2.3371 C   0  0  0  0  0  0  0  0  0  0  0  0
    1.2418   -3.4015   -1.7724 H   0  0  0  0  0  0  0  0  0  0  0  0
    0.3469   -3.4688   -3.3271 H   0  0  0  0  0  0  0  0  0  0  0  0
   -0.5481   -3.1943   -1.7982 H   0  0  0  0  0  0  0  0  0  0  0  0
    2.2209   -0.2003    2.8981 C   0  0  1  0  0  3  0  0  0  0  0  0
   -0.0315   -0.2469    3.0083 C   0  0  0  0  0  0  0  0  0  0  0  0
    0.5989   -1.4571   -2.5025 C   0  0  0  0  0  0  0  0  0  0  0  0
    1.5382   -1.3303   -3.0890 H   0  0  0  0  0  0  0  0  0  0  0  0
    4.7339   -2.7207   -0.0198 C   0  0  0  0  0  0  0  0  0  0  0  0
    4.0724   -2.8210    0.8653 H   0  0  0  0  0  0  0  0  0  0  0  0
    5.7900   -2.7546    0.3198 H   0  0  0  0  0  0  0  0  0  0  0  0
    4.5426   -3.5958   -0.6736 H   0  0  0  0  0  0  0  0  0  0  0  0
    0.8099   -0.7643   -1.2261 N   0  0  0  0  0  2  0  0  0  0  0  0
    1.6526   -0.0445    1.6586 N   0  0  0  0  0  0  0  0  0  0  0  0
    0.3026   -0.0739    1.7186 N   0  0  0  0  0  2  0  0  0  0  0  0
    1.9140    1.6408   -0.0216 N   0  0  0  0  0  0  0  0  0  0  0  0
    2.0725   -0.7423   -0.7474 C   0  0  0  0  0  0  0  0  0  0  0  0
    1.9795    3.7149   -0.7686 C   0  0  0  0  0  0  0  0  0  0  0  0
    2.3213    4.7068   -1.0819 H   0  0  0  0  0  0  0  0  0  0  0  0
   -0.5559   -0.7889   -3.2526 C   0  0  0  0  0  0  0  0  0  0  0  0
   -1.4910   -0.8255   -2.6547 H   0  0  0  0  0  0  0  0  0  0  0  0
   -0.7518   -1.2914   -4.2215 H   0  0  0  0  0  0  0  0  0  0  0  0
   -0.3285    0.2778   -3.4558 H   0  0  0  0  0  0  0  0  0  0  0  0
    4.2512    2.5911   -0.0922 C   0  0  0  0  0  0  0  0  0  0  0  0
    4.5209    2.3860    0.9651 H   0  0  0  0  0  0  0  0  0  0  0  0
    4.7176    3.5527   -0.3732 H   0  0  0  0  0  0  0  0  0  0  0  0
    4.7128    1.7963   -0.7152 H   0  0  0  0  0  0  0  0  0  0  0  0
    3.6963   -0.1962    3.1264 C   0  0  0  0  0  0  0  0  0  0  0  0
    4.2134   -0.9665    2.5176 H   0  0  0  0  0  0  0  0  0  0  0  0
    3.9099   -0.4051    4.1903 H   0  0  0  0  0  0  0  0  0  0  0  0
    4.1531    0.7861    2.8818 H   0  0  0  0  0  0  0  0  0  0  0  0
    5.3611   -1.2452   -1.9890 C   0  0  0  0  0  0  0  0  0  0  0  0
    5.1935   -2.0649   -2.7166 H   0  0  0  0  0  0  0  0  0  0  0  0
    6.4275   -1.2515   -1.6823 H   0  0  0  0  0  0  0  0  0  0  0  0
    5.1469   -0.2902   -2.5105 H   0  0  0  0  0  0  0  0  0  0  0  0
  1 34  1  0  0  0  0
  2  5  1  0  0  0  0
  2 35  2  0  0  0  0
  3  4  1  1  0  0  0
  3 32  1  0  0  0  0
  5  6  1  0  0  0  0
  5 27  1  0  0  0  0
  7 42  1  6  0  0  0
  7 34  1  0  0  0  0
  8  9  1  0  0  0  0
 10 13  1  0  0  0  0
 10 14  1  0  0  0  0
 10 11  1  0  0  0  0
 12 10  1  0  0  0  0
 14  1  1  0  0  0  0
 15 17  1  0  0  0  0
 15 16  1  0  0  0  0
 18 15  1  0  0  0  0
 19 22  1  0  0  0  0
 19 20  1  0  0  0  0
 21 19  1  0  0  0  0
 23 46  1  1  0  0  0
 23  8  1  0  0  0  0
 24 15  1  0  0  0  0
 24  8  2  0  0  0  0
 25 19  1  0  0  0  0
 25 31  1  0  0  0  0
 26 25  1  0  0  0  0
 27 29  1  0  0  0  0
 27 28  1  0  0  0  0
 30 27  1  0  0  0  0
 31 35  1  0  0  0  0
 32 33  1  0  0  0  0
 32 23  1  0  0  0  0
 33 24  1  0  0  0  0
 34  3  1  0  0  0  0
 35  3  1  0  0  0  0
 36 14  2  0  0  0  0
 36  7  1  0  0  0  0
 37 36  1  0  0  0  0
 38 39  1  0  0  0  0
 38 25  1  0  0  0  0
 40 38  1  0  0  0  0
 41 38  1  0  0  0  0
 42 43  1  0  0  0  0
 44 42  1  0  0  0  0
 45 42  1  0  0  0  0
 46 48  1  0  0  0  0
 47 46  1  0  0  0  0
 49 46  1  0  0  0  0
 50 52  1  0  0  0  0
 50  5  1  0  0  0  0
 51 50  1  0  0  0  0
 53 50  1  0  0  0  0
M  END
