1,2,5
q = 0.0, confidence = 0.992

 21 21  0  0  1  0  0  0  0  0999 V2000
    1.2099    0.0000   -0.0002 N   0  0  0  0  0  2  0  0  0  0  0  0
   -0.4847   -2.0414   -0.2462 N   0  0  0  0  0  0  0  0  0  0  0  0
   -1.1812   -2.6012    0.2719 H   0  0  0  0  0  0  0  0  0  0  0  0
   -0.6243   -2.2660   -1.2453 H   0  0  0  0  0  0  0  0  0  0  0  0
   -0.4840    2.0417    0.2461 N   0  0  0  0  0  0  0  0  0  0  0  0
   -0.6240    2.2664    1.2451 H   0  0  0  0  0  0  0  0  0  0  0  0
   -1.1801    2.6017   -0.2722 H   0  0  0  0  0  0  0  0  0  0  0  0
    1.8497   -1.1970    0.0450 C   0  0  1  0  0  3  0  0  0  0  0  0
    3.2476   -1.2223    0.0282 C   0  0  0  0  0  0  0  0  0  0  0  0
    3.7881   -2.1794    0.0494 H   0  0  0  0  0  0  0  0  0  0  0  0
    3.9448   -0.0006   -0.0000 C   0  0  0  0  0  0  0  0  0  0  0  0
    5.0443   -0.0008   -0.0000 H   0  0  0  0  0  0  0  0  0  0  0  0
    3.2481    1.2214   -0.0282 C   0  0  0  0  0  0  0  0  0  0  0  0
    3.7890    2.1782   -0.0494 H   0  0  0  0  0  0  0  0  0  0  0  0
    1.8503    1.1968   -0.0451 C   0  0  0  0  0  0  0  0  0  0  0  0
    0.9170   -2.3843    0.1936 C   0  0  0  0  0  0  0  0  0  0  0  0
    1.2977   -3.2739   -0.3474 H   0  0  0  0  0  0  0  0  0  0  0  0
    0.8648   -2.6506    1.2702 H   0  0  0  0  0  0  0  0  0  0  0  0
    0.9180    2.3845   -0.1931 C   0  0  0  0  0  0  0  0  0  0  0  0
    1.2988    3.2734    0.3488 H   0  0  0  0  0  0  0  0  0  0  0  0
    0.8661    2.6518   -1.2694 H   0  0  0  0  0  0  0  0  0  0  0  0
  1  8  1  0  0  0  0
  2 16  1  0  0  0  0
  2  3  1  0  0  0  0
  4  2  1  0  0  0  0
  5  6  1  0  0  0  0
  7  5  1  0  0  0  0
  8 16  1  1  0  0  0
  9  8  1  0  0  0  0
  9 10  1  0  0  0  0
 11 12  1  0  0  0  0
 11  9  2  0  0  0  0
 13 11  1  0  0  0  0
 14 13  1  0  0  0  0
 15 13  2  0  0  0  0
 15  1  1  0  0  0  0
 16 18  1  0  0  0  0
 17 16  1  0  0  0  0
 19 15  1  0  0  0  0
 19  5  1  0  0  0  0
 19 20  1  0  0  0  0
 21 19  1  0  0  0  0
M  END
