1,3,5
q = -1.0

 62 64  0  0  1  0  0  0  0  0999 V2000
   -1.2014    1.5426   -0.4260 N   0  0  0  0  0  2  0  0  0  0  0  0
   -2.4773    1.0990   -0.3420 N   0  0  0  0  0  0  0  0  0  0  0  0
   -0.7615   -0.3049    1.7284 N   0  0  0  0  0  2  0  0  0  0  0  0
   -2.0960   -0.4793    1.5997 N   0  0  0  0  0  0  0  0  0  0  0  0
   -0.7970   -1.4229   -0.9179 N   0  0  0  0  0  2  0  0  0  0  0  0
   -2.1393   -1.3793   -0.7580 N   0  0  0  0  0  0  0  0  0  0  0  0
   -0.0703    4.6689   -1.8031 O   0  0  0  0  0  0  0  0  0  0  0  0
    1.0383    3.1518   -0.5107 O   0  0  0  0  0  0  0  0  0  0  0  0
    1.2783   -0.6756    4.6617 O   0  0  0  0  0  0  0  0  0  0  0  0
    1.7549    0.0377    2.5390 O   0  0  0  0  0  0  0  0  0  0  0  0
    1.0768   -3.6981   -2.9916 O   0  0  0  0  0  0  0  0  0  0  0  0
    1.7774   -2.2073   -1.4105 O   0  0  0  0  0  0  0  0  0  0  0  0
   -4.8299    1.8590   -0.8374 C   0  0  0  0  0  0  0  0  0  0  0  0
   -5.2452    1.6697    0.1731 H   0  0  0  0  0  0  0  0  0  0  0  0
   -5.1192    1.0004   -1.4770 H   0  0  0  0  0  0  0  0  0  0  0  0
   -5.3149    2.7653   -1.2437 H   0  0  0  0  0  0  0  0  0  0  0  0
   -3.3489    2.0519   -0.8033 C   0  0  1  0  0  3  0  0  0  0  0  0
   -2.5825    3.1517   -1.1988 C   0  0  0  0  0  0  0  0  0  0  0  0
   -2.9299    4.1025   -1.6130 H   0  0  0  0  0  0  0  0  0  0  0  0
   -1.2435    2.7887   -0.9368 C   0  0  0  0  0  0  0  0  0  0  0  0
   -0.0462    3.6389   -1.1530 C   0  0  0  0  0  0  0  0  0  0  0  0
    2.2727    3.8940   -0.6877 C   0  0  0  0  0  0  0  0  0  0  0  0
    2.0318    4.9764   -0.6724 H   0  0  0  0  0  0  0  0  0  0  0  0
    2.6708    3.6524   -1.6960 H   0  0  0  0  0  0  0  0  0  0  0  0
    3.2388    3.4882    0.4057 C   0  0  0  0  0  0  0  0  0  0  0  0
    4.1756    4.0710    0.3037 H   0  0  0  0  0  0  0  0  0  0  0  0
    3.4858    2.4121    0.3314 H   0  0  0  0  0  0  0  0  0  0  0  0
    2.8101    3.6907    1.4077 H   0  0  0  0  0  0  0  0  0  0  0  0
   -4.1163   -1.0554    2.9932 C   0  0  0  0  0  0  0  0  0  0  0  0
   -4.4663   -1.9078    2.3763 H   0  0  0  0  0  0  0  0  0  0  0  0
   -4.7258   -0.1735    2.7097 H   0  0  0  0  0  0  0  0  0  0  0  0
   -4.3252   -1.2907    4.0528 H   0  0  0  0  0  0  0  0  0  0  0  0
   -2.6556   -0.8017    2.8103 C   0  0  1  0  0  3  0  0  0  0  0  0
   -1.6189   -0.8334    3.7488 C   0  0  0  0  0  0  0  0  0  0  0  0
   -1.6853   -1.0538    4.8181 H   0  0  0  0  0  0  0  0  0  0  0  0
   -0.4519   -0.5127    3.0226 C   0  0  0  0  0  0  0  0  0  0  0  0
    0.9388   -0.4057    3.5237 C   0  0  0  0  0  0  0  0  0  0  0  0
    3.1708    0.1343    2.8239 C   0  0  0  0  0  0  0  0  0  0  0  0
    3.2990    0.2288    3.9205 H   0  0  0  0  0  0  0  0  0  0  0  0
    3.4968    1.0660    2.3241 H   0  0  0  0  0  0  0  0  0  0  0  0
    3.9011   -1.0740    2.2663 C   0  0  0  0  0  0  0  0  0  0  0  0
    4.9922   -0.9648    2.4297 H   0  0  0  0  0  0  0  0  0  0  0  0
    3.7145   -1.1548    1.1784 H   0  0  0  0  0  0  0  0  0  0  0  0
    3.5709   -2.0058    2.7676 H   0  0  0  0  0  0  0  0  0  0  0  0
   -4.2248   -2.5646   -1.5335 C   0  0  0  0  0  0  0  0  0  0  0  0
   -4.7591   -1.6638   -1.8984 H   0  0  0  0  0  0  0  0  0  0  0  0
   -4.6299   -2.8013   -0.5287 H   0  0  0  0  0  0  0  0  0  0  0  0
   -4.4706   -3.4043   -2.2089 H   0  0  0  0  0  0  0  0  0  0  0  0
   -2.7456   -2.3580   -1.5028 C   0  0  2  0  0  3  0  0  0  0  0  0
   -1.7320   -3.0563   -2.1651 C   0  0  0  0  0  0  0  0  0  0  0  0
   -1.8313   -3.9087   -2.8433 H   0  0  0  0  0  0  0  0  0  0  0  0
   -0.5280   -2.4388   -1.7624 C   0  0  0  0  0  0  0  0  0  0  0  0
    0.8438   -2.8542   -2.1440 C   0  0  0  0  0  0  0  0  0  0  0  0
    3.1638   -2.5372   -1.6791 C   0  0  0  0  0  0  0  0  0  0  0  0
    3.2669   -2.7629   -2.7588 H   0  0  0  0  0  0  0  0  0  0  0  0
    3.7211   -1.6106   -1.4442 H   0  0  0  0  0  0  0  0  0  0  0  0
    3.6166   -3.7086   -0.8253 C   0  0  0  0  0  0  0  0  0  0  0  0
    4.6970   -3.8967   -0.9885 H   0  0  0  0  0  0  0  0  0  0  0  0
    3.0635   -4.6297   -1.0938 H   0  0  0  0  0  0  0  0  0  0  0  0
    3.4628   -3.4978    0.2517 H   0  0  0  0  0  0  0  0  0  0  0  0
   -2.7633   -0.3270    0.2020 B   0  0  2  0  0  0  0  0  0  0  0  0
   -3.9594   -0.5051    0.2906 H   0  0  0  0  0  0  0  0  0  0  0  0
  1  2  1  0  0  0  0
  2 61  1  0  0  0  0
  3 36  1  0  0  0  0
  4  3  1  0  0  0  0
  4 33  1  0  0  0  0
  5  6  1  0  0  0  0
  6 61  1  0  0  0  0
  7 21  2  0  0  0  0
 10 38  1  0  0  0  0
 10 37  1  0  0  0  0
 11 53  2  0  0  0  0
 13 14  1  0  0  0  0
 15 13  1  0  0  0  0
 16 13  1  0  0  0  0
 17 13  1  1  0  0  0
 17  2  1  0  0  0  0
 18 20  2  0  0  0  0
 18 17  1  0  0  0  0
 19 18  1  0  0  0  0
 20  1  1  0  0  0  0
 21 20  1  0  0  0  0
 21  8  1  0  0  0  0
 22 23  1  0  0  0  0
 22  8  1  0  0  0  0
 22 25  1  0  0  0  0
 24 22  1  0  0  0  0
 25 28  1  0  0  0  0
 26 25  1  0  0  0  0
 27 25  1  0  0  0  0
 29 32  1  0  0  0  0
 30 29  1  0  0  0  0
 31 29  1  0  0  0  0
 33 29  1  6  0  0  0
 33 34  1  0  0  0  0
 34 35  1  0  0  0  0
 36 37  1  0  0  0  0
 36 34  2  0  0  0  0
 37  9  2  0  0  0  0
 38 39  1  0  0  0  0
 40 38  1  0  0  0  0
 41 42  1  0  0  0  0
 41 44  1  0  0  0  0
 41 38  1  0  0  0  0
 43 41  1  0  0  0  0
 45 47  1  0  0  0  0
 46 45  1  0  0  0  0
 48 45  1  0  0  0  0
 49 45  1  1  0  0  0
 49  6  1  0  0  0  0
 50 52  2  0  0  0  0
 50 49  1  0  0  0  0
 51 50  1  0  0  0  0
 52  5  1  0  0  0  0
 53 52  1  0  0  0  0
 53 12  1  0  0  0  0
 54 56  1  0  0  0  0
 54 12  1  0  0  0  0
 54 57  1  0  0  0  0
 55 54  1  0  0  0  0
 57 60  1  0  0  0  0
 58 57  1  0  0  0  0
 59 57  1  0  0  0  0
 61 62  1  1  0  0  0
 61  4  1  0  0  0  0
M  END
