8,12,31
q = 0.0, confidence = 0.958

 56 58  0  0  1  0  0  0  0  0999 V2000
   -7.4183    0.8665    0.7693 O   0  0  0  0  0  0  0  0  0  0  0  0
   -7.7315    1.6422    0.2623 H   0  0  0  0  0  0  0  0  0  0  0  0
   -5.9994    2.3567   -1.1658 O   0  0  0  0  0  0  0  0  0  0  0  0
   -5.3494    3.0426   -1.4092 H   0  0  0  0  0  0  0  0  0  0  0  0
   -4.5674   -1.3004    0.1152 O   0  0  0  0  0  0  0  0  0  0  0  0
   -3.1623    1.7943   -1.3339 O   0  0  0  0  0  0  0  0  0  0  0  0
   -2.7495    1.5669   -2.1861 H   0  0  0  0  0  0  0  0  0  0  0  0
    0.3688   -0.5827    0.0140 N   0  0  0  0  0  0  0  0  0  0  0  0
   -2.5330   -0.9732   -0.8753 O   0  0  0  0  0  0  0  0  0  0  0  0
   -7.5564   -2.1833    0.2712 O   0  0  0  0  0  0  0  0  0  0  0  0
   -8.2418   -1.4881    0.2862 H   0  0  0  0  0  0  0  0  0  0  0  0
    2.2071    1.3549   -0.9170 N   0  0  0  0  0  2  0  0  0  0  0  0
   -6.3293    0.3406    0.0398 C   0  0  2  0  0  0  0  0  0  0  0  0
   -6.6721   -0.1626   -0.8968 H   0  0  0  0  0  0  0  0  0  0  0  0
   -4.1372    0.7780   -1.0647 C   0  0  2  0  0  0  0  0  0  0  0  0
   -4.5001    0.3182   -2.0096 H   0  0  0  0  0  0  0  0  0  0  0  0
   -5.6467   -0.7422    0.8817 C   0  0  1  0  0  0  0  0  0  0  0  0
   -5.2351   -0.2789    1.8137 H   0  0  0  0  0  0  0  0  0  0  0  0
   -5.3248    1.4207   -0.3505 C   0  0  1  0  0  0  0  0  0  0  0  0
   -4.9493    1.9040    0.5880 H   0  0  0  0  0  0  0  0  0  0  0  0
    0.4787    3.0336   -1.0351 C   0  0  0  0  0  0  0  0  0  0  0  0
   -0.5955    3.2686   -0.9940 H   0  0  0  0  0  0  0  0  0  0  0  0
   -3.5765   -0.3503   -0.1880 C   0  0  1  0  0  0  0  0  0  0  0  0
   -3.1907    0.1027    0.7751 H   0  0  0  0  0  0  0  0  0  0  0  0
   -1.8186   -1.9454   -0.1209 C   0  0  0  0  0  0  0  0  0  0  0  0
   -2.1544   -2.9702   -0.3941 H   0  0  0  0  0  0  0  0  0  0  0  0
   -2.0356   -1.8317    0.9648 H   0  0  0  0  0  0  0  0  0  0  0  0
    0.8922    1.7011   -0.8916 C   0  0  1  0  0  3  0  0  0  0  0  0
    2.7962    3.6618   -1.2865 C   0  0  0  0  0  0  0  0  0  0  0  0
    3.5876    4.4062   -1.4513 H   0  0  0  0  0  0  0  0  0  0  0  0
    2.5006    0.2789    1.6518 N   0  0  0  0  0  2  0  0  0  0  0  0
   -6.6316   -1.8515    1.2803 C   0  0  0  0  0  0  0  0  0  0  0  0
   -6.0366   -2.7612    1.5066 H   0  0  0  0  0  0  0  0  0  0  0  0
   -7.1317   -1.5343    2.2233 H   0  0  0  0  0  0  0  0  0  0  0  0
    3.3637    1.6835    3.4100 C   0  0  0  0  0  0  0  0  0  0  0  0
    4.2393    2.1382    3.8939 H   0  0  0  0  0  0  0  0  0  0  0  0
   -0.3251   -1.8521   -0.4106 C   0  0  0  0  0  0  0  0  0  0  0  0
    0.1874   -2.6924    0.0968 H   0  0  0  0  0  0  0  0  0  0  0  0
   -0.1444   -1.9696   -1.4963 H   0  0  0  0  0  0  0  0  0  0  0  0
   -0.0982    0.5751   -0.8119 C   0  0  0  0  0  0  0  0  0  0  0  0
   -0.2478    0.1842   -1.8403 H   0  0  0  0  0  0  0  0  0  0  0  0
   -1.0883    0.9476   -0.4848 H   0  0  0  0  0  0  0  0  0  0  0  0
    0.9898    1.2849    3.2368 C   0  0  0  0  0  0  0  0  0  0  0  0
   -0.0426    1.4249    3.5882 H   0  0  0  0  0  0  0  0  0  0  0  0
    1.2400    0.4661    2.1268 C   0  0  2  0  0  3  0  0  0  0  0  0
    0.1525   -0.3429    1.4700 C   0  0  0  0  0  0  0  0  0  0  0  0
    0.1450   -1.3386    1.9642 H   0  0  0  0  0  0  0  0  0  0  0  0
   -0.8396    0.1191    1.6563 H   0  0  0  0  0  0  0  0  0  0  0  0
    3.1391    2.3183   -1.1129 C   0  0  0  0  0  0  0  0  0  0  0  0
    4.1876    1.9872   -1.1303 H   0  0  0  0  0  0  0  0  0  0  0  0
    2.0645    1.9020    3.8906 C   0  0  0  0  0  0  0  0  0  0  0  0
    1.8897    2.5438    4.7666 H   0  0  0  0  0  0  0  0  0  0  0  0
    3.5400    0.8744    2.2847 C   0  0  0  0  0  0  0  0  0  0  0  0
    4.5385    0.6867    1.8645 H   0  0  0  0  0  0  0  0  0  0  0  0
    1.4430    4.0296   -1.2381 C   0  0  0  0  0  0  0  0  0  0  0  0
    1.1429    5.0810   -1.3580 H   0  0  0  0  0  0  0  0  0  0  0  0
  2  1  1  0  0  0  0
  3 19  1  0  0  0  0
  4  3  1  0  0  0  0
  5 17  1  0  0  0  0
  6 15  1  0  0  0  0
  7  6  1  0  0  0  0
  8 46  1  0  0  0  0
  9 23  1  0  0  0  0
  9 25  1  0  0  0  0
 10 11  1  0  0  0  0
 10 32  1  0  0  0  0
 12 28  1  0  0  0  0
 13 14  1  6  0  0  0
 13  1  1  0  0  0  0
 13 17  1  0  0  0  0
 15 16  1  6  0  0  0
 15 19  1  0  0  0  0
 15 23  1  0  0  0  0
 17 32  1  0  0  0  0
 17 18  1  1  0  0  0
 19 13  1  0  0  0  0
 19 20  1  1  0  0  0
 21 22  1  0  0  0  0
 21 28  1  0  0  0  0
 23  5  1  0  0  0  0
 23 24  1  1  0  0  0
 25 27  1  0  0  0  0
 26 25  1  0  0  0  0
 28 40  1  6  0  0  0
 29 55  1  0  0  0  0
 29 49  2  0  0  0  0
 30 29  1  0  0  0  0
 31 45  1  0  0  0  0
 31 53  1  0  0  0  0
 32 33  1  0  0  0  0
 32 34  1  0  0  0  0
 35 51  1  0  0  0  0
 35 36  1  0  0  0  0
 37 25  1  0  0  0  0
 37  8  1  0  0  0  0
 37 38  1  0  0  0  0
 39 37  1  0  0  0  0
 40 42  1  0  0  0  0
 40  8  1  0  0  0  0
 41 40  1  0  0  0  0
 43 44  1  0  0  0  0
 43 51  2  0  0  0  0
 45 46  1  1  0  0  0
 45 43  1  0  0  0  0
 46 48  1  0  0  0  0
 46 47  1  0  0  0  0
 49 12  1  0  0  0  0
 50 49  1  0  0  0  0
 51 52  1  0  0  0  0
 53 35  2  0  0  0  0
 54 53  1  0  0  0  0
 55 21  2  0  0  0  0
 56 55  1  0  0  0  0
M  END
