2,3,4
q = -2.0, confidence = 0.822

 68 69  0  0  0  0  0  0  0  0999 V2000
   -0.5059    3.8218    0.0632 Si  0  0  0  0  0  0  0  0  0  0  0  0
   -1.7014    0.1618    0.4401 N   0  0  0  0  0  2  0  0  0  0  0  0
   -0.0268    2.2511    0.9341 N   0  0  0  0  0  0  0  0  0  0  0  0
    1.6636    0.1445    0.7028 N   0  0  0  0  0  2  0  0  0  0  0  0
   -2.1757    1.1483    1.4020 C   0  0  0  0  0  0  0  0  0  0  0  0
   -2.7602    0.6671    2.2168 H   0  0  0  0  0  0  0  0  0  0  0  0
   -2.8793    1.8624    0.9138 H   0  0  0  0  0  0  0  0  0  0  0  0
   -0.9822    1.8633    2.0013 C   0  0  0  0  0  0  0  0  0  0  0  0
   -1.2974    2.7339    2.6204 H   0  0  0  0  0  0  0  0  0  0  0  0
   -0.4688    1.1545    2.6833 H   0  0  0  0  0  0  0  0  0  0  0  0
    1.3385    2.3984    1.4960 C   0  0  0  0  0  0  0  0  0  0  0  0
    1.3458    3.0667    2.3897 H   0  0  0  0  0  0  0  0  0  0  0  0
    1.9766    2.8629    0.7223 H   0  0  0  0  0  0  0  0  0  0  0  0
    1.9265    1.0339    1.8278 C   0  0  0  0  0  0  0  0  0  0  0  0
    3.0204    1.1378    1.9991 H   0  0  0  0  0  0  0  0  0  0  0  0
    1.5109    0.6274    2.7818 H   0  0  0  0  0  0  0  0  0  0  0  0
   -2.6338   -0.8999    0.1960 C   0  0  0  0  0  0  0  0  0  0  0  0
   -2.7764   -1.9266    1.1677 C   0  0  0  0  0  0  0  0  0  0  0  0
   -3.6869   -2.9703    0.9258 C   0  0  0  0  0  0  0  0  0  0  0  0
   -3.7848   -3.7712    1.6773 H   0  0  0  0  0  0  0  0  0  0  0  0
   -4.4603   -3.0292   -0.2455 C   0  0  0  0  0  0  0  0  0  0  0  0
   -4.3032   -1.9963   -1.1878 C   0  0  0  0  0  0  0  0  0  0  0  0
   -4.9001   -2.0174   -2.1145 H   0  0  0  0  0  0  0  0  0  0  0  0
   -3.4055   -0.9329   -0.9947 C   0  0  0  0  0  0  0  0  0  0  0  0
   -1.9580   -1.9152    2.4332 C   0  0  0  0  0  0  0  0  0  0  0  0
   -0.9561   -1.4810    2.2521 H   0  0  0  0  0  0  0  0  0  0  0  0
   -1.8307   -2.9380    2.8370 H   0  0  0  0  0  0  0  0  0  0  0  0
   -2.4366   -1.3080    3.2328 H   0  0  0  0  0  0  0  0  0  0  0  0
   -5.4041   -4.1765   -0.5062 C   0  0  0  0  0  0  0  0  0  0  0  0
   -5.6321   -4.7384    0.4206 H   0  0  0  0  0  0  0  0  0  0  0  0
   -4.9673   -4.8969   -1.2310 H   0  0  0  0  0  0  0  0  0  0  0  0
   -6.3623   -3.8260   -0.9409 H   0  0  0  0  0  0  0  0  0  0  0  0
   -3.2636    0.1397   -2.0414 C   0  0  0  0  0  0  0  0  0  0  0  0
   -3.4182    1.1507   -1.6153 H   0  0  0  0  0  0  0  0  0  0  0  0
   -3.9969   -0.0051   -2.8575 H   0  0  0  0  0  0  0  0  0  0  0  0
   -2.2487    0.1428   -2.4905 H   0  0  0  0  0  0  0  0  0  0  0  0
   -2.0309    3.6246   -1.0156 C   0  0  0  0  0  0  0  0  0  0  0  0
   -1.8835    2.8304   -1.7704 H   0  0  0  0  0  0  0  0  0  0  0  0
   -2.1896    4.5856   -1.5484 H   0  0  0  0  0  0  0  0  0  0  0  0
   -2.9472    3.4129   -0.4315 H   0  0  0  0  0  0  0  0  0  0  0  0
   -0.8779    5.1029    1.4113 C   0  0  0  0  0  0  0  0  0  0  0  0
   -1.8147    4.8908    1.9649 H   0  0  0  0  0  0  0  0  0  0  0  0
   -1.0003    6.0950    0.9288 H   0  0  0  0  0  0  0  0  0  0  0  0
   -0.0527    5.1947    2.1468 H   0  0  0  0  0  0  0  0  0  0  0  0
    0.9591    4.4436   -0.9447 C   0  0  0  0  0  0  0  0  0  0  0  0
    1.7575    4.8766   -0.3101 H   0  0  0  0  0  0  0  0  0  0  0  0
    0.5920    5.2494   -1.6138 H   0  0  0  0  0  0  0  0  0  0  0  0
    1.3838    3.6460   -1.5835 H   0  0  0  0  0  0  0  0  0  0  0  0
    2.7341   -0.7501    0.3695 C   0  0  0  0  0  0  0  0  0  0  0  0
    3.7540   -0.3230   -0.5214 C   0  0  0  0  0  0  0  0  0  0  0  0
    4.8003   -1.2124   -0.8287 C   0  0  0  0  0  0  0  0  0  0  0  0
    5.5854   -0.8804   -1.5276 H   0  0  0  0  0  0  0  0  0  0  0  0
    4.8759   -2.5000   -0.2718 C   0  0  0  0  0  0  0  0  0  0  0  0
    3.8697   -2.8843    0.6338 C   0  0  0  0  0  0  0  0  0  0  0  0
    3.9156   -3.8827    1.0992 H   0  0  0  0  0  0  0  0  0  0  0  0
    2.8003   -2.0375    0.9670 C   0  0  0  0  0  0  0  0  0  0  0  0
    3.7346    1.0591   -1.1222 C   0  0  0  0  0  0  0  0  0  0  0  0
    3.8067    1.8466   -0.3421 H   0  0  0  0  0  0  0  0  0  0  0  0
    2.7957    1.2483   -1.6811 H   0  0  0  0  0  0  0  0  0  0  0  0
    4.5866    1.1997   -1.8142 H   0  0  0  0  0  0  0  0  0  0  0  0
    5.9850   -3.4509   -0.6459 C   0  0  0  0  0  0  0  0  0  0  0  0
    5.6464   -4.1721   -1.4210 H   0  0  0  0  0  0  0  0  0  0  0  0
    6.3217   -4.0492    0.2247 H   0  0  0  0  0  0  0  0  0  0  0  0
    6.8628   -2.9153   -1.0575 H   0  0  0  0  0  0  0  0  0  0  0  0
    1.7305   -2.5050    1.9166 C   0  0  0  0  0  0  0  0  0  0  0  0
    1.4965   -1.7475    2.6914 H   0  0  0  0  0  0  0  0  0  0  0  0
    2.0314   -3.4392    2.4282 H   0  0  0  0  0  0  0  0  0  0  0  0
    0.7894   -2.7028    1.3629 H   0  0  0  0  0  0  0  0  0  0  0  0
  1  3  1  0  0  0  0
  1 41  1  0  0  0  0
  2  5  1  0  0  0  0
  3 11  1  0  0  0  0
  3  8  1  0  0  0  0
  4 14  1  0  0  0  0
  5  8  1  0  0  0  0
  5  6  1  0  0  0  0
  7  5  1  0  0  0  0
  8  9  1  0  0  0  0
  8 10  1  0  0  0  0
 11 14  1  0  0  0  0
 11 12  1  0  0  0  0
 13 11  1  0  0  0  0
 14 15  1  0  0  0  0
 14 16  1  0  0  0  0
 17  2  1  0  0  0  0
 17 18  1  0  0  0  0
 18 25  1  0  0  0  0
 19 18  2  0  0  0  0
 19 20  1  0  0  0  0
 21 19  1  0  0  0  0
 22 24  1  0  0  0  0
 22 21  2  0  0  0  0
 23 22  1  0  0  0  0
 24 17  2  0  0  0  0
 25 27  1  0  0  0  0
 25 28  1  0  0  0  0
 26 25  1  0  0  0  0
 29 21  1  0  0  0  0
 29 30  1  0  0  0  0
 31 29  1  0  0  0  0
 32 29  1  0  0  0  0
 33 34  1  0  0  0  0
 33 24  1  0  0  0  0
 35 33  1  0  0  0  0
 36 33  1  0  0  0  0
 37 40  1  0  0  0  0
 37  1  1  0  0  0  0
 38 37  1  0  0  0  0
 39 37  1  0  0  0  0
 41 42  1  0  0  0  0
 41 44  1  0  0  0  0
 43 41  1  0  0  0  0
 45 46  1  0  0  0  0
 45  1  1  0  0  0  0
 47 45  1  0  0  0  0
 48 45  1  0  0  0  0
 49  4  1  0  0  0  0
 49 56  1  0  0  0  0
 50 49  2  0  0  0  0
 51 50  1  0  0  0  0
 51 53  2  0  0  0  0
 52 51  1  0  0  0  0
 53 54  1  0  0  0  0
 54 56  2  0  0  0  0
 54 55  1  0  0  0  0
 56 65  1  0  0  0  0
 57 50  1  0  0  0  0
 57 58  1  0  0  0  0
 59 57  1  0  0  0  0
 60 57  1  0  0  0  0
 61 53  1  0  0  0  0
 61 63  1  0  0  0  0
 62 61  1  0  0  0  0
 64 61  1  0  0  0  0
 65 67  1  0  0  0  0
 65 66  1  0  0  0  0
 68 65  1  0  0  0  0
M  END
