1,18,33
q = 0.0, confidence = 0.998

 54 58  0  0  1  0  0  0  0  0999 V2000
   -0.5098    0.4687   -0.0817 N   0  0  0  0  0  2  0  0  0  0  0  0
   -1.5247   -0.3491    0.2632 C   0  0  0  0  0  3  0  0  0  0  0  0
   -1.2353   -1.2522    0.8233 H   0  0  0  0  0  0  0  0  0  0  0  0
   -2.8615   -0.1584   -0.0822 C   0  0  0  0  0  0  0  0  0  0  0  0
   -4.4389    1.2680   -1.1587 O   0  0  0  0  0  0  0  0  0  0  0  0
   -3.2036    1.0126   -0.8057 C   0  0  0  0  0  0  0  0  0  0  0  0
   -2.1438    1.9371   -1.1392 C   0  0  0  0  0  0  0  0  0  0  0  0
   -2.4523    3.1356   -1.8294 C   0  0  0  0  0  0  0  0  0  0  0  0
   -3.5066    3.3274   -2.0759 H   0  0  0  0  0  0  0  0  0  0  0  0
   -1.4477    4.0313   -2.1793 C   0  0  0  0  0  0  0  0  0  0  0  0
   -1.6861    4.9624   -2.7123 H   0  0  0  0  0  0  0  0  0  0  0  0
   -0.1169    3.7266   -1.8505 C   0  0  0  0  0  3  0  0  0  0  0  0
    0.6822    4.4281   -2.1377 H   0  0  0  0  0  0  0  0  0  0  0  0
    0.2497    2.5462   -1.1691 C   0  0  0  0  0  0  0  0  0  0  0  0
   -0.7893    1.6122   -0.7815 C   0  0  0  0  0  0  0  0  0  0  0  0
    1.6733    2.3903   -0.9469 C   0  0  0  0  0  0  0  0  0  0  0  0
    2.2891    3.2369   -1.3196 H   0  0  0  0  0  0  0  0  0  0  0  0
    2.2713    1.3681   -0.4057 N   0  0  0  0  0  2  0  0  0  0  0  0
    3.6570    1.3136   -0.2228 C   0  0  0  0  0  0  0  0  0  0  0  0
    4.5057    2.4140   -0.0781 C   0  0  0  0  0  0  0  0  0  0  0  0
    4.0852    3.4297   -0.0584 H   0  0  0  0  0  0  0  0  0  0  0  0
    5.9035    2.2356    0.0641 C   0  0  0  0  0  0  0  0  0  0  0  0
    6.5471    3.1212    0.1713 H   0  0  0  0  0  0  0  0  0  0  0  0
    6.4690    0.9662    0.0616 C   0  0  0  0  0  0  0  0  0  0  0  0
    7.5578    0.8355    0.1497 H   0  0  0  0  0  0  0  0  0  0  0  0
    5.6380   -0.1853   -0.0484 C   0  0  0  0  0  0  0  0  0  0  0  0
    6.1289   -1.5231   -0.0631 C   0  0  0  0  0  0  0  0  0  0  0  0
    7.2133   -1.6995    0.0083 H   0  0  0  0  0  0  0  0  0  0  0  0
    5.2407   -2.5826   -0.1710 C   0  0  0  0  0  0  0  0  0  0  0  0
    5.5913   -3.6238   -0.1958 H   0  0  0  0  0  0  0  0  0  0  0  0
    3.8494   -2.3156   -0.2280 C   0  0  0  0  0  0  0  0  0  0  0  0
    3.1109   -3.1316   -0.2792 H   0  0  0  0  0  0  0  0  0  0  0  0
    3.3664   -1.0751   -0.2207 N   0  0  0  0  0  2  0  0  0  0  0  0
    4.2193   -0.0110   -0.1602 C   0  0  2  0  0  3  0  0  0  0  0  0
   -3.9032   -1.2248    0.1562 C   0  0  0  0  0  0  0  0  0  0  0  0
   -3.6582   -1.8461    1.0476 H   0  0  0  0  0  0  0  0  0  0  0  0
   -3.9011   -1.9150   -0.7156 H   0  0  0  0  0  0  0  0  0  0  0  0
   -5.2527   -0.6258    0.2610 N   0  0  0  0  0  0  0  0  0  0  0  0
   -5.0257    0.4651   -0.6441 H   0  0  0  0  0  0  0  0  0  0  0  0
   -5.4816   -0.0101    1.5903 C   0  0  0  0  0  0  0  0  0  0  0  0
   -4.6315    0.6712    1.7999 H   0  0  0  0  0  0  0  0  0  0  0  0
   -5.4599   -0.8115    2.3677 H   0  0  0  0  0  0  0  0  0  0  0  0
   -6.8133    0.7369    1.6265 C   0  0  0  0  0  0  0  0  0  0  0  0
   -6.7641    1.5934    0.9191 H   0  0  0  0  0  0  0  0  0  0  0  0
   -6.9584    1.1671    2.6381 H   0  0  0  0  0  0  0  0  0  0  0  0
   -7.9720   -0.1915    1.2467 C   0  0  0  0  0  0  0  0  0  0  0  0
   -8.0924   -0.9706    2.0318 H   0  0  0  0  0  0  0  0  0  0  0  0
   -8.9273    0.3696    1.2116 H   0  0  0  0  0  0  0  0  0  0  0  0
   -7.6937   -0.8651   -0.1017 C   0  0  0  0  0  0  0  0  0  0  0  0
   -7.7088   -0.1046   -0.9129 H   0  0  0  0  0  0  0  0  0  0  0  0
   -8.4802   -1.6064   -0.3483 H   0  0  0  0  0  0  0  0  0  0  0  0
   -6.3360   -1.5664   -0.1052 C   0  0  0  0  0  0  0  0  0  0  0  0
   -6.3367   -2.4224    0.6119 H   0  0  0  0  0  0  0  0  0  0  0  0
   -6.1022   -1.9767   -1.1082 H   0  0  0  0  0  0  0  0  0  0  0  0
  1  2  1  0  0  0  0
  2  3  1  0  0  0  0
  4 35  1  0  0  0  0
  4  2  1  0  0  0  0
  5  6  1  0  0  0  0
  5 39  1  0  0  0  0
  6  4  2  0  0  0  0
  7  6  1  0  0  0  0
  7 15  2  0  0  0  0
  8  7  1  0  0  0  0
  9  8  1  0  0  0  0
 10 12  1  0  0  0  0
 10  8  2  0  0  0  0
 11 10  1  0  0  0  0
 12 14  1  0  0  0  0
 13 12  1  0  0  0  0
 14 16  2  0  0  0  0
 14 15  1  0  0  0  0
 15  1  1  0  0  0  0
 16 18  1  0  0  0  0
 17 16  1  0  0  0  0
 18 19  1  0  0  0  0
 19 20  2  0  0  0  0
 20 21  1  0  0  0  0
 20 22  1  0  0  0  0
 22 23  1  0  0  0  0
 24 22  2  0  0  0  0
 24 25  1  0  0  0  0
 26 24  1  0  0  0  0
 27 26  2  0  0  0  0
 27 28  1  0  0  0  0
 29 27  1  0  0  0  0
 30 29  1  0  0  0  0
 31 33  1  0  0  0  0
 31 29  2  0  0  0  0
 32 31  1  0  0  0  0
 33 34  1  0  0  0  0
 34 19  1  6  0  0  0
 34 26  1  0  0  0  0
 35 38  1  0  0  0  0
 35 36  1  0  0  0  0
 37 35  1  0  0  0  0
 38 40  1  0  0  0  0
 40 43  1  0  0  0  0
 40 41  1  0  0  0  0
 40 42  1  0  0  0  0
 43 45  1  0  0  0  0
 44 43  1  0  0  0  0
 46 43  1  0  0  0  0
 46 47  1  0  0  0  0
 48 46  1  0  0  0  0
 49 46  1  0  0  0  0
 50 49  1  0  0  0  0
 51 49  1  0  0  0  0
 52 49  1  0  0  0  0
 52 38  1  0  0  0  0
 52 53  1  0  0  0  0
 54 52  1  0  0  0  0
M  END
