1,5,9
q = 0.0, confidence = 0.996

 24 24  0  0  1  0  0  0  0  0999 V2000
    1.0687   -2.1671   -0.9814 N   0  0  0  0  0  2  0  0  0  0  0  0
    1.0166   -3.1855   -1.0762 H   0  0  0  0  0  0  0  0  0  0  0  0
    2.3816   -0.2433   -1.1395 N   0  0  0  0  0  0  0  0  0  0  0  0
    3.1710    0.0808   -0.5292 H   0  0  0  0  0  0  0  0  0  0  0  0
    1.2121    0.3970   -0.9563 N   0  0  0  0  0  2  0  0  0  0  0  0
    3.4148   -2.3084   -1.4063 N   0  0  0  0  0  0  0  0  0  0  0  0
    3.4915   -3.2831   -1.1193 H   0  0  0  0  0  0  0  0  0  0  0  0
    4.2849   -1.7759   -1.4181 H   0  0  0  0  0  0  0  0  0  0  0  0
   -1.1325    1.1290   -0.1119 N   0  0  0  0  0  2  0  0  0  0  0  0
    2.2460   -1.6522   -1.1564 C   0  0  2  0  0  3  0  0  0  0  0  0
    1.1314    1.6750   -0.7344 C   0  0  1  0  0  3  0  0  0  0  0  0
   -0.2499    2.1179   -0.4134 C   0  0  2  0  0  3  0  0  0  0  0  0
   -0.6493    3.4678   -0.4082 C   0  0  0  0  0  0  0  0  0  0  0  0
    0.0689    4.2636   -0.6469 H   0  0  0  0  0  0  0  0  0  0  0  0
   -1.9822    3.7835   -0.1100 C   0  0  0  0  0  0  0  0  0  0  0  0
   -2.3122    4.8332   -0.1051 H   0  0  0  0  0  0  0  0  0  0  0  0
   -2.8834    2.7497    0.1734 C   0  0  0  0  0  0  0  0  0  0  0  0
   -3.9375    2.9509    0.4103 H   0  0  0  0  0  0  0  0  0  0  0  0
   -2.4101    1.4275    0.1614 C   0  0  0  0  0  0  0  0  0  0  0  0
   -3.0792    0.5775    0.3788 H   0  0  0  0  0  0  0  0  0  0  0  0
    2.3095    2.6020   -0.7235 C   0  0  0  0  0  0  0  0  0  0  0  0
    2.0268    3.6484   -0.9365 H   0  0  0  0  0  0  0  0  0  0  0  0
    3.0572    2.2828   -1.4775 H   0  0  0  0  0  0  0  0  0  0  0  0
    2.8049    2.5718    0.2710 H   0  0  0  0  0  0  0  0  0  0  0  0
  2  1  1  0  0  0  0
  3  5  1  0  0  0  0
  3  4  1  0  0  0  0
  6 10  1  0  0  0  0
  6  7  1  0  0  0  0
  8  6  1  0  0  0  0
  9 19  1  0  0  0  0
 10  3  1  0  0  0  0
 10  1  1  6  0  0  0
 11  5  1  1  0  0  0
 11 21  1  0  0  0  0
 12 11  1  1  0  0  0
 12 13  1  0  0  0  0
 12  9  1  0  0  0  0
 13 15  2  0  0  0  0
 14 13  1  0  0  0  0
 15 16  1  0  0  0  0
 15 17  1  0  0  0  0
 17 18  1  0  0  0  0
 19 17  2  0  0  0  0
 19 20  1  0  0  0  0
 21 24  1  0  0  0  0
 22 21  1  0  0  0  0
 23 21  1  0  0  0  0
M  END
