1,2,4
q = 0.0, confidence = 0.996

 36 39  0  0  1  0  0  0  0  0999 V2000
    2.1434    1.7777   -0.3706 N   0  0  0  0  0  2  0  0  0  0  0  0
   -0.3580    0.7963   -0.0622 N   0  0  0  0  0  2  0  0  0  0  0  0
   -1.6265   -1.2267    0.1268 C   0  0  2  0  0  3  0  0  0  0  0  0
   -0.5182   -1.8703   -0.2980 N   0  0  0  0  0  2  0  0  0  0  0  0
   -4.0781    0.8707   -0.2974 C   0  0  0  0  0  0  0  0  0  0  0  0
   -6.6428    0.3011   -1.0999 C   0  0  0  0  0  0  0  0  0  0  0  0
   -7.6512    0.0312   -1.4468 H   0  0  0  0  0  0  0  0  0  0  0  0
    1.1681    2.6690   -0.0939 C   0  0  0  0  0  0  0  0  0  0  0  0
   -0.1927    2.1133    0.0965 C   0  0  0  0  0  0  0  0  0  0  0  0
   -1.5778    0.2575    0.0207 C   0  0  0  0  0  0  0  0  0  0  0  0
   -0.4614   -3.2068   -0.2343 C   0  0  0  0  0  0  0  0  0  0  0  0
    0.4697   -3.6662   -0.6083 H   0  0  0  0  0  0  0  0  0  0  0  0
   -1.5083   -3.9794    0.2918 C   0  0  0  0  0  0  0  0  0  0  0  0
   -1.4229   -5.0748    0.3296 H   0  0  0  0  0  0  0  0  0  0  0  0
   -2.6402   -3.3166    0.7876 C   0  0  0  0  0  0  0  0  0  0  0  0
   -3.4666   -3.8821    1.2431 H   0  0  0  0  0  0  0  0  0  0  0  0
   -2.7093   -1.9216    0.6994 C   0  0  0  0  0  0  0  0  0  0  0  0
   -3.5800   -1.3789    1.0877 H   0  0  0  0  0  0  0  0  0  0  0  0
   -2.6722    1.1801    0.0576 C   0  0  0  0  0  0  0  0  0  0  0  0
   -4.2732   -0.1730   -1.1293 N   0  0  0  0  0  0  0  0  0  0  0  0
   -5.5246   -0.4434   -1.5175 C   0  0  0  0  0  0  0  0  0  0  0  0
   -5.6490   -1.3006   -2.2028 H   0  0  0  0  0  0  0  0  0  0  0  0
   -6.4347    1.3882   -0.2381 C   0  0  0  0  0  0  0  0  0  0  0  0
   -7.2813    1.9980    0.1120 H   0  0  0  0  0  0  0  0  0  0  0  0
   -5.1300    1.6875    0.1717 C   0  0  0  0  0  0  0  0  0  0  0  0
   -4.9014    2.5327    0.8349 H   0  0  0  0  0  0  0  0  0  0  0  0
   -2.4217    2.4711    0.3735 N   0  0  0  0  0  0  0  0  0  0  0  0
   -1.1980    2.9415    0.4685 N   0  0  0  0  0  0  0  0  0  0  0  0
    1.4157    4.0514   -0.0098 C   0  0  0  0  0  0  0  0  0  0  0  0
    0.5832    4.7303    0.2201 H   0  0  0  0  0  0  0  0  0  0  0  0
    2.7226    4.5051   -0.2303 C   0  0  0  0  0  0  0  0  0  0  0  0
    2.9538    5.5791   -0.1687 H   0  0  0  0  0  0  0  0  0  0  0  0
    3.7271    3.5755   -0.5383 C   0  0  0  0  0  0  0  0  0  0  0  0
    4.7623    3.8939   -0.7280 H   0  0  0  0  0  0  0  0  0  0  0  0
    3.3886    2.2132   -0.5991 C   0  0  0  0  0  0  0  0  0  0  0  0
    4.1320    1.4344   -0.8418 H   0  0  0  0  0  0  0  0  0  0  0  0
  1  8  1  0  0  0  0
  2 10  1  0  0  0  0
  2  9  1  0  0  0  0
  3 10  1  1  0  0  0
  3 17  1  0  0  0  0
  4 11  1  0  0  0  0
  4  3  1  0  0  0  0
  5 19  1  0  0  0  0
  5 25  1  0  0  0  0
  6 23  1  0  0  0  0
  7  6  1  0  0  0  0
  8 29  1  0  0  0  0
  8  9  2  0  0  0  0
  9 28  1  0  0  0  0
 10 19  2  0  0  0  0
 11 13  2  0  0  0  0
 12 11  1  0  0  0  0
 13 14  1  0  0  0  0
 13 15  1  0  0  0  0
 15 16  1  0  0  0  0
 17 15  2  0  0  0  0
 17 18  1  0  0  0  0
 19 27  1  0  0  0  0
 20  5  2  0  0  0  0
 21 20  1  0  0  0  0
 21  6  2  0  0  0  0
 22 21  1  0  0  0  0
 23 24  1  0  0  0  0
 23 25  2  0  0  0  0
 25 26  1  0  0  0  0
 27 28  2  0  0  0  0
 29 30  1  0  0  0  0
 31 32  1  0  0  0  0
 31 29  2  0  0  0  0
 33 31  1  0  0  0  0
 34 33  1  0  0  0  0
 35 33  2  0  0  0  0
 35  1  1  0  0  0  0
 36 35  1  0  0  0  0
M  END
