2,3,4
q = 0.0, confidence = 0.972

 65 67  0  0  1  0  0  0  0  0999 V2000
    3.9638    0.4196    1.1232 O   0  0  0  0  0  0  0  0  0  0  0  0
   -1.6308    0.2978    0.6128 N   0  0  0  0  0  2  0  0  0  0  0  0
    0.4902    0.6877    1.7636 N   0  0  0  0  0  2  0  0  0  0  0  0
    2.0797    0.2979   -0.1095 N   0  0  0  0  0  2  0  0  0  0  0  0
    3.2449    1.3369   -2.0966 C   0  0  0  0  0  0  0  0  0  0  0  0
   -0.5686    0.9047    2.5799 C   0  0  0  0  0  0  0  0  0  0  0  0
   -0.3429    1.2736    3.9174 C   0  0  0  0  0  0  0  0  0  0  0  0
   -1.1904    1.4636    4.5904 H   0  0  0  0  0  0  0  0  0  0  0  0
    0.9818    1.3860    4.3747 C   0  0  0  0  0  0  0  0  0  0  0  0
    1.1753    1.6664    5.4200 H   0  0  0  0  0  0  0  0  0  0  0  0
    2.0618    1.1359    3.5078 C   0  0  0  0  0  0  0  0  0  0  0  0
    3.1059    1.2059    3.8420 H   0  0  0  0  0  0  0  0  0  0  0  0
    1.7704    0.7896    2.1833 C   0  0  0  0  0  0  0  0  0  0  0  0
   -1.8271    0.6970    1.8559 C   0  0  0  0  0  0  0  0  0  0  0  0
   -3.1592    0.9459    2.4731 C   0  0  0  0  0  0  0  0  0  0  0  0
   -3.2491    0.3985    3.4337 H   0  0  0  0  0  0  0  0  0  0  0  0
   -3.9806    0.6379    1.8025 H   0  0  0  0  0  0  0  0  0  0  0  0
   -3.2759    2.0268    2.7020 H   0  0  0  0  0  0  0  0  0  0  0  0
   -2.6955    0.0895   -0.3174 C   0  0  0  0  0  0  0  0  0  0  0  0
   -3.1305   -1.2450   -0.5597 C   0  0  0  0  0  0  0  0  0  0  0  0
   -4.1380   -1.4288   -1.5259 C   0  0  0  0  0  0  0  0  0  0  0  0
   -4.5043   -2.4459   -1.7280 H   0  0  0  0  0  0  0  0  0  0  0  0
   -4.6832   -0.3424   -2.2220 C   0  0  0  0  0  0  0  0  0  0  0  0
   -5.4710   -0.5108   -2.9710 H   0  0  0  0  0  0  0  0  0  0  0  0
   -4.2235    0.9574   -1.9728 C   0  0  0  0  0  0  0  0  0  0  0  0
   -4.6514    1.8005   -2.5355 H   0  0  0  0  0  0  0  0  0  0  0  0
   -3.2142    1.2082   -1.0260 C   0  0  0  0  0  0  0  0  0  0  0  0
   -2.5863   -2.4194    0.2417 C   0  0  0  0  0  0  0  0  0  0  0  0
   -1.6681   -2.0817    0.7611 H   0  0  0  0  0  0  0  0  0  0  0  0
   -3.6030   -2.8478    1.3165 C   0  0  0  0  0  0  0  0  0  0  0  0
   -3.8674   -2.0097    1.9929 H   0  0  0  0  0  0  0  0  0  0  0  0
   -3.1863   -3.6678    1.9345 H   0  0  0  0  0  0  0  0  0  0  0  0
   -4.5437   -3.2132    0.8558 H   0  0  0  0  0  0  0  0  0  0  0  0
   -2.1698   -3.6046   -0.6418 C   0  0  0  0  0  0  0  0  0  0  0  0
   -3.0334   -4.0674   -1.1609 H   0  0  0  0  0  0  0  0  0  0  0  0
   -1.6882   -4.3860   -0.0230 H   0  0  0  0  0  0  0  0  0  0  0  0
   -1.4263   -3.3065   -1.4071 H   0  0  0  0  0  0  0  0  0  0  0  0
   -2.6741    2.6183   -0.8300 C   0  0  0  0  0  0  0  0  0  0  0  0
   -1.9406    2.6066    0.0008 H   0  0  0  0  0  0  0  0  0  0  0  0
   -1.8979    3.0663   -2.0829 C   0  0  0  0  0  0  0  0  0  0  0  0
   -1.0931    2.3457   -2.3356 H   0  0  0  0  0  0  0  0  0  0  0  0
   -1.4416    4.0648   -1.9228 H   0  0  0  0  0  0  0  0  0  0  0  0
   -2.5603    3.1431   -2.9690 H   0  0  0  0  0  0  0  0  0  0  0  0
   -3.7805    3.6185   -0.4591 C   0  0  0  0  0  0  0  0  0  0  0  0
   -4.5202    3.7383   -1.2764 H   0  0  0  0  0  0  0  0  0  0  0  0
   -3.3469    4.6190   -0.2592 H   0  0  0  0  0  0  0  0  0  0  0  0
   -4.3340    3.2983    0.4465 H   0  0  0  0  0  0  0  0  0  0  0  0
    2.6518    0.4974    1.0523 C   0  0  1  0  0  3  0  0  0  0  0  0
    4.3913   -0.0733   -0.2039 C   0  0  0  0  0  0  0  0  0  0  0  0
    4.6525   -1.1391   -0.0710 H   0  0  0  0  0  0  0  0  0  0  0  0
    5.2761    0.5173   -0.4986 H   0  0  0  0  0  0  0  0  0  0  0  0
    3.1513    0.1250   -1.1160 C   0  0  1  0  0  0  0  0  0  0  0  0
    2.9447   -0.7996   -1.6916 H   0  0  0  0  0  0  0  0  0  0  0  0
    4.3611    1.0313   -3.1125 C   0  0  0  0  0  0  0  0  0  0  0  0
    5.3577    0.9425   -2.6342 H   0  0  0  0  0  0  0  0  0  0  0  0
    4.4309    1.8485   -3.8576 H   0  0  0  0  0  0  0  0  0  0  0  0
    4.1592    0.0891   -3.6614 H   0  0  0  0  0  0  0  0  0  0  0  0
    1.9124    1.4876   -2.8473 C   0  0  0  0  0  0  0  0  0  0  0  0
    1.6521    0.5716   -3.4130 H   0  0  0  0  0  0  0  0  0  0  0  0
    1.9669    2.3316   -3.5632 H   0  0  0  0  0  0  0  0  0  0  0  0
    1.0750    1.6767   -2.1469 H   0  0  0  0  0  0  0  0  0  0  0  0
    3.5523    2.6397   -1.3354 C   0  0  0  0  0  0  0  0  0  0  0  0
    2.7518    2.8842   -0.6071 H   0  0  0  0  0  0  0  0  0  0  0  0
    3.6279    3.4841   -2.0494 H   0  0  0  0  0  0  0  0  0  0  0  0
    4.5155    2.5965   -0.7879 H   0  0  0  0  0  0  0  0  0  0  0  0
  2 14  1  0  0  0  0
  3 13  1  0  0  0  0
  3  6  1  0  0  0  0
  4 48  1  0  0  0  0
  5 62  1  0  0  0  0
  5 52  1  0  0  0  0
  6  7  1  0  0  0  0
  7  9  2  0  0  0  0
  7  8  1  0  0  0  0
  9 10  1  0  0  0  0
 11 12  1  0  0  0  0
 11  9  1  0  0  0  0
 13 11  2  0  0  0  0
 14 15  1  0  0  0  0
 14  6  2  0  0  0  0
 15 18  1  0  0  0  0
 15 16  1  0  0  0  0
 17 15  1  0  0  0  0
 19  2  1  0  0  0  0
 20 19  1  0  0  0  0
 20 28  1  0  0  0  0
 21 20  2  0  0  0  0
 22 21  1  0  0  0  0
 23 25  2  0  0  0  0
 23 21  1  0  0  0  0
 24 23  1  0  0  0  0
 25 27  1  0  0  0  0
 26 25  1  0  0  0  0
 27 38  1  0  0  0  0
 27 19  2  0  0  0  0
 28 29  1  0  0  0  0
 28 30  1  0  0  0  0
 30 32  1  0  0  0  0
 30 31  1  0  0  0  0
 33 30  1  0  0  0  0
 34 36  1  0  0  0  0
 34 28  1  0  0  0  0
 35 34  1  0  0  0  0
 37 34  1  0  0  0  0
 38 44  1  0  0  0  0
 38 39  1  0  0  0  0
 40 42  1  0  0  0  0
 40 38  1  0  0  0  0
 41 40  1  0  0  0  0
 43 40  1  0  0  0  0
 44 46  1  0  0  0  0
 44 47  1  0  0  0  0
 45 44  1  0  0  0  0
 48  1  1  0  0  0  0
 48 13  1  1  0  0  0
 49 50  1  0  0  0  0
 49  1  1  0  0  0  0
 51 49  1  0  0  0  0
 52 53  1  6  0  0  0
 52 49  1  0  0  0  0
 52  4  1  0  0  0  0
 54 55  1  0  0  0  0
 54  5  1  0  0  0  0
 56 54  1  0  0  0  0
 57 54  1  0  0  0  0
 58 61  1  0  0  0  0
 58  5  1  0  0  0  0
 59 58  1  0  0  0  0
 60 58  1  0  0  0  0
 62 65  1  0  0  0  0
 62 63  1  0  0  0  0
 64 62  1  0  0  0  0
M  END
