1,2,3
q = 0.0, confidence = 0.998

 36 38  0  0  1  0  0  0  0  0999 V2000
    1.6621   -1.4387   -0.4748 N   0  0  0  0  0  2  0  0  0  0  0  0
   -0.2105    0.4256   -0.4087 N   0  0  0  0  0  2  0  0  0  0  0  0
    0.8670    2.6533    0.6741 N   0  0  0  0  0  0  0  0  0  0  0  0
    0.8218    2.0983    1.5629 H   0  0  0  0  0  0  0  0  0  0  0  0
    1.3826    3.5281    0.8075 H   0  0  0  0  0  0  0  0  0  0  0  0
    2.6778   -2.2946   -0.6081 C   0  0  0  0  0  3  0  0  0  0  0  0
    3.6802   -1.8311   -0.6155 H   0  0  0  0  0  0  0  0  0  0  0  0
    2.4634   -3.6788   -0.7229 C   0  0  0  0  0  0  0  0  0  0  0  0
    3.3161   -4.3636   -0.8345 H   0  0  0  0  0  0  0  0  0  0  0  0
    1.1457   -4.1542   -0.6716 C   0  0  0  0  0  0  0  0  0  0  0  0
    0.9387   -5.2329   -0.7373 H   0  0  0  0  0  0  0  0  0  0  0  0
    0.0856   -3.2453   -0.5308 C   0  0  0  0  0  0  0  0  0  0  0  0
   -0.9552   -3.5917   -0.4794 H   0  0  0  0  0  0  0  0  0  0  0  0
    0.3820   -1.8714   -0.4518 C   0  0  0  0  0  0  0  0  0  0  0  0
   -0.6473   -0.8017   -0.3400 C   0  0  1  0  0  3  0  0  0  0  0  0
   -2.0510   -1.1673   -0.0065 C   0  0  0  0  0  0  0  0  0  0  0  0
   -2.9012   -1.8618   -0.8908 C   0  0  0  0  0  0  0  0  0  0  0  0
   -2.5397   -2.1428   -1.8921 H   0  0  0  0  0  0  0  0  0  0  0  0
   -4.2157   -2.1654   -0.5044 C   0  0  0  0  0  0  0  0  0  0  0  0
   -4.8815   -2.6962   -1.2017 H   0  0  0  0  0  0  0  0  0  0  0  0
   -4.6808   -1.7907    0.7664 C   0  0  0  0  0  0  0  0  0  0  0  0
   -5.7113   -2.0321    1.0674 H   0  0  0  0  0  0  0  0  0  0  0  0
   -3.8294   -1.1118    1.6541 C   0  0  0  0  0  0  0  0  0  0  0  0
   -4.1884   -0.8275    2.6547 H   0  0  0  0  0  0  0  0  0  0  0  0
   -2.5189   -0.7962    1.2728 C   0  0  0  0  0  0  0  0  0  0  0  0
   -1.8274   -0.2811    1.9587 H   0  0  0  0  0  0  0  0  0  0  0  0
   -0.9731    1.5906   -0.4877 C   0  0  0  0  0  0  0  0  0  0  0  0
   -0.3503    2.7841   -0.0024 C   0  0  0  0  0  0  0  0  0  0  0  0
   -0.9584    4.0298   -0.2529 C   0  0  0  0  0  0  0  0  0  0  0  0
   -0.4670    4.9443    0.1136 H   0  0  0  0  0  0  0  0  0  0  0  0
   -2.1737    4.1049   -0.9411 C   0  0  0  0  0  0  0  0  0  0  0  0
   -2.6352    5.0864   -1.1267 H   0  0  0  0  0  0  0  0  0  0  0  0
   -2.8080    2.9297   -1.3866 C   0  0  0  0  0  0  0  0  0  0  0  0
   -3.7628    2.9874   -1.9295 H   0  0  0  0  0  0  0  0  0  0  0  0
   -2.2164    1.6855   -1.1592 C   0  0  0  0  0  0  0  0  0  0  0  0
   -2.6900    0.7743   -1.5461 H   0  0  0  0  0  0  0  0  0  0  0  0
  1 14  1  0  0  0  0
  3  5  1  0  0  0  0
  3  4  1  0  0  0  0
  6  1  1  0  0  0  0
  7  6  1  0  0  0  0
  8 10  2  0  0  0  0
  8  6  1  0  0  0  0
  9  8  1  0  0  0  0
 10 12  1  0  0  0  0
 11 10  1  0  0  0  0
 12 13  1  0  0  0  0
 12 14  2  0  0  0  0
 14 15  1  0  0  0  0
 15  2  1  1  0  0  0
 15 16  1  0  0  0  0
 16 25  1  0  0  0  0
 17 19  1  0  0  0  0
 17 16  2  0  0  0  0
 18 17  1  0  0  0  0
 19 21  2  0  0  0  0
 20 19  1  0  0  0  0
 21 22  1  0  0  0  0
 21 23  1  0  0  0  0
 23 24  1  0  0  0  0
 25 23  2  0  0  0  0
 25 26  1  0  0  0  0
 27  2  1  0  0  0  0
 27 28  1  0  0  0  0
 28  3  1  0  0  0  0
 29 28  2  0  0  0  0
 29 30  1  0  0  0  0
 31 29  1  0  0  0  0
 32 31  1  0  0  0  0
 33 35  1  0  0  0  0
 33 31  2  0  0  0  0
 34 33  1  0  0  0  0
 35 27  2  0  0  0  0
 36 35  1  0  0  0  0
M  END
