4,5,6
q = 0.0, confidence = 1.0

 42 45  0  0  0  0  0  0  0  0999 V2000
    3.4322    0.6004    1.9643 F   0  0  0  0  0  0  0  0  0  0  0  0
    4.1788    2.1608    0.6258 F   0  0  0  0  0  0  0  0  0  0  0  0
    5.5317    1.1792    2.0199 F   0  0  0  0  0  0  0  0  0  0  0  0
   -2.2544   -1.9142    0.1888 N   0  0  0  0  0  2  0  0  0  0  0  0
   -0.3869   -0.1616   -0.1772 N   0  0  0  0  0  2  0  0  0  0  0  0
   -1.7373    2.0467   -0.2690 N   0  0  0  0  0  2  0  0  0  0  0  0
   -3.3102   -2.7316    0.3831 C   0  0  0  0  0  3  0  0  0  0  0  0
   -4.2899   -2.2294    0.4245 H   0  0  0  0  0  0  0  0  0  0  0  0
   -3.1472   -4.1150    0.5201 C   0  0  0  0  0  0  0  0  0  0  0  0
   -4.0315   -4.7481    0.6776 H   0  0  0  0  0  0  0  0  0  0  0  0
   -1.8579   -4.6613    0.4542 C   0  0  0  0  0  0  0  0  0  0  0  0
   -1.7022   -5.7447    0.5603 H   0  0  0  0  0  0  0  0  0  0  0  0
   -0.7629   -3.8096    0.2517 C   0  0  0  0  0  0  0  0  0  0  0  0
    0.2572   -4.2136    0.1980 H   0  0  0  0  0  0  0  0  0  0  0  0
   -0.9732   -2.4308    0.1192 C   0  0  0  0  0  0  0  0  0  0  0  0
    0.0938   -1.4321   -0.0959 C   0  0  0  0  0  0  0  0  0  0  0  0
    1.4740   -1.6394   -0.2122 C   0  0  0  0  0  0  0  0  0  0  0  0
    1.8923   -2.6515   -0.1287 H   0  0  0  0  0  0  0  0  0  0  0  0
    2.3420   -0.5386   -0.4093 C   0  0  0  0  0  0  0  0  0  0  0  0
    1.7829    0.7586   -0.4958 C   0  0  0  0  0  0  0  0  0  0  0  0
    2.4357    1.6234   -0.6619 H   0  0  0  0  0  0  0  0  0  0  0  0
    0.4014    0.9318   -0.3680 C   0  0  0  0  0  0  0  0  0  0  0  0
   -0.3693    2.1907   -0.4098 C   0  0  0  0  0  0  0  0  0  0  0  0
    0.1934    3.4640   -0.5665 C   0  0  0  0  0  0  0  0  0  0  0  0
    1.2827    3.5703   -0.6626 H   0  0  0  0  0  0  0  0  0  0  0  0
   -0.6410    4.5905   -0.5876 C   0  0  0  0  0  0  0  0  0  0  0  0
   -0.2092    5.5945   -0.7089 H   0  0  0  0  0  0  0  0  0  0  0  0
   -2.0256    4.4200   -0.4499 C   0  0  0  0  0  0  0  0  0  0  0  0
   -2.7132    5.2771   -0.4613 H   0  0  0  0  0  0  0  0  0  0  0  0
   -2.5426    3.1290   -0.2893 C   0  0  0  0  0  0  0  0  0  0  0  0
   -3.6168    2.9163   -0.1691 H   0  0  0  0  0  0  0  0  0  0  0  0
    3.8004   -0.7779   -0.5782 C   0  0  0  0  0  0  0  0  0  0  0  0
    4.1964   -1.7610   -1.5120 C   0  0  0  0  0  0  0  0  0  0  0  0
    3.4224   -2.2902   -2.0883 H   0  0  0  0  0  0  0  0  0  0  0  0
    5.5477   -2.0427   -1.7485 C   0  0  0  0  0  0  0  0  0  0  0  0
    5.8257   -2.8026   -2.4935 H   0  0  0  0  0  0  0  0  0  0  0  0
    6.5366   -1.3509   -1.0369 C   0  0  0  0  0  0  0  0  0  0  0  0
    7.6012   -1.5655   -1.2092 H   0  0  0  0  0  0  0  0  0  0  0  0
    6.1647   -0.3853   -0.0915 C   0  0  0  0  0  0  0  0  0  0  0  0
    6.9346    0.1403    0.4898 H   0  0  0  0  0  0  0  0  0  0  0  0
    4.8122   -0.0881    0.1452 C   0  0  0  0  0  0  0  0  0  0  0  0
    4.4931    0.9566    1.1988 C   0  0  0  0  0  0  0  0  0  0  0  0
  2 42  1  0  0  0  0
  4  7  1  0  0  0  0
  5 16  1  0  0  0  0
  7  8  1  0  0  0  0
  7  9  1  0  0  0  0
  9 10  1  0  0  0  0
 11  9  2  0  0  0  0
 11 12  1  0  0  0  0
 13 11  1  0  0  0  0
 14 13  1  0  0  0  0
 15  4  1  0  0  0  0
 15 13  2  0  0  0  0
 16 15  1  0  0  0  0
 17 18  1  0  0  0  0
 17 16  2  0  0  0  0
 19 17  1  0  0  0  0
 20 19  2  0  0  0  0
 20 22  1  0  0  0  0
 21 20  1  0  0  0  0
 22  5  1  0  0  0  0
 23 22  2  0  0  0  0
 23  6  1  0  0  0  0
 24 23  1  0  0  0  0
 25 24  1  0  0  0  0
 26 24  2  0  0  0  0
 26 28  1  0  0  0  0
 27 26  1  0  0  0  0
 28 30  2  0  0  0  0
 29 28  1  0  0  0  0
 30  6  1  0  0  0  0
 30 31  1  0  0  0  0
 32 19  1  0  0  0  0
 32 41  1  0  0  0  0
 33 32  2  0  0  0  0
 34 33  1  0  0  0  0
 35 33  1  0  0  0  0
 35 37  2  0  0  0  0
 36 35  1  0  0  0  0
 37 39  1  0  0  0  0
 38 37  1  0  0  0  0
 39 41  2  0  0  0  0
 39 40  1  0  0  0  0
 41 42  1  0  0  0  0
 42  1  1  0  0  0  0
 42  3  1  0  0  0  0
M  END
