1,2,3
q = 0.0, confidence = 0.98

 42 45  0  0  0  0  0  0  0  0999 V2000
   -1.5454    2.0164   -0.1156 N   0  0  0  0  0  2  0  0  0  0  0  0
    0.0206   -0.0432   -0.0398 N   0  0  0  0  0  2  0  0  0  0  0  0
   -1.6740   -1.9956    0.0893 N   0  0  0  0  0  2  0  0  0  0  0  0
   -2.4588    3.0090   -0.1508 C   0  0  0  0  0  3  0  0  0  0  0  0
   -3.5095    2.6797   -0.1142 H   0  0  0  0  0  0  0  0  0  0  0  0
   -2.0744    4.3525   -0.2284 C   0  0  0  0  0  0  0  0  0  0  0  0
   -2.8477    5.1329   -0.2554 H   0  0  0  0  0  0  0  0  0  0  0  0
   -0.7101    4.6718   -0.2701 C   0  0  0  0  0  0  0  0  0  0  0  0
   -0.3813    5.7193   -0.3315 H   0  0  0  0  0  0  0  0  0  0  0  0
    0.2364    3.6383   -0.2328 C   0  0  0  0  0  0  0  0  0  0  0  0
    1.3113    3.8628   -0.2642 H   0  0  0  0  0  0  0  0  0  0  0  0
   -0.1938    2.3072   -0.1555 C   0  0  0  0  0  0  0  0  0  0  0  0
    0.7023    1.1332   -0.1091 C   0  0  0  0  0  0  0  0  0  0  0  0
    2.1011    1.1053   -0.1337 C   0  0  0  0  0  0  0  0  0  0  0  0
    2.6674    2.0404   -0.2219 H   0  0  0  0  0  0  0  0  0  0  0  0
    2.7903   -0.1327   -0.0862 C   0  0  0  0  0  0  0  0  0  0  0  0
    2.0230   -1.3239   -0.0213 C   0  0  0  0  0  0  0  0  0  0  0  0
    2.5369   -2.2930    0.0338 H   0  0  0  0  0  0  0  0  0  0  0  0
    0.6254   -1.2623    0.0025 C   0  0  0  0  0  0  0  0  0  0  0  0
   -0.3439   -2.3749    0.0803 C   0  0  0  0  0  0  0  0  0  0  0  0
    0.0004   -3.7315    0.1426 C   0  0  0  0  0  0  0  0  0  0  0  0
    1.0586   -4.0263    0.1363 H   0  0  0  0  0  0  0  0  0  0  0  0
   -1.0102   -4.7006    0.2135 C   0  0  0  0  0  0  0  0  0  0  0  0
   -0.7490   -5.7676    0.2631 H   0  0  0  0  0  0  0  0  0  0  0  0
   -2.3512   -4.2922    0.2206 C   0  0  0  0  0  0  0  0  0  0  0  0
   -3.1726   -5.0201    0.2750 H   0  0  0  0  0  0  0  0  0  0  0  0
   -2.6489   -2.9260    0.1572 C   0  0  0  0  0  0  0  0  0  0  0  0
   -3.6763   -2.5283    0.1583 H   0  0  0  0  0  0  0  0  0  0  0  0
    4.2684   -0.2050   -0.1418 C   0  0  0  0  0  0  0  0  0  0  0  0
    5.1061    0.6209    0.6630 C   0  0  0  0  0  0  0  0  0  0  0  0
    6.5008    0.4689    0.5310 C   0  0  0  0  0  0  0  0  0  0  0  0
    7.1594    1.0860    1.1618 H   0  0  0  0  0  0  0  0  0  0  0  0
    7.0677   -0.4492   -0.3624 C   0  0  0  0  0  0  0  0  0  0  0  0
    8.1619   -0.5332   -0.4403 H   0  0  0  0  0  0  0  0  0  0  0  0
    6.2380   -1.2650   -1.1468 C   0  0  0  0  0  0  0  0  0  0  0  0
    6.6702   -1.9881   -1.8537 H   0  0  0  0  0  0  0  0  0  0  0  0
    4.8509   -1.1464   -1.0250 C   0  0  0  0  0  0  0  0  0  0  0  0
    4.1961   -1.7670   -1.6561 H   0  0  0  0  0  0  0  0  0  0  0  0
    4.5735    1.6089    1.6740 C   0  0  0  0  0  0  0  0  0  0  0  0
    5.3007    1.7492    2.4966 H   0  0  0  0  0  0  0  0  0  0  0  0
    3.6140    1.2869    2.1234 H   0  0  0  0  0  0  0  0  0  0  0  0
    4.4120    2.6130    1.2259 H   0  0  0  0  0  0  0  0  0  0  0  0
  2 19  1  0  0  0  0
  3 27  1  0  0  0  0
  4  1  1  0  0  0  0
  4  5  1  0  0  0  0
  6  4  1  0  0  0  0
  7  6  1  0  0  0  0
  8 10  1  0  0  0  0
  8  6  2  0  0  0  0
  9  8  1  0  0  0  0
 10 12  2  0  0  0  0
 11 10  1  0  0  0  0
 12  1  1  0  0  0  0
 12 13  1  0  0  0  0
 13  2  1  0  0  0  0
 14 13  2  0  0  0  0
 14 16  1  0  0  0  0
 15 14  1  0  0  0  0
 16 17  2  0  0  0  0
 17 19  1  0  0  0  0
 17 18  1  0  0  0  0
 19 20  2  0  0  0  0
 20  3  1  0  0  0  0
 20 21  1  0  0  0  0
 21 23  2  0  0  0  0
 22 21  1  0  0  0  0
 23 25  1  0  0  0  0
 23 24  1  0  0  0  0
 25 26  1  0  0  0  0
 27 28  1  0  0  0  0
 27 25  2  0  0  0  0
 29 16  1  0  0  0  0
 29 30  1  0  0  0  0
 30 39  1  0  0  0  0
 31 30  2  0  0  0  0
 31 32  1  0  0  0  0
 33 31  1  0  0  0  0
 34 33  1  0  0  0  0
 35 37  1  0  0  0  0
 35 33  2  0  0  0  0
 36 35  1  0  0  0  0
 37 29  2  0  0  0  0
 38 37  1  0  0  0  0
 39 41  1  0  0  0  0
 39 40  1  0  0  0  0
 42 39  1  0  0  0  0
M  END
