1,3,5
q = -1.0

 53 54  0  0  1  0  0  0  0  0999 V2000
    0.1313   -1.0266    1.4514 N   0  0  0  0  0  2  0  0  0  0  0  0
   -1.1378   -0.9494    0.9883 N   0  0  0  0  0  0  0  0  0  0  0  0
    0.4437   -1.1844   -1.4474 N   0  0  0  0  0  2  0  0  0  0  0  0
   -0.8742   -0.8904   -1.3902 N   0  0  0  0  0  0  0  0  0  0  0  0
    0.3996    1.4457   -0.2165 N   0  0  0  0  0  2  0  0  0  0  0  0
   -1.8213    2.2481    0.0210 N   0  0  0  0  0  0  0  0  0  0  0  0
   -2.0086   -1.6892    1.7482 C   0  0  2  0  0  3  0  0  0  0  0  0
   -1.2347   -2.2517    2.7654 C   0  0  0  0  0  0  0  0  0  0  0  0
   -1.5930   -2.8991    3.5727 H   0  0  0  0  0  0  0  0  0  0  0  0
    0.0976   -1.8179    2.5358 C   0  0  0  0  0  0  0  0  0  0  0  0
   -3.4650   -1.8090    1.4427 C   0  0  0  0  0  0  0  0  0  0  0  0
   -3.9747   -0.8233    1.4438 H   0  0  0  0  0  0  0  0  0  0  0  0
   -3.9548   -2.4420    2.2049 H   0  0  0  0  0  0  0  0  0  0  0  0
   -3.6428   -2.2792    0.4526 H   0  0  0  0  0  0  0  0  0  0  0  0
    1.3380   -2.1161    3.3154 C   0  0  0  0  0  0  0  0  0  0  0  0
    2.2037   -2.2468    2.6381 H   0  0  0  0  0  0  0  0  0  0  0  0
    1.2127   -3.0340    3.9196 H   0  0  0  0  0  0  0  0  0  0  0  0
    1.5855   -1.2849    4.0082 H   0  0  0  0  0  0  0  0  0  0  0  0
   -1.5269   -1.2317   -2.5473 C   0  0  2  0  0  3  0  0  0  0  0  0
   -0.5539   -1.7892   -3.3795 C   0  0  0  0  0  0  0  0  0  0  0  0
   -0.7117   -2.1815   -4.3896 H   0  0  0  0  0  0  0  0  0  0  0  0
    0.6643   -1.7404   -2.6500 C   0  0  0  0  0  0  0  0  0  0  0  0
   -2.9858   -0.9963   -2.7609 C   0  0  0  0  0  0  0  0  0  0  0  0
   -3.6126   -1.5519   -2.0315 H   0  0  0  0  0  0  0  0  0  0  0  0
   -3.2749   -1.3341   -3.7727 H   0  0  0  0  0  0  0  0  0  0  0  0
   -3.2475    0.0789   -2.6736 H   0  0  0  0  0  0  0  0  0  0  0  0
    2.0335   -2.1869   -3.0514 C   0  0  0  0  0  0  0  0  0  0  0  0
    2.4023   -1.6079   -3.9229 H   0  0  0  0  0  0  0  0  0  0  0  0
    2.0387   -3.2569   -3.3420 H   0  0  0  0  0  0  0  0  0  0  0  0
    2.7451   -2.0454   -2.2164 H   0  0  0  0  0  0  0  0  0  0  0  0
   -1.4068   -0.1934   -0.2240 C   0  0  2  0  0  0  0  0  0  0  0  0
   -2.5022   -0.1900   -0.3485 H   0  0  0  0  0  0  0  0  0  0  0  0
   -0.9375    1.2931   -0.1228 C   0  0  0  0  0  0  0  0  0  0  0  0
   -3.2329    2.0626    0.1631 C   0  0  0  0  0  0  0  0  0  0  0  0
   -3.6489    1.1219   -0.3023 H   0  0  0  0  0  0  0  0  0  0  0  0
   -3.7573    2.8831   -0.3792 H   0  0  0  0  0  0  0  0  0  0  0  0
   -3.6758    2.0995    1.6340 C   0  0  0  0  0  0  0  0  0  0  0  0
   -3.2147    1.2680    2.2075 H   0  0  0  0  0  0  0  0  0  0  0  0
   -4.7793    2.0284    1.7328 H   0  0  0  0  0  0  0  0  0  0  0  0
   -3.3406    3.0435    2.1083 H   0  0  0  0  0  0  0  0  0  0  0  0
    0.9879    2.8079   -0.2493 C   0  0  0  0  0  0  0  0  0  0  0  0
    0.4124    3.6247   -1.4255 C   0  0  0  0  0  0  0  0  0  0  0  0
    0.5998    3.0936   -2.3814 H   0  0  0  0  0  0  0  0  0  0  0  0
    0.9011    4.6191   -1.4790 H   0  0  0  0  0  0  0  0  0  0  0  0
   -0.6772    3.7632   -1.3019 H   0  0  0  0  0  0  0  0  0  0  0  0
    0.7518    3.5381    1.0893 C   0  0  0  0  0  0  0  0  0  0  0  0
   -0.3328    3.6645    1.2644 H   0  0  0  0  0  0  0  0  0  0  0  0
    1.2381    4.5357    1.0854 H   0  0  0  0  0  0  0  0  0  0  0  0
    1.1818    2.9464    1.9238 H   0  0  0  0  0  0  0  0  0  0  0  0
    2.5008    2.6518   -0.4702 C   0  0  0  0  0  0  0  0  0  0  0  0
    2.9771    2.1083    0.3711 H   0  0  0  0  0  0  0  0  0  0  0  0
    2.9862    3.6453   -0.5502 H   0  0  0  0  0  0  0  0  0  0  0  0
    2.7092    2.0882   -1.4033 H   0  0  0  0  0  0  0  0  0  0  0  0
  1 10  1  0  0  0  0
  2  1  1  0  0  0  0
  2  7  1  0  0  0  0
  3  4  1  0  0  0  0
  4 31  1  0  0  0  0
  5 33  1  0  0  0  0
  6 34  1  0  0  0  0
  7 11  1  6  0  0  0
  7  8  1  0  0  0  0
  8  9  1  0  0  0  0
 10  8  2  0  0  0  0
 10 15  1  0  0  0  0
 11 12  1  0  0  0  0
 11 13  1  0  0  0  0
 14 11  1  0  0  0  0
 15 17  1  0  0  0  0
 15 18  1  0  0  0  0
 16 15  1  0  0  0  0
 19 23  1  6  0  0  0
 19  4  1  0  0  0  0
 20 22  2  0  0  0  0
 20 19  1  0  0  0  0
 21 20  1  0  0  0  0
 22  3  1  0  0  0  0
 23 26  1  0  0  0  0
 23 24  1  0  0  0  0
 25 23  1  0  0  0  0
 27 22  1  0  0  0  0
 27 30  1  0  0  0  0
 28 27  1  0  0  0  0
 29 27  1  0  0  0  0
 31 32  1  6  0  0  0
 31 33  1  0  0  0  0
 31  2  1  0  0  0  0
 33  6  2  0  0  0  0
 34 37  1  0  0  0  0
 35 34  1  0  0  0  0
 36 34  1  0  0  0  0
 37 39  1  0  0  0  0
 37 40  1  0  0  0  0
 37 38  1  0  0  0  0
 41  5  1  0  0  0  0
 41 46  1  0  0  0  0
 42 45  1  0  0  0  0
 42 41  1  0  0  0  0
 43 42  1  0  0  0  0
 44 42  1  0  0  0  0
 46 47  1  0  0  0  0
 46 49  1  0  0  0  0
 48 46  1  0  0  0  0
 50 41  1  0  0  0  0
 50 51  1  0  0  0  0
 52 50  1  0  0  0  0
 53 50  1  0  0  0  0
M  END
