1,2,4
q = 0.0, confidence = 0.998

 46 49  0  0  1  0  0  0  0  0999 V2000
   -2.8842    0.2095    0.0716 N   0  0  0  0  0  2  0  0  0  0  0  0
    0.2451    0.5707    1.7403 N   0  0  0  0  0  2  0  0  0  0  0  0
   -0.8856   -1.7711    0.4229 N   0  0  0  0  0  0  0  0  0  0  0  0
    1.5582   -0.6324   -0.6084 N   0  0  0  0  0  2  0  0  0  0  0  0
   -3.7727    1.2112    0.2174 C   0  0  0  0  0  3  0  0  0  0  0  0
   -3.4052    2.2365    0.0370 H   0  0  0  0  0  0  0  0  0  0  0  0
   -5.1078    0.9783    0.5778 C   0  0  0  0  0  0  0  0  0  0  0  0
   -5.8032    1.8237    0.6775 H   0  0  0  0  0  0  0  0  0  0  0  0
   -5.5175   -0.3421    0.8066 C   0  0  0  0  0  0  0  0  0  0  0  0
   -6.5550   -0.5658    1.0983 H   0  0  0  0  0  0  0  0  0  0  0  0
   -4.5836   -1.3776    0.6663 C   0  0  0  0  0  0  0  0  0  0  0  0
   -4.8665   -2.4254    0.8479 H   0  0  0  0  0  0  0  0  0  0  0  0
   -3.2672   -1.0669    0.2817 C   0  0  0  0  0  0  0  0  0  0  0  0
   -0.7356   -1.6462    1.8776 C   0  0  0  0  0  0  0  0  0  0  0  0
   -0.5336   -2.6388    2.3482 H   0  0  0  0  0  0  0  0  0  0  0  0
   -1.7056   -1.2877    2.2825 H   0  0  0  0  0  0  0  0  0  0  0  0
    0.3186   -0.6455    2.3119 C   0  0  2  0  0  3  0  0  0  0  0  0
    1.2898   -0.9476    3.2796 C   0  0  0  0  0  0  0  0  0  0  0  0
    1.3364   -1.9551    3.7200 H   0  0  0  0  0  0  0  0  0  0  0  0
    2.1973    0.0533    3.6614 C   0  0  0  0  0  0  0  0  0  0  0  0
    2.9738   -0.1586    4.4122 H   0  0  0  0  0  0  0  0  0  0  0  0
    2.1062    1.3182    3.0658 C   0  0  0  0  0  0  0  0  0  0  0  0
    2.8017    2.1277    3.3303 H   0  0  0  0  0  0  0  0  0  0  0  0
    1.1116    1.5304    2.0975 C   0  0  0  0  0  0  0  0  0  0  0  0
    1.0004    2.4841    1.5514 H   0  0  0  0  0  0  0  0  0  0  0  0
   -2.2460   -2.1660    0.0451 C   0  0  0  0  0  0  0  0  0  0  0  0
   -2.5782   -3.0865    0.5849 H   0  0  0  0  0  0  0  0  0  0  0  0
   -2.2395   -2.4270   -1.0384 H   0  0  0  0  0  0  0  0  0  0  0  0
    0.1535   -2.5994   -0.1926 C   0  0  0  0  0  0  0  0  0  0  0  0
   -0.1785   -2.8553   -1.2278 H   0  0  0  0  0  0  0  0  0  0  0  0
    0.2780   -3.5661    0.3546 H   0  0  0  0  0  0  0  0  0  0  0  0
    1.5102   -1.9234   -0.2956 C   0  0  0  0  0  0  0  0  0  0  0  0
    2.6933   -2.6939   -0.1052 C   0  0  0  0  0  0  0  0  0  0  0  0
    2.6083   -3.7599    0.1519 H   0  0  0  0  0  0  0  0  0  0  0  0
    3.9285   -2.0871   -0.2462 C   0  0  0  0  0  0  0  0  0  0  0  0
    4.8584   -2.6606   -0.1061 H   0  0  0  0  0  0  0  0  0  0  0  0
    4.0045   -0.7026   -0.5608 C   0  0  0  0  0  0  0  0  0  0  0  0
    5.2353   -0.0001   -0.6989 C   0  0  0  0  0  0  0  0  0  0  0  0
    6.1795   -0.5518   -0.5696 H   0  0  0  0  0  0  0  0  0  0  0  0
    5.2373    1.3556   -0.9903 C   0  0  0  0  0  0  0  0  0  0  0  0
    6.1903    1.8953   -1.0973 H   0  0  0  0  0  0  0  0  0  0  0  0
    4.0101    2.0544   -1.1516 C   0  0  0  0  0  0  0  0  0  0  0  0
    4.0236    3.1312   -1.3782 H   0  0  0  0  0  0  0  0  0  0  0  0
    2.7909    1.4026   -1.0287 C   0  0  0  0  0  0  0  0  0  0  0  0
    1.8450    1.9584   -1.1375 H   0  0  0  0  0  0  0  0  0  0  0  0
    2.7616    0.0084   -0.7338 C   0  0  2  0  0  3  0  0  0  0  0  0
  1  5  1  0  0  0  0
  1 13  1  0  0  0  0
  2 24  1  0  0  0  0
  2 17  1  0  0  0  0
  3 14  1  0  0  0  0
  4 32  1  0  0  0  0
  5  7  1  0  0  0  0
  6  5  1  0  0  0  0
  7  8  1  0  0  0  0
  7  9  2  0  0  0  0
  9 10  1  0  0  0  0
 11  9  1  0  0  0  0
 11 12  1  0  0  0  0
 13 11  2  0  0  0  0
 14 16  1  0  0  0  0
 14 15  1  0  0  0  0
 17 14  1  1  0  0  0
 17 18  1  0  0  0  0
 18 20  2  0  0  0  0
 18 19  1  0  0  0  0
 20 21  1  0  0  0  0
 22 23  1  0  0  0  0
 22 20  1  0  0  0  0
 24 22  2  0  0  0  0
 25 24  1  0  0  0  0
 26 13  1  0  0  0  0
 26  3  1  0  0  0  0
 26 27  1  0  0  0  0
 28 26  1  0  0  0  0
 29 31  1  0  0  0  0
 29  3  1  0  0  0  0
 30 29  1  0  0  0  0
 32 29  1  0  0  0  0
 32 33  2  0  0  0  0
 33 34  1  0  0  0  0
 35 36  1  0  0  0  0
 35 33  1  0  0  0  0
 37 35  2  0  0  0  0
 38 39  1  0  0  0  0
 38 37  1  0  0  0  0
 40 38  2  0  0  0  0
 41 40  1  0  0  0  0
 42 44  2  0  0  0  0
 42 40  1  0  0  0  0
 43 42  1  0  0  0  0
 45 44  1  0  0  0  0
 46 44  1  1  0  0  0
 46  4  1  0  0  0  0
 46 37  1  0  0  0  0
M  END
