1,2,3
q = -1.0, confidence = 0.014

 59 64  0  0  1  0  0  0  0  0999 V2000
    1.6535   -0.6296    1.1210 N   0  0  0  0  0  2  0  0  0  0  0  0
    0.0001    1.3678    0.0008 N   0  0  0  0  0  2  0  0  0  0  0  0
   -1.6538   -0.6276   -1.1220 N   0  0  0  0  0  2  0  0  0  0  0  0
    3.1220    0.1365    2.6326 O   0  0  0  0  0  0  0  0  0  0  0  0
   -3.1222    0.1410   -2.6323 O   0  0  0  0  0  0  0  0  0  0  0  0
    3.5451   -1.4942   -0.1977 C   0  0  0  0  0  0  0  0  0  0  0  0
    3.2996   -2.3878   -1.2572 C   0  0  0  0  0  0  0  0  0  0  0  0
    2.5340   -3.1681   -1.1282 H   0  0  0  0  0  0  0  0  0  0  0  0
    3.9909   -2.2539   -2.4709 C   0  0  0  0  0  0  0  0  0  0  0  0
    3.7900   -2.9582   -3.2927 H   0  0  0  0  0  0  0  0  0  0  0  0
    4.9291   -1.2241   -2.6404 C   0  0  0  0  0  0  0  0  0  0  0  0
    5.4704   -1.1195   -3.5931 H   0  0  0  0  0  0  0  0  0  0  0  0
    5.1705   -0.3222   -1.5912 C   0  0  0  0  0  0  0  0  0  0  0  0
    5.8991    0.4927   -1.7197 H   0  0  0  0  0  0  0  0  0  0  0  0
    4.4810   -0.4552   -0.3775 C   0  0  0  0  0  0  0  0  0  0  0  0
    4.6677    0.2670    0.4331 H   0  0  0  0  0  0  0  0  0  0  0  0
    2.7561   -1.6249    1.0957 C   0  0  1  0  0  0  0  0  0  0  0  0
    2.3038   -2.6327    1.1532 H   0  0  0  0  0  0  0  0  0  0  0  0
    3.5097   -1.2423    2.3822 C   0  0  0  0  0  0  0  0  0  0  0  0
    3.1853   -1.8505    3.2527 H   0  0  0  0  0  0  0  0  0  0  0  0
    4.6103   -1.2804    2.2899 H   0  0  0  0  0  0  0  0  0  0  0  0
    1.9842    0.3462    1.9266 C   0  0  0  0  0  0  0  0  0  0  0  0
    1.2622    1.5841    2.1286 C   0  0  0  0  0  0  0  0  0  0  0  0
    1.5439    2.3431    3.2924 C   0  0  0  0  0  0  0  0  0  0  0  0
    2.2879    1.9453    3.9967 H   0  0  0  0  0  0  0  0  0  0  0  0
    0.8974    3.5489    3.5467 C   0  0  0  0  0  0  0  0  0  0  0  0
    1.1182    4.1195    4.4600 H   0  0  0  0  0  0  0  0  0  0  0  0
   -0.0635    4.0103    2.6215 C   0  0  0  0  0  0  0  0  0  0  0  0
   -0.6155    4.9423    2.8196 H   0  0  0  0  0  0  0  0  0  0  0  0
   -0.3468    3.2889    1.4655 C   0  0  0  0  0  0  0  0  0  0  0  0
   -1.1133    3.6536    0.7679 H   0  0  0  0  0  0  0  0  0  0  0  0
    0.3096    2.0590    1.1608 C   0  0  2  0  0  3  0  0  0  0  0  0
   -0.3091    2.0606   -1.1582 C   0  0  0  0  0  0  0  0  0  0  0  0
    0.3477    3.2907   -1.4613 C   0  0  0  0  0  0  0  0  0  0  0  0
    1.1143    3.6541   -0.7632 H   0  0  0  0  0  0  0  0  0  0  0  0
    0.0646    4.0137   -2.6163 C   0  0  0  0  0  0  0  0  0  0  0  0
    0.6169    4.9458   -2.8132 H   0  0  0  0  0  0  0  0  0  0  0  0
   -0.8965    3.5539   -3.5421 C   0  0  0  0  0  0  0  0  0  0  0  0
   -1.1172    4.1258   -4.4546 H   0  0  0  0  0  0  0  0  0  0  0  0
   -1.5434    2.3480   -3.2893 C   0  0  0  0  0  3  0  0  0  0  0  0
   -2.2876    1.9514   -3.9942 H   0  0  0  0  0  0  0  0  0  0  0  0
   -1.2619    1.5873   -2.1266 C   0  0  0  0  0  0  0  0  0  0  0  0
   -1.9843    0.3494   -1.9262 C   0  0  0  0  0  0  0  0  0  0  0  0
   -3.5105   -1.2379   -2.3837 C   0  0  0  0  0  0  0  0  0  0  0  0
   -3.1869   -1.8451   -3.2551 H   0  0  0  0  0  0  0  0  0  0  0  0
   -4.6111   -1.2755   -2.2909 H   0  0  0  0  0  0  0  0  0  0  0  0
   -2.7566   -1.6227   -1.0979 C   0  0  2  0  0  0  0  0  0  0  0  0
   -2.3046   -2.6305   -1.1572 H   0  0  0  0  0  0  0  0  0  0  0  0
   -3.5453   -1.4939    0.1958 C   0  0  0  0  0  0  0  0  0  0  0  0
   -4.4801   -0.4543    0.3779 C   0  0  0  0  0  0  0  0  0  0  0  0
   -4.6660    0.2698   -0.4312 H   0  0  0  0  0  0  0  0  0  0  0  0
   -5.1693   -0.3231    1.5919 C   0  0  0  0  0  0  0  0  0  0  0  0
   -5.8971    0.4923    1.7222 H   0  0  0  0  0  0  0  0  0  0  0  0
   -4.9289   -1.2275    2.6392 C   0  0  0  0  0  0  0  0  0  0  0  0
   -5.4701   -1.1243    3.5921 H   0  0  0  0  0  0  0  0  0  0  0  0
   -3.9918   -2.2580    2.4675 C   0  0  0  0  0  0  0  0  0  0  0  0
   -3.7917   -2.9642    3.2877 H   0  0  0  0  0  0  0  0  0  0  0  0
   -3.3007   -2.3900    1.2534 C   0  0  0  0  0  0  0  0  0  0  0  0
   -2.5359   -3.1708    1.1228 H   0  0  0  0  0  0  0  0  0  0  0  0
  1 22  1  0  0  0  0
  3 47  1  0  0  0  0
  5 44  1  0  0  0  0
  5 43  1  0  0  0  0
  6 17  1  0  0  0  0
  7  8  1  0  0  0  0
  7  6  2  0  0  0  0
  9  7  1  0  0  0  0
 10  9  1  0  0  0  0
 11  9  2  0  0  0  0
 11 13  1  0  0  0  0
 12 11  1  0  0  0  0
 13 15  2  0  0  0  0
 14 13  1  0  0  0  0
 15  6  1  0  0  0  0
 15 16  1  0  0  0  0
 17  1  1  0  0  0  0
 17 18  1  1  0  0  0
 17 19  1  0  0  0  0
 19  4  1  0  0  0  0
 19 20  1  0  0  0  0
 21 19  1  0  0  0  0
 22 23  2  0  0  0  0
 22  4  1  0  0  0  0
 23 24  1  0  0  0  0
 24 26  2  0  0  0  0
 24 25  1  0  0  0  0
 26 27  1  0  0  0  0
 28 29  1  0  0  0  0
 28 26  1  0  0  0  0
 30 28  2  0  0  0  0
 31 30  1  0  0  0  0
 32  2  1  1  0  0  0
 32 30  1  0  0  0  0
 32 23  1  0  0  0  0
 33  2  1  0  0  0  0
 34 33  2  0  0  0  0
 34 35  1  0  0  0  0
 36 34  1  0  0  0  0
 37 36  1  0  0  0  0
 38 40  1  0  0  0  0
 38 36  2  0  0  0  0
 39 38  1  0  0  0  0
 40 42  1  0  0  0  0
 41 40  1  0  0  0  0
 42 43  2  0  0  0  0
 42 33  1  0  0  0  0
 43  3  1  0  0  0  0
 44 46  1  0  0  0  0
 44 47  1  0  0  0  0
 45 44  1  0  0  0  0
 47 48  1  6  0  0  0
 47 49  1  0  0  0  0
 49 50  2  0  0  0  0
 49 58  1  0  0  0  0
 50 52  1  0  0  0  0
 51 50  1  0  0  0  0
 52 53  1  0  0  0  0
 52 54  2  0  0  0  0
 54 55  1  0  0  0  0
 56 54  1  0  0  0  0
 56 57  1  0  0  0  0
 58 56  2  0  0  0  0
 59 58  1  0  0  0  0
M  END
