1,2,3
q = -2.0, confidence = 0.932

 37 41  0  0  0  0  0  0  0  0999 V2000
    2.0027    0.4433    0.0008 N   0  0  0  0  0  0  0  0  0  0  0  0
   -0.0000    2.0856    0.0007 N   0  0  0  0  0  2  0  0  0  0  0  0
   -2.0028    0.4433    0.0007 N   0  0  0  0  0  2  0  0  0  0  0  0
    3.1809   -0.2549    0.0000 C   0  0  0  0  0  0  0  0  0  0  0  0
    3.4232   -1.6485    0.0002 C   0  0  0  0  0  0  0  0  0  0  0  0
    2.5927   -2.3666    0.0010 H   0  0  0  0  0  0  0  0  0  0  0  0
    4.7464   -2.0919   -0.0005 C   0  0  0  0  0  0  0  0  0  0  0  0
    4.9511   -3.1738   -0.0004 H   0  0  0  0  0  0  0  0  0  0  0  0
    5.8373   -1.1801   -0.0015 C   0  0  0  0  0  0  0  0  0  0  0  0
    6.8660   -1.5713   -0.0020 H   0  0  0  0  0  0  0  0  0  0  0  0
    5.6183    0.1963   -0.0016 C   0  0  0  0  0  0  0  0  0  0  0  0
    6.4650    0.9004   -0.0023 H   0  0  0  0  0  0  0  0  0  0  0  0
    4.2882    0.6851   -0.0009 C   0  0  0  0  0  0  0  0  0  0  0  0
    3.7165    1.9904   -0.0007 C   0  0  0  0  0  0  0  0  0  0  0  0
    4.2488    2.9483   -0.0012 H   0  0  0  0  0  0  0  0  0  0  0  0
    2.3266    1.8032    0.0003 C   0  0  0  0  0  3  0  0  0  0  0  0
   -3.1809   -0.2549   -0.0000 C   0  0  0  0  0  0  0  0  0  0  0  0
   -3.4232   -1.6485    0.0001 C   0  0  0  0  0  0  0  0  0  0  0  0
   -2.5926   -2.3666    0.0008 H   0  0  0  0  0  0  0  0  0  0  0  0
   -4.7463   -2.0920   -0.0006 C   0  0  0  0  0  0  0  0  0  0  0  0
   -4.9509   -3.1739   -0.0006 H   0  0  0  0  0  0  0  0  0  0  0  0
   -5.8372   -1.1802   -0.0014 C   0  0  0  0  0  0  0  0  0  0  0  0
   -6.8659   -1.5715   -0.0019 H   0  0  0  0  0  0  0  0  0  0  0  0
   -5.6183    0.1962   -0.0015 C   0  0  0  0  0  3  0  0  0  0  0  0
   -6.4651    0.9003   -0.0020 H   0  0  0  0  0  0  0  0  0  0  0  0
   -4.2883    0.6851   -0.0008 C   0  0  0  0  0  0  0  0  0  0  0  0
   -3.7165    1.9903   -0.0005 C   0  0  0  0  0  0  0  0  0  0  0  0
   -4.2489    2.9483   -0.0010 H   0  0  0  0  0  0  0  0  0  0  0  0
   -2.3266    1.8032    0.0003 C   0  0  0  0  0  0  0  0  0  0  0  0
    1.2075    2.7213    0.0004 C   0  0  0  0  0  0  0  0  0  0  0  0
    1.2230    4.1310    0.0000 C   0  0  0  0  0  0  0  0  0  0  0  0
    2.1824    4.6649   -0.0002 H   0  0  0  0  0  0  0  0  0  0  0  0
   -0.0000    4.8196   -0.0001 C   0  0  0  0  0  0  0  0  0  0  0  0
   -0.0000    5.9201   -0.0004 H   0  0  0  0  0  0  0  0  0  0  0  0
   -1.2230    4.1310    0.0001 C   0  0  0  0  0  0  0  0  0  0  0  0
   -2.1825    4.6649   -0.0001 H   0  0  0  0  0  0  0  0  0  0  0  0
   -1.2076    2.7213    0.0004 C   0  0  0  0  0  0  0  0  0  0  0  0
  4  5  1  0  0  0  0
  4  1  2  0  0  0  0
  5  6  1  0  0  0  0
  7  8  1  0  0  0  0
  7  5  2  0  0  0  0
  9  7  1  0  0  0  0
 10  9  1  0  0  0  0
 11  9  2  0  0  0  0
 11 13  1  0  0  0  0
 12 11  1  0  0  0  0
 13 14  2  0  0  0  0
 13  4  1  0  0  0  0
 14 16  1  0  0  0  0
 15 14  1  0  0  0  0
 16 30  1  0  0  0  0
 16  1  1  0  0  0  0
 17 18  2  0  0  0  0
 17  3  1  0  0  0  0
 18 19  1  0  0  0  0
 20 21  1  0  0  0  0
 20 18  1  0  0  0  0
 22 20  2  0  0  0  0
 23 22  1  0  0  0  0
 24 22  1  0  0  0  0
 24 26  1  0  0  0  0
 25 24  1  0  0  0  0
 26 27  2  0  0  0  0
 26 17  1  0  0  0  0
 27 29  1  0  0  0  0
 28 27  1  0  0  0  0
 29 37  2  0  0  0  0
 29  3  1  0  0  0  0
 30  2  1  0  0  0  0
 31 30  2  0  0  0  0
 32 31  1  0  0  0  0
 33 31  1  0  0  0  0
 33 35  2  0  0  0  0
 34 33  1  0  0  0  0
 35 37  1  0  0  0  0
 36 35  1  0  0  0  0
 37  2  1  0  0  0  0
M  END
