1,2,3
q = -1.0

 58 58  0  0  1  0  0  0  0  0999 V2000
    1.4486   -0.0839    0.6967 N   0  0  0  0  0  2  0  0  0  0  0  0
   -1.0936    1.3768    0.9531 N   0  0  0  0  0  2  0  0  0  0  0  0
   -1.2629    2.2506   -1.6620 N   0  0  0  0  0  0  0  0  0  0  0  0
    2.5020   -0.6241    2.8723 C   0  0  0  0  0  0  0  0  0  0  0  0
    2.8552   -1.5927    2.4684 H   0  0  0  0  0  0  0  0  0  0  0  0
    2.1967   -0.7558    3.9260 H   0  0  0  0  0  0  0  0  0  0  0  0
    3.3785    0.0552    2.8493 H   0  0  0  0  0  0  0  0  0  0  0  0
    1.3631   -0.0652    2.0445 C   0  0  1  0  0  3  0  0  0  0  0  0
    0.2680    0.4648    2.7523 C   0  0  0  0  0  0  0  0  0  0  0  0
    0.3161    0.3624    3.8438 H   0  0  0  0  0  0  0  0  0  0  0  0
   -0.8572    1.1672    2.2553 C   0  0  0  0  0  0  0  0  0  0  0  0
   -1.8276    1.6946    3.2904 C   0  0  0  0  0  0  0  0  0  0  0  0
   -2.8330    1.2489    3.1365 H   0  0  0  0  0  0  0  0  0  0  0  0
   -1.9482    2.7951    3.2131 H   0  0  0  0  0  0  0  0  0  0  0  0
   -1.4924    1.4544    4.3147 H   0  0  0  0  0  0  0  0  0  0  0  0
   -2.2578    2.1938    0.6189 C   0  0  0  0  0  0  0  0  0  0  0  0
   -2.1176    3.2421    0.9749 H   0  0  0  0  0  0  0  0  0  0  0  0
   -3.1828    1.8191    1.1100 H   0  0  0  0  0  0  0  0  0  0  0  0
   -2.5138    2.1752   -0.8804 C   0  0  0  0  0  0  0  0  0  0  0  0
   -3.0039    1.2200   -1.1481 H   0  0  0  0  0  0  0  0  0  0  0  0
   -3.2101    3.0016   -1.1636 H   0  0  0  0  0  0  0  0  0  0  0  0
   -0.5073    3.4848   -1.3982 C   0  0  0  0  0  0  0  0  0  0  0  0
   -1.1181    4.3911   -1.6234 H   0  0  0  0  0  0  0  0  0  0  0  0
    0.3985    3.4973   -2.0318 H   0  0  0  0  0  0  0  0  0  0  0  0
   -0.1869    3.5201   -0.3396 H   0  0  0  0  0  0  0  0  0  0  0  0
   -1.5719    2.1334   -3.0959 C   0  0  0  0  0  0  0  0  0  0  0  0
   -2.2588    2.9492   -3.4229 H   0  0  0  0  0  0  0  0  0  0  0  0
   -2.0591    1.1579   -3.2881 H   0  0  0  0  0  0  0  0  0  0  0  0
   -0.6411    2.1815   -3.6876 H   0  0  0  0  0  0  0  0  0  0  0  0
    2.7078   -0.4651    0.1241 C   0  0  0  0  0  0  0  0  0  0  0  0
    2.8597   -1.7496   -0.4654 C   0  0  0  0  0  0  0  0  0  0  0  0
    4.1053   -2.0896   -1.0264 C   0  0  0  0  0  0  0  0  0  0  0  0
    4.2348   -3.0834   -1.4812 H   0  0  0  0  0  0  0  0  0  0  0  0
    5.1734   -1.1860   -1.0237 C   0  0  0  0  0  0  0  0  0  0  0  0
    6.1392   -1.4690   -1.4691 H   0  0  0  0  0  0  0  0  0  0  0  0
    5.0032    0.0866   -0.4627 C   0  0  0  0  0  0  0  0  0  0  0  0
    5.8400    0.8012   -0.4806 H   0  0  0  0  0  0  0  0  0  0  0  0
    3.7812    0.4715    0.1159 C   0  0  0  0  0  0  0  0  0  0  0  0
    3.5972    1.8905    0.6467 C   0  0  0  0  0  0  0  0  0  0  0  0
    2.7158    1.8882    1.3188 H   0  0  0  0  0  0  0  0  0  0  0  0
    3.2672    2.8440   -0.5162 C   0  0  0  0  0  0  0  0  0  0  0  0
    4.1186    2.9099   -1.2252 H   0  0  0  0  0  0  0  0  0  0  0  0
    3.0483    3.8670   -0.1444 H   0  0  0  0  0  0  0  0  0  0  0  0
    2.3918    2.4767   -1.0867 H   0  0  0  0  0  0  0  0  0  0  0  0
    4.7952    2.3984    1.4614 C   0  0  0  0  0  0  0  0  0  0  0  0
    5.7011    2.5258    0.8335 H   0  0  0  0  0  0  0  0  0  0  0  0
    5.0555    1.7034    2.2858 H   0  0  0  0  0  0  0  0  0  0  0  0
    4.5680    3.3880    1.9076 H   0  0  0  0  0  0  0  0  0  0  0  0
    1.7087   -2.7455   -0.5037 C   0  0  0  0  0  0  0  0  0  0  0  0
    0.7755   -2.1847   -0.2824 H   0  0  0  0  0  0  0  0  0  0  0  0
    1.5176   -3.3819   -1.8870 C   0  0  0  0  0  0  0  0  0  0  0  0
    1.4635   -2.6079   -2.6784 H   0  0  0  0  0  0  0  0  0  0  0  0
    0.5692   -3.9547   -1.9121 H   0  0  0  0  0  0  0  0  0  0  0  0
    2.3442   -4.0771   -2.1430 H   0  0  0  0  0  0  0  0  0  0  0  0
    1.8407   -3.8151    0.5936 C   0  0  0  0  0  0  0  0  0  0  0  0
    2.7685   -4.4099    0.4588 H   0  0  0  0  0  0  0  0  0  0  0  0
    0.9789   -4.5132    0.5642 H   0  0  0  0  0  0  0  0  0  0  0  0
    1.8735   -3.3619    1.6044 H   0  0  0  0  0  0  0  0  0  0  0  0
  2 11  1  0  0  0  0
  3 22  1  0  0  0  0
  3 19  1  0  0  0  0
  4  6  1  0  0  0  0
  5  4  1  0  0  0  0
  7  4  1  0  0  0  0
  8  1  1  1  0  0  0
  8  9  1  0  0  0  0
  8  4  1  0  0  0  0
  9 10  1  0  0  0  0
 11  9  2  0  0  0  0
 11 12  1  0  0  0  0
 12 15  1  0  0  0  0
 13 12  1  0  0  0  0
 14 12  1  0  0  0  0
 16  2  1  0  0  0  0
 16 17  1  0  0  0  0
 16 18  1  0  0  0  0
 19 16  1  0  0  0  0
 20 19  1  0  0  0  0
 21 19  1  0  0  0  0
 22 25  1  0  0  0  0
 23 22  1  0  0  0  0
 24 22  1  0  0  0  0
 26  3  1  0  0  0  0
 27 26  1  0  0  0  0
 28 26  1  0  0  0  0
 29 26  1  0  0  0  0
 30  1  1  0  0  0  0
 31 30  2  0  0  0  0
 32 34  2  0  0  0  0
 32 31  1  0  0  0  0
 33 32  1  0  0  0  0
 34 36  1  0  0  0  0
 35 34  1  0  0  0  0
 36 38  2  0  0  0  0
 37 36  1  0  0  0  0
 38 30  1  0  0  0  0
 38 39  1  0  0  0  0
 39 40  1  0  0  0  0
 39 45  1  0  0  0  0
 41 43  1  0  0  0  0
 41 39  1  0  0  0  0
 42 41  1  0  0  0  0
 44 41  1  0  0  0  0
 45 48  1  0  0  0  0
 45 47  1  0  0  0  0
 46 45  1  0  0  0  0
 49 31  1  0  0  0  0
 49 50  1  0  0  0  0
 49 55  1  0  0  0  0
 51 49  1  0  0  0  0
 52 51  1  0  0  0  0
 53 51  1  0  0  0  0
 54 51  1  0  0  0  0
 55 58  1  0  0  0  0
 56 55  1  0  0  0  0
 57 55  1  0  0  0  0
M  END
