2,3,4
q = 0.0, confidence = 0.98

 39 43  0  0  1  0  0  0  0  0999 V2000
    2.7025   -1.8954   -0.3165 N   0  0  0  0  0  0  0  0  0  0  0  0
    2.0317    0.3221   -0.0845 N   0  0  0  0  0  2  0  0  0  0  0  0
    0.0000    1.8992    0.2602 N   0  0  0  0  0  2  0  0  0  0  0  0
   -2.0316    0.3222   -0.0845 N   0  0  0  0  0  2  0  0  0  0  0  0
   -2.7025   -1.8954   -0.3165 N   0  0  0  0  0  0  0  0  0  0  0  0
    5.4255   -1.1695   -0.4159 C   0  0  0  0  0  3  0  0  0  0  0  0
    5.0400   -2.4920   -0.5595 C   0  0  0  0  0  0  0  0  0  0  0  0
    3.6549   -2.8027   -0.4887 C   0  0  0  0  0  0  0  0  0  0  0  0
    3.0549   -0.5953   -0.2114 C   0  0  0  0  0  0  0  0  0  0  0  0
    4.4302   -0.1702   -0.2270 C   0  0  0  0  0  0  0  0  0  0  0  0
    4.7238    1.2088   -0.0495 C   0  0  0  0  0  0  0  0  0  0  0  0
    3.6821    2.0988    0.1341 C   0  0  0  0  0  0  0  0  0  0  0  0
    2.3412    1.6371    0.1084 C   0  0  0  0  0  0  0  0  0  0  0  0
    1.1910    2.5445    0.2787 C   0  0  1  0  0  3  0  0  0  0  0  0
    1.2184    3.9439    0.4205 C   0  0  0  0  0  0  0  0  0  0  0  0
    0.0000    4.6351    0.5060 C   0  0  0  0  0  0  0  0  0  0  0  0
   -1.2183    3.9439    0.4204 C   0  0  0  0  0  0  0  0  0  0  0  0
   -1.1910    2.5445    0.2787 C   0  0  0  0  0  0  0  0  0  0  0  0
   -2.3411    1.6371    0.1083 C   0  0  0  0  0  0  0  0  0  0  0  0
   -3.6820    2.0988    0.1339 C   0  0  0  0  0  0  0  0  0  0  0  0
   -4.7238    1.2089   -0.0496 C   0  0  0  0  0  0  0  0  0  0  0  0
   -4.4302   -0.1701   -0.2271 C   0  0  0  0  0  0  0  0  0  0  0  0
   -3.0548   -0.5952   -0.2115 C   0  0  0  0  0  0  0  0  0  0  0  0
   -3.6549   -2.8026   -0.4887 C   0  0  0  0  0  0  0  0  0  0  0  0
   -5.0400   -2.4920   -0.5595 C   0  0  0  0  0  0  0  0  0  0  0  0
   -5.4255   -1.1694   -0.4159 C   0  0  0  0  0  3  0  0  0  0  0  0
    6.4855   -0.8745   -0.4453 H   0  0  0  0  0  0  0  0  0  0  0  0
    5.7775   -3.2921   -0.7162 H   0  0  0  0  0  0  0  0  0  0  0  0
    3.3197   -3.8510   -0.5791 H   0  0  0  0  0  0  0  0  0  0  0  0
    5.7692    1.5516   -0.0541 H   0  0  0  0  0  0  0  0  0  0  0  0
    3.8818    3.1668    0.2896 H   0  0  0  0  0  0  0  0  0  0  0  0
    2.1694    4.4916    0.4457 H   0  0  0  0  0  0  0  0  0  0  0  0
    0.0001    5.7289    0.6156 H   0  0  0  0  0  0  0  0  0  0  0  0
   -2.1694    4.4917    0.4456 H   0  0  0  0  0  0  0  0  0  0  0  0
   -3.8817    3.1669    0.2895 H   0  0  0  0  0  0  0  0  0  0  0  0
   -5.7691    1.5517   -0.0543 H   0  0  0  0  0  0  0  0  0  0  0  0
   -3.3197   -3.8509   -0.5790 H   0  0  0  0  0  0  0  0  0  0  0  0
   -5.7775   -3.2920   -0.7162 H   0  0  0  0  0  0  0  0  0  0  0  0
   -6.4855   -0.8744   -0.4454 H   0  0  0  0  0  0  0  0  0  0  0  0
  1  9  2  0  0  0  0
  2 13  1  0  0  0  0
  3 18  1  0  0  0  0
  3 14  1  0  0  0  0
  4 19  1  0  0  0  0
  5 23  2  0  0  0  0
  6 10  1  0  0  0  0
  7  8  2  0  0  0  0
  7  6  1  0  0  0  0
  8  1  1  0  0  0  0
  9  2  1  0  0  0  0
 10  9  1  0  0  0  0
 10 11  2  0  0  0  0
 11 12  1  0  0  0  0
 12 31  1  0  0  0  0
 13 12  2  0  0  0  0
 14 13  1  6  0  0  0
 14 15  1  0  0  0  0
 15 32  1  0  0  0  0
 15 16  2  0  0  0  0
 16 33  1  0  0  0  0
 17 34  1  0  0  0  0
 17 16  1  0  0  0  0
 18 17  2  0  0  0  0
 19 20  2  0  0  0  0
 19 18  1  0  0  0  0
 20 35  1  0  0  0  0
 21 20  1  0  0  0  0
 22 23  1  0  0  0  0
 22 21  2  0  0  0  0
 23  4  1  0  0  0  0
 24  5  1  0  0  0  0
 25 24  2  0  0  0  0
 25 26  1  0  0  0  0
 26 22  1  0  0  0  0
 27  6  1  0  0  0  0
 28  7  1  0  0  0  0
 29  8  1  0  0  0  0
 30 11  1  0  0  0  0
 36 21  1  0  0  0  0
 37 24  1  0  0  0  0
 38 25  1  0  0  0  0
 39 26  1  0  0  0  0
M  END
