1,2,5
q = -1.0

 42 46  0  0  1  0  0  0  0  0999 V2000
   -0.9327    0.7463   -0.0152 N   0  0  0  0  0  2  0  0  0  0  0  0
    1.0937   -0.7873   -0.0287 N   0  0  0  0  0  2  0  0  0  0  0  0
    0.2542    1.4392    0.0373 C   0  0  0  0  0  0  0  0  0  0  0  0
   -2.2215    1.2124   -0.0982 C   0  0  0  0  0  0  0  0  0  0  0  0
   -2.6553   -1.1207    0.0789 N   0  0  0  0  0  2  0  0  0  0  0  0
    0.4926    2.8233    0.1388 C   0  0  0  0  0  0  0  0  0  0  0  0
   -0.3378    3.5316    0.2253 H   0  0  0  0  0  0  0  0  0  0  0  0
    1.3952    0.5692    0.0062 C   0  0  1  0  0  3  0  0  0  0  0  0
    2.7263    1.0639    0.0199 C   0  0  0  0  0  0  0  0  0  0  0  0
    3.4537   -1.2970   -0.0868 C   0  0  0  0  0  0  0  0  0  0  0  0
   -3.1848    0.1463   -0.0217 C   0  0  0  0  0  0  0  0  0  0  0  0
    2.0764   -1.6765   -0.0752 C   0  0  0  0  0  0  0  0  0  0  0  0
    1.7679   -2.7341   -0.0948 H   0  0  0  0  0  0  0  0  0  0  0  0
   -3.4794   -2.1748    0.1692 C   0  0  0  0  0  0  0  0  0  0  0  0
   -2.9837   -3.1547    0.2427 H   0  0  0  0  0  0  0  0  0  0  0  0
    3.8058    0.0925   -0.0360 C   0  0  0  0  0  0  0  0  0  0  0  0
    6.1634   -0.5485   -0.0994 C   0  0  0  0  0  0  0  0  0  0  0  0
    7.2249   -0.2582   -0.1053 H   0  0  0  0  0  0  0  0  0  0  0  0
   -5.0508    1.7254   -0.1990 C   0  0  0  0  0  3  0  0  0  0  0  0
   -6.1308    1.9292   -0.2299 H   0  0  0  0  0  0  0  0  0  0  0  0
   -4.1178    2.7507   -0.3120 C   0  0  0  0  0  0  0  0  0  0  0  0
   -4.4674    3.7864   -0.4436 H   0  0  0  0  0  0  0  0  0  0  0  0
    5.1807    0.4373   -0.0431 C   0  0  0  0  0  0  0  0  0  0  0  0
    5.4778    1.4946   -0.0058 H   0  0  0  0  0  0  0  0  0  0  0  0
   -4.5944    0.3839   -0.0571 C   0  0  0  0  0  0  0  0  0  0  0  0
    2.9103    2.4679    0.0953 C   0  0  0  0  0  0  0  0  0  0  0  0
    3.9255    2.8877    0.1112 H   0  0  0  0  0  0  0  0  0  0  0  0
    1.8138    3.3347    0.1674 C   0  0  0  0  0  0  0  0  0  0  0  0
    4.4721   -2.2880   -0.1427 C   0  0  0  0  0  0  0  0  0  0  0  0
    4.1776   -3.3479   -0.1801 H   0  0  0  0  0  0  0  0  0  0  0  0
    5.8114   -1.9193   -0.1494 C   0  0  0  0  0  0  0  0  0  0  0  0
    6.5977   -2.6874   -0.1930 H   0  0  0  0  0  0  0  0  0  0  0  0
   -2.7220    2.5200   -0.2662 C   0  0  0  0  0  0  0  0  0  0  0  0
   -2.0471    3.3722   -0.3891 H   0  0  0  0  0  0  0  0  0  0  0  0
   -4.8831   -2.0211    0.1577 C   0  0  0  0  0  0  0  0  0  0  0  0
   -5.5138   -2.9182    0.2355 H   0  0  0  0  0  0  0  0  0  0  0  0
    2.0154    4.8259    0.2766 C   0  0  0  0  0  0  0  0  0  0  0  0
    1.5458    5.3570   -0.5776 H   0  0  0  0  0  0  0  0  0  0  0  0
    3.0885    5.0956    0.2974 H   0  0  0  0  0  0  0  0  0  0  0  0
    1.5445    5.2258    1.1989 H   0  0  0  0  0  0  0  0  0  0  0  0
   -5.4420   -0.7553    0.0420 C   0  0  0  0  0  0  0  0  0  0  0  0
   -6.5342   -0.6177    0.0219 H   0  0  0  0  0  0  0  0  0  0  0  0
  1  3  1  0  0  0  0
  3  6  2  0  0  0  0
  4 11  2  0  0  0  0
  4  1  1  0  0  0  0
  5 14  1  0  0  0  0
  6 28  1  0  0  0  0
  6  7  1  0  0  0  0
  8  2  1  1  0  0  0
  8  9  1  0  0  0  0
  8  3  1  0  0  0  0
  9 26  1  0  0  0  0
 10 12  2  0  0  0  0
 10 16  1  0  0  0  0
 11  5  1  0  0  0  0
 12  2  1  0  0  0  0
 13 12  1  0  0  0  0
 14 15  1  0  0  0  0
 16  9  2  0  0  0  0
 17 23  2  0  0  0  0
 18 17  1  0  0  0  0
 19 25  1  0  0  0  0
 20 19  1  0  0  0  0
 21 33  2  0  0  0  0
 21 19  1  0  0  0  0
 22 21  1  0  0  0  0
 23 16  1  0  0  0  0
 23 24  1  0  0  0  0
 25 11  1  0  0  0  0
 25 41  2  0  0  0  0
 26 27  1  0  0  0  0
 26 28  2  0  0  0  0
 28 37  1  0  0  0  0
 29 10  1  0  0  0  0
 30 29  1  0  0  0  0
 31 29  2  0  0  0  0
 31 17  1  0  0  0  0
 32 31  1  0  0  0  0
 33  4  1  0  0  0  0
 34 33  1  0  0  0  0
 35 14  2  0  0  0  0
 35 36  1  0  0  0  0
 37 39  1  0  0  0  0
 37 40  1  0  0  0  0
 38 37  1  0  0  0  0
 41 35  1  0  0  0  0
 42 41  1  0  0  0  0
M  END
