40,44,45
q = -1.0

 48 50  0  0  1  0  0  0  0  0999 V2000
   -1.2033    2.1135    0.1355 C   0  0  0  0  0  0  0  0  0  0  0  0
   -2.5266    2.5400    0.4340 C   0  0  0  0  0  0  0  0  0  0  0  0
   -3.2208    1.8269    0.8964 H   0  0  0  0  0  0  0  0  0  0  0  0
   -2.9589    3.8314    0.1373 C   0  0  0  0  0  0  0  0  0  0  0  0
   -3.9973    4.1138    0.3697 H   0  0  0  0  0  0  0  0  0  0  0  0
   -2.0904    4.7707   -0.4566 C   0  0  0  0  0  0  0  0  0  0  0  0
   -2.4384    5.7864   -0.6927 H   0  0  0  0  0  0  0  0  0  0  0  0
   -0.7775    4.3929   -0.7210 C   0  0  0  0  0  0  0  0  0  0  0  0
   -0.0736    5.1213   -1.1551 H   0  0  0  0  0  0  0  0  0  0  0  0
   -0.2960    3.0874   -0.4322 C   0  0  0  0  0  0  0  0  0  0  0  0
    1.1222    2.8661   -0.6110 C   0  0  0  0  0  3  0  0  0  0  0  0
    1.7338    3.7705   -0.8232 H   0  0  0  0  0  0  0  0  0  0  0  0
    3.6672    0.4425   -0.1242 C   0  0  1  0  0  3  0  0  0  0  0  0
    5.5714   -0.7567    0.2392 C   0  0  0  0  0  0  0  0  0  0  0  0
    4.7887   -1.8935    0.5339 C   0  0  0  0  0  0  0  0  0  0  0  0
    5.2576   -2.8526    0.7911 H   0  0  0  0  0  0  0  0  0  0  0  0
    3.3902   -1.7781    0.4857 C   0  0  0  0  0  0  0  0  0  0  0  0
    7.0725   -0.7928    0.2775 C   0  0  0  0  0  0  0  0  0  0  0  0
    7.4594   -1.7878    0.5630 H   0  0  0  0  0  0  0  0  0  0  0  0
    7.4493   -0.0362    0.9955 H   0  0  0  0  0  0  0  0  0  0  0  0
    7.4812   -0.5148   -0.7152 H   0  0  0  0  0  0  0  0  0  0  0  0
    2.4466   -2.9088    0.7292 C   0  0  0  0  0  0  0  0  0  0  0  0
    2.9762   -3.8470    0.9719 H   0  0  0  0  0  0  0  0  0  0  0  0
    1.8226   -3.0423   -0.1833 H   0  0  0  0  0  0  0  0  0  0  0  0
    1.7334   -2.6519    1.5393 H   0  0  0  0  0  0  0  0  0  0  0  0
   -2.8597   -0.9828    0.6274 C   0  0  0  0  0  0  0  0  0  0  0  0
   -4.1065   -0.8858    1.2584 C   0  0  0  0  0  0  0  0  0  0  0  0
   -4.1813   -0.3773    2.2307 H   0  0  0  0  0  0  0  0  0  0  0  0
   -5.2273   -1.4519    0.6334 C   0  0  0  0  0  0  0  0  0  0  0  0
   -6.2118   -1.3836    1.1224 H   0  0  0  0  0  0  0  0  0  0  0  0
   -5.1145   -2.1093   -0.6077 C   0  0  0  0  0  0  0  0  0  0  0  0
   -3.8382   -2.1927   -1.2098 C   0  0  0  0  0  0  0  0  0  0  0  0
   -3.7280   -2.7066   -2.1780 H   0  0  0  0  0  0  0  0  0  0  0  0
   -2.7048   -1.6404   -0.6052 C   0  0  0  0  0  0  0  0  0  0  0  0
   -1.7143   -1.7182   -1.0867 H   0  0  0  0  0  0  0  0  0  0  0  0
   -6.3177   -2.7117   -1.2863 C   0  0  0  0  0  0  0  0  0  0  0  0
   -7.2348   -2.5941   -0.6779 H   0  0  0  0  0  0  0  0  0  0  0  0
   -6.1695   -3.7949   -1.4773 H   0  0  0  0  0  0  0  0  0  0  0  0
   -6.4994   -2.2363   -2.2730 H   0  0  0  0  0  0  0  0  0  0  0  0
    1.7264    1.7167   -0.4756 N   0  0  0  0  0  2  0  0  0  0  0  0
    3.0731    1.6306   -0.4907 N   0  0  0  0  0  0  0  0  0  0  0  0
    3.6824    2.4443   -0.6430 H   0  0  0  0  0  0  0  0  0  0  0  0
    5.0046    0.4164   -0.0983 N   0  0  0  0  0  0  0  0  0  0  0  0
    2.8355   -0.5825    0.1748 N   0  0  0  0  0  2  0  0  0  0  0  0
   -0.7517    0.8360    0.3603 N   0  0  0  0  0  2  0  0  0  0  0  0
   -1.4242   -0.2530    1.4185 S   0  0  0  0  0  0  0  0  0  0  0  0
   -1.8517    0.3347    2.7063 O   0  0  0  0  0  0  0  0  0  0  0  0
   -0.3387   -1.3045    1.3965 O   0  0  0  0  0  0  0  0  0  0  0  0
  1 45  1  0  0  0  0
  1  2  1  0  0  0  0
  2  3  1  0  0  0  0
  4  5  1  0  0  0  0
  4  2  2  0  0  0  0
  6  4  1  0  0  0  0
  7  6  1  0  0  0  0
  8  6  2  0  0  0  0
  8 10  1  0  0  0  0
  9  8  1  0  0  0  0
 10  1  2  0  0  0  0
 11 40  1  0  0  0  0
 11 10  1  0  0  0  0
 12 11  1  0  0  0  0
 13 41  1  1  0  0  0
 13 43  1  0  0  0  0
 13 44  1  0  0  0  0
 14 18  1  0  0  0  0
 14 15  1  0  0  0  0
 15 16  1  0  0  0  0
 17 15  2  0  0  0  0
 17 22  1  0  0  0  0
 18 19  1  0  0  0  0
 18 20  1  0  0  0  0
 21 18  1  0  0  0  0
 22 23  1  0  0  0  0
 22 25  1  0  0  0  0
 24 22  1  0  0  0  0
 26 27  1  0  0  0  0
 26 46  1  0  0  0  0
 27 28  1  0  0  0  0
 29 30  1  0  0  0  0
 29 27  2  0  0  0  0
 31 29  1  0  0  0  0
 32 31  2  0  0  0  0
 32 34  1  0  0  0  0
 33 32  1  0  0  0  0
 34 26  2  0  0  0  0
 35 34  1  0  0  0  0
 36 37  1  0  0  0  0
 36 31  1  0  0  0  0
 38 36  1  0  0  0  0
 39 36  1  0  0  0  0
 41 40  1  0  0  0  0
 42 41  1  0  0  0  0
 43 14  2  0  0  0  0
 44 17  1  0  0  0  0
 45 46  1  0  0  0  0
 46 47  2  0  0  0  0
 48 46  2  0  0  0  0
M  END
