1,2,3
q = -2.0, confidence = 0.952

 55 57  0  0  0  0  0  0  0  0999 V2000
   -2.0045    1.0902   -0.4852 N   0  0  0  0  0  2  0  0  0  0  0  0
   -0.7621   -1.1673   -1.4695 N   0  0  0  0  0  0  0  0  0  0  0  0
    1.3103   -1.0176   -0.6088 N   0  0  0  0  0  2  0  0  0  0  0  0
    0.9579   -2.6219   -2.3071 O   0  0  0  0  0  0  0  0  0  0  0  0
   -2.4540    2.4544   -0.8422 C   0  0  0  0  0  0  0  0  0  0  0  0
   -3.5569    2.3925   -0.9621 H   0  0  0  0  0  0  0  0  0  0  0  0
   -2.1534    3.4765    0.2636 C   0  0  0  0  0  0  0  0  0  0  0  0
   -2.5757    3.1519    1.2350 H   0  0  0  0  0  0  0  0  0  0  0  0
   -2.5754    4.4710    0.0131 H   0  0  0  0  0  0  0  0  0  0  0  0
   -1.0591    3.5866    0.3977 H   0  0  0  0  0  0  0  0  0  0  0  0
   -1.9077    2.8948   -2.2028 C   0  0  0  0  0  0  0  0  0  0  0  0
   -2.2711    3.9131   -2.4481 H   0  0  0  0  0  0  0  0  0  0  0  0
   -2.2434    2.2086   -3.0048 H   0  0  0  0  0  0  0  0  0  0  0  0
   -0.8019    2.9130   -2.1984 H   0  0  0  0  0  0  0  0  0  0  0  0
   -2.9355    0.2294    0.1010 C   0  0  0  0  0  0  0  0  0  0  0  0
   -4.1132    0.7105    0.7091 C   0  0  0  0  0  0  0  0  0  0  0  0
   -4.3312    1.7845    0.6846 H   0  0  0  0  0  0  0  0  0  0  0  0
   -4.9901   -0.1240    1.4313 C   0  0  0  0  0  0  0  0  0  0  0  0
   -5.8811    0.3200    1.9012 H   0  0  0  0  0  0  0  0  0  0  0  0
   -4.7108   -1.4700    1.5940 C   0  0  0  0  0  0  0  0  0  0  0  0
   -5.3619   -2.1213    2.1951 H   0  0  0  0  0  0  0  0  0  0  0  0
   -3.5653   -2.0345    0.9659 C   0  0  0  0  0  0  0  0  0  0  0  0
   -3.2922   -3.4242    1.1308 C   0  0  0  0  0  0  0  0  0  0  0  0
   -3.9660   -4.0116    1.7731 H   0  0  0  0  0  0  0  0  0  0  0  0
   -2.2207   -4.0255    0.4965 C   0  0  0  0  0  0  0  0  0  0  0  0
   -2.0166   -5.0982    0.6292 H   0  0  0  0  0  0  0  0  0  0  0  0
   -1.4028   -3.2603   -0.3646 C   0  0  0  0  0  0  0  0  0  0  0  0
   -0.5924   -3.7412   -0.9281 H   0  0  0  0  0  0  0  0  0  0  0  0
   -1.6254   -1.8954   -0.5392 C   0  0  0  0  0  0  0  0  0  0  0  0
   -2.6873   -1.2105    0.1555 C   0  0  0  0  0  0  0  0  0  0  0  0
   -1.3936   -0.8766   -2.8110 C   0  0  0  0  0  0  0  0  0  0  0  0
   -2.2501   -0.2193   -2.5568 H   0  0  0  0  0  0  0  0  0  0  0  0
   -1.9070   -2.1376   -3.5070 C   0  0  0  0  0  0  0  0  0  0  0  0
   -2.4057   -1.8526   -4.4548 H   0  0  0  0  0  0  0  0  0  0  0  0
   -2.6478   -2.6742   -2.8832 H   0  0  0  0  0  0  0  0  0  0  0  0
   -1.0712   -2.8258   -3.7360 H   0  0  0  0  0  0  0  0  0  0  0  0
   -0.4108   -0.0867   -3.6745 C   0  0  0  0  0  0  0  0  0  0  0  0
   -0.9281    0.2859   -4.5798 H   0  0  0  0  0  0  0  0  0  0  0  0
    0.4362   -0.7226   -3.9980 H   0  0  0  0  0  0  0  0  0  0  0  0
   -0.0038    0.7906   -3.1311 H   0  0  0  0  0  0  0  0  0  0  0  0
    0.6261   -1.7313   -1.5347 C   0  0  0  0  0  0  0  0  0  0  0  0
    3.4974   -2.1581   -0.9278 C   0  0  0  0  0  0  0  0  0  0  0  0
    3.1071   -2.6970   -1.7992 H   0  0  0  0  0  0  0  0  0  0  0  0
    4.8161   -2.3455   -0.4991 C   0  0  0  0  0  0  0  0  0  0  0  0
    5.4588   -3.0444   -1.0590 H   0  0  0  0  0  0  0  0  0  0  0  0
    5.3466   -1.6681    0.6189 C   0  0  0  0  0  0  0  0  0  0  0  0
    4.4906   -0.7826    1.3016 C   0  0  0  0  0  0  0  0  0  0  0  0
    4.8667   -0.2337    2.1801 H   0  0  0  0  0  0  0  0  0  0  0  0
    3.1685   -0.5814    0.8882 C   0  0  0  0  0  0  0  0  0  0  0  0
    2.5123    0.1117    1.4318 H   0  0  0  0  0  0  0  0  0  0  0  0
    2.6472   -1.2639   -0.2324 C   0  0  0  0  0  0  0  0  0  0  0  0
    6.7700   -1.8948    1.0617 C   0  0  0  0  0  0  0  0  0  0  0  0
    7.0507   -1.2209    1.8944 H   0  0  0  0  0  0  0  0  0  0  0  0
    7.4865   -1.7254    0.2311 H   0  0  0  0  0  0  0  0  0  0  0  0
    6.9248   -2.9387    1.4083 H   0  0  0  0  0  0  0  0  0  0  0  0
  1 15  1  0  0  0  0
  2 29  1  0  0  0  0
  3 51  1  0  0  0  0
  4 41  2  0  0  0  0
  5  1  1  0  0  0  0
  5  7  1  0  0  0  0
  6  5  1  0  0  0  0
  7 10  1  0  0  0  0
  7  8  1  0  0  0  0
  9  7  1  0  0  0  0
 11 14  1  0  0  0  0
 11  5  1  0  0  0  0
 12 11  1  0  0  0  0
 13 11  1  0  0  0  0
 15 30  2  0  0  0  0
 15 16  1  0  0  0  0
 16 18  2  0  0  0  0
 17 16  1  0  0  0  0
 18 20  1  0  0  0  0
 18 19  1  0  0  0  0
 20 21  1  0  0  0  0
 22 23  1  0  0  0  0
 22 20  2  0  0  0  0
 23 24  1  0  0  0  0
 25 26  1  0  0  0  0
 25 23  2  0  0  0  0
 27 25  1  0  0  0  0
 28 27  1  0  0  0  0
 29 27  2  0  0  0  0
 29 30  1  0  0  0  0
 30 22  1  0  0  0  0
 31 32  1  0  0  0  0
 31  2  1  0  0  0  0
 33 35  1  0  0  0  0
 33 31  1  0  0  0  0
 34 33  1  0  0  0  0
 36 33  1  0  0  0  0
 37 40  1  0  0  0  0
 37 31  1  0  0  0  0
 38 37  1  0  0  0  0
 39 37  1  0  0  0  0
 41  2  1  0  0  0  0
 41  3  1  0  0  0  0
 42 44  2  0  0  0  0
 42 51  1  0  0  0  0
 43 42  1  0  0  0  0
 44 46  1  0  0  0  0
 45 44  1  0  0  0  0
 46 52  1  0  0  0  0
 46 47  2  0  0  0  0
 47 48  1  0  0  0  0
 49 47  1  0  0  0  0
 49 50  1  0  0  0  0
 51 49  2  0  0  0  0
 52 55  1  0  0  0  0
 52 53  1  0  0  0  0
 54 52  1  0  0  0  0
M  END
