1,2,3
q = 0.0, confidence = 0.998

 40 41  0  0  1  0  0  0  0  0999 V2000
   -0.0222   -0.9106   -1.1200 N   0  0  0  0  0  0  0  0  0  0  0  0
    1.9739    0.6987   -0.1263 N   0  0  0  0  0  2  0  0  0  0  0  0
   -2.0431    0.6290   -0.1235 N   0  0  0  0  0  2  0  0  0  0  0  0
   -0.6388   -3.5016    2.5001 C   0  0  0  0  0  0  0  0  0  0  0  0
    0.6331   -3.5886    1.6529 C   0  0  0  0  0  0  0  0  0  0  0  0
    0.9074   -2.3472    0.7874 C   0  0  0  0  0  0  0  0  0  0  0  0
   -0.1459   -2.1596   -0.2989 C   0  0  0  0  0  0  0  0  0  0  0  0
    1.2604   -0.8416   -1.8837 C   0  0  0  0  0  0  0  0  0  0  0  0
    2.3660   -0.2156   -1.0610 C   0  0  1  0  0  3  0  0  0  0  0  0
    3.7229   -0.4824   -1.2720 C   0  0  0  0  0  0  0  0  0  0  0  0
    4.6822    0.2085   -0.5153 C   0  0  0  0  0  0  0  0  0  0  0  0
    4.2585    1.1456    0.4367 C   0  0  0  0  0  0  0  0  0  0  0  0
    2.8881    1.3657    0.6105 C   0  0  0  0  0  0  0  0  0  0  0  0
   -1.2459   -0.7449   -1.9653 C   0  0  0  0  0  0  0  0  0  0  0  0
   -2.3932   -0.2407   -1.1178 C   0  0  2  0  0  3  0  0  0  0  0  0
   -3.7341   -0.5660   -1.3418 C   0  0  0  0  0  0  0  0  0  0  0  0
   -4.7239    0.0282   -0.5414 C   0  0  0  0  0  0  0  0  0  0  0  0
   -4.3440    0.9246    0.4659 C   0  0  0  0  0  0  0  0  0  0  0  0
   -2.9848    1.2012    0.6550 C   0  0  0  0  0  0  0  0  0  0  0  0
   -0.7324   -4.3825    3.1645 H   0  0  0  0  0  0  0  0  0  0  0  0
   -1.5621   -3.4684    1.8851 H   0  0  0  0  0  0  0  0  0  0  0  0
   -0.6320   -2.5978    3.1445 H   0  0  0  0  0  0  0  0  0  0  0  0
    1.5081   -3.7325    2.3196 H   0  0  0  0  0  0  0  0  0  0  0  0
    0.6003   -4.4926    1.0056 H   0  0  0  0  0  0  0  0  0  0  0  0
    0.9271   -1.4415    1.4326 H   0  0  0  0  0  0  0  0  0  0  0  0
    1.9159   -2.4350    0.3316 H   0  0  0  0  0  0  0  0  0  0  0  0
   -1.1546   -2.1266    0.1583 H   0  0  0  0  0  0  0  0  0  0  0  0
   -0.1344   -3.0233   -1.0042 H   0  0  0  0  0  0  0  0  0  0  0  0
    1.5565   -1.8451   -2.2580 H   0  0  0  0  0  0  0  0  0  0  0  0
    1.0861   -0.1980   -2.7716 H   0  0  0  0  0  0  0  0  0  0  0  0
    4.0238   -1.2253   -2.0247 H   0  0  0  0  0  0  0  0  0  0  0  0
    5.7535    0.0116   -0.6688 H   0  0  0  0  0  0  0  0  0  0  0  0
    4.9779    1.7075    1.0485 H   0  0  0  0  0  0  0  0  0  0  0  0
    2.4738    2.0869    1.3327 H   0  0  0  0  0  0  0  0  0  0  0  0
   -1.5098   -1.6922   -2.4831 H   0  0  0  0  0  0  0  0  0  0  0  0
   -1.0201    0.0151   -2.7423 H   0  0  0  0  0  0  0  0  0  0  0  0
   -4.0000   -1.2744   -2.1394 H   0  0  0  0  0  0  0  0  0  0  0  0
   -5.7846   -0.2129   -0.7050 H   0  0  0  0  0  0  0  0  0  0  0  0
   -5.0888    1.4110    1.1112 H   0  0  0  0  0  0  0  0  0  0  0  0
   -2.6051    1.8956    1.4210 H   0  0  0  0  0  0  0  0  0  0  0  0
  1  7  1  0  0  0  0
  2 13  1  0  0  0  0
  3 19  1  0  0  0  0
  4 22  1  0  0  0  0
  4 20  1  0  0  0  0
  5 23  1  0  0  0  0
  5  4  1  0  0  0  0
  6 25  1  0  0  0  0
  6  5  1  0  0  0  0
  7 27  1  0  0  0  0
  7  6  1  0  0  0  0
  8  1  1  0  0  0  0
  9  8  1  6  0  0  0
  9  2  1  0  0  0  0
 10  9  1  0  0  0  0
 10 11  2  0  0  0  0
 11 12  1  0  0  0  0
 12 13  2  0  0  0  0
 12 33  1  0  0  0  0
 13 34  1  0  0  0  0
 14  1  1  0  0  0  0
 15 14  1  6  0  0  0
 15  3  1  0  0  0  0
 16 15  1  0  0  0  0
 16 17  2  0  0  0  0
 17 18  1  0  0  0  0
 18 19  2  0  0  0  0
 18 39  1  0  0  0  0
 19 40  1  0  0  0  0
 21  4  1  0  0  0  0
 24  5  1  0  0  0  0
 26  6  1  0  0  0  0
 28  7  1  0  0  0  0
 29  8  1  0  0  0  0
 30  8  1  0  0  0  0
 31 10  1  0  0  0  0
 32 11  1  0  0  0  0
 35 14  1  0  0  0  0
 36 14  1  0  0  0  0
 37 16  1  0  0  0  0
 38 17  1  0  0  0  0
M  END
