2,4,5
q = -1.0

 60 64  0  0  1  0  0  0  0  0999 V2000
   -1.4881   -0.7281   -0.2061 P   0  0  0  0  0  4  0  0  0  0  0  0
    1.4942   -1.2650   -0.7553 N   0  0  0  0  0  2  0  0  0  0  0  0
    3.4657   -0.3836    0.0489 N   0  0  0  0  0  0  0  0  0  0  0  0
    2.7859    0.8011    0.0636 N   0  0  0  0  0  2  0  0  0  0  0  0
   -0.7893    0.7700   -0.3403 N   0  0  0  0  0  2  0  0  0  0  0  0
   -3.2529   -0.7351   -0.6890 C   0  0  0  0  0  0  0  0  0  0  0  0
   -3.8358    0.4603   -1.1536 C   0  0  0  0  0  0  0  0  0  0  0  0
   -3.2351    1.3807   -1.1846 H   0  0  0  0  0  0  0  0  0  0  0  0
   -5.1704    0.4665   -1.5862 C   0  0  0  0  0  0  0  0  0  0  0  0
   -5.6202    1.4039   -1.9465 H   0  0  0  0  0  0  0  0  0  0  0  0
   -5.9257   -0.7164   -1.5671 C   0  0  0  0  0  0  0  0  0  0  0  0
   -6.9721   -0.7079   -1.9082 H   0  0  0  0  0  0  0  0  0  0  0  0
   -5.3422   -1.9140   -1.1229 C   0  0  0  0  0  0  0  0  0  0  0  0
   -5.9268   -2.8466   -1.1209 H   0  0  0  0  0  0  0  0  0  0  0  0
   -4.0092   -1.9267   -0.6861 C   0  0  0  0  0  0  0  0  0  0  0  0
   -3.5525   -2.8720   -0.3551 H   0  0  0  0  0  0  0  0  0  0  0  0
   -1.3743   -1.2193    1.5690 C   0  0  0  0  0  0  0  0  0  0  0  0
   -2.4093   -1.8486    2.2892 C   0  0  0  0  0  0  0  0  0  0  0  0
   -3.3856   -2.0266    1.8153 H   0  0  0  0  0  0  0  0  0  0  0  0
   -2.2096   -2.2299    3.6250 C   0  0  0  0  0  0  0  0  0  0  0  0
   -3.0278   -2.7128    4.1811 H   0  0  0  0  0  0  0  0  0  0  0  0
   -0.9772   -1.9902    4.2527 C   0  0  0  0  0  0  0  0  0  0  0  0
   -0.8239   -2.2894    5.3007 H   0  0  0  0  0  0  0  0  0  0  0  0
    0.0533   -1.3523    3.5427 C   0  0  0  0  0  0  0  0  0  0  0  0
    1.0163   -1.1450    4.0341 H   0  0  0  0  0  0  0  0  0  0  0  0
   -0.1427   -0.9592    2.2121 C   0  0  0  0  0  0  0  0  0  0  0  0
    0.6523   -0.4336    1.6629 H   0  0  0  0  0  0  0  0  0  0  0  0
   -0.7436   -1.9357   -1.2322 C   0  0  0  0  0  3  0  0  0  0  0  0
   -1.4474   -2.6415   -1.6930 H   0  0  0  0  0  0  0  0  0  0  0  0
    0.6305   -2.2487   -1.1865 C   0  0  2  0  0  3  0  0  0  0  0  0
    1.1987   -3.5170   -1.5499 C   0  0  0  0  0  0  0  0  0  0  0  0
    0.5459   -4.3045   -1.9520 H   0  0  0  0  0  0  0  0  0  0  0  0
    2.5489   -3.7418   -1.3411 C   0  0  0  0  0  0  0  0  0  0  0  0
    2.9861   -4.7183   -1.6004 H   0  0  0  0  0  0  0  0  0  0  0  0
    3.3883   -2.7491   -0.7676 C   0  0  0  0  0  0  0  0  0  0  0  0
    4.4481   -2.9471   -0.5946 H   0  0  0  0  0  0  0  0  0  0  0  0
    2.7853   -1.5181   -0.4965 C   0  0  0  0  0  0  0  0  0  0  0  0
    4.7171   -0.2433    0.6158 C   0  0  1  0  0  3  0  0  0  0  0  0
    4.8185    1.0964    0.9906 C   0  0  0  0  0  0  0  0  0  0  0  0
    5.6784    1.5642    1.4819 H   0  0  0  0  0  0  0  0  0  0  0  0
    3.5956    1.7118    0.6225 C   0  0  0  0  0  0  0  0  0  0  0  0
    5.7175   -1.3339    0.8032 C   0  0  0  0  0  0  0  0  0  0  0  0
    5.2861   -2.2073    1.3328 H   0  0  0  0  0  0  0  0  0  0  0  0
    6.5613   -0.9480    1.4039 H   0  0  0  0  0  0  0  0  0  0  0  0
    6.1299   -1.6966   -0.1612 H   0  0  0  0  0  0  0  0  0  0  0  0
    3.1699    3.1373    0.7649 C   0  0  0  0  0  0  0  0  0  0  0  0
    2.1769    3.2133    1.2515 H   0  0  0  0  0  0  0  0  0  0  0  0
    3.0799    3.6198   -0.2309 H   0  0  0  0  0  0  0  0  0  0  0  0
    3.9048    3.7095    1.3603 H   0  0  0  0  0  0  0  0  0  0  0  0
   -1.1579    1.8954    0.4052 C   0  0  0  0  0  0  0  0  0  0  0  0
   -2.1806    1.9270    1.3915 C   0  0  0  0  0  0  0  0  0  0  0  0
   -2.7475    1.0155    1.6259 H   0  0  0  0  0  0  0  0  0  0  0  0
   -2.4784    3.1088    2.0848 C   0  0  0  0  0  0  0  0  0  0  0  0
   -3.2747    3.0924    2.8456 H   0  0  0  0  0  0  0  0  0  0  0  0
   -1.7794    4.2979    1.8270 C   0  0  0  0  0  0  0  0  0  0  0  0
   -2.0184    5.2203    2.3766 H   0  0  0  0  0  0  0  0  0  0  0  0
   -0.7723    4.2868    0.8461 C   0  0  0  0  0  0  0  0  0  0  0  0
   -0.2176    5.2094    0.6125 H   0  0  0  0  0  0  0  0  0  0  0  0
   -0.4685    3.1130    0.1488 C   0  0  0  0  0  0  0  0  0  0  0  0
    0.3042    3.1200   -0.6372 H   0  0  0  0  0  0  0  0  0  0  0  0
  1 17  1  0  0  0  0
  2 37  1  0  0  0  0
  3  4  1  0  0  0  0
  3 38  1  0  0  0  0
  4 41  1  0  0  0  0
  5  1  1  0  0  0  0
  5 50  1  0  0  0  0
  6 15  1  0  0  0  0
  6  1  1  0  0  0  0
  7  6  2  0  0  0  0
  8  7  1  0  0  0  0
  9 11  2  0  0  0  0
  9  7  1  0  0  0  0
 10  9  1  0  0  0  0
 11 13  1  0  0  0  0
 12 11  1  0  0  0  0
 13 14  1  0  0  0  0
 13 15  2  0  0  0  0
 15 16  1  0  0  0  0
 17 26  2  0  0  0  0
 17 18  1  0  0  0  0
 18 20  2  0  0  0  0
 19 18  1  0  0  0  0
 20 21  1  0  0  0  0
 20 22  1  0  0  0  0
 22 23  1  0  0  0  0
 24 25  1  0  0  0  0
 24 22  2  0  0  0  0
 26 24  1  0  0  0  0
 27 26  1  0  0  0  0
 28  1  1  0  0  0  0
 29 28  1  0  0  0  0
 30 28  1  1  0  0  0
 30  2  1  0  0  0  0
 31 33  2  0  0  0  0
 31 30  1  0  0  0  0
 32 31  1  0  0  0  0
 33 35  1  0  0  0  0
 34 33  1  0  0  0  0
 35 36  1  0  0  0  0
 35 37  2  0  0  0  0
 37  3  1  0  0  0  0
 38 42  1  1  0  0  0
 38 39  1  0  0  0  0
 39 40  1  0  0  0  0
 41 46  1  0  0  0  0
 41 39  2  0  0  0  0
 42 43  1  0  0  0  0
 42 44  1  0  0  0  0
 45 42  1  0  0  0  0
 46 47  1  0  0  0  0
 46 49  1  0  0  0  0
 48 46  1  0  0  0  0
 50 51  1  0  0  0  0
 51 52  1  0  0  0  0
 51 53  2  0  0  0  0
 53 54  1  0  0  0  0
 55 53  1  0  0  0  0
 55 56  1  0  0  0  0
 57 55  2  0  0  0  0
 58 57  1  0  0  0  0
 59 50  2  0  0  0  0
 59 57  1  0  0  0  0
 60 59  1  0  0  0  0
M  END
