2,25,48
q = 0.0, confidence = 0.988

 70 72  0  0  1  0  0  0  0  0999 V2000
   -0.2376    1.8489    0.7706 P   0  0  2  0  0  0  0  0  0  0  0  0
    1.7171    0.1899   -0.4961 N   0  0  0  0  0  2  0  0  0  0  0  0
    2.2697    2.3401   -0.4977 N   0  0  0  0  0  0  0  0  0  0  0  0
    1.3138    1.4284   -0.1322 C   0  0  2  0  0  3  0  0  0  0  0  0
    3.7034   -0.8888   -1.6320 C   0  0  0  0  0  0  0  0  0  0  0  0
    2.9893   -1.4349   -2.2876 H   0  0  0  0  0  0  0  0  0  0  0  0
    4.0876   -1.8243   -0.4720 C   0  0  0  0  0  0  0  0  0  0  0  0
    3.1932   -2.1148    0.1116 H   0  0  0  0  0  0  0  0  0  0  0  0
    4.8053   -1.3323    0.2165 H   0  0  0  0  0  0  0  0  0  0  0  0
    4.5595   -2.7487   -0.8593 H   0  0  0  0  0  0  0  0  0  0  0  0
    4.9217   -0.4705   -2.4599 C   0  0  0  0  0  0  0  0  0  0  0  0
    4.6358    0.1771   -3.3128 H   0  0  0  0  0  0  0  0  0  0  0  0
    5.4303   -1.3630   -2.8728 H   0  0  0  0  0  0  0  0  0  0  0  0
    5.6660    0.0745   -1.8416 H   0  0  0  0  0  0  0  0  0  0  0  0
    2.9421    0.3004   -1.1197 C   0  0  0  0  0  0  0  0  0  0  0  0
    3.2885    1.6493   -1.1198 C   0  0  0  0  0  0  0  0  0  0  0  0
    4.1775    2.1600   -1.5023 H   0  0  0  0  0  0  0  0  0  0  0  0
    2.1710    3.7981   -0.3797 C   0  0  0  0  0  0  0  0  0  0  0  0
    3.2053    4.1900   -0.3224 H   0  0  0  0  0  0  0  0  0  0  0  0
    1.6841    4.0230    0.5908 H   0  0  0  0  0  0  0  0  0  0  0  0
    1.4021    4.4297   -1.5371 C   0  0  0  0  0  0  0  0  0  0  0  0
    1.3692    5.5301   -1.4167 H   0  0  0  0  0  0  0  0  0  0  0  0
    0.3586    4.0552   -1.5734 H   0  0  0  0  0  0  0  0  0  0  0  0
    1.8805    4.2021   -2.5098 H   0  0  0  0  0  0  0  0  0  0  0  0
   -0.0749   -0.8491    1.2936 N   0  0  0  0  0  2  0  0  0  0  0  0
   -0.3140    0.2428    3.1968 N   0  0  0  0  0  0  0  0  0  0  0  0
   -0.1854    0.3702    1.8430 C   0  0  2  0  0  3  0  0  0  0  0  0
   -0.1671   -3.2761    1.9923 C   0  0  0  0  0  0  0  0  0  0  0  0
   -1.2001   -3.4975    1.6331 H   0  0  0  0  0  0  0  0  0  0  0  0
    0.0850   -4.1163    3.2492 C   0  0  0  0  0  0  0  0  0  0  0  0
   -0.6645   -3.9127    4.0401 H   0  0  0  0  0  0  0  0  0  0  0  0
    1.0933   -3.9162    3.6664 H   0  0  0  0  0  0  0  0  0  0  0  0
    0.0259   -5.1957    3.0104 H   0  0  0  0  0  0  0  0  0  0  0  0
    0.7953   -3.6376    0.8524 C   0  0  0  0  0  0  0  0  0  0  0  0
    0.5911   -3.0481   -0.0764 H   0  0  0  0  0  0  0  0  0  0  0  0
    0.6903   -4.7047    0.5768 H   0  0  0  0  0  0  0  0  0  0  0  0
    1.8495   -3.4567    1.1428 H   0  0  0  0  0  0  0  0  0  0  0  0
   -0.1458   -1.8013    2.2911 C   0  0  0  0  0  0  0  0  0  0  0  0
   -0.2762   -1.1089    3.4918 C   0  0  0  0  0  0  0  0  0  0  0  0
   -0.3563   -1.4723    4.5207 H   0  0  0  0  0  0  0  0  0  0  0  0
   -0.3537    1.3416    4.1666 C   0  0  0  0  0  0  0  0  0  0  0  0
   -0.9167    0.9782    5.0485 H   0  0  0  0  0  0  0  0  0  0  0  0
   -0.9517    2.1586    3.7139 H   0  0  0  0  0  0  0  0  0  0  0  0
    1.0374    1.8330    4.5565 C   0  0  0  0  0  0  0  0  0  0  0  0
    0.9561    2.6534    5.2958 H   0  0  0  0  0  0  0  0  0  0  0  0
    1.5848    2.2191    3.6731 H   0  0  0  0  0  0  0  0  0  0  0  0
    1.6390    1.0202    5.0088 H   0  0  0  0  0  0  0  0  0  0  0  0
   -1.5729   -0.1312   -0.7960 N   0  0  0  0  0  2  0  0  0  0  0  0
   -2.6574    1.7984   -0.7728 N   0  0  0  0  0  0  0  0  0  0  0  0
   -1.5303    1.1440   -0.3503 C   0  0  1  0  0  3  0  0  0  0  0  0
   -3.0866   -1.6156   -2.1753 C   0  0  0  0  0  0  0  0  0  0  0  0
   -2.3131   -1.7745   -2.9601 H   0  0  0  0  0  0  0  0  0  0  0  0
   -4.4669   -1.5588   -2.8357 C   0  0  0  0  0  0  0  0  0  0  0  0
   -4.5263   -0.7574   -3.5993 H   0  0  0  0  0  0  0  0  0  0  0  0
   -5.2680   -1.3860   -2.0866 H   0  0  0  0  0  0  0  0  0  0  0  0
   -4.6889   -2.5164   -3.3449 H   0  0  0  0  0  0  0  0  0  0  0  0
   -2.9607   -2.7823   -1.1814 C   0  0  0  0  0  0  0  0  0  0  0  0
   -1.9406   -2.8173   -0.7494 H   0  0  0  0  0  0  0  0  0  0  0  0
   -3.1414   -3.7465   -1.6950 H   0  0  0  0  0  0  0  0  0  0  0  0
   -3.6916   -2.6863   -0.3520 H   0  0  0  0  0  0  0  0  0  0  0  0
   -2.7303   -0.3106   -1.5198 C   0  0  0  0  0  0  0  0  0  0  0  0
   -3.4182    0.9011   -1.4944 C   0  0  0  0  0  0  0  0  0  0  0  0
   -4.3783    1.1874   -1.9344 H   0  0  0  0  0  0  0  0  0  0  0  0
   -3.0535    3.1668   -0.4241 C   0  0  0  0  0  0  0  0  0  0  0  0
   -3.6586    3.5546   -1.2670 H   0  0  0  0  0  0  0  0  0  0  0  0
   -2.1313    3.7802   -0.3801 H   0  0  0  0  0  0  0  0  0  0  0  0
   -3.8225    3.2403    0.8918 C   0  0  0  0  0  0  0  0  0  0  0  0
   -4.1184    4.2869    1.1006 H   0  0  0  0  0  0  0  0  0  0  0  0
   -3.1979    2.8854    1.7366 H   0  0  0  0  0  0  0  0  0  0  0  0
   -4.7415    2.6230    0.8560 H   0  0  0  0  0  0  0  0  0  0  0  0
  2  4  1  0  0  0  0
  3 18  1  0  0  0  0
  3  4  1  0  0  0  0
  4  1  1  1  0  0  0
  5 15  1  0  0  0  0
  5  7  1  0  0  0  0
  6  5  1  0  0  0  0
  7  8  1  0  0  0  0
  7  9  1  0  0  0  0
 10  7  1  0  0  0  0
 11 14  1  0  0  0  0
 11  5  1  0  0  0  0
 12 11  1  0  0  0  0
 13 11  1  0  0  0  0
 15  2  1  0  0  0  0
 16 15  2  0  0  0  0
 16  3  1  0  0  0  0
 17 16  1  0  0  0  0
 18 19  1  0  0  0  0
 18 20  1  0  0  0  0
 21 22  1  0  0  0  0
 21 18  1  0  0  0  0
 23 21  1  0  0  0  0
 24 21  1  0  0  0  0
 25 27  1  0  0  0  0
 25 38  1  0  0  0  0
 26 39  1  0  0  0  0
 26 41  1  0  0  0  0
 27  1  1  6  0  0  0
 27 26  1  0  0  0  0
 28 38  1  0  0  0  0
 28 30  1  0  0  0  0
 29 28  1  0  0  0  0
 30 32  1  0  0  0  0
 30 31  1  0  0  0  0
 33 30  1  0  0  0  0
 34 37  1  0  0  0  0
 34 28  1  0  0  0  0
 35 34  1  0  0  0  0
 36 34  1  0  0  0  0
 38 39  2  0  0  0  0
 39 40  1  0  0  0  0
 41 44  1  0  0  0  0
 41 42  1  0  0  0  0
 43 41  1  0  0  0  0
 44 47  1  0  0  0  0
 44 45  1  0  0  0  0
 46 44  1  0  0  0  0
 48 50  1  0  0  0  0
 49 64  1  0  0  0  0
 49 50  1  0  0  0  0
 50  1  1  1  0  0  0
 51 61  1  0  0  0  0
 51 57  1  0  0  0  0
 52 51  1  0  0  0  0
 53 51  1  0  0  0  0
 53 55  1  0  0  0  0
 54 53  1  0  0  0  0
 56 53  1  0  0  0  0
 57 58  1  0  0  0  0
 57 60  1  0  0  0  0
 59 57  1  0  0  0  0
 61 62  2  0  0  0  0
 61 48  1  0  0  0  0
 62 49  1  0  0  0  0
 63 62  1  0  0  0  0
 64 66  1  0  0  0  0
 64 67  1  0  0  0  0
 65 64  1  0  0  0  0
 67 68  1  0  0  0  0
 67 69  1  0  0  0  0
 70 67  1  0  0  0  0
M  END
