1,2,3
q = -1.0, confidence = 0.0

 25 26  0  0  0  0  0  0  0  0999 V2000
   -1.3715    1.3737   -0.2498 N   0  0  0  0  0  2  0  0  0  0  0  0
    0.0004    0.0001   -1.9018 N   0  0  0  0  0  2  0  0  0  0  0  0
    1.3714   -1.3739   -0.2495 N   0  0  0  0  0  2  0  0  0  0  0  0
   -2.0424    2.0451    0.7027 C   0  0  0  0  0  3  0  0  0  0  0  0
   -1.7850    1.7866    1.7410 H   0  0  0  0  0  0  0  0  0  0  0  0
   -3.0098    3.0143    0.4107 C   0  0  0  0  0  0  0  0  0  0  0  0
   -3.5284    3.5333    1.2282 H   0  0  0  0  0  0  0  0  0  0  0  0
   -3.2891    3.2950   -0.9418 C   0  0  0  0  0  0  0  0  0  0  0  0
   -4.0432    4.0506   -1.2101 H   0  0  0  0  0  0  0  0  0  0  0  0
   -2.6018    2.6072   -1.9409 C   0  0  0  0  0  0  0  0  0  0  0  0
   -2.7960    2.8024   -3.0055 H   0  0  0  0  0  0  0  0  0  0  0  0
   -1.6310    1.6345   -1.5863 C   0  0  0  0  0  0  0  0  0  0  0  0
   -0.8542    0.8568   -2.4919 C   0  0  0  0  0  3  0  0  0  0  0  0
   -0.9382    0.9416   -3.5871 H   0  0  0  0  0  0  0  0  0  0  0  0
    0.8556   -0.8562   -2.4918 C   0  0  0  0  0  0  0  0  0  0  0  0
    0.9403   -0.9405   -3.5869 H   0  0  0  0  0  0  0  0  0  0  0  0
    1.6318   -1.6341   -1.5859 C   0  0  0  0  0  0  0  0  0  0  0  0
    2.6030   -2.6067   -1.9403 C   0  0  0  0  0  0  0  0  0  0  0  0
    2.7978   -2.8014   -3.0048 H   0  0  0  0  0  0  0  0  0  0  0  0
    3.2895   -3.2949   -0.9410 C   0  0  0  0  0  0  0  0  0  0  0  0
    4.0438   -4.0503   -1.2091 H   0  0  0  0  0  0  0  0  0  0  0  0
    3.0093   -3.0149    0.4114 C   0  0  0  0  0  0  0  0  0  0  0  0
    3.5273   -3.5342    1.2291 H   0  0  0  0  0  0  0  0  0  0  0  0
    2.0416   -2.0457    0.7032 C   0  0  0  0  0  0  0  0  0  0  0  0
    1.7834   -1.7876    1.7414 H   0  0  0  0  0  0  0  0  0  0  0  0
  1  4  1  0  0  0  0
  3 24  1  0  0  0  0
  4  5  1  0  0  0  0
  6  4  1  0  0  0  0
  6  7  1  0  0  0  0
  8  6  2  0  0  0  0
  9  8  1  0  0  0  0
 10 12  2  0  0  0  0
 10  8  1  0  0  0  0
 11 10  1  0  0  0  0
 12  1  1  0  0  0  0
 13  2  1  0  0  0  0
 13 12  1  0  0  0  0
 14 13  1  0  0  0  0
 15  2  1  0  0  0  0
 15 17  2  0  0  0  0
 16 15  1  0  0  0  0
 17  3  1  0  0  0  0
 18 17  1  0  0  0  0
 18 20  2  0  0  0  0
 19 18  1  0  0  0  0
 20 22  1  0  0  0  0
 21 20  1  0  0  0  0
 22 24  2  0  0  0  0
 22 23  1  0  0  0  0
 24 25  1  0  0  0  0
M  END
