5,6,7
q = -3.0

 77 79  0  0  0  0  0  0  0  0999 V2000
   -1.9190    0.8861    2.0745 Si  0  0  0  0  0  0  0  0  0  0  0  0
    0.1806   -2.1076    2.0714 Si  0  0  0  0  0  0  0  0  0  0  0  0
    1.7241    1.2062    2.0806 Si  0  0  0  0  0  0  0  0  0  0  0  0
   -0.0069   -0.0069    3.1218 Si  0  0  0  0  0  0  0  0  0  0  0  0
   -1.7378    0.2410    0.4028 N   0  0  0  0  0  2  0  0  0  0  0  0
    0.6573   -1.6257    0.4026 N   0  0  0  0  0  2  0  0  0  0  0  0
    1.0765    1.3804    0.4089 N   0  0  0  0  0  2  0  0  0  0  0  0
   -2.8435   -0.2039   -0.3591 C   0  0  0  0  0  0  0  0  0  0  0  0
   -2.8414   -1.4860   -0.9586 C   0  0  0  0  0  0  0  0  0  0  0  0
   -3.9203   -1.9148   -1.7424 C   0  0  0  0  0  0  0  0  0  0  0  0
   -5.0505   -1.1004   -1.9490 C   0  0  0  0  0  0  0  0  0  0  0  0
   -5.0539    0.1745   -1.3423 C   0  0  0  0  0  0  0  0  0  0  0  0
   -3.9756    0.6210   -0.5720 C   0  0  0  0  0  0  0  0  0  0  0  0
   -6.2080   -1.5557   -2.8011 C   0  0  0  0  0  0  0  0  0  0  0  0
    1.5974   -2.3609   -0.3564 C   0  0  0  0  0  0  0  0  0  0  0  0
    1.4527   -3.7519   -0.5701 C   0  0  0  0  0  0  0  0  0  0  0  0
    2.3847   -4.4610   -1.3384 C   0  0  0  0  0  0  0  0  0  0  0  0
    3.4864   -3.8196   -1.9395 C   0  0  0  0  0  0  0  0  0  0  0  0
    3.6228   -2.4308   -1.7328 C   0  0  0  0  0  0  0  0  0  0  0  0
    2.7090   -1.7146   -0.9531 C   0  0  0  0  0  0  0  0  0  0  0  0
    4.4801   -4.5784   -2.7822 C   0  0  0  0  0  0  0  0  0  0  0  0
    1.2452    2.5644   -0.3466 C   0  0  0  0  0  0  0  0  0  0  0  0
    2.5264    3.1307   -0.5582 C   0  0  0  0  0  0  0  0  0  0  0  0
    2.6803    4.2916   -1.3228 C   0  0  0  0  0  0  0  0  0  0  0  0
    1.5753    4.9314   -1.9249 C   0  0  0  0  0  0  0  0  0  0  0  0
    0.3038    4.3619   -1.7189 C   0  0  0  0  0  0  0  0  0  0  0  0
    0.1343    3.2095   -0.9409 C   0  0  0  0  0  0  0  0  0  0  0  0
    1.7609    6.1629   -2.7749 C   0  0  0  0  0  0  0  0  0  0  0  0
   -0.0084   -0.0109    5.0326 C   0  0  0  0  0  0  0  0  0  0  0  0
   -3.5007    0.1726    2.8342 C   0  0  0  0  0  0  0  0  0  0  0  0
   -2.0049    2.7774    2.0961 C   0  0  0  0  0  0  0  0  0  0  0  0
   -1.4143   -3.1279    2.0834 C   0  0  0  0  0  0  0  0  0  0  0  0
    1.5861   -3.1209    2.8368 C   0  0  0  0  0  0  0  0  0  0  0  0
    1.8971    2.9293    2.8480 C   0  0  0  0  0  0  0  0  0  0  0  0
    3.4044    0.3341    2.0979 C   0  0  0  0  0  0  0  0  0  0  0  0
   -5.9211    0.8390   -1.4879 H   0  0  0  0  0  0  0  0  0  0  0  0
   -6.1309   -2.6313   -3.0527 H   0  0  0  0  0  0  0  0  0  0  0  0
   -6.2499   -0.9927   -3.7583 H   0  0  0  0  0  0  0  0  0  0  0  0
   -7.1801   -1.3929   -2.2915 H   0  0  0  0  0  0  0  0  0  0  0  0
    2.2465   -5.5442   -1.4862 H   0  0  0  0  0  0  0  0  0  0  0  0
    4.4714   -1.8961   -2.1892 H   0  0  0  0  0  0  0  0  0  0  0  0
    4.2636   -5.6644   -2.7903 H   0  0  0  0  0  0  0  0  0  0  0  0
    5.5173   -4.4422   -2.4108 H   0  0  0  0  0  0  0  0  0  0  0  0
    4.4694   -4.2259   -3.8355 H   0  0  0  0  0  0  0  0  0  0  0  0
    3.6901    4.7091   -1.4672 H   0  0  0  0  0  0  0  0  0  0  0  0
   -0.5806    4.8363   -2.1735 H   0  0  0  0  0  0  0  0  0  0  0  0
    0.7955    6.6634   -2.9841 H   0  0  0  0  0  0  0  0  0  0  0  0
    2.2219    5.9105   -3.7542 H   0  0  0  0  0  0  0  0  0  0  0  0
    2.4303    6.9005   -2.2865 H   0  0  0  0  0  0  0  0  0  0  0  0
   -0.0202    1.0252    5.4273 H   0  0  0  0  0  0  0  0  0  0  0  0
    0.8951   -0.5202    5.4246 H   0  0  0  0  0  0  0  0  0  0  0  0
   -4.4036    0.5098    2.2859 H   0  0  0  0  0  0  0  0  0  0  0  0
   -3.5897    0.5048    3.8892 H   0  0  0  0  0  0  0  0  0  0  0  0
   -2.0153    3.1475    3.1426 H   0  0  0  0  0  0  0  0  0  0  0  0
   -2.9253    3.1438    1.5955 H   0  0  0  0  0  0  0  0  0  0  0  0
   -1.7348   -3.3232    3.1281 H   0  0  0  0  0  0  0  0  0  0  0  0
   -1.2682   -4.1076    1.5826 H   0  0  0  0  0  0  0  0  0  0  0  0
    2.5358   -2.5505    2.8339 H   0  0  0  0  0  0  0  0  0  0  0  0
    1.7530   -4.0676    2.2840 H   0  0  0  0  0  0  0  0  0  0  0  0
    2.6383    3.5462    2.3004 H   0  0  0  0  0  0  0  0  0  0  0  0
    2.2322    2.8362    3.9017 H   0  0  0  0  0  0  0  0  0  0  0  0
    3.7307    0.1537    3.1435 H   0  0  0  0  0  0  0  0  0  0  0  0
    4.1817    0.9501    1.5995 H   0  0  0  0  0  0  0  0  0  0  0  0
   -1.9746   -2.1465   -0.8022 H   0  0  0  0  0  0  0  0  0  0  0  0
   -3.9897    1.6311   -0.1353 H   0  0  0  0  0  0  0  0  0  0  0  0
    0.5844   -4.2722   -0.1382 H   0  0  0  0  0  0  0  0  0  0  0  0
    2.8427   -0.6330   -0.7964 H   0  0  0  0  0  0  0  0  0  0  0  0
    3.4079    2.6342   -0.1251 H   0  0  0  0  0  0  0  0  0  0  0  0
   -0.8719    2.7909   -0.7848 H   0  0  0  0  0  0  0  0  0  0  0  0
   -3.4851   -0.9350    2.8200 H   0  0  0  0  0  0  0  0  0  0  0  0
   -1.1312    3.2207    1.5796 H   0  0  0  0  0  0  0  0  0  0  0  0
   -2.2327   -2.5928    1.5634 H   0  0  0  0  0  0  0  0  0  0  0  0
    1.3352   -3.3713    3.8884 H   0  0  0  0  0  0  0  0  0  0  0  0
    0.9293    3.4683    2.8389 H   0  0  0  0  0  0  0  0  0  0  0  0
    3.3509   -0.6420    1.5774 H   0  0  0  0  0  0  0  0  0  0  0  0
   -0.9009   -0.5402    5.4235 H   0  0  0  0  0  0  0  0  0  0  0  0
   -3.8849   -2.9157   -2.2013 H   0  0  0  0  0  0  0  0  0  0  0  0
  1 31  1  0  0  0  0
  1 30  1  0  0  0  0
  1  4  1  0  0  0  0
  2 32  1  0  0  0  0
  2 33  1  0  0  0  0
  2  4  1  0  0  0  0
  3 35  1  0  0  0  0
  3 34  1  0  0  0  0
  3  4  1  0  0  0  0
  4 29  1  0  0  0  0
  5  1  1  0  0  0  0
  6  2  1  0  0  0  0
  7  3  1  0  0  0  0
  8  5  1  0  0  0  0
  9 64  1  0  0  0  0
  9  8  2  0  0  0  0
 10  9  1  0  0  0  0
 11 10  2  0  0  0  0
 11 12  1  0  0  0  0
 12 13  2  0  0  0  0
 13  8  1  0  0  0  0
 13 65  1  0  0  0  0
 14 39  1  0  0  0  0
 14 11  1  0  0  0  0
 15  6  1  0  0  0  0
 16 15  1  0  0  0  0
 16 66  1  0  0  0  0
 17 16  2  0  0  0  0
 18 19  2  0  0  0  0
 18 17  1  0  0  0  0
 19 20  1  0  0  0  0
 20 67  1  0  0  0  0
 20 15  2  0  0  0  0
 21 43  1  0  0  0  0
 21 18  1  0  0  0  0
 22  7  1  0  0  0  0
 23 22  1  0  0  0  0
 23 68  1  0  0  0  0
 24 23  2  0  0  0  0
 25 26  2  0  0  0  0
 25 24  1  0  0  0  0
 26 27  1  0  0  0  0
 27 69  1  0  0  0  0
 27 22  2  0  0  0  0
 28 49  1  0  0  0  0
 28 25  1  0  0  0  0
 29 76  1  0  0  0  0
 29 51  1  0  0  0  0
 29 50  1  0  0  0  0
 30 53  1  0  0  0  0
 31 54  1  0  0  0  0
 32 56  1  0  0  0  0
 33 73  1  0  0  0  0
 34 61  1  0  0  0  0
 35 62  1  0  0  0  0
 36 12  1  0  0  0  0
 37 14  1  0  0  0  0
 38 14  1  0  0  0  0
 40 17  1  0  0  0  0
 41 19  1  0  0  0  0
 42 21  1  0  0  0  0
 44 21  1  0  0  0  0
 45 24  1  0  0  0  0
 46 26  1  0  0  0  0
 47 28  1  0  0  0  0
 48 28  1  0  0  0  0
 52 30  1  0  0  0  0
 55 31  1  0  0  0  0
 57 32  1  0  0  0  0
 58 33  1  0  0  0  0
 59 33  1  0  0  0  0
 60 34  1  0  0  0  0
 63 35  1  0  0  0  0
 70 30  1  0  0  0  0
 71 31  1  0  0  0  0
 72 32  1  0  0  0  0
 74 34  1  0  0  0  0
 75 35  1  0  0  0  0
 77 10  1  0  0  0  0
M  END
