1,10,20
q = 0.0, confidence = 0.978

 51 54  0  0  0  0  0  0  0  0999 V2000
    0.7698   -0.0064   -0.2735 N   0  0  0  0  0  2  0  0  0  0  0  0
    0.1408   -1.2081   -0.3490 C   0  0  0  0  0  0  0  0  0  0  0  0
   -1.2298   -1.2550   -0.6340 C   0  0  0  0  0  0  0  0  0  0  0  0
   -1.7478   -2.2186   -0.6957 H   0  0  0  0  0  0  0  0  0  0  0  0
   -1.9259   -0.0350   -0.8360 C   0  0  0  0  0  0  0  0  0  0  0  0
   -1.2240    1.1986   -0.7479 C   0  0  0  0  0  0  0  0  0  0  0  0
   -1.7812    2.1302   -0.9110 H   0  0  0  0  0  0  0  0  0  0  0  0
    0.1391    1.1889   -0.4623 C   0  0  0  0  0  0  0  0  0  0  0  0
    1.0570   -2.3426   -0.1030 C   0  0  0  0  0  0  0  0  0  0  0  0
    2.3700   -1.9916    0.1557 N   0  0  0  0  0  2  0  0  0  0  0  0
    3.2962   -2.9433    0.3952 C   0  0  0  0  0  3  0  0  0  0  0  0
    4.3130   -2.5667    0.5905 H   0  0  0  0  0  0  0  0  0  0  0  0
    2.9648   -4.3031    0.3906 C   0  0  0  0  0  0  0  0  0  0  0  0
    3.7471   -5.0486    0.5902 H   0  0  0  0  0  0  0  0  0  0  0  0
    1.6406   -4.6830    0.1313 C   0  0  0  0  0  0  0  0  0  0  0  0
    1.3534   -5.7444    0.1220 H   0  0  0  0  0  0  0  0  0  0  0  0
    0.6808   -3.6919   -0.1173 C   0  0  0  0  0  0  0  0  0  0  0  0
   -0.3631   -3.9654   -0.3226 H   0  0  0  0  0  0  0  0  0  0  0  0
    1.0547    2.3422   -0.3258 C   0  0  0  0  0  0  0  0  0  0  0  0
    2.3675    2.0196   -0.0348 N   0  0  0  0  0  2  0  0  0  0  0  0
    3.2922    2.9915    0.1124 C   0  0  0  0  0  0  0  0  0  0  0  0
    4.3097    2.6373    0.3429 H   0  0  0  0  0  0  0  0  0  0  0  0
    2.9582    4.3438   -0.0232 C   0  0  0  0  0  0  0  0  0  0  0  0
    3.7392    5.1064    0.1038 H   0  0  0  0  0  0  0  0  0  0  0  0
    1.6336    4.6946   -0.3184 C   0  0  0  0  0  0  0  0  0  0  0  0
    1.3445    5.7497   -0.4303 H   0  0  0  0  0  0  0  0  0  0  0  0
    0.6752    3.6827   -0.4705 C   0  0  0  0  0  0  0  0  0  0  0  0
   -0.3694    3.9316   -0.7020 H   0  0  0  0  0  0  0  0  0  0  0  0
   -3.2271    0.0572   -1.1110 O   0  0  0  0  0  0  0  0  0  0  0  0
   -4.0313   -1.1405   -1.2220 C   0  0  0  0  0  0  0  0  0  0  0  0
   -3.9304   -1.7385   -0.2902 H   0  0  0  0  0  0  0  0  0  0  0  0
   -3.6563   -1.7270   -2.0895 H   0  0  0  0  0  0  0  0  0  0  0  0
   -5.4947   -0.7726   -1.4186 C   0  0  0  0  0  0  0  0  0  0  0  0
   -5.5665   -0.0004   -2.2313 H   0  0  0  0  0  0  0  0  0  0  0  0
   -5.9806   -1.6857   -1.8215 H   0  0  0  0  0  0  0  0  0  0  0  0
   -6.1810   -0.4019   -0.1972 N   0  0  0  0  0  0  0  0  0  0  0  0
   -7.6194   -0.6862   -0.2466 C   0  0  0  0  0  0  0  0  0  0  0  0
   -7.7557   -1.7374   -0.5766 H   0  0  0  0  0  0  0  0  0  0  0  0
   -8.1341   -0.0387   -1.0080 H   0  0  0  0  0  0  0  0  0  0  0  0
   -8.2736   -0.4740    1.1195 C   0  0  0  0  0  0  0  0  0  0  0  0
   -7.8495   -1.2123    1.8339 H   0  0  0  0  0  0  0  0  0  0  0  0
   -9.3605   -0.6812    1.0420 H   0  0  0  0  0  0  0  0  0  0  0  0
   -8.0188    0.9462    1.6342 C   0  0  0  0  0  0  0  0  0  0  0  0
   -8.5469    1.6751    0.9795 H   0  0  0  0  0  0  0  0  0  0  0  0
   -8.4365    1.0774    2.6532 H   0  0  0  0  0  0  0  0  0  0  0  0
   -6.5173    1.2475    1.6172 C   0  0  0  0  0  0  0  0  0  0  0  0
   -5.9992    0.6054    2.3622 H   0  0  0  0  0  0  0  0  0  0  0  0
   -6.3190    2.3019    1.9006 H   0  0  0  0  0  0  0  0  0  0  0  0
   -5.9184    0.9740    0.2361 C   0  0  0  0  0  0  0  0  0  0  0  0
   -6.3391    1.7080   -0.5062 H   0  0  0  0  0  0  0  0  0  0  0  0
   -4.8238    1.1401    0.2539 H   0  0  0  0  0  0  0  0  0  0  0  0
  2  1  1  0  0  0  0
  2  9  1  0  0  0  0
  3  2  2  0  0  0  0
  4  3  1  0  0  0  0
  5  6  2  0  0  0  0
  5  3  1  0  0  0  0
  6  8  1  0  0  0  0
  7  6  1  0  0  0  0
  8 19  2  0  0  0  0
  8  1  1  0  0  0  0
  9 10  1  0  0  0  0
 10 11  1  0  0  0  0
 11 12  1  0  0  0  0
 13 11  1  0  0  0  0
 13 14  1  0  0  0  0
 15 13  2  0  0  0  0
 16 15  1  0  0  0  0
 17  9  2  0  0  0  0
 17 15  1  0  0  0  0
 18 17  1  0  0  0  0
 19 20  1  0  0  0  0
 20 21  1  0  0  0  0
 21 22  1  0  0  0  0
 23 24  1  0  0  0  0
 23 21  2  0  0  0  0
 25 23  1  0  0  0  0
 26 25  1  0  0  0  0
 27 19  1  0  0  0  0
 27 25  2  0  0  0  0
 28 27  1  0  0  0  0
 29  5  1  0  0  0  0
 30 29  1  0  0  0  0
 30 31  1  0  0  0  0
 32 30  1  0  0  0  0
 33 30  1  0  0  0  0
 33 36  1  0  0  0  0
 34 33  1  0  0  0  0
 35 33  1  0  0  0  0
 36 49  1  0  0  0  0
 37 36  1  0  0  0  0
 37 40  1  0  0  0  0
 38 37  1  0  0  0  0
 39 37  1  0  0  0  0
 40 43  1  0  0  0  0
 40 41  1  0  0  0  0
 42 40  1  0  0  0  0
 43 45  1  0  0  0  0
 44 43  1  0  0  0  0
 46 43  1  0  0  0  0
 46 48  1  0  0  0  0
 46 47  1  0  0  0  0
 49 51  1  0  0  0  0
 49 46  1  0  0  0  0
 50 49  1  0  0  0  0
M  END
