5,6,17
q = -1.0

 33 36  0  0  0  0  0  0  0  0999 V2000
   -0.2750   -2.2467    3.3417 P   0  0  0  0  0  0  0  0  0  0  0  0
   -0.4363   -3.0910   -2.6867 P   0  0  0  0  0  0  0  0  0  0  0  0
   -1.1299    4.0158   -0.2933 P   0  0  0  0  0  0  0  0  0  0  0  0
   -0.7955   -0.7264    1.2713 N   0  0  0  0  0  0  0  0  0  0  0  0
    0.2764    1.7816   -0.1273 N   0  0  0  0  0  2  0  0  0  0  0  0
    0.5530   -0.6356    1.4192 N   0  0  0  0  0  2  0  0  0  0  0  0
   -1.0267    1.3999   -0.1667 N   0  0  0  0  0  0  0  0  0  0  0  0
   -0.8624   -1.0029   -1.1625 N   0  0  0  0  0  0  0  0  0  0  0  0
   -1.3756   -1.5537    2.1695 C   0  0  0  0  0  3  0  0  0  0  0  0
   -2.4535   -1.7300    2.0813 H   0  0  0  0  0  0  0  0  0  0  0  0
   -5.1946    0.2935    1.2397 C   0  0  0  0  0  0  0  0  0  0  0  0
   -5.7090    0.4862    2.1936 H   0  0  0  0  0  0  0  0  0  0  0  0
   -5.9289    0.2122    0.0471 C   0  0  0  0  0  0  0  0  0  0  0  0
   -7.0235    0.3263    0.0583 H   0  0  0  0  0  0  0  0  0  0  0  0
   -1.4848   -2.0534   -1.7470 C   0  0  0  0  0  3  0  0  0  0  0  0
   -2.5584   -2.1777   -1.5678 H   0  0  0  0  0  0  0  0  0  0  0  0
    0.4792   -0.9777   -1.3825 N   0  0  0  0  0  2  0  0  0  0  0  0
    0.3828    3.1149   -0.1742 C   0  0  0  0  0  3  0  0  0  0  0  0
    1.3881    3.5505   -0.1361 H   0  0  0  0  0  0  0  0  0  0  0  0
   -3.7989    0.1452    1.2202 C   0  0  0  0  0  0  0  0  0  0  0  0
   -3.2513    0.2674    2.1668 H   0  0  0  0  0  0  0  0  0  0  0  0
   -1.8891    2.4452   -0.2603 C   0  0  0  0  0  0  0  0  0  0  0  0
   -2.9611    2.2267   -0.2960 H   0  0  0  0  0  0  0  0  0  0  0  0
    0.8493   -1.9997   -2.1687 C   0  0  0  0  0  0  0  0  0  0  0  0
    1.9170   -2.1015   -2.3977 H   0  0  0  0  0  0  0  0  0  0  0  0
    0.9732   -1.3551    2.4706 C   0  0  0  0  0  0  0  0  0  0  0  0
    2.0482   -1.3465    2.6928 H   0  0  0  0  0  0  0  0  0  0  0  0
   -1.4711   -0.1058   -0.0162 B   0  0  1  0  0  0  0  0  0  0  0  0
   -5.2487    0.0092   -1.1628 C   0  0  0  0  0  0  0  0  0  0  0  0
   -5.8060   -0.0236   -2.1115 H   0  0  0  0  0  0  0  0  0  0  0  0
   -3.0889   -0.1086    0.0215 C   0  0  0  0  0  0  0  0  0  0  0  0
   -3.8527   -0.1392   -1.1707 C   0  0  0  0  0  0  0  0  0  0  0  0
   -3.3483   -0.2494   -2.1426 H   0  0  0  0  0  0  0  0  0  0  0  0
  2 24  2  0  0  0  0
  2 15  1  0  0  0  0
  3 22  2  0  0  0  0
  3 18  1  0  0  0  0
  4  6  1  0  0  0  0
  4  9  1  0  0  0  0
  6 26  1  0  0  0  0
  7  5  1  0  0  0  0
  7 28  1  0  0  0  0
  8 28  1  0  0  0  0
  9  1  1  0  0  0  0
 10  9  1  0  0  0  0
 11 12  1  0  0  0  0
 13 14  1  0  0  0  0
 13 11  2  0  0  0  0
 15 16  1  0  0  0  0
 15  8  1  0  0  0  0
 17  8  1  0  0  0  0
 18 19  1  0  0  0  0
 18  5  1  0  0  0  0
 20 11  1  0  0  0  0
 20 21  1  0  0  0  0
 22  7  1  0  0  0  0
 23 22  1  0  0  0  0
 24 17  1  0  0  0  0
 25 24  1  0  0  0  0
 26 27  1  0  0  0  0
 26  1  2  0  0  0  0
 28 31  1  1  0  0  0
 28  4  1  0  0  0  0
 29 13  1  0  0  0  0
 30 29  1  0  0  0  0
 31 20  2  0  0  0  0
 32 29  2  0  0  0  0
 32 31  1  0  0  0  0
 33 32  1  0  0  0  0
M  END
