1,2,3
q = -1.0

 39 41  0  0  0  0  0  0  0  0999 V2000
   -0.0243   -1.6425   -0.9281 N   0  0  0  0  0  2  0  0  0  0  0  0
    1.5641    0.1814   -1.3028 N   0  0  0  0  0  2  0  0  0  0  0  0
   -1.4629   -0.8317    0.8648 N   0  0  0  0  0  2  0  0  0  0  0  0
    0.8559   -1.9994   -1.8788 N   0  0  0  0  0  0  0  0  0  0  0  0
   -1.8292   -1.9948    0.4006 N   0  0  0  0  0  0  0  0  0  0  0  0
    2.7336   -0.9561   -2.8691 O   0  0  0  0  0  0  0  0  0  0  0  0
   -1.0342   -2.4724   -0.5732 C   0  0  0  0  0  0  0  0  0  0  0  0
   -1.2636   -3.8156   -1.2148 C   0  0  0  0  0  0  0  0  0  0  0  0
   -2.7163   -4.2735   -1.0519 C   0  0  0  0  0  0  0  0  0  0  0  0
   -0.2580   -4.8575   -0.6873 C   0  0  0  0  0  0  0  0  0  0  0  0
    1.6810   -0.9566   -2.0117 C   0  0  0  0  0  0  0  0  0  0  0  0
    3.3476    0.2697   -2.6765 C   0  0  0  0  0  0  0  0  0  0  0  0
    4.4792    0.7667   -3.3127 C   0  0  0  0  0  0  0  0  0  0  0  0
    4.9002    2.0500   -2.9118 C   0  0  0  0  0  0  0  0  0  0  0  0
    4.2065    2.7731   -1.9175 C   0  0  0  0  0  0  0  0  0  0  0  0
    3.0623    2.2596   -1.2850 C   0  0  0  0  0  0  0  0  0  0  0  0
    2.6266    0.9845   -1.6844 C   0  0  0  0  0  0  0  0  0  0  0  0
   -3.7440   -0.5329    1.7220 C   0  0  0  0  0  0  0  0  0  0  0  0
   -4.6309    0.1105    2.5903 C   0  0  0  0  0  0  0  0  0  0  0  0
   -4.1645    1.0685    3.5083 C   0  0  0  0  0  0  0  0  0  0  0  0
   -2.7941    1.3738    3.5514 C   0  0  0  0  0  0  0  0  0  0  0  0
   -1.8954    0.7416    2.6835 C   0  0  0  0  0  0  0  0  0  0  0  0
   -2.3634   -0.2180    1.7592 C   0  0  0  0  0  0  0  0  0  0  0  0
   -1.0450   -3.6685   -2.2955 H   0  0  0  0  0  0  0  0  0  0  0  0
   -3.4202   -3.5245   -1.4666 H   0  0  0  0  0  0  0  0  0  0  0  0
   -2.8761   -5.2355   -1.5788 H   0  0  0  0  0  0  0  0  0  0  0  0
   -2.9699   -4.4145    0.0173 H   0  0  0  0  0  0  0  0  0  0  0  0
    0.7826   -4.5300   -0.8795 H   0  0  0  0  0  0  0  0  0  0  0  0
   -0.3898   -5.0143    0.4032 H   0  0  0  0  0  0  0  0  0  0  0  0
   -0.4066   -5.8326   -1.1941 H   0  0  0  0  0  0  0  0  0  0  0  0
    5.0104    0.1853   -4.0785 H   0  0  0  0  0  0  0  0  0  0  0  0
    5.7911    2.4923   -3.3809 H   0  0  0  0  0  0  0  0  0  0  0  0
    4.5750    3.7678   -1.6253 H   0  0  0  0  0  0  0  0  0  0  0  0
    2.5392    2.8132   -0.4943 H   0  0  0  0  0  0  0  0  0  0  0  0
   -4.0907   -1.2735    0.9893 H   0  0  0  0  0  0  0  0  0  0  0  0
   -5.7040   -0.1306    2.5435 H   0  0  0  0  0  0  0  0  0  0  0  0
   -4.8675    1.5763    4.1854 H   0  0  0  0  0  0  0  0  0  0  0  0
   -2.4146    2.1122    4.2740 H   0  0  0  0  0  0  0  0  0  0  0  0
   -0.8272    0.9801    2.7291 H   0  0  0  0  0  0  0  0  0  0  0  0
  1  7  1  0  0  0  0
  3 23  1  0  0  0  0
  4  1  1  0  0  0  0
  5  3  1  0  0  0  0
  6 12  1  0  0  0  0
  6 11  1  0  0  0  0
  7  5  2  0  0  0  0
  8  9  1  0  0  0  0
  8 10  1  0  0  0  0
  8  7  1  0  0  0  0
  9 27  1  0  0  0  0
 10 29  1  0  0  0  0
 11  4  2  0  0  0  0
 11  2  1  0  0  0  0
 12 17  1  0  0  0  0
 13 14  1  0  0  0  0
 13 12  2  0  0  0  0
 14 15  2  0  0  0  0
 15 33  1  0  0  0  0
 15 16  1  0  0  0  0
 16 34  1  0  0  0  0
 17  2  1  0  0  0  0
 17 16  2  0  0  0  0
 18 23  2  0  0  0  0
 18 19  1  0  0  0  0
 19 20  2  0  0  0  0
 20 21  1  0  0  0  0
 20 37  1  0  0  0  0
 21 38  1  0  0  0  0
 22 39  1  0  0  0  0
 22 21  2  0  0  0  0
 23 22  1  0  0  0  0
 24  8  1  0  0  0  0
 25  9  1  0  0  0  0
 26  9  1  0  0  0  0
 28 10  1  0  0  0  0
 30 10  1  0  0  0  0
 31 13  1  0  0  0  0
 32 14  1  0  0  0  0
 35 18  1  0  0  0  0
 36 19  1  0  0  0  0
M  END
