28,30,32
q = 0.0, confidence = 0.98

 40 42  0  0  1  0  0  0  0  0999 V2000
    3.3993    2.7106   -0.5026 C   0  0  0  0  0  3  0  0  0  0  0  0
    4.4597    2.4441   -0.5887 H   0  0  0  0  0  0  0  0  0  0  0  0
    2.7713    3.9845   -0.5692 C   0  0  0  0  0  0  0  0  0  0  0  0
    3.2426    4.9603   -0.7226 H   0  0  0  0  0  0  0  0  0  0  0  0
    1.4195    3.7268   -0.3968 C   0  0  0  0  0  0  0  0  0  0  0  0
    0.5508    4.3917   -0.3733 H   0  0  0  0  0  0  0  0  0  0  0  0
    0.1400    1.5814   -0.0332 C   0  0  2  0  0  3  0  0  0  0  0  0
   -1.1606    2.0964    0.0508 C   0  0  0  0  0  0  0  0  0  0  0  0
   -1.4075    3.1624   -0.0360 H   0  0  0  0  0  0  0  0  0  0  0  0
   -2.1997    1.1714    0.2587 C   0  0  0  0  0  0  0  0  0  0  0  0
   -3.5974    1.7201    0.3462 C   0  0  0  0  0  0  0  0  0  0  0  0
   -1.9286   -0.2046    0.3775 C   0  0  0  0  0  0  0  0  0  0  0  0
   -2.7473   -0.9144    0.5428 H   0  0  0  0  0  0  0  0  0  0  0  0
   -0.5845   -0.5942    0.2757 C   0  0  0  0  0  0  0  0  0  0  0  0
   -0.8479   -3.0887    0.5709 C   0  0  0  0  0  3  0  0  0  0  0  0
   -1.9357   -3.0842    0.6888 H   0  0  0  0  0  0  0  0  0  0  0  0
    0.0733   -4.1254    0.5817 C   0  0  0  0  0  0  0  0  0  0  0  0
   -0.1341   -5.1913    0.7184 H   0  0  0  0  0  0  0  0  0  0  0  0
    1.3331   -3.4985    0.3776 C   0  0  0  0  0  0  0  0  0  0  0  0
    2.3358   -3.9383    0.3157 H   0  0  0  0  0  0  0  0  0  0  0  0
   -5.8934    1.1550    0.6092 C   0  0  0  0  0  0  0  0  0  0  0  0
   -6.0891    1.8981   -0.1920 H   0  0  0  0  0  0  0  0  0  0  0  0
   -6.0394    1.6711    1.5814 H   0  0  0  0  0  0  0  0  0  0  0  0
   -7.5428   -2.0209   -0.9897 C   0  0  0  0  0  0  0  0  0  0  0  0
   -7.4532   -2.4994   -1.9851 H   0  0  0  0  0  0  0  0  0  0  0  0
   -8.6145   -1.7799   -0.8299 H   0  0  0  0  0  0  0  0  0  0  0  0
   -7.2590   -2.7772   -0.2282 H   0  0  0  0  0  0  0  0  0  0  0  0
    2.4993    1.7492   -0.3046 N   0  0  0  0  0  2  0  0  0  0  0  0
    1.2940    2.3682   -0.2402 N   0  0  0  0  0  0  0  0  0  0  0  0
    0.3951    0.2814    0.0778 N   0  0  0  0  0  2  0  0  0  0  0  0
   -0.1372   -1.9309    0.3698 N   0  0  0  0  0  0  0  0  0  0  0  0
    1.1906   -2.1805    0.2521 N   0  0  0  0  0  2  0  0  0  0  0  0
   -4.5062    0.7418    0.5211 O   0  0  0  0  0  0  0  0  0  0  0  0
   -3.8602    2.9064    0.2636 O   0  0  0  0  0  0  0  0  0  0  0  0
   -6.7656   -0.0797    0.4785 C   0  0  0  0  0  0  0  0  0  0  0  0
   -6.5063   -0.7949    1.2901 H   0  0  0  0  0  0  0  0  0  0  0  0
   -7.8148    0.2333    0.6717 H   0  0  0  0  0  0  0  0  0  0  0  0
   -6.6688   -0.7716   -0.8855 C   0  0  0  0  0  0  0  0  0  0  0  0
   -5.6069   -1.0345   -1.0818 H   0  0  0  0  0  0  0  0  0  0  0  0
   -6.9502   -0.0450   -1.6797 H   0  0  0  0  0  0  0  0  0  0  0  0
  1 28  1  0  0  0  0
  2  1  1  0  0  0  0
  3  1  1  0  0  0  0
  3  5  2  0  0  0  0
  4  3  1  0  0  0  0
  5  6  1  0  0  0  0
  5 29  1  0  0  0  0
  7 29  1  6  0  0  0
  7  8  1  0  0  0  0
  7 30  1  0  0  0  0
  8 10  2  0  0  0  0
  9  8  1  0  0  0  0
 10 11  1  0  0  0  0
 10 12  1  0  0  0  0
 11 33  1  0  0  0  0
 12 13  1  0  0  0  0
 14 31  1  0  0  0  0
 14 12  2  0  0  0  0
 15 17  1  0  0  0  0
 15 16  1  0  0  0  0
 17 18  1  0  0  0  0
 19 17  2  0  0  0  0
 20 19  1  0  0  0  0
 21 23  1  0  0  0  0
 22 21  1  0  0  0  0
 24 38  1  0  0  0  0
 24 26  1  0  0  0  0
 24 27  1  0  0  0  0
 25 24  1  0  0  0  0
 28 29  1  0  0  0  0
 30 14  1  0  0  0  0
 31 15  1  0  0  0  0
 32 31  1  0  0  0  0
 32 19  1  0  0  0  0
 33 21  1  0  0  0  0
 34 11  2  0  0  0  0
 35 21  1  0  0  0  0
 35 37  1  0  0  0  0
 35 36  1  0  0  0  0
 38 35  1  0  0  0  0
 39 38  1  0  0  0  0
 40 38  1  0  0  0  0
M  END
