6,7,11
q = -1.0

 35 37  0  0  0  0  0  0  0  0999 V2000
   -1.8879    2.6503    1.0743 C   0  0  0  0  0  0  0  0  0  0  0  0
   -1.3635   -1.8799   -3.0314 S   0  0  0  0  0  0  0  0  0  0  0  0
   -2.4765    3.6422    1.8915 C   0  0  0  0  0  0  0  0  0  0  0  0
   -3.5213    3.9315    1.7115 H   0  0  0  0  0  0  0  0  0  0  0  0
    6.1258   -1.7644    0.2990 O   0  0  0  0  0  0  0  0  0  0  0  0
   -0.5741    2.2793    1.2742 N   0  0  0  0  0  2  0  0  0  0  0  0
   -1.8166    1.0154   -0.5662 N   0  0  0  0  0  2  0  0  0  0  0  0
   -2.2321    0.2551   -1.5599 N   0  0  0  0  0  0  0  0  0  0  0  0
   -1.7248    4.2268    2.9113 C   0  0  0  0  0  0  0  0  0  0  0  0
   -2.1730    4.9967    3.5566 H   0  0  0  0  0  0  0  0  0  0  0  0
    0.0215   -0.4697   -1.3645 N   0  0  0  0  0  2  0  0  0  0  0  0
   -0.3942    3.8164    3.1106 C   0  0  0  0  0  0  0  0  0  0  0  0
    0.2270    4.2404    3.9108 H   0  0  0  0  0  0  0  0  0  0  0  0
    0.1431    2.8395    2.2653 C   0  0  0  0  0  0  0  0  0  0  0  0
    1.1752    2.4832    2.3907 H   0  0  0  0  0  0  0  0  0  0  0  0
   -2.5589    1.9443    0.0241 C   0  0  0  0  0  0  0  0  0  0  0  0
   -3.6060    2.1066   -0.2683 H   0  0  0  0  0  0  0  0  0  0  0  0
   -1.2149   -0.5589   -1.9143 C   0  0  0  0  0  0  0  0  0  0  0  0
    0.2913   -2.3251   -2.7037 C   0  0  0  0  0  0  0  0  0  0  0  0
    0.7630   -3.1675   -3.2207 H   0  0  0  0  0  0  0  0  0  0  0  0
    0.8781   -1.4736   -1.7888 C   0  0  0  0  0  0  0  0  0  0  0  0
    6.5036   -2.7420    1.2574 C   0  0  0  0  0  0  0  0  0  0  0  0
    6.4136   -3.7726    0.8497 H   0  0  0  0  0  0  0  0  0  0  0  0
    5.8935   -2.6634    2.1841 H   0  0  0  0  0  0  0  0  0  0  0  0
    7.5622   -2.5427    1.5034 H   0  0  0  0  0  0  0  0  0  0  0  0
    2.5807   -2.6013   -0.3443 C   0  0  0  0  0  0  0  0  0  0  0  0
    1.8029   -3.3147   -0.0322 H   0  0  0  0  0  0  0  0  0  0  0  0
    3.8662   -2.6999    0.2050 C   0  0  0  0  0  0  0  0  0  0  0  0
    4.0806   -3.4929    0.9329 H   0  0  0  0  0  0  0  0  0  0  0  0
    4.8612   -1.7744   -0.1775 C   0  0  0  0  0  0  0  0  0  0  0  0
    4.5526   -0.7768   -1.1330 C   0  0  0  0  0  0  0  0  0  0  0  0
    5.3527   -0.0874   -1.4386 H   0  0  0  0  0  0  0  0  0  0  0  0
    3.2696   -0.6875   -1.6677 C   0  0  0  0  0  0  0  0  0  0  0  0
    3.0405    0.0889   -2.4128 H   0  0  0  0  0  0  0  0  0  0  0  0
    2.2573   -1.5889   -1.2669 C   0  0  0  0  0  0  0  0  0  0  0  0
  1  6  1  0  0  0  0
  1  3  1  0  0  0  0
  2 19  1  0  0  0  0
  2 18  1  0  0  0  0
  3  9  2  0  0  0  0
  4  3  1  0  0  0  0
  5 22  1  0  0  0  0
  6 14  1  0  0  0  0
  7 16  1  0  0  0  0
  8  7  1  0  0  0  0
  9 12  1  0  0  0  0
  9 10  1  0  0  0  0
 12 13  1  0  0  0  0
 14 15  1  0  0  0  0
 14 12  2  0  0  0  0
 16  1  2  0  0  0  0
 17 16  1  0  0  0  0
 18  8  2  0  0  0  0
 18 11  1  0  0  0  0
 19 21  2  0  0  0  0
 20 19  1  0  0  0  0
 21 11  1  0  0  0  0
 21 35  1  0  0  0  0
 22 25  1  0  0  0  0
 22 24  1  0  0  0  0
 23 22  1  0  0  0  0
 26 27  1  0  0  0  0
 26 28  1  0  0  0  0
 28 29  1  0  0  0  0
 30 28  2  0  0  0  0
 30  5  1  0  0  0  0
 31 30  1  0  0  0  0
 32 31  1  0  0  0  0
 33 35  1  0  0  0  0
 33 31  2  0  0  0  0
 34 33  1  0  0  0  0
 35 26  2  0  0  0  0
M  END
