5,14,25
q = -1.0, confidence = 0.018

 43 42  0  0  1  0  0  0  0  0999 V2000
   -3.0387    2.4076    0.4874 C   0  0  0  0  0  0  0  0  0  0  0  0
   -4.1242    2.4779    0.2745 H   0  0  0  0  0  0  0  0  0  0  0  0
   -2.4868    3.1834   -0.0781 H   0  0  0  0  0  0  0  0  0  0  0  0
   -2.8778    2.6062    1.5703 H   0  0  0  0  0  0  0  0  0  0  0  0
   -2.5638    1.0878    0.1142 N   0  0  0  0  0  2  0  0  0  0  0  0
   -3.4580    0.1000   -0.1493 C   0  0  0  0  0  0  0  0  0  0  0  0
   -4.6923    0.1904   -0.1158 O   0  0  0  0  0  0  0  0  0  0  0  0
   -2.7823   -1.2362   -0.5786 C   0  0  2  0  0  0  0  0  0  0  0  0
   -2.5237   -1.1195   -1.6531 H   0  0  0  0  0  0  0  0  0  0  0  0
   -3.7173   -2.4260   -0.4131 C   0  0  0  0  0  0  0  0  0  0  0  0
   -3.2799   -3.3673   -0.8023 H   0  0  0  0  0  0  0  0  0  0  0  0
   -4.6408   -2.1960   -0.9768 H   0  0  0  0  0  0  0  0  0  0  0  0
   -4.0260   -2.5715    0.6397 H   0  0  0  0  0  0  0  0  0  0  0  0
   -1.4540   -1.3451    0.1222 N   0  0  0  0  0  0  0  0  0  0  0  0
   -1.6125   -1.6993    1.5509 C   0  0  0  0  0  0  0  0  0  0  0  0
   -1.9493   -2.7523    1.6651 H   0  0  0  0  0  0  0  0  0  0  0  0
   -2.3561   -1.0195    2.0048 H   0  0  0  0  0  0  0  0  0  0  0  0
   -0.6530   -1.5677    2.0815 H   0  0  0  0  0  0  0  0  0  0  0  0
   -0.4627   -2.2184   -0.5644 C   0  0  0  0  0  0  0  0  0  0  0  0
   -0.6006   -2.0714   -1.6539 H   0  0  0  0  0  0  0  0  0  0  0  0
   -0.6625   -3.2929   -0.3489 H   0  0  0  0  0  0  0  0  0  0  0  0
    0.9627   -1.8686   -0.1453 C   0  0  0  0  0  0  0  0  0  0  0  0
    1.6996   -2.5008   -0.6822 H   0  0  0  0  0  0  0  0  0  0  0  0
    1.1108   -2.0854    0.9269 H   0  0  0  0  0  0  0  0  0  0  0  0
    1.2505   -0.4173   -0.3725 N   0  0  0  0  0  0  0  0  0  0  0  0
    1.5980   -0.1610   -1.7903 C   0  0  0  0  0  0  0  0  0  0  0  0
    1.6921    0.9320   -1.9314 H   0  0  0  0  0  0  0  0  0  0  0  0
    0.7803   -0.5177   -2.4433 H   0  0  0  0  0  0  0  0  0  0  0  0
    2.5404   -0.6809   -2.0720 H   0  0  0  0  0  0  0  0  0  0  0  0
    2.3097    0.1592    0.5202 C   0  0  1  0  0  0  0  0  0  0  0  0
    2.2902    1.2409    0.2666 H   0  0  0  0  0  0  0  0  0  0  0  0
    1.9874    0.0269    2.0063 C   0  0  0  0  0  0  0  0  0  0  0  0
    0.9663    0.4129    2.2044 H   0  0  0  0  0  0  0  0  0  0  0  0
    2.7041    0.6402    2.5863 H   0  0  0  0  0  0  0  0  0  0  0  0
    2.0807   -1.0166    2.3659 H   0  0  0  0  0  0  0  0  0  0  0  0
    3.6865   -0.4558    0.2176 C   0  0  0  0  0  0  0  0  0  0  0  0
    3.8817   -1.6736    0.2614 O   0  0  0  0  0  0  0  0  0  0  0  0
    4.6583    0.4579   -0.0781 N   0  0  0  0  0  0  0  0  0  0  0  0
    4.3936    1.4432   -0.1163 H   0  0  0  0  0  0  0  0  0  0  0  0
    6.0320    0.0824   -0.3379 C   0  0  0  0  0  0  0  0  0  0  0  0
    6.7279    0.5394    0.3966 H   0  0  0  0  0  0  0  0  0  0  0  0
    6.3512    0.3808   -1.3585 H   0  0  0  0  0  0  0  0  0  0  0  0
    6.0903   -1.0193   -0.2519 H   0  0  0  0  0  0  0  0  0  0  0  0
  1  4  1  0  0  0  0
  2  1  1  0  0  0  0
  3  1  1  0  0  0  0
  5  1  1  0  0  0  0
  6  7  2  0  0  0  0
  6  5  1  0  0  0  0
  8  9  1  6  0  0  0
  8 10  1  0  0  0  0
  8  6  1  0  0  0  0
  8 14  1  0  0  0  0
 10 13  1  0  0  0  0
 11 10  1  0  0  0  0
 12 10  1  0  0  0  0
 14 15  1  0  0  0  0
 15 16  1  0  0  0  0
 15 17  1  0  0  0  0
 15 18  1  0  0  0  0
 19 21  1  0  0  0  0
 19 22  1  0  0  0  0
 19 14  1  0  0  0  0
 20 19  1  0  0  0  0
 22 24  1  0  0  0  0
 23 22  1  0  0  0  0
 25 22  1  0  0  0  0
 25 30  1  0  0  0  0
 26 25  1  0  0  0  0
 27 26  1  0  0  0  0
 28 26  1  0  0  0  0
 29 26  1  0  0  0  0
 30 31  1  6  0  0  0
 30 32  1  0  0  0  0
 32 33  1  0  0  0  0
 32 35  1  0  0  0  0
 32 34  1  0  0  0  0
 36 37  2  0  0  0  0
 36 30  1  0  0  0  0
 38 36  1  0  0  0  0
 39 38  1  0  0  0  0
 40 43  1  0  0  0  0
 40 38  1  0  0  0  0
 40 41  1  0  0  0  0
 42 40  1  0  0  0  0
M  END
