1,2,3
q = 0.0, confidence = 1.0

 37 38  0  0  0  0  0  0  0  0999 V2000
   -1.4357   -0.7111   -2.0002 N   0  0  0  0  0  0  0  0  0  0  0  0
   -1.6170   -1.2886    1.0860 N   0  0  0  0  0  2  0  0  0  0  0  0
   -1.7241    1.7650    0.0336 N   0  0  0  0  0  2  0  0  0  0  0  0
   -0.3174   -0.7889   -2.9573 C   0  0  0  0  0  0  0  0  0  0  0  0
   -2.0511   -0.9351    2.3143 C   0  0  0  0  0  3  0  0  0  0  0  0
   -2.6232   -1.8474    3.2058 C   0  0  0  0  0  0  0  0  0  0  0  0
   -2.7525   -3.1840    2.8005 C   0  0  0  0  0  0  0  0  0  0  0  0
   -2.3136   -3.5483    1.5209 C   0  0  0  0  0  0  0  0  0  0  0  0
   -1.7443   -2.5770    0.6784 C   0  0  0  0  0  0  0  0  0  0  0  0
   -1.2901   -2.8959   -0.7239 C   0  0  0  0  0  0  0  0  0  0  0  0
   -2.0186   -2.0586   -1.7924 C   0  0  0  0  0  0  0  0  0  0  0  0
   -1.2414    2.7967    0.7627 C   0  0  0  0  0  3  0  0  0  0  0  0
   -1.9341    3.9989    0.9298 C   0  0  0  0  0  0  0  0  0  0  0  0
   -3.1809    4.1417    0.3034 C   0  0  0  0  0  0  0  0  0  0  0  0
   -3.6764    3.0789   -0.4618 C   0  0  0  0  0  0  0  0  0  0  0  0
   -2.9287    1.8926   -0.5795 C   0  0  0  0  0  0  0  0  0  0  0  0
   -3.4308    0.7275   -1.3972 C   0  0  0  0  0  0  0  0  0  0  0  0
   -2.4590    0.2408   -2.4880 C   0  0  0  0  0  0  0  0  0  0  0  0
   -0.6631   -1.1105   -3.9682 H   0  0  0  0  0  0  0  0  0  0  0  0
    0.1749    0.1985   -3.0387 H   0  0  0  0  0  0  0  0  0  0  0  0
    0.4364   -1.5150   -2.5976 H   0  0  0  0  0  0  0  0  0  0  0  0
   -1.9283    0.1261    2.5848 H   0  0  0  0  0  0  0  0  0  0  0  0
   -2.9569   -1.5131    4.1983 H   0  0  0  0  0  0  0  0  0  0  0  0
   -3.1945   -3.9346    3.4726 H   0  0  0  0  0  0  0  0  0  0  0  0
   -2.4081   -4.5856    1.1678 H   0  0  0  0  0  0  0  0  0  0  0  0
   -0.1934   -2.7293   -0.8062 H   0  0  0  0  0  0  0  0  0  0  0  0
   -1.4641   -3.9704   -0.9263 H   0  0  0  0  0  0  0  0  0  0  0  0
   -3.0783   -1.9452   -1.4894 H   0  0  0  0  0  0  0  0  0  0  0  0
   -2.0297   -2.6079   -2.7625 H   0  0  0  0  0  0  0  0  0  0  0  0
   -0.2540    2.6391    1.2255 H   0  0  0  0  0  0  0  0  0  0  0  0
   -1.4996    4.8055    1.5370 H   0  0  0  0  0  0  0  0  0  0  0  0
   -3.7586    5.0724    0.4051 H   0  0  0  0  0  0  0  0  0  0  0  0
   -4.6469    3.1603   -0.9728 H   0  0  0  0  0  0  0  0  0  0  0  0
   -3.6766   -0.1149   -0.7141 H   0  0  0  0  0  0  0  0  0  0  0  0
   -4.3849    1.0197   -1.8764 H   0  0  0  0  0  0  0  0  0  0  0  0
   -1.9282    1.1118   -2.9220 H   0  0  0  0  0  0  0  0  0  0  0  0
   -3.0377   -0.2223   -3.3223 H   0  0  0  0  0  0  0  0  0  0  0  0
  1 11  1  0  0  0  0
  2  5  1  0  0  0  0
  3 12  1  0  0  0  0
  4 21  1  0  0  0  0
  4  1  1  0  0  0  0
  5 22  1  0  0  0  0
  5  6  1  0  0  0  0
  6 23  1  0  0  0  0
  7  6  2  0  0  0  0
  7 24  1  0  0  0  0
  8  7  1  0  0  0  0
  9  2  1  0  0  0  0
  9  8  2  0  0  0  0
 10  9  1  0  0  0  0
 11 28  1  0  0  0  0
 11 10  1  0  0  0  0
 12 13  1  0  0  0  0
 12 30  1  0  0  0  0
 13 31  1  0  0  0  0
 14 32  1  0  0  0  0
 14 13  2  0  0  0  0
 15 14  1  0  0  0  0
 16 15  2  0  0  0  0
 16  3  1  0  0  0  0
 17 34  1  0  0  0  0
 17 16  1  0  0  0  0
 18  1  1  0  0  0  0
 18 17  1  0  0  0  0
 19  4  1  0  0  0  0
 20  4  1  0  0  0  0
 25  8  1  0  0  0  0
 26 10  1  0  0  0  0
 27 10  1  0  0  0  0
 29 11  1  0  0  0  0
 33 15  1  0  0  0  0
 35 17  1  0  0  0  0
 36 18  1  0  0  0  0
 37 18  1  0  0  0  0
M  END
