1,3,4
q = -1.0, confidence = 0.008

 28 30  0  0  1  0  0  0  0  0999 V2000
    0.2026   -1.5146   -0.3254 N   0  0  0  0  0  2  0  0  0  0  0  0
    2.2885   -0.3686   -0.5043 C   0  0  2  0  0  3  0  0  0  0  0  0
   -2.1941   -0.5275   -0.6464 N   0  0  0  0  0  2  0  0  0  0  0  0
    1.5215    0.7456   -0.7104 N   0  0  0  0  0  2  0  0  0  0  0  0
    2.1140    1.9172   -0.9218 C   0  0  0  0  0  0  0  0  0  0  0  0
    1.4324    2.7772   -1.0439 H   0  0  0  0  0  0  0  0  0  0  0  0
    3.7180   -0.3322   -0.5121 C   0  0  0  0  0  0  0  0  0  0  0  0
    1.6044   -1.5990   -0.2828 C   0  0  0  0  0  0  0  0  0  0  0  0
   -2.0592   -1.9060   -0.6433 C   0  0  0  0  0  0  0  0  0  0  0  0
    2.3202   -2.7737   -0.0711 C   0  0  0  0  0  0  0  0  0  0  0  0
    1.7725   -3.7106    0.0994 H   0  0  0  0  0  0  0  0  0  0  0  0
   -3.1820   -2.7492   -0.7122 C   0  0  0  0  0  0  0  0  0  0  0  0
   -3.0324   -3.8374   -0.7139 H   0  0  0  0  0  0  0  0  0  0  0  0
    4.4284   -1.5472   -0.2864 C   0  0  0  0  0  0  0  0  0  0  0  0
    5.5287   -1.5302   -0.2831 H   0  0  0  0  0  0  0  0  0  0  0  0
    3.7373   -2.7342   -0.0709 C   0  0  0  0  0  0  0  0  0  0  0  0
    4.2942   -3.6660    0.1074 H   0  0  0  0  0  0  0  0  0  0  0  0
    4.3257    0.9345   -0.7485 C   0  0  0  0  0  0  0  0  0  0  0  0
    5.4237    1.0138   -0.7600 H   0  0  0  0  0  0  0  0  0  0  0  0
   -3.4206    0.0069   -0.7081 C   0  0  0  0  0  0  0  0  0  0  0  0
   -3.4447    1.1112   -0.6957 H   0  0  0  0  0  0  0  0  0  0  0  0
    3.5264    2.0497   -0.9548 C   0  0  0  0  0  0  0  0  0  0  0  0
    3.9670    3.0407   -1.1345 H   0  0  0  0  0  0  0  0  0  0  0  0
   -0.6920   -2.3714   -0.5852 C   0  0  0  0  0  3  0  0  0  0  0  0
   -4.5823   -0.7814   -0.7717 C   0  0  0  0  0  0  0  0  0  0  0  0
   -5.5668   -0.2945   -0.8225 H   0  0  0  0  0  0  0  0  0  0  0  0
   -4.4607   -2.1781   -0.7704 C   0  0  0  0  0  0  0  0  0  0  0  0
   -5.3538   -2.8190   -0.8160 H   0  0  0  0  0  0  0  0  0  0  0  0
  1  8  1  0  0  0  0
  2  4  1  6  0  0  0
  2  8  1  0  0  0  0
  3  9  1  0  0  0  0
  5  4  1  0  0  0  0
  6  5  1  0  0  0  0
  7  2  1  0  0  0  0
  7 14  1  0  0  0  0
  8 10  2  0  0  0  0
  9 24  2  0  0  0  0
 10 16  1  0  0  0  0
 10 11  1  0  0  0  0
 12  9  1  0  0  0  0
 13 12  1  0  0  0  0
 14 15  1  0  0  0  0
 14 16  2  0  0  0  0
 16 17  1  0  0  0  0
 18  7  2  0  0  0  0
 19 18  1  0  0  0  0
 20 21  1  0  0  0  0
 20  3  1  0  0  0  0
 22  5  2  0  0  0  0
 22 18  1  0  0  0  0
 23 22  1  0  0  0  0
 24  1  1  0  0  0  0
 25 27  1  0  0  0  0
 25 20  2  0  0  0  0
 26 25  1  0  0  0  0
 27 12  2  0  0  0  0
 28 27  1  0  0  0  0
M  END
