3,4,7
q = -1.0, confidence = 0.002

 28 30  0  0  0  0  0  0  0  0999 V2000
   -5.5764   -1.7425    0.0021 O   0  0  0  0  0  0  0  0  0  0  0  0
   -6.4241    0.2854    0.0020 O   0  0  0  0  0  0  0  0  0  0  0  0
    0.1247    1.3823   -1.3666 N   0  0  0  0  0  2  0  0  0  0  0  0
    0.1270    1.3828    1.3657 N   0  0  0  0  0  2  0  0  0  0  0  0
   -2.4702    1.4700    0.0017 N   0  0  0  0  0  0  0  0  0  0  0  0
   -5.4810   -0.5119    0.0012 N   0  0  0  0  0  0  0  0  0  0  0  0
   -1.9232    0.2152    0.0017 N   0  0  0  0  0  2  0  0  0  0  0  0
   -0.5982    2.5255   -1.2443 N   0  0  0  0  0  0  0  0  0  0  0  0
   -0.5959    2.5261    1.2439 N   0  0  0  0  0  0  0  0  0  0  0  0
   -3.8174    1.4009    0.0014 C   0  0  0  0  0  3  0  0  0  0  0  0
   -4.4554    2.2892    0.0014 H   0  0  0  0  0  0  0  0  0  0  0  0
   -0.3611    3.3434   -2.3045 C   0  0  0  0  0  3  0  0  0  0  0  0
   -0.8583    4.3165   -2.3775 H   0  0  0  0  0  0  0  0  0  0  0  0
   -0.3562    3.3451    2.3027 C   0  0  0  0  0  3  0  0  0  0  0  0
   -0.8531    4.3182    2.3760 H   0  0  0  0  0  0  0  0  0  0  0  0
    0.8276    1.4735   -2.5142 C   0  0  0  0  0  0  0  0  0  0  0  0
    1.4849    0.6532   -2.8220 H   0  0  0  0  0  0  0  0  0  0  0  0
   -4.1516    0.0413    0.0012 C   0  0  0  0  0  0  0  0  0  0  0  0
   -2.9316   -0.6718    0.0014 C   0  0  0  0  0  0  0  0  0  0  0  0
   -2.7569   -1.7513    0.0015 H   0  0  0  0  0  0  0  0  0  0  0  0
    0.5590    2.7077    3.1434 C   0  0  0  0  0  0  0  0  0  0  0  0
    0.9733    3.0828    4.0840 H   0  0  0  0  0  0  0  0  0  0  0  0
    0.5521    2.7054   -3.1467 C   0  0  0  0  0  0  0  0  0  0  0  0
    0.9642    3.0797   -4.0886 H   0  0  0  0  0  0  0  0  0  0  0  0
    0.8327    1.4751    2.5115 C   0  0  0  0  0  0  0  0  0  0  0  0
    1.4905    0.6550    2.8187 H   0  0  0  0  0  0  0  0  0  0  0  0
   -1.4948    2.6830    0.0006 B   0  0  2  0  0  0  0  0  0  0  0  0
   -2.1015    3.7387    0.0009 H   0  0  0  0  0  0  0  0  0  0  0  0
  3  8  1  0  0  0  0
  4 25  1  0  0  0  0
  5  7  1  0  0  0  0
  6 18  1  0  0  0  0
  6  2  2  0  0  0  0
  6  1  2  0  0  0  0
  8 27  1  0  0  0  0
  9  4  1  0  0  0  0
  9 14  1  0  0  0  0
 10 11  1  0  0  0  0
 10  5  1  0  0  0  0
 12  8  1  0  0  0  0
 13 12  1  0  0  0  0
 14 15  1  0  0  0  0
 14 21  1  0  0  0  0
 16  3  1  0  0  0  0
 17 16  1  0  0  0  0
 18 10  1  0  0  0  0
 18 19  2  0  0  0  0
 19 20  1  0  0  0  0
 19  7  1  0  0  0  0
 21 22  1  0  0  0  0
 23 16  2  0  0  0  0
 23 12  1  0  0  0  0
 24 23  1  0  0  0  0
 25 26  1  0  0  0  0
 25 21  2  0  0  0  0
 27 28  1  1  0  0  0
 27  5  1  0  0  0  0
 27  9  1  0  0  0  0
M  END
