2,3,6
q = -1.0, confidence = 0.018

 38 41  0  0  0  0  0  0  0  0999 V2000
   -0.1699    2.5896   -1.2438 N   0  0  0  0  0  0  0  0  0  0  0  0
    1.7777    0.7674    0.0010 N   0  0  0  0  0  2  0  0  0  0  0  0
   -0.5270    1.2854    1.3651 N   0  0  0  0  0  2  0  0  0  0  0  0
    1.9312    2.1301    0.0010 N   0  0  0  0  0  0  0  0  0  0  0  0
   -0.1714    2.5897    1.2433 N   0  0  0  0  0  0  0  0  0  0  0  0
   -0.5255    1.2852   -1.3658 N   0  0  0  0  0  2  0  0  0  0  0  0
    5.3651    1.2023    0.0003 N   0  0  0  0  0  2  0  0  0  0  0  0
    5.8465    0.0220    0.0004 N   0  0  0  0  0  2  0  0  0  0  0  0
    3.9827    1.2529    0.0006 C   0  0  0  0  0  0  0  0  0  0  0  0
    3.0000    0.2171    0.0008 C   0  0  0  0  0  3  0  0  0  0  0  0
    3.1430   -0.8670    0.0009 H   0  0  0  0  0  0  0  0  0  0  0  0
    9.4968    0.9104    0.0007 C   0  0  0  0  0  0  0  0  0  0  0  0
   10.1620    1.7881    0.0012 H   0  0  0  0  0  0  0  0  0  0  0  0
   -0.6413    3.3026   -2.3011 C   0  0  0  0  0  3  0  0  0  0  0  0
   -0.4511    4.3786   -2.3738 H   0  0  0  0  0  0  0  0  0  0  0  0
    3.2412    2.4514    0.0007 C   0  0  0  0  0  0  0  0  0  0  0  0
    3.5818    3.4918    0.0006 H   0  0  0  0  0  0  0  0  0  0  0  0
   -1.2326    1.1664    2.5083 C   0  0  0  0  0  3  0  0  0  0  0  0
   -1.6245    0.1896    2.8115 H   0  0  0  0  0  0  0  0  0  0  0  0
   -1.2297    1.1661   -2.5099 C   0  0  0  0  0  0  0  0  0  0  0  0
   -1.6213    0.1893   -2.8133 H   0  0  0  0  0  0  0  0  0  0  0  0
   -1.3306    2.4250   -3.1413 C   0  0  0  0  0  0  0  0  0  0  0  0
   -1.8385    2.6622   -4.0811 H   0  0  0  0  0  0  0  0  0  0  0  0
   -1.3344    2.4253    3.1395 C   0  0  0  0  0  0  0  0  0  0  0  0
   -1.8433    2.6627    4.0786 H   0  0  0  0  0  0  0  0  0  0  0  0
   10.0499   -0.3857    0.0001 C   0  0  0  0  0  0  0  0  0  0  0  0
   11.1427   -0.5174    0.0001 H   0  0  0  0  0  0  0  0  0  0  0  0
   -0.6441    3.3029    2.2998 C   0  0  0  0  0  0  0  0  0  0  0  0
   -0.4541    4.3789    2.3726 H   0  0  0  0  0  0  0  0  0  0  0  0
    9.2057   -1.5083   -0.0004 C   0  0  0  0  0  0  0  0  0  0  0  0
    9.6352   -2.5217   -0.0009 H   0  0  0  0  0  0  0  0  0  0  0  0
    8.1113    1.0886    0.0008 C   0  0  0  0  0  0  0  0  0  0  0  0
    7.6490    2.0858    0.0013 H   0  0  0  0  0  0  0  0  0  0  0  0
    7.2572   -0.0405    0.0003 C   0  0  0  0  0  0  0  0  0  0  0  0
    7.8154   -1.3373   -0.0003 C   0  0  0  0  0  0  0  0  0  0  0  0
    7.1225   -2.1918   -0.0007 H   0  0  0  0  0  0  0  0  0  0  0  0
    0.6480    3.0006    0.0002 B   0  0  2  0  0  0  0  0  0  0  0  0
    0.9138    4.1902    0.0003 H   0  0  0  0  0  0  0  0  0  0  0  0
  1 37  1  0  0  0  0
  3 18  1  0  0  0  0
  4  2  1  0  0  0  0
  5  3  1  0  0  0  0
  5 28  1  0  0  0  0
  6  1  1  0  0  0  0
  7  8  1  0  0  0  0
  7  9  1  0  0  0  0
  9 16  2  0  0  0  0
  9 10  1  0  0  0  0
 10 11  1  0  0  0  0
 10  2  1  0  0  0  0
 12 32  1  0  0  0  0
 12 13  1  0  0  0  0
 14  1  1  0  0  0  0
 15 14  1  0  0  0  0
 16  4  1  0  0  0  0
 17 16  1  0  0  0  0
 18 19  1  0  0  0  0
 18 24  1  0  0  0  0
 20  6  1  0  0  0  0
 21 20  1  0  0  0  0
 22 20  2  0  0  0  0
 22 14  1  0  0  0  0
 23 22  1  0  0  0  0
 24 25  1  0  0  0  0
 26 12  2  0  0  0  0
 27 26  1  0  0  0  0
 28 29  1  0  0  0  0
 28 24  2  0  0  0  0
 30 35  2  0  0  0  0
 30 26  1  0  0  0  0
 31 30  1  0  0  0  0
 32 33  1  0  0  0  0
 34  8  1  0  0  0  0
 34 32  2  0  0  0  0
 35 34  1  0  0  0  0
 36 35  1  0  0  0  0
 37 38  1  1  0  0  0
 37  4  1  0  0  0  0
 37  5  1  0  0  0  0
M  END
