1,2,3,4,5,6
q = -2.0, confidence = 0.782

 68 72  0  0  1  0  0  0  0  0999 V2000
   -1.3853    0.6698   -1.9718 O   0  5  0  0  0  0  0  0  0  0  0  0
   -0.8278   -1.6909   -0.5677 O   0  5  0  0  0  0  0  0  0  0  0  0
    0.8278    1.6905   -0.5688 O   0  5  0  0  0  0  0  0  0  0  0  0
    1.3852   -0.6709   -1.9715 O   0  5  0  0  0  0  0  0  0  0  0  0
   -1.2697    0.5866    0.8094 N   0  0  0  0  0  0  0  0  0  0  0  0
    1.2697   -0.5862    0.8097 N   0  0  0  0  0  0  0  0  0  0  0  0
   -0.7677   -0.0104    2.0681 C   0  0  2  0  0  0  0  0  0  0  0  0
   -1.1008   -1.0714    2.0579 H   0  0  0  0  0  0  0  0  0  0  0  0
   -1.3167    0.6634    3.3355 C   0  0  0  0  0  0  0  0  0  0  0  0
   -1.0324    1.7401    3.3158 H   0  0  0  0  0  0  0  0  0  0  0  0
   -2.4248    0.6240    3.3363 H   0  0  0  0  0  0  0  0  0  0  0  0
   -0.7658    0.0049    4.6055 C   0  0  0  0  0  0  0  0  0  0  0  0
   -1.1548    0.5268    5.5037 H   0  0  0  0  0  0  0  0  0  0  0  0
   -1.1406   -1.0410    4.6640 H   0  0  0  0  0  0  0  0  0  0  0  0
    0.7659   -0.0027    4.6055 C   0  0  0  0  0  0  0  0  0  0  0  0
    1.1549   -0.5242    5.5039 H   0  0  0  0  0  0  0  0  0  0  0  0
    1.1407    1.0432    4.6634 H   0  0  0  0  0  0  0  0  0  0  0  0
    1.3168   -0.6618    3.3358 C   0  0  0  0  0  0  0  0  0  0  0  0
    1.0324   -1.7386    3.3166 H   0  0  0  0  0  0  0  0  0  0  0  0
    2.4249   -0.6224    3.3366 H   0  0  0  0  0  0  0  0  0  0  0  0
    0.7678    0.0113    2.0681 C   0  0  1  0  0  0  0  0  0  0  0  0
    1.1008    1.0724    2.0573 H   0  0  0  0  0  0  0  0  0  0  0  0
   -2.7181    0.3364    0.5547 C   0  0  0  0  0  0  0  0  0  0  0  0
   -3.2901    0.6325    1.4612 H   0  0  0  0  0  0  0  0  0  0  0  0
   -3.2323    1.2350   -0.5590 C   0  0  0  0  0  0  0  0  0  0  0  0
   -4.4293    1.9524   -0.3992 C   0  0  0  0  0  0  0  0  0  0  0  0
   -4.9644    1.8857    0.5621 H   0  0  0  0  0  0  0  0  0  0  0  0
   -4.9531    2.7405   -1.4356 C   0  0  0  0  0  0  0  0  0  0  0  0
   -5.8942    3.2904   -1.2896 H   0  0  0  0  0  0  0  0  0  0  0  0
   -4.2613    2.8213   -2.6553 C   0  0  0  0  0  0  0  0  0  0  0  0
   -4.6593    3.4380   -3.4758 H   0  0  0  0  0  0  0  0  0  0  0  0
   -3.0596    2.1257   -2.8356 C   0  0  0  0  0  0  0  0  0  0  0  0
   -2.4961    2.1806   -3.7780 H   0  0  0  0  0  0  0  0  0  0  0  0
   -2.5366    1.3251   -1.7964 C   0  0  0  0  0  0  0  0  0  0  0  0
   -3.0089   -1.1470    0.3390 C   0  0  0  0  0  0  0  0  0  0  0  0
   -4.2838   -1.6258    0.6949 C   0  0  0  0  0  0  0  0  0  0  0  0
   -5.0111   -0.9159    1.1224 H   0  0  0  0  0  0  0  0  0  0  0  0
   -4.6510   -2.9650    0.5146 C   0  0  0  0  0  0  0  0  0  0  0  0
   -5.6577   -3.3064    0.7962 H   0  0  0  0  0  0  0  0  0  0  0  0
   -3.7119   -3.8629   -0.0223 C   0  0  0  0  0  0  0  0  0  0  0  0
   -3.9773   -4.9217   -0.1667 H   0  0  0  0  0  0  0  0  0  0  0  0
   -2.4350   -3.4173   -0.3731 C   0  0  0  0  0  0  0  0  0  0  0  0
   -1.6826   -4.1007   -0.7934 H   0  0  0  0  0  0  0  0  0  0  0  0
   -2.0602   -2.0579   -0.2153 C   0  0  0  0  0  0  0  0  0  0  0  0
    2.7181   -0.3362    0.5549 C   0  0  0  0  0  0  0  0  0  0  0  0
    3.2901   -0.6318    1.4614 H   0  0  0  0  0  0  0  0  0  0  0  0
    3.0089    1.1472    0.3385 C   0  0  0  0  0  0  0  0  0  0  0  0
    4.2837    1.6262    0.6943 C   0  0  0  0  0  0  0  0  0  0  0  0
    5.0110    0.9165    1.1222 H   0  0  0  0  0  0  0  0  0  0  0  0
    4.6509    2.9653    0.5134 C   0  0  0  0  0  0  0  0  0  0  0  0
    5.6575    3.3070    0.7950 H   0  0  0  0  0  0  0  0  0  0  0  0
    3.7117    3.8629   -0.0240 C   0  0  0  0  0  0  0  0  0  0  0  0
    3.9771    4.9216   -0.1688 H   0  0  0  0  0  0  0  0  0  0  0  0
    2.4349    3.4171   -0.3748 C   0  0  0  0  0  0  0  0  0  0  0  0
    1.6825    4.1003   -0.7955 H   0  0  0  0  0  0  0  0  0  0  0  0
    2.0601    2.0578   -0.2164 C   0  0  0  0  0  0  0  0  0  0  0  0
    3.2323   -1.2352   -0.5585 C   0  0  0  0  0  0  0  0  0  0  0  0
    4.4295   -1.9524   -0.3985 C   0  0  0  0  0  0  0  0  0  0  0  0
    4.9646   -1.8852    0.5629 H   0  0  0  0  0  0  0  0  0  0  0  0
    4.9532   -2.7410   -1.4345 C   0  0  0  0  0  0  0  0  0  0  0  0
    5.8944   -3.2907   -1.2882 H   0  0  0  0  0  0  0  0  0  0  0  0
    4.2614   -2.8225   -2.6540 C   0  0  0  0  0  0  0  0  0  0  0  0
    4.6594   -3.4395   -3.4743 H   0  0  0  0  0  0  0  0  0  0  0  0
    3.0596   -2.1271   -2.8346 C   0  0  0  0  0  0  0  0  0  0  0  0
    2.4960   -2.1826   -3.7770 H   0  0  0  0  0  0  0  0  0  0  0  0
    2.5366   -1.3260   -1.7958 C   0  0  0  0  0  0  0  0  0  0  0  0
   -1.1069    1.6060    0.8236 H   0  0  0  0  0  0  0  0  0  0  0  0
    1.1069   -1.6056    0.8243 H   0  0  0  0  0  0  0  0  0  0  0  0
  1 34  1  0  0  0  0
  2 44  1  0  0  0  0
  3 56  1  0  0  0  0
  4 66  1  0  0  0  0
  5 67  1  0  0  0  0
  5  7  1  0  0  0  0
  6 68  1  0  0  0  0
  6 21  1  0  0  0  0
  7  8  1  1  0  0  0
  7  9  1  0  0  0  0
  9 11  1  0  0  0  0
  9 12  1  0  0  0  0
 10  9  1  0  0  0  0
 12 14  1  0  0  0  0
 12 13  1  0  0  0  0
 15 12  1  0  0  0  0
 15 17  1  0  0  0  0
 15 16  1  0  0  0  0
 18 20  1  0  0  0  0
 18 15  1  0  0  0  0
 19 18  1  0  0  0  0
 21 22  1  1  0  0  0
 21  7  1  0  0  0  0
 21 18  1  0  0  0  0
 23  5  1  0  0  0  0
 23 24  1  0  0  0  0
 25 26  1  0  0  0  0
 25 23  1  0  0  0  0
 26 27  1  0  0  0  0
 28 29  1  0  0  0  0
 28 26  2  0  0  0  0
 30 28  1  0  0  0  0
 31 30  1  0  0  0  0
 32 30  2  0  0  0  0
 32 34  1  0  0  0  0
 33 32  1  0  0  0  0
 34 25  2  0  0  0  0
 35 23  1  0  0  0  0
 35 36  1  0  0  0  0
 36 37  1  0  0  0  0
 38 36  2  0  0  0  0
 38 39  1  0  0  0  0
 40 38  1  0  0  0  0
 41 40  1  0  0  0  0
 42 44  1  0  0  0  0
 42 40  2  0  0  0  0
 43 42  1  0  0  0  0
 44 35  2  0  0  0  0
 45  6  1  0  0  0  0
 45 46  1  0  0  0  0
 47 45  1  0  0  0  0
 47 48  1  0  0  0  0
 48 49  1  0  0  0  0
 50 48  2  0  0  0  0
 50 51  1  0  0  0  0
 52 50  1  0  0  0  0
 53 52  1  0  0  0  0
 54 56  1  0  0  0  0
 54 52  2  0  0  0  0
 55 54  1  0  0  0  0
 56 47  2  0  0  0  0
 57 58  1  0  0  0  0
 57 45  1  0  0  0  0
 58 59  1  0  0  0  0
 60 61  1  0  0  0  0
 60 58  2  0  0  0  0
 62 60  1  0  0  0  0
 63 62  1  0  0  0  0
 64 62  2  0  0  0  0
 64 66  1  0  0  0  0
 65 64  1  0  0  0  0
 66 57  2  0  0  0  0
M  CHG  4   1  -1   2  -1   3  -1   4  -1
M  END
