1,2,3,5,7,9
q = -2.0, confidence = 0.754

 42 42  0  0  1  0  0  0  0  0999 V2000
   -0.2979    1.4161   -0.0069 N   0  0  0  0  0  0  0  0  0  0  0  0
   -0.2974   -1.4163    0.0071 N   0  0  0  0  0  0  0  0  0  0  0  0
    1.0117    0.0797   -1.9247 O   0  5  0  0  0  0  0  0  0  0  0  0
   -0.1084    1.0869   -3.6092 O   0  0  0  0  0  0  0  0  0  0  0  0
    2.2872    1.4794    0.1682 O   0  5  0  0  0  0  0  0  0  0  0  0
    2.3522    3.5260    1.1230 O   0  0  0  0  0  0  0  0  0  0  0  0
    1.0122   -0.0794    1.9246 O   0  5  0  0  0  0  0  0  0  0  0  0
   -0.1073   -1.0869    3.6093 O   0  0  0  0  0  0  0  0  0  0  0  0
    2.2876   -1.4787   -0.1687 O   0  5  0  0  0  0  0  0  0  0  0  0
    2.3531   -3.5253   -1.1235 O   0  0  0  0  0  0  0  0  0  0  0  0
    0.2212    0.9819   -2.4280 C   0  0  0  0  0  0  0  0  0  0  0  0
   -0.2665    1.9939   -1.3778 C   0  0  0  0  0  0  0  0  0  0  0  0
    0.4767    2.8146   -1.3733 H   0  0  0  0  0  0  0  0  0  0  0  0
   -1.2364    2.4353   -1.6771 H   0  0  0  0  0  0  0  0  0  0  0  0
    1.7563    2.5159    0.7569 C   0  0  0  0  0  0  0  0  0  0  0  0
    0.2161    2.3999    0.9760 C   0  0  0  0  0  0  0  0  0  0  0  0
    0.0504    2.0088    1.9972 H   0  0  0  0  0  0  0  0  0  0  0  0
   -0.2632    3.3961    0.8666 H   0  0  0  0  0  0  0  0  0  0  0  0
    0.2220   -0.9818    2.4281 C   0  0  0  0  0  0  0  0  0  0  0  0
   -0.2653   -1.9941    1.3780 C   0  0  0  0  0  0  0  0  0  0  0  0
    0.4785   -2.8143    1.3733 H   0  0  0  0  0  0  0  0  0  0  0  0
   -1.2348   -2.4362    1.6775 H   0  0  0  0  0  0  0  0  0  0  0  0
    1.7570   -2.5152   -0.7574 C   0  0  0  0  0  0  0  0  0  0  0  0
    0.2166   -2.3999   -0.9760 C   0  0  0  0  0  0  0  0  0  0  0  0
    0.0505   -2.0089   -1.9971 H   0  0  0  0  0  0  0  0  0  0  0  0
   -0.2622   -3.3963   -0.8664 H   0  0  0  0  0  0  0  0  0  0  0  0
   -1.5576    0.6897    0.3530 C   0  0  2  0  0  0  0  0  0  0  0  0
   -1.4907    0.5114    1.4466 H   0  0  0  0  0  0  0  0  0  0  0  0
   -1.5575   -0.6903   -0.3525 C   0  0  2  0  0  0  0  0  0  0  0  0
   -1.4906   -0.5119   -1.4461 H   0  0  0  0  0  0  0  0  0  0  0  0
   -2.8494   -1.4786   -0.0874 C   0  0  0  0  0  0  0  0  0  0  0  0
   -2.8967   -1.7717    0.9822 H   0  0  0  0  0  0  0  0  0  0  0  0
   -2.8290   -2.4193   -0.6763 H   0  0  0  0  0  0  0  0  0  0  0  0
   -4.0979   -0.6498   -0.4069 C   0  0  0  0  0  0  0  0  0  0  0  0
   -5.0104   -1.2462   -0.1972 H   0  0  0  0  0  0  0  0  0  0  0  0
   -4.1225   -0.4040   -1.4921 H   0  0  0  0  0  0  0  0  0  0  0  0
   -4.0980    0.6488    0.4072 C   0  0  0  0  0  0  0  0  0  0  0  0
   -4.1228    0.4029    1.4923 H   0  0  0  0  0  0  0  0  0  0  0  0
   -5.0106    1.2450    0.1973 H   0  0  0  0  0  0  0  0  0  0  0  0
   -2.8497    1.4778    0.0878 C   0  0  0  0  0  0  0  0  0  0  0  0
   -2.8969    1.7709   -0.9818 H   0  0  0  0  0  0  0  0  0  0  0  0
   -2.8295    2.4184    0.6767 H   0  0  0  0  0  0  0  0  0  0  0  0
  1 27  1  0  0  0  0
  1 16  1  0  0  0  0
  2 20  1  0  0  0  0
  4 11  2  0  0  0  0
  5 15  1  0  0  0  0
  7 19  1  0  0  0  0
 10 23  2  0  0  0  0
 11  3  1  0  0  0  0
 11 12  1  0  0  0  0
 12 13  1  0  0  0  0
 12  1  1  0  0  0  0
 14 12  1  0  0  0  0
 15 16  1  0  0  0  0
 15  6  2  0  0  0  0
 16 17  1  0  0  0  0
 18 16  1  0  0  0  0
 19  8  2  0  0  0  0
 20 22  1  0  0  0  0
 20 19  1  0  0  0  0
 21 20  1  0  0  0  0
 23  9  1  0  0  0  0
 24 26  1  0  0  0  0
 24 23  1  0  0  0  0
 24  2  1  0  0  0  0
 25 24  1  0  0  0  0
 27 28  1  1  0  0  0
 29 30  1  6  0  0  0
 29 31  1  0  0  0  0
 29  2  1  0  0  0  0
 29 27  1  0  0  0  0
 31 32  1  0  0  0  0
 33 31  1  0  0  0  0
 34 35  1  0  0  0  0
 34 31  1  0  0  0  0
 34 37  1  0  0  0  0
 36 34  1  0  0  0  0
 37 38  1  0  0  0  0
 39 37  1  0  0  0  0
 40 27  1  0  0  0  0
 40 37  1  0  0  0  0
 40 42  1  0  0  0  0
 41 40  1  0  0  0  0
M  CHG  4   3  -1   5  -1   7  -1   9  -1
M  END
