1,2,3,4,7,8
 OpenBabel05122313063D

 42 43  0  0  1  0  0  0  0  0999 V2000
    1.2216   -1.2920   -0.4606 O   0  5  0  0  0  0  0  0  0  0  0  0
   -1.2214   -1.2927    0.4585 O   0  5  0  0  0  0  0  0  0  0  0  0
    0.5900    0.1930    1.8341 O   0  5  0  0  0  0  0  0  0  0  0  0
   -0.5903    0.1945   -1.8346 O   0  5  0  0  0  0  0  0  0  0  0  0
    2.4029    0.7786    3.0523 O   0  0  0  0  0  0  0  0  0  0  0  0
   -2.4038    0.7799   -3.0519 O   0  0  0  0  0  0  0  0  0  0  0  0
    1.3411    1.5100   -0.2371 N   0  0  0  0  0  0  0  0  0  0  0  0
   -1.3412    1.5097    0.2377 N   0  0  0  0  0  0  0  0  0  0  0  0
    1.8021    0.6541    1.9890 C   0  0  0  0  0  0  0  0  0  0  0  0
    2.4700    1.0837    0.6363 C   0  0  1  0  0  0  0  0  0  0  0  0
    3.2435   -0.0315   -0.0046 C   0  0  0  0  0  0  0  0  0  0  0  0
    4.6466    0.0074   -0.0695 C   0  0  0  0  0  0  0  0  0  0  0  0
    5.3898   -1.0554   -0.6025 C   0  0  0  0  0  0  0  0  0  0  0  0
    4.6940   -2.1854   -1.0792 C   0  0  0  0  0  0  0  0  0  0  0  0
    3.3015   -2.2502   -1.0269 C   0  0  0  0  0  0  0  0  0  0  0  0
    2.5194   -1.1784   -0.4870 C   0  0  0  0  0  0  0  0  0  0  0  0
    0.7336    2.7870    0.1971 C   0  0  0  0  0  0  0  0  0  0  0  0
   -0.7338    2.7870   -0.1958 C   0  0  0  0  0  0  0  0  0  0  0  0
   -2.4702    1.0839   -0.6357 C   0  0  2  0  0  0  0  0  0  0  0  0
   -3.2435   -0.0318    0.0049 C   0  0  0  0  0  0  0  0  0  0  0  0
   -4.6465    0.0072    0.0708 C   0  0  0  0  0  0  0  0  0  0  0  0
   -5.3895   -1.0558    0.6036 C   0  0  0  0  0  0  0  0  0  0  0  0
   -4.6934   -2.1862    1.0792 C   0  0  0  0  0  0  0  0  0  0  0  0
   -3.3009   -2.2510    1.0258 C   0  0  0  0  0  0  0  0  0  0  0  0
   -2.5191   -1.1789    0.4861 C   0  0  0  0  0  0  0  0  0  0  0  0
   -1.8026    0.6551   -1.9889 C   0  0  0  0  0  0  0  0  0  0  0  0
    1.6150    1.5320   -1.2312 H   0  0  0  0  0  0  0  0  0  0  0  0
   -1.6148    1.5311    1.2318 H   0  0  0  0  0  0  0  0  0  0  0  0
    3.1513    1.9365    0.8488 H   0  0  0  0  0  0  0  0  0  0  0  0
    5.1629    0.9004    0.3221 H   0  0  0  0  0  0  0  0  0  0  0  0
    6.4882   -1.0064   -0.6456 H   0  0  0  0  0  0  0  0  0  0  0  0
    5.2548   -3.0349   -1.5039 H   0  0  0  0  0  0  0  0  0  0  0  0
    2.7513   -3.1289   -1.3950 H   0  0  0  0  0  0  0  0  0  0  0  0
    1.2731    3.6640   -0.2238 H   0  0  0  0  0  0  0  0  0  0  0  0
    0.8317    2.8373    1.3003 H   0  0  0  0  0  0  0  0  0  0  0  0
   -0.8319    2.8379   -1.2991 H   0  0  0  0  0  0  0  0  0  0  0  0
   -1.2734    3.6637    0.2255 H   0  0  0  0  0  0  0  0  0  0  0  0
   -3.1516    1.9367   -0.8476 H   0  0  0  0  0  0  0  0  0  0  0  0
   -5.1630    0.9006   -0.3199 H   0  0  0  0  0  0  0  0  0  0  0  0
   -6.4878   -1.0068    0.6475 H   0  0  0  0  0  0  0  0  0  0  0  0
   -5.2540   -3.0359    1.5037 H   0  0  0  0  0  0  0  0  0  0  0  0
   -2.7506   -3.1300    1.3930 H   0  0  0  0  0  0  0  0  0  0  0  0
  2 25  1  0  0  0  0
  3  9  1  0  0  0  0
  6 26  2  0  0  0  0
  7 17  1  0  0  0  0
  7 10  1  0  0  0  0
  8 28  1  0  0  0  0
  9  5  2  0  0  0  0
 10 29  1  1  0  0  0
 10  9  1  0  0  0  0
 11 10  1  0  0  0  0
 12 11  1  0  0  0  0
 12 30  1  0  0  0  0
 13 12  2  0  0  0  0
 14 15  2  0  0  0  0
 14 13  1  0  0  0  0
 15 16  1  0  0  0  0
 16  1  1  0  0  0  0
 16 11  2  0  0  0  0
 17 35  1  0  0  0  0
 18 17  1  0  0  0  0
 18 37  1  0  0  0  0
 18  8  1  0  0  0  0
 19 38  1  6  0  0  0
 19 20  1  0  0  0  0
 19  8  1  0  0  0  0
 20 21  2  0  0  0  0
 20 25  1  0  0  0  0
 21 22  1  0  0  0  0
 22 40  1  0  0  0  0
 22 23  2  0  0  0  0
 23 41  1  0  0  0  0
 24 23  1  0  0  0  0
 24 42  1  0  0  0  0
 25 24  2  0  0  0  0
 26  4  1  0  0  0  0
 26 19  1  0  0  0  0
 27  7  1  0  0  0  0
 31 13  1  0  0  0  0
 32 14  1  0  0  0  0
 33 15  1  0  0  0  0
 34 17  1  0  0  0  0
 36 18  1  0  0  0  0
 39 21  1  0  0  0  0
M  CHG  4   1  -1   2  -1   3  -1   4  -1
M  END
