1,3,5,7,9,10
 OpenBabel05122313063D

 32 31  0  0  0  0  0  0  0  0999 V2000
   -0.2676   -1.9071   -0.4035 O   0  5  0  0  0  0  0  0  0  0  0  0
   -1.4170   -3.5018    0.7100 O   0  0  0  0  0  0  0  0  0  0  0  0
   -1.4593    0.2869   -1.6842 O   0  5  0  0  0  0  0  0  0  0  0  0
   -3.4445    1.3626   -1.7491 O   0  0  0  0  0  0  0  0  0  0  0  0
    0.2676    1.9071   -0.4036 O   0  5  0  0  0  0  0  0  0  0  0  0
    1.4169    3.5018    0.7101 O   0  0  0  0  0  0  0  0  0  0  0  0
    1.4593   -0.2870   -1.6842 O   0  5  0  0  0  0  0  0  0  0  0  0
    3.4445   -1.3625   -1.7490 O   0  0  0  0  0  0  0  0  0  0  0  0
   -1.4103    0.1225    0.9032 N   0  0  0  0  0  0  0  0  0  0  0  0
    1.4103   -0.1225    0.9032 N   0  0  0  0  0  0  0  0  0  0  0  0
   -0.6492    0.4105    2.1413 C   0  0  0  0  0  0  0  0  0  0  0  0
   -1.2533    0.1789    3.0486 H   0  0  0  0  0  0  0  0  0  0  0  0
   -0.4218    1.4941    2.1591 H   0  0  0  0  0  0  0  0  0  0  0  0
    0.6492   -0.4104    2.1413 C   0  0  0  0  0  0  0  0  0  0  0  0
    0.4218   -1.4941    2.1592 H   0  0  0  0  0  0  0  0  0  0  0  0
    1.2533   -0.1789    3.0486 H   0  0  0  0  0  0  0  0  0  0  0  0
   -2.0918   -1.1973    0.9395 C   0  0  0  0  0  0  0  0  0  0  0  0
   -2.4541   -1.4351    1.9623 H   0  0  0  0  0  0  0  0  0  0  0  0
   -2.9763   -1.1476    0.2746 H   0  0  0  0  0  0  0  0  0  0  0  0
   -1.1999   -2.3318    0.3984 C   0  0  0  0  0  0  0  0  0  0  0  0
   -2.3107    1.1756    0.3808 C   0  0  0  0  0  0  0  0  0  0  0  0
   -3.3059    1.1608    0.8746 H   0  0  0  0  0  0  0  0  0  0  0  0
   -1.8296    2.1612    0.5242 H   0  0  0  0  0  0  0  0  0  0  0  0
   -2.4555    0.9421   -1.1540 C   0  0  0  0  0  0  0  0  0  0  0  0
    2.0918    1.1973    0.9395 C   0  0  0  0  0  0  0  0  0  0  0  0
    2.9763    1.1476    0.2746 H   0  0  0  0  0  0  0  0  0  0  0  0
    2.4541    1.4351    1.9623 H   0  0  0  0  0  0  0  0  0  0  0  0
    1.1999    2.3318    0.3983 C   0  0  0  0  0  0  0  0  0  0  0  0
    2.3108   -1.1756    0.3808 C   0  0  0  0  0  0  0  0  0  0  0  0
    1.8296   -2.1612    0.5243 H   0  0  0  0  0  0  0  0  0  0  0  0
    3.3059   -1.1607    0.8746 H   0  0  0  0  0  0  0  0  0  0  0  0
    2.4555   -0.9421   -1.1540 C   0  0  0  0  0  0  0  0  0  0  0  0
  1 20  1  0  0  0  0
  3 24  1  0  0  0  0
  4 24  2  0  0  0  0
  5 28  1  0  0  0  0
  7 32  1  0  0  0  0
  8 32  2  0  0  0  0
  9 17  1  0  0  0  0
  9 11  1  0  0  0  0
 10 25  1  0  0  0  0
 10 14  1  0  0  0  0
 11 14  1  0  0  0  0
 11 13  1  0  0  0  0
 11 12  1  0  0  0  0
 14 15  1  0  0  0  0
 14 16  1  0  0  0  0
 17 18  1  0  0  0  0
 19 17  1  0  0  0  0
 20  2  2  0  0  0  0
 20 17  1  0  0  0  0
 21 23  1  0  0  0  0
 21 22  1  0  0  0  0
 21  9  1  0  0  0  0
 24 21  1  0  0  0  0
 25 27  1  0  0  0  0
 26 25  1  0  0  0  0
 28  6  2  0  0  0  0
 28 25  1  0  0  0  0
 29 30  1  0  0  0  0
 29 31  1  0  0  0  0
 29 10  1  0  0  0  0
 32 29  1  0  0  0  0
M  CHG  4   1  -1   3  -1   5  -1   7  -1
M  END
