1,2,4,6,7,8
 OpenBabel05122313063D

 48 49  0  0  0  0  0  0  0  0999 V2000
    1.5203    1.4568    0.0618 O   0  5  0  0  0  0  0  0  0  0  0  0
    0.0051   -0.0566   -1.8813 O   0  5  0  0  0  0  0  0  0  0  0  0
    0.7645   -1.2506   -3.6441 O   0  0  0  0  0  0  0  0  0  0  0  0
   -0.0063   -0.0389    1.8782 O   0  5  0  0  0  0  0  0  0  0  0  0
   -0.7589   -1.2233    3.6503 O   0  0  0  0  0  0  0  0  0  0  0  0
   -1.5205    1.4569   -0.0787 O   0  5  0  0  0  0  0  0  0  0  0  0
    1.4730   -1.3437   -0.1120 N   0  0  0  0  0  0  0  0  0  0  0  0
   -1.4735   -1.3428    0.1206 N   0  0  0  0  0  0  0  0  0  0  0  0
    2.8537    1.3453    0.1588 C   0  0  0  0  0  0  0  0  0  0  0  0
    3.6640    2.4725   -0.0941 C   0  0  0  0  0  0  0  0  0  0  0  0
    3.1663    3.4201   -0.3451 H   0  0  0  0  0  0  0  0  0  0  0  0
    5.0586    2.3693   -0.0263 C   0  0  0  0  0  0  0  0  0  0  0  0
    5.6787    3.2566   -0.2246 H   0  0  0  0  0  0  0  0  0  0  0  0
    5.6633    1.1405    0.2836 C   0  0  0  0  0  0  0  0  0  0  0  0
    6.7585    1.0538    0.3305 H   0  0  0  0  0  0  0  0  0  0  0  0
    4.8581    0.0179    0.5290 C   0  0  0  0  0  0  0  0  0  0  0  0
    5.3270   -0.9495    0.7710 H   0  0  0  0  0  0  0  0  0  0  0  0
    3.4551    0.0958    0.4833 C   0  0  0  0  0  0  0  0  0  0  0  0
    2.6083   -1.1041    0.8293 C   0  0  0  0  0  0  0  0  0  0  0  0
    3.2548   -2.0100    0.8677 H   0  0  0  0  0  0  0  0  0  0  0  0
    2.1491   -0.9669    1.8301 H   0  0  0  0  0  0  0  0  0  0  0  0
    1.9082   -1.4341   -1.5207 C   0  0  0  0  0  0  0  0  0  0  0  0
    2.2098   -2.4654   -1.8041 H   0  0  0  0  0  0  0  0  0  0  0  0
    2.7952   -0.7810   -1.6556 H   0  0  0  0  0  0  0  0  0  0  0  0
    0.8247   -0.9146   -2.4767 C   0  0  0  0  0  0  0  0  0  0  0  0
    0.7037   -2.5401    0.3016 C   0  0  0  0  0  0  0  0  0  0  0  0
    0.6646   -2.5574    1.4083 H   0  0  0  0  0  0  0  0  0  0  0  0
    1.2339   -3.4684   -0.0126 H   0  0  0  0  0  0  0  0  0  0  0  0
   -0.7045   -2.5421   -0.2848 C   0  0  0  0  0  0  0  0  0  0  0  0
   -0.6657   -2.5671   -1.3913 H   0  0  0  0  0  0  0  0  0  0  0  0
   -1.2349   -3.4681    0.0360 H   0  0  0  0  0  0  0  0  0  0  0  0
   -1.9069   -1.4228    1.5306 C   0  0  0  0  0  0  0  0  0  0  0  0
   -2.2071   -2.4521    1.8223 H   0  0  0  0  0  0  0  0  0  0  0  0
   -2.7944   -0.7694    1.6617 H   0  0  0  0  0  0  0  0  0  0  0  0
   -0.8225   -0.8948    2.4809 C   0  0  0  0  0  0  0  0  0  0  0  0
   -2.6099   -1.1100   -0.8211 C   0  0  0  0  0  0  0  0  0  0  0  0
   -3.2563   -2.0162   -0.8526 H   0  0  0  0  0  0  0  0  0  0  0  0
   -2.1516   -0.9796   -1.8233 H   0  0  0  0  0  0  0  0  0  0  0  0
   -3.4564    0.0921   -0.4821 C   0  0  0  0  0  0  0  0  0  0  0  0
   -4.8595    0.0133   -0.5221 C   0  0  0  0  0  0  0  0  0  0  0  0
   -5.3289   -0.9560   -0.7549 H   0  0  0  0  0  0  0  0  0  0  0  0
   -5.6642    1.1376   -0.2823 C   0  0  0  0  0  0  0  0  0  0  0  0
   -6.7595    1.0501   -0.3246 H   0  0  0  0  0  0  0  0  0  0  0  0
   -5.0587    2.3689    0.0159 C   0  0  0  0  0  0  0  0  0  0  0  0
   -5.6785    3.2575    0.2097 H   0  0  0  0  0  0  0  0  0  0  0  0
   -3.6639    2.4731    0.0777 C   0  0  0  0  0  0  0  0  0  0  0  0
   -3.1658    3.4228    0.3196 H   0  0  0  0  0  0  0  0  0  0  0  0
   -2.8542    1.3443   -0.1695 C   0  0  0  0  0  0  0  0  0  0  0  0
  1  9  1  0  0  0  0
  3 25  2  0  0  0  0
  4 35  1  0  0  0  0
  7 26  1  0  0  0  0
  7 19  1  0  0  0  0
  8 32  1  0  0  0  0
  9 18  1  0  0  0  0
 10 12  1  0  0  0  0
 10  9  2  0  0  0  0
 11 10  1  0  0  0  0
 12 14  2  0  0  0  0
 13 12  1  0  0  0  0
 14 15  1  0  0  0  0
 14 16  1  0  0  0  0
 16 17  1  0  0  0  0
 18 16  2  0  0  0  0
 18 19  1  0  0  0  0
 19 20  1  0  0  0  0
 19 21  1  0  0  0  0
 22  7  1  0  0  0  0
 23 22  1  0  0  0  0
 24 22  1  0  0  0  0
 25  2  1  0  0  0  0
 25 22  1  0  0  0  0
 26 27  1  0  0  0  0
 28 26  1  0  0  0  0
 29 31  1  0  0  0  0
 29  8  1  0  0  0  0
 29 26  1  0  0  0  0
 30 29  1  0  0  0  0
 32 34  1  0  0  0  0
 32 33  1  0  0  0  0
 32 35  1  0  0  0  0
 35  5  2  0  0  0  0
 36 39  1  0  0  0  0
 36  8  1  0  0  0  0
 37 36  1  0  0  0  0
 38 36  1  0  0  0  0
 39 48  1  0  0  0  0
 40 39  2  0  0  0  0
 40 42  1  0  0  0  0
 41 40  1  0  0  0  0
 42 44  2  0  0  0  0
 43 42  1  0  0  0  0
 44 46  1  0  0  0  0
 44 45  1  0  0  0  0
 46 47  1  0  0  0  0
 48  6  1  0  0  0  0
 48 46  2  0  0  0  0
M  CHG  4   1  -1   2  -1   4  -1   6  -1
M  END
