1,2,3,5,7,9
 OpenBabel05122313063D

 41 40  0  0  0  0  0  0  0  0999 V2000
    1.4449    0.4103    1.0825 N   0  0  0  0  0  0  0  0  0  0  0  0
   -1.6071    0.9753    0.3672 N   0  0  0  0  0  0  0  0  0  0  0  0
   -1.3091   -0.6746   -1.8151 O   0  5  0  0  0  0  0  0  0  0  0  0
   -3.3054   -0.0476   -2.6620 O   0  0  0  0  0  0  0  0  0  0  0  0
    1.4311   -1.2326   -1.3825 O   0  5  0  0  0  0  0  0  0  0  0  0
    3.3011   -2.3941   -1.7325 O   0  0  0  0  0  0  0  0  0  0  0  0
    0.6334    1.5944   -1.2887 O   0  5  0  0  0  0  0  0  0  0  0  0
    1.7896    3.4730   -0.8122 O   0  0  0  0  0  0  0  0  0  0  0  0
   -0.4130   -1.8222    0.7372 O   0  5  0  0  0  0  0  0  0  0  0  0
   -1.7500   -3.1930    1.8858 O   0  0  0  0  0  0  0  0  0  0  0  0
    0.6978    0.8564    2.2827 C   0  0  0  0  0  0  0  0  0  0  0  0
    1.4305    1.0392    3.1055 H   0  0  0  0  0  0  0  0  0  0  0  0
    0.0880   -0.0172    2.5849 H   0  0  0  0  0  0  0  0  0  0  0  0
   -0.1697    2.1152    2.1610 C   0  0  0  0  0  0  0  0  0  0  0  0
   -0.7086    2.1826    3.1295 H   0  0  0  0  0  0  0  0  0  0  0  0
    0.4820    3.0124    2.1217 H   0  0  0  0  0  0  0  0  0  0  0  0
   -1.1621    2.2467    0.9879 C   0  0  0  0  0  0  0  0  0  0  0  0
   -2.0612    2.8127    1.3273 H   0  0  0  0  0  0  0  0  0  0  0  0
   -0.6999    2.8393    0.1802 H   0  0  0  0  0  0  0  0  0  0  0  0
   -2.3405    1.2771   -0.9000 C   0  0  0  0  0  0  0  0  0  0  0  0
   -1.7787    2.0839   -1.4104 H   0  0  0  0  0  0  0  0  0  0  0  0
   -3.3745    1.6245   -0.6866 H   0  0  0  0  0  0  0  0  0  0  0  0
   -2.3635    0.0868   -1.8827 C   0  0  0  0  0  0  0  0  0  0  0  0
    2.5803   -1.7106   -1.0027 C   0  0  0  0  0  0  0  0  0  0  0  0
    3.1435   -1.3661    0.3995 C   0  0  0  0  0  0  0  0  0  0  0  0
    3.5675   -2.3124    0.7917 H   0  0  0  0  0  0  0  0  0  0  0  0
    4.0304   -0.7207    0.2171 H   0  0  0  0  0  0  0  0  0  0  0  0
    2.2429   -0.7913    1.4796 C   0  0  0  0  0  0  0  0  0  0  0  0
    1.4932   -1.5496    1.7802 H   0  0  0  0  0  0  0  0  0  0  0  0
    2.8554   -0.5186    2.3733 H   0  0  0  0  0  0  0  0  0  0  0  0
    2.2604    1.4960    0.4788 C   0  0  0  0  0  0  0  0  0  0  0  0
    3.1263    1.0328   -0.0303 H   0  0  0  0  0  0  0  0  0  0  0  0
    2.6558    2.1872    1.2527 H   0  0  0  0  0  0  0  0  0  0  0  0
    1.5109    2.2895   -0.6178 C   0  0  0  0  0  0  0  0  0  0  0  0
   -1.5829   -2.1762    1.2103 C   0  0  0  0  0  0  0  0  0  0  0  0
   -2.7673   -1.2304    0.9421 C   0  0  0  0  0  0  0  0  0  0  0  0
   -3.0979   -1.3208   -0.1114 H   0  0  0  0  0  0  0  0  0  0  0  0
   -3.6029   -1.5887    1.5740 H   0  0  0  0  0  0  0  0  0  0  0  0
   -2.4831    0.2238    1.3104 C   0  0  0  0  0  0  0  0  0  0  0  0
   -3.4381    0.7943    1.3975 H   0  0  0  0  0  0  0  0  0  0  0  0
   -2.0053    0.2565    2.3103 H   0  0  0  0  0  0  0  0  0  0  0  0
  1 28  1  0  0  0  0
  1 11  1  0  0  0  0
  2 17  1  0  0  0  0
  2 39  1  0  0  0  0
  4 23  2  0  0  0  0
  5 24  1  0  0  0  0
  6 24  2  0  0  0  0
  7 34  1  0  0  0  0
  8 34  2  0  0  0  0
  9 35  1  0  0  0  0
 11 13  1  0  0  0  0
 11 12  1  0  0  0  0
 14 11  1  0  0  0  0
 14 15  1  0  0  0  0
 16 14  1  0  0  0  0
 17 18  1  0  0  0  0
 17 14  1  0  0  0  0
 19 17  1  0  0  0  0
 20 22  1  0  0  0  0
 20  2  1  0  0  0  0
 21 20  1  0  0  0  0
 23  3  1  0  0  0  0
 23 20  1  0  0  0  0
 24 25  1  0  0  0  0
 25 26  1  0  0  0  0
 25 28  1  0  0  0  0
 27 25  1  0  0  0  0
 28 29  1  0  0  0  0
 28 30  1  0  0  0  0
 31  1  1  0  0  0  0
 31 33  1  0  0  0  0
 32 31  1  0  0  0  0
 34 31  1  0  0  0  0
 35 10  2  0  0  0  0
 36 35  1  0  0  0  0
 36 39  1  0  0  0  0
 36 38  1  0  0  0  0
 37 36  1  0  0  0  0
 39 40  1  0  0  0  0
 39 41  1  0  0  0  0
M  CHG  4   3  -1   5  -1   7  -1   9  -1
M  END
