1,3,5,7,9,10
q = -2.0, confidence = 0.74

 38 37  0  0  0  0  0  0  0  0999 V2000
    0.2306   -0.4109    1.9036 O   0  5  0  0  0  0  0  0  0  0  0  0
    1.2921    0.9599    3.3484 O   0  0  0  0  0  0  0  0  0  0  0  0
    1.2944   -2.0044   -0.1527 O   0  5  0  0  0  0  0  0  0  0  0  0
    3.3167   -2.4941   -1.0252 O   0  0  0  0  0  0  0  0  0  0  0  0
   -1.2944   -2.0044    0.1526 O   0  5  0  0  0  0  0  0  0  0  0  0
   -3.3169   -2.4941    1.0248 O   0  0  0  0  0  0  0  0  0  0  0  0
   -0.2306   -0.4108   -1.9036 O   0  5  0  0  0  0  0  0  0  0  0  0
   -1.2918    0.9606   -3.3482 O   0  0  0  0  0  0  0  0  0  0  0  0
    1.6563    0.5719   -0.1980 N   0  0  0  0  0  0  0  0  0  0  0  0
   -1.6564    0.5719    0.1980 N   0  0  0  0  0  0  0  0  0  0  0  0
    2.2593    0.5729    1.1630 C   0  0  0  0  0  0  0  0  0  0  0  0
    1.1899    0.3972    2.2571 C   0  0  0  0  0  0  0  0  0  0  0  0
    2.4900   -0.2257   -1.1380 C   0  0  0  0  0  0  0  0  0  0  0  0
    2.4081   -1.7093   -0.7579 C   0  0  0  0  0  0  0  0  0  0  0  0
    1.5274    1.9379   -0.7594 C   0  0  0  0  0  0  0  0  0  0  0  0
    0.7633    2.9692    0.0668 C   0  0  0  0  0  0  0  0  0  0  0  0
   -0.7633    2.9693   -0.0664 C   0  0  0  0  0  0  0  0  0  0  0  0
   -1.5274    1.9379    0.7596 C   0  0  0  0  0  0  0  0  0  0  0  0
   -2.4901   -0.2257    1.1379 C   0  0  0  0  0  0  0  0  0  0  0  0
   -2.4082   -1.7093    0.7577 C   0  0  0  0  0  0  0  0  0  0  0  0
   -2.2593    0.5731   -1.1630 C   0  0  0  0  0  0  0  0  0  0  0  0
   -1.1898    0.3975   -2.2570 C   0  0  0  0  0  0  0  0  0  0  0  0
    2.8669    1.4842    1.3412 H   0  0  0  0  0  0  0  0  0  0  0  0
    2.9346   -0.3022    1.2441 H   0  0  0  0  0  0  0  0  0  0  0  0
    3.5434    0.1314   -1.1379 H   0  0  0  0  0  0  0  0  0  0  0  0
    2.0554   -0.1120   -2.1500 H   0  0  0  0  0  0  0  0  0  0  0  0
    1.0635    1.8318   -1.7612 H   0  0  0  0  0  0  0  0  0  0  0  0
    2.5654    2.3147   -0.9231 H   0  0  0  0  0  0  0  0  0  0  0  0
   -1.0500    2.9075   -1.1388 H   0  0  0  0  0  0  0  0  0  0  0  0
   -1.1273    3.9594    0.2809 H   0  0  0  0  0  0  0  0  0  0  0  0
   -1.0635    1.8316    1.7614 H   0  0  0  0  0  0  0  0  0  0  0  0
   -2.5654    2.3146    0.9234 H   0  0  0  0  0  0  0  0  0  0  0  0
   -2.0556   -0.1121    2.1499 H   0  0  0  0  0  0  0  0  0  0  0  0
   -3.5435    0.1313    1.1378 H   0  0  0  0  0  0  0  0  0  0  0  0
    1.1274    3.9594   -0.2804 H   0  0  0  0  0  0  0  0  0  0  0  0
    1.0501    2.9073    1.1391 H   0  0  0  0  0  0  0  0  0  0  0  0
   -2.9346   -0.3020   -1.2443 H   0  0  0  0  0  0  0  0  0  0  0  0
   -2.8668    1.4845   -1.3411 H   0  0  0  0  0  0  0  0  0  0  0  0
  1 12  1  0  0  0  0
  4 14  2  0  0  0  0
  5 20  1  0  0  0  0
  8 22  2  0  0  0  0
  9 11  1  0  0  0  0
 10 18  1  0  0  0  0
 10 19  1  0  0  0  0
 11 24  1  0  0  0  0
 11 23  1  0  0  0  0
 11 12  1  0  0  0  0
 12  2  2  0  0  0  0
 13 25  1  0  0  0  0
 13 14  1  0  0  0  0
 13  9  1  0  0  0  0
 14  3  1  0  0  0  0
 15  9  1  0  0  0  0
 15 16  1  0  0  0  0
 16 36  1  0  0  0  0
 17 16  1  0  0  0  0
 17 30  1  0  0  0  0
 17 18  1  0  0  0  0
 18 32  1  0  0  0  0
 18 31  1  0  0  0  0
 19 33  1  0  0  0  0
 20  6  2  0  0  0  0
 20 19  1  0  0  0  0
 21 10  1  0  0  0  0
 22  7  1  0  0  0  0
 22 21  1  0  0  0  0
 26 13  1  0  0  0  0
 27 15  1  0  0  0  0
 28 15  1  0  0  0  0
 29 17  1  0  0  0  0
 34 19  1  0  0  0  0
 35 16  1  0  0  0  0
 37 21  1  0  0  0  0
 38 21  1  0  0  0  0
M  CHG  4   1  -1   3  -1   5  -1   7  -1
M  END
