1,2,3,4
q = -2.0, confidence = 0.856

 38 40  0  0  1  0  0  0  0  0999 V2000
    1.3676   -1.8239   -0.0011 O   0  0  0  0  0  1  0  0  0  0  0  0
   -1.3676   -1.8239   -0.0005 O   0  0  0  0  0  1  0  0  0  0  0  0
    1.3153    1.1353    0.0002 N   0  0  0  0  0  2  0  0  0  0  0  0
   -1.3153    1.1353    0.0004 N   0  0  0  0  0  2  0  0  0  0  0  0
    2.6524   -1.6186   -0.0006 C   0  0  2  0  0  3  0  0  0  0  0  0
    3.4947   -2.7774   -0.0018 C   0  0  0  0  0  0  0  0  0  0  0  0
    2.9864   -3.7521   -0.0035 H   0  0  0  0  0  0  0  0  0  0  0  0
    4.8761   -2.6754   -0.0007 C   0  0  0  0  0  0  0  0  0  0  0  0
    5.4853   -3.5928   -0.0016 H   0  0  0  0  0  0  0  0  0  0  0  0
    5.5162   -1.4061    0.0016 C   0  0  0  0  0  0  0  0  0  0  0  0
    6.6131   -1.3352    0.0025 H   0  0  0  0  0  0  0  0  0  0  0  0
    4.7368   -0.2639    0.0026 C   0  0  0  0  0  0  0  0  0  0  0  0
    5.2154    0.7287    0.0043 H   0  0  0  0  0  0  0  0  0  0  0  0
    3.3037   -0.3153    0.0014 C   0  0  0  0  0  0  0  0  0  0  0  0
    2.6250    0.9371    0.0020 C   0  0  0  0  0  0  0  0  0  0  0  0
    3.2729    1.8309    0.0041 H   0  0  0  0  0  0  0  0  0  0  0  0
    0.7135    2.4163   -0.0001 C   0  0  0  0  0  0  0  0  0  0  0  0
   -0.7135    2.4163    0.0002 C   0  0  0  0  0  0  0  0  0  0  0  0
   -1.4078    3.6426   -0.0002 C   0  0  0  0  0  0  0  0  0  0  0  0
   -2.5059    3.6606   -0.0001 H   0  0  0  0  0  0  0  0  0  0  0  0
   -0.7036    4.8508   -0.0009 C   0  0  0  0  0  0  0  0  0  0  0  0
   -1.2567    5.8014   -0.0012 H   0  0  0  0  0  0  0  0  0  0  0  0
    0.7036    4.8508   -0.0015 C   0  0  0  0  0  0  0  0  0  0  0  0
    1.2567    5.8014   -0.0024 H   0  0  0  0  0  0  0  0  0  0  0  0
    1.4078    3.6426   -0.0012 C   0  0  0  0  0  0  0  0  0  0  0  0
    2.5059    3.6606   -0.0023 H   0  0  0  0  0  0  0  0  0  0  0  0
   -2.6524   -1.6186   -0.0002 C   0  0  1  0  0  3  0  0  0  0  0  0
   -3.4947   -2.7774   -0.0009 C   0  0  0  0  0  0  0  0  0  0  0  0
   -2.9864   -3.7521   -0.0019 H   0  0  0  0  0  0  0  0  0  0  0  0
   -4.8761   -2.6754   -0.0002 C   0  0  0  0  0  0  0  0  0  0  0  0
   -5.4853   -3.5928   -0.0007 H   0  0  0  0  0  0  0  0  0  0  0  0
   -5.5162   -1.4061    0.0012 C   0  0  0  0  0  0  0  0  0  0  0  0
   -6.6131   -1.3352    0.0017 H   0  0  0  0  0  0  0  0  0  0  0  0
   -4.7368   -0.2639    0.0018 C   0  0  0  0  0  0  0  0  0  0  0  0
   -5.2154    0.7287    0.0028 H   0  0  0  0  0  0  0  0  0  0  0  0
   -3.3037   -0.3153    0.0010 C   0  0  0  0  0  0  0  0  0  0  0  0
   -2.6250    0.9371    0.0014 C   0  0  0  0  0  0  0  0  0  0  0  0
   -3.2729    1.8309    0.0025 H   0  0  0  0  0  0  0  0  0  0  0  0
  3 15  1  0  0  0  0
  4 37  1  0  0  0  0
  5  1  1  1  0  0  0
  5 14  1  0  0  0  0
  6  8  2  0  0  0  0
  6  5  1  0  0  0  0
  7  6  1  0  0  0  0
  8 10  1  0  0  0  0
  9  8  1  0  0  0  0
 10 11  1  0  0  0  0
 10 12  2  0  0  0  0
 12 13  1  0  0  0  0
 14 15  2  0  0  0  0
 14 12  1  0  0  0  0
 15 16  1  0  0  0  0
 17 18  1  0  0  0  0
 17  3  1  0  0  0  0
 18  4  1  0  0  0  0
 19 20  1  0  0  0  0
 19 18  2  0  0  0  0
 21 19  1  0  0  0  0
 22 21  1  0  0  0  0
 23 25  1  0  0  0  0
 23 21  2  0  0  0  0
 24 23  1  0  0  0  0
 25 17  2  0  0  0  0
 26 25  1  0  0  0  0
 27  2  1  1  0  0  0
 27 36  1  0  0  0  0
 28 30  2  0  0  0  0
 28 27  1  0  0  0  0
 29 28  1  0  0  0  0
 30 32  1  0  0  0  0
 31 30  1  0  0  0  0
 32 33  1  0  0  0  0
 32 34  2  0  0  0  0
 34 35  1  0  0  0  0
 36 37  2  0  0  0  0
 36 34  1  0  0  0  0
 37 38  1  0  0  0  0
M  END
