3,4,7,8
q = -3.0, confidence = 0.34

 39 41  0  0  1  0  0  0  0  0999 V2000
    5.5240   -1.3897    0.1308 Cl  0  0  0  0  0  0  0  0  0  0  0  0
    5.3812    1.7968   -0.0256 Cl  0  0  0  0  0  0  0  0  0  0  0  0
   -2.5733   -1.3278   -0.2796 O   0  5  0  0  0  0  0  0  0  0  0  0
   -2.6763    1.1742   -0.1246 O   0  5  0  0  0  0  0  0  0  0  0  0
    1.1561   -3.3310   -0.7400 O   0  0  0  0  0  0  0  0  0  0  0  0
    0.9098    3.4441   -0.6007 O   0  0  0  0  0  0  0  0  0  0  0  0
    0.3085   -1.3298   -0.0213 N   0  0  0  0  0  2  0  0  0  0  0  0
    0.1812    1.3140   -0.0908 N   0  0  0  0  0  2  0  0  0  0  0  0
   -2.4313   -2.6352   -0.2289 C   0  0  0  0  0  0  0  0  0  0  0  0
   -3.6181   -3.4219   -0.2590 C   0  0  0  0  0  0  0  0  0  0  0  0
   -3.5668   -4.8104   -0.2194 C   0  0  0  0  0  0  0  0  0  0  0  0
   -2.3254   -5.4819   -0.1413 C   0  0  0  0  0  0  0  0  0  0  0  0
   -1.1521   -4.7369   -0.1347 C   0  0  0  0  0  0  0  0  0  0  0  0
   -1.1655   -3.3121   -0.1969 C   0  0  0  0  0  0  0  0  0  0  0  0
    0.1059   -2.6109   -0.3101 C   0  0  2  0  0  3  0  0  0  0  0  0
    1.5651   -0.6673   -0.0606 C   0  0  0  0  0  0  0  0  0  0  0  0
    2.8169   -1.3081    0.0172 C   0  0  0  0  0  0  0  0  0  0  0  0
    4.0001   -0.5630    0.0308 C   0  0  0  0  0  0  0  0  0  0  0  0
    3.9321    0.8447   -0.0324 C   0  0  0  0  0  0  0  0  0  0  0  0
    2.6933    1.4941   -0.0919 C   0  0  0  0  0  0  0  0  0  0  0  0
    1.4861    0.7606   -0.0963 C   0  0  0  0  0  0  0  0  0  0  0  0
   -0.0278    2.6940   -0.3152 C   0  0  0  0  0  0  0  0  0  0  0  0
   -1.4059    3.2584   -0.2093 C   0  0  0  0  0  0  0  0  0  0  0  0
   -1.4906    4.6711   -0.2556 C   0  0  0  0  0  0  0  0  0  0  0  0
   -2.7160    5.3358   -0.2294 C   0  0  0  0  0  0  0  0  0  0  0  0
   -3.9070    4.5849   -0.1739 C   0  0  0  0  0  0  0  0  0  0  0  0
   -3.8578    3.1917   -0.1371 C   0  0  0  0  0  0  0  0  0  0  0  0
   -2.6133    2.5122   -0.1458 C   0  0  0  0  0  0  0  0  0  0  0  0
   -4.5714   -2.8771   -0.3075 H   0  0  0  0  0  0  0  0  0  0  0  0
   -4.5031   -5.3888   -0.2329 H   0  0  0  0  0  0  0  0  0  0  0  0
   -2.2848   -6.5775   -0.0655 H   0  0  0  0  0  0  0  0  0  0  0  0
   -0.1953   -5.2728   -0.0122 H   0  0  0  0  0  0  0  0  0  0  0  0
    2.8922   -2.3953    0.0846 H   0  0  0  0  0  0  0  0  0  0  0  0
    2.6541    2.5847   -0.1408 H   0  0  0  0  0  0  0  0  0  0  0  0
   -0.5413    5.2217   -0.3213 H   0  0  0  0  0  0  0  0  0  0  0  0
   -2.7500    6.4346   -0.2563 H   0  0  0  0  0  0  0  0  0  0  0  0
   -4.8834    5.0934   -0.1578 H   0  0  0  0  0  0  0  0  0  0  0  0
   -4.7692    2.5786   -0.0958 H   0  0  0  0  0  0  0  0  0  0  0  0
    0.8128   -4.1881   -1.0681 H   0  0  0  0  0  0  0  0  0  0  0  0
  3  9  1  0  0  0  0
  6 22  2  0  0  0  0
  9 14  1  0  0  0  0
 10  9  2  0  0  0  0
 10 11  1  0  0  0  0
 11 12  2  0  0  0  0
 12 13  1  0  0  0  0
 12 31  1  0  0  0  0
 13 32  1  0  0  0  0
 14 13  2  0  0  0  0
 15  5  1  1  0  0  0
 15 14  1  0  0  0  0
 15  7  1  0  0  0  0
 16  7  1  0  0  0  0
 16 17  1  0  0  0  0
 17 18  2  0  0  0  0
 17 33  1  0  0  0  0
 18  1  1  0  0  0  0
 19  2  1  0  0  0  0
 19 18  1  0  0  0  0
 20 19  2  0  0  0  0
 21 20  1  0  0  0  0
 21  8  1  0  0  0  0
 21 16  2  0  0  0  0
 22 23  1  0  0  0  0
 22  8  1  0  0  0  0
 23 28  1  0  0  0  0
 24 25  1  0  0  0  0
 24 23  2  0  0  0  0
 25 26  2  0  0  0  0
 26 37  1  0  0  0  0
 26 27  1  0  0  0  0
 27 38  1  0  0  0  0
 28 27  2  0  0  0  0
 28  4  1  0  0  0  0
 29 10  1  0  0  0  0
 30 11  1  0  0  0  0
 34 20  1  0  0  0  0
 35 24  1  0  0  0  0
 36 25  1  0  0  0  0
 39  5  1  0  0  0  0
M  CHG  2   3  -1   4  -1
M  END
