1,2,3,4
q = -2.0, confidence = 0.85

 58 59  0  0  1  0  0  0  0  0999 V2000
    1.6706   -0.8375    1.1167 O   0  5  0  0  0  0  0  0  0  0  0  0
   -1.6703   -0.8415   -1.1144 O   0  0  0  0  0  1  0  0  0  0  0  0
    1.0650   -0.6123   -1.7245 N   0  0  0  0  0  2  0  0  0  0  0  0
   -1.0648   -0.6072    1.7261 N   0  0  0  0  0  2  0  0  0  0  0  0
    3.2666   -1.0920   -0.7092 C   0  0  0  0  0  0  0  0  0  0  0  0
    2.8774   -1.0770    0.6796 C   0  0  0  0  0  0  0  0  0  0  0  0
    3.8977   -1.3204    1.6519 C   0  0  0  0  0  0  0  0  0  0  0  0
    5.2113   -1.5766    1.2783 C   0  0  0  0  0  0  0  0  0  0  0  0
    5.5927   -1.5944   -0.0855 C   0  0  0  0  0  0  0  0  0  0  0  0
    4.6262   -1.3465   -1.0510 C   0  0  0  0  0  3  0  0  0  0  0  0
    2.3582   -0.7896   -1.7799 C   0  0  0  0  0  0  0  0  0  0  0  0
   -3.2663   -1.0900    0.7122 C   0  0  0  0  0  0  0  0  0  0  0  0
   -2.8771   -1.0796   -0.6766 C   0  0  1  0  0  3  0  0  0  0  0  0
   -3.8972   -1.3265   -1.6481 C   0  0  0  0  0  0  0  0  0  0  0  0
   -5.2109   -1.5814   -1.2739 C   0  0  0  0  0  0  0  0  0  0  0  0
   -5.5924   -1.5946    0.0900 C   0  0  0  0  0  0  0  0  0  0  0  0
   -4.6260   -1.3434    1.0547 C   0  0  0  0  0  0  0  0  0  0  0  0
   -2.3581   -0.7841    1.7819 C   0  0  0  0  0  0  0  0  0  0  0  0
    0.3744   -0.1426   -2.9286 C   0  0  0  0  0  0  0  0  0  0  0  0
   -0.1695    1.2840   -2.7572 C   0  0  0  0  0  0  0  0  0  0  0  0
    0.8701    2.3378   -2.3661 C   0  0  0  0  0  0  0  0  0  0  0  0
    0.2390    3.6842   -1.9720 C   0  0  0  0  0  0  0  0  0  0  0  0
   -0.4745    3.6885   -0.6085 C   0  0  0  0  0  0  0  0  0  0  0  0
    0.4734    3.6912    0.5984 C   0  0  0  0  0  0  0  0  0  0  0  0
   -0.2401    3.6905    1.9620 C   0  0  0  0  0  0  0  0  0  0  0  0
   -0.8707    2.3450    2.3600 C   0  0  0  0  0  0  0  0  0  0  0  0
    0.1692    1.2924    2.7533 C   0  0  0  0  0  0  0  0  0  0  0  0
   -0.3743   -0.1338    2.9288 C   0  0  0  0  0  0  0  0  0  0  0  0
    3.5962   -1.3028    2.7092 H   0  0  0  0  0  0  0  0  0  0  0  0
    5.9649   -1.7669    2.0588 H   0  0  0  0  0  0  0  0  0  0  0  0
    6.6345   -1.7950   -0.3728 H   0  0  0  0  0  0  0  0  0  0  0  0
    4.9008   -1.3430   -2.1183 H   0  0  0  0  0  0  0  0  0  0  0  0
    2.8298   -0.6733   -2.7776 H   0  0  0  0  0  0  0  0  0  0  0  0
   -3.5957   -1.3124   -2.7055 H   0  0  0  0  0  0  0  0  0  0  0  0
   -5.9645   -1.7744   -2.0537 H   0  0  0  0  0  0  0  0  0  0  0  0
   -6.6343   -1.7942    0.3779 H   0  0  0  0  0  0  0  0  0  0  0  0
   -4.9007   -1.3363    2.1220 H   0  0  0  0  0  0  0  0  0  0  0  0
   -2.8296   -0.6647    2.7793 H   0  0  0  0  0  0  0  0  0  0  0  0
   -0.4747   -0.8237   -3.1294 H   0  0  0  0  0  0  0  0  0  0  0  0
    1.0831   -0.1917   -3.7851 H   0  0  0  0  0  0  0  0  0  0  0  0
   -0.9750    1.2405   -1.9973 H   0  0  0  0  0  0  0  0  0  0  0  0
   -0.6620    1.5731   -3.7113 H   0  0  0  0  0  0  0  0  0  0  0  0
    1.5831    2.4896   -3.2062 H   0  0  0  0  0  0  0  0  0  0  0  0
    1.4802    1.9590   -1.5177 H   0  0  0  0  0  0  0  0  0  0  0  0
    1.0250    4.4710   -1.9642 H   0  0  0  0  0  0  0  0  0  0  0  0
   -0.4816    3.9861   -2.7637 H   0  0  0  0  0  0  0  0  0  0  0  0
   -1.1631    2.8171   -0.5462 H   0  0  0  0  0  0  0  0  0  0  0  0
   -1.1270    4.5867   -0.5440 H   0  0  0  0  0  0  0  0  0  0  0  0
    1.1245    4.5903    0.5310 H   0  0  0  0  0  0  0  0  0  0  0  0
    1.1633    2.8207    0.5390 H   0  0  0  0  0  0  0  0  0  0  0  0
   -1.0264    4.4770    1.9520 H   0  0  0  0  0  0  0  0  0  0  0  0
    0.4805    3.9949    2.7528 H   0  0  0  0  0  0  0  0  0  0  0  0
   -1.5833    2.4989    3.2000 H   0  0  0  0  0  0  0  0  0  0  0  0
   -1.4812    1.9639    1.5128 H   0  0  0  0  0  0  0  0  0  0  0  0
    0.6623    1.5841    3.7063 H   0  0  0  0  0  0  0  0  0  0  0  0
    0.9743    1.2470    1.9931 H   0  0  0  0  0  0  0  0  0  0  0  0
    0.4750   -0.8141    3.1315 H   0  0  0  0  0  0  0  0  0  0  0  0
   -1.0829   -0.1806    3.7855 H   0  0  0  0  0  0  0  0  0  0  0  0
  4 18  1  0  0  0  0
  4 28  1  0  0  0  0
  5  6  1  0  0  0  0
  6  1  1  0  0  0  0
  6  7  2  0  0  0  0
  7 29  1  0  0  0  0
  8  7  1  0  0  0  0
  8 30  1  0  0  0  0
  9  8  2  0  0  0  0
 10  5  1  0  0  0  0
 10  9  1  0  0  0  0
 11  3  1  0  0  0  0
 11  5  2  0  0  0  0
 12 17  1  0  0  0  0
 12 18  2  0  0  0  0
 13  2  1  6  0  0  0
 13 12  1  0  0  0  0
 14 15  2  0  0  0  0
 14 13  1  0  0  0  0
 15 16  1  0  0  0  0
 16 36  1  0  0  0  0
 16 17  2  0  0  0  0
 17 37  1  0  0  0  0
 18 38  1  0  0  0  0
 19 20  1  0  0  0  0
 19  3  1  0  0  0  0
 20 21  1  0  0  0  0
 20 41  1  0  0  0  0
 21 22  1  0  0  0  0
 21 44  1  0  0  0  0
 22 45  1  0  0  0  0
 22 23  1  0  0  0  0
 23 47  1  0  0  0  0
 23 48  1  0  0  0  0
 23 24  1  0  0  0  0
 24 25  1  0  0  0  0
 25 26  1  0  0  0  0
 25 52  1  0  0  0  0
 26 27  1  0  0  0  0
 26 53  1  0  0  0  0
 27 28  1  0  0  0  0
 27 55  1  0  0  0  0
 28 57  1  0  0  0  0
 28 58  1  0  0  0  0
 31  9  1  0  0  0  0
 32 10  1  0  0  0  0
 33 11  1  0  0  0  0
 34 14  1  0  0  0  0
 35 15  1  0  0  0  0
 39 19  1  0  0  0  0
 40 19  1  0  0  0  0
 42 20  1  0  0  0  0
 43 21  1  0  0  0  0
 46 22  1  0  0  0  0
 49 24  1  0  0  0  0
 50 24  1  0  0  0  0
 51 25  1  0  0  0  0
 54 26  1  0  0  0  0
 56 27  1  0  0  0  0
M  CHG  1   1  -1
M  END
