1,2,3,4
q = -2.0, confidence = 0.85

 64 65  0  0  0  0  0  0  0  0999 V2000
   -1.6737    1.1059   -1.0611 O   0  5  0  0  0  0  0  0  0  0  0  0
    1.6735   -1.1062   -1.0612 O   0  5  0  0  0  0  0  0  0  0  0  0
   -1.0534   -1.7465   -0.9881 N   0  0  0  0  0  2  0  0  0  0  0  0
    1.0533    1.7462   -0.9886 N   0  0  0  0  0  2  0  0  0  0  0  0
   -3.3002   -0.7052   -1.0650 C   0  0  0  0  0  0  0  0  0  0  0  0
   -2.9071    0.6809   -1.0695 C   0  0  0  0  0  0  0  0  0  0  0  0
   -3.9465    1.6633   -1.0851 C   0  0  0  0  0  0  0  0  0  0  0  0
   -5.2874    1.2997   -1.1033 C   0  0  0  0  0  0  0  0  0  0  0  0
   -5.6747   -0.0628   -1.1045 C   0  0  0  0  0  0  0  0  0  0  0  0
   -4.6861   -1.0373   -1.0850 C   0  0  0  0  0  3  0  0  0  0  0  0
   -2.3604   -1.7891   -1.0220 C   0  0  0  0  0  0  0  0  0  0  0  0
    3.3001    0.7048   -1.0654 C   0  0  0  0  0  0  0  0  0  0  0  0
    2.9070   -0.6813   -1.0696 C   0  0  0  0  0  0  0  0  0  0  0  0
    3.9464   -1.6636   -1.0850 C   0  0  0  0  0  0  0  0  0  0  0  0
    5.2873   -1.3000   -1.1032 C   0  0  0  0  0  0  0  0  0  0  0  0
    5.6745    0.0625   -1.1047 C   0  0  0  0  0  0  0  0  0  0  0  0
    4.6860    1.0370   -1.0854 C   0  0  0  0  0  3  0  0  0  0  0  0
    2.3602    1.7887   -1.0226 C   0  0  0  0  0  0  0  0  0  0  0  0
   -0.3386   -3.0218   -0.8563 C   0  0  0  0  0  0  0  0  0  0  0  0
    0.2124   -3.2337    0.5597 C   0  0  0  0  0  0  0  0  0  0  0  0
   -0.8444   -3.3186    1.6637 C   0  0  0  0  0  0  0  0  0  0  0  0
   -0.2574   -3.2231    3.0826 C   0  0  0  0  0  0  0  0  0  0  0  0
    0.4779   -1.9066    3.3838 C   0  0  0  0  0  0  0  0  0  0  0  0
   -0.4001   -0.6520    3.3204 C   0  0  0  0  0  0  0  0  0  0  0  0
    0.4005    0.6529    3.3202 C   0  0  0  0  0  0  0  0  0  0  0  0
   -0.4774    1.9076    3.3834 C   0  0  0  0  0  0  0  0  0  0  0  0
    0.2577    3.2240    3.0818 C   0  0  0  0  0  0  0  0  0  0  0  0
    0.8446    3.3192    1.6627 C   0  0  0  0  0  0  0  0  0  0  0  0
   -0.2123    3.2339    0.5589 C   0  0  0  0  0  0  0  0  0  0  0  0
    0.3385    3.0216   -0.8571 C   0  0  0  0  0  0  0  0  0  0  0  0
   -3.6389    2.7191   -1.0848 H   0  0  0  0  0  0  0  0  0  0  0  0
   -6.0581    2.0865   -1.1164 H   0  0  0  0  0  0  0  0  0  0  0  0
   -6.7376   -0.3422   -1.1185 H   0  0  0  0  0  0  0  0  0  0  0  0
   -4.9628   -2.1041   -1.0812 H   0  0  0  0  0  0  0  0  0  0  0  0
   -2.8186   -2.7992   -1.0068 H   0  0  0  0  0  0  0  0  0  0  0  0
    3.6388   -2.7194   -1.0845 H   0  0  0  0  0  0  0  0  0  0  0  0
    6.0580   -2.0868   -1.1162 H   0  0  0  0  0  0  0  0  0  0  0  0
    6.7375    0.3419   -1.1188 H   0  0  0  0  0  0  0  0  0  0  0  0
    4.9627    2.1038   -1.0818 H   0  0  0  0  0  0  0  0  0  0  0  0
    2.8185    2.7989   -1.0076 H   0  0  0  0  0  0  0  0  0  0  0  0
    0.5059   -3.0167   -1.5702 H   0  0  0  0  0  0  0  0  0  0  0  0
   -1.0326   -3.8463   -1.1331 H   0  0  0  0  0  0  0  0  0  0  0  0
    0.9162   -2.4023    0.7576 H   0  0  0  0  0  0  0  0  0  0  0  0
    0.8285   -4.1595    0.5491 H   0  0  0  0  0  0  0  0  0  0  0  0
   -1.4189   -4.2659    1.5645 H   0  0  0  0  0  0  0  0  0  0  0  0
   -1.5875   -2.5039    1.5260 H   0  0  0  0  0  0  0  0  0  0  0  0
   -1.0780   -3.3604    3.8206 H   0  0  0  0  0  0  0  0  0  0  0  0
    0.4430   -4.0719    3.2450 H   0  0  0  0  0  0  0  0  0  0  0  0
    0.9464   -1.9743    4.3897 H   0  0  0  0  0  0  0  0  0  0  0  0
    1.3272   -1.7852    2.6758 H   0  0  0  0  0  0  0  0  0  0  0  0
   -1.1243   -0.6600    4.1663 H   0  0  0  0  0  0  0  0  0  0  0  0
   -1.0173   -0.6678    2.3949 H   0  0  0  0  0  0  0  0  0  0  0  0
    1.0175    0.6685    2.3945 H   0  0  0  0  0  0  0  0  0  0  0  0
    1.1249    0.6612    4.1658 H   0  0  0  0  0  0  0  0  0  0  0  0
   -1.3269    1.7861    2.6757 H   0  0  0  0  0  0  0  0  0  0  0  0
   -0.9457    1.9755    4.3895 H   0  0  0  0  0  0  0  0  0  0  0  0
    1.0785    3.3615    3.8197 H   0  0  0  0  0  0  0  0  0  0  0  0
   -0.4425    4.0729    3.2441 H   0  0  0  0  0  0  0  0  0  0  0  0
    1.4190    4.2665    1.5632 H   0  0  0  0  0  0  0  0  0  0  0  0
    1.5878    2.5044    1.5252 H   0  0  0  0  0  0  0  0  0  0  0  0
   -0.8284    4.1596    0.5481 H   0  0  0  0  0  0  0  0  0  0  0  0
   -0.9160    2.4025    0.7572 H   0  0  0  0  0  0  0  0  0  0  0  0
   -0.5061    3.0163   -1.5708 H   0  0  0  0  0  0  0  0  0  0  0  0
    1.0324    3.8459   -1.1342 H   0  0  0  0  0  0  0  0  0  0  0  0
  3 19  1  0  0  0  0
  4 30  1  0  0  0  0
  5 11  2  0  0  0  0
  6  5  1  0  0  0  0
  6  1  1  0  0  0  0
  7 31  1  0  0  0  0
  7  6  2  0  0  0  0
  8  7  1  0  0  0  0
  9  8  2  0  0  0  0
  9 10  1  0  0  0  0
 10 34  1  0  0  0  0
 10  5  1  0  0  0  0
 11 35  1  0  0  0  0
 11  3  1  0  0  0  0
 12 18  2  0  0  0  0
 13 12  1  0  0  0  0
 13  2  1  0  0  0  0
 14 36  1  0  0  0  0
 14 13  2  0  0  0  0
 15 14  1  0  0  0  0
 16 15  2  0  0  0  0
 16 17  1  0  0  0  0
 17 39  1  0  0  0  0
 17 12  1  0  0  0  0
 18 40  1  0  0  0  0
 18  4  1  0  0  0  0
 19 20  1  0  0  0  0
 20 43  1  0  0  0  0
 20 21  1  0  0  0  0
 21 22  1  0  0  0  0
 22 48  1  0  0  0  0
 22 23  1  0  0  0  0
 22 47  1  0  0  0  0
 23 49  1  0  0  0  0
 24 23  1  0  0  0  0
 24 51  1  0  0  0  0
 25 24  1  0  0  0  0
 25 26  1  0  0  0  0
 25 54  1  0  0  0  0
 26 56  1  0  0  0  0
 27 58  1  0  0  0  0
 27 26  1  0  0  0  0
 27 57  1  0  0  0  0
 28 27  1  0  0  0  0
 29 62  1  0  0  0  0
 29 28  1  0  0  0  0
 30 29  1  0  0  0  0
 32  8  1  0  0  0  0
 33  9  1  0  0  0  0
 37 15  1  0  0  0  0
 38 16  1  0  0  0  0
 41 19  1  0  0  0  0
 42 19  1  0  0  0  0
 44 20  1  0  0  0  0
 45 21  1  0  0  0  0
 46 21  1  0  0  0  0
 50 23  1  0  0  0  0
 52 24  1  0  0  0  0
 53 25  1  0  0  0  0
 55 26  1  0  0  0  0
 59 28  1  0  0  0  0
 60 28  1  0  0  0  0
 61 29  1  0  0  0  0
 63 30  1  0  0  0  0
 64 30  1  0  0  0  0
M  CHG  2   1  -1   2  -1
M  END
