1,2,3,4
q = -2.0, confidence = 0.866

 55 56  0  0  1  0  0  0  0  0999 V2000
   -1.6676   -0.6509    1.0898 O   0  5  0  0  0  0  0  0  0  0  0  0
    1.6000   -0.4195   -1.2562 O   0  0  0  0  0  1  0  0  0  0  0  0
   -1.1841   -0.1375   -1.7111 N   0  0  0  0  0  2  0  0  0  0  0  0
    1.1161   -0.5429    1.5976 N   0  0  0  0  0  2  0  0  0  0  0  0
   -3.2707   -0.9922   -0.7154 C   0  0  0  0  0  0  0  0  0  0  0  0
   -4.5912   -1.4053   -1.0507 C   0  0  0  0  0  3  0  0  0  0  0  0
   -5.4807   -1.8702   -0.0904 C   0  0  0  0  0  0  0  0  0  0  0  0
   -5.0632   -1.9058    1.2621 C   0  0  0  0  0  0  0  0  0  0  0  0
   -3.7880   -1.4933    1.6308 C   0  0  0  0  0  0  0  0  0  0  0  0
   -2.8417   -1.0347    0.6623 C   0  0  0  0  0  0  0  0  0  0  0  0
   -2.4544   -0.4339   -1.7589 C   0  0  0  0  0  0  0  0  0  0  0  0
    3.1886   -1.1894    0.4331 C   0  0  0  0  0  0  0  0  0  0  0  0
    4.5035   -1.6874    0.6637 C   0  0  0  0  0  0  0  0  0  0  0  0
    5.4003   -1.9042   -0.3738 C   0  0  0  0  0  0  0  0  0  0  0  0
    4.9963   -1.5982   -1.6963 C   0  0  0  0  0  0  0  0  0  0  0  0
    3.7269   -1.0990   -1.9610 C   0  0  0  0  0  0  0  0  0  0  0  0
    2.7707   -0.8895   -0.9179 C   0  0  2  0  0  3  0  0  0  0  0  0
    2.3709   -0.9044    1.5793 C   0  0  0  0  0  0  0  0  0  0  0  0
   -0.6022    0.6632   -2.7899 C   0  0  0  0  0  0  0  0  0  0  0  0
   -0.1621    2.0451   -2.2722 C   0  0  0  0  0  0  0  0  0  0  0  0
    0.5465   -0.0444    2.8571 C   0  0  0  0  0  0  0  0  0  0  0  0
    1.1235    1.3257    3.2795 C   0  0  0  0  0  0  0  0  0  0  0  0
    1.3105    2.3682    2.1676 C   0  0  0  0  0  0  0  0  0  0  0  0
    0.0638    2.7742    1.3754 C   0  0  0  0  0  0  0  0  0  0  0  0
    0.3965    3.7796    0.2641 C   0  0  0  0  0  0  0  0  0  0  0  0
   -0.7252    4.0550   -0.7518 C   0  0  0  0  0  0  0  0  0  0  0  0
   -1.2428    2.8193   -1.5090 C   0  0  0  0  0  0  0  0  0  0  0  0
   -4.8995   -1.3489   -2.1072 H   0  0  0  0  0  0  0  0  0  0  0  0
   -6.4920   -2.1954   -0.3727 H   0  0  0  0  0  0  0  0  0  0  0  0
   -5.7574   -2.2645    2.0384 H   0  0  0  0  0  0  0  0  0  0  0  0
   -3.4603   -1.5163    2.6802 H   0  0  0  0  0  0  0  0  0  0  0  0
   -2.9850   -0.1960   -2.7043 H   0  0  0  0  0  0  0  0  0  0  0  0
    4.8016   -1.8984    1.7035 H   0  0  0  0  0  0  0  0  0  0  0  0
    6.4071   -2.2967   -0.1727 H   0  0  0  0  0  0  0  0  0  0  0  0
    5.6966   -1.7567   -2.5317 H   0  0  0  0  0  0  0  0  0  0  0  0
    3.4085   -0.8587   -2.9857 H   0  0  0  0  0  0  0  0  0  0  0  0
    2.8896   -0.9619    2.5596 H   0  0  0  0  0  0  0  0  0  0  0  0
   -1.3515    0.7635   -3.6065 H   0  0  0  0  0  0  0  0  0  0  0  0
    0.2863    0.1304   -3.1811 H   0  0  0  0  0  0  0  0  0  0  0  0
    0.2039    2.6370   -3.1393 H   0  0  0  0  0  0  0  0  0  0  0  0
    0.7186    1.8779   -1.6203 H   0  0  0  0  0  0  0  0  0  0  0  0
    0.7369   -0.7862    3.6641 H   0  0  0  0  0  0  0  0  0  0  0  0
   -0.5482    0.0030    2.7166 H   0  0  0  0  0  0  0  0  0  0  0  0
    0.4591    1.7274    4.0756 H   0  0  0  0  0  0  0  0  0  0  0  0
    2.1120    1.1661    3.7633 H   0  0  0  0  0  0  0  0  0  0  0  0
    2.0663    1.9852    1.4462 H   0  0  0  0  0  0  0  0  0  0  0  0
    1.7713    3.2734    2.6206 H   0  0  0  0  0  0  0  0  0  0  0  0
   -0.7131    3.1920    2.0544 H   0  0  0  0  0  0  0  0  0  0  0  0
   -0.3842    1.8603    0.9252 H   0  0  0  0  0  0  0  0  0  0  0  0
    0.7093    4.7437    0.7220 H   0  0  0  0  0  0  0  0  0  0  0  0
    1.2968    3.4135   -0.2775 H   0  0  0  0  0  0  0  0  0  0  0  0
   -1.5846    4.5315   -0.2309 H   0  0  0  0  0  0  0  0  0  0  0  0
   -0.3584    4.8098   -1.4821 H   0  0  0  0  0  0  0  0  0  0  0  0
   -2.0499    3.1304   -2.2084 H   0  0  0  0  0  0  0  0  0  0  0  0
   -1.7290    2.1355   -0.7813 H   0  0  0  0  0  0  0  0  0  0  0  0
  4 21  1  0  0  0  0
  5 10  1  0  0  0  0
  6  5  1  0  0  0  0
  6  7  1  0  0  0  0
  7  8  2  0  0  0  0
  8  9  1  0  0  0  0
  8 30  1  0  0  0  0
  9 31  1  0  0  0  0
 10  1  1  0  0  0  0
 10  9  2  0  0  0  0
 11  3  1  0  0  0  0
 11  5  2  0  0  0  0
 12 13  1  0  0  0  0
 12 18  2  0  0  0  0
 13 33  1  0  0  0  0
 14 34  1  0  0  0  0
 14 13  2  0  0  0  0
 15 14  1  0  0  0  0
 16 15  2  0  0  0  0
 16 17  1  0  0  0  0
 17  2  1  1  0  0  0
 17 12  1  0  0  0  0
 18  4  1  0  0  0  0
 18 37  1  0  0  0  0
 19 20  1  0  0  0  0
 19  3  1  0  0  0  0
 20 41  1  0  0  0  0
 20 27  1  0  0  0  0
 21 22  1  0  0  0  0
 21 42  1  0  0  0  0
 22 45  1  0  0  0  0
 22 44  1  0  0  0  0
 23 47  1  0  0  0  0
 23 22  1  0  0  0  0
 24 48  1  0  0  0  0
 24 23  1  0  0  0  0
 25 50  1  0  0  0  0
 25 24  1  0  0  0  0
 26 52  1  0  0  0  0
 26 25  1  0  0  0  0
 27 55  1  0  0  0  0
 27 26  1  0  0  0  0
 28  6  1  0  0  0  0
 29  7  1  0  0  0  0
 32 11  1  0  0  0  0
 35 15  1  0  0  0  0
 36 16  1  0  0  0  0
 38 19  1  0  0  0  0
 39 19  1  0  0  0  0
 40 20  1  0  0  0  0
 43 21  1  0  0  0  0
 46 23  1  0  0  0  0
 49 24  1  0  0  0  0
 51 25  1  0  0  0  0
 53 26  1  0  0  0  0
 54 27  1  0  0  0  0
M  CHG  1   1  -1
M  END
