3,4,6,7
q = -2.0, confidence = 0.86

 65 66  0  0  0  0  0  0  0  0999 V2000
   -3.6363   -1.0836    1.3913 Si  0  0  0  0  0  0  0  0  0  0  0  0
   -3.7999    0.6695   -1.3423 Si  0  0  0  0  0  0  0  0  0  0  0  0
    2.8260   -1.2289   -1.0452 O   0  5  0  0  0  0  0  0  0  0  0  0
    2.5760    1.6337    1.0662 O   0  5  0  0  0  0  0  0  0  0  0  0
   -3.6920    0.1427    0.2475 O   0  0  0  0  0  0  0  0  0  0  0  0
    1.2143   -1.1350    1.4132 N   0  0  0  0  0  2  0  0  0  0  0  0
    0.9996    1.2357   -1.3857 N   0  0  0  0  0  2  0  0  0  0  0  0
    2.8433   -2.5043   -0.7940 C   0  0  0  0  0  0  0  0  0  0  0  0
    3.5427   -3.3721   -1.6949 C   0  0  0  0  0  0  0  0  0  0  0  0
    4.0307   -2.8925   -2.5562 H   0  0  0  0  0  0  0  0  0  0  0  0
    3.6040   -4.7455   -1.4988 C   0  0  0  0  0  0  0  0  0  0  0  0
    4.1512   -5.3705   -2.2227 H   0  0  0  0  0  0  0  0  0  0  0  0
    2.9791   -5.3531   -0.3811 C   0  0  0  0  0  0  0  0  0  0  0  0
    3.0361   -6.4404   -0.2297 H   0  0  0  0  0  0  0  0  0  0  0  0
    2.2993   -4.5459    0.5198 C   0  0  0  0  0  0  0  0  0  0  0  0
    1.8099   -4.9942    1.4005 H   0  0  0  0  0  0  0  0  0  0  0  0
    2.2019   -3.1328    0.3509 C   0  0  0  0  0  0  0  0  0  0  0  0
    1.4794   -2.4146    1.3670 C   0  0  0  0  0  3  0  0  0  0  0  0
    1.1210   -3.0375    2.2179 H   0  0  0  0  0  0  0  0  0  0  0  0
    0.4771   -0.5890    2.5432 C   0  0  0  0  0  0  0  0  0  0  0  0
    1.0081    0.3284    2.8751 H   0  0  0  0  0  0  0  0  0  0  0  0
    0.4788   -1.3142    3.3900 H   0  0  0  0  0  0  0  0  0  0  0  0
   -0.9728   -0.2404    2.1694 C   0  0  0  0  0  0  0  0  0  0  0  0
   -0.9636    0.5041    1.3432 H   0  0  0  0  0  0  0  0  0  0  0  0
   -1.4261    0.2814    3.0396 H   0  0  0  0  0  0  0  0  0  0  0  0
   -1.8176   -1.4561    1.7707 C   0  0  0  0  0  0  0  0  0  0  0  0
   -1.7923   -2.2230    2.5790 H   0  0  0  0  0  0  0  0  0  0  0  0
   -1.3788   -1.9523    0.8762 H   0  0  0  0  0  0  0  0  0  0  0  0
   -4.4760   -2.6396    0.7329 C   0  0  0  0  0  0  0  0  0  0  0  0
   -3.9608   -3.0250   -0.1704 H   0  0  0  0  0  0  0  0  0  0  0  0
   -5.5329   -2.4386    0.4625 H   0  0  0  0  0  0  0  0  0  0  0  0
   -4.4693   -3.4449    1.4965 H   0  0  0  0  0  0  0  0  0  0  0  0
   -4.5178   -0.4483    2.9298 C   0  0  0  0  0  0  0  0  0  0  0  0
   -4.4856   -1.1950    3.7498 H   0  0  0  0  0  0  0  0  0  0  0  0
   -5.5820   -0.2276    2.7092 H   0  0  0  0  0  0  0  0  0  0  0  0
   -4.0506    0.4876    3.2980 H   0  0  0  0  0  0  0  0  0  0  0  0
   -4.4666   -0.7129   -2.4425 C   0  0  0  0  0  0  0  0  0  0  0  0
   -4.5480   -0.3722   -3.4957 H   0  0  0  0  0  0  0  0  0  0  0  0
   -5.4751   -1.0347   -2.1116 H   0  0  0  0  0  0  0  0  0  0  0  0
   -3.8055   -1.6033   -2.4255 H   0  0  0  0  0  0  0  0  0  0  0  0
   -4.9497    2.1595   -1.3702 C   0  0  0  0  0  0  0  0  0  0  0  0
   -4.5608    2.9679   -0.7181 H   0  0  0  0  0  0  0  0  0  0  0  0
   -5.9596    1.8847   -1.0029 H   0  0  0  0  0  0  0  0  0  0  0  0
   -5.0579    2.5676   -2.3962 H   0  0  0  0  0  0  0  0  0  0  0  0
   -2.0667    1.1943   -1.8992 C   0  0  0  0  0  0  0  0  0  0  0  0
   -2.1704    1.7925   -2.8331 H   0  0  0  0  0  0  0  0  0  0  0  0
   -1.6920    1.9029   -1.1268 H   0  0  0  0  0  0  0  0  0  0  0  0
   -1.0578    0.0609   -2.1167 C   0  0  0  0  0  0  0  0  0  0  0  0
   -0.9757   -0.5682   -1.2022 H   0  0  0  0  0  0  0  0  0  0  0  0
   -1.4076   -0.6180   -2.9236 H   0  0  0  0  0  0  0  0  0  0  0  0
    0.3509    0.5512   -2.4941 C   0  0  0  0  0  0  0  0  0  0  0  0
    0.9912   -0.3136   -2.7681 H   0  0  0  0  0  0  0  0  0  0  0  0
    0.2837    1.2239   -3.3805 H   0  0  0  0  0  0  0  0  0  0  0  0
    1.0668    2.5417   -1.3732 C   0  0  0  0  0  3  0  0  0  0  0  0
    0.6206    3.0819   -2.2388 H   0  0  0  0  0  0  0  0  0  0  0  0
    1.6685    3.3854   -0.3748 C   0  0  0  0  0  0  0  0  0  0  0  0
    1.5475    4.7923   -0.5769 C   0  0  0  0  0  0  0  0  0  0  0  0
    0.9992    5.1390   -1.4686 H   0  0  0  0  0  0  0  0  0  0  0  0
    2.0887    5.7156    0.3063 C   0  0  0  0  0  0  0  0  0  0  0  0
    1.9774    6.7949    0.1293 H   0  0  0  0  0  0  0  0  0  0  0  0
    2.7924    5.2380    1.4400 C   0  0  0  0  0  0  0  0  0  0  0  0
    3.2311    5.9566    2.1507 H   0  0  0  0  0  0  0  0  0  0  0  0
    2.9432    3.8766    1.6682 C   0  0  0  0  0  0  0  0  0  0  0  0
    3.4940    3.4983    2.5421 H   0  0  0  0  0  0  0  0  0  0  0  0
    2.3935    2.8903    0.7858 C   0  0  0  0  0  0  0  0  0  0  0  0
  1 26  1  0  0  0  0
  1 33  1  0  0  0  0
  2  5  1  0  0  0  0
  3  8  1  0  0  0  0
  5  1  1  0  0  0  0
  6 20  1  0  0  0  0
  7 54  1  0  0  0  0
  8 17  1  0  0  0  0
  9 11  1  0  0  0  0
  9  8  2  0  0  0  0
 10  9  1  0  0  0  0
 11 13  2  0  0  0  0
 12 11  1  0  0  0  0
 13 14  1  0  0  0  0
 13 15  1  0  0  0  0
 15 16  1  0  0  0  0
 17 15  2  0  0  0  0
 17 18  1  0  0  0  0
 18  6  1  0  0  0  0
 18 19  1  0  0  0  0
 20 21  1  0  0  0  0
 20 22  1  0  0  0  0
 23 20  1  0  0  0  0
 23 25  1  0  0  0  0
 24 23  1  0  0  0  0
 26 23  1  0  0  0  0
 26 27  1  0  0  0  0
 28 26  1  0  0  0  0
 29  1  1  0  0  0  0
 29 32  1  0  0  0  0
 30 29  1  0  0  0  0
 31 29  1  0  0  0  0
 33 36  1  0  0  0  0
 33 34  1  0  0  0  0
 35 33  1  0  0  0  0
 37 40  1  0  0  0  0
 37 39  1  0  0  0  0
 37  2  1  0  0  0  0
 38 37  1  0  0  0  0
 41  2  1  0  0  0  0
 41 43  1  0  0  0  0
 41 42  1  0  0  0  0
 44 41  1  0  0  0  0
 45  2  1  0  0  0  0
 45 47  1  0  0  0  0
 46 45  1  0  0  0  0
 48 45  1  0  0  0  0
 48 49  1  0  0  0  0
 50 48  1  0  0  0  0
 51 48  1  0  0  0  0
 51  7  1  0  0  0  0
 52 51  1  0  0  0  0
 53 51  1  0  0  0  0
 54 56  1  0  0  0  0
 55 54  1  0  0  0  0
 56 65  1  0  0  0  0
 57 56  2  0  0  0  0
 57 59  1  0  0  0  0
 58 57  1  0  0  0  0
 59 61  2  0  0  0  0
 60 59  1  0  0  0  0
 61 63  1  0  0  0  0
 61 62  1  0  0  0  0
 63 64  1  0  0  0  0
 65  4  1  0  0  0  0
 65 63  2  0  0  0  0
M  CHG  2   3  -1   4  -1
M  END
