1,2,3,4
q = -2.0, confidence = 0.898

 66 68  0  0  1  0  0  0  0  0999 V2000
   -1.1308   -1.0171   -0.6513 O   0  5  0  0  0  0  0  0  0  0  0  0
    1.7074   -0.5818    0.6132 O   0  5  0  0  0  0  0  0  0  0  0  0
   -1.6420    1.6857    0.1991 N   0  0  0  0  0  2  0  0  0  0  0  0
    0.9855    2.0861   -0.0966 N   0  0  0  0  0  2  0  0  0  0  0  0
   -2.1783   -3.3495   -1.1816 O   0  0  0  0  0  0  0  0  0  0  0  0
    3.5911   -2.3786    0.8280 O   0  0  0  0  0  0  0  0  0  0  0  0
   -2.4181   -1.0402   -0.7538 C   0  0  0  0  0  0  0  0  0  0  0  0
    3.1790    1.0358   -0.4401 C   0  0  0  0  0  0  0  0  0  0  0  0
    2.2193    2.1061   -0.5203 C   0  0  0  0  0  3  0  0  0  0  0  0
    2.6131    3.0338   -0.9953 H   0  0  0  0  0  0  0  0  0  0  0  0
   -4.4295   -2.4057   -1.2884 C   0  0  0  0  0  0  0  0  0  0  0  0
   -4.8783   -3.3754   -1.5507 H   0  0  0  0  0  0  0  0  0  0  0  0
   -2.1682    4.1790    0.3340 C   0  0  0  0  0  0  0  0  0  0  0  0
   -3.0928    3.9990    0.9212 H   0  0  0  0  0  0  0  0  0  0  0  0
   -2.4738    4.2217   -0.7355 H   0  0  0  0  0  0  0  0  0  0  0  0
    0.7647    4.5955    0.1674 C   0  0  0  0  0  0  0  0  0  0  0  0
    1.0772    4.5053    1.2315 H   0  0  0  0  0  0  0  0  0  0  0  0
    1.6869    4.7906   -0.4170 H   0  0  0  0  0  0  0  0  0  0  0  0
   -6.7777   -1.4101   -1.4229 C   0  0  0  0  0  0  0  0  0  0  0  0
   -7.0077   -1.1216   -2.4738 H   0  0  0  0  0  0  0  0  0  0  0  0
   -7.0549   -2.4844   -1.3348 H   0  0  0  0  0  0  0  0  0  0  0  0
   -3.3138    0.0800   -0.5644 C   0  0  0  0  0  0  0  0  0  0  0  0
    0.1296    3.2635   -0.2607 C   0  0  2  0  0  0  0  0  0  0  0  0
   -0.1652    3.3387   -1.3363 H   0  0  0  0  0  0  0  0  0  0  0  0
    2.8619   -0.2423    0.1456 C   0  0  0  0  0  0  0  0  0  0  0  0
   -3.0547   -2.3018   -1.0960 C   0  0  0  0  0  0  0  0  0  0  0  0
    4.5704   -3.3896    0.9264 C   0  0  0  0  0  0  0  0  0  0  0  0
    5.4491   -3.0625    1.5285 H   0  0  0  0  0  0  0  0  0  0  0  0
    4.9350   -3.7138   -0.0749 H   0  0  0  0  0  0  0  0  0  0  0  0
    4.0889   -4.2495    1.4294 H   0  0  0  0  0  0  0  0  0  0  0  0
    3.9467   -1.2037    0.2243 C   0  0  0  0  0  0  0  0  0  0  0  0
    7.3432   -0.4057   -2.4258 C   0  0  0  0  0  0  0  0  0  0  0  0
    6.7068   -0.4828   -3.3266 H   0  0  0  0  0  0  0  0  0  0  0  0
   -5.2874   -1.2776   -1.1510 C   0  0  0  0  0  0  0  0  0  0  0  0
   -4.7156   -0.0662   -0.7865 C   0  0  0  0  0  0  0  0  0  0  0  0
   -5.3605    0.8181   -0.6525 H   0  0  0  0  0  0  0  0  0  0  0  0
   -2.8541    1.3869   -0.1636 C   0  0  0  0  0  3  0  0  0  0  0  0
   -3.6369    2.1776   -0.1724 H   0  0  0  0  0  0  0  0  0  0  0  0
    5.2111   -0.9183   -0.2781 C   0  0  0  0  0  0  0  0  0  0  0  0
    6.0129   -1.6696   -0.2331 H   0  0  0  0  0  0  0  0  0  0  0  0
   -1.5301    5.5111    0.7474 C   0  0  0  0  0  0  0  0  0  0  0  0
   -2.2411    6.3454    0.5746 H   0  0  0  0  0  0  0  0  0  0  0  0
   -1.3290    5.4938    1.8416 H   0  0  0  0  0  0  0  0  0  0  0  0
    4.4911    1.2880   -0.9460 C   0  0  0  0  0  0  0  0  0  0  0  0
    4.6950    2.2749   -1.3948 H   0  0  0  0  0  0  0  0  0  0  0  0
   -1.1880    3.0200    0.5313 C   0  0  2  0  0  0  0  0  0  0  0  0
   -0.8925    2.9959    1.6095 H   0  0  0  0  0  0  0  0  0  0  0  0
   -0.2164    5.7618   -0.0023 C   0  0  0  0  0  0  0  0  0  0  0  0
    0.2535    6.7061    0.3428 H   0  0  0  0  0  0  0  0  0  0  0  0
   -0.4341    5.8989   -1.0851 H   0  0  0  0  0  0  0  0  0  0  0  0
    5.5036    0.3427   -0.8761 C   0  0  0  0  0  0  0  0  0  0  0  0
   -2.6953   -4.6153   -1.5219 C   0  0  0  0  0  0  0  0  0  0  0  0
   -3.1815   -4.6102   -2.5246 H   0  0  0  0  0  0  0  0  0  0  0  0
   -3.4401   -4.9808   -0.7768 H   0  0  0  0  0  0  0  0  0  0  0  0
   -1.8368   -5.3132   -1.5441 H   0  0  0  0  0  0  0  0  0  0  0  0
    8.4052   -1.2206   -2.2986 C   0  0  0  0  0  0  0  0  0  0  0  0
    9.0561   -1.1769   -1.4085 H   0  0  0  0  0  0  0  0  0  0  0  0
    8.6691   -1.9534   -3.0770 H   0  0  0  0  0  0  0  0  0  0  0  0
   -8.4752    0.3798   -0.8569 C   0  0  0  0  0  0  0  0  0  0  0  0
   -8.5959    0.6610   -1.9170 H   0  0  0  0  0  0  0  0  0  0  0  0
   -9.0747    0.9360   -0.1193 H   0  0  0  0  0  0  0  0  0  0  0  0
   -7.6356   -0.6037   -0.4882 C   0  0  0  0  0  0  0  0  0  0  0  0
   -7.5284   -0.8472    0.5850 H   0  0  0  0  0  0  0  0  0  0  0  0
    6.9010    0.6105   -1.4063 C   0  0  0  0  0  0  0  0  0  0  0  0
    6.9147    1.6246   -1.8620 H   0  0  0  0  0  0  0  0  0  0  0  0
    7.6351    0.6286   -0.5699 H   0  0  0  0  0  0  0  0  0  0  0  0
  3 46  1  0  0  0  0
  5 26  1  0  0  0  0
  6 27  1  0  0  0  0
  7  1  1  0  0  0  0
  7 22  1  0  0  0  0
  8 25  1  0  0  0  0
  9  8  1  0  0  0  0
  9  4  1  0  0  0  0
 10  9  1  0  0  0  0
 11 34  2  0  0  0  0
 11 26  1  0  0  0  0
 12 11  1  0  0  0  0
 13 46  1  0  0  0  0
 13 41  1  0  0  0  0
 13 14  1  0  0  0  0
 15 13  1  0  0  0  0
 16 17  1  0  0  0  0
 18 16  1  0  0  0  0
 19 21  1  0  0  0  0
 19 34  1  0  0  0  0
 19 62  1  0  0  0  0
 20 19  1  0  0  0  0
 22 37  1  0  0  0  0
 23 24  1  6  0  0  0
 23  4  1  0  0  0  0
 23 16  1  0  0  0  0
 23 46  1  0  0  0  0
 25 31  2  0  0  0  0
 25  2  1  0  0  0  0
 26  7  2  0  0  0  0
 27 30  1  0  0  0  0
 27 28  1  0  0  0  0
 29 27  1  0  0  0  0
 31  6  1  0  0  0  0
 32 56  2  0  0  0  0
 32 64  1  0  0  0  0
 33 32  1  0  0  0  0
 34 35  1  0  0  0  0
 35 36  1  0  0  0  0
 35 22  2  0  0  0  0
 37  3  1  0  0  0  0
 38 37  1  0  0  0  0
 39 40  1  0  0  0  0
 39 31  1  0  0  0  0
 41 43  1  0  0  0  0
 42 41  1  0  0  0  0
 44 51  1  0  0  0  0
 44  8  2  0  0  0  0
 45 44  1  0  0  0  0
 46 47  1  1  0  0  0
 48 16  1  0  0  0  0
 48 49  1  0  0  0  0
 48 41  1  0  0  0  0
 50 48  1  0  0  0  0
 51 39  2  0  0  0  0
 52  5  1  0  0  0  0
 52 54  1  0  0  0  0
 53 52  1  0  0  0  0
 55 52  1  0  0  0  0
 56 57  1  0  0  0  0
 58 56  1  0  0  0  0
 59 62  2  0  0  0  0
 59 61  1  0  0  0  0
 60 59  1  0  0  0  0
 62 63  1  0  0  0  0
 64 51  1  0  0  0  0
 64 66  1  0  0  0  0
 65 64  1  0  0  0  0
M  CHG  2   1  -1   2  -1
M  END
