24,30,37,42
q = -2.0, confidence = 0.852

 66 67  0  0  1  0  0  0  0  0999 V2000
  -12.5429    0.4666    0.0977 C   0  0  0  0  0  0  0  0  0  0  0  0
  -13.5624    0.0326    0.0666 H   0  0  0  0  0  0  0  0  0  0  0  0
  -12.4588    1.1825   -0.7467 H   0  0  0  0  0  0  0  0  0  0  0  0
  -12.4585    1.0540    1.0361 H   0  0  0  0  0  0  0  0  0  0  0  0
  -11.4644   -0.6141    0.0197 C   0  0  0  0  0  0  0  0  0  0  0  0
  -11.5947   -1.2092   -0.9113 H   0  0  0  0  0  0  0  0  0  0  0  0
  -11.5947   -1.3366    0.8558 H   0  0  0  0  0  0  0  0  0  0  0  0
  -10.0383   -0.0560    0.0600 C   0  0  0  0  0  0  0  0  0  0  0  0
   -9.9048    0.6661   -0.7776 H   0  0  0  0  0  0  0  0  0  0  0  0
   -9.9052    0.5395    0.9919 H   0  0  0  0  0  0  0  0  0  0  0  0
   -8.9569   -1.1355   -0.0168 C   0  0  0  0  0  0  0  0  0  0  0  0
   -9.0719   -1.8546    0.8227 H   0  0  0  0  0  0  0  0  0  0  0  0
   -9.0716   -1.7283   -0.9499 H   0  0  0  0  0  0  0  0  0  0  0  0
   -7.5472   -0.5662    0.0243 C   0  0  0  0  0  0  0  0  0  0  0  0
   -7.3849    0.1413   -0.8254 H   0  0  0  0  0  0  0  0  0  0  0  0
   -7.3868    0.0163    0.9644 H   0  0  0  0  0  0  0  0  0  0  0  0
   -6.6257   -1.6414   -0.0497 O   0  0  0  0  0  0  0  0  0  0  0  0
   -5.2905   -1.3482   -0.0267 C   0  0  0  0  0  0  0  0  0  0  0  0
   -4.4147   -2.4707   -0.0978 C   0  0  0  0  0  0  0  0  0  0  0  0
   -4.8701   -3.4703   -0.1641 H   0  0  0  0  0  0  0  0  0  0  0  0
   -3.0404   -2.3137   -0.0830 C   0  0  0  0  0  0  0  0  0  0  0  0
   -2.3651   -3.1794   -0.1368 H   0  0  0  0  0  0  0  0  0  0  0  0
   -2.4327   -1.0170    0.0003 C   0  0  2  0  0  3  0  0  0  0  0  0
   -1.1358   -0.9408    0.0128 O   0  0  0  0  0  1  0  0  0  0  0  0
   -3.3252    0.1145    0.0751 C   0  0  0  0  0  0  0  0  0  0  0  0
   -4.7438   -0.0721    0.0607 C   0  0  0  0  0  0  0  0  0  0  0  0
   -5.3833    0.8197    0.1214 H   0  0  0  0  0  0  0  0  0  0  0  0
   -2.7944    1.4310    0.1908 C   0  0  0  0  0  0  0  0  0  0  0  0
   -3.5167    2.2627    0.3173 H   0  0  0  0  0  0  0  0  0  0  0  0
   -1.5149    1.7410    0.1727 N   0  0  0  0  0  2  0  0  0  0  0  0
   -1.0944    3.1204    0.4183 C   0  0  0  0  0  0  0  0  0  0  0  0
   -1.8782    3.8480    0.1161 H   0  0  0  0  0  0  0  0  0  0  0  0
   -0.9008    3.2561    1.5062 H   0  0  0  0  0  0  0  0  0  0  0  0
    0.1979    3.3156   -0.3593 C   0  0  0  0  0  0  0  0  0  0  0  0
   -0.0311    3.4372   -1.4417 H   0  0  0  0  0  0  0  0  0  0  0  0
    0.7583    4.2144   -0.0234 H   0  0  0  0  0  0  0  0  0  0  0  0
    0.9783    2.0918   -0.1706 N   0  0  0  0  0  2  0  0  0  0  0  0
    2.2922    2.1431   -0.1877 C   0  0  0  0  0  0  0  0  0  0  0  0
    2.7636    3.1428   -0.2723 H   0  0  0  0  0  0  0  0  0  0  0  0
    3.1599    1.0128   -0.1203 C   0  0  0  0  0  0  0  0  0  0  0  0
    2.6079   -0.3240   -0.1030 C   0  0  1  0  0  3  0  0  0  0  0  0
    1.3366   -0.5993   -0.1284 O   0  0  0  0  0  1  0  0  0  0  0  0
    3.5459   -1.4010   -0.0661 C   0  0  0  0  0  0  0  0  0  0  0  0
    3.1352   -2.4207   -0.0561 H   0  0  0  0  0  0  0  0  0  0  0  0
    4.9197   -1.1837   -0.0407 C   0  0  0  0  0  0  0  0  0  0  0  0
    5.5911   -2.0532   -0.0104 H   0  0  0  0  0  0  0  0  0  0  0  0
    5.4521    0.1361   -0.0549 C   0  0  0  0  0  0  0  0  0  0  0  0
    4.5678    1.2119   -0.0969 C   0  0  0  0  0  0  0  0  0  0  0  0
    4.9806    2.2321   -0.1124 H   0  0  0  0  0  0  0  0  0  0  0  0
    6.7892    0.4300   -0.0322 O   0  0  0  0  0  0  0  0  0  0  0  0
    7.7226   -0.6375    0.0165 C   0  0  0  0  0  0  0  0  0  0  0  0
    7.5986   -1.3072   -0.8690 H   0  0  0  0  0  0  0  0  0  0  0  0
    7.5523   -1.2653    0.9246 H   0  0  0  0  0  0  0  0  0  0  0  0
    9.1234   -0.0445    0.0389 C   0  0  0  0  0  0  0  0  0  0  0  0
    9.2034    0.6378    0.9127 H   0  0  0  0  0  0  0  0  0  0  0  0
    9.2519    0.5920   -0.8632 H   0  0  0  0  0  0  0  0  0  0  0  0
   10.2211   -1.1086    0.0966 C   0  0  0  0  0  0  0  0  0  0  0  0
   10.0741   -1.7475    0.9971 H   0  0  0  0  0  0  0  0  0  0  0  0
   10.1221   -1.7944   -0.7755 H   0  0  0  0  0  0  0  0  0  0  0  0
   11.6377   -0.5259    0.1195 C   0  0  0  0  0  0  0  0  0  0  0  0
   11.7333    0.1608    0.9898 H   0  0  0  0  0  0  0  0  0  0  0  0
   11.7822    0.1120   -0.7806 H   0  0  0  0  0  0  0  0  0  0  0  0
   12.7326   -1.5912    0.1792 C   0  0  0  0  0  0  0  0  0  0  0  0
   13.7449   -1.1397    0.1947 H   0  0  0  0  0  0  0  0  0  0  0  0
   12.6831   -2.2704   -0.6976 H   0  0  0  0  0  0  0  0  0  0  0  0
   12.6336   -2.2209    1.0882 H   0  0  0  0  0  0  0  0  0  0  0  0
  1  4  1  0  0  0  0
  2  1  1  0  0  0  0
  3  1  1  0  0  0  0
  5  8  1  0  0  0  0
  5  1  1  0  0  0  0
  5  7  1  0  0  0  0
  6  5  1  0  0  0  0
  8 10  1  0  0  0  0
  9  8  1  0  0  0  0
 11 14  1  0  0  0  0
 11  8  1  0  0  0  0
 11 12  1  0  0  0  0
 13 11  1  0  0  0  0
 14 16  1  0  0  0  0
 15 14  1  0  0  0  0
 17 18  1  0  0  0  0
 17 14  1  0  0  0  0
 18 26  2  0  0  0  0
 19 21  2  0  0  0  0
 19 18  1  0  0  0  0
 20 19  1  0  0  0  0
 21 23  1  0  0  0  0
 22 21  1  0  0  0  0
 23 24  1  1  0  0  0
 23 25  1  0  0  0  0
 25 28  2  0  0  0  0
 26 25  1  0  0  0  0
 26 27  1  0  0  0  0
 28 29  1  0  0  0  0
 30 28  1  0  0  0  0
 30 31  1  0  0  0  0
 31 33  1  0  0  0  0
 32 31  1  0  0  0  0
 34 37  1  0  0  0  0
 34 36  1  0  0  0  0
 34 31  1  0  0  0  0
 35 34  1  0  0  0  0
 38 37  1  0  0  0  0
 38 40  2  0  0  0  0
 39 38  1  0  0  0  0
 40 41  1  0  0  0  0
 40 48  1  0  0  0  0
 41 42  1  6  0  0  0
 41 43  1  0  0  0  0
 43 44  1  0  0  0  0
 43 45  2  0  0  0  0
 45 46  1  0  0  0  0
 47 45  1  0  0  0  0
 47 50  1  0  0  0  0
 48 47  2  0  0  0  0
 49 48  1  0  0  0  0
 50 51  1  0  0  0  0
 51 54  1  0  0  0  0
 51 53  1  0  0  0  0
 52 51  1  0  0  0  0
 54 57  1  0  0  0  0
 54 55  1  0  0  0  0
 56 54  1  0  0  0  0
 57 60  1  0  0  0  0
 57 58  1  0  0  0  0
 59 57  1  0  0  0  0
 60 63  1  0  0  0  0
 60 61  1  0  0  0  0
 62 60  1  0  0  0  0
 63 64  1  0  0  0  0
 63 66  1  0  0  0  0
 65 63  1  0  0  0  0
M  END
