26,27,28,29
q = -2.0, confidence = 0.838

 63 64  0  0  0  0  0  0  0  0999 V2000
    2.6182   -0.4815    0.8934 C   0  0  0  0  0  0  0  0  0  0  0  0
    3.3704   -1.7040    1.1210 C   0  0  0  0  0  0  0  0  0  0  0  0
    4.5500   -1.9517    0.4337 C   0  0  0  0  0  0  0  0  0  0  0  0
    5.0772   -0.9989   -0.4890 C   0  0  0  0  0  0  0  0  0  0  0  0
    4.4044    0.2008   -0.6987 C   0  0  0  0  0  0  0  0  0  0  0  0
    3.1830    0.4819   -0.0262 C   0  0  0  0  0  0  0  0  0  0  0  0
   -2.3084   -0.5689   -0.0257 C   0  0  0  0  0  0  0  0  0  0  0  0
   -2.9114   -1.8497   -0.3747 C   0  0  0  0  0  0  0  0  0  0  0  0
   -4.2786   -1.9728   -0.5862 C   0  0  0  0  0  0  0  0  0  0  0  0
   -5.1391   -0.8381   -0.4861 C   0  0  0  0  0  0  0  0  0  0  0  0
   -4.5968    0.4031   -0.1718 C   0  0  0  0  0  0  0  0  0  0  0  0
   -3.2058    0.5659    0.0691 C   0  0  0  0  0  0  0  0  0  0  0  0
    3.4510   -3.7631    2.2893 C   0  0  0  0  0  0  0  0  0  0  0  0
   -2.5035   -4.1465   -0.7961 C   0  0  0  0  0  0  0  0  0  0  0  0
    2.6140    1.7906   -0.2046 C   0  0  0  0  0  3  0  0  0  0  0  0
   -2.7428    1.9044    0.3221 C   0  0  0  0  0  3  0  0  0  0  0  0
    1.2411    3.6869    0.1184 C   0  0  0  0  0  0  0  0  0  0  0  0
   -0.1684    4.1217   -0.3475 C   0  0  0  0  0  0  0  0  0  0  0  0
   -1.2524    3.7097    0.6908 C   0  0  0  0  0  0  0  0  0  0  0  0
   -0.1647    5.6588   -0.4173 C   0  0  0  0  0  0  0  0  0  0  0  0
   -0.4843    3.5262   -1.7267 C   0  0  0  0  0  0  0  0  0  0  0  0
    6.3456   -1.3442   -1.1723 C   0  0  0  0  0  0  0  0  0  0  0  0
    7.9811   -0.6438   -2.7152 C   0  0  0  0  0  0  0  0  0  0  0  0
   -6.6004   -0.9262   -0.7160 C   0  0  0  0  0  0  0  0  0  0  0  0
   -8.3964   -2.3533   -1.2551 C   0  0  0  0  0  0  0  0  0  0  0  0
    1.4698    2.2520    0.2383 N   0  0  0  0  0  2  0  0  0  0  0  0
   -1.5424    2.2901    0.6647 N   0  0  0  0  0  2  0  0  0  0  0  0
    1.5142   -0.2921    1.5236 O   0  5  0  0  0  0  0  0  0  0  0  0
   -1.0362   -0.5238    0.1595 O   0  5  0  0  0  0  0  0  0  0  0  0
    2.7956   -2.5393    2.0261 O   0  0  0  0  0  0  0  0  0  0  0  0
   -2.0154   -2.8678   -0.4521 O   0  0  0  0  0  0  0  0  0  0  0  0
    6.9711   -2.3821   -1.0068 O   0  0  0  0  0  0  0  0  0  0  0  0
    6.7612   -0.3655   -2.0282 O   0  0  0  0  0  0  0  0  0  0  0  0
   -7.3863    0.0080   -0.6509 O   0  0  0  0  0  0  0  0  0  0  0  0
   -6.9971   -2.1983   -1.0191 O   0  0  0  0  0  0  0  0  0  0  0  0
    5.1221   -2.8794    0.5701 H   0  0  0  0  0  0  0  0  0  0  0  0
    4.8264    0.9453   -1.3895 H   0  0  0  0  0  0  0  0  0  0  0  0
   -4.7285   -2.9408   -0.8385 H   0  0  0  0  0  0  0  0  0  0  0  0
   -5.2737    1.2695   -0.1125 H   0  0  0  0  0  0  0  0  0  0  0  0
    2.8386   -4.2941    3.0417 H   0  0  0  0  0  0  0  0  0  0  0  0
    4.4755   -3.6064    2.6976 H   0  0  0  0  0  0  0  0  0  0  0  0
    3.5325   -4.3940    1.3751 H   0  0  0  0  0  0  0  0  0  0  0  0
   -1.6287   -4.8228   -0.8165 H   0  0  0  0  0  0  0  0  0  0  0  0
   -2.9898   -4.1505   -1.7986 H   0  0  0  0  0  0  0  0  0  0  0  0
   -3.2395   -4.5266   -0.0506 H   0  0  0  0  0  0  0  0  0  0  0  0
    3.2650    2.5042   -0.7613 H   0  0  0  0  0  0  0  0  0  0  0  0
   -3.5130    2.6979    0.1825 H   0  0  0  0  0  0  0  0  0  0  0  0
    1.4216    4.1456    1.1187 H   0  0  0  0  0  0  0  0  0  0  0  0
    1.9972    4.1329   -0.5711 H   0  0  0  0  0  0  0  0  0  0  0  0
   -0.8960    3.9982    1.7054 H   0  0  0  0  0  0  0  0  0  0  0  0
   -2.1802    4.2951    0.4878 H   0  0  0  0  0  0  0  0  0  0  0  0
   -1.1400    6.0394   -0.7816 H   0  0  0  0  0  0  0  0  0  0  0  0
    0.0266    6.1106    0.5783 H   0  0  0  0  0  0  0  0  0  0  0  0
    0.6198    6.0233   -1.1110 H   0  0  0  0  0  0  0  0  0  0  0  0
   -1.5017    3.8140   -2.0626 H   0  0  0  0  0  0  0  0  0  0  0  0
   -0.4352    2.4197   -1.7115 H   0  0  0  0  0  0  0  0  0  0  0  0
    0.2401    3.8904   -2.4833 H   0  0  0  0  0  0  0  0  0  0  0  0
    8.1781    0.2305   -3.3616 H   0  0  0  0  0  0  0  0  0  0  0  0
    8.8176   -0.7908   -2.0012 H   0  0  0  0  0  0  0  0  0  0  0  0
    7.8932   -1.5640   -3.3287 H   0  0  0  0  0  0  0  0  0  0  0  0
   -8.5550   -3.4226   -1.4844 H   0  0  0  0  0  0  0  0  0  0  0  0
   -8.7300   -1.7233   -2.1051 H   0  0  0  0  0  0  0  0  0  0  0  0
   -8.9867   -2.0589   -0.3630 H   0  0  0  0  0  0  0  0  0  0  0  0
  1  2  1  0  0  0  0
  1 28  1  0  0  0  0
  2 30  1  0  0  0  0
  3 36  1  0  0  0  0
  3  2  2  0  0  0  0
  4  3  1  0  0  0  0
  5  4  2  0  0  0  0
  5  6  1  0  0  0  0
  6  1  2  0  0  0  0
  7 12  1  0  0  0  0
  7 29  1  0  0  0  0
  8  7  2  0  0  0  0
  9 10  2  0  0  0  0
  9  8  1  0  0  0  0
 10 11  1  0  0  0  0
 11 39  1  0  0  0  0
 11 12  2  0  0  0  0
 12 16  1  0  0  0  0
 13 41  1  0  0  0  0
 13 40  1  0  0  0  0
 14 31  1  0  0  0  0
 14 45  1  0  0  0  0
 15  6  1  0  0  0  0
 15 26  1  0  0  0  0
 16 27  1  0  0  0  0
 17 26  1  0  0  0  0
 17 48  1  0  0  0  0
 18 17  1  0  0  0  0
 18 19  1  0  0  0  0
 19 50  1  0  0  0  0
 20 18  1  0  0  0  0
 20 53  1  0  0  0  0
 21 56  1  0  0  0  0
 21 18  1  0  0  0  0
 22 32  2  0  0  0  0
 22  4  1  0  0  0  0
 23 33  1  0  0  0  0
 23 59  1  0  0  0  0
 24 34  2  0  0  0  0
 24 10  1  0  0  0  0
 25 35  1  0  0  0  0
 25 63  1  0  0  0  0
 27 19  1  0  0  0  0
 30 13  1  0  0  0  0
 31  8  1  0  0  0  0
 33 22  1  0  0  0  0
 35 24  1  0  0  0  0
 37  5  1  0  0  0  0
 38  9  1  0  0  0  0
 42 13  1  0  0  0  0
 43 14  1  0  0  0  0
 44 14  1  0  0  0  0
 46 15  1  0  0  0  0
 47 16  1  0  0  0  0
 49 17  1  0  0  0  0
 51 19  1  0  0  0  0
 52 20  1  0  0  0  0
 54 20  1  0  0  0  0
 55 21  1  0  0  0  0
 57 21  1  0  0  0  0
 58 23  1  0  0  0  0
 60 23  1  0  0  0  0
 61 25  1  0  0  0  0
 62 25  1  0  0  0  0
M  CHG  2  28  -1  29  -1
M  END
