1,2,3,4
q = -2.0, confidence = 0.856

 34 33  0  0  1  0  0  0  0  0999 V2000
    0.5839    1.1598   -1.5427 O   0  5  0  0  0  0  0  0  0  0  0  0
    0.0499   -1.2615   -0.9108 O   0  5  0  0  0  0  0  0  0  0  0  0
   -0.1001    1.9984    1.0809 N   0  0  0  0  0  2  0  0  0  0  0  0
   -0.6442   -0.4571    1.6930 N   0  0  0  0  0  2  0  0  0  0  0  0
    1.0075    2.3743   -1.6466 C   0  0  0  0  0  0  0  0  0  0  0  0
    1.5616    2.7246   -3.0058 C   0  0  0  0  0  0  0  0  0  0  0  0
    0.9657    3.3392   -0.6272 C   0  0  0  0  0  0  0  0  0  0  0  0
    0.4143    3.1539    0.6721 C   0  0  1  0  0  3  0  0  0  0  0  0
    0.4021    4.3385    1.6099 C   0  0  0  0  0  0  0  0  0  0  0  0
   -0.6598    1.8515    2.4234 C   0  0  0  0  0  0  0  0  0  0  0  0
   -1.3668    0.5006    2.5175 C   0  0  0  0  0  0  0  0  0  0  0  0
   -0.6410   -1.7668    1.9266 C   0  0  1  0  0  3  0  0  0  0  0  0
   -1.2466   -2.3072    3.2011 C   0  0  0  0  0  0  0  0  0  0  0  0
   -0.1399   -2.7072    0.9846 C   0  0  0  0  0  0  0  0  0  0  0  0
    0.1466   -2.4286   -0.3613 C   0  0  0  0  0  0  0  0  0  0  0  0
    0.6041   -3.5159   -1.2976 C   0  0  0  0  0  0  0  0  0  0  0  0
    0.7920    2.5355   -3.7814 H   0  0  0  0  0  0  0  0  0  0  0  0
    1.8953    3.7757   -3.0688 H   0  0  0  0  0  0  0  0  0  0  0  0
    2.4136    2.0541   -3.2408 H   0  0  0  0  0  0  0  0  0  0  0  0
    1.3638    4.3347   -0.8587 H   0  0  0  0  0  0  0  0  0  0  0  0
    0.8919    5.2147    1.1511 H   0  0  0  0  0  0  0  0  0  0  0  0
    0.9254    4.1027    2.5595 H   0  0  0  0  0  0  0  0  0  0  0  0
   -0.6351    4.6258    1.8814 H   0  0  0  0  0  0  0  0  0  0  0  0
   -1.3724    2.6689    2.6634 H   0  0  0  0  0  0  0  0  0  0  0  0
    0.1478    1.9178    3.1907 H   0  0  0  0  0  0  0  0  0  0  0  0
   -1.4354    0.1774    3.5754 H   0  0  0  0  0  0  0  0  0  0  0  0
   -2.4140    0.5950    2.1485 H   0  0  0  0  0  0  0  0  0  0  0  0
   -1.0092   -3.3787    3.3208 H   0  0  0  0  0  0  0  0  0  0  0  0
   -0.8921   -1.7661    4.1010 H   0  0  0  0  0  0  0  0  0  0  0  0
   -2.3525   -2.2098    3.1619 H   0  0  0  0  0  0  0  0  0  0  0  0
   -0.0743   -3.7528    1.3090 H   0  0  0  0  0  0  0  0  0  0  0  0
    1.6536   -3.3067   -1.6008 H   0  0  0  0  0  0  0  0  0  0  0  0
   -0.0032   -3.4932   -2.2242 H   0  0  0  0  0  0  0  0  0  0  0  0
    0.5467   -4.5193   -0.8393 H   0  0  0  0  0  0  0  0  0  0  0  0
  2 15  1  0  0  0  0
  3 10  1  0  0  0  0
  4 12  1  0  0  0  0
  4 11  1  0  0  0  0
  5  1  1  0  0  0  0
  5  7  2  0  0  0  0
  6  5  1  0  0  0  0
  8  7  1  6  0  0  0
  8  3  1  0  0  0  0
  8  9  1  0  0  0  0
  9 23  1  0  0  0  0
  9 22  1  0  0  0  0
 10 11  1  0  0  0  0
 10 24  1  0  0  0  0
 10 25  1  0  0  0  0
 11 26  1  0  0  0  0
 12 14  1  6  0  0  0
 12 13  1  0  0  0  0
 13 28  1  0  0  0  0
 13 29  1  0  0  0  0
 14 31  1  0  0  0  0
 15 14  2  0  0  0  0
 16 34  1  0  0  0  0
 16 15  1  0  0  0  0
 17  6  1  0  0  0  0
 18  6  1  0  0  0  0
 19  6  1  0  0  0  0
 20  7  1  0  0  0  0
 21  9  1  0  0  0  0
 27 11  1  0  0  0  0
 30 13  1  0  0  0  0
 32 16  1  0  0  0  0
 33 16  1  0  0  0  0
M  CHG  2   1  -1   2  -1
M  END
