1,2,4,6
q = -1.0, confidence = 0.12

 29 30  0  0  0  0  0  0  0  0999 V2000
    1.3995    0.0019   -1.7104 O   0  5  0  0  0  0  0  0  0  0  0  0
   -1.3990   -0.0030   -1.7108 O   0  5  0  0  0  0  0  0  0  0  0  0
    1.2330    0.0033    2.1820 N   0  0  0  0  0  0  0  0  0  0  0  0
    1.3601    0.0024    0.9009 N   0  0  0  0  0  2  0  0  0  0  0  0
   -1.2336    0.0016    2.1817 N   0  0  0  0  0  2  0  0  0  0  0  0
   -1.3604   -0.0002    0.9006 N   0  0  0  0  0  2  0  0  0  0  0  0
   -0.0007    0.0068    5.3699 N   0  0  0  0  0  0  0  0  0  0  0  0
   -0.0003    0.0032    2.7571 C   0  0  0  0  0  0  0  0  0  0  0  0
   -0.0005    0.0049    4.1952 C   0  0  0  0  0  0  0  0  0  0  0  0
    2.6306    0.0019    0.3151 C   0  0  0  0  0  0  0  0  0  0  0  0
    2.5763    0.0017   -1.1189 C   0  0  0  0  0  0  0  0  0  0  0  0
    3.8061    0.0013   -1.8287 C   0  0  0  0  0  0  0  0  0  0  0  0
    3.7742    0.0012   -2.9279 H   0  0  0  0  0  0  0  0  0  0  0  0
    5.0153    0.0012   -1.1294 C   0  0  0  0  0  0  0  0  0  0  0  0
    5.9617    0.0008   -1.6922 H   0  0  0  0  0  0  0  0  0  0  0  0
    5.0477    0.0014    0.2861 C   0  0  0  0  0  0  0  0  0  0  0  0
    6.0126    0.0012    0.8140 H   0  0  0  0  0  0  0  0  0  0  0  0
    3.8560    0.0018    1.0131 C   0  0  0  0  0  0  0  0  0  0  0  0
    3.8382    0.0020    2.1119 H   0  0  0  0  0  0  0  0  0  0  0  0
   -2.6306   -0.0028    0.3145 C   0  0  0  0  0  0  0  0  0  0  0  0
   -2.5760   -0.0043   -1.1195 C   0  0  0  0  0  0  0  0  0  0  0  0
   -3.8056   -0.0071   -1.8296 C   0  0  0  0  0  0  0  0  0  0  0  0
   -3.7734   -0.0083   -2.9289 H   0  0  0  0  0  0  0  0  0  0  0  0
   -5.0150   -0.0082   -1.1307 C   0  0  0  0  0  0  0  0  0  0  0  0
   -5.9613   -0.0104   -1.6937 H   0  0  0  0  0  0  0  0  0  0  0  0
   -5.0478   -0.0066    0.2848 C   0  0  0  0  0  0  0  0  0  0  0  0
   -6.0128   -0.0076    0.8124 H   0  0  0  0  0  0  0  0  0  0  0  0
   -3.8562   -0.0039    1.0121 C   0  0  0  0  0  0  0  0  0  0  0  0
   -3.8388   -0.0027    2.1109 H   0  0  0  0  0  0  0  0  0  0  0  0
  1 11  1  0  0  0  0
  2 21  1  0  0  0  0
  3  8  2  0  0  0  0
  4  3  1  0  0  0  0
  5  8  1  0  0  0  0
  6  5  1  0  0  0  0
  8  9  1  0  0  0  0
  9  7  3  0  0  0  0
 10  4  1  0  0  0  0
 10 18  1  0  0  0  0
 11 10  2  0  0  0  0
 12 14  2  0  0  0  0
 12 11  1  0  0  0  0
 13 12  1  0  0  0  0
 14 16  1  0  0  0  0
 15 14  1  0  0  0  0
 16 17  1  0  0  0  0
 16 18  2  0  0  0  0
 18 19  1  0  0  0  0
 20  6  1  0  0  0  0
 20 28  1  0  0  0  0
 21 20  2  0  0  0  0
 22 24  2  0  0  0  0
 22 21  1  0  0  0  0
 23 22  1  0  0  0  0
 24 26  1  0  0  0  0
 25 24  1  0  0  0  0
 26 27  1  0  0  0  0
 26 28  2  0  0  0  0
 28 29  1  0  0  0  0
M  CHG  2   1  -1   2  -1
M  END
