1,2,5,6
q = -2.0, confidence = 0.836

 51 52  0  0  1  0  0  0  0  0999 V2000
   -1.2447   -1.5229   -0.0025 O   0  5  0  0  0  0  0  0  0  0  0  0
    1.2446   -1.5230    0.0037 O   0  0  0  0  0  1  0  0  0  0  0  0
   -6.7764   -1.4427    0.1576 O   0  0  0  0  0  0  0  0  0  0  0  0
    6.7763   -1.4427   -0.1589 O   0  0  0  0  0  0  0  0  0  0  0  0
   -1.2516    1.1547   -0.4979 N   0  0  0  0  0  2  0  0  0  0  0  0
    1.2518    1.1548    0.4980 N   0  0  0  0  0  2  0  0  0  0  0  0
   -2.5387   -1.4193    0.0279 C   0  0  0  0  0  0  0  0  0  0  0  0
   -3.3176   -2.6003    0.2656 C   0  0  0  0  0  0  0  0  0  0  0  0
   -2.7680   -3.5392    0.4234 H   0  0  0  0  0  0  0  0  0  0  0  0
   -4.6998   -2.5599    0.3069 C   0  0  0  0  0  0  0  0  0  0  0  0
   -5.2877   -3.4697    0.5013 H   0  0  0  0  0  0  0  0  0  0  0  0
   -5.4126   -1.3443    0.0939 C   0  0  0  0  0  0  0  0  0  0  0  0
   -4.6972   -0.1796   -0.1634 C   0  0  0  0  0  3  0  0  0  0  0  0
   -5.2082    0.7761   -0.3472 H   0  0  0  0  0  0  0  0  0  0  0  0
   -3.2670   -0.1945   -0.1929 C   0  0  0  0  0  0  0  0  0  0  0  0
   -2.5592    0.9927   -0.5375 C   0  0  0  0  0  0  0  0  0  0  0  0
   -3.1591    1.8473   -0.9118 H   0  0  0  0  0  0  0  0  0  0  0  0
   -7.5250   -0.2680   -0.0574 C   0  0  0  0  0  0  0  0  0  0  0  0
   -8.5914   -0.5471    0.0361 H   0  0  0  0  0  0  0  0  0  0  0  0
   -7.3518    0.1583   -1.0730 H   0  0  0  0  0  0  0  0  0  0  0  0
   -7.2911    0.5202    0.6958 H   0  0  0  0  0  0  0  0  0  0  0  0
   -0.6843    2.3783   -1.0561 C   0  0  0  0  0  0  0  0  0  0  0  0
   -1.4709    2.9631   -1.5819 H   0  0  0  0  0  0  0  0  0  0  0  0
    0.0654    2.0844   -1.8194 H   0  0  0  0  0  0  0  0  0  0  0  0
    0.0000    3.2792    0.0000 C   0  0  0  0  0  0  0  0  0  0  0  0
    2.5386   -1.4194   -0.0273 C   0  0  2  0  0  3  0  0  0  0  0  0
    3.3175   -2.6004   -0.2651 C   0  0  0  0  0  0  0  0  0  0  0  0
    2.7678   -3.5393   -0.4225 H   0  0  0  0  0  0  0  0  0  0  0  0
    4.6997   -2.5599   -0.3071 C   0  0  0  0  0  0  0  0  0  0  0  0
    5.2875   -3.4698   -0.5015 H   0  0  0  0  0  0  0  0  0  0  0  0
    5.4125   -1.3443   -0.0946 C   0  0  0  0  0  0  0  0  0  0  0  0
    4.6972   -0.1795    0.1627 C   0  0  0  0  0  0  0  0  0  0  0  0
    5.2082    0.7763    0.3460 H   0  0  0  0  0  0  0  0  0  0  0  0
    3.2670   -0.1945    0.1928 C   0  0  0  0  0  0  0  0  0  0  0  0
    2.5593    0.9928    0.5375 C   0  0  0  0  0  0  0  0  0  0  0  0
    3.1593    1.8474    0.9115 H   0  0  0  0  0  0  0  0  0  0  0  0
    7.5251   -0.2683    0.0567 C   0  0  0  0  0  0  0  0  0  0  0  0
    8.5914   -0.5475   -0.0364 H   0  0  0  0  0  0  0  0  0  0  0  0
    7.3515    0.1578    1.0724 H   0  0  0  0  0  0  0  0  0  0  0  0
    7.2917    0.5203   -0.6963 H   0  0  0  0  0  0  0  0  0  0  0  0
    0.6845    2.3784    1.0562 C   0  0  0  0  0  0  0  0  0  0  0  0
    1.4711    2.9633    1.5818 H   0  0  0  0  0  0  0  0  0  0  0  0
   -0.0651    2.0846    1.8197 H   0  0  0  0  0  0  0  0  0  0  0  0
   -1.0414    4.1535    0.7147 C   0  0  0  0  0  0  0  0  0  0  0  0
   -0.5811    4.7197    1.5508 H   0  0  0  0  0  0  0  0  0  0  0  0
   -1.8590    3.5338    1.1375 H   0  0  0  0  0  0  0  0  0  0  0  0
   -1.4900    4.8894    0.0166 H   0  0  0  0  0  0  0  0  0  0  0  0
    1.0413    4.1536   -0.7147 C   0  0  0  0  0  0  0  0  0  0  0  0
    1.4898    4.8895   -0.0166 H   0  0  0  0  0  0  0  0  0  0  0  0
    0.5810    4.7197   -1.5508 H   0  0  0  0  0  0  0  0  0  0  0  0
    1.8590    3.5340   -1.1375 H   0  0  0  0  0  0  0  0  0  0  0  0
  1  7  1  0  0  0  0
  4 31  1  0  0  0  0
  4 37  1  0  0  0  0
  6 35  1  0  0  0  0
  6 41  1  0  0  0  0
  7  8  2  0  0  0  0
  8 10  1  0  0  0  0
  8  9  1  0  0  0  0
 10 11  1  0  0  0  0
 12  3  1  0  0  0  0
 12 10  2  0  0  0  0
 13 12  1  0  0  0  0
 14 13  1  0  0  0  0
 15 13  1  0  0  0  0
 15  7  1  0  0  0  0
 16  5  1  0  0  0  0
 16 15  2  0  0  0  0
 17 16  1  0  0  0  0
 18 19  1  0  0  0  0
 18  3  1  0  0  0  0
 18 21  1  0  0  0  0
 20 18  1  0  0  0  0
 22  5  1  0  0  0  0
 22 25  1  0  0  0  0
 23 22  1  0  0  0  0
 24 22  1  0  0  0  0
 25 44  1  0  0  0  0
 25 41  1  0  0  0  0
 26  2  1  1  0  0  0
 26 34  1  0  0  0  0
 27 26  1  0  0  0  0
 28 27  1  0  0  0  0
 29 27  2  0  0  0  0
 29 31  1  0  0  0  0
 30 29  1  0  0  0  0
 31 32  2  0  0  0  0
 32 34  1  0  0  0  0
 32 33  1  0  0  0  0
 34 35  2  0  0  0  0
 35 36  1  0  0  0  0
 37 39  1  0  0  0  0
 38 37  1  0  0  0  0
 40 37  1  0  0  0  0
 41 42  1  0  0  0  0
 41 43  1  0  0  0  0
 44 46  1  0  0  0  0
 44 45  1  0  0  0  0
 47 44  1  0  0  0  0
 48 49  1  0  0  0  0
 48 25  1  0  0  0  0
 50 48  1  0  0  0  0
 51 48  1  0  0  0  0
M  CHG  1   1  -1
M  END
