1,2,9,10
q = -2.0, confidence = 0.854

 44 44  0  0  0  0  0  0  0  0999 V2000
   -1.3206   -1.9618    0.7866 O   0  5  0  0  0  0  0  0  0  0  0  0
    1.3429   -1.9475    0.7850 O   0  5  0  0  0  0  0  0  0  0  0  0
   -5.4299   -1.8502   -0.0076 O   0  0  0  0  0  0  0  0  0  0  0  0
    5.4491   -1.7924   -0.0125 O   0  0  0  0  0  0  0  0  0  0  0  0
   -1.3007    5.5131   -1.1768 O   0  0  0  0  0  0  0  0  0  0  0  0
   -2.2700    5.4336   -1.1321 H   0  0  0  0  0  0  0  0  0  0  0  0
    1.3604    5.4671   -1.1742 O   0  0  0  0  0  0  0  0  0  0  0  0
    0.6746    6.1545   -1.3041 H   0  0  0  0  0  0  0  0  0  0  0  0
   -1.2918    0.6462   -0.1924 N   0  0  0  0  0  2  0  0  0  0  0  0
    1.2861    0.6595   -0.1939 N   0  0  0  0  0  2  0  0  0  0  0  0
   -2.5801   -1.9410    0.5789 C   0  0  0  0  0  0  0  0  0  0  0  0
   -3.2723   -0.8068    0.0015 C   0  0  0  0  0  0  0  0  0  0  0  0
   -2.5880    0.4050   -0.3172 C   0  0  0  0  0  3  0  0  0  0  0  0
   -3.2112    1.2308   -0.6990 H   0  0  0  0  0  0  0  0  0  0  0  0
   -0.7203    1.9060   -0.4505 C   0  0  0  0  0  0  0  0  0  0  0  0
   -1.4237    3.1079   -0.6925 C   0  0  0  0  0  0  0  0  0  0  0  0
   -2.5238    3.1301   -0.6681 H   0  0  0  0  0  0  0  0  0  0  0  0
   -0.7232    4.2890   -0.9424 C   0  0  0  0  0  0  0  0  0  0  0  0
    0.6990    4.3019   -0.9485 C   0  0  0  0  0  0  0  0  0  0  0  0
    1.3996    3.1183   -0.7007 C   0  0  0  0  0  0  0  0  0  0  0  0
    2.4964    3.1675   -0.6873 H   0  0  0  0  0  0  0  0  0  0  0  0
    0.7042    1.9154   -0.4537 C   0  0  0  0  0  0  0  0  0  0  0  0
    2.5857    0.4340   -0.3164 C   0  0  0  0  0  3  0  0  0  0  0  0
    3.1989    1.2698   -0.6919 H   0  0  0  0  0  0  0  0  0  0  0  0
    3.2818   -0.7705   -0.0002 C   0  0  0  0  0  0  0  0  0  0  0  0
    2.6019   -1.9128    0.5758 C   0  0  0  0  0  0  0  0  0  0  0  0
   -3.3014   -3.1969    0.9973 C   0  0  0  0  0  0  0  0  0  0  0  0
   -3.7990   -3.6724    0.1296 H   0  0  0  0  0  0  0  0  0  0  0  0
   -4.1239   -2.9785    1.7047 H   0  0  0  0  0  0  0  0  0  0  0  0
   -2.5608   -3.8828    1.4490 H   0  0  0  0  0  0  0  0  0  0  0  0
   -4.7292   -0.8645   -0.2616 C   0  0  0  0  0  0  0  0  0  0  0  0
   -5.4156    0.3566   -0.8895 C   0  0  0  0  0  0  0  0  0  0  0  0
   -4.9828    0.6196   -1.8765 H   0  0  0  0  0  0  0  0  0  0  0  0
   -5.3423    1.2554   -0.2424 H   0  0  0  0  0  0  0  0  0  0  0  0
   -6.4817    0.0999   -1.0210 H   0  0  0  0  0  0  0  0  0  0  0  0
    3.3365   -3.1614    0.9928 C   0  0  0  0  0  0  0  0  0  0  0  0
    2.6037   -3.8552    1.4451 H   0  0  0  0  0  0  0  0  0  0  0  0
    4.1578   -2.9345    1.6989 H   0  0  0  0  0  0  0  0  0  0  0  0
    3.8380   -3.6308    0.1241 H   0  0  0  0  0  0  0  0  0  0  0  0
    4.7406   -0.8116   -0.2631 C   0  0  0  0  0  0  0  0  0  0  0  0
    5.4138    0.4187   -0.8844 C   0  0  0  0  0  0  0  0  0  0  0  0
    5.3297    1.3142   -0.2342 H   0  0  0  0  0  0  0  0  0  0  0  0
    4.9785    0.6822   -1.8701 H   0  0  0  0  0  0  0  0  0  0  0  0
    6.4827    0.1747   -1.0167 H   0  0  0  0  0  0  0  0  0  0  0  0
  5  6  1  0  0  0  0
  5 18  1  0  0  0  0
  7 19  1  0  0  0  0
  8  7  1  0  0  0  0
 11  1  1  0  0  0  0
 11 27  1  0  0  0  0
 12 11  2  0  0  0  0
 13  9  1  0  0  0  0
 13 12  1  0  0  0  0
 14 13  1  0  0  0  0
 15  9  1  0  0  0  0
 16 17  1  0  0  0  0
 16 15  2  0  0  0  0
 18 16  1  0  0  0  0
 19 18  2  0  0  0  0
 19 20  1  0  0  0  0
 20 21  1  0  0  0  0
 20 22  2  0  0  0  0
 22 15  1  0  0  0  0
 22 10  1  0  0  0  0
 23 10  1  0  0  0  0
 23 25  1  0  0  0  0
 24 23  1  0  0  0  0
 25 26  2  0  0  0  0
 26  2  1  0  0  0  0
 26 36  1  0  0  0  0
 27 30  1  0  0  0  0
 27 29  1  0  0  0  0
 28 27  1  0  0  0  0
 31  3  2  0  0  0  0
 31 12  1  0  0  0  0
 32 31  1  0  0  0  0
 32 34  1  0  0  0  0
 33 32  1  0  0  0  0
 35 32  1  0  0  0  0
 36 37  1  0  0  0  0
 36 38  1  0  0  0  0
 39 36  1  0  0  0  0
 40  4  2  0  0  0  0
 40 25  1  0  0  0  0
 41 40  1  0  0  0  0
 41 42  1  0  0  0  0
 43 41  1  0  0  0  0
 44 41  1  0  0  0  0
M  CHG  2   1  -1   2  -1
M  END
