1,4,7,8
q = -2.0, confidence = 0.724

 33 33  0  0  0  0  0  0  0  0999 V2000
   -0.2992    1.4179    0.1044 O   0  5  0  0  0  0  0  0  0  0  0  0
   -3.6827   -2.7534    0.6772 O   0  0  0  0  0  0  0  0  0  0  0  0
    3.4423   -2.9463   -0.1506 O   0  0  0  0  0  0  0  0  0  0  0  0
    2.3250    1.7119    0.0194 O   0  5  0  0  0  0  0  0  0  0  0  0
    4.4838    2.3083   -0.0820 O   0  0  0  0  0  0  0  0  0  0  0  0
   -3.8127    1.7970   -0.0764 N   0  0  0  0  0  0  0  0  0  0  0  0
    0.2265   -1.2803    0.0410 N   0  0  0  0  0  2  0  0  0  0  0  0
    2.6829   -0.7646    0.0147 N   0  0  0  0  0  2  0  0  0  0  0  0
   -2.5022    2.1116    0.0388 C   0  0  0  0  0  0  0  0  0  0  0  0
   -1.5269    1.0584    0.0230 C   0  0  0  0  0  0  0  0  0  0  0  0
   -2.0061   -0.3125   -0.0830 C   0  0  0  0  0  0  0  0  0  0  0  0
   -3.4102   -0.5468   -0.2272 C   0  0  0  0  0  0  0  0  0  0  0  0
   -4.2923    0.5243   -0.2123 C   0  0  0  0  0  0  0  0  0  0  0  0
   -2.0699    3.5293    0.1729 C   0  0  0  0  0  0  0  0  0  0  0  0
   -1.0821   -1.4119   -0.0386 C   0  0  0  0  0  0  0  0  0  0  0  0
   -3.9739   -1.9330   -0.4438 C   0  0  0  0  0  0  0  0  0  0  0  0
    1.0580   -2.4841    0.1053 C   0  0  0  0  0  0  0  0  0  0  0  0
    2.5447   -2.1081   -0.0400 C   0  0  0  0  0  0  0  0  0  0  0  0
    3.9412   -0.0658   -0.0807 C   0  0  0  0  0  0  0  0  0  0  0  0
    3.6262    1.4407   -0.0473 C   0  0  0  0  0  0  0  0  0  0  0  0
   -3.9525   -3.6630    0.4540 H   0  0  0  0  0  0  0  0  0  0  0  0
   -4.4844    2.5704   -0.0605 H   0  0  0  0  0  0  0  0  0  0  0  0
   -5.3797    0.4143   -0.3064 H   0  0  0  0  0  0  0  0  0  0  0  0
   -1.5087   -2.4300   -0.0182 H   0  0  0  0  0  0  0  0  0  0  0  0
   -3.5296   -2.3461   -1.3835 H   0  0  0  0  0  0  0  0  0  0  0  0
   -5.0727   -1.8463   -0.6210 H   0  0  0  0  0  0  0  0  0  0  0  0
    0.7682   -3.2180   -0.6763 H   0  0  0  0  0  0  0  0  0  0  0  0
    0.9208   -2.9816    1.0905 H   0  0  0  0  0  0  0  0  0  0  0  0
    4.6314   -0.3172    0.7556 H   0  0  0  0  0  0  0  0  0  0  0  0
    4.4925   -0.3077   -1.0173 H   0  0  0  0  0  0  0  0  0  0  0  0
   -2.9226    4.2357    0.1697 H   0  0  0  0  0  0  0  0  0  0  0  0
   -1.3682    3.7899   -0.6465 H   0  0  0  0  0  0  0  0  0  0  0  0
   -1.4838    3.6608    1.1060 H   0  0  0  0  0  0  0  0  0  0  0  0
  3 18  2  0  0  0  0
  5 20  2  0  0  0  0
  6 22  1  0  0  0  0
  6  9  1  0  0  0  0
  7 17  1  0  0  0  0
  9 14  1  0  0  0  0
 10  9  2  0  0  0  0
 10  1  1  0  0  0  0
 11 15  2  0  0  0  0
 11 10  1  0  0  0  0
 12 13  2  0  0  0  0
 12 11  1  0  0  0  0
 13  6  1  0  0  0  0
 14 33  1  0  0  0  0
 15 24  1  0  0  0  0
 15  7  1  0  0  0  0
 16 12  1  0  0  0  0
 16  2  1  0  0  0  0
 17 28  1  0  0  0  0
 18  8  1  0  0  0  0
 18 17  1  0  0  0  0
 19 20  1  0  0  0  0
 19  8  1  0  0  0  0
 19 29  1  0  0  0  0
 20  4  1  0  0  0  0
 21  2  1  0  0  0  0
 23 13  1  0  0  0  0
 25 16  1  0  0  0  0
 26 16  1  0  0  0  0
 27 17  1  0  0  0  0
 30 19  1  0  0  0  0
 31 14  1  0  0  0  0
 32 14  1  0  0  0  0
M  CHG  2   1  -1   4  -1
M  END
