1,3,5,6
q = -1.0, confidence = 0.346

 21 20  0  0  0  0  0  0  0  0999 V2000
    1.9411    0.1217    0.3897 O   0  5  0  0  0  0  0  0  0  0  0  0
    3.4148    1.3667   -0.7473 O   0  0  0  0  0  0  0  0  0  0  0  0
   -1.7328   -0.7379   -0.1878 O   0  5  0  0  0  0  0  0  0  0  0  0
   -3.4995    0.2243   -1.1600 O   0  0  0  0  0  0  0  0  0  0  0  0
   -0.1652    1.4181   -0.3249 N   0  0  0  0  0  0  0  0  0  0  0  0
   -0.5270    0.0822    2.0245 N   0  0  0  0  0  2  0  0  0  0  0  0
   -0.1957    2.2003    0.9648 C   0  0  0  0  0  0  0  0  0  0  0  0
   -1.0597    1.4442    1.9479 C   0  0  0  0  0  0  0  0  0  0  0  0
    1.0445    1.7640   -1.1038 C   0  0  0  0  0  0  0  0  0  0  0  0
    2.2692    1.0817   -0.4677 C   0  0  0  0  0  0  0  0  0  0  0  0
   -1.4389    1.4865   -1.0799 C   0  0  0  0  0  0  0  0  0  0  0  0
   -2.3430    0.2706   -0.7991 C   0  0  0  0  0  0  0  0  0  0  0  0
   -1.3631   -0.5150    2.1653 H   0  0  0  0  0  0  0  0  0  0  0  0
   -0.5512    3.2304    0.7520 H   0  0  0  0  0  0  0  0  0  0  0  0
    0.8439    2.2491    1.3410 H   0  0  0  0  0  0  0  0  0  0  0  0
   -2.1301    1.4923    1.6385 H   0  0  0  0  0  0  0  0  0  0  0  0
   -1.0031    1.9320    2.9483 H   0  0  0  0  0  0  0  0  0  0  0  0
    0.9336    1.4025   -2.1458 H   0  0  0  0  0  0  0  0  0  0  0  0
    1.1919    2.8631   -1.1506 H   0  0  0  0  0  0  0  0  0  0  0  0
   -1.2205    1.4928   -2.1664 H   0  0  0  0  0  0  0  0  0  0  0  0
   -1.9880    2.4225   -0.8570 H   0  0  0  0  0  0  0  0  0  0  0  0
  2 10  2  0  0  0  0
  4 12  2  0  0  0  0
  5  7  1  0  0  0  0
  6 13  1  0  0  0  0
  7 15  1  0  0  0  0
  7  8  1  0  0  0  0
  8  6  1  0  0  0  0
  8 17  1  0  0  0  0
  9 10  1  0  0  0  0
  9  5  1  0  0  0  0
 10  1  1  0  0  0  0
 11 21  1  0  0  0  0
 11 12  1  0  0  0  0
 11  5  1  0  0  0  0
 12  3  1  0  0  0  0
 14  7  1  0  0  0  0
 16  8  1  0  0  0  0
 18  9  1  0  0  0  0
 19  9  1  0  0  0  0
 20 11  1  0  0  0  0
M  CHG  2   1  -1   3  -1
M  END
