31,32,33,34
q = -2.0, confidence = 0.864

 34 33  0  0  1  0  0  0  0  0999 V2000
   -5.1499   -0.3058   -0.0898 Br  0  0  0  0  0  0  0  0  0  0  0  0
    5.1499   -0.3059    0.0905 Br  0  0  0  0  0  0  0  0  0  0  0  0
    2.5161   -1.3988    0.0187 C   0  0  2  0  0  3  0  0  0  0  0  0
   -2.6200    1.1021    0.1720 C   0  0  1  0  0  3  0  0  0  0  0  0
    2.6200    1.1021   -0.1721 C   0  0  0  0  0  0  0  0  0  0  0  0
    3.2331   -0.1822   -0.0345 C   0  0  0  0  0  0  0  0  0  0  0  0
   -3.2331   -0.1822    0.0345 C   0  0  0  0  0  0  0  0  0  0  0  0
   -0.6736    2.5451    0.3481 C   0  0  0  0  0  0  0  0  0  0  0  0
   -0.5316    2.7027    1.4433 H   0  0  0  0  0  0  0  0  0  0  0  0
   -1.2907    3.3856   -0.0289 H   0  0  0  0  0  0  0  0  0  0  0  0
   -2.5161   -1.3988   -0.0190 C   0  0  0  0  0  0  0  0  0  0  0  0
   -3.2110   -2.7348   -0.1295 C   0  0  0  0  0  0  0  0  0  0  0  0
   -2.4458   -3.5311   -0.1056 H   0  0  0  0  0  0  0  0  0  0  0  0
   -3.7901   -2.8022   -1.0730 H   0  0  0  0  0  0  0  0  0  0  0  0
   -3.9344   -2.8799    0.6979 H   0  0  0  0  0  0  0  0  0  0  0  0
    0.6736    2.5451   -0.3488 C   0  0  0  0  0  0  0  0  0  0  0  0
    0.5316    2.7023   -1.4441 H   0  0  0  0  0  0  0  0  0  0  0  0
    1.2907    3.3857    0.0280 H   0  0  0  0  0  0  0  0  0  0  0  0
    3.2110   -2.7348    0.1291 C   0  0  0  0  0  0  0  0  0  0  0  0
    2.4457   -3.5311    0.1048 H   0  0  0  0  0  0  0  0  0  0  0  0
    3.7898   -2.8025    1.0728 H   0  0  0  0  0  0  0  0  0  0  0  0
    3.9346   -2.8798   -0.6981 H   0  0  0  0  0  0  0  0  0  0  0  0
    3.4670    2.3313   -0.4137 C   0  0  0  0  0  0  0  0  0  0  0  0
    3.1279    2.8663   -1.3237 H   0  0  0  0  0  0  0  0  0  0  0  0
    4.5287    2.0650   -0.5410 H   0  0  0  0  0  0  0  0  0  0  0  0
    3.3937    3.0424    0.4355 H   0  0  0  0  0  0  0  0  0  0  0  0
   -3.4669    2.3313    0.4140 C   0  0  0  0  0  0  0  0  0  0  0  0
   -3.1274    2.8664    1.3236 H   0  0  0  0  0  0  0  0  0  0  0  0
   -4.5285    2.0649    0.5418 H   0  0  0  0  0  0  0  0  0  0  0  0
   -3.3941    3.0422   -0.4355 H   0  0  0  0  0  0  0  0  0  0  0  0
    1.2925    1.2426   -0.1109 N   0  0  0  0  0  2  0  0  0  0  0  0
   -1.2924    1.2426    0.1105 N   0  0  0  0  0  2  0  0  0  0  0  0
   -1.2346   -1.4617    0.0371 O   0  5  0  0  0  0  0  0  0  0  0  0
    1.2346   -1.4617   -0.0378 O   0  0  0  0  0  1  0  0  0  0  0  0
  1  7  1  0  0  0  0
  3 34  1  6  0  0  0
  3 19  1  0  0  0  0
  4  7  1  1  0  0  0
  4 27  1  0  0  0  0
  5 31  1  0  0  0  0
  5  6  2  0  0  0  0
  6  3  1  0  0  0  0
  6  2  1  0  0  0  0
  8  9  1  0  0  0  0
 10  8  1  0  0  0  0
 11  7  2  0  0  0  0
 11 33  1  0  0  0  0
 12 13  1  0  0  0  0
 12 11  1  0  0  0  0
 12 15  1  0  0  0  0
 14 12  1  0  0  0  0
 16 31  1  0  0  0  0
 16 18  1  0  0  0  0
 16  8  1  0  0  0  0
 17 16  1  0  0  0  0
 19 21  1  0  0  0  0
 20 19  1  0  0  0  0
 22 19  1  0  0  0  0
 23  5  1  0  0  0  0
 23 26  1  0  0  0  0
 24 23  1  0  0  0  0
 25 23  1  0  0  0  0
 27 29  1  0  0  0  0
 27 28  1  0  0  0  0
 30 27  1  0  0  0  0
 32  4  1  0  0  0  0
 32  8  1  0  0  0  0
M  CHG  1  33  -1
M  END
