2,3,5,6
q = -2.0, confidence = 0.938

 50 51  0  0  1  0  0  0  0  0999 V2000
    1.3021   -2.4802   -0.9016 O   0  0  0  0  0  0  0  0  0  0  0  0
    1.2332   -0.0762   -0.0825 O   0  0  0  0  0  1  0  0  0  0  0  0
   -1.2333   -0.0760    0.0838 O   0  5  0  0  0  0  0  0  0  0  0  0
   -1.3032   -2.4798    0.9036 O   0  0  0  0  0  0  0  0  0  0  0  0
    1.2846    2.6532   -0.0318 N   0  0  0  0  0  2  0  0  0  0  0  0
   -1.2842    2.6533    0.0323 N   0  0  0  0  0  2  0  0  0  0  0  0
    2.5704   -2.4875   -0.4692 C   0  0  0  0  0  0  0  0  0  0  0  0
    3.2768   -3.7120   -0.5291 C   0  0  0  0  0  0  0  0  0  0  0  0
    4.5977   -3.7977   -0.0918 C   0  0  0  0  0  0  0  0  0  0  0  0
    5.2561   -2.6600    0.4186 C   0  0  0  0  0  0  0  0  0  0  0  0
    4.5764   -1.4431    0.4668 C   0  0  0  0  0  0  0  0  0  0  0  0
    3.2369   -1.3157    0.0233 C   0  0  0  0  0  0  0  0  0  0  0  0
    2.5366   -0.0139    0.0314 C   0  0  1  0  0  3  0  0  0  0  0  0
    3.2228    1.2076    0.1008 C   0  0  0  0  0  0  0  0  0  0  0  0
    2.6077    2.4806    0.0086 C   0  0  0  0  0  0  0  0  0  0  0  0
    3.5202    3.6865   -0.0742 C   0  0  0  0  0  0  0  0  0  0  0  0
    0.6977    3.9632   -0.2984 C   0  0  0  0  0  0  0  0  0  0  0  0
   -0.6972    3.9631    0.2997 C   0  0  0  0  0  0  0  0  0  0  0  0
   -3.5197    3.6869    0.0726 C   0  0  0  0  0  0  0  0  0  0  0  0
   -2.6073    2.4809   -0.0094 C   0  0  2  0  0  3  0  0  0  0  0  0
   -3.2224    1.2079   -0.1021 C   0  0  0  0  0  0  0  0  0  0  0  0
   -2.5364   -0.0136   -0.0315 C   0  0  0  0  0  0  0  0  0  0  0  0
   -3.2370   -1.3153   -0.0236 C   0  0  0  0  0  0  0  0  0  0  0  0
   -4.5761   -1.4427   -0.4683 C   0  0  0  0  0  0  0  0  0  0  0  0
   -5.2559   -2.6595   -0.4204 C   0  0  0  0  0  0  0  0  0  0  0  0
   -4.5982   -3.7971    0.0909 C   0  0  0  0  0  0  0  0  0  0  0  0
   -3.2776   -3.7115    0.5295 C   0  0  0  0  0  0  0  0  0  0  0  0
   -2.5711   -2.4871    0.4699 C   0  0  0  0  0  0  0  0  0  0  0  0
    0.9463   -1.5666   -0.6977 H   0  0  0  0  0  0  0  0  0  0  0  0
   -0.9471   -1.5663    0.6997 H   0  0  0  0  0  0  0  0  0  0  0  0
    2.7388   -4.5871   -0.9210 H   0  0  0  0  0  0  0  0  0  0  0  0
    5.1228   -4.7642   -0.1381 H   0  0  0  0  0  0  0  0  0  0  0  0
    6.2916   -2.7296    0.7819 H   0  0  0  0  0  0  0  0  0  0  0  0
    5.0831   -0.5606    0.8837 H   0  0  0  0  0  0  0  0  0  0  0  0
    4.3169    1.1865    0.1415 H   0  0  0  0  0  0  0  0  0  0  0  0
    3.3130    4.4127    0.7390 H   0  0  0  0  0  0  0  0  0  0  0  0
    4.5781    3.3799    0.0029 H   0  0  0  0  0  0  0  0  0  0  0  0
    3.3892    4.2267   -1.0350 H   0  0  0  0  0  0  0  0  0  0  0  0
    1.2986    4.7937    0.1253 H   0  0  0  0  0  0  0  0  0  0  0  0
    0.6355    4.1275   -1.4001 H   0  0  0  0  0  0  0  0  0  0  0  0
   -0.6350    4.1266    1.4014 H   0  0  0  0  0  0  0  0  0  0  0  0
   -1.2980    4.7939   -0.1234 H   0  0  0  0  0  0  0  0  0  0  0  0
   -4.5776    3.3805   -0.0060 H   0  0  0  0  0  0  0  0  0  0  0  0
   -3.3899    4.2268    1.0337 H   0  0  0  0  0  0  0  0  0  0  0  0
   -3.3115    4.4133   -0.7402 H   0  0  0  0  0  0  0  0  0  0  0  0
   -4.3166    1.1870   -0.1439 H   0  0  0  0  0  0  0  0  0  0  0  0
   -5.0823   -0.5603   -0.8859 H   0  0  0  0  0  0  0  0  0  0  0  0
   -6.2911   -2.7291   -0.7845 H   0  0  0  0  0  0  0  0  0  0  0  0
   -5.1234   -4.7636    0.1371 H   0  0  0  0  0  0  0  0  0  0  0  0
   -2.7402   -4.5865    0.9222 H   0  0  0  0  0  0  0  0  0  0  0  0
  1 29  1  0  0  0  0
  1  7  1  0  0  0  0
  5 15  1  0  0  0  0
  6 18  1  0  0  0  0
  7 12  1  0  0  0  0
  8  7  2  0  0  0  0
  8  9  1  0  0  0  0
  9 10  2  0  0  0  0
 10 11  1  0  0  0  0
 10 33  1  0  0  0  0
 11 34  1  0  0  0  0
 12 13  1  0  0  0  0
 12 11  2  0  0  0  0
 13  2  1  6  0  0  0
 13 14  1  0  0  0  0
 14 35  1  0  0  0  0
 15 14  2  0  0  0  0
 16 37  1  0  0  0  0
 16 15  1  0  0  0  0
 16 36  1  0  0  0  0
 17  5  1  0  0  0  0
 17 39  1  0  0  0  0
 17 18  1  0  0  0  0
 18 41  1  0  0  0  0
 19 44  1  0  0  0  0
 20 21  1  1  0  0  0
 20  6  1  0  0  0  0
 20 19  1  0  0  0  0
 21 22  2  0  0  0  0
 22 23  1  0  0  0  0
 22  3  1  0  0  0  0
 23 28  1  0  0  0  0
 24 25  1  0  0  0  0
 24 23  2  0  0  0  0
 25 26  2  0  0  0  0
 26 49  1  0  0  0  0
 26 27  1  0  0  0  0
 27 50  1  0  0  0  0
 28 27  2  0  0  0  0
 28  4  1  0  0  0  0
 30  4  1  0  0  0  0
 31  8  1  0  0  0  0
 32  9  1  0  0  0  0
 38 16  1  0  0  0  0
 40 17  1  0  0  0  0
 42 18  1  0  0  0  0
 43 19  1  0  0  0  0
 45 19  1  0  0  0  0
 46 21  1  0  0  0  0
 47 24  1  0  0  0  0
 48 25  1  0  0  0  0
M  CHG  1   3  -1
M  END
