3,7,9,10
q = -2.0, confidence = 0.876

 58 58  0  0  0  0  0  0  0  0999 V2000
    5.2505   -1.8618   -0.8961 O   0  0  0  0  0  0  0  0  0  0  0  0
    5.3513    0.3967   -0.7825 O   0  0  0  0  0  0  0  0  0  0  0  0
    1.2375   -1.6934    0.4680 O   0  5  0  0  0  0  0  0  0  0  0  0
    3.0312   -2.9469    0.0139 O   0  0  0  0  0  0  0  0  0  0  0  0
   -4.8109    2.3507   -0.8166 O   0  0  0  0  0  0  0  0  0  0  0  0
   -5.4977    0.2019   -0.7431 O   0  0  0  0  0  0  0  0  0  0  0  0
   -1.7284   -1.1077    0.4662 O   0  5  0  0  0  0  0  0  0  0  0  0
   -3.8521   -1.6025   -0.0209 O   0  0  0  0  0  0  0  0  0  0  0  0
    1.6210    1.1359    0.3125 N   0  0  0  0  0  2  0  0  0  0  0  0
   -1.0033    1.6554    0.3137 N   0  0  0  0  0  2  0  0  0  0  0  0
    1.2580    2.4917    0.3667 C   0  0  0  0  0  0  0  0  0  0  0  0
    2.1703    3.5648    0.4435 C   0  0  0  0  0  0  0  0  0  0  0  0
    3.2496    3.3564    0.4808 H   0  0  0  0  0  0  0  0  0  0  0  0
    1.7173    4.8883    0.4980 C   0  0  0  0  0  0  0  0  0  0  0  0
    2.4449    5.7110    0.5636 H   0  0  0  0  0  0  0  0  0  0  0  0
    0.3383    5.1619    0.4950 C   0  0  0  0  0  0  0  0  0  0  0  0
   -0.0207    6.2001    0.5564 H   0  0  0  0  0  0  0  0  0  0  0  0
   -0.5856    4.1116    0.4390 C   0  0  0  0  0  0  0  0  0  0  0  0
   -1.6627    4.3313    0.4680 H   0  0  0  0  0  0  0  0  0  0  0  0
   -0.1517    2.7717    0.3665 C   0  0  0  0  0  0  0  0  0  0  0  0
    2.8194    0.7311   -0.0722 C   0  0  0  0  0  3  0  0  0  0  0  0
    3.5535    1.4967   -0.3805 H   0  0  0  0  0  0  0  0  0  0  0  0
    3.2977   -0.6041   -0.1769 C   0  0  0  0  0  0  0  0  0  0  0  0
    2.4596   -1.7407    0.1186 C   0  0  0  0  0  0  0  0  0  0  0  0
    4.6937   -0.8058   -0.6452 C   0  0  0  0  0  0  0  0  0  0  0  0
    6.7010    0.3089   -1.2629 C   0  0  0  0  0  0  0  0  0  0  0  0
    6.7071   -0.1993   -2.2514 H   0  0  0  0  0  0  0  0  0  0  0  0
    7.2918   -0.3367   -0.5780 H   0  0  0  0  0  0  0  0  0  0  0  0
    7.2584    1.7165   -1.3426 C   0  0  0  0  0  0  0  0  0  0  0  0
    6.6643    2.3419   -2.0387 H   0  0  0  0  0  0  0  0  0  0  0  0
    8.3047    1.6933   -1.7068 H   0  0  0  0  0  0  0  0  0  0  0  0
    7.2497    2.2045   -0.3474 H   0  0  0  0  0  0  0  0  0  0  0  0
    2.2099   -4.1029    0.2527 C   0  0  0  0  0  0  0  0  0  0  0  0
    1.2916   -4.0360   -0.3686 H   0  0  0  0  0  0  0  0  0  0  0  0
    1.8780   -4.1035    1.3148 H   0  0  0  0  0  0  0  0  0  0  0  0
    3.0451   -5.3233   -0.0777 C   0  0  0  0  0  0  0  0  0  0  0  0
    3.3660   -5.3016   -1.1373 H   0  0  0  0  0  0  0  0  0  0  0  0
    2.4572   -6.2463    0.0956 H   0  0  0  0  0  0  0  0  0  0  0  0
    3.9550   -5.3606    0.5526 H   0  0  0  0  0  0  0  0  0  0  0  0
   -2.2710    1.7349   -0.0461 C   0  0  0  0  0  3  0  0  0  0  0  0
   -2.6919    2.7182   -0.3348 H   0  0  0  0  0  0  0  0  0  0  0  0
   -3.2237    0.6834   -0.1511 C   0  0  0  0  0  0  0  0  0  0  0  0
   -2.8775   -0.6887    0.1154 C   0  0  0  0  0  0  0  0  0  0  0  0
   -4.5595    1.1693   -0.5957 C   0  0  0  0  0  0  0  0  0  0  0  0
   -6.7929    0.6529   -1.1728 C   0  0  0  0  0  0  0  0  0  0  0  0
   -6.6938    1.1830   -2.1444 H   0  0  0  0  0  0  0  0  0  0  0  0
   -7.1810    1.4004   -0.4479 H   0  0  0  0  0  0  0  0  0  0  0  0
   -7.6880   -0.5666   -1.2737 C   0  0  0  0  0  0  0  0  0  0  0  0
   -7.2827   -1.2957   -2.0037 H   0  0  0  0  0  0  0  0  0  0  0  0
   -8.7038   -0.2717   -1.6038 H   0  0  0  0  0  0  0  0  0  0  0  0
   -7.7747   -1.0762   -0.2932 H   0  0  0  0  0  0  0  0  0  0  0  0
   -3.5134   -2.9820    0.1993 C   0  0  0  0  0  0  0  0  0  0  0  0
   -3.2142   -3.1221    1.2616 H   0  0  0  0  0  0  0  0  0  0  0  0
   -2.6297   -3.2485   -0.4185 H   0  0  0  0  0  0  0  0  0  0  0  0
   -4.7354   -3.8060   -0.1541 C   0  0  0  0  0  0  0  0  0  0  0  0
   -5.6022   -3.5158    0.4718 H   0  0  0  0  0  0  0  0  0  0  0  0
   -4.5305   -4.8827    0.0076 H   0  0  0  0  0  0  0  0  0  0  0  0
   -5.0150   -3.6576   -1.2157 H   0  0  0  0  0  0  0  0  0  0  0  0
  1 25  2  0  0  0  0
  2 25  1  0  0  0  0
  4 24  1  0  0  0  0
  4 33  1  0  0  0  0
  5 44  2  0  0  0  0
  6 44  1  0  0  0  0
  8 43  1  0  0  0  0
  8 52  1  0  0  0  0
  9 11  1  0  0  0  0
 10 20  1  0  0  0  0
 11 12  1  0  0  0  0
 12 13  1  0  0  0  0
 12 14  2  0  0  0  0
 14 15  1  0  0  0  0
 16 14  1  0  0  0  0
 16 17  1  0  0  0  0
 18 19  1  0  0  0  0
 18 16  2  0  0  0  0
 20 11  2  0  0  0  0
 20 18  1  0  0  0  0
 21  9  1  0  0  0  0
 22 21  1  0  0  0  0
 23 21  1  0  0  0  0
 23 24  2  0  0  0  0
 24  3  1  0  0  0  0
 25 23  1  0  0  0  0
 26  2  1  0  0  0  0
 26 28  1  0  0  0  0
 27 26  1  0  0  0  0
 29 26  1  0  0  0  0
 29 32  1  0  0  0  0
 30 29  1  0  0  0  0
 31 29  1  0  0  0  0
 33 35  1  0  0  0  0
 34 33  1  0  0  0  0
 36 38  1  0  0  0  0
 36 33  1  0  0  0  0
 36 39  1  0  0  0  0
 37 36  1  0  0  0  0
 40 10  1  0  0  0  0
 41 40  1  0  0  0  0
 42 40  1  0  0  0  0
 42 43  2  0  0  0  0
 43  7  1  0  0  0  0
 44 42  1  0  0  0  0
 45  6  1  0  0  0  0
 45 47  1  0  0  0  0
 46 45  1  0  0  0  0
 48 45  1  0  0  0  0
 48 51  1  0  0  0  0
 49 48  1  0  0  0  0
 50 48  1  0  0  0  0
 52 53  1  0  0  0  0
 54 52  1  0  0  0  0
 55 57  1  0  0  0  0
 55 52  1  0  0  0  0
 55 56  1  0  0  0  0
 58 55  1  0  0  0  0
M  CHG  2   3  -1   7  -1
M  END
