1,3,5,7
q = -2.0, confidence = 0.786

 25 24  0  0  0  0  0  0  0  0999 V2000
    1.5007   -1.6200   -0.0609 O   0  5  0  0  0  0  0  0  0  0  0  0
    3.7280   -1.8118    0.2376 O   0  0  0  0  0  0  0  0  0  0  0  0
   -1.5008   -1.6199   -0.0613 O   0  5  0  0  0  0  0  0  0  0  0  0
   -3.7281   -1.8117    0.2375 O   0  0  0  0  0  0  0  0  0  0  0  0
    1.5843    1.0631   -0.2374 N   0  0  0  0  0  0  0  0  0  0  0  0
    1.7772    1.1619   -1.2477 H   0  0  0  0  0  0  0  0  0  0  0  0
   -1.5843    1.0632   -0.2371 N   0  0  0  0  0  0  0  0  0  0  0  0
   -1.7773    1.1620   -1.2474 H   0  0  0  0  0  0  0  0  0  0  0  0
    2.7108   -1.1453    0.1587 C   0  0  0  0  0  0  0  0  0  0  0  0
    2.7641    0.3877    0.3785 C   0  0  0  0  0  0  0  0  0  0  0  0
    2.7240    0.5666    1.4722 H   0  0  0  0  0  0  0  0  0  0  0  0
    3.7188    0.8009   -0.0058 H   0  0  0  0  0  0  0  0  0  0  0  0
    1.2988    2.4133    0.3044 C   0  0  0  0  0  0  0  0  0  0  0  0
    2.1569    3.0841    0.0764 H   0  0  0  0  0  0  0  0  0  0  0  0
    1.2427    2.3152    1.4077 H   0  0  0  0  0  0  0  0  0  0  0  0
    0.0000    3.0238   -0.2333 C   0  0  0  0  0  0  0  0  0  0  0  0
    0.0001    4.0971    0.0476 H   0  0  0  0  0  0  0  0  0  0  0  0
   -0.0001    3.0107   -1.3465 H   0  0  0  0  0  0  0  0  0  0  0  0
   -1.2986    2.4133    0.3047 C   0  0  0  0  0  0  0  0  0  0  0  0
   -1.2424    2.3153    1.4080 H   0  0  0  0  0  0  0  0  0  0  0  0
   -2.1568    3.0841    0.0768 H   0  0  0  0  0  0  0  0  0  0  0  0
   -2.7641    0.3877    0.3788 C   0  0  0  0  0  0  0  0  0  0  0  0
   -3.7187    0.8011   -0.0053 H   0  0  0  0  0  0  0  0  0  0  0  0
   -2.7238    0.5663    1.4725 H   0  0  0  0  0  0  0  0  0  0  0  0
   -2.7109   -1.1451    0.1584 C   0  0  0  0  0  0  0  0  0  0  0  0
  1  9  1  0  0  0  0
  3 25  1  0  0  0  0
  5 13  1  0  0  0  0
  5 10  1  0  0  0  0
  6  5  1  0  0  0  0
  7 19  1  0  0  0  0
  7 22  1  0  0  0  0
  8  7  1  0  0  0  0
  9  2  2  0  0  0  0
  9 10  1  0  0  0  0
 10 11  1  0  0  0  0
 12 10  1  0  0  0  0
 13 15  1  0  0  0  0
 14 13  1  0  0  0  0
 16 17  1  0  0  0  0
 16 13  1  0  0  0  0
 16 19  1  0  0  0  0
 18 16  1  0  0  0  0
 19 20  1  0  0  0  0
 21 19  1  0  0  0  0
 22 24  1  0  0  0  0
 23 22  1  0  0  0  0
 25  4  2  0  0  0  0
 25 22  1  0  0  0  0
M  CHG  2   1  -1   3  -1
M  END
