1,2,3,4
q = -2.0, confidence = 0.94

 48 49  0  0  1  0  0  0  0  0999 V2000
    1.3805    0.5257   -0.0759 O   0  0  0  0  0  1  0  0  0  0  0  0
   -1.3796    0.5266    0.0233 O   0  5  0  0  0  0  0  0  0  0  0  0
    1.3313   -2.4086   -0.0744 N   0  0  0  0  0  2  0  0  0  0  0  0
   -1.3285   -2.4086    0.1005 N   0  0  0  0  0  2  0  0  0  0  0  0
    2.6509    0.3073   -0.0398 C   0  0  2  0  0  3  0  0  0  0  0  0
    3.2736   -0.9586   -0.0355 C   0  0  0  0  0  0  0  0  0  0  0  0
    2.6499   -2.2332   -0.0982 C   0  0  0  0  0  0  0  0  0  0  0  0
    0.6936   -3.7029   -0.3047 C   0  0  0  0  0  0  0  0  0  0  0  0
   -0.6897   -3.7010    0.3402 C   0  0  0  0  0  0  0  0  0  0  0  0
   -2.6449   -2.2291    0.1793 C   0  0  2  0  0  3  0  0  0  0  0  0
   -3.2716   -0.9575    0.0961 C   0  0  0  0  0  0  0  0  0  0  0  0
   -2.6503    0.3067    0.0143 C   0  0  0  0  0  0  0  0  0  0  0  0
    3.5524   -3.4453   -0.2094 C   0  0  0  0  0  0  0  0  0  0  0  0
   -3.5392   -3.4351    0.3817 C   0  0  0  0  0  0  0  0  0  0  0  0
    3.4861    1.5513    0.0110 C   0  0  0  0  0  0  0  0  0  0  0  0
    4.8645    1.5693   -0.2966 C   0  0  0  0  0  0  0  0  0  0  0  0
    5.5955    2.7630   -0.2350 C   0  0  0  0  0  0  0  0  0  0  0  0
    4.9640    3.9614    0.1356 C   0  0  0  0  0  0  0  0  0  0  0  0
    3.5917    3.9575    0.4345 C   0  0  0  0  0  0  0  0  0  0  0  0
    2.8589    2.7663    0.3676 C   0  0  0  0  0  0  0  0  0  0  0  0
   -3.4884    1.5475   -0.0584 C   0  0  0  0  0  0  0  0  0  0  0  0
   -4.8571    1.5344   -0.4068 C   0  0  0  0  0  0  0  0  0  0  0  0
   -5.5922    2.7260   -0.4635 C   0  0  0  0  0  0  0  0  0  0  0  0
   -4.9741    3.9532   -0.1733 C   0  0  0  0  0  0  0  0  0  0  0  0
   -3.6112    3.9796    0.1648 C   0  0  0  0  0  0  0  0  0  0  0  0
   -2.8744    2.7901    0.2165 C   0  0  0  0  0  0  0  0  0  0  0  0
    4.3677   -0.9729    0.0249 H   0  0  0  0  0  0  0  0  0  0  0  0
    1.2923   -4.5443    0.1024 H   0  0  0  0  0  0  0  0  0  0  0  0
    0.5904   -3.8721   -1.4026 H   0  0  0  0  0  0  0  0  0  0  0  0
   -0.5869   -3.8651    1.4391 H   0  0  0  0  0  0  0  0  0  0  0  0
   -1.2883   -4.5448   -0.0627 H   0  0  0  0  0  0  0  0  0  0  0  0
   -4.3661   -0.9689    0.1487 H   0  0  0  0  0  0  0  0  0  0  0  0
    3.3813   -3.9848   -1.1644 H   0  0  0  0  0  0  0  0  0  0  0  0
    3.3683   -4.1690    0.6116 H   0  0  0  0  0  0  0  0  0  0  0  0
    4.6150   -3.1475   -0.1719 H   0  0  0  0  0  0  0  0  0  0  0  0
   -4.6024   -3.1378    0.3987 H   0  0  0  0  0  0  0  0  0  0  0  0
   -3.4038   -4.1826   -0.4274 H   0  0  0  0  0  0  0  0  0  0  0  0
   -3.3098   -3.9475    1.3394 H   0  0  0  0  0  0  0  0  0  0  0  0
    5.3712    0.6466   -0.6137 H   0  0  0  0  0  0  0  0  0  0  0  0
    6.6673    2.7587   -0.4857 H   0  0  0  0  0  0  0  0  0  0  0  0
    5.5403    4.8979    0.1848 H   0  0  0  0  0  0  0  0  0  0  0  0
    3.0877    4.8932    0.7213 H   0  0  0  0  0  0  0  0  0  0  0  0
    1.7827    2.7470    0.5899 H   0  0  0  0  0  0  0  0  0  0  0  0
   -5.3522    0.5868   -0.6629 H   0  0  0  0  0  0  0  0  0  0  0  0
   -6.6560    2.6967   -0.7445 H   0  0  0  0  0  0  0  0  0  0  0  0
   -5.5534    4.8881   -0.2172 H   0  0  0  0  0  0  0  0  0  0  0  0
   -3.1176    4.9378    0.3886 H   0  0  0  0  0  0  0  0  0  0  0  0
   -1.8051    2.7938    0.4703 H   0  0  0  0  0  0  0  0  0  0  0  0
  4 10  1  0  0  0  0
  4  9  1  0  0  0  0
  5  1  1  1  0  0  0
  5  6  1  0  0  0  0
  5 15  1  0  0  0  0
  6 27  1  0  0  0  0
  7  3  1  0  0  0  0
  7  6  2  0  0  0  0
  8  3  1  0  0  0  0
  8 28  1  0  0  0  0
  8  9  1  0  0  0  0
  9 30  1  0  0  0  0
 10 11  1  1  0  0  0
 10 14  1  0  0  0  0
 11 32  1  0  0  0  0
 12  2  1  0  0  0  0
 12 11  2  0  0  0  0
 13 35  1  0  0  0  0
 13  7  1  0  0  0  0
 13 34  1  0  0  0  0
 14 36  1  0  0  0  0
 14 38  1  0  0  0  0
 15 20  1  0  0  0  0
 16 17  1  0  0  0  0
 16 15  2  0  0  0  0
 17 18  2  0  0  0  0
 18 41  1  0  0  0  0
 18 19  1  0  0  0  0
 19 42  1  0  0  0  0
 20 19  2  0  0  0  0
 20 43  1  0  0  0  0
 21 12  1  0  0  0  0
 21 26  1  0  0  0  0
 22 21  2  0  0  0  0
 23 22  1  0  0  0  0
 23 24  2  0  0  0  0
 24 25  1  0  0  0  0
 25 26  2  0  0  0  0
 25 47  1  0  0  0  0
 26 48  1  0  0  0  0
 29  8  1  0  0  0  0
 31  9  1  0  0  0  0
 33 13  1  0  0  0  0
 37 14  1  0  0  0  0
 39 16  1  0  0  0  0
 40 17  1  0  0  0  0
 44 22  1  0  0  0  0
 45 23  1  0  0  0  0
 46 24  1  0  0  0  0
M  CHG  1   2  -1
M  END
