3,4,5,6
q = -4.0, confidence = 1.0

 48 51  0  0  0  0  0  0  0  0999 V2000
   -5.7265   -3.3085    0.8416 Cl  0  0  0  0  0  0  0  0  0  0  0  0
    7.7353   -0.4800    1.1605 Cl  0  0  0  0  0  0  0  0  0  0  0  0
   -0.4251   -1.9085   -1.3049 O   0  0  0  0  0  0  0  0  0  0  0  0
    2.1831   -1.6790   -0.4382 O   0  0  0  0  0  0  0  0  0  0  0  0
   -0.8839    0.7051   -0.5049 N   0  0  0  0  0  0  0  0  0  0  0  0
    1.7177    1.1311   -0.3630 N   0  0  0  0  0  0  0  0  0  0  0  0
   -2.4588   -1.1276   -0.2020 C   0  0  0  0  0  0  0  0  0  0  0  0
   -1.6203   -2.1224   -0.8605 C   0  0  0  0  0  0  0  0  0  0  0  0
   -2.1659   -3.4397   -1.0284 C   0  0  0  0  0  0  0  0  0  0  0  0
   -3.4099   -3.7923   -0.5349 C   0  0  0  0  0  0  0  0  0  0  0  0
   -4.1835   -2.8363    0.1713 C   0  0  0  0  0  0  0  0  0  0  0  0
   -3.7173   -1.5421    0.3359 C   0  0  0  0  0  0  0  0  0  0  0  0
   -2.0740    0.2636   -0.1079 C   0  0  0  0  0  0  0  0  0  0  0  0
   -3.0457    1.2361    0.5007 C   0  0  0  0  0  0  0  0  0  0  0  0
   -2.6748    1.9236    1.6708 C   0  0  0  0  0  0  0  0  0  0  0  0
   -3.5460    2.8834    2.2395 C   0  0  0  0  0  0  0  0  0  0  0  0
   -5.1637    2.4659    0.4652 C   0  0  0  0  0  0  0  0  0  0  0  0
   -4.2976    1.4942   -0.0916 C   0  0  0  0  0  0  0  0  0  0  0  0
   -0.4805    2.0414   -0.6665 C   0  0  0  0  0  0  0  0  0  0  0  0
    0.9276    2.2755   -0.5551 C   0  0  0  0  0  0  0  0  0  0  0  0
    1.4386    3.5812   -0.7059 C   0  0  0  0  0  0  0  0  0  0  0  0
    0.5779    4.6465   -0.9862 C   0  0  0  0  0  0  0  0  0  0  0  0
   -0.8009    4.4134   -1.1422 C   0  0  0  0  0  0  0  0  0  0  0  0
   -1.3262    3.1269   -0.9919 C   0  0  0  0  0  0  0  0  0  0  0  0
    3.8313    0.0174    0.1583 C   0  0  0  0  0  0  0  0  0  0  0  0
    3.3861   -1.3442   -0.1094 C   0  0  0  0  0  0  0  0  0  0  0  0
    4.3717   -2.3822    0.0166 C   0  0  0  0  0  0  0  0  0  0  0  0
    5.6744   -2.1177    0.4032 C   0  0  0  0  0  0  0  0  0  0  0  0
    6.0851   -0.7852    0.6786 C   0  0  0  0  0  0  0  0  0  0  0  0
    5.1821    0.2570    0.5564 C   0  0  0  0  0  0  0  0  0  0  0  0
    2.9767    1.1510    0.0227 C   0  0  0  0  0  0  0  0  0  0  0  0
   -1.5331   -4.1679   -1.5550 H   0  0  0  0  0  0  0  0  0  0  0  0
   -3.7976   -4.8133   -0.6642 H   0  0  0  0  0  0  0  0  0  0  0  0
   -4.3292   -0.8243    0.8960 H   0  0  0  0  0  0  0  0  0  0  0  0
   -1.6999    1.7258    2.1442 H   0  0  0  0  0  0  0  0  0  0  0  0
   -3.2385    3.3956    3.1673 H   0  0  0  0  0  0  0  0  0  0  0  0
   -6.1343    2.6572   -0.0235 H   0  0  0  0  0  0  0  0  0  0  0  0
   -4.5970    0.9622   -1.0087 H   0  0  0  0  0  0  0  0  0  0  0  0
    2.5220    3.7569   -0.6460 H   0  0  0  0  0  0  0  0  0  0  0  0
    0.9877    5.6589   -1.1167 H   0  0  0  0  0  0  0  0  0  0  0  0
   -1.4767    5.2434   -1.3952 H   0  0  0  0  0  0  0  0  0  0  0  0
   -2.4003    2.9604   -1.1312 H   0  0  0  0  0  0  0  0  0  0  0  0
    4.0384   -3.4080   -0.1956 H   0  0  0  0  0  0  0  0  0  0  0  0
    6.4052   -2.9338    0.5006 H   0  0  0  0  0  0  0  0  0  0  0  0
    5.5076    1.2881    0.7596 H   0  0  0  0  0  0  0  0  0  0  0  0
    3.4319    2.1310    0.2721 H   0  0  0  0  0  0  0  0  0  0  0  0
   -4.7354    3.1564    1.5869 C   0  0  0  0  0  0  0  0  0  0  0  0
   -5.3232    3.9824    1.9292 H   0  0  0  0  0  0  0  0  0  0  0  0
  1 11  1  0  0  0  0
  2 29  1  0  0  0  0
  3  8  1  0  0  0  0
  4 26  1  0  0  0  0
  5 13  1  0  0  0  0
  5 19  1  0  0  0  0
  6 31  1  0  0  0  0
  6 20  1  0  0  0  0
  7 13  2  0  0  0  0
  7 12  1  0  0  0  0
  7  8  1  0  0  0  0
  8  9  1  0  0  0  0
  9 10  2  0  0  0  0
  9 32  1  0  0  0  0
 10 11  1  0  0  0  0
 10 33  1  0  0  0  0
 11 12  2  0  0  0  0
 12 34  1  0  0  0  0
 13 14  1  0  0  0  0
 14 15  1  0  0  0  0
 14 18  2  0  0  0  0
 15 35  1  0  0  0  0
 15 16  2  0  0  0  0
 16 36  1  0  0  0  0
 16 47  1  0  0  0  0
 17 18  1  0  0  0  0
 17 37  1  0  0  0  0
 17 47  2  0  0  0  0
 18 38  1  0  0  0  0
 19 20  1  0  0  0  0
 19 24  2  0  0  0  0
 20 21  2  0  0  0  0
 21 39  1  0  0  0  0
 21 22  1  0  0  0  0
 22 23  2  0  0  0  0
 22 40  1  0  0  0  0
 23 24  1  0  0  0  0
 23 41  1  0  0  0  0
 24 42  1  0  0  0  0
 25 30  1  0  0  0  0
 25 26  1  0  0  0  0
 25 31  2  0  0  0  0
 26 27  1  0  0  0  0
 27 28  2  0  0  0  0
 27 43  1  0  0  0  0
 28 44  1  0  0  0  0
 28 29  1  0  0  0  0
 29 30  2  0  0  0  0
 30 45  1  0  0  0  0
 31 46  1  0  0  0  0
 47 48  1  0  0  0  0
M  END
