2,3,5,6
q = -2.0, confidence = 0.848

 45 46  0  0  1  0  0  0  0  0999 V2000
   -2.4797    3.0969   -0.0950 O   0  0  0  0  0  0  0  0  0  0  0  0
   -1.2938    0.7875   -0.1357 O   0  0  0  0  0  1  0  0  0  0  0  0
    1.2938    0.7875   -0.1362 O   0  0  0  0  0  1  0  0  0  0  0  0
    2.4796    3.0970   -0.0945 O   0  0  0  0  0  0  0  0  0  0  0  0
   -1.5088   -2.1039   -0.0617 N   0  0  0  0  0  2  0  0  0  0  0  0
    1.5089   -2.1038   -0.0627 N   0  0  0  0  0  2  0  0  0  0  0  0
   -3.0788    4.3730   -0.0685 C   0  0  0  0  0  0  0  0  0  0  0  0
   -3.8096    4.5086   -0.8990 H   0  0  0  0  0  0  0  0  0  0  0  0
   -2.2600    5.1069   -0.1867 H   0  0  0  0  0  0  0  0  0  0  0  0
   -3.6035    4.5678    0.8954 H   0  0  0  0  0  0  0  0  0  0  0  0
   -3.2856    2.0131    0.0330 C   0  0  0  0  0  0  0  0  0  0  0  0
   -4.6699    2.0502    0.1906 C   0  0  0  0  0  0  0  0  0  0  0  0
   -5.1926    3.0161    0.2200 H   0  0  0  0  0  0  0  0  0  0  0  0
   -5.4240    0.8517    0.3158 C   0  0  0  0  0  0  0  0  0  0  0  0
   -6.5152    0.9105    0.4380 H   0  0  0  0  0  0  0  0  0  0  0  0
   -4.7839   -0.3723    0.2801 C   0  0  0  0  0  0  0  0  0  0  0  0
   -5.3575   -1.3080    0.3698 H   0  0  0  0  0  0  0  0  0  0  0  0
   -3.3624   -0.4536    0.1210 C   0  0  0  0  0  0  0  0  0  0  0  0
   -2.5818    0.7449    0.0007 C   0  0  1  0  0  3  0  0  0  0  0  0
   -2.7750   -1.7527    0.0604 C   0  0  0  0  0  0  0  0  0  0  0  0
   -3.4987   -2.5893    0.1128 H   0  0  0  0  0  0  0  0  0  0  0  0
   -1.2663   -3.5425   -0.2059 C   0  0  0  0  0  0  0  0  0  0  0  0
   -1.1940   -3.7830   -1.2917 H   0  0  0  0  0  0  0  0  0  0  0  0
   -2.1457   -4.0947    0.1877 H   0  0  0  0  0  0  0  0  0  0  0  0
    0.0005   -4.0210    0.4873 C   0  0  0  0  0  0  0  0  0  0  0  0
    0.0012   -3.7074    1.5525 H   0  0  0  0  0  0  0  0  0  0  0  0
    0.0005   -5.1306    0.4705 H   0  0  0  0  0  0  0  0  0  0  0  0
    1.2662   -3.5422   -0.2077 C   0  0  0  0  0  0  0  0  0  0  0  0
    2.1462   -4.0947    0.1841 H   0  0  0  0  0  0  0  0  0  0  0  0
    1.1921   -3.7819   -1.2935 H   0  0  0  0  0  0  0  0  0  0  0  0
    2.7752   -1.7526    0.0593 C   0  0  0  0  0  0  0  0  0  0  0  0
    3.4989   -2.5892    0.1111 H   0  0  0  0  0  0  0  0  0  0  0  0
    3.3625   -0.4535    0.1205 C   0  0  0  0  0  0  0  0  0  0  0  0
    4.7840   -0.3722    0.2798 C   0  0  0  0  0  0  0  0  0  0  0  0
    5.3576   -1.3079    0.3693 H   0  0  0  0  0  0  0  0  0  0  0  0
    5.4239    0.8519    0.3161 C   0  0  0  0  0  0  0  0  0  0  0  0
    6.5151    0.9107    0.4385 H   0  0  0  0  0  0  0  0  0  0  0  0
    4.6697    2.0504    0.1912 C   0  0  0  0  0  0  0  0  0  0  0  0
    5.1924    3.0163    0.2210 H   0  0  0  0  0  0  0  0  0  0  0  0
    3.2855    2.0132    0.0333 C   0  0  0  0  0  0  0  0  0  0  0  0
    2.5818    0.7449    0.0005 C   0  0  1  0  0  3  0  0  0  0  0  0
    3.0785    4.3731   -0.0674 C   0  0  0  0  0  0  0  0  0  0  0  0
    3.6030    4.5676    0.8966 H   0  0  0  0  0  0  0  0  0  0  0  0
    2.2596    5.1070   -0.1855 H   0  0  0  0  0  0  0  0  0  0  0  0
    3.8094    4.5091   -0.8977 H   0  0  0  0  0  0  0  0  0  0  0  0
  1  7  1  0  0  0  0
  1 11  1  0  0  0  0
  4 42  1  0  0  0  0
  4 40  1  0  0  0  0
  5 20  1  0  0  0  0
  6 31  1  0  0  0  0
  7 10  1  0  0  0  0
  8  7  1  0  0  0  0
  9  7  1  0  0  0  0
 11 12  2  0  0  0  0
 12 13  1  0  0  0  0
 12 14  1  0  0  0  0
 14 15  1  0  0  0  0
 16 14  2  0  0  0  0
 16 17  1  0  0  0  0
 18 16  1  0  0  0  0
 19  2  1  6  0  0  0
 19 11  1  0  0  0  0
 19 18  1  0  0  0  0
 20 21  1  0  0  0  0
 20 18  2  0  0  0  0
 22  5  1  0  0  0  0
 22 24  1  0  0  0  0
 22 25  1  0  0  0  0
 23 22  1  0  0  0  0
 25 26  1  0  0  0  0
 27 25  1  0  0  0  0
 28  6  1  0  0  0  0
 28 29  1  0  0  0  0
 28 25  1  0  0  0  0
 30 28  1  0  0  0  0
 31 32  1  0  0  0  0
 31 33  2  0  0  0  0
 33 34  1  0  0  0  0
 34 36  2  0  0  0  0
 34 35  1  0  0  0  0
 36 37  1  0  0  0  0
 38 39  1  0  0  0  0
 38 36  1  0  0  0  0
 40 38  2  0  0  0  0
 41  3  1  6  0  0  0
 41 40  1  0  0  0  0
 41 33  1  0  0  0  0
 42 43  1  0  0  0  0
 44 42  1  0  0  0  0
 45 42  1  0  0  0  0
M  END
