1,2,21,22
q = -2.0, confidence = 0.924

 37 38  0  0  0  0  0  0  0  0999 V2000
    1.3262   -0.6032    0.5518 O   0  5  0  0  0  0  0  0  0  0  0  0
    1.6015    2.2932    0.3081 N   0  0  0  0  0  2  0  0  0  0  0  0
    3.3378    0.5756   -0.1196 C   0  0  0  0  0  0  0  0  0  0  0  0
    2.5539   -0.6113    0.1435 C   0  0  0  0  0  0  0  0  0  0  0  0
    3.2274   -1.8671   -0.0820 C   0  0  0  0  0  0  0  0  0  0  0  0
    4.5534   -1.9526   -0.4924 C   0  0  0  0  0  0  0  0  0  0  0  0
    5.0192   -2.9354   -0.6454 H   0  0  0  0  0  0  0  0  0  0  0  0
    5.2937   -0.7683   -0.7130 C   0  0  0  0  0  0  0  0  0  0  0  0
    4.6963    0.4718   -0.5334 C   0  0  0  0  0  3  0  0  0  0  0  0
    5.2763    1.3881   -0.7185 H   0  0  0  0  0  0  0  0  0  0  0  0
    2.8121    1.9133    0.0072 C   0  0  0  0  0  0  0  0  0  0  0  0
    3.5608    2.7164   -0.1853 H   0  0  0  0  0  0  0  0  0  0  0  0
    1.3443    3.7251    0.3926 C   0  0  0  0  0  0  0  0  0  0  0  0
    2.2490    4.2941    0.0763 H   0  0  0  0  0  0  0  0  0  0  0  0
    1.1593    3.9851    1.4606 H   0  0  0  0  0  0  0  0  0  0  0  0
    0.1362    4.1717   -0.4406 C   0  0  0  0  0  0  0  0  0  0  0  0
    0.1827    5.2768   -0.5345 H   0  0  0  0  0  0  0  0  0  0  0  0
    0.2184    3.7590   -1.4687 H   0  0  0  0  0  0  0  0  0  0  0  0
    2.2978   -3.3158    0.1733 Cl  0  0  0  0  0  0  0  0  0  0  0  0
    6.9623   -0.8850   -1.2198 Cl  0  0  0  0  0  0  0  0  0  0  0  0
   -1.5189   -0.3213    1.0982 O   0  5  0  0  0  0  0  0  0  0  0  0
   -1.5218    2.3983    0.1774 N   0  0  0  0  0  2  0  0  0  0  0  0
   -3.2500    0.6827   -0.2555 C   0  0  0  0  0  0  0  0  0  0  0  0
   -2.6443   -0.4102    0.4844 C   0  0  0  0  0  0  0  0  0  0  0  0
   -3.3970   -1.6449    0.4985 C   0  0  0  0  0  0  0  0  0  0  0  0
   -4.6063   -1.7997   -0.1694 C   0  0  0  0  0  0  0  0  0  0  0  0
   -5.1311   -2.7640   -0.1377 H   0  0  0  0  0  0  0  0  0  0  0  0
   -5.1552   -0.7120   -0.8904 C   0  0  0  0  0  0  0  0  0  0  0  0
   -4.4957    0.5085   -0.9249 C   0  0  0  0  0  3  0  0  0  0  0  0
   -4.9409    1.3545   -1.4694 H   0  0  0  0  0  0  0  0  0  0  0  0
   -2.6865    2.0129   -0.2664 C   0  0  0  0  0  0  0  0  0  0  0  0
   -3.3570    2.7947   -0.6942 H   0  0  0  0  0  0  0  0  0  0  0  0
   -1.2305    3.8253    0.1587 C   0  0  0  0  0  0  0  0  0  0  0  0
   -2.0316    4.3754   -0.3888 H   0  0  0  0  0  0  0  0  0  0  0  0
   -1.2547    4.1944    1.2105 H   0  0  0  0  0  0  0  0  0  0  0  0
   -2.7109   -2.9745    1.3832 Cl  0  0  0  0  0  0  0  0  0  0  0  0
   -6.6768   -0.9231   -1.7239 Cl  0  0  0  0  0  0  0  0  0  0  0  0
  2 13  1  0  0  0  0
  3 11  2  0  0  0  0
  3  4  1  0  0  0  0
  4  1  1  0  0  0  0
  5  4  2  0  0  0  0
  5 19  1  0  0  0  0
  6  5  1  0  0  0  0
  7  6  1  0  0  0  0
  8  9  1  0  0  0  0
  8  6  2  0  0  0  0
  9  3  1  0  0  0  0
 10  9  1  0  0  0  0
 11  2  1  0  0  0  0
 12 11  1  0  0  0  0
 13 15  1  0  0  0  0
 14 13  1  0  0  0  0
 16 33  1  0  0  0  0
 16 13  1  0  0  0  0
 17 16  1  0  0  0  0
 18 16  1  0  0  0  0
 20  8  1  0  0  0  0
 23 24  1  0  0  0  0
 24 25  2  0  0  0  0
 24 21  1  0  0  0  0
 25 36  1  0  0  0  0
 26 27  1  0  0  0  0
 26 25  1  0  0  0  0
 28 26  2  0  0  0  0
 29 28  1  0  0  0  0
 29 23  1  0  0  0  0
 30 29  1  0  0  0  0
 31 23  2  0  0  0  0
 31 22  1  0  0  0  0
 32 31  1  0  0  0  0
 33 22  1  0  0  0  0
 33 35  1  0  0  0  0
 34 33  1  0  0  0  0
 37 28  1  0  0  0  0
M  CHG  2   1  -1  21  -1
M  END
