1,2,4,9
q = -2.0, confidence = 0.862

 54 56  0  0  1  0  0  0  0  0999 V2000
    0.1138   -1.3634   -0.9195 N   0  0  0  0  0  0  0  0  0  0  0  0
   -0.9442   -0.3569    1.5077 N   0  0  0  0  0  2  0  0  0  0  0  0
    2.7875   -0.8131    0.4646 C   0  0  0  0  0  0  0  0  0  0  0  0
   -1.7228    0.9590   -0.8311 O   0  5  0  0  0  0  0  0  0  0  0  0
    4.0951    0.1309    2.3969 C   0  0  0  0  0  0  0  0  0  0  0  0
    3.2124    0.1984    3.0673 H   0  0  0  0  0  0  0  0  0  0  0  0
    4.1957    1.1348    1.9331 H   0  0  0  0  0  0  0  0  0  0  0  0
    4.9935   -0.0664    3.0128 H   0  0  0  0  0  0  0  0  0  0  0  0
    1.9549    0.2141    0.6024 O   0  5  0  0  0  0  0  0  0  0  0  0
    1.4462   -1.6794   -1.5187 C   0  0  0  0  0  0  0  0  0  0  0  0
    1.6418   -0.8676   -2.2521 H   0  0  0  0  0  0  0  0  0  0  0  0
    1.3703   -2.6290   -2.0999 H   0  0  0  0  0  0  0  0  0  0  0  0
   -2.6547    0.0207   -0.9395 C   0  0  0  0  0  0  0  0  0  0  0  0
   -1.1690   -1.6530    1.1876 C   0  0  1  0  0  3  0  0  0  0  0  0
    3.8997   -0.9300    1.3497 C   0  0  0  0  0  0  0  0  0  0  0  0
   -0.9233   -1.4525   -1.9927 C   0  0  0  0  0  0  0  0  0  0  0  0
   -0.8442   -2.4504   -2.4859 H   0  0  0  0  0  0  0  0  0  0  0  0
   -0.6568   -0.6820   -2.7477 H   0  0  0  0  0  0  0  0  0  0  0  0
    4.7669   -2.0215    1.2098 C   0  0  0  0  0  0  0  0  0  0  0  0
    5.6253   -2.1006    1.8985 H   0  0  0  0  0  0  0  0  0  0  0  0
    4.5793   -3.0212    0.2303 C   0  0  0  0  0  0  0  0  0  0  0  0
   -1.7015    0.2327    2.4543 C   0  0  0  0  0  0  0  0  0  0  0  0
   -1.4685    1.2912    2.6510 H   0  0  0  0  0  0  0  0  0  0  0  0
   -3.9755    0.2511   -0.4535 C   0  0  0  0  0  0  0  0  0  0  0  0
    3.4739   -2.8910   -0.6253 C   0  0  0  0  0  0  0  0  0  0  0  0
    3.2962   -3.6577   -1.3985 H   0  0  0  0  0  0  0  0  0  0  0  0
   -2.3250   -1.2456   -1.4936 C   0  0  0  0  0  0  0  0  0  0  0  0
   -0.2113   -2.2690    0.1988 C   0  0  0  0  0  0  0  0  0  0  0  0
    0.7401   -2.4846    0.7324 H   0  0  0  0  0  0  0  0  0  0  0  0
   -0.6070   -3.2439   -0.1665 H   0  0  0  0  0  0  0  0  0  0  0  0
   -2.1921   -2.3930    1.8063 C   0  0  0  0  0  0  0  0  0  0  0  0
   -2.3718   -3.4327    1.4992 H   0  0  0  0  0  0  0  0  0  0  0  0
   -2.9837   -1.7778    2.7807 C   0  0  0  0  0  0  0  0  0  0  0  0
   -3.8006   -2.3339    3.2648 H   0  0  0  0  0  0  0  0  0  0  0  0
    2.5822   -1.8037   -0.5353 C   0  0  0  0  0  0  0  0  0  0  0  0
   -2.7275   -0.4408    3.1241 C   0  0  0  0  0  0  0  0  0  0  0  0
   -3.3230    0.0811    3.8861 H   0  0  0  0  0  0  0  0  0  0  0  0
   -3.2945   -2.2636   -1.5470 C   0  0  0  0  0  0  0  0  0  0  0  0
   -3.0187   -3.2411   -1.9781 H   0  0  0  0  0  0  0  0  0  0  0  0
    5.5392   -4.1797    0.1136 C   0  0  0  0  0  0  0  0  0  0  0  0
    5.2064   -4.9087   -0.6512 H   0  0  0  0  0  0  0  0  0  0  0  0
    5.6440   -4.7246    1.0755 H   0  0  0  0  0  0  0  0  0  0  0  0
    6.5578   -3.8397   -0.1716 H   0  0  0  0  0  0  0  0  0  0  0  0
   -4.5956   -2.0646   -1.0572 C   0  0  0  0  0  0  0  0  0  0  0  0
   -4.3099    1.5987    0.1236 C   0  0  0  0  0  0  0  0  0  0  0  0
   -4.1377    2.4043   -0.6206 H   0  0  0  0  0  0  0  0  0  0  0  0
   -3.6530    1.8398    0.9859 H   0  0  0  0  0  0  0  0  0  0  0  0
   -5.3633    1.6477    0.4601 H   0  0  0  0  0  0  0  0  0  0  0  0
   -4.9060   -0.7948   -0.5185 C   0  0  0  0  0  0  0  0  0  0  0  0
   -5.9229   -0.6155   -0.1292 H   0  0  0  0  0  0  0  0  0  0  0  0
   -5.6406   -3.1515   -1.1212 C   0  0  0  0  0  0  0  0  0  0  0  0
   -6.1538   -3.2854   -0.1459 H   0  0  0  0  0  0  0  0  0  0  0  0
   -5.1984   -4.1261   -1.4074 H   0  0  0  0  0  0  0  0  0  0  0  0
   -6.4312   -2.9163   -1.8662 H   0  0  0  0  0  0  0  0  0  0  0  0
  1 28  1  0  0  0  0
  2 22  1  0  0  0  0
  3  9  1  0  0  0  0
  3 15  1  0  0  0  0
  5  8  1  0  0  0  0
  5  6  1  0  0  0  0
  7  5  1  0  0  0  0
 10  1  1  0  0  0  0
 10 35  1  0  0  0  0
 11 10  1  0  0  0  0
 12 10  1  0  0  0  0
 13  4  1  0  0  0  0
 13 24  1  0  0  0  0
 14 28  1  1  0  0  0
 14  2  1  0  0  0  0
 14 31  1  0  0  0  0
 15  5  1  0  0  0  0
 16 27  1  0  0  0  0
 16  1  1  0  0  0  0
 17 16  1  0  0  0  0
 18 16  1  0  0  0  0
 19 15  2  0  0  0  0
 19 20  1  0  0  0  0
 21 19  1  0  0  0  0
 22 23  1  0  0  0  0
 22 36  2  0  0  0  0
 24 45  1  0  0  0  0
 25 35  1  0  0  0  0
 25 21  2  0  0  0  0
 26 25  1  0  0  0  0
 27 13  2  0  0  0  0
 28 29  1  0  0  0  0
 30 28  1  0  0  0  0
 31 33  2  0  0  0  0
 32 31  1  0  0  0  0
 33 36  1  0  0  0  0
 33 34  1  0  0  0  0
 35  3  2  0  0  0  0
 36 37  1  0  0  0  0
 38 27  1  0  0  0  0
 38 44  2  0  0  0  0
 39 38  1  0  0  0  0
 40 21  1  0  0  0  0
 40 42  1  0  0  0  0
 41 40  1  0  0  0  0
 43 40  1  0  0  0  0
 44 49  1  0  0  0  0
 45 48  1  0  0  0  0
 45 47  1  0  0  0  0
 46 45  1  0  0  0  0
 49 24  2  0  0  0  0
 49 50  1  0  0  0  0
 51 44  1  0  0  0  0
 51 52  1  0  0  0  0
 53 51  1  0  0  0  0
 54 51  1  0  0  0  0
M  CHG  2   4  -1   9  -1
M  END
