1,2,3,4
q = -2.0, confidence = 0.784

 48 49  0  0  0  0  0  0  0  0999 V2000
    1.7847    0.6991    0.7003 O   0  5  0  0  0  0  0  0  0  0  0  0
   -1.7847    0.6992   -0.7000 O   0  5  0  0  0  0  0  0  0  0  0  0
    0.6789   -0.9606   -1.2876 N   0  0  0  0  0  0  0  0  0  0  0  0
   -0.6795   -0.9599    1.2890 N   0  0  0  0  0  0  0  0  0  0  0  0
   -2.0606   -0.6951    1.7853 C   0  0  0  0  0  0  0  0  0  0  0  0
   -2.0133    0.2936    2.2884 H   0  0  0  0  0  0  0  0  0  0  0  0
   -2.3301   -1.4551    2.5552 H   0  0  0  0  0  0  0  0  0  0  0  0
    6.7071   -2.6731   -1.1920 O   0  0  0  0  0  0  0  0  0  0  0  0
   -3.1250   -0.6810    0.7199 C   0  0  0  0  0  0  0  0  0  0  0  0
    7.4557   -1.9560    0.7342 O   0  0  0  0  0  0  0  0  0  0  0  0
    0.6194   -2.1713   -0.4406 C   0  0  0  0  0  0  0  0  0  0  0  0
    1.5363   -2.1966    0.1804 H   0  0  0  0  0  0  0  0  0  0  0  0
    0.6380   -3.0960   -1.0641 H   0  0  0  0  0  0  0  0  0  0  0  0
    4.3297   -1.3657   -0.9031 C   0  0  0  0  0  0  0  0  0  0  0  0
    4.5198   -1.9597   -1.8085 H   0  0  0  0  0  0  0  0  0  0  0  0
    2.9192    0.0681    0.4828 C   0  0  0  0  0  0  0  0  0  0  0  0
   -0.6199   -2.1711    0.4427 C   0  0  0  0  0  0  0  0  0  0  0  0
   -1.5368   -2.1970   -0.1783 H   0  0  0  0  0  0  0  0  0  0  0  0
   -0.6383   -3.0954    1.0668 H   0  0  0  0  0  0  0  0  0  0  0  0
    5.1544   -0.5697    1.2589 C   0  0  0  0  0  0  0  0  0  0  0  0
    5.9666   -0.5517    1.9979 H   0  0  0  0  0  0  0  0  0  0  0  0
    0.2104   -1.0814    2.4574 C   0  0  0  0  0  0  0  0  0  0  0  0
   -0.1418   -1.8928    3.1361 H   0  0  0  0  0  0  0  0  0  0  0  0
    0.2189   -0.1256    3.0123 H   0  0  0  0  0  0  0  0  0  0  0  0
    1.2457   -1.2991    2.1434 H   0  0  0  0  0  0  0  0  0  0  0  0
    5.3336   -1.3032    0.0750 C   0  0  0  0  0  0  0  0  0  0  0  0
   -4.3302   -1.3649    0.9036 C   0  0  0  0  0  0  0  0  0  0  0  0
   -4.5205   -1.9586    1.8091 H   0  0  0  0  0  0  0  0  0  0  0  0
    3.1246   -0.6817   -0.7193 C   0  0  0  0  0  0  0  0  0  0  0  0
    2.0599   -0.6962   -1.7844 C   0  0  0  0  0  0  0  0  0  0  0  0
    2.0127    0.2922   -2.2881 H   0  0  0  0  0  0  0  0  0  0  0  0
    2.3291   -1.4566   -2.5540 H   0  0  0  0  0  0  0  0  0  0  0  0
   -6.5926   -2.0304    0.1439 N   0  0  0  0  0  0  0  0  0  0  0  0
   -6.7076   -2.6723    1.1923 O   0  0  0  0  0  0  0  0  0  0  0  0
   -0.2112   -1.0829   -2.4558 C   0  0  0  0  0  0  0  0  0  0  0  0
    0.1407   -1.8948   -3.1340 H   0  0  0  0  0  0  0  0  0  0  0  0
   -0.2198   -0.1276   -3.0115 H   0  0  0  0  0  0  0  0  0  0  0  0
   -1.2465   -1.3003   -2.1414 H   0  0  0  0  0  0  0  0  0  0  0  0
   -7.4556   -1.9560   -0.7345 O   0  0  0  0  0  0  0  0  0  0  0  0
    6.5925   -2.0308   -0.1439 N   0  0  0  0  0  0  0  0  0  0  0  0
   -2.9193    0.0683   -0.4825 C   0  0  0  0  0  0  0  0  0  0  0  0
   -3.9516    0.1042   -1.4605 C   0  0  0  0  0  0  0  0  0  0  0  0
   -3.7722    0.6871   -2.3755 H   0  0  0  0  0  0  0  0  0  0  0  0
   -5.1542   -0.5699   -1.2590 C   0  0  0  0  0  0  0  0  0  0  0  0
   -5.9661   -0.5523   -1.9983 H   0  0  0  0  0  0  0  0  0  0  0  0
    3.9519    0.1044    1.4604 C   0  0  0  0  0  0  0  0  0  0  0  0
    3.7728    0.6878    2.3752 H   0  0  0  0  0  0  0  0  0  0  0  0
   -5.3337   -1.3029   -0.0748 C   0  0  0  0  0  0  0  0  0  0  0  0
  2 41  1  0  0  0  0
  3 11  1  0  0  0  0
  4  5  1  0  0  0  0
  4 22  1  0  0  0  0
  5  6  1  0  0  0  0
  5  7  1  0  0  0  0
  8 40  2  0  0  0  0
  9 27  1  0  0  0  0
  9  5  1  0  0  0  0
 11 12  1  0  0  0  0
 11 17  1  0  0  0  0
 13 11  1  0  0  0  0
 14 29  2  0  0  0  0
 14 26  1  0  0  0  0
 15 14  1  0  0  0  0
 16  1  1  0  0  0  0
 16 46  2  0  0  0  0
 17 19  1  0  0  0  0
 17  4  1  0  0  0  0
 18 17  1  0  0  0  0
 20 46  1  0  0  0  0
 20 21  1  0  0  0  0
 22 24  1  0  0  0  0
 22 23  1  0  0  0  0
 25 22  1  0  0  0  0
 26 20  2  0  0  0  0
 27 28  1  0  0  0  0
 29 16  1  0  0  0  0
 30  3  1  0  0  0  0
 30 29  1  0  0  0  0
 31 30  1  0  0  0  0
 32 30  1  0  0  0  0
 33 34  2  0  0  0  0
 35 38  1  0  0  0  0
 35  3  1  0  0  0  0
 36 35  1  0  0  0  0
 37 35  1  0  0  0  0
 39 33  2  0  0  0  0
 40 26  1  0  0  0  0
 40 10  2  0  0  0  0
 41  9  2  0  0  0  0
 42 44  2  0  0  0  0
 42 41  1  0  0  0  0
 43 42  1  0  0  0  0
 44 48  1  0  0  0  0
 45 44  1  0  0  0  0
 46 47  1  0  0  0  0
 48 33  1  0  0  0  0
 48 27  2  0  0  0  0
M  CHG  2   1  -1   2  -1
M  END
