1,2,3,4
q = -2.0, confidence = 0.814

 52 55  0  0  1  0  0  0  0  0999 V2000
   -1.7840   -1.2240   -0.7188 O   0  5  0  0  0  0  0  0  0  0  0  0
    1.7839   -1.2238    0.7194 O   0  5  0  0  0  0  0  0  0  0  0  0
   -0.6204    0.3784    1.3012 N   0  0  0  0  0  0  0  0  0  0  0  0
    0.6204    0.3778   -1.3013 N   0  0  0  0  0  0  0  0  0  0  0  0
   -2.9211   -0.6009   -0.3987 C   0  0  0  0  0  0  0  0  0  0  0  0
   -3.9779   -0.6052   -1.3400 C   0  0  0  0  0  0  0  0  0  0  0  0
   -3.8227   -1.1520   -2.2814 H   0  0  0  0  0  0  0  0  0  0  0  0
   -5.1807    0.0544   -1.0632 C   0  0  0  0  0  0  0  0  0  0  0  0
   -5.9950    0.0312   -1.8036 H   0  0  0  0  0  0  0  0  0  0  0  0
   -5.3473    0.7464    0.1480 C   0  0  0  0  0  0  0  0  0  0  0  0
   -6.2879    1.2724    0.3671 H   0  0  0  0  0  0  0  0  0  0  0  0
   -4.2954    0.7654    1.0756 C   0  0  0  0  0  0  0  0  0  0  0  0
   -4.4123    1.3118    2.0258 H   0  0  0  0  0  0  0  0  0  0  0  0
   -3.0834    0.0947    0.8310 C   0  0  0  0  0  0  0  0  0  0  0  0
   -1.9842    0.1004    1.8582 C   0  0  0  0  0  0  0  0  0  0  0  0
   -1.9048   -0.8883    2.3547 H   0  0  0  0  0  0  0  0  0  0  0  0
   -2.2387    0.8475    2.6418 H   0  0  0  0  0  0  0  0  0  0  0  0
    0.3041    0.6737    2.4328 C   0  0  0  0  0  0  0  0  0  0  0  0
    1.3409    0.5198    2.0882 H   0  0  0  0  0  0  0  0  0  0  0  0
    0.1277   -0.0515    3.2491 H   0  0  0  0  0  0  0  0  0  0  0  0
    0.0561    2.1493    2.8073 C   0  0  0  0  0  0  0  0  0  0  0  0
    0.9944    2.6318    3.1419 H   0  0  0  0  0  0  0  0  0  0  0  0
   -0.6638    2.2431    3.6442 H   0  0  0  0  0  0  0  0  0  0  0  0
   -0.5129    2.7883    1.5135 C   0  0  0  0  0  0  0  0  0  0  0  0
    0.1224    3.6130    1.1363 H   0  0  0  0  0  0  0  0  0  0  0  0
   -1.5182    3.2185    1.6874 H   0  0  0  0  0  0  0  0  0  0  0  0
   -0.5962    1.6278    0.4868 C   0  0  1  0  0  0  0  0  0  0  0  0
   -1.5370    1.6722   -0.0964 H   0  0  0  0  0  0  0  0  0  0  0  0
    0.5965    1.6274   -0.4875 C   0  0  2  0  0  0  0  0  0  0  0  0
    1.5372    1.6720    0.0958 H   0  0  0  0  0  0  0  0  0  0  0  0
    0.5134    2.7875   -1.5147 C   0  0  0  0  0  0  0  0  0  0  0  0
    1.5188    3.2173   -1.6888 H   0  0  0  0  0  0  0  0  0  0  0  0
   -0.1216    3.6127   -1.1378 H   0  0  0  0  0  0  0  0  0  0  0  0
   -0.0559    2.1481   -2.8081 C   0  0  0  0  0  0  0  0  0  0  0  0
   -0.9942    2.6307   -3.1427 H   0  0  0  0  0  0  0  0  0  0  0  0
    0.6638    2.2415   -3.6451 H   0  0  0  0  0  0  0  0  0  0  0  0
   -0.3041    0.6727   -2.4330 C   0  0  0  0  0  0  0  0  0  0  0  0
   -1.3409    0.5190   -2.0883 H   0  0  0  0  0  0  0  0  0  0  0  0
   -0.1277   -0.0529   -3.2490 H   0  0  0  0  0  0  0  0  0  0  0  0
    1.9841    0.0993   -1.8583 C   0  0  0  0  0  0  0  0  0  0  0  0
    2.2386    0.8460   -2.6423 H   0  0  0  0  0  0  0  0  0  0  0  0
    1.9046   -0.8896   -2.3542 H   0  0  0  0  0  0  0  0  0  0  0  0
    3.0833    0.0942   -0.8311 C   0  0  0  0  0  0  0  0  0  0  0  0
    4.2954    0.7647   -1.0760 C   0  0  0  0  0  0  0  0  0  0  0  0
    4.4123    1.3106   -2.0266 H   0  0  0  0  0  0  0  0  0  0  0  0
    5.3472    0.7462   -0.1484 C   0  0  0  0  0  0  0  0  0  0  0  0
    6.2878    1.2721   -0.3678 H   0  0  0  0  0  0  0  0  0  0  0  0
    5.1806    0.0548    1.0631 C   0  0  0  0  0  0  0  0  0  0  0  0
    5.9949    0.0320    1.8036 H   0  0  0  0  0  0  0  0  0  0  0  0
    3.9778   -0.6046    1.3403 C   0  0  0  0  0  0  0  0  0  0  0  0
    3.8226   -1.1509    2.2819 H   0  0  0  0  0  0  0  0  0  0  0  0
    2.9210   -0.6008    0.3989 C   0  0  0  0  0  0  0  0  0  0  0  0
  1  5  1  0  0  0  0
  3 15  1  0  0  0  0
  3 18  1  0  0  0  0
  4 29  1  0  0  0  0
  5 14  1  0  0  0  0
  6  8  1  0  0  0  0
  6  5  2  0  0  0  0
  7  6  1  0  0  0  0
  8 10  2  0  0  0  0
  9  8  1  0  0  0  0
 10 11  1  0  0  0  0
 10 12  1  0  0  0  0
 12 13  1  0  0  0  0
 14 12  2  0  0  0  0
 14 15  1  0  0  0  0
 15 16  1  0  0  0  0
 15 17  1  0  0  0  0
 18 21  1  0  0  0  0
 18 20  1  0  0  0  0
 19 18  1  0  0  0  0
 21 22  1  0  0  0  0
 21 23  1  0  0  0  0
 24 26  1  0  0  0  0
 24 21  1  0  0  0  0
 25 24  1  0  0  0  0
 27 28  1  6  0  0  0
 27  3  1  0  0  0  0
 27 24  1  0  0  0  0
 29 30  1  1  0  0  0
 29 27  1  0  0  0  0
 31 33  1  0  0  0  0
 31 29  1  0  0  0  0
 32 31  1  0  0  0  0
 34 37  1  0  0  0  0
 34 31  1  0  0  0  0
 35 34  1  0  0  0  0
 36 34  1  0  0  0  0
 37 38  1  0  0  0  0
 37  4  1  0  0  0  0
 39 37  1  0  0  0  0
 40  4  1  0  0  0  0
 40 43  1  0  0  0  0
 41 40  1  0  0  0  0
 42 40  1  0  0  0  0
 43 52  1  0  0  0  0
 44 43  2  0  0  0  0
 44 46  1  0  0  0  0
 45 44  1  0  0  0  0
 46 48  2  0  0  0  0
 47 46  1  0  0  0  0
 48 50  1  0  0  0  0
 48 49  1  0  0  0  0
 50 51  1  0  0  0  0
 52  2  1  0  0  0  0
 52 50  2  0  0  0  0
M  CHG  2   1  -1   2  -1
M  END
