3,4,5,6
q = -2.0, confidence = 0.852

 38 40  0  0  0  0  0  0  0  0999 V2000
   -7.1487   -1.3707   -0.6899 Cl  0  0  0  0  0  0  0  0  0  0  0  0
    7.0973   -1.3651   -0.6823 Cl  0  0  0  0  0  0  0  0  0  0  0  0
   -1.3270   -1.5055    0.3155 O   0  5  0  0  0  0  0  0  0  0  0  0
    1.2448   -1.5028    0.0577 O   0  5  0  0  0  0  0  0  0  0  0  0
   -1.3065    1.2478   -0.1497 N   0  0  0  0  0  2  0  0  0  0  0  0
    1.2529    1.2564   -0.1477 N   0  0  0  0  0  2  0  0  0  0  0  0
   -2.6126   -1.4143    0.1007 C   0  0  0  0  0  0  0  0  0  0  0  0
   -3.4148   -2.5910    0.2218 C   0  0  0  0  0  0  0  0  0  0  0  0
   -4.7827   -2.5781   -0.0181 C   0  0  0  0  0  0  0  0  0  0  0  0
   -5.4257   -1.3703   -0.3892 C   0  0  0  0  0  0  0  0  0  0  0  0
   -4.6924   -0.1987   -0.5086 C   0  0  0  0  0  3  0  0  0  0  0  0
   -3.2871   -0.1843   -0.2645 C   0  0  0  0  0  0  0  0  0  0  0  0
   -2.6025    1.0660   -0.3590 C   0  0  0  0  0  0  0  0  0  0  0  0
   -0.7439    2.5450   -0.1445 C   0  0  0  0  0  0  0  0  0  0  0  0
   -1.4478    3.7632   -0.1084 C   0  0  0  0  0  0  0  0  0  0  0  0
   -0.7461    4.9769   -0.0923 C   0  0  0  0  0  0  0  0  0  0  0  0
    0.6595    4.9831   -0.0986 C   0  0  0  0  0  0  0  0  0  0  0  0
    1.3721    3.7758   -0.1203 C   0  0  0  0  0  0  0  0  0  0  0  0
    0.6787    2.5512   -0.1461 C   0  0  0  0  0  0  0  0  0  0  0  0
    2.5578    1.0892   -0.3512 C   0  0  0  0  0  0  0  0  0  0  0  0
    3.2375   -0.1623   -0.3043 C   0  0  0  0  0  0  0  0  0  0  0  0
    4.6528   -0.1751   -0.4881 C   0  0  0  0  0  3  0  0  0  0  0  0
    5.3622   -1.3663   -0.4654 C   0  0  0  0  0  0  0  0  0  0  0  0
    4.6883   -2.6003   -0.2672 C   0  0  0  0  0  0  0  0  0  0  0  0
    3.3123   -2.6161   -0.0922 C   0  0  0  0  0  0  0  0  0  0  0  0
    2.5337   -1.4156   -0.1015 C   0  0  0  0  0  0  0  0  0  0  0  0
   -2.8981   -3.5210    0.5001 H   0  0  0  0  0  0  0  0  0  0  0  0
   -5.3773   -3.4988    0.0712 H   0  0  0  0  0  0  0  0  0  0  0  0
   -5.1994    0.7367   -0.7891 H   0  0  0  0  0  0  0  0  0  0  0  0
   -3.2196    1.9416   -0.6338 H   0  0  0  0  0  0  0  0  0  0  0  0
   -2.5459    3.7708   -0.0710 H   0  0  0  0  0  0  0  0  0  0  0  0
   -1.3020    5.9255   -0.0572 H   0  0  0  0  0  0  0  0  0  0  0  0
    1.2073    5.9365   -0.0685 H   0  0  0  0  0  0  0  0  0  0  0  0
    2.4703    3.7952   -0.0948 H   0  0  0  0  0  0  0  0  0  0  0  0
    3.1736    1.9764   -0.5853 H   0  0  0  0  0  0  0  0  0  0  0  0
    5.1849    0.7747   -0.6472 H   0  0  0  0  0  0  0  0  0  0  0  0
    5.2688   -3.5340   -0.2559 H   0  0  0  0  0  0  0  0  0  0  0  0
    2.7695   -3.5610    0.0564 H   0  0  0  0  0  0  0  0  0  0  0  0
  1 10  1  0  0  0  0
  2 23  1  0  0  0  0
  5 14  1  0  0  0  0
  6 19  1  0  0  0  0
  7  8  2  0  0  0  0
  7  3  1  0  0  0  0
  8 27  1  0  0  0  0
  9 28  1  0  0  0  0
  9  8  1  0  0  0  0
 10  9  2  0  0  0  0
 11 10  1  0  0  0  0
 11 12  1  0  0  0  0
 12  7  1  0  0  0  0
 13 12  2  0  0  0  0
 13  5  1  0  0  0  0
 14 15  1  0  0  0  0
 15 16  2  0  0  0  0
 15 31  1  0  0  0  0
 16 32  1  0  0  0  0
 17 16  1  0  0  0  0
 17 33  1  0  0  0  0
 18 17  2  0  0  0  0
 18 34  1  0  0  0  0
 19 14  2  0  0  0  0
 19 18  1  0  0  0  0
 20 21  2  0  0  0  0
 20  6  1  0  0  0  0
 21 26  1  0  0  0  0
 22 23  1  0  0  0  0
 22 21  1  0  0  0  0
 23 24  2  0  0  0  0
 24 37  1  0  0  0  0
 24 25  1  0  0  0  0
 25 38  1  0  0  0  0
 26 25  2  0  0  0  0
 26  4  1  0  0  0  0
 29 11  1  0  0  0  0
 30 13  1  0  0  0  0
 35 20  1  0  0  0  0
 36 22  1  0  0  0  0
M  CHG  2   3  -1   4  -1
M  END
