1,2,5,6
q = -2.0, confidence = 0.834

 56 58  0  0  1  0  0  0  0  0999 V2000
    1.3408   -2.3361    0.4078 O   0  0  0  0  0  1  0  0  0  0  0  0
   -1.2733   -2.3464    0.2444 O   0  5  0  0  0  0  0  0  0  0  0  0
    5.4290   -2.0838   -0.4900 O   0  0  0  0  0  0  0  0  0  0  0  0
   -5.3513   -1.9994   -0.7213 O   0  0  0  0  0  0  0  0  0  0  0  0
    1.3333    0.3878   -0.1918 N   0  0  0  0  0  2  0  0  0  0  0  0
   -1.2348    0.3999   -0.2178 N   0  0  0  0  0  2  0  0  0  0  0  0
    2.6174   -2.2664    0.3063 C   0  0  1  0  0  3  0  0  0  0  0  0
    3.3181   -1.0517   -0.0200 C   0  0  0  0  0  0  0  0  0  0  0  0
    2.6417    0.1805   -0.2430 C   0  0  0  0  0  0  0  0  0  0  0  0
    3.2816    1.0365   -0.5167 H   0  0  0  0  0  0  0  0  0  0  0  0
    0.7726    1.6673   -0.3715 C   0  0  0  0  0  0  0  0  0  0  0  0
    1.4763    2.8823   -0.5068 C   0  0  0  0  0  0  0  0  0  0  0  0
    2.5751    2.8944   -0.4745 H   0  0  0  0  0  0  0  0  0  0  0  0
    0.7775    4.0863   -0.6624 C   0  0  0  0  0  0  0  0  0  0  0  0
    1.3361    5.0287   -0.7638 H   0  0  0  0  0  0  0  0  0  0  0  0
   -0.6300    4.0952   -0.6744 C   0  0  0  0  0  0  0  0  0  0  0  0
   -1.1758    5.0439   -0.7859 H   0  0  0  0  0  0  0  0  0  0  0  0
   -1.3442    2.8984   -0.5312 C   0  0  0  0  0  0  0  0  0  0  0  0
   -2.4434    2.9227   -0.5220 H   0  0  0  0  0  0  0  0  0  0  0  0
   -0.6551    1.6773   -0.3830 C   0  0  0  0  0  0  0  0  0  0  0  0
   -2.5469    0.2112   -0.2928 C   0  0  0  0  0  3  0  0  0  0  0  0
   -3.1764    1.0848   -0.5320 H   0  0  0  0  0  0  0  0  0  0  0  0
   -3.2357   -1.0297   -0.1459 C   0  0  0  0  0  0  0  0  0  0  0  0
   -2.5478   -2.2723    0.0885 C   0  0  0  0  0  0  0  0  0  0  0  0
    3.3440   -3.5590    0.5804 C   0  0  0  0  0  0  0  0  0  0  0  0
    3.7678   -3.9632   -0.3600 H   0  0  0  0  0  0  0  0  0  0  0  0
    2.6256   -4.2798    1.0131 H   0  0  0  0  0  0  0  0  0  0  0  0
    4.2143   -3.4178    1.2496 H   0  0  0  0  0  0  0  0  0  0  0  0
    4.7917   -1.0670   -0.1850 C   0  0  0  0  0  0  0  0  0  0  0  0
    5.5713    0.2133    0.0364 C   0  0  0  0  0  0  0  0  0  0  0  0
    5.2515    1.1473    1.0457 C   0  0  0  0  0  0  0  0  0  0  0  0
    4.3688    0.9803    1.6818 H   0  0  0  0  0  0  0  0  0  0  0  0
    6.0667    2.2690    1.2620 C   0  0  0  0  0  0  0  0  0  0  0  0
    5.8149    2.9825    2.0617 H   0  0  0  0  0  0  0  0  0  0  0  0
    7.2045    2.4764    0.4659 C   0  0  0  0  0  0  0  0  0  0  0  0
    7.8386    3.3612    0.6299 H   0  0  0  0  0  0  0  0  0  0  0  0
    7.5383    1.5442   -0.5319 C   0  0  0  0  0  0  0  0  0  0  0  0
    8.4352    1.6987   -1.1513 H   0  0  0  0  0  0  0  0  0  0  0  0
    6.7363    0.4141   -0.7328 C   0  0  0  0  0  0  0  0  0  0  0  0
    6.9961   -0.3455   -1.4850 H   0  0  0  0  0  0  0  0  0  0  0  0
   -3.2787   -3.5871    0.2016 C   0  0  0  0  0  0  0  0  0  0  0  0
   -2.5664   -4.3520    0.5630 H   0  0  0  0  0  0  0  0  0  0  0  0
   -3.6992   -3.8856   -0.7788 H   0  0  0  0  0  0  0  0  0  0  0  0
   -4.1545   -3.5191    0.8758 H   0  0  0  0  0  0  0  0  0  0  0  0
   -4.7086   -1.0186   -0.3238 C   0  0  0  0  0  0  0  0  0  0  0  0
   -5.4770    0.2451    0.0042 C   0  0  0  0  0  0  0  0  0  0  0  0
   -5.1380    1.1009    1.0746 C   0  0  0  0  0  0  0  0  0  0  0  0
   -4.2487    0.8813    1.6851 H   0  0  0  0  0  0  0  0  0  0  0  0
   -5.9412    2.2093    1.3829 C   0  0  0  0  0  0  0  0  0  0  0  0
   -5.6740    2.8614    2.2286 H   0  0  0  0  0  0  0  0  0  0  0  0
   -7.0872    2.4818    0.6188 C   0  0  0  0  0  0  0  0  0  0  0  0
   -7.7122    3.3566    0.8550 H   0  0  0  0  0  0  0  0  0  0  0  0
   -7.4406    1.6273   -0.4399 C   0  0  0  0  0  0  0  0  0  0  0  0
   -8.3440    1.8326   -1.0345 H   0  0  0  0  0  0  0  0  0  0  0  0
   -6.6497    0.5098   -0.7334 C   0  0  0  0  0  0  0  0  0  0  0  0
   -6.9239   -0.1910   -1.5359 H   0  0  0  0  0  0  0  0  0  0  0  0
  3 29  2  0  0  0  0
  4 45  2  0  0  0  0
  7  1  1  1  0  0  0
  7 25  1  0  0  0  0
  8  7  1  0  0  0  0
  9  5  1  0  0  0  0
  9  8  2  0  0  0  0
 10  9  1  0  0  0  0
 11  5  1  0  0  0  0
 12 13  1  0  0  0  0
 12 11  2  0  0  0  0
 14 12  1  0  0  0  0
 15 14  1  0  0  0  0
 16 14  2  0  0  0  0
 16 18  1  0  0  0  0
 17 16  1  0  0  0  0
 18 19  1  0  0  0  0
 18 20  2  0  0  0  0
 20 11  1  0  0  0  0
 20  6  1  0  0  0  0
 21  6  1  0  0  0  0
 21 23  1  0  0  0  0
 22 21  1  0  0  0  0
 23 24  2  0  0  0  0
 24 41  1  0  0  0  0
 24  2  1  0  0  0  0
 25 27  1  0  0  0  0
 25 28  1  0  0  0  0
 26 25  1  0  0  0  0
 29  8  1  0  0  0  0
 29 30  1  0  0  0  0
 30 31  1  0  0  0  0
 31 33  2  0  0  0  0
 31 32  1  0  0  0  0
 33 34  1  0  0  0  0
 35 36  1  0  0  0  0
 35 33  1  0  0  0  0
 37 35  2  0  0  0  0
 38 37  1  0  0  0  0
 39 37  1  0  0  0  0
 39 30  2  0  0  0  0
 40 39  1  0  0  0  0
 41 42  1  0  0  0  0
 41 44  1  0  0  0  0
 43 41  1  0  0  0  0
 45 23  1  0  0  0  0
 45 46  1  0  0  0  0
 46 47  1  0  0  0  0
 47 49  2  0  0  0  0
 47 48  1  0  0  0  0
 49 50  1  0  0  0  0
 51 52  1  0  0  0  0
 51 49  1  0  0  0  0
 53 51  2  0  0  0  0
 54 53  1  0  0  0  0
 55 53  1  0  0  0  0
 55 46  2  0  0  0  0
 56 55  1  0  0  0  0
M  CHG  1   2  -1
M  END
