2,3,5,7
q = -2.0, confidence = 0.82

 47 48  0  0  1  0  0  0  0  0999 V2000
    2.8025    3.7896   -0.0005 S   0  0  0  0  0  0  0  0  0  0  0  0
   -1.7284   -0.3495   -0.0056 O   0  5  0  0  0  0  0  0  0  0  0  0
    0.6193   -1.2303   -0.0026 O   0  0  0  0  0  1  0  0  0  0  0  0
    1.3179   -5.2188   -0.0097 O   0  0  0  0  0  0  0  0  0  0  0  0
   -0.7506    2.1980    0.0031 N   0  0  0  0  0  2  0  0  0  0  0  0
    0.1739    3.1990    0.0033 N   0  0  0  0  0  0  0  0  0  0  0  0
    1.5579    1.3369   -0.0013 N   0  0  0  0  0  2  0  0  0  0  0  0
    1.3920    2.7255    0.0006 C   0  0  0  0  0  0  0  0  0  0  0  0
   -2.0512    2.5628    0.0115 C   0  0  2  0  0  3  0  0  0  0  0  0
   -2.3790    4.0316    0.0232 C   0  0  0  0  0  0  0  0  0  0  0  0
   -3.0841    1.6102    0.0103 C   0  0  0  0  0  0  0  0  0  0  0  0
   -2.8894    0.2096   -0.0007 C   0  0  0  0  0  0  0  0  0  0  0  0
   -4.0411   -0.7387   -0.0008 C   0  0  0  0  0  0  0  0  0  0  0  0
   -5.3885   -0.3196   -0.0817 C   0  0  0  0  0  0  0  0  0  0  0  0
   -6.4282   -1.2579   -0.0780 C   0  0  0  0  0  0  0  0  0  0  0  0
   -6.1430   -2.6307    0.0064 C   0  0  0  0  0  0  0  0  0  0  0  0
   -6.9623   -3.3656    0.0095 H   0  0  0  0  0  0  0  0  0  0  0  0
   -4.8076   -3.0593    0.0847 C   0  0  0  0  0  0  0  0  0  0  0  0
   -4.5755   -4.1332    0.1499 H   0  0  0  0  0  0  0  0  0  0  0  0
   -3.7670   -2.1238    0.0799 C   0  0  0  0  0  0  0  0  0  0  0  0
    1.9680    5.4021    0.0052 C   0  0  0  0  0  0  0  0  0  0  0  0
    1.3367    5.5135   -0.8957 H   0  0  0  0  0  0  0  0  0  0  0  0
    2.7527    0.7503   -0.0019 C   0  0  0  0  0  0  0  0  0  0  0  0
    2.9714   -0.6488   -0.0034 C   0  0  0  0  0  0  0  0  0  0  0  0
    1.8595   -1.5860   -0.0042 C   0  0  1  0  0  3  0  0  0  0  0  0
    2.1913   -2.9919   -0.0066 C   0  0  0  0  0  0  0  0  0  0  0  0
    3.5230   -3.4075   -0.0069 C   0  0  0  0  0  0  0  0  0  0  0  0
    4.6142   -2.5004   -0.0056 C   0  0  0  0  0  0  0  0  0  0  0  0
    4.3114   -1.1412   -0.0040 C   0  0  0  0  0  0  0  0  0  0  0  0
    1.1139   -4.0114   -0.0095 C   0  0  0  0  0  0  0  0  0  0  0  0
    6.0334   -3.0079   -0.0060 C   0  0  0  0  0  0  0  0  0  0  0  0
    6.2351   -3.6395   -0.8964 H   0  0  0  0  0  0  0  0  0  0  0  0
    6.2358   -3.6390    0.8845 H   0  0  0  0  0  0  0  0  0  0  0  0
    6.7654   -2.1773   -0.0065 H   0  0  0  0  0  0  0  0  0  0  0  0
    3.6937   -4.4974   -0.0086 H   0  0  0  0  0  0  0  0  0  0  0  0
   -4.1075    1.9999    0.0267 H   0  0  0  0  0  0  0  0  0  0  0  0
    0.0711   -3.5883   -0.0120 H   0  0  0  0  0  0  0  0  0  0  0  0
    3.6450    1.4052   -0.0011 H   0  0  0  0  0  0  0  0  0  0  0  0
   -3.4721    4.1898    0.0309 H   0  0  0  0  0  0  0  0  0  0  0  0
   -7.4716   -0.9141   -0.1439 H   0  0  0  0  0  0  0  0  0  0  0  0
   -2.7158   -2.4396    0.1384 H   0  0  0  0  0  0  0  0  0  0  0  0
    5.1308   -0.4032   -0.0033 H   0  0  0  0  0  0  0  0  0  0  0  0
   -1.9278    4.5231    0.9082 H   0  0  0  0  0  0  0  0  0  0  0  0
    2.7776    6.1559    0.0045 H   0  0  0  0  0  0  0  0  0  0  0  0
   -1.9389    4.5342   -0.8612 H   0  0  0  0  0  0  0  0  0  0  0  0
    1.3417    5.5099    0.9100 H   0  0  0  0  0  0  0  0  0  0  0  0
   -5.6367    0.7484   -0.1566 H   0  0  0  0  0  0  0  0  0  0  0  0
  1  8  1  0  0  0  0
  1 21  1  0  0  0  0
  2 12  1  0  0  0  0
  4 30  2  0  0  0  0
  5  6  1  0  0  0  0
  7  8  1  0  0  0  0
  8  6  2  0  0  0  0
  9  5  1  1  0  0  0
  9 10  1  0  0  0  0
 10 39  1  0  0  0  0
 10 43  1  0  0  0  0
 11  9  1  0  0  0  0
 11 36  1  0  0  0  0
 12 11  2  0  0  0  0
 13 12  1  0  0  0  0
 13 20  1  0  0  0  0
 14 15  1  0  0  0  0
 14 13  2  0  0  0  0
 15 16  2  0  0  0  0
 16 17  1  0  0  0  0
 16 18  1  0  0  0  0
 18 19  1  0  0  0  0
 20 18  2  0  0  0  0
 20 41  1  0  0  0  0
 21 46  1  0  0  0  0
 22 21  1  0  0  0  0
 23  7  1  0  0  0  0
 23 38  1  0  0  0  0
 24 23  2  0  0  0  0
 25 24  1  0  0  0  0
 25  3  1  1  0  0  0
 26 25  1  0  0  0  0
 27 26  2  0  0  0  0
 27 28  1  0  0  0  0
 28 29  2  0  0  0  0
 29 24  1  0  0  0  0
 29 42  1  0  0  0  0
 30 26  1  0  0  0  0
 31 28  1  0  0  0  0
 31 33  1  0  0  0  0
 32 31  1  0  0  0  0
 34 31  1  0  0  0  0
 35 27  1  0  0  0  0
 37 30  1  0  0  0  0
 40 15  1  0  0  0  0
 44 21  1  0  0  0  0
 45 10  1  0  0  0  0
 47 14  1  0  0  0  0
M  CHG  1   2  -1
M  END
