3,4,5,6
q = -1.0

 39 42  0  0  1  0  0  0  0  0999 V2000
   -5.0384   -0.8635   -0.4223 S   0  0  0  0  0  0  0  0  0  0  0  0
    5.0001   -0.8778   -0.0018 S   0  0  0  0  0  0  0  0  0  0  0  0
   -1.3931    0.3253    0.4594 O   0  5  0  0  0  0  0  0  0  0  0  0
    1.3081    0.4765   -0.0636 O   0  5  0  0  0  0  0  0  0  0  0  0
   -1.3716   -2.5121   -0.0465 N   0  0  0  0  0  2  0  0  0  0  0  0
    1.2734   -2.4399    0.0083 N   0  0  0  0  0  2  0  0  0  0  0  0
   -2.6334    0.1836    0.2213 C   0  0  0  0  0  0  0  0  0  0  0  0
   -3.5877    1.2862    0.1690 C   0  0  0  0  0  0  0  0  0  0  0  0
   -3.3128    2.6502    0.3991 C   0  0  0  0  0  0  0  0  0  0  0  0
   -4.3509    3.5786    0.3041 C   0  0  0  0  0  0  0  0  0  0  0  0
   -5.6607    3.1526   -0.0197 C   0  0  0  0  0  0  0  0  0  0  0  0
   -5.9511    1.8038   -0.2550 C   0  0  0  0  0  0  0  0  0  0  0  0
   -4.9056    0.8664   -0.1594 C   0  0  1  0  0  3  0  0  0  0  0  0
   -3.3114   -1.0671   -0.0727 C   0  0  0  0  0  0  0  0  0  0  0  0
   -2.6046   -2.2444   -0.0615 C   0  0  0  0  0  3  0  0  0  0  0  0
   -0.7074   -3.7166    0.4654 C   0  0  0  0  0  0  0  0  0  0  0  0
    2.5696    0.2657   -0.0501 C   0  0  0  0  0  0  0  0  0  0  0  0
    3.5577    1.3440   -0.0761 C   0  0  0  0  0  0  0  0  0  0  0  0
    3.2974    2.7285   -0.1158 C   0  0  0  0  0  3  0  0  0  0  0  0
    4.3681    3.6248   -0.1335 C   0  0  0  0  0  0  0  0  0  0  0  0
    5.6991    3.1451   -0.1108 C   0  0  0  0  0  0  0  0  0  0  0  0
    5.9779    1.7739   -0.0703 C   0  0  0  0  0  0  0  0  0  0  0  0
    4.8973    0.8727   -0.0537 C   0  0  0  0  0  0  0  0  0  0  0  0
    3.2262   -1.0131   -0.0141 C   0  0  0  0  0  0  0  0  0  0  0  0
    2.5850   -2.2644   -0.0217 C   0  0  0  0  0  0  0  0  0  0  0  0
    0.6923   -3.7631   -0.1351 C   0  0  0  0  0  0  0  0  0  0  0  0
   -2.2828    2.9478    0.6455 H   0  0  0  0  0  0  0  0  0  0  0  0
   -4.1533    4.6465    0.4790 H   0  0  0  0  0  0  0  0  0  0  0  0
   -6.4705    3.8947   -0.0898 H   0  0  0  0  0  0  0  0  0  0  0  0
   -6.9724    1.4838   -0.5085 H   0  0  0  0  0  0  0  0  0  0  0  0
   -1.3070   -4.6099    0.1993 H   0  0  0  0  0  0  0  0  0  0  0  0
   -0.6479   -3.6582    1.5750 H   0  0  0  0  0  0  0  0  0  0  0  0
    2.2503    3.0667   -0.1310 H   0  0  0  0  0  0  0  0  0  0  0  0
    4.1811    4.7085   -0.1647 H   0  0  0  0  0  0  0  0  0  0  0  0
    6.5346    3.8617   -0.1250 H   0  0  0  0  0  0  0  0  0  0  0  0
    7.0159    1.4101   -0.0527 H   0  0  0  0  0  0  0  0  0  0  0  0
    3.2249   -3.1712   -0.0607 H   0  0  0  0  0  0  0  0  0  0  0  0
    0.6182   -4.0359   -1.2136 H   0  0  0  0  0  0  0  0  0  0  0  0
    1.3038   -4.5449    0.3675 H   0  0  0  0  0  0  0  0  0  0  0  0
  1 14  1  0  0  0  0
  4 17  1  0  0  0  0
  5 16  1  0  0  0  0
  7  3  1  0  0  0  0
  8  7  2  0  0  0  0
  8  9  1  0  0  0  0
  9 27  1  0  0  0  0
 10  9  2  0  0  0  0
 10 28  1  0  0  0  0
 11 10  1  0  0  0  0
 12 13  1  0  0  0  0
 12 11  2  0  0  0  0
 13  1  1  6  0  0  0
 13  8  1  0  0  0  0
 14 15  2  0  0  0  0
 14  7  1  0  0  0  0
 15  5  1  0  0  0  0
 16 32  1  0  0  0  0
 17 24  1  0  0  0  0
 18 23  1  0  0  0  0
 18 17  2  0  0  0  0
 19 18  1  0  0  0  0
 20 19  1  0  0  0  0
 20 21  2  0  0  0  0
 21 22  1  0  0  0  0
 22 23  2  0  0  0  0
 22 36  1  0  0  0  0
 23  2  1  0  0  0  0
 24  2  1  0  0  0  0
 25 24  2  0  0  0  0
 25  6  1  0  0  0  0
 26  6  1  0  0  0  0
 26 39  1  0  0  0  0
 26 16  1  0  0  0  0
 29 11  1  0  0  0  0
 30 12  1  0  0  0  0
 31 16  1  0  0  0  0
 33 19  1  0  0  0  0
 34 20  1  0  0  0  0
 35 21  1  0  0  0  0
 37 25  1  0  0  0  0
 38 26  1  0  0  0  0
M  CHG  2   3  -1   4  -1
M  END
