1,2,3,4
q = -2.0, confidence = 0.838

 62 64  0  0  1  0  0  0  0  0999 V2000
   -1.2607   -2.5063    0.0608 O   0  5  0  0  0  0  0  0  0  0  0  0
    1.2661   -2.5366   -0.0234 O   0  0  0  0  0  1  0  0  0  0  0  0
   -1.2389    0.1838   -0.1875 N   0  0  0  0  0  2  0  0  0  0  0  0
    1.2851    0.1180   -0.4921 N   0  0  0  0  0  2  0  0  0  0  0  0
    3.2759   -1.2493   -0.0804 C   0  0  0  0  0  0  0  0  0  0  0  0
    2.5419   -2.4760    0.0420 C   0  0  2  0  0  3  0  0  0  0  0  0
   -2.5452    0.0269   -0.1519 C   0  0  0  0  0  3  0  0  0  0  0  0
   -3.1592    0.9414   -0.2100 H   0  0  0  0  0  0  0  0  0  0  0  0
   -3.2564   -1.2040   -0.0749 C   0  0  0  0  0  0  0  0  0  0  0  0
   -5.4671    0.0853    0.2490 C   0  0  0  0  0  0  0  0  0  0  0  0
    5.4354    0.0953    0.3138 C   0  0  0  0  0  0  0  0  0  0  0  0
   -2.5370   -2.4420    0.0136 C   0  0  0  0  0  0  0  0  0  0  0  0
    2.5876   -0.0450   -0.4060 C   0  0  0  0  0  0  0  0  0  0  0  0
    3.2184    0.8278   -0.6466 H   0  0  0  0  0  0  0  0  0  0  0  0
   -5.4107   -2.1480   -0.5178 O   0  0  0  0  0  0  0  0  0  0  0  0
   -3.2337   -3.7750    0.0860 C   0  0  0  0  0  0  0  0  0  0  0  0
   -2.4855   -4.5509    0.3296 H   0  0  0  0  0  0  0  0  0  0  0  0
   -3.7208   -3.9972   -0.8837 H   0  0  0  0  0  0  0  0  0  0  0  0
   -4.0563   -3.7659    0.8264 H   0  0  0  0  0  0  0  0  0  0  0  0
   -0.6158    1.5167   -0.1645 C   0  0  2  0  0  0  0  0  0  0  0  0
   -0.3115    1.7164    0.8918 H   0  0  0  0  0  0  0  0  0  0  0  0
   -1.4521    2.7011   -0.6514 C   0  0  0  0  0  0  0  0  0  0  0  0
   -2.3626    2.8241   -0.0299 H   0  0  0  0  0  0  0  0  0  0  0  0
   -1.7941    2.5050   -1.6915 H   0  0  0  0  0  0  0  0  0  0  0  0
    1.5306    2.6401   -0.8987 C   0  0  0  0  0  0  0  0  0  0  0  0
    2.4422    2.5397   -1.5225 H   0  0  0  0  0  0  0  0  0  0  0  0
    1.8735    2.7959    0.1481 H   0  0  0  0  0  0  0  0  0  0  0  0
    4.7523   -1.2216    0.0052 C   0  0  0  0  0  0  0  0  0  0  0  0
   -6.6334    0.4253   -0.4669 C   0  0  0  0  0  0  0  0  0  0  0  0
   -6.9333   -0.2189   -1.3070 H   0  0  0  0  0  0  0  0  0  0  0  0
   -5.0998    0.8661    1.3661 C   0  0  0  0  0  0  0  0  0  0  0  0
   -4.2192    0.5818    1.9628 H   0  0  0  0  0  0  0  0  0  0  0  0
   -4.7345   -1.1801   -0.1486 C   0  0  0  0  0  0  0  0  0  0  0  0
    5.4650   -2.2204   -0.1556 O   0  0  0  0  0  0  0  0  0  0  0  0
    6.6919    0.3400   -0.2781 C   0  0  0  0  0  0  0  0  0  0  0  0
    7.0973   -0.4179   -0.9650 H   0  0  0  0  0  0  0  0  0  0  0  0
   -5.8697    1.9777    1.7418 C   0  0  0  0  0  0  0  0  0  0  0  0
   -5.5840    2.5687    2.6256 H   0  0  0  0  0  0  0  0  0  0  0  0
   -7.0081    2.3284    0.9987 C   0  0  0  0  0  0  0  0  0  0  0  0
   -7.6071    3.2054    1.2883 H   0  0  0  0  0  0  0  0  0  0  0  0
    3.2214   -3.8018    0.2589 C   0  0  0  0  0  0  0  0  0  0  0  0
    2.4478   -4.5681    0.4466 H   0  0  0  0  0  0  0  0  0  0  0  0
    3.9438   -3.7508    1.0964 H   0  0  0  0  0  0  0  0  0  0  0  0
    3.8304   -4.0673   -0.6270 H   0  0  0  0  0  0  0  0  0  0  0  0
   -0.6102    3.9859   -0.5990 C   0  0  0  0  0  0  0  0  0  0  0  0
   -1.2012    4.8385   -0.9913 H   0  0  0  0  0  0  0  0  0  0  0  0
   -0.3837    4.2267    0.4634 H   0  0  0  0  0  0  0  0  0  0  0  0
    0.6804    1.3709   -0.9690 C   0  0  1  0  0  0  0  0  0  0  0  0
    0.3802    1.2086   -2.0323 H   0  0  0  0  0  0  0  0  0  0  0  0
   -7.3892    1.5477   -0.1063 C   0  0  0  0  0  0  0  0  0  0  0  0
   -8.2880    1.8133   -0.6838 H   0  0  0  0  0  0  0  0  0  0  0  0
    7.4012    1.5115    0.0135 C   0  0  0  0  0  0  0  0  0  0  0  0
    8.3730    1.6997   -0.4682 H   0  0  0  0  0  0  0  0  0  0  0  0
    0.7045    3.8450   -1.3757 C   0  0  0  0  0  0  0  0  0  0  0  0
    1.3068    4.7721   -1.2874 H   0  0  0  0  0  0  0  0  0  0  0  0
    0.4786    3.7225   -2.4581 H   0  0  0  0  0  0  0  0  0  0  0  0
    4.9251    1.0282    1.2422 C   0  0  0  0  0  0  0  0  0  0  0  0
    3.9681    0.8257    1.7474 H   0  0  0  0  0  0  0  0  0  0  0  0
    5.6461    2.1916    1.5520 C   0  0  0  0  0  0  0  0  0  0  0  0
    5.2466    2.9035    2.2907 H   0  0  0  0  0  0  0  0  0  0  0  0
    6.8790    2.4419    0.9289 C   0  0  0  0  0  0  0  0  0  0  0  0
    7.4405    3.3587    1.1656 H   0  0  0  0  0  0  0  0  0  0  0  0
  3 20  1  0  0  0  0
  3  7  1  0  0  0  0
  4 13  1  0  0  0  0
  5 28  1  0  0  0  0
  5  6  1  0  0  0  0
  6  2  1  6  0  0  0
  6 41  1  0  0  0  0
  7  9  1  0  0  0  0
  8  7  1  0  0  0  0
  9 12  2  0  0  0  0
 10 31  1  0  0  0  0
 11 57  1  0  0  0  0
 12  1  1  0  0  0  0
 12 16  1  0  0  0  0
 13  5  2  0  0  0  0
 14 13  1  0  0  0  0
 15 33  2  0  0  0  0
 16 17  1  0  0  0  0
 16 19  1  0  0  0  0
 18 16  1  0  0  0  0
 20 21  1  1  0  0  0
 22 45  1  0  0  0  0
 22 20  1  0  0  0  0
 22 23  1  0  0  0  0
 24 22  1  0  0  0  0
 25 27  1  0  0  0  0
 26 25  1  0  0  0  0
 28 11  1  0  0  0  0
 29 50  1  0  0  0  0
 29 10  2  0  0  0  0
 30 29  1  0  0  0  0
 31 37  2  0  0  0  0
 31 32  1  0  0  0  0
 33  9  1  0  0  0  0
 33 10  1  0  0  0  0
 34 28  2  0  0  0  0
 35 52  1  0  0  0  0
 35 11  2  0  0  0  0
 36 35  1  0  0  0  0
 37 38  1  0  0  0  0
 39 40  1  0  0  0  0
 39 37  1  0  0  0  0
 41 42  1  0  0  0  0
 41 43  1  0  0  0  0
 44 41  1  0  0  0  0
 45 47  1  0  0  0  0
 46 45  1  0  0  0  0
 48 49  1  6  0  0  0
 48 25  1  0  0  0  0
 48  4  1  0  0  0  0
 48 20  1  0  0  0  0
 50 39  2  0  0  0  0
 51 50  1  0  0  0  0
 52 61  2  0  0  0  0
 53 52  1  0  0  0  0
 54 55  1  0  0  0  0
 54 25  1  0  0  0  0
 54 45  1  0  0  0  0
 56 54  1  0  0  0  0
 57 59  2  0  0  0  0
 57 58  1  0  0  0  0
 59 60  1  0  0  0  0
 61 62  1  0  0  0  0
 61 59  1  0  0  0  0
M  CHG  1   1  -1
M  END
