1,2,3,4
q = -2.0, confidence = 0.924

 37 36  0  0  1  0  0  0  0  0999 V2000
    1.3920   -1.6982   -0.4230 O   0  5  0  0  0  0  0  0  0  0  0  0
    1.5529    1.2733    0.0300 N   0  0  0  0  0  2  0  0  0  0  0  0
   -1.3922   -1.6980   -0.4239 O   0  5  0  0  0  0  0  0  0  0  0  0
   -1.5528    1.2734    0.0298 N   0  0  0  0  0  2  0  0  0  0  0  0
    3.4053   -2.9078   -0.2539 C   0  0  0  0  0  0  0  0  0  0  0  0
    4.4561   -2.8193    0.0768 H   0  0  0  0  0  0  0  0  0  0  0  0
    3.3843   -3.2447   -1.3109 H   0  0  0  0  0  0  0  0  0  0  0  0
    2.8933   -3.6942    0.3368 H   0  0  0  0  0  0  0  0  0  0  0  0
   -3.3042   -0.4398    0.2705 C   0  0  0  0  0  0  0  0  0  0  0  0
   -4.3634   -0.5581    0.5335 H   0  0  0  0  0  0  0  0  0  0  0  0
    2.6373   -1.6111   -0.1363 C   0  0  0  0  0  0  0  0  0  0  0  0
    3.8115    1.9308    0.7747 C   0  0  0  0  0  0  0  0  0  0  0  0
    4.0448    2.6429   -0.0445 H   0  0  0  0  0  0  0  0  0  0  0  0
    4.7569    1.4575    1.0918 H   0  0  0  0  0  0  0  0  0  0  0  0
    3.4209    2.5357    1.6182 H   0  0  0  0  0  0  0  0  0  0  0  0
    2.8066    0.8862    0.3315 C   0  0  2  0  0  3  0  0  0  0  0  0
    3.3043   -0.4399    0.2703 C   0  0  0  0  0  0  0  0  0  0  0  0
    4.3636   -0.5582    0.5330 H   0  0  0  0  0  0  0  0  0  0  0  0
   -2.8065    0.8863    0.3314 C   0  0  2  0  0  3  0  0  0  0  0  0
   -1.2860    2.7164    0.0400 C   0  0  0  0  0  0  0  0  0  0  0  0
   -1.2456    3.0954    1.0904 H   0  0  0  0  0  0  0  0  0  0  0  0
   -2.1222    3.2582   -0.4507 H   0  0  0  0  0  0  0  0  0  0  0  0
    0.0001    3.1022   -0.6767 C   0  0  0  0  0  0  0  0  0  0  0  0
    0.0001    2.6819   -1.7039 H   0  0  0  0  0  0  0  0  0  0  0  0
    0.0001    4.2078   -0.7796 H   0  0  0  0  0  0  0  0  0  0  0  0
    1.2861    2.7163    0.0401 C   0  0  0  0  0  0  0  0  0  0  0  0
    2.1223    3.2581   -0.4507 H   0  0  0  0  0  0  0  0  0  0  0  0
    1.2457    3.0955    1.0904 H   0  0  0  0  0  0  0  0  0  0  0  0
   -2.6374   -1.6110   -0.1366 C   0  0  0  0  0  0  0  0  0  0  0  0
   -3.4053   -2.9077   -0.2539 C   0  0  0  0  0  0  0  0  0  0  0  0
   -3.3847   -3.2445   -1.3109 H   0  0  0  0  0  0  0  0  0  0  0  0
   -4.4560   -2.8193    0.0773 H   0  0  0  0  0  0  0  0  0  0  0  0
   -2.8929   -3.6941    0.3365 H   0  0  0  0  0  0  0  0  0  0  0  0
   -3.8113    1.9311    0.7743 C   0  0  0  0  0  0  0  0  0  0  0  0
   -3.4207    2.5360    1.6179 H   0  0  0  0  0  0  0  0  0  0  0  0
   -4.7569    1.4580    1.0913 H   0  0  0  0  0  0  0  0  0  0  0  0
   -4.0443    2.6433   -0.0449 H   0  0  0  0  0  0  0  0  0  0  0  0
  1 11  1  0  0  0  0
  2 26  1  0  0  0  0
  3 29  1  0  0  0  0
  4 20  1  0  0  0  0
  5 11  1  0  0  0  0
  5  6  1  0  0  0  0
  5  8  1  0  0  0  0
  7  5  1  0  0  0  0
  9 19  1  0  0  0  0
  9 10  1  0  0  0  0
 11 17  2  0  0  0  0
 12 14  1  0  0  0  0
 12 15  1  0  0  0  0
 13 12  1  0  0  0  0
 16  2  1  6  0  0  0
 16 12  1  0  0  0  0
 17 16  1  0  0  0  0
 17 18  1  0  0  0  0
 19  4  1  6  0  0  0
 19 34  1  0  0  0  0
 20 21  1  0  0  0  0
 22 20  1  0  0  0  0
 23 20  1  0  0  0  0
 23 26  1  0  0  0  0
 24 23  1  0  0  0  0
 25 23  1  0  0  0  0
 26 28  1  0  0  0  0
 27 26  1  0  0  0  0
 29  9  2  0  0  0  0
 30 29  1  0  0  0  0
 30 32  1  0  0  0  0
 30 33  1  0  0  0  0
 31 30  1  0  0  0  0
 34 36  1  0  0  0  0
 34 35  1  0  0  0  0
 37 34  1  0  0  0  0
M  CHG  2   1  -1   3  -1
M  END
