1,2,13,14
q = -2.0, confidence = 0.774

 24 25  0  0  0  0  0  0  0  0999 V2000
    1.2020   -0.6054    0.0000 N   0  0  0  0  0  2  0  0  0  0  0  0
    1.5775    1.8834    0.0001 O   0  5  0  0  0  0  0  0  0  0  0  0
    3.8438    1.7078    0.0002 O   0  0  0  0  0  0  0  0  0  0  0  0
    2.7250    1.2192    0.0001 C   0  0  0  0  0  0  0  0  0  0  0  0
    2.5084   -0.2894   -0.0001 C   0  0  0  0  0  0  0  0  0  0  0  0
    3.4725   -1.3020   -0.0002 C   0  0  0  0  0  0  0  0  0  0  0  0
    4.5346   -1.0174   -0.0002 H   0  0  0  0  0  0  0  0  0  0  0  0
    3.0368   -2.6403   -0.0002 C   0  0  0  0  0  0  0  0  0  0  0  0
    3.7714   -3.4587   -0.0003 H   0  0  0  0  0  0  0  0  0  0  0  0
    1.6619   -2.9444   -0.0001 C   0  0  0  0  0  0  0  0  0  0  0  0
    1.3150   -3.9874   -0.0002 H   0  0  0  0  0  0  0  0  0  0  0  0
    0.7353   -1.8918   -0.0000 C   0  0  0  0  0  0  0  0  0  0  0  0
   -1.2020   -0.6054   -0.0000 N   0  0  0  0  0  2  0  0  0  0  0  0
   -1.5775    1.8834   -0.0001 O   0  5  0  0  0  0  0  0  0  0  0  0
   -3.8439    1.7078   -0.0002 O   0  0  0  0  0  0  0  0  0  0  0  0
   -2.7250    1.2192   -0.0001 C   0  0  0  0  0  0  0  0  0  0  0  0
   -2.5084   -0.2894    0.0001 C   0  0  0  0  0  0  0  0  0  0  0  0
   -3.4725   -1.3020    0.0002 C   0  0  0  0  0  0  0  0  0  0  0  0
   -4.5346   -1.0174    0.0002 H   0  0  0  0  0  0  0  0  0  0  0  0
   -3.0367   -2.6403    0.0002 C   0  0  0  0  0  0  0  0  0  0  0  0
   -3.7714   -3.4587    0.0003 H   0  0  0  0  0  0  0  0  0  0  0  0
   -1.6619   -2.9445    0.0001 C   0  0  0  0  0  0  0  0  0  0  0  0
   -1.3150   -3.9874    0.0002 H   0  0  0  0  0  0  0  0  0  0  0  0
   -0.7353   -1.8918    0.0000 C   0  0  0  0  0  0  0  0  0  0  0  0
  4  2  1  0  0  0  0
  4  3  2  0  0  0  0
  5  1  1  0  0  0  0
  5  4  1  0  0  0  0
  6  5  2  0  0  0  0
  7  6  1  0  0  0  0
  8  6  1  0  0  0  0
  8 10  2  0  0  0  0
  9  8  1  0  0  0  0
 10 12  1  0  0  0  0
 11 10  1  0  0  0  0
 12 24  2  0  0  0  0
 12  1  1  0  0  0  0
 13 24  1  0  0  0  0
 13 17  1  0  0  0  0
 14 16  1  0  0  0  0
 15 16  2  0  0  0  0
 16 17  1  0  0  0  0
 17 18  2  0  0  0  0
 18 19  1  0  0  0  0
 18 20  1  0  0  0  0
 20 21  1  0  0  0  0
 22 23  1  0  0  0  0
 22 20  2  0  0  0  0
 24 22  1  0  0  0  0
M  CHG  2   2  -1  14  -1
M  END
