1,2,6,7
q = -2.0, confidence = 0.854

 55 56  0  0  1  0  0  0  0  0999 V2000
   -1.2217   -1.6173   -0.0212 O   0  5  0  0  0  0  0  0  0  0  0  0
    2.0296    0.5814   -0.9724 O   0  0  0  0  0  1  0  0  0  0  0  0
   -1.2510    3.0357   -0.2925 O   0  0  0  0  0  0  0  0  0  0  0  0
   -2.1812    2.2513    2.5989 O   0  0  0  0  0  0  0  0  0  0  0  0
   -0.3297    0.0401    2.8209 O   0  0  0  0  0  0  0  0  0  0  0  0
   -0.6818    0.7116   -1.7085 N   0  0  0  0  0  2  0  0  0  0  0  0
    1.4022   -1.4920    0.9789 N   0  0  0  0  0  2  0  0  0  0  0  0
   -2.7913   -0.5710   -1.5672 C   0  0  0  0  0  0  0  0  0  0  0  0
   -2.3953   -1.5625   -0.5999 C   0  0  0  0  0  0  0  0  0  0  0  0
   -3.3605   -2.5443   -0.2195 C   0  0  0  0  0  0  0  0  0  0  0  0
   -4.6402   -2.5515   -0.7618 C   0  0  0  0  0  0  0  0  0  0  0  0
   -5.0337   -1.5773   -1.7111 C   0  0  0  0  0  0  0  0  0  0  0  0
   -4.1153   -0.6090   -2.0941 C   0  0  0  0  0  3  0  0  0  0  0  0
   -1.9429    0.5032   -1.9982 C   0  0  0  0  0  0  0  0  0  0  0  0
   -0.1131    1.9967   -2.1260 C   0  0  0  0  0  0  0  0  0  0  0  0
    0.0016    2.9519   -0.9374 C   0  0  0  0  0  0  0  0  0  0  0  0
   -1.2243    3.7828    0.9129 C   0  0  0  0  0  0  0  0  0  0  0  0
   -2.3983    3.4026    1.8127 C   0  0  0  0  0  0  0  0  0  0  0  0
   -2.3163    1.0185    1.9087 C   0  0  0  0  0  0  0  0  0  0  0  0
   -1.7424   -0.1014    2.7498 C   0  0  0  0  0  0  0  0  0  0  0  0
    0.3709   -1.1123    3.2124 C   0  0  0  0  0  0  0  0  0  0  0  0
    0.6499   -2.1158    2.0708 C   0  0  0  0  0  0  0  0  0  0  0  0
    3.6514   -0.7674    0.2611 C   0  0  0  0  0  0  0  0  0  0  0  0
    3.2646    0.2504   -0.6852 C   0  0  2  0  0  3  0  0  0  0  0  0
    4.3058    0.9687   -1.3482 C   0  0  0  0  0  0  0  0  0  0  0  0
    5.6462    0.6873   -1.1134 C   0  0  0  0  0  0  0  0  0  0  0  0
    6.0288   -0.3188   -0.1928 C   0  0  0  0  0  0  0  0  0  0  0  0
    5.0373   -1.0189    0.4808 C   0  0  0  0  0  0  0  0  0  0  0  0
    2.7104   -1.4900    1.0684 C   0  0  0  0  0  0  0  0  0  0  0  0
   -3.0474   -3.2993    0.5163 H   0  0  0  0  0  0  0  0  0  0  0  0
   -5.3552   -3.3270   -0.4451 H   0  0  0  0  0  0  0  0  0  0  0  0
   -6.0482   -1.5861   -2.1340 H   0  0  0  0  0  0  0  0  0  0  0  0
   -4.4017    0.1640   -2.8253 H   0  0  0  0  0  0  0  0  0  0  0  0
   -2.4310    1.2613   -2.6404 H   0  0  0  0  0  0  0  0  0  0  0  0
   -0.7626    2.4398   -2.9097 H   0  0  0  0  0  0  0  0  0  0  0  0
    0.9005    1.8334   -2.5368 H   0  0  0  0  0  0  0  0  0  0  0  0
    0.7812    2.5737   -0.2369 H   0  0  0  0  0  0  0  0  0  0  0  0
    0.3410    3.9499   -1.3147 H   0  0  0  0  0  0  0  0  0  0  0  0
   -1.2594    4.8800    0.6910 H   0  0  0  0  0  0  0  0  0  0  0  0
   -0.2819    3.5836    1.4770 H   0  0  0  0  0  0  0  0  0  0  0  0
   -2.5636    4.2345    2.5295 H   0  0  0  0  0  0  0  0  0  0  0  0
   -3.3195    3.3111    1.1847 H   0  0  0  0  0  0  0  0  0  0  0  0
   -1.7823    1.0383    0.9349 H   0  0  0  0  0  0  0  0  0  0  0  0
   -3.3933    0.7972    1.6985 H   0  0  0  0  0  0  0  0  0  0  0  0
   -2.1820   -0.0731    3.7770 H   0  0  0  0  0  0  0  0  0  0  0  0
   -2.0313   -1.0637    2.2712 H   0  0  0  0  0  0  0  0  0  0  0  0
   -0.1568   -1.6604    4.0320 H   0  0  0  0  0  0  0  0  0  0  0  0
    1.3446   -0.7624    3.6198 H   0  0  0  0  0  0  0  0  0  0  0  0
    1.2326   -2.9636    2.4932 H   0  0  0  0  0  0  0  0  0  0  0  0
   -0.2945   -2.5094    1.6535 H   0  0  0  0  0  0  0  0  0  0  0  0
    4.0015    1.7483   -2.0616 H   0  0  0  0  0  0  0  0  0  0  0  0
    6.4188    1.2571   -1.6531 H   0  0  0  0  0  0  0  0  0  0  0  0
    7.0909   -0.5350   -0.0098 H   0  0  0  0  0  0  0  0  0  0  0  0
    5.3115   -1.7943    1.2143 H   0  0  0  0  0  0  0  0  0  0  0  0
    3.1508   -2.0988    1.8840 H   0  0  0  0  0  0  0  0  0  0  0  0
  3 17  1  0  0  0  0
  5 21  1  0  0  0  0
  7 29  1  0  0  0  0
  7 22  1  0  0  0  0
  8  9  1  0  0  0  0
  9 10  2  0  0  0  0
  9  1  1  0  0  0  0
 10 30  1  0  0  0  0
 11 31  1  0  0  0  0
 11 10  1  0  0  0  0
 12 11  2  0  0  0  0
 13 12  1  0  0  0  0
 13  8  1  0  0  0  0
 14  6  1  0  0  0  0
 14  8  2  0  0  0  0
 15  6  1  0  0  0  0
 15 16  1  0  0  0  0
 16  3  1  0  0  0  0
 16 37  1  0  0  0  0
 17 40  1  0  0  0  0
 17 18  1  0  0  0  0
 18 41  1  0  0  0  0
 18  4  1  0  0  0  0
 19  4  1  0  0  0  0
 19 20  1  0  0  0  0
 20  5  1  0  0  0  0
 20 45  1  0  0  0  0
 21 48  1  0  0  0  0
 21 47  1  0  0  0  0
 22 49  1  0  0  0  0
 22 21  1  0  0  0  0
 23 28  1  0  0  0  0
 23 29  2  0  0  0  0
 24  2  1  1  0  0  0
 24 23  1  0  0  0  0
 25 26  2  0  0  0  0
 25 24  1  0  0  0  0
 26 27  1  0  0  0  0
 27 53  1  0  0  0  0
 27 28  2  0  0  0  0
 28 54  1  0  0  0  0
 29 55  1  0  0  0  0
 32 12  1  0  0  0  0
 33 13  1  0  0  0  0
 34 14  1  0  0  0  0
 35 15  1  0  0  0  0
 36 15  1  0  0  0  0
 38 16  1  0  0  0  0
 39 17  1  0  0  0  0
 42 18  1  0  0  0  0
 43 19  1  0  0  0  0
 44 19  1  0  0  0  0
 46 20  1  0  0  0  0
 50 22  1  0  0  0  0
 51 25  1  0  0  0  0
 52 26  1  0  0  0  0
M  CHG  1   1  -1
M  END
