1,2,7,8
q = -2.0, confidence = 0.836

 62 63  0  0  1  0  0  0  0  0999 V2000
   -2.5265   -0.9183   -0.3670 O   0  0  0  0  0  1  0  0  0  0  0  0
    0.8598    1.0824   -1.2367 O   0  5  0  0  0  0  0  0  0  0  0  0
    1.2645    3.6853    1.2528 O   0  0  0  0  0  0  0  0  0  0  0  0
    2.7408    1.1120    1.8919 O   0  0  0  0  0  0  0  0  0  0  0  0
    2.7318   -1.7129    2.7851 O   0  0  0  0  0  0  0  0  0  0  0  0
    0.6686   -3.2747    1.0635 O   0  0  0  0  0  0  0  0  0  0  0  0
   -1.5836    1.8470   -0.1437 N   0  0  0  0  0  2  0  0  0  0  0  0
    0.0301   -1.7194   -1.2275 N   0  0  0  0  0  2  0  0  0  0  0  0
   -3.8842    1.0226    0.2300 C   0  0  0  0  0  0  0  0  0  0  0  0
   -3.6746   -0.3780   -0.0388 C   0  0  2  0  0  3  0  0  0  0  0  0
   -4.7993   -1.2510    0.0722 C   0  0  0  0  0  0  0  0  0  0  0  0
   -6.0579   -0.7739    0.4174 C   0  0  0  0  0  0  0  0  0  0  0  0
   -6.2682    0.6018    0.6793 C   0  0  0  0  0  0  0  0  0  0  0  0
   -5.1897    1.4710    0.5877 C   0  0  0  0  0  0  0  0  0  0  0  0
   -2.8367    2.0039    0.2071 C   0  0  0  0  0  0  0  0  0  0  0  0
   -0.6734    2.9796    0.0530 C   0  0  0  0  0  0  0  0  0  0  0  0
    0.2151    2.7330    1.2744 C   0  0  0  0  0  0  0  0  0  0  0  0
    2.2674    3.4571    2.2251 C   0  0  0  0  0  0  0  0  0  0  0  0
    3.3014    2.4061    1.8386 C   0  0  0  0  0  0  0  0  0  0  0  0
    3.6436    0.0973    1.4920 C   0  0  0  0  0  0  0  0  0  0  0  0
    2.9386   -1.2409    1.4640 C   0  0  0  0  0  0  0  0  0  0  0  0
    2.2577   -3.0372    2.8697 C   0  0  0  0  0  0  0  0  0  0  0  0
    0.7978   -3.2329    2.4734 C   0  0  0  0  0  0  0  0  0  0  0  0
   -0.6684   -3.1990    0.6177 C   0  0  0  0  0  0  0  0  0  0  0  0
   -0.6797   -2.9573   -0.8898 C   0  0  0  0  0  0  0  0  0  0  0  0
    2.2325   -0.8150   -1.9027 C   0  0  0  0  0  0  0  0  0  0  0  0
    1.9851    0.5858   -1.6742 C   0  0  0  0  0  0  0  0  0  0  0  0
    3.0475    1.5059   -1.9345 C   0  0  0  0  0  0  0  0  0  0  0  0
    4.2868    1.0685   -2.3852 C   0  0  0  0  0  0  0  0  0  0  0  0
    4.5392   -0.3096   -2.6000 C   0  0  0  0  0  0  0  0  0  0  0  0
    3.5203   -1.2222   -2.3599 C   0  0  0  0  0  3  0  0  0  0  0  0
    1.2657   -1.8448   -1.6495 C   0  0  0  0  0  0  0  0  0  0  0  0
    1.8172    3.1794    3.2094 H   0  0  0  0  0  0  0  0  0  0  0  0
    0.6109    1.6971    1.2340 H   0  0  0  0  0  0  0  0  0  0  0  0
    4.1729    2.4907    2.5394 H   0  0  0  0  0  0  0  0  0  0  0  0
    4.5144    0.0454    2.1925 H   0  0  0  0  0  0  0  0  0  0  0  0
    1.9780   -1.1341    0.9140 H   0  0  0  0  0  0  0  0  0  0  0  0
    0.1952   -2.3931    2.8983 H   0  0  0  0  0  0  0  0  0  0  0  0
    0.4154   -4.1815    2.9305 H   0  0  0  0  0  0  0  0  0  0  0  0
   -1.2108   -2.3669    1.1226 H   0  0  0  0  0  0  0  0  0  0  0  0
   -1.7313   -2.8767   -1.2203 H   0  0  0  0  0  0  0  0  0  0  0  0
   -1.2575    3.9164    0.1665 H   0  0  0  0  0  0  0  0  0  0  0  0
    2.7990    4.4232    2.3582 H   0  0  0  0  0  0  0  0  0  0  0  0
    3.6844    2.6284    0.8113 H   0  0  0  0  0  0  0  0  0  0  0  0
    2.3673   -3.3336    3.9339 H   0  0  0  0  0  0  0  0  0  0  0  0
   -0.3879    2.8277    2.2136 H   0  0  0  0  0  0  0  0  0  0  0  0
    2.8844   -3.7332    2.2553 H   0  0  0  0  0  0  0  0  0  0  0  0
   -4.6283   -2.3180   -0.1322 H   0  0  0  0  0  0  0  0  0  0  0  0
   -6.9009   -1.4791    0.4875 H   0  0  0  0  0  0  0  0  0  0  0  0
   -0.0141    3.0692   -0.8289 H   0  0  0  0  0  0  0  0  0  0  0  0
   -1.2274   -4.1443    0.8354 H   0  0  0  0  0  0  0  0  0  0  0  0
   -0.1935   -3.8087   -1.4105 H   0  0  0  0  0  0  0  0  0  0  0  0
   -7.2657    0.9732    0.9536 H   0  0  0  0  0  0  0  0  0  0  0  0
    4.0418    0.3084    0.4703 H   0  0  0  0  0  0  0  0  0  0  0  0
   -5.3277    2.5444    0.7952 H   0  0  0  0  0  0  0  0  0  0  0  0
   -3.1293    3.0195    0.5395 H   0  0  0  0  0  0  0  0  0  0  0  0
    2.8412    2.5701   -1.7501 H   0  0  0  0  0  0  0  0  0  0  0  0
    3.5657   -1.9629    0.8839 H   0  0  0  0  0  0  0  0  0  0  0  0
    5.0836    1.8056   -2.5715 H   0  0  0  0  0  0  0  0  0  0  0  0
    5.5236   -0.6492   -2.9517 H   0  0  0  0  0  0  0  0  0  0  0  0
    3.6951   -2.2985   -2.5193 H   0  0  0  0  0  0  0  0  0  0  0  0
    1.6262   -2.8790   -1.8085 H   0  0  0  0  0  0  0  0  0  0  0  0
  3 17  1  0  0  0  0
  3 18  1  0  0  0  0
  5 22  1  0  0  0  0
  6 23  1  0  0  0  0
  7 16  1  0  0  0  0
  7 15  1  0  0  0  0
  8 25  1  0  0  0  0
  9 14  1  0  0  0  0
 10  1  1  1  0  0  0
 10 11  1  0  0  0  0
 10  9  1  0  0  0  0
 11 12  2  0  0  0  0
 12 49  1  0  0  0  0
 12 13  1  0  0  0  0
 13 53  1  0  0  0  0
 14 13  2  0  0  0  0
 14 55  1  0  0  0  0
 15  9  2  0  0  0  0
 15 56  1  0  0  0  0
 16 42  1  0  0  0  0
 16 17  1  0  0  0  0
 17 46  1  0  0  0  0
 18 43  1  0  0  0  0
 18 33  1  0  0  0  0
 19  4  1  0  0  0  0
 19 18  1  0  0  0  0
 19 35  1  0  0  0  0
 20  4  1  0  0  0  0
 20 36  1  0  0  0  0
 21 20  1  0  0  0  0
 21  5  1  0  0  0  0
 22 45  1  0  0  0  0
 23 22  1  0  0  0  0
 23 38  1  0  0  0  0
 23 39  1  0  0  0  0
 24 51  1  0  0  0  0
 24  6  1  0  0  0  0
 24 40  1  0  0  0  0
 25 24  1  0  0  0  0
 26 27  1  0  0  0  0
 26 32  2  0  0  0  0
 27  2  1  0  0  0  0
 28 57  1  0  0  0  0
 28 27  2  0  0  0  0
 29 28  1  0  0  0  0
 30 29  2  0  0  0  0
 30 31  1  0  0  0  0
 31 26  1  0  0  0  0
 32  8  1  0  0  0  0
 34 17  1  0  0  0  0
 37 21  1  0  0  0  0
 41 25  1  0  0  0  0
 44 19  1  0  0  0  0
 47 22  1  0  0  0  0
 48 11  1  0  0  0  0
 50 16  1  0  0  0  0
 52 25  1  0  0  0  0
 54 20  1  0  0  0  0
 58 21  1  0  0  0  0
 59 29  1  0  0  0  0
 60 30  1  0  0  0  0
 61 31  1  0  0  0  0
 62 32  1  0  0  0  0
M  CHG  1   2  -1
M  END
