1,2,3,5
q = -2.0, confidence = 0.868

 68 69  0  0  1  0  0  0  0  0999 V2000
    1.7146   -0.8969   -1.0617 O   0  0  0  0  0  1  0  0  0  0  0  0
   -1.7142   -0.8984    1.0612 O   0  5  0  0  0  0  0  0  0  0  0  0
    1.0274   -0.7470    1.7680 N   0  0  0  0  0  2  0  0  0  0  0  0
    0.4437   -0.4514    3.0343 N   0  0  0  0  0  0  0  0  0  0  0  0
   -1.0271   -0.7463   -1.7684 N   0  0  0  0  0  2  0  0  0  0  0  0
   -0.4434   -0.4499   -3.0345 N   0  0  0  0  0  0  0  0  0  0  0  0
    3.2737   -1.1104    0.7964 C   0  0  0  0  0  0  0  0  0  0  0  0
    2.9232   -1.0865   -0.5999 C   0  0  2  0  0  3  0  0  0  0  0  0
    3.9735   -1.2595   -1.5534 C   0  0  0  0  0  0  0  0  0  0  0  0
    5.2882   -1.4589   -1.1510 C   0  0  0  0  0  0  0  0  0  0  0  0
    5.6360   -1.4867    0.2225 C   0  0  0  0  0  0  0  0  0  0  0  0
    4.6368   -1.3065    1.1684 C   0  0  0  0  0  0  0  0  0  0  0  0
    2.3341   -0.8794    1.8509 C   0  0  0  0  0  0  0  0  0  0  0  0
   -0.2387   -1.6013    3.6180 C   0  0  0  0  0  0  0  0  0  0  0  0
   -3.2733   -1.1108   -0.7970 C   0  0  0  0  0  0  0  0  0  0  0  0
   -2.9227   -1.0878    0.5993 C   0  0  0  0  0  0  0  0  0  0  0  0
   -3.9730   -1.2616    1.5528 C   0  0  0  0  0  0  0  0  0  0  0  0
   -5.2877   -1.4609    1.1503 C   0  0  0  0  0  0  0  0  0  0  0  0
   -5.6355   -1.4879   -0.2232 C   0  0  0  0  0  0  0  0  0  0  0  0
   -4.6364   -1.3069   -1.1691 C   0  0  0  0  0  3  0  0  0  0  0  0
   -2.3337   -0.8791   -1.8513 C   0  0  0  0  0  0  0  0  0  0  0  0
    0.2395   -1.5993   -3.6187 C   0  0  0  0  0  0  0  0  0  0  0  0
   -0.3107    0.8086    3.0506 C   0  0  0  0  0  0  0  0  0  0  0  0
    0.4891    1.9839    2.4947 C   0  0  0  0  0  0  0  0  0  0  0  0
   -0.2787    3.3057    2.5780 C   0  0  0  0  0  0  0  0  0  0  0  0
    0.4485    4.4932    1.9285 C   0  0  0  0  0  0  0  0  0  0  0  0
    0.6496    4.4001    0.4073 C   0  0  0  0  0  0  0  0  0  0  0  0
   -0.6514    4.4001   -0.4050 C   0  0  0  0  0  0  0  0  0  0  0  0
   -0.4503    4.4942   -1.9262 C   0  0  0  0  0  0  0  0  0  0  0  0
    0.2773    3.3073   -2.5764 C   0  0  0  0  0  0  0  0  0  0  0  0
   -0.4899    1.9851   -2.4938 C   0  0  0  0  0  0  0  0  0  0  0  0
    0.3104    0.8104   -3.0501 C   0  0  0  0  0  0  0  0  0  0  0  0
    3.6994   -1.2318   -2.6179 H   0  0  0  0  0  0  0  0  0  0  0  0
    6.0701   -1.5948   -1.9147 H   0  0  0  0  0  0  0  0  0  0  0  0
    6.6794   -1.6420    0.5316 H   0  0  0  0  0  0  0  0  0  0  0  0
    4.8833   -1.3118    2.2423 H   0  0  0  0  0  0  0  0  0  0  0  0
    2.7386   -0.7759    2.8736 H   0  0  0  0  0  0  0  0  0  0  0  0
   -0.5389   -1.3278    4.6496 H   0  0  0  0  0  0  0  0  0  0  0  0
   -1.1388   -1.9231    3.0502 H   0  0  0  0  0  0  0  0  0  0  0  0
    0.4694   -2.4513    3.6845 H   0  0  0  0  0  0  0  0  0  0  0  0
   -3.6989   -1.2346    2.6172 H   0  0  0  0  0  0  0  0  0  0  0  0
   -6.0695   -1.5974    1.9139 H   0  0  0  0  0  0  0  0  0  0  0  0
   -6.6789   -1.6431   -0.5324 H   0  0  0  0  0  0  0  0  0  0  0  0
   -4.8829   -1.3115   -2.2430 H   0  0  0  0  0  0  0  0  0  0  0  0
   -2.7382   -0.7751   -2.8740 H   0  0  0  0  0  0  0  0  0  0  0  0
    0.5399   -1.3250   -4.6501 H   0  0  0  0  0  0  0  0  0  0  0  0
    1.1394   -1.9212   -3.0508 H   0  0  0  0  0  0  0  0  0  0  0  0
   -0.4684   -2.4494   -3.6860 H   0  0  0  0  0  0  0  0  0  0  0  0
   -0.5557    0.9900    4.1198 H   0  0  0  0  0  0  0  0  0  0  0  0
   -1.2758    0.7230    2.5010 H   0  0  0  0  0  0  0  0  0  0  0  0
    1.4588    2.0681    3.0336 H   0  0  0  0  0  0  0  0  0  0  0  0
    0.7385    1.7673    1.4340 H   0  0  0  0  0  0  0  0  0  0  0  0
   -0.4809    3.5473    3.6448 H   0  0  0  0  0  0  0  0  0  0  0  0
   -1.2795    3.1751    2.1099 H   0  0  0  0  0  0  0  0  0  0  0  0
   -0.1150    5.4253    2.1556 H   0  0  0  0  0  0  0  0  0  0  0  0
    1.4413    4.6132    2.4158 H   0  0  0  0  0  0  0  0  0  0  0  0
    1.2728    5.2619    0.0804 H   0  0  0  0  0  0  0  0  0  0  0  0
    1.2479    3.4953    0.1629 H   0  0  0  0  0  0  0  0  0  0  0  0
   -1.2750    5.2615   -0.0777 H   0  0  0  0  0  0  0  0  0  0  0  0
   -1.2494    3.4950   -0.1612 H   0  0  0  0  0  0  0  0  0  0  0  0
   -1.4432    4.6140   -2.4134 H   0  0  0  0  0  0  0  0  0  0  0  0
    0.1127    5.4266   -2.1527 H   0  0  0  0  0  0  0  0  0  0  0  0
    0.4794    3.5496   -3.6430 H   0  0  0  0  0  0  0  0  0  0  0  0
    1.2782    3.1768   -2.1083 H   0  0  0  0  0  0  0  0  0  0  0  0
   -1.4596    2.0692   -3.0329 H   0  0  0  0  0  0  0  0  0  0  0  0
   -0.7395    1.7680   -1.4333 H   0  0  0  0  0  0  0  0  0  0  0  0
    0.5556    0.9925   -4.1191 H   0  0  0  0  0  0  0  0  0  0  0  0
    1.2754    0.7250   -2.5003 H   0  0  0  0  0  0  0  0  0  0  0  0
  3 13  1  0  0  0  0
  3  4  1  0  0  0  0
  4 23  1  0  0  0  0
  4 14  1  0  0  0  0
  6  5  1  0  0  0  0
  7 12  1  0  0  0  0
  7 13  2  0  0  0  0
  8  1  1  6  0  0  0
  8  7  1  0  0  0  0
  9 10  2  0  0  0  0
  9  8  1  0  0  0  0
 10 11  1  0  0  0  0
 11 35  1  0  0  0  0
 11 12  2  0  0  0  0
 12 36  1  0  0  0  0
 13 37  1  0  0  0  0
 14 40  1  0  0  0  0
 14 38  1  0  0  0  0
 15 16  1  0  0  0  0
 16  2  1  0  0  0  0
 16 17  2  0  0  0  0
 17 41  1  0  0  0  0
 18 17  1  0  0  0  0
 18 42  1  0  0  0  0
 19 18  2  0  0  0  0
 20 15  1  0  0  0  0
 20 19  1  0  0  0  0
 21  5  1  0  0  0  0
 21 15  2  0  0  0  0
 22 47  1  0  0  0  0
 22  6  1  0  0  0  0
 23 49  1  0  0  0  0
 24 25  1  0  0  0  0
 24 51  1  0  0  0  0
 24 23  1  0  0  0  0
 25 53  1  0  0  0  0
 26 55  1  0  0  0  0
 26 56  1  0  0  0  0
 26 25  1  0  0  0  0
 27 26  1  0  0  0  0
 28 60  1  0  0  0  0
 28 59  1  0  0  0  0
 28 27  1  0  0  0  0
 29 28  1  0  0  0  0
 30 31  1  0  0  0  0
 30 64  1  0  0  0  0
 30 29  1  0  0  0  0
 31 66  1  0  0  0  0
 32  6  1  0  0  0  0
 32 68  1  0  0  0  0
 32 31  1  0  0  0  0
 33  9  1  0  0  0  0
 34 10  1  0  0  0  0
 39 14  1  0  0  0  0
 43 19  1  0  0  0  0
 44 20  1  0  0  0  0
 45 21  1  0  0  0  0
 46 22  1  0  0  0  0
 48 22  1  0  0  0  0
 50 23  1  0  0  0  0
 52 24  1  0  0  0  0
 54 25  1  0  0  0  0
 57 27  1  0  0  0  0
 58 27  1  0  0  0  0
 61 29  1  0  0  0  0
 62 29  1  0  0  0  0
 63 30  1  0  0  0  0
 65 31  1  0  0  0  0
 67 32  1  0  0  0  0
M  CHG  1   2  -1
M  END
