1,2,3,4
q = -2.0, confidence = 0.858

 74 75  0  0  1  0  0  0  0  0999 V2000
   -2.0084   -0.2222   -1.2207 O   0  0  0  0  0  1  0  0  0  0  0  0
    0.7206    1.9621    0.7892 O   0  5  0  0  0  0  0  0  0  0  0  0
    0.4423    1.0052   -1.9512 N   0  0  0  0  0  2  0  0  0  0  0  0
   -1.7207    0.7208    1.5227 N   0  0  0  0  0  2  0  0  0  0  0  0
   -1.2703    1.1756    2.7948 N   0  0  0  0  0  0  0  0  0  0  0  0
    0.1607    0.2802   -3.1451 N   0  0  0  0  0  0  0  0  0  0  0  0
    2.1497    2.5739   -1.0840 C   0  0  0  0  0  0  0  0  0  0  0  0
    0.2524   -1.1701   -2.9425 C   0  0  0  0  0  0  0  0  0  0  0  0
   -0.0716    0.4593    3.2448 C   0  0  0  0  0  0  0  0  0  0  0  0
    0.8790   -1.8545    3.8143 C   0  0  0  0  0  0  0  0  0  0  0  0
   -3.1750   -0.6304   -0.7960 C   0  0  2  0  0  3  0  0  0  0  0  0
   -3.6706   -0.4480    0.5433 C   0  0  0  0  0  0  0  0  0  0  0  0
   -1.2717    2.6301    2.9059 C   0  0  0  0  0  0  0  0  0  0  0  0
    1.7402    2.6140    0.2957 C   0  0  0  0  0  0  0  0  0  0  0  0
   -5.7642   -1.5956   -0.0486 C   0  0  0  0  0  0  0  0  0  0  0  0
    2.5092    3.4135    1.1968 C   0  0  0  0  0  0  0  0  0  0  0  0
   -4.9654   -0.9436    0.8798 C   0  0  0  0  0  0  0  0  0  0  0  0
    1.6825   -1.6136   -2.6301 C   0  0  0  0  0  0  0  0  0  0  0  0
    3.6059    4.1439    0.7567 C   0  0  0  0  0  0  0  0  0  0  0  0
   -1.0118    0.7861   -3.8505 C   0  0  0  0  0  0  0  0  0  0  0  0
    4.0064    4.1141   -0.6026 C   0  0  0  0  0  0  0  0  0  0  0  0
   -2.9145    0.1695    1.5893 C   0  0  0  0  0  0  0  0  0  0  0  0
    3.2854    3.3335   -1.4948 C   0  0  0  0  0  3  0  0  0  0  0  0
    1.7669   -3.0406   -2.0860 C   0  0  0  0  0  0  0  0  0  0  0  0
   -5.2701   -1.7803   -1.3642 C   0  0  0  0  0  0  0  0  0  0  0  0
    1.5128    1.7616   -2.0749 C   0  0  0  0  0  0  0  0  0  0  0  0
   -0.3771   -0.9995    3.5974 C   0  0  0  0  0  0  0  0  0  0  0  0
   -4.0125   -1.3164   -1.7291 C   0  0  0  0  0  0  0  0  0  0  0  0
    3.2023   -3.4788   -1.7680 C   0  0  0  0  0  0  0  0  0  0  0  0
    3.3088   -4.7162   -0.8622 C   0  0  0  0  0  0  0  0  0  0  0  0
    2.7643   -4.5158    0.5617 C   0  0  0  0  0  0  0  0  0  0  0  0
    3.5394   -3.4919    1.4028 C   0  0  0  0  0  0  0  0  0  0  0  0
    2.8448   -3.0980    2.7144 C   0  0  0  0  0  0  0  0  0  0  0  0
    1.6085   -2.2145    2.5148 C   0  0  0  0  0  0  0  0  0  0  0  0
   -0.0958   -1.6342   -3.8889 H   0  0  0  0  0  0  0  0  0  0  0  0
   -0.4400   -1.5162   -2.1415 H   0  0  0  0  0  0  0  0  0  0  0  0
    0.2847    0.9952    4.1492 H   0  0  0  0  0  0  0  0  0  0  0  0
    0.7457    0.5248    2.4932 H   0  0  0  0  0  0  0  0  0  0  0  0
    1.5794   -1.3332    4.5066 H   0  0  0  0  0  0  0  0  0  0  0  0
    0.5925   -2.7945    4.3341 H   0  0  0  0  0  0  0  0  0  0  0  0
   -1.0326    2.8883    3.9568 H   0  0  0  0  0  0  0  0  0  0  0  0
   -0.5499    3.1385    2.2311 H   0  0  0  0  0  0  0  0  0  0  0  0
   -2.2919    3.0065    2.6898 H   0  0  0  0  0  0  0  0  0  0  0  0
   -6.7601   -1.9672    0.2313 H   0  0  0  0  0  0  0  0  0  0  0  0
    2.1958    3.4293    2.2506 H   0  0  0  0  0  0  0  0  0  0  0  0
   -5.3223   -0.7966    1.9118 H   0  0  0  0  0  0  0  0  0  0  0  0
    2.3220   -1.4903   -3.5316 H   0  0  0  0  0  0  0  0  0  0  0  0
    2.1044   -0.9336   -1.8590 H   0  0  0  0  0  0  0  0  0  0  0  0
    4.1717    4.7535    1.4788 H   0  0  0  0  0  0  0  0  0  0  0  0
   -0.8679    1.8650   -4.0609 H   0  0  0  0  0  0  0  0  0  0  0  0
   -1.0735    0.2580   -4.8231 H   0  0  0  0  0  0  0  0  0  0  0  0
   -1.9672    0.6506   -3.2996 H   0  0  0  0  0  0  0  0  0  0  0  0
    4.8765    4.6941   -0.9413 H   0  0  0  0  0  0  0  0  0  0  0  0
   -3.3654    0.1810    2.5975 H   0  0  0  0  0  0  0  0  0  0  0  0
    3.5841    3.2836   -2.5542 H   0  0  0  0  0  0  0  0  0  0  0  0
    1.3037   -3.7607   -2.7978 H   0  0  0  0  0  0  0  0  0  0  0  0
    1.1443   -3.0889   -1.1660 H   0  0  0  0  0  0  0  0  0  0  0  0
   -5.8896   -2.3007   -2.1115 H   0  0  0  0  0  0  0  0  0  0  0  0
    1.9768    1.7331   -3.0769 H   0  0  0  0  0  0  0  0  0  0  0  0
   -0.9697   -1.4527    2.7733 H   0  0  0  0  0  0  0  0  0  0  0  0
   -1.0298   -1.0225    4.4958 H   0  0  0  0  0  0  0  0  0  0  0  0
   -3.6223   -1.4602   -2.7470 H   0  0  0  0  0  0  0  0  0  0  0  0
    3.7477   -3.6684   -2.7178 H   0  0  0  0  0  0  0  0  0  0  0  0
    3.7373   -2.6280   -1.2909 H   0  0  0  0  0  0  0  0  0  0  0  0
    4.3747   -5.0290   -0.8022 H   0  0  0  0  0  0  0  0  0  0  0  0
    2.7703   -5.5642   -1.3400 H   0  0  0  0  0  0  0  0  0  0  0  0
    1.6955   -4.2163    0.5040 H   0  0  0  0  0  0  0  0  0  0  0  0
    2.7648   -5.4917    1.0945 H   0  0  0  0  0  0  0  0  0  0  0  0
    3.7089   -2.5662    0.8098 H   0  0  0  0  0  0  0  0  0  0  0  0
    4.5518   -3.8983    1.6187 H   0  0  0  0  0  0  0  0  0  0  0  0
    2.5585   -4.0167    3.2760 H   0  0  0  0  0  0  0  0  0  0  0  0
    3.5674   -2.5604    3.3668 H   0  0  0  0  0  0  0  0  0  0  0  0
    0.8854   -2.7209    1.8375 H   0  0  0  0  0  0  0  0  0  0  0  0
    1.9096   -1.2878    1.9774 H   0  0  0  0  0  0  0  0  0  0  0  0
  4 22  1  0  0  0  0
  4  5  1  0  0  0  0
  5 13  1  0  0  0  0
  5  9  1  0  0  0  0
  6  8  1  0  0  0  0
  6  3  1  0  0  0  0
  7 14  1  0  0  0  0
  8 18  1  0  0  0  0
  8 36  1  0  0  0  0
  9 27  1  0  0  0  0
  9 37  1  0  0  0  0
 10 40  1  0  0  0  0
 10 39  1  0  0  0  0
 11  1  1  1  0  0  0
 11 12  1  0  0  0  0
 12 17  1  0  0  0  0
 12 22  2  0  0  0  0
 13 41  1  0  0  0  0
 14  2  1  0  0  0  0
 14 16  2  0  0  0  0
 15 44  1  0  0  0  0
 15 17  2  0  0  0  0
 16 45  1  0  0  0  0
 17 46  1  0  0  0  0
 18 24  1  0  0  0  0
 18 48  1  0  0  0  0
 19 16  1  0  0  0  0
 19 49  1  0  0  0  0
 20 52  1  0  0  0  0
 20  6  1  0  0  0  0
 21 19  2  0  0  0  0
 22 54  1  0  0  0  0
 23  7  1  0  0  0  0
 23 21  1  0  0  0  0
 24 29  1  0  0  0  0
 24 57  1  0  0  0  0
 25 15  1  0  0  0  0
 26  3  1  0  0  0  0
 26  7  2  0  0  0  0
 27 10  1  0  0  0  0
 27 61  1  0  0  0  0
 28 25  2  0  0  0  0
 28 11  1  0  0  0  0
 29 64  1  0  0  0  0
 29 30  1  0  0  0  0
 30 65  1  0  0  0  0
 30 31  1  0  0  0  0
 31 68  1  0  0  0  0
 31 32  1  0  0  0  0
 32 70  1  0  0  0  0
 32 33  1  0  0  0  0
 33 71  1  0  0  0  0
 33 72  1  0  0  0  0
 34 33  1  0  0  0  0
 34 10  1  0  0  0  0
 35  8  1  0  0  0  0
 38  9  1  0  0  0  0
 42 13  1  0  0  0  0
 43 13  1  0  0  0  0
 47 18  1  0  0  0  0
 50 20  1  0  0  0  0
 51 20  1  0  0  0  0
 53 21  1  0  0  0  0
 55 23  1  0  0  0  0
 56 24  1  0  0  0  0
 58 25  1  0  0  0  0
 59 26  1  0  0  0  0
 60 27  1  0  0  0  0
 62 28  1  0  0  0  0
 63 29  1  0  0  0  0
 66 30  1  0  0  0  0
 67 31  1  0  0  0  0
 69 32  1  0  0  0  0
 73 34  1  0  0  0  0
 74 34  1  0  0  0  0
M  CHG  1   2  -1
M  END
