1,2,3,4
q = -2.0, confidence = 0.836

 42 44  0  0  1  0  0  0  0  0999 V2000
    1.5677   -1.2209   -0.8137 O   0  5  0  0  0  0  0  0  0  0  0  0
   -1.9569   -0.6994    0.5989 O   0  5  0  0  0  0  0  0  0  0  0  0
   -0.3258    1.0029   -0.9696 N   0  0  0  0  0  0  0  0  0  0  0  0
    0.7161   -0.0067    1.4320 N   0  0  0  0  0  2  0  0  0  0  0  0
    2.4727   -0.2469   -0.9198 C   0  0  0  0  0  0  0  0  0  0  0  0
    3.7828   -0.4327   -0.4239 C   0  0  0  0  0  0  0  0  0  0  0  0
    4.7178    0.6058   -0.5071 C   0  0  0  0  0  0  0  0  0  0  0  0
    4.3681    1.8412   -1.0816 C   0  0  0  0  0  0  0  0  0  0  0  0
    3.0698    2.0255   -1.5791 C   0  0  0  0  0  0  0  0  0  0  0  0
    2.1150    0.9969   -1.5081 C   0  0  0  0  0  0  0  0  0  0  0  0
    0.7161    1.1587   -2.0280 C   0  0  0  0  0  0  0  0  0  0  0  0
   -1.6618    1.2359   -1.5908 C   0  0  0  0  0  0  0  0  0  0  0  0
   -2.8167    1.2068   -0.6235 C   0  0  0  0  0  0  0  0  0  0  0  0
   -3.8490    2.1582   -0.7379 C   0  0  0  0  0  0  0  0  0  0  0  0
   -4.9665    2.1387    0.1069 C   0  0  0  0  0  0  0  0  0  0  0  0
   -5.0529    1.1552    1.1069 C   0  0  0  0  0  0  0  0  0  0  0  0
   -4.0330    0.2102    1.2561 C   0  0  0  0  0  0  0  0  0  0  0  0
   -2.9121    0.2183    0.3950 C   0  0  0  0  0  0  0  0  0  0  0  0
   -0.0750    1.9127    0.1647 C   0  0  0  0  0  0  0  0  0  0  0  0
    0.8531    1.3166    1.1959 C   0  0  1  0  0  3  0  0  0  0  0  0
    1.7618    2.0972    1.9297 C   0  0  0  0  0  0  0  0  0  0  0  0
    2.5261    1.4903    2.9318 C   0  0  0  0  0  0  0  0  0  0  0  0
    2.3639    0.1181    3.1781 C   0  0  0  0  0  0  0  0  0  0  0  0
    1.4518   -0.5974    2.3965 C   0  0  0  0  0  0  0  0  0  0  0  0
    4.0357   -1.4034    0.0262 H   0  0  0  0  0  0  0  0  0  0  0  0
    5.7354    0.4504   -0.1165 H   0  0  0  0  0  0  0  0  0  0  0  0
    5.1064    2.6539   -1.1460 H   0  0  0  0  0  0  0  0  0  0  0  0
    2.7840    2.9871   -2.0360 H   0  0  0  0  0  0  0  0  0  0  0  0
    0.6030    2.1622   -2.5011 H   0  0  0  0  0  0  0  0  0  0  0  0
    0.4912    0.3934   -2.8000 H   0  0  0  0  0  0  0  0  0  0  0  0
   -1.6566    2.2205   -2.1150 H   0  0  0  0  0  0  0  0  0  0  0  0
   -1.7754    0.4479   -2.3643 H   0  0  0  0  0  0  0  0  0  0  0  0
   -3.7678    2.9300   -1.5205 H   0  0  0  0  0  0  0  0  0  0  0  0
   -5.7618    2.8890   -0.0108 H   0  0  0  0  0  0  0  0  0  0  0  0
   -5.9217    1.1270    1.7822 H   0  0  0  0  0  0  0  0  0  0  0  0
   -4.0732   -0.5656    2.0340 H   0  0  0  0  0  0  0  0  0  0  0  0
   -1.0525    2.1048    0.6580 H   0  0  0  0  0  0  0  0  0  0  0  0
    0.3130    2.8969   -0.1803 H   0  0  0  0  0  0  0  0  0  0  0  0
    1.8728    3.1658    1.6969 H   0  0  0  0  0  0  0  0  0  0  0  0
    3.2513    2.0814    3.5109 H   0  0  0  0  0  0  0  0  0  0  0  0
    2.9440   -0.3986    3.9553 H   0  0  0  0  0  0  0  0  0  0  0  0
    1.2948   -1.6813    2.5130 H   0  0  0  0  0  0  0  0  0  0  0  0
  3 19  1  0  0  0  0
  4 24  1  0  0  0  0
  5  1  1  0  0  0  0
  5  6  1  0  0  0  0
  6 25  1  0  0  0  0
  7  6  2  0  0  0  0
  7 26  1  0  0  0  0
  8  7  1  0  0  0  0
  9 10  1  0  0  0  0
  9  8  2  0  0  0  0
 10  5  2  0  0  0  0
 11 10  1  0  0  0  0
 11  3  1  0  0  0  0
 12  3  1  0  0  0  0
 12 13  1  0  0  0  0
 13 18  1  0  0  0  0
 14 13  2  0  0  0  0
 14 15  1  0  0  0  0
 15 16  2  0  0  0  0
 16 17  1  0  0  0  0
 16 35  1  0  0  0  0
 17 36  1  0  0  0  0
 18  2  1  0  0  0  0
 18 17  2  0  0  0  0
 19 37  1  0  0  0  0
 20 19  1  1  0  0  0
 20  4  1  0  0  0  0
 20 21  1  0  0  0  0
 21 22  2  0  0  0  0
 22 23  1  0  0  0  0
 22 40  1  0  0  0  0
 23 41  1  0  0  0  0
 24 42  1  0  0  0  0
 24 23  2  0  0  0  0
 27  8  1  0  0  0  0
 28  9  1  0  0  0  0
 29 11  1  0  0  0  0
 30 11  1  0  0  0  0
 31 12  1  0  0  0  0
 32 12  1  0  0  0  0
 33 14  1  0  0  0  0
 34 15  1  0  0  0  0
 38 19  1  0  0  0  0
 39 21  1  0  0  0  0
M  CHG  2   1  -1   2  -1
M  END
