1,14,31,44
q = -2.0, confidence = 0.962

 44 46  0  0  1  0  0  0  0  0999 V2000
    1.7181   -1.5218    0.3565 O   0  5  0  0  0  0  0  0  0  0  0  0
    2.8942   -1.3459   -0.1487 C   0  0  0  0  0  0  0  0  0  0  0  0
    3.8194   -2.4453   -0.1745 C   0  0  0  0  0  0  0  0  0  0  0  0
    3.4588   -3.4013    0.2329 H   0  0  0  0  0  0  0  0  0  0  0  0
    5.1020   -2.3282   -0.6886 C   0  0  0  0  0  0  0  0  0  0  0  0
    5.7856   -3.1901   -0.6953 H   0  0  0  0  0  0  0  0  0  0  0  0
    5.5461   -1.0906   -1.2191 C   0  0  0  0  0  0  0  0  0  0  0  0
    7.1680   -0.9588   -1.8664 Cl  0  0  0  0  0  0  0  0  0  0  0  0
    4.6950    0.0044   -1.2216 C   0  0  0  0  0  0  0  0  0  0  0  0
    5.0437    0.9640   -1.6340 H   0  0  0  0  0  0  0  0  0  0  0  0
    3.3740   -0.0864   -0.6952 C   0  0  0  0  0  0  0  0  0  0  0  0
    2.5783    1.1108   -0.7378 C   0  0  0  0  0  3  0  0  0  0  0  0
    3.0913    1.9822   -1.2042 H   0  0  0  0  0  0  0  0  0  0  0  0
    1.3565    1.2574   -0.3018 N   0  0  0  0  0  2  0  0  0  0  0  0
    0.6752    2.5451   -0.4595 C   0  0  2  0  0  0  0  0  0  0  0  0
    0.4007    2.6700   -1.5359 H   0  0  0  0  0  0  0  0  0  0  0  0
    1.4907    3.7702   -0.0166 C   0  0  0  0  0  0  0  0  0  0  0  0
    1.7819    3.6275    1.0478 H   0  0  0  0  0  0  0  0  0  0  0  0
    2.4342    3.8362   -0.5955 H   0  0  0  0  0  0  0  0  0  0  0  0
    0.6880    5.0662   -0.1802 C   0  0  0  0  0  0  0  0  0  0  0  0
    0.4998    5.2434   -1.2626 H   0  0  0  0  0  0  0  0  0  0  0  0
    1.2861    5.9299    0.1769 H   0  0  0  0  0  0  0  0  0  0  0  0
   -0.6529    5.0001    0.5596 C   0  0  0  0  0  0  0  0  0  0  0  0
   -0.4651    4.9449    1.6550 H   0  0  0  0  0  0  0  0  0  0  0  0
   -1.2368    5.9281    0.3901 H   0  0  0  0  0  0  0  0  0  0  0  0
   -1.4707    3.7760    0.1282 C   0  0  0  0  0  0  0  0  0  0  0  0
   -1.7539    3.8734   -0.9436 H   0  0  0  0  0  0  0  0  0  0  0  0
   -2.4188    3.7240    0.7038 H   0  0  0  0  0  0  0  0  0  0  0  0
   -0.6669    2.4882    0.3250 C   0  0  1  0  0  0  0  0  0  0  0  0
   -0.3794    2.4212    1.4039 H   0  0  0  0  0  0  0  0  0  0  0  0
   -1.3056    1.2293   -0.0035 N   0  0  0  0  0  2  0  0  0  0  0  0
   -2.5173    1.1250   -0.4670 C   0  0  0  0  0  3  0  0  0  0  0  0
   -3.1525    2.0337   -0.5648 H   0  0  0  0  0  0  0  0  0  0  0  0
   -3.1478   -0.1049   -0.8768 C   0  0  0  0  0  0  0  0  0  0  0  0
   -4.5195   -0.0244   -1.2534 C   0  0  0  0  0  0  0  0  0  0  0  0
   -5.0356    0.9464   -1.1909 H   0  0  0  0  0  0  0  0  0  0  0  0
   -5.2126   -1.1417   -1.6942 C   0  0  0  0  0  0  0  0  0  0  0  0
   -6.9026   -1.0229   -2.1403 Cl  0  0  0  0  0  0  0  0  0  0  0  0
   -4.5469   -2.3896   -1.7926 C   0  0  0  0  0  0  0  0  0  0  0  0
   -5.1043   -3.2682   -2.1498 H   0  0  0  0  0  0  0  0  0  0  0  0
   -3.2090   -2.4942   -1.4451 C   0  0  0  0  0  0  0  0  0  0  0  0
   -2.6793   -3.4551   -1.5209 H   0  0  0  0  0  0  0  0  0  0  0  0
   -2.4399   -1.3772   -0.9635 C   0  0  0  0  0  0  0  0  0  0  0  0
   -1.2010   -1.5640   -0.6542 O   0  5  0  0  0  0  0  0  0  0  0  0
  2  1  1  0  0  0  0
  3  2  1  0  0  0  0
  3  4  1  0  0  0  0
  5  3  2  0  0  0  0
  6  5  1  0  0  0  0
  7  5  1  0  0  0  0
  8  7  1  0  0  0  0
  9  7  2  0  0  0  0
  9 11  1  0  0  0  0
 10  9  1  0  0  0  0
 11  2  2  0  0  0  0
 12 11  1  0  0  0  0
 12 14  1  0  0  0  0
 13 12  1  0  0  0  0
 15 16  1  6  0  0  0
 15 14  1  0  0  0  0
 15 17  1  0  0  0  0
 15 29  1  0  0  0  0
 17 18  1  0  0  0  0
 19 17  1  0  0  0  0
 20 17  1  0  0  0  0
 20 22  1  0  0  0  0
 20 23  1  0  0  0  0
 21 20  1  0  0  0  0
 23 24  1  0  0  0  0
 25 23  1  0  0  0  0
 26 29  1  0  0  0  0
 26 23  1  0  0  0  0
 26 28  1  0  0  0  0
 27 26  1  0  0  0  0
 29 30  1  1  0  0  0
 31 29  1  0  0  0  0
 32 31  1  0  0  0  0
 33 32  1  0  0  0  0
 34 32  1  0  0  0  0
 35 36  1  0  0  0  0
 35 34  2  0  0  0  0
 37 35  1  0  0  0  0
 38 37  1  0  0  0  0
 39 37  2  0  0  0  0
 39 41  1  0  0  0  0
 40 39  1  0  0  0  0
 41 43  2  0  0  0  0
 42 41  1  0  0  0  0
 43 34  1  0  0  0  0
 43 44  1  0  0  0  0
M  CHG  2   1  -1  44  -1
M  END
