1,2,23,24
q = -2.0, confidence = 0.824

 44 43  0  0  1  0  0  0  0  0999 V2000
    1.2832   -1.1702   -0.1824 N   0  0  0  0  0  2  0  0  0  0  0  0
    1.2277    1.5100   -0.2194 O   0  0  0  0  0  1  0  0  0  0  0  0
    5.4168    1.2852   -0.2668 O   0  0  0  0  0  0  0  0  0  0  0  0
    2.5074    1.4659   -0.2027 C   0  0  1  0  0  3  0  0  0  0  0  0
    3.2606    0.2516   -0.1272 C   0  0  0  0  0  0  0  0  0  0  0  0
    2.6024   -1.0218   -0.2687 C   0  0  0  0  0  0  0  0  0  0  0  0
    0.6472   -2.4695   -0.3982 C   0  0  0  0  0  0  0  0  0  0  0  0
    3.1567    2.8265   -0.2712 C   0  0  0  0  0  0  0  0  0  0  0  0
    3.4238   -2.2355   -0.6684 C   0  0  0  0  0  0  0  0  0  0  0  0
    4.7264    0.3409    0.1210 C   0  0  0  0  0  0  0  0  0  0  0  0
    5.3927   -0.7024    1.0284 C   0  0  0  0  0  0  0  0  0  0  0  0
    1.2867   -3.3166   -0.0788 H   0  0  0  0  0  0  0  0  0  0  0  0
    0.4222   -2.6081   -1.4814 H   0  0  0  0  0  0  0  0  0  0  0  0
    2.3584    3.5899   -0.2369 H   0  0  0  0  0  0  0  0  0  0  0  0
    3.7563    2.9256   -1.1956 H   0  0  0  0  0  0  0  0  0  0  0  0
    3.8753    2.9762    0.5578 H   0  0  0  0  0  0  0  0  0  0  0  0
    3.4542   -3.0122    0.1237 H   0  0  0  0  0  0  0  0  0  0  0  0
    2.9799   -2.7050   -1.5696 H   0  0  0  0  0  0  0  0  0  0  0  0
    4.4600   -1.9629   -0.9217 H   0  0  0  0  0  0  0  0  0  0  0  0
    4.7004   -1.4182    1.5082 H   0  0  0  0  0  0  0  0  0  0  0  0
    6.1742   -1.2585    0.4715 H   0  0  0  0  0  0  0  0  0  0  0  0
    5.9218   -0.1336    1.8187 H   0  0  0  0  0  0  0  0  0  0  0  0
   -1.2832   -1.1701    0.1825 N   0  0  0  0  0  2  0  0  0  0  0  0
   -1.2277    1.5100    0.2194 O   0  5  0  0  0  0  0  0  0  0  0  0
   -0.6472   -2.4695    0.3983 C   0  0  0  0  0  0  0  0  0  0  0  0
   -2.6024   -1.0217    0.2687 C   0  0  2  0  0  3  0  0  0  0  0  0
   -2.5074    1.4660    0.2027 C   0  0  0  0  0  0  0  0  0  0  0  0
   -1.2868   -3.3165    0.0788 H   0  0  0  0  0  0  0  0  0  0  0  0
   -0.4222   -2.6081    1.4815 H   0  0  0  0  0  0  0  0  0  0  0  0
   -3.2606    0.2517    0.1272 C   0  0  0  0  0  0  0  0  0  0  0  0
   -3.4239   -2.2354    0.6684 C   0  0  0  0  0  0  0  0  0  0  0  0
   -3.1565    2.8267    0.2712 C   0  0  0  0  0  0  0  0  0  0  0  0
   -4.7264    0.3409   -0.1210 C   0  0  0  0  0  0  0  0  0  0  0  0
   -3.4542   -3.0121   -0.1238 H   0  0  0  0  0  0  0  0  0  0  0  0
   -2.9800   -2.7050    1.5696 H   0  0  0  0  0  0  0  0  0  0  0  0
   -4.4601   -1.9628    0.9217 H   0  0  0  0  0  0  0  0  0  0  0  0
   -2.3581    3.5899    0.2368 H   0  0  0  0  0  0  0  0  0  0  0  0
   -3.7561    2.9258    1.1956 H   0  0  0  0  0  0  0  0  0  0  0  0
   -3.8751    2.9765   -0.5578 H   0  0  0  0  0  0  0  0  0  0  0  0
   -5.4170    1.2851    0.2668 O   0  0  0  0  0  0  0  0  0  0  0  0
   -5.3925   -0.7025   -1.0285 C   0  0  0  0  0  0  0  0  0  0  0  0
   -4.7001   -1.4181   -1.5083 H   0  0  0  0  0  0  0  0  0  0  0  0
   -6.1741   -1.2586   -0.4717 H   0  0  0  0  0  0  0  0  0  0  0  0
   -5.9217   -0.1336   -1.8188 H   0  0  0  0  0  0  0  0  0  0  0  0
  3 10  2  0  0  0  0
  4  2  1  6  0  0  0
  4  5  1  0  0  0  0
  5 10  1  0  0  0  0
  6  1  1  0  0  0  0
  6  5  2  0  0  0  0
  7  1  1  0  0  0  0
  7 12  1  0  0  0  0
  7 25  1  0  0  0  0
  8 14  1  0  0  0  0
  8  4  1  0  0  0  0
  8 16  1  0  0  0  0
  9  6  1  0  0  0  0
  9 17  1  0  0  0  0
 10 11  1  0  0  0  0
 11 20  1  0  0  0  0
 11 22  1  0  0  0  0
 13  7  1  0  0  0  0
 15  8  1  0  0  0  0
 18  9  1  0  0  0  0
 19  9  1  0  0  0  0
 21 11  1  0  0  0  0
 23 26  1  0  0  0  0
 23 25  1  0  0  0  0
 25 29  1  0  0  0  0
 26 30  1  1  0  0  0
 26 31  1  0  0  0  0
 27 24  1  0  0  0  0
 27 32  1  0  0  0  0
 28 25  1  0  0  0  0
 30 27  2  0  0  0  0
 31 36  1  0  0  0  0
 31 35  1  0  0  0  0
 32 38  1  0  0  0  0
 33 30  1  0  0  0  0
 33 40  2  0  0  0  0
 34 31  1  0  0  0  0
 37 32  1  0  0  0  0
 39 32  1  0  0  0  0
 41 43  1  0  0  0  0
 41 33  1  0  0  0  0
 42 41  1  0  0  0  0
 44 41  1  0  0  0  0
M  CHG  1  24  -1
M  END
