1,2,5,6
q = -2.0, confidence = 0.846

 54 57  0  0  0  0  0  0  0  0999 V2000
   -1.7568   -2.0555   -0.5367 N   0  0  0  0  0  2  0  0  0  0  0  0
    0.8876   -2.2470    0.3984 N   0  0  0  0  0  2  0  0  0  0  0  0
   -1.7878   -3.2779   -1.2315 O   0  0  0  0  0  0  0  0  0  0  0  0
    0.2433   -3.4544    0.7597 O   0  0  0  0  0  0  0  0  0  0  0  0
   -1.2868    0.4302   -1.0145 O   0  5  0  0  0  0  0  0  0  0  0  0
    1.1315    0.2789   -0.4308 O   0  5  0  0  0  0  0  0  0  0  0  0
   -0.4927   -3.7543   -1.5534 C   0  0  0  0  0  0  0  0  0  0  0  0
    0.1163   -2.9334   -1.9948 H   0  0  0  0  0  0  0  0  0  0  0  0
   -0.6516   -4.5304   -2.3288 H   0  0  0  0  0  0  0  0  0  0  0  0
    0.2019   -4.3580   -0.3420 C   0  0  0  0  0  0  0  0  0  0  0  0
   -0.3738   -5.2228    0.0444 H   0  0  0  0  0  0  0  0  0  0  0  0
    1.2257   -4.7051   -0.6249 H   0  0  0  0  0  0  0  0  0  0  0  0
   -4.0936   -2.6668   -0.2513 C   0  0  0  0  0  0  0  0  0  0  0  0
   -4.3066   -2.8613   -1.3231 H   0  0  0  0  0  0  0  0  0  0  0  0
   -5.0119   -2.2800    0.2205 H   0  0  0  0  0  0  0  0  0  0  0  0
   -3.8171   -3.6425    0.1940 H   0  0  0  0  0  0  0  0  0  0  0  0
   -2.9596   -1.6874   -0.1356 C   0  0  0  0  0  0  0  0  0  0  0  0
   -2.3205    0.6967   -0.2677 C   0  0  0  0  0  0  0  0  0  0  0  0
   -3.1698   -0.3160    0.2874 C   0  0  0  0  0  0  0  0  0  0  0  0
   -4.2836    0.0676    1.1005 C   0  0  0  0  0  0  0  0  0  0  0  0
   -4.9074   -0.7189    1.5513 H   0  0  0  0  0  0  0  0  0  0  0  0
   -4.5845    1.3901    1.3510 C   0  0  0  0  0  0  0  0  0  0  0  0
   -5.4376    1.6571    1.9924 H   0  0  0  0  0  0  0  0  0  0  0  0
   -3.7897    2.4348    0.7789 C   0  0  0  0  0  0  0  0  0  0  0  0
   -2.6565    2.0921   -0.0336 C   0  0  0  0  0  0  0  0  0  0  0  0
   -1.8506    3.1200   -0.5887 C   0  0  0  0  0  3  0  0  0  0  0  0
   -0.9854    2.8171   -1.1953 H   0  0  0  0  0  0  0  0  0  0  0  0
   -2.1544    4.4575   -0.3620 C   0  0  0  0  0  0  0  0  0  0  0  0
   -1.5231    5.2486   -0.7944 H   0  0  0  0  0  0  0  0  0  0  0  0
   -3.2749    4.8042    0.4346 C   0  0  0  0  0  0  0  0  0  0  0  0
   -3.5112    5.8645    0.6141 H   0  0  0  0  0  0  0  0  0  0  0  0
   -4.0730    3.8129    0.9946 C   0  0  0  0  0  0  0  0  0  0  0  0
   -4.9411    4.0821    1.6166 H   0  0  0  0  0  0  0  0  0  0  0  0
    2.7508   -3.2784    1.6368 C   0  0  0  0  0  0  0  0  0  0  0  0
    3.1957   -2.8980    2.5762 H   0  0  0  0  0  0  0  0  0  0  0  0
    3.5710   -3.7500    1.0575 H   0  0  0  0  0  0  0  0  0  0  0  0
    1.9986   -4.0427    1.8858 H   0  0  0  0  0  0  0  0  0  0  0  0
    2.1370   -2.1406    0.8582 C   0  0  0  0  0  0  0  0  0  0  0  0
    2.3523    0.2012   -0.0097 C   0  0  0  0  0  0  0  0  0  0  0  0
    2.9192   -0.9506    0.6273 C   0  0  0  0  0  0  0  0  0  0  0  0
    4.2968   -0.8963    1.0437 C   0  0  0  0  0  0  0  0  0  0  0  0
    4.7433   -1.7779    1.5228 H   0  0  0  0  0  0  0  0  0  0  0  0
    5.0842    0.2149    0.8533 C   0  0  0  0  0  0  0  0  0  0  0  0
    6.1352    0.2147    1.1787 H   0  0  0  0  0  0  0  0  0  0  0  0
    4.5477    1.3900    0.2314 C   0  0  0  0  0  0  0  0  0  0  0  0
    3.1811    1.3881   -0.1985 C   0  0  0  0  0  0  0  0  0  0  0  0
    2.6337    2.5461   -0.8073 C   0  0  0  0  0  3  0  0  0  0  0  0
    1.5805    2.5129   -1.1199 H   0  0  0  0  0  0  0  0  0  0  0  0
    3.4135    3.6833   -0.9934 C   0  0  0  0  0  0  0  0  0  0  0  0
    2.9798    4.5783   -1.4646 H   0  0  0  0  0  0  0  0  0  0  0  0
    4.7666    3.6905   -0.5750 C   0  0  0  0  0  0  0  0  0  0  0  0
    5.3812    4.5916   -0.7246 H   0  0  0  0  0  0  0  0  0  0  0  0
    5.3214    2.5649    0.0258 C   0  0  0  0  0  0  0  0  0  0  0  0
    6.3726    2.5692    0.3541 H   0  0  0  0  0  0  0  0  0  0  0  0
  1 17  1  0  0  0  0
  2  4  1  0  0  0  0
  2 38  1  0  0  0  0
  3  1  1  0  0  0  0
  5 18  1  0  0  0  0
  6 39  1  0  0  0  0
  7  3  1  0  0  0  0
  7 10  1  0  0  0  0
  8  7  1  0  0  0  0
  9  7  1  0  0  0  0
 10 11  1  0  0  0  0
 10  4  1  0  0  0  0
 12 10  1  0  0  0  0
 13 17  1  0  0  0  0
 13 16  1  0  0  0  0
 13 15  1  0  0  0  0
 14 13  1  0  0  0  0
 17 19  2  0  0  0  0
 18 25  2  0  0  0  0
 18 19  1  0  0  0  0
 19 20  1  0  0  0  0
 20 22  2  0  0  0  0
 20 21  1  0  0  0  0
 22 23  1  0  0  0  0
 24 32  2  0  0  0  0
 24 22  1  0  0  0  0
 25 24  1  0  0  0  0
 26 28  1  0  0  0  0
 26 25  1  0  0  0  0
 27 26  1  0  0  0  0
 28 30  2  0  0  0  0
 29 28  1  0  0  0  0
 30 31  1  0  0  0  0
 30 32  1  0  0  0  0
 32 33  1  0  0  0  0
 34 37  1  0  0  0  0
 34 35  1  0  0  0  0
 36 34  1  0  0  0  0
 38 34  1  0  0  0  0
 39 40  1  0  0  0  0
 40 38  2  0  0  0  0
 40 41  1  0  0  0  0
 41 42  1  0  0  0  0
 43 41  2  0  0  0  0
 43 44  1  0  0  0  0
 45 43  1  0  0  0  0
 46 39  2  0  0  0  0
 46 45  1  0  0  0  0
 47 46  1  0  0  0  0
 48 47  1  0  0  0  0
 49 47  1  0  0  0  0
 49 51  2  0  0  0  0
 50 49  1  0  0  0  0
 51 53  1  0  0  0  0
 52 51  1  0  0  0  0
 53 45  2  0  0  0  0
 53 54  1  0  0  0  0
M  CHG  2   5  -1   6  -1
M  END
