1,7,10,14
q = -2.0, confidence = 0.846

 34 34  0  0  1  0  0  0  0  0999 V2000
   -1.3141    1.6134   -0.3936 O   0  5  0  0  0  0  0  0  0  0  0  0
   -2.5903    1.7606   -0.2520 C   0  0  0  0  0  0  0  0  0  0  0  0
   -3.4941    0.7270    0.0264 C   0  0  0  0  0  0  0  0  0  0  0  0
   -3.1538   -0.6517    0.1440 C   0  0  1  0  0  3  0  0  0  0  0  0
   -3.0783    3.1834   -0.3992 C   0  0  0  0  0  0  0  0  0  0  0  0
   -4.2770   -1.6293    0.4177 C   0  0  0  0  0  0  0  0  0  0  0  0
   -1.9055   -1.0931    0.0190 N   0  0  0  0  0  2  0  0  0  0  0  0
   -1.5830   -2.5030    0.2250 C   0  0  0  0  0  0  0  0  0  0  0  0
   -0.2534   -2.7672   -0.4706 C   0  0  0  0  0  0  0  0  0  0  0  0
    0.6128   -1.6222   -0.2027 N   0  0  0  0  0  2  0  0  0  0  0  0
    1.9084   -1.7713   -0.0971 C   0  0  0  0  0  3  0  0  0  0  0  0
    2.8570   -0.6981    0.0151 C   0  0  0  0  0  0  0  0  0  0  0  0
    2.4562    0.6764   -0.1977 C   0  0  0  0  0  0  0  0  0  0  0  0
    1.2289    1.0442   -0.4593 O   0  5  0  0  0  0  0  0  0  0  0  0
    3.4809    1.6700   -0.1482 C   0  0  0  0  0  0  0  0  0  0  0  0
    4.8081    1.3347    0.1025 C   0  0  0  0  0  0  0  0  0  0  0  0
    5.1951   -0.0110    0.3118 C   0  0  0  0  0  0  0  0  0  0  0  0
    4.2238   -1.0049    0.2585 C   0  0  0  0  0  0  0  0  0  0  0  0
   -4.5544    0.9909    0.1321 H   0  0  0  0  0  0  0  0  0  0  0  0
   -2.6432    3.8041    0.4118 H   0  0  0  0  0  0  0  0  0  0  0  0
   -4.1803    3.2626   -0.3641 H   0  0  0  0  0  0  0  0  0  0  0  0
   -2.7092    3.6104   -1.3540 H   0  0  0  0  0  0  0  0  0  0  0  0
   -5.2417   -1.1007    0.5155 H   0  0  0  0  0  0  0  0  0  0  0  0
   -4.0985   -2.1982    1.3539 H   0  0  0  0  0  0  0  0  0  0  0  0
   -4.3783   -2.3743   -0.3993 H   0  0  0  0  0  0  0  0  0  0  0  0
   -1.4880   -2.7156    1.3169 H   0  0  0  0  0  0  0  0  0  0  0  0
   -2.3639   -3.1821   -0.1743 H   0  0  0  0  0  0  0  0  0  0  0  0
   -0.4183   -2.8214   -1.5692 H   0  0  0  0  0  0  0  0  0  0  0  0
    0.2111   -3.7212   -0.1392 H   0  0  0  0  0  0  0  0  0  0  0  0
    2.3129   -2.8040   -0.1175 H   0  0  0  0  0  0  0  0  0  0  0  0
    3.1719    2.7128   -0.3114 H   0  0  0  0  0  0  0  0  0  0  0  0
    5.5676    2.1316    0.1394 H   0  0  0  0  0  0  0  0  0  0  0  0
    6.2465   -0.2656    0.5081 H   0  0  0  0  0  0  0  0  0  0  0  0
    4.5037   -2.0609    0.4059 H   0  0  0  0  0  0  0  0  0  0  0  0
  1  2  1  0  0  0  0
  2  3  2  0  0  0  0
  3 19  1  0  0  0  0
  3  4  1  0  0  0  0
  4  7  1  6  0  0  0
  4  6  1  0  0  0  0
  5 21  1  0  0  0  0
  5  2  1  0  0  0  0
  5 20  1  0  0  0  0
  6 23  1  0  0  0  0
  6 24  1  0  0  0  0
  7  8  1  0  0  0  0
  8 26  1  0  0  0  0
  9 10  1  0  0  0  0
  9 29  1  0  0  0  0
  9  8  1  0  0  0  0
 10 11  1  0  0  0  0
 11 12  1  0  0  0  0
 12 18  1  0  0  0  0
 13 15  1  0  0  0  0
 13 12  2  0  0  0  0
 14 13  1  0  0  0  0
 15 16  2  0  0  0  0
 16 32  1  0  0  0  0
 16 17  1  0  0  0  0
 17 33  1  0  0  0  0
 18 17  2  0  0  0  0
 18 34  1  0  0  0  0
 22  5  1  0  0  0  0
 25  6  1  0  0  0  0
 27  8  1  0  0  0  0
 28  9  1  0  0  0  0
 30 11  1  0  0  0  0
 31 15  1  0  0  0  0
M  CHG  2   1  -1  14  -1
M  END
