1,13,25,39
q = -2.0, confidence = 0.832

 82 85  0  0  1  0  0  0  0  0999 V2000
    1.2609    0.9440   -0.1779 O   0  0  0  0  0  1  0  0  0  0  0  0
    2.5558    0.8437   -0.1059 C   0  0  2  0  0  3  0  0  0  0  0  0
    3.3251    2.0380   -0.0924 C   0  0  0  0  0  0  0  0  0  0  0  0
    2.7465    2.9671   -0.1552 H   0  0  0  0  0  0  0  0  0  0  0  0
    4.7343    2.0379   -0.0257 C   0  0  0  0  0  0  0  0  0  0  0  0
    5.4121    0.7680    0.0215 C   0  0  0  0  0  0  0  0  0  0  0  0
    6.5051    0.7166    0.0903 H   0  0  0  0  0  0  0  0  0  0  0  0
    4.6831   -0.4057    0.0003 C   0  0  0  0  0  0  0  0  0  0  0  0
    5.2157   -1.3700    0.0383 H   0  0  0  0  0  0  0  0  0  0  0  0
    3.2616   -0.4225   -0.0602 C   0  0  0  0  0  0  0  0  0  0  0  0
    2.5582   -1.6518   -0.1104 C   0  0  0  0  0  0  0  0  0  0  0  0
    3.1570   -2.5837   -0.1532 H   0  0  0  0  0  0  0  0  0  0  0  0
   -1.2512    0.9648   -0.0582 O   0  5  0  0  0  0  0  0  0  0  0  0
   -2.5471    0.8736   -0.1240 C   0  0  0  0  0  0  0  0  0  0  0  0
   -3.3017    2.0717   -0.2450 C   0  0  0  0  0  0  0  0  0  0  0  0
   -2.7090    2.9933   -0.2718 H   0  0  0  0  0  0  0  0  0  0  0  0
   -4.7102    2.0837   -0.3252 C   0  0  0  0  0  0  0  0  0  0  0  0
   -5.4029    0.8228   -0.2541 C   0  0  0  0  0  0  0  0  0  0  0  0
   -6.4973    0.7787   -0.2950 H   0  0  0  0  0  0  0  0  0  0  0  0
   -4.6886   -0.3536   -0.1293 C   0  0  0  0  0  3  0  0  0  0  0  0
   -5.2340   -1.3099   -0.0742 H   0  0  0  0  0  0  0  0  0  0  0  0
   -3.2679   -0.3828   -0.0630 C   0  0  0  0  0  0  0  0  0  0  0  0
   -2.5798   -1.6114    0.0998 C   0  0  0  0  0  0  0  0  0  0  0  0
   -3.1901   -2.5286    0.2229 H   0  0  0  0  0  0  0  0  0  0  0  0
    1.2464   -1.7767   -0.1262 N   0  0  0  0  0  2  0  0  0  0  0  0
    0.6478   -3.0940   -0.3355 C   0  0  2  0  0  0  0  0  0  0  0  0
    1.2978   -3.8841    0.0994 H   0  0  0  0  0  0  0  0  0  0  0  0
    0.4172   -3.4089   -1.8085 C   0  0  0  0  0  0  0  0  0  0  0  0
    0.3073   -4.7525   -2.2162 C   0  0  0  0  0  0  0  0  0  0  0  0
    0.4396   -5.5579   -1.4747 H   0  0  0  0  0  0  0  0  0  0  0  0
    0.0373   -5.0748   -3.5542 C   0  0  0  0  0  0  0  0  0  0  0  0
   -0.0400   -6.1298   -3.8590 H   0  0  0  0  0  0  0  0  0  0  0  0
   -0.1252   -4.0525   -4.5032 C   0  0  0  0  0  0  0  0  0  0  0  0
   -0.3340   -4.3025   -5.5545 H   0  0  0  0  0  0  0  0  0  0  0  0
   -0.0114   -2.7114   -4.1049 C   0  0  0  0  0  0  0  0  0  0  0  0
   -0.1321   -1.9039   -4.8431 H   0  0  0  0  0  0  0  0  0  0  0  0
    0.2578   -2.3899   -2.7662 C   0  0  0  0  0  0  0  0  0  0  0  0
    0.3554   -1.3395   -2.4497 H   0  0  0  0  0  0  0  0  0  0  0  0
   -1.2698   -1.7499    0.1302 N   0  0  0  0  0  2  0  0  0  0  0  0
   -0.6874   -3.0512    0.4541 C   0  0  2  0  0  0  0  0  0  0  0  0
   -1.3474   -3.8680    0.0890 H   0  0  0  0  0  0  0  0  0  0  0  0
   -0.4611   -3.2395    1.9491 C   0  0  0  0  0  0  0  0  0  0  0  0
   -0.2870   -2.1433    2.8146 C   0  0  0  0  0  0  0  0  0  0  0  0
   -0.3693   -1.1233    2.4076 H   0  0  0  0  0  0  0  0  0  0  0  0
   -0.0233   -2.3509    4.1767 C   0  0  0  0  0  0  0  0  0  0  0  0
    0.1090   -1.4839    4.8420 H   0  0  0  0  0  0  0  0  0  0  0  0
    0.0704   -3.6536    4.6906 C   0  0  0  0  0  0  0  0  0  0  0  0
    0.2751   -3.8140    5.7602 H   0  0  0  0  0  0  0  0  0  0  0  0
   -0.1066   -4.7523    3.8341 C   0  0  0  0  0  0  0  0  0  0  0  0
   -0.0450   -5.7777    4.2298 H   0  0  0  0  0  0  0  0  0  0  0  0
   -0.3712   -4.5440    2.4726 C   0  0  0  0  0  0  0  0  0  0  0  0
   -0.5151   -5.4088    1.8039 H   0  0  0  0  0  0  0  0  0  0  0  0
    5.4551    3.2183   -0.0009 N   0  0  0  0  0  0  0  0  0  0  0  0
    4.7878    4.5129    0.0524 C   0  0  0  0  0  0  0  0  0  0  0  0
    5.4645    5.2193    0.5787 H   0  0  0  0  0  0  0  0  0  0  0  0
    3.8860    4.4289    0.6931 H   0  0  0  0  0  0  0  0  0  0  0  0
    4.4155    5.0728   -1.3241 C   0  0  0  0  0  0  0  0  0  0  0  0
    3.9227    6.0615   -1.2270 H   0  0  0  0  0  0  0  0  0  0  0  0
    3.7217    4.3911   -1.8545 H   0  0  0  0  0  0  0  0  0  0  0  0
    5.3160    5.2013   -1.9589 H   0  0  0  0  0  0  0  0  0  0  0  0
    6.9117    3.2385   -0.0388 C   0  0  0  0  0  0  0  0  0  0  0  0
    7.2214    4.1763   -0.5473 H   0  0  0  0  0  0  0  0  0  0  0  0
    7.2750    2.4185   -0.6913 H   0  0  0  0  0  0  0  0  0  0  0  0
    7.5676    3.1549    1.3431 C   0  0  0  0  0  0  0  0  0  0  0  0
    8.6729    3.1980    1.2603 H   0  0  0  0  0  0  0  0  0  0  0  0
    7.2939    2.2111    1.8554 H   0  0  0  0  0  0  0  0  0  0  0  0
    7.2411    3.9947    1.9898 H   0  0  0  0  0  0  0  0  0  0  0  0
   -5.4157    3.2660   -0.4833 N   0  0  0  0  0  0  0  0  0  0  0  0
   -6.8735    3.2847   -0.4828 C   0  0  0  0  0  0  0  0  0  0  0  0
   -7.2481    2.4547   -1.1185 H   0  0  0  0  0  0  0  0  0  0  0  0
   -7.1883    4.2170   -0.9957 H   0  0  0  0  0  0  0  0  0  0  0  0
   -7.5231    3.2143    0.9047 C   0  0  0  0  0  0  0  0  0  0  0  0
   -8.6289    3.2006    0.8169 H   0  0  0  0  0  0  0  0  0  0  0  0
   -7.2407    4.0858    1.5278 H   0  0  0  0  0  0  0  0  0  0  0  0
   -7.2095    2.2987    1.4444 H   0  0  0  0  0  0  0  0  0  0  0  0
   -4.7198    4.5474   -0.5028 C   0  0  0  0  0  0  0  0  0  0  0  0
   -5.3801    5.2727   -1.0220 H   0  0  0  0  0  0  0  0  0  0  0  0
   -3.8151    4.4506   -1.1396 H   0  0  0  0  0  0  0  0  0  0  0  0
   -4.3301    5.0943    0.8759 C   0  0  0  0  0  0  0  0  0  0  0  0
   -3.7644    6.0426    0.7708 H   0  0  0  0  0  0  0  0  0  0  0  0
   -3.6910    4.3736    1.4230 H   0  0  0  0  0  0  0  0  0  0  0  0
   -5.2239    5.2977    1.4984 H   0  0  0  0  0  0  0  0  0  0  0  0
  2  1  1  6  0  0  0
  2  3  1  0  0  0  0
  2 10  1  0  0  0  0
  3  5  2  0  0  0  0
  4  3  1  0  0  0  0
  5 53  1  0  0  0  0
  5  6  1  0  0  0  0
  6  7  1  0  0  0  0
  8  6  2  0  0  0  0
  8  9  1  0  0  0  0
 10  8  1  0  0  0  0
 11 10  2  0  0  0  0
 12 11  1  0  0  0  0
 14 22  1  0  0  0  0
 14 13  1  0  0  0  0
 15 14  2  0  0  0  0
 16 15  1  0  0  0  0
 17 18  2  0  0  0  0
 17 15  1  0  0  0  0
 18 20  1  0  0  0  0
 19 18  1  0  0  0  0
 20 21  1  0  0  0  0
 20 22  1  0  0  0  0
 22 23  2  0  0  0  0
 23 39  1  0  0  0  0
 23 24  1  0  0  0  0
 25 11  1  0  0  0  0
 26 25  1  0  0  0  0
 26 27  1  1  0  0  0
 26 40  1  0  0  0  0
 28 26  1  0  0  0  0
 29 28  1  0  0  0  0
 29 30  1  0  0  0  0
 31 29  2  0  0  0  0
 32 31  1  0  0  0  0
 33 35  2  0  0  0  0
 33 31  1  0  0  0  0
 34 33  1  0  0  0  0
 35 37  1  0  0  0  0
 36 35  1  0  0  0  0
 37 38  1  0  0  0  0
 37 28  2  0  0  0  0
 39 40  1  0  0  0  0
 40 41  1  6  0  0  0
 40 42  1  0  0  0  0
 42 51  2  0  0  0  0
 42 43  1  0  0  0  0
 43 45  2  0  0  0  0
 44 43  1  0  0  0  0
 45 47  1  0  0  0  0
 45 46  1  0  0  0  0
 47 48  1  0  0  0  0
 49 50  1  0  0  0  0
 49 47  2  0  0  0  0
 51 49  1  0  0  0  0
 52 51  1  0  0  0  0
 53 54  1  0  0  0  0
 54 55  1  0  0  0  0
 54 56  1  0  0  0  0
 57 58  1  0  0  0  0
 57 54  1  0  0  0  0
 59 57  1  0  0  0  0
 60 57  1  0  0  0  0
 61 53  1  0  0  0  0
 61 64  1  0  0  0  0
 62 61  1  0  0  0  0
 63 61  1  0  0  0  0
 64 66  1  0  0  0  0
 64 67  1  0  0  0  0
 65 64  1  0  0  0  0
 68 69  1  0  0  0  0
 68 17  1  0  0  0  0
 69 72  1  0  0  0  0
 70 69  1  0  0  0  0
 71 69  1  0  0  0  0
 72 75  1  0  0  0  0
 72 74  1  0  0  0  0
 73 72  1  0  0  0  0
 76 68  1  0  0  0  0
 76 79  1  0  0  0  0
 77 76  1  0  0  0  0
 78 76  1  0  0  0  0
 79 81  1  0  0  0  0
 79 82  1  0  0  0  0
 80 79  1  0  0  0  0
M  CHG  1  13  -1
M  END
