1,2,3,4
q = -2.0, confidence = 0.866

 70 71  0  0  0  0  0  0  0  0999 V2000
   -1.4239    0.9075    0.1060 O   0  5  0  0  0  0  0  0  0  0  0  0
    1.4239    0.9075   -0.1061 O   0  5  0  0  0  0  0  0  0  0  0  0
   -1.3380   -2.1026    0.1204 N   0  0  0  0  0  2  0  0  0  0  0  0
    1.3380   -2.1026   -0.1204 N   0  0  0  0  0  2  0  0  0  0  0  0
   -2.6270   -1.8898    0.0788 C   0  0  0  0  0  3  0  0  0  0  0  0
   -3.3204   -0.6302   -0.0032 C   0  0  0  0  0  0  0  0  0  0  0  0
   -2.7119    0.6920    0.0276 C   0  0  0  0  0  0  0  0  0  0  0  0
   -3.5688    1.8577   -0.0254 C   0  0  0  0  0  0  0  0  0  0  0  0
   -4.9486    1.6600   -0.1148 C   0  0  0  0  0  0  0  0  0  0  0  0
   -5.5481    0.3791   -0.1501 C   0  0  0  0  0  0  0  0  0  0  0  0
   -4.7415   -0.7413   -0.0902 C   0  0  0  0  0  0  0  0  0  0  0  0
   -2.9560    3.2726    0.0184 C   0  0  0  0  0  0  0  0  0  0  0  0
   -4.0420    4.3620   -0.0623 C   0  0  0  0  0  0  0  0  0  0  0  0
   -2.1906    3.4724    1.3493 C   0  0  0  0  0  0  0  0  0  0  0  0
   -1.9983    3.4778   -1.1809 C   0  0  0  0  0  0  0  0  0  0  0  0
    2.6270   -1.8898   -0.0788 C   0  0  0  0  0  3  0  0  0  0  0  0
    3.3204   -0.6302    0.0032 C   0  0  0  0  0  0  0  0  0  0  0  0
    2.7119    0.6920   -0.0277 C   0  0  0  0  0  0  0  0  0  0  0  0
    3.5688    1.8577    0.0254 C   0  0  0  0  0  0  0  0  0  0  0  0
    4.9486    1.6600    0.1149 C   0  0  0  0  0  0  0  0  0  0  0  0
    5.5480    0.3791    0.1501 C   0  0  0  0  0  0  0  0  0  0  0  0
    4.7414   -0.7413    0.0902 C   0  0  0  0  0  0  0  0  0  0  0  0
    2.9560    3.2726   -0.0184 C   0  0  0  0  0  0  0  0  0  0  0  0
    4.0420    4.3619    0.0623 C   0  0  0  0  0  0  0  0  0  0  0  0
    1.9983    3.4778    1.1809 C   0  0  0  0  0  0  0  0  0  0  0  0
    2.1906    3.4724   -1.3493 C   0  0  0  0  0  0  0  0  0  0  0  0
   -0.7120   -3.4407    0.3637 C   0  0  0  0  0  0  0  0  0  0  0  0
    0.7120   -3.4407   -0.3637 C   0  0  0  0  0  0  0  0  0  0  0  0
   -1.5999   -4.5742   -0.1715 C   0  0  0  0  0  0  0  0  0  0  0  0
   -0.5565   -3.6004    1.8922 C   0  0  0  0  0  0  0  0  0  0  0  0
    1.5999   -4.5742    0.1715 C   0  0  0  0  0  0  0  0  0  0  0  0
    0.5565   -3.6004   -1.8921 C   0  0  0  0  0  0  0  0  0  0  0  0
   -3.2918   -2.7736    0.1159 H   0  0  0  0  0  0  0  0  0  0  0  0
   -5.6083    2.5369   -0.1596 H   0  0  0  0  0  0  0  0  0  0  0  0
   -6.6410    0.2832   -0.2203 H   0  0  0  0  0  0  0  0  0  0  0  0
   -5.1861   -1.7492   -0.1085 H   0  0  0  0  0  0  0  0  0  0  0  0
   -4.6196    4.3087   -1.0078 H   0  0  0  0  0  0  0  0  0  0  0  0
   -3.5594    5.3590   -0.0254 H   0  0  0  0  0  0  0  0  0  0  0  0
   -4.7547    4.3083    0.7861 H   0  0  0  0  0  0  0  0  0  0  0  0
   -1.3696    2.7416    1.4575 H   0  0  0  0  0  0  0  0  0  0  0  0
   -2.8750    3.3654    2.2156 H   0  0  0  0  0  0  0  0  0  0  0  0
   -1.7546    4.4925    1.3823 H   0  0  0  0  0  0  0  0  0  0  0  0
   -1.1544    2.7663   -1.1515 H   0  0  0  0  0  0  0  0  0  0  0  0
   -1.5862    4.5081   -1.1584 H   0  0  0  0  0  0  0  0  0  0  0  0
   -2.5376    3.3468   -2.1412 H   0  0  0  0  0  0  0  0  0  0  0  0
    3.2918   -2.7736   -0.1160 H   0  0  0  0  0  0  0  0  0  0  0  0
    5.6083    2.5369    0.1596 H   0  0  0  0  0  0  0  0  0  0  0  0
    6.6410    0.2832    0.2203 H   0  0  0  0  0  0  0  0  0  0  0  0
    5.1861   -1.7492    0.1085 H   0  0  0  0  0  0  0  0  0  0  0  0
    4.7547    4.3082   -0.7860 H   0  0  0  0  0  0  0  0  0  0  0  0
    4.6197    4.3087    1.0079 H   0  0  0  0  0  0  0  0  0  0  0  0
    3.5595    5.3590    0.0255 H   0  0  0  0  0  0  0  0  0  0  0  0
    1.1544    2.7663    1.1515 H   0  0  0  0  0  0  0  0  0  0  0  0
    1.5862    4.5080    1.1585 H   0  0  0  0  0  0  0  0  0  0  0  0
    2.5376    3.3467    2.1413 H   0  0  0  0  0  0  0  0  0  0  0  0
    1.7546    4.4926   -1.3823 H   0  0  0  0  0  0  0  0  0  0  0  0
    1.3695    2.7416   -1.4575 H   0  0  0  0  0  0  0  0  0  0  0  0
    2.8751    3.3654   -2.2156 H   0  0  0  0  0  0  0  0  0  0  0  0
   -1.0537   -5.5362   -0.1407 H   0  0  0  0  0  0  0  0  0  0  0  0
   -1.9294   -4.3927   -1.2116 H   0  0  0  0  0  0  0  0  0  0  0  0
   -2.4975   -4.7035    0.4640 H   0  0  0  0  0  0  0  0  0  0  0  0
   -0.2096   -4.6198    2.1476 H   0  0  0  0  0  0  0  0  0  0  0  0
   -1.5415   -3.4456    2.3745 H   0  0  0  0  0  0  0  0  0  0  0  0
    0.1400   -2.8503    2.3108 H   0  0  0  0  0  0  0  0  0  0  0  0
    2.4975   -4.7035   -0.4639 H   0  0  0  0  0  0  0  0  0  0  0  0
    1.0537   -5.5362    0.1408 H   0  0  0  0  0  0  0  0  0  0  0  0
    1.9294   -4.3927    1.2116 H   0  0  0  0  0  0  0  0  0  0  0  0
    0.2096   -4.6199   -2.1475 H   0  0  0  0  0  0  0  0  0  0  0  0
    1.5415   -3.4457   -2.3745 H   0  0  0  0  0  0  0  0  0  0  0  0
   -0.1400   -2.8504   -2.3108 H   0  0  0  0  0  0  0  0  0  0  0  0
  2 18  1  0  0  0  0
  3 27  1  0  0  0  0
  4 16  1  0  0  0  0
  5 33  1  0  0  0  0
  5  3  1  0  0  0  0
  6  7  1  0  0  0  0
  6  5  1  0  0  0  0
  7  1  1  0  0  0  0
  8 12  1  0  0  0  0
  8  7  2  0  0  0  0
  9  8  1  0  0  0  0
 10  9  2  0  0  0  0
 10 11  1  0  0  0  0
 11  6  2  0  0  0  0
 12 14  1  0  0  0  0
 13 38  1  0  0  0  0
 13 12  1  0  0  0  0
 13 39  1  0  0  0  0
 14 42  1  0  0  0  0
 14 40  1  0  0  0  0
 14 41  1  0  0  0  0
 15 44  1  0  0  0  0
 15 43  1  0  0  0  0
 15 12  1  0  0  0  0
 16 17  1  0  0  0  0
 17 22  1  0  0  0  0
 18 17  2  0  0  0  0
 18 19  1  0  0  0  0
 19 20  2  0  0  0  0
 20 21  1  0  0  0  0
 20 47  1  0  0  0  0
 21 48  1  0  0  0  0
 22 49  1  0  0  0  0
 22 21  2  0  0  0  0
 23 19  1  0  0  0  0
 23 24  1  0  0  0  0
 23 25  1  0  0  0  0
 24 51  1  0  0  0  0
 25 55  1  0  0  0  0
 26 23  1  0  0  0  0
 27 30  1  0  0  0  0
 28  4  1  0  0  0  0
 28 31  1  0  0  0  0
 28 27  1  0  0  0  0
 29 59  1  0  0  0  0
 29 27  1  0  0  0  0
 29 61  1  0  0  0  0
 30 62  1  0  0  0  0
 30 64  1  0  0  0  0
 30 63  1  0  0  0  0
 31 67  1  0  0  0  0
 32 28  1  0  0  0  0
 34  9  1  0  0  0  0
 35 10  1  0  0  0  0
 36 11  1  0  0  0  0
 37 13  1  0  0  0  0
 45 15  1  0  0  0  0
 46 16  1  0  0  0  0
 50 24  1  0  0  0  0
 52 24  1  0  0  0  0
 53 25  1  0  0  0  0
 54 25  1  0  0  0  0
 56 26  1  0  0  0  0
 57 26  1  0  0  0  0
 58 26  1  0  0  0  0
 60 29  1  0  0  0  0
 65 31  1  0  0  0  0
 66 31  1  0  0  0  0
 68 32  1  0  0  0  0
 69 32  1  0  0  0  0
 70 32  1  0  0  0  0
M  CHG  2   1  -1   2  -1
M  END
