18,21,28,40
q = -2.0, confidence = 0.836

 48 49  0  0  1  0  0  0  0  0999 V2000
    2.0882    4.6387   -0.1155 C   0  0  0  0  0  0  0  0  0  0  0  0
    1.4663    4.5672    0.7985 H   0  0  0  0  0  0  0  0  0  0  0  0
    2.5371    5.6505   -0.1615 H   0  0  0  0  0  0  0  0  0  0  0  0
    1.4213    4.5057   -0.9901 H   0  0  0  0  0  0  0  0  0  0  0  0
    3.1723    3.5763   -0.1064 C   0  0  0  0  0  0  0  0  0  0  0  0
    3.8068    3.6437   -1.0227 H   0  0  0  0  0  0  0  0  0  0  0  0
    3.8522    3.7048    0.7699 H   0  0  0  0  0  0  0  0  0  0  0  0
    2.5343    2.3100   -0.0471 O   0  0  0  0  0  0  0  0  0  0  0  0
    2.5347   -0.0411    0.0333 C   0  0  0  0  0  0  0  0  0  0  0  0
    3.3001    1.1913   -0.0271 C   0  0  0  0  0  0  0  0  0  0  0  0
    4.6933    1.1591   -0.0618 C   0  0  0  0  0  0  0  0  0  0  0  0
    5.2622    2.0978   -0.1111 H   0  0  0  0  0  0  0  0  0  0  0  0
    5.3986   -0.0760   -0.0334 C   0  0  0  0  0  0  0  0  0  0  0  0
    6.4979   -0.0687   -0.0604 H   0  0  0  0  0  0  0  0  0  0  0  0
    4.7040   -1.2700    0.0298 C   0  0  0  0  0  3  0  0  0  0  0  0
    5.2387   -2.2324    0.0565 H   0  0  0  0  0  0  0  0  0  0  0  0
    3.2743   -1.2762    0.0634 C   0  0  0  0  0  0  0  0  0  0  0  0
    1.2458    0.0564    0.0649 O   0  5  0  0  0  0  0  0  0  0  0  0
    2.5707   -2.5128    0.1560 C   0  0  0  0  0  0  0  0  0  0  0  0
    3.1798   -3.4344    0.2500 H   0  0  0  0  0  0  0  0  0  0  0  0
   -1.2625   -2.6518   -0.1532 N   0  0  0  0  0  2  0  0  0  0  0  0
    0.6606   -3.9670    0.3772 C   0  0  0  0  0  0  0  0  0  0  0  0
    0.4700   -4.0993    1.4659 H   0  0  0  0  0  0  0  0  0  0  0  0
    1.3326   -4.7871    0.0443 H   0  0  0  0  0  0  0  0  0  0  0  0
   -0.6606   -3.9670   -0.3772 C   0  0  0  0  0  0  0  0  0  0  0  0
   -1.3326   -4.7871   -0.0443 H   0  0  0  0  0  0  0  0  0  0  0  0
   -0.4700   -4.0993   -1.4659 H   0  0  0  0  0  0  0  0  0  0  0  0
    1.2625   -2.6518    0.1532 N   0  0  0  0  0  2  0  0  0  0  0  0
   -2.5707   -2.5128   -0.1561 C   0  0  0  0  0  0  0  0  0  0  0  0
   -3.1798   -3.4344   -0.2500 H   0  0  0  0  0  0  0  0  0  0  0  0
   -3.2743   -1.2762   -0.0634 C   0  0  0  0  0  0  0  0  0  0  0  0
   -4.7040   -1.2701   -0.0299 C   0  0  0  0  0  0  0  0  0  0  0  0
   -5.2387   -2.2324   -0.0565 H   0  0  0  0  0  0  0  0  0  0  0  0
   -5.3986   -0.0760    0.0334 C   0  0  0  0  0  0  0  0  0  0  0  0
   -6.4979   -0.0687    0.0603 H   0  0  0  0  0  0  0  0  0  0  0  0
   -4.6933    1.1591    0.0618 C   0  0  0  0  0  0  0  0  0  0  0  0
   -5.2622    2.0978    0.1111 H   0  0  0  0  0  0  0  0  0  0  0  0
   -3.3001    1.1913    0.0271 C   0  0  0  0  0  0  0  0  0  0  0  0
   -2.5347   -0.0411   -0.0333 C   0  0  2  0  0  3  0  0  0  0  0  0
   -1.2458    0.0564   -0.0649 O   0  0  0  0  0  1  0  0  0  0  0  0
   -2.5343    2.3100    0.0471 O   0  0  0  0  0  0  0  0  0  0  0  0
   -3.1723    3.5763    0.1064 C   0  0  0  0  0  0  0  0  0  0  0  0
   -3.8069    3.6437    1.0227 H   0  0  0  0  0  0  0  0  0  0  0  0
   -3.8522    3.7048   -0.7699 H   0  0  0  0  0  0  0  0  0  0  0  0
   -2.0882    4.6387    0.1155 C   0  0  0  0  0  0  0  0  0  0  0  0
   -1.4663    4.5672   -0.7985 H   0  0  0  0  0  0  0  0  0  0  0  0
   -1.4214    4.5057    0.9901 H   0  0  0  0  0  0  0  0  0  0  0  0
   -2.5371    5.6505    0.1615 H   0  0  0  0  0  0  0  0  0  0  0  0
  1  5  1  0  0  0  0
  1  2  1  0  0  0  0
  3  1  1  0  0  0  0
  4  1  1  0  0  0  0
  5  8  1  0  0  0  0
  5  7  1  0  0  0  0
  6  5  1  0  0  0  0
  8 10  1  0  0  0  0
  9 17  1  0  0  0  0
  9 18  1  0  0  0  0
 10  9  2  0  0  0  0
 11 13  2  0  0  0  0
 11 10  1  0  0  0  0
 12 11  1  0  0  0  0
 13 15  1  0  0  0  0
 14 13  1  0  0  0  0
 15 16  1  0  0  0  0
 15 17  1  0  0  0  0
 17 19  2  0  0  0  0
 19 20  1  0  0  0  0
 22 23  1  0  0  0  0
 24 22  1  0  0  0  0
 25 21  1  0  0  0  0
 25 26  1  0  0  0  0
 25 22  1  0  0  0  0
 27 25  1  0  0  0  0
 28 19  1  0  0  0  0
 28 22  1  0  0  0  0
 29 21  1  0  0  0  0
 29 31  2  0  0  0  0
 30 29  1  0  0  0  0
 31 39  1  0  0  0  0
 31 32  1  0  0  0  0
 32 34  2  0  0  0  0
 33 32  1  0  0  0  0
 34 35  1  0  0  0  0
 34 36  1  0  0  0  0
 36 37  1  0  0  0  0
 38 41  1  0  0  0  0
 38 36  2  0  0  0  0
 39 40  1  6  0  0  0
 39 38  1  0  0  0  0
 41 42  1  0  0  0  0
 42 45  1  0  0  0  0
 42 43  1  0  0  0  0
 44 42  1  0  0  0  0
 45 48  1  0  0  0  0
 45 47  1  0  0  0  0
 46 45  1  0  0  0  0
M  CHG  1  18  -1
M  END
