4,7,8,11
q = -2.0, confidence = 0.842

 66 67  0  0  1  0  0  0  0  0999 V2000
    3.1433    3.8799   -1.3362 F   0  0  0  0  0  0  0  0  0  0  0  0
   -4.2999    2.7325   -1.0826 F   0  0  0  0  0  0  0  0  0  0  0  0
    5.3047    0.0318    0.0113 O   0  0  0  0  0  0  0  0  0  0  0  0
    0.9605    1.9309    0.0162 O   0  5  0  0  0  0  0  0  0  0  0  0
   -4.6466    2.1983    1.0214 F   0  0  0  0  0  0  0  0  0  0  0  0
   -2.9672    3.4567    0.4691 F   0  0  0  0  0  0  0  0  0  0  0  0
   -1.5492    1.4734   -0.0642 O   0  0  0  0  0  1  0  0  0  0  0  0
    1.4202   -0.7022    0.1890 N   0  0  0  0  0  2  0  0  0  0  0  0
   -5.5184    0.3477   -0.7123 O   0  0  0  0  0  0  0  0  0  0  0  0
    5.1884    2.2229   -0.5527 O   0  0  0  0  0  0  0  0  0  0  0  0
   -1.0423   -1.1716   -0.1134 N   0  0  0  0  0  2  0  0  0  0  0  0
    1.5603    4.3450    0.0738 F   0  0  0  0  0  0  0  0  0  0  0  0
   -5.0586   -1.7521    0.0215 O   0  0  0  0  0  0  0  0  0  0  0  0
    3.5374    3.8687    0.8283 F   0  0  0  0  0  0  0  0  0  0  0  0
    0.8562   -2.2717    2.0343 C   0  0  0  0  0  0  0  0  0  0  0  0
    2.6783   -0.3288    0.1335 C   0  0  0  0  0  3  0  0  0  0  0  0
    3.4463   -1.1128    0.2562 H   0  0  0  0  0  0  0  0  0  0  0  0
    0.0884   -2.6871   -1.7314 C   0  0  0  0  0  0  0  0  0  0  0  0
   -0.2194   -2.3772   -0.2728 C   0  0  1  0  0  0  0  0  0  0  0  0
   -0.7389   -3.2482    0.1789 H   0  0  0  0  0  0  0  0  0  0  0  0
    2.2252    2.0689   -0.0655 C   0  0  0  0  0  0  0  0  0  0  0  0
   -3.2742   -0.1715   -0.1675 C   0  0  0  0  0  0  0  0  0  0  0  0
    1.0702   -2.0823    0.5379 C   0  0  1  0  0  0  0  0  0  0  0  0
    1.8733   -2.7707    0.1995 H   0  0  0  0  0  0  0  0  0  0  0  0
    2.6390    3.5683   -0.1287 C   0  0  0  0  0  0  0  0  0  0  0  0
    3.1580    1.0002   -0.0607 C   0  0  0  0  0  0  0  0  0  0  0  0
    0.3670   -4.0165   -2.1031 C   0  0  0  0  0  0  0  0  0  0  0  0
    0.3028   -4.8174   -1.3483 H   0  0  0  0  0  0  0  0  0  0  0  0
   -2.7852    1.1538   -0.0819 C   0  0  1  0  0  3  0  0  0  0  0  0
    0.1603   -1.6755   -2.7076 C   0  0  0  0  0  0  0  0  0  0  0  0
   -0.0705   -0.6364   -2.4265 H   0  0  0  0  0  0  0  0  0  0  0  0
   -4.6943   -0.6143   -0.2476 C   0  0  0  0  0  0  0  0  0  0  0  0
   -3.6991    2.4028    0.0765 C   0  0  0  0  0  0  0  0  0  0  0  0
    4.6227    1.1945   -0.2292 C   0  0  0  0  0  0  0  0  0  0  0  0
    0.5035   -1.2037    2.8798 C   0  0  0  0  0  0  0  0  0  0  0  0
    0.4340   -0.1858    2.4661 H   0  0  0  0  0  0  0  0  0  0  0  0
    6.7330    0.1063   -0.1585 C   0  0  0  0  0  0  0  0  0  0  0  0
    7.1378    0.8767    0.5317 H   0  0  0  0  0  0  0  0  0  0  0  0
    6.9566    0.4579   -1.1883 H   0  0  0  0  0  0  0  0  0  0  0  0
    0.9607   -3.5673    2.5771 C   0  0  0  0  0  0  0  0  0  0  0  0
    1.2452   -4.4097    1.9253 H   0  0  0  0  0  0  0  0  0  0  0  0
   -2.3510   -1.2565   -0.1696 C   0  0  0  0  0  0  0  0  0  0  0  0
   -2.8087   -2.2625   -0.2296 H   0  0  0  0  0  0  0  0  0  0  0  0
    7.3071   -1.2683    0.1172 C   0  0  0  0  0  0  0  0  0  0  0  0
    8.4088   -1.2495    0.0008 H   0  0  0  0  0  0  0  0  0  0  0  0
    6.8991   -2.0203   -0.5876 H   0  0  0  0  0  0  0  0  0  0  0  0
    7.0750   -1.5978    1.1496 H   0  0  0  0  0  0  0  0  0  0  0  0
    0.7904   -3.3153   -4.3915 C   0  0  0  0  0  0  0  0  0  0  0  0
    1.0602   -3.5600   -5.4299 H   0  0  0  0  0  0  0  0  0  0  0  0
   -6.9318    0.0558   -0.7148 C   0  0  0  0  0  0  0  0  0  0  0  0
   -7.3463    0.7085   -1.5074 H   0  0  0  0  0  0  0  0  0  0  0  0
   -7.0758   -1.0059   -0.9996 H   0  0  0  0  0  0  0  0  0  0  0  0
    0.5086   -1.9889   -4.0297 C   0  0  0  0  0  0  0  0  0  0  0  0
    0.5574   -1.1883   -4.7831 H   0  0  0  0  0  0  0  0  0  0  0  0
    0.7118   -3.7937    3.9381 C   0  0  0  0  0  0  0  0  0  0  0  0
    0.8022   -4.8106    4.3492 H   0  0  0  0  0  0  0  0  0  0  0  0
    0.7168   -4.3304   -3.4243 C   0  0  0  0  0  0  0  0  0  0  0  0
    0.9248   -5.3749   -3.7019 H   0  0  0  0  0  0  0  0  0  0  0  0
    0.2563   -1.4292    4.2423 C   0  0  0  0  0  0  0  0  0  0  0  0
   -0.0157   -0.5837    4.8920 H   0  0  0  0  0  0  0  0  0  0  0  0
    0.3564   -2.7234    4.7748 C   0  0  0  0  0  0  0  0  0  0  0  0
    0.1636   -2.8983    5.8440 H   0  0  0  0  0  0  0  0  0  0  0  0
   -7.5545    0.3538    0.6395 C   0  0  0  0  0  0  0  0  0  0  0  0
   -8.6529    0.2107    0.5933 H   0  0  0  0  0  0  0  0  0  0  0  0
   -7.3475    1.3974    0.9468 H   0  0  0  0  0  0  0  0  0  0  0  0
   -7.1516   -0.3297    1.4125 H   0  0  0  0  0  0  0  0  0  0  0  0
  1 25  1  0  0  0  0
  2 33  1  0  0  0  0
  8 23  1  0  0  0  0
  9 32  1  0  0  0  0
 10 34  2  0  0  0  0
 15 40  2  0  0  0  0
 15 35  1  0  0  0  0
 16  8  1  0  0  0  0
 16 17  1  0  0  0  0
 18 19  1  0  0  0  0
 19 11  1  0  0  0  0
 19 20  1  1  0  0  0
 19 23  1  0  0  0  0
 21 26  2  0  0  0  0
 21  4  1  0  0  0  0
 22 29  1  0  0  0  0
 23 24  1  6  0  0  0
 23 15  1  0  0  0  0
 25 21  1  0  0  0  0
 25 12  1  0  0  0  0
 25 14  1  0  0  0  0
 26 16  1  0  0  0  0
 27 18  1  0  0  0  0
 27 28  1  0  0  0  0
 29  7  1  1  0  0  0
 29 33  1  0  0  0  0
 30 31  1  0  0  0  0
 30 18  2  0  0  0  0
 32 22  1  0  0  0  0
 32 13  2  0  0  0  0
 33  6  1  0  0  0  0
 33  5  1  0  0  0  0
 34 26  1  0  0  0  0
 34  3  1  0  0  0  0
 35 59  2  0  0  0  0
 36 35  1  0  0  0  0
 37  3  1  0  0  0  0
 37 44  1  0  0  0  0
 37 38  1  0  0  0  0
 39 37  1  0  0  0  0
 40 55  1  0  0  0  0
 41 40  1  0  0  0  0
 42 22  2  0  0  0  0
 42 11  1  0  0  0  0
 43 42  1  0  0  0  0
 44 47  1  0  0  0  0
 45 44  1  0  0  0  0
 46 44  1  0  0  0  0
 48 53  2  0  0  0  0
 48 57  1  0  0  0  0
 49 48  1  0  0  0  0
 50  9  1  0  0  0  0
 50 63  1  0  0  0  0
 51 50  1  0  0  0  0
 52 50  1  0  0  0  0
 53 30  1  0  0  0  0
 54 53  1  0  0  0  0
 55 56  1  0  0  0  0
 55 61  2  0  0  0  0
 57 27  2  0  0  0  0
 58 57  1  0  0  0  0
 59 61  1  0  0  0  0
 59 60  1  0  0  0  0
 61 62  1  0  0  0  0
 63 65  1  0  0  0  0
 63 66  1  0  0  0  0
 64 63  1  0  0  0  0
M  CHG  1   4  -1
M  END
