1,2,8,9
q = -2.0, confidence = 0.85

 60 62  0  0  1  0  0  0  0  0999 V2000
   -0.5505    1.0987    0.1596 O   0  0  0  0  0  1  0  0  0  0  0  0
    0.2635   -1.2818    0.0008 O   0  5  0  0  0  0  0  0  0  0  0  0
    2.7785   -1.8708    0.4753 O   0  0  0  0  0  0  0  0  0  0  0  0
    5.1089   -0.4196   -0.5185 O   0  0  0  0  0  0  0  0  0  0  0  0
    3.6234    1.4760   -0.9926 C   0  0  0  0  0  0  0  0  0  0  0  0
    3.6344    2.8938   -1.1180 O   0  0  0  0  0  0  0  0  0  0  0  0
    1.1436    3.1185    0.3060 O   0  0  0  0  0  0  0  0  0  0  0  0
   -3.1375    0.2228   -0.0737 N   0  0  0  0  0  2  0  0  0  0  0  0
   -2.2648   -2.1179   -0.4955 N   0  0  0  0  0  2  0  0  0  0  0  0
   -1.0694    2.2847    0.1928 C   0  0  2  0  0  3  0  0  0  0  0  0
   -0.1796    3.4280    0.2806 C   0  0  0  0  0  0  0  0  0  0  0  0
   -0.6896    4.7256    0.3267 C   0  0  0  0  0  0  0  0  0  0  0  0
   -2.0880    4.9715    0.2965 C   0  0  0  0  0  0  0  0  0  0  0  0
   -2.9678    3.9092    0.2114 C   0  0  0  0  0  0  0  0  0  0  0  0
   -2.4808    2.5669    0.1523 C   0  0  0  0  0  0  0  0  0  0  0  0
   -3.4199    1.4994    0.0538 C   0  0  0  0  0  0  0  0  0  0  0  0
   -4.2329   -0.7914   -0.0555 C   0  0  0  0  0  0  0  0  0  0  0  0
   -5.5447   -0.3021   -0.6806 C   0  0  0  0  0  0  0  0  0  0  0  0
   -4.4548   -1.2403    1.3997 C   0  0  0  0  0  0  0  0  0  0  0  0
   -3.6539   -1.9391   -0.8932 C   0  0  0  0  0  0  0  0  0  0  0  0
   -1.7346   -3.3196   -0.4757 C   0  0  0  0  0  0  0  0  0  0  0  0
   -0.3738   -3.6195   -0.1831 C   0  0  0  0  0  0  0  0  0  0  0  0
    0.0452   -4.9846   -0.1246 C   0  0  0  0  0  3  0  0  0  0  0  0
    1.3621   -5.3011    0.1502 C   0  0  0  0  0  0  0  0  0  0  0  0
    2.3072   -4.2623    0.3642 C   0  0  0  0  0  0  0  0  0  0  0  0
    1.9359   -2.9194    0.2960 C   0  0  0  0  0  0  0  0  0  0  0  0
    0.5592   -2.5428    0.0314 C   0  0  0  0  0  0  0  0  0  0  0  0
    4.1291   -2.1457    0.8040 C   0  0  0  0  0  0  0  0  0  0  0  0
    4.8829   -0.8338    0.8133 C   0  0  0  0  0  0  0  0  0  0  0  0
    5.0511    0.9788   -0.7225 C   0  0  0  0  0  0  0  0  0  0  0  0
    3.4696    3.6013    0.0923 C   0  0  0  0  0  0  0  0  0  0  0  0
    2.0724    4.1843    0.2106 C   0  0  0  0  0  0  0  0  0  0  0  0
   -0.0029    5.5801    0.3919 H   0  0  0  0  0  0  0  0  0  0  0  0
   -2.4564    6.0066    0.3388 H   0  0  0  0  0  0  0  0  0  0  0  0
   -4.0556    4.0780    0.1821 H   0  0  0  0  0  0  0  0  0  0  0  0
   -4.4857    1.7909    0.0897 H   0  0  0  0  0  0  0  0  0  0  0  0
   -6.2387   -1.1581   -0.7961 H   0  0  0  0  0  0  0  0  0  0  0  0
   -6.0598    0.4439   -0.0446 H   0  0  0  0  0  0  0  0  0  0  0  0
   -5.3733    0.1427   -1.6810 H   0  0  0  0  0  0  0  0  0  0  0  0
   -4.7796   -0.3822    2.0207 H   0  0  0  0  0  0  0  0  0  0  0  0
   -5.2340   -2.0272    1.4526 H   0  0  0  0  0  0  0  0  0  0  0  0
   -3.5147   -1.6393    1.8280 H   0  0  0  0  0  0  0  0  0  0  0  0
   -4.2393   -2.8747   -0.7605 H   0  0  0  0  0  0  0  0  0  0  0  0
   -3.6951   -1.6571   -1.9691 H   0  0  0  0  0  0  0  0  0  0  0  0
   -2.4016   -4.1726   -0.7129 H   0  0  0  0  0  0  0  0  0  0  0  0
   -0.7018   -5.7748   -0.2978 H   0  0  0  0  0  0  0  0  0  0  0  0
    1.6899   -6.3492    0.2043 H   0  0  0  0  0  0  0  0  0  0  0  0
    3.3496   -4.5303    0.5824 H   0  0  0  0  0  0  0  0  0  0  0  0
    4.5948   -2.8216    0.0501 H   0  0  0  0  0  0  0  0  0  0  0  0
    4.1962   -2.6431    1.8009 H   0  0  0  0  0  0  0  0  0  0  0  0
    4.2833   -0.0890    1.3860 H   0  0  0  0  0  0  0  0  0  0  0  0
    5.8519   -0.9734    1.3547 H   0  0  0  0  0  0  0  0  0  0  0  0
    5.6893    1.2134   -1.6001 H   0  0  0  0  0  0  0  0  0  0  0  0
    5.4845    1.5345    0.1452 H   0  0  0  0  0  0  0  0  0  0  0  0
    2.9071    1.1305   -0.2136 H   0  0  0  0  0  0  0  0  0  0  0  0
    3.2597    1.0602   -1.9543 H   0  0  0  0  0  0  0  0  0  0  0  0
    4.1950    4.4461    0.1177 H   0  0  0  0  0  0  0  0  0  0  0  0
    3.6777    2.9592    0.9799 H   0  0  0  0  0  0  0  0  0  0  0  0
    1.8539    4.8031   -0.6906 H   0  0  0  0  0  0  0  0  0  0  0  0
    2.0147    4.8500    1.1063 H   0  0  0  0  0  0  0  0  0  0  0  0
  2 27  1  0  0  0  0
  3 28  1  0  0  0  0
  4 29  1  0  0  0  0
  5 30  1  0  0  0  0
  5 55  1  0  0  0  0
  6  5  1  0  0  0  0
  6 31  1  0  0  0  0
  8 17  1  0  0  0  0
  8 16  1  0  0  0  0
  9 21  1  0  0  0  0
 10  1  1  1  0  0  0
 10 11  1  0  0  0  0
 11  7  1  0  0  0  0
 11 12  2  0  0  0  0
 12 33  1  0  0  0  0
 13 12  1  0  0  0  0
 13 34  1  0  0  0  0
 14 13  2  0  0  0  0
 15 10  1  0  0  0  0
 15 14  1  0  0  0  0
 16 36  1  0  0  0  0
 16 15  2  0  0  0  0
 17 19  1  0  0  0  0
 18 17  1  0  0  0  0
 18 38  1  0  0  0  0
 19 41  1  0  0  0  0
 19 42  1  0  0  0  0
 19 40  1  0  0  0  0
 20 43  1  0  0  0  0
 20  9  1  0  0  0  0
 20 17  1  0  0  0  0
 21 22  2  0  0  0  0
 22 23  1  0  0  0  0
 22 27  1  0  0  0  0
 23 24  1  0  0  0  0
 24 47  1  0  0  0  0
 24 25  2  0  0  0  0
 25 48  1  0  0  0  0
 26 25  1  0  0  0  0
 26  3  1  0  0  0  0
 27 26  2  0  0  0  0
 28 29  1  0  0  0  0
 28 50  1  0  0  0  0
 29 52  1  0  0  0  0
 29 51  1  0  0  0  0
 30  4  1  0  0  0  0
 30 54  1  0  0  0  0
 31 57  1  0  0  0  0
 31 32  1  0  0  0  0
 31 58  1  0  0  0  0
 32  7  1  0  0  0  0
 32 60  1  0  0  0  0
 35 14  1  0  0  0  0
 37 18  1  0  0  0  0
 39 18  1  0  0  0  0
 44 20  1  0  0  0  0
 45 21  1  0  0  0  0
 46 23  1  0  0  0  0
 49 28  1  0  0  0  0
 53 30  1  0  0  0  0
 56  5  1  0  0  0  0
 59 32  1  0  0  0  0
M  CHG  1   2  -1
M  END
