1,2,9,10
q = -2.0, confidence = 0.828

 70 71  0  0  1  0  0  0  0  0999 V2000
    2.0788   -1.5845   -0.2612 O   0  0  0  0  0  1  0  0  0  0  0  0
   -0.7525    1.0785   -1.3082 O   0  5  0  0  0  0  0  0  0  0  0  0
   -0.1674    4.0538    0.7248 O   0  0  0  0  0  0  0  0  0  0  0  0
   -2.1753    2.1106    1.9378 O   0  0  0  0  0  0  0  0  0  0  0  0
   -2.8242   -0.4367    3.3214 O   0  0  0  0  0  0  0  0  0  0  0  0
   -1.4294   -2.7545    1.7835 O   0  0  0  0  0  0  0  0  0  0  0  0
    5.8780    1.3494   -0.1033 O   0  0  0  0  0  0  0  0  0  0  0  0
   -4.6094   -1.7614   -1.5133 O   0  0  0  0  0  0  0  0  0  0  0  0
    1.9207    1.3120   -0.5324 N   0  0  0  0  0  2  0  0  0  0  0  0
   -0.6878   -1.7837   -0.7934 N   0  0  0  0  0  2  0  0  0  0  0  0
    3.9591   -0.0366   -0.1867 C   0  0  0  0  0  0  0  0  0  0  0  0
    3.3613   -1.3469   -0.1389 C   0  0  1  0  0  3  0  0  0  0  0  0
    4.2079   -2.4765    0.0727 C   0  0  0  0  0  0  0  0  0  0  0  0
    5.5786   -2.3178    0.2148 C   0  0  0  0  0  0  0  0  0  0  0  0
    6.1924   -1.0455    0.1614 C   0  0  0  0  0  0  0  0  0  0  0  0
    5.3883    0.0794   -0.0372 C   0  0  0  0  0  0  0  0  0  0  0  0
    3.2073    1.1764   -0.3129 C   0  0  0  0  0  0  0  0  0  0  0  0
    1.3619    2.6659   -0.4738 C   0  0  0  0  0  0  0  0  0  0  0  0
    0.5915    2.8609    0.8338 C   0  0  0  0  0  0  0  0  0  0  0  0
   -1.0764    4.2575    1.7893 C   0  0  0  0  0  0  0  0  0  0  0  0
   -2.3831    3.4809    1.6708 C   0  0  0  0  0  0  0  0  0  0  0  0
   -3.3440    1.3282    1.7735 C   0  0  0  0  0  0  0  0  0  0  0  0
   -3.0125   -0.1377    1.9476 C   0  0  0  0  0  0  0  0  0  0  0  0
   -2.6922   -1.8093    3.6120 C   0  0  0  0  0  0  0  0  0  0  0  0
   -1.3808   -2.4483    3.1644 C   0  0  0  0  0  0  0  0  0  0  0  0
   -0.1757   -3.0972    1.2323 C   0  0  0  0  0  0  0  0  0  0  0  0
   -0.2844   -3.1006   -0.2908 C   0  0  0  0  0  0  0  0  0  0  0  0
   -2.6536   -0.4272   -1.4313 C   0  0  0  0  0  0  0  0  0  0  0  0
   -2.0198    0.8622   -1.5310 C   0  0  0  0  0  0  0  0  0  0  0  0
   -2.8135    1.9959   -1.8873 C   0  0  0  0  0  0  0  0  0  0  0  0
   -4.1746    1.8588   -2.1137 C   0  0  0  0  0  0  0  0  0  0  0  0
   -4.8289    0.6095   -1.9984 C   0  0  0  0  0  0  0  0  0  0  0  0
   -4.0740   -0.5169   -1.6616 C   0  0  2  0  0  3  0  0  0  0  0  0
   -1.9628   -1.6280   -1.0681 C   0  0  0  0  0  0  0  0  0  0  0  0
    7.2675    1.5544    0.0659 C   0  0  0  0  0  0  0  0  0  0  0  0
   -6.0016   -1.9321   -1.6992 C   0  0  0  0  0  0  0  0  0  0  0  0
    3.7334   -3.4668    0.1109 H   0  0  0  0  0  0  0  0  0  0  0  0
    6.2113   -3.2057    0.3696 H   0  0  0  0  0  0  0  0  0  0  0  0
    7.2796   -0.9574    0.2711 H   0  0  0  0  0  0  0  0  0  0  0  0
    3.7908    2.1071   -0.1988 H   0  0  0  0  0  0  0  0  0  0  0  0
    0.6478    2.7978   -1.3067 H   0  0  0  0  0  0  0  0  0  0  0  0
    2.1764    3.4134   -0.5716 H   0  0  0  0  0  0  0  0  0  0  0  0
   -0.0636    1.9817    1.0054 H   0  0  0  0  0  0  0  0  0  0  0  0
    1.3051    2.9223    1.6951 H   0  0  0  0  0  0  0  0  0  0  0  0
   -1.3244    5.3402    1.7842 H   0  0  0  0  0  0  0  0  0  0  0  0
   -0.6031    4.0227    2.7741 H   0  0  0  0  0  0  0  0  0  0  0  0
   -3.1232    3.9178    2.3917 H   0  0  0  0  0  0  0  0  0  0  0  0
   -2.8015    3.6231    0.6432 H   0  0  0  0  0  0  0  0  0  0  0  0
   -3.7724    1.4760    0.7532 H   0  0  0  0  0  0  0  0  0  0  0  0
   -4.1259    1.6249    2.5170 H   0  0  0  0  0  0  0  0  0  0  0  0
   -3.8468   -0.7507    1.5237 H   0  0  0  0  0  0  0  0  0  0  0  0
   -2.1057   -0.3756    1.3499 H   0  0  0  0  0  0  0  0  0  0  0  0
   -3.5357   -2.4007    3.1717 H   0  0  0  0  0  0  0  0  0  0  0  0
   -2.7588   -1.8944    4.7168 H   0  0  0  0  0  0  0  0  0  0  0  0
   -0.5439   -1.7402    3.3823 H   0  0  0  0  0  0  0  0  0  0  0  0
   -1.1972   -3.3751    3.7668 H   0  0  0  0  0  0  0  0  0  0  0  0
    0.1581   -4.1103    1.5732 H   0  0  0  0  0  0  0  0  0  0  0  0
    0.6081   -2.3671    1.5387 H   0  0  0  0  0  0  0  0  0  0  0  0
    0.7050   -3.3636   -0.7076 H   0  0  0  0  0  0  0  0  0  0  0  0
   -1.0319   -3.8565   -0.6104 H   0  0  0  0  0  0  0  0  0  0  0  0
   -2.3041    2.9667   -1.9575 H   0  0  0  0  0  0  0  0  0  0  0  0
   -4.7695    2.7458   -2.3821 H   0  0  0  0  0  0  0  0  0  0  0  0
   -5.9087    0.5397   -2.1744 H   0  0  0  0  0  0  0  0  0  0  0  0
   -2.5982   -2.5261   -0.9878 H   0  0  0  0  0  0  0  0  0  0  0  0
    7.4336    2.6448   -0.0110 H   0  0  0  0  0  0  0  0  0  0  0  0
    7.8585    1.0405   -0.7245 H   0  0  0  0  0  0  0  0  0  0  0  0
    7.6188    1.2010    1.0608 H   0  0  0  0  0  0  0  0  0  0  0  0
   -6.2102   -3.0036   -1.5242 H   0  0  0  0  0  0  0  0  0  0  0  0
   -6.3156   -1.6639   -2.7323 H   0  0  0  0  0  0  0  0  0  0  0  0
   -6.5905   -1.3237   -0.9773 H   0  0  0  0  0  0  0  0  0  0  0  0
  3 19  1  0  0  0  0
  3 20  1  0  0  0  0
  5 24  1  0  0  0  0
  6 25  1  0  0  0  0
  7 16  1  0  0  0  0
  7 35  1  0  0  0  0
  9 18  1  0  0  0  0
  9 17  1  0  0  0  0
 10 27  1  0  0  0  0
 11 12  1  0  0  0  0
 11 16  1  0  0  0  0
 12  1  1  1  0  0  0
 12 13  1  0  0  0  0
 13 37  1  0  0  0  0
 13 14  2  0  0  0  0
 14 38  1  0  0  0  0
 15 14  1  0  0  0  0
 15 39  1  0  0  0  0
 16 15  2  0  0  0  0
 17 40  1  0  0  0  0
 17 11  2  0  0  0  0
 18 19  1  0  0  0  0
 19 43  1  0  0  0  0
 19 44  1  0  0  0  0
 20 46  1  0  0  0  0
 21 20  1  0  0  0  0
 21  4  1  0  0  0  0
 21 47  1  0  0  0  0
 22  4  1  0  0  0  0
 22 23  1  0  0  0  0
 22 50  1  0  0  0  0
 23  5  1  0  0  0  0
 24 54  1  0  0  0  0
 25 55  1  0  0  0  0
 25 24  1  0  0  0  0
 25 56  1  0  0  0  0
 26 58  1  0  0  0  0
 26 57  1  0  0  0  0
 26  6  1  0  0  0  0
 27 26  1  0  0  0  0
 28 34  2  0  0  0  0
 29 28  1  0  0  0  0
 29  2  1  0  0  0  0
 30 29  2  0  0  0  0
 31 32  2  0  0  0  0
 31 30  1  0  0  0  0
 32 33  1  0  0  0  0
 33  8  1  1  0  0  0
 33 28  1  0  0  0  0
 34 64  1  0  0  0  0
 34 10  1  0  0  0  0
 35 67  1  0  0  0  0
 36 68  1  0  0  0  0
 36  8  1  0  0  0  0
 36 70  1  0  0  0  0
 41 18  1  0  0  0  0
 42 18  1  0  0  0  0
 45 20  1  0  0  0  0
 48 21  1  0  0  0  0
 49 22  1  0  0  0  0
 51 23  1  0  0  0  0
 52 23  1  0  0  0  0
 53 24  1  0  0  0  0
 59 27  1  0  0  0  0
 60 27  1  0  0  0  0
 61 30  1  0  0  0  0
 62 31  1  0  0  0  0
 63 32  1  0  0  0  0
 65 35  1  0  0  0  0
 66 35  1  0  0  0  0
 69 36  1  0  0  0  0
M  CHG  1   2  -1
M  END
