1,2,5,6
q = -2.0, confidence = 0.836

 75 76  0  0  1  0  0  0  0  0999 V2000
    1.6772   -0.8179   -0.9752 O   0  5  0  0  0  0  0  0  0  0  0  0
   -2.0784    0.6301   -0.7576 O   0  0  0  0  0  1  0  0  0  0  0  0
    6.4357   -0.8179   -1.1923 O   0  0  0  0  0  0  0  0  0  0  0  0
   -6.7277    0.8409   -0.3796 O   0  0  0  0  0  0  0  0  0  0  0  0
    0.4062    1.8219   -1.1710 N   0  0  0  0  0  2  0  0  0  0  0  0
   -0.8269   -2.0194   -0.6160 N   0  0  0  0  0  2  0  0  0  0  0  0
    2.8207    1.3025   -1.3329 C   0  0  0  0  0  0  0  0  0  0  0  0
    2.7755   -0.1217   -1.1209 C   0  0  0  0  0  0  0  0  0  0  0  0
    4.0042   -0.8438   -1.0707 C   0  0  0  0  0  0  0  0  0  0  0  0
    5.2306   -0.1942   -1.2330 C   0  0  0  0  0  0  0  0  0  0  0  0
    5.2805    1.2118   -1.4573 C   0  0  0  0  0  0  0  0  0  0  0  0
    4.0960    1.9214   -1.5040 C   0  0  0  0  0  3  0  0  0  0  0  0
    1.6652    2.1450   -1.3624 C   0  0  0  0  0  0  0  0  0  0  0  0
    6.4640   -2.2150   -0.9634 C   0  0  0  0  0  0  0  0  0  0  0  0
   -0.5738    2.9180   -1.1242 C   0  0  0  0  0  0  0  0  0  0  0  0
   -0.9203    3.2979    0.3232 C   0  0  0  0  0  0  0  0  0  0  0  0
    0.1882    4.0693    1.0508 C   0  0  0  0  0  0  0  0  0  0  0  0
    0.1240    3.9786    2.5829 C   0  0  0  0  0  0  0  0  0  0  0  0
    0.3797    2.5723    3.1509 C   0  0  0  0  0  0  0  0  0  0  0  0
    1.7181    1.9621    2.7179 C   0  0  0  0  0  0  0  0  0  0  0  0
    2.0855    0.6462    3.4130 C   0  0  0  0  0  0  0  0  0  0  0  0
    1.0763   -0.4873    3.1935 C   0  0  0  0  0  0  0  0  0  0  0  0
    1.6345   -1.8643    3.5664 C   0  0  0  0  0  0  0  0  0  0  0  0
    0.6393   -3.0283    3.4307 C   0  0  0  0  0  0  0  0  0  0  0  0
   -0.0807   -3.1047    2.0754 C   0  0  0  0  0  0  0  0  0  0  0  0
    0.8585   -3.1232    0.8686 C   0  0  0  0  0  0  0  0  0  0  0  0
    0.1471   -3.1150   -0.4919 C   0  0  0  0  0  0  0  0  0  0  0  0
   -3.2448   -1.4928   -0.5041 C   0  0  0  0  0  0  0  0  0  0  0  0
   -3.1851   -0.0540   -0.6119 C   0  0  2  0  0  3  0  0  0  0  0  0
   -4.4015    0.6733   -0.5593 C   0  0  0  0  0  0  0  0  0  0  0  0
   -5.6362    0.0316   -0.4156 C   0  0  0  0  0  0  0  0  0  0  0  0
   -5.7040   -1.3871   -0.3157 C   0  0  0  0  0  0  0  0  0  0  0  0
   -4.5189   -2.1084   -0.3611 C   0  0  0  0  0  0  0  0  0  0  0  0
   -2.0950   -2.3442   -0.5101 C   0  0  0  0  0  0  0  0  0  0  0  0
   -8.0083    0.2549   -0.2364 C   0  0  0  0  0  0  0  0  0  0  0  0
    3.9303   -1.9254   -0.9042 H   0  0  0  0  0  0  0  0  0  0  0  0
    6.2595    1.6931   -1.5828 H   0  0  0  0  0  0  0  0  0  0  0  0
    4.1236    3.0102   -1.6703 H   0  0  0  0  0  0  0  0  0  0  0  0
    1.8703    3.2156   -1.5591 H   0  0  0  0  0  0  0  0  0  0  0  0
    5.9304   -2.7748   -1.7635 H   0  0  0  0  0  0  0  0  0  0  0  0
    6.0112   -2.4805    0.0179 H   0  0  0  0  0  0  0  0  0  0  0  0
    7.5293   -2.5110   -0.9632 H   0  0  0  0  0  0  0  0  0  0  0  0
   -1.4869    2.5825   -1.6463 H   0  0  0  0  0  0  0  0  0  0  0  0
   -0.1549    3.7933   -1.6673 H   0  0  0  0  0  0  0  0  0  0  0  0
   -1.8581    3.8940    0.3150 H   0  0  0  0  0  0  0  0  0  0  0  0
   -1.1685    2.3571    0.8546 H   0  0  0  0  0  0  0  0  0  0  0  0
    0.1601    5.1361    0.7393 H   0  0  0  0  0  0  0  0  0  0  0  0
    1.1812    3.6938    0.7229 H   0  0  0  0  0  0  0  0  0  0  0  0
   -0.8661    4.3435    2.9356 H   0  0  0  0  0  0  0  0  0  0  0  0
    0.8764    4.6778    3.0102 H   0  0  0  0  0  0  0  0  0  0  0  0
    0.3412    2.6242    4.2618 H   0  0  0  0  0  0  0  0  0  0  0  0
   -0.4474    1.8905    2.8564 H   0  0  0  0  0  0  0  0  0  0  0  0
    2.5292    2.7049    2.8904 H   0  0  0  0  0  0  0  0  0  0  0  0
    1.7034    1.7779    1.6213 H   0  0  0  0  0  0  0  0  0  0  0  0
    3.0770    0.3162    3.0308 H   0  0  0  0  0  0  0  0  0  0  0  0
    2.2241    0.8172    4.5051 H   0  0  0  0  0  0  0  0  0  0  0  0
    0.1461   -0.2930    3.7725 H   0  0  0  0  0  0  0  0  0  0  0  0
    0.7681   -0.4822    2.1233 H   0  0  0  0  0  0  0  0  0  0  0  0
    2.0142   -1.8380    4.6118 H   0  0  0  0  0  0  0  0  0  0  0  0
    2.5302   -2.0621    2.9360 H   0  0  0  0  0  0  0  0  0  0  0  0
   -0.1294   -2.9479    4.2305 H   0  0  0  0  0  0  0  0  0  0  0  0
    1.1775   -3.9830    3.6225 H   0  0  0  0  0  0  0  0  0  0  0  0
   -0.7624   -2.2328    1.9811 H   0  0  0  0  0  0  0  0  0  0  0  0
   -0.7390   -4.0023    2.0594 H   0  0  0  0  0  0  0  0  0  0  0  0
    1.5130   -4.0225    0.9004 H   0  0  0  0  0  0  0  0  0  0  0  0
    1.5321   -2.2450    0.8947 H   0  0  0  0  0  0  0  0  0  0  0  0
    0.9007   -3.0019   -1.2937 H   0  0  0  0  0  0  0  0  0  0  0  0
   -0.3925   -4.0743   -0.6492 H   0  0  0  0  0  0  0  0  0  0  0  0
   -4.3679    1.7683   -0.6353 H   0  0  0  0  0  0  0  0  0  0  0  0
   -6.6614   -1.9098   -0.2024 H   0  0  0  0  0  0  0  0  0  0  0  0
   -4.5564   -3.2066   -0.2793 H   0  0  0  0  0  0  0  0  0  0  0  0
   -2.3131   -3.4246   -0.3978 H   0  0  0  0  0  0  0  0  0  0  0  0
   -8.1037   -0.3095    0.7180 H   0  0  0  0  0  0  0  0  0  0  0  0
   -8.2507   -0.4281   -1.0809 H   0  0  0  0  0  0  0  0  0  0  0  0
   -8.7336    1.0896   -0.2321 H   0  0  0  0  0  0  0  0  0  0  0  0
  3 14  1  0  0  0  0
  4 35  1  0  0  0  0
  5 15  1  0  0  0  0
  6 34  1  0  0  0  0
  6 27  1  0  0  0  0
  7  8  1  0  0  0  0
  8  9  2  0  0  0  0
  8  1  1  0  0  0  0
  9 36  1  0  0  0  0
 10  3  1  0  0  0  0
 10  9  1  0  0  0  0
 11 10  2  0  0  0  0
 12 11  1  0  0  0  0
 12  7  1  0  0  0  0
 13  7  2  0  0  0  0
 13  5  1  0  0  0  0
 14 42  1  0  0  0  0
 14 41  1  0  0  0  0
 15 16  1  0  0  0  0
 16 46  1  0  0  0  0
 16 17  1  0  0  0  0
 17 18  1  0  0  0  0
 18 49  1  0  0  0  0
 18 50  1  0  0  0  0
 18 19  1  0  0  0  0
 19 51  1  0  0  0  0
 20 53  1  0  0  0  0
 20 19  1  0  0  0  0
 20 21  1  0  0  0  0
 21 56  1  0  0  0  0
 22 21  1  0  0  0  0
 22 23  1  0  0  0  0
 22 57  1  0  0  0  0
 23 59  1  0  0  0  0
 24 23  1  0  0  0  0
 24 62  1  0  0  0  0
 24 61  1  0  0  0  0
 25 24  1  0  0  0  0
 26 66  1  0  0  0  0
 26 65  1  0  0  0  0
 26 25  1  0  0  0  0
 27 26  1  0  0  0  0
 28 33  1  0  0  0  0
 29  2  1  6  0  0  0
 29 30  1  0  0  0  0
 29 28  1  0  0  0  0
 30 31  2  0  0  0  0
 31  4  1  0  0  0  0
 31 32  1  0  0  0  0
 32 70  1  0  0  0  0
 33 32  2  0  0  0  0
 33 71  1  0  0  0  0
 34 28  2  0  0  0  0
 34 72  1  0  0  0  0
 35 75  1  0  0  0  0
 35 73  1  0  0  0  0
 37 11  1  0  0  0  0
 38 12  1  0  0  0  0
 39 13  1  0  0  0  0
 40 14  1  0  0  0  0
 43 15  1  0  0  0  0
 44 15  1  0  0  0  0
 45 16  1  0  0  0  0
 47 17  1  0  0  0  0
 48 17  1  0  0  0  0
 52 19  1  0  0  0  0
 54 20  1  0  0  0  0
 55 21  1  0  0  0  0
 58 22  1  0  0  0  0
 60 23  1  0  0  0  0
 63 25  1  0  0  0  0
 64 25  1  0  0  0  0
 67 27  1  0  0  0  0
 68 27  1  0  0  0  0
 69 30  1  0  0  0  0
 74 35  1  0  0  0  0
M  CHG  1   1  -1
M  END
