1,2,9,10
q = -2.0, confidence = 0.834

 70 71  0  0  1  0  0  0  0  0999 V2000
    2.1653   -0.3919   -0.9814 O   0  0  0  0  0  1  0  0  0  0  0  0
   -1.7208    0.6673   -1.1810 O   0  0  0  0  0  1  0  0  0  0  0  0
   -0.3038    3.3218    1.6004 O   0  0  0  0  0  0  0  0  0  0  0  0
   -1.2260    0.8869    2.7901 O   0  0  0  0  0  0  0  0  0  0  0  0
   -0.6822   -1.9611    3.3643 O   0  0  0  0  0  0  0  0  0  0  0  0
    0.4007   -3.6468    0.9842 O   0  0  0  0  0  0  0  0  0  0  0  0
    6.8273   -0.0467   -0.0556 O   0  0  0  0  0  0  0  0  0  0  0  0
   -6.4479    0.2162   -0.7950 O   0  0  0  0  0  0  0  0  0  0  0  0
    0.6500    2.1049   -0.7796 N   0  0  0  0  0  2  0  0  0  0  0  0
   -0.2149   -1.8432   -1.2266 N   0  0  0  0  0  2  0  0  0  0  0  0
    3.0680    1.7850   -0.3705 C   0  0  0  0  0  0  0  0  0  0  0  0
    3.1713    0.3750   -0.6403 C   0  0  2  0  0  3  0  0  0  0  0  0
    4.4492   -0.2487   -0.5402 C   0  0  0  0  0  0  0  0  0  0  0  0
    5.5830    0.4834   -0.1767 C   0  0  0  0  0  0  0  0  0  0  0  0
    5.4858    1.8774    0.0979 C   0  0  0  0  0  0  0  0  0  0  0  0
    4.2526    2.4926   -0.0058 C   0  0  0  0  0  0  0  0  0  0  0  0
    1.8527    2.5316   -0.4696 C   0  0  0  0  0  0  0  0  0  0  0  0
   -0.4175    3.1109   -0.7739 C   0  0  0  0  0  0  0  0  0  0  0  0
   -1.2027    3.1121    0.5342 C   0  0  0  0  0  0  0  0  0  0  0  0
   -0.8604    3.2570    2.8983 C   0  0  0  0  0  0  0  0  0  0  0  0
   -1.8311    2.1044    3.1428 C   0  0  0  0  0  0  0  0  0  0  0  0
   -2.1446   -0.1847    2.6702 C   0  0  0  0  0  0  0  0  0  0  0  0
   -1.3954   -1.4326    2.2543 C   0  0  0  0  0  0  0  0  0  0  0  0
    0.6398   -2.3733    3.1087 C   0  0  0  0  0  0  0  0  0  0  0  0
    0.7537   -3.7052    2.3597 C   0  0  0  0  0  0  0  0  0  0  0  0
    1.4137   -3.0900    0.1692 C   0  0  0  0  0  0  0  0  0  0  0  0
    0.8628   -2.8382   -1.2294 C   0  0  0  0  0  0  0  0  0  0  0  0
   -2.6680   -1.5750   -1.1036 C   0  0  0  0  0  0  0  0  0  0  0  0
   -2.7499   -0.1368   -1.1006 C   0  0  1  0  0  3  0  0  0  0  0  0
   -4.0356    0.4735   -1.0032 C   0  0  0  0  0  0  0  0  0  0  0  0
   -5.1966   -0.2985   -0.9028 C   0  0  0  0  0  0  0  0  0  0  0  0
   -5.1208   -1.7209   -0.9047 C   0  0  0  0  0  0  0  0  0  0  0  0
   -3.8807   -2.3221   -1.0089 C   0  0  0  0  0  0  0  0  0  0  0  0
   -1.4427   -2.3080   -1.1940 C   0  0  0  0  0  0  0  0  0  0  0  0
    7.0007   -1.4269   -0.3178 C   0  0  0  0  0  0  0  0  0  0  0  0
   -6.5988    1.6239   -0.7789 C   0  0  0  0  0  0  0  0  0  0  0  0
    4.4905   -1.3228   -0.7595 H   0  0  0  0  0  0  0  0  0  0  0  0
    6.3942    2.4253    0.3816 H   0  0  0  0  0  0  0  0  0  0  0  0
    4.1665    3.5713    0.2002 H   0  0  0  0  0  0  0  0  0  0  0  0
    1.9467    3.6140   -0.2601 H   0  0  0  0  0  0  0  0  0  0  0  0
   -1.1229    2.8957   -1.5976 H   0  0  0  0  0  0  0  0  0  0  0  0
    0.0349    4.1110   -0.9409 H   0  0  0  0  0  0  0  0  0  0  0  0
   -1.9804    3.9176    0.4775 H   0  0  0  0  0  0  0  0  0  0  0  0
   -1.7204    2.1354    0.6236 H   0  0  0  0  0  0  0  0  0  0  0  0
   -1.4012    4.2042    3.1576 H   0  0  0  0  0  0  0  0  0  0  0  0
    0.0051    3.1647    3.5861 H   0  0  0  0  0  0  0  0  0  0  0  0
   -2.1356    2.1272    4.2210 H   0  0  0  0  0  0  0  0  0  0  0  0
   -2.7718    2.2588    2.5553 H   0  0  0  0  0  0  0  0  0  0  0  0
   -2.9219    0.0505    1.8997 H   0  0  0  0  0  0  0  0  0  0  0  0
   -2.6728   -0.3714    3.6379 H   0  0  0  0  0  0  0  0  0  0  0  0
   -2.1188   -2.1812    1.8569 H   0  0  0  0  0  0  0  0  0  0  0  0
   -0.7108   -1.1636    1.4189 H   0  0  0  0  0  0  0  0  0  0  0  0
    1.1214   -2.5018    4.1024 H   0  0  0  0  0  0  0  0  0  0  0  0
    1.2094   -1.5753    2.5721 H   0  0  0  0  0  0  0  0  0  0  0  0
    1.7925   -4.1047    2.4790 H   0  0  0  0  0  0  0  0  0  0  0  0
    0.0568   -4.4306    2.8294 H   0  0  0  0  0  0  0  0  0  0  0  0
    2.2857   -3.7889    0.0892 H   0  0  0  0  0  0  0  0  0  0  0  0
    1.7962   -2.1292    0.5760 H   0  0  0  0  0  0  0  0  0  0  0  0
    1.6899   -2.4721   -1.8643 H   0  0  0  0  0  0  0  0  0  0  0  0
    0.4766   -3.7905   -1.6501 H   0  0  0  0  0  0  0  0  0  0  0  0
   -4.0596    1.5702   -1.0094 H   0  0  0  0  0  0  0  0  0  0  0  0
   -6.0501   -2.3004   -0.8249 H   0  0  0  0  0  0  0  0  0  0  0  0
   -3.8109   -3.4215   -1.0130 H   0  0  0  0  0  0  0  0  0  0  0  0
   -1.5505   -3.4090   -1.2186 H   0  0  0  0  0  0  0  0  0  0  0  0
    8.0741   -1.6430   -0.1638 H   0  0  0  0  0  0  0  0  0  0  0  0
    6.7233   -1.6862   -1.3639 H   0  0  0  0  0  0  0  0  0  0  0  0
    6.3995   -2.0573    0.3750 H   0  0  0  0  0  0  0  0  0  0  0  0
   -6.2249    2.0897   -1.7177 H   0  0  0  0  0  0  0  0  0  0  0  0
   -6.0659    2.0850    0.0827 H   0  0  0  0  0  0  0  0  0  0  0  0
   -7.6823    1.8221   -0.6827 H   0  0  0  0  0  0  0  0  0  0  0  0
  3 20  1  0  0  0  0
  4 21  1  0  0  0  0
  6 25  1  0  0  0  0
  8 36  1  0  0  0  0
  9 18  1  0  0  0  0
  9 17  1  0  0  0  0
 10 34  1  0  0  0  0
 11 16  1  0  0  0  0
 12  1  1  6  0  0  0
 12 13  1  0  0  0  0
 12 11  1  0  0  0  0
 13 14  2  0  0  0  0
 14  7  1  0  0  0  0
 14 15  1  0  0  0  0
 15 38  1  0  0  0  0
 16 15  2  0  0  0  0
 16 39  1  0  0  0  0
 17 11  2  0  0  0  0
 17 40  1  0  0  0  0
 18 19  1  0  0  0  0
 19 44  1  0  0  0  0
 19  3  1  0  0  0  0
 20 21  1  0  0  0  0
 20 45  1  0  0  0  0
 20 46  1  0  0  0  0
 21 47  1  0  0  0  0
 22  4  1  0  0  0  0
 22 50  1  0  0  0  0
 23 22  1  0  0  0  0
 23  5  1  0  0  0  0
 24  5  1  0  0  0  0
 24 53  1  0  0  0  0
 25 55  1  0  0  0  0
 25 56  1  0  0  0  0
 25 24  1  0  0  0  0
 26 58  1  0  0  0  0
 26  6  1  0  0  0  0
 27 10  1  0  0  0  0
 27 26  1  0  0  0  0
 28 29  1  0  0  0  0
 28 33  1  0  0  0  0
 29  2  1  1  0  0  0
 29 30  1  0  0  0  0
 30 31  2  0  0  0  0
 31  8  1  0  0  0  0
 32 31  1  0  0  0  0
 32 62  1  0  0  0  0
 33 32  2  0  0  0  0
 34 28  2  0  0  0  0
 35 65  1  0  0  0  0
 35  7  1  0  0  0  0
 35 67  1  0  0  0  0
 36 70  1  0  0  0  0
 36 69  1  0  0  0  0
 37 13  1  0  0  0  0
 41 18  1  0  0  0  0
 42 18  1  0  0  0  0
 43 19  1  0  0  0  0
 48 21  1  0  0  0  0
 49 22  1  0  0  0  0
 51 23  1  0  0  0  0
 52 23  1  0  0  0  0
 54 24  1  0  0  0  0
 57 26  1  0  0  0  0
 59 27  1  0  0  0  0
 60 27  1  0  0  0  0
 61 30  1  0  0  0  0
 63 33  1  0  0  0  0
 64 34  1  0  0  0  0
 66 35  1  0  0  0  0
 68 36  1  0  0  0  0
M  END
