1,2,5,6
q = -2.0, confidence = 0.828

 72 73  0  0  1  0  0  0  0  0999 V2000
   -1.4633   -1.3337    1.1237 O   0  5  0  0  0  0  0  0  0  0  0  0
    1.2533   -0.2818   -1.6563 O   0  0  0  0  0  1  0  0  0  0  0  0
   -5.5107   -0.4225   -1.2906 O   0  0  0  0  0  0  0  0  0  0  0  0
    5.2550   -1.8050    0.5113 O   0  0  0  0  0  0  0  0  0  0  0  0
   -1.5448   -0.1166   -1.5260 N   0  0  0  0  0  2  0  0  0  0  0  0
    1.3407   -1.3110    1.0688 N   0  0  0  0  0  2  0  0  0  0  0  0
   -3.4728   -0.8423   -0.1559 C   0  0  0  0  0  0  0  0  0  0  0  0
   -2.7654   -1.3373    0.9965 C   0  0  0  0  0  0  0  0  0  0  0  0
   -3.5184   -1.8622    2.0902 C   0  0  0  0  0  0  0  0  0  0  0  0
   -4.9036   -1.9012    2.0396 C   0  0  0  0  0  0  0  0  0  0  0  0
   -5.6239   -1.4273    0.9187 C   0  0  0  0  0  0  0  0  0  0  0  0
   -4.9134   -0.9051   -0.1644 C   0  0  1  0  0  3  0  0  0  0  0  0
   -2.8295   -0.2515   -1.2906 C   0  0  0  0  0  0  0  0  0  0  0  0
   -6.9229   -0.4293   -1.3696 C   0  0  0  0  0  0  0  0  0  0  0  0
   -1.1642    0.6274   -2.7362 C   0  0  0  0  0  0  0  0  0  0  0  0
   -0.5950    2.0177   -2.4243 C   0  0  0  0  0  0  0  0  0  0  0  0
   -1.5177    2.9235   -1.6078 C   0  0  0  0  0  0  0  0  0  0  0  0
   -0.9281    4.3177   -1.3398 C   0  0  0  0  0  0  0  0  0  0  0  0
    0.3878    4.3403   -0.5458 C   0  0  0  0  0  0  0  0  0  0  0  0
    0.2865    3.8062    0.8869 C   0  0  0  0  0  0  0  0  0  0  0  0
    1.6256    3.8338    1.6339 C   0  0  0  0  0  0  0  0  0  0  0  0
    1.5332    3.5532    3.1435 C   0  0  0  0  0  0  0  0  0  0  0  0
    0.7990    2.2616    3.5303 C   0  0  0  0  0  0  0  0  0  0  0  0
    1.4003    0.9821    2.9426 C   0  0  0  0  0  0  0  0  0  0  0  0
    0.5134   -0.2419    3.1721 C   0  0  0  0  0  0  0  0  0  0  0  0
    0.9936   -1.5283    2.4815 C   0  0  0  0  0  0  0  0  0  0  0  0
    3.2417   -1.0647   -0.4950 C   0  0  0  0  0  0  0  0  0  0  0  0
    2.5406   -0.5137   -1.6255 C   0  0  2  0  0  3  0  0  0  0  0  0
    3.2853   -0.1754   -2.7956 C   0  0  0  0  0  0  0  0  0  0  0  0
    4.6549   -0.3875   -2.8467 C   0  0  0  0  0  0  0  0  0  0  0  0
    5.3670   -0.9375   -1.7558 C   0  0  0  0  0  0  0  0  0  0  0  0
    4.6649   -1.2714   -0.5954 C   0  0  0  0  0  0  0  0  0  0  0  0
    2.6146   -1.3667    0.7566 C   0  0  0  0  0  0  0  0  0  0  0  0
    6.6546   -2.0098    0.5054 C   0  0  0  0  0  0  0  0  0  0  0  0
   -2.9592   -2.2331    2.9602 H   0  0  0  0  0  0  0  0  0  0  0  0
   -5.4635   -2.3142    2.8933 H   0  0  0  0  0  0  0  0  0  0  0  0
   -6.7191   -1.4768    0.9117 H   0  0  0  0  0  0  0  0  0  0  0  0
   -3.5152    0.1480   -2.0583 H   0  0  0  0  0  0  0  0  0  0  0  0
   -7.3843    0.1834   -0.5633 H   0  0  0  0  0  0  0  0  0  0  0  0
   -7.3339   -1.4617   -1.3123 H   0  0  0  0  0  0  0  0  0  0  0  0
   -7.1828    0.0088   -2.3510 H   0  0  0  0  0  0  0  0  0  0  0  0
   -2.0634    0.7162   -3.3838 H   0  0  0  0  0  0  0  0  0  0  0  0
   -0.3977    0.0392   -3.2753 H   0  0  0  0  0  0  0  0  0  0  0  0
   -0.3523    2.5018   -3.3967 H   0  0  0  0  0  0  0  0  0  0  0  0
    0.3703    1.8754   -1.9005 H   0  0  0  0  0  0  0  0  0  0  0  0
   -2.4919    3.0385   -2.1339 H   0  0  0  0  0  0  0  0  0  0  0  0
   -1.7564    2.4254   -0.6434 H   0  0  0  0  0  0  0  0  0  0  0  0
   -0.7653    4.8310   -2.3136 H   0  0  0  0  0  0  0  0  0  0  0  0
   -1.6842    4.9286   -0.7985 H   0  0  0  0  0  0  0  0  0  0  0  0
    0.7626    5.3872   -0.5114 H   0  0  0  0  0  0  0  0  0  0  0  0
    1.1697    3.7676   -1.0921 H   0  0  0  0  0  0  0  0  0  0  0  0
   -0.4679    4.4051    1.4476 H   0  0  0  0  0  0  0  0  0  0  0  0
   -0.1044    2.7651    0.8689 H   0  0  0  0  0  0  0  0  0  0  0  0
    2.3184    3.1088    1.1515 H   0  0  0  0  0  0  0  0  0  0  0  0
    2.1005    4.8299    1.4921 H   0  0  0  0  0  0  0  0  0  0  0  0
    1.0189    4.4087    3.6351 H   0  0  0  0  0  0  0  0  0  0  0  0
    2.5616    3.5352    3.5676 H   0  0  0  0  0  0  0  0  0  0  0  0
    0.7593    2.1817    4.6390 H   0  0  0  0  0  0  0  0  0  0  0  0
   -0.2621    2.3316    3.2031 H   0  0  0  0  0  0  0  0  0  0  0  0
    2.4230    0.8145    3.3519 H   0  0  0  0  0  0  0  0  0  0  0  0
    1.5299    1.1135    1.8475 H   0  0  0  0  0  0  0  0  0  0  0  0
    0.4169   -0.4586    4.2588 H   0  0  0  0  0  0  0  0  0  0  0  0
   -0.5088   -0.0195    2.8056 H   0  0  0  0  0  0  0  0  0  0  0  0
    1.8917   -1.9328    2.9961 H   0  0  0  0  0  0  0  0  0  0  0  0
    0.1876   -2.2853    2.5309 H   0  0  0  0  0  0  0  0  0  0  0  0
    2.7322    0.2490   -3.6448 H   0  0  0  0  0  0  0  0  0  0  0  0
    5.2080   -0.1248   -3.7620 H   0  0  0  0  0  0  0  0  0  0  0  0
    6.4489   -1.0968   -1.8336 H   0  0  0  0  0  0  0  0  0  0  0  0
    3.3068   -1.6671    1.5629 H   0  0  0  0  0  0  0  0  0  0  0  0
    6.9125   -2.4323    1.4941 H   0  0  0  0  0  0  0  0  0  0  0  0
    7.2107   -1.0571    0.3594 H   0  0  0  0  0  0  0  0  0  0  0  0
    6.9622   -2.7273   -0.2875 H   0  0  0  0  0  0  0  0  0  0  0  0
  5 13  1  0  0  0  0
  6 26  1  0  0  0  0
  7  8  1  0  0  0  0
  8  1  1  0  0  0  0
  8  9  2  0  0  0  0
  9 35  1  0  0  0  0
 10  9  1  0  0  0  0
 10 36  1  0  0  0  0
 11 10  2  0  0  0  0
 12  3  1  1  0  0  0
 12  7  1  0  0  0  0
 12 11  1  0  0  0  0
 13  7  2  0  0  0  0
 14 40  1  0  0  0  0
 14  3  1  0  0  0  0
 14 39  1  0  0  0  0
 15 16  1  0  0  0  0
 15  5  1  0  0  0  0
 16 45  1  0  0  0  0
 16 17  1  0  0  0  0
 17 18  1  0  0  0  0
 17 47  1  0  0  0  0
 18 49  1  0  0  0  0
 18 19  1  0  0  0  0
 19 50  1  0  0  0  0
 19 20  1  0  0  0  0
 20 52  1  0  0  0  0
 20 21  1  0  0  0  0
 21 22  1  0  0  0  0
 22 23  1  0  0  0  0
 22 57  1  0  0  0  0
 22 56  1  0  0  0  0
 23 58  1  0  0  0  0
 24 25  1  0  0  0  0
 24 60  1  0  0  0  0
 24 23  1  0  0  0  0
 25 62  1  0  0  0  0
 26 65  1  0  0  0  0
 26 64  1  0  0  0  0
 26 25  1  0  0  0  0
 27 33  2  0  0  0  0
 28  2  1  1  0  0  0
 28 27  1  0  0  0  0
 29 28  1  0  0  0  0
 30 29  2  0  0  0  0
 30 31  1  0  0  0  0
 31 32  2  0  0  0  0
 32 27  1  0  0  0  0
 32  4  1  0  0  0  0
 33  6  1  0  0  0  0
 33 69  1  0  0  0  0
 34  4  1  0  0  0  0
 34 70  1  0  0  0  0
 37 11  1  0  0  0  0
 38 13  1  0  0  0  0
 41 14  1  0  0  0  0
 42 15  1  0  0  0  0
 43 15  1  0  0  0  0
 44 16  1  0  0  0  0
 46 17  1  0  0  0  0
 48 18  1  0  0  0  0
 51 19  1  0  0  0  0
 53 20  1  0  0  0  0
 54 21  1  0  0  0  0
 55 21  1  0  0  0  0
 59 23  1  0  0  0  0
 61 24  1  0  0  0  0
 63 25  1  0  0  0  0
 66 29  1  0  0  0  0
 67 30  1  0  0  0  0
 68 31  1  0  0  0  0
 71 34  1  0  0  0  0
 72 34  1  0  0  0  0
M  CHG  1   1  -1
M  END
