1,2,7,10
q = -2.0, confidence = 0.818

 40 41  0  0  0  0  0  0  0  0999 V2000
   -1.7046   -1.4640   -1.2631 N   0  0  0  0  0  2  0  0  0  0  0  0
    1.2343   -0.9583   -1.7481 N   0  0  0  0  0  2  0  0  0  0  0  0
   -6.0595    2.6781   -0.0538 N   0  0  0  0  0  0  0  0  0  0  0  0
    5.9035    2.7948   -0.4171 N   0  0  0  0  0  0  0  0  0  0  0  0
   -1.7940   -2.5969   -2.0707 O   0  0  0  0  0  0  0  0  0  0  0  0
    0.6837   -1.2317   -3.0117 O   0  0  0  0  0  0  0  0  0  0  0  0
   -0.9158    0.5621    0.6330 O   0  5  0  0  0  0  0  0  0  0  0  0
   -6.8325    2.1094   -0.8324 O   0  0  0  0  0  0  0  0  0  0  0  0
   -6.3385    3.6887    0.5994 O   0  0  0  0  0  0  0  0  0  0  0  0
    1.7071   -0.6371    1.0114 O   0  5  0  0  0  0  0  0  0  0  0  0
    6.1166    2.9898   -1.6175 O   0  0  0  0  0  0  0  0  0  0  0  0
    6.5555    3.2941    0.5047 O   0  0  0  0  0  0  0  0  0  0  0  0
    0.3986   -2.6178   -3.1926 C   0  0  0  0  0  0  0  0  0  0  0  0
    1.3427   -3.2128   -3.2284 H   0  0  0  0  0  0  0  0  0  0  0  0
   -0.0713   -2.6464   -4.1956 H   0  0  0  0  0  0  0  0  0  0  0  0
   -0.5358   -3.2523   -2.1660 C   0  0  0  0  0  0  0  0  0  0  0  0
   -0.7693   -4.2814   -2.5075 H   0  0  0  0  0  0  0  0  0  0  0  0
   -0.0756   -3.3413   -1.1572 H   0  0  0  0  0  0  0  0  0  0  0  0
   -2.8189   -0.7905   -1.2420 C   0  0  0  0  0  3  0  0  0  0  0  0
   -3.6423   -1.1737   -1.8755 H   0  0  0  0  0  0  0  0  0  0  0  0
   -3.0784    0.4014   -0.4667 C   0  0  0  0  0  0  0  0  0  0  0  0
   -2.1117    1.0126    0.4348 C   0  0  0  0  0  0  0  0  0  0  0  0
   -2.5339    2.1900    1.1412 C   0  0  0  0  0  0  0  0  0  0  0  0
   -1.7939    2.6487    1.8129 H   0  0  0  0  0  0  0  0  0  0  0  0
   -3.7989    2.7329    0.9893 C   0  0  0  0  0  0  0  0  0  0  0  0
   -4.1175    3.6342    1.5306 H   0  0  0  0  0  0  0  0  0  0  0  0
   -4.7166    2.1151    0.1097 C   0  0  0  0  0  0  0  0  0  0  0  0
   -4.3630    0.9730   -0.6041 C   0  0  0  0  0  0  0  0  0  0  0  0
   -5.1104    0.5277   -1.2765 H   0  0  0  0  0  0  0  0  0  0  0  0
    2.2460   -0.1352   -1.8432 C   0  0  0  0  0  3  0  0  0  0  0  0
    2.5652    0.1377   -2.8681 H   0  0  0  0  0  0  0  0  0  0  0  0
    2.9676    0.4476   -0.7410 C   0  0  0  0  0  0  0  0  0  0  0  0
    2.6540    0.1669    0.6522 C   0  0  0  0  0  0  0  0  0  0  0  0
    3.4715    0.8064    1.6448 C   0  0  0  0  0  0  0  0  0  0  0  0
    3.2318    0.6016    2.6985 H   0  0  0  0  0  0  0  0  0  0  0  0
    4.5158    1.6504    1.3070 C   0  0  0  0  0  0  0  0  0  0  0  0
    5.1409    2.1397    2.0665 H   0  0  0  0  0  0  0  0  0  0  0  0
    4.7957    1.9028   -0.0562 C   0  0  0  0  0  0  0  0  0  0  0  0
    4.0363    1.3153   -1.0625 C   0  0  0  0  0  0  0  0  0  0  0  0
    4.2906    1.5387   -2.1086 H   0  0  0  0  0  0  0  0  0  0  0  0
  1 19  1  0  0  0  0
  3 27  1  0  0  0  0
  3  9  2  0  0  0  0
  4 38  1  0  0  0  0
  4 12  2  0  0  0  0
  5  1  1  0  0  0  0
  6  2  1  0  0  0  0
  8  3  2  0  0  0  0
 11  4  2  0  0  0  0
 13  6  1  0  0  0  0
 13 16  1  0  0  0  0
 14 13  1  0  0  0  0
 15 13  1  0  0  0  0
 16  5  1  0  0  0  0
 16 18  1  0  0  0  0
 17 16  1  0  0  0  0
 19 21  1  0  0  0  0
 20 19  1  0  0  0  0
 21 22  1  0  0  0  0
 22  7  1  0  0  0  0
 22 23  2  0  0  0  0
 23 24  1  0  0  0  0
 25 23  1  0  0  0  0
 25 26  1  0  0  0  0
 27 25  2  0  0  0  0
 28 21  2  0  0  0  0
 28 27  1  0  0  0  0
 29 28  1  0  0  0  0
 30  2  1  0  0  0  0
 30 32  1  0  0  0  0
 31 30  1  0  0  0  0
 32 33  1  0  0  0  0
 33 10  1  0  0  0  0
 33 34  2  0  0  0  0
 34 35  1  0  0  0  0
 36 34  1  0  0  0  0
 36 37  1  0  0  0  0
 38 36  2  0  0  0  0
 39 32  2  0  0  0  0
 39 38  1  0  0  0  0
 40 39  1  0  0  0  0
M  CHG  2   7  -1  10  -1
M  END
