7,8,9,10
q = -2.0, confidence = 0.858

 34 33  0  0  1  0  0  0  0  0999 V2000
    3.7601    1.8792    1.4646 F   0  0  0  0  0  0  0  0  0  0  0  0
    3.0783    2.8130   -0.3837 F   0  0  0  0  0  0  0  0  0  0  0  0
    4.7671    1.4268   -0.4208 F   0  0  0  0  0  0  0  0  0  0  0  0
   -2.4253    3.3012    0.3756 F   0  0  0  0  0  0  0  0  0  0  0  0
   -4.2501    2.4779   -0.4945 F   0  0  0  0  0  0  0  0  0  0  0  0
   -2.4813    2.7808   -1.7420 F   0  0  0  0  0  0  0  0  0  0  0  0
    1.4233    0.6972    0.4296 O   0  5  0  0  0  0  0  0  0  0  0  0
   -1.0914    0.9343   -0.1512 O   0  5  0  0  0  0  0  0  0  0  0  0
    0.8641   -1.8133   -0.5871 N   0  0  0  0  0  2  0  0  0  0  0  0
   -1.5655   -1.6893    0.1484 N   0  0  0  0  0  2  0  0  0  0  0  0
    2.1437   -1.7271   -1.0544 C   0  0  1  0  0  3  0  0  0  0  0  0
    2.9783   -0.6232   -0.8018 C   0  0  0  0  0  0  0  0  0  0  0  0
    3.9986   -0.6485   -1.2020 H   0  0  0  0  0  0  0  0  0  0  0  0
    2.5833    0.5131   -0.0767 C   0  0  0  0  0  0  0  0  0  0  0  0
   -2.8505   -1.4075    0.1067 C   0  0  1  0  0  3  0  0  0  0  0  0
   -3.2821   -0.0366   -0.0040 C   0  0  0  0  0  0  0  0  0  0  0  0
   -4.3559    0.1787   -0.0482 H   0  0  0  0  0  0  0  0  0  0  0  0
   -2.3963    0.9976   -0.1894 C   0  0  0  0  0  0  0  0  0  0  0  0
    0.1066   -3.0498   -0.8461 C   0  0  0  0  0  0  0  0  0  0  0  0
    0.7366   -3.9498   -0.6935 H   0  0  0  0  0  0  0  0  0  0  0  0
   -0.2415   -3.0647   -1.9046 H   0  0  0  0  0  0  0  0  0  0  0  0
   -1.0784   -3.0607    0.1074 C   0  0  0  0  0  0  0  0  0  0  0  0
   -1.8379   -3.7979   -0.2218 H   0  0  0  0  0  0  0  0  0  0  0  0
   -0.7424   -3.3302    1.1327 H   0  0  0  0  0  0  0  0  0  0  0  0
    2.7054   -2.8631   -1.8769 C   0  0  0  0  0  0  0  0  0  0  0  0
    2.7970   -3.7954   -1.2803 H   0  0  0  0  0  0  0  0  0  0  0  0
    3.7103   -2.6059   -2.2553 H   0  0  0  0  0  0  0  0  0  0  0  0
    2.0582   -3.0994   -2.7464 H   0  0  0  0  0  0  0  0  0  0  0  0
    3.5598    1.6700    0.1475 C   0  0  0  0  0  0  0  0  0  0  0  0
   -3.9121   -2.4839    0.1020 C   0  0  0  0  0  0  0  0  0  0  0  0
   -3.8952   -3.0732   -0.8392 H   0  0  0  0  0  0  0  0  0  0  0  0
   -4.9176   -2.0358    0.1950 H   0  0  0  0  0  0  0  0  0  0  0  0
   -3.7711   -3.1946    0.9408 H   0  0  0  0  0  0  0  0  0  0  0  0
   -2.8983    2.4067   -0.5128 C   0  0  0  0  0  0  0  0  0  0  0  0
  2 29  1  0  0  0  0
  3 29  1  0  0  0  0
  6 34  1  0  0  0  0
 11 12  1  1  0  0  0
 11  9  1  0  0  0  0
 12 14  2  0  0  0  0
 13 12  1  0  0  0  0
 14 29  1  0  0  0  0
 14  7  1  0  0  0  0
 15 16  1  6  0  0  0
 15 10  1  0  0  0  0
 17 16  1  0  0  0  0
 18  8  1  0  0  0  0
 18 16  2  0  0  0  0
 19 20  1  0  0  0  0
 19  9  1  0  0  0  0
 19 22  1  0  0  0  0
 21 19  1  0  0  0  0
 22 10  1  0  0  0  0
 22 24  1  0  0  0  0
 23 22  1  0  0  0  0
 25 26  1  0  0  0  0
 25 11  1  0  0  0  0
 27 25  1  0  0  0  0
 28 25  1  0  0  0  0
 29  1  1  0  0  0  0
 30 15  1  0  0  0  0
 30 32  1  0  0  0  0
 30 33  1  0  0  0  0
 31 30  1  0  0  0  0
 34  5  1  0  0  0  0
 34 18  1  0  0  0  0
 34  4  1  0  0  0  0
M  CHG  2   7  -1   8  -1
M  END
