1,2,5,6
q = -2.0, confidence = 0.838

 71 74  0  0  1  0  0  0  0  0999 V2000
   -2.0198   -2.4022    0.7972 O   0  5  0  0  0  0  0  0  0  0  0  0
   -3.5236   -0.4172    0.7548 O   0  5  0  0  0  0  0  0  0  0  0  0
    1.3655    0.6912   -5.7367 O   0  0  0  0  0  0  0  0  0  0  0  0
    5.9042    0.9045    2.7635 O   0  0  0  0  0  0  0  0  0  0  0  0
   -1.3982    1.2133    0.3658 N   0  0  0  0  0  2  0  0  0  0  0  0
    0.1344   -0.8022    0.2410 N   0  0  0  0  0  2  0  0  0  0  0  0
   -4.2531    0.6168    0.4689 C   0  0  0  0  0  0  0  0  0  0  0  0
   -5.6792    0.4864    0.5017 C   0  0  0  0  0  0  0  0  0  0  0  0
   -6.5081    1.5574    0.1947 C   0  0  0  0  0  0  0  0  0  0  0  0
   -5.9768    2.8268   -0.1543 C   0  0  0  0  0  0  0  0  0  0  0  0
   -4.5993    2.9930   -0.1816 C   0  0  0  0  0  3  0  0  0  0  0  0
   -3.7180    1.9165    0.1237 C   0  0  0  0  0  0  0  0  0  0  0  0
   -2.3091    2.1369    0.1471 C   0  0  0  0  0  0  0  0  0  0  0  0
   -1.2103   -3.3965    0.6089 C   0  0  0  0  0  0  0  0  0  0  0  0
   -1.6892   -4.7301    0.8190 C   0  0  0  0  0  0  0  0  0  0  0  0
   -0.8723   -5.8310    0.5978 C   0  0  0  0  0  0  0  0  0  0  0  0
    0.4703   -5.6791    0.1617 C   0  0  0  0  0  0  0  0  0  0  0  0
    0.9702   -4.4003   -0.0378 C   0  0  0  0  0  3  0  0  0  0  0  0
    0.1635   -3.2464    0.1834 C   0  0  0  0  0  0  0  0  0  0  0  0
    0.7331   -1.9509    0.0114 C   0  0  0  0  0  0  0  0  0  0  0  0
   -0.0057    1.6001    0.5920 C   0  0  1  0  0  0  0  0  0  0  0  0
    0.2052    1.9263    2.1054 C   0  0  0  0  0  0  0  0  0  0  0  0
   -0.2891    0.8295    3.0555 C   0  0  0  0  0  0  0  0  0  0  0  0
   -0.4335    3.2725    2.4696 C   0  0  0  0  0  0  0  0  0  0  0  0
    0.8980    0.4662   -0.0077 C   0  0  0  0  0  0  0  0  0  0  0  0
    1.0651    0.5993   -1.5388 C   0  0  0  0  0  0  0  0  0  0  0  0
    0.0498    1.1296   -2.3666 C   0  0  0  0  0  0  0  0  0  0  0  0
    0.1793    1.1529   -3.7564 C   0  0  0  0  0  0  0  0  0  0  0  0
    1.3309    0.6275   -4.3789 C   0  0  0  0  0  0  0  0  0  0  0  0
    2.3500    0.0820   -3.5733 C   0  0  0  0  0  0  0  0  0  0  0  0
    2.2058    0.0757   -2.1774 C   0  0  0  0  0  0  0  0  0  0  0  0
    2.4900    0.1527   -6.4055 C   0  0  0  0  0  0  0  0  0  0  0  0
    2.2673    0.5065    0.6881 C   0  0  0  0  0  0  0  0  0  0  0  0
    3.1521    1.5549    0.3656 C   0  0  0  0  0  0  0  0  0  0  0  0
    4.3731    1.7302    1.0322 C   0  0  0  0  0  0  0  0  0  0  0  0
    4.7446    0.8349    2.0571 C   0  0  0  0  0  0  0  0  0  0  0  0
    3.8695   -0.2187    2.3921 C   0  0  0  0  0  0  0  0  0  0  0  0
    2.6531   -0.3729    1.7215 C   0  0  0  0  0  0  0  0  0  0  0  0
    6.8096    1.9512    2.4686 C   0  0  0  0  0  0  0  0  0  0  0  0
   -6.0835   -0.4997    0.7719 H   0  0  0  0  0  0  0  0  0  0  0  0
   -7.6003    1.4165    0.2228 H   0  0  0  0  0  0  0  0  0  0  0  0
   -6.6477    3.6642   -0.3935 H   0  0  0  0  0  0  0  0  0  0  0  0
   -4.1610    3.9715   -0.4376 H   0  0  0  0  0  0  0  0  0  0  0  0
   -1.9532    3.1719   -0.0246 H   0  0  0  0  0  0  0  0  0  0  0  0
   -2.7319   -4.8398    1.1500 H   0  0  0  0  0  0  0  0  0  0  0  0
   -1.2776   -6.8422    0.7616 H   0  0  0  0  0  0  0  0  0  0  0  0
    1.1024   -6.5619   -0.0111 H   0  0  0  0  0  0  0  0  0  0  0  0
    2.0117   -4.2534   -0.3676 H   0  0  0  0  0  0  0  0  0  0  0  0
    1.7850   -1.9210   -0.3274 H   0  0  0  0  0  0  0  0  0  0  0  0
    0.2204    2.5328    0.0287 H   0  0  0  0  0  0  0  0  0  0  0  0
    1.3004    2.0383    2.2371 H   0  0  0  0  0  0  0  0  0  0  0  0
    0.1529   -0.1586    2.8318 H   0  0  0  0  0  0  0  0  0  0  0  0
   -0.0288    1.0894    4.1016 H   0  0  0  0  0  0  0  0  0  0  0  0
   -1.3909    0.7174    2.9974 H   0  0  0  0  0  0  0  0  0  0  0  0
   -1.5413    3.2340    2.4169 H   0  0  0  0  0  0  0  0  0  0  0  0
   -0.1704    3.5487    3.5105 H   0  0  0  0  0  0  0  0  0  0  0  0
   -0.0852    4.0909    1.8058 H   0  0  0  0  0  0  0  0  0  0  0  0
   -0.8764    1.5185   -1.9286 H   0  0  0  0  0  0  0  0  0  0  0  0
   -0.6151    1.5693   -4.3924 H   0  0  0  0  0  0  0  0  0  0  0  0
    3.2627   -0.3367   -4.0175 H   0  0  0  0  0  0  0  0  0  0  0  0
    3.0246   -0.3408   -1.5728 H   0  0  0  0  0  0  0  0  0  0  0  0
    2.3105    0.2968   -7.4870 H   0  0  0  0  0  0  0  0  0  0  0  0
    3.4317    0.6757   -6.1232 H   0  0  0  0  0  0  0  0  0  0  0  0
    2.6129   -0.9347   -6.2013 H   0  0  0  0  0  0  0  0  0  0  0  0
    2.8825    2.2602   -0.4349 H   0  0  0  0  0  0  0  0  0  0  0  0
    5.0266    2.5634    0.7416 H   0  0  0  0  0  0  0  0  0  0  0  0
    4.1664   -0.9102    3.1937 H   0  0  0  0  0  0  0  0  0  0  0  0
    1.9937   -1.1976    2.0237 H   0  0  0  0  0  0  0  0  0  0  0  0
    6.3568    2.9534    2.6419 H   0  0  0  0  0  0  0  0  0  0  0  0
    7.6697    1.8234    3.1515 H   0  0  0  0  0  0  0  0  0  0  0  0
    7.1730    1.9026    1.4173 H   0  0  0  0  0  0  0  0  0  0  0  0
  3 29  1  0  0  0  0
  5 21  1  0  0  0  0
  7  8  2  0  0  0  0
  7  2  1  0  0  0  0
  8 40  1  0  0  0  0
  9 41  1  0  0  0  0
  9  8  1  0  0  0  0
 10  9  2  0  0  0  0
 11 10  1  0  0  0  0
 11 12  1  0  0  0  0
 12 13  2  0  0  0  0
 12  7  1  0  0  0  0
 13  5  1  0  0  0  0
 14  1  1  0  0  0  0
 14 15  2  0  0  0  0
 15 45  1  0  0  0  0
 16 46  1  0  0  0  0
 16 15  1  0  0  0  0
 17 16  2  0  0  0  0
 18 17  1  0  0  0  0
 18 19  1  0  0  0  0
 19 14  1  0  0  0  0
 20 19  2  0  0  0  0
 20  6  1  0  0  0  0
 21 50  1  6  0  0  0
 21 22  1  0  0  0  0
 22 51  1  0  0  0  0
 22 24  1  0  0  0  0
 22 23  1  0  0  0  0
 23 53  1  0  0  0  0
 24 56  1  0  0  0  0
 25  6  1  0  0  0  0
 25 21  1  0  0  0  0
 25 33  1  0  0  0  0
 26 25  1  0  0  0  0
 27 58  1  0  0  0  0
 27 26  2  0  0  0  0
 28 27  1  0  0  0  0
 29 28  2  0  0  0  0
 29 30  1  0  0  0  0
 30 31  2  0  0  0  0
 31 61  1  0  0  0  0
 31 26  1  0  0  0  0
 32 64  1  0  0  0  0
 32 63  1  0  0  0  0
 32  3  1  0  0  0  0
 33 38  1  0  0  0  0
 34 33  2  0  0  0  0
 34 35  1  0  0  0  0
 35 36  2  0  0  0  0
 36 37  1  0  0  0  0
 36  4  1  0  0  0  0
 37 67  1  0  0  0  0
 38 68  1  0  0  0  0
 38 37  2  0  0  0  0
 39 69  1  0  0  0  0
 39  4  1  0  0  0  0
 39 70  1  0  0  0  0
 42 10  1  0  0  0  0
 43 11  1  0  0  0  0
 44 13  1  0  0  0  0
 47 17  1  0  0  0  0
 48 18  1  0  0  0  0
 49 20  1  0  0  0  0
 52 23  1  0  0  0  0
 54 23  1  0  0  0  0
 55 24  1  0  0  0  0
 57 24  1  0  0  0  0
 59 28  1  0  0  0  0
 60 30  1  0  0  0  0
 62 32  1  0  0  0  0
 65 34  1  0  0  0  0
 66 35  1  0  0  0  0
 71 39  1  0  0  0  0
M  CHG  2   1  -1   2  -1
M  END
