1,2,3,4
q = -2.0, confidence = 0.808

 41 42  0  0  1  0  0  0  0  0999 V2000
    1.9251   -1.4337   -0.0113 O   0  0  0  0  0  1  0  0  0  0  0  0
   -0.5706   -1.5310   -0.1223 O   0  5  0  0  0  0  0  0  0  0  0  0
    1.8293    1.2920    0.2166 N   0  0  0  0  0  2  0  0  0  0  0  0
   -0.6914    1.1785   -0.1026 N   0  0  0  0  0  2  0  0  0  0  0  0
    3.8865   -0.0112    0.0422 C   0  0  0  0  0  0  0  0  0  0  0  0
    3.2135   -1.2881   -0.0477 C   0  0  1  0  0  3  0  0  0  0  0  0
    4.0358   -2.4543   -0.1733 C   0  0  0  0  0  0  0  0  0  0  0  0
    5.4203   -2.3586   -0.2144 C   0  0  0  0  0  0  0  0  0  0  0  0
    6.0763   -1.1026   -0.1278 C   0  0  0  0  0  0  0  0  0  0  0  0
    5.3098    0.0466    0.0015 C   0  0  0  0  0  0  0  0  0  0  0  0
    3.1395    1.1939    0.2054 C   0  0  0  0  0  0  0  0  0  0  0  0
    1.1599    2.5783    0.5190 C   0  0  1  0  0  0  0  0  0  0  0  0
    1.9642    3.8403    0.2226 C   0  0  0  0  0  0  0  0  0  0  0  0
   -0.1552    2.5239   -0.2538 C   0  0  0  0  0  0  0  0  0  0  0  0
   -1.9973    0.9792   -0.1036 C   0  0  0  0  0  3  0  0  0  0  0  0
   -2.6375   -0.2867   -0.0580 C   0  0  0  0  0  0  0  0  0  0  0  0
   -1.8455   -1.4532   -0.0902 C   0  0  0  0  0  0  0  0  0  0  0  0
   -4.1157   -0.3825   -0.0212 C   0  0  0  0  0  0  0  0  0  0  0  0
   -4.9322    0.5180   -0.7469 C   0  0  0  0  0  0  0  0  0  0  0  0
   -6.3300    0.4251   -0.7066 C   0  0  0  0  0  0  0  0  0  0  0  0
   -6.9530   -0.5825    0.0470 C   0  0  0  0  0  0  0  0  0  0  0  0
   -6.1593   -1.4896    0.7668 C   0  0  0  0  0  0  0  0  0  0  0  0
   -4.7619   -1.3851    0.7415 C   0  0  0  0  0  0  0  0  0  0  0  0
    3.5201   -3.4231   -0.2381 H   0  0  0  0  0  0  0  0  0  0  0  0
    6.0196   -3.2774   -0.3151 H   0  0  0  0  0  0  0  0  0  0  0  0
    7.1736   -1.0443   -0.1598 H   0  0  0  0  0  0  0  0  0  0  0  0
    5.7955    1.0334    0.0761 H   0  0  0  0  0  0  0  0  0  0  0  0
    3.7300    2.1178    0.3476 H   0  0  0  0  0  0  0  0  0  0  0  0
    0.9076    2.5526    1.6046 H   0  0  0  0  0  0  0  0  0  0  0  0
   -2.6400    1.8811   -0.1299 H   0  0  0  0  0  0  0  0  0  0  0  0
   -2.3721   -2.4338   -0.1233 H   0  0  0  0  0  0  0  0  0  0  0  0
   -4.4614    1.2878   -1.3781 H   0  0  0  0  0  0  0  0  0  0  0  0
   -6.9388    1.1378   -1.2842 H   0  0  0  0  0  0  0  0  0  0  0  0
   -8.0504   -0.6595    0.0738 H   0  0  0  0  0  0  0  0  0  0  0  0
   -6.6336   -2.2788    1.3705 H   0  0  0  0  0  0  0  0  0  0  0  0
   -4.1555   -2.0771    1.3456 H   0  0  0  0  0  0  0  0  0  0  0  0
    2.8494    3.9421    0.8796 H   0  0  0  0  0  0  0  0  0  0  0  0
    2.3044    3.8611   -0.8328 H   0  0  0  0  0  0  0  0  0  0  0  0
    1.3294    4.7313    0.3973 H   0  0  0  0  0  0  0  0  0  0  0  0
    0.0491    2.7317   -1.3303 H   0  0  0  0  0  0  0  0  0  0  0  0
   -0.8707    3.2928    0.1104 H   0  0  0  0  0  0  0  0  0  0  0  0
  2 17  1  0  0  0  0
  3 12  1  0  0  0  0
  5 11  2  0  0  0  0
  6  1  1  1  0  0  0
  6  5  1  0  0  0  0
  7  6  1  0  0  0  0
  8  7  2  0  0  0  0
  8  9  1  0  0  0  0
  9 10  2  0  0  0  0
 10  5  1  0  0  0  0
 10 27  1  0  0  0  0
 11  3  1  0  0  0  0
 11 28  1  0  0  0  0
 12 29  1  1  0  0  0
 13 39  1  0  0  0  0
 13 12  1  0  0  0  0
 13 37  1  0  0  0  0
 14  4  1  0  0  0  0
 14 41  1  0  0  0  0
 14 12  1  0  0  0  0
 15  4  1  0  0  0  0
 15 16  1  0  0  0  0
 16 18  1  0  0  0  0
 17 16  2  0  0  0  0
 18 23  1  0  0  0  0
 19 20  1  0  0  0  0
 19 18  2  0  0  0  0
 20 21  2  0  0  0  0
 21 34  1  0  0  0  0
 21 22  1  0  0  0  0
 22 35  1  0  0  0  0
 23 22  2  0  0  0  0
 23 36  1  0  0  0  0
 24  7  1  0  0  0  0
 25  8  1  0  0  0  0
 26  9  1  0  0  0  0
 30 15  1  0  0  0  0
 31 17  1  0  0  0  0
 32 19  1  0  0  0  0
 33 20  1  0  0  0  0
 38 13  1  0  0  0  0
 40 14  1  0  0  0  0
M  CHG  1   2  -1
M  END
