1,2,28,29
q = -2.0, confidence = 0.868

 51 52  0  0  0  0  0  0  0  0999 V2000
   -0.9017   -2.8754   -0.0475 N   0  0  0  0  0  2  0  0  0  0  0  0
   -1.4752   -0.1792    0.6657 O   0  5  0  0  0  0  0  0  0  0  0  0
   -3.0939    1.8832    0.5420 O   0  0  0  0  0  0  0  0  0  0  0  0
   -2.8618   -1.5349   -0.7630 C   0  0  0  0  0  0  0  0  0  0  0  0
   -2.5339   -0.3221   -0.0540 C   0  0  0  0  0  0  0  0  0  0  0  0
   -3.4705    0.7829   -0.1610 C   0  0  0  0  0  0  0  0  0  0  0  0
   -4.6175    0.6748   -0.9453 C   0  0  0  0  0  0  0  0  0  0  0  0
   -5.3095    1.5242   -1.0321 H   0  0  0  0  0  0  0  0  0  0  0  0
   -4.9123   -0.5291   -1.6432 C   0  0  0  0  0  0  0  0  0  0  0  0
   -5.8264   -0.5895   -2.2514 H   0  0  0  0  0  0  0  0  0  0  0  0
   -4.0564   -1.6112   -1.5473 C   0  0  0  0  0  0  0  0  0  0  0  0
   -4.2820   -2.5526   -2.0734 H   0  0  0  0  0  0  0  0  0  0  0  0
   -2.0637   -2.7195   -0.6396 C   0  0  0  0  0  3  0  0  0  0  0  0
   -2.5195   -3.6310   -1.0926 H   0  0  0  0  0  0  0  0  0  0  0  0
   -0.4010   -4.2408    0.0708 C   0  0  0  0  0  0  0  0  0  0  0  0
   -1.0452   -4.9344   -0.5193 H   0  0  0  0  0  0  0  0  0  0  0  0
   -0.4996   -4.5558    1.1367 H   0  0  0  0  0  0  0  0  0  0  0  0
    1.0600   -4.4245   -0.3460 C   0  0  0  0  0  0  0  0  0  0  0  0
    1.2003   -4.0995   -1.3992 H   0  0  0  0  0  0  0  0  0  0  0  0
    1.2793   -5.5127   -0.3134 H   0  0  0  0  0  0  0  0  0  0  0  0
   -3.8712    3.0646    0.4223 C   0  0  0  0  0  0  0  0  0  0  0  0
   -4.9073    2.8858    0.7986 H   0  0  0  0  0  0  0  0  0  0  0  0
   -3.9618    3.3535   -0.6523 H   0  0  0  0  0  0  0  0  0  0  0  0
   -3.1822    4.1565    1.2203 C   0  0  0  0  0  0  0  0  0  0  0  0
   -3.1042    3.8701    2.2878 H   0  0  0  0  0  0  0  0  0  0  0  0
   -3.7511    5.1047    1.1515 H   0  0  0  0  0  0  0  0  0  0  0  0
   -2.1574    4.3285    0.8356 H   0  0  0  0  0  0  0  0  0  0  0  0
    2.0650   -2.2654    0.3679 N   0  0  0  0  0  2  0  0  0  0  0  0
    1.1974    0.4802    0.2259 O   0  5  0  0  0  0  0  0  0  0  0  0
    1.8036    2.9770   -0.2268 O   0  0  0  0  0  0  0  0  0  0  0  0
    3.4231   -0.3087   -0.3157 C   0  0  0  0  0  0  0  0  0  0  0  0
    2.4107    0.7059   -0.1527 C   0  0  0  0  0  0  0  0  0  0  0  0
    2.8037    2.0788   -0.4253 C   0  0  0  0  0  0  0  0  0  0  0  0
    4.0952    2.3867   -0.8493 C   0  0  0  0  0  0  0  0  0  0  0  0
    4.3742    3.4290   -1.0585 H   0  0  0  0  0  0  0  0  0  0  0  0
    5.0690    1.3644   -1.0170 C   0  0  0  0  0  0  0  0  0  0  0  0
    6.0810    1.6324   -1.3535 H   0  0  0  0  0  0  0  0  0  0  0  0
    4.7388    0.0478   -0.7527 C   0  0  0  0  0  0  0  0  0  0  0  0
    5.4873   -0.7520   -0.8717 H   0  0  0  0  0  0  0  0  0  0  0  0
    3.1714   -1.6935   -0.0408 C   0  0  0  0  0  3  0  0  0  0  0  0
    4.0506   -2.3612   -0.1989 H   0  0  0  0  0  0  0  0  0  0  0  0
    2.0810   -3.7098    0.5479 C   0  0  0  0  0  0  0  0  0  0  0  0
    3.1011   -4.1108    0.3426 H   0  0  0  0  0  0  0  0  0  0  0  0
    1.8527   -3.9440    1.6134 H   0  0  0  0  0  0  0  0  0  0  0  0
    2.0560    4.3478   -0.4901 C   0  0  0  0  0  0  0  0  0  0  0  0
    2.8929    4.7163    0.1510 H   0  0  0  0  0  0  0  0  0  0  0  0
    2.3776    4.4821   -1.5508 H   0  0  0  0  0  0  0  0  0  0  0  0
    0.7773    5.1164   -0.2091 C   0  0  0  0  0  0  0  0  0  0  0  0
    0.4690    4.9862    0.8472 H   0  0  0  0  0  0  0  0  0  0  0  0
    0.9230    6.1973   -0.4035 H   0  0  0  0  0  0  0  0  0  0  0  0
   -0.0456    4.7481   -0.8532 H   0  0  0  0  0  0  0  0  0  0  0  0
  1 15  1  0  0  0  0
  4 13  1  0  0  0  0
  4  5  1  0  0  0  0
  5  2  1  0  0  0  0
  6  5  2  0  0  0  0
  6  3  1  0  0  0  0
  7  6  1  0  0  0  0
  8  7  1  0  0  0  0
  9 11  1  0  0  0  0
  9  7  2  0  0  0  0
 10  9  1  0  0  0  0
 11  4  2  0  0  0  0
 12 11  1  0  0  0  0
 13  1  1  0  0  0  0
 14 13  1  0  0  0  0
 15 17  1  0  0  0  0
 16 15  1  0  0  0  0
 18 20  1  0  0  0  0
 18 15  1  0  0  0  0
 18 42  1  0  0  0  0
 19 18  1  0  0  0  0
 21  3  1  0  0  0  0
 21 22  1  0  0  0  0
 21 24  1  0  0  0  0
 23 21  1  0  0  0  0
 24 25  1  0  0  0  0
 26 24  1  0  0  0  0
 27 24  1  0  0  0  0
 28 42  1  0  0  0  0
 31 32  1  0  0  0  0
 31 40  1  0  0  0  0
 32 29  1  0  0  0  0
 33 30  1  0  0  0  0
 33 32  2  0  0  0  0
 34 33  1  0  0  0  0
 35 34  1  0  0  0  0
 36 34  2  0  0  0  0
 36 38  1  0  0  0  0
 37 36  1  0  0  0  0
 38 31  2  0  0  0  0
 39 38  1  0  0  0  0
 40 28  1  0  0  0  0
 41 40  1  0  0  0  0
 42 44  1  0  0  0  0
 43 42  1  0  0  0  0
 45 30  1  0  0  0  0
 45 48  1  0  0  0  0
 45 46  1  0  0  0  0
 47 45  1  0  0  0  0
 48 49  1  0  0  0  0
 50 48  1  0  0  0  0
 51 48  1  0  0  0  0
M  CHG  2   2  -1  29  -1
M  END
