1,2,3,4
q = -2.0, confidence = 0.864

 50 52  0  0  1  0  0  0  0  0999 V2000
    1.0113   -1.7078   -0.7300 O   0  0  0  0  0  1  0  0  0  0  0  0
   -1.4728   -1.5534   -0.6501 O   0  0  0  0  0  1  0  0  0  0  0  0
    1.2124    0.7370    0.4805 N   0  0  0  0  0  2  0  0  0  0  0  0
   -1.3343    0.9957    0.1565 N   0  0  0  0  0  2  0  0  0  0  0  0
    2.2641   -1.8269   -0.4195 C   0  0  2  0  0  3  0  0  0  0  0  0
    2.9761   -2.9444   -0.9663 C   0  0  0  0  0  0  0  0  0  0  0  0
    4.2928   -3.2065   -0.6206 C   0  0  0  0  0  0  0  0  0  0  0  0
    4.9818   -2.3596    0.2824 C   0  0  0  0  0  0  0  0  0  0  0  0
    4.3257   -1.2557    0.8114 C   0  0  0  0  0  0  0  0  0  0  0  0
    2.9762   -0.9360    0.4722 C   0  0  0  0  0  0  0  0  0  0  0  0
   -2.7020   -1.5029   -0.2356 C   0  0  2  0  0  3  0  0  0  0  0  0
   -3.4821   -2.6998   -0.3525 C   0  0  0  0  0  0  0  0  0  0  0  0
   -4.7968   -2.7587    0.0839 C   0  0  0  0  0  0  0  0  0  0  0  0
   -5.4184   -1.6207    0.6541 C   0  0  0  0  0  0  0  0  0  0  0  0
   -4.7027   -0.4339    0.7445 C   0  0  0  0  0  0  0  0  0  0  0  0
   -3.3512   -0.3227    0.3027 C   0  0  0  0  0  0  0  0  0  0  0  0
    2.3717    0.2918    0.9548 C   0  0  0  0  0  0  0  0  0  0  0  0
   -2.6451    0.9441    0.3268 C   0  0  0  0  0  0  0  0  0  0  0  0
    0.7134    2.0955    0.7919 C   0  0  2  0  0  0  0  0  0  0  0  0
   -0.6078    2.2561    0.0141 C   0  0  1  0  0  0  0  0  0  0  0  0
   -0.4013    2.5402   -1.4904 C   0  0  0  0  0  0  0  0  0  0  0  0
    0.5525    3.7033   -1.7579 C   0  0  0  0  0  0  0  0  0  0  0  0
    1.8867    3.4566   -1.0503 C   0  0  0  0  0  0  0  0  0  0  0  0
    1.6645    3.2641    0.4519 C   0  0  0  0  0  0  0  0  0  0  0  0
   -3.4151    2.2350    0.5165 C   0  0  0  0  0  0  0  0  0  0  0  0
    3.1033    1.0417    2.0503 C   0  0  0  0  0  0  0  0  0  0  0  0
    2.4140   -3.5957   -1.6509 H   0  0  0  0  0  0  0  0  0  0  0  0
    4.8030   -4.0838   -1.0486 H   0  0  0  0  0  0  0  0  0  0  0  0
    6.0271   -2.5651    0.5548 H   0  0  0  0  0  0  0  0  0  0  0  0
    4.8827   -0.5938    1.4888 H   0  0  0  0  0  0  0  0  0  0  0  0
   -2.9748   -3.5725   -0.7880 H   0  0  0  0  0  0  0  0  0  0  0  0
   -5.3574   -3.7025   -0.0071 H   0  0  0  0  0  0  0  0  0  0  0  0
   -6.4537   -1.6729    1.0203 H   0  0  0  0  0  0  0  0  0  0  0  0
   -5.1943    0.4397    1.1962 H   0  0  0  0  0  0  0  0  0  0  0  0
    0.4649    2.1388    1.8783 H   0  0  0  0  0  0  0  0  0  0  0  0
   -1.1580    3.1054    0.4694 H   0  0  0  0  0  0  0  0  0  0  0  0
    0.0069    1.6122   -1.9464 H   0  0  0  0  0  0  0  0  0  0  0  0
   -1.3938    2.7060   -1.9588 H   0  0  0  0  0  0  0  0  0  0  0  0
    0.1096    4.6560   -1.3888 H   0  0  0  0  0  0  0  0  0  0  0  0
    0.6972    3.8272   -2.8508 H   0  0  0  0  0  0  0  0  0  0  0  0
    2.3724    2.5506   -1.4738 H   0  0  0  0  0  0  0  0  0  0  0  0
    2.5864    4.3008   -1.2188 H   0  0  0  0  0  0  0  0  0  0  0  0
    2.6291    3.1552    0.9770 H   0  0  0  0  0  0  0  0  0  0  0  0
    1.1984    4.1844    0.8696 H   0  0  0  0  0  0  0  0  0  0  0  0
   -4.5034    2.0666    0.5137 H   0  0  0  0  0  0  0  0  0  0  0  0
   -3.1946    2.9482   -0.3024 H   0  0  0  0  0  0  0  0  0  0  0  0
   -3.1460    2.7336    1.4708 H   0  0  0  0  0  0  0  0  0  0  0  0
    3.4836    0.3141    2.7917 H   0  0  0  0  0  0  0  0  0  0  0  0
    2.4424    1.7464    2.5841 H   0  0  0  0  0  0  0  0  0  0  0  0
    3.9808    1.6062    1.6737 H   0  0  0  0  0  0  0  0  0  0  0  0
  3 19  1  0  0  0  0
  3 17  1  0  0  0  0
  4 18  1  0  0  0  0
  5  1  1  1  0  0  0
  5 10  1  0  0  0  0
  6  7  2  0  0  0  0
  6  5  1  0  0  0  0
  7  8  1  0  0  0  0
  8 29  1  0  0  0  0
  8  9  2  0  0  0  0
  9 30  1  0  0  0  0
 10  9  1  0  0  0  0
 10 17  2  0  0  0  0
 11  2  1  6  0  0  0
 11 16  1  0  0  0  0
 12 11  1  0  0  0  0
 12 13  2  0  0  0  0
 13 14  1  0  0  0  0
 14 15  2  0  0  0  0
 14 33  1  0  0  0  0
 15 34  1  0  0  0  0
 16 18  2  0  0  0  0
 16 15  1  0  0  0  0
 17 26  1  0  0  0  0
 18 25  1  0  0  0  0
 19 35  1  1  0  0  0
 20  4  1  0  0  0  0
 20 36  1  1  0  0  0
 20 19  1  0  0  0  0
 21 20  1  0  0  0  0
 22 21  1  0  0  0  0
 22 39  1  0  0  0  0
 22 23  1  0  0  0  0
 23 24  1  0  0  0  0
 24 19  1  0  0  0  0
 24 44  1  0  0  0  0
 24 43  1  0  0  0  0
 25 47  1  0  0  0  0
 26 49  1  0  0  0  0
 26 48  1  0  0  0  0
 27  6  1  0  0  0  0
 28  7  1  0  0  0  0
 31 12  1  0  0  0  0
 32 13  1  0  0  0  0
 37 21  1  0  0  0  0
 38 21  1  0  0  0  0
 40 22  1  0  0  0  0
 41 23  1  0  0  0  0
 42 23  1  0  0  0  0
 45 25  1  0  0  0  0
 46 25  1  0  0  0  0
 50 26  1  0  0  0  0
M  END
