1,18,31,32
q = -2.0, confidence = 0.844

 48 49  0  0  1  0  0  0  0  0999 V2000
    1.1759    0.8309    0.4596 O   0  5  0  0  0  0  0  0  0  0  0  0
    2.4525    0.9154    0.1471 C   0  0  0  0  0  0  0  0  0  0  0  0
    3.1156    2.1843    0.3130 C   0  0  0  0  0  0  0  0  0  0  0  0
    4.4707    2.3071   -0.0225 C   0  0  0  0  0  0  0  0  0  0  0  0
    4.9757    3.2776    0.0705 H   0  0  0  0  0  0  0  0  0  0  0  0
    5.2043    1.1884   -0.4780 C   0  0  0  0  0  0  0  0  0  0  0  0
    6.2687    1.3107   -0.7247 H   0  0  0  0  0  0  0  0  0  0  0  0
    4.5997   -0.0580   -0.5968 C   0  0  0  0  0  3  0  0  0  0  0  0
    5.1844   -0.9351   -0.9119 H   0  0  0  0  0  0  0  0  0  0  0  0
    3.2191   -0.2199   -0.2950 C   0  0  0  0  0  0  0  0  0  0  0  0
    2.6553   -1.5488   -0.2671 C   0  0  0  0  0  0  0  0  0  0  0  0
    3.3766   -2.3795   -0.3714 H   0  0  0  0  0  0  0  0  0  0  0  0
    2.3255    3.1784    0.7668 O   0  0  0  0  0  0  0  0  0  0  0  0
    2.9009    4.4648    0.9582 C   0  0  0  0  0  0  0  0  0  0  0  0
    2.0929    5.1104    1.3464 H   0  0  0  0  0  0  0  0  0  0  0  0
    3.2787    4.8883    0.0019 H   0  0  0  0  0  0  0  0  0  0  0  0
    3.7321    4.4345    1.6959 H   0  0  0  0  0  0  0  0  0  0  0  0
    1.3865   -1.8282   -0.0713 N   0  0  0  0  0  2  0  0  0  0  0  0
    0.9400   -3.2424    0.1285 C   0  0  0  0  0  0  0  0  0  0  0  0
   -0.4482   -3.2771   -0.5449 C   0  0  0  0  0  0  0  0  0  0  0  0
   -0.3149   -3.3177   -1.6478 H   0  0  0  0  0  0  0  0  0  0  0  0
   -1.0258   -4.1723   -0.2322 H   0  0  0  0  0  0  0  0  0  0  0  0
    0.8167   -3.4825    1.6446 C   0  0  0  0  0  0  0  0  0  0  0  0
    0.1458   -2.7375    2.1125 H   0  0  0  0  0  0  0  0  0  0  0  0
    1.8112   -3.3995    2.1257 H   0  0  0  0  0  0  0  0  0  0  0  0
    0.4229   -4.4996    1.8395 H   0  0  0  0  0  0  0  0  0  0  0  0
    1.8538   -4.2874   -0.5176 C   0  0  0  0  0  0  0  0  0  0  0  0
    2.8233   -4.3770    0.0099 H   0  0  0  0  0  0  0  0  0  0  0  0
    2.0446   -4.0624   -1.5860 H   0  0  0  0  0  0  0  0  0  0  0  0
    1.3691   -5.2816   -0.4605 H   0  0  0  0  0  0  0  0  0  0  0  0
   -1.1492   -2.0393   -0.2183 N   0  0  0  0  0  2  0  0  0  0  0  0
   -1.4620    0.6200   -0.5055 O   0  0  0  0  0  1  0  0  0  0  0  0
   -2.7286    0.4258   -0.2010 C   0  0  1  0  0  3  0  0  0  0  0  0
   -3.6274    1.5514   -0.2693 C   0  0  0  0  0  0  0  0  0  0  0  0
   -4.9778    1.3814    0.0634 C   0  0  0  0  0  0  0  0  0  0  0  0
   -5.6617    2.2402    0.0463 H   0  0  0  0  0  0  0  0  0  0  0  0
   -5.4780    0.1081    0.4198 C   0  0  0  0  0  0  0  0  0  0  0  0
   -6.5442    0.0023    0.6665 H   0  0  0  0  0  0  0  0  0  0  0  0
   -4.6441   -1.0036    0.4422 C   0  0  0  0  0  0  0  0  0  0  0  0
   -5.0459   -1.9998    0.6797 H   0  0  0  0  0  0  0  0  0  0  0  0
   -3.2604   -0.8705    0.1396 C   0  0  0  0  0  0  0  0  0  0  0  0
   -2.4467   -2.0515    0.0020 C   0  0  0  0  0  0  0  0  0  0  0  0
   -2.9690   -3.0282    0.0238 H   0  0  0  0  0  0  0  0  0  0  0  0
   -3.0484    2.7136   -0.6328 O   0  0  0  0  0  0  0  0  0  0  0  0
   -3.8642    3.8749   -0.7252 C   0  0  0  0  0  0  0  0  0  0  0  0
   -3.1997    4.6942   -1.0530 H   0  0  0  0  0  0  0  0  0  0  0  0
   -4.3105    4.1384    0.2586 H   0  0  0  0  0  0  0  0  0  0  0  0
   -4.6787    3.7432   -1.4704 H   0  0  0  0  0  0  0  0  0  0  0  0
  2  3  2  0  0  0  0
  2  1  1  0  0  0  0
  3 13  1  0  0  0  0
  4  5  1  0  0  0  0
  4  3  1  0  0  0  0
  6  4  2  0  0  0  0
  7  6  1  0  0  0  0
  8  6  1  0  0  0  0
  8 10  1  0  0  0  0
  9  8  1  0  0  0  0
 10 11  2  0  0  0  0
 10  2  1  0  0  0  0
 11 18  1  0  0  0  0
 12 11  1  0  0  0  0
 13 14  1  0  0  0  0
 14 15  1  0  0  0  0
 14 17  1  0  0  0  0
 16 14  1  0  0  0  0
 18 19  1  0  0  0  0
 19 23  1  0  0  0  0
 20 22  1  0  0  0  0
 20 31  1  0  0  0  0
 20 19  1  0  0  0  0
 21 20  1  0  0  0  0
 23 26  1  0  0  0  0
 23 24  1  0  0  0  0
 23 25  1  0  0  0  0
 27 30  1  0  0  0  0
 27 28  1  0  0  0  0
 27 19  1  0  0  0  0
 29 27  1  0  0  0  0
 31 42  1  0  0  0  0
 33 32  1  6  0  0  0
 33 41  1  0  0  0  0
 34 33  1  0  0  0  0
 34 35  2  0  0  0  0
 35 37  1  0  0  0  0
 36 35  1  0  0  0  0
 37 39  2  0  0  0  0
 37 38  1  0  0  0  0
 39 40  1  0  0  0  0
 41 39  1  0  0  0  0
 42 43  1  0  0  0  0
 42 41  2  0  0  0  0
 44 34  1  0  0  0  0
 45 44  1  0  0  0  0
 45 47  1  0  0  0  0
 46 45  1  0  0  0  0
 48 45  1  0  0  0  0
M  CHG  1   1  -1
M  END
