1,2,5,6
q = -2.0, confidence = 0.854

 69 70  0  0  1  0  0  0  0  0999 V2000
    1.3477    0.2433   -0.4975 O   0  5  0  0  0  0  0  0  0  0  0  0
   -1.3649    0.1815    0.4110 O   0  5  0  0  0  0  0  0  0  0  0  0
    6.7973    0.0655    0.0459 O   0  0  0  0  0  0  0  0  0  0  0  0
   -6.8073    0.0447   -0.2105 O   0  0  0  0  0  0  0  0  0  0  0  0
    1.2796   -2.4795    0.1275 N   0  0  0  0  0  2  0  0  0  0  0  0
   -1.2773   -2.4539   -0.5172 N   0  0  0  0  0  2  0  0  0  0  0  0
    2.6140    0.1586   -0.2456 C   0  0  0  0  0  0  0  0  0  0  0  0
    3.4036    1.3799   -0.1373 C   0  0  0  0  0  0  0  0  0  0  0  0
    4.7835    1.2510   -0.0621 C   0  0  0  0  0  0  0  0  0  0  0  0
    5.4268    2.1391   -0.0135 H   0  0  0  0  0  0  0  0  0  0  0  0
    5.4556   -0.0047   -0.0328 C   0  0  0  0  0  0  0  0  0  0  0  0
    4.7086   -1.1895   -0.0483 C   0  0  0  0  0  0  0  0  0  0  0  0
    5.1923   -2.1716    0.0428 H   0  0  0  0  0  0  0  0  0  0  0  0
    3.2977   -1.1225   -0.1261 C   0  0  0  0  0  0  0  0  0  0  0  0
    2.5677   -2.3593   -0.0361 C   0  0  0  0  0  3  0  0  0  0  0  0
    3.1717   -3.2910   -0.0812 H   0  0  0  0  0  0  0  0  0  0  0  0
    0.6206   -3.7965    0.2270 C   0  0  2  0  0  0  0  0  0  0  0  0
    1.3100   -4.5913   -0.1361 H   0  0  0  0  0  0  0  0  0  0  0  0
   -0.6053   -3.7408   -0.7047 C   0  0  0  0  0  0  0  0  0  0  0  0
   -0.2672   -3.7962   -1.7625 H   0  0  0  0  0  0  0  0  0  0  0  0
   -1.2876   -4.5973   -0.5141 H   0  0  0  0  0  0  0  0  0  0  0  0
   -2.5670   -2.3586   -0.3454 C   0  0  0  0  0  3  0  0  0  0  0  0
   -3.1653   -3.2934   -0.3966 H   0  0  0  0  0  0  0  0  0  0  0  0
   -3.3039   -1.1414   -0.1322 C   0  0  0  0  0  0  0  0  0  0  0  0
   -4.7135   -1.2050   -0.2325 C   0  0  0  0  0  0  0  0  0  0  0  0
   -5.1910   -2.1727   -0.4382 H   0  0  0  0  0  0  0  0  0  0  0  0
   -5.4664   -0.0288   -0.1240 C   0  0  0  0  0  0  0  0  0  0  0  0
   -4.8013    1.2183    0.0549 C   0  0  0  0  0  0  0  0  0  0  0  0
   -5.4489    2.1034    0.0997 H   0  0  0  0  0  0  0  0  0  0  0  0
   -3.4231    1.3437    0.1598 C   0  0  0  0  0  0  0  0  0  0  0  0
   -2.6280    0.1213    0.1373 C   0  0  0  0  0  0  0  0  0  0  0  0
    2.7247    2.7567   -0.1664 C   0  0  0  0  0  0  0  0  0  0  0  0
    1.6886    2.8371    0.9807 C   0  0  0  0  0  0  0  0  0  0  0  0
    0.9081    2.0622    0.8870 H   0  0  0  0  0  0  0  0  0  0  0  0
    1.1904    3.8274    0.9636 H   0  0  0  0  0  0  0  0  0  0  0  0
    2.1848    2.7260    1.9661 H   0  0  0  0  0  0  0  0  0  0  0  0
    2.0398    2.9680   -1.5391 C   0  0  0  0  0  0  0  0  0  0  0  0
    1.5499    3.9624   -1.5625 H   0  0  0  0  0  0  0  0  0  0  0  0
    1.2721    2.1980   -1.7345 H   0  0  0  0  0  0  0  0  0  0  0  0
    2.7857    2.9377   -2.3588 H   0  0  0  0  0  0  0  0  0  0  0  0
    3.7433    3.8937    0.0334 C   0  0  0  0  0  0  0  0  0  0  0  0
    4.2812    3.8077    0.9992 H   0  0  0  0  0  0  0  0  0  0  0  0
    3.2083    4.8635    0.0380 H   0  0  0  0  0  0  0  0  0  0  0  0
    4.4912    3.9372   -0.7837 H   0  0  0  0  0  0  0  0  0  0  0  0
   -2.7519    2.7113    0.3504 C   0  0  0  0  0  0  0  0  0  0  0  0
   -2.0772    2.7693    1.7431 C   0  0  0  0  0  0  0  0  0  0  0  0
   -1.3054    1.9869    1.8551 H   0  0  0  0  0  0  0  0  0  0  0  0
   -2.8280    2.6416    2.5489 H   0  0  0  0  0  0  0  0  0  0  0  0
   -1.5943    3.7576    1.8827 H   0  0  0  0  0  0  0  0  0  0  0  0
   -1.7084    2.9253   -0.7724 C   0  0  0  0  0  0  0  0  0  0  0  0
   -2.1969    2.9239   -1.7677 H   0  0  0  0  0  0  0  0  0  0  0  0
   -0.9248    2.1479   -0.7605 H   0  0  0  0  0  0  0  0  0  0  0  0
   -1.2152    3.9093   -0.6399 H   0  0  0  0  0  0  0  0  0  0  0  0
   -3.7752    3.8591    0.2735 C   0  0  0  0  0  0  0  0  0  0  0  0
   -4.5295    3.8057    1.0841 H   0  0  0  0  0  0  0  0  0  0  0  0
   -4.3054    3.8817   -0.7001 H   0  0  0  0  0  0  0  0  0  0  0  0
   -3.2455    4.8255    0.3838 H   0  0  0  0  0  0  0  0  0  0  0  0
    7.5560   -1.1383    0.0740 C   0  0  0  0  0  0  0  0  0  0  0  0
    7.3811   -1.7465   -0.8396 H   0  0  0  0  0  0  0  0  0  0  0  0
    7.3170   -1.7455    0.9740 H   0  0  0  0  0  0  0  0  0  0  0  0
    8.6168   -0.8341    0.1129 H   0  0  0  0  0  0  0  0  0  0  0  0
   -7.5594   -1.1509   -0.3854 C   0  0  0  0  0  0  0  0  0  0  0  0
   -7.3933   -1.8583    0.4555 H   0  0  0  0  0  0  0  0  0  0  0  0
   -7.3053   -1.6509   -1.3452 H   0  0  0  0  0  0  0  0  0  0  0  0
   -8.6211   -0.8480   -0.4038 H   0  0  0  0  0  0  0  0  0  0  0  0
    0.2410   -4.0664    1.6855 C   0  0  0  0  0  0  0  0  0  0  0  0
   -0.4579   -3.2918    2.0614 H   0  0  0  0  0  0  0  0  0  0  0  0
    1.1395   -4.0594    2.3320 H   0  0  0  0  0  0  0  0  0  0  0  0
   -0.2462   -5.0568    1.7798 H   0  0  0  0  0  0  0  0  0  0  0  0
  1  7  1  0  0  0  0
  3 58  1  0  0  0  0
  4 27  1  0  0  0  0
  5 17  1  0  0  0  0
  6 22  1  0  0  0  0
  7  8  2  0  0  0  0
  7 14  1  0  0  0  0
  8  9  1  0  0  0  0
  9 11  2  0  0  0  0
  9 10  1  0  0  0  0
 11  3  1  0  0  0  0
 12 11  1  0  0  0  0
 12 13  1  0  0  0  0
 14 12  2  0  0  0  0
 14 15  1  0  0  0  0
 15  5  1  0  0  0  0
 16 15  1  0  0  0  0
 17 18  1  6  0  0  0
 17 66  1  0  0  0  0
 19  6  1  0  0  0  0
 19 21  1  0  0  0  0
 19 17  1  0  0  0  0
 20 19  1  0  0  0  0
 22 24  1  0  0  0  0
 23 22  1  0  0  0  0
 24 31  1  0  0  0  0
 25 24  2  0  0  0  0
 25 27  1  0  0  0  0
 26 25  1  0  0  0  0
 27 28  2  0  0  0  0
 28 29  1  0  0  0  0
 28 30  1  0  0  0  0
 30 45  1  0  0  0  0
 31 30  2  0  0  0  0
 31  2  1  0  0  0  0
 32  8  1  0  0  0  0
 32 41  1  0  0  0  0
 32 33  1  0  0  0  0
 33 36  1  0  0  0  0
 34 33  1  0  0  0  0
 35 33  1  0  0  0  0
 37 32  1  0  0  0  0
 38 37  1  0  0  0  0
 39 37  1  0  0  0  0
 40 37  1  0  0  0  0
 41 43  1  0  0  0  0
 41 42  1  0  0  0  0
 44 41  1  0  0  0  0
 45 46  1  0  0  0  0
 46 47  1  0  0  0  0
 46 49  1  0  0  0  0
 46 48  1  0  0  0  0
 50 52  1  0  0  0  0
 50 53  1  0  0  0  0
 50 45  1  0  0  0  0
 51 50  1  0  0  0  0
 54 45  1  0  0  0  0
 54 57  1  0  0  0  0
 54 55  1  0  0  0  0
 56 54  1  0  0  0  0
 58 61  1  0  0  0  0
 58 60  1  0  0  0  0
 59 58  1  0  0  0  0
 62  4  1  0  0  0  0
 62 63  1  0  0  0  0
 64 62  1  0  0  0  0
 65 62  1  0  0  0  0
 66 69  1  0  0  0  0
 66 67  1  0  0  0  0
 66 68  1  0  0  0  0
M  CHG  2   1  -1   2  -1
M  END
