1,3,25,28
q = -2.0, confidence = 0.706

 48 49  0  0  0  0  0  0  0  0999 V2000
   -1.5634   -0.6868    0.0005 O   0  5  0  0  0  0  0  0  0  0  0  0
   -7.6594   -2.4467    0.0003 O   0  0  0  0  0  0  0  0  0  0  0  0
   -1.2260    1.7640    0.0003 N   0  0  0  0  0  2  0  0  0  0  0  0
   -2.5289    1.4342    0.0003 N   0  0  0  0  0  0  0  0  0  0  0  0
   -0.7313    2.9998    0.0001 C   0  0  0  0  0  0  0  0  0  0  0  0
   -1.5850    4.2236   -0.0000 C   0  0  0  0  0  0  0  0  0  0  0  0
   -2.6087    0.0873    0.0004 C   0  0  0  0  0  0  0  0  0  0  0  0
   -3.9439   -0.5330    0.0004 C   0  0  0  0  0  0  0  0  0  0  0  0
   -4.0603   -1.9438    0.0006 C   0  0  0  0  0  0  0  0  0  0  0  0
   -5.3117   -2.5524    0.0005 C   0  0  0  0  0  0  0  0  0  0  0  0
   -6.4862   -1.7638    0.0003 C   0  0  0  0  0  0  0  0  0  0  0  0
   -6.3827   -0.3542    0.0002 C   0  0  0  0  0  0  0  0  0  0  0  0
   -5.1196    0.2466    0.0002 C   0  0  0  0  0  0  0  0  0  0  0  0
   -8.8716   -1.7147   -0.0014 C   0  0  0  0  0  0  0  0  0  0  0  0
   -3.1383   -2.5421    0.0007 H   0  0  0  0  0  0  0  0  0  0  0  0
   -7.2804    0.2781    0.0001 H   0  0  0  0  0  0  0  0  0  0  0  0
   -2.6495    3.9273   -0.0004 H   0  0  0  0  0  0  0  0  0  0  0  0
   -5.4209   -3.6465    0.0006 H   0  0  0  0  0  0  0  0  0  0  0  0
   -5.0239    1.3414    0.0002 H   0  0  0  0  0  0  0  0  0  0  0  0
   -8.9692   -1.0732    0.9028 H   0  0  0  0  0  0  0  0  0  0  0  0
   -1.3862    4.8539    0.8926 H   0  0  0  0  0  0  0  0  0  0  0  0
   -1.3857    4.8542   -0.8923 H   0  0  0  0  0  0  0  0  0  0  0  0
   -8.9666   -1.0732   -0.9058 H   0  0  0  0  0  0  0  0  0  0  0  0
   -9.6872   -2.4612   -0.0025 H   0  0  0  0  0  0  0  0  0  0  0  0
    1.5634   -0.6868   -0.0004 O   0  5  0  0  0  0  0  0  0  0  0  0
    2.6087    0.0873   -0.0004 C   0  0  0  0  0  0  0  0  0  0  0  0
    2.5289    1.4342   -0.0003 N   0  0  0  0  0  0  0  0  0  0  0  0
    1.2260    1.7640   -0.0002 N   0  0  0  0  0  2  0  0  0  0  0  0
    0.7313    2.9998   -0.0001 C   0  0  0  0  0  0  0  0  0  0  0  0
    1.5850    4.2236   -0.0000 C   0  0  0  0  0  0  0  0  0  0  0  0
    2.6495    3.9273    0.0002 H   0  0  0  0  0  0  0  0  0  0  0  0
    1.3861    4.8540   -0.8926 H   0  0  0  0  0  0  0  0  0  0  0  0
    1.3858    4.8542    0.8923 H   0  0  0  0  0  0  0  0  0  0  0  0
    3.9439   -0.5330   -0.0004 C   0  0  0  0  0  0  0  0  0  0  0  0
    4.0603   -1.9438   -0.0005 C   0  0  0  0  0  0  0  0  0  0  0  0
    5.3117   -2.5524   -0.0005 C   0  0  0  0  0  0  0  0  0  0  0  0
    6.4862   -1.7638   -0.0003 C   0  0  0  0  0  0  0  0  0  0  0  0
    7.6594   -2.4467   -0.0004 O   0  0  0  0  0  0  0  0  0  0  0  0
    8.8716   -1.7147    0.0012 C   0  0  0  0  0  0  0  0  0  0  0  0
    8.9691   -1.0732   -0.9030 H   0  0  0  0  0  0  0  0  0  0  0  0
    8.9667   -1.0732    0.9057 H   0  0  0  0  0  0  0  0  0  0  0  0
    9.6872   -2.4612    0.0023 H   0  0  0  0  0  0  0  0  0  0  0  0
    6.3827   -0.3542   -0.0002 C   0  0  0  0  0  0  0  0  0  0  0  0
    5.1196    0.2466   -0.0003 C   0  0  0  0  0  0  0  0  0  0  0  0
    5.0239    1.3414   -0.0002 H   0  0  0  0  0  0  0  0  0  0  0  0
    7.2804    0.2781   -0.0002 H   0  0  0  0  0  0  0  0  0  0  0  0
    5.4209   -3.6465   -0.0006 H   0  0  0  0  0  0  0  0  0  0  0  0
    3.1383   -2.5421   -0.0006 H   0  0  0  0  0  0  0  0  0  0  0  0
  3  4  1  0  0  0  0
  4  7  2  0  0  0  0
  5  3  1  0  0  0  0
  6  5  1  0  0  0  0
  6 21  1  0  0  0  0
  7  8  1  0  0  0  0
  7  1  1  0  0  0  0
  8  9  1  0  0  0  0
  9 15  1  0  0  0  0
 10  9  2  0  0  0  0
 10 18  1  0  0  0  0
 11  2  1  0  0  0  0
 11 10  1  0  0  0  0
 12 13  1  0  0  0  0
 12 11  2  0  0  0  0
 13  8  2  0  0  0  0
 14  2  1  0  0  0  0
 14 20  1  0  0  0  0
 16 12  1  0  0  0  0
 17  6  1  0  0  0  0
 19 13  1  0  0  0  0
 22  6  1  0  0  0  0
 23 14  1  0  0  0  0
 24 14  1  0  0  0  0
 25 26  1  0  0  0  0
 26 27  2  0  0  0  0
 27 28  1  0  0  0  0
 28 29  1  0  0  0  0
 29 30  1  0  0  0  0
 29  5  2  0  0  0  0
 30 31  1  0  0  0  0
 30 33  1  0  0  0  0
 32 30  1  0  0  0  0
 34 26  1  0  0  0  0
 34 44  1  0  0  0  0
 35 36  1  0  0  0  0
 35 34  2  0  0  0  0
 36 37  2  0  0  0  0
 37 43  1  0  0  0  0
 38 37  1  0  0  0  0
 38 39  1  0  0  0  0
 39 42  1  0  0  0  0
 39 41  1  0  0  0  0
 40 39  1  0  0  0  0
 43 46  1  0  0  0  0
 44 43  2  0  0  0  0
 44 45  1  0  0  0  0
 47 36  1  0  0  0  0
 48 35  1  0  0  0  0
M  CHG  2   1  -1  25  -1
M  END
