1,2,3,4
q = -2.0, confidence = 0.942

 60 62  0  0  1  0  0  0  0  0999 V2000
   -1.5264   -1.6713   -0.4833 O   0  0  0  0  0  1  0  0  0  0  0  0
    2.1034   -0.9861    0.2353 O   0  0  0  0  0  1  0  0  0  0  0  0
    0.3378    0.4485   -1.1816 N   0  0  0  0  0  0  0  0  0  0  0  0
   -0.4913   -0.2933    1.5350 N   0  0  0  0  0  0  0  0  0  0  0  0
   -2.4737   -1.4819    0.5324 C   0  0  1  0  0  0  0  0  0  0  0  0
   -1.7615   -0.9974    1.8275 C   0  0  0  0  0  0  0  0  0  0  0  0
    1.7011    0.9894   -1.0048 C   0  0  0  0  0  0  0  0  0  0  0  0
    2.6841   -0.1722   -0.7495 C   0  0  1  0  0  0  0  0  0  0  0  0
    0.3929   -0.3456    2.7172 C   0  0  0  0  0  0  0  0  0  0  0  0
    0.0191    0.2407   -2.6060 C   0  0  0  0  0  0  0  0  0  0  0  0
   -0.6011    1.1206    1.0455 C   0  0  2  0  0  0  0  0  0  0  0  0
   -1.7005    1.9354    1.7506 C   0  0  0  0  0  0  0  0  0  0  0  0
   -1.7130    3.4001    1.3055 C   0  0  0  0  0  0  0  0  0  0  0  0
   -1.8836    3.4876   -0.2124 C   0  0  0  0  0  0  0  0  0  0  0  0
   -0.7644    2.7159   -0.9168 C   0  0  0  0  0  0  0  0  0  0  0  0
   -0.7220    1.2352   -0.4898 C   0  0  1  0  0  0  0  0  0  0  0  0
   -3.6396   -0.6163    0.0528 C   0  0  0  0  0  0  0  0  0  0  0  0
   -3.7987   -0.3420   -1.3186 C   0  0  0  0  0  0  0  0  0  0  0  0
   -4.8627    0.4516   -1.7748 C   0  0  0  0  0  0  0  0  0  0  0  0
   -5.7965    0.9729   -0.8659 C   0  0  0  0  0  0  0  0  0  0  0  0
   -5.6694    0.6737    0.5002 C   0  0  0  0  0  0  0  0  0  0  0  0
   -4.6042   -0.1197    0.9528 C   0  0  0  0  0  0  0  0  0  0  0  0
    4.0436    0.3525   -0.3264 C   0  0  0  0  0  0  0  0  0  0  0  0
    4.8620    1.0256   -1.2550 C   0  0  0  0  0  0  0  0  0  0  0  0
    6.0983    1.5570   -0.8605 C   0  0  0  0  0  0  0  0  0  0  0  0
    6.5344    1.4148    0.4673 C   0  0  0  0  0  0  0  0  0  0  0  0
    5.7288    0.7338    1.3929 C   0  0  0  0  0  0  0  0  0  0  0  0
    4.4893    0.2055    0.9990 C   0  0  0  0  0  0  0  0  0  0  0  0
   -2.9195   -2.4755    0.7914 H   0  0  0  0  0  0  0  0  0  0  0  0
   -2.4353   -0.4006    2.4778 H   0  0  0  0  0  0  0  0  0  0  0  0
   -1.4677   -1.8966    2.3980 H   0  0  0  0  0  0  0  0  0  0  0  0
    1.7311    1.6387   -0.1091 H   0  0  0  0  0  0  0  0  0  0  0  0
    2.0132    1.6112   -1.8716 H   0  0  0  0  0  0  0  0  0  0  0  0
    2.8007   -0.7596   -1.6957 H   0  0  0  0  0  0  0  0  0  0  0  0
    1.3909    0.0376    2.4359 H   0  0  0  0  0  0  0  0  0  0  0  0
    0.5138   -1.3996    3.0282 H   0  0  0  0  0  0  0  0  0  0  0  0
   -0.0119    0.2476    3.5684 H   0  0  0  0  0  0  0  0  0  0  0  0
    0.7945   -0.3984   -3.0645 H   0  0  0  0  0  0  0  0  0  0  0  0
   -0.0438    1.2010   -3.1650 H   0  0  0  0  0  0  0  0  0  0  0  0
   -0.9431   -0.2971   -2.6862 H   0  0  0  0  0  0  0  0  0  0  0  0
    0.3697    1.5833    1.3224 H   0  0  0  0  0  0  0  0  0  0  0  0
   -2.6918    1.4967    1.5156 H   0  0  0  0  0  0  0  0  0  0  0  0
   -1.5648    1.8621    2.8499 H   0  0  0  0  0  0  0  0  0  0  0  0
   -0.7613    3.8959    1.6014 H   0  0  0  0  0  0  0  0  0  0  0  0
   -2.5271    3.9439    1.8274 H   0  0  0  0  0  0  0  0  0  0  0  0
   -1.8876    4.5445   -0.5503 H   0  0  0  0  0  0  0  0  0  0  0  0
   -2.8690    3.0571   -0.4983 H   0  0  0  0  0  0  0  0  0  0  0  0
    0.2091    3.1995   -0.6808 H   0  0  0  0  0  0  0  0  0  0  0  0
   -0.8894    2.7778   -2.0167 H   0  0  0  0  0  0  0  0  0  0  0  0
   -1.6761    0.7659   -0.7937 H   0  0  0  0  0  0  0  0  0  0  0  0
   -3.0679   -0.7670   -2.0210 H   0  0  0  0  0  0  0  0  0  0  0  0
   -4.9651    0.6599   -2.8510 H   0  0  0  0  0  0  0  0  0  0  0  0
   -6.6296    1.5982   -1.2211 H   0  0  0  0  0  0  0  0  0  0  0  0
   -6.4068    1.0595    1.2207 H   0  0  0  0  0  0  0  0  0  0  0  0
   -4.5295   -0.3543    2.0266 H   0  0  0  0  0  0  0  0  0  0  0  0
    4.5333    1.1253   -2.3024 H   0  0  0  0  0  0  0  0  0  0  0  0
    6.7299    2.0784   -1.5960 H   0  0  0  0  0  0  0  0  0  0  0  0
    7.5071    1.8268    0.7764 H   0  0  0  0  0  0  0  0  0  0  0  0
    6.0714    0.6059    2.4314 H   0  0  0  0  0  0  0  0  0  0  0  0
    3.8558   -0.3500    1.7055 H   0  0  0  0  0  0  0  0  0  0  0  0
  1  5  1  0  0  0  0
  3  7  1  0  0  0  0
  3 16  1  0  0  0  0
  4  6  1  0  0  0  0
  4  9  1  0  0  0  0
  5 29  1  1  0  0  0
  5  6  1  0  0  0  0
  6 31  1  0  0  0  0
  6 30  1  0  0  0  0
  7  8  1  0  0  0  0
  7 32  1  0  0  0  0
  8 34  1  6  0  0  0
  8 23  1  0  0  0  0
  8  2  1  0  0  0  0
  9 36  1  0  0  0  0
  9 37  1  0  0  0  0
 10  3  1  0  0  0  0
 11 41  1  1  0  0  0
 11  4  1  0  0  0  0
 11 12  1  0  0  0  0
 12 43  1  0  0  0  0
 13 44  1  0  0  0  0
 13 12  1  0  0  0  0
 13 45  1  0  0  0  0
 14 13  1  0  0  0  0
 15 48  1  0  0  0  0
 15 16  1  0  0  0  0
 15 14  1  0  0  0  0
 16 50  1  6  0  0  0
 16 11  1  0  0  0  0
 17  5  1  0  0  0  0
 17 22  1  0  0  0  0
 18 17  2  0  0  0  0
 19 18  1  0  0  0  0
 19 20  2  0  0  0  0
 20 21  1  0  0  0  0
 21 22  2  0  0  0  0
 21 54  1  0  0  0  0
 22 55  1  0  0  0  0
 23 28  1  0  0  0  0
 24 25  1  0  0  0  0
 24 23  2  0  0  0  0
 25 26  2  0  0  0  0
 26 58  1  0  0  0  0
 26 27  1  0  0  0  0
 27 59  1  0  0  0  0
 28 27  2  0  0  0  0
 28 60  1  0  0  0  0
 33  7  1  0  0  0  0
 35  9  1  0  0  0  0
 38 10  1  0  0  0  0
 39 10  1  0  0  0  0
 40 10  1  0  0  0  0
 42 12  1  0  0  0  0
 46 14  1  0  0  0  0
 47 14  1  0  0  0  0
 49 15  1  0  0  0  0
 51 18  1  0  0  0  0
 52 19  1  0  0  0  0
 53 20  1  0  0  0  0
 56 24  1  0  0  0  0
 57 25  1  0  0  0  0
M  END
