1,2,3,4
q = -2.0, confidence = 0.946

 46 46  0  0  1  0  0  0  0  0999 V2000
   -1.1350    1.5981    0.9827 O   0  0  0  0  0  1  0  0  0  0  0  0
   -1.1362   -1.5974   -0.9827 O   0  0  0  0  0  1  0  0  0  0  0  0
    0.2834    0.9903   -1.0939 N   0  0  0  0  0  0  0  0  0  0  0  0
    0.2830   -0.9908    1.0939 N   0  0  0  0  0  0  0  0  0  0  0  0
   -0.7758    2.7783    0.3016 C   0  0  2  0  0  0  0  0  0  0  0  0
   -0.0811    2.4206   -1.0539 C   0  0  0  0  0  0  0  0  0  0  0  0
   -0.0823   -2.4209    1.0537 C   0  0  0  0  0  0  0  0  0  0  0  0
   -0.7775   -2.7779   -0.3017 C   0  0  2  0  0  0  0  0  0  0  0  0
    0.3380    0.4948   -2.4810 C   0  0  0  0  0  0  0  0  0  0  0  0
    0.0597    3.6771    1.2134 C   0  0  0  0  0  0  0  0  0  0  0  0
    0.3377   -0.4955    2.4811 C   0  0  0  0  0  0  0  0  0  0  0  0
    1.5107    0.7159   -0.2850 C   0  0  2  0  0  0  0  0  0  0  0  0
    2.8113    1.0133   -1.0556 C   0  0  0  0  0  0  0  0  0  0  0  0
    4.0684    0.7283   -0.2318 C   0  0  0  0  0  0  0  0  0  0  0  0
    4.0682   -0.7300    0.2317 C   0  0  0  0  0  0  0  0  0  0  0  0
    2.8109   -1.0146    1.0556 C   0  0  0  0  0  0  0  0  0  0  0  0
    1.5105   -0.7167    0.2850 C   0  0  1  0  0  0  0  0  0  0  0  0
    0.0569   -3.6774   -1.2138 C   0  0  0  0  0  0  0  0  0  0  0  0
   -1.7117    3.3294    0.0419 H   0  0  0  0  0  0  0  0  0  0  0  0
   -0.7949    2.5881   -1.8808 H   0  0  0  0  0  0  0  0  0  0  0  0
    0.8055    3.0702   -1.2409 H   0  0  0  0  0  0  0  0  0  0  0  0
   -0.7960   -2.5881    1.8807 H   0  0  0  0  0  0  0  0  0  0  0  0
    0.8041   -3.0710    1.2403 H   0  0  0  0  0  0  0  0  0  0  0  0
   -1.7138   -3.3283   -0.0418 H   0  0  0  0  0  0  0  0  0  0  0  0
   -0.6775    0.5753   -2.9116 H   0  0  0  0  0  0  0  0  0  0  0  0
    0.6072   -0.5765   -2.4864 H   0  0  0  0  0  0  0  0  0  0  0  0
    1.0493    1.0692   -3.1137 H   0  0  0  0  0  0  0  0  0  0  0  0
    0.2738    4.6484    0.7223 H   0  0  0  0  0  0  0  0  0  0  0  0
    1.0289    3.2062    1.4800 H   0  0  0  0  0  0  0  0  0  0  0  0
   -0.4927    3.8760    2.1522 H   0  0  0  0  0  0  0  0  0  0  0  0
   -0.6780   -0.5755    2.9115 H   0  0  0  0  0  0  0  0  0  0  0  0
    0.6074    0.5758    2.4866 H   0  0  0  0  0  0  0  0  0  0  0  0
    1.0486   -1.0703    3.1138 H   0  0  0  0  0  0  0  0  0  0  0  0
    1.4595    1.4057    0.5809 H   0  0  0  0  0  0  0  0  0  0  0  0
    2.8459    0.3803   -1.9672 H   0  0  0  0  0  0  0  0  0  0  0  0
    2.7987    2.0667   -1.4051 H   0  0  0  0  0  0  0  0  0  0  0  0
    4.9738    0.9553   -0.8317 H   0  0  0  0  0  0  0  0  0  0  0  0
    4.1021    1.3986    0.6560 H   0  0  0  0  0  0  0  0  0  0  0  0
    4.9734   -0.9574    0.8316 H   0  0  0  0  0  0  0  0  0  0  0  0
    4.1016   -1.4003   -0.6561 H   0  0  0  0  0  0  0  0  0  0  0  0
    2.8459   -0.3816    1.9671 H   0  0  0  0  0  0  0  0  0  0  0  0
    2.7980   -2.0680    1.4051 H   0  0  0  0  0  0  0  0  0  0  0  0
    1.4590   -1.4065   -0.5810 H   0  0  0  0  0  0  0  0  0  0  0  0
    0.2704   -4.6488   -0.7229 H   0  0  0  0  0  0  0  0  0  0  0  0
    1.0264   -3.2071   -1.4807 H   0  0  0  0  0  0  0  0  0  0  0  0
   -0.4959   -3.8757   -2.1525 H   0  0  0  0  0  0  0  0  0  0  0  0
  2  8  1  0  0  0  0
  3  6  1  0  0  0  0
  3 12  1  0  0  0  0
  4 11  1  0  0  0  0
  5 19  1  6  0  0  0
  5  1  1  0  0  0  0
  5 10  1  0  0  0  0
  6  5  1  0  0  0  0
  7  4  1  0  0  0  0
  7 23  1  0  0  0  0
  7 22  1  0  0  0  0
  8 24  1  1  0  0  0
  8  7  1  0  0  0  0
  9  3  1  0  0  0  0
 10 29  1  0  0  0  0
 10 30  1  0  0  0  0
 11 32  1  0  0  0  0
 11 31  1  0  0  0  0
 11 33  1  0  0  0  0
 12 17  1  0  0  0  0
 12 34  1  1  0  0  0
 13 12  1  0  0  0  0
 13 14  1  0  0  0  0
 14 15  1  0  0  0  0
 14 38  1  0  0  0  0
 15 39  1  0  0  0  0
 15 16  1  0  0  0  0
 16 42  1  0  0  0  0
 16 41  1  0  0  0  0
 17 43  1  6  0  0  0
 17 16  1  0  0  0  0
 17  4  1  0  0  0  0
 18 44  1  0  0  0  0
 18  8  1  0  0  0  0
 20  6  1  0  0  0  0
 21  6  1  0  0  0  0
 25  9  1  0  0  0  0
 26  9  1  0  0  0  0
 27  9  1  0  0  0  0
 28 10  1  0  0  0  0
 35 13  1  0  0  0  0
 36 13  1  0  0  0  0
 37 14  1  0  0  0  0
 40 15  1  0  0  0  0
 45 18  1  0  0  0  0
 46 18  1  0  0  0  0
M  END
