1,2,3,4
q = -2.0, confidence = 0.85

 60 61  0  0  1  0  0  0  0  0999 V2000
    1.2710    0.0041    0.1309 O   0  5  0  0  0  0  0  0  0  0  0  0
    1.2596   -2.6932    0.1226 N   0  0  0  0  0  2  0  0  0  0  0  0
   -1.2709    0.0041   -0.1310 O   0  0  0  0  0  1  0  0  0  0  0  0
   -1.2595   -2.6933   -0.1228 N   0  0  0  0  0  2  0  0  0  0  0  0
    2.5726   -0.0714    0.0496 C   0  0  0  0  0  0  0  0  0  0  0  0
    3.2778   -1.3287   -0.0286 C   0  0  0  0  0  0  0  0  0  0  0  0
    6.7926   -0.1387   -0.3002 O   0  0  0  0  0  0  0  0  0  0  0  0
   -3.2776   -1.3288    0.0288 C   0  0  0  0  0  0  0  0  0  0  0  0
    2.5664   -2.5593    0.0631 C   0  0  0  0  0  0  0  0  0  0  0  0
    3.1701   -3.4882    0.1066 H   0  0  0  0  0  0  0  0  0  0  0  0
    4.6998   -1.3745   -0.1465 C   0  0  0  0  0  3  0  0  0  0  0  0
    5.2018   -2.3548   -0.2080 H   0  0  0  0  0  0  0  0  0  0  0  0
    3.3627    1.1473    0.0591 C   0  0  0  0  0  0  0  0  0  0  0  0
   -2.5725   -0.0715   -0.0496 C   0  0  2  0  0  3  0  0  0  0  0  0
   -6.7924   -0.1390    0.3010 O   0  0  0  0  0  0  0  0  0  0  0  0
    4.7459    1.0402   -0.0652 C   0  0  0  0  0  0  0  0  0  0  0  0
    5.3731    1.9410   -0.0731 H   0  0  0  0  0  0  0  0  0  0  0  0
   -4.7459    1.0399    0.0655 C   0  0  0  0  0  0  0  0  0  0  0  0
   -5.3731    1.9408    0.0734 H   0  0  0  0  0  0  0  0  0  0  0  0
   -4.6996   -1.3747    0.1469 C   0  0  0  0  0  0  0  0  0  0  0  0
   -5.2015   -2.3550    0.2086 H   0  0  0  0  0  0  0  0  0  0  0  0
   -3.3627    1.1472   -0.0590 C   0  0  0  0  0  0  0  0  0  0  0  0
   -2.6841    2.5170   -0.2254 C   0  0  0  0  0  0  0  0  0  0  0  0
   -5.4305   -0.1989    0.1792 C   0  0  0  0  0  0  0  0  0  0  0  0
   -0.6689   -4.0100   -0.3610 C   0  0  0  0  0  0  0  0  0  0  0  0
   -0.5061   -4.1440   -1.4541 H   0  0  0  0  0  0  0  0  0  0  0  0
   -1.3360   -4.8268   -0.0106 H   0  0  0  0  0  0  0  0  0  0  0  0
    5.4306   -0.1987   -0.1787 C   0  0  0  0  0  0  0  0  0  0  0  0
    2.6839    2.5170    0.2252 C   0  0  0  0  0  0  0  0  0  0  0  0
   -2.5662   -2.5594   -0.0631 C   0  0  0  0  0  0  0  0  0  0  0  0
   -3.1699   -3.4884   -0.1065 H   0  0  0  0  0  0  0  0  0  0  0  0
    3.6993    3.6734    0.1978 C   0  0  0  0  0  0  0  0  0  0  0  0
    4.4422    3.5998    1.0180 H   0  0  0  0  0  0  0  0  0  0  0  0
    3.1604    4.6340    0.3241 H   0  0  0  0  0  0  0  0  0  0  0  0
    4.2475    3.7244   -0.7651 H   0  0  0  0  0  0  0  0  0  0  0  0
   -1.6756    2.7442    0.9235 C   0  0  0  0  0  0  0  0  0  0  0  0
   -2.1960    2.7482    1.9033 H   0  0  0  0  0  0  0  0  0  0  0  0
   -1.1722    3.7254    0.7998 H   0  0  0  0  0  0  0  0  0  0  0  0
   -0.9037    1.9558    0.9357 H   0  0  0  0  0  0  0  0  0  0  0  0
    1.9643    2.5509    1.5947 C   0  0  0  0  0  0  0  0  0  0  0  0
    2.6977    2.4463    2.4203 H   0  0  0  0  0  0  0  0  0  0  0  0
    1.2238    1.7350    1.6762 H   0  0  0  0  0  0  0  0  0  0  0  0
    1.4344    3.5169    1.7255 H   0  0  0  0  0  0  0  0  0  0  0  0
    1.6755    2.7440   -0.9238 C   0  0  0  0  0  0  0  0  0  0  0  0
    0.9038    1.9553   -0.9360 H   0  0  0  0  0  0  0  0  0  0  0  0
    2.1960    2.7480   -1.9035 H   0  0  0  0  0  0  0  0  0  0  0  0
    1.1719    3.7250   -0.8003 H   0  0  0  0  0  0  0  0  0  0  0  0
    0.6691   -4.0101    0.3605 C   0  0  0  0  0  0  0  0  0  0  0  0
    0.5063   -4.1442    1.4535 H   0  0  0  0  0  0  0  0  0  0  0  0
    1.3363   -4.8268    0.0099 H   0  0  0  0  0  0  0  0  0  0  0  0
   -1.9648    2.5510   -1.5950 C   0  0  0  0  0  0  0  0  0  0  0  0
   -1.4351    3.5171   -1.7259 H   0  0  0  0  0  0  0  0  0  0  0  0
   -2.6983    2.4461   -2.4205 H   0  0  0  0  0  0  0  0  0  0  0  0
   -1.2241    1.7353   -1.6766 H   0  0  0  0  0  0  0  0  0  0  0  0
   -3.6997    3.6732   -0.1979 C   0  0  0  0  0  0  0  0  0  0  0  0
   -4.2478    3.7241    0.7651 H   0  0  0  0  0  0  0  0  0  0  0  0
   -4.4428    3.5992   -1.0179 H   0  0  0  0  0  0  0  0  0  0  0  0
   -3.1611    4.6338   -0.3244 H   0  0  0  0  0  0  0  0  0  0  0  0
    7.1333   -1.0495   -0.3637 H   0  0  0  0  0  0  0  0  0  0  0  0
   -7.1331   -1.0498    0.3646 H   0  0  0  0  0  0  0  0  0  0  0  0
  2 48  1  0  0  0  0
  4 30  1  0  0  0  0
  5 13  2  0  0  0  0
  5  1  1  0  0  0  0
  6  5  1  0  0  0  0
  6  9  2  0  0  0  0
  7 28  1  0  0  0  0
  8 20  1  0  0  0  0
  9 10  1  0  0  0  0
  9  2  1  0  0  0  0
 11  6  1  0  0  0  0
 12 11  1  0  0  0  0
 13 29  1  0  0  0  0
 14  3  1  6  0  0  0
 14  8  1  0  0  0  0
 15 60  1  0  0  0  0
 16 13  1  0  0  0  0
 17 16  1  0  0  0  0
 18 19  1  0  0  0  0
 18 24  1  0  0  0  0
 20 24  2  0  0  0  0
 20 21  1  0  0  0  0
 22 14  1  0  0  0  0
 22 18  2  0  0  0  0
 23 55  1  0  0  0  0
 23 22  1  0  0  0  0
 23 36  1  0  0  0  0
 24 15  1  0  0  0  0
 25  4  1  0  0  0  0
 25 27  1  0  0  0  0
 25 48  1  0  0  0  0
 26 25  1  0  0  0  0
 28 11  1  0  0  0  0
 28 16  2  0  0  0  0
 29 40  1  0  0  0  0
 30  8  2  0  0  0  0
 31 30  1  0  0  0  0
 32 29  1  0  0  0  0
 32 34  1  0  0  0  0
 32 33  1  0  0  0  0
 35 32  1  0  0  0  0
 36 39  1  0  0  0  0
 36 37  1  0  0  0  0
 38 36  1  0  0  0  0
 40 42  1  0  0  0  0
 40 43  1  0  0  0  0
 40 41  1  0  0  0  0
 44 47  1  0  0  0  0
 44 29  1  0  0  0  0
 45 44  1  0  0  0  0
 46 44  1  0  0  0  0
 48 49  1  0  0  0  0
 50 48  1  0  0  0  0
 51 23  1  0  0  0  0
 52 51  1  0  0  0  0
 53 51  1  0  0  0  0
 54 51  1  0  0  0  0
 55 56  1  0  0  0  0
 57 55  1  0  0  0  0
 58 55  1  0  0  0  0
 59  7  1  0  0  0  0
M  CHG  1   1  -1
M  END
