3,4,7,8
q = -2.0, confidence = 0.88

 42 43  0  0  0  0  0  0  0  0999 V2000
    2.2173   -3.5651    0.0000 O   0  0  0  0  0  0  0  0  0  0  0  0
    1.3104   -3.1715    0.0105 H   0  0  0  0  0  0  0  0  0  0  0  0
    1.0798   -1.2228    0.0262 O   0  5  0  0  0  0  0  0  0  0  0  0
   -1.4033   -1.0457   -0.0926 O   0  5  0  0  0  0  0  0  0  0  0  0
   -2.8635   -3.1795    0.2015 O   0  0  0  0  0  0  0  0  0  0  0  0
   -1.9105   -2.9251    0.1314 H   0  0  0  0  0  0  0  0  0  0  0  0
    1.2987    1.5084   -0.0254 N   0  0  0  0  0  2  0  0  0  0  0  0
   -1.2237    1.6495   -0.3443 N   0  0  0  0  0  2  0  0  0  0  0  0
    3.0292   -2.4848   -0.0117 C   0  0  0  0  0  0  0  0  0  0  0  0
    2.3882   -1.1956   -0.0029 C   0  0  0  0  0  0  0  0  0  0  0  0
    3.2029   -0.0238   -0.0133 C   0  0  0  0  0  0  0  0  0  0  0  0
    4.6279   -0.1525   -0.0288 C   0  0  0  0  0  3  0  0  0  0  0  0
    5.2436    0.7601   -0.0337 H   0  0  0  0  0  0  0  0  0  0  0  0
    5.2179   -1.4075   -0.0394 C   0  0  0  0  0  0  0  0  0  0  0  0
    6.3133   -1.5040   -0.0532 H   0  0  0  0  0  0  0  0  0  0  0  0
    4.4177   -2.5806   -0.0315 C   0  0  0  0  0  0  0  0  0  0  0  0
    4.8759   -3.5805   -0.0396 H   0  0  0  0  0  0  0  0  0  0  0  0
    2.5902    1.2647    0.0141 C   0  0  0  0  0  0  0  0  0  0  0  0
    3.2767    2.1286    0.0815 H   0  0  0  0  0  0  0  0  0  0  0  0
    0.7885    2.9018    0.1449 C   0  0  0  0  0  0  0  0  0  0  0  0
   -0.5259    2.8927   -0.6473 C   0  0  0  0  0  0  0  0  0  0  0  0
   -1.1509    3.7789   -0.4047 H   0  0  0  0  0  0  0  0  0  0  0  0
   -0.2922    2.9244   -1.7350 H   0  0  0  0  0  0  0  0  0  0  0  0
   -2.5381    1.6200   -0.3196 C   0  0  0  0  0  0  0  0  0  0  0  0
   -3.0703    2.5813   -0.4641 H   0  0  0  0  0  0  0  0  0  0  0  0
   -3.3335    0.4507   -0.1372 C   0  0  0  0  0  0  0  0  0  0  0  0
   -2.6928   -0.8226   -0.0413 C   0  0  0  0  0  0  0  0  0  0  0  0
   -3.5113   -1.9967    0.1169 C   0  0  0  0  0  0  0  0  0  0  0  0
   -4.8976   -1.8860    0.1787 C   0  0  0  0  0  0  0  0  0  0  0  0
   -5.4930   -2.8024    0.3033 H   0  0  0  0  0  0  0  0  0  0  0  0
   -5.5219   -0.6142    0.0815 C   0  0  0  0  0  0  0  0  0  0  0  0
   -6.6185   -0.5485    0.1307 H   0  0  0  0  0  0  0  0  0  0  0  0
   -4.7603    0.5342   -0.0748 C   0  0  0  0  0  3  0  0  0  0  0  0
   -5.2388    1.5225   -0.1531 H   0  0  0  0  0  0  0  0  0  0  0  0
    1.7246    3.9789   -0.4155 C   0  0  0  0  0  0  0  0  0  0  0  0
    2.6357    4.1041    0.2013 H   0  0  0  0  0  0  0  0  0  0  0  0
    1.2018    4.9558   -0.4158 H   0  0  0  0  0  0  0  0  0  0  0  0
    2.0286    3.7485   -1.4559 H   0  0  0  0  0  0  0  0  0  0  0  0
    0.5179    3.1377    1.6415 C   0  0  0  0  0  0  0  0  0  0  0  0
   -0.2003    2.3889    2.0287 H   0  0  0  0  0  0  0  0  0  0  0  0
    0.1002    4.1511    1.8075 H   0  0  0  0  0  0  0  0  0  0  0  0
    1.4576    3.0461    2.2210 H   0  0  0  0  0  0  0  0  0  0  0  0
  1  2  1  0  0  0  0
  4 27  1  0  0  0  0
  6  5  1  0  0  0  0
  7 18  1  0  0  0  0
  7 20  1  0  0  0  0
  8 24  1  0  0  0  0
  9 10  2  0  0  0  0
  9  1  1  0  0  0  0
 10  3  1  0  0  0  0
 11 10  1  0  0  0  0
 11 18  2  0  0  0  0
 12 11  1  0  0  0  0
 13 12  1  0  0  0  0
 14 16  2  0  0  0  0
 14 12  1  0  0  0  0
 15 14  1  0  0  0  0
 16  9  1  0  0  0  0
 17 16  1  0  0  0  0
 18 19  1  0  0  0  0
 20 39  1  0  0  0  0
 21 22  1  0  0  0  0
 21  8  1  0  0  0  0
 21 20  1  0  0  0  0
 23 21  1  0  0  0  0
 24 26  2  0  0  0  0
 25 24  1  0  0  0  0
 26 33  1  0  0  0  0
 26 27  1  0  0  0  0
 27 28  2  0  0  0  0
 28 29  1  0  0  0  0
 28  5  1  0  0  0  0
 29 30  1  0  0  0  0
 31 32  1  0  0  0  0
 31 29  2  0  0  0  0
 33 31  1  0  0  0  0
 34 33  1  0  0  0  0
 35 20  1  0  0  0  0
 35 36  1  0  0  0  0
 37 35  1  0  0  0  0
 38 35  1  0  0  0  0
 39 41  1  0  0  0  0
 39 40  1  0  0  0  0
 39 42  1  0  0  0  0
M  CHG  2   3  -1   4  -1
M  END
