2,3,5,6
q = -2.0, confidence = 0.858

 52 54  0  0  0  0  0  0  0  0999 V2000
   -2.9295    2.4866    0.0025 O   0  0  0  0  0  0  0  0  0  0  0  0
   -0.6504    1.2278    0.0018 O   0  5  0  0  0  0  0  0  0  0  0  0
   -0.6500   -1.2281   -0.0004 O   0  5  0  0  0  0  0  0  0  0  0  0
   -2.9286   -2.4875   -0.0007 O   0  0  0  0  0  0  0  0  0  0  0  0
    2.0854    1.2748    0.0001 N   0  0  0  0  0  2  0  0  0  0  0  0
    2.0858   -1.2742   -0.0002 N   0  0  0  0  0  2  0  0  0  0  0  0
   -5.2573    2.0223    0.0045 C   0  0  0  0  0  0  0  0  0  0  0  0
   -5.1510    1.3774   -0.8899 H   0  0  0  0  0  0  0  0  0  0  0  0
   -6.2730    2.4647    0.0045 H   0  0  0  0  0  0  0  0  0  0  0  0
   -5.1500    1.3801    0.9007 H   0  0  0  0  0  0  0  0  0  0  0  0
   -4.2038    3.1142    0.0022 C   0  0  0  0  0  0  0  0  0  0  0  0
   -4.3066    3.7691   -0.8960 H   0  0  0  0  0  0  0  0  0  0  0  0
   -4.3056    3.7719    0.8984 H   0  0  0  0  0  0  0  0  0  0  0  0
   -1.8208    3.2646    0.0001 C   0  0  0  0  0  0  0  0  0  0  0  0
   -1.8037    4.6569   -0.0022 C   0  0  0  0  0  0  0  0  0  0  0  0
   -2.7484    5.2175   -0.0022 H   0  0  0  0  0  0  0  0  0  0  0  0
   -0.5733    5.3759   -0.0047 C   0  0  0  0  0  0  0  0  0  0  0  0
   -0.5954    6.4754   -0.0064 H   0  0  0  0  0  0  0  0  0  0  0  0
    0.6291    4.6987   -0.0047 C   0  0  0  0  0  3  0  0  0  0  0  0
    1.5848    5.2453   -0.0065 H   0  0  0  0  0  0  0  0  0  0  0  0
    0.6557    3.2650   -0.0024 C   0  0  0  0  0  0  0  0  0  0  0  0
   -0.5759    2.5141   -0.0001 C   0  0  0  0  0  0  0  0  0  0  0  0
    1.9005    2.5892   -0.0020 C   0  0  0  0  0  0  0  0  0  0  0  0
    2.7983    3.2324   -0.0037 H   0  0  0  0  0  0  0  0  0  0  0  0
    3.3790    0.7106    0.0011 C   0  0  0  0  0  0  0  0  0  0  0  0
    4.6025    1.4104    0.0027 C   0  0  0  0  0  0  0  0  0  0  0  0
    4.6220    2.5087    0.0038 H   0  0  0  0  0  0  0  0  0  0  0  0
    5.8109    0.7046    0.0032 C   0  0  0  0  0  0  0  0  0  0  0  0
    6.7621    1.2571    0.0045 H   0  0  0  0  0  0  0  0  0  0  0  0
    5.8112   -0.7027    0.0022 C   0  0  0  0  0  0  0  0  0  0  0  0
    6.7626   -1.2548    0.0026 H   0  0  0  0  0  0  0  0  0  0  0  0
    4.6030   -1.4089    0.0010 C   0  0  0  0  0  0  0  0  0  0  0  0
    4.6229   -2.5072    0.0004 H   0  0  0  0  0  0  0  0  0  0  0  0
    3.3793   -0.7095    0.0006 C   0  0  0  0  0  0  0  0  0  0  0  0
    1.9013   -2.5886   -0.0009 C   0  0  0  0  0  0  0  0  0  0  0  0
    2.7994   -3.2315   -0.0011 H   0  0  0  0  0  0  0  0  0  0  0  0
    0.6568   -3.2648   -0.0013 C   0  0  0  0  0  0  0  0  0  0  0  0
    0.6307   -4.6986   -0.0019 C   0  0  0  0  0  3  0  0  0  0  0  0
    1.5866   -5.2448   -0.0022 H   0  0  0  0  0  0  0  0  0  0  0  0
   -0.5715   -5.3762   -0.0021 C   0  0  0  0  0  0  0  0  0  0  0  0
   -0.5932   -6.4756   -0.0026 H   0  0  0  0  0  0  0  0  0  0  0  0
   -1.8021   -4.6575   -0.0017 C   0  0  0  0  0  0  0  0  0  0  0  0
   -2.7466   -5.2185   -0.0019 H   0  0  0  0  0  0  0  0  0  0  0  0
   -1.8197   -3.2652   -0.0011 C   0  0  0  0  0  0  0  0  0  0  0  0
   -0.5751   -2.5143   -0.0009 C   0  0  0  0  0  0  0  0  0  0  0  0
   -4.2029   -3.1154   -0.0000 C   0  0  0  0  0  0  0  0  0  0  0  0
   -4.3044   -3.7720    0.8970 H   0  0  0  0  0  0  0  0  0  0  0  0
   -4.3058   -3.7714   -0.8974 H   0  0  0  0  0  0  0  0  0  0  0  0
   -5.2566   -2.0236    0.0011 C   0  0  0  0  0  0  0  0  0  0  0  0
   -5.1492   -1.3803    0.8965 H   0  0  0  0  0  0  0  0  0  0  0  0
   -6.2722   -2.4662    0.0017 H   0  0  0  0  0  0  0  0  0  0  0  0
   -5.1505   -1.3798   -0.8941 H   0  0  0  0  0  0  0  0  0  0  0  0
  4 46  1  0  0  0  0
  5 25  1  0  0  0  0
  6 34  1  0  0  0  0
  7 10  1  0  0  0  0
  8  7  1  0  0  0  0
  9  7  1  0  0  0  0
 11  1  1  0  0  0  0
 11  7  1  0  0  0  0
 11 13  1  0  0  0  0
 12 11  1  0  0  0  0
 14  1  1  0  0  0  0
 15 16  1  0  0  0  0
 15 14  1  0  0  0  0
 17 15  2  0  0  0  0
 18 17  1  0  0  0  0
 19 17  1  0  0  0  0
 19 21  1  0  0  0  0
 20 19  1  0  0  0  0
 21 23  2  0  0  0  0
 21 22  1  0  0  0  0
 22 14  2  0  0  0  0
 22  2  1  0  0  0  0
 23  5  1  0  0  0  0
 24 23  1  0  0  0  0
 25 26  1  0  0  0  0
 26 28  2  0  0  0  0
 26 27  1  0  0  0  0
 28 29  1  0  0  0  0
 30 31  1  0  0  0  0
 30 28  1  0  0  0  0
 32 30  2  0  0  0  0
 33 32  1  0  0  0  0
 34 32  1  0  0  0  0
 34 25  2  0  0  0  0
 35  6  1  0  0  0  0
 36 35  1  0  0  0  0
 37 35  2  0  0  0  0
 37 45  1  0  0  0  0
 38 37  1  0  0  0  0
 39 38  1  0  0  0  0
 40 38  1  0  0  0  0
 40 42  2  0  0  0  0
 41 40  1  0  0  0  0
 42 44  1  0  0  0  0
 43 42  1  0  0  0  0
 44 45  2  0  0  0  0
 44  4  1  0  0  0  0
 45  3  1  0  0  0  0
 46 49  1  0  0  0  0
 46 47  1  0  0  0  0
 48 46  1  0  0  0  0
 49 51  1  0  0  0  0
 49 50  1  0  0  0  0
 52 49  1  0  0  0  0
M  CHG  2   2  -1   3  -1
M  END
