1,3,6,8
q = -2.0, confidence = 0.864

 62 64  0  0  1  0  0  0  0  0999 V2000
    1.6215    0.3907   -1.0812 O   0  5  0  0  0  0  0  0  0  0  0  0
    1.5337   -2.4055    2.4459 O   0  0  0  0  0  0  0  0  0  0  0  0
   -0.7910   -0.6374   -1.1262 O   0  0  0  0  0  1  0  0  0  0  0  0
   -5.3406    0.2842    1.6789 O   0  0  0  0  0  0  0  0  0  0  0  0
    3.2630   -2.2566    0.8858 C   0  0  0  0  0  0  0  0  0  0  0  0
   -1.6436    1.5667    0.2176 N   0  0  0  0  0  2  0  0  0  0  0  0
    4.6892   -1.5076   -0.8763 N   0  0  0  0  0  0  0  0  0  0  0  0
    0.8674    2.3034    0.7594 N   0  0  0  0  0  0  0  0  0  0  0  0
   -3.0634   -0.3284   -0.3119 C   0  0  0  0  0  0  0  0  0  0  0  0
    0.3536   -0.4337    1.8209 N   0  0  0  0  0  0  0  0  0  0  0  0
   -0.5403   -0.6820    2.2496 H   0  0  0  0  0  0  0  0  0  0  0  0
   -3.5297   -2.9253   -1.3388 N   0  0  0  0  0  0  0  0  0  0  0  0
    1.0326   -1.6078    1.3471 C   0  0  1  0  0  0  0  0  0  0  0  0
    0.2623   -2.1898    0.7841 H   0  0  0  0  0  0  0  0  0  0  0  0
    0.3562    2.8995   -2.1290 N   0  0  0  0  0  0  0  0  0  0  0  0
    0.9708    2.1166   -2.3952 H   0  0  0  0  0  0  0  0  0  0  0  0
    0.0122    3.3434   -2.9874 H   0  0  0  0  0  0  0  0  0  0  0  0
    2.2486   -1.3812    0.4732 C   0  0  0  0  0  0  0  0  0  0  0  0
    2.7610   -3.0347    2.0766 C   0  0  0  0  0  0  0  0  0  0  0  0
    2.5916   -4.1087    1.8126 H   0  0  0  0  0  0  0  0  0  0  0  0
    3.4577   -3.0150    2.9439 H   0  0  0  0  0  0  0  0  0  0  0  0
    2.4549   -0.5262   -0.6376 C   0  0  0  0  0  0  0  0  0  0  0  0
   -2.0055   -1.0639   -0.9498 C   0  0  1  0  0  3  0  0  0  0  0  0
   -5.5494   -0.2049    0.3547 C   0  0  0  0  0  0  0  0  0  0  0  0
   -5.7910    0.6951   -0.2526 H   0  0  0  0  0  0  0  0  0  0  0  0
   -6.4405   -0.8746    0.2974 H   0  0  0  0  0  0  0  0  0  0  0  0
   -4.5208   -2.2155   -0.7492 C   0  0  0  0  0  0  0  0  0  0  0  0
   -5.5079   -2.7093   -0.6905 H   0  0  0  0  0  0  0  0  0  0  0  0
   -4.3627   -0.9308   -0.2350 C   0  0  0  0  0  0  0  0  0  0  0  0
    3.7412   -0.6582   -1.2851 C   0  0  0  0  0  0  0  0  0  0  0  0
    1.7547    1.6325    1.7580 C   0  0  0  0  0  0  0  0  0  0  0  0
    2.1938    2.4034    2.4344 H   0  0  0  0  0  0  0  0  0  0  0  0
    2.5895    1.1905    1.1845 H   0  0  0  0  0  0  0  0  0  0  0  0
    4.4753   -2.2982    0.1938 C   0  0  0  0  0  0  0  0  0  0  0  0
    5.2975   -2.9715    0.4940 H   0  0  0  0  0  0  0  0  0  0  0  0
    4.0272    0.2125   -2.4790 C   0  0  0  0  0  0  0  0  0  0  0  0
    5.0134   -0.0555   -2.8997 H   0  0  0  0  0  0  0  0  0  0  0  0
    4.0346    1.2906   -2.2051 H   0  0  0  0  0  0  0  0  0  0  0  0
    3.2427    0.0976   -3.2563 H   0  0  0  0  0  0  0  0  0  0  0  0
    1.7374    3.1502   -0.1059 C   0  0  0  0  0  0  0  0  0  0  0  0
    2.5123    2.4656   -0.5010 H   0  0  0  0  0  0  0  0  0  0  0  0
    2.2402    3.9154    0.5299 H   0  0  0  0  0  0  0  0  0  0  0  0
    1.0660    3.8459   -1.2868 C   0  0  0  0  0  0  0  0  0  0  0  0
    0.3561    4.6256   -0.9276 H   0  0  0  0  0  0  0  0  0  0  0  0
    1.8913    4.4113   -1.7919 H   0  0  0  0  0  0  0  0  0  0  0  0
    1.0934    0.5388    2.6092 C   0  0  0  0  0  0  0  0  0  0  0  0
    1.8990    0.0594    3.2118 H   0  0  0  0  0  0  0  0  0  0  0  0
    0.3950    0.9906    3.3430 H   0  0  0  0  0  0  0  0  0  0  0  0
   -2.3216   -2.3890   -1.4534 C   0  0  0  0  0  0  0  0  0  0  0  0
   -2.8240    0.9928    0.1981 C   0  0  0  0  0  0  0  0  0  0  0  0
   -3.6795    1.5481    0.6235 H   0  0  0  0  0  0  0  0  0  0  0  0
   -1.5072    2.9625    0.6140 C   0  0  0  0  0  0  0  0  0  0  0  0
   -2.3823    3.3117    1.2057 H   0  0  0  0  0  0  0  0  0  0  0  0
   -1.4497    3.5751   -0.3096 H   0  0  0  0  0  0  0  0  0  0  0  0
   -0.2200    3.0801    1.4224 C   0  0  0  0  0  0  0  0  0  0  0  0
    0.0862    4.1390    1.5680 H   0  0  0  0  0  0  0  0  0  0  0  0
   -0.3896    2.6424    2.4244 H   0  0  0  0  0  0  0  0  0  0  0  0
   -1.2267   -3.1706   -2.1192 C   0  0  0  0  0  0  0  0  0  0  0  0
   -1.6182   -4.1501   -2.4473 H   0  0  0  0  0  0  0  0  0  0  0  0
   -0.3674   -3.3199   -1.4315 H   0  0  0  0  0  0  0  0  0  0  0  0
   -0.8165   -2.6146   -2.9877 H   0  0  0  0  0  0  0  0  0  0  0  0
   -5.0005   -0.4676    2.1997 H   0  0  0  0  0  0  0  0  0  0  0  0
  1 22  1  0  0  0  0
  4 62  1  0  0  0  0
  5 19  1  0  0  0  0
  6 52  1  0  0  0  0
  7 34  1  0  0  0  0
  8 55  1  0  0  0  0
  8 31  1  0  0  0  0
  9 29  1  0  0  0  0
  9 50  2  0  0  0  0
 10 11  1  0  0  0  0
 10 46  1  0  0  0  0
 12 27  1  0  0  0  0
 13 14  1  6  0  0  0
 13 10  1  0  0  0  0
 13  2  1  0  0  0  0
 15 43  1  0  0  0  0
 16 15  1  0  0  0  0
 17 15  1  0  0  0  0
 18  5  1  0  0  0  0
 18 13  1  0  0  0  0
 19  2  1  0  0  0  0
 19 21  1  0  0  0  0
 20 19  1  0  0  0  0
 22 18  2  0  0  0  0
 23  3  1  6  0  0  0
 23  9  1  0  0  0  0
 24  4  1  0  0  0  0
 25 24  1  0  0  0  0
 26 24  1  0  0  0  0
 27 28  1  0  0  0  0
 27 29  2  0  0  0  0
 29 24  1  0  0  0  0
 30  7  2  0  0  0  0
 30 22  1  0  0  0  0
 31 32  1  0  0  0  0
 31 46  1  0  0  0  0
 33 31  1  0  0  0  0
 34 35  1  0  0  0  0
 34  5  2  0  0  0  0
 36 38  1  0  0  0  0
 36 30  1  0  0  0  0
 37 36  1  0  0  0  0
 39 36  1  0  0  0  0
 40 42  1  0  0  0  0
 40  8  1  0  0  0  0
 41 40  1  0  0  0  0
 43 44  1  0  0  0  0
 43 40  1  0  0  0  0
 45 43  1  0  0  0  0
 46 47  1  0  0  0  0
 46 48  1  0  0  0  0
 49 12  2  0  0  0  0
 49 23  1  0  0  0  0
 50  6  1  0  0  0  0
 50 51  1  0  0  0  0
 52 53  1  0  0  0  0
 52 55  1  0  0  0  0
 54 52  1  0  0  0  0
 55 56  1  0  0  0  0
 55 57  1  0  0  0  0
 58 49  1  0  0  0  0
 58 60  1  0  0  0  0
 59 58  1  0  0  0  0
 61 58  1  0  0  0  0
M  CHG  1   1  -1
M  END
