1,3,5,6
q = -2.0, confidence = 0.802

 41 41  0  0  1  0  0  0  0  0999 V2000
   -1.3449   -0.9932   -1.6825 O   0  5  0  0  0  0  0  0  0  0  0  0
   -3.3569   -1.9814   -1.5366 O   0  0  0  0  0  0  0  0  0  0  0  0
   -0.1471    1.4512   -2.0737 O   0  5  0  0  0  0  0  0  0  0  0  0
   -1.2356    3.2820   -2.8053 O   0  0  0  0  0  0  0  0  0  0  0  0
   -1.9277    0.9679   -0.0932 N   0  0  0  0  0  0  0  0  0  0  0  0
    0.9325    1.3158    0.3646 N   0  0  0  0  0  2  0  0  0  0  0  0
   -0.7473    1.2356    2.1390 C   0  0  0  0  0  0  0  0  0  0  0  0
    0.6412    1.5708    1.6677 C   0  0  2  0  0  3  0  0  0  0  0  0
    1.5770    2.2267    2.4854 C   0  0  0  0  0  0  0  0  0  0  0  0
    2.7996    2.6518    1.9520 C   0  0  0  0  0  0  0  0  0  0  0  0
    3.0407    2.4580    0.5849 C   0  0  0  0  0  0  0  0  0  0  0  0
    2.0764    1.7945   -0.1746 C   0  0  0  0  0  0  0  0  0  0  0  0
   -1.7981    1.7660    1.1546 C   0  0  0  0  0  0  0  0  0  0  0  0
   -2.8097   -0.2402    0.0671 C   0  0  2  0  0  0  0  0  0  0  0  0
   -2.5292   -1.1702   -1.1415 C   0  0  0  0  0  0  0  0  0  0  0  0
   -4.3030    0.0561    0.2467 C   0  0  0  0  0  0  0  0  0  0  0  0
   -5.0517   -1.0554    1.0096 C   0  0  0  0  0  0  0  0  0  0  0  0
   -6.5656   -0.8683    0.8672 C   0  0  0  0  0  0  0  0  0  0  0  0
   -4.6421   -1.1129    2.4864 C   0  0  0  0  0  0  0  0  0  0  0  0
   -2.3576    1.8196   -1.2441 C   0  0  0  0  0  0  0  0  0  0  0  0
   -1.1672    2.2792   -2.1110 C   0  0  0  0  0  0  0  0  0  0  0  0
   -0.8466    0.1378    2.2646 H   0  0  0  0  0  0  0  0  0  0  0  0
   -0.9165    1.7079    3.1260 H   0  0  0  0  0  0  0  0  0  0  0  0
    1.3248    2.4109    3.5398 H   0  0  0  0  0  0  0  0  0  0  0  0
    3.5421    3.1546    2.5892 H   0  0  0  0  0  0  0  0  0  0  0  0
    3.9630    2.8092    0.1035 H   0  0  0  0  0  0  0  0  0  0  0  0
    2.1827    1.6635   -1.2615 H   0  0  0  0  0  0  0  0  0  0  0  0
   -1.5345    2.8016    0.8610 H   0  0  0  0  0  0  0  0  0  0  0  0
   -2.7896    1.8115    1.6523 H   0  0  0  0  0  0  0  0  0  0  0  0
   -2.4130   -0.7776    0.9521 H   0  0  0  0  0  0  0  0  0  0  0  0
   -4.7692    0.1840   -0.7513 H   0  0  0  0  0  0  0  0  0  0  0  0
   -4.4464    1.0164    0.7919 H   0  0  0  0  0  0  0  0  0  0  0  0
   -4.7744   -2.0129    0.5189 H   0  0  0  0  0  0  0  0  0  0  0  0
   -6.8750   -0.8875   -0.1973 H   0  0  0  0  0  0  0  0  0  0  0  0
   -7.1217   -1.6688    1.3960 H   0  0  0  0  0  0  0  0  0  0  0  0
   -6.8907    0.1040    1.2973 H   0  0  0  0  0  0  0  0  0  0  0  0
   -5.1516   -1.9472    3.0093 H   0  0  0  0  0  0  0  0  0  0  0  0
   -3.5513   -1.2669    2.6204 H   0  0  0  0  0  0  0  0  0  0  0  0
   -4.9183   -0.1726    3.0121 H   0  0  0  0  0  0  0  0  0  0  0  0
   -3.0050    1.2166   -1.9104 H   0  0  0  0  0  0  0  0  0  0  0  0
   -2.9524    2.6901   -0.9059 H   0  0  0  0  0  0  0  0  0  0  0  0
  1 15  1  0  0  0  0
  2 15  2  0  0  0  0
  4 21  2  0  0  0  0
  5 14  1  0  0  0  0
  5 13  1  0  0  0  0
  6  8  1  0  0  0  0
  7 22  1  0  0  0  0
  7 23  1  0  0  0  0
  8  7  1  6  0  0  0
  8  9  1  0  0  0  0
  9 24  1  0  0  0  0
 10  9  2  0  0  0  0
 10 25  1  0  0  0  0
 11 10  1  0  0  0  0
 12  6  1  0  0  0  0
 12 11  2  0  0  0  0
 13 29  1  0  0  0  0
 13  7  1  0  0  0  0
 14 16  1  0  0  0  0
 14 30  1  1  0  0  0
 15 14  1  0  0  0  0
 16 32  1  0  0  0  0
 16 17  1  0  0  0  0
 17 19  1  0  0  0  0
 18 17  1  0  0  0  0
 18 36  1  0  0  0  0
 18 35  1  0  0  0  0
 19 38  1  0  0  0  0
 19 37  1  0  0  0  0
 19 39  1  0  0  0  0
 20 41  1  0  0  0  0
 20  5  1  0  0  0  0
 21  3  1  0  0  0  0
 21 20  1  0  0  0  0
 26 11  1  0  0  0  0
 27 12  1  0  0  0  0
 28 13  1  0  0  0  0
 31 16  1  0  0  0  0
 33 17  1  0  0  0  0
 34 18  1  0  0  0  0
 40 20  1  0  0  0  0
M  CHG  2   1  -1   3  -1
M  END
