1,20,35,54
q = -2.0, confidence = 0.956

 68 73  0  0  0  0  0  0  0  0999 V2000
   -1.4054    0.8628   -1.5339 O   0  5  0  0  0  0  0  0  0  0  0  0
   -2.6729    0.7127   -1.4056 C   0  0  0  0  0  0  0  0  0  0  0  0
   -3.5263    1.6715   -2.0784 C   0  0  0  0  0  0  0  0  0  0  0  0
   -3.0085    2.4476   -2.6607 H   0  0  0  0  0  0  0  0  0  0  0  0
   -4.8918    1.6231   -1.9830 C   0  0  0  0  0  0  0  0  0  0  0  0
   -5.5103    2.3731   -2.5026 H   0  0  0  0  0  0  0  0  0  0  0  0
   -5.5593    0.6217   -1.1985 C   0  0  0  0  0  0  0  0  0  0  0  0
   -6.9732    0.6182   -1.0807 C   0  0  0  0  0  0  0  0  0  0  0  0
   -7.5440    1.3915   -1.6188 H   0  0  0  0  0  0  0  0  0  0  0  0
   -7.6299   -0.3296   -0.3027 C   0  0  0  0  0  0  0  0  0  0  0  0
   -8.7267   -0.3224   -0.2173 H   0  0  0  0  0  0  0  0  0  0  0  0
   -6.8646   -1.2928    0.3906 C   0  0  0  0  0  0  0  0  0  0  0  0
   -7.3662   -2.0364    1.0290 H   0  0  0  0  0  0  0  0  0  0  0  0
   -5.4743   -1.3061    0.2902 C   0  0  0  0  0  0  0  0  0  0  0  0
   -4.9217   -2.0526    0.8778 H   0  0  0  0  0  0  0  0  0  0  0  0
   -4.7709   -0.3704   -0.5192 C   0  0  0  0  0  0  0  0  0  0  0  0
   -3.3148   -0.3634   -0.6669 C   0  0  0  0  0  0  0  0  0  0  0  0
   -2.5767   -1.4698   -0.1609 C   0  0  0  0  0  3  0  0  0  0  0  0
   -3.1760   -2.3400    0.1734 H   0  0  0  0  0  0  0  0  0  0  0  0
   -1.2629   -1.5918   -0.0423 N   0  0  0  0  0  2  0  0  0  0  0  0
   -0.6953   -2.8218    0.2971 C   0  0  0  0  0  0  0  0  0  0  0  0
   -1.2164   -4.0552   -0.1621 C   0  0  0  0  0  0  0  0  0  0  0  0
   -2.0957   -4.0472   -0.8230 H   0  0  0  0  0  0  0  0  0  0  0  0
   -0.5916   -5.2660    0.1588 C   0  0  0  0  0  0  0  0  0  0  0  0
   -1.0117   -6.2088   -0.2237 H   0  0  0  0  0  0  0  0  0  0  0  0
    0.5774   -5.2811    0.9371 C   0  0  0  0  0  0  0  0  0  0  0  0
    1.0768   -6.2312    1.1771 H   0  0  0  0  0  0  0  0  0  0  0  0
    1.1100   -4.0704    1.4030 C   0  0  0  0  0  0  0  0  0  0  0  0
    2.0221   -4.0552    2.0178 H   0  0  0  0  0  0  0  0  0  0  0  0
    0.4838   -2.8500    1.0998 C   0  0  0  0  0  0  0  0  0  0  0  0
    1.2265   -1.3320    1.6695 S   0  0  0  0  0  0  0  0  0  0  0  0
    0.0601   -0.7610    2.9824 C   0  0  0  0  0  0  0  0  0  0  0  0
   -0.9219   -1.2466    2.8117 H   0  0  0  0  0  0  0  0  0  0  0  0
    0.4482   -1.1118    3.9603 H   0  0  0  0  0  0  0  0  0  0  0  0
    1.4054   -0.8628   -1.5339 O   0  5  0  0  0  0  0  0  0  0  0  0
    2.6728   -0.7128   -1.4056 C   0  0  0  0  0  0  0  0  0  0  0  0
    3.5262   -1.6715   -2.0784 C   0  0  0  0  0  0  0  0  0  0  0  0
    3.0084   -2.4477   -2.6607 H   0  0  0  0  0  0  0  0  0  0  0  0
    4.8917   -1.6231   -1.9830 C   0  0  0  0  0  0  0  0  0  0  0  0
    5.5102   -2.3732   -2.5026 H   0  0  0  0  0  0  0  0  0  0  0  0
    5.5592   -0.6218   -1.1985 C   0  0  0  0  0  0  0  0  0  0  0  0
    6.9732   -0.6183   -1.0807 C   0  0  0  0  0  0  0  0  0  0  0  0
    7.5440   -1.3916   -1.6188 H   0  0  0  0  0  0  0  0  0  0  0  0
    7.6299    0.3296   -0.3027 C   0  0  0  0  0  0  0  0  0  0  0  0
    8.7266    0.3223   -0.2173 H   0  0  0  0  0  0  0  0  0  0  0  0
    6.8646    1.2927    0.3906 C   0  0  0  0  0  0  0  0  0  0  0  0
    7.3662    2.0363    1.0289 H   0  0  0  0  0  0  0  0  0  0  0  0
    5.4743    1.3061    0.2901 C   0  0  0  0  0  0  0  0  0  0  0  0
    4.9217    2.0526    0.8777 H   0  0  0  0  0  0  0  0  0  0  0  0
    4.7709    0.3703   -0.5192 C   0  0  0  0  0  0  0  0  0  0  0  0
    3.3148    0.3634   -0.6669 C   0  0  0  0  0  0  0  0  0  0  0  0
    2.5767    1.4698   -0.1609 C   0  0  0  0  0  3  0  0  0  0  0  0
    3.1760    2.3400    0.1733 H   0  0  0  0  0  0  0  0  0  0  0  0
    1.2628    1.5918   -0.0423 N   0  0  0  0  0  2  0  0  0  0  0  0
   -0.0600    0.7611    2.9824 C   0  0  0  0  0  0  0  0  0  0  0  0
   -1.2265    1.3320    1.6695 S   0  0  0  0  0  0  0  0  0  0  0  0
   -0.4838    2.8501    1.0998 C   0  0  0  0  0  0  0  0  0  0  0  0
    0.6953    2.8218    0.2970 C   0  0  0  0  0  0  0  0  0  0  0  0
    1.2164    4.0552   -0.1621 C   0  0  0  0  0  0  0  0  0  0  0  0
    2.0957    4.0472   -0.8231 H   0  0  0  0  0  0  0  0  0  0  0  0
    0.5916    5.2660    0.1587 C   0  0  0  0  0  0  0  0  0  0  0  0
    1.0118    6.2088   -0.2238 H   0  0  0  0  0  0  0  0  0  0  0  0
   -0.5773    5.2811    0.9371 C   0  0  0  0  0  0  0  0  0  0  0  0
   -1.0768    6.2312    1.1770 H   0  0  0  0  0  0  0  0  0  0  0  0
   -1.1100    4.0704    1.4030 C   0  0  0  0  0  0  0  0  0  0  0  0
   -2.0221    4.0553    2.0178 H   0  0  0  0  0  0  0  0  0  0  0  0
    0.9220    1.2466    2.8117 H   0  0  0  0  0  0  0  0  0  0  0  0
   -0.4481    1.1119    3.9603 H   0  0  0  0  0  0  0  0  0  0  0  0
  1  2  1  0  0  0  0
  2 17  1  0  0  0  0
  3  5  1  0  0  0  0
  3  2  2  0  0  0  0
  4  3  1  0  0  0  0
  5  7  2  0  0  0  0
  6  5  1  0  0  0  0
  7  8  1  0  0  0  0
  7 16  1  0  0  0  0
  8 10  2  0  0  0  0
  9  8  1  0  0  0  0
 10 11  1  0  0  0  0
 10 12  1  0  0  0  0
 12 13  1  0  0  0  0
 14 12  2  0  0  0  0
 14 15  1  0  0  0  0
 16 14  1  0  0  0  0
 17 16  2  0  0  0  0
 17 18  1  0  0  0  0
 18 20  1  0  0  0  0
 18 19  1  0  0  0  0
 20 21  1  0  0  0  0
 21 30  1  0  0  0  0
 22 24  1  0  0  0  0
 22 21  2  0  0  0  0
 23 22  1  0  0  0  0
 24 26  2  0  0  0  0
 25 24  1  0  0  0  0
 26 27  1  0  0  0  0
 26 28  1  0  0  0  0
 28 29  1  0  0  0  0
 30 28  2  0  0  0  0
 30 31  1  0  0  0  0
 31 32  1  0  0  0  0
 32 55  1  0  0  0  0
 32 34  1  0  0  0  0
 33 32  1  0  0  0  0
 35 36  1  0  0  0  0
 36 51  1  0  0  0  0
 37 39  1  0  0  0  0
 37 36  2  0  0  0  0
 38 37  1  0  0  0  0
 39 41  2  0  0  0  0
 40 39  1  0  0  0  0
 41 42  1  0  0  0  0
 41 50  1  0  0  0  0
 42 44  2  0  0  0  0
 43 42  1  0  0  0  0
 44 45  1  0  0  0  0
 44 46  1  0  0  0  0
 46 47  1  0  0  0  0
 48 46  2  0  0  0  0
 48 49  1  0  0  0  0
 50 48  1  0  0  0  0
 51 50  2  0  0  0  0
 51 52  1  0  0  0  0
 52 54  1  0  0  0  0
 52 53  1  0  0  0  0
 54 58  1  0  0  0  0
 55 68  1  0  0  0  0
 56 55  1  0  0  0  0
 57 65  1  0  0  0  0
 57 56  1  0  0  0  0
 58 57  2  0  0  0  0
 59 61  2  0  0  0  0
 59 58  1  0  0  0  0
 60 59  1  0  0  0  0
 61 63  1  0  0  0  0
 62 61  1  0  0  0  0
 63 64  1  0  0  0  0
 63 65  2  0  0  0  0
 65 66  1  0  0  0  0
 67 55  1  0  0  0  0
M  CHG  2   1  -1  35  -1
M  END
