1,2,3,4
q = -2.0, confidence = 0.816

 60 63  0  0  1  0  0  0  0  0999 V2000
    1.2277   -0.8795   -0.6573 N   0  0  0  0  0  2  0  0  0  0  0  0
   -0.8062    0.7090   -0.7370 N   0  0  0  0  0  2  0  0  0  0  0  0
    2.6468    1.0510    0.5538 O   0  5  0  0  0  0  0  0  0  0  0  0
    0.6347    2.4809    0.7429 O   0  5  0  0  0  0  0  0  0  0  0  0
   -2.5036   -1.1435   -0.9722 C   0  0  0  0  0  0  0  0  0  0  0  0
   -0.0346   -1.6160   -0.7079 C   0  0  1  0  0  0  0  0  0  0  0  0
    0.0158   -2.4476   -1.4396 H   0  0  0  0  0  0  0  0  0  0  0  0
    3.6462   -0.8326   -0.6243 C   0  0  0  0  0  0  0  0  0  0  0  0
   -0.3742   -2.2301    0.6475 C   0  0  0  0  0  0  0  0  0  0  0  0
   -0.3834    3.2670    0.5791 C   0  0  0  0  0  0  0  0  0  0  0  0
    2.3820   -1.5090   -0.8319 C   0  0  0  0  0  0  0  0  0  0  0  0
   -1.6224    1.7284   -0.9934 C   0  0  0  0  0  0  0  0  0  0  0  0
   -1.1051   -0.6326   -1.2714 C   0  0  2  0  0  0  0  0  0  0  0  0
   -0.9572   -0.6202   -2.3760 H   0  0  0  0  0  0  0  0  0  0  0  0
   -3.1321   -0.8587    0.2554 C   0  0  0  0  0  0  0  0  0  0  0  0
   -2.6289   -0.2034    0.9813 H   0  0  0  0  0  0  0  0  0  0  0  0
    3.6884    0.4182    0.1067 C   0  0  0  0  0  0  0  0  0  0  0  0
    4.8768   -1.3966   -1.0748 C   0  0  0  0  0  3  0  0  0  0  0  0
    4.8580   -2.3217   -1.6685 H   0  0  0  0  0  0  0  0  0  0  0  0
   -4.3836   -1.4130    0.5554 C   0  0  0  0  0  0  0  0  0  0  0  0
   -4.8626   -1.1840    1.5193 H   0  0  0  0  0  0  0  0  0  0  0  0
   -3.1490   -1.9920   -1.8894 C   0  0  0  0  0  0  0  0  0  0  0  0
   -2.6662   -2.2135   -2.8555 H   0  0  0  0  0  0  0  0  0  0  0  0
    6.1039   -0.7999   -0.8181 C   0  0  0  0  0  0  0  0  0  0  0  0
    7.0309   -1.2543   -1.1962 H   0  0  0  0  0  0  0  0  0  0  0  0
   -1.4929    3.0011   -0.3112 C   0  0  0  0  0  0  0  0  0  0  0  0
   -0.0116   -1.6020    1.8544 C   0  0  0  0  0  0  0  0  0  0  0  0
    0.5924   -0.6802    1.8245 H   0  0  0  0  0  0  0  0  0  0  0  0
   -1.3950    5.4350    1.1567 C   0  0  0  0  0  0  0  0  0  0  0  0
   -1.3566    6.3764    1.7272 H   0  0  0  0  0  0  0  0  0  0  0  0
   -2.7374    1.5817   -2.0064 C   0  0  0  0  0  0  0  0  0  0  0  0
   -2.5494    0.7595   -2.7170 H   0  0  0  0  0  0  0  0  0  0  0  0
   -2.8375    2.5166   -2.5876 H   0  0  0  0  0  0  0  0  0  0  0  0
   -3.7126    1.3759   -1.5206 H   0  0  0  0  0  0  0  0  0  0  0  0
   -1.1066   -3.4324    0.6985 C   0  0  0  0  0  0  0  0  0  0  0  0
   -1.3951   -3.9321   -0.2397 H   0  0  0  0  0  0  0  0  0  0  0  0
    4.9734    0.9863    0.3898 C   0  0  0  0  0  0  0  0  0  0  0  0
    4.9784    1.9212    0.9683 H   0  0  0  0  0  0  0  0  0  0  0  0
    2.3645   -2.9767   -1.1994 C   0  0  0  0  0  0  0  0  0  0  0  0
    1.7566   -3.5436   -0.4650 H   0  0  0  0  0  0  0  0  0  0  0  0
    3.3751   -3.4134   -1.1985 H   0  0  0  0  0  0  0  0  0  0  0  0
    1.9159   -3.1451   -2.2006 H   0  0  0  0  0  0  0  0  0  0  0  0
    6.1443    0.3984   -0.0632 C   0  0  0  0  0  0  0  0  0  0  0  0
    7.1125    0.8741    0.1597 H   0  0  0  0  0  0  0  0  0  0  0  0
   -0.3996   -2.1525    3.0850 C   0  0  0  0  0  0  0  0  0  0  0  0
   -0.1092   -1.6486    4.0194 H   0  0  0  0  0  0  0  0  0  0  0  0
   -1.1479   -3.3392    3.1263 C   0  0  0  0  0  0  0  0  0  0  0  0
   -1.4517   -3.7690    4.0930 H   0  0  0  0  0  0  0  0  0  0  0  0
   -0.3848    4.4989    1.3120 C   0  0  0  0  0  0  0  0  0  0  0  0
    0.4671    4.6686    1.9860 H   0  0  0  0  0  0  0  0  0  0  0  0
   -4.3995   -2.5535   -1.5878 C   0  0  0  0  0  0  0  0  0  0  0  0
   -4.8938   -3.2142   -2.3162 H   0  0  0  0  0  0  0  0  0  0  0  0
   -2.5055    3.9993   -0.4442 C   0  0  0  0  0  3  0  0  0  0  0  0
   -3.3596    3.8137   -1.1096 H   0  0  0  0  0  0  0  0  0  0  0  0
   -2.4713    5.1906    0.2681 C   0  0  0  0  0  0  0  0  0  0  0  0
   -3.2763    5.9298    0.1485 H   0  0  0  0  0  0  0  0  0  0  0  0
   -5.0200   -2.2648   -0.3626 C   0  0  0  0  0  0  0  0  0  0  0  0
   -6.0021   -2.7006   -0.1243 H   0  0  0  0  0  0  0  0  0  0  0  0
   -1.4944   -3.9830    1.9278 C   0  0  0  0  0  0  0  0  0  0  0  0
   -2.0720   -4.9196    1.9488 H   0  0  0  0  0  0  0  0  0  0  0  0
  5 15  1  0  0  0  0
  6  7  1  6  0  0  0
  6  1  1  0  0  0  0
  6  9  1  0  0  0  0
  8 17  1  0  0  0  0
  9 35  2  0  0  0  0
  9 27  1  0  0  0  0
 10  4  1  0  0  0  0
 10 49  2  0  0  0  0
 11  1  1  0  0  0  0
 11  8  2  0  0  0  0
 12  2  1  0  0  0  0
 12 26  2  0  0  0  0
 13 14  1  6  0  0  0
 13  5  1  0  0  0  0
 13  2  1  0  0  0  0
 13  6  1  0  0  0  0
 15 20  2  0  0  0  0
 15 16  1  0  0  0  0
 17 37  2  0  0  0  0
 17  3  1  0  0  0  0
 18 24  1  0  0  0  0
 18  8  1  0  0  0  0
 19 18  1  0  0  0  0
 20 21  1  0  0  0  0
 22 51  1  0  0  0  0
 22  5  2  0  0  0  0
 23 22  1  0  0  0  0
 24 43  2  0  0  0  0
 25 24  1  0  0  0  0
 26 10  1  0  0  0  0
 27 45  2  0  0  0  0
 28 27  1  0  0  0  0
 29 49  1  0  0  0  0
 29 30  1  0  0  0  0
 31 34  1  0  0  0  0
 31 12  1  0  0  0  0
 32 31  1  0  0  0  0
 33 31  1  0  0  0  0
 35 59  1  0  0  0  0
 36 35  1  0  0  0  0
 37 38  1  0  0  0  0
 39 41  1  0  0  0  0
 39 11  1  0  0  0  0
 39 40  1  0  0  0  0
 42 39  1  0  0  0  0
 43 44  1  0  0  0  0
 43 37  1  0  0  0  0
 45 47  1  0  0  0  0
 45 46  1  0  0  0  0
 47 48  1  0  0  0  0
 49 50  1  0  0  0  0
 51 57  2  0  0  0  0
 52 51  1  0  0  0  0
 53 26  1  0  0  0  0
 53 55  1  0  0  0  0
 54 53  1  0  0  0  0
 55 29  2  0  0  0  0
 56 55  1  0  0  0  0
 57 58  1  0  0  0  0
 57 20  1  0  0  0  0
 59 60  1  0  0  0  0
 59 47  2  0  0  0  0
M  CHG  2   3  -1   4  -1
M  END
