3,4,5,13
q = -2.0, confidence = 0.84

 58 61  0  0  1  0  0  0  0  0999 V2000
   -7.6274   -0.2231   -0.5271 Br  0  0  0  0  0  0  0  0  0  0  0  0
    6.7984   -2.3655   -0.0449 Br  0  0  0  0  0  0  0  0  0  0  0  0
   -1.6664   -1.1972    0.0375 O   0  5  0  0  0  0  0  0  0  0  0  0
    0.7784   -1.6248   -0.1697 O   0  5  0  0  0  0  0  0  0  0  0  0
   -1.2812    1.4233   -0.4772 N   0  0  0  0  0  2  0  0  0  0  0  0
   -2.9242   -0.9482   -0.0513 C   0  0  0  0  0  0  0  0  0  0  0  0
    4.3811   -0.8602   -0.3951 C   0  0  0  0  0  3  0  0  0  0  0  0
    5.0471   -0.0086   -0.5989 H   0  0  0  0  0  0  0  0  0  0  0  0
   -2.5922    1.4786   -0.5014 C   0  0  0  0  0  0  0  0  0  0  0  0
   -3.0584    2.4775   -0.6098 H   0  0  0  0  0  0  0  0  0  0  0  0
   -2.4948   -3.4390    1.2749 O   0  0  0  0  0  0  0  0  0  0  0  0
   -3.9016   -1.9903    0.1437 C   0  0  0  0  0  0  0  0  0  0  0  0
    1.2161    1.0014   -0.7270 N   0  0  0  0  0  2  0  0  0  0  0  0
    2.0572   -1.7562   -0.1791 C   0  0  0  0  0  0  0  0  0  0  0  0
    2.4773    0.6425   -0.7344 C   0  0  0  0  0  0  0  0  0  0  0  0
    3.2252    1.4104   -1.0049 H   0  0  0  0  0  0  0  0  0  0  0  0
   -3.4702    0.3587   -0.3668 C   0  0  0  0  0  0  0  0  0  0  0  0
   -4.8688    0.5626   -0.4942 C   0  0  0  0  0  3  0  0  0  0  0  0
   -5.2469    1.5703   -0.7219 H   0  0  0  0  0  0  0  0  0  0  0  0
   -5.2668   -1.7818   -0.0252 C   0  0  0  0  0  0  0  0  0  0  0  0
   -5.9388   -2.6426    0.0936 H   0  0  0  0  0  0  0  0  0  0  0  0
    1.8609    3.4339   -1.1323 C   0  0  0  0  0  0  0  0  0  0  0  0
   -0.5085    2.6729   -0.4431 C   0  0  1  0  0  0  0  0  0  0  0  0
   -1.0403    3.4611   -1.0178 H   0  0  0  0  0  0  0  0  0  0  0  0
    4.9147   -2.1118   -0.1029 C   0  0  0  0  0  0  0  0  0  0  0  0
   -3.4793   -3.3479    0.5499 N   0  0  0  0  0  0  0  0  0  0  0  0
   -0.3132    3.1710    0.9803 C   0  0  0  0  0  0  0  0  0  0  0  0
    4.0556   -3.1994    0.1479 C   0  0  0  0  0  0  0  0  0  0  0  0
    4.4428   -4.1965    0.3974 H   0  0  0  0  0  0  0  0  0  0  0  0
    1.8479   -4.2407    0.2855 N   0  0  0  0  0  0  0  0  0  0  0  0
    2.9765   -0.6629   -0.4255 C   0  0  0  0  0  0  0  0  0  0  0  0
    2.3099   -5.1109    1.0293 O   0  0  0  0  0  0  0  0  0  0  0  0
   -0.2743    4.5570    1.2238 C   0  0  0  0  0  0  0  0  0  0  0  0
   -0.4321    5.2597    0.3905 H   0  0  0  0  0  0  0  0  0  0  0  0
   -5.7558   -0.4975   -0.3367 C   0  0  0  0  0  0  0  0  0  0  0  0
    2.6754   -3.0321    0.0827 C   0  0  0  0  0  0  0  0  0  0  0  0
    0.8096    2.3472   -1.1972 C   0  0  2  0  0  0  0  0  0  0  0  0
    0.5163    2.2200   -2.2631 H   0  0  0  0  0  0  0  0  0  0  0  0
    0.7863   -4.3083   -0.3237 O   0  0  0  0  0  0  0  0  0  0  0  0
   -4.1773   -4.2871    0.1582 O   0  0  0  0  0  0  0  0  0  0  0  0
   -0.1074    2.2808    2.0525 C   0  0  0  0  0  0  0  0  0  0  0  0
   -0.1612    1.1948    1.8764 H   0  0  0  0  0  0  0  0  0  0  0  0
    2.5783    3.7119    0.0521 C   0  0  0  0  0  0  0  0  0  0  0  0
    2.4039    3.1089    0.9549 H   0  0  0  0  0  0  0  0  0  0  0  0
   -0.0170    5.0481    2.5119 C   0  0  0  0  0  0  0  0  0  0  0  0
    0.0115    6.1341    2.6870 H   0  0  0  0  0  0  0  0  0  0  0  0
    2.1056    4.2204   -2.2743 C   0  0  0  0  0  0  0  0  0  0  0  0
    1.5579    4.0049   -3.2058 H   0  0  0  0  0  0  0  0  0  0  0  0
    0.1516    2.7718    3.3403 C   0  0  0  0  0  0  0  0  0  0  0  0
    0.3086    2.0654    4.1693 H   0  0  0  0  0  0  0  0  0  0  0  0
    0.2029    4.1558    3.5727 C   0  0  0  0  0  0  0  0  0  0  0  0
    0.4038    4.5389    4.5846 H   0  0  0  0  0  0  0  0  0  0  0  0
    3.5147    4.7537    0.0850 C   0  0  0  0  0  0  0  0  0  0  0  0
    4.0668    4.9578    1.0147 H   0  0  0  0  0  0  0  0  0  0  0  0
    3.7436    5.5383   -1.0574 C   0  0  0  0  0  0  0  0  0  0  0  0
    4.4785    6.3569   -1.0271 H   0  0  0  0  0  0  0  0  0  0  0  0
    3.0364    5.2702   -2.2387 C   0  0  0  0  0  0  0  0  0  0  0  0
    3.2140    5.8751   -3.1405 H   0  0  0  0  0  0  0  0  0  0  0  0
  1 35  1  0  0  0  0
  5 23  1  0  0  0  0
  6  3  1  0  0  0  0
  6 12  2  0  0  0  0
  7 25  1  0  0  0  0
  8  7  1  0  0  0  0
  9  5  1  0  0  0  0
  9 17  2  0  0  0  0
 10  9  1  0  0  0  0
 12 26  1  0  0  0  0
 14  4  1  0  0  0  0
 14 36  2  0  0  0  0
 15 13  1  0  0  0  0
 15 31  2  0  0  0  0
 16 15  1  0  0  0  0
 17  6  1  0  0  0  0
 18 17  1  0  0  0  0
 18 35  1  0  0  0  0
 19 18  1  0  0  0  0
 20 21  1  0  0  0  0
 20 12  1  0  0  0  0
 22 43  1  0  0  0  0
 23 24  1  6  0  0  0
 23 27  1  0  0  0  0
 25  2  1  0  0  0  0
 25 28  2  0  0  0  0
 26 11  2  0  0  0  0
 27 33  2  0  0  0  0
 27 41  1  0  0  0  0
 28 29  1  0  0  0  0
 30 32  2  0  0  0  0
 31  7  1  0  0  0  0
 31 14  1  0  0  0  0
 33 45  1  0  0  0  0
 34 33  1  0  0  0  0
 35 20  2  0  0  0  0
 36 28  1  0  0  0  0
 36 30  1  0  0  0  0
 37 38  1  6  0  0  0
 37 22  1  0  0  0  0
 37 13  1  0  0  0  0
 37 23  1  0  0  0  0
 39 30  2  0  0  0  0
 40 26  2  0  0  0  0
 41 49  2  0  0  0  0
 42 41  1  0  0  0  0
 43 53  2  0  0  0  0
 43 44  1  0  0  0  0
 45 46  1  0  0  0  0
 45 51  2  0  0  0  0
 47 57  1  0  0  0  0
 47 22  2  0  0  0  0
 48 47  1  0  0  0  0
 49 51  1  0  0  0  0
 49 50  1  0  0  0  0
 51 52  1  0  0  0  0
 53 54  1  0  0  0  0
 55 56  1  0  0  0  0
 55 53  1  0  0  0  0
 57 55  2  0  0  0  0
 58 57  1  0  0  0  0
M  CHG  2   3  -1   4  -1
M  END
