1,2,3,4
q = -2.0, confidence = 0.864

 50 51  0  0  0  0  0  0  0  0999 V2000
   -0.4731    0.7866   -1.2026 O   0  5  0  0  0  0  0  0  0  0  0  0
    1.7996   -1.0079   -1.0238 O   0  5  0  0  0  0  0  0  0  0  0  0
    0.6128    0.5939    1.3282 N   0  0  0  0  0  0  0  0  0  0  0  0
   -2.1105   -0.6155    0.7774 N   0  0  0  0  0  0  0  0  0  0  0  0
    2.9053   -0.4786   -0.4813 C   0  0  0  0  0  0  0  0  0  0  0  0
    4.0523   -0.4636   -1.3183 C   0  0  0  0  0  0  0  0  0  0  0  0
    3.9279   -0.8798   -2.3283 H   0  0  0  0  0  0  0  0  0  0  0  0
    5.2755    0.0459   -0.8821 C   0  0  0  0  0  0  0  0  0  0  0  0
    6.1419    0.0376   -1.5614 H   0  0  0  0  0  0  0  0  0  0  0  0
    5.3973    0.5699    0.4167 C   0  0  0  0  0  0  0  0  0  0  0  0
    6.3541    0.9779    0.7734 H   0  0  0  0  0  0  0  0  0  0  0  0
    4.2750    0.5702    1.2522 C   0  0  0  0  0  0  0  0  0  0  0  0
    4.3592    0.9847    2.2704 H   0  0  0  0  0  0  0  0  0  0  0  0
    3.0256    0.0528    0.8472 C   0  0  0  0  0  0  0  0  0  0  0  0
    1.9065    0.0587    1.8682 C   0  0  0  0  0  0  0  0  0  0  0  0
    1.6936   -0.9600    2.2434 H   0  0  0  0  0  0  0  0  0  0  0  0
    2.2164    0.6840    2.7366 H   0  0  0  0  0  0  0  0  0  0  0  0
   -0.7835    2.0618   -0.9727 C   0  0  0  0  0  0  0  0  0  0  0  0
   -1.7112    2.7474   -1.7877 C   0  0  0  0  0  0  0  0  0  0  0  0
   -2.1369    2.2210   -2.6543 H   0  0  0  0  0  0  0  0  0  0  0  0
   -2.0629    4.0688   -1.4813 C   0  0  0  0  0  0  0  0  0  0  0  0
   -2.7863    4.5986   -2.1197 H   0  0  0  0  0  0  0  0  0  0  0  0
   -1.5025    4.7180   -0.3675 C   0  0  0  0  0  0  0  0  0  0  0  0
   -1.7859    5.7530   -0.1270 H   0  0  0  0  0  0  0  0  0  0  0  0
   -0.5701    4.0393    0.4335 C   0  0  0  0  0  0  0  0  0  0  0  0
   -0.1133    4.5455    1.2994 H   0  0  0  0  0  0  0  0  0  0  0  0
   -0.1963    2.7178    0.1400 C   0  0  0  0  0  0  0  0  0  0  0  0
    0.8843    2.0027    0.8915 C   0  0  0  0  0  0  0  0  0  0  0  0
    1.1734    2.5863    1.7942 H   0  0  0  0  0  0  0  0  0  0  0  0
    1.7907    1.9369    0.2513 H   0  0  0  0  0  0  0  0  0  0  0  0
   -0.4787    0.5219    2.3447 C   0  0  0  0  0  0  0  0  0  0  0  0
   -0.3965    1.3715    3.0600 H   0  0  0  0  0  0  0  0  0  0  0  0
   -0.3209   -0.4121    2.9183 H   0  0  0  0  0  0  0  0  0  0  0  0
   -1.8762    0.5268    1.7193 C   0  0  0  0  0  0  0  0  0  0  0  0
   -2.6221    0.5090    2.5448 H   0  0  0  0  0  0  0  0  0  0  0  0
   -2.0335    1.4690    1.1632 H   0  0  0  0  0  0  0  0  0  0  0  0
   -3.1653   -0.2756   -0.2326 C   0  0  0  0  0  0  0  0  0  0  0  0
   -3.1510   -1.0899   -0.9821 H   0  0  0  0  0  0  0  0  0  0  0  0
   -2.8172    0.6286   -0.7616 H   0  0  0  0  0  0  0  0  0  0  0  0
   -2.5075   -1.8220    1.5784 C   0  0  0  0  0  0  0  0  0  0  0  0
   -3.3658   -1.5328    2.2267 H   0  0  0  0  0  0  0  0  0  0  0  0
   -1.6561   -2.0510    2.2449 H   0  0  0  0  0  0  0  0  0  0  0  0
   -4.5702   -0.0369    0.3160 C   0  0  0  0  0  0  0  0  0  0  0  0
   -5.2310    0.2661   -0.5203 H   0  0  0  0  0  0  0  0  0  0  0  0
   -4.6000    0.7812    1.0641 H   0  0  0  0  0  0  0  0  0  0  0  0
   -5.0174   -0.9410    0.7743 H   0  0  0  0  0  0  0  0  0  0  0  0
   -2.8547   -3.0566    0.7599 C   0  0  0  0  0  0  0  0  0  0  0  0
   -2.9466   -3.9239    1.4428 H   0  0  0  0  0  0  0  0  0  0  0  0
   -2.0734   -3.2817    0.0089 H   0  0  0  0  0  0  0  0  0  0  0  0
   -3.8191   -2.9516    0.2250 H   0  0  0  0  0  0  0  0  0  0  0  0
  1 18  1  0  0  0  0
  2  5  1  0  0  0  0
  3 15  1  0  0  0  0
  3 31  1  0  0  0  0
  4 40  1  0  0  0  0
  4 34  1  0  0  0  0
  5 14  1  0  0  0  0
  6  8  1  0  0  0  0
  6  5  2  0  0  0  0
  7  6  1  0  0  0  0
  8 10  2  0  0  0  0
  9  8  1  0  0  0  0
 10 11  1  0  0  0  0
 10 12  1  0  0  0  0
 12 13  1  0  0  0  0
 14 12  2  0  0  0  0
 14 15  1  0  0  0  0
 15 16  1  0  0  0  0
 15 17  1  0  0  0  0
 18 27  1  0  0  0  0
 19 21  1  0  0  0  0
 19 18  2  0  0  0  0
 20 19  1  0  0  0  0
 21 23  2  0  0  0  0
 22 21  1  0  0  0  0
 23 24  1  0  0  0  0
 23 25  1  0  0  0  0
 25 26  1  0  0  0  0
 27 25  2  0  0  0  0
 27 28  1  0  0  0  0
 28  3  1  0  0  0  0
 28 29  1  0  0  0  0
 30 28  1  0  0  0  0
 31 33  1  0  0  0  0
 31 32  1  0  0  0  0
 34 31  1  0  0  0  0
 34 35  1  0  0  0  0
 36 34  1  0  0  0  0
 37 43  1  0  0  0  0
 37  4  1  0  0  0  0
 38 37  1  0  0  0  0
 39 37  1  0  0  0  0
 40 41  1  0  0  0  0
 40 42  1  0  0  0  0
 43 46  1  0  0  0  0
 43 45  1  0  0  0  0
 44 43  1  0  0  0  0
 47 48  1  0  0  0  0
 47 40  1  0  0  0  0
 49 47  1  0  0  0  0
 50 47  1  0  0  0  0
M  CHG  2   1  -1   2  -1
M  END
