1,2,3,4
q = -2.0, confidence = 0.85

 78 81  0  0  1  0  0  0  0  0999 V2000
    1.4137   -2.4400    0.1120 O   0  5  0  0  0  0  0  0  0  0  0  0
   -1.5785   -2.3680    0.7148 O   0  5  0  0  0  0  0  0  0  0  0  0
    1.3594    0.4451    0.4026 N   0  0  0  0  0  2  0  0  0  0  0  0
   -1.2868    0.3967   -0.0689 N   0  0  0  0  0  2  0  0  0  0  0  0
    2.6917   -2.2321   -0.0205 C   0  0  0  0  0  0  0  0  0  0  0  0
    3.5522   -3.3529   -0.2576 C   0  0  0  0  0  0  0  0  0  0  0  0
    4.9258   -3.2177   -0.3900 C   0  0  0  0  0  0  0  0  0  0  0  0
    5.5817   -1.9543   -0.3088 C   0  0  0  0  0  0  0  0  0  0  0  0
    7.1082   -1.8667   -0.4652 C   0  0  0  0  0  0  0  0  0  0  0  0
    7.7848   -2.7111    0.6387 C   0  0  0  0  0  0  0  0  0  0  0  0
    7.5133   -2.4155   -1.8524 C   0  0  0  0  0  0  0  0  0  0  0  0
    7.6171   -0.4199   -0.3490 C   0  0  0  0  0  0  0  0  0  0  0  0
    4.7632   -0.8504   -0.0898 C   0  0  0  0  0  0  0  0  0  0  0  0
    3.3458   -0.9388    0.0569 C   0  0  0  0  0  0  0  0  0  0  0  0
    2.6465    0.3047    0.2434 C   0  0  0  0  0  3  0  0  0  0  0  0
    0.6959    1.7372    0.5212 C   0  0  1  0  0  0  0  0  0  0  0  0
    1.5113    2.9633    0.1646 C   0  0  0  0  0  0  0  0  0  0  0  0
    1.7196    3.9798    1.1143 C   0  0  0  0  0  0  0  0  0  0  0  0
    2.4354    5.1400    0.7810 C   0  0  0  0  0  0  0  0  0  0  0  0
    2.9597    5.2951   -0.5109 C   0  0  0  0  0  0  0  0  0  0  0  0
    2.7647    4.2841   -1.4663 C   0  0  0  0  0  0  0  0  0  0  0  0
    2.0448    3.1288   -1.1314 C   0  0  0  0  0  0  0  0  0  0  0  0
   -1.5588    3.9226   -1.0595 C   0  0  0  0  0  0  0  0  0  0  0  0
   -2.2882    5.0944   -0.8050 C   0  0  0  0  0  0  0  0  0  0  0  0
   -2.9361    5.2652    0.4275 C   0  0  0  0  0  0  0  0  0  0  0  0
   -2.8521    4.2576    1.4032 C   0  0  0  0  0  0  0  0  0  0  0  0
   -2.1209    3.0898    1.1477 C   0  0  0  0  0  0  0  0  0  0  0  0
   -1.4646    2.9100   -0.0879 C   0  0  0  0  0  0  0  0  0  0  0  0
   -0.6211    1.6742   -0.3347 C   0  0  2  0  0  0  0  0  0  0  0  0
   -2.5591    0.2476   -0.3357 C   0  0  0  0  0  3  0  0  0  0  0  0
   -3.3463   -0.9397   -0.1531 C   0  0  0  0  0  0  0  0  0  0  0  0
   -4.7283   -0.8462   -0.5006 C   0  0  0  0  0  0  0  0  0  0  0  0
   -7.4875   -0.4212   -1.2741 C   0  0  0  0  0  0  0  0  0  0  0  0
   -7.4390   -2.8664   -1.7969 C   0  0  0  0  0  0  0  0  0  0  0  0
   -7.9746   -2.0738    0.5383 C   0  0  0  0  0  0  0  0  0  0  0  0
   -7.1159   -1.8066   -0.7189 C   0  0  0  0  0  0  0  0  0  0  0  0
   -5.6272   -1.8971   -0.3475 C   0  0  0  0  0  0  0  0  0  0  0  0
   -5.0974   -3.1073    0.1900 C   0  0  0  0  0  0  0  0  0  0  0  0
   -3.7627   -3.2463    0.5398 C   0  0  0  0  0  0  0  0  0  0  0  0
   -2.8205   -2.1803    0.3805 C   0  0  0  0  0  0  0  0  0  0  0  0
    3.0671   -4.3381   -0.3268 H   0  0  0  0  0  0  0  0  0  0  0  0
    5.5245   -4.1259   -0.5666 H   0  0  0  0  0  0  0  0  0  0  0  0
    8.8896   -2.6752    0.5370 H   0  0  0  0  0  0  0  0  0  0  0  0
    7.4778   -3.7749    0.5887 H   0  0  0  0  0  0  0  0  0  0  0  0
    7.5175   -2.3310    1.6455 H   0  0  0  0  0  0  0  0  0  0  0  0
    7.0473   -1.8202   -2.6635 H   0  0  0  0  0  0  0  0  0  0  0  0
    7.1978   -3.4696   -1.9857 H   0  0  0  0  0  0  0  0  0  0  0  0
    8.6150   -2.3758   -1.9824 H   0  0  0  0  0  0  0  0  0  0  0  0
    7.1841    0.2326   -1.1341 H   0  0  0  0  0  0  0  0  0  0  0  0
    8.7194   -0.3965   -0.4659 H   0  0  0  0  0  0  0  0  0  0  0  0
    7.3763    0.0226    0.6388 H   0  0  0  0  0  0  0  0  0  0  0  0
    5.2018    0.1570   -0.0242 H   0  0  0  0  0  0  0  0  0  0  0  0
    3.2865    1.2140    0.2261 H   0  0  0  0  0  0  0  0  0  0  0  0
    0.3652    1.8367    1.5809 H   0  0  0  0  0  0  0  0  0  0  0  0
    1.3018    3.8623    2.1265 H   0  0  0  0  0  0  0  0  0  0  0  0
    2.5824    5.9277    1.5354 H   0  0  0  0  0  0  0  0  0  0  0  0
    3.5222    6.2035   -0.7746 H   0  0  0  0  0  0  0  0  0  0  0  0
    3.1761    4.3970   -2.4810 H   0  0  0  0  0  0  0  0  0  0  0  0
    1.9016    2.3405   -1.8872 H   0  0  0  0  0  0  0  0  0  0  0  0
   -1.0425    3.7935   -2.0235 H   0  0  0  0  0  0  0  0  0  0  0  0
   -2.3498    5.8783   -1.5751 H   0  0  0  0  0  0  0  0  0  0  0  0
   -3.5098    6.1826    0.6286 H   0  0  0  0  0  0  0  0  0  0  0  0
   -3.3612    4.3832    2.3710 H   0  0  0  0  0  0  0  0  0  0  0  0
   -2.0675    2.2985    1.9120 H   0  0  0  0  0  0  0  0  0  0  0  0
   -0.2960    1.6746   -1.4003 H   0  0  0  0  0  0  0  0  0  0  0  0
   -3.1192    1.1220   -0.7349 H   0  0  0  0  0  0  0  0  0  0  0  0
   -5.0710    0.1197   -0.9017 H   0  0  0  0  0  0  0  0  0  0  0  0
   -8.5660   -0.3937   -1.5297 H   0  0  0  0  0  0  0  0  0  0  0  0
   -6.9197   -0.1818   -2.1960 H   0  0  0  0  0  0  0  0  0  0  0  0
   -7.2991    0.3827   -0.5339 H   0  0  0  0  0  0  0  0  0  0  0  0
   -6.8410   -2.6913   -2.7141 H   0  0  0  0  0  0  0  0  0  0  0  0
   -8.5138   -2.8293   -2.0717 H   0  0  0  0  0  0  0  0  0  0  0  0
   -7.2185   -3.8933   -1.4432 H   0  0  0  0  0  0  0  0  0  0  0  0
   -7.7723   -3.0745    0.9698 H   0  0  0  0  0  0  0  0  0  0  0  0
   -9.0556   -2.0279    0.2902 H   0  0  0  0  0  0  0  0  0  0  0  0
   -7.7678   -1.3203    1.3250 H   0  0  0  0  0  0  0  0  0  0  0  0
   -5.7665   -3.9710    0.3336 H   0  0  0  0  0  0  0  0  0  0  0  0
   -3.3764   -4.1930    0.9460 H   0  0  0  0  0  0  0  0  0  0  0  0
  3 16  1  0  0  0  0
  5 14  1  0  0  0  0
  5  1  1  0  0  0  0
  6  5  2  0  0  0  0
  7  8  2  0  0  0  0
  7  6  1  0  0  0  0
  8 13  1  0  0  0  0
  9 12  1  0  0  0  0
  9  8  1  0  0  0  0
  9 10  1  0  0  0  0
 10 45  1  0  0  0  0
 11  9  1  0  0  0  0
 12 51  1  0  0  0  0
 13 52  1  0  0  0  0
 13 14  2  0  0  0  0
 14 15  1  0  0  0  0
 15  3  1  0  0  0  0
 16 54  1  1  0  0  0
 17 16  1  0  0  0  0
 17 18  1  0  0  0  0
 18 55  1  0  0  0  0
 19 18  2  0  0  0  0
 19 56  1  0  0  0  0
 20 19  1  0  0  0  0
 21 22  1  0  0  0  0
 21 20  2  0  0  0  0
 22 17  2  0  0  0  0
 23 24  2  0  0  0  0
 23 28  1  0  0  0  0
 24 25  1  0  0  0  0
 25 62  1  0  0  0  0
 25 26  2  0  0  0  0
 26 63  1  0  0  0  0
 27 26  1  0  0  0  0
 27 64  1  0  0  0  0
 28 27  2  0  0  0  0
 29 65  1  6  0  0  0
 29 28  1  0  0  0  0
 29  4  1  0  0  0  0
 29 16  1  0  0  0  0
 30 31  1  0  0  0  0
 30  4  1  0  0  0  0
 31 40  1  0  0  0  0
 32 37  1  0  0  0  0
 32 31  2  0  0  0  0
 33 36  1  0  0  0  0
 33 70  1  0  0  0  0
 34 73  1  0  0  0  0
 34 36  1  0  0  0  0
 35 74  1  0  0  0  0
 35 76  1  0  0  0  0
 36 37  1  0  0  0  0
 36 35  1  0  0  0  0
 37 38  2  0  0  0  0
 38 77  1  0  0  0  0
 38 39  1  0  0  0  0
 39 78  1  0  0  0  0
 40 39  2  0  0  0  0
 40  2  1  0  0  0  0
 41  6  1  0  0  0  0
 42  7  1  0  0  0  0
 43 10  1  0  0  0  0
 44 10  1  0  0  0  0
 46 11  1  0  0  0  0
 47 11  1  0  0  0  0
 48 11  1  0  0  0  0
 49 12  1  0  0  0  0
 50 12  1  0  0  0  0
 53 15  1  0  0  0  0
 57 20  1  0  0  0  0
 58 21  1  0  0  0  0
 59 22  1  0  0  0  0
 60 23  1  0  0  0  0
 61 24  1  0  0  0  0
 66 30  1  0  0  0  0
 67 32  1  0  0  0  0
 68 33  1  0  0  0  0
 69 33  1  0  0  0  0
 71 34  1  0  0  0  0
 72 34  1  0  0  0  0
 75 35  1  0  0  0  0
M  CHG  2   1  -1   2  -1
M  END
