1,2,3,4
q = -2.0, confidence = 0.862

 56 57  0  0  0  0  0  0  0  0999 V2000
    1.9094    0.1984   -0.2839 O   0  5  0  0  0  0  0  0  0  0  0  0
   -1.7213    0.8335   -0.4929 O   0  5  0  0  0  0  0  0  0  0  0  0
   -0.1200   -0.6614   -2.6080 N   0  0  0  0  0  0  0  0  0  0  0  0
   -0.2650   -1.5253    0.2363 N   0  0  0  0  0  0  0  0  0  0  0  0
    2.6950   -0.8528   -0.0542 C   0  0  0  0  0  0  0  0  0  0  0  0
    4.0206   -0.8890   -0.5391 C   0  0  0  0  0  0  0  0  0  0  0  0
    4.3910   -0.0165   -1.0985 H   0  0  0  0  0  0  0  0  0  0  0  0
    4.8542   -1.9970   -0.3179 C   0  0  0  0  0  0  0  0  0  0  0  0
    4.3519   -3.1149    0.4042 C   0  0  0  0  0  0  0  0  0  0  0  0
    3.0275   -3.0690    0.8753 C   0  0  0  0  0  0  0  0  0  0  0  0
    2.6303   -3.9336    1.4334 H   0  0  0  0  0  0  0  0  0  0  0  0
    2.1880   -1.9619    0.6689 C   0  0  0  0  0  0  0  0  0  0  0  0
    0.7954   -1.8962    1.2247 C   0  0  0  0  0  0  0  0  0  0  0  0
    0.7325   -1.1430    2.0394 H   0  0  0  0  0  0  0  0  0  0  0  0
    0.5350   -2.8790    1.6841 H   0  0  0  0  0  0  0  0  0  0  0  0
   -0.2496   -2.4696   -0.9036 C   0  0  0  0  0  0  0  0  0  0  0  0
    0.8035   -2.7728   -1.0673 H   0  0  0  0  0  0  0  0  0  0  0  0
   -0.8085   -3.3984   -0.6414 H   0  0  0  0  0  0  0  0  0  0  0  0
   -0.8230   -1.8827   -2.1825 C   0  0  0  0  0  0  0  0  0  0  0  0
   -1.8904   -1.6328   -2.0422 H   0  0  0  0  0  0  0  0  0  0  0  0
   -0.7809   -2.6633   -2.9846 H   0  0  0  0  0  0  0  0  0  0  0  0
   -0.9357    0.0382   -3.6071 C   0  0  0  0  0  0  0  0  0  0  0  0
   -0.4028    0.9344   -3.9727 H   0  0  0  0  0  0  0  0  0  0  0  0
   -1.8914    0.3583   -3.1500 H   0  0  0  0  0  0  0  0  0  0  0  0
   -1.1574   -0.6175   -4.4846 H   0  0  0  0  0  0  0  0  0  0  0  0
    1.2007   -0.9750   -3.1625 C   0  0  0  0  0  0  0  0  0  0  0  0
    1.1182   -1.6020   -4.0843 H   0  0  0  0  0  0  0  0  0  0  0  0
    1.8231   -1.5135   -2.4248 H   0  0  0  0  0  0  0  0  0  0  0  0
    1.7318   -0.0395   -3.4217 H   0  0  0  0  0  0  0  0  0  0  0  0
   -1.5576   -1.5768    0.9817 C   0  0  0  0  0  0  0  0  0  0  0  0
   -1.4363   -0.9103    1.8607 H   0  0  0  0  0  0  0  0  0  0  0  0
   -1.6960   -2.6106    1.3779 H   0  0  0  0  0  0  0  0  0  0  0  0
   -2.7908   -1.1690    0.2275 C   0  0  0  0  0  0  0  0  0  0  0  0
   -3.9489   -1.9613    0.2171 C   0  0  0  0  0  0  0  0  0  0  0  0
   -3.9229   -2.9364    0.7322 H   0  0  0  0  0  0  0  0  0  0  0  0
   -5.1401   -1.5598   -0.4158 C   0  0  0  0  0  0  0  0  0  0  0  0
   -5.1666   -0.2994   -1.0723 C   0  0  0  0  0  0  0  0  0  0  0  0
   -4.0103    0.4988   -1.0762 C   0  0  0  0  0  0  0  0  0  0  0  0
   -4.0087    1.4764   -1.5821 H   0  0  0  0  0  0  0  0  0  0  0  0
   -2.8220    0.0831   -0.4381 C   0  0  0  0  0  0  0  0  0  0  0  0
    6.2673   -2.0020   -0.8425 C   0  0  0  0  0  0  0  0  0  0  0  0
    6.5047   -1.0653   -1.3817 H   0  0  0  0  0  0  0  0  0  0  0  0
    6.4427   -2.8503   -1.5381 H   0  0  0  0  0  0  0  0  0  0  0  0
    7.0058   -2.1183   -0.0209 H   0  0  0  0  0  0  0  0  0  0  0  0
    5.2187   -4.3215    0.6569 C   0  0  0  0  0  0  0  0  0  0  0  0
    5.5738   -4.7830   -0.2896 H   0  0  0  0  0  0  0  0  0  0  0  0
    4.6734   -5.0989    1.2259 H   0  0  0  0  0  0  0  0  0  0  0  0
    6.1315   -4.0605    1.2346 H   0  0  0  0  0  0  0  0  0  0  0  0
   -6.3604   -2.4440   -0.3944 C   0  0  0  0  0  0  0  0  0  0  0  0
   -6.6978   -2.7111   -1.4190 H   0  0  0  0  0  0  0  0  0  0  0  0
   -7.2243   -1.9443    0.0946 H   0  0  0  0  0  0  0  0  0  0  0  0
   -6.1664   -3.3871    0.1520 H   0  0  0  0  0  0  0  0  0  0  0  0
   -6.4211    0.1760   -1.7596 C   0  0  0  0  0  0  0  0  0  0  0  0
   -7.2714    0.2505   -1.0486 H   0  0  0  0  0  0  0  0  0  0  0  0
   -6.7445   -0.5288   -2.5550 H   0  0  0  0  0  0  0  0  0  0  0  0
   -6.2793    1.1706   -2.2236 H   0  0  0  0  0  0  0  0  0  0  0  0
  1  5  1  0  0  0  0
  2 40  1  0  0  0  0
  3 19  1  0  0  0  0
  4 30  1  0  0  0  0
  4 13  1  0  0  0  0
  5 12  1  0  0  0  0
  6  8  1  0  0  0  0
  6  5  2  0  0  0  0
  7  6  1  0  0  0  0
  8  9  2  0  0  0  0
  9 45  1  0  0  0  0
  9 10  1  0  0  0  0
 10 11  1  0  0  0  0
 12 10  2  0  0  0  0
 12 13  1  0  0  0  0
 13 15  1  0  0  0  0
 13 14  1  0  0  0  0
 16 18  1  0  0  0  0
 16  4  1  0  0  0  0
 17 16  1  0  0  0  0
 19 20  1  0  0  0  0
 19 16  1  0  0  0  0
 21 19  1  0  0  0  0
 22 24  1  0  0  0  0
 22  3  1  0  0  0  0
 23 22  1  0  0  0  0
 25 22  1  0  0  0  0
 26  3  1  0  0  0  0
 26 28  1  0  0  0  0
 27 26  1  0  0  0  0
 29 26  1  0  0  0  0
 30 32  1  0  0  0  0
 30 31  1  0  0  0  0
 33 30  1  0  0  0  0
 34 33  1  0  0  0  0
 34 35  1  0  0  0  0
 36 49  1  0  0  0  0
 36 34  2  0  0  0  0
 37 36  1  0  0  0  0
 38 37  2  0  0  0  0
 38 40  1  0  0  0  0
 39 38  1  0  0  0  0
 40 33  2  0  0  0  0
 41  8  1  0  0  0  0
 41 44  1  0  0  0  0
 42 41  1  0  0  0  0
 43 41  1  0  0  0  0
 45 47  1  0  0  0  0
 45 48  1  0  0  0  0
 46 45  1  0  0  0  0
 49 51  1  0  0  0  0
 49 52  1  0  0  0  0
 50 49  1  0  0  0  0
 53 37  1  0  0  0  0
 53 54  1  0  0  0  0
 55 53  1  0  0  0  0
 56 53  1  0  0  0  0
M  CHG  2   1  -1   2  -1
M  END
