1,2,3,4
q = -3.0, confidence = 0.416

 54 56  0  0  1  0  0  0  0  0999 V2000
    1.3669    1.6420    1.3026 O   0  5  0  0  0  0  0  0  0  0  0  0
    0.2794   -1.0185    1.7692 O   0  5  0  0  0  0  0  0  0  0  0  0
    1.0827    1.2783   -1.3245 N   0  0  0  0  0  2  0  0  0  0  0  0
   -0.5265   -0.5975   -0.7084 N   0  0  0  0  0  2  0  0  0  0  0  0
    1.4684    2.9333    1.0609 C   0  0  0  0  0  0  0  0  0  0  0  0
    1.6734    3.8427    2.1299 C   0  0  0  0  0  0  0  0  0  0  0  0
    1.7894    5.2115    1.8857 C   0  0  0  0  0  0  0  0  0  0  0  0
    1.7014    5.7273    0.5732 C   0  0  0  0  0  0  0  0  0  0  0  0
    1.4981    4.8505   -0.4896 C   0  0  0  0  0  0  0  0  0  0  0  0
    1.3826    3.4528   -0.2763 C   0  0  0  0  0  0  0  0  0  0  0  0
    1.1643    2.5748   -1.4001 C   0  0  0  0  0  3  0  0  0  0  0  0
    0.7345    0.4810   -2.4853 C   0  0  0  0  0  0  0  0  0  0  0  0
   -0.5819   -0.1992   -2.1104 C   0  0  0  0  0  0  0  0  0  0  0  0
   -1.7625   -1.3002   -0.3315 C   0  0  1  0  0  0  0  0  0  0  0  0
   -1.8281   -1.9030    1.0705 C   0  0  0  0  0  0  0  0  0  0  0  0
   -2.9622   -2.6615    1.4218 C   0  0  0  0  0  0  0  0  0  0  0  0
   -3.0837   -3.2750    2.6752 C   0  0  0  0  0  0  0  0  0  0  0  0
   -2.0548   -3.1310    3.6219 C   0  0  0  0  0  0  0  0  0  0  0  0
   -0.9237   -2.3725    3.3078 C   0  0  0  0  0  0  0  0  0  0  0  0
   -0.8060   -1.7565    2.0410 C   0  0  0  0  0  0  0  0  0  0  0  0
   -3.0214   -0.4570   -0.6134 C   0  0  0  0  0  0  0  0  0  0  0  0
   -3.2227    0.7854    0.0479 C   0  0  0  0  0  0  0  0  0  0  0  0
   -4.3766    1.5358   -0.2391 C   0  0  0  0  0  0  0  0  0  0  0  0
   -5.3469    1.1027   -1.1595 C   0  0  0  0  0  0  0  0  0  0  0  0
   -5.1256   -0.1228   -1.8062 C   0  0  0  0  0  0  0  0  0  0  0  0
   -3.9835   -0.9088   -1.5542 C   0  0  0  0  0  0  0  0  0  0  0  0
   -2.2298    1.3423    1.0371 C   0  0  0  0  0  0  0  0  0  0  0  0
   -6.5884    1.9185   -1.4195 C   0  0  0  0  0  0  0  0  0  0  0  0
   -3.8300   -2.2106   -2.3121 C   0  0  0  0  0  0  0  0  0  0  0  0
    1.7373    3.4302    3.1469 H   0  0  0  0  0  0  0  0  0  0  0  0
    1.9506    5.8982    2.7312 H   0  0  0  0  0  0  0  0  0  0  0  0
    1.7921    6.8082    0.3941 H   0  0  0  0  0  0  0  0  0  0  0  0
    1.4254    5.2332   -1.5204 H   0  0  0  0  0  0  0  0  0  0  0  0
    1.0539    3.0581   -2.3957 H   0  0  0  0  0  0  0  0  0  0  0  0
    1.5339   -0.2746   -2.6368 H   0  0  0  0  0  0  0  0  0  0  0  0
    0.6325    1.0951   -3.4076 H   0  0  0  0  0  0  0  0  0  0  0  0
   -1.4237    0.5109   -2.2985 H   0  0  0  0  0  0  0  0  0  0  0  0
   -0.7638   -1.0832   -2.7697 H   0  0  0  0  0  0  0  0  0  0  0  0
   -1.8285   -2.1827   -1.0097 H   0  0  0  0  0  0  0  0  0  0  0  0
   -3.7787   -2.7600    0.6899 H   0  0  0  0  0  0  0  0  0  0  0  0
   -3.9830   -3.8617    2.9139 H   0  0  0  0  0  0  0  0  0  0  0  0
   -2.1371   -3.6075    4.6107 H   0  0  0  0  0  0  0  0  0  0  0  0
   -0.1037   -2.2298    4.0263 H   0  0  0  0  0  0  0  0  0  0  0  0
   -4.5210    2.4962    0.2832 H   0  0  0  0  0  0  0  0  0  0  0  0
   -5.8669   -0.4859   -2.5369 H   0  0  0  0  0  0  0  0  0  0  0  0
   -1.9284    0.5927    1.7939 H   0  0  0  0  0  0  0  0  0  0  0  0
   -2.6505    2.2165    1.5698 H   0  0  0  0  0  0  0  0  0  0  0  0
   -1.3005    1.6758    0.5305 H   0  0  0  0  0  0  0  0  0  0  0  0
   -7.3017    1.8431   -0.5708 H   0  0  0  0  0  0  0  0  0  0  0  0
   -6.3505    2.9948   -1.5422 H   0  0  0  0  0  0  0  0  0  0  0  0
   -7.1194    1.5775   -2.3296 H   0  0  0  0  0  0  0  0  0  0  0  0
   -2.9258   -2.2158   -2.9567 H   0  0  0  0  0  0  0  0  0  0  0  0
   -3.7449   -3.0897   -1.6403 H   0  0  0  0  0  0  0  0  0  0  0  0
   -4.7037   -2.3825   -2.9697 H   0  0  0  0  0  0  0  0  0  0  0  0
  2 20  1  0  0  0  0
  4 14  1  0  0  0  0
  5  1  1  0  0  0  0
  5  6  1  0  0  0  0
  6 30  1  0  0  0  0
  7  6  2  0  0  0  0
  7 31  1  0  0  0  0
  8  7  1  0  0  0  0
  9 10  1  0  0  0  0
  9  8  2  0  0  0  0
 10  5  2  0  0  0  0
 11  3  1  0  0  0  0
 11 10  1  0  0  0  0
 12 13  1  0  0  0  0
 12  3  1  0  0  0  0
 13  4  1  0  0  0  0
 14 39  1  6  0  0  0
 14 15  1  0  0  0  0
 15 16  2  0  0  0  0
 15 20  1  0  0  0  0
 16 17  1  0  0  0  0
 17 41  1  0  0  0  0
 17 18  2  0  0  0  0
 18 42  1  0  0  0  0
 19 18  1  0  0  0  0
 19 43  1  0  0  0  0
 20 19  2  0  0  0  0
 21 14  1  0  0  0  0
 21 22  1  0  0  0  0
 22 27  1  0  0  0  0
 23 22  2  0  0  0  0
 23 44  1  0  0  0  0
 24 23  1  0  0  0  0
 25 26  1  0  0  0  0
 25 24  2  0  0  0  0
 26 21  2  0  0  0  0
 27 47  1  0  0  0  0
 27 46  1  0  0  0  0
 28 24  1  0  0  0  0
 28 49  1  0  0  0  0
 29 53  1  0  0  0  0
 29 26  1  0  0  0  0
 32  8  1  0  0  0  0
 33  9  1  0  0  0  0
 34 11  1  0  0  0  0
 35 12  1  0  0  0  0
 36 12  1  0  0  0  0
 37 13  1  0  0  0  0
 38 13  1  0  0  0  0
 40 16  1  0  0  0  0
 45 25  1  0  0  0  0
 48 27  1  0  0  0  0
 50 28  1  0  0  0  0
 51 28  1  0  0  0  0
 52 29  1  0  0  0  0
 54 29  1  0  0  0  0
M  CHG  2   1  -1   2  -1
M  END
