1,2,3,4
q = -2.0, confidence = 0.578

 27 26  0  0  1  0  0  0  0  0999 V2000
   -1.3812   -1.6242   -0.4042 O   0  0  0  0  0  1  0  0  0  0  0  0
    1.3813   -1.6242   -0.4040 O   0  0  0  0  0  1  0  0  0  0  0  0
    1.3949    0.9421   -0.4718 N   0  0  0  0  0  2  0  0  0  0  0  0
   -1.3947    0.9421   -0.4720 N   0  0  0  0  0  2  0  0  0  0  0  0
   -3.6275   -1.9108   -0.3187 N   0  0  0  0  0  0  0  0  0  0  0  0
    3.6276   -1.9107   -0.3189 N   0  0  0  0  0  0  0  0  0  0  0  0
   -2.5375   -1.1421   -0.2719 C   0  0  1  0  0  3  0  0  0  0  0  0
   -2.6400    0.3429   -0.0184 C   0  0  0  0  0  0  0  0  0  0  0  0
   -1.2697    2.3300   -0.0960 C   0  0  0  0  0  0  0  0  0  0  0  0
    0.0001    2.9719   -0.6460 C   0  0  0  0  0  0  0  0  0  0  0  0
    1.2699    2.3300   -0.0958 C   0  0  0  0  0  0  0  0  0  0  0  0
    2.6400    0.3428   -0.0178 C   0  0  0  0  0  0  0  0  0  0  0  0
    2.5377   -1.1421   -0.2718 C   0  0  2  0  0  3  0  0  0  0  0  0
   -4.5675   -1.5243   -0.2334 H   0  0  0  0  0  0  0  0  0  0  0  0
   -3.5214   -2.9219   -0.4361 H   0  0  0  0  0  0  0  0  0  0  0  0
    3.5216   -2.9218   -0.4366 H   0  0  0  0  0  0  0  0  0  0  0  0
    4.5676   -1.5242   -0.2335 H   0  0  0  0  0  0  0  0  0  0  0  0
   -2.8162    0.4928    1.0775 H   0  0  0  0  0  0  0  0  0  0  0  0
   -3.5035    0.8085   -0.5478 H   0  0  0  0  0  0  0  0  0  0  0  0
   -2.1587    2.8594   -0.5161 H   0  0  0  0  0  0  0  0  0  0  0  0
   -1.3391    2.4563    1.0127 H   0  0  0  0  0  0  0  0  0  0  0  0
    0.0002    2.8990   -1.7527 H   0  0  0  0  0  0  0  0  0  0  0  0
    0.0001    4.0486   -0.3852 H   0  0  0  0  0  0  0  0  0  0  0  0
    1.3390    2.4563    1.0129 H   0  0  0  0  0  0  0  0  0  0  0  0
    2.1589    2.8594   -0.5157 H   0  0  0  0  0  0  0  0  0  0  0  0
    3.5038    0.8087   -0.5464 H   0  0  0  0  0  0  0  0  0  0  0  0
    2.8155    0.4923    1.0783 H   0  0  0  0  0  0  0  0  0  0  0  0
  3 11  1  0  0  0  0
  3 12  1  0  0  0  0
  4  9  1  0  0  0  0
  4  8  1  0  0  0  0
  5  7  1  0  0  0  0
  5 14  1  0  0  0  0
  6 13  1  0  0  0  0
  6 17  1  0  0  0  0
  7  1  1  1  0  0  0
  7  8  1  0  0  0  0
  8 18  1  0  0  0  0
  9 21  1  0  0  0  0
 10 23  1  0  0  0  0
 10  9  1  0  0  0  0
 10 11  1  0  0  0  0
 11 24  1  0  0  0  0
 12 27  1  0  0  0  0
 13  2  1  1  0  0  0
 13 12  1  0  0  0  0
 15  5  1  0  0  0  0
 16  6  1  0  0  0  0
 19  8  1  0  0  0  0
 20  9  1  0  0  0  0
 22 10  1  0  0  0  0
 25 11  1  0  0  0  0
 26 12  1  0  0  0  0
M  END
