1,2,3,4
q = -2.0, confidence = 0.848

 41 44  0  0  1  0  0  0  0  0999 V2000
    1.2925   -2.3207    0.0007 O   0  5  0  0  0  0  0  0  0  0  0  0
   -1.2925   -2.3207   -0.0019 O   0  5  0  0  0  0  0  0  0  0  0  0
    1.3735    0.2639    0.0001 N   0  0  0  0  0  2  0  0  0  0  0  0
   -1.3735    0.2639   -0.0003 N   0  0  0  0  0  2  0  0  0  0  0  0
    2.4995   -1.8090    0.0008 C   0  0  0  0  0  0  0  0  0  0  0  0
    3.7031   -2.5451    0.0013 C   0  0  0  0  0  0  0  0  0  0  0  0
    3.6524   -3.6430    0.0017 H   0  0  0  0  0  0  0  0  0  0  0  0
    4.9427   -1.8687    0.0011 C   0  0  0  0  0  0  0  0  0  0  0  0
    5.8662   -2.4687    0.0015 H   0  0  0  0  0  0  0  0  0  0  0  0
    5.0403   -0.4738    0.0004 C   0  0  0  0  0  0  0  0  0  0  0  0
    6.0179    0.0291    0.0001 H   0  0  0  0  0  0  0  0  0  0  0  0
    3.8515    0.3022   -0.0001 C   0  0  0  0  0  0  0  0  0  0  0  0
    2.5988   -0.3805    0.0003 C   0  0  1  0  0  3  0  0  0  0  0  0
    3.7744    1.7231   -0.0011 C   0  0  0  0  0  0  0  0  0  0  0  0
    4.6980    2.3222   -0.0016 H   0  0  0  0  0  0  0  0  0  0  0  0
    2.5382    2.3457   -0.0015 C   0  0  0  0  0  0  0  0  0  0  0  0
    2.4922    3.4424   -0.0023 H   0  0  0  0  0  0  0  0  0  0  0  0
    1.3156    1.6044   -0.0008 C   0  0  0  0  0  0  0  0  0  0  0  0
   -0.0000    2.3943   -0.0001 C   0  0  0  0  0  0  0  0  0  0  0  0
    0.0007    3.2831    1.2784 C   0  0  0  0  0  0  0  0  0  0  0  0
    0.0010    2.6497    2.1869 H   0  0  0  0  0  0  0  0  0  0  0  0
   -0.8918    3.9361    1.3130 H   0  0  0  0  0  0  0  0  0  0  0  0
    0.8933    3.9358    1.3122 H   0  0  0  0  0  0  0  0  0  0  0  0
   -0.0007    3.2838   -1.2781 C   0  0  0  0  0  0  0  0  0  0  0  0
    0.8917    3.9368   -1.3125 H   0  0  0  0  0  0  0  0  0  0  0  0
   -0.8933    3.9365   -1.3116 H   0  0  0  0  0  0  0  0  0  0  0  0
   -0.0011    2.6509   -2.1871 H   0  0  0  0  0  0  0  0  0  0  0  0
   -1.3156    1.6044    0.0003 C   0  0  0  0  0  0  0  0  0  0  0  0
   -2.5382    2.3457    0.0012 C   0  0  0  0  0  0  0  0  0  0  0  0
   -2.4922    3.4424    0.0016 H   0  0  0  0  0  0  0  0  0  0  0  0
   -3.7744    1.7231    0.0014 C   0  0  0  0  0  0  0  0  0  0  0  0
   -4.6980    2.3222    0.0022 H   0  0  0  0  0  0  0  0  0  0  0  0
   -3.8515    0.3022    0.0008 C   0  0  0  0  0  0  0  0  0  0  0  0
   -5.0403   -0.4738    0.0009 C   0  0  0  0  0  0  0  0  0  0  0  0
   -6.0179    0.0291    0.0016 H   0  0  0  0  0  0  0  0  0  0  0  0
   -4.9426   -1.8687    0.0001 C   0  0  0  0  0  0  0  0  0  0  0  0
   -5.8662   -2.4687    0.0002 H   0  0  0  0  0  0  0  0  0  0  0  0
   -3.7031   -2.5451   -0.0008 C   0  0  0  0  0  0  0  0  0  0  0  0
   -3.6524   -3.6430   -0.0015 H   0  0  0  0  0  0  0  0  0  0  0  0
   -2.4994   -1.8090   -0.0010 C   0  0  0  0  0  0  0  0  0  0  0  0
   -2.5988   -0.3805   -0.0001 C   0  0  1  0  0  3  0  0  0  0  0  0
  1  5  1  0  0  0  0
  2 40  1  0  0  0  0
  3 13  1  0  0  0  0
  4 41  1  0  0  0  0
  4 28  1  0  0  0  0
  5  6  2  0  0  0  0
  6  7  1  0  0  0  0
  8  6  1  0  0  0  0
  8  9  1  0  0  0  0
 10  8  2  0  0  0  0
 11 10  1  0  0  0  0
 12 10  1  0  0  0  0
 13 12  1  6  0  0  0
 13  5  1  0  0  0  0
 14 12  2  0  0  0  0
 15 14  1  0  0  0  0
 16 14  1  0  0  0  0
 16 18  2  0  0  0  0
 17 16  1  0  0  0  0
 18 19  1  0  0  0  0
 18  3  1  0  0  0  0
 19 28  1  0  0  0  0
 19 20  1  0  0  0  0
 20 23  1  0  0  0  0
 20 22  1  0  0  0  0
 20 21  1  0  0  0  0
 24 19  1  0  0  0  0
 25 24  1  0  0  0  0
 26 24  1  0  0  0  0
 27 24  1  0  0  0  0
 28 29  2  0  0  0  0
 29 31  1  0  0  0  0
 29 30  1  0  0  0  0
 31 32  1  0  0  0  0
 33 34  1  0  0  0  0
 33 31  2  0  0  0  0
 34 35  1  0  0  0  0
 36 37  1  0  0  0  0
 36 34  2  0  0  0  0
 38 36  1  0  0  0  0
 39 38  1  0  0  0  0
 40 38  2  0  0  0  0
 41 40  1  6  0  0  0
 41 33  1  0  0  0  0
M  CHG  2   1  -1   2  -1
M  END
