1,2,3,4
q = -2.0, confidence = 0.964

 50 51  0  0  1  0  0  0  0  0999 V2000
   -1.5470   -0.8647    0.8053 O   0  0  0  0  0  1  0  0  0  0  0  0
    1.7168   -0.9213   -0.9480 O   0  0  0  0  0  1  0  0  0  0  0  0
   -1.1122    0.9916   -1.1181 N   0  0  0  0  0  0  0  0  0  0  0  0
    1.0845    1.1565    0.8064 N   0  0  0  0  0  0  0  0  0  0  0  0
   -0.9588    2.1995   -0.2557 C   0  0  2  0  0  0  0  0  0  0  0  0
   -1.6172    2.0734    0.6246 H   0  0  0  0  0  0  0  0  0  0  0  0
   -1.3970    3.3603   -1.1757 C   0  0  0  0  0  0  0  0  0  0  0  0
   -0.9665    4.3312   -0.8628 H   0  0  0  0  0  0  0  0  0  0  0  0
   -2.4984    3.4735   -1.1324 H   0  0  0  0  0  0  0  0  0  0  0  0
   -0.9437    2.9202   -2.5917 C   0  0  0  0  0  0  0  0  0  0  0  0
   -0.0605    3.4899   -2.9418 H   0  0  0  0  0  0  0  0  0  0  0  0
   -1.7462    3.0898   -3.3351 H   0  0  0  0  0  0  0  0  0  0  0  0
   -0.6046    1.4134   -2.4490 C   0  0  0  0  0  0  0  0  0  0  0  0
   -1.0467    0.7722   -3.2342 H   0  0  0  0  0  0  0  0  0  0  0  0
    0.4904    1.2305   -2.4665 H   0  0  0  0  0  0  0  0  0  0  0  0
    0.4964    2.4019    0.2288 C   0  0  1  0  0  0  0  0  0  0  0  0
    1.1174    2.6881   -0.6426 H   0  0  0  0  0  0  0  0  0  0  0  0
    0.5621    3.4771    1.3565 C   0  0  0  0  0  0  0  0  0  0  0  0
    1.2579    4.2973    1.0965 H   0  0  0  0  0  0  0  0  0  0  0  0
   -0.4346    3.9387    1.5071 H   0  0  0  0  0  0  0  0  0  0  0  0
    1.0209    2.7112    2.6188 C   0  0  0  0  0  0  0  0  0  0  0  0
    2.0999    2.8853    2.8094 H   0  0  0  0  0  0  0  0  0  0  0  0
    0.4747    3.0167    3.5320 H   0  0  0  0  0  0  0  0  0  0  0  0
    0.7847    1.2396    2.2598 C   0  0  0  0  0  0  0  0  0  0  0  0
    1.4071    0.5183    2.8185 H   0  0  0  0  0  0  0  0  0  0  0  0
   -0.2754    0.9401    2.4039 H   0  0  0  0  0  0  0  0  0  0  0  0
   -2.4875    0.4656   -1.1006 C   0  0  0  0  0  0  0  0  0  0  0  0
   -2.6891    0.0048   -2.0838 H   0  0  0  0  0  0  0  0  0  0  0  0
   -3.2382    1.2728   -0.9741 H   0  0  0  0  0  0  0  0  0  0  0  0
   -2.6574   -0.6382    0.0479 C   0  0  0  0  0  0  0  0  0  0  0  0
   -3.7976   -0.1712    0.9929 C   0  0  0  0  0  0  0  0  0  0  0  0
   -3.0450   -1.9635   -0.6768 C   0  0  0  0  0  0  0  0  0  0  0  0
    2.5063    0.9402    0.4689 C   0  0  0  0  0  0  0  0  0  0  0  0
    3.1664    1.1035    1.3443 H   0  0  0  0  0  0  0  0  0  0  0  0
    2.7988    1.6686   -0.3097 H   0  0  0  0  0  0  0  0  0  0  0  0
    2.7448   -0.4951   -0.1559 C   0  0  0  0  0  0  0  0  0  0  0  0
    2.9639   -1.5188    1.0014 C   0  0  0  0  0  0  0  0  0  0  0  0
    4.0243   -0.3898   -1.0346 C   0  0  0  0  0  0  0  0  0  0  0  0
   -3.4253    0.9835    1.6166 F   0  0  0  0  0  0  0  0  0  0  0  0
   -4.9441    0.1009    0.3179 F   0  0  0  0  0  0  0  0  0  0  0  0
   -4.0803   -1.0688    1.9448 F   0  0  0  0  0  0  0  0  0  0  0  0
   -2.0041   -2.3223   -1.4833 F   0  0  0  0  0  0  0  0  0  0  0  0
   -4.1352   -1.8321   -1.4760 F   0  0  0  0  0  0  0  0  0  0  0  0
   -3.2716   -2.9732    0.1710 F   0  0  0  0  0  0  0  0  0  0  0  0
    1.7929   -1.6188    1.7125 F   0  0  0  0  0  0  0  0  0  0  0  0
    3.2664   -2.7457    0.5653 F   0  0  0  0  0  0  0  0  0  0  0  0
    3.9187   -1.1370    1.8852 F   0  0  0  0  0  0  0  0  0  0  0  0
    5.0847    0.0740   -0.3208 F   0  0  0  0  0  0  0  0  0  0  0  0
    4.3729   -1.5624   -1.5800 F   0  0  0  0  0  0  0  0  0  0  0  0
    3.8088    0.4881   -2.0459 F   0  0  0  0  0  0  0  0  0  0  0  0
  2 36  1  0  0  0  0
  3 27  1  0  0  0  0
  3  5  1  0  0  0  0
  4 24  1  0  0  0  0
  5 16  1  0  0  0  0
  5  6  1  1  0  0  0
  7  9  1  0  0  0  0
  7  8  1  0  0  0  0
  7  5  1  0  0  0  0
 10 13  1  0  0  0  0
 10  7  1  0  0  0  0
 11 10  1  0  0  0  0
 12 10  1  0  0  0  0
 13  3  1  0  0  0  0
 14 13  1  0  0  0  0
 15 13  1  0  0  0  0
 16 17  1  6  0  0  0
 16  4  1  0  0  0  0
 16 18  1  0  0  0  0
 18 20  1  0  0  0  0
 18 21  1  0  0  0  0
 19 18  1  0  0  0  0
 21 22  1  0  0  0  0
 21 23  1  0  0  0  0
 24 26  1  0  0  0  0
 24 21  1  0  0  0  0
 24 25  1  0  0  0  0
 27 29  1  0  0  0  0
 27 30  1  0  0  0  0
 28 27  1  0  0  0  0
 30  1  1  0  0  0  0
 30 31  1  0  0  0  0
 31 39  1  0  0  0  0
 31 41  1  0  0  0  0
 32 30  1  0  0  0  0
 32 44  1  0  0  0  0
 33  4  1  0  0  0  0
 33 34  1  0  0  0  0
 35 33  1  0  0  0  0
 36 33  1  0  0  0  0
 36 37  1  0  0  0  0
 37 45  1  0  0  0  0
 37 47  1  0  0  0  0
 38 48  1  0  0  0  0
 38 36  1  0  0  0  0
 40 31  1  0  0  0  0
 42 32  1  0  0  0  0
 43 32  1  0  0  0  0
 46 37  1  0  0  0  0
 49 38  1  0  0  0  0
 50 38  1  0  0  0  0
M  END
