1,2,5,6
q = -2.0, confidence = 0.854

 82 86  0  0  1  0  0  0  0  0999 V2000
   -1.4431   -1.2544   -0.4996 O   0  5  0  0  0  0  0  0  0  0  0  0
    0.9914   -1.5279   -0.3190 O   0  0  0  0  0  1  0  0  0  0  0  0
   -6.9165   -0.6735   -0.9610 O   0  0  0  0  0  0  0  0  0  0  0  0
    6.4626   -2.1784    0.0588 O   0  0  0  0  0  0  0  0  0  0  0  0
   -1.2050    1.4608   -0.2150 N   0  0  0  0  0  2  0  0  0  0  0  0
    1.3194    1.1764   -0.0218 N   0  0  0  0  0  2  0  0  0  0  0  0
   -9.7545    0.0002    0.1422 N   0  0  0  0  0  0  0  0  0  0  0  0
    9.7766   -0.6360    0.4477 N   0  0  0  0  0  0  0  0  0  0  0  0
   -2.7144   -1.0352   -0.5964 C   0  0  0  0  0  0  0  0  0  0  0  0
   -3.5921   -2.1563   -0.7809 C   0  0  0  0  0  0  0  0  0  0  0  0
   -4.9582   -1.9899   -0.8950 C   0  0  0  0  0  0  0  0  0  0  0  0
   -5.5559   -0.6936   -0.8331 C   0  0  0  0  0  0  0  0  0  0  0  0
   -4.7452    0.4187   -0.6532 C   0  0  0  0  0  3  0  0  0  0  0  0
   -3.3229    0.2746   -0.5319 C   0  0  0  0  0  0  0  0  0  0  0  0
   -2.5268    1.4295   -0.3448 C   0  0  0  0  0  0  0  0  0  0  0  0
   -0.5139    2.6752   -0.0263 C   0  0  0  0  0  0  0  0  0  0  0  0
    0.8938    2.5165    0.0814 C   0  0  0  0  0  0  0  0  0  0  0  0
    2.6057    0.8510    0.0497 C   0  0  0  0  0  0  0  0  0  0  0  0
    3.1457   -0.4539   -0.0377 C   0  0  0  0  0  0  0  0  0  0  0  0
    4.5662   -0.6302    0.0595 C   0  0  0  0  0  0  0  0  0  0  0  0
    5.1291   -1.8966   -0.0205 C   0  0  0  0  0  0  0  0  0  0  0  0
    4.2758   -3.0286   -0.1998 C   0  0  0  0  0  0  0  0  0  0  0  0
    2.9055   -2.8869   -0.2958 C   0  0  0  0  0  0  0  0  0  0  0  0
    2.2797   -1.5971   -0.2205 C   0  0  2  0  0  3  0  0  0  0  0  0
   -1.0811    3.9630    0.0604 C   0  0  0  0  0  0  0  0  0  0  0  0
   -0.2576    5.0783    0.2508 C   0  0  0  0  0  0  0  0  0  0  0  0
    1.1370    4.9211    0.3573 C   0  0  0  0  0  0  0  0  0  0  0  0
    1.7123    3.6483    0.2738 C   0  0  0  0  0  0  0  0  0  0  0  0
   -7.5703    0.5896   -0.9363 C   0  0  0  0  0  0  0  0  0  0  0  0
   -9.0767    0.4087   -1.0769 C   0  0  0  0  0  0  0  0  0  0  0  0
  -11.1735    0.3466    0.1406 C   0  0  0  0  0  0  0  0  0  0  0  0
  -11.8070    0.0978    1.5116 C   0  0  0  0  0  0  0  0  0  0  0  0
  -11.6031   -1.3553    1.9531 C   0  0  0  0  0  0  0  0  0  0  0  0
  -10.1181   -1.7238    1.8746 C   0  0  0  0  0  0  0  0  0  0  0  0
   -9.5467   -1.4067    0.4912 C   0  0  0  0  0  0  0  0  0  0  0  0
    7.3646   -1.0965    0.2181 C   0  0  0  0  0  0  0  0  0  0  0  0
    8.7755   -1.6766    0.2851 C   0  0  0  0  0  0  0  0  0  0  0  0
   10.1137    0.0385   -0.8042 C   0  0  0  0  0  0  0  0  0  0  0  0
   11.0012    1.2607   -0.5579 C   0  0  0  0  0  0  0  0  0  0  0  0
   12.2672    0.8660    0.2098 C   0  0  0  0  0  0  0  0  0  0  0  0
   11.8939    0.0969    1.4817 C   0  0  0  0  0  0  0  0  0  0  0  0
   10.9727   -1.0816    1.1575 C   0  0  0  0  0  0  0  0  0  0  0  0
   -3.1286   -3.1518   -0.8291 H   0  0  0  0  0  0  0  0  0  0  0  0
   -5.6242   -2.8539   -1.0404 H   0  0  0  0  0  0  0  0  0  0  0  0
   -5.1683    1.4309   -0.5949 H   0  0  0  0  0  0  0  0  0  0  0  0
   -3.0673    2.3918   -0.3034 H   0  0  0  0  0  0  0  0  0  0  0  0
    3.3328    1.6702    0.1910 H   0  0  0  0  0  0  0  0  0  0  0  0
    5.1898    0.2634    0.2011 H   0  0  0  0  0  0  0  0  0  0  0  0
    4.7498   -4.0200   -0.2593 H   0  0  0  0  0  0  0  0  0  0  0  0
    2.2463   -3.7555   -0.4341 H   0  0  0  0  0  0  0  0  0  0  0  0
   -2.1674    4.1055   -0.0183 H   0  0  0  0  0  0  0  0  0  0  0  0
   -0.7072    6.0799    0.3181 H   0  0  0  0  0  0  0  0  0  0  0  0
    1.7818    5.7994    0.5081 H   0  0  0  0  0  0  0  0  0  0  0  0
    2.8024    3.5455    0.3611 H   0  0  0  0  0  0  0  0  0  0  0  0
   -7.3560    1.1211    0.0200 H   0  0  0  0  0  0  0  0  0  0  0  0
   -7.1889    1.2176   -1.7762 H   0  0  0  0  0  0  0  0  0  0  0  0
   -9.2739   -0.2819   -1.9415 H   0  0  0  0  0  0  0  0  0  0  0  0
   -9.4849    1.3986   -1.3702 H   0  0  0  0  0  0  0  0  0  0  0  0
  -11.7392   -0.2404   -0.6375 H   0  0  0  0  0  0  0  0  0  0  0  0
  -11.2736    1.4173   -0.1371 H   0  0  0  0  0  0  0  0  0  0  0  0
  -12.8860    0.3559    1.4738 H   0  0  0  0  0  0  0  0  0  0  0  0
  -11.3304    0.7806    2.2479 H   0  0  0  0  0  0  0  0  0  0  0  0
  -12.0005   -1.5167    2.9769 H   0  0  0  0  0  0  0  0  0  0  0  0
  -12.1820   -2.0263    1.2788 H   0  0  0  0  0  0  0  0  0  0  0  0
   -9.9624   -2.7994    2.1001 H   0  0  0  0  0  0  0  0  0  0  0  0
   -9.5489   -1.1448    2.6338 H   0  0  0  0  0  0  0  0  0  0  0  0
  -10.0298   -2.0787   -0.2735 H   0  0  0  0  0  0  0  0  0  0  0  0
   -8.4630   -1.6237    0.4567 H   0  0  0  0  0  0  0  0  0  0  0  0
    7.1519   -0.5282    1.1532 H   0  0  0  0  0  0  0  0  0  0  0  0
    7.2608   -0.3823   -0.6327 H   0  0  0  0  0  0  0  0  0  0  0  0
    8.8183   -2.3569    1.1604 H   0  0  0  0  0  0  0  0  0  0  0  0
    8.9513   -2.3169   -0.6191 H   0  0  0  0  0  0  0  0  0  0  0  0
   10.6391   -0.6665   -1.5087 H   0  0  0  0  0  0  0  0  0  0  0  0
    9.1775    0.3466   -1.3129 H   0  0  0  0  0  0  0  0  0  0  0  0
   10.4233    2.0048    0.0319 H   0  0  0  0  0  0  0  0  0  0  0  0
   11.2555    1.7362   -1.5280 H   0  0  0  0  0  0  0  0  0  0  0  0
   12.8783    1.7600    0.4527 H   0  0  0  0  0  0  0  0  0  0  0  0
   12.8988    0.2168   -0.4378 H   0  0  0  0  0  0  0  0  0  0  0  0
   12.8009   -0.2736    2.0032 H   0  0  0  0  0  0  0  0  0  0  0  0
   11.3637    0.7753    2.1847 H   0  0  0  0  0  0  0  0  0  0  0  0
   10.6555   -1.5886    2.0925 H   0  0  0  0  0  0  0  0  0  0  0  0
   11.5465   -1.8428    0.5573 H   0  0  0  0  0  0  0  0  0  0  0  0
  3 29  1  0  0  0  0
  3 12  1  0  0  0  0
  4 36  1  0  0  0  0
  5 16  1  0  0  0  0
  6 18  1  0  0  0  0
  6 17  1  0  0  0  0
  7 35  1  0  0  0  0
  8 42  1  0  0  0  0
  9 14  1  0  0  0  0
  9  1  1  0  0  0  0
 10  9  2  0  0  0  0
 11 12  2  0  0  0  0
 11 10  1  0  0  0  0
 12 13  1  0  0  0  0
 13 45  1  0  0  0  0
 13 14  1  0  0  0  0
 14 15  2  0  0  0  0
 15 46  1  0  0  0  0
 15  5  1  0  0  0  0
 16 25  2  0  0  0  0
 16 17  1  0  0  0  0
 17 28  2  0  0  0  0
 18 47  1  0  0  0  0
 19 18  2  0  0  0  0
 19 20  1  0  0  0  0
 20 48  1  0  0  0  0
 21  4  1  0  0  0  0
 21 20  2  0  0  0  0
 22 21  1  0  0  0  0
 23 24  1  0  0  0  0
 23 22  2  0  0  0  0
 24  2  1  6  0  0  0
 24 19  1  0  0  0  0
 25 26  1  0  0  0  0
 26 52  1  0  0  0  0
 26 27  2  0  0  0  0
 27 53  1  0  0  0  0
 28 27  1  0  0  0  0
 28 54  1  0  0  0  0
 29 55  1  0  0  0  0
 30 29  1  0  0  0  0
 30  7  1  0  0  0  0
 31  7  1  0  0  0  0
 31 32  1  0  0  0  0
 32 33  1  0  0  0  0
 32 62  1  0  0  0  0
 33 63  1  0  0  0  0
 34 33  1  0  0  0  0
 34 65  1  0  0  0  0
 34 66  1  0  0  0  0
 35 34  1  0  0  0  0
 36 37  1  0  0  0  0
 36 69  1  0  0  0  0
 37  8  1  0  0  0  0
 37 71  1  0  0  0  0
 38 39  1  0  0  0  0
 38  8  1  0  0  0  0
 39 75  1  0  0  0  0
 39 40  1  0  0  0  0
 40 77  1  0  0  0  0
 40 41  1  0  0  0  0
 41 79  1  0  0  0  0
 41 80  1  0  0  0  0
 42 41  1  0  0  0  0
 42 81  1  0  0  0  0
 43 10  1  0  0  0  0
 44 11  1  0  0  0  0
 49 22  1  0  0  0  0
 50 23  1  0  0  0  0
 51 25  1  0  0  0  0
 56 29  1  0  0  0  0
 57 30  1  0  0  0  0
 58 30  1  0  0  0  0
 59 31  1  0  0  0  0
 60 31  1  0  0  0  0
 61 32  1  0  0  0  0
 64 33  1  0  0  0  0
 67 35  1  0  0  0  0
 68 35  1  0  0  0  0
 70 36  1  0  0  0  0
 72 37  1  0  0  0  0
 73 38  1  0  0  0  0
 74 38  1  0  0  0  0
 76 39  1  0  0  0  0
 78 40  1  0  0  0  0
 82 42  1  0  0  0  0
M  CHG  1   1  -1
M  END
