1,2,3,4
q = -2.0, confidence = 0.814

 54 57  0  0  1  0  0  0  0  0999 V2000
    2.8974    0.8766    0.0120 O   0  5  0  0  0  0  0  0  0  0  0  0
    1.0571    2.5422    0.2079 O   0  5  0  0  0  0  0  0  0  0  0  0
    1.1076   -1.0639   -0.6057 N   0  0  0  0  0  2  0  0  0  0  0  0
   -0.7526    0.6724   -0.6281 N   0  0  0  0  0  2  0  0  0  0  0  0
    3.8044   -0.0259   -0.2028 C   0  0  0  0  0  0  0  0  0  0  0  0
    5.1822    0.3343   -0.0473 C   0  0  0  0  0  0  0  0  0  0  0  0
    6.1966   -0.5898   -0.2588 C   0  0  0  0  0  0  0  0  0  0  0  0
    5.9102   -1.9294   -0.6324 C   0  0  0  0  0  0  0  0  0  0  0  0
    4.5867   -2.3148   -0.7862 C   0  0  0  0  0  3  0  0  0  0  0  0
    3.5188   -1.3932   -0.5827 C   0  0  0  0  0  0  0  0  0  0  0  0
    2.1701   -1.8306   -0.7180 C   0  0  0  0  0  0  0  0  0  0  0  0
   -0.2225   -1.6834   -0.6171 C   0  0  1  0  0  0  0  0  0  0  0  0
   -0.6468   -2.1430    0.7692 C   0  0  0  0  0  0  0  0  0  0  0  0
   -0.3244   -1.4004    1.9221 C   0  0  0  0  0  0  0  0  0  0  0  0
   -0.7978   -1.8029    3.1792 C   0  0  0  0  0  0  0  0  0  0  0  0
   -1.5935   -2.9538    3.3013 C   0  0  0  0  0  0  0  0  0  0  0  0
   -1.9058   -3.7070    2.1589 C   0  0  0  0  0  0  0  0  0  0  0  0
   -1.4339   -3.3025    0.9017 C   0  0  0  0  0  0  0  0  0  0  0  0
   -1.1538   -0.6107   -1.2451 C   0  0  1  0  0  0  0  0  0  0  0  0
   -2.6266   -0.9597   -1.1977 C   0  0  0  0  0  0  0  0  0  0  0  0
   -3.3688   -0.9139    0.0027 C   0  0  0  0  0  0  0  0  0  0  0  0
   -4.7173   -1.2940    0.0183 C   0  0  0  0  0  0  0  0  0  0  0  0
   -5.3448   -1.7329   -1.1593 C   0  0  0  0  0  0  0  0  0  0  0  0
   -4.6170   -1.7815   -2.3575 C   0  0  0  0  0  0  0  0  0  0  0  0
   -3.2687   -1.3918   -2.3738 C   0  0  0  0  0  0  0  0  0  0  0  0
   -1.6096    1.6643   -0.5330 C   0  0  0  0  0  0  0  0  0  0  0  0
   -1.3133    2.9754   -0.0563 C   0  0  0  0  0  0  0  0  0  0  0  0
   -2.3635    3.9320    0.0568 C   0  0  0  0  0  3  0  0  0  0  0  0
   -2.1205    5.2194    0.5135 C   0  0  0  0  0  0  0  0  0  0  0  0
   -0.7951    5.5825    0.8695 C   0  0  0  0  0  0  0  0  0  0  0  0
    0.2540    4.6784    0.7674 C   0  0  0  0  0  0  0  0  0  0  0  0
    0.0393    3.3418    0.2994 C   0  0  0  0  0  0  0  0  0  0  0  0
    5.3963    1.3724    0.2443 H   0  0  0  0  0  0  0  0  0  0  0  0
    7.2446   -0.2750   -0.1322 H   0  0  0  0  0  0  0  0  0  0  0  0
    6.7260   -2.6485   -0.7933 H   0  0  0  0  0  0  0  0  0  0  0  0
    4.3370   -3.3504   -1.0693 H   0  0  0  0  0  0  0  0  0  0  0  0
    2.0009   -2.9078   -0.9171 H   0  0  0  0  0  0  0  0  0  0  0  0
   -0.2233   -2.5681   -1.2899 H   0  0  0  0  0  0  0  0  0  0  0  0
    0.3077   -0.5032    1.8265 H   0  0  0  0  0  0  0  0  0  0  0  0
   -0.5384   -1.2132    4.0715 H   0  0  0  0  0  0  0  0  0  0  0  0
   -1.9621   -3.2690    4.2894 H   0  0  0  0  0  0  0  0  0  0  0  0
   -2.5215   -4.6151    2.2457 H   0  0  0  0  0  0  0  0  0  0  0  0
   -1.6935   -3.8866    0.0045 H   0  0  0  0  0  0  0  0  0  0  0  0
   -0.8526   -0.5519   -2.3152 H   0  0  0  0  0  0  0  0  0  0  0  0
   -2.8866   -0.5774    0.9318 H   0  0  0  0  0  0  0  0  0  0  0  0
   -5.2817   -1.2523    0.9621 H   0  0  0  0  0  0  0  0  0  0  0  0
   -6.4036   -2.0327   -1.1429 H   0  0  0  0  0  0  0  0  0  0  0  0
   -5.1013   -2.1174   -3.2868 H   0  0  0  0  0  0  0  0  0  0  0  0
   -2.7005   -1.4218   -3.3174 H   0  0  0  0  0  0  0  0  0  0  0  0
   -2.6527    1.4699   -0.8455 H   0  0  0  0  0  0  0  0  0  0  0  0
   -3.3831    3.6237   -0.2264 H   0  0  0  0  0  0  0  0  0  0  0  0
   -2.9390    5.9484    0.5985 H   0  0  0  0  0  0  0  0  0  0  0  0
   -0.5915    6.6024    1.2324 H   0  0  0  0  0  0  0  0  0  0  0  0
    1.2837    4.9534    1.0373 H   0  0  0  0  0  0  0  0  0  0  0  0
  2 32  1  0  0  0  0
  4 26  1  0  0  0  0
  5  6  2  0  0  0  0
  5  1  1  0  0  0  0
  6 33  1  0  0  0  0
  7 34  1  0  0  0  0
  7  6  1  0  0  0  0
  8  7  2  0  0  0  0
  9  8  1  0  0  0  0
  9 10  1  0  0  0  0
 10  5  1  0  0  0  0
 11  3  1  0  0  0  0
 11 10  2  0  0  0  0
 12 38  1  6  0  0  0
 12  3  1  0  0  0  0
 12 13  1  0  0  0  0
 13 18  2  0  0  0  0
 13 14  1  0  0  0  0
 14 15  2  0  0  0  0
 15 16  1  0  0  0  0
 15 40  1  0  0  0  0
 16 41  1  0  0  0  0
 17 42  1  0  0  0  0
 17 16  2  0  0  0  0
 18 17  1  0  0  0  0
 19 44  1  6  0  0  0
 19 20  1  0  0  0  0
 19  4  1  0  0  0  0
 19 12  1  0  0  0  0
 20 21  1  0  0  0  0
 21 22  2  0  0  0  0
 21 45  1  0  0  0  0
 22 46  1  0  0  0  0
 23 47  1  0  0  0  0
 23 22  1  0  0  0  0
 24 23  2  0  0  0  0
 25 24  1  0  0  0  0
 25 20  2  0  0  0  0
 26 27  2  0  0  0  0
 27 28  1  0  0  0  0
 27 32  1  0  0  0  0
 28 29  1  0  0  0  0
 29 52  1  0  0  0  0
 29 30  2  0  0  0  0
 30 53  1  0  0  0  0
 31 30  1  0  0  0  0
 31 54  1  0  0  0  0
 32 31  2  0  0  0  0
 35  8  1  0  0  0  0
 36  9  1  0  0  0  0
 37 11  1  0  0  0  0
 39 14  1  0  0  0  0
 43 18  1  0  0  0  0
 48 24  1  0  0  0  0
 49 25  1  0  0  0  0
 50 26  1  0  0  0  0
 51 28  1  0  0  0  0
M  CHG  2   1  -1   2  -1
M  END
