4,5,8,9
q = -3.0, confidence = 0.438

 37 41  0  0  1  0  0  0  0  0999 V2000
   -0.5747    3.4333    0.2230 P   0  0  0  0  0  0  0  0  0  0  0  0
   -6.7697   -0.1049    2.6577 O   0  0  0  0  0  0  0  0  0  0  0  0
   -5.8317   -3.2618   -2.3683 O   0  0  0  0  0  0  0  0  0  0  0  0
   -0.8520    2.2074    1.2578 O   0  0  0  0  0  1  0  0  0  0  0  0
    0.6056    2.6843   -0.6011 O   0  0  0  0  0  1  0  0  0  0  0  0
   -0.3634    4.7987    0.7891 O   0  0  0  0  0  0  0  0  0  0  0  0
   -1.8603    3.3868   -0.8379 O   0  0  0  0  0  0  0  0  0  0  0  0
   -1.5161    1.0236   -1.0603 N   0  0  0  0  0  2  0  0  0  0  0  0
   -0.8699   -0.5301    0.9021 N   0  0  0  0  0  2  0  0  0  0  0  0
   -5.7598    0.2823    0.5842 N   0  0  0  0  0  0  0  0  0  0  0  0
   -6.0281    1.2583    0.4785 H   0  0  0  0  0  0  0  0  0  0  0  0
   -5.4706   -1.7048    1.5432 N   0  0  0  0  0  0  0  0  0  0  0  0
   -5.3275   -2.2394    2.4005 H   0  0  0  0  0  0  0  0  0  0  0  0
   -5.7556   -1.1360   -1.3929 N   0  0  0  0  0  0  0  0  0  0  0  0
   -6.1161   -0.6475   -2.2121 H   0  0  0  0  0  0  0  0  0  0  0  0
   -4.5515   -2.7674   -0.4735 N   0  0  0  0  0  0  0  0  0  0  0  0
   -4.4474   -3.7411   -0.1869 H   0  0  0  0  0  0  0  0  0  0  0  0
   -1.8017    2.2605   -1.7611 C   0  0  1  0  0  0  0  0  0  0  0  0
   -0.9594    2.4662   -2.4541 H   0  0  0  0  0  0  0  0  0  0  0  0
   -3.1196    2.1808   -2.4793 C   0  0  0  0  0  0  0  0  0  0  0  0
   -3.2942    2.8956   -3.2967 H   0  0  0  0  0  0  0  0  0  0  0  0
   -4.1102    1.3438   -2.0465 C   0  0  0  0  0  0  0  0  0  0  0  0
   -5.0975    1.3762   -2.5368 H   0  0  0  0  0  0  0  0  0  0  0  0
   -3.8663    0.4072   -0.9847 C   0  0  0  0  0  0  0  0  0  0  0  0
   -4.9581   -0.4410   -0.3770 C   0  0  1  0  0  0  0  0  0  0  0  0
   -4.4662   -1.6916    0.4872 C   0  0  1  0  0  0  0  0  0  0  0  0
   -3.0462   -1.5910    1.0325 C   0  0  0  0  0  0  0  0  0  0  0  0
   -2.5522   -2.4554    2.0163 C   0  0  0  0  0  0  0  0  0  0  0  0
   -3.2017   -3.2183    2.4743 H   0  0  0  0  0  0  0  0  0  0  0  0
   -1.2080   -2.3534    2.4210 C   0  0  0  0  0  0  0  0  0  0  0  0
   -0.7921   -3.0217    3.1874 H   0  0  0  0  0  0  0  0  0  0  0  0
   -0.3969   -1.3774    1.8375 C   0  0  0  0  0  3  0  0  0  0  0  0
    0.6566   -1.2550    2.1281 H   0  0  0  0  0  0  0  0  0  0  0  0
   -2.1677   -0.6299    0.4944 C   0  0  0  0  0  0  0  0  0  0  0  0
   -2.5549    0.3153   -0.5331 C   0  0  0  0  0  0  0  0  0  0  0  0
   -6.0909   -0.4516    1.7082 C   0  0  0  0  0  0  0  0  0  0  0  0
   -5.4394   -2.4800   -1.5198 C   0  0  0  0  0  0  0  0  0  0  0  0
  1  6  2  0  0  0  0
  1  4  1  0  0  0  0
  3 37  2  0  0  0  0
  5  1  1  0  0  0  0
  7  1  1  0  0  0  0
  8 35  1  0  0  0  0
  9 32  1  0  0  0  0
 10 36  1  0  0  0  0
 11 10  1  0  0  0  0
 12 36  1  0  0  0  0
 12 13  1  0  0  0  0
 14 25  1  0  0  0  0
 15 14  1  0  0  0  0
 16 17  1  0  0  0  0
 16 26  1  0  0  0  0
 18 19  1  6  0  0  0
 18  8  1  0  0  0  0
 18  7  1  0  0  0  0
 20 22  2  0  0  0  0
 20 18  1  0  0  0  0
 21 20  1  0  0  0  0
 22 24  1  0  0  0  0
 23 22  1  0  0  0  0
 24 35  2  0  0  0  0
 25 24  1  6  0  0  0
 25 26  1  0  0  0  0
 25 10  1  0  0  0  0
 26 27  1  1  0  0  0
 26 12  1  0  0  0  0
 27 28  1  0  0  0  0
 28 30  2  0  0  0  0
 28 29  1  0  0  0  0
 30 31  1  0  0  0  0
 32 33  1  0  0  0  0
 32 30  1  0  0  0  0
 34  9  1  0  0  0  0
 34 27  2  0  0  0  0
 35 34  1  0  0  0  0
 36  2  2  0  0  0  0
 37 14  1  0  0  0  0
 37 16  1  0  0  0  0
M  END
