1,2,3,4
q = -2.0, confidence = 0.874

 44 45  0  0  0  0  0  0  0  0999 V2000
    2.0180   -1.1317   -0.0363 O   0  5  0  0  0  0  0  0  0  0  0  0
   -1.7541   -0.7769   -0.5512 O   0  5  0  0  0  0  0  0  0  0  0  0
   -0.0096    0.3553    1.3045 N   0  0  0  0  0  0  0  0  0  0  0  0
   -0.3022   -2.6004    1.1885 N   0  0  0  0  0  0  0  0  0  0  0  0
   -3.8232    0.3049   -0.8891 C   0  0  0  0  0  0  0  0  0  0  0  0
    2.7269    0.0155    0.0056 C   0  0  0  0  0  0  0  0  0  0  0  0
   -0.8247   -0.4024    2.2813 C   0  0  0  0  0  0  0  0  0  0  0  0
   -0.8242    0.1084    3.2731 H   0  0  0  0  0  0  0  0  0  0  0  0
   -1.8726   -0.4075    1.9275 H   0  0  0  0  0  0  0  0  0  0  0  0
    1.3091    0.6995    1.9144 C   0  0  0  0  0  0  0  0  0  0  0  0
    1.1685    1.5354    2.6375 H   0  0  0  0  0  0  0  0  0  0  0  0
    1.6389   -0.1831    2.4955 H   0  0  0  0  0  0  0  0  0  0  0  0
    2.3953    1.0298    0.9311 C   0  0  0  0  0  0  0  0  0  0  0  0
   -2.0518    1.4877    0.2925 C   0  0  0  0  0  0  0  0  0  0  0  0
    3.7828    0.2494   -0.9040 C   0  0  0  0  0  0  0  0  0  0  0  0
   -2.4933    0.3260   -0.3888 C   0  0  0  0  0  0  0  0  0  0  0  0
   -2.9271    2.5842    0.4352 C   0  0  0  0  0  0  0  0  0  0  0  0
   -2.6079    3.4926    0.9662 H   0  0  0  0  0  0  0  0  0  0  0  0
   -4.2155    2.5301   -0.0984 C   0  0  0  0  0  0  0  0  0  0  0  0
   -0.6567    1.6138    0.8599 C   0  0  0  0  0  0  0  0  0  0  0  0
   -0.6950    2.3269    1.7178 H   0  0  0  0  0  0  0  0  0  0  0  0
    0.0229    2.0571    0.1008 H   0  0  0  0  0  0  0  0  0  0  0  0
   -1.6096   -3.2464    0.9530 C   0  0  0  0  0  0  0  0  0  0  0  0
   -2.4146   -2.4915    0.9420 H   0  0  0  0  0  0  0  0  0  0  0  0
   -1.5968   -3.7345   -0.0391 H   0  0  0  0  0  0  0  0  0  0  0  0
   -1.8163   -4.0081    1.7398 H   0  0  0  0  0  0  0  0  0  0  0  0
   -0.3093   -1.8304    2.4509 C   0  0  0  0  0  0  0  0  0  0  0  0
   -0.9194   -2.3500    3.2258 H   0  0  0  0  0  0  0  0  0  0  0  0
    0.7280   -1.8143    2.8383 H   0  0  0  0  0  0  0  0  0  0  0  0
   -4.6875    1.3906   -0.7641 C   0  0  0  0  0  0  0  0  0  0  0  0
   -5.7056    1.3462   -1.1726 H   0  0  0  0  0  0  0  0  0  0  0  0
    4.5098    1.4432   -0.8847 C   0  0  0  0  0  0  0  0  0  0  0  0
    5.3263    1.6082   -1.6003 H   0  0  0  0  0  0  0  0  0  0  0  0
    4.1587    2.4261    0.0499 C   0  0  0  0  0  0  0  0  0  0  0  0
    3.1115    2.2389    0.9586 C   0  0  0  0  0  0  0  0  0  0  0  0
    2.8663    3.0340    1.6774 H   0  0  0  0  0  0  0  0  0  0  0  0
    0.7567   -3.6302    1.2094 C   0  0  0  0  0  0  0  0  0  0  0  0
    0.7304   -4.1861    0.2540 H   0  0  0  0  0  0  0  0  0  0  0  0
    1.7448   -3.1416    1.2936 H   0  0  0  0  0  0  0  0  0  0  0  0
    0.6099   -4.3416    2.0546 H   0  0  0  0  0  0  0  0  0  0  0  0
    4.0830   -0.6982   -1.8007 F   0  0  0  0  0  0  0  0  0  0  0  0
   -5.0344    3.5894    0.0418 F   0  0  0  0  0  0  0  0  0  0  0  0
   -4.2429   -0.8102   -1.5033 F   0  0  0  0  0  0  0  0  0  0  0  0
    4.8494    3.5821    0.0690 F   0  0  0  0  0  0  0  0  0  0  0  0
  1  6  1  0  0  0  0
  2 16  1  0  0  0  0
  3 10  1  0  0  0  0
  3  7  1  0  0  0  0
  4 37  1  0  0  0  0
  4 27  1  0  0  0  0
  5 30  2  0  0  0  0
  5 16  1  0  0  0  0
  6 13  1  0  0  0  0
  7 27  1  0  0  0  0
  7  8  1  0  0  0  0
  9  7  1  0  0  0  0
 10 12  1  0  0  0  0
 10 11  1  0  0  0  0
 13 35  2  0  0  0  0
 13 10  1  0  0  0  0
 14 17  1  0  0  0  0
 14 20  1  0  0  0  0
 15 32  1  0  0  0  0
 15  6  2  0  0  0  0
 16 14  2  0  0  0  0
 17 18  1  0  0  0  0
 19 42  1  0  0  0  0
 19 17  2  0  0  0  0
 20  3  1  0  0  0  0
 20 21  1  0  0  0  0
 22 20  1  0  0  0  0
 23  4  1  0  0  0  0
 23 26  1  0  0  0  0
 24 23  1  0  0  0  0
 25 23  1  0  0  0  0
 27 29  1  0  0  0  0
 27 28  1  0  0  0  0
 30 19  1  0  0  0  0
 31 30  1  0  0  0  0
 32 34  2  0  0  0  0
 33 32  1  0  0  0  0
 34 44  1  0  0  0  0
 34 35  1  0  0  0  0
 35 36  1  0  0  0  0
 37 39  1  0  0  0  0
 37 40  1  0  0  0  0
 38 37  1  0  0  0  0
 41 15  1  0  0  0  0
 43  5  1  0  0  0  0
M  CHG  2   1  -1   2  -1
M  END
