1,2,4,6
q = -2.0, confidence = 0.848

 35 35  0  0  0  0  0  0  0  0999 V2000
    0.0136   -1.1924   -0.5653 O   0  5  0  0  0  0  0  0  0  0  0  0
    3.1257    0.5287    0.7287 O   0  0  0  0  0  1  0  0  0  0  0  0
   -5.3758    0.0921   -0.4248 O   0  0  0  0  0  0  0  0  0  0  0  0
    0.3734    0.8788    1.2993 N   0  0  0  0  0  0  0  0  0  0  0  0
    0.9837    1.0267    2.1121 H   0  0  0  0  0  0  0  0  0  0  0  0
    1.5736    1.1403   -1.3070 N   0  0  0  0  0  0  0  0  0  0  0  0
    1.4763    0.6966   -2.2270 H   0  0  0  0  0  0  0  0  0  0  0  0
   -1.2822   -0.8648   -0.4643 C   0  0  0  0  0  0  0  0  0  0  0  0
   -2.1632   -1.2541   -1.5034 C   0  0  0  0  0  0  0  0  0  0  0  0
   -1.7444   -1.8288   -2.3423 H   0  0  0  0  0  0  0  0  0  0  0  0
   -3.5183   -0.9291   -1.4612 C   0  0  0  0  0  0  0  0  0  0  0  0
   -4.2046   -1.2373   -2.2633 H   0  0  0  0  0  0  0  0  0  0  0  0
   -4.0397   -0.1879   -0.3792 C   0  0  0  0  0  0  0  0  0  0  0  0
   -3.1714    0.2163    0.6525 C   0  0  0  0  0  0  0  0  0  0  0  0
   -3.5453    0.8005    1.5055 H   0  0  0  0  0  0  0  0  0  0  0  0
   -1.8038   -0.1227    0.6266 C   0  0  0  0  0  0  0  0  0  0  0  0
   -0.9010    0.2900    1.7627 C   0  0  0  0  0  0  0  0  0  0  0  0
   -1.4477    1.0013    2.4239 H   0  0  0  0  0  0  0  0  0  0  0  0
   -0.6222   -0.5930    2.3757 H   0  0  0  0  0  0  0  0  0  0  0  0
    0.2623    2.1348    0.5348 C   0  0  0  0  0  0  0  0  0  0  0  0
    1.0876    2.8006    0.8578 H   0  0  0  0  0  0  0  0  0  0  0  0
   -0.6897    2.6633    0.7620 H   0  0  0  0  0  0  0  0  0  0  0  0
    0.3592    1.9041   -0.9782 C   0  0  0  0  0  0  0  0  0  0  0  0
   -0.5165    1.3269   -1.3293 H   0  0  0  0  0  0  0  0  0  0  0  0
    0.3371    2.8914   -1.4956 H   0  0  0  0  0  0  0  0  0  0  0  0
    2.8395    1.9026   -1.2114 C   0  0  0  0  0  0  0  0  0  0  0  0
    2.6234    2.8817   -0.7375 H   0  0  0  0  0  0  0  0  0  0  0  0
    3.2623    2.1152   -2.2162 H   0  0  0  0  0  0  0  0  0  0  0  0
    3.8302    1.1119   -0.3376 C   0  0  0  0  0  0  0  0  0  0  0  0
    4.3211    0.3181   -0.9508 H   0  0  0  0  0  0  0  0  0  0  0  0
    4.6232    1.7886    0.0541 H   0  0  0  0  0  0  0  0  0  0  0  0
   -5.9402    0.8201    0.6446 C   0  0  0  0  0  0  0  0  0  0  0  0
   -7.0181    0.9269    0.4206 H   0  0  0  0  0  0  0  0  0  0  0  0
   -5.4920    1.8358    0.7429 H   0  0  0  0  0  0  0  0  0  0  0  0
   -5.8258    0.2900    1.6179 H   0  0  0  0  0  0  0  0  0  0  0  0
  1  8  1  0  0  0  0
  3 13  1  0  0  0  0
  3 32  1  0  0  0  0
  4 17  1  0  0  0  0
  4  5  1  0  0  0  0
  6 26  1  0  0  0  0
  6 23  1  0  0  0  0
  7  6  1  0  0  0  0
  8 16  1  0  0  0  0
  9 11  1  0  0  0  0
  9  8  2  0  0  0  0
 10  9  1  0  0  0  0
 11 13  2  0  0  0  0
 12 11  1  0  0  0  0
 13 14  1  0  0  0  0
 14 15  1  0  0  0  0
 16 14  2  0  0  0  0
 16 17  1  0  0  0  0
 17 19  1  0  0  0  0
 17 18  1  0  0  0  0
 20 22  1  0  0  0  0
 20 21  1  0  0  0  0
 20  4  1  0  0  0  0
 23 20  1  0  0  0  0
 24 23  1  0  0  0  0
 25 23  1  0  0  0  0
 26 27  1  0  0  0  0
 26 29  1  0  0  0  0
 28 26  1  0  0  0  0
 29 31  1  0  0  0  0
 29  2  1  0  0  0  0
 30 29  1  0  0  0  0
 32 34  1  0  0  0  0
 32 35  1  0  0  0  0
 33 32  1  0  0  0  0
M  CHG  1   1  -1
M  END
