1,2,3,5
q = -2.0, confidence = 0.932

 34 34  0  0  0  0  0  0  0  0999 V2000
   -0.3269   -1.0664   -0.6509 O   0  5  0  0  0  0  0  0  0  0  0  0
    2.9221    0.3423    0.6884 O   0  0  0  0  0  1  0  0  0  0  0  0
    0.2182    0.7548    1.4216 N   0  0  0  0  0  0  0  0  0  0  0  0
    0.8652    0.7821    2.2190 H   0  0  0  0  0  0  0  0  0  0  0  0
    1.3223    1.2573   -1.1906 N   0  0  0  0  0  0  0  0  0  0  0  0
    1.1646    0.9271   -2.1492 H   0  0  0  0  0  0  0  0  0  0  0  0
   -1.5981   -0.6993   -0.4523 C   0  0  0  0  0  0  0  0  0  0  0  0
   -2.5392   -0.9278   -1.4837 C   0  0  0  0  0  0  0  0  0  0  0  0
   -2.1838   -1.4179   -2.4019 H   0  0  0  0  0  0  0  0  0  0  0  0
   -3.8752   -0.5448   -1.3326 C   0  0  0  0  0  0  0  0  0  0  0  0
   -4.5864   -0.7401   -2.1514 H   0  0  0  0  0  0  0  0  0  0  0  0
   -4.3281    0.0926   -0.1581 C   0  0  0  0  0  0  0  0  0  0  0  0
   -3.3801    0.3278    0.8553 C   0  0  0  0  0  0  0  0  0  0  0  0
   -3.7009    0.8331    1.7822 H   0  0  0  0  0  0  0  0  0  0  0  0
   -2.0343   -0.0617    0.7414 C   0  0  0  0  0  0  0  0  0  0  0  0
   -1.0664    0.1761    1.8728 C   0  0  0  0  0  0  0  0  0  0  0  0
   -1.5494    0.8314    2.6336 H   0  0  0  0  0  0  0  0  0  0  0  0
   -0.8082   -0.7828    2.3700 H   0  0  0  0  0  0  0  0  0  0  0  0
    0.1406    2.0945    0.8099 C   0  0  0  0  0  0  0  0  0  0  0  0
    1.0110    2.6800    1.1680 H   0  0  0  0  0  0  0  0  0  0  0  0
   -0.7733    2.6362    1.1391 H   0  0  0  0  0  0  0  0  0  0  0  0
    0.1643    2.0356   -0.7221 C   0  0  0  0  0  0  0  0  0  0  0  0
   -0.7543    1.5464   -1.0964 H   0  0  0  0  0  0  0  0  0  0  0  0
    0.1738    3.0758   -1.1230 H   0  0  0  0  0  0  0  0  0  0  0  0
    2.6294    1.9424   -1.0687 C   0  0  0  0  0  0  0  0  0  0  0  0
    2.4848    2.8698   -0.4780 H   0  0  0  0  0  0  0  0  0  0  0  0
    3.0216    2.2486   -2.0616 H   0  0  0  0  0  0  0  0  0  0  0  0
    3.6124    1.0105   -0.3370 C   0  0  0  0  0  0  0  0  0  0  0  0
    4.0352    0.2695   -1.0576 H   0  0  0  0  0  0  0  0  0  0  0  0
    4.4550    1.5988    0.0918 H   0  0  0  0  0  0  0  0  0  0  0  0
   -5.7747    0.4845    0.0105 C   0  0  0  0  0  0  0  0  0  0  0  0
   -6.1932    0.9164   -0.9213 H   0  0  0  0  0  0  0  0  0  0  0  0
   -5.9055    1.2288    0.8206 H   0  0  0  0  0  0  0  0  0  0  0  0
   -6.4047   -0.3945    0.2677 H   0  0  0  0  0  0  0  0  0  0  0  0
  1  7  1  0  0  0  0
  3 16  1  0  0  0  0
  3  4  1  0  0  0  0
  5 25  1  0  0  0  0
  5 22  1  0  0  0  0
  6  5  1  0  0  0  0
  7 15  1  0  0  0  0
  8 10  1  0  0  0  0
  8  7  2  0  0  0  0
  9  8  1  0  0  0  0
 10 12  2  0  0  0  0
 11 10  1  0  0  0  0
 12 31  1  0  0  0  0
 12 13  1  0  0  0  0
 13 14  1  0  0  0  0
 15 13  2  0  0  0  0
 15 16  1  0  0  0  0
 16 18  1  0  0  0  0
 16 17  1  0  0  0  0
 19 21  1  0  0  0  0
 19 20  1  0  0  0  0
 19  3  1  0  0  0  0
 22 19  1  0  0  0  0
 23 22  1  0  0  0  0
 24 22  1  0  0  0  0
 25 26  1  0  0  0  0
 25 28  1  0  0  0  0
 27 25  1  0  0  0  0
 28 30  1  0  0  0  0
 28  2  1  0  0  0  0
 29 28  1  0  0  0  0
 31 34  1  0  0  0  0
 31 33  1  0  0  0  0
 32 31  1  0  0  0  0
M  CHG  1   1  -1
M  END
