4,5,8,10
q = -2.0, confidence = 0.856

 66 69  0  0  0  0  0  0  0  0999 V2000
   -6.9685   -1.3748   -0.6752 Br  0  0  0  0  0  0  0  0  0  0  0  0
    7.7362   -0.9692    0.7139 Br  0  0  0  0  0  0  0  0  0  0  0  0
   -0.6277    3.2138   -0.9430 O   0  0  0  0  0  0  0  0  0  0  0  0
    2.0700   -1.6375   -1.3549 O   0  5  0  0  0  0  0  0  0  0  0  0
   -0.9856   -2.2408   -0.2188 O   0  5  0  0  0  0  0  0  0  0  0  0
   -2.8756    4.8682    1.3986 O   0  0  0  0  0  0  0  0  0  0  0  0
   -2.5204    4.4584    2.2127 H   0  0  0  0  0  0  0  0  0  0  0  0
    1.2627   -0.0081    0.9763 N   0  0  0  0  0  2  0  0  0  0  0  0
   -2.0386    2.1394    1.7442 O   0  0  0  0  0  0  0  0  0  0  0  0
   -0.7114    0.1724   -1.8494 N   0  0  0  0  0  2  0  0  0  0  0  0
    2.5528   -0.0672    1.1733 C   0  0  0  0  0  3  0  0  0  0  0  0
    2.9560    0.4749    2.0581 H   0  0  0  0  0  0  0  0  0  0  0  0
    0.4503    0.8181    1.8632 C   0  0  0  0  0  0  0  0  0  0  0  0
    0.1999    1.7569    1.3295 H   0  0  0  0  0  0  0  0  0  0  0  0
    1.0439    1.1116    2.7609 H   0  0  0  0  0  0  0  0  0  0  0  0
   -4.2215   -0.7322   -1.1990 C   0  0  0  0  0  0  0  0  0  0  0  0
   -4.6279    0.1371   -1.7389 H   0  0  0  0  0  0  0  0  0  0  0  0
    3.2537   -1.4697   -0.8512 C   0  0  0  0  0  0  0  0  0  0  0  0
   -1.0300    4.1488    0.0513 C   0  0  0  0  0  0  0  0  0  0  0  0
   -0.8205    5.1926   -0.2706 H   0  0  0  0  0  0  0  0  0  0  0  0
   -0.4805    3.9617    1.0001 H   0  0  0  0  0  0  0  0  0  0  0  0
   -2.2490   -2.0309   -0.4025 C   0  0  0  0  0  0  0  0  0  0  0  0
   -5.0817   -1.6437   -0.6064 C   0  0  0  0  0  0  0  0  0  0  0  0
   -2.0135    0.0660   -1.8408 C   0  0  0  0  0  3  0  0  0  0  0  0
   -2.5882    0.7837   -2.4694 H   0  0  0  0  0  0  0  0  0  0  0  0
   -0.8410    0.1415    2.2671 C   0  0  0  0  0  0  0  0  0  0  0  0
   -2.8074   -0.8980   -1.1251 C   0  0  0  0  0  0  0  0  0  0  0  0
   -2.0754    0.8213    2.1445 C   0  0  0  0  0  0  0  0  0  0  0  0
   -4.5609   -2.7913    0.0425 C   0  0  0  0  0  0  0  0  0  0  0  0
   -5.2507   -3.5262    0.4831 H   0  0  0  0  0  0  0  0  0  0  0  0
   -2.5287    3.9864    0.3450 C   0  0  0  0  0  0  0  0  0  0  0  0
   -3.1221    4.2944   -0.5425 H   0  0  0  0  0  0  0  0  0  0  0  0
   -3.1900   -2.9769    0.1268 C   0  0  0  0  0  0  0  0  0  0  0  0
   -2.7685   -3.8544    0.6375 H   0  0  0  0  0  0  0  0  0  0  0  0
    3.3955    2.1794   -1.4550 C   0  0  0  0  0  0  0  0  0  0  0  0
    4.4407    1.8656   -1.5870 H   0  0  0  0  0  0  0  0  0  0  0  0
    1.7269    3.6002   -0.3836 C   0  0  0  0  0  0  0  0  0  0  0  0
    1.4917    4.4221    0.3053 H   0  0  0  0  0  0  0  0  0  0  0  0
   -3.2850    0.1788    2.4669 C   0  0  0  0  0  0  0  0  0  0  0  0
   -4.2384    0.7131    2.3508 H   0  0  0  0  0  0  0  0  0  0  0  0
   -0.0765    1.1616   -2.7225 C   0  0  0  0  0  0  0  0  0  0  0  0
   -0.8398    1.8686   -3.1165 H   0  0  0  0  0  0  0  0  0  0  0  0
    0.3669    0.6223   -3.5872 H   0  0  0  0  0  0  0  0  0  0  0  0
   -2.8988    2.5440    0.6747 C   0  0  0  0  0  0  0  0  0  0  0  0
   -3.9687    2.5103    0.9769 H   0  0  0  0  0  0  0  0  0  0  0  0
   -2.7502    1.8790   -0.2003 H   0  0  0  0  0  0  0  0  0  0  0  0
    0.7030    2.9366   -1.0869 C   0  0  0  0  0  0  0  0  0  0  0  0
    5.6819   -1.8850   -1.0910 C   0  0  0  0  0  0  0  0  0  0  0  0
    6.5179   -2.3271   -1.6528 H   0  0  0  0  0  0  0  0  0  0  0  0
    1.0252    1.9017   -2.0028 C   0  0  0  0  0  0  0  0  0  0  0  0
    3.0648    3.2101   -0.5662 C   0  0  0  0  0  0  0  0  0  0  0  0
    3.8553    3.7298   -0.0036 H   0  0  0  0  0  0  0  0  0  0  0  0
    2.3710    1.5413   -2.1715 C   0  0  0  0  0  0  0  0  0  0  0  0
    2.6132    0.7240   -2.8676 H   0  0  0  0  0  0  0  0  0  0  0  0
    3.5430   -0.7351    0.3691 C   0  0  0  0  0  0  0  0  0  0  0  0
   -0.8498   -1.1802    2.7504 C   0  0  0  0  0  0  0  0  0  0  0  0
    0.1049   -1.7225    2.8291 H   0  0  0  0  0  0  0  0  0  0  0  0
   -2.0474   -1.8186    3.0934 C   0  0  0  0  0  0  0  0  0  0  0  0
   -2.0331   -2.8556    3.4588 H   0  0  0  0  0  0  0  0  0  0  0  0
    5.9414   -1.1663    0.1018 C   0  0  0  0  0  0  0  0  0  0  0  0
    4.8910   -0.6082    0.8150 C   0  0  0  0  0  0  0  0  0  0  0  0
    5.0924   -0.0450    1.7391 H   0  0  0  0  0  0  0  0  0  0  0  0
   -3.2660   -1.1378    2.9421 C   0  0  0  0  0  0  0  0  0  0  0  0
   -4.2149   -1.6373    3.1870 H   0  0  0  0  0  0  0  0  0  0  0  0
    4.3782   -2.0282   -1.5442 C   0  0  0  0  0  0  0  0  0  0  0  0
    4.1603   -2.5841   -2.4678 H   0  0  0  0  0  0  0  0  0  0  0  0
  1 23  1  0  0  0  0
  3 19  1  0  0  0  0
  4 18  1  0  0  0  0
  6  7  1  0  0  0  0
  8 11  1  0  0  0  0
  8 13  1  0  0  0  0
  9 28  1  0  0  0  0
 10 24  1  0  0  0  0
 11 12  1  0  0  0  0
 13 26  1  0  0  0  0
 13 15  1  0  0  0  0
 14 13  1  0  0  0  0
 16 27  2  0  0  0  0
 16 23  1  0  0  0  0
 17 16  1  0  0  0  0
 18 55  1  0  0  0  0
 19 31  1  0  0  0  0
 19 21  1  0  0  0  0
 20 19  1  0  0  0  0
 22  5  1  0  0  0  0
 22 33  2  0  0  0  0
 23 29  2  0  0  0  0
 24 27  1  0  0  0  0
 25 24  1  0  0  0  0
 26 56  1  0  0  0  0
 27 22  1  0  0  0  0
 28 26  2  0  0  0  0
 28 39  1  0  0  0  0
 29 33  1  0  0  0  0
 29 30  1  0  0  0  0
 31 44  1  0  0  0  0
 31  6  1  0  0  0  0
 32 31  1  0  0  0  0
 33 34  1  0  0  0  0
 35 51  1  0  0  0  0
 36 35  1  0  0  0  0
 37 38  1  0  0  0  0
 39 63  2  0  0  0  0
 40 39  1  0  0  0  0
 41 50  1  0  0  0  0
 41 10  1  0  0  0  0
 42 41  1  0  0  0  0
 43 41  1  0  0  0  0
 44 45  1  0  0  0  0
 44  9  1  0  0  0  0
 46 44  1  0  0  0  0
 47  3  1  0  0  0  0
 47 37  1  0  0  0  0
 48 60  2  0  0  0  0
 49 48  1  0  0  0  0
 50 47  2  0  0  0  0
 51 37  2  0  0  0  0
 51 52  1  0  0  0  0
 53 50  1  0  0  0  0
 53 35  2  0  0  0  0
 54 53  1  0  0  0  0
 55 61  2  0  0  0  0
 55 11  1  0  0  0  0
 56 57  1  0  0  0  0
 56 58  2  0  0  0  0
 58 59  1  0  0  0  0
 60  2  1  0  0  0  0
 60 61  1  0  0  0  0
 61 62  1  0  0  0  0
 63 58  1  0  0  0  0
 63 64  1  0  0  0  0
 65 48  1  0  0  0  0
 65 18  2  0  0  0  0
 66 65  1  0  0  0  0
M  CHG  2   4  -1   5  -1
M  END
