1,2,9,10
q = -1.0

 57 57  0  0  0  0  0  0  0  0999 V2000
   -1.5254   -1.0543    0.3357 O   0  5  0  0  0  0  0  0  0  0  0  0
    1.0852   -1.6826    0.4144 O   0  5  0  0  0  0  0  0  0  0  0  0
   -4.7646    2.4074   -0.3792 O   0  0  0  0  0  0  0  0  0  0  0  0
   -5.4433    0.3212    0.1660 O   0  0  0  0  0  0  0  0  0  0  0  0
   -3.6804   -1.5705    0.1069 O   0  0  0  0  0  0  0  0  0  0  0  0
    2.7193   -3.1588    0.0728 O   0  0  0  0  0  0  0  0  0  0  0  0
    5.2704   -2.3247    0.0592 O   0  0  0  0  0  0  0  0  0  0  0  0
    5.5577   -0.0417    0.0782 O   0  0  0  0  0  0  0  0  0  0  0  0
   -0.7967    1.6185   -0.0225 N   0  0  0  0  0  2  0  0  0  0  0  0
    1.6926    0.9937    0.0772 N   0  0  0  0  0  2  0  0  0  0  0  0
   -2.7094   -0.6473    0.1821 C   0  0  0  0  0  0  0  0  0  0  0  0
   -3.0962    0.7361    0.0221 C   0  0  0  0  0  0  0  0  0  0  0  0
   -2.1188    1.7446   -0.1109 C   0  0  0  0  0  3  0  0  0  0  0  0
   -2.5465    2.7397   -0.3291 H   0  0  0  0  0  0  0  0  0  0  0  0
    0.0685    2.7185   -0.1808 C   0  0  0  0  0  0  0  0  0  0  0  0
   -0.3098    4.0615   -0.3842 C   0  0  0  0  0  0  0  0  0  0  0  0
   -1.3719    4.3385   -0.4295 H   0  0  0  0  0  0  0  0  0  0  0  0
    0.6697    5.0521   -0.5201 C   0  0  0  0  0  0  0  0  0  0  0  0
    0.3651    6.0979   -0.6746 H   0  0  0  0  0  0  0  0  0  0  0  0
    2.0343    4.7175   -0.4497 C   0  0  0  0  0  0  0  0  0  0  0  0
    2.8011    5.5006   -0.5450 H   0  0  0  0  0  0  0  0  0  0  0  0
    2.4240    3.3879   -0.2474 C   0  0  0  0  0  0  0  0  0  0  0  0
    3.4934    3.1444   -0.1800 H   0  0  0  0  0  0  0  0  0  0  0  0
    1.4498    2.3787   -0.1150 C   0  0  0  0  0  0  0  0  0  0  0  0
    2.9312    0.5033    0.0123 C   0  0  0  0  0  3  0  0  0  0  0  0
    3.7499    1.2145   -0.1708 H   0  0  0  0  0  0  0  0  0  0  0  0
    3.3222   -0.8578    0.1201 C   0  0  0  0  0  0  0  0  0  0  0  0
    2.3039   -1.8985    0.2211 C   0  0  0  0  0  0  0  0  0  0  0  0
   -4.4870    1.2452   -0.0955 C   0  0  0  0  0  0  0  0  0  0  0  0
   -6.8004    0.7826    0.0663 C   0  0  0  0  0  0  0  0  0  0  0  0
   -6.9694    1.2107   -0.9452 H   0  0  0  0  0  0  0  0  0  0  0  0
   -6.9595    1.6133    0.7874 H   0  0  0  0  0  0  0  0  0  0  0  0
   -7.7048   -0.4013    0.3471 C   0  0  0  0  0  0  0  0  0  0  0  0
   -8.7683   -0.0972    0.2804 H   0  0  0  0  0  0  0  0  0  0  0  0
   -7.5219   -0.8070    1.3621 H   0  0  0  0  0  0  0  0  0  0  0  0
   -7.5277   -1.2154   -0.3839 H   0  0  0  0  0  0  0  0  0  0  0  0
   -3.2886   -2.9473    0.2713 C   0  0  0  0  0  0  0  0  0  0  0  0
   -2.7552   -3.0610    1.2387 H   0  0  0  0  0  0  0  0  0  0  0  0
   -2.5614   -3.2190   -0.5245 H   0  0  0  0  0  0  0  0  0  0  0  0
   -4.5509   -3.7830    0.2063 C   0  0  0  0  0  0  0  0  0  0  0  0
   -4.3049   -4.8558    0.3333 H   0  0  0  0  0  0  0  0  0  0  0  0
   -5.0617   -3.6548   -0.7687 H   0  0  0  0  0  0  0  0  0  0  0  0
   -5.2592   -3.4888    1.0058 H   0  0  0  0  0  0  0  0  0  0  0  0
    1.6965   -4.1841    0.0724 C   0  0  0  0  0  0  0  0  0  0  0  0
    0.9884   -3.9880    0.9024 H   0  0  0  0  0  0  0  0  0  0  0  0
    2.2567   -5.1156    0.2811 H   0  0  0  0  0  0  0  0  0  0  0  0
    0.9702   -4.2481   -1.2625 C   0  0  0  0  0  0  0  0  0  0  0  0
    0.2270   -5.0711   -1.2445 H   0  0  0  0  0  0  0  0  0  0  0  0
    1.6806   -4.4415   -2.0906 H   0  0  0  0  0  0  0  0  0  0  0  0
    0.4386   -3.2975   -1.4625 H   0  0  0  0  0  0  0  0  0  0  0  0
    4.7195   -1.2423    0.0782 C   0  0  0  0  0  0  0  0  0  0  0  0
    6.8637   -0.2132    0.0121 C   0  0  0  0  0  3  0  0  0  0  0  0
    7.2169   -1.2569   -0.0327 H   0  0  0  0  0  0  0  0  0  0  0  0
    7.7218    0.9845    0.0841 C   0  0  0  0  0  0  0  0  0  0  0  0
    7.8286    1.3583    1.1331 H   0  0  0  0  0  0  0  0  0  0  0  0
    7.2960    1.8290   -0.5003 H   0  0  0  0  0  0  0  0  0  0  0  0
    8.7407    0.7611   -0.2861 H   0  0  0  0  0  0  0  0  0  0  0  0
  3 29  2  0  0  0  0
  5 11  1  0  0  0  0
  5 37  1  0  0  0  0
  6 28  1  0  0  0  0
  7 51  2  0  0  0  0
 11  1  1  0  0  0  0
 12 11  2  0  0  0  0
 13  9  1  0  0  0  0
 13 12  1  0  0  0  0
 14 13  1  0  0  0  0
 15 24  1  0  0  0  0
 15  9  1  0  0  0  0
 16 15  2  0  0  0  0
 17 16  1  0  0  0  0
 18 20  2  0  0  0  0
 18 16  1  0  0  0  0
 19 18  1  0  0  0  0
 20 22  1  0  0  0  0
 21 20  1  0  0  0  0
 22 23  1  0  0  0  0
 22 24  2  0  0  0  0
 24 10  1  0  0  0  0
 25 10  1  0  0  0  0
 25 27  1  0  0  0  0
 26 25  1  0  0  0  0
 27 28  2  0  0  0  0
 28  2  1  0  0  0  0
 29 12  1  0  0  0  0
 29  4  1  0  0  0  0
 30  4  1  0  0  0  0
 30 33  1  0  0  0  0
 30 32  1  0  0  0  0
 31 30  1  0  0  0  0
 33 35  1  0  0  0  0
 34 33  1  0  0  0  0
 36 33  1  0  0  0  0
 37 38  1  0  0  0  0
 39 37  1  0  0  0  0
 40 37  1  0  0  0  0
 40 41  1  0  0  0  0
 40 43  1  0  0  0  0
 42 40  1  0  0  0  0
 44  6  1  0  0  0  0
 44 46  1  0  0  0  0
 44 45  1  0  0  0  0
 47 48  1  0  0  0  0
 47 44  1  0  0  0  0
 49 47  1  0  0  0  0
 50 47  1  0  0  0  0
 51  8  1  0  0  0  0
 51 27  1  0  0  0  0
 52  8  1  0  0  0  0
 52 54  1  0  0  0  0
 53 52  1  0  0  0  0
 54 55  1  0  0  0  0
 56 54  1  0  0  0  0
 57 54  1  0  0  0  0
M  CHG  2   1  -1   2  -1
M  END
