5,6,7,8
q = -2.0, confidence = 0.996

 38 40  0  0  0  0  0  0  0  0999 V2000
    2.7225   -3.3842   -0.2338 Br  0  0  0  0  0  0  0  0  0  0  0  0
   -3.0087   -3.2541    0.3978 Br  0  0  0  0  0  0  0  0  0  0  0  0
    7.3068   -0.2084   -1.4432 Br  0  0  0  0  0  0  0  0  0  0  0  0
   -7.3515   -0.0714   -1.4975 Br  0  0  0  0  0  0  0  0  0  0  0  0
   -1.3332    2.1952   -0.2447 N   0  0  0  0  0  2  0  0  0  0  0  0
    1.3308    2.1858   -0.2380 N   0  0  0  0  0  2  0  0  0  0  0  0
   -1.5398   -0.6491    0.1387 O   0  5  0  0  0  0  0  0  0  0  0  0
    1.3944   -0.6968   -0.1771 O   0  5  0  0  0  0  0  0  0  0  0  0
   -2.7642   -0.4647   -0.1903 C   0  0  0  0  0  0  0  0  0  0  0  0
   -3.6903   -1.5770   -0.1737 C   0  0  0  0  0  0  0  0  0  0  0  0
   -5.0216   -1.4639   -0.5504 C   0  0  0  0  0  0  0  0  0  0  0  0
   -5.6790   -2.3436   -0.5224 H   0  0  0  0  0  0  0  0  0  0  0  0
   -5.5253   -0.2079   -0.9719 C   0  0  0  0  0  0  0  0  0  0  0  0
   -4.7015    0.9055   -0.9928 C   0  0  0  0  0  0  0  0  0  0  0  0
   -5.1002    1.8817   -1.3073 H   0  0  0  0  0  0  0  0  0  0  0  0
   -3.3338    0.8140   -0.5963 C   0  0  0  0  0  0  0  0  0  0  0  0
   -2.5853    2.0371   -0.6065 C   0  0  0  0  0  3  0  0  0  0  0  0
   -3.1511    2.9238   -0.9663 H   0  0  0  0  0  0  0  0  0  0  0  0
   -0.7130    3.4484   -0.1955 C   0  0  0  0  0  0  0  0  0  0  0  0
   -1.3959    4.6814   -0.1080 C   0  0  0  0  0  0  0  0  0  0  0  0
   -2.4949    4.6918   -0.0694 H   0  0  0  0  0  0  0  0  0  0  0  0
   -0.6912    5.8876   -0.0344 C   0  0  0  0  0  0  0  0  0  0  0  0
   -1.2417    6.8371    0.0414 H   0  0  0  0  0  0  0  0  0  0  0  0
    0.7157    5.8835   -0.0264 C   0  0  0  0  0  0  0  0  0  0  0  0
    1.2709    6.8300    0.0534 H   0  0  0  0  0  0  0  0  0  0  0  0
    1.4138    4.6730   -0.0924 C   0  0  0  0  0  0  0  0  0  0  0  0
    2.5127    4.6768   -0.0492 H   0  0  0  0  0  0  0  0  0  0  0  0
    0.7235    3.4446   -0.1875 C   0  0  0  0  0  0  0  0  0  0  0  0
    2.5850    2.0074   -0.5862 C   0  0  0  0  0  3  0  0  0  0  0  0
    3.1857    2.8918   -0.8917 H   0  0  0  0  0  0  0  0  0  0  0  0
    3.2865    0.7595   -0.6409 C   0  0  0  0  0  0  0  0  0  0  0  0
    4.6772    0.8300   -0.9571 C   0  0  0  0  0  0  0  0  0  0  0  0
    5.1338    1.8162   -1.1302 H   0  0  0  0  0  0  0  0  0  0  0  0
    5.4482   -0.3167   -1.0366 C   0  0  0  0  0  0  0  0  0  0  0  0
    4.8643   -1.5902   -0.8156 C   0  0  0  0  0  0  0  0  0  0  0  0
    5.4786   -2.4990   -0.8753 H   0  0  0  0  0  0  0  0  0  0  0  0
    3.5105   -1.6846   -0.5271 C   0  0  0  0  0  0  0  0  0  0  0  0
    2.6378   -0.5309   -0.4239 C   0  0  0  0  0  0  0  0  0  0  0  0
  3 34  1  0  0  0  0
  4 13  1  0  0  0  0
  5 19  1  0  0  0  0
  6 28  1  0  0  0  0
  9 10  1  0  0  0  0
  9  7  1  0  0  0  0
 10  2  1  0  0  0  0
 11 12  1  0  0  0  0
 11 10  2  0  0  0  0
 13 11  1  0  0  0  0
 14 13  2  0  0  0  0
 14 16  1  0  0  0  0
 15 14  1  0  0  0  0
 16  9  2  0  0  0  0
 17 16  1  0  0  0  0
 17  5  1  0  0  0  0
 18 17  1  0  0  0  0
 19 28  2  0  0  0  0
 19 20  1  0  0  0  0
 20 21  1  0  0  0  0
 20 22  2  0  0  0  0
 22 24  1  0  0  0  0
 22 23  1  0  0  0  0
 24 25  1  0  0  0  0
 26 27  1  0  0  0  0
 26 24  2  0  0  0  0
 28 26  1  0  0  0  0
 29  6  1  0  0  0  0
 30 29  1  0  0  0  0
 31 29  1  0  0  0  0
 31 38  1  0  0  0  0
 32 31  2  0  0  0  0
 33 32  1  0  0  0  0
 34 32  1  0  0  0  0
 34 35  2  0  0  0  0
 35 37  1  0  0  0  0
 36 35  1  0  0  0  0
 37 38  2  0  0  0  0
 37  1  1  0  0  0  0
 38  8  1  0  0  0  0
M  CHG  2   7  -1   8  -1
M  END
