2,4,25,32
q = -2.0, confidence = 0.808

 50 51  0  0  0  0  0  0  0  0999 V2000
   -2.9155   -0.3764   -0.0837 C   0  0  0  0  0  0  0  0  0  0  0  0
   -1.8957    0.2400   -0.6712 O   0  5  0  0  0  0  0  0  0  0  0  0
   -2.7802   -1.6164    0.5962 C   0  0  0  0  0  0  0  0  0  0  0  0
    1.8957   -0.2399   -0.6714 O   0  5  0  0  0  0  0  0  0  0  0  0
   -4.1951    0.2430   -0.0835 C   0  0  0  0  0  0  0  0  0  0  0  0
   -5.3013   -0.3566    0.5265 C   0  0  0  0  0  0  0  0  0  0  0  0
   -6.2734    0.1571    0.4909 H   0  0  0  0  0  0  0  0  0  0  0  0
   -5.1741   -1.5950    1.1867 C   0  0  0  0  0  0  0  0  0  0  0  0
   -3.9007   -2.1921    1.2196 C   0  0  0  0  0  0  0  0  0  0  0  0
   -3.7704   -3.1487    1.7518 H   0  0  0  0  0  0  0  0  0  0  0  0
   -1.4491   -2.3250    0.6450 C   0  0  0  0  0  0  0  0  0  0  0  0
   -1.5001   -3.1164    1.4293 H   0  0  0  0  0  0  0  0  0  0  0  0
   -1.2410   -2.8301   -0.3211 H   0  0  0  0  0  0  0  0  0  0  0  0
    2.7803    1.6164    0.5961 C   0  0  0  0  0  0  0  0  0  0  0  0
    2.9155    0.3764   -0.0838 C   0  0  0  0  0  0  0  0  0  0  0  0
    4.1951   -0.2430   -0.0836 C   0  0  0  0  0  0  0  0  0  0  0  0
    5.3013    0.3564    0.5265 C   0  0  0  0  0  0  0  0  0  0  0  0
    6.2734   -0.1574    0.4909 H   0  0  0  0  0  0  0  0  0  0  0  0
    5.1742    1.5948    1.1868 C   0  0  0  0  0  0  0  0  0  0  0  0
    3.9008    2.1920    1.2196 C   0  0  0  0  0  0  0  0  0  0  0  0
    3.7705    3.1486    1.7518 H   0  0  0  0  0  0  0  0  0  0  0  0
    1.4492    2.3251    0.6448 C   0  0  0  0  0  0  0  0  0  0  0  0
    1.5002    3.1166    1.4290 H   0  0  0  0  0  0  0  0  0  0  0  0
    1.2412    2.8300   -0.3214 H   0  0  0  0  0  0  0  0  0  0  0  0
   -0.2713   -1.4511    0.9104 N   0  0  0  0  0  0  0  0  0  0  0  0
   -0.4641   -0.6049    2.1078 C   0  0  0  0  0  0  0  0  0  0  0  0
   -0.2995   -1.1968    3.0385 H   0  0  0  0  0  0  0  0  0  0  0  0
   -1.5223   -0.2781    2.1263 H   0  0  0  0  0  0  0  0  0  0  0  0
    0.4641    0.6052    2.1077 C   0  0  0  0  0  0  0  0  0  0  0  0
    0.2995    1.1972    3.0384 H   0  0  0  0  0  0  0  0  0  0  0  0
    1.5223    0.2784    2.1264 H   0  0  0  0  0  0  0  0  0  0  0  0
    0.2714    1.4513    0.9102 N   0  0  0  0  0  0  0  0  0  0  0  0
   -4.3794    1.9282   -0.9419 Br  0  0  0  0  0  0  0  0  0  0  0  0
    4.3793   -1.9283   -0.9420 Br  0  0  0  0  0  0  0  0  0  0  0  0
   -6.3719   -2.2579    1.8194 C   0  0  0  0  0  0  0  0  0  0  0  0
   -6.0696   -3.0043    2.5798 H   0  0  0  0  0  0  0  0  0  0  0  0
   -6.9835   -2.7911    1.0599 H   0  0  0  0  0  0  0  0  0  0  0  0
   -7.0376   -1.5189    2.3086 H   0  0  0  0  0  0  0  0  0  0  0  0
    6.3719    2.2576    1.8196 C   0  0  0  0  0  0  0  0  0  0  0  0
    7.0378    1.5185    2.3084 H   0  0  0  0  0  0  0  0  0  0  0  0
    6.0696    3.0036    2.5804 H   0  0  0  0  0  0  0  0  0  0  0  0
    6.9834    2.7912    1.0602 H   0  0  0  0  0  0  0  0  0  0  0  0
   -0.9144    2.3188    1.0512 C   0  0  0  0  0  0  0  0  0  0  0  0
   -0.7465    3.0742    1.8536 H   0  0  0  0  0  0  0  0  0  0  0  0
   -1.8096    1.7236    1.2977 H   0  0  0  0  0  0  0  0  0  0  0  0
   -1.1125    2.8342    0.0940 H   0  0  0  0  0  0  0  0  0  0  0  0
    0.9145   -2.3185    1.0514 C   0  0  0  0  0  0  0  0  0  0  0  0
    1.1126   -2.8341    0.0942 H   0  0  0  0  0  0  0  0  0  0  0  0
    0.7467   -3.0739    1.8539 H   0  0  0  0  0  0  0  0  0  0  0  0
    1.8097   -1.7233    1.2978 H   0  0  0  0  0  0  0  0  0  0  0  0
  1  5  2  0  0  0  0
  1  3  1  0  0  0  0
  2  1  1  0  0  0  0
  3 11  1  0  0  0  0
  3  9  2  0  0  0  0
  4 15  1  0  0  0  0
  5  6  1  0  0  0  0
  6  8  2  0  0  0  0
  7  6  1  0  0  0  0
  8  9  1  0  0  0  0
  8 35  1  0  0  0  0
  9 10  1  0  0  0  0
 11 25  1  0  0  0  0
 11 12  1  0  0  0  0
 13 11  1  0  0  0  0
 14 22  1  0  0  0  0
 14 20  1  0  0  0  0
 15 16  1  0  0  0  0
 15 14  2  0  0  0  0
 16 17  2  0  0  0  0
 17 19  1  0  0  0  0
 18 17  1  0  0  0  0
 19 20  2  0  0  0  0
 19 39  1  0  0  0  0
 20 21  1  0  0  0  0
 22 32  1  0  0  0  0
 22 23  1  0  0  0  0
 24 22  1  0  0  0  0
 25 47  1  0  0  0  0
 25 26  1  0  0  0  0
 26 28  1  0  0  0  0
 26 27  1  0  0  0  0
 29 26  1  0  0  0  0
 29 31  1  0  0  0  0
 29 30  1  0  0  0  0
 32 43  1  0  0  0  0
 32 29  1  0  0  0  0
 33  5  1  0  0  0  0
 34 16  1  0  0  0  0
 35 38  1  0  0  0  0
 35 36  1  0  0  0  0
 37 35  1  0  0  0  0
 39 40  1  0  0  0  0
 39 41  1  0  0  0  0
 42 39  1  0  0  0  0
 43 45  1  0  0  0  0
 43 44  1  0  0  0  0
 46 43  1  0  0  0  0
 47 50  1  0  0  0  0
 47 49  1  0  0  0  0
 48 47  1  0  0  0  0
M  CHG  2   2  -1   4  -1
M  END
