1,2,3,4
q = -2, confidence = 1.0

 40 40  0  0  1  0  0  0  0  0999 V2000
   -1.5309   -1.7464    0.9364 N   0  0  0  0  0  0  0  0  0  0  0  0
   -2.1657    0.3566   -0.8664 N   0  0  0  0  0  2  0  0  0  0  0  0
    0.1132   -1.7228   -1.2163 O   0  0  0  0  0  1  0  0  0  0  0  0
   -0.4296    0.5958    1.7036 O   0  0  0  0  0  1  0  0  0  0  0  0
   -0.5064   -2.9687   -1.0307 C   0  0  0  0  0  0  0  0  0  0  0  0
   -0.9822   -3.0330    0.4555 C   0  0  0  0  0  0  0  0  0  0  0  0
   -1.1811    0.0038    2.7301 C   0  0  0  0  0  0  0  0  0  0  0  0
   -1.3188   -1.5117    2.3812 C   0  0  0  0  0  0  0  0  0  0  0  0
   -1.6482   -3.1269   -2.0538 C   0  0  0  0  0  0  0  0  0  0  0  0
    0.5215   -4.0951   -1.2401 C   0  0  0  0  0  0  0  0  0  0  0  0
   -2.5295    0.7382    2.8631 C   0  0  0  0  0  0  0  0  0  0  0  0
   -0.4110    0.1112    4.0584 C   0  0  0  0  0  0  0  0  0  0  0  0
   -2.9275   -1.5396    0.5297 C   0  0  0  0  0  0  0  0  0  0  0  0
   -3.1978   -0.3755   -0.4033 C   0  0  2  0  0  3  0  0  0  0  0  0
   -4.5292   -0.1016   -0.7741 C   0  0  0  0  0  0  0  0  0  0  0  0
   -4.7940    0.9544   -1.6509 C   0  0  0  0  0  0  0  0  0  0  0  0
   -3.7164    1.7084   -2.1373 C   0  0  0  0  0  0  0  0  0  0  0  0
   -2.4259    1.3714   -1.7164 C   0  0  0  0  0  0  0  0  0  0  0  0
   -0.0854   -3.2452    1.0700 H   0  0  0  0  0  0  0  0  0  0  0  0
   -1.6990   -3.8733    0.6190 H   0  0  0  0  0  0  0  0  0  0  0  0
   -0.3532   -1.9880    2.6420 H   0  0  0  0  0  0  0  0  0  0  0  0
   -2.1083   -2.0045    2.9982 H   0  0  0  0  0  0  0  0  0  0  0  0
   -2.3543   -2.2766   -2.0150 H   0  0  0  0  0  0  0  0  0  0  0  0
   -1.2162   -3.1396   -3.0737 H   0  0  0  0  0  0  0  0  0  0  0  0
   -2.2102   -4.0716   -1.9035 H   0  0  0  0  0  0  0  0  0  0  0  0
    1.3896   -3.9490   -0.5672 H   0  0  0  0  0  0  0  0  0  0  0  0
    0.8902   -4.0763   -2.2841 H   0  0  0  0  0  0  0  0  0  0  0  0
    0.0804   -5.0942   -1.0428 H   0  0  0  0  0  0  0  0  0  0  0  0
   -3.0711    0.7821    1.8999 H   0  0  0  0  0  0  0  0  0  0  0  0
   -2.3376    1.7848    3.1712 H   0  0  0  0  0  0  0  0  0  0  0  0
   -3.1842    0.2670    3.6248 H   0  0  0  0  0  0  0  0  0  0  0  0
    0.5984   -0.3325    3.9482 H   0  0  0  0  0  0  0  0  0  0  0  0
   -0.2893    1.1767    4.3350 H   0  0  0  0  0  0  0  0  0  0  0  0
   -0.9420   -0.4057    4.8845 H   0  0  0  0  0  0  0  0  0  0  0  0
   -3.3091   -2.4590    0.0355 H   0  0  0  0  0  0  0  0  0  0  0  0
   -3.5644   -1.4102    1.4313 H   0  0  0  0  0  0  0  0  0  0  0  0
   -5.3456   -0.7200   -0.3708 H   0  0  0  0  0  0  0  0  0  0  0  0
   -5.8270    1.1861   -1.9514 H   0  0  0  0  0  0  0  0  0  0  0  0
   -3.8666    2.5492   -2.8292 H   0  0  0  0  0  0  0  0  0  0  0  0
   -1.5500    1.9360   -2.0649 H   0  0  0  0  0  0  0  0  0  0  0  0
  1  8  1  0  0  0  0
  2 14  1  0  0  0  0
  3  5  1  0  0  0  0
  4  7  1  0  0  0  0
  5  6  1  0  0  0  0
  6 20  1  0  0  0  0
  6  1  1  0  0  0  0
  6 19  1  0  0  0  0
  7 11  1  0  0  0  0
  7 12  1  0  0  0  0
  8 21  1  0  0  0  0
  8  7  1  0  0  0  0
  8 22  1  0  0  0  0
  9 23  1  0  0  0  0
  9 25  1  0  0  0  0
  9  5  1  0  0  0  0
 10 28  1  0  0  0  0
 10  5  1  0  0  0  0
 10 26  1  0  0  0  0
 11 30  1  0  0  0  0
 11 31  1  0  0  0  0
 12 33  1  0  0  0  0
 12 34  1  0  0  0  0
 13  1  1  0  0  0  0
 13 36  1  0  0  0  0
 14 13  1  6  0  0  0
 15 14  1  0  0  0  0
 15 37  1  0  0  0  0
 16 15  2  0  0  0  0
 17 18  2  0  0  0  0
 17 16  1  0  0  0  0
 18  2  1  0  0  0  0
 24  9  1  0  0  0  0
 27 10  1  0  0  0  0
 29 11  1  0  0  0  0
 32 12  1  0  0  0  0
 35 13  1  0  0  0  0
 38 16  1  0  0  0  0
 39 17  1  0  0  0  0
 40 18  1  0  0  0  0
M  END
