1,2,5,6
q = -2.0, confidence = 0.794

 48 49  0  0  1  0  0  0  0  0999 V2000
    1.2363   -1.3961   -0.0428 O   0  5  0  0  0  0  0  0  0  0  0  0
   -1.2362   -1.3961    0.0447 O   0  0  0  0  0  1  0  0  0  0  0  0
    5.4359   -3.6219    0.1937 O   0  0  0  0  0  0  0  0  0  0  0  0
   -5.4357   -3.6222   -0.1941 O   0  0  0  0  0  0  0  0  0  0  0  0
    1.2569    1.3401   -0.1661 N   0  0  0  0  0  2  0  0  0  0  0  0
   -1.2571    1.3401    0.1662 N   0  0  0  0  0  2  0  0  0  0  0  0
    2.5285   -1.3150   -0.0077 C   0  0  0  0  0  0  0  0  0  0  0  0
    3.2929   -2.5166    0.0781 C   0  0  0  0  0  0  0  0  0  0  0  0
    4.6879   -2.4906    0.1093 C   0  0  0  0  0  0  0  0  0  0  0  0
    5.4000   -1.2580    0.0517 C   0  0  0  0  0  0  0  0  0  0  0  0
    4.6794   -0.0799   -0.0358 C   0  0  0  0  0  3  0  0  0  0  0  0
    3.2549   -0.0639   -0.0644 C   0  0  0  0  0  0  0  0  0  0  0  0
    2.5629    1.1741   -0.1777 C   0  0  0  0  0  0  0  0  0  0  0  0
   -2.5284   -1.3151    0.0083 C   0  0  1  0  0  3  0  0  0  0  0  0
   -3.2928   -2.5167   -0.0773 C   0  0  0  0  0  0  0  0  0  0  0  0
   -4.6877   -2.4908   -0.1098 C   0  0  0  0  0  0  0  0  0  0  0  0
   -5.3999   -1.2581   -0.0537 C   0  0  0  0  0  0  0  0  0  0  0  0
   -4.6794   -0.0800    0.0337 C   0  0  0  0  0  0  0  0  0  0  0  0
   -3.2550   -0.0640    0.0636 C   0  0  0  0  0  0  0  0  0  0  0  0
   -2.5630    1.1742    0.1769 C   0  0  0  0  0  0  0  0  0  0  0  0
    0.6557    2.6760   -0.4327 C   0  0  0  0  0  0  0  0  0  0  0  0
    1.5881    3.8393   -0.0658 C   0  0  0  0  0  0  0  0  0  0  0  0
    0.3262    2.7416   -1.9376 C   0  0  0  0  0  0  0  0  0  0  0  0
   -0.6559    2.6760    0.4329 C   0  0  0  0  0  0  0  0  0  0  0  0
   -0.3264    2.7415    1.9378 C   0  0  0  0  0  0  0  0  0  0  0  0
   -1.5882    3.8394    0.0661 C   0  0  0  0  0  0  0  0  0  0  0  0
    3.1979    2.0708   -0.2942 H   0  0  0  0  0  0  0  0  0  0  0  0
   -3.1981    2.0709    0.2925 H   0  0  0  0  0  0  0  0  0  0  0  0
    2.7366   -3.4661    0.1194 H   0  0  0  0  0  0  0  0  0  0  0  0
   -2.4224    3.9276    0.7890 H   0  0  0  0  0  0  0  0  0  0  0  0
   -0.4175    1.9681   -2.2102 H   0  0  0  0  0  0  0  0  0  0  0  0
   -1.0346    4.7968    0.1091 H   0  0  0  0  0  0  0  0  0  0  0  0
    0.4174    1.9680    2.2103 H   0  0  0  0  0  0  0  0  0  0  0  0
    5.2142    0.8826   -0.0851 H   0  0  0  0  0  0  0  0  0  0  0  0
   -2.7364   -3.4663   -0.1174 H   0  0  0  0  0  0  0  0  0  0  0  0
   -2.0171    3.7319   -0.9480 H   0  0  0  0  0  0  0  0  0  0  0  0
   -6.4976   -1.2751   -0.0785 H   0  0  0  0  0  0  0  0  0  0  0  0
   -5.2142    0.8825    0.0819 H   0  0  0  0  0  0  0  0  0  0  0  0
    6.4978   -1.2749    0.0756 H   0  0  0  0  0  0  0  0  0  0  0  0
    2.4221    3.9278   -0.7888 H   0  0  0  0  0  0  0  0  0  0  0  0
    1.0344    4.7967   -0.1085 H   0  0  0  0  0  0  0  0  0  0  0  0
    2.0172    3.7317    0.9482 H   0  0  0  0  0  0  0  0  0  0  0  0
   -1.2470    2.5533    2.5241 H   0  0  0  0  0  0  0  0  0  0  0  0
   -0.0657    3.7371   -2.2239 H   0  0  0  0  0  0  0  0  0  0  0  0
    0.0654    3.7370    2.2242 H   0  0  0  0  0  0  0  0  0  0  0  0
    1.2468    2.5536   -2.5239 H   0  0  0  0  0  0  0  0  0  0  0  0
    4.8287   -4.3853    0.2238 H   0  0  0  0  0  0  0  0  0  0  0  0
   -4.8283   -4.3856   -0.2232 H   0  0  0  0  0  0  0  0  0  0  0  0
  1  7  1  0  0  0  0
  3 47  1  0  0  0  0
  4 16  1  0  0  0  0
  6 20  1  0  0  0  0
  6 24  1  0  0  0  0
  7  8  2  0  0  0  0
  8  9  1  0  0  0  0
  8 29  1  0  0  0  0
  9  3  1  0  0  0  0
 10 39  1  0  0  0  0
 10  9  2  0  0  0  0
 11 10  1  0  0  0  0
 12 11  1  0  0  0  0
 12  7  1  0  0  0  0
 13  5  1  0  0  0  0
 13 12  2  0  0  0  0
 14  2  1  1  0  0  0
 14 19  1  0  0  0  0
 15 14  1  0  0  0  0
 16 15  2  0  0  0  0
 16 17  1  0  0  0  0
 17 18  2  0  0  0  0
 18 19  1  0  0  0  0
 18 38  1  0  0  0  0
 19 20  2  0  0  0  0
 20 28  1  0  0  0  0
 21  5  1  0  0  0  0
 21 22  1  0  0  0  0
 21 24  1  0  0  0  0
 22 42  1  0  0  0  0
 23 21  1  0  0  0  0
 24 25  1  0  0  0  0
 25 33  1  0  0  0  0
 25 45  1  0  0  0  0
 25 43  1  0  0  0  0
 26 32  1  0  0  0  0
 26 24  1  0  0  0  0
 26 30  1  0  0  0  0
 27 13  1  0  0  0  0
 31 23  1  0  0  0  0
 34 11  1  0  0  0  0
 35 15  1  0  0  0  0
 36 26  1  0  0  0  0
 37 17  1  0  0  0  0
 40 22  1  0  0  0  0
 41 22  1  0  0  0  0
 44 23  1  0  0  0  0
 46 23  1  0  0  0  0
 48  4  1  0  0  0  0
M  CHG  1   1  -1
M  END
