1,2,4,5
q = -2.0, confidence = 0.882

 33 36  0  0  0  0  0  0  0  0999 V2000
   -1.6333   -2.0156   -0.0052 O   0  5  0  0  0  0  0  0  0  0  0  0
    1.6333   -2.0156   -0.0051 O   0  5  0  0  0  0  0  0  0  0  0  0
    0.0000    2.5241    0.2216 O   0  0  0  0  0  0  0  0  0  0  0  0
   -1.4529    0.6522    0.1178 N   0  0  0  0  0  2  0  0  0  0  0  0
    1.4530    0.6522    0.1178 N   0  0  0  0  0  2  0  0  0  0  0  0
   -2.7068    0.1152   -0.0219 C   0  0  0  0  0  0  0  0  0  0  0  0
    2.7512   -1.3232   -0.0824 C   0  0  0  0  0  0  0  0  0  0  0  0
   -1.2438    1.9629    0.1231 C   0  0  0  0  0  0  0  0  0  0  0  0
    2.7068    0.1152   -0.0218 C   0  0  0  0  0  0  0  0  0  0  0  0
   -2.3396    2.8665    0.0374 C   0  0  0  0  0  0  0  0  0  0  0  0
    3.6238    2.3576   -0.0761 C   0  0  0  0  0  0  0  0  0  0  0  0
   -2.7512   -1.3232   -0.0825 C   0  0  0  0  0  0  0  0  0  0  0  0
    1.2439    1.9629    0.1231 C   0  0  0  0  0  0  0  0  0  0  0  0
   -3.8642    0.9485   -0.1190 C   0  0  0  0  0  0  0  0  0  0  0  0
    4.0336   -1.8957   -0.2305 C   0  0  0  0  0  0  0  0  0  0  0  0
    3.8642    0.9485   -0.1189 C   0  0  0  0  0  0  0  0  0  0  0  0
   -3.6238    2.3576   -0.0761 C   0  0  0  0  0  0  0  0  0  0  0  0
    5.1264    0.3182   -0.2616 C   0  0  0  0  0  3  0  0  0  0  0  0
    2.3396    2.8665    0.0374 C   0  0  0  0  0  0  0  0  0  0  0  0
   -5.1823   -1.0786   -0.3129 C   0  0  0  0  0  0  0  0  0  0  0  0
   -5.1264    0.3182   -0.2617 C   0  0  0  0  0  3  0  0  0  0  0  0
   -4.0336   -1.8957   -0.2306 C   0  0  0  0  0  0  0  0  0  0  0  0
    5.1823   -1.0786   -0.3129 C   0  0  0  0  0  0  0  0  0  0  0  0
    6.1615   -1.5684   -0.4290 H   0  0  0  0  0  0  0  0  0  0  0  0
    2.1332    3.9446    0.0546 H   0  0  0  0  0  0  0  0  0  0  0  0
   -6.1615   -1.5684   -0.4290 H   0  0  0  0  0  0  0  0  0  0  0  0
   -4.4774    3.0491   -0.1478 H   0  0  0  0  0  0  0  0  0  0  0  0
    4.1137   -2.9906   -0.2872 H   0  0  0  0  0  0  0  0  0  0  0  0
   -4.1137   -2.9906   -0.2872 H   0  0  0  0  0  0  0  0  0  0  0  0
    4.4774    3.0491   -0.1478 H   0  0  0  0  0  0  0  0  0  0  0  0
   -6.0379    0.9278   -0.3387 H   0  0  0  0  0  0  0  0  0  0  0  0
    6.0379    0.9278   -0.3387 H   0  0  0  0  0  0  0  0  0  0  0  0
   -2.1332    3.9446    0.0546 H   0  0  0  0  0  0  0  0  0  0  0  0
  4  8  1  0  0  0  0
  5 13  1  0  0  0  0
  6  4  1  0  0  0  0
  7  9  2  0  0  0  0
  7  2  1  0  0  0  0
  8  3  1  0  0  0  0
  9  5  1  0  0  0  0
 10 33  1  0  0  0  0
 10  8  2  0  0  0  0
 11 19  1  0  0  0  0
 12  6  2  0  0  0  0
 12  1  1  0  0  0  0
 13  3  1  0  0  0  0
 14 17  2  0  0  0  0
 14  6  1  0  0  0  0
 15  7  1  0  0  0  0
 16 11  2  0  0  0  0
 16  9  1  0  0  0  0
 17 10  1  0  0  0  0
 18 16  1  0  0  0  0
 19 25  1  0  0  0  0
 19 13  2  0  0  0  0
 20 21  1  0  0  0  0
 20 22  2  0  0  0  0
 21 14  1  0  0  0  0
 22 12  1  0  0  0  0
 23 18  1  0  0  0  0
 23 15  2  0  0  0  0
 24 23  1  0  0  0  0
 26 20  1  0  0  0  0
 27 17  1  0  0  0  0
 28 15  1  0  0  0  0
 29 22  1  0  0  0  0
 30 11  1  0  0  0  0
 31 21  1  0  0  0  0
 32 18  1  0  0  0  0
M  CHG  2   1  -1   2  -1
M  END
