1,2,3,4
q = -2.0, confidence = 0.8

 56 57  0  0  0  0  0  0  0  0999 V2000
    1.8014   -0.6306   -0.8634 O   0  5  0  0  0  0  0  0  0  0  0  0
   -1.8015    0.6311   -0.8629 O   0  5  0  0  0  0  0  0  0  0  0  0
    0.5754    1.3587    0.7390 N   0  0  0  0  0  0  0  0  0  0  0  0
   -0.5752   -1.3587    0.7387 N   0  0  0  0  0  0  0  0  0  0  0  0
    2.9435   -0.2418   -0.2810 C   0  0  0  0  0  0  0  0  0  0  0  0
    4.0538   -1.1303   -0.3602 C   0  0  0  0  0  0  0  0  0  0  0  0
    5.2550   -0.7615    0.2608 C   0  0  0  0  0  0  0  0  0  0  0  0
    6.1141   -1.4493    0.1901 H   0  0  0  0  0  0  0  0  0  0  0  0
    5.3986    0.4486    0.9717 C   0  0  0  0  0  0  0  0  0  0  0  0
    4.2823    1.2983    1.0429 C   0  0  0  0  0  0  0  0  0  0  0  0
    4.3611    2.2474    1.5990 H   0  0  0  0  0  0  0  0  0  0  0  0
    3.0601    0.9834    0.4198 C   0  0  0  0  0  0  0  0  0  0  0  0
    1.9143    1.9613    0.4818 C   0  0  0  0  0  0  0  0  0  0  0  0
    2.1323    2.7149    1.2752 H   0  0  0  0  0  0  0  0  0  0  0  0
    1.8195    2.5105   -0.4781 H   0  0  0  0  0  0  0  0  0  0  0  0
    0.5833    0.4904    1.9349 C   0  0  0  0  0  0  0  0  0  0  0  0
    0.5521    1.1033    2.8664 H   0  0  0  0  0  0  0  0  0  0  0  0
    1.5481   -0.0539    1.9492 H   0  0  0  0  0  0  0  0  0  0  0  0
   -0.5832   -0.4907    1.9348 C   0  0  0  0  0  0  0  0  0  0  0  0
   -0.5520   -1.1038    2.8661 H   0  0  0  0  0  0  0  0  0  0  0  0
   -1.5479    0.0537    1.9492 H   0  0  0  0  0  0  0  0  0  0  0  0
   -1.9140   -1.9614    0.4814 C   0  0  0  0  0  0  0  0  0  0  0  0
   -2.1319   -2.7152    1.2745 H   0  0  0  0  0  0  0  0  0  0  0  0
   -1.8193   -2.5103   -0.4787 H   0  0  0  0  0  0  0  0  0  0  0  0
   -3.0600   -0.9835    0.4196 C   0  0  0  0  0  0  0  0  0  0  0  0
   -4.2822   -1.2989    1.0425 C   0  0  0  0  0  0  0  0  0  0  0  0
   -4.3608   -2.2482    1.5983 H   0  0  0  0  0  0  0  0  0  0  0  0
   -5.3986   -0.4493    0.9716 C   0  0  0  0  0  0  0  0  0  0  0  0
   -5.2551    0.7611    0.2612 C   0  0  0  0  0  0  0  0  0  0  0  0
   -6.1143    1.4488    0.1906 H   0  0  0  0  0  0  0  0  0  0  0  0
   -4.0539    1.1302   -0.3597 C   0  0  0  0  0  0  0  0  0  0  0  0
   -2.9435    0.2419   -0.2807 C   0  0  0  0  0  0  0  0  0  0  0  0
   -0.3984    2.4558    0.8824 C   0  0  0  0  0  0  0  0  0  0  0  0
   -1.4027    2.0599    1.1109 H   0  0  0  0  0  0  0  0  0  0  0  0
   -0.4615    3.0152   -0.0692 H   0  0  0  0  0  0  0  0  0  0  0  0
   -0.0844    3.1489    1.6974 H   0  0  0  0  0  0  0  0  0  0  0  0
    0.3988   -2.4558    0.8817 C   0  0  0  0  0  0  0  0  0  0  0  0
    1.4030   -2.0598    1.1103 H   0  0  0  0  0  0  0  0  0  0  0  0
    0.4618   -3.0149   -0.0700 H   0  0  0  0  0  0  0  0  0  0  0  0
    0.0848   -3.1491    1.6966 H   0  0  0  0  0  0  0  0  0  0  0  0
    3.9001   -2.4176   -1.1226 C   0  0  0  0  0  0  0  0  0  0  0  0
    4.8455   -2.9923   -1.1395 H   0  0  0  0  0  0  0  0  0  0  0  0
    3.5804   -2.2237   -2.1672 H   0  0  0  0  0  0  0  0  0  0  0  0
    3.1080   -3.0578   -0.6810 H   0  0  0  0  0  0  0  0  0  0  0  0
    6.7109    0.8130    1.6200 C   0  0  0  0  0  0  0  0  0  0  0  0
    7.4919    1.0283    0.8596 H   0  0  0  0  0  0  0  0  0  0  0  0
    7.0991   -0.0137    2.2503 H   0  0  0  0  0  0  0  0  0  0  0  0
    6.6147    1.7117    2.2600 H   0  0  0  0  0  0  0  0  0  0  0  0
   -6.7109   -0.8143    1.6196 C   0  0  0  0  0  0  0  0  0  0  0  0
   -6.6145   -1.7130    2.2595 H   0  0  0  0  0  0  0  0  0  0  0  0
   -7.4916   -1.0299    0.8590 H   0  0  0  0  0  0  0  0  0  0  0  0
   -7.0996    0.0123    2.2498 H   0  0  0  0  0  0  0  0  0  0  0  0
   -3.9004    2.4179   -1.1215 C   0  0  0  0  0  0  0  0  0  0  0  0
   -3.1083    3.0580   -0.6797 H   0  0  0  0  0  0  0  0  0  0  0  0
   -4.8459    2.9925   -1.1382 H   0  0  0  0  0  0  0  0  0  0  0  0
   -3.5807    2.2244   -2.1662 H   0  0  0  0  0  0  0  0  0  0  0  0
  1  5  1  0  0  0  0
  2 32  1  0  0  0  0
  3 33  1  0  0  0  0
  3 16  1  0  0  0  0
  4 37  1  0  0  0  0
  4 19  1  0  0  0  0
  5 12  1  0  0  0  0
  6  5  2  0  0  0  0
  6  7  1  0  0  0  0
  7  9  2  0  0  0  0
  8  7  1  0  0  0  0
  9 10  1  0  0  0  0
  9 45  1  0  0  0  0
 10 11  1  0  0  0  0
 12 13  1  0  0  0  0
 12 10  2  0  0  0  0
 13  3  1  0  0  0  0
 13 14  1  0  0  0  0
 15 13  1  0  0  0  0
 16 18  1  0  0  0  0
 16 17  1  0  0  0  0
 19 16  1  0  0  0  0
 19 21  1  0  0  0  0
 19 20  1  0  0  0  0
 22  4  1  0  0  0  0
 22 23  1  0  0  0  0
 24 22  1  0  0  0  0
 25 22  1  0  0  0  0
 25 26  1  0  0  0  0
 26 27  1  0  0  0  0
 28 26  2  0  0  0  0
 28 49  1  0  0  0  0
 29 28  1  0  0  0  0
 30 29  1  0  0  0  0
 31 32  1  0  0  0  0
 31 29  2  0  0  0  0
 32 25  2  0  0  0  0
 33 34  1  0  0  0  0
 33 36  1  0  0  0  0
 35 33  1  0  0  0  0
 37 38  1  0  0  0  0
 37 40  1  0  0  0  0
 39 37  1  0  0  0  0
 41 44  1  0  0  0  0
 41  6  1  0  0  0  0
 42 41  1  0  0  0  0
 43 41  1  0  0  0  0
 45 47  1  0  0  0  0
 45 48  1  0  0  0  0
 46 45  1  0  0  0  0
 49 52  1  0  0  0  0
 49 50  1  0  0  0  0
 51 49  1  0  0  0  0
 53 54  1  0  0  0  0
 53 31  1  0  0  0  0
 55 53  1  0  0  0  0
 56 53  1  0  0  0  0
M  CHG  2   1  -1   2  -1
M  END
