1,2,3,4
q = -2.0, confidence = 0.89

 56 58  0  0  1  0  0  0  0  0999 V2000
   -1.5771    1.2419    0.2938 N   0  0  0  0  0  2  0  0  0  0  0  0
    0.8382    1.3898   -0.4926 N   0  0  0  0  0  2  0  0  0  0  0  0
   -0.5688   -1.0248   -0.7138 O   0  5  0  0  0  0  0  0  0  0  0  0
    1.4438   -0.9173    0.9738 O   0  5  0  0  0  0  0  0  0  0  0  0
   -1.1437    2.6228    0.1427 C   0  0  1  0  0  0  0  0  0  0  0  0
   -0.6820    2.9223    1.1098 H   0  0  0  0  0  0  0  0  0  0  0  0
    0.0002    2.5286   -0.8984 C   0  0  1  0  0  0  0  0  0  0  0  0
   -0.4819    2.2619   -1.8703 H   0  0  0  0  0  0  0  0  0  0  0  0
    0.7041    3.8812   -1.0432 C   0  0  0  0  0  0  0  0  0  0  0  0
    1.4927    3.8343   -1.8217 H   0  0  0  0  0  0  0  0  0  0  0  0
    1.2108    4.1229   -0.0836 H   0  0  0  0  0  0  0  0  0  0  0  0
   -0.3163    4.9721   -1.4057 C   0  0  0  0  0  0  0  0  0  0  0  0
    0.1926    5.9560   -1.4620 H   0  0  0  0  0  0  0  0  0  0  0  0
   -0.7154    4.7694   -2.4244 H   0  0  0  0  0  0  0  0  0  0  0  0
   -1.4845    5.0335   -0.4118 C   0  0  0  0  0  0  0  0  0  0  0  0
   -2.2200    5.7998   -0.7309 H   0  0  0  0  0  0  0  0  0  0  0  0
   -1.1060    5.3574    0.5825 H   0  0  0  0  0  0  0  0  0  0  0  0
   -2.1767    3.6695   -0.2650 C   0  0  0  0  0  0  0  0  0  0  0  0
   -2.9889    3.7203    0.4897 H   0  0  0  0  0  0  0  0  0  0  0  0
   -2.6451    3.3809   -1.2320 H   0  0  0  0  0  0  0  0  0  0  0  0
   -2.7299    0.7652   -0.0930 C   0  0  0  0  0  3  0  0  0  0  0  0
   -3.5660    1.4702   -0.2687 H   0  0  0  0  0  0  0  0  0  0  0  0
   -2.9462   -0.6236   -0.3811 C   0  0  0  0  0  0  0  0  0  0  0  0
   -1.8094   -1.4425   -0.7230 C   0  0  0  0  0  0  0  0  0  0  0  0
   -2.0531   -2.7868   -1.1712 C   0  0  0  0  0  0  0  0  0  0  0  0
   -3.3658   -3.2477   -1.2474 C   0  0  0  0  0  0  0  0  0  0  0  0
   -3.5314   -4.2884   -1.5747 H   0  0  0  0  0  0  0  0  0  0  0  0
   -4.4982   -2.4500   -0.9191 C   0  0  0  0  0  0  0  0  0  0  0  0
   -4.2639   -1.1424   -0.5041 C   0  0  0  0  0  0  0  0  0  0  0  0
   -5.1131   -0.4865   -0.2509 H   0  0  0  0  0  0  0  0  0  0  0  0
   -0.8632   -3.6346   -1.5193 C   0  0  0  0  0  0  0  0  0  0  0  0
   -1.1596   -4.6724   -1.7636 H   0  0  0  0  0  0  0  0  0  0  0  0
   -0.1386   -3.6473   -0.6785 H   0  0  0  0  0  0  0  0  0  0  0  0
   -0.3090   -3.2103   -2.3827 H   0  0  0  0  0  0  0  0  0  0  0  0
   -5.8886   -3.0238   -1.0201 C   0  0  0  0  0  0  0  0  0  0  0  0
   -6.6602   -2.2678   -0.7762 H   0  0  0  0  0  0  0  0  0  0  0  0
   -6.0262   -3.8796   -0.3253 H   0  0  0  0  0  0  0  0  0  0  0  0
   -6.0992   -3.4059   -2.0413 H   0  0  0  0  0  0  0  0  0  0  0  0
    2.0550    1.2171   -0.9444 C   0  0  0  0  0  3  0  0  0  0  0  0
    2.4621    1.9883   -1.6267 H   0  0  0  0  0  0  0  0  0  0  0  0
    2.9273    0.1280   -0.6399 C   0  0  0  0  0  0  0  0  0  0  0  0
    2.5636   -0.8863    0.3188 C   0  0  0  0  0  0  0  0  0  0  0  0
    3.5188   -1.9330    0.5902 C   0  0  0  0  0  0  0  0  0  0  0  0
    4.7397   -1.9309   -0.0751 C   0  0  0  0  0  0  0  0  0  0  0  0
    5.4508   -2.7463    0.1429 H   0  0  0  0  0  0  0  0  0  0  0  0
    5.1171   -0.9336   -1.0216 C   0  0  0  0  0  0  0  0  0  0  0  0
    4.2020    0.0777   -1.2801 C   0  0  0  0  0  0  0  0  0  0  0  0
    4.4532    0.8707   -2.0043 H   0  0  0  0  0  0  0  0  0  0  0  0
    3.1305   -2.9903    1.5832 C   0  0  0  0  0  0  0  0  0  0  0  0
    3.9289   -3.7467    1.7062 H   0  0  0  0  0  0  0  0  0  0  0  0
    2.1953   -3.5003    1.2694 H   0  0  0  0  0  0  0  0  0  0  0  0
    2.9050   -2.5416    2.5732 H   0  0  0  0  0  0  0  0  0  0  0  0
    6.4615   -0.9986   -1.7006 C   0  0  0  0  0  0  0  0  0  0  0  0
    6.6066   -0.1512   -2.3988 H   0  0  0  0  0  0  0  0  0  0  0  0
    6.5801   -1.9376   -2.2821 H   0  0  0  0  0  0  0  0  0  0  0  0
    7.2925   -0.9743   -0.9638 H   0  0  0  0  0  0  0  0  0  0  0  0
  5  1  1  0  0  0  0
  5  6  1  1  0  0  0
  7  8  1  6  0  0  0
  7  2  1  0  0  0  0
  7  5  1  0  0  0  0
  9  7  1  0  0  0  0
  9 11  1  0  0  0  0
 10  9  1  0  0  0  0
 12  9  1  0  0  0  0
 12 15  1  0  0  0  0
 13 12  1  0  0  0  0
 14 12  1  0  0  0  0
 15 18  1  0  0  0  0
 15 17  1  0  0  0  0
 16 15  1  0  0  0  0
 18  5  1  0  0  0  0
 18 19  1  0  0  0  0
 20 18  1  0  0  0  0
 21  1  1  0  0  0  0
 22 21  1  0  0  0  0
 23 21  1  0  0  0  0
 24  3  1  0  0  0  0
 24 23  2  0  0  0  0
 25 24  1  0  0  0  0
 26 25  2  0  0  0  0
 26 28  1  0  0  0  0
 27 26  1  0  0  0  0
 28 29  2  0  0  0  0
 29 23  1  0  0  0  0
 29 30  1  0  0  0  0
 31 25  1  0  0  0  0
 31 33  1  0  0  0  0
 32 31  1  0  0  0  0
 34 31  1  0  0  0  0
 35 28  1  0  0  0  0
 35 36  1  0  0  0  0
 35 37  1  0  0  0  0
 38 35  1  0  0  0  0
 39 41  1  0  0  0  0
 39  2  1  0  0  0  0
 40 39  1  0  0  0  0
 41 42  1  0  0  0  0
 42 43  2  0  0  0  0
 42  4  1  0  0  0  0
 43 49  1  0  0  0  0
 44 45  1  0  0  0  0
 44 43  1  0  0  0  0
 46 44  2  0  0  0  0
 47 46  1  0  0  0  0
 47 41  2  0  0  0  0
 48 47  1  0  0  0  0
 49 50  1  0  0  0  0
 49 52  1  0  0  0  0
 51 49  1  0  0  0  0
 53 46  1  0  0  0  0
 53 56  1  0  0  0  0
 54 53  1  0  0  0  0
 55 53  1  0  0  0  0
M  CHG  2   3  -1   4  -1
M  END
