1,2,5,6
q = -2.0, confidence = 0.76

 48 48  0  0  1  0  0  0  0  0999 V2000
   -1.2608   -1.3716    0.0659 O   0  5  0  0  0  0  0  0  0  0  0  0
    1.2618   -1.3707   -0.0650 O   0  0  0  0  0  1  0  0  0  0  0  0
   -3.2532   -2.3933   -0.0486 O   0  0  0  0  0  0  0  0  0  0  0  0
    3.2549   -2.3910    0.0486 O   0  0  0  0  0  0  0  0  0  0  0  0
   -1.2639    1.3589    0.1524 N   0  0  0  0  0  2  0  0  0  0  0  0
    1.2628    1.3598   -0.1523 N   0  0  0  0  0  2  0  0  0  0  0  0
   -5.8557   -0.0322   -0.0692 N   0  0  0  0  0  0  0  0  0  0  0  0
    5.8558   -0.0279    0.0674 N   0  0  0  0  0  0  0  0  0  0  0  0
   -2.5733    1.1915    0.1403 C   0  0  0  0  0  3  0  0  0  0  0  0
   -3.2087    2.0898    0.2298 H   0  0  0  0  0  0  0  0  0  0  0  0
   -3.2570   -0.0450    0.0306 C   0  0  0  0  0  0  0  0  0  0  0  0
   -2.5245   -1.2742    0.0140 C   0  0  0  0  0  0  0  0  0  0  0  0
    2.5255   -1.2724   -0.0140 C   0  0  1  0  0  3  0  0  0  0  0  0
    3.2570   -0.0427   -0.0311 C   0  0  0  0  0  0  0  0  0  0  0  0
    2.5724    1.1934   -0.1407 C   0  0  0  0  0  0  0  0  0  0  0  0
    3.2071    2.0921   -0.2305 H   0  0  0  0  0  0  0  0  0  0  0  0
    0.6462    2.6700   -0.4093 C   0  0  2  0  0  0  0  0  0  0  0  0
    0.3442    2.6894   -1.4845 H   0  0  0  0  0  0  0  0  0  0  0  0
    1.4884    3.9148   -0.1264 C   0  0  0  0  0  0  0  0  0  0  0  0
    2.3986    3.9278   -0.7600 H   0  0  0  0  0  0  0  0  0  0  0  0
    1.8289    3.8944    0.9324 H   0  0  0  0  0  0  0  0  0  0  0  0
    0.6551    5.1777   -0.3948 C   0  0  0  0  0  0  0  0  0  0  0  0
    0.4294    5.2384   -1.4823 H   0  0  0  0  0  0  0  0  0  0  0  0
    1.2525    6.0796   -0.1507 H   0  0  0  0  0  0  0  0  0  0  0  0
   -0.6589    5.1772    0.3952 C   0  0  0  0  0  0  0  0  0  0  0  0
   -1.2569    6.0787    0.1512 H   0  0  0  0  0  0  0  0  0  0  0  0
   -0.4332    5.2380    1.4828 H   0  0  0  0  0  0  0  0  0  0  0  0
   -1.4913    3.9137    0.1267 C   0  0  0  0  0  0  0  0  0  0  0  0
   -1.8318    3.8932   -0.9321 H   0  0  0  0  0  0  0  0  0  0  0  0
   -2.4015    3.9260    0.7603 H   0  0  0  0  0  0  0  0  0  0  0  0
   -0.6481    2.6695    0.4095 C   0  0  1  0  0  0  0  0  0  0  0  0
   -0.3462    2.6890    1.4847 H   0  0  0  0  0  0  0  0  0  0  0  0
   -4.6803   -0.0548   -0.0253 C   0  0  0  0  0  0  0  0  0  0  0  0
   -2.5423   -3.6518   -0.0597 C   0  0  0  0  0  0  0  0  0  0  0  0
   -1.9377   -3.7289    0.8688 H   0  0  0  0  0  0  0  0  0  0  0  0
   -1.8284   -3.6525   -0.9104 H   0  0  0  0  0  0  0  0  0  0  0  0
   -3.5731   -4.7552   -0.1688 C   0  0  0  0  0  0  0  0  0  0  0  0
   -3.0687   -5.7415   -0.1784 H   0  0  0  0  0  0  0  0  0  0  0  0
   -4.2738   -4.7296    0.6887 H   0  0  0  0  0  0  0  0  0  0  0  0
   -4.1635   -4.6556   -1.1006 H   0  0  0  0  0  0  0  0  0  0  0  0
    2.5450   -3.6500    0.0603 C   0  0  0  0  0  0  0  0  0  0  0  0
    1.9398   -3.7276   -0.8678 H   0  0  0  0  0  0  0  0  0  0  0  0
    1.8316   -3.6511    0.9114 H   0  0  0  0  0  0  0  0  0  0  0  0
    3.5766   -4.7526    0.1688 C   0  0  0  0  0  0  0  0  0  0  0  0
    3.0729   -5.7393    0.1789 H   0  0  0  0  0  0  0  0  0  0  0  0
    4.2767   -4.7267   -0.6891 H   0  0  0  0  0  0  0  0  0  0  0  0
    4.1676   -4.6525    1.1002 H   0  0  0  0  0  0  0  0  0  0  0  0
    4.6804   -0.0515    0.0241 C   0  0  0  0  0  0  0  0  0  0  0  0
  3 12  1  0  0  0  0
  4 41  1  0  0  0  0
  5 31  1  0  0  0  0
  6 15  1  0  0  0  0
  7 33  3  0  0  0  0
  9  5  1  0  0  0  0
  9 10  1  0  0  0  0
 11  9  1  0  0  0  0
 12 11  2  0  0  0  0
 12  1  1  0  0  0  0
 13  2  1  6  0  0  0
 13  4  1  0  0  0  0
 14 13  1  0  0  0  0
 14 48  1  0  0  0  0
 15 14  2  0  0  0  0
 16 15  1  0  0  0  0
 17 18  1  6  0  0  0
 17  6  1  0  0  0  0
 17 19  1  0  0  0  0
 17 31  1  0  0  0  0
 19 21  1  0  0  0  0
 20 19  1  0  0  0  0
 22 24  1  0  0  0  0
 22 19  1  0  0  0  0
 22 25  1  0  0  0  0
 23 22  1  0  0  0  0
 25 27  1  0  0  0  0
 26 25  1  0  0  0  0
 28 25  1  0  0  0  0
 28 31  1  0  0  0  0
 28 30  1  0  0  0  0
 29 28  1  0  0  0  0
 31 32  1  1  0  0  0
 33 11  1  0  0  0  0
 34  3  1  0  0  0  0
 34 35  1  0  0  0  0
 36 34  1  0  0  0  0
 37 34  1  0  0  0  0
 37 39  1  0  0  0  0
 38 37  1  0  0  0  0
 40 37  1  0  0  0  0
 41 44  1  0  0  0  0
 41 43  1  0  0  0  0
 42 41  1  0  0  0  0
 44 45  1  0  0  0  0
 44 47  1  0  0  0  0
 46 44  1  0  0  0  0
 48  8  3  0  0  0  0
M  CHG  1   1  -1
M  END
