1,2,3,4
q = -2.0, confidence = 0.816

 41 43  0  0  0  0  0  0  0  0999 V2000
   -1.5131   -1.7100    0.1470 O   0  5  0  0  0  0  0  0  0  0  0  0
    0.9843   -1.6015   -0.4971 O   0  5  0  0  0  0  0  0  0  0  0  0
   -0.9410    0.9968   -0.1046 N   0  0  0  0  0  2  0  0  0  0  0  0
    1.4783    0.5089    1.0336 N   0  0  0  0  0  2  0  0  0  0  0  0
   -2.7386   -1.4399   -0.1641 C   0  0  0  0  0  0  0  0  0  0  0  0
   -3.7001   -2.4939   -0.2657 C   0  0  0  0  0  0  0  0  0  0  0  0
   -5.0222   -2.2167   -0.5734 C   0  0  0  0  0  0  0  0  0  0  0  0
   -5.4561   -0.8780   -0.7992 C   0  0  0  0  0  0  0  0  0  0  0  0
   -4.5484    0.1631   -0.7188 C   0  0  0  0  0  0  0  0  0  0  0  0
   -3.1706   -0.0775   -0.4108 C   0  0  0  0  0  0  0  0  0  0  0  0
   -2.2657    1.0052   -0.3857 C   0  0  0  0  0  3  0  0  0  0  0  0
   -0.2691    2.2378   -0.3492 C   0  0  0  0  0  0  0  0  0  0  0  0
   -0.5825    3.0105   -1.4879 C   0  0  0  0  0  0  0  0  0  0  0  0
    0.0363    4.2493   -1.7043 C   0  0  0  0  0  0  0  0  0  0  0  0
    0.9850    4.7300   -0.7907 C   0  0  0  0  0  0  0  0  0  0  0  0
    1.3317    3.9445    0.3198 C   0  0  0  0  0  0  0  0  0  0  0  0
    0.7205    2.7032    0.5497 C   0  0  0  0  0  0  0  0  0  0  0  0
    1.1545    1.7891    1.6660 C   0  0  0  0  0  0  0  0  0  0  0  0
    2.7393    0.2594    0.8115 C   0  0  0  0  0  3  0  0  0  0  0  0
    3.2251   -0.8467    0.0249 C   0  0  0  0  0  0  0  0  0  0  0  0
    4.6142   -1.0514   -0.1489 C   0  0  0  0  0  0  0  0  0  0  0  0
    5.0956   -2.0740   -0.9694 C   0  0  0  0  0  0  0  0  0  0  0  0
    4.1786   -2.9073   -1.6410 C   0  0  0  0  0  0  0  0  0  0  0  0
    2.8006   -2.7256   -1.4884 C   0  0  0  0  0  0  0  0  0  0  0  0
    2.2990   -1.7051   -0.6446 C   0  0  0  0  0  0  0  0  0  0  0  0
   -3.3461   -3.5175   -0.0776 H   0  0  0  0  0  0  0  0  0  0  0  0
   -5.7501   -3.0402   -0.6388 H   0  0  0  0  0  0  0  0  0  0  0  0
   -6.5104   -0.6764   -1.0387 H   0  0  0  0  0  0  0  0  0  0  0  0
   -4.8724    1.2005   -0.8989 H   0  0  0  0  0  0  0  0  0  0  0  0
   -2.6980    1.9964   -0.6102 H   0  0  0  0  0  0  0  0  0  0  0  0
   -1.3040    2.6216   -2.2211 H   0  0  0  0  0  0  0  0  0  0  0  0
   -0.2190    4.8340   -2.6007 H   0  0  0  0  0  0  0  0  0  0  0  0
    1.4738    5.7019   -0.9537 H   0  0  0  0  0  0  0  0  0  0  0  0
    2.1009    4.2955    1.0254 H   0  0  0  0  0  0  0  0  0  0  0  0
    2.0316    2.2165    2.1965 H   0  0  0  0  0  0  0  0  0  0  0  0
    0.3472    1.6093    2.4046 H   0  0  0  0  0  0  0  0  0  0  0  0
    3.4970    0.9618    1.2143 H   0  0  0  0  0  0  0  0  0  0  0  0
    5.3151   -0.3813    0.3742 H   0  0  0  0  0  0  0  0  0  0  0  0
    6.1778   -2.2238   -1.0934 H   0  0  0  0  0  0  0  0  0  0  0  0
    4.5468   -3.7138   -2.2937 H   0  0  0  0  0  0  0  0  0  0  0  0
    2.0716   -3.3701   -1.9999 H   0  0  0  0  0  0  0  0  0  0  0  0
  4 18  1  0  0  0  0
  5  1  1  0  0  0  0
  6  5  1  0  0  0  0
  6 26  1  0  0  0  0
  7  6  2  0  0  0  0
  8  9  2  0  0  0  0
  8  7  1  0  0  0  0
  9 10  1  0  0  0  0
 10 11  1  0  0  0  0
 10  5  2  0  0  0  0
 11  3  1  0  0  0  0
 12  3  1  0  0  0  0
 12 17  1  0  0  0  0
 13 12  2  0  0  0  0
 14 13  1  0  0  0  0
 14 15  2  0  0  0  0
 15 16  1  0  0  0  0
 16 17  2  0  0  0  0
 16 34  1  0  0  0  0
 17 18  1  0  0  0  0
 18 35  1  0  0  0  0
 18 36  1  0  0  0  0
 19  4  1  0  0  0  0
 19 37  1  0  0  0  0
 20 19  1  0  0  0  0
 21 20  1  0  0  0  0
 21 38  1  0  0  0  0
 22 21  2  0  0  0  0
 23 24  2  0  0  0  0
 23 22  1  0  0  0  0
 24 25  1  0  0  0  0
 25  2  1  0  0  0  0
 25 20  2  0  0  0  0
 27  7  1  0  0  0  0
 28  8  1  0  0  0  0
 29  9  1  0  0  0  0
 30 11  1  0  0  0  0
 31 13  1  0  0  0  0
 32 14  1  0  0  0  0
 33 15  1  0  0  0  0
 39 22  1  0  0  0  0
 40 23  1  0  0  0  0
 41 24  1  0  0  0  0
M  CHG  2   1  -1   2  -1
M  END
