1,2,5,6
q = -2.0, confidence = 0.82

 57 58  0  0  1  0  0  0  0  0999 V2000
    1.2381    0.5824   -0.0675 O   0  5  0  0  0  0  0  0  0  0  0  0
   -1.2320    0.5949    0.0686 O   0  0  0  0  0  1  0  0  0  0  0  0
    2.5358    2.8089    0.2865 O   0  0  0  0  0  0  0  0  0  0  0  0
   -2.5070    2.8344   -0.2862 O   0  0  0  0  0  0  0  0  0  0  0  0
    1.2367   -2.0951   -0.5171 N   0  0  0  0  0  2  0  0  0  0  0  0
   -1.2578   -2.0824    0.5179 N   0  0  0  0  0  2  0  0  0  0  0  0
    2.5266    0.4834   -0.0690 C   0  0  0  0  0  0  0  0  0  0  0  0
    3.2972    1.6994    0.1184 C   0  0  0  0  0  0  0  0  0  0  0  0
    4.6906    1.6600    0.1245 C   0  0  0  0  0  0  0  0  0  0  0  0
    5.2643    2.5838    0.2818 H   0  0  0  0  0  0  0  0  0  0  0  0
    5.3901    0.4375   -0.0768 C   0  0  0  0  0  0  0  0  0  0  0  0
    6.4898    0.4397   -0.0728 H   0  0  0  0  0  0  0  0  0  0  0  0
    4.6889   -0.7364   -0.2843 C   0  0  0  0  0  3  0  0  0  0  0  0
    5.2184   -1.6866   -0.4563 H   0  0  0  0  0  0  0  0  0  0  0  0
    3.2592   -0.7366   -0.2782 C   0  0  0  0  0  0  0  0  0  0  0  0
    2.5420   -1.9298   -0.5860 C   0  0  0  0  0  0  0  0  0  0  0  0
    3.1367   -2.7875   -0.9611 H   0  0  0  0  0  0  0  0  0  0  0  0
    0.6578   -3.3188   -1.0636 C   0  0  0  0  0  0  0  0  0  0  0  0
    1.4363   -3.9090   -1.5955 H   0  0  0  0  0  0  0  0  0  0  0  0
   -0.0972   -3.0225   -1.8209 H   0  0  0  0  0  0  0  0  0  0  0  0
   -0.0218   -4.2144   -0.0003 C   0  0  0  0  0  0  0  0  0  0  0  0
   -0.6914   -3.3123    1.0638 C   0  0  0  0  0  0  0  0  0  0  0  0
   -1.4758   -3.8944    1.5958 H   0  0  0  0  0  0  0  0  0  0  0  0
    0.0670   -3.0241    1.8209 H   0  0  0  0  0  0  0  0  0  0  0  0
   -2.5613   -1.9040    0.5863 C   0  0  0  0  0  0  0  0  0  0  0  0
   -3.1648   -2.7557    0.9611 H   0  0  0  0  0  0  0  0  0  0  0  0
   -3.2664   -0.7036    0.2783 C   0  0  0  0  0  0  0  0  0  0  0  0
   -4.6959   -0.6891    0.2836 C   0  0  0  0  0  0  0  0  0  0  0  0
   -5.2351   -1.6338    0.4554 H   0  0  0  0  0  0  0  0  0  0  0  0
   -5.3852    0.4918    0.0757 C   0  0  0  0  0  0  0  0  0  0  0  0
   -6.4848    0.5051    0.0711 H   0  0  0  0  0  0  0  0  0  0  0  0
   -4.6734    1.7072   -0.1253 C   0  0  0  0  0  0  0  0  0  0  0  0
   -5.2377    2.6368   -0.2830 H   0  0  0  0  0  0  0  0  0  0  0  0
   -3.2796    1.7326   -0.1185 C   0  0  0  0  0  0  0  0  0  0  0  0
   -2.5214    0.5090    0.0694 C   0  0  1  0  0  3  0  0  0  0  0  0
   -1.0750   -5.0827   -0.7050 C   0  0  0  0  0  0  0  0  0  0  0  0
   -1.8937   -4.4584   -1.1187 H   0  0  0  0  0  0  0  0  0  0  0  0
   -1.5202   -5.8166   -0.0028 H   0  0  0  0  0  0  0  0  0  0  0  0
   -0.6263   -5.6507   -1.5461 H   0  0  0  0  0  0  0  0  0  0  0  0
    1.0218   -5.0948    0.7038 C   0  0  0  0  0  0  0  0  0  0  0  0
    0.5668   -5.6585    1.5445 H   0  0  0  0  0  0  0  0  0  0  0  0
    1.8474   -4.4800    1.1182 H   0  0  0  0  0  0  0  0  0  0  0  0
    1.4590   -5.8330    0.0011 H   0  0  0  0  0  0  0  0  0  0  0  0
    3.1789    4.0625    0.4547 C   0  0  0  0  0  0  0  0  0  0  0  0
    3.8423    4.2729   -0.4185 H   0  0  0  0  0  0  0  0  0  0  0  0
    3.8313    4.0416    1.3607 H   0  0  0  0  0  0  0  0  0  0  0  0
    2.0986    5.1209    0.5858 C   0  0  0  0  0  0  0  0  0  0  0  0
    2.5516    6.1235    0.7155 H   0  0  0  0  0  0  0  0  0  0  0  0
    1.4509    4.9085    1.4592 H   0  0  0  0  0  0  0  0  0  0  0  0
    1.4569    5.1346   -0.3173 H   0  0  0  0  0  0  0  0  0  0  0  0
   -3.1374    4.0944   -0.4551 C   0  0  0  0  0  0  0  0  0  0  0  0
   -3.7992    4.3116    0.4176 H   0  0  0  0  0  0  0  0  0  0  0  0
   -3.7894    4.0797   -1.3615 H   0  0  0  0  0  0  0  0  0  0  0  0
   -2.0465    5.1418   -0.5859 C   0  0  0  0  0  0  0  0  0  0  0  0
   -2.4893    6.1489   -0.7162 H   0  0  0  0  0  0  0  0  0  0  0  0
   -1.4004    4.9226   -1.4588 H   0  0  0  0  0  0  0  0  0  0  0  0
   -1.4052    5.1493    0.3176 H   0  0  0  0  0  0  0  0  0  0  0  0
  3 44  1  0  0  0  0
  4 34  1  0  0  0  0
  6 25  1  0  0  0  0
  6 22  1  0  0  0  0
  7  1  1  0  0  0  0
  7  8  2  0  0  0  0
  8  9  1  0  0  0  0
  8  3  1  0  0  0  0
  9 10  1  0  0  0  0
 11 12  1  0  0  0  0
 11  9  2  0  0  0  0
 13 15  1  0  0  0  0
 13 11  1  0  0  0  0
 14 13  1  0  0  0  0
 15  7  1  0  0  0  0
 16  5  1  0  0  0  0
 16 15  2  0  0  0  0
 17 16  1  0  0  0  0
 18  5  1  0  0  0  0
 18 21  1  0  0  0  0
 19 18  1  0  0  0  0
 20 18  1  0  0  0  0
 21 40  1  0  0  0  0
 21 22  1  0  0  0  0
 22 23  1  0  0  0  0
 22 24  1  0  0  0  0
 25 26  1  0  0  0  0
 27 28  1  0  0  0  0
 27 25  2  0  0  0  0
 28 29  1  0  0  0  0
 30 28  2  0  0  0  0
 31 30  1  0  0  0  0
 32 34  2  0  0  0  0
 32 30  1  0  0  0  0
 33 32  1  0  0  0  0
 34 35  1  0  0  0  0
 35  2  1  1  0  0  0
 35 27  1  0  0  0  0
 36 38  1  0  0  0  0
 36 21  1  0  0  0  0
 37 36  1  0  0  0  0
 39 36  1  0  0  0  0
 40 42  1  0  0  0  0
 40 41  1  0  0  0  0
 43 40  1  0  0  0  0
 44 47  1  0  0  0  0
 44 46  1  0  0  0  0
 45 44  1  0  0  0  0
 47 48  1  0  0  0  0
 47 49  1  0  0  0  0
 50 47  1  0  0  0  0
 51  4  1  0  0  0  0
 51 52  1  0  0  0  0
 53 51  1  0  0  0  0
 54 51  1  0  0  0  0
 54 57  1  0  0  0  0
 55 54  1  0  0  0  0
 56 54  1  0  0  0  0
M  CHG  1   1  -1
M  END
