1,2,4,5
q = -2.0, confidence = 0.972

 52 53  0  0  1  0  0  0  0  0999 V2000
    1.2996    0.6569   -0.3796 O   0  0  0  0  0  1  0  0  0  0  0  0
   -1.3125    0.6234   -0.3658 O   0  5  0  0  0  0  0  0  0  0  0  0
   -0.0097   -5.3477   -1.1184 O   0  0  0  0  0  0  0  0  0  0  0  0
    1.5379   -2.1944    0.1035 N   0  0  0  0  0  2  0  0  0  0  0  0
   -1.4690   -2.2361    0.1281 N   0  0  0  0  0  2  0  0  0  0  0  0
    2.3528    3.1597   -0.1520 C   0  0  0  0  0  0  0  0  0  0  0  0
    2.9186    4.4396   -0.1942 C   0  0  0  0  0  0  0  0  0  0  0  0
    4.3086    4.6019   -0.0732 C   0  0  0  0  0  0  0  0  0  0  0  0
    5.1282    3.4725    0.0854 C   0  0  0  0  0  0  0  0  0  0  0  0
    4.5631    2.1911    0.1302 C   0  0  0  0  0  0  0  0  0  0  0  0
    3.1660    2.0170    0.0201 C   0  0  0  0  0  0  0  0  0  0  0  0
    2.5063    0.6745    0.0671 C   0  0  1  0  0  3  0  0  0  0  0  0
    3.1890   -0.4463    0.5704 C   0  0  0  0  0  0  0  0  0  0  0  0
    2.7495   -1.7933    0.5062 C   0  0  0  0  0  0  0  0  0  0  0  0
    3.7692   -2.8439    0.8988 C   0  0  0  0  0  0  0  0  0  0  0  0
    1.3301   -3.6158   -0.1125 C   0  0  0  0  0  0  0  0  0  0  0  0
    0.0396   -3.9509   -0.8578 C   0  0  2  0  0  0  0  0  0  0  0  0
   -1.2066   -3.6555   -0.0362 C   0  0  0  0  0  0  0  0  0  0  0  0
   -3.6778   -2.9457    0.9351 C   0  0  0  0  0  0  0  0  0  0  0  0
   -2.6930   -1.8693    0.5230 C   0  0  2  0  0  3  0  0  0  0  0  0
   -3.1771   -0.5360    0.5667 C   0  0  0  0  0  0  0  0  0  0  0  0
   -2.5246    0.6033    0.0679 C   0  0  0  0  0  0  0  0  0  0  0  0
   -3.2240    1.9253    0.0143 C   0  0  0  0  0  0  0  0  0  0  0  0
   -4.6277    2.0550    0.0972 C   0  0  0  0  0  0  0  0  0  0  0  0
   -5.2318    3.3182    0.0469 C   0  0  0  0  0  0  0  0  0  0  0  0
   -4.4451    4.4737   -0.0898 C   0  0  0  0  0  0  0  0  0  0  0  0
   -3.0487    4.3555   -0.1836 C   0  0  0  0  0  0  0  0  0  0  0  0
   -2.4439    3.0937   -0.1363 C   0  0  0  0  0  0  0  0  0  0  0  0
    1.2680    3.0116   -0.2497 H   0  0  0  0  0  0  0  0  0  0  0  0
    2.2702    5.3199   -0.3224 H   0  0  0  0  0  0  0  0  0  0  0  0
    4.7545    5.6077   -0.1080 H   0  0  0  0  0  0  0  0  0  0  0  0
    6.2196    3.5900    0.1671 H   0  0  0  0  0  0  0  0  0  0  0  0
    5.2205    1.3153    0.2285 H   0  0  0  0  0  0  0  0  0  0  0  0
    4.1901   -0.2862    0.9862 H   0  0  0  0  0  0  0  0  0  0  0  0
    3.3571   -3.5555    1.6430 H   0  0  0  0  0  0  0  0  0  0  0  0
    4.0840   -3.4476    0.0213 H   0  0  0  0  0  0  0  0  0  0  0  0
    4.6728   -2.3737    1.3246 H   0  0  0  0  0  0  0  0  0  0  0  0
    1.3186   -4.1866    0.8465 H   0  0  0  0  0  0  0  0  0  0  0  0
    2.1706   -4.0351   -0.7134 H   0  0  0  0  0  0  0  0  0  0  0  0
   -0.0066   -3.3463   -1.7972 H   0  0  0  0  0  0  0  0  0  0  0  0
   -2.0452   -4.1547   -0.5663 H   0  0  0  0  0  0  0  0  0  0  0  0
   -1.1026   -4.1731    0.9475 H   0  0  0  0  0  0  0  0  0  0  0  0
   -3.2448   -3.6257    1.6966 H   0  0  0  0  0  0  0  0  0  0  0  0
   -4.5984   -2.4970    1.3475 H   0  0  0  0  0  0  0  0  0  0  0  0
   -3.9666   -3.5793    0.0702 H   0  0  0  0  0  0  0  0  0  0  0  0
   -4.1867   -0.4049    0.9719 H   0  0  0  0  0  0  0  0  0  0  0  0
   -5.2587    1.1582    0.1775 H   0  0  0  0  0  0  0  0  0  0  0  0
   -6.3278    3.4010    0.1068 H   0  0  0  0  0  0  0  0  0  0  0  0
   -4.9217    5.4652   -0.1289 H   0  0  0  0  0  0  0  0  0  0  0  0
   -2.4258    5.2564   -0.2945 H   0  0  0  0  0  0  0  0  0  0  0  0
   -1.3532    2.9806   -0.2128 H   0  0  0  0  0  0  0  0  0  0  0  0
    0.7229   -5.5587   -1.7245 H   0  0  0  0  0  0  0  0  0  0  0  0
  2 22  1  0  0  0  0
  3 17  1  0  0  0  0
  4 14  1  0  0  0  0
  6 11  1  0  0  0  0
  7  6  2  0  0  0  0
  7  8  1  0  0  0  0
  8  9  2  0  0  0  0
  9 10  1  0  0  0  0
  9 32  1  0  0  0  0
 10 33  1  0  0  0  0
 11 12  1  0  0  0  0
 11 10  2  0  0  0  0
 12  1  1  1  0  0  0
 12 13  1  0  0  0  0
 13 34  1  0  0  0  0
 14 13  2  0  0  0  0
 14 15  1  0  0  0  0
 15 37  1  0  0  0  0
 15 35  1  0  0  0  0
 16  4  1  0  0  0  0
 16 38  1  0  0  0  0
 17 40  1  6  0  0  0
 17 16  1  0  0  0  0
 17 18  1  0  0  0  0
 18  5  1  0  0  0  0
 18 42  1  0  0  0  0
 19 44  1  0  0  0  0
 19 43  1  0  0  0  0
 20  5  1  6  0  0  0
 20 21  1  0  0  0  0
 20 19  1  0  0  0  0
 21 46  1  0  0  0  0
 22 21  2  0  0  0  0
 23 22  1  0  0  0  0
 23 24  1  0  0  0  0
 24 47  1  0  0  0  0
 25 24  2  0  0  0  0
 25 48  1  0  0  0  0
 26 25  1  0  0  0  0
 27 28  1  0  0  0  0
 27 26  2  0  0  0  0
 28 23  2  0  0  0  0
 29  6  1  0  0  0  0
 30  7  1  0  0  0  0
 31  8  1  0  0  0  0
 36 15  1  0  0  0  0
 39 16  1  0  0  0  0
 41 18  1  0  0  0  0
 45 19  1  0  0  0  0
 49 26  1  0  0  0  0
 50 27  1  0  0  0  0
 51 28  1  0  0  0  0
 52  3  1  0  0  0  0
M  CHG  1   2  -1
M  END
