2,12,22,32
q = -2.0, confidence = 0.846

 40 41  0  0  0  0  0  0  0  0999 V2000
    1.4984    2.6337   -0.5540 P   0  0  2  0  0  0  0  0  0  0  0  0
    0.6098    1.5765   -1.3035 O   0  0  0  0  0  1  0  0  0  0  0  0
    1.4953    4.1016   -0.8813 O   0  0  0  0  0  0  0  0  0  0  0  0
    3.0201    1.9576   -0.6617 O   0  0  0  0  0  0  0  0  0  0  0  0
    4.1887    2.7738   -0.5195 C   0  0  0  0  0  0  0  0  0  0  0  0
    3.8984    3.8455   -0.5751 H   0  0  0  0  0  0  0  0  0  0  0  0
    4.8391    2.5593   -1.3954 H   0  0  0  0  0  0  0  0  0  0  0  0
    4.9208    2.4502    0.7748 C   0  0  0  0  0  0  0  0  0  0  0  0
    4.2961    2.6912    1.6587 H   0  0  0  0  0  0  0  0  0  0  0  0
    5.8621    3.0326    0.8476 H   0  0  0  0  0  0  0  0  0  0  0  0
    5.1727    1.3711    0.8197 H   0  0  0  0  0  0  0  0  0  0  0  0
    0.5269    1.1506    1.4760 N   0  0  0  0  0  2  0  0  0  0  0  0
    0.2956    0.6727    2.7560 C   0  0  0  0  0  0  0  0  0  0  0  0
    0.6332    1.4802    3.8564 C   0  0  0  0  0  0  0  0  0  0  0  0
    0.4532    1.1153    4.8779 H   0  0  0  0  0  0  0  0  0  0  0  0
    1.1895    2.7494    3.6374 C   0  0  0  0  0  0  0  0  0  0  0  0
    1.4358    3.3941    4.4937 H   0  0  0  0  0  0  0  0  0  0  0  0
    1.4437    3.1881    2.3202 C   0  0  0  0  0  0  0  0  0  0  0  0
    1.8884    4.1719    2.1099 H   0  0  0  0  0  0  0  0  0  0  0  0
    1.1277    2.3499    1.2487 C   0  0  0  0  0  0  0  0  0  0  0  0
   -1.4985   -2.6337   -0.5537 P   0  0  2  0  0  0  0  0  0  0  0  0
   -0.6098   -1.5766   -1.3033 O   0  0  0  0  0  1  0  0  0  0  0  0
   -1.4954   -4.1016   -0.8808 O   0  0  0  0  0  0  0  0  0  0  0  0
   -3.0201   -1.9575   -0.6614 O   0  0  0  0  0  0  0  0  0  0  0  0
   -4.1887   -2.7736   -0.5191 C   0  0  0  0  0  0  0  0  0  0  0  0
   -3.8985   -3.8453   -0.5746 H   0  0  0  0  0  0  0  0  0  0  0  0
   -4.8391   -2.5591   -1.3951 H   0  0  0  0  0  0  0  0  0  0  0  0
   -4.9209   -2.4497    0.7751 C   0  0  0  0  0  0  0  0  0  0  0  0
   -4.2961   -2.6906    1.6590 H   0  0  0  0  0  0  0  0  0  0  0  0
   -5.8622   -3.0321    0.8479 H   0  0  0  0  0  0  0  0  0  0  0  0
   -5.1726   -1.3706    0.8198 H   0  0  0  0  0  0  0  0  0  0  0  0
   -0.5269   -1.1504    1.4761 N   0  0  0  0  0  2  0  0  0  0  0  0
   -0.2956   -0.6724    2.7560 C   0  0  0  0  0  0  0  0  0  0  0  0
   -0.6332   -1.4798    3.8566 C   0  0  0  0  0  0  0  0  0  0  0  0
   -0.4531   -1.1148    4.8780 H   0  0  0  0  0  0  0  0  0  0  0  0
   -1.1895   -2.7490    3.6378 C   0  0  0  0  0  0  0  0  0  0  0  0
   -1.4358   -3.3935    4.4941 H   0  0  0  0  0  0  0  0  0  0  0  0
   -1.4437   -3.1877    2.3205 C   0  0  0  0  0  0  0  0  0  0  0  0
   -1.8884   -4.1716    2.1103 H   0  0  0  0  0  0  0  0  0  0  0  0
   -1.1277   -2.3498    1.2490 C   0  0  0  0  0  0  0  0  0  0  0  0
  1  2  1  6  0  0  0
  1 20  1  0  0  0  0
  3  1  2  0  0  0  0
  4  1  1  0  0  0  0
  4  5  1  0  0  0  0
  5  8  1  0  0  0  0
  6  5  1  0  0  0  0
  7  5  1  0  0  0  0
  8 11  1  0  0  0  0
  8 10  1  0  0  0  0
  8  9  1  0  0  0  0
 12 13  1  0  0  0  0
 13 33  2  0  0  0  0
 13 14  1  0  0  0  0
 14 15  1  0  0  0  0
 16 14  2  0  0  0  0
 16 17  1  0  0  0  0
 18 16  1  0  0  0  0
 19 18  1  0  0  0  0
 20 12  1  0  0  0  0
 20 18  2  0  0  0  0
 21 22  1  6  0  0  0
 21 40  1  0  0  0  0
 23 21  2  0  0  0  0
 24 21  1  0  0  0  0
 24 25  1  0  0  0  0
 25 28  1  0  0  0  0
 26 25  1  0  0  0  0
 27 25  1  0  0  0  0
 28 31  1  0  0  0  0
 28 30  1  0  0  0  0
 28 29  1  0  0  0  0
 32 33  1  0  0  0  0
 33 34  1  0  0  0  0
 34 35  1  0  0  0  0
 36 34  2  0  0  0  0
 36 37  1  0  0  0  0
 38 36  1  0  0  0  0
 39 38  1  0  0  0  0
 40 32  1  0  0  0  0
 40 38  2  0  0  0  0
M  END
