1,3,5,6
q = -2.0, confidence = 0.836

 52 53  0  0  0  0  0  0  0  0999 V2000
   -1.7871    0.6648    0.7720 O   0  5  0  0  0  0  0  0  0  0  0  0
   -6.3592   -1.9927   -0.8706 O   0  0  0  0  0  0  0  0  0  0  0  0
    1.8257    0.9252   -0.3449 O   0  5  0  0  0  0  0  0  0  0  0  0
    6.4861   -1.9890    0.3298 O   0  0  0  0  0  0  0  0  0  0  0  0
   -0.5366   -0.6682   -1.3555 N   0  0  0  0  0  0  0  0  0  0  0  0
    0.6550   -1.0445    1.2832 N   0  0  0  0  0  0  0  0  0  0  0  0
   -2.8955    0.0361    0.3946 C   0  0  0  0  0  0  0  0  0  0  0  0
   -3.0147   -0.5096   -0.9187 C   0  0  0  0  0  0  0  0  0  0  0  0
   -4.1850   -1.1832   -1.2871 C   0  0  0  0  0  0  0  0  0  0  0  0
   -4.2871   -1.6168   -2.2939 H   0  0  0  0  0  0  0  0  0  0  0  0
   -5.2656   -1.3242   -0.3916 C   0  0  0  0  0  0  0  0  0  0  0  0
   -5.1522   -0.7910    0.9073 C   0  0  0  0  0  0  0  0  0  0  0  0
   -5.9714   -0.8873    1.6328 H   0  0  0  0  0  0  0  0  0  0  0  0
   -3.9758   -0.1279    1.2898 C   0  0  0  0  0  0  0  0  0  0  0  0
   -3.8760    0.2925    2.3015 H   0  0  0  0  0  0  0  0  0  0  0  0
   -1.8844   -0.3341   -1.8987 C   0  0  0  0  0  0  0  0  0  0  0  0
   -2.0851   -0.9556   -2.8033 H   0  0  0  0  0  0  0  0  0  0  0  0
   -1.8202    0.7266   -2.2220 H   0  0  0  0  0  0  0  0  0  0  0  0
   -7.4633   -2.1576   -0.0077 C   0  0  0  0  0  0  0  0  0  0  0  0
   -8.2318   -2.7115   -0.5791 H   0  0  0  0  0  0  0  0  0  0  0  0
   -7.8910   -1.1812    0.3170 H   0  0  0  0  0  0  0  0  0  0  0  0
   -7.2005   -2.7443    0.9028 H   0  0  0  0  0  0  0  0  0  0  0  0
    2.9546    0.2384   -0.1989 C   0  0  0  0  0  0  0  0  0  0  0  0
    3.1152   -0.6781    0.8831 C   0  0  0  0  0  0  0  0  0  0  0  0
    4.3069   -1.4013    1.0094 C   0  0  0  0  0  0  0  0  0  0  0  0
    4.4414   -2.1174    1.8347 H   0  0  0  0  0  0  0  0  0  0  0  0
    5.3684   -1.2352    0.0956 C   0  0  0  0  0  0  0  0  0  0  0  0
    5.2138   -0.3352   -0.9771 C   0  0  0  0  0  0  0  0  0  0  0  0
    6.0174   -0.1850   -1.7108 H   0  0  0  0  0  0  0  0  0  0  0  0
    4.0161    0.3828   -1.1194 C   0  0  0  0  0  0  0  0  0  0  0  0
    3.8846    1.0883   -1.9532 H   0  0  0  0  0  0  0  0  0  0  0  0
    2.0031   -0.8372    1.8861 C   0  0  0  0  0  0  0  0  0  0  0  0
    2.2415   -1.6888    2.5663 H   0  0  0  0  0  0  0  0  0  0  0  0
    1.9105    0.0798    2.5062 H   0  0  0  0  0  0  0  0  0  0  0  0
    7.5727   -1.8541   -0.5600 C   0  0  0  0  0  0  0  0  0  0  0  0
    8.3655   -2.5351   -0.1973 H   0  0  0  0  0  0  0  0  0  0  0  0
    7.9728   -0.8142   -0.5782 H   0  0  0  0  0  0  0  0  0  0  0  0
    7.3005   -2.1424   -1.6017 H   0  0  0  0  0  0  0  0  0  0  0  0
    0.4380   -0.6047   -2.4553 C   0  0  0  0  0  0  0  0  0  0  0  0
    0.4675    0.4249   -2.8570 H   0  0  0  0  0  0  0  0  0  0  0  0
    0.1552   -1.3080   -3.2746 H   0  0  0  0  0  0  0  0  0  0  0  0
    1.4526   -0.8544   -2.0987 H   0  0  0  0  0  0  0  0  0  0  0  0
   -0.3010   -1.3282    2.3650 C   0  0  0  0  0  0  0  0  0  0  0  0
   -0.3479   -0.4564    3.0433 H   0  0  0  0  0  0  0  0  0  0  0  0
    0.0150   -2.2282    2.9445 H   0  0  0  0  0  0  0  0  0  0  0  0
   -1.3146   -1.4951    1.9601 H   0  0  0  0  0  0  0  0  0  0  0  0
   -0.5172   -1.9871   -0.6911 C   0  0  0  0  0  0  0  0  0  0  0  0
   -0.4811   -2.8128   -1.4418 H   0  0  0  0  0  0  0  0  0  0  0  0
   -1.4742   -2.1030   -0.1455 H   0  0  0  0  0  0  0  0  0  0  0  0
    0.6595   -2.1160    0.2666 C   0  0  0  0  0  0  0  0  0  0  0  0
    0.6429   -3.1234    0.7471 H   0  0  0  0  0  0  0  0  0  0  0  0
    1.6169   -2.0500   -0.2868 H   0  0  0  0  0  0  0  0  0  0  0  0
  2 11  1  0  0  0  0
  2 19  1  0  0  0  0
  3 23  1  0  0  0  0
  5 47  1  0  0  0  0
  6 32  1  0  0  0  0
  6 43  1  0  0  0  0
  7  1  1  0  0  0  0
  7 14  1  0  0  0  0
  8  7  2  0  0  0  0
  9  8  1  0  0  0  0
  9 11  2  0  0  0  0
 10  9  1  0  0  0  0
 11 12  1  0  0  0  0
 12 14  2  0  0  0  0
 12 13  1  0  0  0  0
 14 15  1  0  0  0  0
 16  5  1  0  0  0  0
 16  8  1  0  0  0  0
 17 16  1  0  0  0  0
 18 16  1  0  0  0  0
 19 21  1  0  0  0  0
 19 22  1  0  0  0  0
 20 19  1  0  0  0  0
 23 24  1  0  0  0  0
 24 25  2  0  0  0  0
 24 32  1  0  0  0  0
 25 26  1  0  0  0  0
 27  4  1  0  0  0  0
 27 25  1  0  0  0  0
 28 27  2  0  0  0  0
 29 28  1  0  0  0  0
 30 28  1  0  0  0  0
 30 23  2  0  0  0  0
 31 30  1  0  0  0  0
 32 34  1  0  0  0  0
 32 33  1  0  0  0  0
 35 36  1  0  0  0  0
 35  4  1  0  0  0  0
 37 35  1  0  0  0  0
 38 35  1  0  0  0  0
 39 42  1  0  0  0  0
 39  5  1  0  0  0  0
 40 39  1  0  0  0  0
 41 39  1  0  0  0  0
 43 45  1  0  0  0  0
 43 44  1  0  0  0  0
 46 43  1  0  0  0  0
 47 49  1  0  0  0  0
 47 50  1  0  0  0  0
 48 47  1  0  0  0  0
 50 51  1  0  0  0  0
 50  6  1  0  0  0  0
 52 50  1  0  0  0  0
M  CHG  2   1  -1   3  -1
M  END
