3,5,7,8
q = -2.0, confidence = 0.782

 52 54  0  0  1  0  0  0  0  0999 V2000
    2.2503   -0.0119   -1.3653 S   0  0  0  0  0  0  0  0  0  0  0  0
   -2.2504   -0.0114    1.3653 S   0  0  0  0  0  0  0  0  0  0  0  0
    1.7801   -1.4697   -1.3411 O   0  0  0  0  0  1  0  0  0  0  0  0
    2.3307    0.6831   -2.6719 O   0  0  0  0  0  1  0  0  0  0  0  0
   -1.7803   -1.4692    1.3415 O   0  0  0  0  0  1  0  0  0  0  0  0
   -2.3309    0.6839    2.6716 O   0  0  0  0  0  1  0  0  0  0  0  0
    1.2030    0.5979   -0.2907 N   0  0  0  0  0  2  0  0  0  0  0  0
   -1.2030    0.5981    0.2905 N   0  0  0  0  0  2  0  0  0  0  0  0
    0.5920    1.9099   -0.4868 C   0  0  2  0  0  0  0  0  0  0  0  0
    1.4776    3.1357   -0.2552 C   0  0  0  0  0  0  0  0  0  0  0  0
    0.6316    4.4071   -0.4396 C   0  0  0  0  0  0  0  0  0  0  0  0
   -0.6310    4.4072    0.4394 C   0  0  0  0  0  0  0  0  0  0  0  0
   -1.4772    3.1359    0.2549 C   0  0  0  0  0  0  0  0  0  0  0  0
   -0.5918    1.9100    0.4866 C   0  0  1  0  0  0  0  0  0  0  0  0
    3.8799   -0.0073   -0.6273 C   0  0  0  0  0  0  0  0  0  0  0  0
    4.0466   -0.5988    0.6374 C   0  0  0  0  0  0  0  0  0  0  0  0
    5.3161   -0.5857    1.2203 C   0  0  0  0  0  0  0  0  0  0  0  0
    6.4223    0.0013    0.5616 C   0  0  0  0  0  0  0  0  0  0  0  0
    6.2175    0.5800   -0.7063 C   0  0  0  0  0  0  0  0  0  0  0  0
    4.9507    0.5802   -1.3100 C   0  0  0  0  0  0  0  0  0  0  0  0
    7.7823   -0.0006    1.2108 C   0  0  0  0  0  0  0  0  0  0  0  0
   -3.8800   -0.0070    0.6271 C   0  0  0  0  0  0  0  0  0  0  0  0
   -4.0466   -0.5989   -0.6375 C   0  0  0  0  0  0  0  0  0  0  0  0
   -5.3160   -0.5860   -1.2204 C   0  0  0  0  0  0  0  0  0  0  0  0
   -6.4223    0.0013   -0.5619 C   0  0  0  0  0  0  0  0  0  0  0  0
   -6.2176    0.5803    0.7058 C   0  0  0  0  0  0  0  0  0  0  0  0
   -4.9508    0.5807    1.3096 C   0  0  0  0  0  0  0  0  0  0  0  0
   -7.7822   -0.0008   -1.2112 C   0  0  0  0  0  0  0  0  0  0  0  0
    0.1743    1.9829   -1.5206 H   0  0  0  0  0  0  0  0  0  0  0  0
    2.3280    3.1232   -0.9676 H   0  0  0  0  0  0  0  0  0  0  0  0
    1.9048    3.0867    0.7700 H   0  0  0  0  0  0  0  0  0  0  0  0
    0.3300    4.4815   -1.5082 H   0  0  0  0  0  0  0  0  0  0  0  0
    1.2440    5.3080   -0.2280 H   0  0  0  0  0  0  0  0  0  0  0  0
   -1.2432    5.3082    0.2277 H   0  0  0  0  0  0  0  0  0  0  0  0
   -0.3294    4.4816    1.5079 H   0  0  0  0  0  0  0  0  0  0  0  0
   -1.9044    3.0870   -0.7703 H   0  0  0  0  0  0  0  0  0  0  0  0
   -2.3276    3.1236    0.9674 H   0  0  0  0  0  0  0  0  0  0  0  0
   -0.1740    1.9829    1.5204 H   0  0  0  0  0  0  0  0  0  0  0  0
    3.1762   -1.0507    1.1386 H   0  0  0  0  0  0  0  0  0  0  0  0
    5.4591   -1.0432    2.2122 H   0  0  0  0  0  0  0  0  0  0  0  0
    7.0680    1.0397   -1.2338 H   0  0  0  0  0  0  0  0  0  0  0  0
    4.7798    1.0283   -2.2995 H   0  0  0  0  0  0  0  0  0  0  0  0
    7.7578    0.5138    2.1940 H   0  0  0  0  0  0  0  0  0  0  0  0
    8.5390    0.5041    0.5803 H   0  0  0  0  0  0  0  0  0  0  0  0
    8.1330   -1.0364    1.4014 H   0  0  0  0  0  0  0  0  0  0  0  0
   -3.1762   -1.0509   -1.1384 H   0  0  0  0  0  0  0  0  0  0  0  0
   -5.4590   -1.0437   -2.2122 H   0  0  0  0  0  0  0  0  0  0  0  0
   -7.0681    1.0401    1.2331 H   0  0  0  0  0  0  0  0  0  0  0  0
   -4.7799    1.0290    2.2990 H   0  0  0  0  0  0  0  0  0  0  0  0
   -8.1326   -1.0366   -1.4022 H   0  0  0  0  0  0  0  0  0  0  0  0
   -7.7578    0.5139   -2.1943 H   0  0  0  0  0  0  0  0  0  0  0  0
   -8.5391    0.5036   -0.5807 H   0  0  0  0  0  0  0  0  0  0  0  0
  1  3  1  0  0  0  0
  1 15  1  0  0  0  0
  1  7  1  0  0  0  0
  2  6  1  0  0  0  0
  4  1  1  0  0  0  0
  5  2  1  0  0  0  0
  8 14  1  0  0  0  0
  8  2  1  0  0  0  0
  9 29  1  6  0  0  0
  9  7  1  0  0  0  0
  9 10  1  0  0  0  0
  9 14  1  0  0  0  0
 10 31  1  0  0  0  0
 11 10  1  0  0  0  0
 11 33  1  0  0  0  0
 11 12  1  0  0  0  0
 12 35  1  0  0  0  0
 13 12  1  0  0  0  0
 13 14  1  0  0  0  0
 13 37  1  0  0  0  0
 14 38  1  1  0  0  0
 15 16  1  0  0  0  0
 16 39  1  0  0  0  0
 16 17  2  0  0  0  0
 17 40  1  0  0  0  0
 18 21  1  0  0  0  0
 18 17  1  0  0  0  0
 19 18  2  0  0  0  0
 20 19  1  0  0  0  0
 20 15  2  0  0  0  0
 21 45  1  0  0  0  0
 21 43  1  0  0  0  0
 22 27  1  0  0  0  0
 22  2  1  0  0  0  0
 23 22  2  0  0  0  0
 24 23  1  0  0  0  0
 24 25  2  0  0  0  0
 25 26  1  0  0  0  0
 26 48  1  0  0  0  0
 26 27  2  0  0  0  0
 27 49  1  0  0  0  0
 28 52  1  0  0  0  0
 28 25  1  0  0  0  0
 30 10  1  0  0  0  0
 32 11  1  0  0  0  0
 34 12  1  0  0  0  0
 36 13  1  0  0  0  0
 41 19  1  0  0  0  0
 42 20  1  0  0  0  0
 44 21  1  0  0  0  0
 46 23  1  0  0  0  0
 47 24  1  0  0  0  0
 50 28  1  0  0  0  0
 51 28  1  0  0  0  0
M  END
