1,2,3,4
q = -2.0, confidence = 0.864

 43 44  0  0  1  0  0  0  0  0999 V2000
   -1.2974   -1.6361   -0.2498 O   0  0  0  0  0  1  0  0  0  0  0  0
    1.2978   -1.6358   -0.2488 O   0  0  0  0  0  1  0  0  0  0  0  0
   -1.4959    1.2656   -0.2222 N   0  0  0  0  0  2  0  0  0  0  0  0
    1.4957    1.2660   -0.2210 N   0  0  0  0  0  2  0  0  0  0  0  0
   -2.5776   -1.5886   -0.0251 C   0  0  1  0  0  3  0  0  0  0  0  0
   -3.3333   -0.3689    0.1293 C   0  0  0  0  0  0  0  0  0  0  0  0
   -4.7359   -0.4441    0.3859 C   0  0  0  0  0  0  0  0  0  0  0  0
   -5.2948    0.4993    0.4983 H   0  0  0  0  0  0  0  0  0  0  0  0
   -5.3949   -1.6597    0.4883 C   0  0  0  0  0  0  0  0  0  0  0  0
   -6.4752   -1.6966    0.6877 H   0  0  0  0  0  0  0  0  0  0  0  0
   -4.6514   -2.8576    0.3243 C   0  0  0  0  0  0  0  0  0  0  0  0
   -5.1636   -3.8298    0.3992 H   0  0  0  0  0  0  0  0  0  0  0  0
   -3.2872   -2.8273    0.0711 C   0  0  0  0  0  0  0  0  0  0  0  0
   -2.7005   -3.7483   -0.0557 H   0  0  0  0  0  0  0  0  0  0  0  0
   -2.7533    0.9285   -0.0110 C   0  0  0  0  0  0  0  0  0  0  0  0
   -3.4715    1.7696    0.0458 H   0  0  0  0  0  0  0  0  0  0  0  0
   -1.2537    2.6873   -0.4681 C   0  0  0  0  0  0  0  0  0  0  0  0
   -2.1434    3.2631   -0.1327 H   0  0  0  0  0  0  0  0  0  0  0  0
   -1.1626    2.8430   -1.5670 H   0  0  0  0  0  0  0  0  0  0  0  0
   -0.0007    3.2693    0.2073 C   0  0  0  0  0  0  0  0  0  0  0  0
   -0.0019    3.0059    1.7199 C   0  0  0  0  0  0  0  0  0  0  0  0
   -0.0015    1.9206    1.9422 H   0  0  0  0  0  0  0  0  0  0  0  0
   -0.8987    3.4540    2.1942 H   0  0  0  0  0  0  0  0  0  0  0  0
    0.8937    3.4549    2.1956 H   0  0  0  0  0  0  0  0  0  0  0  0
   -0.0009    4.7839   -0.0679 C   0  0  0  0  0  0  0  0  0  0  0  0
   -0.8962    5.2648    0.3750 H   0  0  0  0  0  0  0  0  0  0  0  0
   -0.0004    5.0024   -1.1561 H   0  0  0  0  0  0  0  0  0  0  0  0
    0.8938    5.2652    0.3759 H   0  0  0  0  0  0  0  0  0  0  0  0
    1.2536    2.6880   -0.4661 C   0  0  0  0  0  0  0  0  0  0  0  0
    1.1646    2.8446   -1.5650 H   0  0  0  0  0  0  0  0  0  0  0  0
    2.1425    3.2636   -0.1285 H   0  0  0  0  0  0  0  0  0  0  0  0
    2.7531    0.9290   -0.0099 C   0  0  0  0  0  0  0  0  0  0  0  0
    3.4712    1.7703    0.0476 H   0  0  0  0  0  0  0  0  0  0  0  0
    3.3335   -0.3683    0.1297 C   0  0  0  0  0  0  0  0  0  0  0  0
    2.5780   -1.5881   -0.0248 C   0  0  2  0  0  3  0  0  0  0  0  0
    3.2880   -2.8267    0.0709 C   0  0  0  0  0  0  0  0  0  0  0  0
    2.7015   -3.7478   -0.0560 H   0  0  0  0  0  0  0  0  0  0  0  0
    4.6523   -2.8567    0.3236 C   0  0  0  0  0  0  0  0  0  0  0  0
    5.1648   -3.8288    0.3981 H   0  0  0  0  0  0  0  0  0  0  0  0
    5.3955   -1.6586    0.4877 C   0  0  0  0  0  0  0  0  0  0  0  0
    6.4760   -1.6954    0.6867 H   0  0  0  0  0  0  0  0  0  0  0  0
    4.7362   -0.4431    0.3859 C   0  0  0  0  0  0  0  0  0  0  0  0
    5.2949    0.5004    0.4983 H   0  0  0  0  0  0  0  0  0  0  0  0
  3 15  1  0  0  0  0
  4 32  1  0  0  0  0
  5  1  1  6  0  0  0
  5 13  1  0  0  0  0
  5  6  1  0  0  0  0
  6  7  1  0  0  0  0
  7  9  2  0  0  0  0
  7  8  1  0  0  0  0
  9 10  1  0  0  0  0
 11 12  1  0  0  0  0
 11  9  1  0  0  0  0
 13 11  2  0  0  0  0
 14 13  1  0  0  0  0
 15 16  1  0  0  0  0
 15  6  2  0  0  0  0
 17  3  1  0  0  0  0
 17 18  1  0  0  0  0
 17 20  1  0  0  0  0
 19 17  1  0  0  0  0
 20 21  1  0  0  0  0
 21 22  1  0  0  0  0
 21 23  1  0  0  0  0
 21 24  1  0  0  0  0
 25 20  1  0  0  0  0
 25 26  1  0  0  0  0
 25 28  1  0  0  0  0
 27 25  1  0  0  0  0
 29  4  1  0  0  0  0
 29 31  1  0  0  0  0
 29 20  1  0  0  0  0
 30 29  1  0  0  0  0
 32 33  1  0  0  0  0
 32 34  2  0  0  0  0
 34 42  1  0  0  0  0
 35  2  1  6  0  0  0
 35 36  1  0  0  0  0
 35 34  1  0  0  0  0
 36 38  2  0  0  0  0
 37 36  1  0  0  0  0
 38 39  1  0  0  0  0
 38 40  1  0  0  0  0
 40 41  1  0  0  0  0
 42 40  2  0  0  0  0
 42 43  1  0  0  0  0
M  END
