1,2,3,4
q = -2.0, confidence = 0.838

 40 41  0  0  0  0  0  0  0  0999 V2000
    1.7472    0.6199   -0.7057 O   0  5  0  0  0  0  0  0  0  0  0  0
   -0.5087    0.6188    0.9322 O   0  5  0  0  0  0  0  0  0  0  0  0
    0.8071   -1.7084    0.8797 N   0  0  0  0  0  2  0  0  0  0  0  0
   -1.8935   -1.2405   -0.5556 N   0  0  0  0  0  2  0  0  0  0  0  0
    2.7978    0.5086    0.0799 C   0  0  0  0  0  0  0  0  0  0  0  0
    3.8477    1.4524   -0.0965 C   0  0  0  0  0  0  0  0  0  0  0  0
    5.0035    1.4079    0.6781 C   0  0  0  0  0  0  0  0  0  0  0  0
    5.1683    0.4193    1.6748 C   0  0  0  0  0  0  0  0  0  0  0  0
    4.1533   -0.5097    1.8723 C   0  0  0  0  0  0  0  0  0  0  0  0
    2.9567   -0.4976    1.0998 C   0  0  0  0  0  0  0  0  0  0  0  0
    1.9764   -1.5046    1.4215 C   0  0  0  0  0  3  0  0  0  0  0  0
   -0.0311   -2.7742    1.4340 C   0  0  0  0  0  0  0  0  0  0  0  0
   -0.4652   -3.8396    0.3998 C   0  0  0  0  0  0  0  0  0  0  0  0
   -1.8930   -3.7109   -0.1510 C   0  0  0  0  0  0  0  0  0  0  0  0
   -2.1661   -2.5686   -1.1377 C   0  0  0  0  0  0  0  0  0  0  0  0
   -2.9207   -0.6518    0.0260 C   0  0  0  0  0  3  0  0  0  0  0  0
   -2.9031    0.5348    0.8444 C   0  0  0  0  0  0  0  0  0  0  0  0
   -4.1318    1.0920    1.2832 C   0  0  0  0  0  0  0  0  0  0  0  0
   -4.1668    2.2037    2.1250 C   0  0  0  0  0  0  0  0  0  0  0  0
   -2.9531    2.7709    2.5683 C   0  0  0  0  0  0  0  0  0  0  0  0
   -1.7259    2.2308    2.1746 C   0  0  0  0  0  0  0  0  0  0  0  0
   -1.6731    1.1151    1.3033 C   0  0  0  0  0  0  0  0  0  0  0  0
    3.7036    2.2158   -0.8746 H   0  0  0  0  0  0  0  0  0  0  0  0
    5.7957    2.1543    0.5109 H   0  0  0  0  0  0  0  0  0  0  0  0
    6.0816    0.3874    2.2857 H   0  0  0  0  0  0  0  0  0  0  0  0
    4.2608   -1.2843    2.6487 H   0  0  0  0  0  0  0  0  0  0  0  0
    2.2666   -2.1791    2.2554 H   0  0  0  0  0  0  0  0  0  0  0  0
   -0.9280   -2.2927    1.8814 H   0  0  0  0  0  0  0  0  0  0  0  0
    0.5194   -3.2620    2.2684 H   0  0  0  0  0  0  0  0  0  0  0  0
    0.2707   -3.8573   -0.4306 H   0  0  0  0  0  0  0  0  0  0  0  0
   -0.3919   -4.8281    0.8985 H   0  0  0  0  0  0  0  0  0  0  0  0
   -2.1549   -4.6551   -0.6748 H   0  0  0  0  0  0  0  0  0  0  0  0
   -2.6056   -3.6258    0.6999 H   0  0  0  0  0  0  0  0  0  0  0  0
   -1.5401   -2.6838   -2.0417 H   0  0  0  0  0  0  0  0  0  0  0  0
   -3.2322   -2.6082   -1.4477 H   0  0  0  0  0  0  0  0  0  0  0  0
   -3.9036   -1.1513   -0.0807 H   0  0  0  0  0  0  0  0  0  0  0  0
   -5.0710    0.6290    0.9393 H   0  0  0  0  0  0  0  0  0  0  0  0
   -5.1292    2.6288    2.4444 H   0  0  0  0  0  0  0  0  0  0  0  0
   -2.9696    3.6462    3.2363 H   0  0  0  0  0  0  0  0  0  0  0  0
   -0.7721    2.6581    2.5159 H   0  0  0  0  0  0  0  0  0  0  0  0
  1  5  1  0  0  0  0
  2 22  1  0  0  0  0
  3 11  1  0  0  0  0
  3 12  1  0  0  0  0
  4 16  1  0  0  0  0
  5 10  1  0  0  0  0
  6  5  2  0  0  0  0
  6  7  1  0  0  0  0
  7  8  2  0  0  0  0
  8  9  1  0  0  0  0
  8 25  1  0  0  0  0
  9 26  1  0  0  0  0
 10 11  1  0  0  0  0
 10  9  2  0  0  0  0
 11 27  1  0  0  0  0
 12 28  1  0  0  0  0
 12 29  1  0  0  0  0
 13 31  1  0  0  0  0
 13 12  1  0  0  0  0
 14 13  1  0  0  0  0
 14 33  1  0  0  0  0
 15  4  1  0  0  0  0
 15 14  1  0  0  0  0
 16 17  1  0  0  0  0
 17 18  2  0  0  0  0
 17 22  1  0  0  0  0
 18 19  1  0  0  0  0
 19 38  1  0  0  0  0
 19 20  2  0  0  0  0
 20 39  1  0  0  0  0
 21 40  1  0  0  0  0
 21 20  1  0  0  0  0
 22 21  2  0  0  0  0
 23  6  1  0  0  0  0
 24  7  1  0  0  0  0
 30 13  1  0  0  0  0
 32 14  1  0  0  0  0
 34 15  1  0  0  0  0
 35 15  1  0  0  0  0
 36 16  1  0  0  0  0
 37 18  1  0  0  0  0
M  CHG  2   1  -1   2  -1
M  END
