1,3,21,23
q = -2.0, confidence = 0.806

 40 42  0  0  1  0  0  0  0  0999 V2000
   -1.2308    1.4129   -0.0014 O   0  0  0  0  0  1  0  0  0  0  0  0
   -5.4101    3.6799   -0.0005 O   0  0  0  0  0  0  0  0  0  0  0  0
   -1.2733   -1.3325   -0.0001 N   0  0  0  0  0  2  0  0  0  0  0  0
   -2.5214    1.3444   -0.0007 C   0  0  1  0  0  3  0  0  0  0  0  0
   -3.2745    2.5564   -0.0010 C   0  0  0  0  0  0  0  0  0  0  0  0
   -2.7084    3.5008   -0.0018 H   0  0  0  0  0  0  0  0  0  0  0  0
   -4.6685    2.5440   -0.0002 C   0  0  0  0  0  0  0  0  0  0  0  0
   -5.3932    1.3134    0.0008 C   0  0  0  0  0  0  0  0  0  0  0  0
   -6.4910    1.3443    0.0014 H   0  0  0  0  0  0  0  0  0  0  0  0
   -4.6883    0.1268    0.0011 C   0  0  0  0  0  0  0  0  0  0  0  0
   -5.2325   -0.8312    0.0019 H   0  0  0  0  0  0  0  0  0  0  0  0
   -3.2591    0.0936    0.0003 C   0  0  0  0  0  0  0  0  0  0  0  0
   -2.5883   -1.1498    0.0005 C   0  0  0  0  0  0  0  0  0  0  0  0
   -3.2309   -2.0483    0.0012 H   0  0  0  0  0  0  0  0  0  0  0  0
   -0.7099   -2.6262   -0.0002 C   0  0  0  0  0  0  0  0  0  0  0  0
   -1.4093   -3.8499   -0.0007 C   0  0  0  0  0  0  0  0  0  0  0  0
   -2.5076   -3.8701   -0.0014 H   0  0  0  0  0  0  0  0  0  0  0  0
   -0.7035   -5.0586   -0.0004 C   0  0  0  0  0  0  0  0  0  0  0  0
   -1.2560   -6.0097   -0.0007 H   0  0  0  0  0  0  0  0  0  0  0  0
   -4.8017    4.4433   -0.0012 H   0  0  0  0  0  0  0  0  0  0  0  0
    1.2308    1.4129    0.0015 O   0  5  0  0  0  0  0  0  0  0  0  0
    5.4101    3.6799    0.0005 O   0  0  0  0  0  0  0  0  0  0  0  0
    1.2733   -1.3325    0.0001 N   0  0  0  0  0  2  0  0  0  0  0  0
    2.5214    1.3444    0.0007 C   0  0  0  0  0  0  0  0  0  0  0  0
    3.2745    2.5564    0.0010 C   0  0  0  0  0  0  0  0  0  0  0  0
    2.7084    3.5008    0.0018 H   0  0  0  0  0  0  0  0  0  0  0  0
    4.6685    2.5440    0.0002 C   0  0  0  0  0  0  0  0  0  0  0  0
    5.3932    1.3134   -0.0009 C   0  0  0  0  0  0  0  0  0  0  0  0
    6.4910    1.3443   -0.0015 H   0  0  0  0  0  0  0  0  0  0  0  0
    4.6883    0.1268   -0.0011 C   0  0  0  0  0  3  0  0  0  0  0  0
    5.2325   -0.8312   -0.0020 H   0  0  0  0  0  0  0  0  0  0  0  0
    3.2591    0.0936   -0.0003 C   0  0  0  0  0  0  0  0  0  0  0  0
    2.5883   -1.1498   -0.0005 C   0  0  0  0  0  0  0  0  0  0  0  0
    3.2309   -2.0483   -0.0012 H   0  0  0  0  0  0  0  0  0  0  0  0
    0.7099   -2.6262    0.0002 C   0  0  0  0  0  0  0  0  0  0  0  0
    1.4093   -3.8499    0.0007 C   0  0  0  0  0  0  0  0  0  0  0  0
    2.5076   -3.8701    0.0014 H   0  0  0  0  0  0  0  0  0  0  0  0
    0.7035   -5.0586    0.0004 C   0  0  0  0  0  0  0  0  0  0  0  0
    1.2560   -6.0097    0.0007 H   0  0  0  0  0  0  0  0  0  0  0  0
    4.8017    4.4433    0.0012 H   0  0  0  0  0  0  0  0  0  0  0  0
  2  7  1  0  0  0  0
  3 13  1  0  0  0  0
  4  1  1  6  0  0  0
  4 12  1  0  0  0  0
  5  4  1  0  0  0  0
  5  7  2  0  0  0  0
  6  5  1  0  0  0  0
  7  8  1  0  0  0  0
  8 10  2  0  0  0  0
  8  9  1  0  0  0  0
 10 11  1  0  0  0  0
 12 13  2  0  0  0  0
 12 10  1  0  0  0  0
 13 14  1  0  0  0  0
 15  3  1  0  0  0  0
 15 35  1  0  0  0  0
 16 18  1  0  0  0  0
 16 15  2  0  0  0  0
 17 16  1  0  0  0  0
 18 38  2  0  0  0  0
 19 18  1  0  0  0  0
 20  2  1  0  0  0  0
 22 40  1  0  0  0  0
 23 35  1  0  0  0  0
 24 25  2  0  0  0  0
 24 21  1  0  0  0  0
 25 26  1  0  0  0  0
 27 22  1  0  0  0  0
 27 25  1  0  0  0  0
 28 27  2  0  0  0  0
 29 28  1  0  0  0  0
 30 28  1  0  0  0  0
 30 32  1  0  0  0  0
 31 30  1  0  0  0  0
 32 24  1  0  0  0  0
 33 32  2  0  0  0  0
 33 23  1  0  0  0  0
 34 33  1  0  0  0  0
 35 36  2  0  0  0  0
 36 37  1  0  0  0  0
 38 36  1  0  0  0  0
 38 39  1  0  0  0  0
M  CHG  1  21  -1
M  END
