1,2,3,4
q = -2.0, confidence = 0.846

 78 80  0  0  1  0  0  0  0  0999 V2000
    1.3323    1.9851    0.2340 N   0  0  0  0  0  0  0  0  0  0  0  0
   -1.3323    1.9854   -0.2338 N   0  0  0  0  0  0  0  0  0  0  0  0
    1.2392   -0.8056    0.3414 O   0  5  0  0  0  0  0  0  0  0  0  0
   -1.2395   -0.8054   -0.3417 O   0  5  0  0  0  0  0  0  0  0  0  0
    2.5553   -0.6804    0.2704 C   0  0  0  0  0  0  0  0  0  0  0  0
    3.3590   -1.7591   -0.2447 C   0  0  0  0  0  0  0  0  0  0  0  0
    4.7514   -1.5908   -0.2542 C   0  0  0  0  0  0  0  0  0  0  0  0
    5.4095   -0.4218    0.1917 C   0  0  0  0  0  0  0  0  0  0  0  0
    4.6117    0.6240    0.6749 C   0  0  0  0  0  0  0  0  0  0  0  0
    3.2129    0.5030    0.7255 C   0  0  0  0  0  0  0  0  0  0  0  0
    2.3512    1.6077    1.2613 C   0  0  0  0  0  0  0  0  0  0  0  0
    0.6125    3.2652    0.4627 C   0  0  2  0  0  0  0  0  0  0  0  0
   -0.6122    3.2652   -0.4629 C   0  0  2  0  0  0  0  0  0  0  0  0
   -2.3516    1.6082   -1.2607 C   0  0  0  0  0  0  0  0  0  0  0  0
   -3.2132    0.5035   -0.7249 C   0  0  0  0  0  0  0  0  0  0  0  0
   -4.6120    0.6244   -0.6739 C   0  0  0  0  0  0  0  0  0  0  0  0
   -5.4097   -0.4214   -0.1908 C   0  0  0  0  0  0  0  0  0  0  0  0
   -4.7515   -1.5906    0.2546 C   0  0  0  0  0  0  0  0  0  0  0  0
   -3.3592   -1.7589    0.2447 C   0  0  0  0  0  0  0  0  0  0  0  0
   -2.5556   -0.6802   -0.2703 C   0  0  0  0  0  0  0  0  0  0  0  0
    2.6863   -3.0439   -0.7601 C   0  0  0  0  0  0  0  0  0  0  0  0
    3.7120   -4.0559   -1.3005 C   0  0  0  0  0  0  0  0  0  0  0  0
    1.9122   -3.7193    0.3967 C   0  0  0  0  0  0  0  0  0  0  0  0
    1.7110   -2.6918   -1.9100 C   0  0  0  0  0  0  0  0  0  0  0  0
   -2.6863   -3.0439    0.7596 C   0  0  0  0  0  0  0  0  0  0  0  0
   -1.7108   -2.6922    1.9094 C   0  0  0  0  0  0  0  0  0  0  0  0
   -1.9125   -3.7190   -0.3975 C   0  0  0  0  0  0  0  0  0  0  0  0
   -3.7120   -4.0561    1.2999 C   0  0  0  0  0  0  0  0  0  0  0  0
    6.9140   -0.3191    0.1407 C   0  0  0  0  0  0  0  0  0  0  0  0
   -6.9141   -0.3186   -0.1393 C   0  0  0  0  0  0  0  0  0  0  0  0
    1.4619    4.5257    0.2646 C   0  0  0  0  0  0  0  0  0  0  0  0
    0.6154    5.7918    0.4577 C   0  0  0  0  0  0  0  0  0  0  0  0
   -0.6143    5.7918   -0.4586 C   0  0  0  0  0  0  0  0  0  0  0  0
   -1.4612    4.5261   -0.2651 C   0  0  0  0  0  0  0  0  0  0  0  0
    1.8392    2.0505   -0.6674 H   0  0  0  0  0  0  0  0  0  0  0  0
   -1.8388    2.0511    0.6678 H   0  0  0  0  0  0  0  0  0  0  0  0
    5.3787   -2.4063   -0.6432 H   0  0  0  0  0  0  0  0  0  0  0  0
    5.0855    1.5555    1.0304 H   0  0  0  0  0  0  0  0  0  0  0  0
    1.7841    1.2970    2.1662 H   0  0  0  0  0  0  0  0  0  0  0  0
    2.9783    2.4855    1.5268 H   0  0  0  0  0  0  0  0  0  0  0  0
    0.2482    3.2332    1.5148 H   0  0  0  0  0  0  0  0  0  0  0  0
   -0.2478    3.2328   -1.5150 H   0  0  0  0  0  0  0  0  0  0  0  0
   -1.7848    1.2976   -2.1659 H   0  0  0  0  0  0  0  0  0  0  0  0
   -2.9788    2.4861   -1.5259 H   0  0  0  0  0  0  0  0  0  0  0  0
   -5.0858    1.5561   -1.0289 H   0  0  0  0  0  0  0  0  0  0  0  0
   -5.3788   -2.4062    0.6436 H   0  0  0  0  0  0  0  0  0  0  0  0
    4.4266   -4.3848   -0.5184 H   0  0  0  0  0  0  0  0  0  0  0  0
    4.2942   -3.6461   -2.1513 H   0  0  0  0  0  0  0  0  0  0  0  0
    3.1803   -4.9583   -1.6644 H   0  0  0  0  0  0  0  0  0  0  0  0
    1.1412   -3.0396    0.8021 H   0  0  0  0  0  0  0  0  0  0  0  0
    2.6041   -4.0030    1.2163 H   0  0  0  0  0  0  0  0  0  0  0  0
    1.4109   -4.6414    0.0347 H   0  0  0  0  0  0  0  0  0  0  0  0
    0.9260   -1.9945   -1.5646 H   0  0  0  0  0  0  0  0  0  0  0  0
    1.2190   -3.6131   -2.2861 H   0  0  0  0  0  0  0  0  0  0  0  0
    2.2587   -2.2279   -2.7566 H   0  0  0  0  0  0  0  0  0  0  0  0
   -2.2583   -2.2285    2.7562 H   0  0  0  0  0  0  0  0  0  0  0  0
   -0.9259   -1.9949    1.5639 H   0  0  0  0  0  0  0  0  0  0  0  0
   -1.2188   -3.6136    2.2851 H   0  0  0  0  0  0  0  0  0  0  0  0
   -2.6046   -4.0025   -1.2171 H   0  0  0  0  0  0  0  0  0  0  0  0
   -1.4112   -4.6412   -0.0360 H   0  0  0  0  0  0  0  0  0  0  0  0
   -1.1415   -3.0393   -0.8029 H   0  0  0  0  0  0  0  0  0  0  0  0
   -4.4268   -4.3847    0.5179 H   0  0  0  0  0  0  0  0  0  0  0  0
   -4.2940   -3.6465    2.1510 H   0  0  0  0  0  0  0  0  0  0  0  0
   -3.1803   -4.9586    1.6635 H   0  0  0  0  0  0  0  0  0  0  0  0
    7.3038   -0.4866   -0.8860 H   0  0  0  0  0  0  0  0  0  0  0  0
    7.3994   -1.0782    0.7911 H   0  0  0  0  0  0  0  0  0  0  0  0
    7.2663    0.6771    0.4742 H   0  0  0  0  0  0  0  0  0  0  0  0
   -7.3037   -0.4861    0.8875 H   0  0  0  0  0  0  0  0  0  0  0  0
   -7.3998   -1.0778   -0.7894 H   0  0  0  0  0  0  0  0  0  0  0  0
   -7.2666    0.6775   -0.4728 H   0  0  0  0  0  0  0  0  0  0  0  0
    2.3238    4.5235    0.9620 H   0  0  0  0  0  0  0  0  0  0  0  0
    1.8838    4.5103   -0.7661 H   0  0  0  0  0  0  0  0  0  0  0  0
    0.2846    5.8507    1.5183 H   0  0  0  0  0  0  0  0  0  0  0  0
    1.2359    6.6927    0.2755 H   0  0  0  0  0  0  0  0  0  0  0  0
   -0.2835    5.8504   -1.5192 H   0  0  0  0  0  0  0  0  0  0  0  0
   -1.2345    6.6929   -0.2767 H   0  0  0  0  0  0  0  0  0  0  0  0
   -1.8831    4.5111    0.7655 H   0  0  0  0  0  0  0  0  0  0  0  0
   -2.3231    4.5239   -0.9625 H   0  0  0  0  0  0  0  0  0  0  0  0
  1 12  1  0  0  0  0
  1 11  1  0  0  0  0
  2 36  1  0  0  0  0
  4 20  1  0  0  0  0
  5  3  1  0  0  0  0
  5 10  1  0  0  0  0
  6  5  2  0  0  0  0
  7  6  1  0  0  0  0
  7  8  2  0  0  0  0
  8  9  1  0  0  0  0
  9 10  2  0  0  0  0
  9 38  1  0  0  0  0
 10 11  1  0  0  0  0
 11 40  1  0  0  0  0
 11 39  1  0  0  0  0
 12 41  1  1  0  0  0
 13 42  1  6  0  0  0
 13 34  1  0  0  0  0
 13  2  1  0  0  0  0
 13 12  1  0  0  0  0
 14 15  1  0  0  0  0
 14  2  1  0  0  0  0
 15 16  2  0  0  0  0
 15 20  1  0  0  0  0
 16 17  1  0  0  0  0
 17 30  1  0  0  0  0
 17 18  2  0  0  0  0
 18 46  1  0  0  0  0
 19 18  1  0  0  0  0
 19 25  1  0  0  0  0
 20 19  2  0  0  0  0
 21  6  1  0  0  0  0
 21 23  1  0  0  0  0
 22 21  1  0  0  0  0
 22 47  1  0  0  0  0
 23 50  1  0  0  0  0
 23 51  1  0  0  0  0
 24 53  1  0  0  0  0
 24 21  1  0  0  0  0
 25 28  1  0  0  0  0
 25 26  1  0  0  0  0
 26 58  1  0  0  0  0
 26 56  1  0  0  0  0
 27 60  1  0  0  0  0
 27 25  1  0  0  0  0
 28 64  1  0  0  0  0
 28 63  1  0  0  0  0
 29  8  1  0  0  0  0
 29 67  1  0  0  0  0
 29 66  1  0  0  0  0
 30 68  1  0  0  0  0
 31 32  1  0  0  0  0
 31 12  1  0  0  0  0
 31 71  1  0  0  0  0
 32 73  1  0  0  0  0
 33 76  1  0  0  0  0
 33 34  1  0  0  0  0
 33 32  1  0  0  0  0
 34 77  1  0  0  0  0
 35  1  1  0  0  0  0
 37  7  1  0  0  0  0
 43 14  1  0  0  0  0
 44 14  1  0  0  0  0
 45 16  1  0  0  0  0
 48 22  1  0  0  0  0
 49 22  1  0  0  0  0
 52 23  1  0  0  0  0
 54 24  1  0  0  0  0
 55 24  1  0  0  0  0
 57 26  1  0  0  0  0
 59 27  1  0  0  0  0
 61 27  1  0  0  0  0
 62 28  1  0  0  0  0
 65 29  1  0  0  0  0
 69 30  1  0  0  0  0
 70 30  1  0  0  0  0
 72 31  1  0  0  0  0
 74 32  1  0  0  0  0
 75 33  1  0  0  0  0
 78 34  1  0  0  0  0
M  CHG  2   3  -1   4  -1
M  END
