3,4,5,6
q = -2.0, confidence = 0.85

 44 46  0  0  1  0  0  0  0  0999 V2000
   -6.9603   -1.6867    0.0881 Cl  0  0  0  0  0  0  0  0  0  0  0  0
    7.3105   -1.0535   -0.0402 Cl  0  0  0  0  0  0  0  0  0  0  0  0
   -1.2027    1.0848   -0.5567 N   0  0  0  0  0  2  0  0  0  0  0  0
    1.3155    1.2406   -0.2185 N   0  0  0  0  0  2  0  0  0  0  0  0
   -1.0605   -1.5781    0.0504 O   0  5  0  0  0  0  0  0  0  0  0  0
    1.4238   -1.4425    0.1443 O   0  5  0  0  0  0  0  0  0  0  0  0
   -3.1385   -0.3647   -0.2349 C   0  0  0  0  0  0  0  0  0  0  0  0
   -2.3561   -1.5452    0.0517 C   0  0  0  0  0  0  0  0  0  0  0  0
   -3.0761   -2.7500    0.3413 C   0  0  0  0  0  0  0  0  0  0  0  0
   -2.4819   -3.6494    0.5566 H   0  0  0  0  0  0  0  0  0  0  0  0
   -4.4625   -2.7852    0.3523 C   0  0  0  0  0  0  0  0  0  0  0  0
   -4.9955   -3.7201    0.5791 H   0  0  0  0  0  0  0  0  0  0  0  0
   -5.2128   -1.6142    0.0690 C   0  0  0  0  0  0  0  0  0  0  0  0
   -4.5614   -0.4250   -0.2226 C   0  0  0  0  0  3  0  0  0  0  0  0
   -5.1457    0.4802   -0.4461 H   0  0  0  0  0  0  0  0  0  0  0  0
   -2.4981    0.8699   -0.5591 C   0  0  0  0  0  0  0  0  0  0  0  0
   -3.1631    1.7053   -0.8456 H   0  0  0  0  0  0  0  0  0  0  0  0
   -0.6349    2.3720   -1.0201 C   0  0  1  0  0  0  0  0  0  0  0  0
   -0.3413    2.2176   -2.0829 H   0  0  0  0  0  0  0  0  0  0  0  0
   -1.5387    3.6096   -0.9297 C   0  0  0  0  0  0  0  0  0  0  0  0
   -1.0093    4.4257   -1.4675 H   0  0  0  0  0  0  0  0  0  0  0  0
   -2.4780    3.4522   -1.4986 H   0  0  0  0  0  0  0  0  0  0  0  0
   -1.8147    4.0516    0.5126 C   0  0  0  0  0  0  0  0  0  0  0  0
   -2.4218    4.9798    0.5110 H   0  0  0  0  0  0  0  0  0  0  0  0
   -2.4211    3.2814    1.0365 H   0  0  0  0  0  0  0  0  0  0  0  0
   -0.5010    4.2649    1.2742 C   0  0  0  0  0  0  0  0  0  0  0  0
   -0.7020    4.5522    2.3264 H   0  0  0  0  0  0  0  0  0  0  0  0
    0.0552    5.1151    0.8189 H   0  0  0  0  0  0  0  0  0  0  0  0
    0.3659    3.0026    1.2360 C   0  0  0  0  0  0  0  0  0  0  0  0
    1.3293    3.1549    1.7648 H   0  0  0  0  0  0  0  0  0  0  0  0
   -0.1530    2.1678    1.7549 H   0  0  0  0  0  0  0  0  0  0  0  0
    0.6555    2.5487   -0.2063 C   0  0  1  0  0  0  0  0  0  0  0  0
    1.3028    3.3045   -0.7060 H   0  0  0  0  0  0  0  0  0  0  0  0
    3.3856   -0.0314   -0.0830 C   0  0  0  0  0  0  0  0  0  0  0  0
    2.7116   -1.2990    0.0922 C   0  0  0  0  0  0  0  0  0  0  0  0
    3.5385   -2.4616    0.2259 C   0  0  0  0  0  0  0  0  0  0  0  0
    3.0288   -3.4259    0.3620 H   0  0  0  0  0  0  0  0  0  0  0  0
    4.9225   -2.3806    0.1832 C   0  0  0  0  0  0  0  0  0  0  0  0
    5.5380   -3.2862    0.2852 H   0  0  0  0  0  0  0  0  0  0  0  0
    5.5637   -1.1265    0.0081 C   0  0  0  0  0  0  0  0  0  0  0  0
    4.8077    0.0293   -0.1205 C   0  0  0  0  0  3  0  0  0  0  0  0
    5.3072    1.0007   -0.2517 H   0  0  0  0  0  0  0  0  0  0  0  0
    2.6275    1.1725   -0.1919 C   0  0  0  0  0  0  0  0  0  0  0  0
    3.1888    2.1267   -0.2501 H   0  0  0  0  0  0  0  0  0  0  0  0
  2 40  1  0  0  0  0
  4 32  1  0  0  0  0
  4 43  1  0  0  0  0
  5  8  1  0  0  0  0
  7 14  1  0  0  0  0
  7  8  1  0  0  0  0
  8  9  2  0  0  0  0
  9 11  1  0  0  0  0
  9 10  1  0  0  0  0
 11 12  1  0  0  0  0
 13  1  1  0  0  0  0
 13 11  2  0  0  0  0
 14 13  1  0  0  0  0
 15 14  1  0  0  0  0
 16  3  1  0  0  0  0
 16  7  2  0  0  0  0
 17 16  1  0  0  0  0
 18 19  1  6  0  0  0
 18 20  1  0  0  0  0
 18  3  1  0  0  0  0
 18 32  1  0  0  0  0
 20 23  1  0  0  0  0
 21 20  1  0  0  0  0
 22 20  1  0  0  0  0
 23 25  1  0  0  0  0
 23 26  1  0  0  0  0
 24 23  1  0  0  0  0
 26 27  1  0  0  0  0
 28 26  1  0  0  0  0
 29 26  1  0  0  0  0
 29 31  1  0  0  0  0
 29 30  1  0  0  0  0
 32 33  1  6  0  0  0
 32 29  1  0  0  0  0
 34 35  1  0  0  0  0
 35  6  1  0  0  0  0
 35 36  2  0  0  0  0
 36 37  1  0  0  0  0
 38 36  1  0  0  0  0
 38 39  1  0  0  0  0
 40 38  2  0  0  0  0
 41 34  1  0  0  0  0
 41 40  1  0  0  0  0
 42 41  1  0  0  0  0
 43 34  2  0  0  0  0
 44 43  1  0  0  0  0
M  CHG  2   5  -1   6  -1
M  END
