1,2,3,4
q = -2.0, confidence = 0.864

 40 41  0  0  0  0  0  0  0  0999 V2000
    1.2534    1.2283   -0.0343 N   0  0  0  0  0  2  0  0  0  0  0  0
   -1.2687    1.3356   -0.3408 N   0  0  0  0  0  2  0  0  0  0  0  0
    1.0691   -1.5015    0.0345 O   0  5  0  0  0  0  0  0  0  0  0  0
   -1.4142   -1.3549   -0.0523 O   0  5  0  0  0  0  0  0  0  0  0  0
    2.5464    0.9953    0.0003 C   0  0  0  0  0  0  0  0  0  0  0  0
   -2.5815    1.2845   -0.3074 C   0  0  0  0  0  0  0  0  0  0  0  0
    0.7307    2.6174    0.1253 C   0  0  0  0  0  0  0  0  0  0  0  0
   -0.5917    2.5872   -0.6545 C   0  0  0  0  0  0  0  0  0  0  0  0
    1.6504    3.6992   -0.4532 C   0  0  0  0  0  0  0  0  0  0  0  0
    0.4699    2.8648    1.6219 C   0  0  0  0  0  0  0  0  0  0  0  0
    2.3655   -1.4929    0.0083 C   0  0  0  0  0  0  0  0  0  0  0  0
    3.0632   -2.7441    0.0158 C   0  0  0  0  0  0  0  0  0  0  0  0
    4.4505   -2.7953   -0.0035 C   0  0  0  0  0  0  0  0  0  0  0  0
    5.2328   -1.6108   -0.0273 C   0  0  0  0  0  0  0  0  0  0  0  0
    4.5888   -0.3820   -0.0310 C   0  0  0  0  0  3  0  0  0  0  0  0
    3.1669   -0.2894   -0.0164 C   0  0  0  0  0  0  0  0  0  0  0  0
   -2.6992   -1.1838   -0.0056 C   0  0  0  0  0  0  0  0  0  0  0  0
   -3.5404   -2.3326    0.1533 C   0  0  0  0  0  0  0  0  0  0  0  0
   -4.9225   -2.2121    0.2096 C   0  0  0  0  0  0  0  0  0  0  0  0
   -5.5589   -0.9471    0.1068 C   0  0  0  0  0  0  0  0  0  0  0  0
   -4.7756    0.1866   -0.0546 C   0  0  0  0  0  3  0  0  0  0  0  0
   -3.3546    0.1025   -0.1132 C   0  0  0  0  0  0  0  0  0  0  0  0
    3.2282    1.8643    0.0557 H   0  0  0  0  0  0  0  0  0  0  0  0
    5.1737    0.5524   -0.0457 H   0  0  0  0  0  0  0  0  0  0  0  0
    6.3306   -1.6690   -0.0404 H   0  0  0  0  0  0  0  0  0  0  0  0
    4.9521   -3.7761    0.0012 H   0  0  0  0  0  0  0  0  0  0  0  0
    2.4499   -3.6562    0.0365 H   0  0  0  0  0  0  0  0  0  0  0  0
    2.5663    3.8383    0.1534 H   0  0  0  0  0  0  0  0  0  0  0  0
    1.1184    4.6712   -0.4575 H   0  0  0  0  0  0  0  0  0  0  0  0
    1.9469    3.4621   -1.4944 H   0  0  0  0  0  0  0  0  0  0  0  0
    1.4156    2.7901    2.1942 H   0  0  0  0  0  0  0  0  0  0  0  0
   -0.2348    2.1092    2.0207 H   0  0  0  0  0  0  0  0  0  0  0  0
    0.0404    3.8742    1.7826 H   0  0  0  0  0  0  0  0  0  0  0  0
   -3.1323    2.2354   -0.4552 H   0  0  0  0  0  0  0  0  0  0  0  0
   -5.2453    1.1800   -0.1426 H   0  0  0  0  0  0  0  0  0  0  0  0
   -6.6546   -0.8702    0.1518 H   0  0  0  0  0  0  0  0  0  0  0  0
   -5.5358   -3.1184    0.3358 H   0  0  0  0  0  0  0  0  0  0  0  0
   -3.0405   -3.3086    0.2311 H   0  0  0  0  0  0  0  0  0  0  0  0
   -1.2259    3.4669   -0.4100 H   0  0  0  0  0  0  0  0  0  0  0  0
   -0.3683    2.6176   -1.7445 H   0  0  0  0  0  0  0  0  0  0  0  0
  1  5  1  0  0  0  0
  1  7  1  0  0  0  0
  2  6  1  0  0  0  0
  4 17  1  0  0  0  0
  5 23  1  0  0  0  0
  6 22  2  0  0  0  0
  7 10  1  0  0  0  0
  8 39  1  0  0  0  0
  8  2  1  0  0  0  0
  8  7  1  0  0  0  0
  9  7  1  0  0  0  0
  9 28  1  0  0  0  0
 10 33  1  0  0  0  0
 10 32  1  0  0  0  0
 10 31  1  0  0  0  0
 11 12  2  0  0  0  0
 11  3  1  0  0  0  0
 12 27  1  0  0  0  0
 13 26  1  0  0  0  0
 13 12  1  0  0  0  0
 14 13  2  0  0  0  0
 15 14  1  0  0  0  0
 15 16  1  0  0  0  0
 16  5  2  0  0  0  0
 16 11  1  0  0  0  0
 17 18  2  0  0  0  0
 18 19  1  0  0  0  0
 18 38  1  0  0  0  0
 19 37  1  0  0  0  0
 20 36  1  0  0  0  0
 20 19  2  0  0  0  0
 21 20  1  0  0  0  0
 22 21  1  0  0  0  0
 22 17  1  0  0  0  0
 24 15  1  0  0  0  0
 25 14  1  0  0  0  0
 29  9  1  0  0  0  0
 30  9  1  0  0  0  0
 34  6  1  0  0  0  0
 35 21  1  0  0  0  0
 40  8  1  0  0  0  0
M  CHG  2   3  -1   4  -1
M  END
