2,18,36,52
q = nan, confidence = 0.0

 52 52  0  0  1  0  0  0  0  0999 V2000
   -2.4788    1.5524   -0.0386 C   0  0  0  0  0  0  0  0  0  0  0  0
   -2.0793    0.2498   -0.1495 O   0  0  0  0  0  1  0  0  0  0  0  0
   -3.6167    1.6623    1.0231 C   0  0  0  0  0  0  0  0  0  0  0  0
   -3.0135    2.0186   -1.4315 C   0  0  0  0  0  0  0  0  0  0  0  0
   -1.2700    2.4800    0.3367 C   0  0  0  0  0  0  0  0  0  0  0  0
   -1.0289    3.1133   -0.5351 H   0  0  0  0  0  0  0  0  0  0  0  0
   -1.5462    3.1706    1.1598 H   0  0  0  0  0  0  0  0  0  0  0  0
   -4.0497    1.2880   -1.8638 F   0  0  0  0  0  0  0  0  0  0  0  0
   -2.0147    1.8899   -2.3546 F   0  0  0  0  0  0  0  0  0  0  0  0
   -3.3779    3.3194   -1.4277 F   0  0  0  0  0  0  0  0  0  0  0  0
   -4.6706    0.8954    0.7052 F   0  0  0  0  0  0  0  0  0  0  0  0
   -3.1698    1.2641    2.2352 F   0  0  0  0  0  0  0  0  0  0  0  0
   -4.0447    2.9418    1.1522 F   0  0  0  0  0  0  0  0  0  0  0  0
   -0.0767    1.3355    2.1267 C   0  0  0  0  0  0  0  0  0  0  0  0
    0.8131    0.7229    2.3566 H   0  0  0  0  0  0  0  0  0  0  0  0
   -0.9751    0.7468    2.3765 H   0  0  0  0  0  0  0  0  0  0  0  0
   -0.0780    2.2476    2.7614 H   0  0  0  0  0  0  0  0  0  0  0  0
   -0.0755    1.6809    0.6831 N   0  0  0  0  0  0  0  0  0  0  0  0
    1.2083    2.3758    0.3343 C   0  0  2  0  0  0  0  0  0  0  0  0
    1.9836    1.7931    0.8584 H   0  0  0  0  0  0  0  0  0  0  0  0
    1.2558    3.8278    0.8576 C   0  0  0  0  0  0  0  0  0  0  0  0
    0.4265    4.4151    0.4078 H   0  0  0  0  0  0  0  0  0  0  0  0
    1.0829    3.8259    1.9525 H   0  0  0  0  0  0  0  0  0  0  0  0
    2.5684    4.5387    0.5242 C   0  0  0  0  0  0  0  0  0  0  0  0
    2.5506    5.5718    0.9277 H   0  0  0  0  0  0  0  0  0  0  0  0
    3.4172    4.0177    1.0183 H   0  0  0  0  0  0  0  0  0  0  0  0
    2.7814    4.5423   -0.9896 C   0  0  0  0  0  0  0  0  0  0  0  0
    3.7299    5.0505   -1.2589 H   0  0  0  0  0  0  0  0  0  0  0  0
    1.9645    5.1177   -1.4797 H   0  0  0  0  0  0  0  0  0  0  0  0
    2.8008    3.1044   -1.5121 C   0  0  0  0  0  0  0  0  0  0  0  0
    3.6698    2.5941   -1.0516 H   0  0  0  0  0  0  0  0  0  0  0  0
    2.9624    3.0924   -2.6093 H   0  0  0  0  0  0  0  0  0  0  0  0
    1.5135    2.3214   -1.1751 C   0  0  1  0  0  0  0  0  0  0  0  0
    0.6751    2.8406   -1.6883 H   0  0  0  0  0  0  0  0  0  0  0  0
    2.8352   -0.6752   -0.3140 C   0  0  0  0  0  0  0  0  0  0  0  0
    1.6942   -0.5678    0.4234 O   0  0  0  0  0  1  0  0  0  0  0  0
    3.0382   -2.1808   -0.7033 C   0  0  0  0  0  0  0  0  0  0  0  0
    4.0649   -0.2253    0.5368 C   0  0  0  0  0  0  0  0  0  0  0  0
    2.7479    0.1524   -1.6529 C   0  0  0  0  0  0  0  0  0  0  0  0
    3.6547    0.7758   -1.7875 H   0  0  0  0  0  0  0  0  0  0  0  0
    2.7517   -0.5560   -2.4999 H   0  0  0  0  0  0  0  0  0  0  0  0
    1.8956   -2.6144   -1.3153 F   0  0  0  0  0  0  0  0  0  0  0  0
    3.2436   -2.9706    0.3606 F   0  0  0  0  0  0  0  0  0  0  0  0
    4.0490   -2.3722   -1.5774 F   0  0  0  0  0  0  0  0  0  0  0  0
    4.1146   -0.8474    1.7217 F   0  0  0  0  0  0  0  0  0  0  0  0
    5.2273   -0.4497   -0.1176 F   0  0  0  0  0  0  0  0  0  0  0  0
    4.0170    1.1151    0.7932 F   0  0  0  0  0  0  0  0  0  0  0  0
    1.1415    1.0604   -3.1987 C   0  0  0  0  0  0  0  0  0  0  0  0
    0.1394    1.5150   -3.2935 H   0  0  0  0  0  0  0  0  0  0  0  0
    1.1094    0.0644   -3.6714 H   0  0  0  0  0  0  0  0  0  0  0  0
    1.8721    1.6868   -3.7589 H   0  0  0  0  0  0  0  0  0  0  0  0
    1.4937    0.9313   -1.7673 N   0  0  0  0  0  0  0  0  0  0  0  0
  1  5  1  0  0  0  0
  1  3  1  0  0  0  0
  2  1  1  0  0  0  0
  3 13  1  0  0  0  0
  3 12  1  0  0  0  0
  4 10  1  0  0  0  0
  4  1  1  0  0  0  0
  5 18  1  0  0  0  0
  5  7  1  0  0  0  0
  6  5  1  0  0  0  0
  8  4  1  0  0  0  0
  9  4  1  0  0  0  0
 11  3  1  0  0  0  0
 14 15  1  0  0  0  0
 14 16  1  0  0  0  0
 14 17  1  0  0  0  0
 18 14  1  0  0  0  0
 19 18  1  0  0  0  0
 19 21  1  0  0  0  0
 19 20  1  1  0  0  0
 21 23  1  0  0  0  0
 22 21  1  0  0  0  0
 24 21  1  0  0  0  0
 24 25  1  0  0  0  0
 24 26  1  0  0  0  0
 27 24  1  0  0  0  0
 28 27  1  0  0  0  0
 29 27  1  0  0  0  0
 30 33  1  0  0  0  0
 30 31  1  0  0  0  0
 30 27  1  0  0  0  0
 32 30  1  0  0  0  0
 33 34  1  6  0  0  0
 33 19  1  0  0  0  0
 35 36  1  0  0  0  0
 35 38  1  0  0  0  0
 37 35  1  0  0  0  0
 37 43  1  0  0  0  0
 38 47  1  0  0  0  0
 38 45  1  0  0  0  0
 39 35  1  0  0  0  0
 40 39  1  0  0  0  0
 41 39  1  0  0  0  0
 42 37  1  0  0  0  0
 44 37  1  0  0  0  0
 46 38  1  0  0  0  0
 48 52  1  0  0  0  0
 49 48  1  0  0  0  0
 50 48  1  0  0  0  0
 51 48  1  0  0  0  0
 52 39  1  0  0  0  0
 52 33  1  0  0  0  0
M  END
