1,2,3,4
q = -2.0, confidence = 0.844

 43 44  0  0  1  0  0  0  0  0999 V2000
   -1.3768    1.8451    0.1681 N   0  0  0  0  0  2  0  0  0  0  0  0
    1.1869    2.0862   -0.1289 N   0  0  0  0  0  2  0  0  0  0  0  0
   -1.1879   -0.7771   -0.7836 O   0  5  0  0  0  0  0  0  0  0  0  0
    1.3949   -0.4988   -0.9736 O   0  5  0  0  0  0  0  0  0  0  0  0
   -3.2258    0.2471    0.0474 C   0  0  0  0  0  0  0  0  0  0  0  0
   -2.4496   -0.8623   -0.4412 C   0  0  0  0  0  0  0  0  0  0  0  0
   -3.0866   -2.1410   -0.5916 C   0  0  0  0  0  0  0  0  0  0  0  0
   -4.4475   -2.2582   -0.3045 C   0  0  0  0  0  0  0  0  0  0  0  0
   -4.9243   -3.2451   -0.4208 H   0  0  0  0  0  0  0  0  0  0  0  0
   -5.2231   -1.1619    0.1437 C   0  0  0  0  0  0  0  0  0  0  0  0
   -6.2921   -1.2943    0.3636 H   0  0  0  0  0  0  0  0  0  0  0  0
   -4.6122    0.0712    0.3213 C   0  0  0  0  0  0  0  0  0  0  0  0
   -5.1896    0.9334    0.6920 H   0  0  0  0  0  0  0  0  0  0  0  0
   -2.2375   -3.3003   -1.0284 C   0  0  0  0  0  0  0  0  0  0  0  0
   -2.8314   -4.2305   -1.1093 H   0  0  0  0  0  0  0  0  0  0  0  0
   -1.4097   -3.4606   -0.3056 H   0  0  0  0  0  0  0  0  0  0  0  0
   -1.7508   -3.0993   -2.0055 H   0  0  0  0  0  0  0  0  0  0  0  0
   -2.6366    1.5297    0.3046 C   0  0  0  0  0  3  0  0  0  0  0  0
   -3.3283    2.3067    0.6834 H   0  0  0  0  0  0  0  0  0  0  0  0
   -0.8324    3.1192    0.6770 C   0  0  1  0  0  0  0  0  0  0  0  0
   -0.5577    2.9261    1.7399 H   0  0  0  0  0  0  0  0  0  0  0  0
    0.4740    3.3498   -0.0913 C   0  0  0  0  0  0  0  0  0  0  0  0
    0.2311    3.6590   -1.1332 H   0  0  0  0  0  0  0  0  0  0  0  0
    1.0841    4.1514    0.3779 H   0  0  0  0  0  0  0  0  0  0  0  0
   -1.7729    4.3178    0.5924 C   0  0  0  0  0  0  0  0  0  0  0  0
   -2.1275    4.4728   -0.4470 H   0  0  0  0  0  0  0  0  0  0  0  0
   -1.2418    5.2338    0.9181 H   0  0  0  0  0  0  0  0  0  0  0  0
   -2.6552    4.2071    1.2515 H   0  0  0  0  0  0  0  0  0  0  0  0
    2.4751    1.9931    0.0502 C   0  0  0  0  0  3  0  0  0  0  0  0
    3.0332    2.9256    0.2748 H   0  0  0  0  0  0  0  0  0  0  0  0
    3.2308    0.7759   -0.0290 C   0  0  0  0  0  0  0  0  0  0  0  0
    2.6298   -0.4328   -0.5315 C   0  0  0  0  0  0  0  0  0  0  0  0
    3.4237   -1.6257   -0.5901 C   0  0  0  0  0  0  0  0  0  0  0  0
    4.7605   -1.5694   -0.1877 C   0  0  0  0  0  0  0  0  0  0  0  0
    5.3588   -2.4941   -0.2290 H   0  0  0  0  0  0  0  0  0  0  0  0
    5.3606   -0.3772    0.2815 C   0  0  0  0  0  0  0  0  0  0  0  0
    6.4154   -0.3750    0.5915 H   0  0  0  0  0  0  0  0  0  0  0  0
    4.5990    0.7815    0.3575 C   0  0  0  0  0  0  0  0  0  0  0  0
    5.0408    1.7196    0.7299 H   0  0  0  0  0  0  0  0  0  0  0  0
    2.7623   -2.8919   -1.0542 C   0  0  0  0  0  0  0  0  0  0  0  0
    2.3285   -2.7731   -2.0686 H   0  0  0  0  0  0  0  0  0  0  0  0
    1.9133   -3.1440   -0.3843 H   0  0  0  0  0  0  0  0  0  0  0  0
    3.4740   -3.7392   -1.0664 H   0  0  0  0  0  0  0  0  0  0  0  0
  1 18  1  0  0  0  0
  1 20  1  0  0  0  0
  2 22  1  0  0  0  0
  2 29  1  0  0  0  0
  3  6  1  0  0  0  0
  4 32  1  0  0  0  0
  5 18  1  0  0  0  0
  5 12  1  0  0  0  0
  6  5  2  0  0  0  0
  7  6  1  0  0  0  0
  7  8  2  0  0  0  0
  8 10  1  0  0  0  0
  9  8  1  0  0  0  0
 10 12  2  0  0  0  0
 10 11  1  0  0  0  0
 12 13  1  0  0  0  0
 14  7  1  0  0  0  0
 14 16  1  0  0  0  0
 15 14  1  0  0  0  0
 17 14  1  0  0  0  0
 18 19  1  0  0  0  0
 20 21  1  1  0  0  0
 22 24  1  0  0  0  0
 22 20  1  0  0  0  0
 23 22  1  0  0  0  0
 25 20  1  0  0  0  0
 25 27  1  0  0  0  0
 25 28  1  0  0  0  0
 26 25  1  0  0  0  0
 29 30  1  0  0  0  0
 31 29  1  0  0  0  0
 31 38  1  0  0  0  0
 32 31  2  0  0  0  0
 33 32  1  0  0  0  0
 33 34  2  0  0  0  0
 34 36  1  0  0  0  0
 35 34  1  0  0  0  0
 36 38  2  0  0  0  0
 36 37  1  0  0  0  0
 38 39  1  0  0  0  0
 40 33  1  0  0  0  0
 40 42  1  0  0  0  0
 41 40  1  0  0  0  0
 43 40  1  0  0  0  0
M  CHG  2   3  -1   4  -1
M  END
