1,19,32,50
q = -2.0, confidence = 0.874

 52 56  0  0  1  0  0  0  0  0999 V2000
   -1.2654    2.2342    0.0994 N   0  0  0  0  0  2  0  0  0  0  0  0
   -2.5661    2.0303    0.2830 C   0  0  0  0  0  0  0  0  0  0  0  0
   -3.1972    2.9206    0.4540 H   0  0  0  0  0  0  0  0  0  0  0  0
   -2.5484   -0.4403    0.0041 C   0  0  0  0  0  0  0  0  0  0  0  0
   -3.2422    0.7890    0.2659 C   0  0  0  0  0  0  0  0  0  0  0  0
   -4.6665    0.7558    0.4762 C   0  0  0  0  0  0  0  0  0  0  0  0
   -5.1793    1.7051    0.6973 H   0  0  0  0  0  0  0  0  0  0  0  0
   -5.3764   -0.4145    0.4021 C   0  0  0  0  0  0  0  0  0  0  0  0
   -6.4633   -0.4216    0.5709 H   0  0  0  0  0  0  0  0  0  0  0  0
   -5.4508   -2.8641   -0.0353 C   0  0  0  0  0  0  0  0  0  0  0  0
   -6.5368   -2.8538    0.1387 H   0  0  0  0  0  0  0  0  0  0  0  0
   -4.7936   -4.0512   -0.3729 C   0  0  0  0  0  0  0  0  0  0  0  0
   -5.3684   -4.9861   -0.4609 H   0  0  0  0  0  0  0  0  0  0  0  0
   -3.4110   -4.0752   -0.6108 C   0  0  0  0  0  0  0  0  0  0  0  0
   -2.8874   -5.0007   -0.8880 H   0  0  0  0  0  0  0  0  0  0  0  0
   -2.6507   -2.8971   -0.5024 C   0  0  2  0  0  3  0  0  0  0  0  0
   -3.3006   -1.6645   -0.1374 C   0  0  0  0  0  0  0  0  0  0  0  0
   -4.7250   -1.6567    0.0811 C   0  0  0  0  0  0  0  0  0  0  0  0
   -1.2450   -0.4914   -0.1196 O   0  5  0  0  0  0  0  0  0  0  0  0
   -1.3397   -2.9585   -0.7660 O   0  0  0  0  0  0  0  0  0  0  0  0
   -0.9780   -2.0373   -0.6185 H   0  0  0  0  0  0  0  0  0  0  0  0
   -0.7085    3.5274    0.0471 C   0  0  0  0  0  0  0  0  0  0  0  0
   -1.4101    4.7492    0.0737 C   0  0  0  0  0  0  0  0  0  0  0  0
   -2.5075    4.7667    0.1188 H   0  0  0  0  0  0  0  0  0  0  0  0
   -0.7031    5.9567    0.0345 C   0  0  0  0  0  0  0  0  0  0  0  0
   -1.2540    6.9084    0.0577 H   0  0  0  0  0  0  0  0  0  0  0  0
    0.7028    5.9567   -0.0337 C   0  0  0  0  0  0  0  0  0  0  0  0
    1.2536    6.9084   -0.0566 H   0  0  0  0  0  0  0  0  0  0  0  0
    1.4098    4.7492   -0.0731 C   0  0  0  0  0  0  0  0  0  0  0  0
    2.5072    4.7668   -0.1182 H   0  0  0  0  0  0  0  0  0  0  0  0
    0.7082    3.5274   -0.0468 C   0  0  0  0  0  0  0  0  0  0  0  0
    1.2651    2.2343   -0.0994 N   0  0  0  0  0  2  0  0  0  0  0  0
    2.5658    2.0305   -0.2836 C   0  0  0  0  0  0  0  0  0  0  0  0
    3.1967    2.9208   -0.4551 H   0  0  0  0  0  0  0  0  0  0  0  0
    2.5484   -0.4401   -0.0042 C   0  0  0  0  0  0  0  0  0  0  0  0
    3.2419    0.7892   -0.2666 C   0  0  0  0  0  0  0  0  0  0  0  0
    4.6662    0.7560   -0.4777 C   0  0  0  0  0  3  0  0  0  0  0  0
    5.1788    1.7053   -0.6993 H   0  0  0  0  0  0  0  0  0  0  0  0
    5.3762   -0.4142   -0.4036 C   0  0  0  0  0  0  0  0  0  0  0  0
    6.4630   -0.4213   -0.5730 H   0  0  0  0  0  0  0  0  0  0  0  0
    5.4510   -2.8636    0.0346 C   0  0  0  0  0  0  0  0  0  0  0  0
    6.5369   -2.8533   -0.1399 H   0  0  0  0  0  0  0  0  0  0  0  0
    4.7941   -4.0507    0.3729 C   0  0  0  0  0  0  0  0  0  0  0  0
    5.3690   -4.9855    0.4609 H   0  0  0  0  0  0  0  0  0  0  0  0
    3.4116   -4.0747    0.6115 C   0  0  0  0  0  0  0  0  0  0  0  0
    2.8882   -5.0002    0.8893 H   0  0  0  0  0  0  0  0  0  0  0  0
    2.6512   -2.8967    0.5031 C   0  0  0  0  0  0  0  0  0  0  0  0
    3.3008   -1.6642    0.1373 C   0  0  0  0  0  0  0  0  0  0  0  0
    4.7250   -1.6564   -0.0819 C   0  0  0  0  0  0  0  0  0  0  0  0
    1.2450   -0.4912    0.1202 O   0  5  0  0  0  0  0  0  0  0  0  0
    1.3402   -2.9581    0.7674 O   0  0  0  0  0  0  0  0  0  0  0  0
    0.9784   -2.0370    0.6197 H   0  0  0  0  0  0  0  0  0  0  0  0
  1  2  1  0  0  0  0
  2  3  1  0  0  0  0
  4  5  1  0  0  0  0
  5  2  2  0  0  0  0
  5  6  1  0  0  0  0
  6  7  1  0  0  0  0
  8  6  2  0  0  0  0
  8  9  1  0  0  0  0
 10 18  2  0  0  0  0
 10 11  1  0  0  0  0
 12 10  1  0  0  0  0
 13 12  1  0  0  0  0
 14 16  1  0  0  0  0
 14 12  2  0  0  0  0
 15 14  1  0  0  0  0
 16 20  1  6  0  0  0
 16 17  1  0  0  0  0
 17  4  2  0  0  0  0
 17 18  1  0  0  0  0
 18  8  1  0  0  0  0
 19  4  1  0  0  0  0
 20 21  1  0  0  0  0
 22 23  1  0  0  0  0
 22  1  1  0  0  0  0
 23 24  1  0  0  0  0
 25 26  1  0  0  0  0
 25 23  2  0  0  0  0
 27 25  1  0  0  0  0
 28 27  1  0  0  0  0
 29 31  1  0  0  0  0
 29 27  2  0  0  0  0
 30 29  1  0  0  0  0
 31 22  2  0  0  0  0
 32 31  1  0  0  0  0
 33 36  2  0  0  0  0
 33 32  1  0  0  0  0
 34 33  1  0  0  0  0
 35 50  1  0  0  0  0
 35 48  2  0  0  0  0
 36 35  1  0  0  0  0
 37 39  1  0  0  0  0
 37 36  1  0  0  0  0
 38 37  1  0  0  0  0
 39 49  2  0  0  0  0
 40 39  1  0  0  0  0
 41 43  2  0  0  0  0
 42 41  1  0  0  0  0
 43 44  1  0  0  0  0
 43 45  1  0  0  0  0
 45 46  1  0  0  0  0
 47 45  2  0  0  0  0
 47 51  1  0  0  0  0
 48 47  1  0  0  0  0
 49 41  1  0  0  0  0
 49 48  1  0  0  0  0
 52 51  1  0  0  0  0
M  CHG  2  19  -1  50  -1
M  END
