1,2,7,8
q = -2.0, confidence = 0.868

 50 50  0  0  0  0  0  0  0  0999 V2000
   -0.9963   -1.9808    0.2977 O   0  5  0  0  0  0  0  0  0  0  0  0
    1.5986   -1.5033    0.3061 O   0  5  0  0  0  0  0  0  0  0  0  0
   -5.2048   -2.3271    0.1529 O   0  0  0  0  0  0  0  0  0  0  0  0
   -5.3444   -0.0904   -0.1583 O   0  0  0  0  0  0  0  0  0  0  0  0
    5.0771    1.7289   -0.3147 O   0  0  0  0  0  0  0  0  0  0  0  0
    5.6167   -0.4452   -0.0276 O   0  0  0  0  0  0  0  0  0  0  0  0
   -1.4633    0.7477   -0.0860 N   0  0  0  0  0  2  0  0  0  0  0  0
    1.0743    1.2065   -0.0898 N   0  0  0  0  0  2  0  0  0  0  0  0
   -2.2618   -2.1226    0.2453 C   0  0  0  0  0  0  0  0  0  0  0  0
   -3.1707   -1.0123    0.0679 C   0  0  0  0  0  0  0  0  0  0  0  0
   -2.7217    0.3326   -0.0906 C   0  0  0  0  0  3  0  0  0  0  0  0
   -3.5202    1.0808   -0.2195 H   0  0  0  0  0  0  0  0  0  0  0  0
   -1.1249    2.1095   -0.2157 C   0  0  0  0  0  0  0  0  0  0  0  0
   -2.0243    3.1895   -0.3441 C   0  0  0  0  0  0  0  0  0  0  0  0
   -3.1086    3.0092   -0.3423 H   0  0  0  0  0  0  0  0  0  0  0  0
   -1.5441    4.4993   -0.4685 C   0  0  0  0  0  0  0  0  0  0  0  0
   -2.2561    5.3330   -0.5640 H   0  0  0  0  0  0  0  0  0  0  0  0
   -0.1585    4.7492   -0.4646 C   0  0  0  0  0  0  0  0  0  0  0  0
    0.2179    5.7792   -0.5560 H   0  0  0  0  0  0  0  0  0  0  0  0
    0.7486    3.6899   -0.3377 C   0  0  0  0  0  0  0  0  0  0  0  0
    1.8277    3.8973   -0.3276 H   0  0  0  0  0  0  0  0  0  0  0  0
    0.2819    2.3638   -0.2146 C   0  0  0  0  0  0  0  0  0  0  0  0
    2.3963    1.2485   -0.1396 C   0  0  0  0  0  3  0  0  0  0  0  0
    2.9025    2.2182   -0.2940 H   0  0  0  0  0  0  0  0  0  0  0  0
    3.2935    0.1483   -0.0073 C   0  0  0  0  0  0  0  0  0  0  0  0
    2.8348   -1.2023    0.2162 C   0  0  0  0  0  0  0  0  0  0  0  0
   -2.7474   -3.5462    0.3878 C   0  0  0  0  0  0  0  0  0  0  0  0
   -1.8627   -4.1971    0.5144 H   0  0  0  0  0  0  0  0  0  0  0  0
   -3.3379   -3.8589   -0.4955 H   0  0  0  0  0  0  0  0  0  0  0  0
   -3.4385   -3.6566    1.2455 H   0  0  0  0  0  0  0  0  0  0  0  0
   -4.6263   -1.2516    0.0316 C   0  0  0  0  0  0  0  0  0  0  0  0
   -6.7686   -0.2459   -0.2049 C   0  0  0  0  0  0  0  0  0  0  0  0
   -7.1211   -0.7105    0.7416 H   0  0  0  0  0  0  0  0  0  0  0  0
   -7.0361   -0.9574   -1.0159 H   0  0  0  0  0  0  0  0  0  0  0  0
   -7.3787    1.1245   -0.4270 C   0  0  0  0  0  0  0  0  0  0  0  0
   -7.1102    1.8179    0.3953 H   0  0  0  0  0  0  0  0  0  0  0  0
   -8.4837    1.0503   -0.4696 H   0  0  0  0  0  0  0  0  0  0  0  0
   -7.0247    1.5676   -1.3794 H   0  0  0  0  0  0  0  0  0  0  0  0
    3.7684   -2.3831    0.3745 C   0  0  0  0  0  0  0  0  0  0  0  0
    3.1492   -3.2801    0.5573 H   0  0  0  0  0  0  0  0  0  0  0  0
    4.4784   -2.2325    1.2101 H   0  0  0  0  0  0  0  0  0  0  0  0
    4.3913   -2.5270   -0.5294 H   0  0  0  0  0  0  0  0  0  0  0  0
    4.7070    0.5714   -0.1315 C   0  0  0  0  0  0  0  0  0  0  0  0
    6.9936   -0.0548   -0.1466 C   0  0  0  0  0  0  0  0  0  0  0  0
    7.1477    0.4530   -1.1229 H   0  0  0  0  0  0  0  0  0  0  0  0
    7.2300    0.6994    0.6346 H   0  0  0  0  0  0  0  0  0  0  0  0
    7.8445   -1.3025   -0.0115 C   0  0  0  0  0  0  0  0  0  0  0  0
    7.6851   -1.7904    0.9710 H   0  0  0  0  0  0  0  0  0  0  0  0
    8.9185   -1.0434   -0.0981 H   0  0  0  0  0  0  0  0  0  0  0  0
    7.6017   -2.0389   -0.8037 H   0  0  0  0  0  0  0  0  0  0  0  0
  4 31  1  0  0  0  0
  5 43  2  0  0  0  0
  9  1  1  0  0  0  0
  9 27  1  0  0  0  0
 10  9  2  0  0  0  0
 11  7  1  0  0  0  0
 11 10  1  0  0  0  0
 12 11  1  0  0  0  0
 13 22  1  0  0  0  0
 13  7  1  0  0  0  0
 14 15  1  0  0  0  0
 14 13  2  0  0  0  0
 16 18  2  0  0  0  0
 16 14  1  0  0  0  0
 17 16  1  0  0  0  0
 18 20  1  0  0  0  0
 19 18  1  0  0  0  0
 20 21  1  0  0  0  0
 20 22  2  0  0  0  0
 22  8  1  0  0  0  0
 23  8  1  0  0  0  0
 23 25  1  0  0  0  0
 24 23  1  0  0  0  0
 25 26  2  0  0  0  0
 26  2  1  0  0  0  0
 26 39  1  0  0  0  0
 27 28  1  0  0  0  0
 27 30  1  0  0  0  0
 29 27  1  0  0  0  0
 31 10  1  0  0  0  0
 31  3  2  0  0  0  0
 32  4  1  0  0  0  0
 32 33  1  0  0  0  0
 34 32  1  0  0  0  0
 35 32  1  0  0  0  0
 35 36  1  0  0  0  0
 37 35  1  0  0  0  0
 38 35  1  0  0  0  0
 39 40  1  0  0  0  0
 39 41  1  0  0  0  0
 42 39  1  0  0  0  0
 43  6  1  0  0  0  0
 43 25  1  0  0  0  0
 44  6  1  0  0  0  0
 44 47  1  0  0  0  0
 44 46  1  0  0  0  0
 45 44  1  0  0  0  0
 47 48  1  0  0  0  0
 49 47  1  0  0  0  0
 50 47  1  0  0  0  0
M  CHG  2   1  -1   2  -1
M  END
