1,3,30,32
q = -2.0, confidence = 0.818

 58 60  0  0  1  0  0  0  0  0999 V2000
    1.1080    1.2288   -0.0005 O   0  0  0  0  0  1  0  0  0  0  0  0
    3.3863    2.4887    0.0001 O   0  0  0  0  0  0  0  0  0  0  0  0
   -1.6274    1.2757   -0.0002 N   0  0  0  0  0  2  0  0  0  0  0  0
    1.0326    2.5154   -0.0002 C   0  0  1  0  0  3  0  0  0  0  0  0
    2.2769    3.2665    0.0000 C   0  0  0  0  0  0  0  0  0  0  0  0
    2.2600    4.6590    0.0002 C   0  0  0  0  0  0  0  0  0  0  0  0
    3.2048    5.2196    0.0003 H   0  0  0  0  0  0  0  0  0  0  0  0
    1.0298    5.3777    0.0001 C   0  0  0  0  0  0  0  0  0  0  0  0
    1.0513    6.4772    0.0002 H   0  0  0  0  0  0  0  0  0  0  0  0
   -0.1725    4.6995   -0.0001 C   0  0  0  0  0  0  0  0  0  0  0  0
   -1.1285    5.2456   -0.0001 H   0  0  0  0  0  0  0  0  0  0  0  0
   -0.1988    3.2661   -0.0002 C   0  0  0  0  0  0  0  0  0  0  0  0
   -1.4441    2.5894   -0.0003 C   0  0  0  0  0  0  0  0  0  0  0  0
   -2.3428    3.2317   -0.0005 H   0  0  0  0  0  0  0  0  0  0  0  0
   -2.9195    0.7076   -0.0001 C   0  0  0  0  0  0  0  0  0  0  0  0
   -4.1462    1.3985   -0.0003 C   0  0  0  0  0  0  0  0  0  0  0  0
   -4.1659    2.4976   -0.0005 H   0  0  0  0  0  0  0  0  0  0  0  0
   -5.3699    0.7129   -0.0002 C   0  0  0  0  0  0  0  0  0  0  0  0
    4.6601    3.1166    0.0004 C   0  0  0  0  0  0  0  0  0  0  0  0
    4.7624    3.7730    0.8976 H   0  0  0  0  0  0  0  0  0  0  0  0
    4.7628    3.7731   -0.8966 H   0  0  0  0  0  0  0  0  0  0  0  0
    5.7140    2.0249    0.0006 C   0  0  0  0  0  0  0  0  0  0  0  0
    6.7296    2.4673    0.0009 H   0  0  0  0  0  0  0  0  0  0  0  0
    5.6073    1.3813   -0.8946 H   0  0  0  0  0  0  0  0  0  0  0  0
    5.6068    1.3812    0.8958 H   0  0  0  0  0  0  0  0  0  0  0  0
   -6.6697    1.4743   -0.0004 C   0  0  0  0  0  0  0  0  0  0  0  0
   -6.5008    2.5680   -0.0002 H   0  0  0  0  0  0  0  0  0  0  0  0
   -7.2895    1.2270    0.8878 H   0  0  0  0  0  0  0  0  0  0  0  0
   -7.2891    1.2272   -0.8889 H   0  0  0  0  0  0  0  0  0  0  0  0
    1.1080   -1.2288    0.0005 O   0  5  0  0  0  0  0  0  0  0  0  0
    3.3863   -2.4887   -0.0001 O   0  0  0  0  0  0  0  0  0  0  0  0
   -1.6274   -1.2757    0.0002 N   0  0  0  0  0  2  0  0  0  0  0  0
    1.0326   -2.5154    0.0002 C   0  0  0  0  0  0  0  0  0  0  0  0
    2.2769   -3.2665   -0.0000 C   0  0  0  0  0  0  0  0  0  0  0  0
    2.2600   -4.6590   -0.0002 C   0  0  0  0  0  0  0  0  0  0  0  0
    3.2048   -5.2196   -0.0003 H   0  0  0  0  0  0  0  0  0  0  0  0
    1.0298   -5.3777   -0.0001 C   0  0  0  0  0  0  0  0  0  0  0  0
    1.0513   -6.4772   -0.0002 H   0  0  0  0  0  0  0  0  0  0  0  0
   -0.1725   -4.6995    0.0001 C   0  0  0  0  0  3  0  0  0  0  0  0
   -1.1285   -5.2456    0.0001 H   0  0  0  0  0  0  0  0  0  0  0  0
   -0.1988   -3.2661    0.0002 C   0  0  0  0  0  0  0  0  0  0  0  0
   -1.4441   -2.5894    0.0003 C   0  0  0  0  0  0  0  0  0  0  0  0
   -2.3428   -3.2317    0.0005 H   0  0  0  0  0  0  0  0  0  0  0  0
   -2.9195   -0.7076    0.0001 C   0  0  0  0  0  0  0  0  0  0  0  0
   -4.1462   -1.3985    0.0003 C   0  0  0  0  0  0  0  0  0  0  0  0
   -4.1659   -2.4976    0.0005 H   0  0  0  0  0  0  0  0  0  0  0  0
   -5.3699   -0.7129    0.0002 C   0  0  0  0  0  0  0  0  0  0  0  0
    4.6601   -3.1166   -0.0004 C   0  0  0  0  0  0  0  0  0  0  0  0
    4.7624   -3.7730   -0.8976 H   0  0  0  0  0  0  0  0  0  0  0  0
    4.7628   -3.7731    0.8966 H   0  0  0  0  0  0  0  0  0  0  0  0
    5.7140   -2.0249   -0.0006 C   0  0  0  0  0  0  0  0  0  0  0  0
    6.7296   -2.4673   -0.0009 H   0  0  0  0  0  0  0  0  0  0  0  0
    5.6073   -1.3813    0.8946 H   0  0  0  0  0  0  0  0  0  0  0  0
    5.6068   -1.3812   -0.8958 H   0  0  0  0  0  0  0  0  0  0  0  0
   -6.6697   -1.4743    0.0004 C   0  0  0  0  0  0  0  0  0  0  0  0
   -6.5008   -2.5680    0.0002 H   0  0  0  0  0  0  0  0  0  0  0  0
   -7.2895   -1.2270   -0.8878 H   0  0  0  0  0  0  0  0  0  0  0  0
   -7.2891   -1.2272    0.8889 H   0  0  0  0  0  0  0  0  0  0  0  0
  2 19  1  0  0  0  0
  3 15  1  0  0  0  0
  4  1  1  6  0  0  0
  4  5  1  0  0  0  0
  5  2  1  0  0  0  0
  5  6  2  0  0  0  0
  6  7  1  0  0  0  0
  8  6  1  0  0  0  0
  8  9  1  0  0  0  0
 10  8  2  0  0  0  0
 11 10  1  0  0  0  0
 12  4  1  0  0  0  0
 12 10  1  0  0  0  0
 13 12  2  0  0  0  0
 13  3  1  0  0  0  0
 14 13  1  0  0  0  0
 15 44  1  0  0  0  0
 16 18  1  0  0  0  0
 16 15  2  0  0  0  0
 17 16  1  0  0  0  0
 18 47  2  0  0  0  0
 19 22  1  0  0  0  0
 19 20  1  0  0  0  0
 21 19  1  0  0  0  0
 22 23  1  0  0  0  0
 22 25  1  0  0  0  0
 24 22  1  0  0  0  0
 26 27  1  0  0  0  0
 26 18  1  0  0  0  0
 26 28  1  0  0  0  0
 29 26  1  0  0  0  0
 31 34  1  0  0  0  0
 32 42  1  0  0  0  0
 33 41  1  0  0  0  0
 33 30  1  0  0  0  0
 34 33  2  0  0  0  0
 35 37  2  0  0  0  0
 35 34  1  0  0  0  0
 36 35  1  0  0  0  0
 37 39  1  0  0  0  0
 38 37  1  0  0  0  0
 39 40  1  0  0  0  0
 39 41  1  0  0  0  0
 41 42  2  0  0  0  0
 42 43  1  0  0  0  0
 44 32  1  0  0  0  0
 44 45  2  0  0  0  0
 45 46  1  0  0  0  0
 47 45  1  0  0  0  0
 47 55  1  0  0  0  0
 48 31  1  0  0  0  0
 48 50  1  0  0  0  0
 49 48  1  0  0  0  0
 51 48  1  0  0  0  0
 51 53  1  0  0  0  0
 52 51  1  0  0  0  0
 54 51  1  0  0  0  0
 55 58  1  0  0  0  0
 56 55  1  0  0  0  0
 57 55  1  0  0  0  0
M  CHG  1  30  -1
M  END
