1,15,23,37
q = -2.0, confidence = 0.804

 44 45  0  0  0  0  0  0  0  0999 V2000
   -1.7328    1.0413   -0.8128 O   0  5  0  0  0  0  0  0  0  0  0  0
   -2.9031    0.4681   -0.5209 C   0  0  0  0  0  0  0  0  0  0  0  0
   -3.9316    0.5177   -1.4918 C   0  0  0  0  0  0  0  0  0  0  0  0
   -3.7257    1.0521   -2.4304 H   0  0  0  0  0  0  0  0  0  0  0  0
   -5.1745   -0.0775   -1.2601 C   0  0  0  0  0  0  0  0  0  0  0  0
   -5.9726   -0.0264   -2.0140 H   0  0  0  0  0  0  0  0  0  0  0  0
   -5.3976   -0.7532   -0.0490 C   0  0  0  0  0  0  0  0  0  0  0  0
   -6.9386   -1.5172    0.2543 Cl  0  0  0  0  0  0  0  0  0  0  0  0
   -4.3834   -0.8285    0.9167 C   0  0  0  0  0  0  0  0  0  0  0  0
   -4.5722   -1.3722    1.8544 H   0  0  0  0  0  0  0  0  0  0  0  0
   -3.1358   -0.2170    0.7032 C   0  0  0  0  0  0  0  0  0  0  0  0
   -2.0852   -0.2790    1.7830 C   0  0  0  0  0  0  0  0  0  0  0  0
   -2.0408    0.6838    2.3335 H   0  0  0  0  0  0  0  0  0  0  0  0
   -2.3740   -1.0680    2.5165 H   0  0  0  0  0  0  0  0  0  0  0  0
   -0.6990   -0.5407    1.3045 N   0  0  0  0  0  0  0  0  0  0  0  0
   -0.6268   -1.7413    0.4441 C   0  0  0  0  0  0  0  0  0  0  0  0
   -1.5357   -1.7600   -0.1890 H   0  0  0  0  0  0  0  0  0  0  0  0
   -0.6524   -2.6700    1.0609 H   0  0  0  0  0  0  0  0  0  0  0  0
    0.1697   -0.6780    2.4894 C   0  0  0  0  0  0  0  0  0  0  0  0
   -0.2104   -1.4869    3.1556 H   0  0  0  0  0  0  0  0  0  0  0  0
    0.1844    0.2776    3.0449 H   0  0  0  0  0  0  0  0  0  0  0  0
    1.2058   -0.9115    2.1913 H   0  0  0  0  0  0  0  0  0  0  0  0
    1.7330    1.0464    0.8047 O   0  5  0  0  0  0  0  0  0  0  0  0
    2.9033    0.4711    0.5168 C   0  0  0  0  0  0  0  0  0  0  0  0
    3.9327    0.5300    1.4861 C   0  0  0  0  0  0  0  0  0  0  0  0
    3.7275    1.0727    2.4200 H   0  0  0  0  0  0  0  0  0  0  0  0
    5.1757   -0.0666    1.2585 C   0  0  0  0  0  0  0  0  0  0  0  0
    5.9746   -0.0082    2.0110 H   0  0  0  0  0  0  0  0  0  0  0  0
    5.3980   -0.7529    0.0533 C   0  0  0  0  0  0  0  0  0  0  0  0
    6.9392   -1.5186   -0.2448 Cl  0  0  0  0  0  0  0  0  0  0  0  0
    4.3829   -0.8375   -0.9107 C   0  0  0  0  0  0  0  0  0  0  0  0
    4.5710   -1.3895   -1.8436 H   0  0  0  0  0  0  0  0  0  0  0  0
    3.1351   -0.2248   -0.7014 C   0  0  0  0  0  0  0  0  0  0  0  0
    2.0835   -0.2970   -1.7796 C   0  0  0  0  0  0  0  0  0  0  0  0
    2.0392    0.6602   -2.3397 H   0  0  0  0  0  0  0  0  0  0  0  0
    2.3714   -1.0934   -2.5055 H   0  0  0  0  0  0  0  0  0  0  0  0
    0.6976   -0.5534   -1.2976 N   0  0  0  0  0  0  0  0  0  0  0  0
    0.6255   -1.7455   -0.4255 C   0  0  0  0  0  0  0  0  0  0  0  0
    1.5344   -1.7580    0.2077 H   0  0  0  0  0  0  0  0  0  0  0  0
    0.6511   -2.6802   -1.0332 H   0  0  0  0  0  0  0  0  0  0  0  0
   -0.1719   -0.7018   -2.4805 C   0  0  0  0  0  0  0  0  0  0  0  0
    0.2072   -1.5174   -3.1390 H   0  0  0  0  0  0  0  0  0  0  0  0
   -0.1865    0.2484   -3.0453 H   0  0  0  0  0  0  0  0  0  0  0  0
   -1.2080   -0.9318   -2.1795 H   0  0  0  0  0  0  0  0  0  0  0  0
  1  2  1  0  0  0  0
  2 11  1  0  0  0  0
  3  5  1  0  0  0  0
  3  2  2  0  0  0  0
  4  3  1  0  0  0  0
  5  7  2  0  0  0  0
  6  5  1  0  0  0  0
  7  8  1  0  0  0  0
  7  9  1  0  0  0  0
  9 10  1  0  0  0  0
 11  9  2  0  0  0  0
 11 12  1  0  0  0  0
 12 13  1  0  0  0  0
 12 14  1  0  0  0  0
 15 12  1  0  0  0  0
 15 19  1  0  0  0  0
 16 18  1  0  0  0  0
 16 15  1  0  0  0  0
 17 16  1  0  0  0  0
 19 21  1  0  0  0  0
 19 20  1  0  0  0  0
 22 19  1  0  0  0  0
 24 23  1  0  0  0  0
 24 25  1  0  0  0  0
 25 26  1  0  0  0  0
 27 25  2  0  0  0  0
 27 28  1  0  0  0  0
 29 27  1  0  0  0  0
 30 29  1  0  0  0  0
 31 33  1  0  0  0  0
 31 29  2  0  0  0  0
 32 31  1  0  0  0  0
 33 24  2  0  0  0  0
 34 37  1  0  0  0  0
 34 33  1  0  0  0  0
 35 34  1  0  0  0  0
 36 34  1  0  0  0  0
 37 38  1  0  0  0  0
 38 39  1  0  0  0  0
 38 16  1  0  0  0  0
 40 38  1  0  0  0  0
 41 44  1  0  0  0  0
 41 37  1  0  0  0  0
 42 41  1  0  0  0  0
 43 41  1  0  0  0  0
M  CHG  2   1  -1  23  -1
M  END
