1,2,28,29
q = -2.0, confidence = 0.878

 54 56  0  0  1  0  0  0  0  0999 V2000
    1.9084    1.1409   -0.0803 O   0  5  0  0  0  0  0  0  0  0  0  0
    0.0756   -0.4988    1.4708 N   0  0  0  0  0  0  0  0  0  0  0  0
    1.4103   -0.4772    2.1420 C   0  0  0  0  0  0  0  0  0  0  0  0
    1.4728    0.5348    2.5964 H   0  0  0  0  0  0  0  0  0  0  0  0
    1.4288   -1.2105    2.9786 H   0  0  0  0  0  0  0  0  0  0  0  0
    2.6242   -0.6766    1.2767 C   0  0  0  0  0  0  0  0  0  0  0  0
    3.5820   -1.6573    1.5712 C   0  0  0  0  0  0  0  0  0  0  0  0
    3.4276   -2.3488    2.4125 H   0  0  0  0  0  0  0  0  0  0  0  0
    4.7516   -1.7551    0.8007 C   0  0  0  0  0  0  0  0  0  0  0  0
    5.9331   -2.9888    1.1684 Cl  0  0  0  0  0  0  0  0  0  0  0  0
    4.9829   -0.8666   -0.2595 C   0  0  0  0  0  0  0  0  0  0  0  0
    5.8985   -0.9350   -0.8611 H   0  0  0  0  0  0  0  0  0  0  0  0
    4.0258    0.1157   -0.5475 C   0  0  0  0  0  0  0  0  0  0  0  0
    4.3149    1.2230   -1.8653 Cl  0  0  0  0  0  0  0  0  0  0  0  0
    2.8209    0.2371    0.2026 C   0  0  0  0  0  0  0  0  0  0  0  0
   -0.9180   -0.2804    2.5445 C   0  0  0  0  0  0  0  0  0  0  0  0
   -0.8807   -1.0957    3.3022 H   0  0  0  0  0  0  0  0  0  0  0  0
   -1.9362   -0.2221    2.1294 H   0  0  0  0  0  0  0  0  0  0  0  0
   -0.6970    0.6761    3.0493 H   0  0  0  0  0  0  0  0  0  0  0  0
   -0.2646   -1.7567    0.7254 C   0  0  2  0  0  0  0  0  0  0  0  0
   -1.3719   -1.7604    0.6658 H   0  0  0  0  0  0  0  0  0  0  0  0
    0.1633   -3.0448    1.4551 C   0  0  0  0  0  0  0  0  0  0  0  0
    1.2693   -3.0655    1.5418 H   0  0  0  0  0  0  0  0  0  0  0  0
   -0.2428   -3.0397    2.4873 H   0  0  0  0  0  0  0  0  0  0  0  0
   -0.2831   -4.3058    0.7107 C   0  0  0  0  0  0  0  0  0  0  0  0
    0.0432   -5.2086    1.2670 H   0  0  0  0  0  0  0  0  0  0  0  0
   -1.3943   -4.3442    0.6670 H   0  0  0  0  0  0  0  0  0  0  0  0
   -1.9084    1.1410    0.0804 O   0  5  0  0  0  0  0  0  0  0  0  0
   -0.0757   -0.4988   -1.4709 N   0  0  0  0  0  0  0  0  0  0  0  0
   -1.4104   -0.4769   -2.1420 C   0  0  0  0  0  0  0  0  0  0  0  0
   -1.4729    0.5351   -2.5964 H   0  0  0  0  0  0  0  0  0  0  0  0
   -1.4290   -1.2102   -2.9787 H   0  0  0  0  0  0  0  0  0  0  0  0
   -2.6243   -0.6763   -1.2767 C   0  0  0  0  0  0  0  0  0  0  0  0
   -3.5822   -1.6569   -1.5712 C   0  0  0  0  0  0  0  0  0  0  0  0
   -3.4278   -2.3484   -2.4126 H   0  0  0  0  0  0  0  0  0  0  0  0
   -4.7518   -1.7547   -0.8008 C   0  0  0  0  0  0  0  0  0  0  0  0
   -5.9334   -2.9883   -1.1685 Cl  0  0  0  0  0  0  0  0  0  0  0  0
   -4.9830   -0.8663    0.2595 C   0  0  0  0  0  0  0  0  0  0  0  0
   -5.8986   -0.9346    0.8611 H   0  0  0  0  0  0  0  0  0  0  0  0
   -4.0258    0.1160    0.5476 C   0  0  0  0  0  0  0  0  0  0  0  0
   -4.3148    1.2230    1.8656 Cl  0  0  0  0  0  0  0  0  0  0  0  0
   -2.8210    0.2374   -0.2025 C   0  0  0  0  0  0  0  0  0  0  0  0
    0.9179   -0.2804   -2.5446 C   0  0  0  0  0  0  0  0  0  0  0  0
    0.8808   -1.0958   -3.3022 H   0  0  0  0  0  0  0  0  0  0  0  0
    1.9361   -0.2219   -2.1294 H   0  0  0  0  0  0  0  0  0  0  0  0
    0.6968    0.6760   -3.0495 H   0  0  0  0  0  0  0  0  0  0  0  0
    0.2644   -1.7567   -0.7255 C   0  0  2  0  0  0  0  0  0  0  0  0
    1.3717   -1.7605   -0.6659 H   0  0  0  0  0  0  0  0  0  0  0  0
   -0.1636   -3.0447   -1.4552 C   0  0  0  0  0  0  0  0  0  0  0  0
   -1.2696   -3.0653   -1.5419 H   0  0  0  0  0  0  0  0  0  0  0  0
    0.2425   -3.0397   -2.4874 H   0  0  0  0  0  0  0  0  0  0  0  0
    0.2827   -4.3058   -0.7109 C   0  0  0  0  0  0  0  0  0  0  0  0
   -0.0436   -5.2085   -1.2672 H   0  0  0  0  0  0  0  0  0  0  0  0
    1.3939   -4.3443   -0.6672 H   0  0  0  0  0  0  0  0  0  0  0  0
  1 15  1  0  0  0  0
  2  3  1  0  0  0  0
  2 16  1  0  0  0  0
  3  4  1  0  0  0  0
  3  5  1  0  0  0  0
  6  7  1  0  0  0  0
  6  3  1  0  0  0  0
  7  8  1  0  0  0  0
  9 10  1  0  0  0  0
  9  7  2  0  0  0  0
 11  9  1  0  0  0  0
 12 11  1  0  0  0  0
 13 11  2  0  0  0  0
 13 15  1  0  0  0  0
 14 13  1  0  0  0  0
 15  6  2  0  0  0  0
 16 19  1  0  0  0  0
 16 17  1  0  0  0  0
 18 16  1  0  0  0  0
 20 21  1  6  0  0  0
 20 22  1  0  0  0  0
 20  2  1  0  0  0  0
 22 23  1  0  0  0  0
 22 24  1  0  0  0  0
 25 26  1  0  0  0  0
 25 22  1  0  0  0  0
 27 25  1  0  0  0  0
 29 47  1  0  0  0  0
 30 29  1  0  0  0  0
 30 33  1  0  0  0  0
 31 30  1  0  0  0  0
 32 30  1  0  0  0  0
 33 42  1  0  0  0  0
 34 33  2  0  0  0  0
 34 36  1  0  0  0  0
 35 34  1  0  0  0  0
 36 38  2  0  0  0  0
 37 36  1  0  0  0  0
 38 40  1  0  0  0  0
 38 39  1  0  0  0  0
 40 41  1  0  0  0  0
 42 28  1  0  0  0  0
 42 40  2  0  0  0  0
 43 45  1  0  0  0  0
 43 29  1  0  0  0  0
 44 43  1  0  0  0  0
 46 43  1  0  0  0  0
 47 48  1  1  0  0  0
 47 20  1  0  0  0  0
 49 47  1  0  0  0  0
 49 52  1  0  0  0  0
 50 49  1  0  0  0  0
 51 49  1  0  0  0  0
 52 54  1  0  0  0  0
 52 25  1  0  0  0  0
 53 52  1  0  0  0  0
M  CHG  2   1  -1  28  -1
M  END
