1,2,5,7
q = -2.0, confidence = 0.918

 38 38  0  0  0  0  0  0  0  0999 V2000
   -0.6545   -0.9044   -1.1939 O   0  5  0  0  0  0  0  0  0  0  0  0
    2.5812   -0.6624    0.7437 O   0  0  0  0  0  1  0  0  0  0  0  0
   -0.4644    3.9787    0.3957 O   0  0  0  0  0  0  0  0  0  0  0  0
   -0.4392    4.9509    0.4351 H   0  0  0  0  0  0  0  0  0  0  0  0
    0.0411   -1.2416    1.5179 N   0  0  0  0  0  0  0  0  0  0  0  0
    0.6970   -1.9191    1.9248 H   0  0  0  0  0  0  0  0  0  0  0  0
    0.7937    1.2848    0.2098 N   0  0  0  0  0  0  0  0  0  0  0  0
   -1.8784   -0.6683   -0.7154 C   0  0  0  0  0  0  0  0  0  0  0  0
   -2.8137    0.0202   -1.5244 C   0  0  0  0  0  0  0  0  0  0  0  0
   -2.4992    0.3153   -2.5362 H   0  0  0  0  0  0  0  0  0  0  0  0
   -4.0980    0.3037   -1.0432 C   0  0  0  0  0  0  0  0  0  0  0  0
   -4.8123    0.8389   -1.6878 H   0  0  0  0  0  0  0  0  0  0  0  0
   -4.4743   -0.0855    0.2529 C   0  0  0  0  0  0  0  0  0  0  0  0
   -5.4796    0.1430    0.6356 H   0  0  0  0  0  0  0  0  0  0  0  0
   -3.5522   -0.7753    1.0556 C   0  0  0  0  0  0  0  0  0  0  0  0
   -3.8379   -1.0944    2.0714 H   0  0  0  0  0  0  0  0  0  0  0  0
   -2.2631   -1.0829    0.5902 C   0  0  0  0  0  0  0  0  0  0  0  0
   -1.2896   -1.8760    1.4209 C   0  0  0  0  0  0  0  0  0  0  0  0
   -1.1190   -2.8699    0.9541 H   0  0  0  0  0  0  0  0  0  0  0  0
   -1.7203   -2.0490    2.4339 H   0  0  0  0  0  0  0  0  0  0  0  0
    0.1114    0.0118    2.2918 C   0  0  0  0  0  0  0  0  0  0  0  0
    1.0838    0.0255    2.8164 H   0  0  0  0  0  0  0  0  0  0  0  0
   -0.6768    0.0357    3.0782 H   0  0  0  0  0  0  0  0  0  0  0  0
   -0.0566    1.2660    1.4251 C   0  0  0  0  0  0  0  0  0  0  0  0
   -1.1061    1.3291    1.0840 H   0  0  0  0  0  0  0  0  0  0  0  0
    0.1206    2.1719    2.0445 H   0  0  0  0  0  0  0  0  0  0  0  0
    2.1905    1.7119    0.4375 C   0  0  0  0  0  0  0  0  0  0  0  0
    2.6288    1.8842   -0.5649 H   0  0  0  0  0  0  0  0  0  0  0  0
    2.2395    2.6674    1.0098 H   0  0  0  0  0  0  0  0  0  0  0  0
    2.9967    0.6136    1.1440 C   0  0  0  0  0  0  0  0  0  0  0  0
    4.0778    0.7569    0.9101 H   0  0  0  0  0  0  0  0  0  0  0  0
    2.9061    0.7078    2.2535 H   0  0  0  0  0  0  0  0  0  0  0  0
    0.1747    2.0545   -0.9022 C   0  0  0  0  0  0  0  0  0  0  0  0
   -0.8773    1.7233   -0.9899 H   0  0  0  0  0  0  0  0  0  0  0  0
    0.6918    1.7543   -1.8365 H   0  0  0  0  0  0  0  0  0  0  0  0
    0.2153    3.5721   -0.7819 C   0  0  0  0  0  0  0  0  0  0  0  0
    1.2736    3.9304   -0.7918 H   0  0  0  0  0  0  0  0  0  0  0  0
   -0.2631    3.9784   -1.7069 H   0  0  0  0  0  0  0  0  0  0  0  0
  1  8  1  0  0  0  0
  2 30  1  0  0  0  0
  3  4  1  0  0  0  0
  5  6  1  0  0  0  0
  5 21  1  0  0  0  0
  7 27  1  0  0  0  0
  7 24  1  0  0  0  0
  8 17  1  0  0  0  0
  9 11  1  0  0  0  0
  9  8  2  0  0  0  0
 10  9  1  0  0  0  0
 11 13  2  0  0  0  0
 12 11  1  0  0  0  0
 13 14  1  0  0  0  0
 13 15  1  0  0  0  0
 15 16  1  0  0  0  0
 17 15  2  0  0  0  0
 17 18  1  0  0  0  0
 18  5  1  0  0  0  0
 18 20  1  0  0  0  0
 19 18  1  0  0  0  0
 21 22  1  0  0  0  0
 21 23  1  0  0  0  0
 24 26  1  0  0  0  0
 24 21  1  0  0  0  0
 25 24  1  0  0  0  0
 27 29  1  0  0  0  0
 27 30  1  0  0  0  0
 28 27  1  0  0  0  0
 30 32  1  0  0  0  0
 31 30  1  0  0  0  0
 33 36  1  0  0  0  0
 33  7  1  0  0  0  0
 34 33  1  0  0  0  0
 35 33  1  0  0  0  0
 36  3  1  0  0  0  0
 37 36  1  0  0  0  0
 38 36  1  0  0  0  0
M  CHG  1   1  -1
M  END
