1,2,5,6
q = -2.0, confidence = 0.746

 70 72  0  0  0  0  0  0  0  0999 V2000
   -1.3281   -0.5441   -0.5396 O   0  5  0  0  0  0  0  0  0  0  0  0
    1.3281   -0.5441    0.5395 O   0  5  0  0  0  0  0  0  0  0  0  0
   -6.7598   -0.5425    0.2143 O   0  0  0  0  0  0  0  0  0  0  0  0
    6.7598   -0.5425   -0.2140 O   0  0  0  0  0  0  0  0  0  0  0  0
   -1.3195    2.1931    0.0404 N   0  0  0  0  0  2  0  0  0  0  0  0
    1.3195    2.1931   -0.0405 N   0  0  0  0  0  2  0  0  0  0  0  0
   -2.5856   -0.5111   -0.2494 C   0  0  0  0  0  0  0  0  0  0  0  0
   -3.3450   -1.7557   -0.1530 C   0  0  0  0  0  0  0  0  0  0  0  0
   -4.7209   -1.6621   -0.0208 C   0  0  0  0  0  0  0  0  0  0  0  0
   -5.4263   -0.4242    0.0820 C   0  0  0  0  0  0  0  0  0  0  0  0
   -4.7160    0.7756    0.0712 C   0  0  0  0  0  0  0  0  0  0  0  0
   -3.3023    0.7519   -0.0695 C   0  0  0  0  0  0  0  0  0  0  0  0
   -7.5512    0.6359    0.3202 C   0  0  0  0  0  0  0  0  0  0  0  0
   -2.6250    2.0029   -0.0103 C   0  0  0  0  0  3  0  0  0  0  0  0
   -0.7163    3.4517   -0.0308 C   0  0  0  0  0  0  0  0  0  0  0  0
   -1.4066    4.6840   -0.1185 C   0  0  0  0  0  0  0  0  0  0  0  0
   -0.7035    5.8856   -0.0630 C   0  0  0  0  0  0  0  0  0  0  0  0
    0.7036    5.8856    0.0627 C   0  0  0  0  0  0  0  0  0  0  0  0
    1.4066    4.6840    0.1182 C   0  0  0  0  0  0  0  0  0  0  0  0
    0.7163    3.4517    0.0306 C   0  0  0  0  0  0  0  0  0  0  0  0
    2.6250    2.0029    0.0103 C   0  0  0  0  0  3  0  0  0  0  0  0
    3.3023    0.7518    0.0696 C   0  0  0  0  0  0  0  0  0  0  0  0
    2.5856   -0.5111    0.2495 C   0  0  0  0  0  0  0  0  0  0  0  0
    3.3450   -1.7557    0.1530 C   0  0  0  0  0  0  0  0  0  0  0  0
    4.7208   -1.6622    0.0208 C   0  0  0  0  0  0  0  0  0  0  0  0
    5.4263   -0.4243   -0.0818 C   0  0  0  0  0  0  0  0  0  0  0  0
    4.7160    0.7756   -0.0710 C   0  0  0  0  0  0  0  0  0  0  0  0
    7.5512    0.6358   -0.3198 C   0  0  0  0  0  0  0  0  0  0  0  0
   -2.6449   -3.1170   -0.2516 C   0  0  0  0  0  0  0  0  0  0  0  0
   -1.9897   -3.2620   -1.6468 C   0  0  0  0  0  0  0  0  0  0  0  0
   -1.5918   -3.2157    0.8766 C   0  0  0  0  0  0  0  0  0  0  0  0
   -3.6366   -4.2814   -0.0759 C   0  0  0  0  0  0  0  0  0  0  0  0
    2.6448   -3.1170    0.2515 C   0  0  0  0  0  0  0  0  0  0  0  0
    1.5918   -3.2156   -0.8767 C   0  0  0  0  0  0  0  0  0  0  0  0
    1.9896   -3.2621    1.6466 C   0  0  0  0  0  0  0  0  0  0  0  0
    3.6365   -4.2814    0.0756 C   0  0  0  0  0  0  0  0  0  0  0  0
   -5.3408   -2.5671    0.0183 H   0  0  0  0  0  0  0  0  0  0  0  0
   -5.2200    1.7424    0.2031 H   0  0  0  0  0  0  0  0  0  0  0  0
   -7.4369    1.2792   -0.5789 H   0  0  0  0  0  0  0  0  0  0  0  0
   -7.2857    1.2193    1.2284 H   0  0  0  0  0  0  0  0  0  0  0  0
   -8.5997    0.2985    0.3980 H   0  0  0  0  0  0  0  0  0  0  0  0
   -3.2816    2.8934    0.0145 H   0  0  0  0  0  0  0  0  0  0  0  0
   -2.5013    4.7064   -0.2034 H   0  0  0  0  0  0  0  0  0  0  0  0
   -1.2505    6.8385   -0.1071 H   0  0  0  0  0  0  0  0  0  0  0  0
    1.2506    6.8385    0.1068 H   0  0  0  0  0  0  0  0  0  0  0  0
    2.5014    4.7064    0.2032 H   0  0  0  0  0  0  0  0  0  0  0  0
    3.2816    2.8934   -0.0144 H   0  0  0  0  0  0  0  0  0  0  0  0
    5.3408   -2.5671   -0.0183 H   0  0  0  0  0  0  0  0  0  0  0  0
    5.2201    1.7424   -0.2028 H   0  0  0  0  0  0  0  0  0  0  0  0
    7.4369    1.2791    0.5793 H   0  0  0  0  0  0  0  0  0  0  0  0
    7.2858    1.2192   -1.2280 H   0  0  0  0  0  0  0  0  0  0  0  0
    8.5998    0.2984   -0.3975 H   0  0  0  0  0  0  0  0  0  0  0  0
   -1.2458   -2.4680   -1.8362 H   0  0  0  0  0  0  0  0  0  0  0  0
   -2.7587   -3.2199   -2.4443 H   0  0  0  0  0  0  0  0  0  0  0  0
   -1.4790   -4.2431   -1.7206 H   0  0  0  0  0  0  0  0  0  0  0  0
   -2.0794   -3.1600    1.8709 H   0  0  0  0  0  0  0  0  0  0  0  0
   -0.8364   -2.4143    0.8085 H   0  0  0  0  0  0  0  0  0  0  0  0
   -1.0647   -4.1885    0.8139 H   0  0  0  0  0  0  0  0  0  0  0  0
   -3.0823   -5.2391   -0.1242 H   0  0  0  0  0  0  0  0  0  0  0  0
   -4.4029   -4.3067   -0.8767 H   0  0  0  0  0  0  0  0  0  0  0  0
   -4.1525   -4.2475    0.9050 H   0  0  0  0  0  0  0  0  0  0  0  0
    0.8364   -2.4142   -0.8086 H   0  0  0  0  0  0  0  0  0  0  0  0
    1.0646   -4.1884   -0.8142 H   0  0  0  0  0  0  0  0  0  0  0  0
    2.0794   -3.1598   -1.8710 H   0  0  0  0  0  0  0  0  0  0  0  0
    1.4788   -4.2433    1.7203 H   0  0  0  0  0  0  0  0  0  0  0  0
    1.2458   -2.4681    1.8361 H   0  0  0  0  0  0  0  0  0  0  0  0
    2.7586   -3.2201    2.4442 H   0  0  0  0  0  0  0  0  0  0  0  0
    3.0822   -5.2391    0.1238 H   0  0  0  0  0  0  0  0  0  0  0  0
    4.4028   -4.3068    0.8764 H   0  0  0  0  0  0  0  0  0  0  0  0
    4.1524   -4.2474   -0.9053 H   0  0  0  0  0  0  0  0  0  0  0  0
  1  7  1  0  0  0  0
  3 13  1  0  0  0  0
  4 26  1  0  0  0  0
  6 21  1  0  0  0  0
  6 20  1  0  0  0  0
  7  8  2  0  0  0  0
  7 12  1  0  0  0  0
  8  9  1  0  0  0  0
  9 37  1  0  0  0  0
  9 10  2  0  0  0  0
 10  3  1  0  0  0  0
 11 10  1  0  0  0  0
 11 38  1  0  0  0  0
 12 14  1  0  0  0  0
 12 11  2  0  0  0  0
 13 41  1  0  0  0  0
 13 40  1  0  0  0  0
 14 42  1  0  0  0  0
 14  5  1  0  0  0  0
 15 20  1  0  0  0  0
 15  5  1  0  0  0  0
 16 17  1  0  0  0  0
 16 15  2  0  0  0  0
 17 18  2  0  0  0  0
 18 45  1  0  0  0  0
 18 19  1  0  0  0  0
 19 46  1  0  0  0  0
 20 19  2  0  0  0  0
 21 22  1  0  0  0  0
 22 23  1  0  0  0  0
 23  2  1  0  0  0  0
 24 23  2  0  0  0  0
 24 33  1  0  0  0  0
 25 24  1  0  0  0  0
 26 27  1  0  0  0  0
 26 25  2  0  0  0  0
 27 22  2  0  0  0  0
 28  4  1  0  0  0  0
 28 50  1  0  0  0  0
 29  8  1  0  0  0  0
 29 32  1  0  0  0  0
 29 31  1  0  0  0  0
 30 29  1  0  0  0  0
 31 56  1  0  0  0  0
 32 61  1  0  0  0  0
 33 35  1  0  0  0  0
 34 63  1  0  0  0  0
 34 62  1  0  0  0  0
 34 33  1  0  0  0  0
 35 65  1  0  0  0  0
 35 66  1  0  0  0  0
 35 67  1  0  0  0  0
 36 68  1  0  0  0  0
 36 33  1  0  0  0  0
 36 69  1  0  0  0  0
 39 13  1  0  0  0  0
 43 16  1  0  0  0  0
 44 17  1  0  0  0  0
 47 21  1  0  0  0  0
 48 25  1  0  0  0  0
 49 27  1  0  0  0  0
 51 28  1  0  0  0  0
 52 28  1  0  0  0  0
 53 30  1  0  0  0  0
 54 30  1  0  0  0  0
 55 30  1  0  0  0  0
 57 31  1  0  0  0  0
 58 31  1  0  0  0  0
 59 32  1  0  0  0  0
 60 32  1  0  0  0  0
 64 34  1  0  0  0  0
 70 36  1  0  0  0  0
M  CHG  2   1  -1   2  -1
M  END
