5,6,7,8
q = -2.0, confidence = 0.86

 44 46  0  0  1  0  0  0  0  0999 V2000
    6.9846   -1.2667   -0.0547 Cl  0  0  0  0  0  0  0  0  0  0  0  0
   -7.2837   -0.4411   -0.1287 Cl  0  0  0  0  0  0  0  0  0  0  0  0
    2.1665   -3.7360    0.4339 Cl  0  0  0  0  0  0  0  0  0  0  0  0
   -2.7840   -3.4708    0.2130 Cl  0  0  0  0  0  0  0  0  0  0  0  0
    1.0839   -1.0848   -0.0756 O   0  5  0  0  0  0  0  0  0  0  0  0
   -1.4003   -0.9204    0.0360 O   0  5  0  0  0  0  0  0  0  0  0  0
    1.2588    1.5964   -0.5505 N   0  0  0  0  0  2  0  0  0  0  0  0
   -1.2566    1.7690   -0.2008 N   0  0  0  0  0  2  0  0  0  0  0  0
    2.3743   -1.0690   -0.0746 C   0  0  0  0  0  0  0  0  0  0  0  0
    3.0953   -2.2971    0.1563 C   0  0  0  0  0  0  0  0  0  0  0  0
    4.4843   -2.3485    0.1627 C   0  0  0  0  0  0  0  0  0  0  0  0
    4.9922   -3.3049    0.3451 H   0  0  0  0  0  0  0  0  0  0  0  0
    5.2397   -1.1718   -0.0668 C   0  0  0  0  0  0  0  0  0  0  0  0
    4.6019    0.0371   -0.2996 C   0  0  0  0  0  3  0  0  0  0  0  0
    5.1933    0.9463   -0.4807 H   0  0  0  0  0  0  0  0  0  0  0  0
    3.1795    0.1064   -0.3044 C   0  0  0  0  0  0  0  0  0  0  0  0
    2.5503    1.3629   -0.5668 C   0  0  0  0  0  0  0  0  0  0  0  0
    3.2260    2.2018   -0.8143 H   0  0  0  0  0  0  0  0  0  0  0  0
    0.7079    2.9129   -0.9497 C   0  0  2  0  0  0  0  0  0  0  0  0
    0.4119    2.8133   -2.0183 H   0  0  0  0  0  0  0  0  0  0  0  0
    1.6294    4.1311   -0.7998 C   0  0  0  0  0  0  0  0  0  0  0  0
    1.1113    4.9802   -1.2958 H   0  0  0  0  0  0  0  0  0  0  0  0
    2.5657    3.9887   -1.3777 H   0  0  0  0  0  0  0  0  0  0  0  0
    1.9127    4.4969    0.6623 C   0  0  0  0  0  0  0  0  0  0  0  0
    2.5084    3.6932    1.1469 H   0  0  0  0  0  0  0  0  0  0  0  0
    2.5332    5.4152    0.7057 H   0  0  0  0  0  0  0  0  0  0  0  0
    0.6027    4.6916    1.4350 C   0  0  0  0  0  0  0  0  0  0  0  0
    0.0587    5.5712    1.0229 H   0  0  0  0  0  0  0  0  0  0  0  0
    0.8083    4.9236    2.4999 H   0  0  0  0  0  0  0  0  0  0  0  0
   -0.2827    3.4454    1.3366 C   0  0  0  0  0  0  0  0  0  0  0  0
    0.2241    2.5790    1.8141 H   0  0  0  0  0  0  0  0  0  0  0  0
   -1.2434    3.5860    1.8732 H   0  0  0  0  0  0  0  0  0  0  0  0
   -0.5793    3.0669   -0.1259 C   0  0  2  0  0  0  0  0  0  0  0  0
   -1.2173    3.8538   -0.5875 H   0  0  0  0  0  0  0  0  0  0  0  0
   -2.5687    1.7146   -0.1749 C   0  0  0  0  0  0  0  0  0  0  0  0
   -3.1184    2.6768   -0.1861 H   0  0  0  0  0  0  0  0  0  0  0  0
   -3.3465    0.5178   -0.1230 C   0  0  0  0  0  0  0  0  0  0  0  0
   -4.7669    0.6090   -0.1579 C   0  0  0  0  0  3  0  0  0  0  0  0
   -5.2491    1.5935   -0.2430 H   0  0  0  0  0  0  0  0  0  0  0  0
   -5.5396   -0.5401   -0.0842 C   0  0  0  0  0  0  0  0  0  0  0  0
   -4.9249   -1.8116    0.0308 C   0  0  0  0  0  0  0  0  0  0  0  0
   -5.5399   -2.7195    0.0904 H   0  0  0  0  0  0  0  0  0  0  0  0
   -3.5393   -1.9155    0.0697 C   0  0  0  0  0  0  0  0  0  0  0  0
   -2.6806   -0.7589   -0.0088 C   0  0  0  0  0  0  0  0  0  0  0  0
  2 40  1  0  0  0  0
  5  9  1  0  0  0  0
  8 35  1  0  0  0  0
  8 33  1  0  0  0  0
  9 10  2  0  0  0  0
 10 11  1  0  0  0  0
 10  3  1  0  0  0  0
 11 12  1  0  0  0  0
 13  1  1  0  0  0  0
 13 11  2  0  0  0  0
 14 13  1  0  0  0  0
 15 14  1  0  0  0  0
 16 14  1  0  0  0  0
 16  9  1  0  0  0  0
 17  7  1  0  0  0  0
 17 16  2  0  0  0  0
 18 17  1  0  0  0  0
 19 20  1  6  0  0  0
 19 21  1  0  0  0  0
 19  7  1  0  0  0  0
 19 33  1  0  0  0  0
 21 24  1  0  0  0  0
 22 21  1  0  0  0  0
 23 21  1  0  0  0  0
 24 26  1  0  0  0  0
 24 25  1  0  0  0  0
 24 27  1  0  0  0  0
 27 29  1  0  0  0  0
 28 27  1  0  0  0  0
 30 27  1  0  0  0  0
 30 31  1  0  0  0  0
 30 32  1  0  0  0  0
 33 34  1  6  0  0  0
 33 30  1  0  0  0  0
 35 37  2  0  0  0  0
 36 35  1  0  0  0  0
 37 44  1  0  0  0  0
 38 37  1  0  0  0  0
 38 40  1  0  0  0  0
 39 38  1  0  0  0  0
 40 41  2  0  0  0  0
 41 43  1  0  0  0  0
 41 42  1  0  0  0  0
 43  4  1  0  0  0  0
 44  6  1  0  0  0  0
 44 43  2  0  0  0  0
M  CHG  2   5  -1   6  -1
M  END
