1,2,3,4
q = -2.0, confidence = 0.948

 38 41  0  0  0  0  0  0  0  0999 V2000
   -1.5325   -2.0162    0.3457 O   0  5  0  0  0  0  0  0  0  0  0  0
    1.3442   -1.9306   -0.6573 O   0  5  0  0  0  0  0  0  0  0  0  0
   -1.6632    0.6403   -0.2108 N   0  0  0  0  0  2  0  0  0  0  0  0
    1.6812    0.6221    0.1750 N   0  0  0  0  0  2  0  0  0  0  0  0
   -2.7126   -1.4937    0.1633 C   0  0  0  0  0  0  0  0  0  0  0  0
   -3.9187   -2.2227    0.2500 C   0  0  0  0  0  0  0  0  0  0  0  0
   -5.1717   -1.6099    0.0350 C   0  0  0  0  0  0  0  0  0  0  0  0
   -5.2905   -0.2545   -0.2673 C   0  0  0  0  0  3  0  0  0  0  0  0
   -4.1142    0.5361   -0.3583 C   0  0  0  0  0  0  0  0  0  0  0  0
   -2.8282   -0.0750   -0.1457 C   0  0  0  0  0  0  0  0  0  0  0  0
   -4.1100    1.9291   -0.6397 C   0  0  0  0  0  0  0  0  0  0  0  0
   -2.9150    2.6303   -0.6824 C   0  0  0  0  0  0  0  0  0  0  0  0
   -1.6830    1.9575   -0.4580 C   0  0  0  0  0  0  0  0  0  0  0  0
   -0.3793    2.7197   -0.4910 C   0  0  0  0  0  0  0  0  0  0  0  0
    0.4729    2.6244    0.8097 C   0  0  0  0  0  0  0  0  0  0  0  0
    1.7710    1.8894    0.5870 C   0  0  0  0  0  0  0  0  0  0  0  0
    3.0408    2.5101    0.7282 C   0  0  0  0  0  0  0  0  0  0  0  0
    4.1930    1.8005    0.4153 C   0  0  0  0  0  0  0  0  0  0  0  0
    4.1127    0.4598   -0.0552 C   0  0  0  0  0  0  0  0  0  0  0  0
    2.7902   -0.0976   -0.1510 C   0  0  0  0  0  0  0  0  0  0  0  0
    5.2275   -0.3366   -0.4295 C   0  0  0  0  0  3  0  0  0  0  0  0
    5.0032   -1.6364   -0.8846 C   0  0  0  0  0  0  0  0  0  0  0  0
    3.7095   -2.1948   -0.9812 C   0  0  0  0  0  0  0  0  0  0  0  0
    2.5583   -1.4614   -0.6128 C   0  0  0  0  0  0  0  0  0  0  0  0
   -3.8495   -3.2944    0.4868 H   0  0  0  0  0  0  0  0  0  0  0  0
   -6.0807   -2.2275    0.1097 H   0  0  0  0  0  0  0  0  0  0  0  0
   -6.2720    0.2134   -0.4312 H   0  0  0  0  0  0  0  0  0  0  0  0
   -5.0675    2.4456   -0.8126 H   0  0  0  0  0  0  0  0  0  0  0  0
   -2.9026    3.7108   -0.8864 H   0  0  0  0  0  0  0  0  0  0  0  0
    0.2241    2.3455   -1.3459 H   0  0  0  0  0  0  0  0  0  0  0  0
   -0.6044    3.7792   -0.7174 H   0  0  0  0  0  0  0  0  0  0  0  0
    0.6867    3.6376    1.2001 H   0  0  0  0  0  0  0  0  0  0  0  0
   -0.1080    2.1003    1.5988 H   0  0  0  0  0  0  0  0  0  0  0  0
    3.0958    3.5519    1.0763 H   0  0  0  0  0  0  0  0  0  0  0  0
    5.1824    2.2743    0.5170 H   0  0  0  0  0  0  0  0  0  0  0  0
    6.2432    0.0791   -0.3594 H   0  0  0  0  0  0  0  0  0  0  0  0
    5.8644   -2.2560   -1.1815 H   0  0  0  0  0  0  0  0  0  0  0  0
    3.5667   -3.2229   -1.3449 H   0  0  0  0  0  0  0  0  0  0  0  0
  2 24  1  0  0  0  0
  3 10  1  0  0  0  0
  4 16  1  0  0  0  0
  5  6  1  0  0  0  0
  5  1  1  0  0  0  0
  6 25  1  0  0  0  0
  7 26  1  0  0  0  0
  7  6  2  0  0  0  0
  8  7  1  0  0  0  0
  9  8  1  0  0  0  0
  9 10  1  0  0  0  0
 10  5  2  0  0  0  0
 11  9  2  0  0  0  0
 12 11  1  0  0  0  0
 12 13  2  0  0  0  0
 13  3  1  0  0  0  0
 14 13  1  0  0  0  0
 14 15  1  0  0  0  0
 15 32  1  0  0  0  0
 15 33  1  0  0  0  0
 16 17  2  0  0  0  0
 16 15  1  0  0  0  0
 17 34  1  0  0  0  0
 18 35  1  0  0  0  0
 18 17  1  0  0  0  0
 19 18  2  0  0  0  0
 20 19  1  0  0  0  0
 20  4  1  0  0  0  0
 21 36  1  0  0  0  0
 21 19  1  0  0  0  0
 22 21  1  0  0  0  0
 23 22  2  0  0  0  0
 23 24  1  0  0  0  0
 24 20  2  0  0  0  0
 27  8  1  0  0  0  0
 28 11  1  0  0  0  0
 29 12  1  0  0  0  0
 30 14  1  0  0  0  0
 31 14  1  0  0  0  0
 37 22  1  0  0  0  0
 38 23  1  0  0  0  0
M  CHG  2   1  -1   2  -1
M  END
