1,6,13,17
q = 0.0, confidence = 0.948

 52 53  0  0  1  0  0  0  0  0999 V2000
   -1.4305   -1.4793    0.7417 N   0  0  0  0  0  0  0  0  0  0  0  0
   -1.7580   -1.1258    1.6501 H   0  0  0  0  0  0  0  0  0  0  0  0
    0.5070   -2.7990   -0.0642 C   0  0  0  0  0  0  0  0  0  0  0  0
    1.0703   -3.7474    0.0967 H   0  0  0  0  0  0  0  0  0  0  0  0
    0.1213   -2.8317   -1.1060 H   0  0  0  0  0  0  0  0  0  0  0  0
    1.3518   -1.6101    0.0714 N   0  0  0  0  0  0  0  0  0  0  0  0
    1.7326   -1.5636    1.0298 H   0  0  0  0  0  0  0  0  0  0  0  0
   -0.6452   -2.7065    0.9399 C   0  0  0  0  0  0  0  0  0  0  0  0
   -0.2235   -2.6661    1.9656 H   0  0  0  0  0  0  0  0  0  0  0  0
   -1.2777   -3.6206    0.8769 H   0  0  0  0  0  0  0  0  0  0  0  0
   -4.7807    2.0198   -0.4196 N   0  0  0  0  0  0  0  0  0  0  0  0
   -5.3124    2.8963   -0.4802 H   0  0  0  0  0  0  0  0  0  0  0  0
   -1.4357    0.9298   -0.9240 O   0  5  0  0  0  0  0  0  0  0  0  0
   -2.5543   -1.6065   -0.2022 C   0  0  0  0  0  0  0  0  0  0  0  0
   -2.1278   -1.7671   -1.2181 H   0  0  0  0  0  0  0  0  0  0  0  0
   -3.1920   -2.4890    0.0118 H   0  0  0  0  0  0  0  0  0  0  0  0
    1.4354    1.1429   -0.8818 O   0  5  0  0  0  0  0  0  0  0  0  0
    4.6837    1.9088    0.3552 N   0  0  0  0  0  0  0  0  0  0  0  0
    5.1906    2.7217    0.7242 H   0  0  0  0  0  0  0  0  0  0  0  0
   -3.3715   -0.3402   -0.2513 C   0  0  0  0  0  0  0  0  0  0  0  0
   -5.4222   -2.6267   -0.4602 O   0  0  0  0  0  0  0  0  0  0  0  0
   -5.8336   -2.3426   -1.2979 H   0  0  0  0  0  0  0  0  0  0  0  0
   -2.6834    0.8668   -0.6330 C   0  0  0  0  0  0  0  0  0  0  0  0
   -3.4627    2.0778   -0.7042 C   0  0  2  0  0  3  0  0  0  0  0  0
    5.3340   -2.2775   -1.4992 O   0  0  0  0  0  0  0  0  0  0  0  0
    5.7945   -3.1369   -1.4942 H   0  0  0  0  0  0  0  0  0  0  0  0
   -2.8161    3.3622   -1.0813 C   0  0  0  0  0  0  0  0  0  0  0  0
   -2.3585    3.2745   -2.0884 H   0  0  0  0  0  0  0  0  0  0  0  0
   -1.9712    3.5637   -0.3904 H   0  0  0  0  0  0  0  0  0  0  0  0
   -3.5184    4.2176   -1.0686 H   0  0  0  0  0  0  0  0  0  0  0  0
   -5.4493    0.8922   -0.0563 C   0  0  0  0  0  0  0  0  0  0  0  0
   -6.5219    0.9965    0.1517 H   0  0  0  0  0  0  0  0  0  0  0  0
   -4.7538   -0.3150    0.0445 C   0  0  0  0  0  0  0  0  0  0  0  0
    2.4588   -1.4870   -0.8996 C   0  0  0  0  0  0  0  0  0  0  0  0
    2.0102   -1.2986   -1.8992 H   0  0  0  0  0  0  0  0  0  0  0  0
    3.0609   -2.4151   -0.9784 H   0  0  0  0  0  0  0  0  0  0  0  0
    3.3163   -0.3041   -0.5271 C   0  0  0  0  0  0  0  0  0  0  0  0
    2.6500    0.9718   -0.5057 C   0  0  0  0  0  0  0  0  0  0  0  0
    3.3876    2.0884    0.0256 C   0  0  1  0  0  3  0  0  0  0  0  0
    2.7007    3.3828    0.2692 C   0  0  0  0  0  0  0  0  0  0  0  0
    1.8860    3.2001    1.0047 H   0  0  0  0  0  0  0  0  0  0  0  0
    2.2073    3.7320   -0.6598 H   0  0  0  0  0  0  0  0  0  0  0  0
    3.3796    4.1682    0.6532 H   0  0  0  0  0  0  0  0  0  0  0  0
    5.3582    0.7310    0.2541 C   0  0  0  0  0  0  0  0  0  0  0  0
    6.4188    0.7407    0.5338 H   0  0  0  0  0  0  0  0  0  0  0  0
    4.6760   -0.4127   -0.1655 C   0  0  0  0  0  0  0  0  0  0  0  0
   -5.5205   -1.5608    0.4633 C   0  0  0  0  0  0  0  0  0  0  0  0
   -6.5784   -1.2830    0.6813 H   0  0  0  0  0  0  0  0  0  0  0  0
   -5.0976   -1.9447    1.4160 H   0  0  0  0  0  0  0  0  0  0  0  0
    5.4160   -1.7323   -0.1948 C   0  0  0  0  0  0  0  0  0  0  0  0
    4.9579   -2.4088    0.5710 H   0  0  0  0  0  0  0  0  0  0  0  0
    6.4705   -1.5624    0.1267 H   0  0  0  0  0  0  0  0  0  0  0  0
  1  8  1  0  0  0  0
  1  2  1  0  0  0  0
  3  6  1  0  0  0  0
  3  4  1  0  0  0  0
  3  8  1  0  0  0  0
  5  3  1  0  0  0  0
  6  7  1  0  0  0  0
  8  9  1  0  0  0  0
 10  8  1  0  0  0  0
 11 31  1  0  0  0  0
 12 11  1  0  0  0  0
 13 23  1  0  0  0  0
 14 16  1  0  0  0  0
 14  1  1  0  0  0  0
 15 14  1  0  0  0  0
 17 38  1  0  0  0  0
 18 19  1  0  0  0  0
 20 14  1  0  0  0  0
 20 33  1  0  0  0  0
 21 47  1  0  0  0  0
 22 21  1  0  0  0  0
 23 20  2  0  0  0  0
 24 27  1  1  0  0  0
 24 23  1  0  0  0  0
 24 11  1  0  0  0  0
 25 26  1  0  0  0  0
 25 50  1  0  0  0  0
 27 30  1  0  0  0  0
 27 29  1  0  0  0  0
 28 27  1  0  0  0  0
 31 33  2  0  0  0  0
 31 32  1  0  0  0  0
 33 47  1  0  0  0  0
 34 37  1  0  0  0  0
 34  6  1  0  0  0  0
 35 34  1  0  0  0  0
 36 34  1  0  0  0  0
 37 38  2  0  0  0  0
 37 46  1  0  0  0  0
 38 39  1  0  0  0  0
 39 40  1  1  0  0  0
 39 18  1  0  0  0  0
 40 43  1  0  0  0  0
 40 41  1  0  0  0  0
 42 40  1  0  0  0  0
 44 18  1  0  0  0  0
 44 45  1  0  0  0  0
 46 44  2  0  0  0  0
 47 48  1  0  0  0  0
 47 49  1  0  0  0  0
 50 46  1  0  0  0  0
 50 52  1  0  0  0  0
 50 51  1  0  0  0  0
M  CHG  2  13  -1  17  -1
M  END
