3,4,5,6
q = -2.0, confidence = 0.852

 64 65  0  0  1  0  0  0  0  0999 V2000
   -5.7868    1.1737   -0.8447 Cl  0  0  0  0  0  0  0  0  0  0  0  0
    5.7852   -1.1716   -0.8475 Cl  0  0  0  0  0  0  0  0  0  0  0  0
   -1.3280   -1.5084   -0.8479 O   0  5  0  0  0  0  0  0  0  0  0  0
    1.3263    1.5102   -0.8490 O   0  5  0  0  0  0  0  0  0  0  0  0
   -1.4788    1.3946   -0.7987 N   0  0  0  0  0  2  0  0  0  0  0  0
    1.4773   -1.3928   -0.8028 N   0  0  0  0  0  2  0  0  0  0  0  0
   -3.3794   -0.1960   -0.8471 C   0  0  0  0  0  0  0  0  0  0  0  0
   -2.6327   -1.4327   -0.8516 C   0  0  0  0  0  0  0  0  0  0  0  0
   -3.3460   -2.6693   -0.8602 C   0  0  0  0  0  0  0  0  0  0  0  0
   -4.7325   -2.6948   -0.8669 C   0  0  0  0  0  0  0  0  0  0  0  0
   -5.4876   -1.4999   -0.8641 C   0  0  0  0  0  0  0  0  0  0  0  0
   -4.8110   -0.2862   -0.8547 C   0  0  1  0  0  3  0  0  0  0  0  0
   -2.7560    1.0962   -0.8193 C   0  0  0  0  0  0  0  0  0  0  0  0
    3.3777    0.1980   -0.8493 C   0  0  0  0  0  0  0  0  0  0  0  0
    2.6310    1.4346   -0.8526 C   0  0  0  0  0  0  0  0  0  0  0  0
    3.3442    2.6713   -0.8598 C   0  0  0  0  0  0  0  0  0  0  0  0
    4.7308    2.6969   -0.8661 C   0  0  0  0  0  0  0  0  0  0  0  0
    5.4859    1.5020   -0.8643 C   0  0  0  0  0  0  0  0  0  0  0  0
    4.8094    0.2882   -0.8565 C   0  0  1  0  0  3  0  0  0  0  0  0
    2.7544   -1.0942   -0.8237 C   0  0  0  0  0  0  0  0  0  0  0  0
   -1.1398    2.8231   -0.6745 C   0  0  0  0  0  0  0  0  0  0  0  0
   -0.6729    3.1860    0.7409 C   0  0  0  0  0  0  0  0  0  0  0  0
   -1.7115    2.9708    1.8447 C   0  0  0  0  0  0  0  0  0  0  0  0
   -1.1178    3.0310    3.2627 C   0  0  0  0  0  0  0  0  0  0  0  0
   -0.0532    1.9610    3.5569 C   0  0  0  0  0  0  0  0  0  0  0  0
   -0.5584    0.5158    3.4871 C   0  0  0  0  0  0  0  0  0  0  0  0
    0.5655   -0.5235    3.4854 C   0  0  0  0  0  0  0  0  0  0  0  0
    0.0602   -1.9689    3.5537 C   0  0  0  0  0  0  0  0  0  0  0  0
    1.1240   -3.0385    3.2554 C   0  0  0  0  0  0  0  0  0  0  0  0
    1.7151   -2.9756    1.8364 C   0  0  0  0  0  0  0  0  0  0  0  0
    0.6743   -3.1879    0.7341 C   0  0  0  0  0  0  0  0  0  0  0  0
    1.1385   -2.8216   -0.6814 C   0  0  0  0  0  0  0  0  0  0  0  0
   -2.7508   -3.5930   -0.8627 H   0  0  0  0  0  0  0  0  0  0  0  0
   -5.2597   -3.6612   -0.8740 H   0  0  0  0  0  0  0  0  0  0  0  0
   -6.5849   -1.5150   -0.8681 H   0  0  0  0  0  0  0  0  0  0  0  0
   -3.4578    1.9489   -0.8042 H   0  0  0  0  0  0  0  0  0  0  0  0
    2.7490    3.5950   -0.8614 H   0  0  0  0  0  0  0  0  0  0  0  0
    5.2579    3.6633   -0.8721 H   0  0  0  0  0  0  0  0  0  0  0  0
    6.5832    1.5172   -0.8679 H   0  0  0  0  0  0  0  0  0  0  0  0
    3.4563   -1.9469   -0.8110 H   0  0  0  0  0  0  0  0  0  0  0  0
   -2.0342    3.4190   -0.9568 H   0  0  0  0  0  0  0  0  0  0  0  0
   -0.3275    3.0447   -1.3910 H   0  0  0  0  0  0  0  0  0  0  0  0
    0.2376    2.5901    0.9443 H   0  0  0  0  0  0  0  0  0  0  0  0
   -0.3459    4.2488    0.7258 H   0  0  0  0  0  0  0  0  0  0  0  0
   -2.2022    1.9841    1.7026 H   0  0  0  0  0  0  0  0  0  0  0  0
   -2.5248    3.7234    1.7507 H   0  0  0  0  0  0  0  0  0  0  0  0
   -0.6736    4.0371    3.4299 H   0  0  0  0  0  0  0  0  0  0  0  0
   -1.9439    2.9369    4.0012 H   0  0  0  0  0  0  0  0  0  0  0  0
    0.3809    2.1483    4.5631 H   0  0  0  0  0  0  0  0  0  0  0  0
    0.7968    2.0768    2.8485 H   0  0  0  0  0  0  0  0  0  0  0  0
   -1.2598    0.3247    4.3307 H   0  0  0  0  0  0  0  0  0  0  0  0
   -1.1533    0.3673    2.5589 H   0  0  0  0  0  0  0  0  0  0  0  0
    1.2682   -0.3339    4.3282 H   0  0  0  0  0  0  0  0  0  0  0  0
    1.1590   -0.3737    2.5565 H   0  0  0  0  0  0  0  0  0  0  0  0
   -0.7912   -2.0832    2.8469 H   0  0  0  0  0  0  0  0  0  0  0  0
   -0.3718   -2.1578    4.5605 H   0  0  0  0  0  0  0  0  0  0  0  0
    1.9516   -2.9461    3.9925 H   0  0  0  0  0  0  0  0  0  0  0  0
    0.6799   -4.0448    3.4214 H   0  0  0  0  0  0  0  0  0  0  0  0
    2.2061   -1.9889    1.6955 H   0  0  0  0  0  0  0  0  0  0  0  0
    2.5278   -3.7284    1.7393 H   0  0  0  0  0  0  0  0  0  0  0  0
   -0.2357   -2.5923    0.9406 H   0  0  0  0  0  0  0  0  0  0  0  0
    0.3470   -4.2505    0.7170 H   0  0  0  0  0  0  0  0  0  0  0  0
    2.0323   -3.4168   -0.9669 H   0  0  0  0  0  0  0  0  0  0  0  0
    0.3248   -3.0415   -1.3969 H   0  0  0  0  0  0  0  0  0  0  0  0
  5 21  1  0  0  0  0
  6 32  1  0  0  0  0
  7 13  2  0  0  0  0
  8  3  1  0  0  0  0
  8  7  1  0  0  0  0
  9  8  2  0  0  0  0
 10 11  2  0  0  0  0
 10  9  1  0  0  0  0
 11 12  1  0  0  0  0
 12  7  1  0  0  0  0
 12  1  1  1  0  0  0
 13 36  1  0  0  0  0
 13  5  1  0  0  0  0
 14 20  2  0  0  0  0
 15 14  1  0  0  0  0
 15  4  1  0  0  0  0
 16 15  2  0  0  0  0
 17 18  2  0  0  0  0
 17 16  1  0  0  0  0
 18 19  1  0  0  0  0
 19 14  1  0  0  0  0
 19  2  1  1  0  0  0
 20 40  1  0  0  0  0
 20  6  1  0  0  0  0
 21 22  1  0  0  0  0
 22 43  1  0  0  0  0
 22 23  1  0  0  0  0
 23 24  1  0  0  0  0
 24 47  1  0  0  0  0
 24 25  1  0  0  0  0
 24 48  1  0  0  0  0
 25 49  1  0  0  0  0
 26 25  1  0  0  0  0
 26 51  1  0  0  0  0
 27 26  1  0  0  0  0
 27 28  1  0  0  0  0
 27 53  1  0  0  0  0
 28 56  1  0  0  0  0
 29 58  1  0  0  0  0
 29 28  1  0  0  0  0
 29 57  1  0  0  0  0
 30 29  1  0  0  0  0
 31 61  1  0  0  0  0
 31 30  1  0  0  0  0
 32 31  1  0  0  0  0
 33  9  1  0  0  0  0
 34 10  1  0  0  0  0
 35 11  1  0  0  0  0
 37 16  1  0  0  0  0
 38 17  1  0  0  0  0
 39 18  1  0  0  0  0
 41 21  1  0  0  0  0
 42 21  1  0  0  0  0
 44 22  1  0  0  0  0
 45 23  1  0  0  0  0
 46 23  1  0  0  0  0
 50 25  1  0  0  0  0
 52 26  1  0  0  0  0
 54 27  1  0  0  0  0
 55 28  1  0  0  0  0
 59 30  1  0  0  0  0
 60 30  1  0  0  0  0
 62 31  1  0  0  0  0
 63 32  1  0  0  0  0
 64 32  1  0  0  0  0
M  CHG  2   3  -1   4  -1
M  END
