3,4,5,6
q = -2.0, confidence = 0.834

 64 65  0  0  0  0  0  0  0  0999 V2000
   -6.4950    1.2478   -0.9798 F   0  0  0  0  0  0  0  0  0  0  0  0
    6.4952   -1.2469   -0.9806 F   0  0  0  0  0  0  0  0  0  0  0  0
   -1.8276    0.8473   -0.8752 O   0  5  0  0  0  0  0  0  0  0  0  0
    1.8278   -0.8465   -0.8751 O   0  5  0  0  0  0  0  0  0  0  0  0
   -0.7663   -1.8865   -0.8300 N   0  0  0  0  0  2  0  0  0  0  0  0
    0.7665    1.8873   -0.8285 N   0  0  0  0  0  2  0  0  0  0  0  0
   -3.1457   -1.2018   -0.9169 C   0  0  0  0  0  0  0  0  0  0  0  0
   -2.9796    0.2311   -0.9044 C   0  0  0  0  0  0  0  0  0  0  0  0
   -4.1512    1.0433   -0.9236 C   0  0  0  0  0  0  0  0  0  0  0  0
   -5.4076    0.4571   -0.9609 C   0  0  0  0  0  0  0  0  0  0  0  0
   -5.5970   -0.9427   -0.9789 C   0  0  0  0  0  0  0  0  0  0  0  0
   -4.4636   -1.7423   -0.9559 C   0  0  0  0  0  3  0  0  0  0  0  0
    3.1459    1.2027   -0.9156 C   0  0  0  0  0  0  0  0  0  0  0  0
    2.9798   -0.2303   -0.9041 C   0  0  0  0  0  0  0  0  0  0  0  0
    4.1513   -1.0424   -0.9240 C   0  0  0  0  0  0  0  0  0  0  0  0
    5.4078   -0.4563   -0.9609 C   0  0  0  0  0  0  0  0  0  0  0  0
    5.5972    0.9436   -0.9779 C   0  0  0  0  0  0  0  0  0  0  0  0
    4.4638    1.7432   -0.9543 C   0  0  0  0  0  3  0  0  0  0  0  0
   -2.0545   -2.1306   -0.8728 C   0  0  0  0  0  0  0  0  0  0  0  0
    2.0547    2.1314   -0.8709 C   0  0  0  0  0  0  0  0  0  0  0  0
    0.1284   -3.0481   -0.6940 C   0  0  0  0  0  0  0  0  0  0  0  0
    0.6974   -3.1801    0.7242 C   0  0  0  0  0  0  0  0  0  0  0  0
   -0.3430   -3.4086    1.8233 C   0  0  0  0  0  0  0  0  0  0  0  0
    0.2178   -3.2278    3.2445 C   0  0  0  0  0  0  0  0  0  0  0  0
    0.7518   -1.8179    3.5464 C   0  0  0  0  0  0  0  0  0  0  0  0
   -0.3006   -0.7057    3.4808 C   0  0  0  0  0  0  0  0  0  0  0  0
    0.2999    0.7024    3.4818 C   0  0  0  0  0  0  0  0  0  0  0  0
   -0.7527    1.8146    3.5474 C   0  0  0  0  0  0  0  0  0  0  0  0
   -0.2185    3.2247    3.2469 C   0  0  0  0  0  0  0  0  0  0  0  0
    0.3427    3.4068    1.8261 C   0  0  0  0  0  0  0  0  0  0  0  0
   -0.6975    3.1796    0.7265 C   0  0  0  0  0  0  0  0  0  0  0  0
   -0.1283    3.0488   -0.6917 C   0  0  0  0  0  0  0  0  0  0  0  0
   -4.0452    2.1360   -0.9118 H   0  0  0  0  0  0  0  0  0  0  0  0
   -6.6130   -1.3575   -1.0081 H   0  0  0  0  0  0  0  0  0  0  0  0
   -4.5745   -2.8382   -0.9648 H   0  0  0  0  0  0  0  0  0  0  0  0
    4.0454   -2.1351   -0.9130 H   0  0  0  0  0  0  0  0  0  0  0  0
    6.6132    1.3584   -1.0069 H   0  0  0  0  0  0  0  0  0  0  0  0
    4.5747    2.8390   -0.9624 H   0  0  0  0  0  0  0  0  0  0  0  0
   -2.3492   -3.1982   -0.8651 H   0  0  0  0  0  0  0  0  0  0  0  0
    2.3494    3.1991   -0.8624 H   0  0  0  0  0  0  0  0  0  0  0  0
    0.9634   -2.9220   -1.4076 H   0  0  0  0  0  0  0  0  0  0  0  0
   -0.4408   -3.9610   -0.9739 H   0  0  0  0  0  0  0  0  0  0  0  0
    1.4347   -4.0125    0.7169 H   0  0  0  0  0  0  0  0  0  0  0  0
    1.2784   -2.2596    0.9261 H   0  0  0  0  0  0  0  0  0  0  0  0
   -0.7795   -4.4269    1.7244 H   0  0  0  0  0  0  0  0  0  0  0  0
   -1.1908   -2.7048    1.6790 H   0  0  0  0  0  0  0  0  0  0  0  0
   -0.5775   -3.4823    3.9791 H   0  0  0  0  0  0  0  0  0  0  0  0
    1.0332   -3.9659    3.4110 H   0  0  0  0  0  0  0  0  0  0  0  0
    1.2235   -1.8163    4.5531 H   0  0  0  0  0  0  0  0  0  0  0  0
    1.5752   -1.5730    2.8397 H   0  0  0  0  0  0  0  0  0  0  0  0
   -1.0179   -0.8203    4.3248 H   0  0  0  0  0  0  0  0  0  0  0  0
   -0.9050   -0.8110    2.5528 H   0  0  0  0  0  0  0  0  0  0  0  0
    0.9054    0.8087    2.5547 H   0  0  0  0  0  0  0  0  0  0  0  0
    1.0162    0.8163    4.3268 H   0  0  0  0  0  0  0  0  0  0  0  0
   -1.2251    1.8121    4.5537 H   0  0  0  0  0  0  0  0  0  0  0  0
   -1.5755    1.5701    2.8399 H   0  0  0  0  0  0  0  0  0  0  0  0
    0.5766    3.4785    3.9820 H   0  0  0  0  0  0  0  0  0  0  0  0
   -1.0340    3.9627    3.4138 H   0  0  0  0  0  0  0  0  0  0  0  0
    0.7795    4.4251    1.7283 H   0  0  0  0  0  0  0  0  0  0  0  0
    1.1903    2.7029    1.6813 H   0  0  0  0  0  0  0  0  0  0  0  0
   -1.4346    4.0122    0.7198 H   0  0  0  0  0  0  0  0  0  0  0  0
   -1.2789    2.2591    0.9273 H   0  0  0  0  0  0  0  0  0  0  0  0
   -0.9630    2.9234   -1.4056 H   0  0  0  0  0  0  0  0  0  0  0  0
    0.4410    3.9619   -0.9707 H   0  0  0  0  0  0  0  0  0  0  0  0
  1 10  1  0  0  0  0
  2 16  1  0  0  0  0
  5 21  1  0  0  0  0
  6 32  1  0  0  0  0
  7  8  1  0  0  0  0
  7 19  2  0  0  0  0
  8  3  1  0  0  0  0
  9 33  1  0  0  0  0
  9  8  2  0  0  0  0
 10  9  1  0  0  0  0
 11 10  2  0  0  0  0
 11 12  1  0  0  0  0
 12  7  1  0  0  0  0
 13 14  1  0  0  0  0
 13 20  2  0  0  0  0
 14  4  1  0  0  0  0
 15 36  1  0  0  0  0
 15 14  2  0  0  0  0
 16 15  1  0  0  0  0
 17 16  2  0  0  0  0
 17 18  1  0  0  0  0
 18 13  1  0  0  0  0
 19 39  1  0  0  0  0
 19  5  1  0  0  0  0
 20 40  1  0  0  0  0
 20  6  1  0  0  0  0
 21 22  1  0  0  0  0
 22 44  1  0  0  0  0
 22 23  1  0  0  0  0
 23 24  1  0  0  0  0
 24 48  1  0  0  0  0
 24 25  1  0  0  0  0
 24 47  1  0  0  0  0
 25 49  1  0  0  0  0
 26 27  1  0  0  0  0
 26 25  1  0  0  0  0
 26 51  1  0  0  0  0
 27 28  1  0  0  0  0
 27 54  1  0  0  0  0
 28 55  1  0  0  0  0
 29 58  1  0  0  0  0
 29 28  1  0  0  0  0
 29 57  1  0  0  0  0
 30 29  1  0  0  0  0
 31 62  1  0  0  0  0
 31 30  1  0  0  0  0
 32 31  1  0  0  0  0
 34 11  1  0  0  0  0
 35 12  1  0  0  0  0
 37 17  1  0  0  0  0
 38 18  1  0  0  0  0
 41 21  1  0  0  0  0
 42 21  1  0  0  0  0
 43 22  1  0  0  0  0
 45 23  1  0  0  0  0
 46 23  1  0  0  0  0
 50 25  1  0  0  0  0
 52 26  1  0  0  0  0
 53 27  1  0  0  0  0
 56 28  1  0  0  0  0
 59 30  1  0  0  0  0
 60 30  1  0  0  0  0
 61 31  1  0  0  0  0
 63 32  1  0  0  0  0
 64 32  1  0  0  0  0
M  CHG  2   3  -1   4  -1
M  END
