3,4,5,6
q = -2.0, confidence = 0.92

 41 43  0  0  0  0  0  0  0  0999 V2000
   -7.3510   -1.3317   -0.1849 Br  0  0  0  0  0  0  0  0  0  0  0  0
    7.4938   -1.1626   -0.3231 Br  0  0  0  0  0  0  0  0  0  0  0  0
   -1.2867   -1.4685   -0.3539 O   0  5  0  0  0  0  0  0  0  0  0  0
    1.5534   -1.1854    0.9115 O   0  5  0  0  0  0  0  0  0  0  0  0
   -1.4143    1.4319    0.0063 N   0  0  0  0  0  2  0  0  0  0  0  0
    1.3433    1.0108   -0.9466 N   0  0  0  0  0  2  0  0  0  0  0  0
   -2.5766   -1.3659   -0.3221 C   0  0  0  0  0  0  0  0  0  0  0  0
   -3.3647   -2.5519   -0.5095 C   0  0  0  0  0  0  0  0  0  0  0  0
   -2.8109   -3.4864   -0.6817 H   0  0  0  0  0  0  0  0  0  0  0  0
   -4.7503   -2.5431   -0.4659 C   0  0  0  0  0  0  0  0  0  0  0  0
   -5.3170   -3.4758   -0.6037 H   0  0  0  0  0  0  0  0  0  0  0  0
   -5.4464   -1.3273   -0.2438 C   0  0  0  0  0  0  0  0  0  0  0  0
   -4.7405   -0.1466   -0.0798 C   0  0  0  0  0  0  0  0  0  0  0  0
   -5.2802    0.8000    0.0765 H   0  0  0  0  0  0  0  0  0  0  0  0
   -3.3128   -0.1249   -0.1126 C   0  0  0  0  0  0  0  0  0  0  0  0
   -2.6992    1.1672    0.0094 C   0  0  0  0  0  3  0  0  0  0  0  0
   -3.4068    2.0237    0.0715 H   0  0  0  0  0  0  0  0  0  0  0  0
   -0.9492    2.7561    0.1305 C   0  0  0  0  0  0  0  0  0  0  0  0
   -1.5149    3.6771    1.0376 C   0  0  0  0  0  0  0  0  0  0  0  0
   -2.3393    3.3516    1.6891 H   0  0  0  0  0  0  0  0  0  0  0  0
   -1.0007    4.9765    1.1419 C   0  0  0  0  0  0  0  0  0  0  0  0
   -1.4441    5.6810    1.8617 H   0  0  0  0  0  0  0  0  0  0  0  0
    0.0864    5.3698    0.3473 C   0  0  0  0  0  0  0  0  0  0  0  0
    0.4968    6.3868    0.4309 H   0  0  0  0  0  0  0  0  0  0  0  0
    0.6604    4.4517   -0.5470 C   0  0  0  0  0  0  0  0  0  0  0  0
    1.5160    4.7553   -1.1709 H   0  0  0  0  0  0  0  0  0  0  0  0
    0.1596    3.1468   -0.6702 C   0  0  0  0  0  0  0  0  0  0  0  0
    0.7689    2.1585   -1.6469 C   0  0  0  0  0  0  0  0  0  0  0  0
   -0.0236    1.7828   -2.3314 H   0  0  0  0  0  0  0  0  0  0  0  0
    1.5377    2.6688   -2.2679 H   0  0  0  0  0  0  0  0  0  0  0  0
    2.6317    0.8136   -1.0046 C   0  0  0  0  0  3  0  0  0  0  0  0
    3.2303    1.5064   -1.6396 H   0  0  0  0  0  0  0  0  0  0  0  0
    3.3933   -0.2029   -0.3270 C   0  0  0  0  0  0  0  0  0  0  0  0
    4.7931   -0.2301   -0.5906 C   0  0  0  0  0  0  0  0  0  0  0  0
    5.2130    0.4881   -1.3114 H   0  0  0  0  0  0  0  0  0  0  0  0
    5.6245   -1.1393    0.0476 C   0  0  0  0  0  0  0  0  0  0  0  0
    5.0848   -2.0527    0.9857 C   0  0  0  0  0  0  0  0  0  0  0  0
    5.7495   -2.7688    1.4909 H   0  0  0  0  0  0  0  0  0  0  0  0
    3.7243   -2.0431    1.2627 C   0  0  0  0  0  0  0  0  0  0  0  0
    3.2940   -2.7514    1.9859 H   0  0  0  0  0  0  0  0  0  0  0  0
    2.8182   -1.1378    0.6217 C   0  0  0  0  0  0  0  0  0  0  0  0
  2 36  1  0  0  0  0
  3  7  1  0  0  0  0
  5 16  1  0  0  0  0
  5 18  1  0  0  0  0
  7 15  1  0  0  0  0
  8 10  1  0  0  0  0
  8  7  2  0  0  0  0
  9  8  1  0  0  0  0
 10 12  2  0  0  0  0
 11 10  1  0  0  0  0
 12  1  1  0  0  0  0
 12 13  1  0  0  0  0
 13 14  1  0  0  0  0
 15 13  2  0  0  0  0
 15 16  1  0  0  0  0
 16 17  1  0  0  0  0
 18 19  1  0  0  0  0
 19 21  2  0  0  0  0
 19 20  1  0  0  0  0
 21 22  1  0  0  0  0
 23 24  1  0  0  0  0
 23 21  1  0  0  0  0
 25 23  2  0  0  0  0
 26 25  1  0  0  0  0
 27 25  1  0  0  0  0
 27 18  2  0  0  0  0
 28  6  1  0  0  0  0
 28 27  1  0  0  0  0
 29 28  1  0  0  0  0
 30 28  1  0  0  0  0
 31  6  1  0  0  0  0
 31 33  1  0  0  0  0
 32 31  1  0  0  0  0
 33 41  1  0  0  0  0
 34 33  2  0  0  0  0
 34 36  1  0  0  0  0
 35 34  1  0  0  0  0
 36 37  2  0  0  0  0
 37 39  1  0  0  0  0
 37 38  1  0  0  0  0
 39 40  1  0  0  0  0
 41  4  1  0  0  0  0
 41 39  2  0  0  0  0
M  CHG  2   3  -1   4  -1
M  END
