1,5,19,23
q = -2.0, confidence = 0.788

 56 57  0  0  0  0  0  0  0  0999 V2000
    0.6441    1.6389    1.7705 O   0  5  0  0  0  0  0  0  0  0  0  0
    0.0408    0.7789    2.5507 C   0  0  0  0  0  0  0  0  0  0  0  0
    0.4819    0.3671    3.6220 O   0  0  0  0  0  0  0  0  0  0  0  0
   -1.3298    0.3057    2.0277 C   0  0  0  0  0  0  0  0  0  0  0  0
   -1.3832    0.2772    0.5621 N   0  0  0  0  0  0  0  0  0  0  0  0
   -0.7645   -0.9137   -0.0412 C   0  0  0  0  0  0  0  0  0  0  0  0
   -2.6861    0.6115    0.0050 C   0  0  0  0  0  0  0  0  0  0  0  0
   -3.8082   -0.3682    0.3157 C   0  0  0  0  0  0  0  0  0  0  0  0
   -3.6570   -1.4501    0.8898 O   0  0  0  0  0  0  0  0  0  0  0  0
   -5.0505    0.0624   -0.1168 N   0  0  0  0  0  0  0  0  0  0  0  0
   -6.2527   -0.6235    0.0004 C   0  0  0  0  0  0  0  0  0  0  0  0
   -6.4389   -1.8548    0.5787 C   0  0  0  0  0  0  0  0  0  0  0  0
   -7.7009   -2.4225    0.6254 N   0  0  0  0  0  0  0  0  0  0  0  0
   -8.8603   -1.8469    0.1227 C   0  0  0  0  0  0  0  0  0  0  0  0
   -9.9656   -2.3714    0.1773 O   0  0  0  0  0  0  0  0  0  0  0  0
   -8.6214   -0.5960   -0.4538 N   0  0  0  0  0  0  0  0  0  0  0  0
   -7.4072    0.0933   -0.5684 C   0  0  0  0  0  0  0  0  0  0  0  0
   -7.3348    1.2000   -1.1010 O   0  0  0  0  0  0  0  0  0  0  0  0
   -0.6442    1.6396   -1.7700 O   0  5  0  0  0  0  0  0  0  0  0  0
   -0.0407    0.7799   -2.5507 C   0  0  0  0  0  0  0  0  0  0  0  0
   -0.4818    0.3687   -3.6221 O   0  0  0  0  0  0  0  0  0  0  0  0
    1.3298    0.3066   -2.0279 C   0  0  0  0  0  0  0  0  0  0  0  0
    1.3832    0.2775   -0.5622 N   0  0  0  0  0  0  0  0  0  0  0  0
    0.7645   -0.9137    0.0405 C   0  0  0  0  0  0  0  0  0  0  0  0
    2.6861    0.6115   -0.0049 C   0  0  0  0  0  0  0  0  0  0  0  0
    3.8083   -0.3679   -0.3160 C   0  0  0  0  0  0  0  0  0  0  0  0
    3.6571   -1.4497   -0.8904 O   0  0  0  0  0  0  0  0  0  0  0  0
    5.0505    0.0624    0.1167 N   0  0  0  0  0  0  0  0  0  0  0  0
    6.2527   -0.6235   -0.0005 C   0  0  0  0  0  0  0  0  0  0  0  0
    6.4390   -1.8545   -0.5793 C   0  0  0  0  0  0  0  0  0  0  0  0
    7.7010   -2.4223   -0.6260 N   0  0  0  0  0  0  0  0  0  0  0  0
    8.8603   -1.8469   -0.1230 C   0  0  0  0  0  0  0  0  0  0  0  0
    9.9656   -2.3714   -0.1776 O   0  0  0  0  0  0  0  0  0  0  0  0
    8.6213   -0.5962    0.4541 N   0  0  0  0  0  0  0  0  0  0  0  0
    7.4071    0.0931    0.5687 C   0  0  0  0  0  0  0  0  0  0  0  0
    7.3347    1.1996    1.1017 O   0  0  0  0  0  0  0  0  0  0  0  0
   -1.5936   -0.6693    2.4913 H   0  0  0  0  0  0  0  0  0  0  0  0
   -2.0645    1.0603    2.3776 H   0  0  0  0  0  0  0  0  0  0  0  0
   -1.0817   -0.9591   -1.1018 H   0  0  0  0  0  0  0  0  0  0  0  0
   -1.1415   -1.8447    0.4403 H   0  0  0  0  0  0  0  0  0  0  0  0
   -2.5704    0.7232   -1.0968 H   0  0  0  0  0  0  0  0  0  0  0  0
   -2.9393    1.6390    0.3518 H   0  0  0  0  0  0  0  0  0  0  0  0
   -5.1465    0.9703   -0.5883 H   0  0  0  0  0  0  0  0  0  0  0  0
   -5.5984   -2.4096    1.0125 H   0  0  0  0  0  0  0  0  0  0  0  0
   -7.8304   -3.3378    1.0574 H   0  0  0  0  0  0  0  0  0  0  0  0
   -9.4443   -0.1255   -0.8407 H   0  0  0  0  0  0  0  0  0  0  0  0
    1.5937   -0.6682   -2.4918 H   0  0  0  0  0  0  0  0  0  0  0  0
    2.0646    1.0613   -2.3774 H   0  0  0  0  0  0  0  0  0  0  0  0
    1.0818   -0.9596    1.1011 H   0  0  0  0  0  0  0  0  0  0  0  0
    1.1415   -1.8445   -0.4413 H   0  0  0  0  0  0  0  0  0  0  0  0
    2.5704    0.7228    1.0969 H   0  0  0  0  0  0  0  0  0  0  0  0
    2.9393    1.6392   -0.3514 H   0  0  0  0  0  0  0  0  0  0  0  0
    5.1465    0.9702    0.5887 H   0  0  0  0  0  0  0  0  0  0  0  0
    5.5984   -2.4091   -1.0134 H   0  0  0  0  0  0  0  0  0  0  0  0
    7.8304   -3.3374   -1.0584 H   0  0  0  0  0  0  0  0  0  0  0  0
    9.4442   -0.1259    0.8412 H   0  0  0  0  0  0  0  0  0  0  0  0
  1  2  1  0  0  0  0
  2  3  2  0  0  0  0
  4 38  1  0  0  0  0
  4 37  1  0  0  0  0
  4  2  1  0  0  0  0
  5  4  1  0  0  0  0
  6 24  1  0  0  0  0
  6 40  1  0  0  0  0
  6  5  1  0  0  0  0
  7  8  1  0  0  0  0
  7 42  1  0  0  0  0
  7  5  1  0  0  0  0
  8  9  2  0  0  0  0
 10 11  1  0  0  0  0
 10  8  1  0  0  0  0
 11 12  2  0  0  0  0
 12 13  1  0  0  0  0
 12 44  1  0  0  0  0
 13 45  1  0  0  0  0
 14 15  2  0  0  0  0
 14 13  1  0  0  0  0
 16 14  1  0  0  0  0
 17 16  1  0  0  0  0
 17 11  1  0  0  0  0
 18 17  2  0  0  0  0
 20 22  1  0  0  0  0
 20 19  1  0  0  0  0
 21 20  2  0  0  0  0
 22 23  1  0  0  0  0
 23 25  1  0  0  0  0
 23 24  1  0  0  0  0
 24 49  1  0  0  0  0
 25 51  1  0  0  0  0
 26 25  1  0  0  0  0
 26 28  1  0  0  0  0
 27 26  2  0  0  0  0
 28 53  1  0  0  0  0
 29 28  1  0  0  0  0
 29 35  1  0  0  0  0
 30 29  2  0  0  0  0
 31 30  1  0  0  0  0
 31 32  1  0  0  0  0
 32 34  1  0  0  0  0
 33 32  2  0  0  0  0
 34 35  1  0  0  0  0
 34 56  1  0  0  0  0
 35 36  2  0  0  0  0
 39  6  1  0  0  0  0
 41  7  1  0  0  0  0
 43 10  1  0  0  0  0
 46 16  1  0  0  0  0
 47 22  1  0  0  0  0
 48 22  1  0  0  0  0
 50 24  1  0  0  0  0
 52 25  1  0  0  0  0
 54 30  1  0  0  0  0
 55 31  1  0  0  0  0
M  CHG  2   1  -1  19  -1
M  END
