1,2,3,4
q = -2.0, confidence = 0.834

 56 60  0  0  1  0  0  0  0  0999 V2000
   -1.4086   -1.6226    0.1781 O   0  5  0  0  0  0  0  0  0  0  0  0
    1.0927   -1.7380    0.0014 O   0  5  0  0  0  0  0  0  0  0  0  0
   -1.3278    1.0394   -0.1720 N   0  0  0  0  0  2  0  0  0  0  0  0
    1.1913    0.9210   -0.5067 N   0  0  0  0  0  2  0  0  0  0  0  0
   -3.3967   -0.2508   -0.0417 C   0  0  0  0  0  0  0  0  0  0  0  0
   -2.6957   -1.4949    0.1398 C   0  0  0  0  0  0  0  0  0  0  0  0
   -3.4720   -2.7006    0.3089 C   0  0  0  0  0  0  0  0  0  0  0  0
   -2.9054   -3.6311    0.4562 H   0  0  0  0  0  0  0  0  0  0  0  0
   -4.8437   -2.6768    0.2840 C   0  0  0  0  0  0  0  0  0  0  0  0
   -5.4125   -3.6114    0.4148 H   0  0  0  0  0  0  0  0  0  0  0  0
   -5.5773   -1.4593    0.0852 C   0  0  0  0  0  0  0  0  0  0  0  0
   -6.9968   -1.4595    0.0521 C   0  0  0  0  0  0  0  0  0  0  0  0
   -7.5225   -2.4180    0.1874 H   0  0  0  0  0  0  0  0  0  0  0  0
   -7.7132   -0.2849   -0.1474 C   0  0  0  0  0  0  0  0  0  0  0  0
   -8.8129   -0.2974   -0.1716 H   0  0  0  0  0  0  0  0  0  0  0  0
   -7.0090    0.9278   -0.3250 C   0  0  0  0  0  0  0  0  0  0  0  0
   -7.5632    1.8643   -0.4914 H   0  0  0  0  0  0  0  0  0  0  0  0
   -5.6167    0.9529   -0.2976 C   0  0  0  0  0  0  0  0  0  0  0  0
   -5.1121    1.9171   -0.4539 H   0  0  0  0  0  0  0  0  0  0  0  0
   -4.8520   -0.2285   -0.0865 C   0  0  2  0  0  3  0  0  0  0  0  0
   -2.6420    0.9511   -0.1404 C   0  0  0  0  0  0  0  0  0  0  0  0
   -3.1909    1.9102   -0.1806 H   0  0  0  0  0  0  0  0  0  0  0  0
   -0.6852    2.3554   -0.1452 C   0  0  1  0  0  0  0  0  0  0  0  0
   -1.3424    3.1082   -0.6370 H   0  0  0  0  0  0  0  0  0  0  0  0
   -0.3981    2.8007    1.3003 C   0  0  0  0  0  0  0  0  0  0  0  0
    0.1317    1.9674    1.8103 H   0  0  0  0  0  0  0  0  0  0  0  0
   -1.3622    2.9369    1.8323 H   0  0  0  0  0  0  0  0  0  0  0  0
    0.4540    4.0730    1.3492 C   0  0  0  0  0  0  0  0  0  0  0  0
   -0.1129    4.9208    0.9023 H   0  0  0  0  0  0  0  0  0  0  0  0
    0.6536    4.3535    2.4037 H   0  0  0  0  0  0  0  0  0  0  0  0
    1.7691    3.8833    0.5833 C   0  0  0  0  0  0  0  0  0  0  0  0
    2.3860    3.1157    1.0989 H   0  0  0  0  0  0  0  0  0  0  0  0
    2.3643    4.8194    0.5895 H   0  0  0  0  0  0  0  0  0  0  0  0
    1.4954    3.4509   -0.8623 C   0  0  0  0  0  0  0  0  0  0  0  0
    2.4358    3.3105   -1.4344 H   0  0  0  0  0  0  0  0  0  0  0  0
    0.9550    4.2656   -1.3913 H   0  0  0  0  0  0  0  0  0  0  0  0
    0.6075    2.2025   -0.9623 C   0  0  1  0  0  0  0  0  0  0  0  0
    0.3135    2.0555   -2.0264 H   0  0  0  0  0  0  0  0  0  0  0  0
    2.4928    0.7242   -0.4940 C   0  0  0  0  0  0  0  0  0  0  0  0
    3.1241    1.5840   -0.7718 H   0  0  0  0  0  0  0  0  0  0  0  0
    3.1616   -0.4940   -0.1849 C   0  0  0  0  0  0  0  0  0  0  0  0
    2.3849   -1.6870    0.0190 C   0  0  0  0  0  0  0  0  0  0  0  0
    3.0831   -2.9315    0.2398 C   0  0  0  0  0  0  0  0  0  0  0  0
    2.4591   -3.8263    0.3757 H   0  0  0  0  0  0  0  0  0  0  0  0
    4.4538   -2.9841    0.2776 C   0  0  0  0  0  0  0  0  0  0  0  0
    4.9628   -3.9464    0.4478 H   0  0  0  0  0  0  0  0  0  0  0  0
    5.2625   -1.8104    0.1081 C   0  0  0  0  0  0  0  0  0  0  0  0
    6.6790   -1.8847    0.1687 C   0  0  0  0  0  0  0  0  0  0  0  0
    7.1439   -2.8682    0.3415 H   0  0  0  0  0  0  0  0  0  0  0  0
    7.4676   -0.7495    0.0179 C   0  0  0  0  0  0  0  0  0  0  0  0
    8.5643   -0.8194    0.0674 H   0  0  0  0  0  0  0  0  0  0  0  0
    6.8405    0.4998   -0.1919 C   0  0  0  0  0  0  0  0  0  0  0  0
    7.4521    1.4085   -0.3019 H   0  0  0  0  0  0  0  0  0  0  0  0
    5.4526    0.5979   -0.2543 C   0  0  0  0  0  0  0  0  0  0  0  0
    5.0092    1.5934   -0.4003 H   0  0  0  0  0  0  0  0  0  0  0  0
    4.6155   -0.5451   -0.1180 C   0  0  2  0  0  3  0  0  0  0  0  0
  2 42  1  0  0  0  0
  3 23  1  0  0  0  0
  3 21  1  0  0  0  0
  4 39  1  0  0  0  0
  5  6  1  0  0  0  0
  6  1  1  0  0  0  0
  6  7  2  0  0  0  0
  7  8  1  0  0  0  0
  9  7  1  0  0  0  0
  9 10  1  0  0  0  0
 11  9  2  0  0  0  0
 12 11  1  0  0  0  0
 12 13  1  0  0  0  0
 14 12  2  0  0  0  0
 15 14  1  0  0  0  0
 16 18  2  0  0  0  0
 16 14  1  0  0  0  0
 17 16  1  0  0  0  0
 19 18  1  0  0  0  0
 20 18  1  6  0  0  0
 20  5  1  0  0  0  0
 20 11  1  0  0  0  0
 21  5  2  0  0  0  0
 22 21  1  0  0  0  0
 23 24  1  6  0  0  0
 23 25  1  0  0  0  0
 25 28  1  0  0  0  0
 25 26  1  0  0  0  0
 25 27  1  0  0  0  0
 28 30  1  0  0  0  0
 29 28  1  0  0  0  0
 31 33  1  0  0  0  0
 31 32  1  0  0  0  0
 31 28  1  0  0  0  0
 34 31  1  0  0  0  0
 35 34  1  0  0  0  0
 36 34  1  0  0  0  0
 37 38  1  6  0  0  0
 37 34  1  0  0  0  0
 37  4  1  0  0  0  0
 37 23  1  0  0  0  0
 39 41  2  0  0  0  0
 40 39  1  0  0  0  0
 41 56  1  0  0  0  0
 41 42  1  0  0  0  0
 42 43  2  0  0  0  0
 43 45  1  0  0  0  0
 43 44  1  0  0  0  0
 45 46  1  0  0  0  0
 47 48  1  0  0  0  0
 47 45  2  0  0  0  0
 48 49  1  0  0  0  0
 50 51  1  0  0  0  0
 50 48  2  0  0  0  0
 52 50  1  0  0  0  0
 53 52  1  0  0  0  0
 54 52  2  0  0  0  0
 55 54  1  0  0  0  0
 56 54  1  1  0  0  0
 56 47  1  0  0  0  0
M  CHG  2   1  -1   2  -1
M  END
