1,2,42,43
q = -2.0, confidence = 0.628

 82 84  0  0  0  0  0  0  0  0999 V2000
   -1.7142   -1.5682    0.1933 O   0  5  0  0  0  0  0  0  0  0  0  0
   -1.3002    0.9404    0.0893 N   0  0  0  0  0  2  0  0  0  0  0  0
   -0.7269    2.1623    0.0997 C   0  0  0  0  0  0  0  0  0  0  0  0
   -1.3803    3.4192    0.3224 C   0  0  0  0  0  0  0  0  0  0  0  0
   -0.6859    4.6071    0.1943 C   0  0  0  0  0  0  0  0  0  0  0  0
   -2.6314    0.5862    0.0619 C   0  0  0  0  0  0  0  0  0  0  0  0
   -2.8108   -0.8457    0.1767 C   0  0  0  0  0  0  0  0  0  0  0  0
   -4.1182   -1.4200    0.2530 C   0  0  0  0  0  0  0  0  0  0  0  0
   -5.1909   -0.5364    0.1276 C   0  0  0  0  0  0  0  0  0  0  0  0
   -5.0513    0.8668   -0.0935 C   0  0  0  0  0  0  0  0  0  0  0  0
   -3.7699    1.4146   -0.1241 C   0  0  0  0  0  0  0  0  0  0  0  0
   -4.2922   -2.9343    0.4365 C   0  0  0  0  0  0  0  0  0  0  0  0
   -3.5865   -3.3744    1.7421 C   0  0  0  0  0  0  0  0  0  0  0  0
   -3.6774   -3.6686   -0.7799 C   0  0  0  0  0  0  0  0  0  0  0  0
   -5.7761   -3.3279    0.5361 C   0  0  0  0  0  0  0  0  0  0  0  0
   -6.3155    1.7154   -0.3057 C   0  0  0  0  0  0  0  0  0  0  0  0
   -7.0764    1.1911   -1.5457 C   0  0  0  0  0  0  0  0  0  0  0  0
   -7.2187    1.5996    0.9441 C   0  0  0  0  0  0  0  0  0  0  0  0
   -5.9862    3.2009   -0.5301 C   0  0  0  0  0  0  0  0  0  0  0  0
   -2.4291    3.4365    0.6355 H   0  0  0  0  0  0  0  0  0  0  0  0
   -1.2000    5.5617    0.3814 H   0  0  0  0  0  0  0  0  0  0  0  0
   -6.2074   -0.9491    0.1697 H   0  0  0  0  0  0  0  0  0  0  0  0
   -3.6418    2.4768   -0.3436 H   0  0  0  0  0  0  0  0  0  0  0  0
   -2.5114   -3.1163    1.7343 H   0  0  0  0  0  0  0  0  0  0  0  0
   -4.0516   -2.8849    2.6219 H   0  0  0  0  0  0  0  0  0  0  0  0
   -3.6818   -4.4723    1.8713 H   0  0  0  0  0  0  0  0  0  0  0  0
   -2.6049   -3.4299   -0.9002 H   0  0  0  0  0  0  0  0  0  0  0  0
   -4.2007   -3.3825   -1.7148 H   0  0  0  0  0  0  0  0  0  0  0  0
   -3.7805   -4.7658   -0.6505 H   0  0  0  0  0  0  0  0  0  0  0  0
   -5.8567   -4.4233    0.6839 H   0  0  0  0  0  0  0  0  0  0  0  0
   -6.3376   -3.0768   -0.3869 H   0  0  0  0  0  0  0  0  0  0  0  0
   -6.2794   -2.8383    1.3948 H   0  0  0  0  0  0  0  0  0  0  0  0
   -7.9982    1.7857   -1.7128 H   0  0  0  0  0  0  0  0  0  0  0  0
   -7.3775    0.1312   -1.4279 H   0  0  0  0  0  0  0  0  0  0  0  0
   -6.4474    1.2640   -2.4556 H   0  0  0  0  0  0  0  0  0  0  0  0
   -8.1427    2.1987    0.8081 H   0  0  0  0  0  0  0  0  0  0  0  0
   -7.5249    0.5526    1.1388 H   0  0  0  0  0  0  0  0  0  0  0  0
   -6.6948    1.9718    1.8475 H   0  0  0  0  0  0  0  0  0  0  0  0
   -5.3602    3.3539   -1.4324 H   0  0  0  0  0  0  0  0  0  0  0  0
   -6.9228    3.7755   -0.6750 H   0  0  0  0  0  0  0  0  0  0  0  0
   -5.4579    3.6417    0.3398 H   0  0  0  0  0  0  0  0  0  0  0  0
    1.7142   -1.5683   -0.1929 O   0  5  0  0  0  0  0  0  0  0  0  0
    1.3002    0.9404   -0.0890 N   0  0  0  0  0  2  0  0  0  0  0  0
    0.7269    2.1623   -0.0994 C   0  0  0  0  0  0  0  0  0  0  0  0
    1.3803    3.4192   -0.3221 C   0  0  0  0  0  0  0  0  0  0  0  0
    0.6859    4.6071   -0.1940 C   0  0  0  0  0  0  0  0  0  0  0  0
    2.6314    0.5862   -0.0618 C   0  0  0  0  0  0  0  0  0  0  0  0
    2.8108   -0.8458   -0.1765 C   0  0  0  0  0  0  0  0  0  0  0  0
    4.1181   -1.4201   -0.2530 C   0  0  0  0  0  0  0  0  0  0  0  0
    5.1909   -0.5365   -0.1279 C   0  0  0  0  0  0  0  0  0  0  0  0
    5.0513    0.8668    0.0933 C   0  0  0  0  0  0  0  0  0  0  0  0
    3.7699    1.4146    0.1241 C   0  0  0  0  0  0  0  0  0  0  0  0
    4.2922   -2.9343   -0.4366 C   0  0  0  0  0  0  0  0  0  0  0  0
    3.5859   -3.3744   -1.7420 C   0  0  0  0  0  0  0  0  0  0  0  0
    3.6778   -3.6687    0.7799 C   0  0  0  0  0  0  0  0  0  0  0  0
    5.7759   -3.3279   -0.5368 C   0  0  0  0  0  0  0  0  0  0  0  0
    6.3156    1.7154    0.3052 C   0  0  0  0  0  0  0  0  0  0  0  0
    7.0766    1.1910    1.5451 C   0  0  0  0  0  0  0  0  0  0  0  0
    7.2185    1.5995   -0.9447 C   0  0  0  0  0  0  0  0  0  0  0  0
    5.9863    3.2009    0.5297 C   0  0  0  0  0  0  0  0  0  0  0  0
    2.4290    3.4365   -0.6352 H   0  0  0  0  0  0  0  0  0  0  0  0
    1.2000    5.5617   -0.3810 H   0  0  0  0  0  0  0  0  0  0  0  0
    6.2074   -0.9491   -0.1701 H   0  0  0  0  0  0  0  0  0  0  0  0
    3.6419    2.4767    0.3436 H   0  0  0  0  0  0  0  0  0  0  0  0
    2.5108   -3.1163   -1.7338 H   0  0  0  0  0  0  0  0  0  0  0  0
    4.0507   -2.8849   -2.6219 H   0  0  0  0  0  0  0  0  0  0  0  0
    3.6812   -4.4723   -1.8712 H   0  0  0  0  0  0  0  0  0  0  0  0
    2.6054   -3.4300    0.9007 H   0  0  0  0  0  0  0  0  0  0  0  0
    4.2014   -3.3825    1.7147 H   0  0  0  0  0  0  0  0  0  0  0  0
    3.7809   -4.7659    0.6505 H   0  0  0  0  0  0  0  0  0  0  0  0
    5.8566   -4.4233   -0.6847 H   0  0  0  0  0  0  0  0  0  0  0  0
    6.3378   -3.0767    0.3860 H   0  0  0  0  0  0  0  0  0  0  0  0
    6.2790   -2.8383   -1.3957 H   0  0  0  0  0  0  0  0  0  0  0  0
    7.9985    1.7857    1.7121 H   0  0  0  0  0  0  0  0  0  0  0  0
    7.3777    0.1312    1.4272 H   0  0  0  0  0  0  0  0  0  0  0  0
    6.4478    1.2640    2.4551 H   0  0  0  0  0  0  0  0  0  0  0  0
    8.1426    2.1986   -0.8089 H   0  0  0  0  0  0  0  0  0  0  0  0
    7.5248    0.5526   -1.1395 H   0  0  0  0  0  0  0  0  0  0  0  0
    6.6945    1.9718   -1.8480 H   0  0  0  0  0  0  0  0  0  0  0  0
    5.3605    3.3539    1.4321 H   0  0  0  0  0  0  0  0  0  0  0  0
    6.9230    3.7755    0.6744 H   0  0  0  0  0  0  0  0  0  0  0  0
    5.4578    3.6417   -0.3401 H   0  0  0  0  0  0  0  0  0  0  0  0
  2  3  1  0  0  0  0
  3  4  1  0  0  0  0
  4 20  1  0  0  0  0
  5  4  2  0  0  0  0
  5 21  1  0  0  0  0
  6  2  1  0  0  0  0
  6  7  1  0  0  0  0
  7  1  1  0  0  0  0
  7  8  2  0  0  0  0
  8 12  1  0  0  0  0
  9 22  1  0  0  0  0
  9  8  1  0  0  0  0
 10  9  2  0  0  0  0
 11 10  1  0  0  0  0
 11  6  2  0  0  0  0
 12 15  1  0  0  0  0
 12 13  1  0  0  0  0
 13 26  1  0  0  0  0
 13 25  1  0  0  0  0
 14 29  1  0  0  0  0
 14 12  1  0  0  0  0
 15 30  1  0  0  0  0
 15 32  1  0  0  0  0
 16 10  1  0  0  0  0
 16 18  1  0  0  0  0
 17 34  1  0  0  0  0
 17 16  1  0  0  0  0
 18 37  1  0  0  0  0
 18 38  1  0  0  0  0
 19 16  1  0  0  0  0
 19 41  1  0  0  0  0
 23 11  1  0  0  0  0
 24 13  1  0  0  0  0
 27 14  1  0  0  0  0
 28 14  1  0  0  0  0
 31 15  1  0  0  0  0
 33 17  1  0  0  0  0
 35 17  1  0  0  0  0
 36 18  1  0  0  0  0
 39 19  1  0  0  0  0
 40 19  1  0  0  0  0
 42 48  1  0  0  0  0
 43 47  1  0  0  0  0
 44 43  1  0  0  0  0
 44  3  2  0  0  0  0
 45 46  2  0  0  0  0
 45 44  1  0  0  0  0
 46  5  1  0  0  0  0
 47 52  1  0  0  0  0
 48 47  2  0  0  0  0
 49 48  1  0  0  0  0
 49 50  2  0  0  0  0
 50 51  1  0  0  0  0
 51 52  2  0  0  0  0
 51 57  1  0  0  0  0
 52 64  1  0  0  0  0
 53 49  1  0  0  0  0
 53 55  1  0  0  0  0
 54 65  1  0  0  0  0
 54 53  1  0  0  0  0
 55 68  1  0  0  0  0
 55 69  1  0  0  0  0
 56 53  1  0  0  0  0
 56 72  1  0  0  0  0
 57 60  1  0  0  0  0
 57 58  1  0  0  0  0
 58 74  1  0  0  0  0
 58 76  1  0  0  0  0
 59 77  1  0  0  0  0
 59 57  1  0  0  0  0
 60 81  1  0  0  0  0
 60 80  1  0  0  0  0
 61 45  1  0  0  0  0
 62 46  1  0  0  0  0
 63 50  1  0  0  0  0
 66 54  1  0  0  0  0
 67 54  1  0  0  0  0
 70 55  1  0  0  0  0
 71 56  1  0  0  0  0
 73 56  1  0  0  0  0
 75 58  1  0  0  0  0
 78 59  1  0  0  0  0
 79 59  1  0  0  0  0
 82 60  1  0  0  0  0
M  CHG  2   1  -1  42  -1
M  END
