1,4,8,10
q = -2.0, confidence = 0.806

 54 56  0  0  1  0  0  0  0  0999 V2000
   -1.3569   -1.9907    0.0156 O   0  5  0  0  0  0  0  0  0  0  0  0
   -5.1550   -0.1878   -0.0241 O   0  0  0  0  0  0  0  0  0  0  0  0
   -4.2013    0.1783   -0.0094 H   0  0  0  0  0  0  0  0  0  0  0  0
    1.3566   -1.9909   -0.0157 O   0  5  0  0  0  0  0  0  0  0  0  0
    5.1543   -0.1881    0.0236 O   0  0  0  0  0  0  0  0  0  0  0  0
    4.2006    0.1778    0.0086 H   0  0  0  0  0  0  0  0  0  0  0  0
   -2.6046   -0.0650   -0.0228 N   0  0  0  0  0  0  0  0  0  0  0  0
   -1.3615    0.5031    0.0161 N   0  0  0  0  0  2  0  0  0  0  0  0
    2.6046   -0.0653    0.0228 N   0  0  0  0  0  0  0  0  0  0  0  0
    1.3616    0.5029   -0.0161 N   0  0  0  0  0  2  0  0  0  0  0  0
    0.0003    3.9053    0.0001 N   0  0  0  0  0  0  0  0  0  0  0  0
   -2.5132   -1.4029   -0.0070 C   0  0  0  0  0  0  0  0  0  0  0  0
   -3.7568   -2.1788   -0.0087 C   0  0  0  0  0  0  0  0  0  0  0  0
   -5.0317   -1.5213   -0.0208 C   0  0  0  0  0  0  0  0  0  0  0  0
   -6.2027   -2.3146   -0.0271 C   0  0  0  0  0  0  0  0  0  0  0  0
   -7.1723   -1.7960   -0.0363 H   0  0  0  0  0  0  0  0  0  0  0  0
   -6.1184   -3.7085   -0.0212 C   0  0  0  0  0  0  0  0  0  0  0  0
   -7.0448   -4.3037   -0.0266 H   0  0  0  0  0  0  0  0  0  0  0  0
   -4.8659   -4.3580   -0.0078 C   0  0  0  0  0  0  0  0  0  0  0  0
   -4.8087   -5.4562   -0.0029 H   0  0  0  0  0  0  0  0  0  0  0  0
   -3.7004   -3.5916   -0.0016 C   0  0  0  0  0  0  0  0  0  0  0  0
   -2.7048   -4.0586    0.0079 H   0  0  0  0  0  0  0  0  0  0  0  0
   -1.2818    1.8390   -0.0560 C   0  0  1  0  0  3  0  0  0  0  0  0
    0.0002    2.4817    0.0001 C   0  0  0  0  0  0  0  0  0  0  0  0
    1.2821    1.8388    0.0561 C   0  0  0  0  0  0  0  0  0  0  0  0
   -2.5660    2.5899   -0.3109 C   0  0  0  0  0  0  0  0  0  0  0  0
   -3.1330    2.0675   -1.1070 H   0  0  0  0  0  0  0  0  0  0  0  0
   -2.3980    3.6338   -0.6273 H   0  0  0  0  0  0  0  0  0  0  0  0
   -3.2280    2.5930    0.5805 H   0  0  0  0  0  0  0  0  0  0  0  0
    2.5665    2.5894    0.3112 C   0  0  0  0  0  0  0  0  0  0  0  0
    3.1334    2.0669    1.1072 H   0  0  0  0  0  0  0  0  0  0  0  0
    2.3987    3.6334    0.6276 H   0  0  0  0  0  0  0  0  0  0  0  0
    3.2285    2.5924   -0.5802 H   0  0  0  0  0  0  0  0  0  0  0  0
    2.5130   -1.4032    0.0069 C   0  0  0  0  0  0  0  0  0  0  0  0
    3.7566   -2.1792    0.0086 C   0  0  0  0  0  0  0  0  0  0  0  0
    5.0314   -1.5216    0.0206 C   0  0  0  0  0  0  0  0  0  0  0  0
    6.2024   -2.3148    0.0270 C   0  0  0  0  0  0  0  0  0  0  0  0
    7.1720   -1.7961    0.0361 H   0  0  0  0  0  0  0  0  0  0  0  0
    6.1182   -3.7087    0.0213 C   0  0  0  0  0  0  0  0  0  0  0  0
    7.0447   -4.3039    0.0268 H   0  0  0  0  0  0  0  0  0  0  0  0
    4.8658   -4.3583    0.0080 C   0  0  0  0  0  0  0  0  0  0  0  0
    4.8087   -5.4565    0.0034 H   0  0  0  0  0  0  0  0  0  0  0  0
    3.7002   -3.5920    0.0017 C   0  0  0  0  0  0  0  0  0  0  0  0
    2.7046   -4.0591   -0.0076 H   0  0  0  0  0  0  0  0  0  0  0  0
    0.7401    4.6089   -0.9305 C   0  0  0  0  0  3  0  0  0  0  0  0
    1.2540    3.9955   -1.6803 H   0  0  0  0  0  0  0  0  0  0  0  0
    0.7699    5.9953   -0.9290 C   0  0  0  0  0  0  0  0  0  0  0  0
    1.3759    6.5054   -1.6910 H   0  0  0  0  0  0  0  0  0  0  0  0
    0.0003    6.7220    0.0000 C   0  0  0  0  0  0  0  0  0  0  0  0
    0.0003    7.8204   -0.0000 H   0  0  0  0  0  0  0  0  0  0  0  0
   -0.7694    5.9953    0.9290 C   0  0  0  0  0  0  0  0  0  0  0  0
   -1.3754    6.5055    1.6910 H   0  0  0  0  0  0  0  0  0  0  0  0
   -0.7397    4.6090    0.9306 C   0  0  0  0  0  0  0  0  0  0  0  0
   -1.2536    3.9956    1.6803 H   0  0  0  0  0  0  0  0  0  0  0  0
  2 14  1  0  0  0  0
  2  3  1  0  0  0  0
  4 34  1  0  0  0  0
  6  5  1  0  0  0  0
  7 12  2  0  0  0  0
  7  8  1  0  0  0  0
 10  9  1  0  0  0  0
 10 25  1  0  0  0  0
 11 24  1  0  0  0  0
 11 53  1  0  0  0  0
 12  1  1  0  0  0  0
 13 12  1  0  0  0  0
 13 21  1  0  0  0  0
 14 13  2  0  0  0  0
 15 17  2  0  0  0  0
 15 14  1  0  0  0  0
 16 15  1  0  0  0  0
 17 19  1  0  0  0  0
 18 17  1  0  0  0  0
 19 20  1  0  0  0  0
 19 21  2  0  0  0  0
 21 22  1  0  0  0  0
 23 24  1  6  0  0  0
 23  8  1  0  0  0  0
 24 25  2  0  0  0  0
 25 30  1  0  0  0  0
 26 23  1  0  0  0  0
 26 29  1  0  0  0  0
 27 26  1  0  0  0  0
 28 26  1  0  0  0  0
 30 32  1  0  0  0  0
 30 31  1  0  0  0  0
 33 30  1  0  0  0  0
 34 35  1  0  0  0  0
 34  9  2  0  0  0  0
 35 36  1  0  0  0  0
 36  5  1  0  0  0  0
 36 37  2  0  0  0  0
 37 38  1  0  0  0  0
 39 40  1  0  0  0  0
 39 37  1  0  0  0  0
 41 39  2  0  0  0  0
 42 41  1  0  0  0  0
 43 41  1  0  0  0  0
 43 35  2  0  0  0  0
 44 43  1  0  0  0  0
 45 47  1  0  0  0  0
 45 11  1  0  0  0  0
 46 45  1  0  0  0  0
 47 49  2  0  0  0  0
 48 47  1  0  0  0  0
 49 51  1  0  0  0  0
 50 49  1  0  0  0  0
 51 53  2  0  0  0  0
 51 52  1  0  0  0  0
 53 54  1  0  0  0  0
M  CHG  2   1  -1   4  -1
M  END
