1,2,3,4
q = -2.0, confidence = 0.868

 47 50  0  0  1  0  0  0  0  0999 V2000
   -2.0434   -1.7041    0.3472 O   0  5  0  0  0  0  0  0  0  0  0  0
    0.4012   -1.6091    0.5307 O   0  5  0  0  0  0  0  0  0  0  0  0
    0.4679    1.0390    0.0255 N   0  0  0  0  0  2  0  0  0  0  0  0
   -2.1433    0.7543   -0.8249 N   0  0  0  0  0  2  0  0  0  0  0  0
    0.0446    2.3647    0.2982 C   0  0  0  0  0  0  0  0  0  0  0  0
   -3.3287   -1.7451    0.1820 C   0  0  0  0  0  0  0  0  0  0  0  0
    0.2424    4.4717    1.5090 C   0  0  0  0  0  0  0  0  0  0  0  0
    0.7380    5.0789    2.2815 H   0  0  0  0  0  0  0  0  0  0  0  0
    1.6795   -1.5973    0.3732 C   0  0  0  0  0  0  0  0  0  0  0  0
   -4.0476   -2.9043    0.6176 C   0  0  0  0  0  0  0  0  0  0  0  0
   -3.4628   -3.7120    1.0804 H   0  0  0  0  0  0  0  0  0  0  0  0
   -5.4250   -2.9921    0.4642 C   0  0  0  0  0  0  0  0  0  0  0  0
   -5.9477   -3.8956    0.8161 H   0  0  0  0  0  0  0  0  0  0  0  0
    3.8776   -0.5269   -0.2064 C   0  0  1  0  0  3  0  0  0  0  0  0
   -1.6804    1.9988   -1.4574 C   0  0  0  0  0  0  0  0  0  0  0  0
   -2.5268    2.5169   -1.9538 H   0  0  0  0  0  0  0  0  0  0  0  0
   -0.9406    1.7312   -2.2439 H   0  0  0  0  0  0  0  0  0  0  0  0
    1.7811    0.8202   -0.0179 C   0  0  0  0  0  0  0  0  0  0  0  0
    2.4114    1.7277   -0.0333 H   0  0  0  0  0  0  0  0  0  0  0  0
   -3.4272    0.4787   -0.9201 C   0  0  0  0  0  0  0  0  0  0  0  0
   -4.0589    1.2183   -1.4515 H   0  0  0  0  0  0  0  0  0  0  0  0
    2.4392   -0.4311    0.0021 C   0  0  0  0  0  0  0  0  0  0  0  0
    0.6744    3.1576    1.2810 C   0  0  0  0  0  0  0  0  0  0  0  0
    1.4850    2.7247    1.8855 H   0  0  0  0  0  0  0  0  0  0  0  0
   -1.4694    4.2065   -0.1899 C   0  0  0  0  0  0  0  0  0  0  0  0
   -2.3153    4.6115   -0.7676 H   0  0  0  0  0  0  0  0  0  0  0  0
    2.3921   -2.8276    0.6300 C   0  0  0  0  0  0  0  0  0  0  0  0
    1.7877   -3.6897    0.9456 H   0  0  0  0  0  0  0  0  0  0  0  0
    4.5368   -1.7794    0.0431 C   0  0  0  0  0  0  0  0  0  0  0  0
    3.7525   -2.9060    0.4697 C   0  0  0  0  0  0  0  0  0  0  0  0
    4.2734   -3.8580    0.6609 H   0  0  0  0  0  0  0  0  0  0  0  0
   -4.0902   -0.6837   -0.4310 C   0  0  0  0  0  0  0  0  0  0  0  0
   -1.0401    2.8959   -0.4374 C   0  0  0  0  0  0  0  0  0  0  0  0
    6.0538    0.4257   -0.8276 C   0  0  0  0  0  0  0  0  0  0  0  0
    6.6408    1.2876   -1.1802 H   0  0  0  0  0  0  0  0  0  0  0  0
    4.6764    0.5577   -0.6592 C   0  0  0  0  0  0  0  0  0  0  0  0
    4.2060    1.5206   -0.9059 H   0  0  0  0  0  0  0  0  0  0  0  0
   -5.5011   -0.8122   -0.5800 C   0  0  0  0  0  3  0  0  0  0  0  0
   -6.0556    0.0131   -1.0558 H   0  0  0  0  0  0  0  0  0  0  0  0
   -6.1703   -1.9445   -0.1380 C   0  0  0  0  0  0  0  0  0  0  0  0
   -7.2599   -2.0329   -0.2543 H   0  0  0  0  0  0  0  0  0  0  0  0
    5.9395   -1.8905   -0.1398 C   0  0  0  0  0  0  0  0  0  0  0  0
    6.4191   -2.8618    0.0597 H   0  0  0  0  0  0  0  0  0  0  0  0
   -0.8287    5.0023    0.7741 C   0  0  0  0  0  0  0  0  0  0  0  0
   -1.1749    6.0297    0.9596 H   0  0  0  0  0  0  0  0  0  0  0  0
    6.6979   -0.8039   -0.5643 C   0  0  0  0  0  0  0  0  0  0  0  0
    7.7846   -0.9019   -0.7036 H   0  0  0  0  0  0  0  0  0  0  0  0
  3  5  1  0  0  0  0
  5 23  1  0  0  0  0
  6  1  1  0  0  0  0
  6 10  2  0  0  0  0
  7  8  1  0  0  0  0
  9  2  1  0  0  0  0
  9 27  2  0  0  0  0
 10 11  1  0  0  0  0
 12 10  1  0  0  0  0
 12 13  1  0  0  0  0
 14 36  1  6  0  0  0
 14 22  1  0  0  0  0
 14 29  1  0  0  0  0
 15  4  1  0  0  0  0
 15 33  1  0  0  0  0
 16 15  1  0  0  0  0
 17 15  1  0  0  0  0
 18 22  2  0  0  0  0
 18  3  1  0  0  0  0
 19 18  1  0  0  0  0
 20  4  1  0  0  0  0
 20 32  2  0  0  0  0
 21 20  1  0  0  0  0
 22  9  1  0  0  0  0
 23  7  2  0  0  0  0
 23 24  1  0  0  0  0
 25 44  2  0  0  0  0
 26 25  1  0  0  0  0
 27 28  1  0  0  0  0
 29 30  2  0  0  0  0
 30 27  1  0  0  0  0
 30 31  1  0  0  0  0
 32  6  1  0  0  0  0
 33 25  1  0  0  0  0
 33  5  2  0  0  0  0
 34 36  2  0  0  0  0
 34 46  1  0  0  0  0
 35 34  1  0  0  0  0
 37 36  1  0  0  0  0
 38 32  1  0  0  0  0
 38 40  1  0  0  0  0
 39 38  1  0  0  0  0
 40 12  2  0  0  0  0
 41 40  1  0  0  0  0
 42 29  1  0  0  0  0
 42 43  1  0  0  0  0
 44 45  1  0  0  0  0
 44  7  1  0  0  0  0
 46 42  2  0  0  0  0
 47 46  1  0  0  0  0
M  CHG  2   1  -1   2  -1
M  END
