63,64,65,68
q = -2.0, confidence = 0.858

 68 73  0  0  0  0  0  0  0  0999 V2000
   -2.5743   -1.0818   -1.0209 C   0  0  0  0  0  0  0  0  0  0  0  0
   -3.3628   -2.2314   -1.3932 C   0  0  0  0  0  0  0  0  0  0  0  0
   -2.8133   -3.1697   -1.5556 H   0  0  0  0  0  0  0  0  0  0  0  0
   -4.7252   -2.1498   -1.5340 C   0  0  0  0  0  0  0  0  0  0  0  0
   -5.3042   -3.0425   -1.8202 H   0  0  0  0  0  0  0  0  0  0  0  0
   -5.4334   -0.9195   -1.3221 C   0  0  0  0  0  0  0  0  0  0  0  0
   -4.6928    0.2536   -0.9406 C   0  0  0  0  0  0  0  0  0  0  0  0
   -3.2491    0.1624   -0.7614 C   0  0  0  0  0  0  0  0  0  0  0  0
   -5.4280    1.4611   -0.7761 C   0  0  0  0  0  0  0  0  0  0  0  0
   -4.9039    2.3953   -0.5287 H   0  0  0  0  0  0  0  0  0  0  0  0
   -6.8102    1.5049   -0.9446 C   0  0  0  0  0  0  0  0  0  0  0  0
   -7.3411    2.4596   -0.8079 H   0  0  0  0  0  0  0  0  0  0  0  0
   -7.5315    0.3429   -1.3007 C   0  0  0  0  0  0  0  0  0  0  0  0
   -8.6225    0.3854   -1.4356 H   0  0  0  0  0  0  0  0  0  0  0  0
   -6.8412   -0.8492   -1.4910 C   0  0  0  0  0  0  0  0  0  0  0  0
   -7.3791   -1.7654   -1.7821 H   0  0  0  0  0  0  0  0  0  0  0  0
   -2.5271    1.2660   -0.2273 C   0  0  0  0  0  3  0  0  0  0  0  0
   -3.1225    2.0952    0.1944 H   0  0  0  0  0  0  0  0  0  0  0  0
   -0.7023    2.5086    0.5797 C   0  0  0  0  0  0  0  0  0  0  0  0
   -1.1737    3.8089    0.3051 C   0  0  0  0  0  0  0  0  0  0  0  0
   -1.8806    3.9458   -0.5266 H   0  0  0  0  0  0  0  0  0  0  0  0
   -0.7462    4.9099    1.0588 C   0  0  0  0  0  0  0  0  0  0  0  0
   -1.1275    5.9143    0.8221 H   0  0  0  0  0  0  0  0  0  0  0  0
    0.1775    4.7295    2.0999 C   0  0  0  0  0  0  0  0  0  0  0  0
    0.5251    5.5895    2.6915 H   0  0  0  0  0  0  0  0  0  0  0  0
    0.6882    3.4499    2.3630 C   0  0  0  0  0  0  0  0  0  0  0  0
    1.4477    3.2969    3.1445 H   0  0  0  0  0  0  0  0  0  0  0  0
    0.2681    2.3421    1.6097 C   0  0  0  0  0  0  0  0  0  0  0  0
    0.6635    0.3805    2.9900 C   0  0  0  0  0  0  0  0  0  0  0  0
    0.7146    1.0342    3.8914 H   0  0  0  0  0  0  0  0  0  0  0  0
    1.5125   -0.3323    3.0326 H   0  0  0  0  0  0  0  0  0  0  0  0
   -0.6636   -0.3805    2.9900 C   0  0  0  0  0  0  0  0  0  0  0  0
   -0.7147   -1.0342    3.8914 H   0  0  0  0  0  0  0  0  0  0  0  0
   -1.5126    0.3323    3.0325 H   0  0  0  0  0  0  0  0  0  0  0  0
   -0.2681   -2.3421    1.6096 C   0  0  0  0  0  0  0  0  0  0  0  0
   -0.6883   -3.4499    2.3630 C   0  0  0  0  0  0  0  0  0  0  0  0
   -1.4478   -3.2969    3.1444 H   0  0  0  0  0  0  0  0  0  0  0  0
   -0.1776   -4.7294    2.0999 C   0  0  0  0  0  0  0  0  0  0  0  0
   -0.5252   -5.5894    2.6915 H   0  0  0  0  0  0  0  0  0  0  0  0
    0.7462   -4.9099    1.0589 C   0  0  0  0  0  0  0  0  0  0  0  0
    1.1275   -5.9142    0.8221 H   0  0  0  0  0  0  0  0  0  0  0  0
    1.1737   -3.8089    0.3052 C   0  0  0  0  0  0  0  0  0  0  0  0
    1.8806   -3.9458   -0.5266 H   0  0  0  0  0  0  0  0  0  0  0  0
    0.7023   -2.5086    0.5798 C   0  0  0  0  0  0  0  0  0  0  0  0
    2.5271   -1.2660   -0.2273 C   0  0  0  0  0  3  0  0  0  0  0  0
    3.1225   -2.0952    0.1944 H   0  0  0  0  0  0  0  0  0  0  0  0
    3.2491   -0.1624   -0.7614 C   0  0  0  0  0  0  0  0  0  0  0  0
    2.5744    1.0818   -1.0209 C   0  0  0  0  0  0  0  0  0  0  0  0
    3.3628    2.2314   -1.3932 C   0  0  0  0  0  0  0  0  0  0  0  0
    2.8133    3.1697   -1.5557 H   0  0  0  0  0  0  0  0  0  0  0  0
    4.7253    2.1498   -1.5340 C   0  0  0  0  0  0  0  0  0  0  0  0
    5.3043    3.0425   -1.8202 H   0  0  0  0  0  0  0  0  0  0  0  0
    5.4334    0.9195   -1.3221 C   0  0  0  0  0  0  0  0  0  0  0  0
    4.6928   -0.2537   -0.9406 C   0  0  0  0  0  0  0  0  0  0  0  0
    5.4280   -1.4612   -0.7760 C   0  0  0  0  0  0  0  0  0  0  0  0
    4.9039   -2.3953   -0.5287 H   0  0  0  0  0  0  0  0  0  0  0  0
    6.8102   -1.5050   -0.9445 C   0  0  0  0  0  0  0  0  0  0  0  0
    7.3411   -2.4596   -0.8079 H   0  0  0  0  0  0  0  0  0  0  0  0
    7.5315   -0.3430   -1.3007 C   0  0  0  0  0  0  0  0  0  0  0  0
    8.6225   -0.3855   -1.4355 H   0  0  0  0  0  0  0  0  0  0  0  0
    6.8412    0.8491   -1.4910 C   0  0  0  0  0  0  0  0  0  0  0  0
    7.3791    1.7653   -1.7821 H   0  0  0  0  0  0  0  0  0  0  0  0
   -1.2126    1.3737   -0.1020 N   0  0  0  0  0  2  0  0  0  0  0  0
    1.2125   -1.3737   -0.1020 N   0  0  0  0  0  2  0  0  0  0  0  0
   -1.2980   -1.2678   -0.9165 O   0  5  0  0  0  0  0  0  0  0  0  0
    0.8527    1.1139    1.7881 O   0  0  0  0  0  0  0  0  0  0  0  0
   -0.8528   -1.1139    1.7881 O   0  0  0  0  0  0  0  0  0  0  0  0
    1.2981    1.2678   -0.9166 O   0  5  0  0  0  0  0  0  0  0  0  0
  1 65  1  0  0  0  0
  1  8  1  0  0  0  0
  2  1  2  0  0  0  0
  3  2  1  0  0  0  0
  4  2  1  0  0  0  0
  4  6  2  0  0  0  0
  5  4  1  0  0  0  0
  6  7  1  0  0  0  0
  7  9  1  0  0  0  0
  7  8  2  0  0  0  0
  8 17  1  0  0  0  0
  9 10  1  0  0  0  0
 11 12  1  0  0  0  0
 11  9  2  0  0  0  0
 13 11  1  0  0  0  0
 14 13  1  0  0  0  0
 15  6  1  0  0  0  0
 15 13  2  0  0  0  0
 16 15  1  0  0  0  0
 17 63  1  0  0  0  0
 17 18  1  0  0  0  0
 19 28  1  0  0  0  0
 20 19  2  0  0  0  0
 20 22  1  0  0  0  0
 21 20  1  0  0  0  0
 22 24  2  0  0  0  0
 23 22  1  0  0  0  0
 24 26  1  0  0  0  0
 24 25  1  0  0  0  0
 26 27  1  0  0  0  0
 28 66  1  0  0  0  0
 28 26  2  0  0  0  0
 29 31  1  0  0  0  0
 29 30  1  0  0  0  0
 32 29  1  0  0  0  0
 32 34  1  0  0  0  0
 32 33  1  0  0  0  0
 35 67  1  0  0  0  0
 35 36  1  0  0  0  0
 36 37  1  0  0  0  0
 38 36  2  0  0  0  0
 38 39  1  0  0  0  0
 40 38  1  0  0  0  0
 41 40  1  0  0  0  0
 42 44  1  0  0  0  0
 42 40  2  0  0  0  0
 43 42  1  0  0  0  0
 44 35  2  0  0  0  0
 45 64  1  0  0  0  0
 45 46  1  0  0  0  0
 47 45  1  0  0  0  0
 48 68  1  0  0  0  0
 48 47  2  0  0  0  0
 49 48  1  0  0  0  0
 50 49  1  0  0  0  0
 51 49  2  0  0  0  0
 51 53  1  0  0  0  0
 52 51  1  0  0  0  0
 53 54  1  0  0  0  0
 54 55  2  0  0  0  0
 54 47  1  0  0  0  0
 55 56  1  0  0  0  0
 57 58  1  0  0  0  0
 57 55  1  0  0  0  0
 59 57  2  0  0  0  0
 60 59  1  0  0  0  0
 61 53  2  0  0  0  0
 61 59  1  0  0  0  0
 62 61  1  0  0  0  0
 63 19  1  0  0  0  0
 64 44  1  0  0  0  0
 66 29  1  0  0  0  0
 67 32  1  0  0  0  0
M  CHG  2  65  -1  68  -1
M  END
