1,18,24,30
q = -2.0, confidence = 0.85

 30 31  0  0  1  0  0  0  0  0999 V2000
   -1.6623    0.1539   -0.3122 N   0  0  0  0  0  2  0  0  0  0  0  0
   -2.2046    1.3783   -0.6869 C   0  0  0  0  0  0  0  0  0  0  0  0
   -1.5863    2.5658   -1.1177 C   0  0  0  0  0  0  0  0  0  0  0  0
   -0.4926    2.6204   -1.1941 H   0  0  0  0  0  0  0  0  0  0  0  0
   -2.4151    3.6485   -1.4338 C   0  0  0  0  0  0  0  0  0  0  0  0
   -1.9631    4.5912   -1.7762 H   0  0  0  0  0  0  0  0  0  0  0  0
   -3.8243    3.5622   -1.3262 C   0  0  0  0  0  0  0  0  0  0  0  0
   -4.4380    4.4378   -1.5848 H   0  0  0  0  0  0  0  0  0  0  0  0
   -4.4578    2.3863   -0.9020 C   0  0  0  0  0  0  0  0  0  0  0  0
   -5.5528    2.3207   -0.8246 H   0  0  0  0  0  0  0  0  0  0  0  0
   -3.6248    1.3025   -0.5888 C   0  0  0  0  0  0  0  0  0  0  0  0
   -3.8807    0.0076   -0.1494 N   0  0  0  0  0  0  0  0  0  0  0  0
   -4.7973   -0.4015    0.0320 H   0  0  0  0  0  0  0  0  0  0  0  0
   -2.6823   -0.6392   -0.0046 C   0  0  1  0  0  3  0  0  0  0  0  0
   -2.5155   -2.0827    0.3797 C   0  0  0  0  0  0  0  0  0  0  0  0
   -2.6550   -2.6912   -0.5410 H   0  0  0  0  0  0  0  0  0  0  0  0
   -3.3286   -2.3915    1.0837 H   0  0  0  0  0  0  0  0  0  0  0  0
   -1.1788   -2.3124    0.8888 N   0  0  0  0  0  0  0  0  0  0  0  0
   -0.5443   -3.5278    0.3781 C   0  0  0  0  0  0  0  0  0  0  0  0
   -1.1534   -4.4467    0.5398 H   0  0  0  0  0  0  0  0  0  0  0  0
    0.4124   -3.6594    0.9238 H   0  0  0  0  0  0  0  0  0  0  0  0
   -0.1945   -3.4076   -1.1362 C   0  0  0  0  0  0  0  0  0  0  0  0
   -0.1678   -4.4258   -1.8229 O   0  5  0  0  0  0  0  0  0  0  0  0
    0.0718   -2.1939   -1.5330 O   0  0  0  0  0  0  0  0  0  0  0  0
   -0.9594   -2.0055    2.2983 C   0  0  0  0  0  0  0  0  0  0  0  0
   -1.1955   -2.8566    2.9784 H   0  0  0  0  0  0  0  0  0  0  0  0
   -1.6328   -1.1696    2.5893 H   0  0  0  0  0  0  0  0  0  0  0  0
    0.8530   -1.4970    3.7782 O   0  5  0  0  0  0  0  0  0  0  0  0
    0.4949   -1.5222    2.6027 C   0  0  0  0  0  0  0  0  0  0  0  0
    1.1904   -1.1495    1.5687 O   0  0  0  0  0  0  0  0  0  0  0  0
  1 14  1  0  0  0  0
  2 11  1  0  0  0  0
  2  1  1  0  0  0  0
  3  2  2  0  0  0  0
  4  3  1  0  0  0  0
  5  7  2  0  0  0  0
  5  3  1  0  0  0  0
  6  5  1  0  0  0  0
  7  9  1  0  0  0  0
  8  7  1  0  0  0  0
  9 10  1  0  0  0  0
  9 11  2  0  0  0  0
 11 12  1  0  0  0  0
 12 14  1  0  0  0  0
 12 13  1  0  0  0  0
 14 15  1  6  0  0  0
 15 18  1  0  0  0  0
 15 17  1  0  0  0  0
 16 15  1  0  0  0  0
 18 25  1  0  0  0  0
 19 20  1  0  0  0  0
 19 18  1  0  0  0  0
 19 21  1  0  0  0  0
 22 19  1  0  0  0  0
 23 22  1  0  0  0  0
 24 22  2  0  0  0  0
 25 27  1  0  0  0  0
 25 29  1  0  0  0  0
 25 26  1  0  0  0  0
 29 28  1  0  0  0  0
 30 29  2  0  0  0  0
M  CHG  2  23  -1  28  -1
M  END
