3,4,5,6
q = -2.0, confidence = 0.994

 62 64  0  0  0  0  0  0  0  0999 V2000
   -6.6995    1.5376   -0.1553 Cl  0  0  0  0  0  0  0  0  0  0  0  0
   -6.6341   -1.6438   -0.3755 Cl  0  0  0  0  0  0  0  0  0  0  0  0
    1.3730    1.5888   -0.1542 O   0  5  0  0  0  0  0  0  0  0  0  0
    1.2725   -1.2831   -0.8194 O   0  5  0  0  0  0  0  0  0  0  0  0
   -1.5017    1.3866   -0.0127 N   0  0  0  0  0  2  0  0  0  0  0  0
   -1.4562   -1.2877   -0.1728 N   0  0  0  0  0  2  0  0  0  0  0  0
    1.1836    2.8607   -0.0293 C   0  0  0  0  0  0  0  0  0  0  0  0
    2.3333    3.7508    0.0005 C   0  0  0  0  0  0  0  0  0  0  0  0
    2.1068    5.1224    0.1031 C   0  0  0  0  0  0  0  0  0  0  0  0
    2.9679    5.8046    0.1214 H   0  0  0  0  0  0  0  0  0  0  0  0
    0.8106    5.6951    0.1893 C   0  0  0  0  0  0  0  0  0  0  0  0
    0.6970    6.7860    0.2673 H   0  0  0  0  0  0  0  0  0  0  0  0
   -0.2935    4.8671    0.1769 C   0  0  0  0  0  0  0  0  0  0  0  0
   -1.3108    5.2860    0.2465 H   0  0  0  0  0  0  0  0  0  0  0  0
   -0.1501    3.4485    0.0719 C   0  0  0  0  0  0  0  0  0  0  0  0
   -1.3644    2.6973    0.0600 C   0  0  0  0  0  3  0  0  0  0  0  0
   -2.2801    3.3234    0.1171 H   0  0  0  0  0  0  0  0  0  0  0  0
   -2.7404    0.7433   -0.0744 C   0  0  0  0  0  0  0  0  0  0  0  0
   -3.9906    1.3965   -0.0794 C   0  0  0  0  0  0  0  0  0  0  0  0
   -4.0554    2.4908   -0.0221 H   0  0  0  0  0  0  0  0  0  0  0  0
   -5.1894    0.6807   -0.1585 C   0  0  0  0  0  0  0  0  0  0  0  0
   -5.1616   -0.7324   -0.2506 C   0  0  0  0  0  0  0  0  0  0  0  0
   -3.9325   -1.3986   -0.2533 C   0  0  0  0  0  0  0  0  0  0  0  0
   -3.9385   -2.4922   -0.3524 H   0  0  0  0  0  0  0  0  0  0  0  0
   -2.7148   -0.6939   -0.1543 C   0  0  0  0  0  0  0  0  0  0  0  0
   -1.2391   -2.5757   -0.0322 C   0  0  0  0  0  3  0  0  0  0  0  0
   -2.0952   -3.2522    0.1873 H   0  0  0  0  0  0  0  0  0  0  0  0
    0.0397   -3.2219   -0.0963 C   0  0  0  0  0  0  0  0  0  0  0  0
    0.0807   -4.6025    0.2559 C   0  0  0  0  0  0  0  0  0  0  0  0
   -0.8615   -5.1014    0.5377 H   0  0  0  0  0  0  0  0  0  0  0  0
    1.2765   -5.3015    0.2564 C   0  0  0  0  0  0  0  0  0  0  0  0
    1.3068   -6.3659    0.5312 H   0  0  0  0  0  0  0  0  0  0  0  0
    2.4706   -4.6332   -0.1225 C   0  0  0  0  0  0  0  0  0  0  0  0
    3.4047   -5.2122   -0.1136 H   0  0  0  0  0  0  0  0  0  0  0  0
    2.5098   -3.2890   -0.4953 C   0  0  0  0  0  0  0  0  0  0  0  0
    1.2665   -2.5309   -0.4929 C   0  0  0  0  0  0  0  0  0  0  0  0
    3.7560    3.1630   -0.0621 C   0  0  0  0  0  0  0  0  0  0  0  0
    3.9463    2.3533   -1.3679 C   0  0  0  0  0  0  0  0  0  0  0  0
    3.8122    3.0069   -2.2541 H   0  0  0  0  0  0  0  0  0  0  0  0
    3.2250    1.5195   -1.4329 H   0  0  0  0  0  0  0  0  0  0  0  0
    4.9740    1.9348   -1.4064 H   0  0  0  0  0  0  0  0  0  0  0  0
    3.9847    2.2531    1.1695 C   0  0  0  0  0  0  0  0  0  0  0  0
    3.2370    1.4409    1.2097 H   0  0  0  0  0  0  0  0  0  0  0  0
    3.9163    2.8426    2.1068 H   0  0  0  0  0  0  0  0  0  0  0  0
    4.9954    1.7962    1.1244 H   0  0  0  0  0  0  0  0  0  0  0  0
    4.8322    4.2636   -0.0355 C   0  0  0  0  0  0  0  0  0  0  0  0
    5.8360    3.7952   -0.0797 H   0  0  0  0  0  0  0  0  0  0  0  0
    4.7899    4.8695    0.8927 H   0  0  0  0  0  0  0  0  0  0  0  0
    4.7475    4.9500   -0.9028 H   0  0  0  0  0  0  0  0  0  0  0  0
    3.8264   -2.5859   -0.8747 C   0  0  0  0  0  0  0  0  0  0  0  0
    5.0275   -3.5464   -0.8176 C   0  0  0  0  0  0  0  0  0  0  0  0
    5.1869   -3.9595    0.1999 H   0  0  0  0  0  0  0  0  0  0  0  0
    5.9488   -2.9983   -1.0993 H   0  0  0  0  0  0  0  0  0  0  0  0
    4.9172   -4.3954   -1.5229 H   0  0  0  0  0  0  0  0  0  0  0  0
    4.0968   -1.4261    0.1141 C   0  0  0  0  0  0  0  0  0  0  0  0
    3.2733   -0.6907    0.1027 H   0  0  0  0  0  0  0  0  0  0  0  0
    5.0330   -0.8980   -0.1615 H   0  0  0  0  0  0  0  0  0  0  0  0
    4.2241   -1.8121    1.1479 H   0  0  0  0  0  0  0  0  0  0  0  0
    3.7293   -2.0307   -2.3161 C   0  0  0  0  0  0  0  0  0  0  0  0
    3.5628   -2.8532   -3.0414 H   0  0  0  0  0  0  0  0  0  0  0  0
    4.6761   -1.5198   -2.5888 H   0  0  0  0  0  0  0  0  0  0  0  0
    2.9002   -1.3062   -2.4052 H   0  0  0  0  0  0  0  0  0  0  0  0
  2 22  1  0  0  0  0
  3  7  1  0  0  0  0
  4 36  1  0  0  0  0
  5 16  1  0  0  0  0
  6 25  1  0  0  0  0
  6 26  1  0  0  0  0
  7  8  2  0  0  0  0
  7 15  1  0  0  0  0
  8  9  1  0  0  0  0
  9 10  1  0  0  0  0
  9 11  2  0  0  0  0
 11 12  1  0  0  0  0
 13 11  1  0  0  0  0
 13 14  1  0  0  0  0
 15 13  2  0  0  0  0
 16 15  1  0  0  0  0
 16 17  1  0  0  0  0
 18  5  1  0  0  0  0
 19 18  1  0  0  0  0
 19 20  1  0  0  0  0
 21  1  1  0  0  0  0
 21 19  2  0  0  0  0
 22 21  1  0  0  0  0
 23 22  2  0  0  0  0
 23 25  1  0  0  0  0
 24 23  1  0  0  0  0
 25 18  2  0  0  0  0
 26 27  1  0  0  0  0
 28 26  1  0  0  0  0
 28 29  1  0  0  0  0
 29 31  2  0  0  0  0
 29 30  1  0  0  0  0
 31 32  1  0  0  0  0
 33 34  1  0  0  0  0
 33 31  1  0  0  0  0
 35 36  1  0  0  0  0
 35 33  2  0  0  0  0
 36 28  2  0  0  0  0
 37 46  1  0  0  0  0
 37  8  1  0  0  0  0
 37 42  1  0  0  0  0
 38 37  1  0  0  0  0
 39 38  1  0  0  0  0
 40 38  1  0  0  0  0
 41 38  1  0  0  0  0
 42 43  1  0  0  0  0
 42 44  1  0  0  0  0
 45 42  1  0  0  0  0
 46 48  1  0  0  0  0
 47 46  1  0  0  0  0
 49 46  1  0  0  0  0
 50 51  1  0  0  0  0
 50 35  1  0  0  0  0
 50 55  1  0  0  0  0
 51 52  1  0  0  0  0
 53 51  1  0  0  0  0
 54 51  1  0  0  0  0
 55 58  1  0  0  0  0
 56 55  1  0  0  0  0
 57 55  1  0  0  0  0
 59 50  1  0  0  0  0
 60 59  1  0  0  0  0
 61 59  1  0  0  0  0
 62 59  1  0  0  0  0
M  CHG  2   3  -1   4  -1
M  END
