1,2,5,7
q = -1.0

 34 35  0  0  0  0  0  0  0  0999 V2000
   -0.6340   -2.1092    0.0350 O   0  5  0  0  0  0  0  0  0  0  0  0
    1.8200   -1.5086    0.0010 O   0  5  0  0  0  0  0  0  0  0  0  0
   -2.8879    4.7877   -0.2962 O   0  0  0  0  0  0  0  0  0  0  0  0
   -0.8509    4.6510    0.4935 O   0  0  0  0  0  0  0  0  0  0  0  0
   -1.2361    0.5621   -0.0213 N   0  0  0  0  0  2  0  0  0  0  0  0
    0.3504    2.2823   -0.0495 N   0  0  0  0  0  0  0  0  0  0  0  0
    1.1219    1.1572   -0.0344 N   0  0  0  0  0  2  0  0  0  0  0  0
   -2.0189    2.7737   -0.0947 N   0  0  0  0  0  2  0  0  0  0  0  0
   -1.8830    4.1390    0.0368 N   0  0  0  0  0  0  0  0  0  0  0  0
   -0.9414    1.9851   -0.0379 C   0  0  0  0  0  0  0  0  0  0  0  0
   -2.4883    0.1477   -0.0355 C   0  0  0  0  0  0  0  0  0  0  0  0
   -2.8925   -1.2193   -0.0101 C   0  0  0  0  0  0  0  0  0  0  0  0
   -1.9146   -2.2916    0.0270 C   0  0  0  0  0  0  0  0  0  0  0  0
   -2.4225   -3.6343    0.0545 C   0  0  0  0  0  0  0  0  0  0  0  0
   -3.7859   -3.8968    0.0440 C   0  0  0  0  0  0  0  0  0  0  0  0
   -4.7372   -2.8432    0.0051 C   0  0  0  0  0  0  0  0  0  0  0  0
   -4.2831   -1.5310   -0.0217 C   0  0  0  0  0  3  0  0  0  0  0  0
    2.4311    1.3460   -0.0400 C   0  0  0  0  0  0  0  0  0  0  0  0
    3.4214    0.3138   -0.0287 C   0  0  0  0  0  0  0  0  0  0  0  0
    4.7975    0.6717   -0.0365 C   0  0  0  0  0  3  0  0  0  0  0  0
    5.8071   -0.2881   -0.0228 C   0  0  0  0  0  0  0  0  0  0  0  0
    5.4478   -1.6571    0.0008 C   0  0  0  0  0  0  0  0  0  0  0  0
    4.1103   -2.0448    0.0102 C   0  0  0  0  0  0  0  0  0  0  0  0
    3.0488   -1.0853   -0.0055 C   0  0  0  0  0  0  0  0  0  0  0  0
   -3.2515    0.9481   -0.0711 H   0  0  0  0  0  0  0  0  0  0  0  0
   -1.6772   -4.4429    0.0836 H   0  0  0  0  0  0  0  0  0  0  0  0
   -4.1339   -4.9427    0.0658 H   0  0  0  0  0  0  0  0  0  0  0  0
   -5.8147   -3.0645   -0.0033 H   0  0  0  0  0  0  0  0  0  0  0  0
   -4.9981   -0.6927   -0.0516 H   0  0  0  0  0  0  0  0  0  0  0  0
    2.7502    2.4031   -0.0519 H   0  0  0  0  0  0  0  0  0  0  0  0
    3.8165   -3.1049    0.0286 H   0  0  0  0  0  0  0  0  0  0  0  0
    6.2345   -2.4293    0.0120 H   0  0  0  0  0  0  0  0  0  0  0  0
    6.8654    0.0132   -0.0296 H   0  0  0  0  0  0  0  0  0  0  0  0
    5.0526    1.7443   -0.0539 H   0  0  0  0  0  0  0  0  0  0  0  0
  3  9  2  0  0  0  0
  6 10  2  0  0  0  0
  6  7  1  0  0  0  0
  8 10  1  0  0  0  0
  8  9  1  0  0  0  0
  9  4  2  0  0  0  0
 10  5  1  0  0  0  0
 11  5  1  0  0  0  0
 11 12  2  0  0  0  0
 12 13  1  0  0  0  0
 13  1  1  0  0  0  0
 13 14  2  0  0  0  0
 14 26  1  0  0  0  0
 15 14  1  0  0  0  0
 15 27  1  0  0  0  0
 16 15  2  0  0  0  0
 17 12  1  0  0  0  0
 17 16  1  0  0  0  0
 18  7  1  0  0  0  0
 18 19  2  0  0  0  0
 19 24  1  0  0  0  0
 20 19  1  0  0  0  0
 20 21  1  0  0  0  0
 21 22  2  0  0  0  0
 22 23  1  0  0  0  0
 22 32  1  0  0  0  0
 23 31  1  0  0  0  0
 24  2  1  0  0  0  0
 24 23  2  0  0  0  0
 25 11  1  0  0  0  0
 28 16  1  0  0  0  0
 29 17  1  0  0  0  0
 30 18  1  0  0  0  0
 33 21  1  0  0  0  0
 34 20  1  0  0  0  0
M  CHG  2   1  -1   2  -1
M  END
