1,3,28,30
q = -2.0, confidence = 0.792

 54 57  0  0  0  0  0  0  0  0999 V2000
    1.2242   -0.1149    0.0544 N   0  0  0  0  0  2  0  0  0  0  0  0
    2.5214    0.2320    0.0493 N   0  0  0  0  0  0  0  0  0  0  0  0
    1.5484    2.3457    0.0714 O   0  5  0  0  0  0  0  0  0  0  0  0
    0.7403   -1.3610   -0.0027 C   0  0  0  0  0  0  0  0  0  0  0  0
    1.5868   -2.5562   -0.1390 C   0  0  0  0  0  0  0  0  0  0  0  0
    2.8039   -2.6800    0.5743 C   0  0  0  0  0  0  0  0  0  0  0  0
    3.1192   -1.8674    1.2410 H   0  0  0  0  0  0  0  0  0  0  0  0
    3.5946   -3.8263    0.4302 C   0  0  0  0  0  0  0  0  0  0  0  0
    4.5326   -3.9130    0.9993 H   0  0  0  0  0  0  0  0  0  0  0  0
    3.1986   -4.8602   -0.4345 C   0  0  0  0  0  0  0  0  0  0  0  0
    3.8255   -5.7577   -0.5473 H   0  0  0  0  0  0  0  0  0  0  0  0
    2.0006   -4.7413   -1.1573 C   0  0  0  0  0  0  0  0  0  0  0  0
    1.6873   -5.5414   -1.8448 H   0  0  0  0  0  0  0  0  0  0  0  0
    1.1980   -3.6041   -1.0098 C   0  0  0  0  0  0  0  0  0  0  0  0
    0.2655   -3.5157   -1.5845 H   0  0  0  0  0  0  0  0  0  0  0  0
    2.5947    1.5778    0.0539 C   0  0  0  0  0  0  0  0  0  0  0  0
    3.9352    2.1992    0.0438 C   0  0  0  0  0  0  0  0  0  0  0  0
    4.0444    3.6059    0.0941 C   0  0  0  0  0  0  0  0  0  0  0  0
    3.1204    4.1997    0.1388 H   0  0  0  0  0  0  0  0  0  0  0  0
    5.3062    4.2120    0.0872 C   0  0  0  0  0  0  0  0  0  0  0  0
    5.3881    5.3088    0.1278 H   0  0  0  0  0  0  0  0  0  0  0  0
    6.4670    3.4219    0.0278 C   0  0  0  0  0  0  0  0  0  0  0  0
    7.4584    3.9003    0.0214 H   0  0  0  0  0  0  0  0  0  0  0  0
    6.3631    2.0207   -0.0256 C   0  0  0  0  0  0  0  0  0  0  0  0
    7.2726    1.4029   -0.0754 H   0  0  0  0  0  0  0  0  0  0  0  0
    5.1048    1.4083   -0.0178 C   0  0  0  0  0  0  0  0  0  0  0  0
    5.0005    0.3151   -0.0646 H   0  0  0  0  0  0  0  0  0  0  0  0
   -1.2242   -0.1149   -0.0544 N   0  0  0  0  0  2  0  0  0  0  0  0
   -2.5214    0.2320   -0.0494 N   0  0  0  0  0  0  0  0  0  0  0  0
   -1.5484    2.3457   -0.0715 O   0  5  0  0  0  0  0  0  0  0  0  0
   -0.7403   -1.3610    0.0027 C   0  0  0  0  0  0  0  0  0  0  0  0
   -1.5868   -2.5562    0.1390 C   0  0  0  0  0  0  0  0  0  0  0  0
   -2.8039   -2.6800   -0.5743 C   0  0  0  0  0  0  0  0  0  0  0  0
   -3.1192   -1.8674   -1.2410 H   0  0  0  0  0  0  0  0  0  0  0  0
   -3.5946   -3.8263   -0.4301 C   0  0  0  0  0  0  0  0  0  0  0  0
   -4.5326   -3.9130   -0.9993 H   0  0  0  0  0  0  0  0  0  0  0  0
   -3.1986   -4.8602    0.4345 C   0  0  0  0  0  0  0  0  0  0  0  0
   -3.8255   -5.7577    0.5474 H   0  0  0  0  0  0  0  0  0  0  0  0
   -2.0006   -4.7413    1.1573 C   0  0  0  0  0  0  0  0  0  0  0  0
   -1.6873   -5.5413    1.8449 H   0  0  0  0  0  0  0  0  0  0  0  0
   -1.1980   -3.6040    1.0099 C   0  0  0  0  0  0  0  0  0  0  0  0
   -0.2655   -3.5157    1.5846 H   0  0  0  0  0  0  0  0  0  0  0  0
   -2.5947    1.5778   -0.0540 C   0  0  0  0  0  0  0  0  0  0  0  0
   -3.9352    2.1992   -0.0438 C   0  0  0  0  0  0  0  0  0  0  0  0
   -4.0444    3.6059   -0.0941 C   0  0  0  0  0  0  0  0  0  0  0  0
   -3.1204    4.1997   -0.1388 H   0  0  0  0  0  0  0  0  0  0  0  0
   -5.3062    4.2120   -0.0871 C   0  0  0  0  0  0  0  0  0  0  0  0
   -5.3881    5.3088   -0.1277 H   0  0  0  0  0  0  0  0  0  0  0  0
   -6.4670    3.4219   -0.0277 C   0  0  0  0  0  0  0  0  0  0  0  0
   -7.4584    3.9003   -0.0213 H   0  0  0  0  0  0  0  0  0  0  0  0
   -6.3631    2.0207    0.0257 C   0  0  0  0  0  0  0  0  0  0  0  0
   -7.2726    1.4029    0.0755 H   0  0  0  0  0  0  0  0  0  0  0  0
   -5.1048    1.4083    0.0179 C   0  0  0  0  0  0  0  0  0  0  0  0
   -5.0005    0.3151    0.0646 H   0  0  0  0  0  0  0  0  0  0  0  0
  2 16  2  0  0  0  0
  2  1  1  0  0  0  0
  4 31  2  0  0  0  0
  4  1  1  0  0  0  0
  5  4  1  0  0  0  0
  5  6  1  0  0  0  0
  6  7  1  0  0  0  0
  8  6  2  0  0  0  0
  8  9  1  0  0  0  0
 10  8  1  0  0  0  0
 11 10  1  0  0  0  0
 12 14  1  0  0  0  0
 12 10  2  0  0  0  0
 13 12  1  0  0  0  0
 14  5  2  0  0  0  0
 15 14  1  0  0  0  0
 16  3  1  0  0  0  0
 17 16  1  0  0  0  0
 17 18  1  0  0  0  0
 18 19  1  0  0  0  0
 20 18  2  0  0  0  0
 20 21  1  0  0  0  0
 22 20  1  0  0  0  0
 23 22  1  0  0  0  0
 24 26  1  0  0  0  0
 24 22  2  0  0  0  0
 25 24  1  0  0  0  0
 26 17  2  0  0  0  0
 27 26  1  0  0  0  0
 28 29  1  0  0  0  0
 28 31  1  0  0  0  0
 30 43  1  0  0  0  0
 31 32  1  0  0  0  0
 32 41  1  0  0  0  0
 33 35  1  0  0  0  0
 33 32  2  0  0  0  0
 34 33  1  0  0  0  0
 35 37  2  0  0  0  0
 36 35  1  0  0  0  0
 37 38  1  0  0  0  0
 37 39  1  0  0  0  0
 39 40  1  0  0  0  0
 41 39  2  0  0  0  0
 41 42  1  0  0  0  0
 43 29  2  0  0  0  0
 43 44  1  0  0  0  0
 44 53  1  0  0  0  0
 45 47  1  0  0  0  0
 45 44  2  0  0  0  0
 46 45  1  0  0  0  0
 47 49  2  0  0  0  0
 48 47  1  0  0  0  0
 49 50  1  0  0  0  0
 49 51  1  0  0  0  0
 51 52  1  0  0  0  0
 53 51  2  0  0  0  0
 53 54  1  0  0  0  0
M  CHG  2   3  -1  30  -1
M  END
