1,2,6,7
q = -2.0, confidence = 0.75

 51 52  0  0  1  0  0  0  0  0999 V2000
   -1.3566   -0.4306   -0.0000 O   0  5  0  0  0  0  0  0  0  0  0  0
    1.3566   -0.4306   -0.0003 O   0  5  0  0  0  0  0  0  0  0  0  0
   -7.0720   -3.1965    0.0004 O   0  0  0  0  0  0  0  0  0  0  0  0
    7.0720   -3.1965   -0.0000 O   0  0  0  0  0  0  0  0  0  0  0  0
   -2.6431    1.4848   -0.0000 N   0  0  0  0  0  0  0  0  0  0  0  0
   -1.3920    2.0483   -0.0000 N   0  0  0  0  0  2  0  0  0  0  0  0
    1.3920    2.0483   -0.0000 N   0  0  0  0  0  2  0  0  0  0  0  0
    2.6431    1.4848    0.0001 N   0  0  0  0  0  0  0  0  0  0  0  0
   -2.5668    4.1839   -0.0005 C   0  0  0  0  0  0  0  0  0  0  0  0
   -3.1919    3.9343   -0.8827 H   0  0  0  0  0  0  0  0  0  0  0  0
   -2.3403    5.2667   -0.0011 H   0  0  0  0  0  0  0  0  0  0  0  0
   -3.1915    3.9355    0.8824 H   0  0  0  0  0  0  0  0  0  0  0  0
   -1.3142    3.3588   -0.0002 C   0  0  1  0  0  3  0  0  0  0  0  0
   -0.0000    4.0734    0.0000 C   0  0  0  0  0  0  0  0  0  0  0  0
    0.0002    4.7744   -0.8707 H   0  0  0  0  0  0  0  0  0  0  0  0
   -0.0002    4.7744    0.8708 H   0  0  0  0  0  0  0  0  0  0  0  0
    1.3142    3.3588    0.0003 C   0  0  2  0  0  3  0  0  0  0  0  0
    2.5668    4.1839    0.0008 C   0  0  0  0  0  0  0  0  0  0  0  0
    3.1912    3.9350    0.8837 H   0  0  0  0  0  0  0  0  0  0  0  0
    2.3403    5.2667    0.0005 H   0  0  0  0  0  0  0  0  0  0  0  0
    3.1921    3.9347   -0.8815 H   0  0  0  0  0  0  0  0  0  0  0  0
   -2.5172    0.1587   -0.0000 C   0  0  0  0  0  0  0  0  0  0  0  0
    2.5172    0.1587   -0.0001 C   0  0  0  0  0  0  0  0  0  0  0  0
   -3.7301   -0.6823    0.0001 C   0  0  0  0  0  0  0  0  0  0  0  0
   -5.0189   -0.1128   -0.0001 C   0  0  0  0  0  0  0  0  0  0  0  0
   -5.1089    0.9828   -0.0003 H   0  0  0  0  0  0  0  0  0  0  0  0
   -6.1637   -0.9184   -0.0000 C   0  0  0  0  0  0  0  0  0  0  0  0
   -7.1549   -0.4458   -0.0001 H   0  0  0  0  0  0  0  0  0  0  0  0
   -6.0289   -2.3247    0.0002 C   0  0  0  0  0  0  0  0  0  0  0  0
   -4.7388   -2.9028    0.0004 C   0  0  0  0  0  0  0  0  0  0  0  0
   -4.6609   -3.9997    0.0006 H   0  0  0  0  0  0  0  0  0  0  0  0
   -3.6070   -2.0912    0.0003 C   0  0  0  0  0  0  0  0  0  0  0  0
   -2.5980   -2.5275    0.0004 H   0  0  0  0  0  0  0  0  0  0  0  0
    3.7301   -0.6823   -0.0001 C   0  0  0  0  0  0  0  0  0  0  0  0
    3.6070   -2.0912   -0.0001 C   0  0  0  0  0  0  0  0  0  0  0  0
    2.5980   -2.5275   -0.0001 H   0  0  0  0  0  0  0  0  0  0  0  0
    4.7388   -2.9028   -0.0000 C   0  0  0  0  0  0  0  0  0  0  0  0
    4.6609   -3.9997   -0.0000 H   0  0  0  0  0  0  0  0  0  0  0  0
    6.0289   -2.3247   -0.0000 C   0  0  0  0  0  0  0  0  0  0  0  0
    6.1637   -0.9184   -0.0001 C   0  0  0  0  0  0  0  0  0  0  0  0
    7.1549   -0.4458   -0.0001 H   0  0  0  0  0  0  0  0  0  0  0  0
    5.0189   -0.1128   -0.0001 C   0  0  0  0  0  0  0  0  0  0  0  0
    5.1089    0.9828   -0.0001 H   0  0  0  0  0  0  0  0  0  0  0  0
   -8.3879   -2.6765   -0.0004 C   0  0  0  0  0  0  0  0  0  0  0  0
   -8.5912   -2.0594    0.9036 H   0  0  0  0  0  0  0  0  0  0  0  0
   -9.0690   -3.5478   -0.0006 H   0  0  0  0  0  0  0  0  0  0  0  0
   -8.5902   -2.0595   -0.9046 H   0  0  0  0  0  0  0  0  0  0  0  0
    8.3879   -2.6765   -0.0000 C   0  0  0  0  0  0  0  0  0  0  0  0
    8.5908   -2.0594   -0.9041 H   0  0  0  0  0  0  0  0  0  0  0  0
    9.0690   -3.5478    0.0000 H   0  0  0  0  0  0  0  0  0  0  0  0
    8.5907   -2.0594    0.9041 H   0  0  0  0  0  0  0  0  0  0  0  0
  1 22  1  0  0  0  0
  2 23  1  0  0  0  0
  4 48  1  0  0  0  0
  6  5  1  0  0  0  0
  7  8  1  0  0  0  0
  9 13  1  0  0  0  0
  9 12  1  0  0  0  0
 10  9  1  0  0  0  0
 11  9  1  0  0  0  0
 13  6  1  1  0  0  0
 13 14  1  0  0  0  0
 14 17  1  0  0  0  0
 14 16  1  0  0  0  0
 15 14  1  0  0  0  0
 17  7  1  6  0  0  0
 17 18  1  0  0  0  0
 18 19  1  0  0  0  0
 20 18  1  0  0  0  0
 21 18  1  0  0  0  0
 22  5  2  0  0  0  0
 22 24  1  0  0  0  0
 23 34  1  0  0  0  0
 23  8  2  0  0  0  0
 24 32  1  0  0  0  0
 25 27  1  0  0  0  0
 25 24  2  0  0  0  0
 26 25  1  0  0  0  0
 27 29  2  0  0  0  0
 28 27  1  0  0  0  0
 29  3  1  0  0  0  0
 29 30  1  0  0  0  0
 30 31  1  0  0  0  0
 32 30  2  0  0  0  0
 32 33  1  0  0  0  0
 34 42  2  0  0  0  0
 34 35  1  0  0  0  0
 35 37  2  0  0  0  0
 36 35  1  0  0  0  0
 37 39  1  0  0  0  0
 37 38  1  0  0  0  0
 39  4  1  0  0  0  0
 40 39  2  0  0  0  0
 41 40  1  0  0  0  0
 42 40  1  0  0  0  0
 43 42  1  0  0  0  0
 44  3  1  0  0  0  0
 44 45  1  0  0  0  0
 46 44  1  0  0  0  0
 47 44  1  0  0  0  0
 48 50  1  0  0  0  0
 48 51  1  0  0  0  0
 49 48  1  0  0  0  0
M  CHG  2   1  -1   2  -1
M  END
