1,7,15,21
q = -2.0, confidence = 0.726

 28 27  0  0  1  0  0  0  0  0999 V2000
    1.4833    0.2832    1.3977 O   0  5  0  0  0  0  0  0  0  0  0  0
    3.5278   -0.5538    1.7608 O   0  0  0  0  0  0  0  0  0  0  0  0
    2.5376   -0.4409    1.0607 C   0  0  0  0  0  0  0  0  0  0  0  0
    0.2881   -2.3959   -0.7073 C   0  0  0  0  0  0  0  0  0  0  0  0
    0.9062   -3.3025   -0.8763 H   0  0  0  0  0  0  0  0  0  0  0  0
   -0.5246   -2.3882   -1.4603 H   0  0  0  0  0  0  0  0  0  0  0  0
    1.1016   -1.1655   -0.9081 N   0  0  0  0  0  0  0  0  0  0  0  0
    1.1726   -0.9367   -1.9118 H   0  0  0  0  0  0  0  0  0  0  0  0
    2.4759   -1.2036   -0.2935 C   0  0  1  0  0  0  0  0  0  0  0  0
    2.7010   -2.2635   -0.0464 H   0  0  0  0  0  0  0  0  0  0  0  0
    3.5331   -0.6786   -1.2612 C   0  0  0  0  0  0  0  0  0  0  0  0
    3.5973   -1.3109   -2.1703 H   0  0  0  0  0  0  0  0  0  0  0  0
    4.5119   -0.7011   -0.7464 H   0  0  0  0  0  0  0  0  0  0  0  0
    3.3038    0.3665   -1.5472 H   0  0  0  0  0  0  0  0  0  0  0  0
   -1.4833    0.2832   -1.3977 O   0  5  0  0  0  0  0  0  0  0  0  0
   -3.5278   -0.5537   -1.7608 O   0  0  0  0  0  0  0  0  0  0  0  0
   -2.5376   -0.4409   -1.0607 C   0  0  0  0  0  0  0  0  0  0  0  0
   -0.2882   -2.3959    0.7072 C   0  0  0  0  0  0  0  0  0  0  0  0
   -0.9062   -3.3025    0.8763 H   0  0  0  0  0  0  0  0  0  0  0  0
    0.5246   -2.3883    1.4603 H   0  0  0  0  0  0  0  0  0  0  0  0
   -1.1016   -1.1655    0.9081 N   0  0  0  0  0  0  0  0  0  0  0  0
   -1.1726   -0.9367    1.9118 H   0  0  0  0  0  0  0  0  0  0  0  0
   -2.4760   -1.2036    0.2935 C   0  0  1  0  0  0  0  0  0  0  0  0
   -2.7010   -2.2635    0.0463 H   0  0  0  0  0  0  0  0  0  0  0  0
   -3.5331   -0.6787    1.2611 C   0  0  0  0  0  0  0  0  0  0  0  0
   -3.5973   -1.3109    2.1703 H   0  0  0  0  0  0  0  0  0  0  0  0
   -4.5120   -0.7012    0.7463 H   0  0  0  0  0  0  0  0  0  0  0  0
   -3.3039    0.3665    1.5472 H   0  0  0  0  0  0  0  0  0  0  0  0
  3  1  1  0  0  0  0
  3  2  2  0  0  0  0
  4 18  1  0  0  0  0
  5  4  1  0  0  0  0
  6  4  1  0  0  0  0
  7  4  1  0  0  0  0
  7  9  1  0  0  0  0
  8  7  1  0  0  0  0
  9 10  1  1  0  0  0
  9  3  1  0  0  0  0
 11 13  1  0  0  0  0
 11  9  1  0  0  0  0
 12 11  1  0  0  0  0
 14 11  1  0  0  0  0
 15 17  1  0  0  0  0
 16 17  2  0  0  0  0
 17 23  1  0  0  0  0
 18 19  1  0  0  0  0
 18 21  1  0  0  0  0
 18 20  1  0  0  0  0
 21 22  1  0  0  0  0
 23 24  1  6  0  0  0
 23 21  1  0  0  0  0
 23 25  1  0  0  0  0
 25 28  1  0  0  0  0
 25 26  1  0  0  0  0
 27 25  1  0  0  0  0
M  CHG  2   1  -1  15  -1
M  END
