3,4,5,6
q = -2.0, confidence = 0.882

 34 35  0  0  0  0  0  0  0  0999 V2000
    6.9612   -0.2722   -0.8759 F   0  0  0  0  0  0  0  0  0  0  0  0
   -6.8716   -0.3295   -0.7336 F   0  0  0  0  0  0  0  0  0  0  0  0
    1.2830    1.6839   -0.2015 N   0  0  0  0  0  2  0  0  0  0  0  0
   -1.3092    1.6584    0.5079 N   0  0  0  0  0  2  0  0  0  0  0  0
    1.6378   -1.1425    0.2452 O   0  5  0  0  0  0  0  0  0  0  0  0
   -1.4044   -1.0128   -0.5732 O   0  5  0  0  0  0  0  0  0  0  0  0
    3.3907    0.4428   -0.3574 C   0  0  0  0  0  0  0  0  0  0  0  0
    2.8829   -0.8789   -0.0324 C   0  0  0  0  0  0  0  0  0  0  0  0
    3.8392   -1.9459   -0.0070 C   0  0  0  0  0  0  0  0  0  0  0  0
    3.4561   -2.9473    0.2379 H   0  0  0  0  0  0  0  0  0  0  0  0
    5.1850   -1.7464   -0.2882 C   0  0  0  0  0  0  0  0  0  0  0  0
    5.9029   -2.5801   -0.2710 H   0  0  0  0  0  0  0  0  0  0  0  0
    5.6497   -0.4523   -0.6055 C   0  0  0  0  0  0  0  0  0  0  0  0
    4.7781    0.6215   -0.6359 C   0  0  0  0  0  0  0  0  0  0  0  0
    5.1658    1.6227   -0.8792 H   0  0  0  0  0  0  0  0  0  0  0  0
    2.5725    1.6279   -0.3792 C   0  0  0  0  0  3  0  0  0  0  0  0
    3.1228    2.5795   -0.5658 H   0  0  0  0  0  0  0  0  0  0  0  0
    0.5832    2.9578   -0.2260 C   0  0  0  0  0  0  0  0  0  0  0  0
    0.1735    3.1280   -1.2481 H   0  0  0  0  0  0  0  0  0  0  0  0
    1.2544    3.8125    0.0153 H   0  0  0  0  0  0  0  0  0  0  0  0
   -0.6033    2.8934    0.7608 C   0  0  0  0  0  0  0  0  0  0  0  0
   -0.2028    2.8790    1.7997 H   0  0  0  0  0  0  0  0  0  0  0  0
   -1.2504    3.7938    0.6518 H   0  0  0  0  0  0  0  0  0  0  0  0
   -2.5885    1.6179    0.2734 C   0  0  0  0  0  3  0  0  0  0  0  0
   -3.1840    2.5545    0.3889 H   0  0  0  0  0  0  0  0  0  0  0  0
   -3.3232    0.4556   -0.1558 C   0  0  0  0  0  0  0  0  0  0  0  0
   -2.6827   -0.7817   -0.5827 C   0  0  0  0  0  0  0  0  0  0  0  0
   -3.5562   -1.8150   -1.0643 C   0  0  0  0  0  0  0  0  0  0  0  0
   -3.0752   -2.7461   -1.3978 H   0  0  0  0  0  0  0  0  0  0  0  0
   -4.9361   -1.6692   -1.1064 C   0  0  0  0  0  0  0  0  0  0  0  0
   -5.5861   -2.4791   -1.4706 H   0  0  0  0  0  0  0  0  0  0  0  0
   -5.5268   -0.4592   -0.6817 C   0  0  0  0  0  0  0  0  0  0  0  0
   -4.7422    0.5847   -0.2270 C   0  0  0  0  0  0  0  0  0  0  0  0
   -5.2243    1.5238    0.0856 H   0  0  0  0  0  0  0  0  0  0  0  0
  1 13  1  0  0  0  0
  2 32  1  0  0  0  0
  4 21  1  0  0  0  0
  7  8  1  0  0  0  0
  8  9  2  0  0  0  0
  8  5  1  0  0  0  0
  9 10  1  0  0  0  0
 11 12  1  0  0  0  0
 11  9  1  0  0  0  0
 13 11  2  0  0  0  0
 14 13  1  0  0  0  0
 14  7  2  0  0  0  0
 15 14  1  0  0  0  0
 16  7  1  0  0  0  0
 16  3  1  0  0  0  0
 17 16  1  0  0  0  0
 18  3  1  0  0  0  0
 18 20  1  0  0  0  0
 18 21  1  0  0  0  0
 19 18  1  0  0  0  0
 21 22  1  0  0  0  0
 23 21  1  0  0  0  0
 24 25  1  0  0  0  0
 24  4  1  0  0  0  0
 26 24  1  0  0  0  0
 27  6  1  0  0  0  0
 27 26  2  0  0  0  0
 28 27  1  0  0  0  0
 29 28  1  0  0  0  0
 30 28  2  0  0  0  0
 30 32  1  0  0  0  0
 31 30  1  0  0  0  0
 32 33  2  0  0  0  0
 33 26  1  0  0  0  0
 33 34  1  0  0  0  0
M  CHG  2   5  -1   6  -1
M  END
