1,2,4,5
q = -2.0, confidence = 0.852

 45 47  0  0  1  0  0  0  0  0999 V2000
    3.1911   -0.3840   -0.7324 O   0  5  0  0  0  0  0  0  0  0  0  0
   -0.2897   -1.8886   -0.1662 O   0  5  0  0  0  0  0  0  0  0  0  0
   -2.5353    1.9483    1.2616 O   0  0  0  0  0  0  0  0  0  0  0  0
    1.4419   -0.5228    1.4676 N   0  0  0  0  0  2  0  0  0  0  0  0
    0.7099    0.6305   -0.8660 N   0  0  0  0  0  0  0  0  0  0  0  0
    0.1214    0.6197   -1.7113 H   0  0  0  0  0  0  0  0  0  0  0  0
    2.0893   -0.9744    2.5614 C   0  0  0  0  0  3  0  0  0  0  0  0
    2.7689   -1.8248    2.3941 H   0  0  0  0  0  0  0  0  0  0  0  0
    1.8961   -0.3997    3.8207 C   0  0  0  0  0  0  0  0  0  0  0  0
    2.4465   -0.7865    4.6900 H   0  0  0  0  0  0  0  0  0  0  0  0
    0.9871    0.6656    3.9434 C   0  0  0  0  0  0  0  0  0  0  0  0
    0.8077    1.1351    4.9225 H   0  0  0  0  0  0  0  0  0  0  0  0
    0.3113    1.1243    2.8081 C   0  0  0  0  0  0  0  0  0  0  0  0
   -0.4346    1.9312    2.8462 H   0  0  0  0  0  0  0  0  0  0  0  0
    0.5765    0.5071    1.5741 C   0  0  0  0  0  0  0  0  0  0  0  0
   -0.1595    0.8996    0.3086 C   0  0  2  0  0  0  0  0  0  0  0  0
   -0.4189    1.9747    0.3806 H   0  0  0  0  0  0  0  0  0  0  0  0
    1.8291    1.5407   -1.0234 C   0  0  0  0  0  0  0  0  0  0  0  0
    3.1068    0.9353   -0.9421 C   0  0  0  0  0  0  0  0  0  0  0  0
    4.2587    1.7412   -1.0734 C   0  0  0  0  0  0  0  0  0  0  0  0
    5.2461    1.2625   -1.0115 H   0  0  0  0  0  0  0  0  0  0  0  0
    4.1171    3.1182   -1.2843 C   0  0  0  0  0  0  0  0  0  0  0  0
    5.0184    3.7411   -1.3902 H   0  0  0  0  0  0  0  0  0  0  0  0
    2.8448    3.7149   -1.3646 C   0  0  0  0  0  0  0  0  0  0  0  0
    2.7483    4.7969   -1.5343 H   0  0  0  0  0  0  0  0  0  0  0  0
    1.6963    2.9202   -1.2293 C   0  0  0  0  0  0  0  0  0  0  0  0
    0.6932    3.3710   -1.2908 H   0  0  0  0  0  0  0  0  0  0  0  0
   -2.5830   -2.2041    0.1747 C   0  0  0  0  0  0  0  0  0  0  0  0
   -3.4874   -1.7407    0.6000 H   0  0  0  0  0  0  0  0  0  0  0  0
   -2.2528   -3.0444    0.8173 H   0  0  0  0  0  0  0  0  0  0  0  0
   -2.8346   -2.6377   -0.8147 H   0  0  0  0  0  0  0  0  0  0  0  0
   -1.4231   -1.2518    0.0435 C   0  0  0  0  0  0  0  0  0  0  0  0
   -1.4701    0.1311    0.2060 C   0  0  0  0  0  0  0  0  0  0  0  0
   -2.6572    0.9400    0.5446 C   0  0  0  0  0  0  0  0  0  0  0  0
   -4.0062    0.6196   -0.0330 C   0  0  0  0  0  0  0  0  0  0  0  0
   -4.1563    0.0741   -1.3254 C   0  0  0  0  0  0  0  0  0  0  0  0
   -3.2605   -0.1771   -1.9132 H   0  0  0  0  0  0  0  0  0  0  0  0
   -5.4344   -0.1285   -1.8640 C   0  0  0  0  0  0  0  0  0  0  0  0
   -5.5431   -0.5428   -2.8778 H   0  0  0  0  0  0  0  0  0  0  0  0
   -6.5738    0.2003   -1.1116 C   0  0  0  0  0  0  0  0  0  0  0  0
   -7.5774    0.0321   -1.5312 H   0  0  0  0  0  0  0  0  0  0  0  0
   -6.4321    0.7541    0.1729 C   0  0  0  0  0  0  0  0  0  0  0  0
   -7.3249    1.0191    0.7595 H   0  0  0  0  0  0  0  0  0  0  0  0
   -5.1555    0.9780    0.7022 C   0  0  0  0  0  0  0  0  0  0  0  0
   -5.0183    1.4370    1.6925 H   0  0  0  0  0  0  0  0  0  0  0  0
  2 32  1  0  0  0  0
  4 15  1  0  0  0  0
  4  7  1  0  0  0  0
  5 16  1  0  0  0  0
  6  5  1  0  0  0  0
  7  9  1  0  0  0  0
  8  7  1  0  0  0  0
  9 11  2  0  0  0  0
  9 10  1  0  0  0  0
 11 12  1  0  0  0  0
 13 14  1  0  0  0  0
 13 11  1  0  0  0  0
 15 13  2  0  0  0  0
 16 17  1  1  0  0  0
 16 15  1  0  0  0  0
 18 19  1  0  0  0  0
 18  5  1  0  0  0  0
 19  1  1  0  0  0  0
 20 21  1  0  0  0  0
 20 19  2  0  0  0  0
 22 20  1  0  0  0  0
 23 22  1  0  0  0  0
 24 22  2  0  0  0  0
 24 26  1  0  0  0  0
 25 24  1  0  0  0  0
 26 18  2  0  0  0  0
 27 26  1  0  0  0  0
 28 29  1  0  0  0  0
 28 30  1  0  0  0  0
 31 28  1  0  0  0  0
 32 28  1  0  0  0  0
 32 33  2  0  0  0  0
 33 16  1  0  0  0  0
 33 34  1  0  0  0  0
 34  3  2  0  0  0  0
 35 34  1  0  0  0  0
 35 44  1  0  0  0  0
 36 35  2  0  0  0  0
 37 36  1  0  0  0  0
 38 36  1  0  0  0  0
 38 40  2  0  0  0  0
 39 38  1  0  0  0  0
 40 42  1  0  0  0  0
 41 40  1  0  0  0  0
 42 44  2  0  0  0  0
 42 43  1  0  0  0  0
 44 45  1  0  0  0  0
M  CHG  2   1  -1   2  -1
M  END
