5,6,7,8
q = -2.0, confidence = 0.806

 54 57  0  0  1  0  0  0  0  0999 V2000
   -4.1608    5.4876    0.8272 F   0  0  0  0  0  0  0  0  0  0  0  0
   -6.2847   -2.9852   -1.3727 F   0  0  0  0  0  0  0  0  0  0  0  0
   -1.6409   -4.3636    3.8967 F   0  0  0  0  0  0  0  0  0  0  0  0
    7.1646   -2.1030   -0.6850 F   0  0  0  0  0  0  0  0  0  0  0  0
    0.6575    2.8727    0.3462 O   0  5  0  0  0  0  0  0  0  0  0  0
    2.9245    1.3023    0.1587 O   0  5  0  0  0  0  0  0  0  0  0  0
   -0.9256    0.5923   -0.6259 N   0  0  0  0  0  2  0  0  0  0  0  0
    1.2334   -0.9293   -0.6994 N   0  0  0  0  0  2  0  0  0  0  0  0
   -0.5299    3.4124    0.4353 C   0  0  0  0  0  0  0  0  0  0  0  0
   -0.5928    4.7520    0.9376 C   0  0  0  0  0  0  0  0  0  0  0  0
    0.3622    5.2187    1.2172 H   0  0  0  0  0  0  0  0  0  0  0  0
   -1.7919    5.4367    1.0673 C   0  0  0  0  0  0  0  0  0  0  0  0
   -1.8229    6.4660    1.4544 H   0  0  0  0  0  0  0  0  0  0  0  0
   -3.0016    4.8077    0.6957 C   0  0  0  0  0  0  0  0  0  0  0  0
   -3.0037    3.5172    0.2030 C   0  0  0  0  0  3  0  0  0  0  0  0
   -3.9594    3.0520   -0.0813 H   0  0  0  0  0  0  0  0  0  0  0  0
   -1.7841    2.7838    0.0615 C   0  0  0  0  0  0  0  0  0  0  0  0
   -1.9008    1.4583   -0.4747 C   0  0  0  0  0  0  0  0  0  0  0  0
   -2.9102    1.1400   -0.7927 H   0  0  0  0  0  0  0  0  0  0  0  0
   -1.1100   -0.6918   -1.3469 C   0  0  2  0  0  0  0  0  0  0  0  0
   -0.8354   -0.4836   -2.4050 H   0  0  0  0  0  0  0  0  0  0  0  0
   -2.5119   -1.2605   -1.3338 C   0  0  0  0  0  0  0  0  0  0  0  0
   -3.2406   -1.4261   -0.1351 C   0  0  0  0  0  0  0  0  0  0  0  0
   -2.8058   -1.1004    0.8206 H   0  0  0  0  0  0  0  0  0  0  0  0
   -4.5158   -2.0021   -0.1433 C   0  0  0  0  0  0  0  0  0  0  0  0
   -5.0924   -2.1349    0.7830 H   0  0  0  0  0  0  0  0  0  0  0  0
   -5.0631   -2.4267   -1.3618 C   0  0  0  0  0  0  0  0  0  0  0  0
   -4.3684   -2.2762   -2.5672 C   0  0  0  0  0  0  0  0  0  0  0  0
   -4.8321   -2.6123   -3.5053 H   0  0  0  0  0  0  0  0  0  0  0  0
   -3.0962   -1.6869   -2.5419 C   0  0  0  0  0  0  0  0  0  0  0  0
   -2.5446   -1.5557   -3.4863 H   0  0  0  0  0  0  0  0  0  0  0  0
   -0.0223   -1.6921   -0.8310 C   0  0  2  0  0  0  0  0  0  0  0  0
    0.1004   -2.4600   -1.6238 H   0  0  0  0  0  0  0  0  0  0  0  0
   -0.3916   -2.4093    0.4585 C   0  0  0  0  0  0  0  0  0  0  0  0
   -0.2226   -1.8103    1.7234 C   0  0  0  0  0  0  0  0  0  0  0  0
    0.2441   -0.8148    1.7956 H   0  0  0  0  0  0  0  0  0  0  0  0
   -0.6435   -2.4658    2.8880 C   0  0  0  0  0  0  0  0  0  0  0  0
   -0.5156   -2.0108    3.8805 H   0  0  0  0  0  0  0  0  0  0  0  0
   -1.2346   -3.7316    2.7820 C   0  0  0  0  0  0  0  0  0  0  0  0
   -1.4043   -4.3568    1.5409 C   0  0  0  0  0  0  0  0  0  0  0  0
   -1.8646   -5.3539    1.4952 H   0  0  0  0  0  0  0  0  0  0  0  0
   -0.9779   -3.6877    0.3861 C   0  0  0  0  0  0  0  0  0  0  0  0
   -1.1193   -4.1666   -0.5956 H   0  0  0  0  0  0  0  0  0  0  0  0
    2.3971   -1.5347   -0.7734 C   0  0  0  0  0  0  0  0  0  0  0  0
    2.3873   -2.6094   -1.0390 H   0  0  0  0  0  0  0  0  0  0  0  0
    3.6769   -0.9400   -0.5255 C   0  0  0  0  0  0  0  0  0  0  0  0
    4.8190   -1.7780   -0.7230 C   0  0  0  0  0  3  0  0  0  0  0  0
    4.6863   -2.8166   -1.0605 H   0  0  0  0  0  0  0  0  0  0  0  0
    6.0950   -1.3017   -0.4937 C   0  0  0  0  0  0  0  0  0  0  0  0
    6.3029    0.0255   -0.0544 C   0  0  0  0  0  0  0  0  0  0  0  0
    7.3314    0.3744    0.1205 H   0  0  0  0  0  0  0  0  0  0  0  0
    5.2149    0.8610    0.1484 C   0  0  0  0  0  0  0  0  0  0  0  0
    5.3486    1.8970    0.4902 H   0  0  0  0  0  0  0  0  0  0  0  0
    3.8679    0.4278   -0.0736 C   0  0  0  0  0  0  0  0  0  0  0  0
  2 27  1  0  0  0  0
  4 49  1  0  0  0  0
  5  9  1  0  0  0  0
  7 18  1  0  0  0  0
  9 10  2  0  0  0  0
 10 12  1  0  0  0  0
 10 11  1  0  0  0  0
 12 13  1  0  0  0  0
 14  1  1  0  0  0  0
 14 12  2  0  0  0  0
 15 14  1  0  0  0  0
 16 15  1  0  0  0  0
 17 15  1  0  0  0  0
 17  9  1  0  0  0  0
 18 17  2  0  0  0  0
 19 18  1  0  0  0  0
 20 21  1  6  0  0  0
 20 22  1  0  0  0  0
 20 32  1  0  0  0  0
 20  7  1  0  0  0  0
 22 23  1  0  0  0  0
 23 24  1  0  0  0  0
 25 23  2  0  0  0  0
 25 26  1  0  0  0  0
 27 25  1  0  0  0  0
 28 30  1  0  0  0  0
 28 27  2  0  0  0  0
 29 28  1  0  0  0  0
 30 22  2  0  0  0  0
 31 30  1  0  0  0  0
 32 33  1  6  0  0  0
 32  8  1  0  0  0  0
 32 34  1  0  0  0  0
 34 35  1  0  0  0  0
 35 36  1  0  0  0  0
 35 37  2  0  0  0  0
 37 38  1  0  0  0  0
 39 37  1  0  0  0  0
 39  3  1  0  0  0  0
 40 39  2  0  0  0  0
 41 40  1  0  0  0  0
 42 34  2  0  0  0  0
 42 40  1  0  0  0  0
 43 42  1  0  0  0  0
 44  8  1  0  0  0  0
 44 46  2  0  0  0  0
 45 44  1  0  0  0  0
 46 54  1  0  0  0  0
 47 46  1  0  0  0  0
 47 49  1  0  0  0  0
 48 47  1  0  0  0  0
 49 50  2  0  0  0  0
 50 51  1  0  0  0  0
 50 52  1  0  0  0  0
 52 53  1  0  0  0  0
 54 52  2  0  0  0  0
 54  6  1  0  0  0  0
M  CHG  2   5  -1   6  -1
M  END
