5,6,9,10
q = -2.0, confidence = 0.914

 36 37  0  0  0  0  0  0  0  0999 V2000
    2.0858   -3.1532    0.0567 Br  0  0  0  0  0  0  0  0  0  0  0  0
   -2.8321   -2.5567    1.5100 Br  0  0  0  0  0  0  0  0  0  0  0  0
    6.8901   -0.7908   -1.5236 Cl  0  0  0  0  0  0  0  0  0  0  0  0
   -6.4415   -0.6505   -2.2905 Cl  0  0  0  0  0  0  0  0  0  0  0  0
    1.7814    2.5168    0.4746 N   0  0  0  0  0  2  0  0  0  0  0  0
   -1.3323    2.6465   -0.2473 N   0  0  0  0  0  2  0  0  0  0  0  0
    1.7092    3.8899    0.7042 O   0  0  0  0  0  0  0  0  0  0  0  0
   -0.8954    3.8930   -0.7319 O   0  0  0  0  0  0  0  0  0  0  0  0
    1.4133   -0.2827    0.6520 O   0  5  0  0  0  0  0  0  0  0  0  0
   -1.5859    0.1512    0.9787 O   0  5  0  0  0  0  0  0  0  0  0  0
    0.4783    4.2554    1.3271 C   0  0  0  0  0  0  0  0  0  0  0  0
    0.7213    5.0795    2.0306 H   0  0  0  0  0  0  0  0  0  0  0  0
    0.1001    3.4056    1.9334 H   0  0  0  0  0  0  0  0  0  0  0  0
   -0.5471    4.7799    0.3294 C   0  0  0  0  0  0  0  0  0  0  0  0
   -1.4575    5.0953    0.8939 H   0  0  0  0  0  0  0  0  0  0  0  0
   -0.1413    5.6640   -0.2014 H   0  0  0  0  0  0  0  0  0  0  0  0
    2.9905    2.1514    0.1444 C   0  0  0  0  0  0  0  0  0  0  0  0
    3.7414    2.9615    0.0689 H   0  0  0  0  0  0  0  0  0  0  0  0
    3.4368    0.8032   -0.1180 C   0  0  0  0  0  0  0  0  0  0  0  0
    2.6078   -0.3507    0.1449 C   0  0  0  0  0  0  0  0  0  0  0  0
    3.1850   -1.6223   -0.1904 C   0  0  0  0  0  0  0  0  0  0  0  0
    4.4749   -1.7639   -0.6962 C   0  0  0  0  0  0  0  0  0  0  0  0
    4.8736   -2.7585   -0.9370 H   0  0  0  0  0  0  0  0  0  0  0  0
    5.2664   -0.6132   -0.9025 C   0  0  0  0  0  0  0  0  0  0  0  0
    4.7565    0.6504   -0.6204 C   0  0  0  0  0  3  0  0  0  0  0  0
    5.3778    1.5404   -0.7971 H   0  0  0  0  0  0  0  0  0  0  0  0
   -2.4391    2.2739   -0.8394 C   0  0  0  0  0  0  0  0  0  0  0  0
   -2.8903    3.0068   -1.5367 H   0  0  0  0  0  0  0  0  0  0  0  0
   -3.1078    1.0062   -0.6812 C   0  0  0  0  0  0  0  0  0  0  0  0
   -2.6387    0.0000    0.2543 C   0  0  0  0  0  0  0  0  0  0  0  0
   -3.4297   -1.2037    0.3237 C   0  0  0  0  0  0  0  0  0  0  0  0
   -4.5766   -1.3976   -0.4387 C   0  0  0  0  0  0  0  0  0  0  0  0
   -5.1494   -2.3309   -0.3522 H   0  0  0  0  0  0  0  0  0  0  0  0
   -5.0018   -0.3893   -1.3370 C   0  0  0  0  0  0  0  0  0  0  0  0
   -4.2818    0.7921   -1.4583 C   0  0  0  0  0  3  0  0  0  0  0  0
   -4.6224    1.5713   -2.1558 H   0  0  0  0  0  0  0  0  0  0  0  0
  3 24  1  0  0  0  0
  4 34  1  0  0  0  0
  5  7  1  0  0  0  0
  7 11  1  0  0  0  0
  8  6  1  0  0  0  0
  8 14  1  0  0  0  0
 11 13  1  0  0  0  0
 11 12  1  0  0  0  0
 14 15  1  0  0  0  0
 14 11  1  0  0  0  0
 16 14  1  0  0  0  0
 17  5  1  0  0  0  0
 18 17  1  0  0  0  0
 19 17  2  0  0  0  0
 19 20  1  0  0  0  0
 20  9  1  0  0  0  0
 21  1  1  0  0  0  0
 21 20  2  0  0  0  0
 22 21  1  0  0  0  0
 23 22  1  0  0  0  0
 24 22  2  0  0  0  0
 24 25  1  0  0  0  0
 25 19  1  0  0  0  0
 26 25  1  0  0  0  0
 27 29  2  0  0  0  0
 27  6  1  0  0  0  0
 28 27  1  0  0  0  0
 29 30  1  0  0  0  0
 30 31  2  0  0  0  0
 30 10  1  0  0  0  0
 31  2  1  0  0  0  0
 32 33  1  0  0  0  0
 32 31  1  0  0  0  0
 34 32  2  0  0  0  0
 35 34  1  0  0  0  0
 35 29  1  0  0  0  0
 36 35  1  0  0  0  0
M  CHG  2   9  -1  10  -1
M  END
