2,3,5,9
q = -2.0, confidence = 0.908

 50 52  0  0  1  0  0  0  0  0999 V2000
   -3.0989   -2.6039    2.5667 O   0  5  0  0  0  0  0  0  0  0  0  0
   -1.0595   -2.1104    1.6998 O   0  0  0  0  0  0  0  0  0  0  0  0
    1.0600   -2.1099   -1.7002 O   0  5  0  0  0  0  0  0  0  0  0  0
    3.0997   -2.6032   -2.5667 O   0  0  0  0  0  0  0  0  0  0  0  0
   -2.2379   -0.7173   -0.3191 N   0  0  0  0  0  2  0  0  0  0  0  0
   -2.3518   -2.0973    1.7244 C   0  0  0  0  0  0  0  0  0  0  0  0
   -4.0872    0.3069   -1.4089 C   0  0  0  0  0  0  0  0  0  0  0  0
   -4.4756    0.9723   -2.1946 H   0  0  0  0  0  0  0  0  0  0  0  0
    2.2379   -0.7171    0.3191 N   0  0  0  0  0  2  0  0  0  0  0  0
   -2.7074    0.0864   -1.2844 C   0  0  1  0  0  3  0  0  0  0  0  0
   -0.4366    1.0325   -1.4139 N   0  0  0  0  0  0  0  0  0  0  0  0
    0.3761    1.0902   -2.0386 H   0  0  0  0  0  0  0  0  0  0  0  0
   -3.0348   -1.3078    0.5836 C   0  0  0  0  0  0  0  0  0  0  0  0
    4.0868    0.3070    1.4095 C   0  0  0  0  0  0  0  0  0  0  0  0
    4.4751    0.9723    2.1954 H   0  0  0  0  0  0  0  0  0  0  0  0
   -4.4291   -1.1437    0.5132 C   0  0  0  0  0  0  0  0  0  0  0  0
   -5.0463   -1.6467    1.2706 H   0  0  0  0  0  0  0  0  0  0  0  0
    2.3523   -2.0967   -1.7246 C   0  0  0  0  0  0  0  0  0  0  0  0
    0.4363    1.0324    1.4138 N   0  0  0  0  0  0  0  0  0  0  0  0
   -0.3766    1.0900    2.0383 H   0  0  0  0  0  0  0  0  0  0  0  0
    0.4354    3.5300    1.3934 C   0  0  0  0  0  0  0  0  0  0  0  0
   -0.5419    3.5217    1.9290 H   0  0  0  0  0  0  0  0  0  0  0  0
    1.2204    3.5232    2.1779 H   0  0  0  0  0  0  0  0  0  0  0  0
   -0.5355    4.8013   -0.5466 C   0  0  0  0  0  0  0  0  0  0  0  0
   -0.4433    5.6993   -1.1916 H   0  0  0  0  0  0  0  0  0  0  0  0
   -1.5431    4.8548   -0.0772 H   0  0  0  0  0  0  0  0  0  0  0  0
   -0.5298    2.2312   -0.5666 C   0  0  1  0  0  0  0  0  0  0  0  0
   -1.5296    2.1925   -0.0750 H   0  0  0  0  0  0  0  0  0  0  0  0
    0.5295    2.2312    0.5666 C   0  0  2  0  0  0  0  0  0  0  0  0
    1.5292    2.1925    0.0750 H   0  0  0  0  0  0  0  0  0  0  0  0
   -1.6444    0.7094   -2.1788 C   0  0  0  0  0  0  0  0  0  0  0  0
   -1.3545   -0.0342   -2.9522 H   0  0  0  0  0  0  0  0  0  0  0  0
   -2.0850    1.5806   -2.7181 H   0  0  0  0  0  0  0  0  0  0  0  0
   -0.4357    3.5301   -1.3933 C   0  0  0  0  0  0  0  0  0  0  0  0
    0.5416    3.5218   -1.9289 H   0  0  0  0  0  0  0  0  0  0  0  0
   -1.2207    3.5234   -2.1778 H   0  0  0  0  0  0  0  0  0  0  0  0
    3.0351   -1.3074   -0.5835 C   0  0  1  0  0  3  0  0  0  0  0  0
    0.5352    4.8012    0.5468 C   0  0  0  0  0  0  0  0  0  0  0  0
    1.5428    4.8547    0.0774 H   0  0  0  0  0  0  0  0  0  0  0  0
    0.4430    5.6992    1.1919 H   0  0  0  0  0  0  0  0  0  0  0  0
    4.9538   -0.3345    0.5044 C   0  0  0  0  0  0  0  0  0  0  0  0
    6.0410   -0.1814    0.5877 H   0  0  0  0  0  0  0  0  0  0  0  0
    1.6438    0.7092    2.1790 C   0  0  0  0  0  0  0  0  0  0  0  0
    1.3538   -0.0346    2.9521 H   0  0  0  0  0  0  0  0  0  0  0  0
    2.0842    1.5804    2.7185 H   0  0  0  0  0  0  0  0  0  0  0  0
    2.7071    0.0865    1.2847 C   0  0  0  0  0  0  0  0  0  0  0  0
   -4.9539   -0.3349   -0.5037 C   0  0  0  0  0  0  0  0  0  0  0  0
   -6.0411   -0.1818   -0.5867 H   0  0  0  0  0  0  0  0  0  0  0  0
    4.4294   -1.1432   -0.5128 C   0  0  0  0  0  0  0  0  0  0  0  0
    5.0468   -1.6461   -1.2701 H   0  0  0  0  0  0  0  0  0  0  0  0
  2  6  2  0  0  0  0
  4 18  2  0  0  0  0
  5 13  1  0  0  0  0
  6  1  1  0  0  0  0
  7 10  1  0  0  0  0
  7 47  2  0  0  0  0
  8  7  1  0  0  0  0
  9 46  1  0  0  0  0
 10 31  1  1  0  0  0
 10  5  1  0  0  0  0
 11 27  1  0  0  0  0
 12 11  1  0  0  0  0
 13  6  1  0  0  0  0
 14 15  1  0  0  0  0
 16 13  2  0  0  0  0
 16 17  1  0  0  0  0
 18  3  1  0  0  0  0
 19 20  1  0  0  0  0
 19 43  1  0  0  0  0
 21 22  1  0  0  0  0
 21 23  1  0  0  0  0
 24 26  1  0  0  0  0
 24 38  1  0  0  0  0
 25 24  1  0  0  0  0
 27 28  1  1  0  0  0
 27 29  1  0  0  0  0
 29 30  1  6  0  0  0
 29 21  1  0  0  0  0
 29 19  1  0  0  0  0
 31 11  1  0  0  0  0
 32 31  1  0  0  0  0
 33 31  1  0  0  0  0
 34 27  1  0  0  0  0
 34 24  1  0  0  0  0
 35 34  1  0  0  0  0
 36 34  1  0  0  0  0
 37 18  1  6  0  0  0
 37 49  1  0  0  0  0
 37  9  1  0  0  0  0
 38 40  1  0  0  0  0
 38 21  1  0  0  0  0
 39 38  1  0  0  0  0
 41 42  1  0  0  0  0
 41 14  1  0  0  0  0
 43 45  1  0  0  0  0
 43 44  1  0  0  0  0
 46 14  2  0  0  0  0
 46 43  1  0  0  0  0
 47 16  1  0  0  0  0
 48 47  1  0  0  0  0
 49 41  2  0  0  0  0
 50 49  1  0  0  0  0
M  CHG  2   1  -1   3  -1
M  END
