1,2,5,6
q = -1.0

 54 57  0  0  1  0  0  0  0  0999 V2000
    0.7413    1.1045    1.7765 O   0  5  0  0  0  0  0  0  0  0  0  0
    0.7413   -1.1045    1.7765 O   0  5  0  0  0  0  0  0  0  0  0  0
    0.5877    2.2682   -1.4220 O   0  0  0  0  0  0  0  0  0  0  0  0
    0.5877   -2.2682   -1.4220 O   0  0  0  0  0  0  0  0  0  0  0  0
   -1.7964    1.3063    0.1894 N   0  0  0  0  0  2  0  0  0  0  0  0
   -1.7964   -1.3063    0.1894 N   0  0  0  0  0  2  0  0  0  0  0  0
    0.4747    0.0000   -1.0326 N   0  0  0  0  0  0  0  0  0  0  0  0
   -2.5361    2.3005    0.7455 C   0  0  0  0  0  3  0  0  0  0  0  0
   -2.5547    2.3038    1.8455 H   0  0  0  0  0  0  0  0  0  0  0  0
   -3.2486    3.2006   -0.0467 C   0  0  0  0  0  0  0  0  0  0  0  0
   -3.8388    3.9916    0.4377 H   0  0  0  0  0  0  0  0  0  0  0  0
   -3.2113    3.0769   -1.4482 C   0  0  0  0  0  0  0  0  0  0  0  0
   -3.7675    3.7763   -2.0892 H   0  0  0  0  0  0  0  0  0  0  0  0
   -2.4399    2.0542   -2.0148 C   0  0  0  0  0  0  0  0  0  0  0  0
   -2.3572    1.9316   -3.1042 H   0  0  0  0  0  0  0  0  0  0  0  0
   -1.7301    1.1988   -1.1671 C   0  0  0  0  0  0  0  0  0  0  0  0
   -0.9246    0.0000   -1.6329 C   0  0  2  0  0  0  0  0  0  0  0  0
   -0.8405    0.0000   -2.7381 H   0  0  0  0  0  0  0  0  0  0  0  0
   -1.7301   -1.1988   -1.1671 C   0  0  2  0  0  3  0  0  0  0  0  0
   -2.4399   -2.0541   -2.0149 C   0  0  0  0  0  0  0  0  0  0  0  0
   -2.3572   -1.9315   -3.1042 H   0  0  0  0  0  0  0  0  0  0  0  0
   -3.2112   -3.0769   -1.4483 C   0  0  0  0  0  0  0  0  0  0  0  0
   -3.7675   -3.7763   -2.0893 H   0  0  0  0  0  0  0  0  0  0  0  0
   -3.2485   -3.2006   -0.0468 C   0  0  0  0  0  0  0  0  0  0  0  0
   -3.8388   -3.9917    0.4376 H   0  0  0  0  0  0  0  0  0  0  0  0
   -2.5361   -2.3005    0.7454 C   0  0  0  0  0  0  0  0  0  0  0  0
   -2.5547   -2.3039    1.8454 H   0  0  0  0  0  0  0  0  0  0  0  0
    1.1878    1.2603   -1.1024 C   0  0  0  0  0  0  0  0  0  0  0  0
    1.1878   -1.2603   -1.1024 C   0  0  0  0  0  0  0  0  0  0  0  0
    2.7222    1.2585   -0.9091 C   0  0  2  0  0  0  0  0  0  0  0  0
    2.7222   -1.2585   -0.9091 C   0  0  1  0  0  0  0  0  0  0  0  0
    3.2676   -0.0000   -1.5955 C   0  0  0  0  0  0  0  0  0  0  0  0
    4.3766   -0.0000   -1.5366 H   0  0  0  0  0  0  0  0  0  0  0  0
    3.0053    0.0000   -2.6764 H   0  0  0  0  0  0  0  0  0  0  0  0
    3.1906    1.2673    0.5728 C   0  0  0  0  0  0  0  0  0  0  0  0
    4.2946    1.3937    0.5403 H   0  0  0  0  0  0  0  0  0  0  0  0
    2.7681    2.1504    1.0893 H   0  0  0  0  0  0  0  0  0  0  0  0
    2.8737   -0.0000    1.3890 C   0  0  2  0  0  0  0  0  0  0  0  0
    3.1906   -1.2673    0.5728 C   0  0  0  0  0  0  0  0  0  0  0  0
    2.7681   -2.1504    1.0893 H   0  0  0  0  0  0  0  0  0  0  0  0
    4.2946   -1.3938    0.5403 H   0  0  0  0  0  0  0  0  0  0  0  0
    1.3845   -0.0000    1.7298 C   0  0  0  0  0  3  0  0  0  0  0  0
    3.6649   -0.0000    2.7111 C   0  0  0  0  0  0  0  0  0  0  0  0
    3.4205   -0.8972    3.3137 H   0  0  0  0  0  0  0  0  0  0  0  0
    3.4205    0.8972    3.3137 H   0  0  0  0  0  0  0  0  0  0  0  0
    4.7563   -0.0000    2.5107 H   0  0  0  0  0  0  0  0  0  0  0  0
    3.2594    2.5267   -1.5903 C   0  0  0  0  0  0  0  0  0  0  0  0
    2.9766    2.5605   -2.6605 H   0  0  0  0  0  0  0  0  0  0  0  0
    4.3648    2.5452   -1.5180 H   0  0  0  0  0  0  0  0  0  0  0  0
    2.8539    3.4352   -1.1078 H   0  0  0  0  0  0  0  0  0  0  0  0
    3.2593   -2.5267   -1.5903 C   0  0  0  0  0  0  0  0  0  0  0  0
    2.9765   -2.5605   -2.6605 H   0  0  0  0  0  0  0  0  0  0  0  0
    2.8539   -3.4352   -1.1078 H   0  0  0  0  0  0  0  0  0  0  0  0
    4.3647   -2.5452   -1.5180 H   0  0  0  0  0  0  0  0  0  0  0  0
  3 28  2  0  0  0  0
  4 29  2  0  0  0  0
  5  8  1  0  0  0  0
  6 26  1  0  0  0  0
  8  9  1  0  0  0  0
 10 11  1  0  0  0  0
 10  8  1  0  0  0  0
 12 10  2  0  0  0  0
 13 12  1  0  0  0  0
 14 12  1  0  0  0  0
 14 16  2  0  0  0  0
 15 14  1  0  0  0  0
 16  5  1  0  0  0  0
 17 18  1  6  0  0  0
 17 16  1  0  0  0  0
 17  7  1  0  0  0  0
 19 17  1  1  0  0  0
 19  6  1  0  0  0  0
 20 22  2  0  0  0  0
 20 19  1  0  0  0  0
 21 20  1  0  0  0  0
 22 24  1  0  0  0  0
 23 22  1  0  0  0  0
 24 25  1  0  0  0  0
 24 26  2  0  0  0  0
 26 27  1  0  0  0  0
 28  7  1  0  0  0  0
 28 30  1  0  0  0  0
 29  7  1  0  0  0  0
 29 31  1  0  0  0  0
 30 47  1  6  0  0  0
 30 35  1  0  0  0  0
 31 51  1  6  0  0  0
 31 39  1  0  0  0  0
 32 33  1  0  0  0  0
 32 31  1  0  0  0  0
 32 30  1  0  0  0  0
 34 32  1  0  0  0  0
 35 37  1  0  0  0  0
 35 38  1  0  0  0  0
 36 35  1  0  0  0  0
 38 42  1  1  0  0  0
 38 43  1  0  0  0  0
 39 40  1  0  0  0  0
 39 38  1  0  0  0  0
 41 39  1  0  0  0  0
 42  2  1  0  0  0  0
 42  1  1  0  0  0  0
 43 44  1  0  0  0  0
 43 45  1  0  0  0  0
 46 43  1  0  0  0  0
 47 49  1  0  0  0  0
 47 50  1  0  0  0  0
 48 47  1  0  0  0  0
 51 54  1  0  0  0  0
 51 53  1  0  0  0  0
 52 51  1  0  0  0  0
M  CHG  2   1  -1   2  -1
M  END
