1,6,21,26
q = -2.0, confidence = 0.824

 56 60  0  0  1  0  0  0  0  0999 V2000
   -1.4717    1.2514    0.5454 N   0  0  0  0  0  2  0  0  0  0  0  0
   -2.5731    0.7936   -0.0203 C   0  0  0  0  0  3  0  0  0  0  0  0
   -3.2562    1.5394   -0.4695 H   0  0  0  0  0  0  0  0  0  0  0  0
   -2.8922   -0.5791   -0.2140 C   0  0  0  0  0  0  0  0  0  0  0  0
   -1.7947   -1.5143   -0.3245 C   0  0  0  0  0  0  0  0  0  0  0  0
   -0.5875   -1.2296    0.0309 O   0  5  0  0  0  0  0  0  0  0  0  0
   -2.0558   -2.7920   -0.9441 C   0  0  0  0  0  0  0  0  0  0  0  0
   -1.1969   -3.4679   -1.0621 H   0  0  0  0  0  0  0  0  0  0  0  0
   -3.3239   -3.1544   -1.3278 C   0  0  0  0  0  0  0  0  0  0  0  0
   -3.5006   -4.1489   -1.7685 H   0  0  0  0  0  0  0  0  0  0  0  0
   -5.7585   -2.6736   -1.5428 C   0  0  0  0  0  0  0  0  0  0  0  0
   -5.9007   -3.6772   -1.9736 H   0  0  0  0  0  0  0  0  0  0  0  0
   -6.8434   -1.8182   -1.3748 C   0  0  0  0  0  0  0  0  0  0  0  0
   -7.8538   -2.1359   -1.6718 H   0  0  0  0  0  0  0  0  0  0  0  0
   -6.6393   -0.5422   -0.8021 C   0  0  0  0  0  0  0  0  0  0  0  0
   -7.4960    0.1311   -0.6458 H   0  0  0  0  0  0  0  0  0  0  0  0
   -5.3646   -0.1351   -0.4116 C   0  0  0  0  0  0  0  0  0  0  0  0
   -5.2404    0.8423    0.0782 H   0  0  0  0  0  0  0  0  0  0  0  0
   -4.2347   -0.9762   -0.5953 C   0  0  0  0  0  0  0  0  0  0  0  0
   -4.4498   -2.2780   -1.1625 C   0  0  0  0  0  0  0  0  0  0  0  0
    1.0751    1.1475   -0.0243 N   0  0  0  0  0  2  0  0  0  0  0  0
    2.2131    0.7708   -0.5280 C   0  0  0  0  0  3  0  0  0  0  0  0
    2.6041    1.3383   -1.3943 H   0  0  0  0  0  0  0  0  0  0  0  0
    3.0417   -0.3207   -0.0707 C   0  0  0  0  0  0  0  0  0  0  0  0
    2.6806   -1.0972    1.0682 C   0  0  0  0  0  0  0  0  0  0  0  0
    1.5717   -0.9165    1.7569 O   0  5  0  0  0  0  0  0  0  0  0  0
    3.5450   -2.1398    1.5306 C   0  0  0  0  0  0  0  0  0  0  0  0
    3.2190   -2.7022    2.4166 H   0  0  0  0  0  0  0  0  0  0  0  0
    4.7262   -2.4161    0.8812 C   0  0  0  0  0  0  0  0  0  0  0  0
    5.3810   -3.2226    1.2469 H   0  0  0  0  0  0  0  0  0  0  0  0
    6.3514   -1.9879   -0.9387 C   0  0  0  0  0  0  0  0  0  0  0  0
    6.9736   -2.8023   -0.5358 H   0  0  0  0  0  0  0  0  0  0  0  0
    6.7528   -1.2847   -2.0652 C   0  0  0  0  0  0  0  0  0  0  0  0
    7.6982   -1.5301   -2.5711 H   0  0  0  0  0  0  0  0  0  0  0  0
    5.9274   -0.2468   -2.5595 C   0  0  0  0  0  0  0  0  0  0  0  0
    6.2324    0.3151   -3.4554 H   0  0  0  0  0  0  0  0  0  0  0  0
    4.7296    0.0730   -1.9297 C   0  0  0  0  0  0  0  0  0  0  0  0
    4.1239    0.8819   -2.3600 H   0  0  0  0  0  0  0  0  0  0  0  0
    4.2847   -0.6219   -0.7670 C   0  0  0  0  0  0  0  0  0  0  0  0
    5.1310   -1.6809   -0.2755 C   0  0  0  0  0  0  0  0  0  0  0  0
   -0.9103    2.5626    0.2267 C   0  0  1  0  0  0  0  0  0  0  0  0
   -0.5595    2.9913    1.1899 H   0  0  0  0  0  0  0  0  0  0  0  0
    0.3524    2.2743   -0.6289 C   0  0  1  0  0  0  0  0  0  0  0  0
   -0.0175    1.9405   -1.6288 H   0  0  0  0  0  0  0  0  0  0  0  0
    1.1583    3.5685   -0.8055 C   0  0  0  0  0  0  0  0  0  0  0  0
    2.0560    3.3892   -1.4324 H   0  0  0  0  0  0  0  0  0  0  0  0
    1.5237    3.8900    0.1939 H   0  0  0  0  0  0  0  0  0  0  0  0
    0.2844    4.6593   -1.4426 C   0  0  0  0  0  0  0  0  0  0  0  0
    0.8583    5.6057   -1.5183 H   0  0  0  0  0  0  0  0  0  0  0  0
    0.0378    4.3600   -2.4857 H   0  0  0  0  0  0  0  0  0  0  0  0
   -1.0193    4.8900   -0.6654 C   0  0  0  0  0  0  0  0  0  0  0  0
   -1.6498    5.6385   -1.1873 H   0  0  0  0  0  0  0  0  0  0  0  0
   -0.7817    5.3201    0.3320 H   0  0  0  0  0  0  0  0  0  0  0  0
   -1.8063    3.5842   -0.4703 C   0  0  0  0  0  0  0  0  0  0  0  0
   -2.7188    3.7668    0.1345 H   0  0  0  0  0  0  0  0  0  0  0  0
   -2.1395    3.1989   -1.4596 H   0  0  0  0  0  0  0  0  0  0  0  0
  2  1  1  0  0  0  0
  3  2  1  0  0  0  0
  4  2  1  0  0  0  0
  5  4  1  0  0  0  0
  5  6  1  0  0  0  0
  7  5  2  0  0  0  0
  8  7  1  0  0  0  0
  9 20  2  0  0  0  0
  9  7  1  0  0  0  0
 10  9  1  0  0  0  0
 11 13  2  0  0  0  0
 11 20  1  0  0  0  0
 12 11  1  0  0  0  0
 13 15  1  0  0  0  0
 14 13  1  0  0  0  0
 15 16  1  0  0  0  0
 15 17  2  0  0  0  0
 17 18  1  0  0  0  0
 19 17  1  0  0  0  0
 19  4  2  0  0  0  0
 20 19  1  0  0  0  0
 22 24  1  0  0  0  0
 22 21  1  0  0  0  0
 23 22  1  0  0  0  0
 24 25  1  0  0  0  0
 25 27  2  0  0  0  0
 25 26  1  0  0  0  0
 27 28  1  0  0  0  0
 29 30  1  0  0  0  0
 29 27  1  0  0  0  0
 31 32  1  0  0  0  0
 31 40  1  0  0  0  0
 33 31  2  0  0  0  0
 34 33  1  0  0  0  0
 35 33  1  0  0  0  0
 35 37  2  0  0  0  0
 36 35  1  0  0  0  0
 37 39  1  0  0  0  0
 38 37  1  0  0  0  0
 39 40  1  0  0  0  0
 39 24  2  0  0  0  0
 40 29  2  0  0  0  0
 41  1  1  0  0  0  0
 41 42  1  1  0  0  0
 43 44  1  6  0  0  0
 43 21  1  0  0  0  0
 43 41  1  0  0  0  0
 45 43  1  0  0  0  0
 45 47  1  0  0  0  0
 46 45  1  0  0  0  0
 48 45  1  0  0  0  0
 48 51  1  0  0  0  0
 49 48  1  0  0  0  0
 50 48  1  0  0  0  0
 51 54  1  0  0  0  0
 51 53  1  0  0  0  0
 52 51  1  0  0  0  0
 54 55  1  0  0  0  0
 54 41  1  0  0  0  0
 56 54  1  0  0  0  0
M  CHG  2   6  -1  26  -1
M  END
