47,48,49,50
q = -2.0, confidence = 0.886

 50 52  0  0  1  0  0  0  0  0999 V2000
    2.7581   -1.3457    0.4137 C   0  0  0  0  0  0  0  0  0  0  0  0
    1.9153   -2.2011   -0.3862 C   0  0  2  0  0  3  0  0  0  0  0  0
    2.3021   -3.5731   -0.5165 C   0  0  0  0  0  0  0  0  0  0  0  0
    1.6691   -4.2165   -1.1442 H   0  0  0  0  0  0  0  0  0  0  0  0
    3.4152   -4.0670    0.1531 C   0  0  0  0  0  0  0  0  0  0  0  0
    3.6719   -5.1337    0.0530 H   0  0  0  0  0  0  0  0  0  0  0  0
    4.2246   -3.2286    0.9630 C   0  0  0  0  0  0  0  0  0  0  0  0
    5.1015   -3.6379    1.4846 H   0  0  0  0  0  0  0  0  0  0  0  0
    3.9004   -1.8822    1.0705 C   0  0  0  0  0  0  0  0  0  0  0  0
    4.5320   -1.2034    1.6671 H   0  0  0  0  0  0  0  0  0  0  0  0
    2.5402    0.0671    0.3953 C   0  0  0  0  0  0  0  0  0  0  0  0
    3.3825    0.6668    0.7800 H   0  0  0  0  0  0  0  0  0  0  0  0
    1.5775    2.1890   -0.2581 C   0  0  1  0  0  0  0  0  0  0  0  0
    0.4540    2.8540    0.6234 C   0  0  0  0  0  0  0  0  0  0  0  0
   -0.8143    2.5552   -0.2193 C   0  0  1  0  0  0  0  0  0  0  0  0
   -1.6366    3.2415    0.0784 H   0  0  0  0  0  0  0  0  0  0  0  0
   -0.3798    2.7945   -1.6826 C   0  0  0  0  0  0  0  0  0  0  0  0
   -0.9752    2.1625   -2.3681 H   0  0  0  0  0  0  0  0  0  0  0  0
   -0.5783    3.8485   -1.9607 H   0  0  0  0  0  0  0  0  0  0  0  0
    1.1334    2.4847   -1.7262 C   0  0  0  0  0  0  0  0  0  0  0  0
    1.7048    3.3453   -2.1263 H   0  0  0  0  0  0  0  0  0  0  0  0
    1.3755    1.6140   -2.3645 H   0  0  0  0  0  0  0  0  0  0  0  0
    2.9728    2.7612    0.0119 C   0  0  0  0  0  0  0  0  0  0  0  0
    3.2763    2.6764    1.0747 H   0  0  0  0  0  0  0  0  0  0  0  0
    2.9885    3.8338   -0.2515 H   0  0  0  0  0  0  0  0  0  0  0  0
    3.7390    2.2598   -0.6118 H   0  0  0  0  0  0  0  0  0  0  0  0
    0.3801    2.2895    2.0442 C   0  0  0  0  0  0  0  0  0  0  0  0
   -0.4315    2.7832    2.6167 H   0  0  0  0  0  0  0  0  0  0  0  0
    1.3288    2.4685    2.5907 H   0  0  0  0  0  0  0  0  0  0  0  0
    0.1830    1.2015    2.0389 H   0  0  0  0  0  0  0  0  0  0  0  0
    0.6271    4.3830    0.6982 C   0  0  0  0  0  0  0  0  0  0  0  0
   -0.2752    4.8389    1.1542 H   0  0  0  0  0  0  0  0  0  0  0  0
    0.7730    4.8526   -0.2946 H   0  0  0  0  0  0  0  0  0  0  0  0
    1.4902    4.6593    1.3343 H   0  0  0  0  0  0  0  0  0  0  0  0
   -2.5478    1.0371    0.3032 C   0  0  0  0  0  0  0  0  0  0  0  0
   -3.0939    1.9640    0.5721 H   0  0  0  0  0  0  0  0  0  0  0  0
   -3.3011   -0.1717    0.3442 C   0  0  0  0  0  0  0  0  0  0  0  0
   -2.7455   -1.3762   -0.2237 C   0  0  1  0  0  3  0  0  0  0  0  0
   -3.5884   -2.5330   -0.2686 C   0  0  0  0  0  0  0  0  0  0  0  0
   -3.1649   -3.4453   -0.7126 H   0  0  0  0  0  0  0  0  0  0  0  0
   -4.8784   -2.4978    0.2449 C   0  0  0  0  0  0  0  0  0  0  0  0
   -5.4959   -3.4093    0.2076 H   0  0  0  0  0  0  0  0  0  0  0  0
   -5.4164   -1.3137    0.8144 C   0  0  0  0  0  0  0  0  0  0  0  0
   -6.4407   -1.3045    1.2135 H   0  0  0  0  0  0  0  0  0  0  0  0
   -4.6326   -0.1687    0.8491 C   0  0  0  0  0  0  0  0  0  0  0  0
   -5.0326    0.7685    1.2698 H   0  0  0  0  0  0  0  0  0  0  0  0
    1.4942    0.7104   -0.0788 N   0  0  0  0  0  2  0  0  0  0  0  0
   -1.2886    1.1802   -0.0595 N   0  0  0  0  0  2  0  0  0  0  0  0
    0.8656   -1.7647   -1.0060 O   0  0  0  0  0  1  0  0  0  0  0  0
   -1.5451   -1.4479   -0.7066 O   0  0  0  0  0  1  0  0  0  0  0  0
  1  9  1  0  0  0  0
  2 49  1  6  0  0  0
  2  1  1  0  0  0  0
  3  2  1  0  0  0  0
  3  5  2  0  0  0  0
  4  3  1  0  0  0  0
  5  7  1  0  0  0  0
  6  5  1  0  0  0  0
  7  9  2  0  0  0  0
  7  8  1  0  0  0  0
  9 10  1  0  0  0  0
 11  1  2  0  0  0  0
 11 12  1  0  0  0  0
 13 47  1  1  0  0  0
 13 23  1  0  0  0  0
 13 14  1  0  0  0  0
 14 31  1  0  0  0  0
 14 27  1  0  0  0  0
 15 48  1  0  0  0  0
 15 16  1  1  0  0  0
 15 14  1  0  0  0  0
 17 15  1  0  0  0  0
 18 17  1  0  0  0  0
 19 17  1  0  0  0  0
 20 17  1  0  0  0  0
 20 13  1  0  0  0  0
 21 20  1  0  0  0  0
 22 20  1  0  0  0  0
 23 24  1  0  0  0  0
 25 23  1  0  0  0  0
 26 23  1  0  0  0  0
 27 29  1  0  0  0  0
 27 28  1  0  0  0  0
 30 27  1  0  0  0  0
 31 32  1  0  0  0  0
 31 34  1  0  0  0  0
 33 31  1  0  0  0  0
 35 37  2  0  0  0  0
 35 36  1  0  0  0  0
 37 45  1  0  0  0  0
 38 50  1  6  0  0  0
 38 37  1  0  0  0  0
 39 38  1  0  0  0  0
 39 41  2  0  0  0  0
 40 39  1  0  0  0  0
 41 43  1  0  0  0  0
 42 41  1  0  0  0  0
 43 45  2  0  0  0  0
 43 44  1  0  0  0  0
 45 46  1  0  0  0  0
 47 11  1  0  0  0  0
 48 35  1  0  0  0  0
M  END
