1,2,5,6
q = -2.0, confidence = 0.842

 42 43  0  0  0  0  0  0  0  0999 V2000
    1.2958    0.4333   -0.7944 O   0  5  0  0  0  0  0  0  0  0  0  0
   -1.3453    0.4571   -0.4850 O   0  5  0  0  0  0  0  0  0  0  0  0
    2.5828    2.7006   -0.5876 O   0  0  0  0  0  0  0  0  0  0  0  0
   -2.7145    2.6699   -0.4502 O   0  0  0  0  0  0  0  0  0  0  0  0
    1.2846   -2.2763   -0.4884 N   0  0  0  0  0  2  0  0  0  0  0  0
   -1.2732   -2.2794   -0.0833 N   0  0  0  0  0  2  0  0  0  0  0  0
    2.5537    0.3509   -0.4423 C   0  0  0  0  0  0  0  0  0  0  0  0
    3.3062    1.5770   -0.3343 C   0  0  0  0  0  0  0  0  0  0  0  0
    3.2203    3.9502   -0.4259 C   0  0  0  0  0  0  0  0  0  0  0  0
    3.5920    4.0942    0.6141 H   0  0  0  0  0  0  0  0  0  0  0  0
    2.4589    4.7212   -0.6460 H   0  0  0  0  0  0  0  0  0  0  0  0
    4.0759    4.0754   -1.1284 H   0  0  0  0  0  0  0  0  0  0  0  0
    4.6596    1.5529    0.0152 C   0  0  0  0  0  0  0  0  0  0  0  0
    5.2187    2.4939    0.1096 H   0  0  0  0  0  0  0  0  0  0  0  0
    5.3260    0.3274    0.2597 C   0  0  0  0  0  0  0  0  0  0  0  0
    6.3904    0.3360    0.5348 H   0  0  0  0  0  0  0  0  0  0  0  0
    4.6327   -0.8689    0.1573 C   0  0  0  0  0  0  0  0  0  0  0  0
    5.1371   -1.8287    0.3485 H   0  0  0  0  0  0  0  0  0  0  0  0
    3.2495   -0.8760   -0.1824 C   0  0  0  0  0  0  0  0  0  0  0  0
    2.5661   -2.1327   -0.3066 C   0  0  0  0  0  3  0  0  0  0  0  0
    3.1869   -3.0508   -0.2551 H   0  0  0  0  0  0  0  0  0  0  0  0
    0.6614   -3.5848   -0.6328 C   0  0  0  0  0  0  0  0  0  0  0  0
    1.3456   -4.4022   -0.3202 H   0  0  0  0  0  0  0  0  0  0  0  0
    0.3927   -3.7378   -1.7014 H   0  0  0  0  0  0  0  0  0  0  0  0
   -0.6050   -3.5422    0.2164 C   0  0  0  0  0  0  0  0  0  0  0  0
   -1.2674   -4.4139    0.0282 H   0  0  0  0  0  0  0  0  0  0  0  0
   -0.3214   -3.5243    1.2917 H   0  0  0  0  0  0  0  0  0  0  0  0
   -2.5602   -2.1460    0.0804 C   0  0  0  0  0  3  0  0  0  0  0  0
   -3.1448   -3.0598    0.3128 H   0  0  0  0  0  0  0  0  0  0  0  0
   -3.2941   -0.9155    0.0143 C   0  0  0  0  0  0  0  0  0  0  0  0
   -4.7035   -0.9438    0.2360 C   0  0  0  0  0  0  0  0  0  0  0  0
   -5.1878   -1.9135    0.4294 H   0  0  0  0  0  0  0  0  0  0  0  0
   -5.4450    0.2258    0.2221 C   0  0  0  0  0  0  0  0  0  0  0  0
   -6.5299    0.2040    0.3987 H   0  0  0  0  0  0  0  0  0  0  0  0
   -4.8003    1.4675   -0.0086 C   0  0  0  0  0  0  0  0  0  0  0  0
   -5.3973    2.3897   -0.0024 H   0  0  0  0  0  0  0  0  0  0  0  0
   -3.4232    1.5297   -0.2312 C   0  0  0  0  0  0  0  0  0  0  0  0
   -3.4090    3.8985   -0.4136 C   0  0  0  0  0  0  0  0  0  0  0  0
   -4.1911    3.9593   -1.2050 H   0  0  0  0  0  0  0  0  0  0  0  0
   -2.6566    4.6894   -0.5902 H   0  0  0  0  0  0  0  0  0  0  0  0
   -3.8929    4.0730    0.5744 H   0  0  0  0  0  0  0  0  0  0  0  0
   -2.6208    0.3269   -0.2373 C   0  0  0  0  0  0  0  0  0  0  0  0
  1  7  1  0  0  0  0
  2 42  1  0  0  0  0
  3  9  1  0  0  0  0
  3  8  1  0  0  0  0
  4 38  1  0  0  0  0
  4 37  1  0  0  0  0
  5 20  1  0  0  0  0
  6 28  1  0  0  0  0
  6 25  1  0  0  0  0
  7  8  2  0  0  0  0
  7 19  1  0  0  0  0
  8 13  1  0  0  0  0
  9 10  1  0  0  0  0
 11  9  1  0  0  0  0
 12  9  1  0  0  0  0
 13 14  1  0  0  0  0
 13 15  2  0  0  0  0
 15 16  1  0  0  0  0
 17 15  1  0  0  0  0
 17 18  1  0  0  0  0
 19 17  2  0  0  0  0
 20 21  1  0  0  0  0
 20 19  1  0  0  0  0
 22  5  1  0  0  0  0
 22 23  1  0  0  0  0
 22 25  1  0  0  0  0
 24 22  1  0  0  0  0
 25 27  1  0  0  0  0
 26 25  1  0  0  0  0
 28 29  1  0  0  0  0
 30 28  1  0  0  0  0
 30 31  1  0  0  0  0
 31 32  1  0  0  0  0
 33 31  2  0  0  0  0
 33 34  1  0  0  0  0
 35 36  1  0  0  0  0
 35 33  1  0  0  0  0
 37 35  2  0  0  0  0
 38 41  1  0  0  0  0
 39 38  1  0  0  0  0
 40 38  1  0  0  0  0
 42 37  1  0  0  0  0
 42 30  2  0  0  0  0
M  CHG  2   1  -1   2  -1
M  END
