1,2,11,12
q = -2.0, confidence = 0.844

 45 46  0  0  1  0  0  0  0  0999 V2000
    0.7823    1.4082   -0.7093 O   0  0  0  0  0  1  0  0  0  0  0  0
   -1.3378    0.2203   -0.4217 O   0  0  0  0  0  1  0  0  0  0  0  0
    2.2342   -0.7406   -3.6655 O   0  0  0  0  0  0  0  0  0  0  0  0
    1.2805    1.2121   -3.4084 O   0  0  0  0  0  0  0  0  0  0  0  0
    6.3952   -1.2527   -1.2118 O   0  0  0  0  0  0  0  0  0  0  0  0
    6.4890   -0.5752    0.8685 O   0  0  0  0  0  0  0  0  0  0  0  0
   -0.7206   -1.3646   -2.5556 O   0  0  0  0  0  0  0  0  0  0  0  0
   -2.6641   -1.8126   -3.4554 O   0  0  0  0  0  0  0  0  0  0  0  0
   -5.2888   -4.6208   -0.3077 O   0  0  0  0  0  0  0  0  0  0  0  0
   -5.5046   -3.9178    1.7549 O   0  0  0  0  0  0  0  0  0  0  0  0
    0.9027    2.1774    1.8270 N   0  0  0  0  0  2  0  0  0  0  0  0
   -1.6787    1.0973    2.1369 N   0  0  0  0  0  2  0  0  0  0  0  0
    2.0113    0.2939   -3.0359 N   0  0  0  0  0  0  0  0  0  0  0  0
    5.9430   -0.6404   -0.2399 N   0  0  0  0  0  0  0  0  0  0  0  0
   -1.9270   -1.6069   -2.4906 N   0  0  0  0  0  0  0  0  0  0  0  0
   -5.0193   -3.8577    0.6218 N   0  0  0  0  0  0  0  0  0  0  0  0
    2.0051    1.0463   -0.6301 C   0  0  2  0  0  3  0  0  0  0  0  0
    2.7005    0.4571   -1.7476 C   0  0  0  0  0  0  0  0  0  0  0  0
    3.9722   -0.0821   -1.6229 C   0  0  0  0  0  0  0  0  0  0  0  0
    4.6478    0.0204   -0.3956 C   0  0  0  0  0  0  0  0  0  0  0  0
    4.0752    0.6822    0.6959 C   0  0  0  0  0  0  0  0  0  0  0  0
    2.7706    1.1855    0.5963 C   0  0  0  0  0  0  0  0  0  0  0  0
    2.1791    1.9316    1.6787 C   0  0  0  0  0  0  0  0  0  0  0  0
    0.5027    3.1073    2.8787 C   0  0  0  0  0  0  0  0  0  0  0  0
   -0.5015    2.4884    3.8422 C   0  0  0  0  0  0  0  0  0  0  0  0
   -1.8166    2.1282    3.1677 C   0  0  0  0  0  0  0  0  0  0  0  0
   -2.5552    0.1260    2.1601 C   0  0  0  0  0  0  0  0  0  0  0  0
   -2.7798   -0.8701    1.1494 C   0  0  0  0  0  0  0  0  0  0  0  0
   -3.7111   -1.8985    1.3814 C   0  0  0  0  0  0  0  0  0  0  0  0
   -4.0428   -2.7908    0.3603 C   0  0  0  0  0  0  0  0  0  0  0  0
   -3.4777   -2.6735   -0.9219 C   0  0  0  0  0  0  0  0  0  0  0  0
   -2.5384   -1.6792   -1.1544 C   0  0  0  0  0  0  0  0  0  0  0  0
   -2.1480   -0.7265   -0.1443 C   0  0  1  0  0  3  0  0  0  0  0  0
    4.4334   -0.6144   -2.4646 H   0  0  0  0  0  0  0  0  0  0  0  0
    4.6537    0.7633    1.6266 H   0  0  0  0  0  0  0  0  0  0  0  0
    2.8763    2.3636    2.4239 H   0  0  0  0  0  0  0  0  0  0  0  0
    0.0444    3.9929    2.3864 H   0  0  0  0  0  0  0  0  0  0  0  0
    1.4032    3.4613    3.4256 H   0  0  0  0  0  0  0  0  0  0  0  0
   -0.7138    3.2247    4.6441 H   0  0  0  0  0  0  0  0  0  0  0  0
   -0.0543    1.5955    4.3296 H   0  0  0  0  0  0  0  0  0  0  0  0
   -2.5522    1.7877    3.9277 H   0  0  0  0  0  0  0  0  0  0  0  0
   -2.2562    3.0191    2.6572 H   0  0  0  0  0  0  0  0  0  0  0  0
   -3.2406    0.0886    3.0298 H   0  0  0  0  0  0  0  0  0  0  0  0
   -4.2052   -2.0137    2.3567 H   0  0  0  0  0  0  0  0  0  0  0  0
   -3.7739   -3.3657   -1.7210 H   0  0  0  0  0  0  0  0  0  0  0  0
  3 13  2  0  0  0  0
  4 13  2  0  0  0  0
  5 14  2  0  0  0  0
  7 15  2  0  0  0  0
  8 15  2  0  0  0  0
  9 16  2  0  0  0  0
 11 24  1  0  0  0  0
 12 27  1  0  0  0  0
 12 26  1  0  0  0  0
 13 18  1  0  0  0  0
 14  6  2  0  0  0  0
 15 32  1  0  0  0  0
 16 10  2  0  0  0  0
 17  1  1  1  0  0  0
 17 22  1  0  0  0  0
 18 19  2  0  0  0  0
 18 17  1  0  0  0  0
 19 20  1  0  0  0  0
 20 14  1  0  0  0  0
 20 21  2  0  0  0  0
 21 35  1  0  0  0  0
 22 21  1  0  0  0  0
 22 23  2  0  0  0  0
 23 11  1  0  0  0  0
 23 36  1  0  0  0  0
 24 38  1  0  0  0  0
 24 25  1  0  0  0  0
 25 40  1  0  0  0  0
 25 39  1  0  0  0  0
 26 25  1  0  0  0  0
 26 41  1  0  0  0  0
 27 43  1  0  0  0  0
 28 29  1  0  0  0  0
 28 27  2  0  0  0  0
 29 44  1  0  0  0  0
 30 16  1  0  0  0  0
 30 29  2  0  0  0  0
 31 30  1  0  0  0  0
 32 31  2  0  0  0  0
 32 33  1  0  0  0  0
 33  2  1  6  0  0  0
 33 28  1  0  0  0  0
 34 19  1  0  0  0  0
 37 24  1  0  0  0  0
 42 26  1  0  0  0  0
 45 31  1  0  0  0  0
M  END
