1,2,3,4
q = -2.0, confidence = 0.892

 68 70  0  0  1  0  0  0  0  0999 V2000
    1.6660   -0.3808   -0.5109 O   0  5  0  0  0  0  0  0  0  0  0  0
   -0.5255    1.2019    0.4118 O   0  5  0  0  0  0  0  0  0  0  0  0
   -0.6439   -1.7182    0.7773 N   0  0  0  0  0  2  0  0  0  0  0  0
   -2.4110   -0.4833   -0.7064 N   0  0  0  0  0  2  0  0  0  0  0  0
    2.3338   -1.0121    0.4112 C   0  0  0  0  0  0  0  0  0  0  0  0
    3.7849   -0.9359    0.3628 C   0  0  0  0  0  0  0  0  0  0  0  0
    4.5122   -1.5117    1.4050 C   0  0  0  0  0  0  0  0  0  0  0  0
    5.6083   -1.4435    1.3876 H   0  0  0  0  0  0  0  0  0  0  0  0
    3.9114   -2.1972    2.4890 C   0  0  0  0  0  0  0  0  0  0  0  0
    4.5366   -2.6269    3.2847 H   0  0  0  0  0  0  0  0  0  0  0  0
    2.5379   -2.3398    2.5098 C   0  0  0  0  0  0  0  0  0  0  0  0
    2.0455   -2.8999    3.3213 H   0  0  0  0  0  0  0  0  0  0  0  0
    1.7203   -1.7785    1.4830 C   0  0  0  0  0  0  0  0  0  0  0  0
    0.3183   -2.0657    1.5909 C   0  0  0  0  0  3  0  0  0  0  0  0
    0.0449   -2.6785    2.4733 H   0  0  0  0  0  0  0  0  0  0  0  0
    4.4896   -0.2579   -0.8295 C   0  0  0  0  0  0  0  0  0  0  0  0
    6.0227   -0.3492   -0.7121 C   0  0  0  0  0  0  0  0  0  0  0  0
    6.4852    0.1300   -1.5982 H   0  0  0  0  0  0  0  0  0  0  0  0
    6.3787   -1.3991   -0.6778 H   0  0  0  0  0  0  0  0  0  0  0  0
    6.4053    0.1781    0.1856 H   0  0  0  0  0  0  0  0  0  0  0  0
    4.0791   -0.9692   -2.1420 C   0  0  0  0  0  0  0  0  0  0  0  0
    4.5890   -0.4945   -3.0059 H   0  0  0  0  0  0  0  0  0  0  0  0
    2.9878   -0.9073   -2.3058 H   0  0  0  0  0  0  0  0  0  0  0  0
    4.3721   -2.0387   -2.1176 H   0  0  0  0  0  0  0  0  0  0  0  0
    4.1147    1.2399   -0.9049 C   0  0  0  0  0  0  0  0  0  0  0  0
    4.6548    1.7233   -1.7454 H   0  0  0  0  0  0  0  0  0  0  0  0
    4.3971    1.7651    0.0302 H   0  0  0  0  0  0  0  0  0  0  0  0
    3.0305    1.3732   -1.0610 H   0  0  0  0  0  0  0  0  0  0  0  0
   -1.3824    2.1663    0.2111 C   0  0  0  0  0  0  0  0  0  0  0  0
   -1.0590    3.5123    0.6389 C   0  0  0  0  0  0  0  0  0  0  0  0
   -1.9990    4.5194    0.4053 C   0  0  0  0  0  0  0  0  0  0  0  0
   -1.7534    5.5499    0.6964 H   0  0  0  0  0  0  0  0  0  0  0  0
   -3.2645    4.2859   -0.1869 C   0  0  0  0  0  0  0  0  0  0  0  0
   -3.9622    5.1222   -0.3383 H   0  0  0  0  0  0  0  0  0  0  0  0
   -3.6130    2.9963   -0.5470 C   0  0  0  0  0  0  0  0  0  0  0  0
   -4.6049    2.7783   -0.9744 H   0  0  0  0  0  0  0  0  0  0  0  0
   -2.6908    1.9264   -0.3744 C   0  0  0  0  0  0  0  0  0  0  0  0
   -3.1608    0.5809   -0.5428 C   0  0  0  0  0  3  0  0  0  0  0  0
   -4.2525    0.4246   -0.4464 H   0  0  0  0  0  0  0  0  0  0  0  0
    0.2998    3.8065    1.3000 C   0  0  0  0  0  0  0  0  0  0  0  0
    0.4378    2.9783    2.6002 C   0  0  0  0  0  0  0  0  0  0  0  0
   -0.3624    3.2441    3.3213 H   0  0  0  0  0  0  0  0  0  0  0  0
    1.4155    3.1900    3.0811 H   0  0  0  0  0  0  0  0  0  0  0  0
    0.3803    1.8949    2.3892 H   0  0  0  0  0  0  0  0  0  0  0  0
    1.4411    3.4421    0.3225 C   0  0  0  0  0  0  0  0  0  0  0  0
    2.4251    3.6666    0.7839 H   0  0  0  0  0  0  0  0  0  0  0  0
    1.3613    4.0310   -0.6142 H   0  0  0  0  0  0  0  0  0  0  0  0
    1.4176    2.3678    0.0687 H   0  0  0  0  0  0  0  0  0  0  0  0
    0.4474    5.2935    1.6696 C   0  0  0  0  0  0  0  0  0  0  0  0
   -0.3280    5.6251    2.3902 H   0  0  0  0  0  0  0  0  0  0  0  0
    0.3994    5.9524    0.7786 H   0  0  0  0  0  0  0  0  0  0  0  0
    1.4350    5.4546    2.1466 H   0  0  0  0  0  0  0  0  0  0  0  0
   -2.0433   -2.1108    1.0137 C   0  0  1  0  0  0  0  0  0  0  0  0
   -2.4590   -1.4303    1.7957 H   0  0  0  0  0  0  0  0  0  0  0  0
   -2.8514   -1.8135   -0.2822 C   0  0  1  0  0  0  0  0  0  0  0  0
   -2.5065   -2.5336   -1.0565 H   0  0  0  0  0  0  0  0  0  0  0  0
   -4.3448   -2.0431   -0.0468 C   0  0  0  0  0  0  0  0  0  0  0  0
   -4.9152   -1.8084   -0.9694 H   0  0  0  0  0  0  0  0  0  0  0  0
   -4.7165   -1.3632    0.7505 H   0  0  0  0  0  0  0  0  0  0  0  0
   -4.5755   -3.5010    0.3798 C   0  0  0  0  0  0  0  0  0  0  0  0
   -5.6554   -3.6749    0.5626 H   0  0  0  0  0  0  0  0  0  0  0  0
   -4.2866   -4.1762   -0.4555 H   0  0  0  0  0  0  0  0  0  0  0  0
   -3.7594   -3.8572    1.6292 C   0  0  0  0  0  0  0  0  0  0  0  0
   -3.9044   -4.9246    1.8934 H   0  0  0  0  0  0  0  0  0  0  0  0
   -4.1403   -3.2679    2.4928 H   0  0  0  0  0  0  0  0  0  0  0  0
   -2.2626   -3.5656    1.4470 C   0  0  0  0  0  0  0  0  0  0  0  0
   -1.7222   -3.7781    2.3916 H   0  0  0  0  0  0  0  0  0  0  0  0
   -1.8260   -4.2336    0.6723 H   0  0  0  0  0  0  0  0  0  0  0  0
  1  5  1  0  0  0  0
  3 53  1  0  0  0  0
  3 14  1  0  0  0  0
  4 38  1  0  0  0  0
  4 55  1  0  0  0  0
  5 13  1  0  0  0  0
  6  5  2  0  0  0  0
  6  7  1  0  0  0  0
  7  9  2  0  0  0  0
  8  7  1  0  0  0  0
  9 11  1  0  0  0  0
  9 10  1  0  0  0  0
 11 12  1  0  0  0  0
 13 14  1  0  0  0  0
 13 11  2  0  0  0  0
 14 15  1  0  0  0  0
 16 17  1  0  0  0  0
 16  6  1  0  0  0  0
 17 19  1  0  0  0  0
 17 20  1  0  0  0  0
 18 17  1  0  0  0  0
 21 24  1  0  0  0  0
 21 16  1  0  0  0  0
 22 21  1  0  0  0  0
 23 21  1  0  0  0  0
 25 16  1  0  0  0  0
 25 27  1  0  0  0  0
 26 25  1  0  0  0  0
 28 25  1  0  0  0  0
 29  2  1  0  0  0  0
 29 30  1  0  0  0  0
 30 40  1  0  0  0  0
 31 30  2  0  0  0  0
 31 32  1  0  0  0  0
 33 31  1  0  0  0  0
 34 33  1  0  0  0  0
 35 37  1  0  0  0  0
 35 33  2  0  0  0  0
 36 35  1  0  0  0  0
 37 29  2  0  0  0  0
 38 39  1  0  0  0  0
 38 37  1  0  0  0  0
 40 49  1  0  0  0  0
 40 41  1  0  0  0  0
 41 43  1  0  0  0  0
 41 42  1  0  0  0  0
 44 41  1  0  0  0  0
 45 46  1  0  0  0  0
 45 40  1  0  0  0  0
 47 45  1  0  0  0  0
 48 45  1  0  0  0  0
 49 52  1  0  0  0  0
 49 50  1  0  0  0  0
 51 49  1  0  0  0  0
 53 66  1  0  0  0  0
 53 54  1  1  0  0  0
 55 56  1  6  0  0  0
 55 57  1  0  0  0  0
 55 53  1  0  0  0  0
 57 60  1  0  0  0  0
 57 59  1  0  0  0  0
 58 57  1  0  0  0  0
 60 61  1  0  0  0  0
 60 63  1  0  0  0  0
 62 60  1  0  0  0  0
 63 64  1  0  0  0  0
 63 65  1  0  0  0  0
 66 63  1  0  0  0  0
 66 67  1  0  0  0  0
 68 66  1  0  0  0  0
M  CHG  2   1  -1   2  -1
M  END
