1,2,4,5
q = -2.0, confidence = 0.826

 41 41  0  0  1  0  0  0  0  0999 V2000
    1.2195    1.6347   -0.6647 O   0  5  0  0  0  0  0  0  0  0  0  0
   -0.9177    0.2479    0.2704 O   0  5  0  0  0  0  0  0  0  0  0  0
   -3.2979    1.3531    0.2299 O   0  0  0  0  0  0  0  0  0  0  0  0
    0.6160   -1.9762    0.2949 N   0  0  0  0  0  2  0  0  0  0  0  0
    2.7229   -0.5785   -0.0420 N   0  0  0  0  0  2  0  0  0  0  0  0
   -0.5211   -2.6238    0.1479 C   0  0  0  0  0  0  0  0  0  0  0  0
    1.8417   -2.6999    0.6222 C   0  0  0  0  0  0  0  0  0  0  0  0
    2.9651   -2.0152   -0.1578 C   0  0  0  0  0  0  0  0  0  0  0  0
    3.7179    0.2978    0.1434 C   0  0  2  0  0  3  0  0  0  0  0  0
    3.4648    1.7038    0.1182 C   0  0  0  0  0  0  0  0  0  0  0  0
    2.2919    2.3067   -0.3865 C   0  0  0  0  0  0  0  0  0  0  0  0
    2.2504    3.7774   -0.7012 C   0  0  0  0  0  0  0  0  0  0  0  0
   -1.7969   -1.9865   -0.0565 C   0  0  0  0  0  0  0  0  0  0  0  0
   -1.9375   -0.5570    0.0831 C   0  0  0  0  0  0  0  0  0  0  0  0
   -3.2625    0.0195    0.0617 C   0  0  0  0  0  0  0  0  0  0  0  0
   -4.3751   -0.8063   -0.1536 C   0  0  0  0  0  0  0  0  0  0  0  0
   -4.2148   -2.2012   -0.3089 C   0  0  0  0  0  0  0  0  0  0  0  0
   -2.9551   -2.7884   -0.2475 C   0  0  0  0  0  3  0  0  0  0  0  0
    5.1454   -0.1610    0.3216 C   0  0  0  0  0  0  0  0  0  0  0  0
   -4.5699    2.0215    0.2256 C   0  0  0  0  0  0  0  0  0  0  0  0
   -4.3248    3.4970    0.4622 C   0  0  0  0  0  0  0  0  0  0  0  0
   -0.5168   -3.7282    0.2322 H   0  0  0  0  0  0  0  0  0  0  0  0
    2.0307   -2.5972    1.7127 H   0  0  0  0  0  0  0  0  0  0  0  0
    1.7628   -3.7816    0.3842 H   0  0  0  0  0  0  0  0  0  0  0  0
    3.9574   -2.3261    0.2218 H   0  0  0  0  0  0  0  0  0  0  0  0
    2.9072   -2.3027   -1.2309 H   0  0  0  0  0  0  0  0  0  0  0  0
    4.3236    2.3633    0.3010 H   0  0  0  0  0  0  0  0  0  0  0  0
    2.1693    3.9164   -1.7997 H   0  0  0  0  0  0  0  0  0  0  0  0
    1.3458    4.2381   -0.2561 H   0  0  0  0  0  0  0  0  0  0  0  0
    3.1510    4.3097   -0.3461 H   0  0  0  0  0  0  0  0  0  0  0  0
   -5.3830   -0.3742   -0.1997 H   0  0  0  0  0  0  0  0  0  0  0  0
   -5.1051   -2.8269   -0.4664 H   0  0  0  0  0  0  0  0  0  0  0  0
   -2.8430   -3.8797   -0.3297 H   0  0  0  0  0  0  0  0  0  0  0  0
    5.5170   -0.6708   -0.5915 H   0  0  0  0  0  0  0  0  0  0  0  0
    5.2458   -0.8781    1.1620 H   0  0  0  0  0  0  0  0  0  0  0  0
    5.8119    0.6963    0.5211 H   0  0  0  0  0  0  0  0  0  0  0  0
   -5.0726    1.8462   -0.7526 H   0  0  0  0  0  0  0  0  0  0  0  0
   -5.2169    1.5850    1.0199 H   0  0  0  0  0  0  0  0  0  0  0  0
   -3.8312    3.6638    1.4395 H   0  0  0  0  0  0  0  0  0  0  0  0
   -3.6834    3.9241   -0.3334 H   0  0  0  0  0  0  0  0  0  0  0  0
   -5.2879    4.0435    0.4626 H   0  0  0  0  0  0  0  0  0  0  0  0
  1 11  1  0  0  0  0
  4  7  1  0  0  0  0
  6 22  1  0  0  0  0
  6  4  1  0  0  0  0
  7 23  1  0  0  0  0
  8  5  1  0  0  0  0
  8 25  1  0  0  0  0
  8  7  1  0  0  0  0
  9  5  1  6  0  0  0
  9 19  1  0  0  0  0
 10  9  1  0  0  0  0
 10 27  1  0  0  0  0
 11 10  2  0  0  0  0
 12 11  1  0  0  0  0
 12 30  1  0  0  0  0
 12 29  1  0  0  0  0
 13 14  1  0  0  0  0
 13  6  2  0  0  0  0
 14  2  1  0  0  0  0
 15 14  2  0  0  0  0
 15  3  1  0  0  0  0
 16 15  1  0  0  0  0
 17 18  1  0  0  0  0
 17 16  2  0  0  0  0
 18 13  1  0  0  0  0
 19 36  1  0  0  0  0
 19 35  1  0  0  0  0
 20  3  1  0  0  0  0
 20 21  1  0  0  0  0
 20 38  1  0  0  0  0
 21 41  1  0  0  0  0
 21 39  1  0  0  0  0
 24  7  1  0  0  0  0
 26  8  1  0  0  0  0
 28 12  1  0  0  0  0
 31 16  1  0  0  0  0
 32 17  1  0  0  0  0
 33 18  1  0  0  0  0
 34 19  1  0  0  0  0
 37 20  1  0  0  0  0
 40 21  1  0  0  0  0
M  CHG  2   1  -1   2  -1
M  END
