3,4,5,6
q = -2.0, confidence = 0.878

 73 75  0  0  1  0  0  0  0  0999 V2000
    6.2669   -2.2294   -2.1819 Cl  0  0  0  0  0  0  0  0  0  0  0  0
    3.1126   -3.0373    2.1630 Cl  0  0  0  0  0  0  0  0  0  0  0  0
   -0.2311   -0.4449   -0.5288 O   0  5  0  0  0  0  0  0  0  0  0  0
    1.8028   -0.6170    1.3410 O   0  5  0  0  0  0  0  0  0  0  0  0
    1.5320    1.7180   -0.4435 N   0  0  0  0  0  2  0  0  0  0  0  0
   -1.0582    2.2954    0.2857 N   0  0  0  0  0  0  0  0  0  0  0  0
    4.2556   -0.5392   -1.4487 C   0  0  0  0  0  0  0  0  0  0  0  0
   -3.8280    0.2081   -0.7050 C   0  0  0  0  0  0  0  0  0  0  0  0
    2.7672   -0.8865    0.5230 C   0  0  0  0  0  0  0  0  0  0  0  0
   -0.1794    3.4543   -0.1225 C   0  0  2  0  0  0  0  0  0  0  0  0
   -2.4401    0.3992   -0.6916 C   0  0  0  0  0  0  0  0  0  0  0  0
    2.0272    4.1134   -1.1027 C   0  0  0  0  0  0  0  0  0  0  0  0
    3.5411   -2.0802    0.7775 C   0  0  0  0  0  0  0  0  0  0  0  0
   -1.8173    1.7448   -0.9022 C   0  0  0  0  0  0  0  0  0  0  0  0
    2.5525    1.1318   -1.0085 C   0  0  0  0  0  3  0  0  0  0  0  0
   -0.3874   -3.2727    0.7839 C   0  0  0  0  0  0  0  0  0  0  0  0
   -2.0720   -2.0302   -0.6091 C   0  0  0  0  0  0  0  0  0  0  0  0
   -0.8742    4.6400   -0.8097 C   0  0  0  0  0  0  0  0  0  0  0  0
   -4.3803   -1.0846   -0.6576 C   0  0  0  0  0  0  0  0  0  0  0  0
    0.9994    2.9734   -0.9893 C   0  0  1  0  0  0  0  0  0  0  0  0
    3.1696   -0.1083   -0.6299 C   0  0  0  0  0  0  0  0  0  0  0  0
   -0.1260   -3.1853   -1.7287 C   0  0  0  0  0  0  0  0  0  0  0  0
   -1.1421   -3.2562   -0.5646 C   0  0  0  0  0  0  0  0  0  0  0  0
   -5.9082   -1.2723   -0.6447 C   0  0  0  0  0  0  0  0  0  0  0  0
   -3.4741   -2.1654   -0.6309 C   0  0  0  0  0  0  0  0  0  0  0  0
    4.5899   -2.4844   -0.0379 C   0  0  0  0  0  0  0  0  0  0  0  0
    4.9469   -1.7054   -1.1643 C   0  0  0  0  0  0  0  0  0  0  0  0
    0.1268    5.7959   -0.9659 C   0  0  0  0  0  0  0  0  0  0  0  0
   -1.5390   -0.7036   -0.6002 C   0  0  0  0  0  0  0  0  0  0  0  0
   -6.3111   -2.7561   -0.5889 C   0  0  0  0  0  0  0  0  0  0  0  0
   -2.0316    2.7065    1.3247 C   0  0  0  0  0  0  0  0  0  0  0  0
   -6.4967   -0.5642    0.5971 C   0  0  0  0  0  0  0  0  0  0  0  0
   -6.5157   -0.6533   -1.9241 C   0  0  0  0  0  0  0  0  0  0  0  0
    1.3850    5.3596   -1.7261 C   0  0  0  0  0  0  0  0  0  0  0  0
   -1.9202   -4.5780   -0.6945 C   0  0  0  0  0  0  0  0  0  0  0  0
    4.5443    0.0660   -2.3203 H   0  0  0  0  0  0  0  0  0  0  0  0
   -4.4829    1.0931   -0.7735 H   0  0  0  0  0  0  0  0  0  0  0  0
   -3.8839   -3.1815   -0.6143 H   0  0  0  0  0  0  0  0  0  0  0  0
    5.1359   -3.4086    0.1940 H   0  0  0  0  0  0  0  0  0  0  0  0
    2.8934    3.7850   -1.7117 H   0  0  0  0  0  0  0  0  0  0  0  0
    2.4192    4.3382   -0.0866 H   0  0  0  0  0  0  0  0  0  0  0  0
   -1.2529    4.3358   -1.8087 H   0  0  0  0  0  0  0  0  0  0  0  0
   -1.7499    4.9775   -0.2205 H   0  0  0  0  0  0  0  0  0  0  0  0
    0.4150    6.1623    0.0441 H   0  0  0  0  0  0  0  0  0  0  0  0
   -0.3595    6.6497   -1.4803 H   0  0  0  0  0  0  0  0  0  0  0  0
    2.1222    6.1875   -1.7617 H   0  0  0  0  0  0  0  0  0  0  0  0
    1.1150    5.1366   -2.7821 H   0  0  0  0  0  0  0  0  0  0  0  0
    0.2464    3.8272    0.8327 H   0  0  0  0  0  0  0  0  0  0  0  0
    0.6164    2.7630   -2.0154 H   0  0  0  0  0  0  0  0  0  0  0  0
    0.2296   -2.3659    0.9121 H   0  0  0  0  0  0  0  0  0  0  0  0
    0.2917   -4.1490    0.8378 H   0  0  0  0  0  0  0  0  0  0  0  0
   -1.0988   -3.3380    1.6325 H   0  0  0  0  0  0  0  0  0  0  0  0
    0.4825   -2.2644   -1.6640 H   0  0  0  0  0  0  0  0  0  0  0  0
   -0.6480   -3.1964   -2.7078 H   0  0  0  0  0  0  0  0  0  0  0  0
    0.5549   -4.0613   -1.6932 H   0  0  0  0  0  0  0  0  0  0  0  0
   -5.9402   -3.3172   -1.4701 H   0  0  0  0  0  0  0  0  0  0  0  0
   -7.4163   -2.8463   -0.5759 H   0  0  0  0  0  0  0  0  0  0  0  0
   -5.9237   -3.2536    0.3228 H   0  0  0  0  0  0  0  0  0  0  0  0
   -2.6531    1.8321    1.5883 H   0  0  0  0  0  0  0  0  0  0  0  0
   -2.7027    3.5077    0.9496 H   0  0  0  0  0  0  0  0  0  0  0  0
   -1.4958    3.0641    2.2227 H   0  0  0  0  0  0  0  0  0  0  0  0
   -6.0766   -0.9918    1.5299 H   0  0  0  0  0  0  0  0  0  0  0  0
   -7.6006   -0.6791    0.6297 H   0  0  0  0  0  0  0  0  0  0  0  0
   -6.2715    0.5213    0.5937 H   0  0  0  0  0  0  0  0  0  0  0  0
   -6.2913    0.4294   -2.0027 H   0  0  0  0  0  0  0  0  0  0  0  0
   -7.6199   -0.7689   -1.9304 H   0  0  0  0  0  0  0  0  0  0  0  0
   -6.1112   -1.1471   -2.8307 H   0  0  0  0  0  0  0  0  0  0  0  0
   -1.2058   -5.4258   -0.6856 H   0  0  0  0  0  0  0  0  0  0  0  0
   -2.4942   -4.6326   -1.6423 H   0  0  0  0  0  0  0  0  0  0  0  0
   -2.6253   -4.7337    0.1474 H   0  0  0  0  0  0  0  0  0  0  0  0
   -2.5925    2.4872   -1.1854 H   0  0  0  0  0  0  0  0  0  0  0  0
   -1.0826    1.6659   -1.7272 H   0  0  0  0  0  0  0  0  0  0  0  0
    3.0131    1.6322   -1.8846 H   0  0  0  0  0  0  0  0  0  0  0  0
  1 27  1  0  0  0  0
  6 31  1  0  0  0  0
  7 27  2  0  0  0  0
  7 21  1  0  0  0  0
  8 11  2  0  0  0  0
  8 19  1  0  0  0  0
  9 13  1  0  0  0  0
  9  4  1  0  0  0  0
 10  6  1  0  0  0  0
 10 48  1  1  0  0  0
 11 29  1  0  0  0  0
 12 20  1  0  0  0  0
 12 41  1  0  0  0  0
 13  2  1  0  0  0  0
 14 11  1  0  0  0  0
 14  6  1  0  0  0  0
 15 21  1  0  0  0  0
 15  5  1  0  0  0  0
 16 51  1  0  0  0  0
 16 50  1  0  0  0  0
 16 52  1  0  0  0  0
 17 29  2  0  0  0  0
 17 23  1  0  0  0  0
 18 43  1  0  0  0  0
 18 10  1  0  0  0  0
 19 24  1  0  0  0  0
 19 25  2  0  0  0  0
 20 49  1  6  0  0  0
 20  5  1  0  0  0  0
 20 10  1  0  0  0  0
 21  9  2  0  0  0  0
 22 55  1  0  0  0  0
 22 53  1  0  0  0  0
 22 23  1  0  0  0  0
 23 16  1  0  0  0  0
 24 30  1  0  0  0  0
 24 32  1  0  0  0  0
 25 38  1  0  0  0  0
 25 17  1  0  0  0  0
 26 39  1  0  0  0  0
 26 13  2  0  0  0  0
 27 26  1  0  0  0  0
 28 18  1  0  0  0  0
 28 44  1  0  0  0  0
 29  3  1  0  0  0  0
 30 57  1  0  0  0  0
 30 58  1  0  0  0  0
 31 59  1  0  0  0  0
 31 61  1  0  0  0  0
 32 63  1  0  0  0  0
 32 62  1  0  0  0  0
 33 24  1  0  0  0  0
 34 12  1  0  0  0  0
 34 28  1  0  0  0  0
 35 68  1  0  0  0  0
 35 23  1  0  0  0  0
 35 70  1  0  0  0  0
 36  7  1  0  0  0  0
 37  8  1  0  0  0  0
 40 12  1  0  0  0  0
 42 18  1  0  0  0  0
 45 28  1  0  0  0  0
 46 34  1  0  0  0  0
 47 34  1  0  0  0  0
 54 22  1  0  0  0  0
 56 30  1  0  0  0  0
 60 31  1  0  0  0  0
 64 32  1  0  0  0  0
 65 33  1  0  0  0  0
 66 33  1  0  0  0  0
 67 33  1  0  0  0  0
 69 35  1  0  0  0  0
 71 14  1  0  0  0  0
 72 14  1  0  0  0  0
 73 15  1  0  0  0  0
M  CHG  2   3  -1   4  -1
M  END
