1,2,3,4
q = -2.0, confidence = 0.868

 58 59  0  0  1  0  0  0  0  0999 V2000
    1.0347   -1.1241   -0.1646 O   0  0  0  0  0  1  0  0  0  0  0  0
   -1.4364   -0.9711   -0.5134 O   0  5  0  0  0  0  0  0  0  0  0  0
    1.1951    1.5825    0.0095 N   0  0  0  0  0  2  0  0  0  0  0  0
   -1.2790    1.7416   -0.5478 N   0  0  0  0  0  2  0  0  0  0  0  0
    2.3288   -1.1025   -0.0685 C   0  0  2  0  0  3  0  0  0  0  0  0
    3.0421   -2.3448   -0.0903 C   0  0  0  0  0  0  0  0  0  0  0  0
    4.4233   -2.3835    0.0106 C   0  0  0  0  0  0  0  0  0  0  0  0
    5.2169   -1.2044    0.1459 C   0  0  0  0  0  0  0  0  0  0  0  0
    4.5429    0.0109    0.1750 C   0  0  0  0  0  0  0  0  0  0  0  0
    3.1221    0.0963    0.0709 C   0  0  0  0  0  0  0  0  0  0  0  0
    2.4872    1.3702    0.1329 C   0  0  0  0  0  0  0  0  0  0  0  0
    0.6511    2.9265    0.2074 C   0  0  0  0  0  0  0  0  0  0  0  0
   -0.5810    3.0213   -0.6790 C   0  0  0  0  0  0  0  0  0  0  0  0
   -2.5865    1.6888   -0.6762 C   0  0  0  0  0  0  0  0  0  0  0  0
   -3.3662    0.4958   -0.6746 C   0  0  0  0  0  0  0  0  0  0  0  0
   -4.7857    0.5788   -0.7739 C   0  0  0  0  0  3  0  0  0  0  0  0
   -5.5968   -0.5505   -0.8045 C   0  0  0  0  0  0  0  0  0  0  0  0
   -4.9494   -1.8196   -0.7361 C   0  0  0  0  0  0  0  0  0  0  0  0
   -3.5716   -1.9454   -0.6418 C   0  0  0  0  0  0  0  0  0  0  0  0
   -2.7192   -0.7950   -0.6006 C   0  0  0  0  0  0  0  0  0  0  0  0
    6.7228   -1.3351    0.2511 C   0  0  0  0  0  0  0  0  0  0  0  0
    7.5145   -0.0365    0.3998 C   0  0  0  0  0  0  0  0  0  0  0  0
    9.0271   -0.2574    0.4993 C   0  0  0  0  0  0  0  0  0  0  0  0
    9.8224    1.0398    0.6478 C   0  0  0  0  0  0  0  0  0  0  0  0
   -7.1050   -0.4612   -0.8595 C   0  0  0  0  0  0  0  0  0  0  0  0
   -7.7936   -0.7703    0.4847 C   0  0  0  0  0  0  0  0  0  0  0  0
   -7.4612    0.2242    1.6001 C   0  0  0  0  0  0  0  0  0  0  0  0
   -8.1400   -0.1076    2.9292 C   0  0  0  0  0  0  0  0  0  0  0  0
    2.4447   -3.2621   -0.1928 H   0  0  0  0  0  0  0  0  0  0  0  0
    4.9322   -3.3617   -0.0132 H   0  0  0  0  0  0  0  0  0  0  0  0
    5.1024    0.9532    0.2823 H   0  0  0  0  0  0  0  0  0  0  0  0
    3.1342    2.2529    0.3112 H   0  0  0  0  0  0  0  0  0  0  0  0
    0.3554    3.0467    1.2738 H   0  0  0  0  0  0  0  0  0  0  0  0
    1.4007    3.7112   -0.0316 H   0  0  0  0  0  0  0  0  0  0  0  0
   -0.2702    3.1591   -1.7389 H   0  0  0  0  0  0  0  0  0  0  0  0
   -1.2348    3.8750   -0.3988 H   0  0  0  0  0  0  0  0  0  0  0  0
   -3.1257    2.6488   -0.8076 H   0  0  0  0  0  0  0  0  0  0  0  0
   -5.2462    1.5798   -0.8293 H   0  0  0  0  0  0  0  0  0  0  0  0
   -5.5672   -2.7327   -0.7651 H   0  0  0  0  0  0  0  0  0  0  0  0
   -3.0835   -2.9296   -0.5969 H   0  0  0  0  0  0  0  0  0  0  0  0
    6.9619   -2.0038    1.1097 H   0  0  0  0  0  0  0  0  0  0  0  0
    7.0948   -1.8836   -0.6447 H   0  0  0  0  0  0  0  0  0  0  0  0
    7.2993    0.6331   -0.4630 H   0  0  0  0  0  0  0  0  0  0  0  0
    7.1655    0.5126    1.3032 H   0  0  0  0  0  0  0  0  0  0  0  0
    9.2411   -0.9293    1.3602 H   0  0  0  0  0  0  0  0  0  0  0  0
    9.3746   -0.8094   -0.4024 H   0  0  0  0  0  0  0  0  0  0  0  0
   10.9123    0.8492    0.7175 H   0  0  0  0  0  0  0  0  0  0  0  0
    9.6561    1.7159   -0.2170 H   0  0  0  0  0  0  0  0  0  0  0  0
    9.5213    1.5950    1.5609 H   0  0  0  0  0  0  0  0  0  0  0  0
   -7.4018    0.5558   -1.1952 H   0  0  0  0  0  0  0  0  0  0  0  0
   -7.4889   -1.1668   -1.6276 H   0  0  0  0  0  0  0  0  0  0  0  0
   -8.8951   -0.7973    0.3286 H   0  0  0  0  0  0  0  0  0  0  0  0
   -7.5090   -1.7957    0.8122 H   0  0  0  0  0  0  0  0  0  0  0  0
   -6.3586    0.2590    1.7389 H   0  0  0  0  0  0  0  0  0  0  0  0
   -7.7543    1.2473    1.2724 H   0  0  0  0  0  0  0  0  0  0  0  0
   -7.8324   -1.1087    3.2978 H   0  0  0  0  0  0  0  0  0  0  0  0
   -7.8847    0.6297    3.7170 H   0  0  0  0  0  0  0  0  0  0  0  0
   -9.2458   -0.1205    2.8290 H   0  0  0  0  0  0  0  0  0  0  0  0
  3 11  1  0  0  0  0
  3 12  1  0  0  0  0
  5  1  1  1  0  0  0
  5 10  1  0  0  0  0
  6  5  1  0  0  0  0
  6  7  2  0  0  0  0
  7  8  1  0  0  0  0
  8  9  2  0  0  0  0
  8 21  1  0  0  0  0
  9 31  1  0  0  0  0
 10 11  2  0  0  0  0
 10  9  1  0  0  0  0
 11 32  1  0  0  0  0
 12 33  1  0  0  0  0
 13  4  1  0  0  0  0
 13 36  1  0  0  0  0
 13 12  1  0  0  0  0
 14 15  2  0  0  0  0
 14  4  1  0  0  0  0
 15 20  1  0  0  0  0
 16 15  1  0  0  0  0
 17 16  1  0  0  0  0
 17 18  2  0  0  0  0
 18 19  1  0  0  0  0
 19 20  2  0  0  0  0
 19 40  1  0  0  0  0
 20  2  1  0  0  0  0
 21 22  1  0  0  0  0
 21 41  1  0  0  0  0
 22 23  1  0  0  0  0
 22 44  1  0  0  0  0
 23 24  1  0  0  0  0
 23 45  1  0  0  0  0
 24 47  1  0  0  0  0
 24 49  1  0  0  0  0
 25 17  1  0  0  0  0
 25 26  1  0  0  0  0
 26 53  1  0  0  0  0
 26 27  1  0  0  0  0
 27 54  1  0  0  0  0
 27 28  1  0  0  0  0
 28 56  1  0  0  0  0
 28 57  1  0  0  0  0
 29  6  1  0  0  0  0
 30  7  1  0  0  0  0
 34 12  1  0  0  0  0
 35 13  1  0  0  0  0
 37 14  1  0  0  0  0
 38 16  1  0  0  0  0
 39 18  1  0  0  0  0
 42 21  1  0  0  0  0
 43 22  1  0  0  0  0
 46 23  1  0  0  0  0
 48 24  1  0  0  0  0
 50 25  1  0  0  0  0
 51 25  1  0  0  0  0
 52 26  1  0  0  0  0
 55 27  1  0  0  0  0
 58 28  1  0  0  0  0
M  CHG  1   2  -1
M  END
