1,2,3,4
q = -2.0, confidence = 0.92

 61 65  0  0  1  0  0  0  0  0999 V2000
    2.0430    0.1146   -0.5466 O   0  0  0  0  0  1  0  0  0  0  0  0
   -1.3676   -0.5393    0.5088 O   0  0  0  0  0  1  0  0  0  0  0  0
    0.0373   -1.5291   -1.6817 N   0  0  0  0  0  2  0  0  0  0  0  0
    1.1377   -1.5568    1.1019 N   0  0  0  0  0  2  0  0  0  0  0  0
    5.1650   -1.7158   -0.6747 N   0  0  0  0  0  0  0  0  0  0  0  0
    1.0851   -2.3229   -2.0237 C   0  0  1  0  0  3  0  0  0  0  0  0
    0.8792   -3.6046   -2.5672 C   0  0  0  0  0  0  0  0  0  0  0  0
   -0.4237   -4.0511   -2.8082 C   0  0  0  0  0  0  0  0  0  0  0  0
   -1.4912   -3.2007   -2.5078 C   0  0  0  0  0  0  0  0  0  0  0  0
   -1.2320   -1.9404   -1.9388 C   0  0  0  0  0  0  0  0  0  0  0  0
    2.4993   -1.8102   -1.8802 C   0  0  0  0  0  0  0  0  0  0  0  0
    2.7958   -1.0467   -0.5590 C   0  0  2  0  0  0  0  0  0  0  0  0
    2.3457   -1.9182    0.6272 C   0  0  2  0  0  3  0  0  0  0  0  0
    3.0399   -3.0254    1.1403 C   0  0  0  0  0  0  0  0  0  0  0  0
    2.4549   -3.7516    2.1862 C   0  0  0  0  0  0  0  0  0  0  0  0
    1.1934   -3.3691    2.6707 C   0  0  0  0  0  0  0  0  0  0  0  0
    0.5620   -2.2642    2.0898 C   0  0  0  0  0  0  0  0  0  0  0  0
    4.2923   -0.7102   -0.4788 C   0  0  0  0  0  0  0  0  0  0  0  0
    4.6912    0.6118   -0.2112 C   0  0  0  0  0  0  0  0  0  0  0  0
    6.0624    0.8893   -0.1421 C   0  0  0  0  0  0  0  0  0  0  0  0
    6.9796   -0.1525   -0.3469 C   0  0  0  0  0  0  0  0  0  0  0  0
    6.4768   -1.4364   -0.6088 C   0  0  0  0  0  0  0  0  0  0  0  0
   -2.3448   -0.9776   -1.6279 C   0  0  0  0  0  0  0  0  0  0  0  0
   -2.6036   -0.7762   -0.0989 C   0  0  0  0  0  0  0  0  0  0  0  0
   -3.2652   -1.9882    0.5846 C   0  0  0  0  0  0  0  0  0  0  0  0
   -4.0308   -2.9538   -0.0929 C   0  0  0  0  0  0  0  0  0  0  0  0
   -4.6321   -4.0166    0.6033 C   0  0  0  0  0  0  0  0  0  0  0  0
   -4.4840   -4.1253    1.9925 C   0  0  0  0  0  0  0  0  0  0  0  0
   -3.7396   -3.1536    2.6833 C   0  0  0  0  0  0  0  0  0  0  0  0
   -3.1409   -2.0978    1.9850 C   0  0  0  0  0  0  0  0  0  0  0  0
   -3.5349    0.4419    0.0901 C   0  0  0  0  0  0  0  0  0  0  0  0
   -4.8019    0.4883   -0.5234 C   0  0  0  0  0  0  0  0  0  0  0  0
   -5.6269    1.6121   -0.3712 C   0  0  0  0  0  0  0  0  0  0  0  0
   -5.2000    2.6998    0.4085 C   0  0  0  0  0  0  0  0  0  0  0  0
   -3.9479    2.6497    1.0371 C   0  0  0  0  0  0  0  0  0  0  0  0
   -3.1195    1.5279    0.8808 C   0  0  0  0  0  0  0  0  0  0  0  0
    1.7490   -4.2314   -2.8109 H   0  0  0  0  0  0  0  0  0  0  0  0
   -0.6044   -5.0482   -3.2376 H   0  0  0  0  0  0  0  0  0  0  0  0
   -2.5277   -3.5024   -2.7101 H   0  0  0  0  0  0  0  0  0  0  0  0
    2.6982   -1.0782   -2.6925 H   0  0  0  0  0  0  0  0  0  0  0  0
    3.2191   -2.6421   -1.9966 H   0  0  0  0  0  0  0  0  0  0  0  0
    4.0181   -3.2853    0.7114 H   0  0  0  0  0  0  0  0  0  0  0  0
    2.9784   -4.6185    2.6179 H   0  0  0  0  0  0  0  0  0  0  0  0
    0.6974   -3.9224    3.4809 H   0  0  0  0  0  0  0  0  0  0  0  0
   -0.4419   -1.9288    2.3892 H   0  0  0  0  0  0  0  0  0  0  0  0
    3.9258    1.3849   -0.0612 H   0  0  0  0  0  0  0  0  0  0  0  0
    6.4081    1.9131    0.0693 H   0  0  0  0  0  0  0  0  0  0  0  0
    8.0651    0.0215   -0.3064 H   0  0  0  0  0  0  0  0  0  0  0  0
    7.1665   -2.2831   -0.7749 H   0  0  0  0  0  0  0  0  0  0  0  0
   -3.2691   -1.2820   -2.1508 H   0  0  0  0  0  0  0  0  0  0  0  0
   -2.0506    0.0179   -2.0139 H   0  0  0  0  0  0  0  0  0  0  0  0
   -4.1769   -2.8848   -1.1801 H   0  0  0  0  0  0  0  0  0  0  0  0
   -5.2216   -4.7642    0.0505 H   0  0  0  0  0  0  0  0  0  0  0  0
   -4.9541   -4.9577    2.5378 H   0  0  0  0  0  0  0  0  0  0  0  0
   -3.6319   -3.2162    3.7773 H   0  0  0  0  0  0  0  0  0  0  0  0
   -2.5753   -1.3213    2.5212 H   0  0  0  0  0  0  0  0  0  0  0  0
   -5.1587   -0.3656   -1.1204 H   0  0  0  0  0  0  0  0  0  0  0  0
   -6.6117    1.6367   -0.8630 H   0  0  0  0  0  0  0  0  0  0  0  0
   -5.8437    3.5853    0.5225 H   0  0  0  0  0  0  0  0  0  0  0  0
   -3.5951    3.5010    1.6385 H   0  0  0  0  0  0  0  0  0  0  0  0
   -2.1281    1.4996    1.3539 H   0  0  0  0  0  0  0  0  0  0  0  0
  4 17  1  0  0  0  0
  5 22  2  0  0  0  0
  5 18  1  0  0  0  0
  6 11  1  6  0  0  0
  6  3  1  0  0  0  0
  7  6  1  0  0  0  0
  8  7  2  0  0  0  0
  8  9  1  0  0  0  0
  9 10  2  0  0  0  0
 10  3  1  0  0  0  0
 10 23  1  0  0  0  0
 11 12  1  0  0  0  0
 12  1  1  1  0  0  0
 12 18  1  0  0  0  0
 13 12  1  6  0  0  0
 13  4  1  0  0  0  0
 13 14  1  0  0  0  0
 14 15  2  0  0  0  0
 15 43  1  0  0  0  0
 15 16  1  0  0  0  0
 16 44  1  0  0  0  0
 17 45  1  0  0  0  0
 17 16  2  0  0  0  0
 18 19  2  0  0  0  0
 19 20  1  0  0  0  0
 19 46  1  0  0  0  0
 20 47  1  0  0  0  0
 21 48  1  0  0  0  0
 21 20  2  0  0  0  0
 22 21  1  0  0  0  0
 23 24  1  0  0  0  0
 24 31  1  0  0  0  0
 24  2  1  0  0  0  0
 24 25  1  0  0  0  0
 25 30  1  0  0  0  0
 26 25  2  0  0  0  0
 26 27  1  0  0  0  0
 27 28  2  0  0  0  0
 28 54  1  0  0  0  0
 28 29  1  0  0  0  0
 29 55  1  0  0  0  0
 30 56  1  0  0  0  0
 30 29  2  0  0  0  0
 31 36  1  0  0  0  0
 32 33  1  0  0  0  0
 32 31  2  0  0  0  0
 33 34  2  0  0  0  0
 34 59  1  0  0  0  0
 34 35  1  0  0  0  0
 35 60  1  0  0  0  0
 36 35  2  0  0  0  0
 36 61  1  0  0  0  0
 37  7  1  0  0  0  0
 38  8  1  0  0  0  0
 39  9  1  0  0  0  0
 40 11  1  0  0  0  0
 41 11  1  0  0  0  0
 42 14  1  0  0  0  0
 49 22  1  0  0  0  0
 50 23  1  0  0  0  0
 51 23  1  0  0  0  0
 52 26  1  0  0  0  0
 53 27  1  0  0  0  0
 57 32  1  0  0  0  0
 58 33  1  0  0  0  0
M  END
