1,2,3,4
q = -2.0, confidence = 0.962

 59 61  0  0  1  0  0  0  0  0999 V2000
   -1.6404    0.6554   -0.1424 O   0  0  0  0  0  1  0  0  0  0  0  0
    1.6033   -0.9129    0.4131 O   0  0  0  0  0  1  0  0  0  0  0  0
   -0.4063   -1.5282   -1.4967 N   0  0  0  0  0  2  0  0  0  0  0  0
   -1.0587   -1.1899    1.4600 N   0  0  0  0  0  2  0  0  0  0  0  0
   -5.1434   -0.1690    0.2419 N   0  0  0  0  0  0  0  0  0  0  0  0
   -1.6886   -1.8858   -1.7702 C   0  0  2  0  0  3  0  0  0  0  0  0
   -1.9859   -3.0426   -2.5163 C   0  0  0  0  0  0  0  0  0  0  0  0
   -0.9453   -3.8066   -3.0497 C   0  0  0  0  0  0  0  0  0  0  0  0
    0.3688   -3.4003   -2.8085 C   0  0  0  0  0  0  0  0  0  0  0  0
    0.6155   -2.2657   -2.0106 C   0  0  0  0  0  0  0  0  0  0  0  0
   -2.8454   -1.0027   -1.3618 C   0  0  0  0  0  0  0  0  0  0  0  0
   -2.6900   -0.2324   -0.0268 C   0  0  1  0  0  0  0  0  0  0  0  0
   -2.3598   -1.2178    1.1102 C   0  0  1  0  0  3  0  0  0  0  0  0
   -0.6070   -1.9943    2.4390 C   0  0  0  0  0  0  0  0  0  0  0  0
   -1.4514   -2.8766    3.1208 C   0  0  0  0  0  0  0  0  0  0  0  0
   -2.8051   -2.9287    2.7490 C   0  0  0  0  0  0  0  0  0  0  0  0
   -3.2697   -2.0939    1.7248 C   0  0  0  0  0  0  0  0  0  0  0  0
   -3.9938    0.5294    0.2682 C   0  0  0  0  0  0  0  0  0  0  0  0
   -6.2885    0.4885    0.4856 C   0  0  0  0  0  0  0  0  0  0  0  0
   -6.3435    1.8632    0.7623 C   0  0  0  0  0  0  0  0  0  0  0  0
   -5.1397    2.5837    0.7879 C   0  0  0  0  0  0  0  0  0  0  0  0
   -3.9382    1.9090    0.5357 C   0  0  0  0  0  0  0  0  0  0  0  0
    2.0283   -1.8205   -1.7502 C   0  0  0  0  0  0  0  0  0  0  0  0
    2.4509   -1.8205   -0.2535 C   0  0  0  0  0  0  0  0  0  0  0  0
    2.2182   -3.2157    0.4297 C   0  0  0  0  0  0  0  0  0  0  0  0
    2.7391   -3.2341    1.8733 C   0  0  0  0  0  0  0  0  0  0  0  0
    2.6840   -4.4684   -0.3264 C   0  0  0  0  0  0  0  0  0  0  0  0
    3.9071   -1.2530   -0.0953 C   0  0  0  0  0  0  0  0  0  0  0  0
    4.0684    0.1334   -0.7339 C   0  0  0  0  0  0  0  0  0  0  0  0
    5.0341   -2.1807   -0.5679 C   0  0  0  0  0  0  0  0  0  0  0  0
   -3.0372   -3.3109   -2.6940 H   0  0  0  0  0  0  0  0  0  0  0  0
   -1.1563   -4.7013   -3.6549 H   0  0  0  0  0  0  0  0  0  0  0  0
    1.2179   -3.9518   -3.2362 H   0  0  0  0  0  0  0  0  0  0  0  0
   -3.7827   -1.5910   -1.3481 H   0  0  0  0  0  0  0  0  0  0  0  0
   -2.9671   -0.2142   -2.1369 H   0  0  0  0  0  0  0  0  0  0  0  0
    0.4673   -1.9175    2.6618 H   0  0  0  0  0  0  0  0  0  0  0  0
   -1.0512   -3.5126    3.9233 H   0  0  0  0  0  0  0  0  0  0  0  0
   -3.4971   -3.6160    3.2595 H   0  0  0  0  0  0  0  0  0  0  0  0
   -4.3194   -2.0825    1.3989 H   0  0  0  0  0  0  0  0  0  0  0  0
   -7.2146   -0.1130    0.4568 H   0  0  0  0  0  0  0  0  0  0  0  0
   -7.3098    2.3538    0.9511 H   0  0  0  0  0  0  0  0  0  0  0  0
   -5.1363    3.6640    1.0003 H   0  0  0  0  0  0  0  0  0  0  0  0
   -2.9607    2.4105    0.5288 H   0  0  0  0  0  0  0  0  0  0  0  0
    2.1206   -0.7718   -2.0989 H   0  0  0  0  0  0  0  0  0  0  0  0
    2.7213   -2.4395   -2.3509 H   0  0  0  0  0  0  0  0  0  0  0  0
    1.1079   -3.2758    0.4806 H   0  0  0  0  0  0  0  0  0  0  0  0
    3.8396   -3.3668    1.9119 H   0  0  0  0  0  0  0  0  0  0  0  0
    2.2887   -4.0723    2.4437 H   0  0  0  0  0  0  0  0  0  0  0  0
    2.5008   -2.2873    2.3969 H   0  0  0  0  0  0  0  0  0  0  0  0
    2.3471   -5.3747    0.2184 H   0  0  0  0  0  0  0  0  0  0  0  0
    3.7846   -4.5334   -0.4140 H   0  0  0  0  0  0  0  0  0  0  0  0
    2.2597   -4.5334   -1.3454 H   0  0  0  0  0  0  0  0  0  0  0  0
    4.0146   -1.1095    1.0007 H   0  0  0  0  0  0  0  0  0  0  0  0
    4.1565    0.0723   -1.8391 H   0  0  0  0  0  0  0  0  0  0  0  0
    4.9919    0.6177   -0.3583 H   0  0  0  0  0  0  0  0  0  0  0  0
    3.2206    0.7988   -0.4923 H   0  0  0  0  0  0  0  0  0  0  0  0
    6.0053   -1.6501   -0.4952 H   0  0  0  0  0  0  0  0  0  0  0  0
    4.9108   -2.4782   -1.6306 H   0  0  0  0  0  0  0  0  0  0  0  0
    5.1227   -3.1039    0.0354 H   0  0  0  0  0  0  0  0  0  0  0  0
  4 14  1  0  0  0  0
  5 18  2  0  0  0  0
  5 19  1  0  0  0  0
  6  3  1  0  0  0  0
  6 11  1  6  0  0  0
  7  6  1  0  0  0  0
  8  9  1  0  0  0  0
  8  7  2  0  0  0  0
  9 10  2  0  0  0  0
 10 23  1  0  0  0  0
 10  3  1  0  0  0  0
 11 34  1  0  0  0  0
 11 12  1  0  0  0  0
 12  1  1  6  0  0  0
 12 18  1  0  0  0  0
 13 12  1  6  0  0  0
 13  4  1  0  0  0  0
 13 17  1  0  0  0  0
 14 36  1  0  0  0  0
 14 15  2  0  0  0  0
 15 37  1  0  0  0  0
 16 15  1  0  0  0  0
 16 38  1  0  0  0  0
 17 16  2  0  0  0  0
 18 22  1  0  0  0  0
 19 20  2  0  0  0  0
 20 21  1  0  0  0  0
 20 41  1  0  0  0  0
 21 42  1  0  0  0  0
 22 21  2  0  0  0  0
 23 24  1  0  0  0  0
 24 28  1  0  0  0  0
 24  2  1  0  0  0  0
 24 25  1  0  0  0  0
 25 46  1  0  0  0  0
 25 26  1  0  0  0  0
 26 47  1  0  0  0  0
 26 49  1  0  0  0  0
 26 48  1  0  0  0  0
 27 50  1  0  0  0  0
 27 25  1  0  0  0  0
 28 53  1  0  0  0  0
 29 56  1  0  0  0  0
 29 55  1  0  0  0  0
 29 28  1  0  0  0  0
 30 57  1  0  0  0  0
 30 28  1  0  0  0  0
 30 59  1  0  0  0  0
 31  7  1  0  0  0  0
 32  8  1  0  0  0  0
 33  9  1  0  0  0  0
 35 11  1  0  0  0  0
 39 17  1  0  0  0  0
 40 19  1  0  0  0  0
 43 22  1  0  0  0  0
 44 23  1  0  0  0  0
 45 23  1  0  0  0  0
 51 27  1  0  0  0  0
 52 27  1  0  0  0  0
 54 29  1  0  0  0  0
 58 30  1  0  0  0  0
M  END
