1,2,3,4
q = -1.0, confidence = 0.178

 59 64  0  0  0  0  0  0  0  0999 V2000
   -1.0628    0.2685    0.9063 N   0  0  0  0  0  2  0  0  0  0  0  0
    1.4818    0.6363   -0.6823 N   0  0  0  0  0  2  0  0  0  0  0  0
    1.5382   -2.1078   -0.7393 O   0  5  0  0  0  0  0  0  0  0  0  0
   -1.1583   -2.3265   -0.3583 O   0  5  0  0  0  0  0  0  0  0  0  0
   -0.5724    1.4754    1.4671 C   0  0  0  0  0  0  0  0  0  0  0  0
   -0.5304    1.6202    2.8860 C   0  0  0  0  0  0  0  0  0  0  0  0
   -0.0221    2.7684    3.4643 C   0  0  0  0  0  0  0  0  0  0  0  0
    0.4839    3.8296    2.6604 C   0  0  0  0  0  0  0  0  0  0  0  0
    1.0327    5.0123    3.2359 C   0  0  0  0  0  0  0  0  0  0  0  0
    1.5340    6.0277    2.4361 C   0  0  0  0  0  0  0  0  0  0  0  0
    1.5093    5.8933    1.0223 C   0  0  0  0  0  0  0  0  0  0  0  0
    0.9787    4.7571    0.4297 C   0  0  0  0  0  0  0  0  0  0  0  0
    0.4471    3.6953    1.2233 C   0  0  0  0  0  0  0  0  0  0  0  0
   -0.1100    2.5085    0.6385 C   0  0  0  0  0  0  0  0  0  0  0  0
   -0.1968    2.3651   -0.8405 C   0  0  0  0  0  0  0  0  0  0  0  0
   -1.1144    3.1330   -1.6296 C   0  0  0  0  0  0  0  0  0  0  0  0
   -2.0333    4.0514   -1.0390 C   0  0  0  0  0  0  0  0  0  0  0  0
   -2.9164    4.7755   -1.8256 C   0  0  0  0  0  0  0  0  0  0  0  0
   -2.9190    4.6191   -3.2374 C   0  0  0  0  0  0  0  0  0  0  0  0
   -2.0413    3.7315   -3.8418 C   0  0  0  0  0  0  0  0  0  0  0  0
   -1.1245    2.9664   -3.0648 C   0  0  0  0  0  0  0  0  0  0  0  0
   -0.2238    2.0388   -3.6678 C   0  0  0  0  0  0  0  0  0  0  0  0
    0.6463    1.2904   -2.8981 C   0  0  0  0  0  0  0  0  0  0  0  0
    0.6480    1.4565   -1.4844 C   0  0  0  0  0  0  0  0  0  0  0  0
   -2.2751   -0.1210    1.2578 C   0  0  0  0  0  3  0  0  0  0  0  0
   -2.9632   -1.3210    0.9055 C   0  0  0  0  0  0  0  0  0  0  0  0
   -4.3015   -1.4581    1.3871 C   0  0  0  0  0  0  0  0  0  0  0  0
   -5.0455   -2.5864    1.0919 C   0  0  0  0  0  0  0  0  0  0  0  0
   -4.4877   -3.6285    0.3056 C   0  0  0  0  0  0  0  0  0  0  0  0
   -3.1891   -3.5207   -0.1680 C   0  0  0  0  0  0  0  0  0  0  0  0
   -2.3499   -2.3671    0.1013 C   0  0  0  0  0  0  0  0  0  0  0  0
    2.7090    0.3992   -0.7144 C   0  0  0  0  0  2  0  0  0  0  0  0
    3.4998   -0.7087   -0.4052 C   0  0  0  0  0  0  0  0  0  0  0  0
    4.8877   -0.6336   -0.0923 C   0  0  0  0  0  0  0  0  0  0  0  0
    5.5894   -1.7971    0.1710 C   0  0  0  0  0  0  0  0  0  0  0  0
    4.9451   -3.0622    0.1132 C   0  0  0  0  0  0  0  0  0  0  0  0
    3.5922   -3.1549   -0.1820 C   0  0  0  0  0  0  0  0  0  0  0  0
    2.7765   -1.9919   -0.4607 C   0  0  0  0  0  0  0  0  0  0  0  0
    2.8150   -4.7044   -0.2373 Cl  0  0  0  0  0  0  0  0  0  0  0  0
    7.2872   -1.7387    0.5692 Cl  0  0  0  0  0  0  0  0  0  0  0  0
   -2.5024   -4.7929   -1.1286 Cl  0  0  0  0  0  0  0  0  0  0  0  0
   -6.6828   -2.7542    1.6803 Cl  0  0  0  0  0  0  0  0  0  0  0  0
   -0.8870    0.7867    3.5090 H   0  0  0  0  0  0  0  0  0  0  0  0
    0.0126    2.8669    4.5602 H   0  0  0  0  0  0  0  0  0  0  0  0
    1.0535    5.1018    4.3332 H   0  0  0  0  0  0  0  0  0  0  0  0
    1.9552    6.9357    2.8930 H   0  0  0  0  0  0  0  0  0  0  0  0
    1.9175    6.6971    0.3912 H   0  0  0  0  0  0  0  0  0  0  0  0
    0.9686    4.6612   -0.6652 H   0  0  0  0  0  0  0  0  0  0  0  0
   -2.0324    4.1726    0.0535 H   0  0  0  0  0  0  0  0  0  0  0  0
   -3.6217    5.4758   -1.3534 H   0  0  0  0  0  0  0  0  0  0  0  0
   -3.6229    5.2019   -3.8503 H   0  0  0  0  0  0  0  0  0  0  0  0
   -2.0426    3.6007   -4.9349 H   0  0  0  0  0  0  0  0  0  0  0  0
   -0.2355    1.9202   -4.7620 H   0  0  0  0  0  0  0  0  0  0  0  0
    1.3333    0.5589   -3.3466 H   0  0  0  0  0  0  0  0  0  0  0  0
   -2.8513    0.5792    1.8987 H   0  0  0  0  0  0  0  0  0  0  0  0
   -4.7413   -0.6550    1.9966 H   0  0  0  0  0  0  0  0  0  0  0  0
   -5.0821   -4.5226    0.0737 H   0  0  0  0  0  0  0  0  0  0  0  0
    5.3829    0.3453   -0.0641 H   0  0  0  0  0  0  0  0  0  0  0  0
    5.5202   -3.9779    0.3060 H   0  0  0  0  0  0  0  0  0  0  0  0
  1 25  1  0  0  0  0
  1  5  1  0  0  0  0
  3 38  1  0  0  0  0
  4 31  1  0  0  0  0
  5  6  1  0  0  0  0
  6  7  2  0  0  0  0
  6 43  1  0  0  0  0
  7 44  1  0  0  0  0
  8  9  1  0  0  0  0
  8  7  1  0  0  0  0
  9 45  1  0  0  0  0
 10 46  1  0  0  0  0
 10  9  2  0  0  0  0
 11 10  1  0  0  0  0
 12 11  2  0  0  0  0
 12 13  1  0  0  0  0
 13  8  2  0  0  0  0
 14 13  1  0  0  0  0
 14  5  2  0  0  0  0
 15 14  1  0  0  0  0
 16 17  1  0  0  0  0
 16 15  2  0  0  0  0
 17 49  1  0  0  0  0
 18 50  1  0  0  0  0
 18 17  2  0  0  0  0
 19 18  1  0  0  0  0
 20 19  2  0  0  0  0
 20 21  1  0  0  0  0
 21 16  1  0  0  0  0
 22 21  2  0  0  0  0
 22 23  1  0  0  0  0
 23 24  2  0  0  0  0
 24 15  1  0  0  0  0
 24  2  1  0  0  0  0
 25 55  1  0  0  0  0
 26 25  1  0  0  0  0
 26 27  1  0  0  0  0
 27 56  1  0  0  0  0
 28 27  2  0  0  0  0
 28 42  1  0  0  0  0
 29 28  1  0  0  0  0
 30 31  1  0  0  0  0
 30 29  2  0  0  0  0
 31 26  2  0  0  0  0
 32  2  1  0  0  0  0
 32 33  1  0  0  0  0
 33 34  1  0  0  0  0
 34 58  1  0  0  0  0
 34 35  2  0  0  0  0
 35 40  1  0  0  0  0
 36 35  1  0  0  0  0
 36 59  1  0  0  0  0
 37 36  2  0  0  0  0
 38 33  2  0  0  0  0
 38 37  1  0  0  0  0
 39 37  1  0  0  0  0
 41 30  1  0  0  0  0
 47 11  1  0  0  0  0
 48 12  1  0  0  0  0
 51 19  1  0  0  0  0
 52 20  1  0  0  0  0
 53 22  1  0  0  0  0
 54 23  1  0  0  0  0
 57 29  1  0  0  0  0
M  CHG  2   3  -1   4  -1
M  END
