1
q = -1.0

 18 18  0  0  0  0  0  0  0  0999 V2000
   -0.3576   -1.9708    0.9133 C   0  0  0  0  0  3  0  0  0  0  0  0
   -0.0018   -2.6353    0.1066 H   0  0  0  0  0  0  0  0  0  0  0  0
    0.3627   -1.8211    1.7320 H   0  0  0  0  0  0  0  0  0  0  0  0
   -1.7574   -1.8767    1.1744 C   0  0  0  0  0  3  0  0  0  0  0  0
   -2.1074   -1.5419    2.1664 H   0  0  0  0  0  0  0  0  0  0  0  0
   -2.6749   -1.9659    0.0973 C   0  0  0  0  0  3  0  0  0  0  0  0
   -2.3642   -2.5470   -0.7893 H   0  0  0  0  0  0  0  0  0  0  0  0
   -4.1026   -1.6381    0.1683 C   0  0  0  0  0  0  0  0  0  0  0  0
   -4.6608   -0.8788    1.2245 C   0  0  0  0  0  0  0  0  0  0  0  0
   -4.0085   -0.4850    2.0185 H   0  0  0  0  0  0  0  0  0  0  0  0
   -6.0294   -0.5927    1.2562 C   0  0  0  0  0  0  0  0  0  0  0  0
   -6.4420    0.0028    2.0850 H   0  0  0  0  0  0  0  0  0  0  0  0
   -6.8743   -1.0456    0.2279 C   0  0  0  0  0  0  0  0  0  0  0  0
   -7.9498   -0.8133    0.2520 H   0  0  0  0  0  0  0  0  0  0  0  0
   -6.3325   -1.7814   -0.8372 C   0  0  0  0  0  0  0  0  0  0  0  0
   -6.9820   -2.1289   -1.6551 H   0  0  0  0  0  0  0  0  0  0  0  0
   -4.9625   -2.0707   -0.8669 C   0  0  0  0  0  0  0  0  0  0  0  0
   -4.5388   -2.6420   -1.7074 H   0  0  0  0  0  0  0  0  0  0  0  0
  1  4  1  0  0  0  0
  1  3  1  0  0  0  0
  2  1  1  0  0  0  0
  4  5  1  0  0  0  0
  6  8  1  0  0  0  0
  6  4  1  0  0  0  0
  7  6  1  0  0  0  0
  8  9  1  0  0  0  0
  9 11  2  0  0  0  0
  9 10  1  0  0  0  0
 11 12  1  0  0  0  0
 13 14  1  0  0  0  0
 13 11  1  0  0  0  0
 15 13  2  0  0  0  0
 16 15  1  0  0  0  0
 17 15  1  0  0  0  0
 17  8  2  0  0  0  0
 18 17  1  0  0  0  0
M  END
