8
q = 0.0, confidence = 0.944

 18 19  0  0  0  0  0  0  0  0999 V2000
    2.5903   -3.9436   -0.3470 C   0  0  0  0  0  0  0  0  0  0  0  0
    3.9185   -4.0538   -0.8098 C   0  0  0  0  0  0  0  0  0  0  0  0
    4.4416   -3.0850   -1.6766 C   0  0  0  0  0  0  0  0  0  0  0  0
    3.6387   -1.9982   -2.0863 C   0  0  0  0  0  0  0  0  0  0  0  0
    2.3309   -1.8605   -1.5976 C   0  0  0  0  0  0  0  0  0  0  0  0
    1.4146   -0.7319   -1.8850 C   0  0  0  0  0  3  0  0  0  0  0  0
    0.0103   -1.0472   -2.0858 C   0  0  0  0  0  3  0  0  0  0  0  0
   -0.5247   -2.0294   -1.2082 C   0  0  0  0  0  3  0  0  0  0  0  0
    0.4274   -2.5720   -0.2451 C   0  0  0  0  0  3  0  0  0  0  0  0
    1.8009   -2.8464   -0.7180 C   0  0  0  0  0  0  0  0  0  0  0  0
    2.1760   -4.7053    0.3335 H   0  0  0  0  0  0  0  0  0  0  0  0
    4.5430   -4.9011   -0.4871 H   0  0  0  0  0  0  0  0  0  0  0  0
    5.4770   -3.1688   -2.0406 H   0  0  0  0  0  0  0  0  0  0  0  0
    4.0433   -1.2451   -2.7826 H   0  0  0  0  0  0  0  0  0  0  0  0
    1.8315    0.0958   -2.4800 H   0  0  0  0  0  0  0  0  0  0  0  0
   -0.6017   -0.5737   -2.8689 H   0  0  0  0  0  0  0  0  0  0  0  0
   -1.5807   -2.3357   -1.2568 H   0  0  0  0  0  0  0  0  0  0  0  0
    0.0307   -3.2803    0.5016 H   0  0  0  0  0  0  0  0  0  0  0  0
  1 11  1  0  0  0  0
  2 12  1  0  0  0  0
  2  1  2  0  0  0  0
  3  2  1  0  0  0  0
  4  3  2  0  0  0  0
  4  5  1  0  0  0  0
  5 10  2  0  0  0  0
  6  5  1  0  0  0  0
  7  6  1  0  0  0  0
  7  8  1  0  0  0  0
  8  9  1  0  0  0  0
  9 18  1  0  0  0  0
 10  1  1  0  0  0  0
 10  9  1  0  0  0  0
 13  3  1  0  0  0  0
 14  4  1  0  0  0  0
 15  6  1  0  0  0  0
 16  7  1  0  0  0  0
 17  8  1  0  0  0  0
M  END
