6
q = -1.0, confidence = 0.0

 46 48  0  0  1  0  0  0  0  0999 V2000
   -0.9248    1.3729    0.3116 Si  0  0  0  0  0  0  0  0  0  0  0  0
   -2.4602    0.7375    0.6605 O   0  0  0  0  0  0  0  0  0  0  0  0
    1.2234   -1.5240   -1.7673 C   0  0  0  0  0  0  0  0  0  0  0  0
    0.6073   -0.2521   -1.6599 C   0  0  0  0  0  0  0  0  0  0  0  0
    0.1445   -0.0614   -0.3092 C   0  0  0  0  0  0  0  0  0  0  0  0
    0.5004   -1.2514    0.4030 C   0  0  0  0  0  3  0  0  0  0  0  0
    1.1811   -2.1416   -0.4818 C   0  0  0  0  0  0  0  0  0  0  0  0
   -1.0223    2.6809   -1.0322 C   0  0  0  0  0  0  0  0  0  0  0  0
   -0.3275    2.0505    1.9546 C   0  0  0  0  0  0  0  0  0  0  0  0
   -3.2494    0.0262   -0.2793 C   0  0  2  0  0  0  0  0  0  0  0  0
   -4.6451    0.6758   -0.5038 C   0  0  2  0  0  0  0  0  0  0  0  0
   -5.3406    0.7770    0.8811 C   0  0  0  0  0  0  0  0  0  0  0  0
   -5.7802   -0.6836    1.1862 C   0  0  0  0  0  0  0  0  0  0  0  0
   -5.1371   -1.4822    0.0336 C   0  0  2  0  0  0  0  0  0  0  0  0
   -3.5768   -1.4649    0.1540 C   0  0  0  0  0  0  0  0  0  0  0  0
   -5.3861   -0.5182   -1.1441 C   0  0  0  0  0  0  0  0  0  0  0  0
   -4.6052    1.9786   -1.2849 C   0  0  0  0  0  0  0  0  0  0  0  0
   -2.9515   -2.4620   -0.8363 C   0  0  0  0  0  0  0  0  0  0  0  0
   -3.0692   -1.7938    1.5628 C   0  0  0  0  0  0  0  0  0  0  0  0
    1.6985   -1.9387   -2.6632 H   0  0  0  0  0  0  0  0  0  0  0  0
    0.5239    0.4853   -2.4677 H   0  0  0  0  0  0  0  0  0  0  0  0
    0.2759   -1.4520    1.4575 H   0  0  0  0  0  0  0  0  0  0  0  0
    1.5800   -3.1328   -0.2310 H   0  0  0  0  0  0  0  0  0  0  0  0
   -1.6331    3.5403   -0.6901 H   0  0  0  0  0  0  0  0  0  0  0  0
   -1.4871    2.2806   -1.9555 H   0  0  0  0  0  0  0  0  0  0  0  0
   -0.0049    3.0438   -1.2806 H   0  0  0  0  0  0  0  0  0  0  0  0
   -1.0075    2.8528    2.3053 H   0  0  0  0  0  0  0  0  0  0  0  0
    0.6904    2.4746    1.8478 H   0  0  0  0  0  0  0  0  0  0  0  0
   -0.3133    1.2600    2.7317 H   0  0  0  0  0  0  0  0  0  0  0  0
   -2.7268   -0.0027   -1.2657 H   0  0  0  0  0  0  0  0  0  0  0  0
   -6.2077    1.4659    0.8237 H   0  0  0  0  0  0  0  0  0  0  0  0
   -4.6389    1.1891    1.6328 H   0  0  0  0  0  0  0  0  0  0  0  0
   -6.8834   -0.7867    1.1356 H   0  0  0  0  0  0  0  0  0  0  0  0
   -5.4726   -1.0361    2.1887 H   0  0  0  0  0  0  0  0  0  0  0  0
   -5.5403   -2.5090   -0.0783 H   0  0  0  0  0  0  0  0  0  0  0  0
   -4.9359   -0.8429   -2.1045 H   0  0  0  0  0  0  0  0  0  0  0  0
   -6.4619   -0.3091   -1.3182 H   0  0  0  0  0  0  0  0  0  0  0  0
   -4.0429    2.7556   -0.7283 H   0  0  0  0  0  0  0  0  0  0  0  0
   -5.6285    2.3676   -1.4651 H   0  0  0  0  0  0  0  0  0  0  0  0
   -4.1121    1.8462   -2.2708 H   0  0  0  0  0  0  0  0  0  0  0  0
   -3.1730   -3.5078   -0.5371 H   0  0  0  0  0  0  0  0  0  0  0  0
   -1.8486   -2.3434   -0.8688 H   0  0  0  0  0  0  0  0  0  0  0  0
   -3.3333   -2.3205   -1.8674 H   0  0  0  0  0  0  0  0  0  0  0  0
   -3.3237   -1.0130    2.3024 H   0  0  0  0  0  0  0  0  0  0  0  0
   -1.9662   -1.8910    1.5620 H   0  0  0  0  0  0  0  0  0  0  0  0
   -3.4916   -2.7607    1.9068 H   0  0  0  0  0  0  0  0  0  0  0  0
  1  2  1  0  0  0  0
  1  9  1  0  0  0  0
  3  4  1  0  0  0  0
  3  7  2  0  0  0  0
  4  5  2  0  0  0  0
  5  1  1  0  0  0  0
  5  6  1  0  0  0  0
  6 22  1  0  0  0  0
  7 23  1  0  0  0  0
  7  6  1  0  0  0  0
  8 24  1  0  0  0  0
  8  1  1  0  0  0  0
  9 27  1  0  0  0  0
  9 29  1  0  0  0  0
 10 30  1  6  0  0  0
 10 15  1  0  0  0  0
 10  2  1  0  0  0  0
 11 17  1  6  0  0  0
 11 10  1  0  0  0  0
 11 12  1  0  0  0  0
 12 13  1  0  0  0  0
 12 32  1  0  0  0  0
 13 34  1  0  0  0  0
 14 35  1  6  0  0  0
 14 15  1  0  0  0  0
 14 13  1  0  0  0  0
 15 19  1  0  0  0  0
 16 11  1  0  0  0  0
 16 14  1  0  0  0  0
 17 38  1  0  0  0  0
 18 41  1  0  0  0  0
 18 15  1  0  0  0  0
 19 46  1  0  0  0  0
 19 44  1  0  0  0  0
 20  3  1  0  0  0  0
 21  4  1  0  0  0  0
 25  8  1  0  0  0  0
 26  8  1  0  0  0  0
 28  9  1  0  0  0  0
 31 12  1  0  0  0  0
 33 13  1  0  0  0  0
 36 16  1  0  0  0  0
 37 16  1  0  0  0  0
 39 17  1  0  0  0  0
 40 17  1  0  0  0  0
 42 18  1  0  0  0  0
 43 18  1  0  0  0  0
 45 19  1  0  0  0  0
M  END
