3
q = -1.0

 10 10  0  0  0  0  0  0  0  0999 V2000
    4.4911   -1.1788    1.2637 C   0  0  0  0  0  0  0  0  0  0  0  0
    3.2534   -1.4043    1.9238 C   0  0  0  0  0  0  0  0  0  0  0  0
    2.7362   -0.1331    2.3367 C   0  0  0  0  0  3  0  0  0  0  0  0
    3.6713    0.8660    1.9444 C   0  0  0  0  0  0  0  0  0  0  0  0
    4.7431    0.2267    1.2622 C   0  0  0  0  0  0  0  0  0  0  0  0
    5.1270   -1.9433    0.8029 H   0  0  0  0  0  0  0  0  0  0  0  0
    2.7845   -2.3797    2.1000 H   0  0  0  0  0  0  0  0  0  0  0  0
    1.8036    0.0422    2.8853 H   0  0  0  0  0  0  0  0  0  0  0  0
    3.5611    1.9452    2.0972 H   0  0  0  0  0  0  0  0  0  0  0  0
    5.5982    0.7258    0.7914 H   0  0  0  0  0  0  0  0  0  0  0  0
  1  2  2  0  0  0  0
  2  7  1  0  0  0  0
  2  3  1  0  0  0  0
  3  8  1  0  0  0  0
  4  9  1  0  0  0  0
  4  3  1  0  0  0  0
  5  1  1  0  0  0  0
  5  4  2  0  0  0  0
  6  1  1  0  0  0  0
 10  5  1  0  0  0  0
M  END
