1
q = -1.0, confidence = 0.0

 14 14  0  0  0  0  0  0  0  0999 V2000
   -0.6496   -1.1118   -1.5664 C   0  0  0  0  0  3  0  0  0  0  0  0
   -1.8979   -1.7758   -1.1690 C   0  0  0  0  0  0  0  0  0  0  0  0
   -1.9046   -3.0665   -0.5693 C   0  0  0  0  0  0  0  0  0  0  0  0
   -3.0862   -3.6593   -0.0965 C   0  0  0  0  0  0  0  0  0  0  0  0
   -4.3167   -2.9933   -0.2182 C   0  0  0  0  0  0  0  0  0  0  0  0
   -4.3414   -1.7311   -0.8433 C   0  0  0  0  0  0  0  0  0  0  0  0
   -3.1625   -1.1371   -1.3051 C   0  0  0  0  0  0  0  0  0  0  0  0
   -0.7522   -0.5143   -2.4967 H   0  0  0  0  0  0  0  0  0  0  0  0
    0.2058   -1.8141   -1.6556 H   0  0  0  0  0  0  0  0  0  0  0  0
   -0.9547   -3.6238   -0.5027 H   0  0  0  0  0  0  0  0  0  0  0  0
   -3.0454   -4.6610    0.3606 H   0  0  0  0  0  0  0  0  0  0  0  0
   -5.2446   -3.4566    0.1487 H   0  0  0  0  0  0  0  0  0  0  0  0
   -5.2988   -1.2002   -0.9676 H   0  0  0  0  0  0  0  0  0  0  0  0
   -3.1953   -0.1417   -1.7736 H   0  0  0  0  0  0  0  0  0  0  0  0
  1  2  1  0  0  0  0
  2  3  1  0  0  0  0
  3 10  1  0  0  0  0
  3  4  2  0  0  0  0
  4 11  1  0  0  0  0
  5  4  1  0  0  0  0
  5 12  1  0  0  0  0
  6  5  2  0  0  0  0
  7  2  2  0  0  0  0
  7  6  1  0  0  0  0
  8  1  1  0  0  0  0
  9  1  1  0  0  0  0
 13  6  1  0  0  0  0
 14  7  1  0  0  0  0
M  END
