2
q = 0.0, confidence = 0.95

 24 24  0  0  0  0  0  0  0  0999 V2000
   -2.0020    2.6882   -0.1903 Se  0  0  0  0  0  0  0  0  0  0  0  0
   -1.4831    0.9068   -0.1961 C   0  0  0  0  0  3  0  0  0  0  0  0
   -2.1852   -0.2315   -0.0206 C   0  0  0  0  0  3  0  0  0  0  0  0
   -3.5593   -0.6716    0.1451 C   0  0  0  0  0  0  0  0  0  0  0  0
   -4.0002   -1.8897   -0.4246 C   0  0  0  0  0  0  0  0  0  0  0  0
   -5.3361   -2.2870   -0.2941 C   0  0  0  0  0  0  0  0  0  0  0  0
   -6.2461   -1.4886    0.4189 C   0  0  0  0  0  0  0  0  0  0  0  0
   -5.8196   -0.2762    0.9872 C   0  0  0  0  0  0  0  0  0  0  0  0
   -4.4902    0.1376    0.8417 C   0  0  0  0  0  0  0  0  0  0  0  0
   -0.2848    3.7131   -0.2905 C   0  0  0  0  0  0  0  0  0  0  0  0
    0.5706    3.4834    0.9466 C   0  0  0  0  0  0  0  0  0  0  0  0
   -0.6810    5.1737   -0.4958 C   0  0  0  0  0  0  0  0  0  0  0  0
   -3.2810   -2.5011   -0.9885 H   0  0  0  0  0  0  0  0  0  0  0  0
   -5.6713   -3.2303   -0.7511 H   0  0  0  0  0  0  0  0  0  0  0  0
   -7.2937   -1.8088    0.5270 H   0  0  0  0  0  0  0  0  0  0  0  0
   -6.5319    0.3549    1.5403 H   0  0  0  0  0  0  0  0  0  0  0  0
   -4.1564    1.0942    1.2727 H   0  0  0  0  0  0  0  0  0  0  0  0
    0.2362    3.3319   -1.1880 H   0  0  0  0  0  0  0  0  0  0  0  0
    0.8175    2.4149    1.0702 H   0  0  0  0  0  0  0  0  0  0  0  0
    0.0569    3.8306    1.8662 H   0  0  0  0  0  0  0  0  0  0  0  0
    1.5256    4.0443    0.8502 H   0  0  0  0  0  0  0  0  0  0  0  0
   -1.2743    5.3198   -1.4205 H   0  0  0  0  0  0  0  0  0  0  0  0
   -1.2725    5.5605    0.3608 H   0  0  0  0  0  0  0  0  0  0  0  0
    0.2326    5.7990   -0.5751 H   0  0  0  0  0  0  0  0  0  0  0  0
  2  1  1  0  0  0  0
  2  3  2  0  0  0  0
  3  4  1  0  0  0  0
  4  9  1  0  0  0  0
  5  6  1  0  0  0  0
  5  4  2  0  0  0  0
  6  7  2  0  0  0  0
  7 15  1  0  0  0  0
  7  8  1  0  0  0  0
  8 16  1  0  0  0  0
  9  8  2  0  0  0  0
  9 17  1  0  0  0  0
 10  1  1  0  0  0  0
 10 11  1  0  0  0  0
 11 19  1  0  0  0  0
 11 20  1  0  0  0  0
 12 10  1  0  0  0  0
 12 23  1  0  0  0  0
 13  5  1  0  0  0  0
 14  6  1  0  0  0  0
 18 10  1  0  0  0  0
 21 11  1  0  0  0  0
 22 12  1  0  0  0  0
 24 12  1  0  0  0  0
M  END
