2
q = -1.0

 19 19  0  0  0  0  0  0  0  0999 V2000
   -2.4176    0.7641    0.2244 C   0  0  0  0  0  3  0  0  0  0  0  0
   -2.0471    1.3533   -1.0118 C   0  0  0  0  0  3  0  0  0  0  0  0
   -1.4200    0.5664   -2.0356 C   0  0  0  0  0  0  0  0  0  0  0  0
   -1.0954   -0.7885   -1.7562 C   0  0  0  0  0  0  0  0  0  0  0  0
   -1.4571   -1.3276   -0.4774 C   0  0  0  0  0  3  0  0  0  0  0  0
   -2.7132   -0.7443    0.1907 C   0  0  0  0  0  0  0  0  0  0  0  0
   -3.9813   -1.0193   -0.6572 C   0  0  0  0  0  0  0  0  0  0  0  0
   -2.9482   -1.3440    1.5798 C   0  0  0  0  0  0  0  0  0  0  0  0
   -2.8941    1.3923    0.9932 H   0  0  0  0  0  0  0  0  0  0  0  0
   -2.1588    2.4358   -1.1728 H   0  0  0  0  0  0  0  0  0  0  0  0
   -1.1447    1.0225   -2.9970 H   0  0  0  0  0  0  0  0  0  0  0  0
   -0.5455   -1.3727   -2.5071 H   0  0  0  0  0  0  0  0  0  0  0  0
   -1.2215   -2.3856   -0.2733 H   0  0  0  0  0  0  0  0  0  0  0  0
   -4.1660   -2.1117   -0.7364 H   0  0  0  0  0  0  0  0  0  0  0  0
   -4.8750   -0.5523   -0.1913 H   0  0  0  0  0  0  0  0  0  0  0  0
   -3.8744   -0.6128   -1.6814 H   0  0  0  0  0  0  0  0  0  0  0  0
   -3.8012   -0.8445    2.0837 H   0  0  0  0  0  0  0  0  0  0  0  0
   -2.0652   -1.2549    2.2348 H   0  0  0  0  0  0  0  0  0  0  0  0
   -3.1974   -2.4219    1.4925 H   0  0  0  0  0  0  0  0  0  0  0  0
  1  9  1  0  0  0  0
  2  1  1  0  0  0  0
  3  4  2  0  0  0  0
  3  2  1  0  0  0  0
  4  5  1  0  0  0  0
  5 13  1  0  0  0  0
  5  6  1  0  0  0  0
  6  1  1  0  0  0  0
  6  8  1  0  0  0  0
  7 15  1  0  0  0  0
  7  6  1  0  0  0  0
  8 17  1  0  0  0  0
  8 18  1  0  0  0  0
 10  2  1  0  0  0  0
 11  3  1  0  0  0  0
 12  4  1  0  0  0  0
 14  7  1  0  0  0  0
 16  7  1  0  0  0  0
 19  8  1  0  0  0  0
M  END
