2
q = -1.0

  9  8  0  0  0  0  0  0  0  0999 V2000
    4.3004    1.3272    0.8478 O   0  0  0  0  0  0  0  0  0  0  0  0
    2.3664    0.9553   -0.4996 C   0  0  0  0  0  3  0  0  0  0  0  0
    3.8268    0.9108   -0.2072 C   0  0  0  0  0  0  0  0  0  0  0  0
    4.7340    0.3374   -1.2945 C   0  0  0  0  0  0  0  0  0  0  0  0
    1.9024    1.8092    0.0238 H   0  0  0  0  0  0  0  0  0  0  0  0
    2.1494    1.0111   -1.5825 H   0  0  0  0  0  0  0  0  0  0  0  0
    4.9973    1.1567   -1.9974 H   0  0  0  0  0  0  0  0  0  0  0  0
    5.6686   -0.0395   -0.8396 H   0  0  0  0  0  0  0  0  0  0  0  0
    4.2452   -0.4590   -1.8897 H   0  0  0  0  0  0  0  0  0  0  0  0
  2  3  1  0  0  0  0
  2  5  1  0  0  0  0
  3  1  2  0  0  0  0
  4  8  1  0  0  0  0
  4  3  1  0  0  0  0
  6  2  1  0  0  0  0
  7  4  1  0  0  0  0
  9  4  1  0  0  0  0
M  END
