4
q = -1.0, confidence = 0.036

 11 10  0  0  0  0  0  0  0  0999 V2000
    1.2730    2.9103    1.1908 C   0  0  0  0  0  3  0  0  0  0  0  0
    0.7084    3.8562    1.2209 H   0  0  0  0  0  0  0  0  0  0  0  0
    1.6943    2.6033    2.1637 H   0  0  0  0  0  0  0  0  0  0  0  0
    1.9949    2.5754   -0.0002 C   0  0  0  0  0  3  0  0  0  0  0  0
    1.2729    2.9101   -1.1911 C   0  0  0  0  0  3  0  0  0  0  0  0
    1.6940    2.6031   -2.1640 H   0  0  0  0  0  0  0  0  0  0  0  0
    0.7082    3.8560   -1.2212 H   0  0  0  0  0  0  0  0  0  0  0  0
    3.3765    1.9700   -0.0002 C   0  0  0  0  0  0  0  0  0  0  0  0
    3.5620    1.3514   -0.9002 H   0  0  0  0  0  0  0  0  0  0  0  0
    3.5622    1.3515    0.8998 H   0  0  0  0  0  0  0  0  0  0  0  0
    4.1347    2.7830   -0.0004 H   0  0  0  0  0  0  0  0  0  0  0  0
  1  2  1  0  0  0  0
  1  3  1  0  0  0  0
  4  1  1  0  0  0  0
  5  4  1  0  0  0  0
  6  5  1  0  0  0  0
  7  5  1  0  0  0  0
  8  4  1  0  0  0  0
  8 10  1  0  0  0  0
  9  8  1  0  0  0  0
 11  8  1  0  0  0  0
M  END
