13
q = -1.0

 23 23  0  0  1  0  0  0  0  0999 V2000
   -1.3189   -0.1948    1.6700 C   0  0  0  0  0  3  0  0  0  0  0  0
   -0.5539    0.4932    2.6804 C   0  0  0  0  0  0  0  0  0  0  0  0
    0.0216    1.0290    3.5539 N   0  0  0  0  0  0  0  0  0  0  0  0
   -1.8647   -1.4149    2.2047 C   0  0  0  0  0  0  0  0  0  0  0  0
   -2.2388   -2.4344    2.6605 N   0  0  0  0  0  0  0  0  0  0  0  0
   -2.0652    0.5650    0.6246 C   0  0  2  0  0  3  0  0  0  0  0  0
   -3.5472    0.5952    0.5463 C   0  0  0  0  0  0  0  0  0  0  0  0
   -4.3436    0.1740    1.6362 C   0  0  0  0  0  0  0  0  0  0  0  0
   -5.7421    0.2342    1.5701 C   0  0  0  0  0  0  0  0  0  0  0  0
   -6.3790    0.7287    0.4223 C   0  0  0  0  0  0  0  0  0  0  0  0
   -5.6002    1.1849   -0.6542 C   0  0  0  0  0  0  0  0  0  0  0  0
   -4.2039    1.1253   -0.5908 C   0  0  0  0  0  0  0  0  0  0  0  0
   -1.2141    1.2204   -0.3335 C   0  0  0  0  0  2  0  0  0  0  0  0
   -1.1750    2.4202   -1.0118 C   0  0  0  0  0  3  0  0  0  0  0  0
   -0.3105    2.5160   -2.1464 C   0  0  0  0  0  0  0  0  0  0  0  0
    0.4138    2.5185   -3.0739 N   0  0  0  0  0  0  0  0  0  0  0  0
   -1.8918    3.5771   -0.5694 C   0  0  0  0  0  0  0  0  0  0  0  0
   -2.4776    4.5165   -0.1735 N   0  0  0  0  0  0  0  0  0  0  0  0
   -3.8714   -0.1941    2.5561 H   0  0  0  0  0  0  0  0  0  0  0  0
   -6.3372   -0.1016    2.4325 H   0  0  0  0  0  0  0  0  0  0  0  0
   -7.4772    0.7773    0.3733 H   0  0  0  0  0  0  0  0  0  0  0  0
   -6.0843    1.6019   -1.5501 H   0  0  0  0  0  0  0  0  0  0  0  0
   -3.6098    1.5001   -1.4334 H   0  0  0  0  0  0  0  0  0  0  0  0
  1  4  1  0  0  0  0
  1  2  1  0  0  0  0
  2  3  3  0  0  0  0
  4  5  3  0  0  0  0
  6 13  1  6  0  0  0
  6  1  1  0  0  0  0
  7  6  1  0  0  0  0
  7  8  1  0  0  0  0
  8 19  1  0  0  0  0
  9  8  2  0  0  0  0
  9 20  1  0  0  0  0
 10  9  1  0  0  0  0
 11 12  1  0  0  0  0
 11 10  2  0  0  0  0
 12  7  2  0  0  0  0
 14 17  1  0  0  0  0
 14 13  1  0  0  0  0
 15 14  1  0  0  0  0
 16 15  3  0  0  0  0
 17 18  3  0  0  0  0
 21 10  1  0  0  0  0
 22 11  1  0  0  0  0
 23 12  1  0  0  0  0
M  END
