3
q = 0.0, confidence = 0.986

 52 54  0  0  1  0  0  0  0  0999 V2000
   -1.3766   -1.0936    1.2725 B   0  0  0  0  0  0  0  0  0  0  0  0
   -2.1408   -0.6405    0.0039 N   0  0  0  0  0  0  0  0  0  0  0  0
   -1.4661    0.6459    0.0965 C   0  0  2  0  0  3  0  0  0  0  0  0
   -0.7056    0.3387    1.2945 C   0  0  0  0  0  0  0  0  0  0  0  0
   -1.5382   -2.3930    2.1933 C   0  0  0  0  0  0  0  0  0  0  0  0
   -0.6768   -2.2842    3.4675 C   0  0  0  0  0  0  0  0  0  0  0  0
   -0.9248   -1.3845    4.0650 H   0  0  0  0  0  0  0  0  0  0  0  0
    0.4054   -2.2574    3.2308 H   0  0  0  0  0  0  0  0  0  0  0  0
   -0.8430   -3.1731    4.1141 H   0  0  0  0  0  0  0  0  0  0  0  0
   -1.1061   -3.6755    1.4469 C   0  0  0  0  0  0  0  0  0  0  0  0
   -1.2140   -4.5614    2.1113 H   0  0  0  0  0  0  0  0  0  0  0  0
   -0.0453   -3.6131    1.1304 H   0  0  0  0  0  0  0  0  0  0  0  0
   -1.6964   -3.8611    0.5327 H   0  0  0  0  0  0  0  0  0  0  0  0
   -3.0095   -2.5085    2.6583 C   0  0  0  0  0  0  0  0  0  0  0  0
   -3.7134   -2.6705    1.8201 H   0  0  0  0  0  0  0  0  0  0  0  0
   -3.3378   -1.5965    3.1996 H   0  0  0  0  0  0  0  0  0  0  0  0
   -3.1258   -3.3673    3.3552 H   0  0  0  0  0  0  0  0  0  0  0  0
   -3.3002   -1.0040   -0.8601 C   0  0  0  0  0  0  0  0  0  0  0  0
   -3.3583   -2.5299   -1.0135 C   0  0  0  0  0  0  0  0  0  0  0  0
   -2.4158   -2.9059   -1.4577 H   0  0  0  0  0  0  0  0  0  0  0  0
   -4.1975   -2.7911   -1.6875 H   0  0  0  0  0  0  0  0  0  0  0  0
   -3.5351   -3.0379   -0.0490 H   0  0  0  0  0  0  0  0  0  0  0  0
   -4.5844   -0.4797   -0.1876 C   0  0  0  0  0  0  0  0  0  0  0  0
   -4.6957   -0.8907    0.8346 H   0  0  0  0  0  0  0  0  0  0  0  0
   -5.4704   -0.7813   -0.7813 H   0  0  0  0  0  0  0  0  0  0  0  0
   -4.5794    0.6256   -0.1240 H   0  0  0  0  0  0  0  0  0  0  0  0
   -3.1495   -0.3948   -2.2662 C   0  0  0  0  0  0  0  0  0  0  0  0
   -3.2343    0.7062   -2.2619 H   0  0  0  0  0  0  0  0  0  0  0  0
   -3.9562   -0.7906   -2.9137 H   0  0  0  0  0  0  0  0  0  0  0  0
   -2.1756   -0.6872   -2.7064 H   0  0  0  0  0  0  0  0  0  0  0  0
   -1.8701    1.9223   -0.5474 C   0  0  0  0  0  0  0  0  0  0  0  0
   -2.8665    2.7222    0.0535 C   0  0  0  0  0  0  0  0  0  0  0  0
   -3.3380    2.3857    0.9890 H   0  0  0  0  0  0  0  0  0  0  0  0
   -3.2346    3.9462   -0.5227 C   0  0  0  0  0  0  0  0  0  0  0  0
   -4.0122    4.5621   -0.0461 H   0  0  0  0  0  0  0  0  0  0  0  0
   -2.6067    4.3897   -1.6987 C   0  0  0  0  0  0  0  0  0  0  0  0
   -2.8941    5.3526   -2.1476 H   0  0  0  0  0  0  0  0  0  0  0  0
   -1.6102    3.6022   -2.2969 C   0  0  0  0  0  0  0  0  0  0  0  0
   -1.1141    3.9434   -3.2181 H   0  0  0  0  0  0  0  0  0  0  0  0
   -1.2456    2.3745   -1.7257 C   0  0  0  0  0  0  0  0  0  0  0  0
   -0.4801    1.7367   -2.1898 H   0  0  0  0  0  0  0  0  0  0  0  0
    0.0872    1.2412    2.1374 C   0  0  0  0  0  0  0  0  0  0  0  0
    0.0974    2.6452    1.9310 C   0  0  0  0  0  0  0  0  0  0  0  0
   -0.5090    3.0810    1.1277 H   0  0  0  0  0  0  0  0  0  0  0  0
    0.8793    3.4933    2.7268 C   0  0  0  0  0  0  0  0  0  0  0  0
    0.8636    4.5774    2.5349 H   0  0  0  0  0  0  0  0  0  0  0  0
    1.6794    2.9728    3.7559 C   0  0  0  0  0  0  0  0  0  0  0  0
    2.2963    3.6401    4.3765 H   0  0  0  0  0  0  0  0  0  0  0  0
    1.6732    1.5871    3.9860 C   0  0  0  0  0  0  0  0  0  0  0  0
    2.2888    1.1583    4.7918 H   0  0  0  0  0  0  0  0  0  0  0  0
    0.8877    0.7396    3.1952 C   0  0  0  0  0  0  0  0  0  0  0  0
    0.9030   -0.3386    3.3819 H   0  0  0  0  0  0  0  0  0  0  0  0
  1  4  2  0  0  0  0
  1  5  1  0  0  0  0
  2  3  1  0  0  0  0
  2  1  1  0  0  0  0
  3 31  1  1  0  0  0
  3  4  1  0  0  0  0
  4 42  1  0  0  0  0
  5 14  1  0  0  0  0
  5  6  1  0  0  0  0
  6  7  1  0  0  0  0
  6  9  1  0  0  0  0
  8  6  1  0  0  0  0
 10 11  1  0  0  0  0
 10  5  1  0  0  0  0
 12 10  1  0  0  0  0
 13 10  1  0  0  0  0
 14 16  1  0  0  0  0
 14 17  1  0  0  0  0
 15 14  1  0  0  0  0
 18 23  1  0  0  0  0
 18  2  1  0  0  0  0
 19 18  1  0  0  0  0
 19 22  1  0  0  0  0
 20 19  1  0  0  0  0
 21 19  1  0  0  0  0
 23 26  1  0  0  0  0
 23 24  1  0  0  0  0
 25 23  1  0  0  0  0
 27 28  1  0  0  0  0
 27 18  1  0  0  0  0
 29 27  1  0  0  0  0
 30 27  1  0  0  0  0
 31 32  1  0  0  0  0
 32 33  1  0  0  0  0
 34 35  1  0  0  0  0
 34 32  2  0  0  0  0
 36 34  1  0  0  0  0
 37 36  1  0  0  0  0
 38 40  1  0  0  0  0
 38 36  2  0  0  0  0
 39 38  1  0  0  0  0
 40 31  2  0  0  0  0
 41 40  1  0  0  0  0
 42 51  1  0  0  0  0
 43 42  2  0  0  0  0
 43 45  1  0  0  0  0
 44 43  1  0  0  0  0
 45 47  2  0  0  0  0
 46 45  1  0  0  0  0
 47 49  1  0  0  0  0
 47 48  1  0  0  0  0
 49 50  1  0  0  0  0
 51 52  1  0  0  0  0
 51 49  2  0  0  0  0
M  END
