2
q = 0.0, confidence = 0.982

 12 11  0  0  0  0  0  0  0  0999 V2000
    2.0791   -2.0687   -0.2351 N   0  0  0  0  0  2  0  0  0  0  0  0
    1.3078   -1.1972    0.0115 C   0  0  0  0  0  1  0  0  0  0  0  0
    2.8686   -3.1298   -0.7858 C   0  0  0  0  0  0  0  0  0  0  0  0
    2.2002   -4.0209   -0.8186 H   0  0  0  0  0  0  0  0  0  0  0  0
    4.0604   -3.4472    0.1253 C   0  0  0  0  0  0  0  0  0  0  0  0
    4.7599   -2.5888    0.1701 H   0  0  0  0  0  0  0  0  0  0  0  0
    4.6117   -4.3200   -0.2738 H   0  0  0  0  0  0  0  0  0  0  0  0
    3.7284   -3.6876    1.1540 H   0  0  0  0  0  0  0  0  0  0  0  0
    3.2869   -2.7804   -2.2204 C   0  0  0  0  0  0  0  0  0  0  0  0
    2.4063   -2.5153   -2.8363 H   0  0  0  0  0  0  0  0  0  0  0  0
    3.7961   -3.6493   -2.6802 H   0  0  0  0  0  0  0  0  0  0  0  0
    3.9876   -1.9225   -2.2243 H   0  0  0  0  0  0  0  0  0  0  0  0
  1  2  1  0  0  0  0
  3  1  1  0  0  0  0
  3  5  1  0  0  0  0
  4  3  1  0  0  0  0
  5  6  1  0  0  0  0
  5  8  1  0  0  0  0
  7  5  1  0  0  0  0
  9  3  1  0  0  0  0
 10  9  1  0  0  0  0
 11  9  1  0  0  0  0
 12  9  1  0  0  0  0
M  END
