1
q = -1.0, confidence = 0.002

 28 28  0  0  1  0  0  0  0  0999 V2000
   -0.3784    0.9052    1.4515 C   0  0  1  0  0  3  0  0  0  0  0  0
   -0.6348   -0.4876    1.8147 C   0  0  2  0  0  3  0  0  0  0  0  0
   -1.7682   -0.9476    1.0457 C   0  0  0  0  0  0  0  0  0  0  0  0
   -2.1590    0.0924    0.1494 C   0  0  0  0  0  0  0  0  0  0  0  0
   -1.3046    1.2395    0.3683 C   0  0  1  0  0  3  0  0  0  0  0  0
   -1.5180    2.5960   -0.2393 C   0  0  0  0  0  0  0  0  0  0  0  0
   -2.6481    3.3699    0.4529 C   0  0  0  0  0  0  0  0  0  0  0  0
    0.4645    1.8751    2.2188 C   0  0  0  0  0  0  0  0  0  0  0  0
   -0.0065   -1.2642    2.9290 C   0  0  0  0  0  0  0  0  0  0  0  0
   -2.4090   -2.2857    1.1707 C   0  0  0  0  0  0  0  0  0  0  0  0
   -3.2893    0.0039   -0.8216 C   0  0  0  0  0  0  0  0  0  0  0  0
   -1.7303    2.4717   -1.3217 H   0  0  0  0  0  0  0  0  0  0  0  0
   -0.5698    3.1675   -0.1849 H   0  0  0  0  0  0  0  0  0  0  0  0
   -2.7812    4.3698   -0.0061 H   0  0  0  0  0  0  0  0  0  0  0  0
   -2.4331    3.5176    1.5308 H   0  0  0  0  0  0  0  0  0  0  0  0
   -3.6150    2.8323    0.3767 H   0  0  0  0  0  0  0  0  0  0  0  0
   -0.1264    2.3095    3.0533 H   0  0  0  0  0  0  0  0  0  0  0  0
    0.8159    2.7036    1.5765 H   0  0  0  0  0  0  0  0  0  0  0  0
    1.3597    1.3873    2.6475 H   0  0  0  0  0  0  0  0  0  0  0  0
   -0.6762   -1.2827    3.8154 H   0  0  0  0  0  0  0  0  0  0  0  0
    0.9598   -0.8229    3.2348 H   0  0  0  0  0  0  0  0  0  0  0  0
    0.1811   -2.3104    2.6165 H   0  0  0  0  0  0  0  0  0  0  0  0
   -3.3956   -2.3124    0.6729 H   0  0  0  0  0  0  0  0  0  0  0  0
   -2.5367   -2.5601    2.2367 H   0  0  0  0  0  0  0  0  0  0  0  0
   -1.7611   -3.0571    0.6967 H   0  0  0  0  0  0  0  0  0  0  0  0
   -4.2549    0.0173   -0.2721 H   0  0  0  0  0  0  0  0  0  0  0  0
   -3.2366   -0.9315   -1.4111 H   0  0  0  0  0  0  0  0  0  0  0  0
   -3.2807    0.8465   -1.5348 H   0  0  0  0  0  0  0  0  0  0  0  0
  1  2  1  0  0  0  0
  1  8  1  1  0  0  0
  2  9  1  1  0  0  0
  3 10  1  0  0  0  0
  3  2  1  0  0  0  0
  4  5  1  0  0  0  0
  4  3  2  0  0  0  0
  5  6  1  1  0  0  0
  5  1  1  0  0  0  0
  6 13  1  0  0  0  0
  6  7  1  0  0  0  0
  7 15  1  0  0  0  0
  8 19  1  0  0  0  0
  8 17  1  0  0  0  0
  9 21  1  0  0  0  0
  9 20  1  0  0  0  0
 10 24  1  0  0  0  0
 11 26  1  0  0  0  0
 11  4  1  0  0  0  0
 12  6  1  0  0  0  0
 14  7  1  0  0  0  0
 16  7  1  0  0  0  0
 18  8  1  0  0  0  0
 22  9  1  0  0  0  0
 23 10  1  0  0  0  0
 25 10  1  0  0  0  0
 27 11  1  0  0  0  0
 28 11  1  0  0  0  0
M  END
