3
q = -1.0, confidence = 0.004

  9  8  0  0  1  0  0  0  0  0999 V2000
   -1.6182    2.5558   -0.0318 S   0  0  0  0  0  1  0  0  0  0  0  0
    0.1445    2.1684   -0.3695 C   0  0  1  0  0  3  0  0  0  0  0  0
    0.5033    1.5623   -1.6252 C   0  0  0  0  0  3  0  0  0  0  0  0
    1.4889    1.8167   -2.0520 H   0  0  0  0  0  0  0  0  0  0  0  0
   -0.2709    1.3432   -2.3759 H   0  0  0  0  0  0  0  0  0  0  0  0
    0.9998    3.2049    0.3262 C   0  0  0  0  0  0  0  0  0  0  0  0
    0.7185    4.2341    0.0109 H   0  0  0  0  0  0  0  0  0  0  0  0
    2.0678    3.0589    0.0771 H   0  0  0  0  0  0  0  0  0  0  0  0
    0.8733    3.1376    1.4250 H   0  0  0  0  0  0  0  0  0  0  0  0
  2  1  1  6  0  0  0
  2  6  1  0  0  0  0
  3  2  1  0  0  0  0
  4  3  1  0  0  0  0
  5  3  1  0  0  0  0
  6  9  1  0  0  0  0
  7  6  1  0  0  0  0
  8  6  1  0  0  0  0
M  END
