1
q = -1.0, confidence = 0.078

  6  5  0  0  0  0  0  0  0  0999 V2000
    2.3285   -1.3382   -0.2977 C   0  0  0  0  0  3  0  0  0  0  0  0
    2.9891   -1.2373   -1.1806 H   0  0  0  0  0  0  0  0  0  0  0  0
    2.9511   -1.2606    0.6144 H   0  0  0  0  0  0  0  0  0  0  0  0
    1.6710   -2.6755   -0.3354 C   0  0  0  0  0  0  0  0  0  0  0  0
    1.1276   -2.9715    0.6116 H   0  0  0  0  0  0  0  0  0  0  0  0
    1.6827   -3.4527   -1.2813 O   0  0  0  0  0  0  0  0  0  0  0  0
  1  3  1  0  0  0  0
  2  1  1  0  0  0  0
  4  1  1  0  0  0  0
  4  5  1  0  0  0  0
  6  4  2  0  0  0  0
M  END
