1
q = -1.0, confidence = 0.0

 11 11  0  0  0  0  0  0  0  0999 V2000
    1.7845   -1.2034   -0.0001 C   0  0  0  0  0  3  0  0  0  0  0  0
    2.3796   -1.6423    1.2079 C   0  0  0  0  0  0  0  0  0  0  0  0
    1.9574   -1.3279    2.1762 H   0  0  0  0  0  0  0  0  0  0  0  0
    3.5022   -2.4895    1.2191 C   0  0  0  0  0  0  0  0  0  0  0  0
    3.9591   -2.8324    2.1594 H   0  0  0  0  0  0  0  0  0  0  0  0
    4.0521   -2.9012   -0.0001 C   0  0  0  0  0  0  0  0  0  0  0  0
    3.5023   -2.4894   -1.2193 C   0  0  0  0  0  0  0  0  0  0  0  0
    3.9592   -2.8323   -2.1596 H   0  0  0  0  0  0  0  0  0  0  0  0
    2.3797   -1.6422   -1.2082 C   0  0  0  0  0  0  0  0  0  0  0  0
    1.9576   -1.3278   -2.1764 H   0  0  0  0  0  0  0  0  0  0  0  0
    5.1328   -3.7114   -0.0001 F   0  0  0  0  0  0  0  0  0  0  0  0
  1  2  1  0  0  0  0
  2  4  2  0  0  0  0
  2  3  1  0  0  0  0
  4  5  1  0  0  0  0
  6 11  1  0  0  0  0
  6  4  1  0  0  0  0
  7  9  1  0  0  0  0
  7  6  2  0  0  0  0
  8  7  1  0  0  0  0
  9  1  2  0  0  0  0
 10  9  1  0  0  0  0
M  END
