3
q = -1.0

 16 17  0  0  0  0  0  0  0  0999 V2000
    2.1066   -1.2892    1.3431 C   0  0  0  0  0  3  0  0  0  0  0  0
    1.9795   -1.5635    2.3973 H   0  0  0  0  0  0  0  0  0  0  0  0
    1.9506   -2.1704    0.2174 C   0  0  0  0  0  3  0  0  0  0  0  0
    1.6455   -3.2233    0.2690 H   0  0  0  0  0  0  0  0  0  0  0  0
    2.2664   -1.4520   -0.9859 C   0  0  0  0  0  3  0  0  0  0  0  0
    2.2788   -1.8695   -1.9999 H   0  0  0  0  0  0  0  0  0  0  0  0
    2.7232   -0.1366   -0.6040 C   0  0  0  0  0  0  0  0  0  0  0  0
    2.6213   -0.0339    0.8476 C   0  0  0  0  0  0  0  0  0  0  0  0
    3.0223    1.1675    1.5069 C   0  0  0  0  0  0  0  0  0  0  0  0
    2.9629    1.2444    2.6025 H   0  0  0  0  0  0  0  0  0  0  0  0
    3.5200    2.2069    0.7370 C   0  0  0  0  0  0  0  0  0  0  0  0
    3.8615    3.1305    1.2275 H   0  0  0  0  0  0  0  0  0  0  0  0
    3.6244    2.1036   -0.6874 C   0  0  0  0  0  0  0  0  0  0  0  0
    4.0443    2.9504   -1.2505 H   0  0  0  0  0  0  0  0  0  0  0  0
    3.2286    0.9609   -1.3645 C   0  0  0  0  0  0  0  0  0  0  0  0
    3.3245    0.8802   -2.4571 H   0  0  0  0  0  0  0  0  0  0  0  0
  1  2  1  0  0  0  0
  3  4  1  0  0  0  0
  3  1  1  0  0  0  0
  5  7  1  0  0  0  0
  5  3  1  0  0  0  0
  6  5  1  0  0  0  0
  7  8  1  0  0  0  0
  8  1  1  0  0  0  0
  8  9  2  0  0  0  0
  9 10  1  0  0  0  0
 11 12  1  0  0  0  0
 11  9  1  0  0  0  0
 13 11  2  0  0  0  0
 14 13  1  0  0  0  0
 15 13  1  0  0  0  0
 15  7  2  0  0  0  0
 16 15  1  0  0  0  0
M  END
