10
q = -1.0

 13 12  0  0  0  0  0  0  0  0999 V2000
    1.0009   -0.1235   -1.9374 F   0  0  0  0  0  0  0  0  0  0  0  0
    0.9336   -1.8814   -0.6193 F   0  0  0  0  0  0  0  0  0  0  0  0
    2.3153   -0.8205    1.2477 F   0  0  0  0  0  0  0  0  0  0  0  0
    2.0672    1.2409    0.5403 F   0  0  0  0  0  0  0  0  0  0  0  0
    3.4998    0.8785   -1.5970 F   0  0  0  0  0  0  0  0  0  0  0  0
    3.4778   -1.3250   -1.4171 F   0  0  0  0  0  0  0  0  0  0  0  0
    5.8206    0.0454   -0.7131 F   0  0  0  0  0  0  0  0  0  0  0  0
    4.9454   -1.2448    0.8102 F   0  0  0  0  0  0  0  0  0  0  0  0
    4.7526    0.9275    0.9739 F   0  0  0  0  0  0  0  0  0  0  0  0
    0.8342   -0.5070   -0.6085 C   0  0  0  0  0  0  0  0  0  0  0  0
    2.1466   -0.0531    0.1223 C   0  0  0  0  0  0  0  0  0  0  0  0
    3.4579   -0.1631   -0.7260 C   0  0  0  0  0  0  0  0  0  0  0  0
    4.7749   -0.1098    0.1165 C   0  0  0  0  0  0  0  0  0  0  0  0
  1 10  1  0  0  0  0
  2 10  1  0  0  0  0
  5 12  1  0  0  0  0
  6 12  1  0  0  0  0
  7 13  1  0  0  0  0
 10 11  1  0  0  0  0
 11  4  1  0  0  0  0
 11  3  1  0  0  0  0
 12 13  1  0  0  0  0
 12 11  1  0  0  0  0
 13  8  1  0  0  0  0
 13  9  1  0  0  0  0
M  END
