1
q = -1.0

 19 18  0  0  0  0  0  0  0  0999 V2000
    0.4682    0.1097    0.8516 C   0  0  0  0  0  3  0  0  0  0  0  0
    0.5681    0.9296    1.5927 H   0  0  0  0  0  0  0  0  0  0  0  0
    0.6079   -0.8463    1.3785 H   0  0  0  0  0  0  0  0  0  0  0  0
    1.4980    0.2295   -0.2663 C   0  0  0  0  0  0  0  0  0  0  0  0
    1.4006    1.2105   -0.7613 H   0  0  0  0  0  0  0  0  0  0  0  0
    1.2935   -0.5337   -1.0427 H   0  0  0  0  0  0  0  0  0  0  0  0
    3.0172    0.0904    0.0901 C   0  0  0  0  0  0  0  0  0  0  0  0
    3.8195    0.6745   -1.1161 C   0  0  0  0  0  0  0  0  0  0  0  0
    3.3842    0.8893    1.3725 C   0  0  0  0  0  0  0  0  0  0  0  0
    3.4050   -1.4063    0.2770 C   0  0  0  0  0  0  0  0  0  0  0  0
    2.5658   -2.0418    1.1207 F   0  0  0  0  0  0  0  0  0  0  0  0
    3.3530   -2.0541   -0.9045 F   0  0  0  0  0  0  0  0  0  0  0  0
    4.6534   -1.5496    0.7721 F   0  0  0  0  0  0  0  0  0  0  0  0
    3.3271    0.2331   -2.2906 F   0  0  0  0  0  0  0  0  0  0  0  0
    5.1277    0.3610   -1.0790 F   0  0  0  0  0  0  0  0  0  0  0  0
    3.7219    2.0272   -1.1300 F   0  0  0  0  0  0  0  0  0  0  0  0
    4.7121    1.0923    1.4915 F   0  0  0  0  0  0  0  0  0  0  0  0
    2.7941    2.1082    1.3771 F   0  0  0  0  0  0  0  0  0  0  0  0
    2.9735    0.2407    2.4836 F   0  0  0  0  0  0  0  0  0  0  0  0
  1  3  1  0  0  0  0
  1  2  1  0  0  0  0
  4  7  1  0  0  0  0
  4  1  1  0  0  0  0
  5  4  1  0  0  0  0
  6  4  1  0  0  0  0
  7 10  1  0  0  0  0
  7  9  1  0  0  0  0
  8 15  1  0  0  0  0
  8  7  1  0  0  0  0
  9 18  1  0  0  0  0
  9 17  1  0  0  0  0
  9 19  1  0  0  0  0
 10 13  1  0  0  0  0
 10 11  1  0  0  0  0
 12 10  1  0  0  0  0
 14  8  1  0  0  0  0
 16  8  1  0  0  0  0
M  END
