1
q = -1.0

 11 11  0  0  0  0  0  0  0  0999 V2000
    0.3740   -1.8619   -0.0715 C   0  0  0  0  0  3  0  0  0  0  0  0
    0.8020   -2.4376   -1.2966 C   0  0  0  0  0  0  0  0  0  0  0  0
    0.8868   -1.8048   -2.1976 H   0  0  0  0  0  0  0  0  0  0  0  0
    1.1501   -3.7950   -1.4131 C   0  0  0  0  0  0  0  0  0  0  0  0
    1.4820   -4.1930   -2.3861 H   0  0  0  0  0  0  0  0  0  0  0  0
    1.0846   -4.6413   -0.2946 C   0  0  0  0  0  0  0  0  0  0  0  0
    1.3587   -5.7041   -0.3792 H   0  0  0  0  0  0  0  0  0  0  0  0
    0.6657   -4.1069    0.9347 C   0  0  0  0  0  0  0  0  0  0  0  0
    0.6102   -4.7530    1.8261 H   0  0  0  0  0  0  0  0  0  0  0  0
    0.3200   -2.7477    1.0353 C   0  0  0  0  0  0  0  0  0  0  0  0
    0.0135   -2.3645    2.0237 H   0  0  0  0  0  0  0  0  0  0  0  0
  1 10  1  0  0  0  0
  2  1  2  0  0  0  0
  3  2  1  0  0  0  0
  4  2  1  0  0  0  0
  4  6  2  0  0  0  0
  5  4  1  0  0  0  0
  6  8  1  0  0  0  0
  7  6  1  0  0  0  0
  8 10  2  0  0  0  0
  8  9  1  0  0  0  0
 10 11  1  0  0  0  0
M  END
