1
q = -1.0

 33 33  0  0  0  0  0  0  0  0999 V2000
   -0.0254   -0.4944    1.7196 C   0  0  0  0  0  3  0  0  0  0  0  0
    1.8687   -0.3702   -0.2971 P   0  0  0  0  0  0  0  0  0  0  0  0
   -1.9907   -0.1224   -0.1986 P   0  0  0  0  0  0  0  0  0  0  0  0
   -1.2697   -0.9224    2.2582 C   0  0  0  0  0  0  0  0  0  0  0  0
   -1.3047   -1.8259    3.3365 C   0  0  0  0  0  0  0  0  0  0  0  0
   -2.2738   -2.1515    3.7470 H   0  0  0  0  0  0  0  0  0  0  0  0
   -0.1126   -2.3450    3.8641 C   0  0  0  0  0  0  0  0  0  0  0  0
   -0.1451   -3.0496    4.7085 H   0  0  0  0  0  0  0  0  0  0  0  0
    1.1152   -2.0219    3.2658 C   0  0  0  0  0  0  0  0  0  0  0  0
    2.0422   -2.4972    3.6242 H   0  0  0  0  0  0  0  0  0  0  0  0
    1.1628   -1.1202    2.1863 C   0  0  0  0  0  0  0  0  0  0  0  0
    2.4382   -0.8735    1.4054 C   0  0  0  0  0  0  0  0  0  0  0  0
    3.1243   -1.7435    1.3908 H   0  0  0  0  0  0  0  0  0  0  0  0
    3.0056    0.0034    1.7885 H   0  0  0  0  0  0  0  0  0  0  0  0
    1.9268   -2.0332   -1.2499 C   0  0  0  0  0  0  0  0  0  0  0  0
    0.8429   -2.7637   -0.9282 F   0  0  0  0  0  0  0  0  0  0  0  0
    3.0194   -2.7755   -0.9586 F   0  0  0  0  0  0  0  0  0  0  0  0
    1.9156   -1.8054   -2.5790 F   0  0  0  0  0  0  0  0  0  0  0  0
    3.4489    0.4081   -1.0390 C   0  0  0  0  0  0  0  0  0  0  0  0
    4.4759   -0.4540   -1.1716 F   0  0  0  0  0  0  0  0  0  0  0  0
    3.8686    1.4112   -0.2182 F   0  0  0  0  0  0  0  0  0  0  0  0
    3.1921    0.9480   -2.2460 F   0  0  0  0  0  0  0  0  0  0  0  0
   -2.5380   -0.4906    1.5423 C   0  0  0  0  0  0  0  0  0  0  0  0
   -3.3495   -1.2431    1.5954 H   0  0  0  0  0  0  0  0  0  0  0  0
   -2.9419    0.4729    1.9252 H   0  0  0  0  0  0  0  0  0  0  0  0
   -2.3051   -1.8008   -1.0759 C   0  0  0  0  0  0  0  0  0  0  0  0
   -1.8118   -2.7903   -0.3043 F   0  0  0  0  0  0  0  0  0  0  0  0
   -1.6897   -1.8352   -2.2700 F   0  0  0  0  0  0  0  0  0  0  0  0
   -3.6202   -2.0555   -1.2733 F   0  0  0  0  0  0  0  0  0  0  0  0
   -3.4690    0.8444   -0.9289 C   0  0  0  0  0  0  0  0  0  0  0  0
   -3.3905    2.1483   -0.5666 F   0  0  0  0  0  0  0  0  0  0  0  0
   -3.4550    0.7834   -2.2737 F   0  0  0  0  0  0  0  0  0  0  0  0
   -4.6586    0.3810   -0.4917 F   0  0  0  0  0  0  0  0  0  0  0  0
  1 11  2  0  0  0  0
  1  4  1  0  0  0  0
  2 12  1  0  0  0  0
  3 23  1  0  0  0  0
  4  5  2  0  0  0  0
  5  6  1  0  0  0  0
  5  7  1  0  0  0  0
  7  8  1  0  0  0  0
  9 10  1  0  0  0  0
  9  7  2  0  0  0  0
 11  9  1  0  0  0  0
 12 14  1  0  0  0  0
 12 11  1  0  0  0  0
 13 12  1  0  0  0  0
 15 17  1  0  0  0  0
 15 16  1  0  0  0  0
 15  2  1  0  0  0  0
 18 15  1  0  0  0  0
 19  2  1  0  0  0  0
 19 21  1  0  0  0  0
 20 19  1  0  0  0  0
 22 19  1  0  0  0  0
 23 24  1  0  0  0  0
 23 25  1  0  0  0  0
 23  4  1  0  0  0  0
 26 27  1  0  0  0  0
 26  3  1  0  0  0  0
 28 26  1  0  0  0  0
 29 26  1  0  0  0  0
 30 31  1  0  0  0  0
 30 33  1  0  0  0  0
 30  3  1  0  0  0  0
 32 30  1  0  0  0  0
M  END
