3
q = 0.0, confidence = 0.996

 21 21  0  0  0  0  0  0  0  0999 V2000
    0.1851    2.3910   -1.0050 N   0  0  0  0  0  0  0  0  0  0  0  0
    1.2251    2.5042    0.8873 N   0  0  0  0  0  0  0  0  0  0  0  0
    0.7459    1.5933   -0.0313 C   0  0  0  0  0  2  0  0  0  0  0  0
    0.2519    3.7469   -0.6751 C   0  0  0  0  0  0  0  0  0  0  0  0
    0.9138    3.8225    0.5285 C   0  0  0  0  0  0  0  0  0  0  0  0
   -0.3872    1.9056   -2.2486 C   0  0  0  0  0  0  0  0  0  0  0  0
   -0.1073    0.8432   -2.3788 H   0  0  0  0  0  0  0  0  0  0  0  0
    0.0180    2.4875   -3.0997 H   0  0  0  0  0  0  0  0  0  0  0  0
   -1.4907    2.0080   -2.2429 H   0  0  0  0  0  0  0  0  0  0  0  0
   -0.3671    4.8068   -1.5173 C   0  0  0  0  0  0  0  0  0  0  0  0
   -0.2142    5.8023   -1.0605 H   0  0  0  0  0  0  0  0  0  0  0  0
   -1.4616    4.6465   -1.6199 H   0  0  0  0  0  0  0  0  0  0  0  0
    0.0605    4.8377   -2.5417 H   0  0  0  0  0  0  0  0  0  0  0  0
    1.2418    4.9999    1.3798 C   0  0  0  0  0  0  0  0  0  0  0  0
    2.3359    5.1388    1.5166 H   0  0  0  0  0  0  0  0  0  0  0  0
    0.7923    4.9166    2.3923 H   0  0  0  0  0  0  0  0  0  0  0  0
    0.8489    5.9242    0.9169 H   0  0  0  0  0  0  0  0  0  0  0  0
    1.9777    2.1627    2.0797 C   0  0  0  0  0  0  0  0  0  0  0  0
    1.3169    2.0092    2.9565 H   0  0  0  0  0  0  0  0  0  0  0  0
    2.6958    2.9718    2.3088 H   0  0  0  0  0  0  0  0  0  0  0  0
    2.5339    1.2269    1.8982 H   0  0  0  0  0  0  0  0  0  0  0  0
  1  4  1  0  0  0  0
  1  3  1  0  0  0  0
  2 18  1  0  0  0  0
  3  2  1  0  0  0  0
  4  5  2  0  0  0  0
  5  2  1  0  0  0  0
  5 14  1  0  0  0  0
  6  9  1  0  0  0  0
  6  1  1  0  0  0  0
  7  6  1  0  0  0  0
  8  6  1  0  0  0  0
 10 11  1  0  0  0  0
 10  4  1  0  0  0  0
 12 10  1  0  0  0  0
 13 10  1  0  0  0  0
 14 15  1  0  0  0  0
 14 16  1  0  0  0  0
 17 14  1  0  0  0  0
 18 20  1  0  0  0  0
 18 19  1  0  0  0  0
 21 18  1  0  0  0  0
M  END
