2
q = -1.0, confidence = 0.002

 13 13  0  0  1  0  0  0  0  0999 V2000
    0.8672   -3.0855   -0.6331 C   0  0  1  0  0  3  0  0  0  0  0  0
    1.6378   -2.2766   -1.5396 C   0  0  0  0  0  3  0  0  0  0  0  0
    2.6967   -2.0183   -1.4112 H   0  0  0  0  0  0  0  0  0  0  0  0
    0.8031   -1.8865   -2.6400 C   0  0  0  0  0  3  0  0  0  0  0  0
    1.1064   -1.3014   -3.5146 H   0  0  0  0  0  0  0  0  0  0  0  0
   -0.4641   -3.1707   -1.1938 C   0  0  0  0  0  0  0  0  0  0  0  0
   -1.3151   -3.6685   -0.7151 H   0  0  0  0  0  0  0  0  0  0  0  0
   -0.5005   -2.4513   -2.4166 C   0  0  0  0  0  0  0  0  0  0  0  0
   -1.3822   -2.2892   -3.0462 H   0  0  0  0  0  0  0  0  0  0  0  0
    1.3472   -3.7949    0.5906 C   0  0  0  0  0  0  0  0  0  0  0  0
    2.3258   -3.4106    0.9311 H   0  0  0  0  0  0  0  0  0  0  0  0
    1.4604   -4.8792    0.3775 H   0  0  0  0  0  0  0  0  0  0  0  0
    0.6184   -3.6931    1.4191 H   0  0  0  0  0  0  0  0  0  0  0  0
  1 10  1  6  0  0  0
  2  3  1  0  0  0  0
  2  1  1  0  0  0  0
  4  8  1  0  0  0  0
  4  2  1  0  0  0  0
  5  4  1  0  0  0  0
  6  7  1  0  0  0  0
  6  1  1  0  0  0  0
  8  6  2  0  0  0  0
  9  8  1  0  0  0  0
 10 11  1  0  0  0  0
 10 13  1  0  0  0  0
 12 10  1  0  0  0  0
M  END
