3
q = 0.0, confidence = 0.906

 10  9  0  0  0  0  0  0  0  0999 V2000
   -4.3394   -1.2810    0.4360 C   0  0  0  0  0  0  0  0  0  0  0  0
   -2.8627   -1.1617    0.4865 C   0  0  0  0  0  3  0  0  0  0  0  0
   -1.8171   -1.6963    1.1136 C   0  0  0  0  0  3  0  0  0  0  0  0
   -1.4531   -2.6678    2.1733 C   0  0  0  0  0  0  0  0  0  0  0  0
   -4.7360   -2.1281    1.0361 H   0  0  0  0  0  0  0  0  0  0  0  0
   -4.6783   -1.3955   -0.6156 H   0  0  0  0  0  0  0  0  0  0  0  0
   -4.8100   -0.3458    0.8096 H   0  0  0  0  0  0  0  0  0  0  0  0
   -2.2966   -3.3258    2.4752 H   0  0  0  0  0  0  0  0  0  0  0  0
   -0.5956   -3.3000    1.8617 H   0  0  0  0  0  0  0  0  0  0  0  0
   -1.1062   -2.1212    3.0763 H   0  0  0  0  0  0  0  0  0  0  0  0
  1  2  1  0  0  0  0
  1  7  1  0  0  0  0
  1  5  1  0  0  0  0
  2  3  2  0  0  0  0
  3  4  1  0  0  0  0
  4  8  1  0  0  0  0
  4 10  1  0  0  0  0
  6  1  1  0  0  0  0
  9  4  1  0  0  0  0
M  END
