4
q = -1.0, confidence = 0.0

 35 36  0  0  1  0  0  0  0  0999 V2000
   -2.0492   -0.7123   -0.8435 O   0  0  0  0  0  0  0  0  0  0  0  0
   -5.3145    1.5861   -1.7753 O   0  0  0  0  0  0  0  0  0  0  0  0
   -0.7449   -0.7767   -1.2819 C   0  0  0  0  0  3  0  0  0  0  0  0
   -0.0480    0.3856   -1.7439 C   0  0  0  0  0  3  0  0  0  0  0  0
   -0.3703    1.5515   -0.9879 C   0  0  0  0  0  3  0  0  0  0  0  0
   -1.7072    1.6900   -0.4021 C   0  0  0  0  0  0  0  0  0  0  0  0
   -2.2809    2.8919   -0.1404 C   0  0  0  0  0  0  0  0  0  0  0  0
   -3.6618    3.0623    0.4176 C   0  0  0  0  0  0  0  0  0  0  0  0
   -4.3051    1.7450    0.8786 C   0  0  0  0  0  0  0  0  0  0  0  0
   -3.9520    0.5599   -0.0374 C   0  0  2  0  0  0  0  0  0  0  0  0
   -2.4176    0.4062   -0.0205 C   0  0  1  0  0  0  0  0  0  0  0  0
   -4.4172    0.8228   -1.4699 C   0  0  0  0  0  0  0  0  0  0  0  0
   -4.5975   -0.7755    0.4263 C   0  0  0  0  0  0  0  0  0  0  0  0
   -6.1235   -0.7771    0.5556 C   0  0  0  0  0  0  0  0  0  0  0  0
   -6.7044   -2.1537    0.9147 C   0  0  0  0  0  0  0  0  0  0  0  0
   -6.5473   -3.2143   -0.1780 C   0  0  0  0  0  0  0  0  0  0  0  0
   -0.5887   -1.7504   -1.7672 H   0  0  0  0  0  0  0  0  0  0  0  0
    0.6364    0.3806   -2.6037 H   0  0  0  0  0  0  0  0  0  0  0  0
    0.1418    2.4907   -1.2434 H   0  0  0  0  0  0  0  0  0  0  0  0
   -1.7139    3.8077   -0.3843 H   0  0  0  0  0  0  0  0  0  0  0  0
   -3.6418    3.7895    1.2587 H   0  0  0  0  0  0  0  0  0  0  0  0
   -4.3032    3.5342   -0.3615 H   0  0  0  0  0  0  0  0  0  0  0  0
   -5.4040    1.8675    0.9150 H   0  0  0  0  0  0  0  0  0  0  0  0
   -3.9681    1.4929    1.9068 H   0  0  0  0  0  0  0  0  0  0  0  0
   -2.1226    0.1416    1.0226 H   0  0  0  0  0  0  0  0  0  0  0  0
   -3.8824    0.2044   -2.2502 H   0  0  0  0  0  0  0  0  0  0  0  0
   -4.2683   -1.5694   -0.2751 H   0  0  0  0  0  0  0  0  0  0  0  0
   -4.1379   -1.0399    1.4053 H   0  0  0  0  0  0  0  0  0  0  0  0
   -6.5855   -0.4200   -0.3912 H   0  0  0  0  0  0  0  0  0  0  0  0
   -6.4315   -0.0464    1.3328 H   0  0  0  0  0  0  0  0  0  0  0  0
   -6.2318   -2.5149    1.8555 H   0  0  0  0  0  0  0  0  0  0  0  0
   -7.7837   -2.0306    1.1489 H   0  0  0  0  0  0  0  0  0  0  0  0
   -7.0231   -4.1716    0.1158 H   0  0  0  0  0  0  0  0  0  0  0  0
   -5.4823   -3.4331   -0.3976 H   0  0  0  0  0  0  0  0  0  0  0  0
   -7.0196   -2.8833   -1.1270 H   0  0  0  0  0  0  0  0  0  0  0  0
  1 11  1  0  0  0  0
  2 12  2  0  0  0  0
  3  1  1  0  0  0  0
  4  3  1  0  0  0  0
  4  5  1  0  0  0  0
  5  6  1  0  0  0  0
  6  7  2  0  0  0  0
  6 11  1  0  0  0  0
  7  8  1  0  0  0  0
  8  9  1  0  0  0  0
  8 21  1  0  0  0  0
  9 23  1  0  0  0  0
  9 24  1  0  0  0  0
 10 12  1  6  0  0  0
 10 11  1  0  0  0  0
 10 13  1  0  0  0  0
 10  9  1  0  0  0  0
 11 25  1  1  0  0  0
 13 14  1  0  0  0  0
 13 28  1  0  0  0  0
 14 15  1  0  0  0  0
 14 30  1  0  0  0  0
 15 32  1  0  0  0  0
 15 31  1  0  0  0  0
 16 33  1  0  0  0  0
 16 15  1  0  0  0  0
 17  3  1  0  0  0  0
 18  4  1  0  0  0  0
 19  5  1  0  0  0  0
 20  7  1  0  0  0  0
 22  8  1  0  0  0  0
 26 12  1  0  0  0  0
 27 13  1  0  0  0  0
 29 14  1  0  0  0  0
 34 16  1  0  0  0  0
 35 16  1  0  0  0  0
M  END
