4
q = -1.0, confidence = 0.298

  4  3  0  0  0  0  0  0  0  0999 V2000
   -1.5618    4.3531    0.0011 F   0  0  0  0  0  0  0  0  0  0  0  0
   -3.0863    3.2353   -1.0952 F   0  0  0  0  0  0  0  0  0  0  0  0
   -3.0866    3.2349    1.0966 F   0  0  0  0  0  0  0  0  0  0  0  0
   -2.2385    3.1504    0.0008 C   0  0  0  0  0  0  0  0  0  0  0  0
  2  4  1  0  0  0  0
  4  1  1  0  0  0  0
  4  3  1  0  0  0  0
M  END
