3
q = 0.0, confidence = 0.992

 53 55  0  0  1  0  0  0  0  0999 V2000
   -4.7872    2.9932    0.0721 C   0  0  0  0  0  0  0  0  0  0  0  0
   -3.5735    2.1065    0.1715 C   0  0  0  0  0  3  0  0  0  0  0  0
   -2.7533    1.8300   -0.9717 C   0  0  0  0  0  3  0  0  0  0  0  0
   -1.7044    0.8695   -0.8341 C   0  0  0  0  0  3  0  0  0  0  0  0
   -1.5173    0.2565    0.4415 C   0  0  0  0  0  3  0  0  0  0  0  0
   -0.4246   -0.7731    0.7535 C   0  0  1  0  0  0  0  0  0  0  0  0
   -0.4438   -1.9526   -0.2416 C   0  0  0  0  0  0  0  0  0  0  0  0
    0.8022   -2.8353   -0.1792 C   0  0  0  0  0  0  0  0  0  0  0  0
    2.0787   -2.0270   -0.4133 C   0  0  0  0  0  0  0  0  0  0  0  0
    2.2551   -0.8764    0.6087 C   0  0  1  0  0  0  0  0  0  0  0  0
    0.9490   -0.0090    0.5975 C   0  0  2  0  0  0  0  0  0  0  0  0
   -0.6875   -1.2824    2.1848 C   0  0  0  0  0  0  0  0  0  0  0  0
    2.6232   -1.4750    1.9894 C   0  0  0  0  0  0  0  0  0  0  0  0
    1.1148    1.2059    1.5196 C   0  0  0  0  0  0  0  0  0  0  0  0
    2.1719    2.1490    0.9469 C   0  0  0  0  0  0  0  0  0  0  0  0
    3.4057    1.4382    0.4307 C   0  0  0  0  0  0  0  0  0  0  0  0
    3.4363    0.0352    0.2110 C   0  0  0  0  0  0  0  0  0  0  0  0
    4.6060   -0.5391   -0.3152 C   0  0  0  0  0  0  0  0  0  0  0  0
    5.7404    0.2307   -0.6314 C   0  0  0  0  0  0  0  0  0  0  0  0
    5.7130    1.6217   -0.4130 C   0  0  0  0  0  0  0  0  0  0  0  0
    4.5478    2.1952    0.1119 C   0  0  0  0  0  0  0  0  0  0  0  0
    6.8069   -0.4560   -1.1363 O   0  0  0  0  0  0  0  0  0  0  0  0
    7.9706    0.2725   -1.4690 C   0  0  0  0  0  0  0  0  0  0  0  0
   -5.5524    2.7187    0.8252 H   0  0  0  0  0  0  0  0  0  0  0  0
   -4.5110    4.0533    0.2648 H   0  0  0  0  0  0  0  0  0  0  0  0
   -5.2647    2.9455   -0.9261 H   0  0  0  0  0  0  0  0  0  0  0  0
   -3.0772    2.1387    1.1563 H   0  0  0  0  0  0  0  0  0  0  0  0
   -2.9884    2.2499   -1.9629 H   0  0  0  0  0  0  0  0  0  0  0  0
   -1.1324    0.5572   -1.7221 H   0  0  0  0  0  0  0  0  0  0  0  0
   -1.7367    0.8908    1.3146 H   0  0  0  0  0  0  0  0  0  0  0  0
   -0.5336   -1.5575   -1.2761 H   0  0  0  0  0  0  0  0  0  0  0  0
   -1.3513   -2.5610   -0.0586 H   0  0  0  0  0  0  0  0  0  0  0  0
    0.7229   -3.6382   -0.9411 H   0  0  0  0  0  0  0  0  0  0  0  0
    0.8541   -3.3576    0.7997 H   0  0  0  0  0  0  0  0  0  0  0  0
    2.0560   -1.5900   -1.4359 H   0  0  0  0  0  0  0  0  0  0  0  0
    2.9567   -2.7034   -0.3822 H   0  0  0  0  0  0  0  0  0  0  0  0
    0.9113    0.3915   -0.4423 H   0  0  0  0  0  0  0  0  0  0  0  0
   -0.5664   -0.4739    2.9333 H   0  0  0  0  0  0  0  0  0  0  0  0
   -1.7267   -1.6570    2.2646 H   0  0  0  0  0  0  0  0  0  0  0  0
   -0.0140   -2.1080    2.4744 H   0  0  0  0  0  0  0  0  0  0  0  0
    3.6242   -1.9455    1.9273 H   0  0  0  0  0  0  0  0  0  0  0  0
    2.6795   -0.6993    2.7768 H   0  0  0  0  0  0  0  0  0  0  0  0
    1.9103   -2.2507    2.3246 H   0  0  0  0  0  0  0  0  0  0  0  0
    1.4026    0.8763    2.5394 H   0  0  0  0  0  0  0  0  0  0  0  0
    0.1604    1.7561    1.6314 H   0  0  0  0  0  0  0  0  0  0  0  0
    2.4652    2.9157    1.6951 H   0  0  0  0  0  0  0  0  0  0  0  0
    1.7169    2.7169    0.1027 H   0  0  0  0  0  0  0  0  0  0  0  0
    4.6801   -1.6211   -0.4910 H   0  0  0  0  0  0  0  0  0  0  0  0
    6.5785    2.2573   -0.6419 H   0  0  0  0  0  0  0  0  0  0  0  0
    4.5235    3.2841    0.2818 H   0  0  0  0  0  0  0  0  0  0  0  0
    8.7024   -0.4614   -1.8553 H   0  0  0  0  0  0  0  0  0  0  0  0
    7.7755    1.0350   -2.2572 H   0  0  0  0  0  0  0  0  0  0  0  0
    8.4098    0.7862   -0.5835 H   0  0  0  0  0  0  0  0  0  0  0  0
  1  2  1  0  0  0  0
  1 25  1  0  0  0  0
  1 24  1  0  0  0  0
  2 27  1  0  0  0  0
  3  4  1  0  0  0  0
  3  2  1  0  0  0  0
  4  5  1  0  0  0  0
  5 30  1  0  0  0  0
  6  5  1  6  0  0  0
  6 12  1  0  0  0  0
  7  8  1  0  0  0  0
  7 32  1  0  0  0  0
  7  6  1  0  0  0  0
  8 34  1  0  0  0  0
  9 36  1  0  0  0  0
  9  8  1  0  0  0  0
  9 10  1  0  0  0  0
 10 13  1  1  0  0  0
 11 37  1  6  0  0  0
 11 10  1  0  0  0  0
 11  6  1  0  0  0  0
 11 14  1  0  0  0  0
 12 39  1  0  0  0  0
 12 40  1  0  0  0  0
 12 38  1  0  0  0  0
 13 43  1  0  0  0  0
 13 42  1  0  0  0  0
 14 45  1  0  0  0  0
 14 44  1  0  0  0  0
 15 14  1  0  0  0  0
 15 46  1  0  0  0  0
 16 15  1  0  0  0  0
 17 16  1  0  0  0  0
 17 10  1  0  0  0  0
 18 17  2  0  0  0  0
 19 20  2  0  0  0  0
 19 18  1  0  0  0  0
 20 21  1  0  0  0  0
 21 50  1  0  0  0  0
 21 16  2  0  0  0  0
 22 19  1  0  0  0  0
 23 22  1  0  0  0  0
 23 53  1  0  0  0  0
 26  1  1  0  0  0  0
 28  3  1  0  0  0  0
 29  4  1  0  0  0  0
 31  7  1  0  0  0  0
 33  8  1  0  0  0  0
 35  9  1  0  0  0  0
 41 13  1  0  0  0  0
 47 15  1  0  0  0  0
 48 18  1  0  0  0  0
 49 20  1  0  0  0  0
 51 23  1  0  0  0  0
 52 23  1  0  0  0  0
M  END
