2
q = 0.0, confidence = 0.98

 49 51  0  0  1  0  0  0  0  0999 V2000
    2.8603    2.1721    0.3424 C   0  0  0  0  0  3  0  0  0  0  0  0
    2.7231    1.7682   -1.0261 C   0  0  0  0  0  3  0  0  0  0  0  0
    1.7291    0.7946   -1.3490 C   0  0  0  0  0  3  0  0  0  0  0  0
    0.9181    0.2785   -0.2924 C   0  0  0  0  0  3  0  0  0  0  0  0
    3.9881    3.0629    0.7918 C   0  0  0  0  0  0  0  0  0  0  0  0
   -0.1513   -0.8058   -0.4580 C   0  0  1  0  0  0  0  0  0  0  0  0
   -0.0451   -1.7768    0.7475 C   0  0  0  0  0  0  0  0  0  0  0  0
   -1.2656   -2.6784    0.9239 C   0  0  0  0  0  0  0  0  0  0  0  0
   -2.5529   -1.8647    1.0728 C   0  0  0  0  0  0  0  0  0  0  0  0
   -2.8124   -0.9218   -0.1302 C   0  0  1  0  0  0  0  0  0  0  0  0
   -1.5296   -0.0499   -0.3466 C   0  0  2  0  0  0  0  0  0  0  0  0
    0.0119   -1.5611   -1.7881 C   0  0  0  0  0  0  0  0  0  0  0  0
   -3.2391   -1.7663   -1.3568 C   0  0  0  0  0  0  0  0  0  0  0  0
   -1.7707    0.9906   -1.4458 C   0  0  0  0  0  0  0  0  0  0  0  0
   -2.8107    2.0044   -0.9736 C   0  0  0  0  0  0  0  0  0  0  0  0
   -4.0004    1.3776   -0.2757 C   0  0  0  0  0  0  0  0  0  0  0  0
   -3.9922    0.0301    0.1649 C   0  0  0  0  0  0  0  0  0  0  0  0
   -5.1361   -0.4591    0.8342 C   0  0  0  0  0  0  0  0  0  0  0  0
   -6.2549    0.3461    1.0767 C   0  0  0  0  0  0  0  0  0  0  0  0
   -6.2563    1.6805    0.6421 C   0  0  0  0  0  0  0  0  0  0  0  0
   -5.1346    2.1797   -0.0269 C   0  0  0  0  0  0  0  0  0  0  0  0
    1.9332    2.2883    0.9295 H   0  0  0  0  0  0  0  0  0  0  0  0
    3.4329    2.1050   -1.7989 H   0  0  0  0  0  0  0  0  0  0  0  0
    1.6841    0.3848   -2.3686 H   0  0  0  0  0  0  0  0  0  0  0  0
    0.6541    0.9790    0.5182 H   0  0  0  0  0  0  0  0  0  0  0  0
    4.2460    2.8829    1.8544 H   0  0  0  0  0  0  0  0  0  0  0  0
    4.9070    2.9137    0.1915 H   0  0  0  0  0  0  0  0  0  0  0  0
    3.6976    4.1332    0.7073 H   0  0  0  0  0  0  0  0  0  0  0  0
    0.0836   -1.1695    1.6698 H   0  0  0  0  0  0  0  0  0  0  0  0
    0.8788   -2.3816    0.6469 H   0  0  0  0  0  0  0  0  0  0  0  0
   -1.1246   -3.3181    1.8198 H   0  0  0  0  0  0  0  0  0  0  0  0
   -1.3529   -3.3815    0.0681 H   0  0  0  0  0  0  0  0  0  0  0  0
   -2.4924   -1.2479    1.9962 H   0  0  0  0  0  0  0  0  0  0  0  0
   -3.4108   -2.5534    1.2116 H   0  0  0  0  0  0  0  0  0  0  0  0
   -1.4398    0.5207    0.6084 H   0  0  0  0  0  0  0  0  0  0  0  0
    1.0542   -1.9024   -1.9293 H   0  0  0  0  0  0  0  0  0  0  0  0
   -0.6225   -2.4637   -1.8261 H   0  0  0  0  0  0  0  0  0  0  0  0
   -0.2607   -0.9326   -2.6583 H   0  0  0  0  0  0  0  0  0  0  0  0
   -4.2349   -2.2123   -1.1649 H   0  0  0  0  0  0  0  0  0  0  0  0
   -3.3324   -1.1513   -2.2724 H   0  0  0  0  0  0  0  0  0  0  0  0
   -2.5402   -2.5954   -1.5718 H   0  0  0  0  0  0  0  0  0  0  0  0
   -2.1148    0.4938   -2.3767 H   0  0  0  0  0  0  0  0  0  0  0  0
   -0.8307    1.5170   -1.7051 H   0  0  0  0  0  0  0  0  0  0  0  0
   -3.1641    2.6359   -1.8160 H   0  0  0  0  0  0  0  0  0  0  0  0
   -2.3253    2.7089   -0.2595 H   0  0  0  0  0  0  0  0  0  0  0  0
   -5.1574   -1.5051    1.1727 H   0  0  0  0  0  0  0  0  0  0  0  0
   -7.1269   -0.0703    1.6037 H   0  0  0  0  0  0  0  0  0  0  0  0
   -7.1288    2.3269    0.8216 H   0  0  0  0  0  0  0  0  0  0  0  0
   -5.1261    3.2258   -0.3743 H   0  0  0  0  0  0  0  0  0  0  0  0
  1  5  1  0  0  0  0
  1 22  1  0  0  0  0
  2  1  1  0  0  0  0
  3  2  1  0  0  0  0
  3  4  1  0  0  0  0
  4 25  1  0  0  0  0
  5 26  1  0  0  0  0
  6 11  1  0  0  0  0
  6  4  1  1  0  0  0
  6  7  1  0  0  0  0
  7  8  1  0  0  0  0
  7 29  1  0  0  0  0
  8  9  1  0  0  0  0
  8 31  1  0  0  0  0
  9 34  1  0  0  0  0
  9 33  1  0  0  0  0
 10 13  1  6  0  0  0
 10 17  1  0  0  0  0
 10  9  1  0  0  0  0
 11 10  1  0  0  0  0
 11 35  1  1  0  0  0
 12  6  1  0  0  0  0
 13 39  1  0  0  0  0
 14 15  1  0  0  0  0
 14 11  1  0  0  0  0
 15 16  1  0  0  0  0
 15 45  1  0  0  0  0
 16 21  2  0  0  0  0
 16 17  1  0  0  0  0
 17 18  2  0  0  0  0
 18 19  1  0  0  0  0
 18 46  1  0  0  0  0
 19 47  1  0  0  0  0
 20 48  1  0  0  0  0
 20 19  2  0  0  0  0
 21 20  1  0  0  0  0
 23  2  1  0  0  0  0
 24  3  1  0  0  0  0
 27  5  1  0  0  0  0
 28  5  1  0  0  0  0
 30  7  1  0  0  0  0
 32  8  1  0  0  0  0
 36 12  1  0  0  0  0
 37 12  1  0  0  0  0
 38 12  1  0  0  0  0
 40 13  1  0  0  0  0
 41 13  1  0  0  0  0
 42 14  1  0  0  0  0
 43 14  1  0  0  0  0
 44 15  1  0  0  0  0
 49 21  1  0  0  0  0
M  END
