6
q = -1.0, confidence = 0.0

 21 20  0  0  0  0  0  0  0  0999 V2000
   -0.8404   -0.8969   -2.7676 O   0  0  0  0  0  0  0  0  0  0  0  0
   -0.3244   -2.2693   -1.0278 O   0  0  0  0  0  0  0  0  0  0  0  0
   -3.5160   -2.2301    1.3181 O   0  0  0  0  0  0  0  0  0  0  0  0
   -3.1651   -2.1706   -0.9234 O   0  0  0  0  0  0  0  0  0  0  0  0
   -2.3895    0.3503    1.4868 O   0  0  0  0  0  0  0  0  0  0  0  0
   -1.1925   -0.1427   -0.4983 C   0  0  0  0  0  3  0  0  0  0  0  0
   -2.1933   -0.4427    0.3795 C   0  0  0  0  0  0  0  0  0  0  0  0
   -0.8301   -1.1007   -1.5641 C   0  0  0  0  0  0  0  0  0  0  0  0
   -3.0144   -1.6913    0.3415 C   0  0  0  0  0  0  0  0  0  0  0  0
    0.0330   -3.2708   -1.9785 C   0  0  0  0  0  0  0  0  0  0  0  0
   -0.8757   -3.7573   -2.3928 H   0  0  0  0  0  0  0  0  0  0  0  0
    0.6431   -4.0162   -1.4350 H   0  0  0  0  0  0  0  0  0  0  0  0
    0.6060   -2.8380   -2.8226 H   0  0  0  0  0  0  0  0  0  0  0  0
   -3.8185   -3.4354   -1.0222 C   0  0  0  0  0  0  0  0  0  0  0  0
   -3.2177   -4.2300   -0.5322 H   0  0  0  0  0  0  0  0  0  0  0  0
   -3.9207   -3.6439   -2.1024 H   0  0  0  0  0  0  0  0  0  0  0  0
   -4.8138   -3.4076   -0.5345 H   0  0  0  0  0  0  0  0  0  0  0  0
   -3.7295    0.6798    1.8468 C   0  0  0  0  0  0  0  0  0  0  0  0
   -4.2693    1.1403    0.9911 H   0  0  0  0  0  0  0  0  0  0  0  0
   -3.6560    1.4324    2.6548 H   0  0  0  0  0  0  0  0  0  0  0  0
   -4.2828   -0.2092    2.2117 H   0  0  0  0  0  0  0  0  0  0  0  0
  1  8  2  0  0  0  0
  4  9  1  0  0  0  0
  5 18  1  0  0  0  0
  6  7  2  0  0  0  0
  7  5  1  0  0  0  0
  8  2  1  0  0  0  0
  8  6  1  0  0  0  0
  9  7  1  0  0  0  0
  9  3  2  0  0  0  0
 10 12  1  0  0  0  0
 10  2  1  0  0  0  0
 11 10  1  0  0  0  0
 13 10  1  0  0  0  0
 14  4  1  0  0  0  0
 14 17  1  0  0  0  0
 14 15  1  0  0  0  0
 16 14  1  0  0  0  0
 18 21  1  0  0  0  0
 18 20  1  0  0  0  0
 19 18  1  0  0  0  0
M  END
