1
q = -1.0

  9  8  0  0  0  0  0  0  0  0999 V2000
    1.6975   -2.2815   -0.9019 C   0  0  0  0  0  3  0  0  0  0  0  0
    1.4230   -2.4057   -2.4093 C   0  0  0  0  0  0  0  0  0  0  0  0
    0.4321   -1.9724   -2.6508 H   0  0  0  0  0  0  0  0  0  0  0  0
    2.1813   -1.7516   -2.8970 H   0  0  0  0  0  0  0  0  0  0  0  0
    1.5460   -3.8473   -2.9055 C   0  0  0  0  0  0  0  0  0  0  0  0
    1.4364   -3.8968   -4.0072 H   0  0  0  0  0  0  0  0  0  0  0  0
    0.7586   -4.4697   -2.4381 H   0  0  0  0  0  0  0  0  0  0  0  0
    2.5303   -4.2698   -2.6249 H   0  0  0  0  0  0  0  0  0  0  0  0
    2.5948   -2.8932   -0.3634 O   0  0  0  0  0  0  0  0  0  0  0  0
  1  9  2  0  0  0  0
  2  1  1  0  0  0  0
  3  2  1  0  0  0  0
  4  2  1  0  0  0  0
  5  8  1  0  0  0  0
  5  7  1  0  0  0  0
  5  2  1  0  0  0  0
  6  5  1  0  0  0  0
M  END
