1
q = -1.0

 11 11  0  0  0  0  0  0  0  0999 V2000
    2.0868   -0.2924   -0.1673 C   0  0  0  0  0  0  0  0  0  0  0  0
    2.8256   -0.9095    0.8457 C   0  0  0  0  0  0  0  0  0  0  0  0
    4.2303   -0.9263    0.8425 C   0  0  0  0  0  0  0  0  0  0  0  0
    4.9165   -0.2975   -0.2117 C   0  0  0  0  0  0  0  0  0  0  0  0
    4.1991    0.3301   -1.2452 C   0  0  0  0  0  0  0  0  0  0  0  0
    2.7932    0.3247   -1.2033 C   0  0  0  0  0  0  0  0  0  0  0  0
    2.1935   -1.5205    1.8738 F   0  0  0  0  0  0  0  0  0  0  0  0
    4.9196   -1.5257    1.8214 F   0  0  0  0  0  0  0  0  0  0  0  0
    6.2524   -0.3041   -0.2351 F   0  0  0  0  0  0  0  0  0  0  0  0
    4.8594    0.9189   -2.2489 F   0  0  0  0  0  0  0  0  0  0  0  0
    2.1340    0.9309   -2.2109 F   0  0  0  0  0  0  0  0  0  0  0  0
  1  2  1  0  0  0  0
  2  7  1  0  0  0  0
  3  2  2  0  0  0  0
  3  8  1  0  0  0  0
  4  3  1  0  0  0  0
  5  6  1  0  0  0  0
  5  4  2  0  0  0  0
  6  1  2  0  0  0  0
  9  4  1  0  0  0  0
 10  5  1  0  0  0  0
 11  6  1  0  0  0  0
M  END
