1
q = -1.0

  7  6  0  0  0  0  0  0  0  0999 V2000
   -0.1663   -3.0393   -0.0623 C   0  0  0  0  0  3  0  0  0  0  0  0
    0.7863   -3.5245    0.2549 H   0  0  0  0  0  0  0  0  0  0  0  0
   -0.9198   -3.4248    0.6664 H   0  0  0  0  0  0  0  0  0  0  0  0
   -0.5094   -3.5202   -1.4740 C   0  0  0  0  0  0  0  0  0  0  0  0
   -1.4744   -3.1171   -1.8437 H   0  0  0  0  0  0  0  0  0  0  0  0
   -0.5850   -4.6309   -1.5460 H   0  0  0  0  0  0  0  0  0  0  0  0
    0.2561   -3.2114   -2.2170 H   0  0  0  0  0  0  0  0  0  0  0  0
  1  2  1  0  0  0  0
  1  3  1  0  0  0  0
  4  1  1  0  0  0  0
  5  4  1  0  0  0  0
  6  4  1  0  0  0  0
  7  4  1  0  0  0  0
M  END
