5
q = 0, confidence = 1.0

 49 48  0  0  0  0  0  0  0  0999 V2000
   -1.6394   -0.1041   -0.1532 P   0  0  0  0  0  4  0  0  0  0  0  0
   -2.7241   -1.2457   -0.8089 N   0  0  0  0  0  0  0  0  0  0  0  0
   -2.0348   -0.0764    1.4948 N   0  0  0  0  0  0  0  0  0  0  0  0
   -1.9384    1.4619   -0.6924 N   0  0  0  0  0  0  0  0  0  0  0  0
   -0.0278   -0.6746   -0.6360 C   0  0  0  0  0  3  0  0  0  0  0  0
   -0.0019   -0.6895   -1.7430 H   0  0  0  0  0  0  0  0  0  0  0  0
   -0.0392   -1.7275   -0.2981 H   0  0  0  0  0  0  0  0  0  0  0  0
   -1.2287    1.9288   -1.8942 C   0  0  0  0  0  0  0  0  0  0  0  0
   -0.1817    1.5737   -1.8506 H   0  0  0  0  0  0  0  0  0  0  0  0
   -1.1533    3.0328   -1.8243 H   0  0  0  0  0  0  0  0  0  0  0  0
   -1.8703    1.5164   -3.2192 C   0  0  0  0  0  0  0  0  0  0  0  0
   -1.9031    0.4127   -3.3237 H   0  0  0  0  0  0  0  0  0  0  0  0
   -1.2756    1.9144   -4.0656 H   0  0  0  0  0  0  0  0  0  0  0  0
   -2.9064    1.8988   -3.3281 H   0  0  0  0  0  0  0  0  0  0  0  0
   -3.1355    2.2120   -0.2964 C   0  0  0  0  0  0  0  0  0  0  0  0
   -3.6258    1.6567    0.5263 H   0  0  0  0  0  0  0  0  0  0  0  0
   -3.8697    2.2355   -1.1359 H   0  0  0  0  0  0  0  0  0  0  0  0
   -2.8470    3.6425    0.1616 C   0  0  0  0  0  0  0  0  0  0  0  0
   -2.1338    3.6608    1.0083 H   0  0  0  0  0  0  0  0  0  0  0  0
   -3.7887    4.1282    0.4874 H   0  0  0  0  0  0  0  0  0  0  0  0
   -2.4208    4.2634   -0.6508 H   0  0  0  0  0  0  0  0  0  0  0  0
   -4.1708   -1.0505   -0.6684 C   0  0  0  0  0  0  0  0  0  0  0  0
   -4.3439   -0.3456    0.1683 H   0  0  0  0  0  0  0  0  0  0  0  0
   -4.6281   -2.0125   -0.3424 H   0  0  0  0  0  0  0  0  0  0  0  0
   -4.8749   -0.5508   -1.9317 C   0  0  0  0  0  0  0  0  0  0  0  0
   -4.4803    0.4334   -2.2486 H   0  0  0  0  0  0  0  0  0  0  0  0
   -5.9638   -0.4471   -1.7500 H   0  0  0  0  0  0  0  0  0  0  0  0
   -4.7459   -1.2522   -2.7806 H   0  0  0  0  0  0  0  0  0  0  0  0
   -2.3170   -2.4197   -1.5949 C   0  0  0  0  0  0  0  0  0  0  0  0
   -1.3829   -2.1991   -2.1456 H   0  0  0  0  0  0  0  0  0  0  0  0
   -3.0900   -2.5754   -2.3771 H   0  0  0  0  0  0  0  0  0  0  0  0
   -2.1434   -3.7005   -0.7773 C   0  0  0  0  0  0  0  0  0  0  0  0
   -1.2705   -3.6305   -0.0971 H   0  0  0  0  0  0  0  0  0  0  0  0
   -1.9703   -4.5671   -1.4470 H   0  0  0  0  0  0  0  0  0  0  0  0
   -3.0426   -3.9186   -0.1654 H   0  0  0  0  0  0  0  0  0  0  0  0
   -2.1609   -1.3764    2.1856 C   0  0  0  0  0  0  0  0  0  0  0  0
   -1.8667   -2.1858    1.4908 H   0  0  0  0  0  0  0  0  0  0  0  0
   -1.3972   -1.3962    2.9918 H   0  0  0  0  0  0  0  0  0  0  0  0
   -3.5476   -1.6851    2.7517 C   0  0  0  0  0  0  0  0  0  0  0  0
   -3.8887   -0.9131    3.4673 H   0  0  0  0  0  0  0  0  0  0  0  0
   -3.5205   -2.6543    3.2908 H   0  0  0  0  0  0  0  0  0  0  0  0
   -4.3103   -1.7675    1.9545 H   0  0  0  0  0  0  0  0  0  0  0  0
   -1.5721    1.0426    2.3377 C   0  0  0  0  0  0  0  0  0  0  0  0
   -1.2213    1.8432    1.6635 H   0  0  0  0  0  0  0  0  0  0  0  0
   -0.6670    0.7133    2.8943 H   0  0  0  0  0  0  0  0  0  0  0  0
   -2.6229    1.5848    3.3045 C   0  0  0  0  0  0  0  0  0  0  0  0
   -3.5578    1.8734    2.7815 H   0  0  0  0  0  0  0  0  0  0  0  0
   -2.2249    2.4870    3.8119 H   0  0  0  0  0  0  0  0  0  0  0  0
   -2.8875    0.8565    4.0962 H   0  0  0  0  0  0  0  0  0  0  0  0
  1  3  1  0  0  0  0
  2 22  1  0  0  0  0
  2  1  1  0  0  0  0
  3 36  1  0  0  0  0
  3 43  1  0  0  0  0
  4 15  1  0  0  0  0
  4  1  1  0  0  0  0
  5  7  1  0  0  0  0
  5  1  1  0  0  0  0
  6  5  1  0  0  0  0
  8  9  1  0  0  0  0
  8 10  1  0  0  0  0
  8  4  1  0  0  0  0
 11  8  1  0  0  0  0
 12 11  1  0  0  0  0
 13 11  1  0  0  0  0
 14 11  1  0  0  0  0
 15 18  1  0  0  0  0
 15 16  1  0  0  0  0
 17 15  1  0  0  0  0
 18 20  1  0  0  0  0
 18 19  1  0  0  0  0
 21 18  1  0  0  0  0
 22 24  1  0  0  0  0
 22 23  1  0  0  0  0
 25 27  1  0  0  0  0
 25 22  1  0  0  0  0
 26 25  1  0  0  0  0
 28 25  1  0  0  0  0
 29  2  1  0  0  0  0
 29 32  1  0  0  0  0
 30 29  1  0  0  0  0
 31 29  1  0  0  0  0
 32 35  1  0  0  0  0
 32 33  1  0  0  0  0
 34 32  1  0  0  0  0
 36 39  1  0  0  0  0
 36 38  1  0  0  0  0
 37 36  1  0  0  0  0
 39 41  1  0  0  0  0
 39 40  1  0  0  0  0
 42 39  1  0  0  0  0
 43 45  1  0  0  0  0
 43 46  1  0  0  0  0
 44 43  1  0  0  0  0
 46 48  1  0  0  0  0
 46 49  1  0  0  0  0
 47 46  1  0  0  0  0
M  END
