4
q = 0.0, confidence = 0.988

 58 61  0  0  0  0  0  0  0  0999 V2000
    3.7599    0.9245   -0.2205 O   0  0  0  0  0  0  0  0  0  0  0  0
   -0.1631    0.0033    1.9925 N   0  0  0  0  0  0  0  0  0  0  0  0
    1.6392   -0.5705    0.9528 N   0  0  0  0  0  0  0  0  0  0  0  0
    0.2719   -0.5548    0.8326 C   0  0  0  0  0  2  0  0  0  0  0  0
    0.9009    0.3087    2.8521 C   0  0  0  0  0  0  0  0  0  0  0  0
    2.0547   -0.0613    2.1972 C   0  0  0  0  0  0  0  0  0  0  0  0
    0.7199    0.8958    4.2093 C   0  0  0  0  0  0  0  0  0  0  0  0
    3.4721   -0.0598    2.6545 C   0  0  0  0  0  0  0  0  0  0  0  0
   -1.5841    0.1512    2.3266 C   0  0  0  0  0  0  0  0  0  0  0  0
   -2.4289    0.7427    1.2158 C   0  0  0  0  0  0  0  0  0  0  0  0
   -3.6286    0.0912    0.8228 C   0  0  0  0  0  0  0  0  0  0  0  0
   -4.4063    0.6647   -0.2009 C   0  0  0  0  0  0  0  0  0  0  0  0
   -4.0332    1.8539   -0.8516 C   0  0  0  0  0  0  0  0  0  0  0  0
   -2.8603    2.4964   -0.4187 C   0  0  0  0  0  0  0  0  0  0  0  0
   -2.0601    1.9736    0.6131 C   0  0  0  0  0  0  0  0  0  0  0  0
   -4.0882   -1.1943    1.4668 C   0  0  0  0  0  0  0  0  0  0  0  0
   -4.8508    2.4065   -1.9920 C   0  0  0  0  0  0  0  0  0  0  0  0
   -0.8286    2.7333    1.0382 C   0  0  0  0  0  0  0  0  0  0  0  0
    2.4888   -1.1389   -0.0390 C   0  0  0  0  0  0  0  0  0  0  0  0
    3.5143   -0.3712   -0.6343 C   0  0  0  0  0  0  0  0  0  0  0  0
    4.3347   -0.9381   -1.6207 C   0  0  0  0  0  0  0  0  0  0  0  0
    4.1255   -2.2642   -2.0268 C   0  0  0  0  0  0  0  0  0  0  0  0
    3.0982   -3.0255   -1.4461 C   0  0  0  0  0  0  0  0  0  0  0  0
    2.2836   -2.4684   -0.4501 C   0  0  0  0  0  0  0  0  0  0  0  0
    2.9280    1.9453   -0.6340 C   0  0  0  0  0  0  0  0  0  0  0  0
    3.0817    3.1803    0.0222 C   0  0  0  0  0  0  0  0  0  0  0  0
    2.3099    4.2766   -0.3832 C   0  0  0  0  0  0  0  0  0  0  0  0
    1.3845    4.1495   -1.4333 C   0  0  0  0  0  0  0  0  0  0  0  0
    1.2336    2.9090   -2.0707 C   0  0  0  0  0  0  0  0  0  0  0  0
    1.9992    1.8002   -1.6775 C   0  0  0  0  0  0  0  0  0  0  0  0
    1.7016    1.0096    4.7057 H   0  0  0  0  0  0  0  0  0  0  0  0
    0.0863    0.2579    4.8602 H   0  0  0  0  0  0  0  0  0  0  0  0
    0.2516    1.9026    4.1717 H   0  0  0  0  0  0  0  0  0  0  0  0
    3.5239    0.1756    3.7339 H   0  0  0  0  0  0  0  0  0  0  0  0
    4.0895    0.6761    2.1021 H   0  0  0  0  0  0  0  0  0  0  0  0
    3.9368   -1.0560    2.5021 H   0  0  0  0  0  0  0  0  0  0  0  0
   -1.6378    0.7922    3.2298 H   0  0  0  0  0  0  0  0  0  0  0  0
   -1.9585   -0.8520    2.6045 H   0  0  0  0  0  0  0  0  0  0  0  0
   -5.3355    0.1545   -0.5034 H   0  0  0  0  0  0  0  0  0  0  0  0
   -2.5595    3.4469   -0.8896 H   0  0  0  0  0  0  0  0  0  0  0  0
   -5.0145   -1.5618    0.9855 H   0  0  0  0  0  0  0  0  0  0  0  0
   -4.3083   -1.0618    2.5472 H   0  0  0  0  0  0  0  0  0  0  0  0
   -3.3171   -1.9924    1.3802 H   0  0  0  0  0  0  0  0  0  0  0  0
   -5.9299    2.1885   -1.8659 H   0  0  0  0  0  0  0  0  0  0  0  0
   -4.5398    1.9545   -2.9593 H   0  0  0  0  0  0  0  0  0  0  0  0
   -4.7277    3.5031   -2.0913 H   0  0  0  0  0  0  0  0  0  0  0  0
   -0.8574    3.7729    0.6619 H   0  0  0  0  0  0  0  0  0  0  0  0
    0.0988    2.2702    0.6420 H   0  0  0  0  0  0  0  0  0  0  0  0
   -0.7219    2.7754    2.1414 H   0  0  0  0  0  0  0  0  0  0  0  0
    5.1253   -0.3148   -2.0620 H   0  0  0  0  0  0  0  0  0  0  0  0
    4.7700   -2.7028   -2.8033 H   0  0  0  0  0  0  0  0  0  0  0  0
    2.9316   -4.0659   -1.7613 H   0  0  0  0  0  0  0  0  0  0  0  0
    1.4755   -3.0450    0.0293 H   0  0  0  0  0  0  0  0  0  0  0  0
    3.8157    3.2631    0.8366 H   0  0  0  0  0  0  0  0  0  0  0  0
    2.4341    5.2424    0.1299 H   0  0  0  0  0  0  0  0  0  0  0  0
    0.7809    5.0129   -1.7494 H   0  0  0  0  0  0  0  0  0  0  0  0
    0.5091    2.7936   -2.8910 H   0  0  0  0  0  0  0  0  0  0  0  0
    1.8808    0.8289   -2.1751 H   0  0  0  0  0  0  0  0  0  0  0  0
  2  9  1  0  0  0  0
  2  5  1  0  0  0  0
  3  6  1  0  0  0  0
  4  3  1  0  0  0  0
  4  2  1  0  0  0  0
  5  7  1  0  0  0  0
  6  8  1  0  0  0  0
  6  5  2  0  0  0  0
  7 31  1  0  0  0  0
  7 32  1  0  0  0  0
  8 34  1  0  0  0  0
  9 38  1  0  0  0  0
  9 37  1  0  0  0  0
 10  9  1  0  0  0  0
 11 10  1  0  0  0  0
 11 16  1  0  0  0  0
 12 11  2  0  0  0  0
 13 14  2  0  0  0  0
 13 12  1  0  0  0  0
 14 15  1  0  0  0  0
 15 18  1  0  0  0  0
 15 10  2  0  0  0  0
 16 42  1  0  0  0  0
 17 44  1  0  0  0  0
 17 13  1  0  0  0  0
 18 49  1  0  0  0  0
 19  3  1  0  0  0  0
 20  1  1  0  0  0  0
 20 19  2  0  0  0  0
 21 20  1  0  0  0  0
 22 21  2  0  0  0  0
 22 23  1  0  0  0  0
 23 24  2  0  0  0  0
 24 19  1  0  0  0  0
 24 53  1  0  0  0  0
 25  1  1  0  0  0  0
 25 26  1  0  0  0  0
 26 54  1  0  0  0  0
 27 26  2  0  0  0  0
 27 55  1  0  0  0  0
 28 27  1  0  0  0  0
 29 30  1  0  0  0  0
 29 28  2  0  0  0  0
 30 25  2  0  0  0  0
 33  7  1  0  0  0  0
 35  8  1  0  0  0  0
 36  8  1  0  0  0  0
 39 12  1  0  0  0  0
 40 14  1  0  0  0  0
 41 16  1  0  0  0  0
 43 16  1  0  0  0  0
 45 17  1  0  0  0  0
 46 17  1  0  0  0  0
 47 18  1  0  0  0  0
 48 18  1  0  0  0  0
 50 21  1  0  0  0  0
 51 22  1  0  0  0  0
 52 23  1  0  0  0  0
 56 28  1  0  0  0  0
 57 29  1  0  0  0  0
 58 30  1  0  0  0  0
M  END
