2
q = -1.0

 18 17  0  0  1  0  0  0  0  0999 V2000
   -0.0912   -0.5832   -2.1667 C   0  0  0  0  0  3  0  0  0  0  0  0
   -1.0558   -1.5673   -1.6806 C   0  0  1  0  0  3  0  0  0  0  0  0
   -2.3205   -1.1303   -1.1828 C   0  0  0  0  0  0  0  0  0  0  0  0
   -2.8019    0.1974   -0.9302 C   0  0  0  0  0  0  0  0  0  0  0  0
   -2.0581    1.4170   -1.1265 C   0  0  0  0  0  3  0  0  0  0  0  0
   -0.8499   -3.0557   -1.8599 C   0  0  0  0  0  0  0  0  0  0  0  0
   -4.1825    0.2874   -0.3060 C   0  0  0  0  0  0  0  0  0  0  0  0
    0.8531   -1.0108   -2.5404 H   0  0  0  0  0  0  0  0  0  0  0  0
   -0.4746    0.1833   -2.8626 H   0  0  0  0  0  0  0  0  0  0  0  0
   -3.0011   -1.9359   -0.8584 H   0  0  0  0  0  0  0  0  0  0  0  0
   -2.5422    2.3322   -0.7471 H   0  0  0  0  0  0  0  0  0  0  0  0
   -1.4985    1.5789   -2.0544 H   0  0  0  0  0  0  0  0  0  0  0  0
   -1.4049   -3.6500   -1.1051 H   0  0  0  0  0  0  0  0  0  0  0  0
    0.2176   -3.3358   -1.7949 H   0  0  0  0  0  0  0  0  0  0  0  0
   -1.1988   -3.3799   -2.8680 H   0  0  0  0  0  0  0  0  0  0  0  0
   -4.9532    0.2529   -1.1074 H   0  0  0  0  0  0  0  0  0  0  0  0
   -4.3308    1.2455    0.2296 H   0  0  0  0  0  0  0  0  0  0  0  0
   -4.4021   -0.5429    0.3965 H   0  0  0  0  0  0  0  0  0  0  0  0
  2  1  1  6  0  0  0
  2  3  1  0  0  0  0
  3  4  2  0  0  0  0
  3 10  1  0  0  0  0
  4  7  1  0  0  0  0
  5  4  1  0  0  0  0
  5 11  1  0  0  0  0
  6 14  1  0  0  0  0
  6  2  1  0  0  0  0
  6 13  1  0  0  0  0
  7 17  1  0  0  0  0
  7 18  1  0  0  0  0
  8  1  1  0  0  0  0
  9  1  1  0  0  0  0
 12  5  1  0  0  0  0
 15  6  1  0  0  0  0
 16  7  1  0  0  0  0
M  END
