1
q = -1.0

 16 15  0  0  0  0  0  0  0  0999 V2000
   -1.9200    1.3168   -1.2677 C   0  0  0  0  0  3  0  0  0  0  0  0
   -1.4747    2.7541   -1.6104 C   0  0  0  0  0  0  0  0  0  0  0  0
   -0.0800    2.7587   -2.2587 C   0  0  0  0  0  0  0  0  0  0  0  0
   -1.4494    3.5709   -0.3037 C   0  0  0  0  0  0  0  0  0  0  0  0
   -2.4848    3.3952   -2.5857 C   0  0  0  0  0  0  0  0  0  0  0  0
   -3.0101    1.3085   -1.0479 H   0  0  0  0  0  0  0  0  0  0  0  0
   -1.8112    0.6564   -2.1999 H   0  0  0  0  0  0  0  0  0  0  0  0
    0.2615    3.7955   -2.4566 H   0  0  0  0  0  0  0  0  0  0  0  0
   -0.0939    2.2175   -3.2281 H   0  0  0  0  0  0  0  0  0  0  0  0
    0.6630    2.2571   -1.6094 H   0  0  0  0  0  0  0  0  0  0  0  0
   -2.4413    3.5580    0.1956 H   0  0  0  0  0  0  0  0  0  0  0  0
   -0.7045    3.1558    0.4034 H   0  0  0  0  0  0  0  0  0  0  0  0
   -1.1839    4.6307   -0.4995 H   0  0  0  0  0  0  0  0  0  0  0  0
   -3.5022    3.4301   -2.1429 H   0  0  0  0  0  0  0  0  0  0  0  0
   -2.1908    4.4347   -2.8434 H   0  0  0  0  0  0  0  0  0  0  0  0
   -2.5466    2.8173   -3.5310 H   0  0  0  0  0  0  0  0  0  0  0  0
  1  6  1  0  0  0  0
  2  1  1  0  0  0  0
  2  4  1  0  0  0  0
  3  2  1  0  0  0  0
  3 10  1  0  0  0  0
  4 11  1  0  0  0  0
  4 12  1  0  0  0  0
  5 14  1  0  0  0  0
  5  2  1  0  0  0  0
  7  1  1  0  0  0  0
  8  3  1  0  0  0  0
  9  3  1  0  0  0  0
 13  4  1  0  0  0  0
 15  5  1  0  0  0  0
 16  5  1  0  0  0  0
M  END
