2
q = -1.0

 57 60  0  0  0  0  0  0  0  0999 V2000
   -0.9812    0.4090    0.6051 B   0  0  0  0  0  0  0  0  0  0  0  0
    2.0083    1.3191   -0.3841 C   0  0  0  0  0  3  0  0  0  0  0  0
    3.3375    1.7157   -0.5434 C   0  0  0  0  0  0  0  0  0  0  0  0
    4.0756    1.0241   -0.9785 H   0  0  0  0  0  0  0  0  0  0  0  0
    3.7673    3.0155   -0.1732 C   0  0  0  0  0  0  0  0  0  0  0  0
    4.8219    3.3007   -0.3061 H   0  0  0  0  0  0  0  0  0  0  0  0
    2.8466    3.9229    0.3203 C   0  0  0  0  0  0  0  0  0  0  0  0
    3.1511    4.9499    0.5757 H   0  0  0  0  0  0  0  0  0  0  0  0
    0.5454    4.5150    0.9863 C   0  0  0  0  0  0  0  0  0  0  0  0
    0.9070    5.5301    1.2144 H   0  0  0  0  0  0  0  0  0  0  0  0
   -0.7889    4.1866    1.1398 C   0  0  0  0  0  0  0  0  0  0  0  0
   -1.5150    4.9383    1.4846 H   0  0  0  0  0  0  0  0  0  0  0  0
   -1.2179    2.8646    0.8661 C   0  0  0  0  0  0  0  0  0  0  0  0
   -2.2773    2.6096    1.0216 H   0  0  0  0  0  0  0  0  0  0  0  0
   -0.3374    1.8478    0.4590 C   0  0  0  0  0  0  0  0  0  0  0  0
    1.0399    2.2081    0.1907 C   0  0  0  0  0  0  0  0  0  0  0  0
    1.4826    3.5538    0.5025 C   0  0  0  0  0  0  0  0  0  0  0  0
   -0.2458   -0.7903    1.3222 C   0  0  0  0  0  0  0  0  0  0  0  0
   -0.5020   -2.1514    0.9192 C   0  0  0  0  0  0  0  0  0  0  0  0
    0.2603   -3.1977    1.4650 C   0  0  0  0  0  0  0  0  0  0  0  0
    0.0790   -4.2229    1.1049 H   0  0  0  0  0  0  0  0  0  0  0  0
    1.2391   -2.9828    2.4502 C   0  0  0  0  0  0  0  0  0  0  0  0
    1.4146   -1.6695    2.9149 C   0  0  0  0  0  0  0  0  0  0  0  0
    2.1311   -1.4836    3.7321 H   0  0  0  0  0  0  0  0  0  0  0  0
    0.7052   -0.5805    2.3786 C   0  0  0  0  0  0  0  0  0  0  0  0
   -1.5612   -2.5438   -0.0855 C   0  0  0  0  0  0  0  0  0  0  0  0
   -1.4457   -3.6077   -0.3642 H   0  0  0  0  0  0  0  0  0  0  0  0
   -1.5137   -1.9575   -1.0201 H   0  0  0  0  0  0  0  0  0  0  0  0
   -2.5795   -2.3990    0.3276 H   0  0  0  0  0  0  0  0  0  0  0  0
    2.0604   -4.1253    2.9862 C   0  0  0  0  0  0  0  0  0  0  0  0
    2.5862   -3.8519    3.9215 H   0  0  0  0  0  0  0  0  0  0  0  0
    2.8303   -4.4347    2.2471 H   0  0  0  0  0  0  0  0  0  0  0  0
    1.4338   -5.0183    3.1848 H   0  0  0  0  0  0  0  0  0  0  0  0
    0.9707    0.7667    3.0136 C   0  0  0  0  0  0  0  0  0  0  0  0
    1.2670    0.6344    4.0728 H   0  0  0  0  0  0  0  0  0  0  0  0
    0.0962    1.4411    2.9816 H   0  0  0  0  0  0  0  0  0  0  0  0
    1.8023    1.2981    2.5070 H   0  0  0  0  0  0  0  0  0  0  0  0
   -2.4832    0.2885    0.1324 C   0  0  0  0  0  0  0  0  0  0  0  0
   -3.5083    0.0329    1.0900 C   0  0  0  0  0  0  0  0  0  0  0  0
   -4.8498   -0.0226    0.6775 C   0  0  0  0  0  0  0  0  0  0  0  0
   -5.6325   -0.2035    1.4333 H   0  0  0  0  0  0  0  0  0  0  0  0
   -5.2228    0.1462   -0.6702 C   0  0  0  0  0  0  0  0  0  0  0  0
   -4.2048    0.3928   -1.6056 C   0  0  0  0  0  0  0  0  0  0  0  0
   -4.4719    0.5264   -2.6670 H   0  0  0  0  0  0  0  0  0  0  0  0
   -2.8513    0.4784   -1.2279 C   0  0  0  0  0  0  0  0  0  0  0  0
   -3.1768   -0.1695    2.5518 C   0  0  0  0  0  0  0  0  0  0  0  0
   -2.6145   -1.1122    2.7132 H   0  0  0  0  0  0  0  0  0  0  0  0
   -4.0941   -0.2087    3.1705 H   0  0  0  0  0  0  0  0  0  0  0  0
   -2.5351    0.6441    2.9496 H   0  0  0  0  0  0  0  0  0  0  0  0
   -6.6720    0.0802   -1.0815 C   0  0  0  0  0  0  0  0  0  0  0  0
   -7.1512   -0.8555   -0.7258 H   0  0  0  0  0  0  0  0  0  0  0  0
   -6.7880    0.1269   -2.1815 H   0  0  0  0  0  0  0  0  0  0  0  0
   -7.2523    0.9208   -0.6450 H   0  0  0  0  0  0  0  0  0  0  0  0
   -1.8056    0.6963   -2.2960 C   0  0  0  0  0  0  0  0  0  0  0  0
   -1.2672   -0.2489   -2.5322 H   0  0  0  0  0  0  0  0  0  0  0  0
   -1.0427    1.4357   -1.9781 H   0  0  0  0  0  0  0  0  0  0  0  0
   -2.2568    1.0523   -3.2423 H   0  0  0  0  0  0  0  0  0  0  0  0
  1 18  1  0  0  0  0
  2 16  1  0  0  0  0
  3  2  2  0  0  0  0
  3  5  1  0  0  0  0
  4  3  1  0  0  0  0
  5  7  2  0  0  0  0
  6  5  1  0  0  0  0
  7 17  1  0  0  0  0
  7  8  1  0  0  0  0
  9 11  1  0  0  0  0
  9 10  1  0  0  0  0
 11 12  1  0  0  0  0
 13 14  1  0  0  0  0
 13 11  2  0  0  0  0
 15  1  1  0  0  0  0
 15 13  1  0  0  0  0
 16 15  2  0  0  0  0
 16 17  1  0  0  0  0
 17  9  2  0  0  0  0
 18 25  1  0  0  0  0
 19 18  2  0  0  0  0
 19 20  1  0  0  0  0
 20 22  2  0  0  0  0
 21 20  1  0  0  0  0
 22 23  1  0  0  0  0
 22 30  1  0  0  0  0
 23 24  1  0  0  0  0
 25 23  2  0  0  0  0
 25 34  1  0  0  0  0
 26 29  1  0  0  0  0
 26 19  1  0  0  0  0
 27 26  1  0  0  0  0
 28 26  1  0  0  0  0
 30 33  1  0  0  0  0
 30 31  1  0  0  0  0
 32 30  1  0  0  0  0
 34 35  1  0  0  0  0
 36 34  1  0  0  0  0
 37 34  1  0  0  0  0
 38  1  1  0  0  0  0
 38 39  1  0  0  0  0
 39 46  1  0  0  0  0
 40 39  2  0  0  0  0
 40 41  1  0  0  0  0
 42 40  1  0  0  0  0
 43 45  1  0  0  0  0
 43 42  2  0  0  0  0
 44 43  1  0  0  0  0
 45 38  2  0  0  0  0
 46 47  1  0  0  0  0
 46 49  1  0  0  0  0
 46 48  1  0  0  0  0
 50 51  1  0  0  0  0
 50 42  1  0  0  0  0
 50 53  1  0  0  0  0
 52 50  1  0  0  0  0
 54 56  1  0  0  0  0
 54 45  1  0  0  0  0
 55 54  1  0  0  0  0
 57 54  1  0  0  0  0
M  END
