4
q = 0.0, confidence = 0.996

 66 69  0  0  0  0  0  0  0  0999 V2000
    0.0315   -1.1633   -0.5546 N   0  0  0  0  0  0  0  0  0  0  0  0
   -1.8201   -1.2662    0.5436 N   0  0  0  0  0  0  0  0  0  0  0  0
    2.7215   -0.0631    0.5167 N   0  0  0  0  0  0  0  0  0  0  0  0
   -1.0447   -0.4055   -0.1775 C   0  0  0  0  0  2  0  0  0  0  0  0
   -0.0740   -2.4675   -0.0857 C   0  0  0  0  0  0  0  0  0  0  0  0
    0.6970   -3.2229   -0.2665 H   0  0  0  0  0  0  0  0  0  0  0  0
   -1.2560   -2.5335    0.6058 C   0  0  0  0  0  0  0  0  0  0  0  0
   -1.7335   -3.3650    1.1321 H   0  0  0  0  0  0  0  0  0  0  0  0
   -3.1093   -0.8971    1.1375 C   0  0  0  0  0  0  0  0  0  0  0  0
   -3.1044    0.2091    1.2028 H   0  0  0  0  0  0  0  0  0  0  0  0
   -3.1389   -1.3006    2.1693 H   0  0  0  0  0  0  0  0  0  0  0  0
   -4.2882   -1.3957    0.3298 C   0  0  0  0  0  0  0  0  0  0  0  0
   -4.6043   -0.7894   -0.9029 C   0  0  0  0  0  0  0  0  0  0  0  0
   -4.0018    0.0630   -1.2590 H   0  0  0  0  0  0  0  0  0  0  0  0
   -5.6775   -1.2641   -1.6688 C   0  0  0  0  0  0  0  0  0  0  0  0
   -5.9192   -0.7799   -2.6269 H   0  0  0  0  0  0  0  0  0  0  0  0
   -6.4468   -2.3477   -1.2117 C   0  0  0  0  0  0  0  0  0  0  0  0
   -7.2914   -2.7170   -1.8132 H   0  0  0  0  0  0  0  0  0  0  0  0
   -6.1405   -2.9536    0.0160 C   0  0  0  0  0  0  0  0  0  0  0  0
   -6.7435   -3.7986    0.3816 H   0  0  0  0  0  0  0  0  0  0  0  0
   -5.0642   -2.4786    0.7823 C   0  0  0  0  0  0  0  0  0  0  0  0
   -4.8285   -2.9504    1.7502 H   0  0  0  0  0  0  0  0  0  0  0  0
    1.1571   -0.6378   -1.3169 C   0  0  0  0  0  0  0  0  0  0  0  0
    0.9228    0.4292   -1.5053 H   0  0  0  0  0  0  0  0  0  0  0  0
    1.2045   -1.1414   -2.2995 H   0  0  0  0  0  0  0  0  0  0  0  0
    2.4879   -0.7336   -0.5599 C   0  0  0  0  0  0  0  0  0  0  0  0
    3.5557   -1.6306   -1.0821 C   0  0  0  0  0  0  0  0  0  0  0  0
    3.3091   -2.6224   -2.0583 C   0  0  0  0  0  0  0  0  0  0  0  0
    2.3029   -2.7554   -2.4822 H   0  0  0  0  0  0  0  0  0  0  0  0
    4.3381   -3.4695   -2.4968 C   0  0  0  0  0  0  0  0  0  0  0  0
    4.1244   -4.2393   -3.2534 H   0  0  0  0  0  0  0  0  0  0  0  0
    5.6327   -3.3331   -1.9759 C   0  0  0  0  0  0  0  0  0  0  0  0
    6.4415   -3.9922   -2.3262 H   0  0  0  0  0  0  0  0  0  0  0  0
    5.8924   -2.3480   -1.0057 C   0  0  0  0  0  0  0  0  0  0  0  0
    6.9071   -2.2338   -0.5953 H   0  0  0  0  0  0  0  0  0  0  0  0
    4.8664   -1.5100   -0.5616 C   0  0  0  0  0  0  0  0  0  0  0  0
    5.0489   -0.7380    0.1995 H   0  0  0  0  0  0  0  0  0  0  0  0
    1.7970    0.8218    1.1026 C   0  0  0  0  0  0  0  0  0  0  0  0
    1.6386    2.1423    0.5910 C   0  0  0  0  0  0  0  0  0  0  0  0
    2.5014    2.6334   -0.5689 C   0  0  0  0  0  0  0  0  0  0  0  0
    2.5112    1.8390   -1.3483 H   0  0  0  0  0  0  0  0  0  0  0  0
    3.9595    2.8114   -0.1005 C   0  0  0  0  0  0  0  0  0  0  0  0
    4.0196    3.6048    0.6726 H   0  0  0  0  0  0  0  0  0  0  0  0
    4.6121    3.1069   -0.9476 H   0  0  0  0  0  0  0  0  0  0  0  0
    4.3616    1.8767    0.3388 H   0  0  0  0  0  0  0  0  0  0  0  0
    1.9796    3.9101   -1.2379 C   0  0  0  0  0  0  0  0  0  0  0  0
    0.9132    3.8284   -1.5327 H   0  0  0  0  0  0  0  0  0  0  0  0
    2.5795    4.1338   -2.1429 H   0  0  0  0  0  0  0  0  0  0  0  0
    2.0752    4.7854   -0.5622 H   0  0  0  0  0  0  0  0  0  0  0  0
    0.7107    2.9869    1.2304 C   0  0  0  0  0  0  0  0  0  0  0  0
    0.5325    3.9926    0.8282 H   0  0  0  0  0  0  0  0  0  0  0  0
   -0.0174    2.5585    2.3475 C   0  0  0  0  0  0  0  0  0  0  0  0
   -0.7507    3.2329    2.8134 H   0  0  0  0  0  0  0  0  0  0  0  0
    0.1920    1.2742    2.8665 C   0  0  0  0  0  0  0  0  0  0  0  0
   -0.3694    0.9533    3.7557 H   0  0  0  0  0  0  0  0  0  0  0  0
    1.1035    0.3879    2.2691 C   0  0  0  0  0  0  0  0  0  0  0  0
    1.3928   -0.9935    2.8470 C   0  0  0  0  0  0  0  0  0  0  0  0
    1.4708   -1.6980    1.9908 H   0  0  0  0  0  0  0  0  0  0  0  0
    2.7589   -0.9965    3.5611 C   0  0  0  0  0  0  0  0  0  0  0  0
    3.5622   -0.6694    2.8731 H   0  0  0  0  0  0  0  0  0  0  0  0
    3.0107   -2.0120    3.9311 H   0  0  0  0  0  0  0  0  0  0  0  0
    2.7429   -0.3070    4.4301 H   0  0  0  0  0  0  0  0  0  0  0  0
    0.2943   -1.5273    3.7714 C   0  0  0  0  0  0  0  0  0  0  0  0
    0.2219   -0.9384    4.7091 H   0  0  0  0  0  0  0  0  0  0  0  0
    0.5129   -2.5747    4.0621 H   0  0  0  0  0  0  0  0  0  0  0  0
   -0.7006   -1.5077    3.2825 H   0  0  0  0  0  0  0  0  0  0  0  0
  1  4  1  0  0  0  0
  1  5  1  0  0  0  0
  2  7  1  0  0  0  0
  2  9  1  0  0  0  0
  3 38  1  0  0  0  0
  4  2  1  0  0  0  0
  5  7  2  0  0  0  0
  6  5  1  0  0  0  0
  7  8  1  0  0  0  0
  9 10  1  0  0  0  0
  9 11  1  0  0  0  0
 12 21  1  0  0  0  0
 12  9  1  0  0  0  0
 13 12  2  0  0  0  0
 14 13  1  0  0  0  0
 15 17  2  0  0  0  0
 15 13  1  0  0  0  0
 16 15  1  0  0  0  0
 17 19  1  0  0  0  0
 18 17  1  0  0  0  0
 19 20  1  0  0  0  0
 19 21  2  0  0  0  0
 21 22  1  0  0  0  0
 23 26  1  0  0  0  0
 23  1  1  0  0  0  0
 24 23  1  0  0  0  0
 25 23  1  0  0  0  0
 26  3  2  0  0  0  0
 27 36  1  0  0  0  0
 27 26  1  0  0  0  0
 28 27  2  0  0  0  0
 29 28  1  0  0  0  0
 30 28  1  0  0  0  0
 30 32  2  0  0  0  0
 31 30  1  0  0  0  0
 32 34  1  0  0  0  0
 33 32  1  0  0  0  0
 34 35  1  0  0  0  0
 34 36  2  0  0  0  0
 36 37  1  0  0  0  0
 38 56  1  0  0  0  0
 39 38  2  0  0  0  0
 39 50  1  0  0  0  0
 40 42  1  0  0  0  0
 40 39  1  0  0  0  0
 41 40  1  0  0  0  0
 42 45  1  0  0  0  0
 42 43  1  0  0  0  0
 44 42  1  0  0  0  0
 46 40  1  0  0  0  0
 46 49  1  0  0  0  0
 47 46  1  0  0  0  0
 48 46  1  0  0  0  0
 50 52  2  0  0  0  0
 51 50  1  0  0  0  0
 52 53  1  0  0  0  0
 52 54  1  0  0  0  0
 54 55  1  0  0  0  0
 56 57  1  0  0  0  0
 56 54  2  0  0  0  0
 57 59  1  0  0  0  0
 57 63  1  0  0  0  0
 58 57  1  0  0  0  0
 59 61  1  0  0  0  0
 59 62  1  0  0  0  0
 60 59  1  0  0  0  0
 63 65  1  0  0  0  0
 63 64  1  0  0  0  0
 66 63  1  0  0  0  0
M  END
