6
q = -1.0

 40 43  0  0  0  0  0  0  0  0999 V2000
   -0.6583    0.8551   -0.7014 C   0  0  0  0  0  0  0  0  0  0  0  0
   -0.6438   -0.5786   -0.9498 C   0  0  0  0  0  0  0  0  0  0  0  0
    0.7234   -0.9702   -1.1480 C   0  0  0  0  0  0  0  0  0  0  0  0
    1.0389   -1.9832   -1.4214 H   0  0  0  0  0  0  0  0  0  0  0  0
    1.5685    0.1839   -1.0534 C   0  0  0  0  0  0  0  0  0  0  0  0
    0.7119    1.2978   -0.7361 C   0  0  0  0  0  3  0  0  0  0  0  0
    1.0371    2.3316   -0.5730 H   0  0  0  0  0  0  0  0  0  0  0  0
   -1.8293    1.7494   -0.5486 C   0  0  0  0  0  0  0  0  0  0  0  0
   -1.7811    3.0464   -1.1066 C   0  0  0  0  0  0  0  0  0  0  0  0
   -0.8814    3.3663   -1.6533 H   0  0  0  0  0  0  0  0  0  0  0  0
   -2.8721    3.9203   -0.9927 C   0  0  0  0  0  0  0  0  0  0  0  0
   -2.8124    4.9264   -1.4348 H   0  0  0  0  0  0  0  0  0  0  0  0
   -4.0359    3.5109   -0.3255 C   0  0  0  0  0  0  0  0  0  0  0  0
   -4.8930    4.1950   -0.2348 H   0  0  0  0  0  0  0  0  0  0  0  0
   -4.0979    2.2211    0.2285 C   0  0  0  0  0  0  0  0  0  0  0  0
   -5.0030    1.8916    0.7607 H   0  0  0  0  0  0  0  0  0  0  0  0
   -3.0078    1.3496    0.1212 C   0  0  0  0  0  0  0  0  0  0  0  0
   -3.0654    0.3517    0.5758 H   0  0  0  0  0  0  0  0  0  0  0  0
   -1.8033   -1.4774   -1.1681 C   0  0  0  0  0  0  0  0  0  0  0  0
   -2.8490   -1.0795   -2.0290 C   0  0  0  0  0  0  0  0  0  0  0  0
   -2.8115   -0.0881   -2.5030 H   0  0  0  0  0  0  0  0  0  0  0  0
   -3.9255   -1.9403   -2.2855 C   0  0  0  0  0  0  0  0  0  0  0  0
   -4.7338   -1.6144   -2.9575 H   0  0  0  0  0  0  0  0  0  0  0  0
   -3.9719   -3.2117   -1.6924 C   0  0  0  0  0  0  0  0  0  0  0  0
   -4.8198   -3.8844   -1.8911 H   0  0  0  0  0  0  0  0  0  0  0  0
   -2.9315   -3.6196   -0.8420 C   0  0  0  0  0  0  0  0  0  0  0  0
   -2.9619   -4.6123   -0.3681 H   0  0  0  0  0  0  0  0  0  0  0  0
   -1.8573   -2.7590   -0.5799 C   0  0  0  0  0  0  0  0  0  0  0  0
   -1.0554   -3.0678    0.1080 H   0  0  0  0  0  0  0  0  0  0  0  0
    3.0231    0.2230   -1.2783 C   0  0  0  0  0  0  0  0  0  0  0  0
    3.7906   -0.9642   -1.2841 C   0  0  0  0  0  0  0  0  0  0  0  0
    3.3012   -1.9300   -1.0892 H   0  0  0  0  0  0  0  0  0  0  0  0
    5.1718   -0.9249   -1.5088 C   0  0  0  0  0  0  0  0  0  0  0  0
    5.7505   -1.8609   -1.5052 H   0  0  0  0  0  0  0  0  0  0  0  0
    5.8187    0.3025   -1.7278 C   0  0  0  0  0  0  0  0  0  0  0  0
    6.9047    0.3334   -1.9018 H   0  0  0  0  0  0  0  0  0  0  0  0
    5.0697    1.4894   -1.7194 C   0  0  0  0  0  0  0  0  0  0  0  0
    5.5660    2.4564   -1.8914 H   0  0  0  0  0  0  0  0  0  0  0  0
    3.6866    1.4503   -1.4975 C   0  0  0  0  0  0  0  0  0  0  0  0
    3.1104    2.3868   -1.5101 H   0  0  0  0  0  0  0  0  0  0  0  0
  1  8  1  0  0  0  0
  2  1  2  0  0  0  0
  3  5  2  0  0  0  0
  3  2  1  0  0  0  0
  4  3  1  0  0  0  0
  5  6  1  0  0  0  0
  6  1  1  0  0  0  0
  6  7  1  0  0  0  0
  8 17  1  0  0  0  0
  9 11  1  0  0  0  0
  9  8  2  0  0  0  0
 10  9  1  0  0  0  0
 11 13  2  0  0  0  0
 12 11  1  0  0  0  0
 13 14  1  0  0  0  0
 13 15  1  0  0  0  0
 15 16  1  0  0  0  0
 17 15  2  0  0  0  0
 17 18  1  0  0  0  0
 19  2  1  0  0  0  0
 19 28  1  0  0  0  0
 20 19  2  0  0  0  0
 21 20  1  0  0  0  0
 22 20  1  0  0  0  0
 22 24  2  0  0  0  0
 23 22  1  0  0  0  0
 24 26  1  0  0  0  0
 25 24  1  0  0  0  0
 26 28  2  0  0  0  0
 26 27  1  0  0  0  0
 28 29  1  0  0  0  0
 30  5  1  0  0  0  0
 31 30  1  0  0  0  0
 31 32  1  0  0  0  0
 33 34  1  0  0  0  0
 33 31  2  0  0  0  0
 35 37  2  0  0  0  0
 35 33  1  0  0  0  0
 36 35  1  0  0  0  0
 37 39  1  0  0  0  0
 38 37  1  0  0  0  0
 39 30  2  0  0  0  0
 40 39  1  0  0  0  0
M  END
