1
q = -1.0, confidence = 0.0

 14 14  0  0  0  0  0  0  0  0999 V2000
    1.4202   -1.2058   -0.2551 C   0  0  0  0  0  3  0  0  0  0  0  0
    2.2597   -1.1269   -1.3805 C   0  0  0  0  0  0  0  0  0  0  0  0
    2.1403   -0.3071   -2.1070 H   0  0  0  0  0  0  0  0  0  0  0  0
    1.5962   -2.2762    0.6437 C   0  0  0  0  0  0  0  0  0  0  0  0
    0.9498   -2.3643    1.5286 H   0  0  0  0  0  0  0  0  0  0  0  0
    2.5885   -3.2397    0.4138 C   0  0  0  0  0  0  0  0  0  0  0  0
    2.7048   -4.0708    1.1289 H   0  0  0  0  0  0  0  0  0  0  0  0
    3.4380   -3.1697   -0.7100 C   0  0  0  0  0  0  0  0  0  0  0  0
    3.2537   -2.0964   -1.6010 C   0  0  0  0  0  0  0  0  0  0  0  0
    3.8981   -2.0151   -2.4917 H   0  0  0  0  0  0  0  0  0  0  0  0
    4.5027   -4.2138   -0.9406 C   0  0  0  0  0  0  0  0  0  0  0  0
    5.0624   -4.0260   -1.8777 H   0  0  0  0  0  0  0  0  0  0  0  0
    4.0655   -5.2323   -1.0063 H   0  0  0  0  0  0  0  0  0  0  0  0
    5.2371   -4.2355   -0.1078 H   0  0  0  0  0  0  0  0  0  0  0  0
  1  4  1  0  0  0  0
  2  1  2  0  0  0  0
  3  2  1  0  0  0  0
  4  5  1  0  0  0  0
  6  4  2  0  0  0  0
  6  7  1  0  0  0  0
  8  6  1  0  0  0  0
  9  2  1  0  0  0  0
  9  8  2  0  0  0  0
 10  9  1  0  0  0  0
 11  8  1  0  0  0  0
 11 14  1  0  0  0  0
 12 11  1  0  0  0  0
 13 11  1  0  0  0  0
M  END
