3
q = -1.0

 30 32  0  0  1  0  0  0  0  0999 V2000
   -2.3615    0.0132   -0.5758 O   0  0  0  0  0  0  0  0  0  0  0  0
   -1.1104    2.4403   -0.7775 C   0  0  2  0  0  3  0  0  0  0  0  0
   -0.4208    2.0729   -1.9696 C   0  0  0  0  0  3  0  0  0  0  0  0
   -0.9098    1.7777   -2.9081 H   0  0  0  0  0  0  0  0  0  0  0  0
    0.9804    2.0928   -1.7474 C   0  0  0  0  0  3  0  0  0  0  0  0
    1.7543    1.8833   -2.4945 H   0  0  0  0  0  0  0  0  0  0  0  0
    1.1976    2.5375   -0.4004 C   0  0  0  0  0  0  0  0  0  0  0  0
    2.3769    2.8033    0.3531 C   0  0  0  0  0  0  0  0  0  0  0  0
    3.3666    2.6522   -0.1059 H   0  0  0  0  0  0  0  0  0  0  0  0
    2.2626    3.2944    1.6489 C   0  0  0  0  0  0  0  0  0  0  0  0
    3.1695    3.5222    2.2297 H   0  0  0  0  0  0  0  0  0  0  0  0
    0.9827    3.5249    2.2381 C   0  0  0  0  0  0  0  0  0  0  0  0
    0.9276    3.9245    3.2620 H   0  0  0  0  0  0  0  0  0  0  0  0
   -0.1882    3.2583    1.5388 C   0  0  0  0  0  0  0  0  0  0  0  0
   -1.1692    3.4505    2.0014 H   0  0  0  0  0  0  0  0  0  0  0  0
   -0.1101    2.7589    0.2074 C   0  0  0  0  0  0  0  0  0  0  0  0
   -2.6014    2.4281   -0.6010 C   0  0  0  0  0  0  0  0  0  0  0  0
   -2.9429    3.2734    0.0340 H   0  0  0  0  0  0  0  0  0  0  0  0
   -3.0894    2.5502   -1.5905 H   0  0  0  0  0  0  0  0  0  0  0  0
   -3.0922    1.1142    0.0379 C   0  0  1  0  0  0  0  0  0  0  0  0
   -2.8314    1.1104    1.1172 H   0  0  0  0  0  0  0  0  0  0  0  0
   -4.5716    0.7829   -0.1981 C   0  0  0  0  0  0  0  0  0  0  0  0
   -4.9701    0.1830    0.6452 H   0  0  0  0  0  0  0  0  0  0  0  0
   -5.1898    1.6976   -0.2885 H   0  0  0  0  0  0  0  0  0  0  0  0
   -4.5294   -0.0645   -1.4785 C   0  0  0  0  0  0  0  0  0  0  0  0
   -4.4315    0.5815   -2.3755 H   0  0  0  0  0  0  0  0  0  0  0  0
   -5.4283   -0.6967   -1.6124 H   0  0  0  0  0  0  0  0  0  0  0  0
   -3.2644   -0.8877   -1.2706 C   0  0  0  0  0  0  0  0  0  0  0  0
   -3.4397   -1.7725   -0.6227 H   0  0  0  0  0  0  0  0  0  0  0  0
   -2.7502   -1.2164   -2.1925 H   0  0  0  0  0  0  0  0  0  0  0  0
  1 20  1  0  0  0  0
  2 17  1  1  0  0  0
  2 16  1  0  0  0  0
  3  5  1  0  0  0  0
  3  2  1  0  0  0  0
  4  3  1  0  0  0  0
  5  7  1  0  0  0  0
  6  5  1  0  0  0  0
  7 16  2  0  0  0  0
  7  8  1  0  0  0  0
  8 10  2  0  0  0  0
  9  8  1  0  0  0  0
 10 11  1  0  0  0  0
 10 12  1  0  0  0  0
 12 13  1  0  0  0  0
 14 15  1  0  0  0  0
 14 12  2  0  0  0  0
 16 14  1  0  0  0  0
 17 18  1  0  0  0  0
 17 20  1  0  0  0  0
 19 17  1  0  0  0  0
 20 21  1  1  0  0  0
 22 20  1  0  0  0  0
 22 23  1  0  0  0  0
 24 22  1  0  0  0  0
 25 28  1  0  0  0  0
 25 22  1  0  0  0  0
 26 25  1  0  0  0  0
 27 25  1  0  0  0  0
 28 29  1  0  0  0  0
 28  1  1  0  0  0  0
 30 28  1  0  0  0  0
M  END
