1
q = 0.0, confidence = 0.874

 25 27  0  0  1  0  0  0  0  0999 V2000
    1.6685   -0.0098   -0.7322 C   0  0  0  0  0  3  0  0  0  0  0  0
    1.9796   -1.4206   -0.5747 C   0  0  0  0  0  0  0  0  0  0  0  0
    1.1998   -2.3192   -1.3721 C   0  0  0  0  0  0  0  0  0  0  0  0
    1.2590   -3.6996   -1.2325 C   0  0  0  0  0  0  0  0  0  0  0  0
    2.1157   -4.2680   -0.2661 C   0  0  0  0  0  0  0  0  0  0  0  0
    2.9288   -3.4363    0.4929 C   0  0  0  0  0  0  0  0  0  0  0  0
    2.9192   -2.0183    0.3471 C   0  0  0  0  0  0  0  0  0  0  0  0
    3.8729   -1.3193    1.1614 C   0  0  0  0  0  0  0  0  0  0  0  0
    4.1830    0.0122    1.2309 C   0  0  0  0  0  0  0  0  0  0  0  0
    3.6031    1.1486    0.5711 C   0  0  0  0  0  0  0  0  0  0  0  0
    4.2112    2.3977    0.8897 C   0  0  0  0  0  0  0  0  0  0  0  0
    3.7491    3.6042    0.3787 C   0  0  0  0  0  0  0  0  0  0  0  0
    2.6356    3.6052   -0.4871 C   0  0  0  0  0  0  0  0  0  0  0  0
    2.0147    2.4064   -0.8114 C   0  0  0  0  0  0  0  0  0  0  0  0
    2.4523    1.1374   -0.3089 C   0  0  2  0  0  3  0  0  0  0  0  0
    0.5529   -1.8696   -2.1409 H   0  0  0  0  0  0  0  0  0  0  0  0
    0.6398   -4.3404   -1.8775 H   0  0  0  0  0  0  0  0  0  0  0  0
    2.1574   -5.3589   -0.1275 H   0  0  0  0  0  0  0  0  0  0  0  0
    3.6213   -3.8718    1.2290 H   0  0  0  0  0  0  0  0  0  0  0  0
    4.4728   -1.9776    1.8108 H   0  0  0  0  0  0  0  0  0  0  0  0
    5.0072    0.2675    1.9171 H   0  0  0  0  0  0  0  0  0  0  0  0
    5.0780    2.3888    1.5680 H   0  0  0  0  0  0  0  0  0  0  0  0
    4.2515    4.5462    0.6460 H   0  0  0  0  0  0  0  0  0  0  0  0
    2.2591    4.5462   -0.9143 H   0  0  0  0  0  0  0  0  0  0  0  0
    1.1652    2.4063   -1.5106 H   0  0  0  0  0  0  0  0  0  0  0  0
  1  2  2  0  0  0  0
  2  7  1  0  0  0  0
  3  4  2  0  0  0  0
  3  2  1  0  0  0  0
  4  5  1  0  0  0  0
  5 18  1  0  0  0  0
  5  6  2  0  0  0  0
  6 19  1  0  0  0  0
  7  6  1  0  0  0  0
  7  8  2  0  0  0  0
  8  9  1  0  0  0  0
  8 20  1  0  0  0  0
  9 21  1  0  0  0  0
 10 11  1  0  0  0  0
 10  9  2  0  0  0  0
 11 22  1  0  0  0  0
 12 23  1  0  0  0  0
 12 11  2  0  0  0  0
 13 12  1  0  0  0  0
 14 13  2  0  0  0  0
 14 15  1  0  0  0  0
 15  1  1  1  0  0  0
 15 10  1  0  0  0  0
 16  3  1  0  0  0  0
 17  4  1  0  0  0  0
 24 13  1  0  0  0  0
 25 14  1  0  0  0  0
M  END
