3
q = -1.0

 21 21  0  0  0  0  0  0  0  0999 V2000
    3.1234    1.2460    0.1056 C   0  0  0  0  0  3  0  0  0  0  0  0
    3.3294    2.1210    0.7428 H   0  0  0  0  0  0  0  0  0  0  0  0
    3.5335   -0.0096    0.6522 C   0  0  0  0  0  3  0  0  0  0  0  0
    3.9438   -0.0143    1.6752 H   0  0  0  0  0  0  0  0  0  0  0  0
    3.1152   -1.2589    0.0975 C   0  0  0  0  0  3  0  0  0  0  0  0
    3.3159   -2.1397    0.7285 H   0  0  0  0  0  0  0  0  0  0  0  0
    2.9683   -1.5452   -1.3898 C   0  0  0  0  0  0  0  0  0  0  0  0
    2.1447   -0.9515   -1.8411 H   0  0  0  0  0  0  0  0  0  0  0  0
    2.6469   -2.5994   -1.5098 H   0  0  0  0  0  0  0  0  0  0  0  0
    4.2545   -1.3171   -2.2273 C   0  0  0  0  0  0  0  0  0  0  0  0
    4.9546   -2.1561   -2.0261 H   0  0  0  0  0  0  0  0  0  0  0  0
    3.9772   -1.4033   -3.3005 H   0  0  0  0  0  0  0  0  0  0  0  0
    5.0166   -0.0061   -1.9882 C   0  0  0  0  0  0  0  0  0  0  0  0
    5.9050   -0.0072   -2.6551 H   0  0  0  0  0  0  0  0  0  0  0  0
    5.4328   -0.0115   -0.9588 H   0  0  0  0  0  0  0  0  0  0  0  0
    4.2650    1.3127   -2.2177 C   0  0  0  0  0  0  0  0  0  0  0  0
    3.9895    1.4095   -3.2905 H   0  0  0  0  0  0  0  0  0  0  0  0
    4.9715    2.1447   -2.0093 H   0  0  0  0  0  0  0  0  0  0  0  0
    2.9797    1.5440   -1.3798 C   0  0  0  0  0  0  0  0  0  0  0  0
    2.6661    2.6014   -1.4923 H   0  0  0  0  0  0  0  0  0  0  0  0
    2.1523    0.9598   -1.8363 H   0  0  0  0  0  0  0  0  0  0  0  0
  1  3  1  0  0  0  0
  1  2  1  0  0  0  0
  3  4  1  0  0  0  0
  5  3  1  0  0  0  0
  5  6  1  0  0  0  0
  7  5  1  0  0  0  0
  8  7  1  0  0  0  0
  9  7  1  0  0  0  0
 10 11  1  0  0  0  0
 10 13  1  0  0  0  0
 10  7  1  0  0  0  0
 12 10  1  0  0  0  0
 13 15  1  0  0  0  0
 14 13  1  0  0  0  0
 16 18  1  0  0  0  0
 16 13  1  0  0  0  0
 16 19  1  0  0  0  0
 17 16  1  0  0  0  0
 19  1  1  0  0  0  0
 20 19  1  0  0  0  0
 21 19  1  0  0  0  0
M  END
