5
q = -1.0, confidence = 0.0

 35 36  0  0  1  0  0  0  0  0999 V2000
    2.0511    0.1722    1.4710 C   0  0  0  0  0  0  0  0  0  0  0  0
    1.5767    1.5165    1.3209 C   0  0  0  0  0  0  0  0  0  0  0  0
    1.6595    1.8656   -0.0657 C   0  0  0  0  0  0  0  0  0  0  0  0
    2.0920    0.7071   -0.7848 C   0  0  0  0  0  0  0  0  0  0  0  0
    2.3586   -0.3303    0.1710 C   0  0  1  0  0  3  0  0  0  0  0  0
    2.4170   -0.4725    2.7712 C   0  0  0  0  0  0  0  0  0  0  0  0
    2.3970   -1.5780    2.7106 H   0  0  0  0  0  0  0  0  0  0  0  0
    1.7447   -0.1698    3.5960 H   0  0  0  0  0  0  0  0  0  0  0  0
    3.4515   -0.1811    3.0567 H   0  0  0  0  0  0  0  0  0  0  0  0
    1.2518    2.4369    2.4611 C   0  0  0  0  0  0  0  0  0  0  0  0
    0.9601    3.4440    2.1091 H   0  0  0  0  0  0  0  0  0  0  0  0
    2.1298    2.5652    3.1300 H   0  0  0  0  0  0  0  0  0  0  0  0
    0.4263    2.0465    3.0924 H   0  0  0  0  0  0  0  0  0  0  0  0
    1.6254    3.2663   -0.5992 C   0  0  0  0  0  0  0  0  0  0  0  0
    0.7944    3.8714   -0.1961 H   0  0  0  0  0  0  0  0  0  0  0  0
    1.5689    3.2969   -1.7013 H   0  0  0  0  0  0  0  0  0  0  0  0
    2.5669    3.7828   -0.3100 H   0  0  0  0  0  0  0  0  0  0  0  0
    2.4158    0.6018   -2.2463 C   0  0  0  0  0  0  0  0  0  0  0  0
    2.2000    1.5407   -2.7895 H   0  0  0  0  0  0  0  0  0  0  0  0
    1.8486   -0.2134   -2.7427 H   0  0  0  0  0  0  0  0  0  0  0  0
    3.4940    0.3769   -2.3915 H   0  0  0  0  0  0  0  0  0  0  0  0
    3.1390   -1.5739   -0.1261 C   0  0  0  0  0  0  0  0  0  0  0  0
    2.8270   -2.0056   -1.0992 H   0  0  0  0  0  0  0  0  0  0  0  0
    2.9043   -2.3600    0.6234 H   0  0  0  0  0  0  0  0  0  0  0  0
    4.6492   -1.3692   -0.1503 C   0  0  0  0  0  0  0  0  0  0  0  0
    5.4844   -2.4384   -0.5388 C   0  0  0  0  0  0  0  0  0  0  0  0
    5.0279   -3.3996   -0.8261 H   0  0  0  0  0  0  0  0  0  0  0  0
    6.8781   -2.2952   -0.5639 C   0  0  0  0  0  0  0  0  0  0  0  0
    7.5098   -3.1433   -0.8706 H   0  0  0  0  0  0  0  0  0  0  0  0
    7.4683   -1.0726   -0.2014 C   0  0  0  0  0  0  0  0  0  0  0  0
    8.5627   -0.9573   -0.2214 H   0  0  0  0  0  0  0  0  0  0  0  0
    6.6497   -0.0014    0.1838 C   0  0  0  0  0  0  0  0  0  0  0  0
    7.1005    0.9621    0.4682 H   0  0  0  0  0  0  0  0  0  0  0  0
    5.2528   -0.1486    0.2091 C   0  0  0  0  0  0  0  0  0  0  0  0
    4.6159    0.6970    0.5096 H   0  0  0  0  0  0  0  0  0  0  0  0
  1  6  1  0  0  0  0
  2  1  2  0  0  0  0
  2 10  1  0  0  0  0
  3  2  1  0  0  0  0
  4  3  2  0  0  0  0
  4  5  1  0  0  0  0
  5 22  1  1  0  0  0
  5  1  1  0  0  0  0
  6  9  1  0  0  0  0
  6  8  1  0  0  0  0
  7  6  1  0  0  0  0
 10 13  1  0  0  0  0
 10 12  1  0  0  0  0
 11 10  1  0  0  0  0
 14 17  1  0  0  0  0
 14 15  1  0  0  0  0
 14  3  1  0  0  0  0
 16 14  1  0  0  0  0
 18  4  1  0  0  0  0
 19 18  1  0  0  0  0
 20 18  1  0  0  0  0
 21 18  1  0  0  0  0
 22 24  1  0  0  0  0
 23 22  1  0  0  0  0
 25 22  1  0  0  0  0
 25 34  1  0  0  0  0
 26 25  2  0  0  0  0
 27 26  1  0  0  0  0
 28 26  1  0  0  0  0
 28 30  2  0  0  0  0
 29 28  1  0  0  0  0
 30 32  1  0  0  0  0
 31 30  1  0  0  0  0
 32 34  2  0  0  0  0
 32 33  1  0  0  0  0
 34 35  1  0  0  0  0
M  END
