4
q = -1.0

 10  9  0  0  0  0  0  0  0  0999 V2000
   -1.4614    1.7531    0.2030 F   0  0  0  0  0  0  0  0  0  0  0  0
   -2.0779   -1.0447    1.0842 F   0  0  0  0  0  0  0  0  0  0  0  0
   -2.4783   -1.3834   -1.0602 F   0  0  0  0  0  0  0  0  0  0  0  0
   -1.2972    0.5767   -0.5432 C   0  0  0  0  0  3  0  0  0  0  0  0
   -1.5027    0.8326   -1.6025 H   0  0  0  0  0  0  0  0  0  0  0  0
   -4.1196    0.9547   -0.9750 F   0  0  0  0  0  0  0  0  0  0  0  0
   -3.8448    0.9547    1.1971 F   0  0  0  0  0  0  0  0  0  0  0  0
   -2.3718   -0.4166   -0.1023 C   0  0  0  0  0  0  0  0  0  0  0  0
   -3.7931    0.1962    0.0886 C   0  0  0  0  0  0  0  0  0  0  0  0
   -4.7062   -0.7852    0.2068 F   0  0  0  0  0  0  0  0  0  0  0  0
  3  8  1  0  0  0  0
  4  8  1  0  0  0  0
  4  1  1  0  0  0  0
  5  4  1  0  0  0  0
  6  9  1  0  0  0  0
  8  9  1  0  0  0  0
  8  2  1  0  0  0  0
  9 10  1  0  0  0  0
  9  7  1  0  0  0  0
M  END
