2
q = -1.0

 27 28  0  0  0  0  0  0  0  0999 V2000
    0.1598    0.9132    2.2211 O   0  0  0  0  0  0  0  0  0  0  0  0
    0.4540    0.0754    1.3894 C   0  0  0  0  0  3  0  0  0  0  0  0
    1.7712   -0.5981    1.2433 C   0  0  0  0  0  0  0  0  0  0  0  0
    2.8814   -0.0561    0.6630 C   0  0  0  0  0  0  0  0  0  0  0  0
    4.0277   -0.9235    0.2856 C   0  0  0  0  0  0  0  0  0  0  0  0
    5.3445   -0.4065    0.2741 C   0  0  0  0  0  0  0  0  0  0  0  0
    6.4350   -1.2239   -0.0519 C   0  0  0  0  0  0  0  0  0  0  0  0
    6.2337   -2.5731   -0.3840 C   0  0  0  0  0  0  0  0  0  0  0  0
    4.9302   -3.0969   -0.3895 C   0  0  0  0  0  0  0  0  0  0  0  0
    3.8389   -2.2822   -0.0627 C   0  0  0  0  0  0  0  0  0  0  0  0
    2.9381    1.3872    0.2963 C   0  0  0  0  0  0  0  0  0  0  0  0
    3.2880    1.7648   -1.0224 C   0  0  0  0  0  0  0  0  0  0  0  0
    3.2769    3.1116   -1.4095 C   0  0  0  0  0  0  0  0  0  0  0  0
    2.9328    4.1102   -0.4817 C   0  0  0  0  0  0  0  0  0  0  0  0
    2.6016    3.7497    0.8338 C   0  0  0  0  0  0  0  0  0  0  0  0
    2.6040    2.4013    1.2223 C   0  0  0  0  0  0  0  0  0  0  0  0
    1.7207   -1.6839    1.4354 H   0  0  0  0  0  0  0  0  0  0  0  0
    5.5090    0.6487    0.5389 H   0  0  0  0  0  0  0  0  0  0  0  0
    7.4524   -0.8035   -0.0442 H   0  0  0  0  0  0  0  0  0  0  0  0
    7.0896   -3.2135   -0.6461 H   0  0  0  0  0  0  0  0  0  0  0  0
    4.7593   -4.1490   -0.6643 H   0  0  0  0  0  0  0  0  0  0  0  0
    2.8191   -2.6959   -0.0978 H   0  0  0  0  0  0  0  0  0  0  0  0
    3.5522    0.9831   -1.7505 H   0  0  0  0  0  0  0  0  0  0  0  0
    3.5373    3.3845   -2.4436 H   0  0  0  0  0  0  0  0  0  0  0  0
    2.9289    5.1685   -0.7843 H   0  0  0  0  0  0  0  0  0  0  0  0
    2.3356    4.5248    1.5684 H   0  0  0  0  0  0  0  0  0  0  0  0
    2.3292    2.1183    2.2473 H   0  0  0  0  0  0  0  0  0  0  0  0
  2  1  2  0  0  0  0
  3  2  1  0  0  0  0
  3 17  1  0  0  0  0
  4  3  2  0  0  0  0
  5  4  1  0  0  0  0
  6  5  1  0  0  0  0
  6 18  1  0  0  0  0
  7 19  1  0  0  0  0
  7  6  2  0  0  0  0
  8  7  1  0  0  0  0
  9  8  2  0  0  0  0
  9 10  1  0  0  0  0
 10  5  2  0  0  0  0
 11  4  1  0  0  0  0
 11 16  1  0  0  0  0
 12 11  2  0  0  0  0
 13 12  1  0  0  0  0
 13 14  2  0  0  0  0
 14 15  1  0  0  0  0
 15 16  2  0  0  0  0
 15 26  1  0  0  0  0
 16 27  1  0  0  0  0
 20  8  1  0  0  0  0
 21  9  1  0  0  0  0
 22 10  1  0  0  0  0
 23 12  1  0  0  0  0
 24 13  1  0  0  0  0
 25 14  1  0  0  0  0
M  END
