1
q = -1.0

 17 18  0  0  0  0  0  0  0  0999 V2000
    2.5868    1.2549   -0.0254 C   0  0  0  0  0  3  0  0  0  0  0  0
    3.2355    1.7530   -1.1533 C   0  0  0  0  0  0  0  0  0  0  0  0
    2.7619    1.6770   -2.1436 H   0  0  0  0  0  0  0  0  0  0  0  0
    4.5117    2.3670   -1.0659 C   0  0  0  0  0  0  0  0  0  0  0  0
    4.9797    2.7658   -1.9792 H   0  0  0  0  0  0  0  0  0  0  0  0
    5.1660    2.4650    0.1527 C   0  0  0  0  0  0  0  0  0  0  0  0
    6.1565    2.9409    0.2251 H   0  0  0  0  0  0  0  0  0  0  0  0
    4.5714    1.9287    1.3304 C   0  0  0  0  0  0  0  0  0  0  0  0
    5.2338    1.9608    2.5943 C   0  0  0  0  0  0  0  0  0  0  0  0
    6.2225    2.4437    2.6546 H   0  0  0  0  0  0  0  0  0  0  0  0
    4.6638    1.3892    3.7223 C   0  0  0  0  0  0  0  0  0  0  0  0
    5.1964    1.4174    4.6853 H   0  0  0  0  0  0  0  0  0  0  0  0
    3.3929    0.7595    3.6348 C   0  0  0  0  0  0  0  0  0  0  0  0
    2.9460    0.2936    4.5261 H   0  0  0  0  0  0  0  0  0  0  0  0
    2.7147    0.7307    2.4255 C   0  0  0  0  0  0  0  0  0  0  0  0
    1.7309    0.2405    2.3563 H   0  0  0  0  0  0  0  0  0  0  0  0
    3.2666    1.3078    1.2406 C   0  0  0  0  0  0  0  0  0  0  0  0
  1 17  1  0  0  0  0
  2  4  1  0  0  0  0
  2  1  2  0  0  0  0
  3  2  1  0  0  0  0
  4  6  2  0  0  0  0
  5  4  1  0  0  0  0
  6  7  1  0  0  0  0
  6  8  1  0  0  0  0
  8  9  1  0  0  0  0
  9 10  1  0  0  0  0
  9 11  2  0  0  0  0
 11 12  1  0  0  0  0
 13 11  1  0  0  0  0
 13 14  1  0  0  0  0
 15 13  2  0  0  0  0
 16 15  1  0  0  0  0
 17  8  2  0  0  0  0
 17 15  1  0  0  0  0
M  END
