1
q = -1.0

 15 15  0  0  0  0  0  0  0  0999 V2000
   -0.0003   -0.6261   -2.4318 C   0  0  0  0  0  2  0  0  0  0  0  0
    0.0001   -0.0664   -3.3893 H   0  0  0  0  0  0  0  0  0  0  0  0
   -0.0011   -1.9834   -2.5178 C   0  0  0  0  0  3  0  0  0  0  0  0
   -0.0013   -2.4231   -3.5357 H   0  0  0  0  0  0  0  0  0  0  0  0
   -0.0017   -2.9923   -1.4452 C   0  0  0  0  0  0  0  0  0  0  0  0
   -0.0015   -2.6724   -0.0657 C   0  0  0  0  0  0  0  0  0  0  0  0
   -0.0009   -1.6126    0.2398 H   0  0  0  0  0  0  0  0  0  0  0  0
   -0.0022   -3.6717    0.9109 C   0  0  0  0  0  0  0  0  0  0  0  0
   -0.0021   -3.3839    1.9726 H   0  0  0  0  0  0  0  0  0  0  0  0
   -0.0030   -5.0281    0.5418 C   0  0  0  0  0  0  0  0  0  0  0  0
   -0.0035   -5.8146    1.3120 H   0  0  0  0  0  0  0  0  0  0  0  0
   -0.0031   -5.3694   -0.8200 C   0  0  0  0  0  0  0  0  0  0  0  0
   -0.0037   -6.4276   -1.1247 H   0  0  0  0  0  0  0  0  0  0  0  0
   -0.0025   -4.3643   -1.7972 C   0  0  0  0  0  0  0  0  0  0  0  0
   -0.0026   -4.6394   -2.8647 H   0  0  0  0  0  0  0  0  0  0  0  0
  2  1  1  0  0  0  0
  3  1  1  0  0  0  0
  3  5  1  0  0  0  0
  4  3  1  0  0  0  0
  5  6  1  0  0  0  0
  6  7  1  0  0  0  0
  6  8  2  0  0  0  0
  8  9  1  0  0  0  0
 10  8  1  0  0  0  0
 10 11  1  0  0  0  0
 12 10  2  0  0  0  0
 13 12  1  0  0  0  0
 14  5  2  0  0  0  0
 14 12  1  0  0  0  0
 15 14  1  0  0  0  0
M  END
