3
q = 0.0, confidence = 0.824

 14 14  0  0  0  0  0  0  0  0999 V2000
    1.8923   -0.5390   -1.2616 C   0  0  0  0  0  3  0  0  0  0  0  0
    1.7684   -1.4058   -1.9322 H   0  0  0  0  0  0  0  0  0  0  0  0
    1.3025    0.7026   -1.7151 C   0  0  0  0  0  3  0  0  0  0  0  0
    0.8503    0.8497   -2.7065 H   0  0  0  0  0  0  0  0  0  0  0  0
    1.3226    1.7367   -0.7181 C   0  0  0  0  0  3  0  0  0  0  0  0
    0.8290    2.7034   -0.9004 H   0  0  0  0  0  0  0  0  0  0  0  0
    1.8999    1.3804    0.5425 C   0  0  0  0  0  3  0  0  0  0  0  0
    1.7449    2.0910    1.3725 H   0  0  0  0  0  0  0  0  0  0  0  0
    3.1907    0.5800    0.5947 C   0  0  0  0  0  0  0  0  0  0  0  0
    3.3043    0.1220    1.5980 H   0  0  0  0  0  0  0  0  0  0  0  0
    4.0516    1.2769    0.4785 H   0  0  0  0  0  0  0  0  0  0  0  0
    3.2161   -0.4977   -0.5098 C   0  0  0  0  0  0  0  0  0  0  0  0
    4.0314   -0.2955   -1.2400 H   0  0  0  0  0  0  0  0  0  0  0  0
    3.4326   -1.4969   -0.0809 H   0  0  0  0  0  0  0  0  0  0  0  0
  1 12  1  0  0  0  0
  2  1  1  0  0  0  0
  3  1  1  0  0  0  0
  3  5  1  0  0  0  0
  4  3  1  0  0  0  0
  5  7  1  0  0  0  0
  6  5  1  0  0  0  0
  7  9  1  0  0  0  0
  7  8  1  0  0  0  0
  9 10  1  0  0  0  0
 11  9  1  0  0  0  0
 12 14  1  0  0  0  0
 12  9  1  0  0  0  0
 13 12  1  0  0  0  0
M  END
