3
q = -1.0

  9  8  0  0  0  0  0  0  0  0999 V2000
    2.9493    3.7835   -0.8868 O   0  0  0  0  0  0  0  0  0  0  0  0
    1.1101    4.9188   -0.1531 O   0  0  0  0  0  0  0  0  0  0  0  0
    0.8203    1.5384    0.7123 C   0  0  0  0  0  3  0  0  0  0  0  0
    1.3308    2.6039    0.2942 C   0  0  0  0  0  0  0  0  0  0  0  0
    1.7349    3.8650   -0.2290 C   0  0  0  0  0  0  0  0  0  0  0  0
    3.4052    5.0158   -1.4424 C   0  0  0  0  0  0  0  0  0  0  0  0
    2.6864    5.4140   -2.1887 H   0  0  0  0  0  0  0  0  0  0  0  0
    4.3753    4.7967   -1.9260 H   0  0  0  0  0  0  0  0  0  0  0  0
    3.5359    5.7884   -0.6564 H   0  0  0  0  0  0  0  0  0  0  0  0
  1  5  1  0  0  0  0
  4  3  3  0  0  0  0
  5  2  2  0  0  0  0
  5  4  1  0  0  0  0
  6  1  1  0  0  0  0
  6  9  1  0  0  0  0
  7  6  1  0  0  0  0
  8  6  1  0  0  0  0
M  END
