2
q = -1.0

 15 15  0  0  0  0  0  0  0  0999 V2000
    8.5499   -0.0851   -0.9619 O   0  0  0  0  0  0  0  0  0  0  0  0
    1.0428   -0.1165    1.0187 C   0  0  0  0  0  3  0  0  0  0  0  0
    2.2553   -0.2538    0.7277 C   0  0  0  0  0  0  0  0  0  0  0  0
    3.5919   -0.4254    0.3031 C   0  0  0  0  0  0  0  0  0  0  0  0
    3.9899   -1.6007   -0.4056 C   0  0  0  0  0  0  0  0  0  0  0  0
    3.2411   -2.3834   -0.5934 H   0  0  0  0  0  0  0  0  0  0  0  0
    5.3007   -1.7485   -0.8526 C   0  0  0  0  0  0  0  0  0  0  0  0
    5.5963   -2.6590   -1.4008 H   0  0  0  0  0  0  0  0  0  0  0  0
    6.2669   -0.7420   -0.6232 C   0  0  0  0  0  0  0  0  0  0  0  0
    5.8838    0.4249    0.0821 C   0  0  0  0  0  0  0  0  0  0  0  0
    6.6529    1.1934    0.2570 H   0  0  0  0  0  0  0  0  0  0  0  0
    4.5810    0.5818    0.5403 C   0  0  0  0  0  0  0  0  0  0  0  0
    4.2853    1.4841    1.0955 H   0  0  0  0  0  0  0  0  0  0  0  0
    7.6480   -0.9012   -1.1078 C   0  0  0  0  0  0  0  0  0  0  0  0
    7.8310   -1.8791   -1.6541 H   0  0  0  0  0  0  0  0  0  0  0  0
  3  2  3  0  0  0  0
  4 12  1  0  0  0  0
  4  3  1  0  0  0  0
  5  4  2  0  0  0  0
  6  5  1  0  0  0  0
  7  9  2  0  0  0  0
  7  5  1  0  0  0  0
  8  7  1  0  0  0  0
  9 10  1  0  0  0  0
 10 11  1  0  0  0  0
 10 12  2  0  0  0  0
 12 13  1  0  0  0  0
 14  1  2  0  0  0  0
 14  9  1  0  0  0  0
 15 14  1  0  0  0  0
M  END
