2
q = -1.0

  9  8  0  0  0  0  0  0  0  0999 V2000
   -2.6943   -3.2501   -1.2975 O   0  0  0  0  0  0  0  0  0  0  0  0
    0.9018   -2.6575   -2.0710 C   0  0  0  0  0  3  0  0  0  0  0  0
   -0.5103   -2.7585   -2.3208 C   0  0  0  0  0  3  0  0  0  0  0  0
   -1.3655   -3.1811   -1.2843 C   0  0  0  0  0  3  0  0  0  0  0  0
   -3.0902   -2.6499   -1.9720 H   0  0  0  0  0  0  0  0  0  0  0  0
   -0.9426   -3.7109   -0.4110 H   0  0  0  0  0  0  0  0  0  0  0  0
   -0.9498   -2.4076   -3.2716 H   0  0  0  0  0  0  0  0  0  0  0  0
    1.5607   -2.3460   -2.8956 H   0  0  0  0  0  0  0  0  0  0  0  0
    1.3736   -3.3448   -1.3476 H   0  0  0  0  0  0  0  0  0  0  0  0
  1  4  1  0  0  0  0
  2  9  1  0  0  0  0
  3  2  1  0  0  0  0
  3  4  1  0  0  0  0
  4  6  1  0  0  0  0
  5  1  1  0  0  0  0
  7  3  1  0  0  0  0
  8  2  1  0  0  0  0
M  END
