3
q = 0.0, confidence = 1.0

 33 34  0  0  0  0  0  0  0  0999 V2000
   -2.7203    0.9735   -0.5070 N   0  0  0  0  0  0  0  0  0  0  0  0
   -2.7203   -0.9734    0.5069 N   0  0  0  0  0  0  0  0  0  0  0  0
   -1.9133   -0.0000   -0.0001 C   0  0  0  0  0  2  0  0  0  0  0  0
   -4.0637    0.6283   -0.3314 C   0  0  0  0  0  0  0  0  0  0  0  0
   -5.2666    1.2662   -0.6766 C   0  0  0  0  0  0  0  0  0  0  0  0
   -5.2779    2.2340   -1.1933 H   0  0  0  0  0  0  0  0  0  0  0  0
   -6.4631    0.6220   -0.3336 C   0  0  0  0  0  0  0  0  0  0  0  0
   -7.4207    1.0984   -0.5898 H   0  0  0  0  0  0  0  0  0  0  0  0
   -6.4631   -0.6214    0.3342 C   0  0  0  0  0  0  0  0  0  0  0  0
   -7.4207   -1.0977    0.5907 H   0  0  0  0  0  0  0  0  0  0  0  0
   -5.2666   -1.2658    0.6770 C   0  0  0  0  0  0  0  0  0  0  0  0
   -5.2780   -2.2336    1.1938 H   0  0  0  0  0  0  0  0  0  0  0  0
   -4.0638   -0.6281    0.3316 C   0  0  0  0  0  0  0  0  0  0  0  0
   -2.1845    2.1753   -1.1766 C   0  0  0  0  0  0  0  0  0  0  0  0
   -1.0886    2.0548   -1.0537 H   0  0  0  0  0  0  0  0  0  0  0  0
   -2.5073    2.1510   -2.6727 C   0  0  0  0  0  0  0  0  0  0  0  0
   -3.5944    2.2427   -2.8680 H   0  0  0  0  0  0  0  0  0  0  0  0
   -2.0029    2.9986   -3.1772 H   0  0  0  0  0  0  0  0  0  0  0  0
   -2.1500    1.2091   -3.1339 H   0  0  0  0  0  0  0  0  0  0  0  0
   -2.5960    3.4628   -0.4608 C   0  0  0  0  0  0  0  0  0  0  0  0
   -2.2921    3.4453    0.6041 H   0  0  0  0  0  0  0  0  0  0  0  0
   -2.0847    4.3225   -0.9370 H   0  0  0  0  0  0  0  0  0  0  0  0
   -3.6866    3.6490   -0.5194 H   0  0  0  0  0  0  0  0  0  0  0  0
   -2.1846   -2.1755    1.1761 C   0  0  0  0  0  0  0  0  0  0  0  0
   -1.0887   -2.0551    1.0532 H   0  0  0  0  0  0  0  0  0  0  0  0
   -2.5963   -3.4627    0.4597 C   0  0  0  0  0  0  0  0  0  0  0  0
   -2.2922   -3.4448   -0.6051 H   0  0  0  0  0  0  0  0  0  0  0  0
   -2.0852   -4.3227    0.9356 H   0  0  0  0  0  0  0  0  0  0  0  0
   -3.6869   -3.6487    0.5180 H   0  0  0  0  0  0  0  0  0  0  0  0
   -2.5073   -2.1518    2.6722 C   0  0  0  0  0  0  0  0  0  0  0  0
   -3.5943   -2.2436    2.8675 H   0  0  0  0  0  0  0  0  0  0  0  0
   -2.0028   -2.9996    3.1763 H   0  0  0  0  0  0  0  0  0  0  0  0
   -2.1500   -1.2101    3.1337 H   0  0  0  0  0  0  0  0  0  0  0  0
  1  4  1  0  0  0  0
  1  3  1  0  0  0  0
  2 24  1  0  0  0  0
  3  2  1  0  0  0  0
  4 13  1  0  0  0  0
  5  7  1  0  0  0  0
  5  4  2  0  0  0  0
  6  5  1  0  0  0  0
  7  9  2  0  0  0  0
  8  7  1  0  0  0  0
  9 10  1  0  0  0  0
  9 11  1  0  0  0  0
 11 12  1  0  0  0  0
 13  2  1  0  0  0  0
 13 11  2  0  0  0  0
 14 15  1  0  0  0  0
 14  1  1  0  0  0  0
 14 20  1  0  0  0  0
 16 14  1  0  0  0  0
 17 16  1  0  0  0  0
 18 16  1  0  0  0  0
 19 16  1  0  0  0  0
 20 21  1  0  0  0  0
 22 20  1  0  0  0  0
 23 20  1  0  0  0  0
 24 30  1  0  0  0  0
 25 24  1  0  0  0  0
 26 29  1  0  0  0  0
 26 28  1  0  0  0  0
 26 24  1  0  0  0  0
 27 26  1  0  0  0  0
 30 31  1  0  0  0  0
 30 33  1  0  0  0  0
 30 32  1  0  0  0  0
M  END
