4
q = 0.0, confidence = 1.0

 19 19  0  0  0  0  0  0  0  0999 V2000
    0.4762    1.5943   -0.5398 C   0  0  0  0  0  3  0  0  0  0  0  0
    1.5439    0.8807    0.0975 C   0  0  0  0  0  0  0  0  0  0  0  0
    1.2889    0.2370    1.3502 C   0  0  0  0  0  0  0  0  0  0  0  0
    0.0461    0.4642    2.0050 C   0  0  0  0  0  3  0  0  0  0  0  0
   -0.9647    1.2693    1.4201 C   0  0  0  0  0  0  0  0  0  0  0  0
   -0.7574    1.8445    0.1262 C   0  0  0  0  0  0  0  0  0  0  0  0
   -1.8079    2.7026   -0.5144 C   0  0  0  0  0  0  0  0  0  0  0  0
    3.7575   -0.0207   -0.1037 C   0  0  0  0  0  0  0  0  0  0  0  0
    2.6689    0.7848   -0.5926 O   0  0  0  0  0  0  0  0  0  0  0  0
    0.6565    1.9842   -1.5515 H   0  0  0  0  0  0  0  0  0  0  0  0
    2.0395   -0.4117    1.8182 H   0  0  0  0  0  0  0  0  0  0  0  0
   -0.1404   -0.0218    2.9743 H   0  0  0  0  0  0  0  0  0  0  0  0
   -1.9248    1.4091    1.9356 H   0  0  0  0  0  0  0  0  0  0  0  0
   -2.8264    2.4247   -0.1856 H   0  0  0  0  0  0  0  0  0  0  0  0
   -1.6342    3.7568   -0.2110 H   0  0  0  0  0  0  0  0  0  0  0  0
   -1.7592    2.6614   -1.6184 H   0  0  0  0  0  0  0  0  0  0  0  0
    4.5689    0.0995   -0.8415 H   0  0  0  0  0  0  0  0  0  0  0  0
    4.1001    0.3377    0.8878 H   0  0  0  0  0  0  0  0  0  0  0  0
    3.4587   -1.0879   -0.0533 H   0  0  0  0  0  0  0  0  0  0  0  0
  1  2  1  0  0  0  0
  1  6  1  0  0  0  0
  2  3  2  0  0  0  0
  3 11  1  0  0  0  0
  3  4  1  0  0  0  0
  4 12  1  0  0  0  0
  5 13  1  0  0  0  0
  5  4  1  0  0  0  0
  6  5  2  0  0  0  0
  7 15  1  0  0  0  0
  7 14  1  0  0  0  0
  7  6  1  0  0  0  0
  8 19  1  0  0  0  0
  8 18  1  0  0  0  0
  9  8  1  0  0  0  0
  9  2  1  0  0  0  0
 10  1  1  0  0  0  0
 16  7  1  0  0  0  0
 17  8  1  0  0  0  0
M  END
