4
q = -1.0

 45 47  0  0  1  0  0  0  0  0999 V2000
    0.6641    0.9504    0.3417 C   0  0  0  0  0  3  0  0  0  0  0  0
    1.2577    1.1771   -0.9272 C   0  0  0  0  0  0  0  0  0  0  0  0
    1.6273    0.0414   -1.7245 C   0  0  0  0  0  0  0  0  0  0  0  0
    1.3105   -1.2741   -1.2458 C   0  0  2  0  0  3  0  0  0  0  0  0
    0.6361   -1.3921   -0.0018 C   0  0  0  0  0  3  0  0  0  0  0  0
   -0.2435   -0.2565    0.4879 C   0  0  2  0  0  0  0  0  0  0  0  0
    1.7262   -2.4866   -2.0375 C   0  0  0  0  0  0  0  0  0  0  0  0
    1.3338    3.5337   -0.6261 C   0  0  0  0  0  0  0  0  0  0  0  0
   -1.5945   -0.1255   -0.2548 C   0  0  2  0  0  0  0  0  0  0  0  0
   -2.4554    1.0584    0.2166 C   0  0  0  0  0  0  0  0  0  0  0  0
   -3.8588    0.5041    0.4951 C   0  0  2  0  0  0  0  0  0  0  0  0
   -3.6431   -0.3360    1.8005 C   0  0  0  0  0  0  0  0  0  0  0  0
   -2.8626   -1.5955    1.3305 C   0  0  0  0  0  0  0  0  0  0  0  0
   -2.6043   -1.2955   -0.1620 C   0  0  1  0  0  0  0  0  0  0  0  0
   -3.9465   -0.6162   -0.6037 C   0  0  0  0  0  0  0  0  0  0  0  0
   -3.9356   -0.0586   -2.0367 C   0  0  0  0  0  0  0  0  0  0  0  0
   -5.1750   -1.5266   -0.4695 C   0  0  0  0  0  0  0  0  0  0  0  0
   -4.9386    1.5627    0.5771 C   0  0  0  0  0  0  0  0  0  0  0  0
    1.6417    2.3798   -1.4067 O   0  0  0  0  0  0  0  0  0  0  0  0
   -2.0913    2.2139    0.3676 O   0  0  0  0  0  0  0  0  0  0  0  0
    0.5178    1.8027    1.0153 H   0  0  0  0  0  0  0  0  0  0  0  0
    2.1527    0.2020   -2.6749 H   0  0  0  0  0  0  0  0  0  0  0  0
    0.4952   -2.4048    0.4075 H   0  0  0  0  0  0  0  0  0  0  0  0
   -0.4333   -0.4007    1.5696 H   0  0  0  0  0  0  0  0  0  0  0  0
    1.9028   -3.3557   -1.3750 H   0  0  0  0  0  0  0  0  0  0  0  0
    2.6454   -2.3041   -2.6265 H   0  0  0  0  0  0  0  0  0  0  0  0
    0.9145   -2.7626   -2.7433 H   0  0  0  0  0  0  0  0  0  0  0  0
    1.5790    4.4050   -1.2600 H   0  0  0  0  0  0  0  0  0  0  0  0
    1.9573    3.5713    0.2932 H   0  0  0  0  0  0  0  0  0  0  0  0
    0.2578    3.5529   -0.3510 H   0  0  0  0  0  0  0  0  0  0  0  0
   -1.3425    0.0606   -1.3206 H   0  0  0  0  0  0  0  0  0  0  0  0
   -3.1036    0.2521    2.5703 H   0  0  0  0  0  0  0  0  0  0  0  0
   -4.6308   -0.5916    2.2349 H   0  0  0  0  0  0  0  0  0  0  0  0
   -1.9276   -1.7601    1.8990 H   0  0  0  0  0  0  0  0  0  0  0  0
   -3.4642   -2.5168    1.4496 H   0  0  0  0  0  0  0  0  0  0  0  0
   -2.3148   -2.1800   -0.7637 H   0  0  0  0  0  0  0  0  0  0  0  0
   -3.7707   -0.8740   -2.7708 H   0  0  0  0  0  0  0  0  0  0  0  0
   -4.9132    0.4063   -2.2758 H   0  0  0  0  0  0  0  0  0  0  0  0
   -3.1622    0.7144   -2.2106 H   0  0  0  0  0  0  0  0  0  0  0  0
   -5.0985   -2.3775   -1.1779 H   0  0  0  0  0  0  0  0  0  0  0  0
   -6.0996   -0.9693   -0.7227 H   0  0  0  0  0  0  0  0  0  0  0  0
   -5.3105   -1.9480    0.5438 H   0  0  0  0  0  0  0  0  0  0  0  0
   -5.9162    1.1253    0.8629 H   0  0  0  0  0  0  0  0  0  0  0  0
   -4.6650    2.3293    1.3294 H   0  0  0  0  0  0  0  0  0  0  0  0
   -5.0598    2.0894   -0.3907 H   0  0  0  0  0  0  0  0  0  0  0  0
  1  6  1  0  0  0  0
  1 21  1  0  0  0  0
  2  1  1  0  0  0  0
  3  4  1  0  0  0  0
  3  2  2  0  0  0  0
  4  7  1  1  0  0  0
  4  5  1  0  0  0  0
  5 23  1  0  0  0  0
  5  6  1  0  0  0  0
  6 24  1  1  0  0  0
  7 25  1  0  0  0  0
  8 30  1  0  0  0  0
  8 29  1  0  0  0  0
  9 31  1  6  0  0  0
  9 14  1  0  0  0  0
  9 10  1  0  0  0  0
  9  6  1  0  0  0  0
 10 20  2  0  0  0  0
 10 11  1  0  0  0  0
 11 18  1  1  0  0  0
 11 12  1  0  0  0  0
 12 33  1  0  0  0  0
 12 32  1  0  0  0  0
 13 35  1  0  0  0  0
 13 12  1  0  0  0  0
 13 34  1  0  0  0  0
 14 36  1  6  0  0  0
 14 13  1  0  0  0  0
 15 17  1  0  0  0  0
 15 14  1  0  0  0  0
 15 11  1  0  0  0  0
 16 15  1  0  0  0  0
 17 42  1  0  0  0  0
 18 43  1  0  0  0  0
 18 44  1  0  0  0  0
 19  2  1  0  0  0  0
 19  8  1  0  0  0  0
 22  3  1  0  0  0  0
 26  7  1  0  0  0  0
 27  7  1  0  0  0  0
 28  8  1  0  0  0  0
 37 16  1  0  0  0  0
 38 16  1  0  0  0  0
 39 16  1  0  0  0  0
 40 17  1  0  0  0  0
 41 17  1  0  0  0  0
 45 18  1  0  0  0  0
M  END
