5
q = 0.0, confidence = 0.998

 16 16  0  0  0  0  0  0  0  0999 V2000
    1.1823    0.4168    0.5776 C   0  0  0  0  0  0  0  0  0  0  0  0
    0.2642    1.3741    0.0517 C   0  0  0  0  0  3  0  0  0  0  0  0
   -1.0124    1.5526    0.6785 C   0  0  0  0  0  0  0  0  0  0  0  0
   -1.4214    0.6230    1.6911 C   0  0  0  0  0  0  0  0  0  0  0  0
   -0.5079   -0.3472    2.1696 C   0  0  0  0  0  3  0  0  0  0  0  0
    0.8054   -0.4615    1.6317 C   0  0  0  0  0  0  0  0  0  0  0  0
   -1.6381    3.3601   -0.7719 C   0  0  0  0  0  0  0  0  0  0  0  0
   -1.9047    2.4593    0.3204 O   0  0  0  0  0  0  0  0  0  0  0  0
    2.9186    0.3260   -0.1390 Br  0  0  0  0  0  0  0  0  0  0  0  0
    0.5747    2.0028   -0.7919 H   0  0  0  0  0  0  0  0  0  0  0  0
   -2.4418    0.6986    2.0905 H   0  0  0  0  0  0  0  0  0  0  0  0
   -0.8296   -1.0477    2.9549 H   0  0  0  0  0  0  0  0  0  0  0  0
    1.5058   -1.2234    1.9983 H   0  0  0  0  0  0  0  0  0  0  0  0
   -2.5210    4.0186   -0.8332 H   0  0  0  0  0  0  0  0  0  0  0  0
   -0.7333    3.9675   -0.5696 H   0  0  0  0  0  0  0  0  0  0  0  0
   -1.5297    2.7965   -1.7212 H   0  0  0  0  0  0  0  0  0  0  0  0
  1  6  2  0  0  0  0
  2  1  1  0  0  0  0
  2  3  1  0  0  0  0
  3  4  2  0  0  0  0
  4 11  1  0  0  0  0
  4  5  1  0  0  0  0
  5 12  1  0  0  0  0
  6 13  1  0  0  0  0
  6  5  1  0  0  0  0
  7 15  1  0  0  0  0
  7  8  1  0  0  0  0
  8  3  1  0  0  0  0
  9  1  1  0  0  0  0
 10  2  1  0  0  0  0
 14  7  1  0  0  0  0
 16  7  1  0  0  0  0
M  END
