4
q = -1.0

 45 47  0  0  1  0  0  0  0  0999 V2000
   -0.6022    0.8940    0.3408 C   0  0  0  0  0  3  0  0  0  0  0  0
   -1.2694    1.2245   -0.8683 C   0  0  0  0  0  0  0  0  0  0  0  0
   -1.7201    0.1569   -1.7161 C   0  0  0  0  0  0  0  0  0  0  0  0
   -1.4059   -1.1956   -1.3551 C   0  0  1  0  0  3  0  0  0  0  0  0
   -0.6509   -1.4159   -0.1729 C   0  0  0  0  0  3  0  0  0  0  0  0
    0.2844   -0.3357    0.3412 C   0  0  1  0  0  0  0  0  0  0  0  0
   -1.2526    3.5573   -0.4100 C   0  0  0  0  0  0  0  0  0  0  0  0
   -1.9034   -2.3392   -2.2003 C   0  0  0  0  0  0  0  0  0  0  0  0
    1.5923   -0.1808   -0.4835 C   0  0  1  0  0  0  0  0  0  0  0  0
    2.4517    1.0593   -0.1760 C   0  0  0  0  0  0  0  0  0  0  0  0
    3.9015    0.5680   -0.0249 C   0  0  1  0  0  0  0  0  0  0  0  0
    3.6455   -0.7907    0.7195 C   0  0  0  0  0  0  0  0  0  0  0  0
    2.6434   -1.3116   -0.3696 C   0  0  2  0  0  0  0  0  0  0  0  0
    4.2888    0.0857   -1.4620 C   0  0  0  0  0  0  0  0  0  0  0  0
    3.4922   -1.2372   -1.6591 C   0  0  0  0  0  0  0  0  0  0  0  0
    4.8342    1.5913    0.5897 C   0  0  0  0  0  0  0  0  0  0  0  0
    3.0453   -0.5831    2.1193 C   0  0  0  0  0  0  0  0  0  0  0  0
    4.8922   -1.6721    0.8745 C   0  0  0  0  0  0  0  0  0  0  0  0
   -1.6535    2.4643   -1.2362 O   0  0  0  0  0  0  0  0  0  0  0  0
    2.0716    2.2158   -0.0897 O   0  0  0  0  0  0  0  0  0  0  0  0
   -0.3962    1.6946    1.0610 H   0  0  0  0  0  0  0  0  0  0  0  0
   -2.3036    0.3973   -2.6143 H   0  0  0  0  0  0  0  0  0  0  0  0
   -0.5111   -2.4581    0.1540 H   0  0  0  0  0  0  0  0  0  0  0  0
    0.5380   -0.5763    1.3896 H   0  0  0  0  0  0  0  0  0  0  0  0
   -1.5220    4.4733   -0.9663 H   0  0  0  0  0  0  0  0  0  0  0  0
   -0.1583    3.5297   -0.2250 H   0  0  0  0  0  0  0  0  0  0  0  0
   -1.8033    3.5495    0.5554 H   0  0  0  0  0  0  0  0  0  0  0  0
   -2.0565   -3.2503   -1.5906 H   0  0  0  0  0  0  0  0  0  0  0  0
   -1.1478   -2.5795   -2.9778 H   0  0  0  0  0  0  0  0  0  0  0  0
   -2.8552   -2.0964   -2.7104 H   0  0  0  0  0  0  0  0  0  0  0  0
    1.2569   -0.0658   -1.5384 H   0  0  0  0  0  0  0  0  0  0  0  0
    2.2082   -2.3100   -0.1629 H   0  0  0  0  0  0  0  0  0  0  0  0
    5.3848   -0.0765   -1.5056 H   0  0  0  0  0  0  0  0  0  0  0  0
    4.0539    0.8568   -2.2230 H   0  0  0  0  0  0  0  0  0  0  0  0
    4.1663   -2.1098   -1.7588 H   0  0  0  0  0  0  0  0  0  0  0  0
    2.8519   -1.2214   -2.5629 H   0  0  0  0  0  0  0  0  0  0  0  0
    5.8747    1.2124    0.6402 H   0  0  0  0  0  0  0  0  0  0  0  0
    4.8313    2.5229   -0.0109 H   0  0  0  0  0  0  0  0  0  0  0  0
    4.5112    1.8676    1.6131 H   0  0  0  0  0  0  0  0  0  0  0  0
    2.6164   -1.5265    2.5146 H   0  0  0  0  0  0  0  0  0  0  0  0
    3.8338   -0.2580    2.8276 H   0  0  0  0  0  0  0  0  0  0  0  0
    2.2552    0.1919    2.1520 H   0  0  0  0  0  0  0  0  0  0  0  0
    4.6082   -2.6633    1.2854 H   0  0  0  0  0  0  0  0  0  0  0  0
    5.4362   -1.8481   -0.0720 H   0  0  0  0  0  0  0  0  0  0  0  0
    5.6062   -1.2128    1.5878 H   0  0  0  0  0  0  0  0  0  0  0  0
  1  6  1  0  0  0  0
  1 21  1  0  0  0  0
  2  1  1  0  0  0  0
  3  4  1  0  0  0  0
  3  2  2  0  0  0  0
  4  8  1  1  0  0  0
  4  5  1  0  0  0  0
  5 23  1  0  0  0  0
  5  6  1  0  0  0  0
  6 24  1  1  0  0  0
  7 26  1  0  0  0  0
  7 27  1  0  0  0  0
  8 28  1  0  0  0  0
  9 31  1  6  0  0  0
  9 13  1  0  0  0  0
  9 10  1  0  0  0  0
  9  6  1  0  0  0  0
 10 20  2  0  0  0  0
 10 11  1  0  0  0  0
 11 16  1  1  0  0  0
 11 12  1  0  0  0  0
 12 18  1  0  0  0  0
 12 17  1  0  0  0  0
 13 32  1  1  0  0  0
 13 12  1  0  0  0  0
 14 11  1  0  0  0  0
 15 14  1  0  0  0  0
 15 13  1  0  0  0  0
 16 37  1  0  0  0  0
 16 39  1  0  0  0  0
 17 42  1  0  0  0  0
 17 40  1  0  0  0  0
 17 41  1  0  0  0  0
 18 43  1  0  0  0  0
 18 45  1  0  0  0  0
 19  2  1  0  0  0  0
 19  7  1  0  0  0  0
 22  3  1  0  0  0  0
 25  7  1  0  0  0  0
 29  8  1  0  0  0  0
 30  8  1  0  0  0  0
 33 14  1  0  0  0  0
 34 14  1  0  0  0  0
 35 15  1  0  0  0  0
 36 15  1  0  0  0  0
 38 16  1  0  0  0  0
 44 18  1  0  0  0  0
M  END
