3
q = 0.0, confidence = 0.982

 45 49  0  0  1  0  0  0  0  0999 V2000
    1.0692   -1.4912    0.1054 N   0  0  0  0  0  0  0  0  0  0  0  0
   -1.1155   -1.4544    0.3006 N   0  0  0  0  0  0  0  0  0  0  0  0
   -0.0190   -0.6743    0.1172 C   0  0  0  0  0  2  0  0  0  0  0  0
    0.7210   -2.9077    0.3744 C   0  0  2  0  0  0  0  0  0  0  0  0
   -0.8100   -2.8967    0.1559 C   0  0  2  0  0  0  0  0  0  0  0  0
    2.3730   -1.1018   -0.3115 C   0  0  0  0  0  0  0  0  0  0  0  0
    2.5288   -0.4508   -1.5500 C   0  0  0  0  0  0  0  0  0  0  0  0
    3.8051   -0.0545   -1.9720 C   0  0  0  0  0  0  0  0  0  0  0  0
    4.9235   -0.3242   -1.1680 C   0  0  0  0  0  0  0  0  0  0  0  0
    4.7567   -0.9751    0.0631 C   0  0  0  0  0  0  0  0  0  0  0  0
    3.4838   -1.3651    0.5258 C   0  0  0  0  0  0  0  0  0  0  0  0
    3.3180   -1.9538    1.9098 C   0  0  0  0  0  0  0  0  0  0  0  0
    2.6675   -3.3466    1.9971 C   0  0  0  0  0  0  0  0  0  0  0  0
    1.1540   -3.3611    1.7702 C   0  0  0  0  0  0  0  0  0  0  0  0
   -1.2087   -3.4397   -1.2207 C   0  0  0  0  0  0  0  0  0  0  0  0
   -2.7042   -3.3793   -1.5364 C   0  0  0  0  0  0  0  0  0  0  0  0
   -3.2724   -1.9536   -1.6469 C   0  0  0  0  0  0  0  0  0  0  0  0
   -3.4896   -1.2237   -0.3447 C   0  0  0  0  0  0  0  0  0  0  0  0
   -4.7616   -0.7127   -0.0155 C   0  0  0  0  0  0  0  0  0  0  0  0
   -4.9811    0.0463    1.1421 C   0  0  0  0  0  0  0  0  0  0  0  0
   -3.9160    0.3015    2.0192 C   0  0  0  0  0  0  0  0  0  0  0  0
   -2.6474   -0.2126    1.7267 C   0  0  0  0  0  0  0  0  0  0  0  0
   -2.4282   -0.9593    0.5542 C   0  0  0  0  0  0  0  0  0  0  0  0
    1.2156   -3.5401   -0.3930 H   0  0  0  0  0  0  0  0  0  0  0  0
   -1.3340   -3.4570    0.9593 H   0  0  0  0  0  0  0  0  0  0  0  0
    1.6349   -0.2587   -2.1642 H   0  0  0  0  0  0  0  0  0  0  0  0
    3.9224    0.4572   -2.9391 H   0  0  0  0  0  0  0  0  0  0  0  0
    5.9300   -0.0244   -1.4969 H   0  0  0  0  0  0  0  0  0  0  0  0
    5.6323   -1.1679    0.7031 H   0  0  0  0  0  0  0  0  0  0  0  0
    2.7137   -1.2466    2.5247 H   0  0  0  0  0  0  0  0  0  0  0  0
    4.3182   -1.9943    2.3856 H   0  0  0  0  0  0  0  0  0  0  0  0
    3.1629   -4.0301    1.2729 H   0  0  0  0  0  0  0  0  0  0  0  0
    2.8713   -3.7642    3.0050 H   0  0  0  0  0  0  0  0  0  0  0  0
    0.7635   -4.3892    1.9297 H   0  0  0  0  0  0  0  0  0  0  0  0
    0.6512   -2.7095    2.5189 H   0  0  0  0  0  0  0  0  0  0  0  0
   -0.8547   -4.4921   -1.2773 H   0  0  0  0  0  0  0  0  0  0  0  0
   -0.6459   -2.8634   -1.9873 H   0  0  0  0  0  0  0  0  0  0  0  0
   -2.8677   -3.8929   -2.5066 H   0  0  0  0  0  0  0  0  0  0  0  0
   -3.2777   -3.9596   -0.7794 H   0  0  0  0  0  0  0  0  0  0  0  0
   -2.5810   -1.3328   -2.2632 H   0  0  0  0  0  0  0  0  0  0  0  0
   -4.2402   -1.9906   -2.1855 H   0  0  0  0  0  0  0  0  0  0  0  0
   -5.5961   -0.9029   -0.7088 H   0  0  0  0  0  0  0  0  0  0  0  0
   -5.9864    0.4374    1.3597 H   0  0  0  0  0  0  0  0  0  0  0  0
   -4.0724    0.8896    2.9359 H   0  0  0  0  0  0  0  0  0  0  0  0
   -1.8027   -0.0457    2.4078 H   0  0  0  0  0  0  0  0  0  0  0  0
  1  3  1  0  0  0  0
  1  4  1  0  0  0  0
  2 23  1  0  0  0  0
  3  2  1  0  0  0  0
  4 24  1  6  0  0  0
  4 14  1  0  0  0  0
  5  2  1  0  0  0  0
  5  4  1  0  0  0  0
  5 25  1  1  0  0  0
  6  1  1  0  0  0  0
  6 11  1  0  0  0  0
  7  6  2  0  0  0  0
  8  7  1  0  0  0  0
  8  9  2  0  0  0  0
  9 10  1  0  0  0  0
 10 11  2  0  0  0  0
 10 29  1  0  0  0  0
 11 12  1  0  0  0  0
 12 13  1  0  0  0  0
 12 31  1  0  0  0  0
 12 30  1  0  0  0  0
 13 33  1  0  0  0  0
 14 34  1  0  0  0  0
 14 13  1  0  0  0  0
 14 35  1  0  0  0  0
 15  5  1  0  0  0  0
 16 15  1  0  0  0  0
 16 39  1  0  0  0  0
 17 16  1  0  0  0  0
 17 18  1  0  0  0  0
 18 19  2  0  0  0  0
 18 23  1  0  0  0  0
 19 20  1  0  0  0  0
 20 43  1  0  0  0  0
 20 21  2  0  0  0  0
 21 44  1  0  0  0  0
 22 21  1  0  0  0  0
 22 45  1  0  0  0  0
 23 22  2  0  0  0  0
 26  7  1  0  0  0  0
 27  8  1  0  0  0  0
 28  9  1  0  0  0  0
 32 13  1  0  0  0  0
 36 15  1  0  0  0  0
 37 15  1  0  0  0  0
 38 16  1  0  0  0  0
 40 17  1  0  0  0  0
 41 17  1  0  0  0  0
 42 19  1  0  0  0  0
M  END
