7
q = -1.0

 57 61  0  0  1  0  0  0  0  0999 V2000
    1.4783   -1.2426    2.1811 O   0  0  0  0  0  0  0  0  0  0  0  0
    2.3267   -0.9086    1.7890 H   0  0  0  0  0  0  0  0  0  0  0  0
    0.4760   -0.6526    1.5050 C   0  0  0  0  0  0  0  0  0  0  0  0
   -0.6976   -1.3540    1.0435 C   0  0  0  0  0  0  0  0  0  0  0  0
   -1.6207   -0.3609    0.5013 C   0  0  0  0  0  0  0  0  0  0  0  0
   -0.9712    0.9271    0.5718 C   0  0  0  0  0  0  0  0  0  0  0  0
    0.3466    0.7540    1.1764 C   0  0  1  0  0  3  0  0  0  0  0  0
   -0.9645   -2.7898    1.2875 C   0  0  0  0  0  0  0  0  0  0  0  0
    0.0153   -3.7677    1.0119 C   0  0  0  0  0  0  0  0  0  0  0  0
    0.9759   -3.4550    0.5783 H   0  0  0  0  0  0  0  0  0  0  0  0
   -0.2348   -5.1199    1.2765 C   0  0  0  0  0  0  0  0  0  0  0  0
    0.5370   -5.8707    1.0489 H   0  0  0  0  0  0  0  0  0  0  0  0
   -1.4670   -5.5179    1.8207 C   0  0  0  0  0  0  0  0  0  0  0  0
   -1.6647   -6.5816    2.0226 H   0  0  0  0  0  0  0  0  0  0  0  0
   -2.4447   -4.5522    2.1044 C   0  0  0  0  0  0  0  0  0  0  0  0
   -3.4116   -4.8541    2.5350 H   0  0  0  0  0  0  0  0  0  0  0  0
   -2.1970   -3.1973    1.8420 C   0  0  0  0  0  0  0  0  0  0  0  0
   -2.9642   -2.4443    2.0715 H   0  0  0  0  0  0  0  0  0  0  0  0
   -3.0144   -0.6130    0.0714 C   0  0  0  0  0  0  0  0  0  0  0  0
   -3.3368   -1.6380   -0.8447 C   0  0  0  0  0  0  0  0  0  0  0  0
   -2.5290   -2.2402   -1.2851 H   0  0  0  0  0  0  0  0  0  0  0  0
   -4.6656   -1.8857   -1.2012 C   0  0  0  0  0  0  0  0  0  0  0  0
   -4.8889   -2.6903   -1.9198 H   0  0  0  0  0  0  0  0  0  0  0  0
   -5.7244   -1.1205   -0.6656 C   0  0  0  0  0  0  0  0  0  0  0  0
   -5.3977   -0.1000    0.2480 C   0  0  0  0  0  0  0  0  0  0  0  0
   -6.2029    0.5108    0.6863 H   0  0  0  0  0  0  0  0  0  0  0  0
   -4.0682    0.1518    0.6139 C   0  0  0  0  0  0  0  0  0  0  0  0
   -3.8415    0.9499    1.3359 H   0  0  0  0  0  0  0  0  0  0  0  0
   -7.1505   -1.3819   -1.0784 C   0  0  0  0  0  0  0  0  0  0  0  0
   -7.3265   -1.0694   -2.1299 H   0  0  0  0  0  0  0  0  0  0  0  0
   -7.8688   -0.8297   -0.4419 H   0  0  0  0  0  0  0  0  0  0  0  0
   -7.3985   -2.4615   -1.0208 H   0  0  0  0  0  0  0  0  0  0  0  0
   -1.5931    2.2235    0.2126 C   0  0  0  0  0  0  0  0  0  0  0  0
   -2.2689    2.4086   -1.0127 C   0  0  0  0  0  0  0  0  0  0  0  0
   -2.2977    1.5840   -1.7398 H   0  0  0  0  0  0  0  0  0  0  0  0
   -2.8929    3.6244   -1.3061 C   0  0  0  0  0  0  0  0  0  0  0  0
   -3.4103    3.7451   -2.2710 H   0  0  0  0  0  0  0  0  0  0  0  0
   -2.8676    4.7011   -0.3933 C   0  0  0  0  0  0  0  0  0  0  0  0
   -2.1966    4.5085    0.8296 C   0  0  0  0  0  0  0  0  0  0  0  0
   -2.1652    5.3289    1.5640 H   0  0  0  0  0  0  0  0  0  0  0  0
   -1.5676    3.2926    1.1314 C   0  0  0  0  0  0  0  0  0  0  0  0
   -1.0553    3.1669    2.0963 H   0  0  0  0  0  0  0  0  0  0  0  0
   -3.5195    6.0168   -0.7342 C   0  0  0  0  0  0  0  0  0  0  0  0
   -3.6172    6.6685    0.1555 H   0  0  0  0  0  0  0  0  0  0  0  0
   -4.5297    5.8697   -1.1676 H   0  0  0  0  0  0  0  0  0  0  0  0
   -2.9245    6.5723   -1.4905 H   0  0  0  0  0  0  0  0  0  0  0  0
    1.3259    1.8032    1.5381 C   0  0  0  0  0  0  0  0  0  0  0  0
    1.6652    2.8431    0.6448 C   0  0  0  0  0  0  0  0  0  0  0  0
    1.2105    2.8642   -0.3560 H   0  0  0  0  0  0  0  0  0  0  0  0
    2.5843    3.8308    1.0173 C   0  0  0  0  0  0  0  0  0  0  0  0
    2.8399    4.6307    0.3060 H   0  0  0  0  0  0  0  0  0  0  0  0
    3.1894    3.7949    2.2853 C   0  0  0  0  0  0  0  0  0  0  0  0
    3.9182    4.5677    2.5726 H   0  0  0  0  0  0  0  0  0  0  0  0
    2.8627    2.7644    3.1792 C   0  0  0  0  0  0  0  0  0  0  0  0
    3.3303    2.7278    4.1750 H   0  0  0  0  0  0  0  0  0  0  0  0
    1.9363    1.7767    2.8115 C   0  0  0  0  0  0  0  0  0  0  0  0
    1.6804    0.9711    3.5148 H   0  0  0  0  0  0  0  0  0  0  0  0
  2  1  1  0  0  0  0
  3  1  1  0  0  0  0
  4  8  1  0  0  0  0
  4  3  2  0  0  0  0
  5  6  2  0  0  0  0
  5  4  1  0  0  0  0
  6  7  1  0  0  0  0
  7  3  1  0  0  0  0
  7 47  1  1  0  0  0
  8 17  1  0  0  0  0
  9 11  1  0  0  0  0
  9  8  2  0  0  0  0
 10  9  1  0  0  0  0
 11 13  2  0  0  0  0
 12 11  1  0  0  0  0
 13 14  1  0  0  0  0
 13 15  1  0  0  0  0
 15 16  1  0  0  0  0
 17 18  1  0  0  0  0
 17 15  2  0  0  0  0
 19  5  1  0  0  0  0
 19 27  1  0  0  0  0
 20 19  2  0  0  0  0
 21 20  1  0  0  0  0
 22 20  1  0  0  0  0
 22 24  2  0  0  0  0
 23 22  1  0  0  0  0
 24 25  1  0  0  0  0
 25 27  2  0  0  0  0
 25 26  1  0  0  0  0
 27 28  1  0  0  0  0
 29 32  1  0  0  0  0
 29 24  1  0  0  0  0
 29 31  1  0  0  0  0
 30 29  1  0  0  0  0
 33  6  1  0  0  0  0
 33 41  1  0  0  0  0
 34 33  2  0  0  0  0
 35 34  1  0  0  0  0
 36 34  1  0  0  0  0
 36 38  2  0  0  0  0
 37 36  1  0  0  0  0
 38 39  1  0  0  0  0
 39 41  2  0  0  0  0
 39 40  1  0  0  0  0
 41 42  1  0  0  0  0
 43 38  1  0  0  0  0
 43 44  1  0  0  0  0
 45 43  1  0  0  0  0
 46 43  1  0  0  0  0
 47 56  1  0  0  0  0
 48 50  1  0  0  0  0
 48 47  2  0  0  0  0
 49 48  1  0  0  0  0
 50 52  2  0  0  0  0
 51 50  1  0  0  0  0
 52 53  1  0  0  0  0
 52 54  1  0  0  0  0
 54 55  1  0  0  0  0
 56 54  2  0  0  0  0
 56 57  1  0  0  0  0
M  END
