10
q = -1.0, confidence = 0.002

 48 50  0  0  0  0  0  0  0  0999 V2000
    1.1842    0.3799   -0.5971 P   0  0  0  0  0  0  0  0  0  0  0  0
   -1.5428   -0.2568   -1.8277 N   0  0  0  0  0  0  0  0  0  0  0  0
   -2.5546   -0.5264    0.1291 N   0  0  0  0  0  0  0  0  0  0  0  0
    0.6402    0.7824   -2.3488 C   0  0  0  0  0  0  0  0  0  0  0  0
    0.3023    1.8375   -2.3756 H   0  0  0  0  0  0  0  0  0  0  0  0
    1.5236    0.6905   -3.0115 H   0  0  0  0  0  0  0  0  0  0  0  0
   -0.4789   -0.1596   -2.8089 C   0  0  0  0  0  0  0  0  0  0  0  0
   -0.9152    0.2050   -3.7599 H   0  0  0  0  0  0  0  0  0  0  0  0
   -0.0651   -1.1667   -3.0141 H   0  0  0  0  0  0  0  0  0  0  0  0
   -1.4023   -0.7351   -0.5247 C   0  0  0  0  0  3  0  0  0  0  0  0
   -2.8184    0.2891   -1.9629 C   0  0  0  0  0  0  0  0  0  0  0  0
   -3.1627    0.7163   -2.9100 H   0  0  0  0  0  0  0  0  0  0  0  0
   -3.4333    0.0990   -0.7351 C   0  0  0  0  0  0  0  0  0  0  0  0
   -4.8297    0.4848   -0.2851 C   0  0  0  0  0  0  0  0  0  0  0  0
   -5.6066    1.1379   -1.4390 C   0  0  0  0  0  0  0  0  0  0  0  0
   -5.7109    0.4434   -2.2976 H   0  0  0  0  0  0  0  0  0  0  0  0
   -5.0963    2.0550   -1.7992 H   0  0  0  0  0  0  0  0  0  0  0  0
   -6.6261    1.4258   -1.1097 H   0  0  0  0  0  0  0  0  0  0  0  0
   -5.5697   -0.7828    0.1926 C   0  0  0  0  0  0  0  0  0  0  0  0
   -5.6903   -1.5059   -0.6397 H   0  0  0  0  0  0  0  0  0  0  0  0
   -6.5774   -0.5300    0.5841 H   0  0  0  0  0  0  0  0  0  0  0  0
   -4.9910   -1.2826    0.9936 H   0  0  0  0  0  0  0  0  0  0  0  0
   -4.7107    1.4778    0.8917 C   0  0  0  0  0  0  0  0  0  0  0  0
   -4.0877    1.0423    1.6974 H   0  0  0  0  0  0  0  0  0  0  0  0
   -5.7103    1.7270    1.3058 H   0  0  0  0  0  0  0  0  0  0  0  0
   -4.2283    2.4213    0.5618 H   0  0  0  0  0  0  0  0  0  0  0  0
    3.0203    0.5706   -0.6996 C   0  0  0  0  0  0  0  0  0  0  0  0
    3.8623   -0.4240   -0.1706 C   0  0  0  0  0  0  0  0  0  0  0  0
    3.4022   -1.3142    0.2835 H   0  0  0  0  0  0  0  0  0  0  0  0
    5.2578   -0.2791   -0.2318 C   0  0  0  0  0  0  0  0  0  0  0  0
    5.9082   -1.0640    0.1835 H   0  0  0  0  0  0  0  0  0  0  0  0
    5.8209    0.8618   -0.8232 C   0  0  0  0  0  0  0  0  0  0  0  0
    6.9146    0.9758   -0.8723 H   0  0  0  0  0  0  0  0  0  0  0  0
    4.9858    1.8609   -1.3522 C   0  0  0  0  0  0  0  0  0  0  0  0
    5.4238    2.7598   -1.8124 H   0  0  0  0  0  0  0  0  0  0  0  0
    3.5925    1.7181   -1.2900 C   0  0  0  0  0  0  0  0  0  0  0  0
    2.9449    2.5142   -1.6896 H   0  0  0  0  0  0  0  0  0  0  0  0
    0.6853    1.8794    0.3576 C   0  0  0  0  0  0  0  0  0  0  0  0
    1.5537    2.4567    1.3070 C   0  0  0  0  0  0  0  0  0  0  0  0
    2.5861    2.0875    1.4036 H   0  0  0  0  0  0  0  0  0  0  0  0
    1.1110    3.5052    2.1288 C   0  0  0  0  0  0  0  0  0  0  0  0
    1.7993    3.9475    2.8653 H   0  0  0  0  0  0  0  0  0  0  0  0
   -0.2014    3.9881    2.0108 C   0  0  0  0  0  0  0  0  0  0  0  0
   -0.5492    4.8085    2.6567 H   0  0  0  0  0  0  0  0  0  0  0  0
   -1.0696    3.4169    1.0659 C   0  0  0  0  0  0  0  0  0  0  0  0
   -2.1033    3.7825    0.9706 H   0  0  0  0  0  0  0  0  0  0  0  0
   -0.6356    2.3669    0.2442 C   0  0  0  0  0  0  0  0  0  0  0  0
   -1.3437    1.9211   -0.4713 H   0  0  0  0  0  0  0  0  0  0  0  0
  1 38  1  0  0  0  0
  2 10  1  0  0  0  0
  4  1  1  0  0  0  0
  5  4  1  0  0  0  0
  6  4  1  0  0  0  0
  7  4  1  0  0  0  0
  7  2  1  0  0  0  0
  8  7  1  0  0  0  0
  9  7  1  0  0  0  0
 10  3  2  0  0  0  0
 11  2  1  0  0  0  0
 11 13  2  0  0  0  0
 12 11  1  0  0  0  0
 13 14  1  0  0  0  0
 13  3  1  0  0  0  0
 14 19  1  0  0  0  0
 14 23  1  0  0  0  0
 15 18  1  0  0  0  0
 15 14  1  0  0  0  0
 16 15  1  0  0  0  0
 17 15  1  0  0  0  0
 19 21  1  0  0  0  0
 19 22  1  0  0  0  0
 20 19  1  0  0  0  0
 23 25  1  0  0  0  0
 23 24  1  0  0  0  0
 26 23  1  0  0  0  0
 27  1  1  0  0  0  0
 27 28  1  0  0  0  0
 28 29  1  0  0  0  0
 30 28  2  0  0  0  0
 30 31  1  0  0  0  0
 32 30  1  0  0  0  0
 33 32  1  0  0  0  0
 34 36  1  0  0  0  0
 34 32  2  0  0  0  0
 35 34  1  0  0  0  0
 36 27  2  0  0  0  0
 37 36  1  0  0  0  0
 38 39  1  0  0  0  0
 39 40  1  0  0  0  0
 39 41  2  0  0  0  0
 41 42  1  0  0  0  0
 43 41  1  0  0  0  0
 43 44  1  0  0  0  0
 45 43  2  0  0  0  0
 46 45  1  0  0  0  0
 47 38  2  0  0  0  0
 47 45  1  0  0  0  0
 48 47  1  0  0  0  0
M  END
