5
q = 0.0, confidence = 0.996

 49 51  0  0  0  0  0  0  0  0999 V2000
   -1.2834    0.2262   -0.5832 P   0  0  0  0  0  0  0  0  0  0  0  0
    2.8973   -0.1065    0.1839 N   0  0  0  0  0  0  0  0  0  0  0  0
    3.1488   -0.0620    1.1689 H   0  0  0  0  0  0  0  0  0  0  0  0
    1.7146   -0.3983   -1.5875 N   0  0  0  0  0  0  0  0  0  0  0  0
    1.6071   -0.3815   -0.2142 C   0  0  0  0  0  2  0  0  0  0  0  0
    3.0193   -0.1382   -2.0040 C   0  0  0  0  0  0  0  0  0  0  0  0
    3.2950   -0.1169   -3.0614 H   0  0  0  0  0  0  0  0  0  0  0  0
    3.7851    0.0430   -0.8783 C   0  0  0  0  0  0  0  0  0  0  0  0
    5.2548    0.3372   -0.6884 C   0  0  0  0  0  0  0  0  0  0  0  0
    5.4196    1.6808    0.0585 C   0  0  0  0  0  0  0  0  0  0  0  0
    4.9354    1.6576    1.0564 H   0  0  0  0  0  0  0  0  0  0  0  0
    4.9662    2.5120   -0.5175 H   0  0  0  0  0  0  0  0  0  0  0  0
    6.4936    1.9093    0.2148 H   0  0  0  0  0  0  0  0  0  0  0  0
    5.9053   -0.7975    0.1358 C   0  0  0  0  0  0  0  0  0  0  0  0
    5.4428   -0.8942    1.1396 H   0  0  0  0  0  0  0  0  0  0  0  0
    6.9859   -0.5972    0.2857 H   0  0  0  0  0  0  0  0  0  0  0  0
    5.7977   -1.7727   -0.3790 H   0  0  0  0  0  0  0  0  0  0  0  0
    5.9389    0.4283   -2.0627 C   0  0  0  0  0  0  0  0  0  0  0  0
    5.8442   -0.5242   -2.6217 H   0  0  0  0  0  0  0  0  0  0  0  0
    7.0189    0.6448   -1.9398 H   0  0  0  0  0  0  0  0  0  0  0  0
    5.4977    1.2378   -2.6783 H   0  0  0  0  0  0  0  0  0  0  0  0
    0.5879   -0.6449   -2.4821 C   0  0  0  0  0  0  0  0  0  0  0  0
    0.2015   -1.6640   -2.2668 H   0  0  0  0  0  0  0  0  0  0  0  0
    0.9750   -0.6171   -3.5196 H   0  0  0  0  0  0  0  0  0  0  0  0
   -0.5188    0.3940   -2.2908 C   0  0  0  0  0  0  0  0  0  0  0  0
   -1.3076    0.2524   -3.0549 H   0  0  0  0  0  0  0  0  0  0  0  0
   -0.1153    1.4203   -2.4034 H   0  0  0  0  0  0  0  0  0  0  0  0
   -1.7292    1.9806   -0.1897 C   0  0  0  0  0  0  0  0  0  0  0  0
   -0.6929    2.9400   -0.1734 C   0  0  0  0  0  0  0  0  0  0  0  0
    0.3300    2.6397   -0.4530 H   0  0  0  0  0  0  0  0  0  0  0  0
   -0.9454    4.2575    0.2299 C   0  0  0  0  0  0  0  0  0  0  0  0
   -0.1285    4.9956    0.2299 H   0  0  0  0  0  0  0  0  0  0  0  0
   -2.2350    4.6334    0.6461 C   0  0  0  0  0  0  0  0  0  0  0  0
   -2.4327    5.6665    0.9700 H   0  0  0  0  0  0  0  0  0  0  0  0
   -3.2643    3.6812    0.6555 C   0  0  0  0  0  0  0  0  0  0  0  0
   -4.2744    3.9637    0.9900 H   0  0  0  0  0  0  0  0  0  0  0  0
   -3.0156    2.3620    0.2385 C   0  0  0  0  0  0  0  0  0  0  0  0
   -3.8300    1.6227    0.2497 H   0  0  0  0  0  0  0  0  0  0  0  0
   -2.9281   -0.5373   -0.9575 C   0  0  0  0  0  0  0  0  0  0  0  0
   -3.7954    0.0130   -1.9257 C   0  0  0  0  0  0  0  0  0  0  0  0
   -3.5026    0.9188   -2.4808 H   0  0  0  0  0  0  0  0  0  0  0  0
   -5.0455   -0.5730   -2.1719 C   0  0  0  0  0  0  0  0  0  0  0  0
   -5.7187   -0.1335   -2.9240 H   0  0  0  0  0  0  0  0  0  0  0  0
   -5.4370   -1.7175   -1.4561 C   0  0  0  0  0  0  0  0  0  0  0  0
   -6.4172   -2.1793   -1.6512 H   0  0  0  0  0  0  0  0  0  0  0  0
   -4.5751   -2.2718   -0.4978 C   0  0  0  0  0  0  0  0  0  0  0  0
   -4.8733   -3.1756    0.0554 H   0  0  0  0  0  0  0  0  0  0  0  0
   -3.3240   -1.6852   -0.2463 C   0  0  0  0  0  0  0  0  0  0  0  0
   -2.6185   -2.1264    0.4745 H   0  0  0  0  0  0  0  0  0  0  0  0
  1 28  1  0  0  0  0
  2  3  1  0  0  0  0
  4  5  1  0  0  0  0
  5  2  1  0  0  0  0
  6  4  1  0  0  0  0
  6  8  2  0  0  0  0
  7  6  1  0  0  0  0
  8  9  1  0  0  0  0
  8  2  1  0  0  0  0
  9 10  1  0  0  0  0
  9 14  1  0  0  0  0
 10 13  1  0  0  0  0
 10 11  1  0  0  0  0
 12 10  1  0  0  0  0
 14 16  1  0  0  0  0
 14 15  1  0  0  0  0
 17 14  1  0  0  0  0
 18 20  1  0  0  0  0
 18  9  1  0  0  0  0
 19 18  1  0  0  0  0
 21 18  1  0  0  0  0
 22 25  1  0  0  0  0
 22 23  1  0  0  0  0
 22  4  1  0  0  0  0
 24 22  1  0  0  0  0
 25  1  1  0  0  0  0
 26 25  1  0  0  0  0
 27 25  1  0  0  0  0
 28 29  2  0  0  0  0
 28 37  1  0  0  0  0
 29 31  1  0  0  0  0
 30 29  1  0  0  0  0
 31 32  1  0  0  0  0
 31 33  2  0  0  0  0
 33 35  1  0  0  0  0
 33 34  1  0  0  0  0
 35 36  1  0  0  0  0
 37 38  1  0  0  0  0
 37 35  2  0  0  0  0
 39  1  1  0  0  0  0
 39 48  1  0  0  0  0
 40 39  2  0  0  0  0
 41 40  1  0  0  0  0
 42 40  1  0  0  0  0
 42 44  2  0  0  0  0
 43 42  1  0  0  0  0
 44 46  1  0  0  0  0
 45 44  1  0  0  0  0
 46 48  2  0  0  0  0
 46 47  1  0  0  0  0
 48 49  1  0  0  0  0
M  END
