4
q = -1.0

 35 37  0  0  0  0  0  0  0  0999 V2000
   -2.2413   -0.6387    0.6078 N   0  0  0  0  0  0  0  0  0  0  0  0
    2.2412   -0.6387    0.6078 N   0  0  0  0  0  0  0  0  0  0  0  0
   -1.2246    2.0593   -0.6561 C   0  0  0  0  0  0  0  0  0  0  0  0
    0.0000    1.3643   -0.8129 C   0  0  0  0  0  3  0  0  0  0  0  0
    1.2246    2.0593   -0.6561 C   0  0  0  0  0  0  0  0  0  0  0  0
    1.2099    3.4373   -0.3578 C   0  0  0  0  0  0  0  0  0  0  0  0
    0.0001    4.1269   -0.2130 C   0  0  0  0  0  0  0  0  0  0  0  0
   -1.2098    3.4374   -0.3578 C   0  0  0  0  0  0  0  0  0  0  0  0
   -2.5682    1.3512   -0.7602 C   0  0  0  0  0  0  0  0  0  0  0  0
   -2.9002    0.5272    0.4714 C   0  0  0  0  0  0  0  0  0  0  0  0
   -3.8323    0.9565    1.4362 C   0  0  0  0  0  0  0  0  0  0  0  0
   -4.0791    0.1432    2.5513 C   0  0  0  0  0  0  0  0  0  0  0  0
   -3.3935   -1.0744    2.6749 C   0  0  0  0  0  0  0  0  0  0  0  0
   -2.4774   -1.4204    1.6698 C   0  0  0  0  0  0  0  0  0  0  0  0
    2.5682    1.3511   -0.7603 C   0  0  0  0  0  0  0  0  0  0  0  0
    2.9002    0.5272    0.4714 C   0  0  0  0  0  0  0  0  0  0  0  0
    3.8324    0.9564    1.4361 C   0  0  0  0  0  0  0  0  0  0  0  0
    4.0792    0.1431    2.5512 C   0  0  0  0  0  0  0  0  0  0  0  0
    3.3935   -1.0744    2.6749 C   0  0  0  0  0  0  0  0  0  0  0  0
    2.4773   -1.4204    1.6698 C   0  0  0  0  0  0  0  0  0  0  0  0
    2.1652    3.9749   -0.2452 H   0  0  0  0  0  0  0  0  0  0  0  0
    0.0001    5.2044    0.0111 H   0  0  0  0  0  0  0  0  0  0  0  0
   -2.1651    3.9749   -0.2452 H   0  0  0  0  0  0  0  0  0  0  0  0
   -2.5606    0.6663   -1.6333 H   0  0  0  0  0  0  0  0  0  0  0  0
   -3.3681    2.0980   -0.9272 H   0  0  0  0  0  0  0  0  0  0  0  0
   -4.3579    1.9146    1.3075 H   0  0  0  0  0  0  0  0  0  0  0  0
   -4.8052    0.4567    3.3171 H   0  0  0  0  0  0  0  0  0  0  0  0
   -3.5646   -1.7445    3.5300 H   0  0  0  0  0  0  0  0  0  0  0  0
   -1.9088   -2.3668    1.7034 H   0  0  0  0  0  0  0  0  0  0  0  0
    3.3681    2.0978   -0.9274 H   0  0  0  0  0  0  0  0  0  0  0  0
    2.5605    0.6662   -1.6333 H   0  0  0  0  0  0  0  0  0  0  0  0
    4.3581    1.9145    1.3073 H   0  0  0  0  0  0  0  0  0  0  0  0
    4.8054    0.4566    3.3170 H   0  0  0  0  0  0  0  0  0  0  0  0
    3.5647   -1.7445    3.5300 H   0  0  0  0  0  0  0  0  0  0  0  0
    1.9087   -2.3668    1.7035 H   0  0  0  0  0  0  0  0  0  0  0  0
  1 14  1  0  0  0  0
  2 20  1  0  0  0  0
  3  8  1  0  0  0  0
  4  5  1  0  0  0  0
  4  3  2  0  0  0  0
  5  6  2  0  0  0  0
  6 21  1  0  0  0  0
  6  7  1  0  0  0  0
  7 22  1  0  0  0  0
  8 23  1  0  0  0  0
  8  7  2  0  0  0  0
  9  3  1  0  0  0  0
  9 10  1  0  0  0  0
 10  1  2  0  0  0  0
 10 11  1  0  0  0  0
 11 12  2  0  0  0  0
 12 13  1  0  0  0  0
 12 27  1  0  0  0  0
 13 28  1  0  0  0  0
 14 29  1  0  0  0  0
 14 13  2  0  0  0  0
 15  5  1  0  0  0  0
 15 16  1  0  0  0  0
 16  2  2  0  0  0  0
 16 17  1  0  0  0  0
 17 18  2  0  0  0  0
 18 19  1  0  0  0  0
 18 33  1  0  0  0  0
 19 34  1  0  0  0  0
 20 35  1  0  0  0  0
 20 19  2  0  0  0  0
 24  9  1  0  0  0  0
 25  9  1  0  0  0  0
 26 11  1  0  0  0  0
 30 15  1  0  0  0  0
 31 15  1  0  0  0  0
 32 17  1  0  0  0  0
M  END
