1
q = -1.0, confidence = 0.026

 33 32  0  0  1  0  0  0  0  0999 V2000
    1.3376   -1.2355   -0.3427 C   0  0  0  0  0  2  0  0  0  0  0  0
    2.0506   -0.1889    0.1691 C   0  0  2  0  0  3  0  0  0  0  0  0
    1.3155    0.9279    0.8187 C   0  0  0  0  0  0  0  0  0  0  0  0
    1.2996    2.2003    0.3323 C   0  0  0  0  0  0  0  0  0  0  0  0
    1.9170   -2.2893   -1.2199 C   0  0  0  0  0  0  0  0  0  0  0  0
    1.7371   -2.2925   -2.4333 O   0  0  0  0  0  0  0  0  0  0  0  0
    2.5690   -3.2475   -0.5462 O   0  0  0  0  0  0  0  0  0  0  0  0
    3.1738   -4.2623   -1.3537 C   0  0  0  0  0  0  0  0  0  0  0  0
    2.4347   -4.7103   -2.0475 H   0  0  0  0  0  0  0  0  0  0  0  0
    3.5587   -5.0228   -0.6514 H   0  0  0  0  0  0  0  0  0  0  0  0
    4.0049   -3.8292   -1.9467 H   0  0  0  0  0  0  0  0  0  0  0  0
    3.5334   -0.1364    0.0154 C   0  0  0  0  0  0  0  0  0  0  0  0
    4.1941   -0.8305   -0.7411 O   0  0  0  0  0  0  0  0  0  0  0  0
    4.0815    0.7858    0.8488 O   0  0  0  0  0  0  0  0  0  0  0  0
    5.4955    0.9463    0.7290 C   0  0  0  0  0  0  0  0  0  0  0  0
    6.0219   -0.0128    0.9089 H   0  0  0  0  0  0  0  0  0  0  0  0
    5.7850    1.6961    1.4868 H   0  0  0  0  0  0  0  0  0  0  0  0
    5.7644    1.3031   -0.2867 H   0  0  0  0  0  0  0  0  0  0  0  0
    0.3904    0.6035    1.9660 C   0  0  0  0  0  0  0  0  0  0  0  0
   -0.7152    1.1019    2.1387 O   0  0  0  0  0  0  0  0  0  0  0  0
    0.9554   -0.2985    2.7840 O   0  0  0  0  0  0  0  0  0  0  0  0
    0.1368   -0.7830    3.8577 C   0  0  0  0  0  0  0  0  0  0  0  0
   -0.4134    0.0493    4.3381 H   0  0  0  0  0  0  0  0  0  0  0  0
    0.8263   -1.2696    4.5700 H   0  0  0  0  0  0  0  0  0  0  0  0
   -0.5769   -1.5311    3.4547 H   0  0  0  0  0  0  0  0  0  0  0  0
    0.3765    3.2787    0.8232 C   0  0  0  0  0  0  0  0  0  0  0  0
   -0.4771    3.8019    0.1295 O   0  0  0  0  0  0  0  0  0  0  0  0
    0.6281    3.5918    2.1083 O   0  0  0  0  0  0  0  0  0  0  0  0
   -0.3506    4.4282    2.7375 C   0  0  0  0  0  0  0  0  0  0  0  0
   -0.5700    5.3195    2.1173 H   0  0  0  0  0  0  0  0  0  0  0  0
    0.0760    4.7219    3.7128 H   0  0  0  0  0  0  0  0  0  0  0  0
   -1.2850    3.8488    2.8849 H   0  0  0  0  0  0  0  0  0  0  0  0
    2.2760    2.6968   -1.2118 Br  0  0  0  0  0  0  0  0  0  0  0  0
  2  1  1  6  0  0  0
  2  3  1  0  0  0  0
  3 19  1  0  0  0  0
  4  3  2  0  0  0  0
  4 26  1  0  0  0  0
  5  7  1  0  0  0  0
  5  1  1  0  0  0  0
  6  5  2  0  0  0  0
  8 10  1  0  0  0  0
  8  7  1  0  0  0  0
  9  8  1  0  0  0  0
 11  8  1  0  0  0  0
 12  2  1  0  0  0  0
 12 14  1  0  0  0  0
 13 12  2  0  0  0  0
 15 14  1  0  0  0  0
 15 16  1  0  0  0  0
 15 17  1  0  0  0  0
 18 15  1  0  0  0  0
 19 20  2  0  0  0  0
 19 21  1  0  0  0  0
 21 22  1  0  0  0  0
 22 23  1  0  0  0  0
 22 24  1  0  0  0  0
 25 22  1  0  0  0  0
 26 28  1  0  0  0  0
 27 26  2  0  0  0  0
 28 29  1  0  0  0  0
 29 32  1  0  0  0  0
 29 31  1  0  0  0  0
 30 29  1  0  0  0  0
 33  4  1  0  0  0  0
M  END
