4
q = -1.0

 29 31  0  0  0  0  0  0  0  0999 V2000
    2.3276   -1.5086   -0.2551 C   0  0  0  0  0  0  0  0  0  0  0  0
    2.8166   -0.1859   -0.6826 C   0  0  0  0  0  0  0  0  0  0  0  0
    2.0844    0.1930   -1.8524 C   0  0  0  0  0  0  0  0  0  0  0  0
    1.0018   -0.7310   -2.0143 C   0  0  0  0  0  3  0  0  0  0  0  0
    1.2032   -1.8508   -1.0889 C   0  0  0  0  0  0  0  0  0  0  0  0
    0.4937   -3.0495   -0.8746 C   0  0  0  0  0  0  0  0  0  0  0  0
    0.9062   -3.8931    0.1687 C   0  0  0  0  0  0  0  0  0  0  0  0
    1.9906   -3.5453    1.0036 C   0  0  0  0  0  0  0  0  0  0  0  0
    2.7023   -2.3501    0.8081 C   0  0  0  0  0  0  0  0  0  0  0  0
    3.9852    0.5139   -0.0684 C   0  0  0  0  0  0  0  0  0  0  0  0
    5.3654   -0.0557   -0.4922 C   0  0  0  0  0  0  0  0  0  0  0  0
    6.3804    1.0811   -0.1867 C   0  0  0  0  0  0  0  0  0  0  0  0
    5.5276    2.3322    0.1609 C   0  0  0  0  0  0  0  0  0  0  0  0
    4.1229    2.0130   -0.3695 C   0  0  0  0  0  0  0  0  0  0  0  0
    2.2617    1.0884   -2.4599 H   0  0  0  0  0  0  0  0  0  0  0  0
    0.2448   -0.7069   -2.8079 H   0  0  0  0  0  0  0  0  0  0  0  0
   -0.3655   -3.3104   -1.5095 H   0  0  0  0  0  0  0  0  0  0  0  0
    0.3716   -4.8391    0.3440 H   0  0  0  0  0  0  0  0  0  0  0  0
    2.2837   -4.2232    1.8195 H   0  0  0  0  0  0  0  0  0  0  0  0
    3.5325   -2.0731    1.4742 H   0  0  0  0  0  0  0  0  0  0  0  0
    3.8768    0.4132    1.0347 H   0  0  0  0  0  0  0  0  0  0  0  0
    5.6037   -1.0073    0.0229 H   0  0  0  0  0  0  0  0  0  0  0  0
    5.3431   -0.2790   -1.5793 H   0  0  0  0  0  0  0  0  0  0  0  0
    7.0591    0.8131    0.6476 H   0  0  0  0  0  0  0  0  0  0  0  0
    7.0287    1.2689   -1.0664 H   0  0  0  0  0  0  0  0  0  0  0  0
    5.4758    2.4618    1.2621 H   0  0  0  0  0  0  0  0  0  0  0  0
    5.9481    3.2705   -0.2526 H   0  0  0  0  0  0  0  0  0  0  0  0
    4.0799    2.1846   -1.4681 H   0  0  0  0  0  0  0  0  0  0  0  0
    3.3115    2.5992    0.1042 H   0  0  0  0  0  0  0  0  0  0  0  0
  1  9  1  0  0  0  0
  2  1  1  0  0  0  0
  2 10  1  0  0  0  0
  3  2  2  0  0  0  0
  4  3  1  0  0  0  0
  4  5  1  0  0  0  0
  5  6  1  0  0  0  0
  5  1  2  0  0  0  0
  6  7  2  0  0  0  0
  7 18  1  0  0  0  0
  7  8  1  0  0  0  0
  8 19  1  0  0  0  0
  9  8  2  0  0  0  0
  9 20  1  0  0  0  0
 10 21  1  0  0  0  0
 11 12  1  0  0  0  0
 11 10  1  0  0  0  0
 11 22  1  0  0  0  0
 12 13  1  0  0  0  0
 12 24  1  0  0  0  0
 13 26  1  0  0  0  0
 14 10  1  0  0  0  0
 14 29  1  0  0  0  0
 14 13  1  0  0  0  0
 15  3  1  0  0  0  0
 16  4  1  0  0  0  0
 17  6  1  0  0  0  0
 23 11  1  0  0  0  0
 25 12  1  0  0  0  0
 27 13  1  0  0  0  0
 28 14  1  0  0  0  0
M  END
