5
q = -1.0

 30 31  0  0  0  0  0  0  0  0999 V2000
    4.8164   -0.7897    0.1802 N   0  0  0  0  0  0  0  0  0  0  0  0
    1.1215    0.0098    0.7192 C   0  0  0  0  0  0  0  0  0  0  0  0
    0.3845   -0.1812    1.9295 C   0  0  0  0  0  0  0  0  0  0  0  0
    0.5889   -0.9533    2.6821 H   0  0  0  0  0  0  0  0  0  0  0  0
   -0.7283    0.7228    1.9196 C   0  0  0  0  0  3  0  0  0  0  0  0
   -1.4855    0.8165    2.7087 H   0  0  0  0  0  0  0  0  0  0  0  0
   -0.5406    1.6728    0.8161 C   0  0  0  0  0  0  0  0  0  0  0  0
   -1.2796    2.7926    0.3838 C   0  0  0  0  0  0  0  0  0  0  0  0
   -2.1476    3.1485    0.9605 H   0  0  0  0  0  0  0  0  0  0  0  0
   -0.8789    3.4513   -0.7895 C   0  0  0  0  0  0  0  0  0  0  0  0
   -1.4335    4.3392   -1.1298 H   0  0  0  0  0  0  0  0  0  0  0  0
    0.2262    2.9940   -1.5398 C   0  0  0  0  0  0  0  0  0  0  0  0
    0.5101    3.5241   -2.4614 H   0  0  0  0  0  0  0  0  0  0  0  0
    0.9665    1.8744   -1.1296 C   0  0  0  0  0  0  0  0  0  0  0  0
    1.8117    1.5079   -1.7306 H   0  0  0  0  0  0  0  0  0  0  0  0
    0.6054    1.2241    0.0648 C   0  0  0  0  0  0  0  0  0  0  0  0
    2.3201   -0.7631    0.2694 C   0  0  0  0  0  0  0  0  0  0  0  0
    2.1972   -0.9856   -0.8111 H   0  0  0  0  0  0  0  0  0  0  0  0
    2.3569   -1.7438    0.7845 H   0  0  0  0  0  0  0  0  0  0  0  0
    3.6371   -0.0146    0.5378 C   0  0  0  0  0  0  0  0  0  0  0  0
    3.6169    0.9830    0.0171 H   0  0  0  0  0  0  0  0  0  0  0  0
    3.6973    0.2121    1.6234 H   0  0  0  0  0  0  0  0  0  0  0  0
    4.9529   -0.9993   -1.2491 C   0  0  0  0  0  0  0  0  0  0  0  0
    5.0912   -0.0424   -1.8250 H   0  0  0  0  0  0  0  0  0  0  0  0
    4.0620   -1.5129   -1.6602 H   0  0  0  0  0  0  0  0  0  0  0  0
    5.8319   -1.6438   -1.4536 H   0  0  0  0  0  0  0  0  0  0  0  0
    6.0258   -0.2352    0.7564 C   0  0  0  0  0  0  0  0  0  0  0  0
    6.2800    0.7894    0.3675 H   0  0  0  0  0  0  0  0  0  0  0  0
    6.8895   -0.8966    0.5378 H   0  0  0  0  0  0  0  0  0  0  0  0
    5.9253   -0.1590    1.8586 H   0  0  0  0  0  0  0  0  0  0  0  0
  1 20  1  0  0  0  0
  1 27  1  0  0  0  0
  2  3  2  0  0  0  0
  3  4  1  0  0  0  0
  5  3  1  0  0  0  0
  5  6  1  0  0  0  0
  7  5  1  0  0  0  0
  8  7  1  0  0  0  0
  8  9  1  0  0  0  0
 10  8  2  0  0  0  0
 11 10  1  0  0  0  0
 12 14  2  0  0  0  0
 12 10  1  0  0  0  0
 13 12  1  0  0  0  0
 14 16  1  0  0  0  0
 15 14  1  0  0  0  0
 16  2  1  0  0  0  0
 16  7  2  0  0  0  0
 17 20  1  0  0  0  0
 17  2  1  0  0  0  0
 17 19  1  0  0  0  0
 18 17  1  0  0  0  0
 20 22  1  0  0  0  0
 21 20  1  0  0  0  0
 23  1  1  0  0  0  0
 24 23  1  0  0  0  0
 25 23  1  0  0  0  0
 26 23  1  0  0  0  0
 27 30  1  0  0  0  0
 28 27  1  0  0  0  0
 29 27  1  0  0  0  0
M  END
