2
q = -1.0

 18 18  0  0  0  0  0  0  0  0999 V2000
    0.8283    2.3842    0.0486 O   0  0  0  0  0  0  0  0  0  0  0  0
    0.8855    1.0897    0.6699 C   0  0  0  0  0  3  0  0  0  0  0  0
    2.1476    0.3538    0.3757 C   0  0  0  0  0  0  0  0  0  0  0  0
    2.6410   -0.6379    1.2612 C   0  0  0  0  0  0  0  0  0  0  0  0
    3.7901   -1.3773    0.9600 C   0  0  0  0  0  0  0  0  0  0  0  0
    4.5020   -1.1415   -0.2310 C   0  0  0  0  0  0  0  0  0  0  0  0
    4.0338   -0.1530   -1.1131 C   0  0  0  0  0  0  0  0  0  0  0  0
    2.8788    0.5839   -0.8169 C   0  0  0  0  0  0  0  0  0  0  0  0
    1.6839    3.3213    0.6544 C   0  0  0  0  0  0  0  0  0  0  0  0
    1.5651    4.2885    0.1214 H   0  0  0  0  0  0  0  0  0  0  0  0
    1.4308    3.4807    1.7339 H   0  0  0  0  0  0  0  0  0  0  0  0
    2.7596    3.0195    0.6061 H   0  0  0  0  0  0  0  0  0  0  0  0
    0.7759    1.2152    1.7738 H   0  0  0  0  0  0  0  0  0  0  0  0
    2.0851   -0.8386    2.1921 H   0  0  0  0  0  0  0  0  0  0  0  0
    4.1397   -2.1488    1.6656 H   0  0  0  0  0  0  0  0  0  0  0  0
    5.4060   -1.7241   -0.4684 H   0  0  0  0  0  0  0  0  0  0  0  0
    4.5760    0.0449   -2.0527 H   0  0  0  0  0  0  0  0  0  0  0  0
    2.5043    1.3475   -1.5152 H   0  0  0  0  0  0  0  0  0  0  0  0
  1  9  1  0  0  0  0
  1  2  1  0  0  0  0
  2 13  1  0  0  0  0
  3  2  1  0  0  0  0
  3  4  1  0  0  0  0
  4 14  1  0  0  0  0
  5  4  2  0  0  0  0
  5 15  1  0  0  0  0
  6  5  1  0  0  0  0
  7  8  1  0  0  0  0
  7  6  2  0  0  0  0
  8  3  2  0  0  0  0
  9 11  1  0  0  0  0
 10  9  1  0  0  0  0
 12  9  1  0  0  0  0
 16  6  1  0  0  0  0
 17  7  1  0  0  0  0
 18  8  1  0  0  0  0
M  END
