1
q = -1.0

  5  4  0  0  0  0  0  0  0  0999 V2000
    1.8941    0.0937   -0.0003 C   0  0  0  0  0  3  0  0  0  0  0  0
    3.1263    0.3018   -0.0004 C   0  0  0  0  0  0  0  0  0  0  0  0
    4.4818    0.4946   -0.0002 C   0  0  0  0  0  0  0  0  0  0  0  0
    5.7007    0.6719   -0.0000 C   0  0  0  0  0  0  0  0  0  0  0  0
    6.7716    0.8253    0.0004 H   0  0  0  0  0  0  0  0  0  0  0  0
  2  1  3  0  0  0  0
  2  3  1  0  0  0  0
  3  4  3  0  0  0  0
  4  5  1  0  0  0  0
M  END
