1
q = -1.0

 22 22  0  0  0  0  0  0  0  0999 V2000
    0.3958    1.4957   -2.0362 C   0  0  0  0  0  3  0  0  0  0  0  0
    1.4312    1.6035   -2.3854 H   0  0  0  0  0  0  0  0  0  0  0  0
   -0.2960    2.4385   -1.2148 C   0  0  0  0  0  0  0  0  0  0  0  0
   -1.6346    1.9166   -0.9968 C   0  0  0  0  0  0  0  0  0  0  0  0
   -1.7587    0.6894   -1.7369 C   0  0  0  0  0  0  0  0  0  0  0  0
   -0.4852    0.3993   -2.3581 C   0  0  0  0  0  0  0  0  0  0  0  0
    0.2190    3.7595   -0.7393 C   0  0  0  0  0  0  0  0  0  0  0  0
   -0.2940    4.5845   -1.2767 H   0  0  0  0  0  0  0  0  0  0  0  0
    1.3037    3.8633   -0.9295 H   0  0  0  0  0  0  0  0  0  0  0  0
    0.0362    3.9170    0.3426 H   0  0  0  0  0  0  0  0  0  0  0  0
   -2.7254    2.5792   -0.2178 C   0  0  0  0  0  0  0  0  0  0  0  0
   -3.4013    3.1474   -0.8914 H   0  0  0  0  0  0  0  0  0  0  0  0
   -2.3200    3.2952    0.5221 H   0  0  0  0  0  0  0  0  0  0  0  0
   -3.3351    1.8313    0.3247 H   0  0  0  0  0  0  0  0  0  0  0  0
   -3.0312   -0.0549   -1.9905 C   0  0  0  0  0  0  0  0  0  0  0  0
   -3.4593    0.3008   -2.9520 H   0  0  0  0  0  0  0  0  0  0  0  0
   -3.7786    0.1225   -1.1976 H   0  0  0  0  0  0  0  0  0  0  0  0
   -2.8652   -1.1443   -2.0783 H   0  0  0  0  0  0  0  0  0  0  0  0
   -0.2079   -0.7147   -3.3158 C   0  0  0  0  0  0  0  0  0  0  0  0
   -0.5037   -0.4149   -4.3437 H   0  0  0  0  0  0  0  0  0  0  0  0
   -0.7810   -1.6234   -3.0541 H   0  0  0  0  0  0  0  0  0  0  0  0
    0.8661   -0.9742   -3.3270 H   0  0  0  0  0  0  0  0  0  0  0  0
  1  3  1  0  0  0  0
  2  1  1  0  0  0  0
  3  4  2  0  0  0  0
  3  7  1  0  0  0  0
  4 11  1  0  0  0  0
  5  4  1  0  0  0  0
  6  1  1  0  0  0  0
  6  5  2  0  0  0  0
  7 10  1  0  0  0  0
  8  7  1  0  0  0  0
  9  7  1  0  0  0  0
 11 14  1  0  0  0  0
 11 13  1  0  0  0  0
 12 11  1  0  0  0  0
 15  5  1  0  0  0  0
 15 17  1  0  0  0  0
 16 15  1  0  0  0  0
 18 15  1  0  0  0  0
 19 21  1  0  0  0  0
 19  6  1  0  0  0  0
 20 19  1  0  0  0  0
 22 19  1  0  0  0  0
M  END
