4
q = -1.0

 28 30  0  0  0  0  0  0  0  0999 V2000
   -5.1750    1.6100    0.8477 N   0  0  0  0  0  0  0  0  0  0  0  0
   -2.4823    0.4264    0.0767 C   0  0  0  0  0  0  0  0  0  0  0  0
   -1.8883    0.9439    1.2689 C   0  0  0  0  0  0  0  0  0  0  0  0
   -0.9957   -0.0518    1.7778 C   0  0  0  0  0  3  0  0  0  0  0  0
   -1.2338   -1.3055    1.0528 C   0  0  0  0  0  0  0  0  0  0  0  0
   -0.6929   -2.5994    1.1859 C   0  0  0  0  0  0  0  0  0  0  0  0
   -1.0806   -3.5852    0.2643 C   0  0  0  0  0  0  0  0  0  0  0  0
   -1.9716   -3.2887   -0.7895 C   0  0  0  0  0  0  0  0  0  0  0  0
   -2.5102   -2.0001   -0.9431 C   0  0  0  0  0  0  0  0  0  0  0  0
   -2.1636   -1.0085   -0.0083 C   0  0  0  0  0  0  0  0  0  0  0  0
   -3.4523    1.1500   -0.8090 C   0  0  0  0  0  0  0  0  0  0  0  0
   -4.8719    0.9761   -0.3026 C   0  0  0  0  0  0  0  0  0  0  0  0
   -5.8058    0.1720   -0.9858 C   0  0  0  0  0  0  0  0  0  0  0  0
   -7.0939    0.0240   -0.4535 C   0  0  0  0  0  0  0  0  0  0  0  0
   -7.4082    0.6828    0.7430 C   0  0  0  0  0  0  0  0  0  0  0  0
   -6.4094    1.4640    1.3481 C   0  0  0  0  0  0  0  0  0  0  0  0
   -2.0443    1.9548    1.6635 H   0  0  0  0  0  0  0  0  0  0  0  0
   -0.3637    0.0403    2.6698 H   0  0  0  0  0  0  0  0  0  0  0  0
    0.0198   -2.8253    1.9924 H   0  0  0  0  0  0  0  0  0  0  0  0
   -0.6782   -4.6051    0.3605 H   0  0  0  0  0  0  0  0  0  0  0  0
   -2.2495   -4.0805   -1.5016 H   0  0  0  0  0  0  0  0  0  0  0  0
   -3.1849   -1.7696   -1.7804 H   0  0  0  0  0  0  0  0  0  0  0  0
   -3.3470    0.7884   -1.8496 H   0  0  0  0  0  0  0  0  0  0  0  0
   -3.2005    2.2283   -0.8106 H   0  0  0  0  0  0  0  0  0  0  0  0
   -5.5212   -0.3267   -1.9245 H   0  0  0  0  0  0  0  0  0  0  0  0
   -7.8424   -0.5990   -0.9671 H   0  0  0  0  0  0  0  0  0  0  0  0
   -8.4050    0.5972    1.2005 H   0  0  0  0  0  0  0  0  0  0  0  0
   -6.6219    2.0018    2.2902 H   0  0  0  0  0  0  0  0  0  0  0  0
  1 16  1  0  0  0  0
  2  3  2  0  0  0  0
  3 17  1  0  0  0  0
  3  4  1  0  0  0  0
  4 18  1  0  0  0  0
  5  6  1  0  0  0  0
  5  4  1  0  0  0  0
  6 19  1  0  0  0  0
  7 20  1  0  0  0  0
  7  6  2  0  0  0  0
  8  7  1  0  0  0  0
  9  8  2  0  0  0  0
  9 10  1  0  0  0  0
 10  2  1  0  0  0  0
 10  5  2  0  0  0  0
 11 12  1  0  0  0  0
 11  2  1  0  0  0  0
 12  1  2  0  0  0  0
 13 14  2  0  0  0  0
 13 12  1  0  0  0  0
 14 15  1  0  0  0  0
 15 27  1  0  0  0  0
 15 16  2  0  0  0  0
 16 28  1  0  0  0  0
 21  8  1  0  0  0  0
 22  9  1  0  0  0  0
 23 11  1  0  0  0  0
 24 11  1  0  0  0  0
 25 13  1  0  0  0  0
 26 14  1  0  0  0  0
M  END
