12
q = 0.0, confidence = 0.99

 49 52  0  0  0  0  0  0  0  0999 V2000
    5.5725    4.2483   -1.8276 O   0  0  0  0  0  0  0  0  0  0  0  0
   -1.0996    0.6213    1.0138 N   0  0  0  0  0  0  0  0  0  0  0  0
    1.0990    0.6220    1.0140 N   0  0  0  0  0  0  0  0  0  0  0  0
   -5.5751    4.2451   -1.8276 O   0  0  0  0  0  0  0  0  0  0  0  0
   -2.9287    1.8558   -1.0779 C   0  0  0  0  0  0  0  0  0  0  0  0
   -2.0134    1.4759   -1.5560 H   0  0  0  0  0  0  0  0  0  0  0  0
    2.5050    0.2515    0.8447 C   0  0  0  0  0  0  0  0  0  0  0  0
    2.5053   -0.6670    0.2249 H   0  0  0  0  0  0  0  0  0  0  0  0
    2.9297    0.0227    1.8460 H   0  0  0  0  0  0  0  0  0  0  0  0
    4.8950    3.2953   -1.1286 C   0  0  0  0  0  0  0  0  0  0  0  0
   -0.7067    1.7587    1.7201 C   0  0  0  0  0  0  0  0  0  0  0  0
   -0.0000   -0.0959    0.5821 C   0  0  0  0  0  2  0  0  0  0  0  0
    2.9275    1.8575   -1.0777 C   0  0  0  0  0  0  0  0  0  0  0  0
    2.0124    1.4769   -1.5558 H   0  0  0  0  0  0  0  0  0  0  0  0
    3.6950    2.8322   -1.7138 C   0  0  0  0  0  0  0  0  0  0  0  0
    3.3928    3.2538   -2.6834 H   0  0  0  0  0  0  0  0  0  0  0  0
    0.7052    1.7592    1.7202 C   0  0  0  0  0  0  0  0  0  0  0  0
   -2.5053    0.2498    0.8443 C   0  0  0  0  0  0  0  0  0  0  0  0
   -2.9299    0.0206    1.8455 H   0  0  0  0  0  0  0  0  0  0  0  0
   -2.5050   -0.6687    0.2244 H   0  0  0  0  0  0  0  0  0  0  0  0
   -3.6967    2.8302   -1.7139 C   0  0  0  0  0  0  0  0  0  0  0  0
   -3.3948    3.2521   -2.6834 H   0  0  0  0  0  0  0  0  0  0  0  0
    5.3129    2.7619    0.1067 C   0  0  0  0  0  0  0  0  0  0  0  0
    6.2420    3.0977    0.5861 H   0  0  0  0  0  0  0  0  0  0  0  0
   -1.4399    2.7638    2.3689 C   0  0  0  0  0  0  0  0  0  0  0  0
   -2.5368    2.7730    2.3513 H   0  0  0  0  0  0  0  0  0  0  0  0
   -5.3148    2.7585    0.1065 C   0  0  0  0  0  0  0  0  0  0  0  0
   -6.2440    3.0937    0.5858 H   0  0  0  0  0  0  0  0  0  0  0  0
    4.5224    1.7866    0.7393 C   0  0  0  0  0  0  0  0  0  0  0  0
    4.8537    1.3792    1.7090 H   0  0  0  0  0  0  0  0  0  0  0  0
   -4.5237    1.7837    0.7390 C   0  0  0  0  0  0  0  0  0  0  0  0
   -4.8548    1.3759    1.7085 H   0  0  0  0  0  0  0  0  0  0  0  0
   -3.3291    1.3211    0.1666 C   0  0  0  0  0  0  0  0  0  0  0  0
    1.4377    2.7648    2.3692 C   0  0  0  0  0  0  0  0  0  0  0  0
    2.5346    2.7746    2.3518 H   0  0  0  0  0  0  0  0  0  0  0  0
   -0.7074    3.7670    3.0212 C   0  0  0  0  0  0  0  0  0  0  0  0
   -1.2478    4.5748    3.5366 H   0  0  0  0  0  0  0  0  0  0  0  0
    3.3281    1.3232    0.1669 C   0  0  0  0  0  0  0  0  0  0  0  0
   -4.8971    3.2924   -1.1287 C   0  0  0  0  0  0  0  0  0  0  0  0
    0.7044    3.7675    3.0213 C   0  0  0  0  0  0  0  0  0  0  0  0
    1.2441    4.5756    3.5368 H   0  0  0  0  0  0  0  0  0  0  0  0
    6.7844    4.7382   -1.2912 C   0  0  0  0  0  0  0  0  0  0  0  0
    7.1660    5.4883   -2.0088 H   0  0  0  0  0  0  0  0  0  0  0  0
    7.5443    3.9324   -1.1739 H   0  0  0  0  0  0  0  0  0  0  0  0
    6.6349    5.2291   -0.3025 H   0  0  0  0  0  0  0  0  0  0  0  0
   -6.7872    4.7343   -1.2911 C   0  0  0  0  0  0  0  0  0  0  0  0
   -7.5468    3.9282   -1.1739 H   0  0  0  0  0  0  0  0  0  0  0  0
   -7.1692    5.4844   -2.0085 H   0  0  0  0  0  0  0  0  0  0  0  0
   -6.6380    5.2251   -0.3023 H   0  0  0  0  0  0  0  0  0  0  0  0
  1 42  1  0  0  0  0
  1 10  1  0  0  0  0
  2 11  1  0  0  0  0
  3 17  1  0  0  0  0
  4 46  1  0  0  0  0
  4 39  1  0  0  0  0
  5 33  1  0  0  0  0
  6  5  1  0  0  0  0
  7  3  1  0  0  0  0
  7  9  1  0  0  0  0
  8  7  1  0  0  0  0
 10 23  1  0  0  0  0
 11 17  2  0  0  0  0
 11 25  1  0  0  0  0
 12  2  1  0  0  0  0
 12  3  1  0  0  0  0
 13 38  2  0  0  0  0
 14 13  1  0  0  0  0
 15 10  2  0  0  0  0
 15 13  1  0  0  0  0
 16 15  1  0  0  0  0
 17 34  1  0  0  0  0
 18  2  1  0  0  0  0
 18 19  1  0  0  0  0
 20 18  1  0  0  0  0
 21 39  1  0  0  0  0
 21  5  2  0  0  0  0
 22 21  1  0  0  0  0
 23 24  1  0  0  0  0
 23 29  2  0  0  0  0
 25 36  2  0  0  0  0
 26 25  1  0  0  0  0
 27 28  1  0  0  0  0
 27 31  1  0  0  0  0
 29 30  1  0  0  0  0
 31 32  1  0  0  0  0
 33 31  2  0  0  0  0
 33 18  1  0  0  0  0
 34 40  2  0  0  0  0
 35 34  1  0  0  0  0
 36 40  1  0  0  0  0
 36 37  1  0  0  0  0
 38 29  1  0  0  0  0
 38  7  1  0  0  0  0
 39 27  2  0  0  0  0
 40 41  1  0  0  0  0
 42 44  1  0  0  0  0
 42 45  1  0  0  0  0
 43 42  1  0  0  0  0
 46 47  1  0  0  0  0
 46 49  1  0  0  0  0
 48 46  1  0  0  0  0
M  END
