1
q = -1.0

  6  5  0  0  0  0  0  0  0  0999 V2000
   -2.4659    1.0592    0.0760 C   0  0  0  0  0  1  0  0  0  0  0  0
   -3.5852    1.7105    0.1214 O   0  0  0  0  0  0  0  0  0  0  0  0
   -4.7986    0.9206    0.0574 C   0  0  0  0  0  0  0  0  0  0  0  0
   -4.8237    0.3535   -0.8943 H   0  0  0  0  0  0  0  0  0  0  0  0
   -5.6414    1.6322    0.1083 H   0  0  0  0  0  0  0  0  0  0  0  0
   -4.8300    0.2169    0.9129 H   0  0  0  0  0  0  0  0  0  0  0  0
  1  2  1  0  0  0  0
  3  5  1  0  0  0  0
  3  2  1  0  0  0  0
  3  6  1  0  0  0  0
  4  3  1  0  0  0  0
M  END
