1
q = -1.0

  8  7  0  0  0  0  0  0  0  0999 V2000
   -3.5530    1.4658   -0.3905 C   0  0  0  0  0  3  0  0  0  0  0  0
   -4.3367    0.9853   -1.0094 H   0  0  0  0  0  0  0  0  0  0  0  0
   -4.0183    1.7751    0.5661 H   0  0  0  0  0  0  0  0  0  0  0  0
   -3.0041    2.7013   -1.1188 C   0  0  0  0  0  0  0  0  0  0  0  0
   -2.1932    3.1930   -0.5414 H   0  0  0  0  0  0  0  0  0  0  0  0
   -2.5499    2.4344   -2.0958 H   0  0  0  0  0  0  0  0  0  0  0  0
   -4.0529    3.6934   -1.3633 C   0  0  0  0  0  0  0  0  0  0  0  0
   -4.9155    4.4670   -1.5429 N   0  0  0  0  0  0  0  0  0  0  0  0
  1  3  1  0  0  0  0
  2  1  1  0  0  0  0
  4  5  1  0  0  0  0
  4  1  1  0  0  0  0
  6  4  1  0  0  0  0
  7  4  1  0  0  0  0
  8  7  3  0  0  0  0
M  END
