3
q = -1.0

 14 13  0  0  0  0  0  0  0  0999 V2000
   -1.9907    2.1698    1.6817 O   0  0  0  0  0  0  0  0  0  0  0  0
    2.0990    1.1426    1.9965 O   0  0  0  0  0  0  0  0  0  0  0  0
   -0.2189    0.5988    1.5272 C   0  0  0  0  0  3  0  0  0  0  0  0
   -0.9866   -0.0167    2.0389 H   0  0  0  0  0  0  0  0  0  0  0  0
   -0.7959    1.9958    1.4325 C   0  0  0  0  0  0  0  0  0  0  0  0
    0.0871    3.1429    1.0026 C   0  0  0  0  0  0  0  0  0  0  0  0
    0.2895    3.0329   -0.0829 H   0  0  0  0  0  0  0  0  0  0  0  0
    1.0735    3.0926    1.5034 H   0  0  0  0  0  0  0  0  0  0  0  0
   -0.4365    4.0980    1.1915 H   0  0  0  0  0  0  0  0  0  0  0  0
    1.1217    0.4159    2.1830 C   0  0  0  0  0  0  0  0  0  0  0  0
    1.2136   -0.7785    3.1229 C   0  0  0  0  0  0  0  0  0  0  0  0
    2.2655   -0.9400    3.4243 H   0  0  0  0  0  0  0  0  0  0  0  0
    0.8031   -1.6864    2.6383 H   0  0  0  0  0  0  0  0  0  0  0  0
    0.6017   -0.5803    4.0285 H   0  0  0  0  0  0  0  0  0  0  0  0
  2 10  2  0  0  0  0
  3  4  1  0  0  0  0
  3 10  1  0  0  0  0
  5  3  1  0  0  0  0
  5  1  2  0  0  0  0
  6  9  1  0  0  0  0
  6  5  1  0  0  0  0
  6  8  1  0  0  0  0
  7  6  1  0  0  0  0
 10 11  1  0  0  0  0
 11 12  1  0  0  0  0
 11 14  1  0  0  0  0
 13 11  1  0  0  0  0
M  END
