3
q = -1.0, confidence = 0.0

 28 29  0  0  0  0  0  0  0  0999 V2000
   -1.0075   -1.9566   -1.2519 C   0  0  0  0  0  3  0  0  0  0  0  0
    0.0777   -2.3610   -0.4469 C   0  0  0  0  0  3  0  0  0  0  0  0
    1.4042   -1.9260   -0.7862 C   0  0  0  0  0  3  0  0  0  0  0  0
   -2.4325   -2.1942   -0.9924 C   0  0  0  0  0  0  0  0  0  0  0  0
   -2.9012   -2.9749    0.0914 C   0  0  0  0  0  0  0  0  0  0  0  0
   -4.2739   -3.1479    0.3050 C   0  0  0  0  0  0  0  0  0  0  0  0
   -5.2085   -2.5443   -0.5545 C   0  0  0  0  0  0  0  0  0  0  0  0
   -4.7595   -1.7801   -1.6444 C   0  0  0  0  0  0  0  0  0  0  0  0
   -3.3861   -1.6129   -1.8637 C   0  0  0  0  0  0  0  0  0  0  0  0
    2.5802   -2.2050    0.0659 C   0  0  0  0  0  0  0  0  0  0  0  0
    3.8161   -2.5275   -0.5373 C   0  0  0  0  0  0  0  0  0  0  0  0
    4.9498   -2.7904    0.2456 C   0  0  0  0  0  0  0  0  0  0  0  0
    4.8687   -2.7286    1.6451 C   0  0  0  0  0  0  0  0  0  0  0  0
    3.6441   -2.4085    2.2587 C   0  0  0  0  0  0  0  0  0  0  0  0
    2.5111   -2.1501    1.4781 C   0  0  0  0  0  0  0  0  0  0  0  0
   -0.7747   -1.6376   -2.2856 H   0  0  0  0  0  0  0  0  0  0  0  0
   -0.0996   -2.8576    0.5220 H   0  0  0  0  0  0  0  0  0  0  0  0
    1.6287   -1.8297   -1.8651 H   0  0  0  0  0  0  0  0  0  0  0  0
   -2.1863   -3.4655    0.7683 H   0  0  0  0  0  0  0  0  0  0  0  0
   -4.6203   -3.7653    1.1471 H   0  0  0  0  0  0  0  0  0  0  0  0
   -6.2862   -2.6852   -0.3843 H   0  0  0  0  0  0  0  0  0  0  0  0
   -5.4849   -1.3224   -2.3336 H   0  0  0  0  0  0  0  0  0  0  0  0
   -3.0346   -1.0237   -2.7258 H   0  0  0  0  0  0  0  0  0  0  0  0
    3.8843   -2.5770   -1.6354 H   0  0  0  0  0  0  0  0  0  0  0  0
    5.9030   -3.0451   -0.2413 H   0  0  0  0  0  0  0  0  0  0  0  0
    5.7582   -2.9299    2.2602 H   0  0  0  0  0  0  0  0  0  0  0  0
    3.5759   -2.3577    3.3558 H   0  0  0  0  0  0  0  0  0  0  0  0
    1.5618   -1.8746    1.9653 H   0  0  0  0  0  0  0  0  0  0  0  0
  1  4  1  0  0  0  0
  1  2  1  0  0  0  0
  2 17  1  0  0  0  0
  3  2  1  0  0  0  0
  3 10  1  0  0  0  0
  4  5  1  0  0  0  0
  5  6  2  0  0  0  0
  5 19  1  0  0  0  0
  6 20  1  0  0  0  0
  7 21  1  0  0  0  0
  7  6  1  0  0  0  0
  8  7  2  0  0  0  0
  9  8  1  0  0  0  0
  9  4  2  0  0  0  0
 10 15  1  0  0  0  0
 11 10  2  0  0  0  0
 11 12  1  0  0  0  0
 12 13  2  0  0  0  0
 13 14  1  0  0  0  0
 13 26  1  0  0  0  0
 14 27  1  0  0  0  0
 15 28  1  0  0  0  0
 15 14  2  0  0  0  0
 16  1  1  0  0  0  0
 18  3  1  0  0  0  0
 22  8  1  0  0  0  0
 23  9  1  0  0  0  0
 24 11  1  0  0  0  0
 25 12  1  0  0  0  0
M  END
