1
q = 0.0, confidence = 0.988

 41 43  0  0  0  0  0  0  0  0999 V2000
   -0.2623   -0.4987   -0.7289 C   0  0  0  0  0  2  0  0  0  0  0  0
   -1.4017   -1.0804   -1.2157 N   0  0  0  0  0  0  0  0  0  0  0  0
   -2.6579   -0.3590   -1.4425 C   0  0  0  0  0  0  0  0  0  0  0  0
   -3.6485   -0.5666   -0.3158 C   0  0  0  0  0  0  0  0  0  0  0  0
   -3.3813   -0.0309    0.9608 C   0  0  0  0  0  0  0  0  0  0  0  0
   -4.2808   -0.2375    2.0150 C   0  0  0  0  0  0  0  0  0  0  0  0
   -5.4563   -0.9792    1.8063 C   0  0  0  0  0  0  0  0  0  0  0  0
   -5.7299   -1.5120    0.5379 C   0  0  0  0  0  0  0  0  0  0  0  0
   -4.8271   -1.3070   -0.5181 C   0  0  0  0  0  0  0  0  0  0  0  0
   -1.2460   -2.4539   -1.3471 C   0  0  0  0  0  0  0  0  0  0  0  0
    0.0320   -2.7462   -0.9475 C   0  0  0  0  0  0  0  0  0  0  0  0
    0.6155   -1.5397   -0.5736 N   0  0  0  0  0  0  0  0  0  0  0  0
    1.9515   -1.3885   -0.0599 C   0  0  0  0  0  0  0  0  0  0  0  0
    3.0152   -1.2215   -0.9710 C   0  0  0  0  0  0  0  0  0  0  0  0
    4.3094   -1.0841   -0.4404 C   0  0  0  0  0  0  0  0  0  0  0  0
    4.5504   -1.0967    0.9462 C   0  0  0  0  0  0  0  0  0  0  0  0
    3.4545   -1.2518    1.8159 C   0  0  0  0  0  0  0  0  0  0  0  0
    2.1405   -1.3940    1.3388 C   0  0  0  0  0  0  0  0  0  0  0  0
    0.9662   -1.4971    2.2755 C   0  0  0  0  0  0  0  0  0  0  0  0
    5.9432   -0.9026    1.4899 C   0  0  0  0  0  0  0  0  0  0  0  0
    2.7554   -1.1451   -2.4523 C   0  0  0  0  0  0  0  0  0  0  0  0
   -2.3790    0.7097   -1.5363 H   0  0  0  0  0  0  0  0  0  0  0  0
   -3.0824   -0.6957   -2.4087 H   0  0  0  0  0  0  0  0  0  0  0  0
   -2.4597    0.5541    1.1182 H   0  0  0  0  0  0  0  0  0  0  0  0
   -4.0662    0.1897    3.0062 H   0  0  0  0  0  0  0  0  0  0  0  0
   -6.1628   -1.1379    2.6351 H   0  0  0  0  0  0  0  0  0  0  0  0
   -6.6510   -2.0897    0.3673 H   0  0  0  0  0  0  0  0  0  0  0  0
   -5.0450   -1.7220   -1.5157 H   0  0  0  0  0  0  0  0  0  0  0  0
   -2.0533   -3.1007   -1.7028 H   0  0  0  0  0  0  0  0  0  0  0  0
    0.5777   -3.6927   -0.8962 H   0  0  0  0  0  0  0  0  0  0  0  0
    5.1542   -0.9514   -1.1349 H   0  0  0  0  0  0  0  0  0  0  0  0
    3.6241   -1.2529    2.9045 H   0  0  0  0  0  0  0  0  0  0  0  0
    1.2992   -1.6114    3.3238 H   0  0  0  0  0  0  0  0  0  0  0  0
    0.3433   -0.5790    2.2083 H   0  0  0  0  0  0  0  0  0  0  0  0
    0.3031   -2.3496    2.0229 H   0  0  0  0  0  0  0  0  0  0  0  0
    6.0903   -1.4484    2.4427 H   0  0  0  0  0  0  0  0  0  0  0  0
    6.1362    0.1720    1.6968 H   0  0  0  0  0  0  0  0  0  0  0  0
    6.7149   -1.2412    0.7713 H   0  0  0  0  0  0  0  0  0  0  0  0
    3.7008   -1.0592   -3.0195 H   0  0  0  0  0  0  0  0  0  0  0  0
    2.1293   -0.2586   -2.6891 H   0  0  0  0  0  0  0  0  0  0  0  0
    2.2061   -2.0332   -2.8273 H   0  0  0  0  0  0  0  0  0  0  0  0
  1 12  1  0  0  0  0
  2  1  1  0  0  0  0
  3  2  1  0  0  0  0
  3  4  1  0  0  0  0
  4  5  1  0  0  0  0
  5 24  1  0  0  0  0
  5  6  2  0  0  0  0
  6 25  1  0  0  0  0
  7  6  1  0  0  0  0
  7 26  1  0  0  0  0
  8  7  2  0  0  0  0
  9  4  2  0  0  0  0
  9  8  1  0  0  0  0
 10  2  1  0  0  0  0
 10 11  2  0  0  0  0
 11 30  1  0  0  0  0
 11 12  1  0  0  0  0
 12 13  1  0  0  0  0
 13 18  1  0  0  0  0
 14 15  1  0  0  0  0
 14 13  2  0  0  0  0
 15 16  2  0  0  0  0
 16 20  1  0  0  0  0
 16 17  1  0  0  0  0
 17 32  1  0  0  0  0
 18 17  2  0  0  0  0
 18 19  1  0  0  0  0
 19 33  1  0  0  0  0
 20 37  1  0  0  0  0
 20 36  1  0  0  0  0
 21 14  1  0  0  0  0
 22  3  1  0  0  0  0
 23  3  1  0  0  0  0
 27  8  1  0  0  0  0
 28  9  1  0  0  0  0
 29 10  1  0  0  0  0
 31 15  1  0  0  0  0
 34 19  1  0  0  0  0
 35 19  1  0  0  0  0
 38 20  1  0  0  0  0
 39 21  1  0  0  0  0
 40 21  1  0  0  0  0
 41 21  1  0  0  0  0
M  END
