3
q = 0.0, confidence = 0.99

 64 68  0  0  1  0  0  0  0  0999 V2000
    0.8756   -1.2990    0.3105 N   0  0  0  0  0  0  0  0  0  0  0  0
    1.4529    0.9863    0.1396 N   0  0  0  0  0  0  0  0  0  0  0  0
    0.5315   -0.0116    0.0315 C   0  0  0  0  0  2  0  0  0  0  0  0
   -0.0509   -2.3540   -0.0414 C   0  0  0  0  0  0  0  0  0  0  0  0
   -0.7336   -3.0296    1.0036 C   0  0  0  0  0  0  0  0  0  0  0  0
   -1.6070   -4.0745    0.6641 C   0  0  0  0  0  0  0  0  0  0  0  0
   -2.1562   -4.5857    1.4716 H   0  0  0  0  0  0  0  0  0  0  0  0
   -1.8056   -4.4797   -0.6691 C   0  0  0  0  0  0  0  0  0  0  0  0
   -1.0735   -3.8232   -1.6714 C   0  0  0  0  0  0  0  0  0  0  0  0
   -1.1949   -4.1390   -2.7205 H   0  0  0  0  0  0  0  0  0  0  0  0
   -0.1852   -2.7689   -1.3882 C   0  0  0  0  0  0  0  0  0  0  0  0
   -0.5385   -2.6318    2.4432 C   0  0  0  0  0  0  0  0  0  0  0  0
   -1.3107   -3.0969    3.0856 H   0  0  0  0  0  0  0  0  0  0  0  0
   -0.6071   -1.5318    2.5495 H   0  0  0  0  0  0  0  0  0  0  0  0
    0.4494   -2.9546    2.8363 H   0  0  0  0  0  0  0  0  0  0  0  0
   -2.7920   -5.5684   -1.0091 C   0  0  0  0  0  0  0  0  0  0  0  0
   -2.5412   -6.0640   -1.9677 H   0  0  0  0  0  0  0  0  0  0  0  0
   -3.8180   -5.1540   -1.1135 H   0  0  0  0  0  0  0  0  0  0  0  0
   -2.8352   -6.3441   -0.2186 H   0  0  0  0  0  0  0  0  0  0  0  0
    0.5843   -2.1454   -2.5252 C   0  0  0  0  0  0  0  0  0  0  0  0
    1.2365   -1.3179   -2.1963 H   0  0  0  0  0  0  0  0  0  0  0  0
   -0.1031   -1.7310   -3.2887 H   0  0  0  0  0  0  0  0  0  0  0  0
    1.2159   -2.9066   -3.0292 H   0  0  0  0  0  0  0  0  0  0  0  0
    2.1461   -1.7573    0.9136 C   0  0  0  0  0  0  0  0  0  0  0  0
    2.3384   -1.2026    1.8534 H   0  0  0  0  0  0  0  0  0  0  0  0
    1.9968   -2.8166    1.1941 H   0  0  0  0  0  0  0  0  0  0  0  0
    3.3078   -1.6387   -0.0592 C   0  0  2  0  0  0  0  0  0  0  0  0
    3.0188   -2.1694   -0.9885 H   0  0  0  0  0  0  0  0  0  0  0  0
    4.6755   -2.2398    0.4271 C   0  0  1  0  0  0  0  0  0  0  0  0
    4.6900   -3.3459    0.4461 H   0  0  0  0  0  0  0  0  0  0  0  0
    5.6262   -1.5319   -0.5672 C   0  0  0  0  0  0  0  0  0  0  0  0
    6.6935   -1.7548   -0.3732 H   0  0  0  0  0  0  0  0  0  0  0  0
    5.3848   -1.7356   -1.6311 H   0  0  0  0  0  0  0  0  0  0  0  0
    5.2206   -0.1144   -0.1026 C   0  0  2  0  0  0  0  0  0  0  0  0
    5.7385    0.7437   -0.5711 H   0  0  0  0  0  0  0  0  0  0  0  0
    5.3936   -0.2653    1.4031 C   0  0  0  0  0  0  0  0  0  0  0  0
    5.6468    0.5475    2.0987 H   0  0  0  0  0  0  0  0  0  0  0  0
    5.0606   -1.5383    1.7198 C   0  0  0  0  0  0  0  0  0  0  0  0
    4.9857   -1.9742    2.7263 H   0  0  0  0  0  0  0  0  0  0  0  0
    3.6717   -0.1553   -0.3953 C   0  0  2  0  0  0  0  0  0  0  0  0
    3.5057    0.0414   -1.4742 H   0  0  0  0  0  0  0  0  0  0  0  0
    2.9077    0.8925    0.4067 C   0  0  0  0  0  0  0  0  0  0  0  0
    3.3162    1.8907    0.1576 H   0  0  0  0  0  0  0  0  0  0  0  0
    3.0903    0.7585    1.4941 H   0  0  0  0  0  0  0  0  0  0  0  0
    0.9653    2.3494    0.0875 C   0  0  0  0  0  0  0  0  0  0  0  0
    0.3822    2.9135    1.2486 C   0  0  0  0  0  0  0  0  0  0  0  0
   -0.0644    4.2433    1.1841 C   0  0  0  0  0  0  0  0  0  0  0  0
   -0.5326    4.6860    2.0783 H   0  0  0  0  0  0  0  0  0  0  0  0
    0.0720    5.0227    0.0194 C   0  0  0  0  0  0  0  0  0  0  0  0
    0.7190    4.4489   -1.0880 C   0  0  0  0  0  0  0  0  0  0  0  0
    0.8633    5.0502   -2.0003 H   0  0  0  0  0  0  0  0  0  0  0  0
    1.1916    3.1239   -1.0734 C   0  0  0  0  0  0  0  0  0  0  0  0
    0.2432    2.1115    2.5150 C   0  0  0  0  0  0  0  0  0  0  0  0
   -0.5107    1.3053    2.3870 H   0  0  0  0  0  0  0  0  0  0  0  0
   -0.0714    2.7565    3.3576 H   0  0  0  0  0  0  0  0  0  0  0  0
    1.1982    1.6220    2.7978 H   0  0  0  0  0  0  0  0  0  0  0  0
   -0.4730    6.4277   -0.0374 C   0  0  0  0  0  0  0  0  0  0  0  0
   -1.5576    6.4214   -0.2798 H   0  0  0  0  0  0  0  0  0  0  0  0
    0.0329    7.0333   -0.8148 H   0  0  0  0  0  0  0  0  0  0  0  0
   -0.3627    6.9490    0.9347 H   0  0  0  0  0  0  0  0  0  0  0  0
    1.9435    2.5755   -2.2588 C   0  0  0  0  0  0  0  0  0  0  0  0
    1.6039    3.0484   -3.1995 H   0  0  0  0  0  0  0  0  0  0  0  0
    1.8113    1.4836   -2.3656 H   0  0  0  0  0  0  0  0  0  0  0  0
    3.0347    2.7711   -2.1646 H   0  0  0  0  0  0  0  0  0  0  0  0
  1 24  1  0  0  0  0
  2 42  1  0  0  0  0
  3  2  1  0  0  0  0
  3  1  1  0  0  0  0
  4  1  1  0  0  0  0
  4  5  1  0  0  0  0
  5 12  1  0  0  0  0
  6  5  2  0  0  0  0
  6  7  1  0  0  0  0
  8  6  1  0  0  0  0
  9 11  1  0  0  0  0
  9  8  2  0  0  0  0
 10  9  1  0  0  0  0
 11  4  2  0  0  0  0
 12 14  1  0  0  0  0
 12 15  1  0  0  0  0
 12 13  1  0  0  0  0
 16  8  1  0  0  0  0
 16 19  1  0  0  0  0
 17 16  1  0  0  0  0
 18 16  1  0  0  0  0
 20 21  1  0  0  0  0
 20 11  1  0  0  0  0
 22 20  1  0  0  0  0
 23 20  1  0  0  0  0
 24 26  1  0  0  0  0
 24 25  1  0  0  0  0
 27 28  1  6  0  0  0
 27 29  1  0  0  0  0
 27 24  1  0  0  0  0
 29 30  1  1  0  0  0
 29 38  1  0  0  0  0
 31 32  1  0  0  0  0
 31 34  1  0  0  0  0
 31 29  1  0  0  0  0
 33 31  1  0  0  0  0
 34 35  1  6  0  0  0
 34 36  1  0  0  0  0
 36 38  2  0  0  0  0
 36 37  1  0  0  0  0
 38 39  1  0  0  0  0
 40 41  1  6  0  0  0
 40 34  1  0  0  0  0
 40 27  1  0  0  0  0
 40 42  1  0  0  0  0
 42 44  1  0  0  0  0
 43 42  1  0  0  0  0
 45  2  1  0  0  0  0
 45 46  1  0  0  0  0
 46 53  1  0  0  0  0
 47 46  2  0  0  0  0
 47 48  1  0  0  0  0
 49 47  1  0  0  0  0
 50 52  1  0  0  0  0
 50 49  2  0  0  0  0
 51 50  1  0  0  0  0
 52 45  2  0  0  0  0
 53 56  1  0  0  0  0
 53 55  1  0  0  0  0
 54 53  1  0  0  0  0
 57 49  1  0  0  0  0
 57 60  1  0  0  0  0
 58 57  1  0  0  0  0
 59 57  1  0  0  0  0
 61 64  1  0  0  0  0
 61 52  1  0  0  0  0
 62 61  1  0  0  0  0
 63 61  1  0  0  0  0
M  END
