1
q = 0.0, confidence = 0.996

 25 25  0  0  0  0  0  0  0  0999 V2000
   -0.6920    1.6928   -0.2365 C   0  0  0  0  0  3  0  0  0  0  0  0
    0.7236    1.6492   -0.3834 C   0  0  0  0  0  0  0  0  0  0  0  0
    1.2050    2.5508   -0.7974 H   0  0  0  0  0  0  0  0  0  0  0  0
    1.4678    0.5465   -0.0027 C   0  0  0  0  0  3  0  0  0  0  0  0
    0.8980   -0.2981    0.4279 H   0  0  0  0  0  0  0  0  0  0  0  0
    2.8878    0.3706   -0.0845 C   0  0  0  0  0  0  0  0  0  0  0  0
    3.4610   -0.8407    0.3946 C   0  0  0  0  0  0  0  0  0  0  0  0
    2.7982   -1.6125    0.8163 H   0  0  0  0  0  0  0  0  0  0  0  0
    4.8323   -1.0744    0.3499 C   0  0  0  0  0  0  0  0  0  0  0  0
    5.2371   -2.0204    0.7316 H   0  0  0  0  0  0  0  0  0  0  0  0
    5.6881   -0.0799   -0.1888 C   0  0  0  0  0  0  0  0  0  0  0  0
    5.1353    1.1387   -0.6755 C   0  0  0  0  0  0  0  0  0  0  0  0
    5.8250    1.8893   -1.0867 H   0  0  0  0  0  0  0  0  0  0  0  0
    3.7708    1.3567   -0.6233 C   0  0  0  0  0  0  0  0  0  0  0  0
    3.3673    2.3060   -1.0039 H   0  0  0  0  0  0  0  0  0  0  0  0
    7.6673   -1.3737    0.1832 C   0  0  0  0  0  0  0  0  0  0  0  0
    8.7452   -1.2210   -0.0001 H   0  0  0  0  0  0  0  0  0  0  0  0
    7.3214   -2.2680   -0.3767 H   0  0  0  0  0  0  0  0  0  0  0  0
    7.4958   -1.5233    1.2700 H   0  0  0  0  0  0  0  0  0  0  0  0
    7.0173   -0.1906   -0.2829 O   0  0  0  0  0  0  0  0  0  0  0  0
   -2.6116    3.1118   -0.4782 C   0  0  0  0  0  0  0  0  0  0  0  0
   -3.0488    3.1212   -1.4963 H   0  0  0  0  0  0  0  0  0  0  0  0
   -2.7387    4.1075   -0.0141 H   0  0  0  0  0  0  0  0  0  0  0  0
   -3.0953    2.3240    0.1424 H   0  0  0  0  0  0  0  0  0  0  0  0
   -1.2002    2.8664   -0.5816 O   0  0  0  0  0  0  0  0  0  0  0  0
  2  1  2  0  0  0  0
  2  4  1  0  0  0  0
  3  2  1  0  0  0  0
  4  5  1  0  0  0  0
  6  4  1  0  0  0  0
  6  7  1  0  0  0  0
  7  8  1  0  0  0  0
  9  7  2  0  0  0  0
  9 10  1  0  0  0  0
 11  9  1  0  0  0  0
 12 14  1  0  0  0  0
 12 11  2  0  0  0  0
 13 12  1  0  0  0  0
 14  6  2  0  0  0  0
 15 14  1  0  0  0  0
 16 19  1  0  0  0  0
 17 16  1  0  0  0  0
 18 16  1  0  0  0  0
 20 11  1  0  0  0  0
 20 16  1  0  0  0  0
 21 23  1  0  0  0  0
 21 24  1  0  0  0  0
 22 21  1  0  0  0  0
 25 21  1  0  0  0  0
 25  1  1  0  0  0  0
M  END
