11
q = 0.0, confidence = 0.984

 28 29  0  0  0  0  0  0  0  0999 V2000
    1.0776    2.8739   -0.0755 N   0  0  0  0  0  0  0  0  0  0  0  0
    2.5174    3.0178   -0.2405 C   0  0  0  0  0  0  0  0  0  0  0  0
    3.0235    3.0130    0.7464 H   0  0  0  0  0  0  0  0  0  0  0  0
    2.7245    3.9796   -0.7459 H   0  0  0  0  0  0  0  0  0  0  0  0
    2.8868    2.1861   -0.8723 H   0  0  0  0  0  0  0  0  0  0  0  0
   -0.9162    2.0770    0.2427 N   0  0  0  0  0  0  0  0  0  0  0  0
    0.2478    3.9554    0.1858 C   0  0  0  0  0  0  0  0  0  0  0  0
    0.6231    4.9826    0.2017 H   0  0  0  0  0  0  0  0  0  0  0  0
   -1.0081    3.4543    0.3829 C   0  0  0  0  0  0  0  0  0  0  0  0
   -1.9552    3.9547    0.6033 H   0  0  0  0  0  0  0  0  0  0  0  0
    0.3743    1.6896   -0.0493 C   0  0  0  0  0  2  0  0  0  0  0  0
   -2.0631    1.1938    0.4377 C   0  0  0  0  0  0  0  0  0  0  0  0
   -2.4806    1.3873    1.4490 H   0  0  0  0  0  0  0  0  0  0  0  0
   -1.6723    0.1628    0.4031 H   0  0  0  0  0  0  0  0  0  0  0  0
   -3.1525    1.3571   -0.6320 C   0  0  0  0  0  0  0  0  0  0  0  0
   -3.5199    2.4046   -0.6530 H   0  0  0  0  0  0  0  0  0  0  0  0
   -2.6819    1.1317   -1.6105 H   0  0  0  0  0  0  0  0  0  0  0  0
   -4.3011    0.4120   -0.3612 C   0  0  0  0  0  0  0  0  0  0  0  0
   -4.1599   -0.9672   -0.6287 C   0  0  0  0  0  0  0  0  0  0  0  0
   -3.2180   -1.3262   -1.0753 H   0  0  0  0  0  0  0  0  0  0  0  0
   -5.2018   -1.8593   -0.3365 C   0  0  0  0  0  0  0  0  0  0  0  0
   -5.0795   -2.9309   -0.5581 H   0  0  0  0  0  0  0  0  0  0  0  0
   -6.3999   -1.3913    0.2287 C   0  0  0  0  0  0  0  0  0  0  0  0
   -7.2180   -2.0926    0.4539 H   0  0  0  0  0  0  0  0  0  0  0  0
   -6.5499   -0.0226    0.4991 C   0  0  0  0  0  0  0  0  0  0  0  0
   -7.4868    0.3547    0.9373 H   0  0  0  0  0  0  0  0  0  0  0  0
   -5.5056    0.8696    0.2077 C   0  0  0  0  0  0  0  0  0  0  0  0
   -5.6295    1.9445    0.4185 H   0  0  0  0  0  0  0  0  0  0  0  0
  1 11  1  0  0  0  0
  1  7  1  0  0  0  0
  2  1  1  0  0  0  0
  2  3  1  0  0  0  0
  4  2  1  0  0  0  0
  5  2  1  0  0  0  0
  6  9  1  0  0  0  0
  6 12  1  0  0  0  0
  7  8  1  0  0  0  0
  7  9  2  0  0  0  0
  9 10  1  0  0  0  0
 11  6  1  0  0  0  0
 12 13  1  0  0  0  0
 14 12  1  0  0  0  0
 15 18  1  0  0  0  0
 15 12  1  0  0  0  0
 16 15  1  0  0  0  0
 17 15  1  0  0  0  0
 18 27  1  0  0  0  0
 19 18  2  0  0  0  0
 19 21  1  0  0  0  0
 20 19  1  0  0  0  0
 21 23  2  0  0  0  0
 22 21  1  0  0  0  0
 23 24  1  0  0  0  0
 23 25  1  0  0  0  0
 25 26  1  0  0  0  0
 27 28  1  0  0  0  0
 27 25  2  0  0  0  0
M  END
