6
q = -1.0

 13 13  0  0  0  0  0  0  0  0999 V2000
    2.4756   -4.5841    0.0001 F   0  0  0  0  0  0  0  0  0  0  0  0
    4.7816   -6.0252    0.0002 F   0  0  0  0  0  0  0  0  0  0  0  0
    7.2017   -4.7468    0.0002 F   0  0  0  0  0  0  0  0  0  0  0  0
    7.3102   -2.0082    0.0001 F   0  0  0  0  0  0  0  0  0  0  0  0
    5.0165   -0.5517   -0.0001 F   0  0  0  0  0  0  0  0  0  0  0  0
    1.4507   -1.0438   -0.0000 C   0  0  0  0  0  0  0  0  0  0  0  0
    2.4688   -1.7534   -0.0000 C   0  0  0  0  0  0  0  0  0  0  0  0
    3.6591   -2.5181    0.0000 C   0  0  0  0  0  0  0  0  0  0  0  0
    3.6414   -3.9376    0.0001 C   0  0  0  0  0  0  0  0  0  0  0  0
    4.8258   -4.6887    0.0001 C   0  0  0  0  0  0  0  0  0  0  0  0
    6.0710   -4.0351    0.0001 C   0  0  0  0  0  0  0  0  0  0  0  0
    6.1242   -2.6297    0.0001 C   0  0  0  0  0  0  0  0  0  0  0  0
    4.9330   -1.8940    0.0000 C   0  0  0  0  0  0  0  0  0  0  0  0
  4 12  1  0  0  0  0
  5 13  1  0  0  0  0
  7  6  3  0  0  0  0
  7  8  1  0  0  0  0
  8  9  1  0  0  0  0
  9  1  1  0  0  0  0
  9 10  2  0  0  0  0
 10 11  1  0  0  0  0
 10  2  1  0  0  0  0
 11  3  1  0  0  0  0
 12 11  2  0  0  0  0
 13  8  2  0  0  0  0
 13 12  1  0  0  0  0
M  END
