1
q = -1.0

 11 11  0  0  0  0  0  0  0  0999 V2000
   -0.3801    0.6131    1.1490 C   0  0  0  0  0  3  0  0  0  0  0  0
   -1.3642    1.6083    0.9374 C   0  0  0  0  0  0  0  0  0  0  0  0
   -1.7357    1.8373   -0.0723 H   0  0  0  0  0  0  0  0  0  0  0  0
   -1.9146    2.3251    2.0103 C   0  0  0  0  0  0  0  0  0  0  0  0
   -1.5180    2.0910    3.3351 C   0  0  0  0  0  0  0  0  0  0  0  0
   -1.9666    2.6610    4.1601 H   0  0  0  0  0  0  0  0  0  0  0  0
   -0.5385    1.1099    3.5580 C   0  0  0  0  0  0  0  0  0  0  0  0
   -0.2046    0.9086    4.5888 H   0  0  0  0  0  0  0  0  0  0  0  0
    0.0214    0.3896    2.4898 C   0  0  0  0  0  0  0  0  0  0  0  0
    0.7957   -0.3618    2.7149 H   0  0  0  0  0  0  0  0  0  0  0  0
   -3.1514    3.5313    1.6763 Cl  0  0  0  0  0  0  0  0  0  0  0  0
  1  9  1  0  0  0  0
  2  1  2  0  0  0  0
  2  4  1  0  0  0  0
  3  2  1  0  0  0  0
  4  5  2  0  0  0  0
  5  7  1  0  0  0  0
  5  6  1  0  0  0  0
  7  8  1  0  0  0  0
  9 10  1  0  0  0  0
  9  7  2  0  0  0  0
 11  4  1  0  0  0  0
M  END
