3
q = -1.0

 10 10  0  0  0  0  0  0  0  0999 V2000
    2.7335    3.6276    1.4168 Cl  0  0  0  0  0  0  0  0  0  0  0  0
    1.1892    1.5457    0.9299 N   0  0  0  0  0  0  0  0  0  0  0  0
    0.3940    0.4824    1.2125 C   0  0  0  0  0  3  0  0  0  0  0  0
    0.1609    0.1377    2.5701 C   0  0  0  0  0  0  0  0  0  0  0  0
   -0.4852   -0.7189    2.8159 H   0  0  0  0  0  0  0  0  0  0  0  0
    0.7467    0.8942    3.5929 C   0  0  0  0  0  0  0  0  0  0  0  0
    0.5700    0.6347    4.6492 H   0  0  0  0  0  0  0  0  0  0  0  0
    1.5615    1.9945    3.2750 C   0  0  0  0  0  0  0  0  0  0  0  0
    2.0405    2.6200    4.0396 H   0  0  0  0  0  0  0  0  0  0  0  0
    1.7295    2.2547    1.9076 C   0  0  0  0  0  0  0  0  0  0  0  0
  1 10  1  0  0  0  0
  2  3  2  0  0  0  0
  2 10  1  0  0  0  0
  3  4  1  0  0  0  0
  4  5  1  0  0  0  0
  4  6  2  0  0  0  0
  6  7  1  0  0  0  0
  8  6  1  0  0  0  0
  8  9  1  0  0  0  0
 10  8  2  0  0  0  0
M  END
