6
q = -1.0

  7  6  0  0  0  0  0  0  0  0999 V2000
    1.8505    1.2744   -1.0707 F   0  0  0  0  0  0  0  0  0  0  0  0
    2.2215   -0.8279   -1.6038 F   0  0  0  0  0  0  0  0  0  0  0  0
    3.8765    0.1939    0.2951 F   0  0  0  0  0  0  0  0  0  0  0  0
    2.6480   -1.4182    1.0907 F   0  0  0  0  0  0  0  0  0  0  0  0
    2.1958    0.6568    1.6069 F   0  0  0  0  0  0  0  0  0  0  0  0
    1.6589   -0.0479   -0.6154 C   0  0  0  0  0  0  0  0  0  0  0  0
    2.6089   -0.1616    0.6033 C   0  0  0  0  0  0  0  0  0  0  0  0
  1  6  1  0  0  0  0
  2  6  1  0  0  0  0
  3  7  1  0  0  0  0
  6  7  1  0  0  0  0
  7  4  1  0  0  0  0
  7  5  1  0  0  0  0
M  END
