21
q = 0.0, confidence = 0.856

 50 53  0  0  0  0  0  0  0  0999 V2000
   -0.1710    0.6382   -0.1119 N   0  0  0  0  0  0  0  0  0  0  0  0
   -0.8526   -0.7638    0.0893 B   0  0  0  0  0  0  0  0  0  0  0  0
    7.1205    1.0413    1.1728 F   0  0  0  0  0  0  0  0  0  0  0  0
    7.2690    1.4484   -0.9643 F   0  0  0  0  0  0  0  0  0  0  0  0
    7.0537   -0.6078   -0.2521 F   0  0  0  0  0  0  0  0  0  0  0  0
    0.5881   -0.7910   -2.4208 F   0  0  0  0  0  0  0  0  0  0  0  0
    2.4946   -2.5352   -3.1862 F   0  0  0  0  0  0  0  0  0  0  0  0
    3.1737   -4.6421   -1.5607 F   0  0  0  0  0  0  0  0  0  0  0  0
    1.8860   -4.9842    0.8338 F   0  0  0  0  0  0  0  0  0  0  0  0
   -0.0309   -3.2748    1.6106 F   0  0  0  0  0  0  0  0  0  0  0  0
   -1.9298   -3.0211   -1.6525 F   0  0  0  0  0  0  0  0  0  0  0  0
   -4.0858   -2.8849   -3.2225 F   0  0  0  0  0  0  0  0  0  0  0  0
   -5.6055   -0.6058   -3.3306 F   0  0  0  0  0  0  0  0  0  0  0  0
   -4.8904    1.5751   -1.8032 F   0  0  0  0  0  0  0  0  0  0  0  0
   -2.7419    1.4705   -0.2046 F   0  0  0  0  0  0  0  0  0  0  0  0
   -3.5689   -1.5107    1.2984 F   0  0  0  0  0  0  0  0  0  0  0  0
   -4.2208   -1.3137    3.8730 F   0  0  0  0  0  0  0  0  0  0  0  0
   -2.3653   -0.5451    5.7420 F   0  0  0  0  0  0  0  0  0  0  0  0
    0.2118    0.0129    4.9404 F   0  0  0  0  0  0  0  0  0  0  0  0
    0.9037   -0.2045    2.3695 F   0  0  0  0  0  0  0  0  0  0  0  0
    0.8969    1.3026   -0.2044 C   0  0  0  0  0  3  0  0  0  0  0  0
    2.3408    1.0804   -0.1503 C   0  0  0  0  0  0  0  0  0  0  0  0
    3.1828    2.1527   -0.5311 C   0  0  0  0  0  0  0  0  0  0  0  0
    2.7211    3.1006   -0.8426 H   0  0  0  0  0  0  0  0  0  0  0  0
    4.5733    2.0173   -0.5228 C   0  0  0  0  0  0  0  0  0  0  0  0
    5.2186    2.8502   -0.8357 H   0  0  0  0  0  0  0  0  0  0  0  0
    5.1498    0.8019   -0.1141 C   0  0  0  0  0  0  0  0  0  0  0  0
    4.3294   -0.2679    0.2849 C   0  0  0  0  0  0  0  0  0  0  0  0
    4.7856   -1.2163    0.6031 H   0  0  0  0  0  0  0  0  0  0  0  0
    2.9381   -0.1330    0.2703 C   0  0  0  0  0  0  0  0  0  0  0  0
    2.3056   -0.9657    0.5947 H   0  0  0  0  0  0  0  0  0  0  0  0
    6.6549    0.6672   -0.0446 C   0  0  0  0  0  0  0  0  0  0  0  0
    0.2189   -1.9198   -0.3471 C   0  0  0  0  0  0  0  0  0  0  0  0
    0.8857   -1.8109   -1.5787 C   0  0  0  0  0  0  0  0  0  0  0  0
    1.8811   -2.6996   -2.0088 C   0  0  0  0  0  0  0  0  0  0  0  0
    2.2297   -3.7781   -1.1788 C   0  0  0  0  0  0  0  0  0  0  0  0
    1.5732   -3.9459    0.0508 C   0  0  0  0  0  0  0  0  0  0  0  0
    0.5760   -3.0296    0.4346 C   0  0  0  0  0  0  0  0  0  0  0  0
   -2.1799   -0.7663   -0.8895 C   0  0  0  0  0  0  0  0  0  0  0  0
   -2.5977   -1.8562   -1.6719 C   0  0  0  0  0  0  0  0  0  0  0  0
   -3.7391   -1.8200   -2.4957 C   0  0  0  0  0  0  0  0  0  0  0  0
   -4.5236   -0.6571   -2.5520 C   0  0  0  0  0  0  0  0  0  0  0  0
   -4.1603    0.4482   -1.7672 C   0  0  0  0  0  0  0  0  0  0  0  0
   -3.0136    0.3507   -0.9726 C   0  0  0  0  0  0  0  0  0  0  0  0
   -1.3046   -0.8043    1.6759 C   0  0  0  0  0  0  0  0  0  0  0  0
   -2.5973   -1.1061    2.1394 C   0  0  0  0  0  0  0  0  0  0  0  0
   -2.9727   -1.0188    3.4936 C   0  0  0  0  0  0  0  0  0  0  0  0
   -2.0256   -0.6326    4.4542 C   0  0  0  0  0  0  0  0  0  0  0  0
   -0.7124   -0.3535    4.0442 C   0  0  0  0  0  0  0  0  0  0  0  0
   -0.3899   -0.4629    2.6846 C   0  0  0  0  0  0  0  0  0  0  0  0
  1  2  1  0  0  0  0
  2 45  1  0  0  0  0
  4 32  1  0  0  0  0
  5 32  1  0  0  0  0
  6 34  1  0  0  0  0
  7 35  1  0  0  0  0
  8 36  1  0  0  0  0
 12 41  1  0  0  0  0
 13 42  1  0  0  0  0
 14 43  1  0  0  0  0
 16 46  1  0  0  0  0
 20 50  1  0  0  0  0
 21 22  1  0  0  0  0
 21  1  2  0  0  0  0
 22 30  1  0  0  0  0
 23 25  1  0  0  0  0
 23 22  2  0  0  0  0
 24 23  1  0  0  0  0
 25 27  2  0  0  0  0
 26 25  1  0  0  0  0
 27 32  1  0  0  0  0
 27 28  1  0  0  0  0
 28 29  1  0  0  0  0
 30 28  2  0  0  0  0
 30 31  1  0  0  0  0
 32  3  1  0  0  0  0
 33  2  1  0  0  0  0
 33 38  1  0  0  0  0
 34 33  2  0  0  0  0
 35 34  1  0  0  0  0
 35 36  2  0  0  0  0
 36 37  1  0  0  0  0
 37 38  2  0  0  0  0
 37  9  1  0  0  0  0
 38 10  1  0  0  0  0
 39  2  1  0  0  0  0
 40 11  1  0  0  0  0
 40 39  2  0  0  0  0
 41 40  1  0  0  0  0
 42 41  2  0  0  0  0
 42 43  1  0  0  0  0
 43 44  2  0  0  0  0
 44 39  1  0  0  0  0
 44 15  1  0  0  0  0
 45 46  2  0  0  0  0
 45 50  1  0  0  0  0
 46 47  1  0  0  0  0
 47 17  1  0  0  0  0
 47 48  2  0  0  0  0
 48 18  1  0  0  0  0
 49 48  1  0  0  0  0
 49 19  1  0  0  0  0
 50 49  2  0  0  0  0
M  END
