3
q = 0.0, confidence = 1.0

 42 43  0  0  1  0  0  0  0  0999 V2000
    1.9115   -0.6893   -0.2376 N   0  0  0  0  0  0  0  0  0  0  0  0
    1.2612   -1.5993    0.8282 B   0  0  0  0  0  0  0  0  0  0  0  0
    1.4726    0.4676    0.5457 C   0  0  1  0  0  3  0  0  0  0  0  0
    0.8141   -0.3024    1.5674 C   0  0  0  0  0  0  0  0  0  0  0  0
    0.3937    0.0617    2.5094 H   0  0  0  0  0  0  0  0  0  0  0  0
    2.0009    1.8541    0.5364 C   0  0  0  0  0  0  0  0  0  0  0  0
    3.0710    2.1862    1.3947 C   0  0  0  0  0  0  0  0  0  0  0  0
    3.5094    1.4058    2.0353 H   0  0  0  0  0  0  0  0  0  0  0  0
    1.4271    2.8599   -0.2652 C   0  0  0  0  0  0  0  0  0  0  0  0
    0.5858    2.5919   -0.9184 H   0  0  0  0  0  0  0  0  0  0  0  0
    1.9192    4.1717   -0.2189 C   0  0  0  0  0  0  0  0  0  0  0  0
    1.4600    4.9491   -0.8486 H   0  0  0  0  0  0  0  0  0  0  0  0
    2.9926    4.4929    0.6276 C   0  0  0  0  0  0  0  0  0  0  0  0
    3.3796    5.5227    0.6629 H   0  0  0  0  0  0  0  0  0  0  0  0
    3.5669    3.4976    1.4348 C   0  0  0  0  0  0  0  0  0  0  0  0
    4.4036    3.7454    2.1057 H   0  0  0  0  0  0  0  0  0  0  0  0
    2.8817   -0.7431   -1.3577 C   0  0  0  0  0  0  0  0  0  0  0  0
    0.5065   -3.3320    2.4894 C   0  0  0  0  0  0  0  0  0  0  0  0
    0.4853   -4.4011    2.7937 H   0  0  0  0  0  0  0  0  0  0  0  0
   -0.5427   -2.9909    2.3865 H   0  0  0  0  0  0  0  0  0  0  0  0
    0.9672   -2.7536    3.3163 H   0  0  0  0  0  0  0  0  0  0  0  0
    2.6857   -2.0732   -2.0966 C   0  0  0  0  0  0  0  0  0  0  0  0
    3.3766   -2.1188   -2.9611 H   0  0  0  0  0  0  0  0  0  0  0  0
    1.6445   -2.1543   -2.4669 H   0  0  0  0  0  0  0  0  0  0  0  0
    2.9064   -2.9369   -1.4425 H   0  0  0  0  0  0  0  0  0  0  0  0
    4.3019   -0.6519   -0.7655 C   0  0  0  0  0  0  0  0  0  0  0  0
    5.0577   -0.7298   -1.5726 H   0  0  0  0  0  0  0  0  0  0  0  0
    4.4810   -1.4713   -0.0415 H   0  0  0  0  0  0  0  0  0  0  0  0
    4.4545    0.3152   -0.2467 H   0  0  0  0  0  0  0  0  0  0  0  0
    2.6356    0.4093   -2.3466 C   0  0  0  0  0  0  0  0  0  0  0  0
    3.3057    0.2874   -3.2202 H   0  0  0  0  0  0  0  0  0  0  0  0
    2.8471    1.3963   -1.8965 H   0  0  0  0  0  0  0  0  0  0  0  0
    1.5864    0.3874   -2.7029 H   0  0  0  0  0  0  0  0  0  0  0  0
    1.2863   -3.1540    1.1682 C   0  0  0  0  0  0  0  0  0  0  0  0
    0.6314   -4.0348    0.0848 C   0  0  0  0  0  0  0  0  0  0  0  0
    0.6283   -5.1006    0.4036 H   0  0  0  0  0  0  0  0  0  0  0  0
    1.1579   -3.9746   -0.8855 H   0  0  0  0  0  0  0  0  0  0  0  0
   -0.4181   -3.7321   -0.1005 H   0  0  0  0  0  0  0  0  0  0  0  0
    2.7468   -3.6029    1.4011 C   0  0  0  0  0  0  0  0  0  0  0  0
    2.7771   -4.6554    1.7598 H   0  0  0  0  0  0  0  0  0  0  0  0
    3.2525   -2.9770    2.1661 H   0  0  0  0  0  0  0  0  0  0  0  0
    3.3532   -3.5544    0.4743 H   0  0  0  0  0  0  0  0  0  0  0  0
  1  3  1  0  0  0  0
  1  2  1  0  0  0  0
  2 34  1  0  0  0  0
  2  4  2  0  0  0  0
  3  6  1  1  0  0  0
  3  4  1  0  0  0  0
  4  5  1  0  0  0  0
  6  7  1  0  0  0  0
  7 15  2  0  0  0  0
  7  8  1  0  0  0  0
  9 11  1  0  0  0  0
  9  6  2  0  0  0  0
 10  9  1  0  0  0  0
 11 13  2  0  0  0  0
 12 11  1  0  0  0  0
 13 14  1  0  0  0  0
 13 15  1  0  0  0  0
 15 16  1  0  0  0  0
 17 26  1  0  0  0  0
 17  1  1  0  0  0  0
 18 19  1  0  0  0  0
 18 21  1  0  0  0  0
 20 18  1  0  0  0  0
 22 25  1  0  0  0  0
 22 17  1  0  0  0  0
 23 22  1  0  0  0  0
 24 22  1  0  0  0  0
 26 29  1  0  0  0  0
 26 28  1  0  0  0  0
 27 26  1  0  0  0  0
 30 32  1  0  0  0  0
 30 17  1  0  0  0  0
 31 30  1  0  0  0  0
 33 30  1  0  0  0  0
 34 39  1  0  0  0  0
 34 18  1  0  0  0  0
 35 36  1  0  0  0  0
 35 34  1  0  0  0  0
 37 35  1  0  0  0  0
 38 35  1  0  0  0  0
 39 40  1  0  0  0  0
 39 41  1  0  0  0  0
 42 39  1  0  0  0  0
M  END
