1
q = -1.0

 43 43  0  0  1  0  0  0  0  0999 V2000
   -0.3849    0.3692   -0.8973 C   0  0  0  0  0  2  0  0  0  0  0  0
   -0.2461    0.9433   -1.8368 H   0  0  0  0  0  0  0  0  0  0  0  0
    0.7767   -0.0691   -0.3025 C   0  0  1  0  0  3  0  0  0  0  0  0
    0.7576   -0.8804    0.9475 C   0  0  0  0  0  0  0  0  0  0  0  0
   -0.1198   -0.6006    2.0224 C   0  0  0  0  0  0  0  0  0  0  0  0
   -0.7965    0.2643    1.9429 H   0  0  0  0  0  0  0  0  0  0  0  0
   -0.1521   -1.4078    3.1695 C   0  0  0  0  0  0  0  0  0  0  0  0
   -0.8450   -1.1599    3.9882 H   0  0  0  0  0  0  0  0  0  0  0  0
    0.6877   -2.5293    3.2716 C   0  0  0  0  0  0  0  0  0  0  0  0
    0.6602   -3.1655    4.1691 H   0  0  0  0  0  0  0  0  0  0  0  0
    1.5682   -2.8251    2.2173 C   0  0  0  0  0  0  0  0  0  0  0  0
    2.2344   -3.6991    2.2833 H   0  0  0  0  0  0  0  0  0  0  0  0
    1.6091   -2.0050    1.0811 C   0  0  0  0  0  0  0  0  0  0  0  0
    2.3130   -2.2384    0.2684 H   0  0  0  0  0  0  0  0  0  0  0  0
    2.1629    0.2463   -0.9545 B   0  0  0  0  0  0  0  0  0  0  0  0
    2.1723    0.5087   -2.7693 Cl  0  0  0  0  0  0  0  0  0  0  0  0
    3.4152    0.3268   -0.2639 N   0  0  0  0  0  0  0  0  0  0  0  0
    4.9001   -0.3483   -1.0307 Si  0  0  0  0  0  0  0  0  0  0  0  0
    4.4697   -1.9074   -2.0119 C   0  0  0  0  0  0  0  0  0  0  0  0
    3.9544   -2.6509   -1.3692 H   0  0  0  0  0  0  0  0  0  0  0  0
    5.4081   -2.3753   -2.3759 H   0  0  0  0  0  0  0  0  0  0  0  0
    3.8242   -1.6964   -2.8848 H   0  0  0  0  0  0  0  0  0  0  0  0
    5.7541    0.9157   -2.1415 C   0  0  0  0  0  0  0  0  0  0  0  0
    5.0517    1.2530   -2.9289 H   0  0  0  0  0  0  0  0  0  0  0  0
    6.6442    0.4690   -2.6312 H   0  0  0  0  0  0  0  0  0  0  0  0
    6.0856    1.8038   -1.5682 H   0  0  0  0  0  0  0  0  0  0  0  0
    6.0800   -0.9317    0.3336 C   0  0  0  0  0  0  0  0  0  0  0  0
    6.4337   -0.1301    1.0097 H   0  0  0  0  0  0  0  0  0  0  0  0
    6.9743   -1.3804   -0.1470 H   0  0  0  0  0  0  0  0  0  0  0  0
    5.6023   -1.7182    0.9526 H   0  0  0  0  0  0  0  0  0  0  0  0
    3.5124    1.2687    1.2679 Si  0  0  0  0  0  0  0  0  0  0  0  0
    3.6937    0.2110    2.8203 C   0  0  0  0  0  0  0  0  0  0  0  0
    2.7742   -0.3729    3.0192 H   0  0  0  0  0  0  0  0  0  0  0  0
    3.8795    0.8728    3.6923 H   0  0  0  0  0  0  0  0  0  0  0  0
    4.5414   -0.4971    2.7453 H   0  0  0  0  0  0  0  0  0  0  0  0
    2.0045    2.3959    1.4468 C   0  0  0  0  0  0  0  0  0  0  0  0
    1.8706    3.0114    0.5344 H   0  0  0  0  0  0  0  0  0  0  0  0
    2.1788    3.0825    2.3015 H   0  0  0  0  0  0  0  0  0  0  0  0
    1.0716    1.8338    1.6356 H   0  0  0  0  0  0  0  0  0  0  0  0
    4.9913    2.4489    1.1268 C   0  0  0  0  0  0  0  0  0  0  0  0
    5.9699    1.9397    1.0344 H   0  0  0  0  0  0  0  0  0  0  0  0
    5.0317    3.0848    2.0357 H   0  0  0  0  0  0  0  0  0  0  0  0
    4.8695    3.1176    0.2505 H   0  0  0  0  0  0  0  0  0  0  0  0
  2  1  1  0  0  0  0
  3  1  1  6  0  0  0
  3  4  1  0  0  0  0
  4 13  2  0  0  0  0
  4  5  1  0  0  0  0
  5  7  2  0  0  0  0
  6  5  1  0  0  0  0
  7  9  1  0  0  0  0
  7  8  1  0  0  0  0
  9 10  1  0  0  0  0
 11 12  1  0  0  0  0
 11  9  2  0  0  0  0
 13 11  1  0  0  0  0
 14 13  1  0  0  0  0
 15  3  1  0  0  0  0
 15 17  1  0  0  0  0
 16 15  1  0  0  0  0
 17 31  1  0  0  0  0
 18 17  1  0  0  0  0
 18 27  1  0  0  0  0
 19 20  1  0  0  0  0
 19 18  1  0  0  0  0
 21 19  1  0  0  0  0
 22 19  1  0  0  0  0
 23 26  1  0  0  0  0
 23 18  1  0  0  0  0
 24 23  1  0  0  0  0
 25 23  1  0  0  0  0
 27 30  1  0  0  0  0
 27 28  1  0  0  0  0
 29 27  1  0  0  0  0
 31 36  1  0  0  0  0
 31 32  1  0  0  0  0
 32 33  1  0  0  0  0
 32 34  1  0  0  0  0
 35 32  1  0  0  0  0
 36 39  1  0  0  0  0
 36 38  1  0  0  0  0
 37 36  1  0  0  0  0
 40 31  1  0  0  0  0
 40 42  1  0  0  0  0
 41 40  1  0  0  0  0
 43 40  1  0  0  0  0
M  END
