1
q = -1.0

 13 12  0  0  0  0  0  0  0  0999 V2000
   -0.1966    1.9072   -0.9285 C   0  0  0  0  0  3  0  0  0  0  0  0
   -1.0410    2.7021   -0.0087 C   0  0  0  0  0  0  0  0  0  0  0  0
   -0.3326    3.6138    0.7081 O   0  0  0  0  0  0  0  0  0  0  0  0
   -2.2597    2.5451    0.1608 O   0  0  0  0  0  0  0  0  0  0  0  0
   -1.0598    4.3554    1.7108 C   0  0  0  0  0  0  0  0  0  0  0  0
   -1.7599    5.5672    1.1166 C   0  0  0  0  0  0  0  0  0  0  0  0
   -0.7387    1.7161   -1.8774 H   0  0  0  0  0  0  0  0  0  0  0  0
    0.7634    2.4211   -1.1386 H   0  0  0  0  0  0  0  0  0  0  0  0
   -1.7906    3.6779    2.1975 H   0  0  0  0  0  0  0  0  0  0  0  0
   -0.2906    4.6527    2.4507 H   0  0  0  0  0  0  0  0  0  0  0  0
   -2.5489    5.2485    0.4083 H   0  0  0  0  0  0  0  0  0  0  0  0
   -1.0405    6.2193    0.5820 H   0  0  0  0  0  0  0  0  0  0  0  0
   -2.2370    6.1643    1.9201 H   0  0  0  0  0  0  0  0  0  0  0  0
  1  2  1  0  0  0  0
  2  4  2  0  0  0  0
  2  3  1  0  0  0  0
  3  5  1  0  0  0  0
  5  9  1  0  0  0  0
  5 10  1  0  0  0  0
  6  5  1  0  0  0  0
  6 13  1  0  0  0  0
  7  1  1  0  0  0  0
  8  1  1  0  0  0  0
 11  6  1  0  0  0  0
 12  6  1  0  0  0  0
M  END
