3
q = 0.0, confidence = 1.0

 37 40  0  0  0  0  0  0  0  0999 V2000
   -1.2770    0.3354    0.5273 N   0  0  0  0  0  0  0  0  0  0  0  0
   -1.1419   -1.8044   -0.3993 N   0  0  0  0  0  0  0  0  0  0  0  0
   -0.4963   -0.7061    0.0957 C   0  0  0  0  0  2  0  0  0  0  0  0
   -2.6895    0.3169    0.5351 C   0  0  0  0  0  0  0  0  0  0  0  0
   -3.4565    1.3679    1.0463 C   0  0  0  0  0  0  0  0  0  0  0  0
   -2.9805    2.2631    1.4619 H   0  0  0  0  0  0  0  0  0  0  0  0
   -4.8692    1.2900    1.0007 C   0  0  0  0  0  0  0  0  0  0  0  0
   -5.4555    2.1284    1.4055 H   0  0  0  0  0  0  0  0  0  0  0  0
   -5.5179    0.1933    0.4530 C   0  0  0  0  0  0  0  0  0  0  0  0
   -6.6164    0.1494    0.4162 H   0  0  0  0  0  0  0  0  0  0  0  0
   -4.7668   -0.8979   -0.0714 C   0  0  0  0  0  0  0  0  0  0  0  0
   -5.3714   -2.0566   -0.6408 C   0  0  0  0  0  0  0  0  0  0  0  0
   -6.4690   -2.1158   -0.6853 H   0  0  0  0  0  0  0  0  0  0  0  0
   -4.5852   -3.0905   -1.1245 C   0  0  0  0  0  0  0  0  0  0  0  0
   -5.0594   -3.9820   -1.5619 H   0  0  0  0  0  0  0  0  0  0  0  0
   -3.1708   -3.0350   -1.0631 C   0  0  0  0  0  0  0  0  0  0  0  0
   -2.5840   -3.8777   -1.4456 H   0  0  0  0  0  0  0  0  0  0  0  0
   -2.5454   -1.9126   -0.5123 C   0  0  0  0  0  0  0  0  0  0  0  0
   -3.3317   -0.8290   -0.0195 C   0  0  0  0  0  0  0  0  0  0  0  0
   -0.5969    1.5012    1.0944 C   0  0  0  0  0  0  0  0  0  0  0  0
    0.4850    1.2011    1.1413 H   0  0  0  0  0  0  0  0  0  0  0  0
   -0.9352    1.6426    2.1422 H   0  0  0  0  0  0  0  0  0  0  0  0
   -0.7269    2.7775    0.2976 C   0  0  0  0  0  0  0  0  0  0  0  0
   -1.1675    2.7952   -1.0399 C   0  0  0  0  0  0  0  0  0  0  0  0
   -1.4942    1.8594   -1.5174 H   0  0  0  0  0  0  0  0  0  0  0  0
   -1.2017    3.9963   -1.7645 C   0  0  0  0  0  0  0  0  0  0  0  0
   -1.5530    3.9917   -2.8076 H   0  0  0  0  0  0  0  0  0  0  0  0
   -0.7937    5.1975   -1.1646 C   0  0  0  0  0  0  0  0  0  0  0  0
   -0.8203    6.1388   -1.7337 H   0  0  0  0  0  0  0  0  0  0  0  0
   -0.3563    5.1898    0.1701 C   0  0  0  0  0  0  0  0  0  0  0  0
   -0.0368    6.1266    0.6518 H   0  0  0  0  0  0  0  0  0  0  0  0
   -0.3270    3.9903    0.8950 C   0  0  0  0  0  0  0  0  0  0  0  0
    0.0167    3.9901    1.9421 H   0  0  0  0  0  0  0  0  0  0  0  0
   -0.3447   -2.9689   -0.7787 C   0  0  0  0  0  0  0  0  0  0  0  0
   -0.6567   -3.8486   -0.1815 H   0  0  0  0  0  0  0  0  0  0  0  0
    0.7181   -2.7352   -0.5582 H   0  0  0  0  0  0  0  0  0  0  0  0
   -0.4674   -3.1930   -1.8577 H   0  0  0  0  0  0  0  0  0  0  0  0
  1  4  1  0  0  0  0
  1 20  1  0  0  0  0
  2  3  1  0  0  0  0
  3  1  1  0  0  0  0
  4  5  1  0  0  0  0
  5  6  1  0  0  0  0
  7  5  2  0  0  0  0
  7  8  1  0  0  0  0
  9  7  1  0  0  0  0
 10  9  1  0  0  0  0
 11 19  1  0  0  0  0
 11  9  2  0  0  0  0
 12 11  1  0  0  0  0
 13 12  1  0  0  0  0
 14 16  1  0  0  0  0
 14 12  2  0  0  0  0
 15 14  1  0  0  0  0
 16 18  2  0  0  0  0
 17 16  1  0  0  0  0
 18  2  1  0  0  0  0
 18 19  1  0  0  0  0
 19  4  2  0  0  0  0
 20 21  1  0  0  0  0
 20 22  1  0  0  0  0
 23 32  1  0  0  0  0
 23 20  1  0  0  0  0
 24 23  2  0  0  0  0
 25 24  1  0  0  0  0
 26 28  2  0  0  0  0
 26 24  1  0  0  0  0
 27 26  1  0  0  0  0
 28 30  1  0  0  0  0
 29 28  1  0  0  0  0
 30 31  1  0  0  0  0
 30 32  2  0  0  0  0
 32 33  1  0  0  0  0
 34 36  1  0  0  0  0
 34  2  1  0  0  0  0
 34 35  1  0  0  0  0
 37 34  1  0  0  0  0
M  END
