3
q = -1.0

 38 40  0  0  1  0  0  0  0  0999 V2000
    1.0772    0.2565   -0.3469 Si  0  0  0  0  0  0  0  0  0  0  0  0
    3.0832   -0.6585    2.4214 Si  0  0  0  0  0  0  0  0  0  0  0  0
    0.2491   -0.6391    1.1605 C   0  0  0  0  0  2  0  0  0  0  0  0
    1.4642   -0.3719    1.5461 C   0  0  2  0  0  3  0  0  0  0  0  0
    3.7149   -2.3791    1.9652 C   0  0  0  0  0  0  0  0  0  0  0  0
    3.8553   -2.4564    0.8679 H   0  0  0  0  0  0  0  0  0  0  0  0
    2.9915   -3.1606    2.2735 H   0  0  0  0  0  0  0  0  0  0  0  0
    4.6870   -2.5873    2.4587 H   0  0  0  0  0  0  0  0  0  0  0  0
    2.7653   -0.5172    4.2811 C   0  0  0  0  0  0  0  0  0  0  0  0
    2.0220   -1.2705    4.6121 H   0  0  0  0  0  0  0  0  0  0  0  0
    2.3765    0.4876    4.5431 H   0  0  0  0  0  0  0  0  0  0  0  0
    3.7028   -0.6840    4.8512 H   0  0  0  0  0  0  0  0  0  0  0  0
    4.3149    0.6522    1.8465 C   0  0  0  0  0  0  0  0  0  0  0  0
    5.2923    0.5159    2.3536 H   0  0  0  0  0  0  0  0  0  0  0  0
    3.9542    1.6784    2.0587 H   0  0  0  0  0  0  0  0  0  0  0  0
    4.4817    0.5677    0.7534 H   0  0  0  0  0  0  0  0  0  0  0  0
    1.3001    2.1219   -0.4176 C   0  0  0  0  0  0  0  0  0  0  0  0
    1.4442    2.9124    0.7438 C   0  0  0  0  0  0  0  0  0  0  0  0
    1.4891    2.4181    1.7271 H   0  0  0  0  0  0  0  0  0  0  0  0
    1.5258    4.3108    0.6564 C   0  0  0  0  0  0  0  0  0  0  0  0
    1.6358    4.9123    1.5721 H   0  0  0  0  0  0  0  0  0  0  0  0
    1.4752    4.9425   -0.5976 C   0  0  0  0  0  0  0  0  0  0  0  0
    1.5429    6.0390   -0.6670 H   0  0  0  0  0  0  0  0  0  0  0  0
    1.3424    4.1696   -1.7628 C   0  0  0  0  0  0  0  0  0  0  0  0
    1.3037    4.6596   -2.7479 H   0  0  0  0  0  0  0  0  0  0  0  0
    1.2498    2.7722   -1.6726 C   0  0  0  0  0  0  0  0  0  0  0  0
    1.1286    2.1780   -2.5935 H   0  0  0  0  0  0  0  0  0  0  0  0
    2.3483   -0.6746   -1.3727 C   0  0  0  0  0  0  0  0  0  0  0  0
    2.2359   -2.0722   -1.5492 C   0  0  0  0  0  0  0  0  0  0  0  0
    1.3611   -2.6018   -1.1401 H   0  0  0  0  0  0  0  0  0  0  0  0
    3.2267   -2.7874   -2.2358 C   0  0  0  0  0  0  0  0  0  0  0  0
    3.1259   -3.8762   -2.3627 H   0  0  0  0  0  0  0  0  0  0  0  0
    4.3414   -2.1162   -2.7675 C   0  0  0  0  0  0  0  0  0  0  0  0
    5.1164   -2.6782   -3.3110 H   0  0  0  0  0  0  0  0  0  0  0  0
    4.4609   -0.7272   -2.6079 C   0  0  0  0  0  0  0  0  0  0  0  0
    5.3308   -0.1961   -3.0244 H   0  0  0  0  0  0  0  0  0  0  0  0
    3.4720   -0.0116   -1.9130 C   0  0  0  0  0  0  0  0  0  0  0  0
    3.5795    1.0775   -1.7857 H   0  0  0  0  0  0  0  0  0  0  0  0
  1  3  1  0  0  0  0
  1  4  1  0  0  0  0
  2  9  1  0  0  0  0
  3  4  1  0  0  0  0
  4  2  1  6  0  0  0
  5  7  1  0  0  0  0
  5  2  1  0  0  0  0
  5  8  1  0  0  0  0
  6  5  1  0  0  0  0
  9 11  1  0  0  0  0
  9 10  1  0  0  0  0
  9 12  1  0  0  0  0
 13 15  1  0  0  0  0
 13 14  1  0  0  0  0
 13  2  1  0  0  0  0
 16 13  1  0  0  0  0
 17  1  1  0  0  0  0
 17 18  1  0  0  0  0
 18 19  1  0  0  0  0
 20 18  2  0  0  0  0
 20 21  1  0  0  0  0
 22 20  1  0  0  0  0
 23 22  1  0  0  0  0
 24 26  1  0  0  0  0
 24 22  2  0  0  0  0
 25 24  1  0  0  0  0
 26 17  2  0  0  0  0
 27 26  1  0  0  0  0
 28  1  1  0  0  0  0
 29 28  1  0  0  0  0
 29 30  1  0  0  0  0
 31 29  2  0  0  0  0
 32 31  1  0  0  0  0
 33 35  2  0  0  0  0
 33 31  1  0  0  0  0
 34 33  1  0  0  0  0
 35 37  1  0  0  0  0
 36 35  1  0  0  0  0
 37 38  1  0  0  0  0
 37 28  2  0  0  0  0
M  HYD  2   3   0   4   0
M  ZBO  1   2   0
M  END
