4
q = -1.0

 48 50  0  0  1  0  0  0  0  0999 V2000
    0.1685    1.4696    0.3063 Si  0  0  0  0  0  0  0  0  0  0  0  0
   -3.8273   -0.8769    0.5883 Si  0  0  0  0  0  0  0  0  0  0  0  0
   -0.6166    1.6292    1.8273 O   0  0  0  0  0  0  0  0  0  0  0  0
   -1.1100   -0.4179    0.2854 C   0  0  0  0  0  2  0  0  0  0  0  0
   -2.1671   -0.0505    1.0123 C   0  0  1  0  0  3  0  0  0  0  0  0
   -1.9362    1.1075    2.0126 C   0  0  0  0  0  0  0  0  0  0  0  0
   -3.4989   -2.5781   -0.1663 C   0  0  0  0  0  0  0  0  0  0  0  0
   -4.4603   -3.0889   -0.3804 H   0  0  0  0  0  0  0  0  0  0  0  0
   -2.9176   -3.2143    0.5303 H   0  0  0  0  0  0  0  0  0  0  0  0
   -2.9341   -2.4982   -1.1153 H   0  0  0  0  0  0  0  0  0  0  0  0
   -4.7482    0.1977   -0.6684 C   0  0  0  0  0  0  0  0  0  0  0  0
   -4.1403    0.3188   -1.5874 H   0  0  0  0  0  0  0  0  0  0  0  0
   -4.9603    1.2098   -0.2711 H   0  0  0  0  0  0  0  0  0  0  0  0
   -5.7129   -0.2737   -0.9499 H   0  0  0  0  0  0  0  0  0  0  0  0
   -4.8907   -1.0962    2.1430 C   0  0  0  0  0  0  0  0  0  0  0  0
   -5.1563   -0.1293    2.6154 H   0  0  0  0  0  0  0  0  0  0  0  0
   -4.3790   -1.7233    2.9010 H   0  0  0  0  0  0  0  0  0  0  0  0
   -5.8383   -1.6045    1.8668 H   0  0  0  0  0  0  0  0  0  0  0  0
   -2.0042    0.5944    3.4582 C   0  0  0  0  0  0  0  0  0  0  0  0
   -1.2722   -0.2232    3.6068 H   0  0  0  0  0  0  0  0  0  0  0  0
   -3.0121    0.2140    3.7089 H   0  0  0  0  0  0  0  0  0  0  0  0
   -1.7527    1.4216    4.1520 H   0  0  0  0  0  0  0  0  0  0  0  0
   -2.9506    2.2399    1.7834 C   0  0  0  0  0  0  0  0  0  0  0  0
   -2.7142    3.0826    2.4628 H   0  0  0  0  0  0  0  0  0  0  0  0
   -3.9851    1.9011    1.9916 H   0  0  0  0  0  0  0  0  0  0  0  0
   -2.8988    2.6069    0.7408 H   0  0  0  0  0  0  0  0  0  0  0  0
    1.8491    2.2199    0.7688 C   0  0  0  0  0  0  0  0  0  0  0  0
    2.2026    2.3986    2.1262 C   0  0  0  0  0  0  0  0  0  0  0  0
    1.4733    2.1280    2.9038 H   0  0  0  0  0  0  0  0  0  0  0  0
    3.4541    2.9257    2.4837 C   0  0  0  0  0  0  0  0  0  0  0  0
    3.7105    3.0554    3.5469 H   0  0  0  0  0  0  0  0  0  0  0  0
    4.3729    3.2967    1.4888 C   0  0  0  0  0  0  0  0  0  0  0  0
    5.3544    3.7103    1.7677 H   0  0  0  0  0  0  0  0  0  0  0  0
    4.0261    3.1516    0.1355 C   0  0  0  0  0  0  0  0  0  0  0  0
    4.7336    3.4568   -0.6511 H   0  0  0  0  0  0  0  0  0  0  0  0
    2.7776    2.6189   -0.2207 C   0  0  0  0  0  0  0  0  0  0  0  0
    2.5248    2.5154   -1.2858 H   0  0  0  0  0  0  0  0  0  0  0  0
   -0.7029    2.5920   -0.9412 C   0  0  0  0  0  0  0  0  0  0  0  0
   -0.5622    3.9914   -0.8038 C   0  0  0  0  0  0  0  0  0  0  0  0
    0.1011    4.3984   -0.0233 H   0  0  0  0  0  0  0  0  0  0  0  0
   -1.2574    4.8726   -1.6468 C   0  0  0  0  0  0  0  0  0  0  0  0
   -1.1344    5.9602   -1.5266 H   0  0  0  0  0  0  0  0  0  0  0  0
   -2.1073    4.3668   -2.6436 C   0  0  0  0  0  0  0  0  0  0  0  0
   -2.6533    5.0565   -3.3058 H   0  0  0  0  0  0  0  0  0  0  0  0
   -2.2532    2.9782   -2.7975 C   0  0  0  0  0  0  0  0  0  0  0  0
   -2.9135    2.5755   -3.5812 H   0  0  0  0  0  0  0  0  0  0  0  0
   -1.5544    2.1018   -1.9542 C   0  0  0  0  0  0  0  0  0  0  0  0
   -1.6676    1.0146   -2.0823 H   0  0  0  0  0  0  0  0  0  0  0  0
  1 27  1  0  0  0  0
  1  3  1  0  0  0  0
  2 15  1  0  0  0  0
  3  6  1  0  0  0  0
  4  1  1  0  0  0  0
  4  5  1  0  0  0  0
  5  2  1  6  0  0  0
  5  6  1  0  0  0  0
  6 19  1  0  0  0  0
  7  9  1  0  0  0  0
  7  2  1  0  0  0  0
  8  7  1  0  0  0  0
 10  7  1  0  0  0  0
 11 13  1  0  0  0  0
 11  2  1  0  0  0  0
 12 11  1  0  0  0  0
 14 11  1  0  0  0  0
 15 16  1  0  0  0  0
 15 17  1  0  0  0  0
 18 15  1  0  0  0  0
 19 20  1  0  0  0  0
 19 21  1  0  0  0  0
 19 22  1  0  0  0  0
 23 25  1  0  0  0  0
 23  6  1  0  0  0  0
 23 24  1  0  0  0  0
 26 23  1  0  0  0  0
 27 28  1  0  0  0  0
 28 30  2  0  0  0  0
 28 29  1  0  0  0  0
 30 31  1  0  0  0  0
 32 33  1  0  0  0  0
 32 30  1  0  0  0  0
 34 32  2  0  0  0  0
 35 34  1  0  0  0  0
 36 34  1  0  0  0  0
 36 27  2  0  0  0  0
 37 36  1  0  0  0  0
 38 39  1  0  0  0  0
 38  1  1  0  0  0  0
 39 40  1  0  0  0  0
 41 42  1  0  0  0  0
 41 39  2  0  0  0  0
 43 41  1  0  0  0  0
 44 43  1  0  0  0  0
 45 43  2  0  0  0  0
 45 47  1  0  0  0  0
 46 45  1  0  0  0  0
 47 38  2  0  0  0  0
 48 47  1  0  0  0  0
M  END
