4
q = 0.0, confidence = 0.99

 55 57  0  0  0  0  0  0  0  0999 V2000
   -1.0494   -0.9081    0.4919 N   0  0  0  0  0  0  0  0  0  0  0  0
   -0.7832   -1.9752    1.2546 N   0  0  0  0  0  2  0  0  0  0  0  0
    0.5446   -1.9980    1.2894 N   0  0  0  0  0  0  0  0  0  0  0  0
    0.0478   -0.2235    0.0213 C   0  0  0  0  0  3  0  0  0  0  0  0
    1.1178   -0.9712    0.5692 C   0  0  0  0  0  0  0  0  0  0  0  0
    2.5474   -0.6787    0.4192 C   0  0  0  0  0  0  0  0  0  0  0  0
    2.9031    0.6752    0.2362 C   0  0  0  0  0  0  0  0  0  0  0  0
    4.2232    1.0549   -0.0555 C   0  0  0  0  0  0  0  0  0  0  0  0
    5.2056    0.0489   -0.1189 C   0  0  0  0  0  0  0  0  0  0  0  0
    4.8929   -1.3111    0.0883 C   0  0  0  0  0  0  0  0  0  0  0  0
    3.5566   -1.6662    0.3456 C   0  0  0  0  0  0  0  0  0  0  0  0
    4.5359    2.5098   -0.2953 C   0  0  0  0  0  0  0  0  0  0  0  0
    5.9736   -2.3613    0.0100 C   0  0  0  0  0  0  0  0  0  0  0  0
    1.1858   -3.0340    2.0845 C   0  0  0  0  0  0  0  0  0  0  0  0
   -2.4196   -0.5205    0.2670 C   0  0  0  0  0  0  0  0  0  0  0  0
   -2.9755    0.4692    1.1075 C   0  0  0  0  0  0  0  0  0  0  0  0
   -4.3032    0.8576    0.8440 C   0  0  0  0  0  0  0  0  0  0  0  0
   -5.0300    0.2793   -0.2026 C   0  0  0  0  0  0  0  0  0  0  0  0
   -4.4433   -0.6951   -1.0216 C   0  0  0  0  0  0  0  0  0  0  0  0
   -3.1182   -1.1151   -0.8093 C   0  0  0  0  0  0  0  0  0  0  0  0
   -2.1814    1.1294    2.2272 C   0  0  0  0  0  0  0  0  0  0  0  0
   -1.8288    2.5838    1.8638 C   0  0  0  0  0  0  0  0  0  0  0  0
   -2.9140    1.0396    3.5759 C   0  0  0  0  0  0  0  0  0  0  0  0
   -2.4238   -2.0866   -1.7541 C   0  0  0  0  0  0  0  0  0  0  0  0
   -1.7626   -1.2981   -2.9026 C   0  0  0  0  0  0  0  0  0  0  0  0
   -3.3488   -3.1877   -2.2882 C   0  0  0  0  0  0  0  0  0  0  0  0
    2.1217    1.4517    0.2919 H   0  0  0  0  0  0  0  0  0  0  0  0
    6.2466    0.3288   -0.3510 H   0  0  0  0  0  0  0  0  0  0  0  0
    3.3045   -2.7332    0.4322 H   0  0  0  0  0  0  0  0  0  0  0  0
    5.4516    2.6380   -0.9046 H   0  0  0  0  0  0  0  0  0  0  0  0
    4.6973    3.0449    0.6650 H   0  0  0  0  0  0  0  0  0  0  0  0
    3.6868    3.0076   -0.8072 H   0  0  0  0  0  0  0  0  0  0  0  0
    5.5575   -3.3856    0.0716 H   0  0  0  0  0  0  0  0  0  0  0  0
    6.7061   -2.2451    0.8366 H   0  0  0  0  0  0  0  0  0  0  0  0
    6.5460   -2.2823   -0.9370 H   0  0  0  0  0  0  0  0  0  0  0  0
    2.0800   -2.6100    2.5764 H   0  0  0  0  0  0  0  0  0  0  0  0
    1.4899   -3.8866    1.4465 H   0  0  0  0  0  0  0  0  0  0  0  0
    0.4588   -3.3809    2.8393 H   0  0  0  0  0  0  0  0  0  0  0  0
   -4.7721    1.6301    1.4716 H   0  0  0  0  0  0  0  0  0  0  0  0
   -6.0671    0.5969   -0.3891 H   0  0  0  0  0  0  0  0  0  0  0  0
   -5.0226   -1.1310   -1.8480 H   0  0  0  0  0  0  0  0  0  0  0  0
   -1.2266    0.5765    2.3369 H   0  0  0  0  0  0  0  0  0  0  0  0
   -1.2282    2.6440    0.9309 H   0  0  0  0  0  0  0  0  0  0  0  0
   -1.2375    3.0527    2.6769 H   0  0  0  0  0  0  0  0  0  0  0  0
   -2.7449    3.1922    1.7159 H   0  0  0  0  0  0  0  0  0  0  0  0
   -3.1568   -0.0103    3.8362 H   0  0  0  0  0  0  0  0  0  0  0  0
   -3.8627    1.6146    3.5669 H   0  0  0  0  0  0  0  0  0  0  0  0
   -2.2835    1.4606    4.3852 H   0  0  0  0  0  0  0  0  0  0  0  0
   -1.6171   -2.5871   -1.1791 H   0  0  0  0  0  0  0  0  0  0  0  0
   -2.5336   -0.7954   -3.5221 H   0  0  0  0  0  0  0  0  0  0  0  0
   -1.1770   -1.9732   -3.5597 H   0  0  0  0  0  0  0  0  0  0  0  0
   -1.0812   -0.5140   -2.5120 H   0  0  0  0  0  0  0  0  0  0  0  0
   -2.7658   -3.9211   -2.8807 H   0  0  0  0  0  0  0  0  0  0  0  0
   -4.1308   -2.7801   -2.9613 H   0  0  0  0  0  0  0  0  0  0  0  0
   -3.8552   -3.7324   -1.4663 H   0  0  0  0  0  0  0  0  0  0  0  0
  1  2  1  0  0  0  0
  2  3  1  0  0  0  0
  3 14  1  0  0  0  0
  4  1  1  0  0  0  0
  4  5  2  0  0  0  0
  5  3  1  0  0  0  0
  6  5  1  0  0  0  0
  7 27  1  0  0  0  0
  7  6  2  0  0  0  0
  8  7  1  0  0  0  0
  9  8  2  0  0  0  0
  9 10  1  0  0  0  0
 10 11  2  0  0  0  0
 11  6  1  0  0  0  0
 11 29  1  0  0  0  0
 12  8  1  0  0  0  0
 12 31  1  0  0  0  0
 13 33  1  0  0  0  0
 13 10  1  0  0  0  0
 13 34  1  0  0  0  0
 14 36  1  0  0  0  0
 14 38  1  0  0  0  0
 15  1  1  0  0  0  0
 15 16  1  0  0  0  0
 16 21  1  0  0  0  0
 17 16  2  0  0  0  0
 17 39  1  0  0  0  0
 18 17  1  0  0  0  0
 19 20  1  0  0  0  0
 19 18  2  0  0  0  0
 20 15  2  0  0  0  0
 21 42  1  0  0  0  0
 21 23  1  0  0  0  0
 22 21  1  0  0  0  0
 22 44  1  0  0  0  0
 23 46  1  0  0  0  0
 23 48  1  0  0  0  0
 24 49  1  0  0  0  0
 24 20  1  0  0  0  0
 25 52  1  0  0  0  0
 25 24  1  0  0  0  0
 26 24  1  0  0  0  0
 26 55  1  0  0  0  0
 28  9  1  0  0  0  0
 30 12  1  0  0  0  0
 32 12  1  0  0  0  0
 35 13  1  0  0  0  0
 37 14  1  0  0  0  0
 40 18  1  0  0  0  0
 41 19  1  0  0  0  0
 43 22  1  0  0  0  0
 45 22  1  0  0  0  0
 47 23  1  0  0  0  0
 50 25  1  0  0  0  0
 51 25  1  0  0  0  0
 53 26  1  0  0  0  0
 54 26  1  0  0  0  0
M  END
