1
q = -1.0

 18 18  0  0  0  0  0  0  0  0999 V2000
    1.8697    0.3315   -0.2040 C   0  0  0  0  0  1  0  0  0  0  0  0
    3.4229    2.2517    0.1071 C   0  0  0  0  0  0  0  0  0  0  0  0
    4.7326    2.7072    0.3230 C   0  0  0  0  0  0  0  0  0  0  0  0
    4.9134    3.7899    0.4121 H   0  0  0  0  0  0  0  0  0  0  0  0
    5.8040    1.8076    0.4212 C   0  0  0  0  0  0  0  0  0  0  0  0
    6.8242    2.1839    0.5919 H   0  0  0  0  0  0  0  0  0  0  0  0
    5.5773    0.4296    0.2945 C   0  0  0  0  0  0  0  0  0  0  0  0
    6.4215   -0.2744    0.3619 H   0  0  0  0  0  0  0  0  0  0  0  0
    4.2871   -0.0786    0.0746 C   0  0  0  0  0  0  0  0  0  0  0  0
    3.1911    0.8433   -0.0099 C   0  0  0  0  0  0  0  0  0  0  0  0
    2.2822    3.2274   -0.0042 C   0  0  0  0  0  0  0  0  0  0  0  0
    2.6398    4.2723    0.0633 H   0  0  0  0  0  0  0  0  0  0  0  0
    1.5400    3.0667    0.8053 H   0  0  0  0  0  0  0  0  0  0  0  0
    1.7322    3.1043   -0.9585 H   0  0  0  0  0  0  0  0  0  0  0  0
    4.0652   -1.5580   -0.0956 C   0  0  0  0  0  0  0  0  0  0  0  0
    4.9947   -2.1256    0.1003 H   0  0  0  0  0  0  0  0  0  0  0  0
    3.7297   -1.7933   -1.1265 H   0  0  0  0  0  0  0  0  0  0  0  0
    3.2689   -1.9394    0.5737 H   0  0  0  0  0  0  0  0  0  0  0  0
  1 10  1  0  0  0  0
  2  3  1  0  0  0  0
  3  4  1  0  0  0  0
  3  5  2  0  0  0  0
  5  6  1  0  0  0  0
  7  8  1  0  0  0  0
  7  5  1  0  0  0  0
  9  7  2  0  0  0  0
 10  9  1  0  0  0  0
 10  2  2  0  0  0  0
 11 12  1  0  0  0  0
 11  2  1  0  0  0  0
 11 13  1  0  0  0  0
 14 11  1  0  0  0  0
 15  9  1  0  0  0  0
 15 16  1  0  0  0  0
 15 18  1  0  0  0  0
 17 15  1  0  0  0  0
M  END
