2
q = -1.0

 26 28  0  0  0  0  0  0  0  0999 V2000
   -0.3647    1.6048   -0.2633 C   0  0  0  0  0  0  0  0  0  0  0  0
    0.7097    0.6578   -2.1205 C   0  0  0  0  0  3  0  0  0  0  0  0
    1.3899    0.5272   -2.9693 H   0  0  0  0  0  0  0  0  0  0  0  0
   -2.9101    0.2038    1.0767 C   0  0  0  0  0  0  0  0  0  0  0  0
   -2.1511    0.4247    1.8413 H   0  0  0  0  0  0  0  0  0  0  0  0
    0.8181    1.6869   -1.0960 C   0  0  0  0  0  0  0  0  0  0  0  0
   -2.5440    0.1627   -0.2883 C   0  0  0  0  0  0  0  0  0  0  0  0
   -1.1748    0.4900   -0.7327 C   0  0  0  0  0  0  0  0  0  0  0  0
   -3.5218   -0.1806   -1.2479 C   0  0  0  0  0  0  0  0  0  0  0  0
   -3.2596   -0.2029   -2.3161 H   0  0  0  0  0  0  0  0  0  0  0  0
   -4.8366   -0.4616   -0.8524 C   0  0  0  0  0  0  0  0  0  0  0  0
   -5.5903   -0.7180   -1.6113 H   0  0  0  0  0  0  0  0  0  0  0  0
   -4.2234   -0.0812    1.4678 C   0  0  0  0  0  0  0  0  0  0  0  0
   -4.4933   -0.0549    2.5338 H   0  0  0  0  0  0  0  0  0  0  0  0
   -0.5208   -0.0396   -1.9234 C   0  0  0  0  0  0  0  0  0  0  0  0
   -0.9365   -0.8135   -2.5786 H   0  0  0  0  0  0  0  0  0  0  0  0
   -5.1911   -0.4114    0.5043 C   0  0  0  0  0  0  0  0  0  0  0  0
   -6.2229   -0.6346    0.8135 H   0  0  0  0  0  0  0  0  0  0  0  0
    1.8017    2.6907   -0.8475 C   0  0  0  0  0  0  0  0  0  0  0  0
    2.6988    2.7580   -1.4806 H   0  0  0  0  0  0  0  0  0  0  0  0
    1.5690    3.6030    0.1696 C   0  0  0  0  0  0  0  0  0  0  0  0
    2.3030    4.3986    0.3655 H   0  0  0  0  0  0  0  0  0  0  0  0
   -0.5938    2.5835    0.7434 C   0  0  0  0  0  0  0  0  0  0  0  0
   -1.5244    2.5734    1.3259 H   0  0  0  0  0  0  0  0  0  0  0  0
    0.3686    3.5605    0.9450 C   0  0  0  0  0  0  0  0  0  0  0  0
    0.2016    4.3365    1.7066 H   0  0  0  0  0  0  0  0  0  0  0  0
  1 23  1  0  0  0  0
  2 15  1  0  0  0  0
  2  6  1  0  0  0  0
  3  2  1  0  0  0  0
  4 13  1  0  0  0  0
  4  5  1  0  0  0  0
  6 19  1  0  0  0  0
  6  1  2  0  0  0  0
  7  4  2  0  0  0  0
  8  7  1  0  0  0  0
  8  1  1  0  0  0  0
  9 11  2  0  0  0  0
  9  7  1  0  0  0  0
 10  9  1  0  0  0  0
 11 17  1  0  0  0  0
 12 11  1  0  0  0  0
 13 14  1  0  0  0  0
 15  8  2  0  0  0  0
 16 15  1  0  0  0  0
 17 18  1  0  0  0  0
 17 13  2  0  0  0  0
 19 21  2  0  0  0  0
 20 19  1  0  0  0  0
 21 22  1  0  0  0  0
 21 25  1  0  0  0  0
 23 25  2  0  0  0  0
 23 24  1  0  0  0  0
 25 26  1  0  0  0  0
M  END
