3
q = 0.0, confidence = 0.996

 48 51  0  0  1  0  0  0  0  0999 V2000
    2.2480    2.9202    1.3012 O   0  0  0  0  0  0  0  0  0  0  0  0
   -0.4752    2.6069    0.0107 C   0  0  0  0  0  0  0  0  0  0  0  0
   -0.0978    0.3540   -0.0148 C   0  0  0  0  0  2  0  0  0  0  0  0
   -1.3872    0.5838    0.3833 N   0  0  0  0  0  0  0  0  0  0  0  0
   -1.6656    1.9543    0.4139 C   0  0  0  0  0  0  0  0  0  0  0  0
    0.4569    1.5936   -0.2413 N   0  0  0  0  0  0  0  0  0  0  0  0
    1.7903    1.7836   -0.7126 C   0  0  0  0  0  0  0  0  0  0  0  0
    2.1890    1.2320   -1.9370 C   0  0  0  0  0  0  0  0  0  0  0  0
    1.4485    0.6638   -2.5209 H   0  0  0  0  0  0  0  0  0  0  0  0
    3.5141    1.3828   -2.3752 C   0  0  0  0  0  0  0  0  0  0  0  0
    3.8241    0.9459   -3.3352 H   0  0  0  0  0  0  0  0  0  0  0  0
    4.4300    2.0898   -1.5841 C   0  0  0  0  0  0  0  0  0  0  0  0
    5.4698    2.2171   -1.9218 H   0  0  0  0  0  0  0  0  0  0  0  0
    4.0423    2.6402   -0.3509 C   0  0  0  0  0  0  0  0  0  0  0  0
    4.7784    3.1765    0.2621 H   0  0  0  0  0  0  0  0  0  0  0  0
    2.7181    2.4816    0.1022 C   0  0  0  0  0  0  0  0  0  0  0  0
    3.1301    3.6212    2.1592 C   0  0  0  0  0  0  0  0  0  0  0  0
    3.9963    2.9919    2.4619 H   0  0  0  0  0  0  0  0  0  0  0  0
    2.5432    3.8858    3.0576 H   0  0  0  0  0  0  0  0  0  0  0  0
    3.5107    4.5535    1.6859 H   0  0  0  0  0  0  0  0  0  0  0  0
   -0.3961    4.0002   -0.0949 C   0  0  0  0  0  0  0  0  0  0  0  0
    0.5312    4.4915   -0.4191 H   0  0  0  0  0  0  0  0  0  0  0  0
   -1.5498    4.7308    0.2273 C   0  0  0  0  0  0  0  0  0  0  0  0
   -1.5289    5.8285    0.1567 H   0  0  0  0  0  0  0  0  0  0  0  0
   -2.7379    4.0851    0.6338 C   0  0  0  0  0  0  0  0  0  0  0  0
   -3.6258    4.6893    0.8718 H   0  0  0  0  0  0  0  0  0  0  0  0
   -2.8192    2.6873    0.7307 C   0  0  0  0  0  0  0  0  0  0  0  0
   -3.7517    2.1871    1.0205 H   0  0  0  0  0  0  0  0  0  0  0  0
   -2.2951   -0.5128    0.7638 C   0  0  2  0  0  0  0  0  0  0  0  0
   -1.7229   -1.4163    0.4452 H   0  0  0  0  0  0  0  0  0  0  0  0
   -3.5804   -0.4546   -0.0573 C   0  0  0  0  0  0  0  0  0  0  0  0
   -3.4814   -0.5731   -1.4598 C   0  0  0  0  0  0  0  0  0  0  0  0
   -2.4900   -0.7261   -1.9214 H   0  0  0  0  0  0  0  0  0  0  0  0
   -4.6297   -0.5054   -2.2599 C   0  0  0  0  0  0  0  0  0  0  0  0
   -4.5340   -0.6006   -3.3524 H   0  0  0  0  0  0  0  0  0  0  0  0
   -5.8944   -0.3236   -1.6757 C   0  0  0  0  0  0  0  0  0  0  0  0
   -6.7953   -0.2716   -2.3060 H   0  0  0  0  0  0  0  0  0  0  0  0
   -6.0021   -0.2134   -0.2820 C   0  0  0  0  0  0  0  0  0  0  0  0
   -6.9879   -0.0751    0.1880 H   0  0  0  0  0  0  0  0  0  0  0  0
   -4.8517   -0.2782    0.5216 C   0  0  0  0  0  0  0  0  0  0  0  0
   -4.9588   -0.1867    1.6126 H   0  0  0  0  0  0  0  0  0  0  0  0
   -2.4603   -0.5863    2.2906 C   0  0  0  0  0  0  0  0  0  0  0  0
   -3.1431    0.2134    2.6480 H   0  0  0  0  0  0  0  0  0  0  0  0
   -1.4723   -0.3562    2.7392 H   0  0  0  0  0  0  0  0  0  0  0  0
   -2.9274   -1.9621    2.7672 C   0  0  0  0  0  0  0  0  0  0  0  0
   -3.9018   -2.2470    2.3227 H   0  0  0  0  0  0  0  0  0  0  0  0
   -3.0363   -1.9898    3.8695 H   0  0  0  0  0  0  0  0  0  0  0  0
   -2.1929   -2.7429    2.4796 H   0  0  0  0  0  0  0  0  0  0  0  0
  1 17  1  0  0  0  0
  2  5  1  0  0  0  0
  3  4  1  0  0  0  0
  4  5  1  0  0  0  0
  4 29  1  0  0  0  0
  5 27  2  0  0  0  0
  6  3  1  0  0  0  0
  6  2  1  0  0  0  0
  7  6  1  0  0  0  0
  7 16  1  0  0  0  0
  8  7  2  0  0  0  0
  9  8  1  0  0  0  0
 10  8  1  0  0  0  0
 10 12  2  0  0  0  0
 11 10  1  0  0  0  0
 12 14  1  0  0  0  0
 13 12  1  0  0  0  0
 14 16  2  0  0  0  0
 14 15  1  0  0  0  0
 16  1  1  0  0  0  0
 17 18  1  0  0  0  0
 17 19  1  0  0  0  0
 20 17  1  0  0  0  0
 21  2  2  0  0  0  0
 21 23  1  0  0  0  0
 22 21  1  0  0  0  0
 23 25  2  0  0  0  0
 24 23  1  0  0  0  0
 25 27  1  0  0  0  0
 25 26  1  0  0  0  0
 27 28  1  0  0  0  0
 29 30  1  6  0  0  0
 29 42  1  0  0  0  0
 31 40  1  0  0  0  0
 31 29  1  0  0  0  0
 32 31  2  0  0  0  0
 33 32  1  0  0  0  0
 34 36  2  0  0  0  0
 34 32  1  0  0  0  0
 35 34  1  0  0  0  0
 36 38  1  0  0  0  0
 37 36  1  0  0  0  0
 38 39  1  0  0  0  0
 38 40  2  0  0  0  0
 40 41  1  0  0  0  0
 42 43  1  0  0  0  0
 42 44  1  0  0  0  0
 42 45  1  0  0  0  0
 45 47  1  0  0  0  0
 46 45  1  0  0  0  0
 48 45  1  0  0  0  0
M  END
