4
q = -1.0

  5  4  0  0  0  0  0  0  0  0999 V2000
    0.0955    2.3480    1.9549 F   0  0  0  0  0  0  0  0  0  0  0  0
   -0.0433    4.2725    0.0029 F   0  0  0  0  0  0  0  0  0  0  0  0
   -0.1596    2.7389   -1.5796 F   0  0  0  0  0  0  0  0  0  0  0  0
    0.0039    1.9703    0.6358 C   0  0  0  0  0  0  0  0  0  0  0  0
   -0.0645    2.9659   -0.2623 C   0  0  0  0  0  0  0  0  0  0  0  0
  3  5  1  0  0  0  0
  4  1  1  0  0  0  0
  5  2  1  0  0  0  0
  5  4  1  0  0  0  0
M  END
