3
q = -1.0, confidence = 0.008

 15 15  0  0  0  0  0  0  0  0999 V2000
    2.2591    1.9465    0.9908 C   0  0  0  0  0  3  0  0  0  0  0  0
    1.9179    1.8448    2.0368 H   0  0  0  0  0  0  0  0  0  0  0  0
    1.7110    1.1785    0.0204 C   0  0  0  0  0  2  0  0  0  0  0  0
    2.1788    1.2653   -1.4189 C   0  0  0  0  0  0  0  0  0  0  0  0
    1.3752    1.7384   -2.0337 H   0  0  0  0  0  0  0  0  0  0  0  0
    2.2886    0.2413   -1.8358 H   0  0  0  0  0  0  0  0  0  0  0  0
    3.5004    2.0343   -1.5921 C   0  0  0  0  0  0  0  0  0  0  0  0
    4.3381    1.3739   -1.2840 H   0  0  0  0  0  0  0  0  0  0  0  0
    3.6627    2.2758   -2.6636 H   0  0  0  0  0  0  0  0  0  0  0  0
    3.5157    3.3009   -0.7324 C   0  0  0  0  0  0  0  0  0  0  0  0
    2.6677    3.9598   -1.0310 H   0  0  0  0  0  0  0  0  0  0  0  0
    4.4430    3.8867   -0.9046 H   0  0  0  0  0  0  0  0  0  0  0  0
    3.3756    2.9413    0.7510 C   0  0  0  0  0  0  0  0  0  0  0  0
    4.3374    2.5123    1.1228 H   0  0  0  0  0  0  0  0  0  0  0  0
    3.2076    3.8565    1.3613 H   0  0  0  0  0  0  0  0  0  0  0  0
  1  2  1  0  0  0  0
  3  1  1  0  0  0  0
  4  3  1  0  0  0  0
  5  4  1  0  0  0  0
  6  4  1  0  0  0  0
  7  4  1  0  0  0  0
  7  8  1  0  0  0  0
  7 10  1  0  0  0  0
  9  7  1  0  0  0  0
 10 13  1  0  0  0  0
 11 10  1  0  0  0  0
 12 10  1  0  0  0  0
 13  1  1  0  0  0  0
 13 14  1  0  0  0  0
 13 15  1  0  0  0  0
M  END
