4
q = -1.0

 18 17  0  0  0  0  0  0  0  0999 V2000
   -1.8724   -1.6507    0.8382 S   0  0  0  0  0  1  0  0  0  0  0  0
   -1.8828    1.3806    1.2295 S   0  0  0  0  0  1  0  0  0  0  0  0
   -3.7511    0.0194   -0.2522 N   0  0  0  0  0  0  0  0  0  0  0  0
   -2.6029   -0.0736    0.5242 C   0  0  0  0  0  3  0  0  0  0  0  0
   -4.3990   -1.1854   -0.7620 C   0  0  0  0  0  0  0  0  0  0  0  0
   -4.9692   -0.8919   -1.6670 H   0  0  0  0  0  0  0  0  0  0  0  0
   -3.6132   -1.8975   -1.0948 H   0  0  0  0  0  0  0  0  0  0  0  0
   -5.3222   -1.8749    0.2465 C   0  0  0  0  0  0  0  0  0  0  0  0
   -5.7755   -2.7832   -0.2011 H   0  0  0  0  0  0  0  0  0  0  0  0
   -6.1414   -1.2034    0.5726 H   0  0  0  0  0  0  0  0  0  0  0  0
   -4.7530   -2.1874    1.1447 H   0  0  0  0  0  0  0  0  0  0  0  0
   -4.2682    1.3215   -0.6627 C   0  0  0  0  0  0  0  0  0  0  0  0
   -3.4098    2.0160   -0.7691 H   0  0  0  0  0  0  0  0  0  0  0  0
   -4.7074    1.2017   -1.6754 H   0  0  0  0  0  0  0  0  0  0  0  0
   -5.2988    1.9177    0.2995 C   0  0  0  0  0  0  0  0  0  0  0  0
   -5.6404    2.9092   -0.0627 H   0  0  0  0  0  0  0  0  0  0  0  0
   -4.8540    2.0555    1.3053 H   0  0  0  0  0  0  0  0  0  0  0  0
   -6.1890    1.2647    0.4007 H   0  0  0  0  0  0  0  0  0  0  0  0
  3  4  1  0  0  0  0
  4  1  1  0  0  0  0
  4  2  1  0  0  0  0
  5  3  1  0  0  0  0
  5  8  1  0  0  0  0
  6  5  1  0  0  0  0
  7  5  1  0  0  0  0
  8 10  1  0  0  0  0
  8 11  1  0  0  0  0
  9  8  1  0  0  0  0
 12  3  1  0  0  0  0
 12 15  1  0  0  0  0
 13 12  1  0  0  0  0
 14 12  1  0  0  0  0
 15 18  1  0  0  0  0
 15 17  1  0  0  0  0
 16 15  1  0  0  0  0
M  END
