2
q = -1.0, confidence = 0.0

 16 16  0  0  0  0  0  0  0  0999 V2000
    0.5243    3.7697    0.6937 O   0  0  0  0  0  0  0  0  0  0  0  0
    0.0494    1.5316    1.3826 C   0  0  0  0  0  3  0  0  0  0  0  0
   -0.3152    2.8669    0.8243 C   0  0  0  0  0  0  0  0  0  0  0  0
   -1.7308    3.1213    0.3661 C   0  0  0  0  0  0  0  0  0  0  0  0
   -2.0434    4.4157   -0.1028 C   0  0  0  0  0  0  0  0  0  0  0  0
   -3.3339    4.7182   -0.5504 C   0  0  0  0  0  0  0  0  0  0  0  0
   -4.3295    3.7248   -0.5482 C   0  0  0  0  0  0  0  0  0  0  0  0
   -4.0256    2.4313   -0.0948 C   0  0  0  0  0  0  0  0  0  0  0  0
   -2.7355    2.1316    0.3663 C   0  0  0  0  0  0  0  0  0  0  0  0
   -0.7912    1.0290    1.8937 H   0  0  0  0  0  0  0  0  0  0  0  0
    0.9174    1.6410    2.0585 H   0  0  0  0  0  0  0  0  0  0  0  0
   -1.2387    5.1658   -0.1017 H   0  0  0  0  0  0  0  0  0  0  0  0
   -3.5690    5.7324   -0.9083 H   0  0  0  0  0  0  0  0  0  0  0  0
   -5.3440    3.9597   -0.9060 H   0  0  0  0  0  0  0  0  0  0  0  0
   -4.7947    1.6436   -0.1064 H   0  0  0  0  0  0  0  0  0  0  0  0
   -2.5012    1.1072    0.6878 H   0  0  0  0  0  0  0  0  0  0  0  0
  1  3  2  0  0  0  0
  2 10  1  0  0  0  0
  2 11  1  0  0  0  0
  3  2  1  0  0  0  0
  4  9  1  0  0  0  0
  4  3  1  0  0  0  0
  5 12  1  0  0  0  0
  5  4  2  0  0  0  0
  6  7  2  0  0  0  0
  6  5  1  0  0  0  0
  7  8  1  0  0  0  0
  8  9  2  0  0  0  0
  9 16  1  0  0  0  0
 13  6  1  0  0  0  0
 14  7  1  0  0  0  0
 15  8  1  0  0  0  0
M  END
