12
q = -1.0, confidence = 0.0

 14 13  0  0  0  0  0  0  0  0999 V2000
    7.2794   -1.8803    0.1534 N   0  0  0  0  0  0  0  0  0  0  0  0
    6.2111   -1.6894   -0.2889 C   0  0  0  0  0  0  0  0  0  0  0  0
    4.8681   -1.4467   -0.8106 C   0  0  0  0  0  0  0  0  0  0  0  0
    4.7368   -2.0419   -1.7404 H   0  0  0  0  0  0  0  0  0  0  0  0
    4.7997   -0.3768   -1.1046 H   0  0  0  0  0  0  0  0  0  0  0  0
    3.7484   -1.7666    0.1988 C   0  0  0  0  0  0  0  0  0  0  0  0
    3.7989   -2.8381    0.4879 H   0  0  0  0  0  0  0  0  0  0  0  0
    3.9239   -1.1769    1.1221 H   0  0  0  0  0  0  0  0  0  0  0  0
    2.3636   -1.4223   -0.3700 C   0  0  0  0  0  0  0  0  0  0  0  0
    2.3795   -0.3649   -0.6987 H   0  0  0  0  0  0  0  0  0  0  0  0
    2.1871   -2.0384   -1.2789 H   0  0  0  0  0  0  0  0  0  0  0  0
    1.2722   -1.6448    0.6577 C   0  0  0  0  0  3  0  0  0  0  0  0
    1.4645   -1.0358    1.5630 H   0  0  0  0  0  0  0  0  0  0  0  0
    1.2350   -2.7140    0.9526 H   0  0  0  0  0  0  0  0  0  0  0  0
  2  1  3  0  0  0  0
  3  2  1  0  0  0  0
  3  6  1  0  0  0  0
  4  3  1  0  0  0  0
  5  3  1  0  0  0  0
  6  7  1  0  0  0  0
  6  8  1  0  0  0  0
  9  6  1  0  0  0  0
  9 12  1  0  0  0  0
 10  9  1  0  0  0  0
 11  9  1  0  0  0  0
 12 14  1  0  0  0  0
 12 13  1  0  0  0  0
M  END
