4
q = -1.0

 29 30  0  0  0  0  0  0  0  0999 V2000
    2.5582    0.0985    0.0680 C   0  0  0  0  0  0  0  0  0  0  0  0
    2.2171    0.7189   -1.1715 C   0  0  0  0  0  0  0  0  0  0  0  0
    2.3776    0.2781   -2.1621 H   0  0  0  0  0  0  0  0  0  0  0  0
    1.5914    1.9701   -0.9059 C   0  0  0  0  0  3  0  0  0  0  0  0
    1.2338    2.6829   -1.6584 H   0  0  0  0  0  0  0  0  0  0  0  0
    1.5671    2.1507    0.5146 C   0  0  0  0  0  0  0  0  0  0  0  0
    1.1816    3.0271    1.0482 H   0  0  0  0  0  0  0  0  0  0  0  0
    2.1582    1.0015    1.1084 C   0  0  0  0  0  0  0  0  0  0  0  0
    2.2719    0.8180    2.1838 H   0  0  0  0  0  0  0  0  0  0  0  0
    3.2581   -1.2193    0.2525 C   0  0  0  0  0  0  0  0  0  0  0  0
    3.0949   -1.8441   -0.6505 H   0  0  0  0  0  0  0  0  0  0  0  0
    2.7870   -1.7612    1.0979 H   0  0  0  0  0  0  0  0  0  0  0  0
    4.7672   -1.0672    0.5190 C   0  0  0  0  0  0  0  0  0  0  0  0
    5.1970   -2.0664    0.7444 H   0  0  0  0  0  0  0  0  0  0  0  0
    4.9227   -0.4546    1.4338 H   0  0  0  0  0  0  0  0  0  0  0  0
    5.5455   -0.4342   -0.6472 C   0  0  0  0  0  0  0  0  0  0  0  0
    5.4078   -1.0599   -1.5555 H   0  0  0  0  0  0  0  0  0  0  0  0
    5.1077    0.5599   -0.8799 H   0  0  0  0  0  0  0  0  0  0  0  0
    7.0183   -0.2807   -0.3486 C   0  0  0  0  0  0  0  0  0  0  0  0
    7.9348   -1.3032   -0.6673 C   0  0  0  0  0  0  0  0  0  0  0  0
    7.5737   -2.2079   -1.1829 H   0  0  0  0  0  0  0  0  0  0  0  0
    9.2947   -1.1813   -0.3436 C   0  0  0  0  0  0  0  0  0  0  0  0
    9.9944   -1.9896   -0.6063 H   0  0  0  0  0  0  0  0  0  0  0  0
    9.7630   -0.0303    0.3094 C   0  0  0  0  0  0  0  0  0  0  0  0
   10.8298    0.0685    0.5616 H   0  0  0  0  0  0  0  0  0  0  0  0
    8.8617    0.9961    0.6341 C   0  0  0  0  0  0  0  0  0  0  0  0
    9.2204    1.9046    1.1420 H   0  0  0  0  0  0  0  0  0  0  0  0
    7.5033    0.8692    0.3077 C   0  0  0  0  0  0  0  0  0  0  0  0
    6.8004    1.6795    0.5613 H   0  0  0  0  0  0  0  0  0  0  0  0
  1 10  1  0  0  0  0
  1  8  1  0  0  0  0
  2  4  1  0  0  0  0
  2  1  2  0  0  0  0
  3  2  1  0  0  0  0
  4  6  1  0  0  0  0
  5  4  1  0  0  0  0
  6  7  1  0  0  0  0
  6  8  2  0  0  0  0
  8  9  1  0  0  0  0
 10 13  1  0  0  0  0
 10 12  1  0  0  0  0
 11 10  1  0  0  0  0
 13 14  1  0  0  0  0
 13 15  1  0  0  0  0
 16 19  1  0  0  0  0
 16 13  1  0  0  0  0
 17 16  1  0  0  0  0
 18 16  1  0  0  0  0
 19 28  1  0  0  0  0
 20 19  2  0  0  0  0
 20 22  1  0  0  0  0
 21 20  1  0  0  0  0
 22 24  2  0  0  0  0
 23 22  1  0  0  0  0
 24 25  1  0  0  0  0
 24 26  1  0  0  0  0
 26 27  1  0  0  0  0
 28 29  1  0  0  0  0
 28 26  2  0  0  0  0
M  END
