3
q = 0.0, confidence = 1.0

 33 33  0  0  0  0  0  0  0  0999 V2000
   -2.5878   -1.1080    0.8563 N   0  0  0  0  0  0  0  0  0  0  0  0
   -3.0461    0.4213   -0.6239 N   0  0  0  0  0  0  0  0  0  0  0  0
   -1.9873   -0.1820    0.0263 C   0  0  0  0  0  2  0  0  0  0  0  0
   -3.9704   -1.0726    0.7334 C   0  0  0  0  0  0  0  0  0  0  0  0
   -4.6401   -1.7219    1.3010 H   0  0  0  0  0  0  0  0  0  0  0  0
   -4.2569   -0.1181   -0.1973 C   0  0  0  0  0  0  0  0  0  0  0  0
   -5.2250    0.1998   -0.5840 H   0  0  0  0  0  0  0  0  0  0  0  0
   -1.9026   -1.9943    1.8408 C   0  0  0  0  0  0  0  0  0  0  0  0
   -0.4233   -2.1511    1.4744 C   0  0  0  0  0  0  0  0  0  0  0  0
    0.1513   -1.1867    1.5882 H   0  0  0  0  0  0  0  0  0  0  0  0
   -0.3029   -2.5608    0.4528 H   0  0  0  0  0  0  0  0  0  0  0  0
    0.0668   -2.8303    2.2002 H   0  0  0  0  0  0  0  0  0  0  0  0
   -2.0597   -1.3696    3.2392 C   0  0  0  0  0  0  0  0  0  0  0  0
   -1.5923   -0.3661    3.2686 H   0  0  0  0  0  0  0  0  0  0  0  0
   -1.5719   -2.0077    4.0028 H   0  0  0  0  0  0  0  0  0  0  0  0
   -3.1291   -1.2624    3.5109 H   0  0  0  0  0  0  0  0  0  0  0  0
   -2.5526   -3.3896    1.7903 C   0  0  0  0  0  0  0  0  0  0  0  0
   -2.5243   -3.7924    0.7591 H   0  0  0  0  0  0  0  0  0  0  0  0
   -3.6026   -3.3825    2.1429 H   0  0  0  0  0  0  0  0  0  0  0  0
   -1.9915   -4.0793    2.4503 H   0  0  0  0  0  0  0  0  0  0  0  0
   -2.9554    1.4975   -1.6707 C   0  0  0  0  0  0  0  0  0  0  0  0
   -2.1581    0.9730   -2.8745 C   0  0  0  0  0  0  0  0  0  0  0  0
   -1.1637    0.5940   -2.5745 H   0  0  0  0  0  0  0  0  0  0  0  0
   -2.6925    0.1284   -3.3526 H   0  0  0  0  0  0  0  0  0  0  0  0
   -2.0387    1.7837   -3.6209 H   0  0  0  0  0  0  0  0  0  0  0  0
   -2.3062    2.7419   -1.0458 C   0  0  0  0  0  0  0  0  0  0  0  0
   -2.9068    3.1074   -0.1883 H   0  0  0  0  0  0  0  0  0  0  0  0
   -2.2405    3.5515   -1.7992 H   0  0  0  0  0  0  0  0  0  0  0  0
   -1.2890    2.5081   -0.6886 H   0  0  0  0  0  0  0  0  0  0  0  0
   -4.3675    1.8774   -2.1465 C   0  0  0  0  0  0  0  0  0  0  0  0
   -4.8941    1.0241   -2.6177 H   0  0  0  0  0  0  0  0  0  0  0  0
   -4.9944    2.2874   -1.3292 H   0  0  0  0  0  0  0  0  0  0  0  0
   -4.2678    2.6674   -2.9151 H   0  0  0  0  0  0  0  0  0  0  0  0
  1  8  1  0  0  0  0
  2  6  1  0  0  0  0
  2  3  1  0  0  0  0
  3  1  1  0  0  0  0
  4  1  1  0  0  0  0
  4  5  1  0  0  0  0
  6  4  2  0  0  0  0
  7  6  1  0  0  0  0
  8 13  1  0  0  0  0
  9 10  1  0  0  0  0
  9  8  1  0  0  0  0
  9 12  1  0  0  0  0
 11  9  1  0  0  0  0
 13 14  1  0  0  0  0
 13 16  1  0  0  0  0
 13 15  1  0  0  0  0
 17  8  1  0  0  0  0
 17 19  1  0  0  0  0
 17 20  1  0  0  0  0
 18 17  1  0  0  0  0
 21 26  1  0  0  0  0
 21  2  1  0  0  0  0
 22 23  1  0  0  0  0
 22 21  1  0  0  0  0
 24 22  1  0  0  0  0
 25 22  1  0  0  0  0
 26 29  1  0  0  0  0
 26 27  1  0  0  0  0
 28 26  1  0  0  0  0
 30 21  1  0  0  0  0
 30 32  1  0  0  0  0
 31 30  1  0  0  0  0
 33 30  1  0  0  0  0
M  END
