5
q = -1.0

 36 38  0  0  0  0  0  0  0  0999 V2000
    1.6863    1.5612   -0.1058 C   0  0  0  0  0  0  0  0  0  0  0  0
    1.0713    2.3034   -1.1826 C   0  0  0  0  0  0  0  0  0  0  0  0
   -0.3046    2.5048   -0.8561 C   0  0  0  0  0  0  0  0  0  0  0  0
   -0.5792    1.8189    0.3845 C   0  0  0  0  0  0  0  0  0  0  0  0
    0.6630    1.2656    0.8373 C   0  0  0  0  0  3  0  0  0  0  0  0
    0.8326    0.7391    1.7814 H   0  0  0  0  0  0  0  0  0  0  0  0
    3.1275    1.3519    0.1327 C   0  0  0  0  0  0  0  0  0  0  0  0
    3.6136    1.4358    1.4594 C   0  0  0  0  0  0  0  0  0  0  0  0
    2.9079    1.6174    2.2827 H   0  0  0  0  0  0  0  0  0  0  0  0
    4.9792    1.3117    1.7383 C   0  0  0  0  0  0  0  0  0  0  0  0
    5.3297    1.3803    2.7792 H   0  0  0  0  0  0  0  0  0  0  0  0
    5.8963    1.1021    0.6964 C   0  0  0  0  0  0  0  0  0  0  0  0
    6.9712    1.0077    0.9135 H   0  0  0  0  0  0  0  0  0  0  0  0
    5.4295    1.0124   -0.6244 C   0  0  0  0  0  0  0  0  0  0  0  0
    6.1380    0.8381   -1.4488 H   0  0  0  0  0  0  0  0  0  0  0  0
    4.0626    1.1379   -0.9066 C   0  0  0  0  0  0  0  0  0  0  0  0
    3.7054    1.0227   -1.9371 H   0  0  0  0  0  0  0  0  0  0  0  0
    1.7760    2.8882   -2.3632 C   0  0  0  0  0  0  0  0  0  0  0  0
    1.9894    2.1039   -3.1191 H   0  0  0  0  0  0  0  0  0  0  0  0
    2.7453    3.3344   -2.0635 H   0  0  0  0  0  0  0  0  0  0  0  0
    1.1634    3.6683   -2.8524 H   0  0  0  0  0  0  0  0  0  0  0  0
   -1.2316    3.4205   -1.5877 C   0  0  0  0  0  0  0  0  0  0  0  0
   -0.6630    4.2257   -2.0919 H   0  0  0  0  0  0  0  0  0  0  0  0
   -1.9523    3.8873   -0.8895 H   0  0  0  0  0  0  0  0  0  0  0  0
   -1.8091    2.8796   -2.3670 H   0  0  0  0  0  0  0  0  0  0  0  0
   -1.8432    1.8343    1.1426 C   0  0  0  0  0  0  0  0  0  0  0  0
   -3.1015    1.8866    0.4968 C   0  0  0  0  0  0  0  0  0  0  0  0
   -3.1484    1.8157   -0.5978 H   0  0  0  0  0  0  0  0  0  0  0  0
   -4.2841    1.9708    1.2412 C   0  0  0  0  0  0  0  0  0  0  0  0
   -5.2508    2.0002    0.7176 H   0  0  0  0  0  0  0  0  0  0  0  0
   -4.2428    1.9774    2.6442 C   0  0  0  0  0  0  0  0  0  0  0  0
   -5.1751    2.0357    3.2259 H   0  0  0  0  0  0  0  0  0  0  0  0
   -3.0045    1.8922    3.2998 C   0  0  0  0  0  0  0  0  0  0  0  0
   -2.9601    1.8936    4.3997 H   0  0  0  0  0  0  0  0  0  0  0  0
   -1.8174    1.8266    2.5575 C   0  0  0  0  0  0  0  0  0  0  0  0
   -0.8490    1.8035    3.0798 H   0  0  0  0  0  0  0  0  0  0  0  0
  1  7  1  0  0  0  0
  1  5  1  0  0  0  0
  2  3  1  0  0  0  0
  2  1  2  0  0  0  0
  3  4  2  0  0  0  0
  4  5  1  0  0  0  0
  4 26  1  0  0  0  0
  5  6  1  0  0  0  0
  7  8  1  0  0  0  0
  8 10  2  0  0  0  0
  8  9  1  0  0  0  0
 10 11  1  0  0  0  0
 12 13  1  0  0  0  0
 12 10  1  0  0  0  0
 14 12  2  0  0  0  0
 15 14  1  0  0  0  0
 16 14  1  0  0  0  0
 16  7  2  0  0  0  0
 17 16  1  0  0  0  0
 18 20  1  0  0  0  0
 18  2  1  0  0  0  0
 19 18  1  0  0  0  0
 21 18  1  0  0  0  0
 22 24  1  0  0  0  0
 22  3  1  0  0  0  0
 23 22  1  0  0  0  0
 25 22  1  0  0  0  0
 26 35  1  0  0  0  0
 27 26  2  0  0  0  0
 27 29  1  0  0  0  0
 28 27  1  0  0  0  0
 29 31  2  0  0  0  0
 30 29  1  0  0  0  0
 31 32  1  0  0  0  0
 31 33  1  0  0  0  0
 33 34  1  0  0  0  0
 35 36  1  0  0  0  0
 35 33  2  0  0  0  0
M  END
