3
q = -1.0

 39 41  0  0  1  0  0  0  0  0999 V2000
   -0.5187   -1.1849    1.2853 C   0  0  0  0  0  3  0  0  0  0  0  0
   -0.1492   -1.2380   -0.0812 C   0  0  2  0  0  3  0  0  0  0  0  0
    0.0245    0.0000   -0.7808 C   0  0  0  0  0  3  0  0  0  0  0  0
   -0.1491    1.2380   -0.0812 C   0  0  2  0  0  3  0  0  0  0  0  0
   -0.5187    1.1849    1.2852 C   0  0  0  0  0  3  0  0  0  0  0  0
   -0.1255    0.0000    2.1414 C   0  0  0  0  0  0  0  0  0  0  0  0
    0.0290   -2.5548   -0.8034 C   0  0  0  0  0  0  0  0  0  0  0  0
    1.3848   -3.2362   -0.5140 C   0  0  0  0  0  0  0  0  0  0  0  0
    2.6558   -2.5342   -1.0441 C   0  0  0  0  0  0  0  0  0  0  0  0
    2.9980   -1.2325   -0.3480 C   0  0  0  0  0  0  0  0  0  0  0  0
    2.8787    0.0000   -1.0162 C   0  0  0  0  0  0  0  0  0  0  0  0
    2.9981    1.2325   -0.3479 C   0  0  0  0  0  0  0  0  0  0  0  0
    3.3577    1.2171    1.0140 C   0  0  0  0  0  0  0  0  0  0  0  0
    3.5559   -0.0001    1.6834 C   0  0  0  0  0  0  0  0  0  0  0  0
    3.3576   -1.2171    1.0140 C   0  0  0  0  0  0  0  0  0  0  0  0
    2.6559    2.5343   -1.0439 C   0  0  0  0  0  0  0  0  0  0  0  0
    1.3849    3.2362   -0.5139 C   0  0  0  0  0  0  0  0  0  0  0  0
    0.0291    2.5548   -0.8035 C   0  0  0  0  0  0  0  0  0  0  0  0
   -0.7950   -2.1361    1.7689 H   0  0  0  0  0  0  0  0  0  0  0  0
    0.2607   -0.0000   -1.8518 H   0  0  0  0  0  0  0  0  0  0  0  0
   -0.7950    2.1362    1.7689 H   0  0  0  0  0  0  0  0  0  0  0  0
    0.9562    0.0000    2.4234 H   0  0  0  0  0  0  0  0  0  0  0  0
   -0.7140    0.0000    3.0795 H   0  0  0  0  0  0  0  0  0  0  0  0
   -0.0941   -2.4044   -1.8968 H   0  0  0  0  0  0  0  0  0  0  0  0
   -0.7766   -3.2509   -0.4911 H   0  0  0  0  0  0  0  0  0  0  0  0
    1.4825   -3.3865    0.5832 H   0  0  0  0  0  0  0  0  0  0  0  0
    1.3466   -4.2534   -0.9580 H   0  0  0  0  0  0  0  0  0  0  0  0
    2.5493   -2.3549   -2.1352 H   0  0  0  0  0  0  0  0  0  0  0  0
    3.5026   -3.2449   -0.9289 H   0  0  0  0  0  0  0  0  0  0  0  0
    2.6179    0.0001   -2.0869 H   0  0  0  0  0  0  0  0  0  0  0  0
    3.4743    2.1670    1.5598 H   0  0  0  0  0  0  0  0  0  0  0  0
    3.8523   -0.0001    2.7437 H   0  0  0  0  0  0  0  0  0  0  0  0
    3.4741   -2.1671    1.5596 H   0  0  0  0  0  0  0  0  0  0  0  0
    3.5027    3.2450   -0.9285 H   0  0  0  0  0  0  0  0  0  0  0  0
    2.5496    2.3551   -2.1350 H   0  0  0  0  0  0  0  0  0  0  0  0
    1.3466    4.2535   -0.9578 H   0  0  0  0  0  0  0  0  0  0  0  0
    1.4824    3.3864    0.5834 H   0  0  0  0  0  0  0  0  0  0  0  0
   -0.7765    3.2509   -0.4914 H   0  0  0  0  0  0  0  0  0  0  0  0
   -0.0938    2.4044   -1.8969 H   0  0  0  0  0  0  0  0  0  0  0  0
  1 19  1  0  0  0  0
  1  6  1  0  0  0  0
  2  3  1  6  0  0  0
  2  1  1  0  0  0  0
  4  3  1  6  0  0  0
  4  5  1  0  0  0  0
  5 21  1  0  0  0  0
  5  6  1  0  0  0  0
  6 22  1  0  0  0  0
  6 23  1  0  0  0  0
  7  8  1  0  0  0  0
  7 25  1  0  0  0  0
  7  2  1  0  0  0  0
  8 26  1  0  0  0  0
  9 29  1  0  0  0  0
  9  8  1  0  0  0  0
  9 10  1  0  0  0  0
 10 15  1  0  0  0  0
 11 10  2  0  0  0  0
 11 12  1  0  0  0  0
 12 13  2  0  0  0  0
 13 31  1  0  0  0  0
 13 14  1  0  0  0  0
 14 32  1  0  0  0  0
 15 33  1  0  0  0  0
 15 14  2  0  0  0  0
 16 34  1  0  0  0  0
 16 17  1  0  0  0  0
 16 12  1  0  0  0  0
 17 37  1  0  0  0  0
 18 17  1  0  0  0  0
 18 38  1  0  0  0  0
 18  4  1  0  0  0  0
 20  3  1  0  0  0  0
 24  7  1  0  0  0  0
 27  8  1  0  0  0  0
 28  9  1  0  0  0  0
 30 11  1  0  0  0  0
 35 16  1  0  0  0  0
 36 17  1  0  0  0  0
 39 18  1  0  0  0  0
M  END
