4
q = 0.0, confidence = 0.936

 38 39  0  0  0  0  0  0  0  0999 V2000
    1.4483   -1.4024   -0.0326 S   0  0  0  0  0  0  0  0  0  0  0  0
    2.1391    0.1084   -0.0031 C   0  0  0  0  0  0  0  0  0  0  0  0
    1.1682    1.5219    0.0264 S   0  0  0  0  0  0  0  0  0  0  0  0
   -0.4945    0.9489    0.0115 C   0  0  0  0  0  2  0  0  0  0  0  0
    3.6134    0.2884   -0.0001 C   0  0  0  0  0  0  0  0  0  0  0  0
    4.3003    0.3067    1.2426 C   0  0  0  0  0  0  0  0  0  0  0  0
    5.6988    0.4581    1.2186 C   0  0  0  0  0  0  0  0  0  0  0  0
    6.2495    0.4734    2.1718 H   0  0  0  0  0  0  0  0  0  0  0  0
    6.3891    0.5850    0.0055 C   0  0  0  0  0  0  0  0  0  0  0  0
    7.4837    0.6997    0.0076 H   0  0  0  0  0  0  0  0  0  0  0  0
    5.6923    0.5649   -1.2103 C   0  0  0  0  0  0  0  0  0  0  0  0
    6.2380    0.6627   -2.1615 H   0  0  0  0  0  0  0  0  0  0  0  0
    4.2934    0.4180   -1.2398 C   0  0  0  0  0  0  0  0  0  0  0  0
    3.5463    0.1652    2.5399 C   0  0  0  0  0  0  0  0  0  0  0  0
    4.2298    0.2100    3.4084 H   0  0  0  0  0  0  0  0  0  0  0  0
    2.9846   -0.7905    2.5835 H   0  0  0  0  0  0  0  0  0  0  0  0
    2.7847    0.9641    2.6549 H   0  0  0  0  0  0  0  0  0  0  0  0
    3.5319    0.4007   -2.5405 C   0  0  0  0  0  0  0  0  0  0  0  0
    4.2180    0.4353   -3.4075 H   0  0  0  0  0  0  0  0  0  0  0  0
    2.8416    1.2671   -2.6135 H   0  0  0  0  0  0  0  0  0  0  0  0
    2.8932   -0.5016   -2.6314 H   0  0  0  0  0  0  0  0  0  0  0  0
   -1.2761    2.2398    0.0241 C   0  0  0  0  0  0  0  0  0  0  0  0
   -1.6069    2.8772   -1.2067 C   0  0  0  0  0  0  0  0  0  0  0  0
   -2.3775    4.0556   -1.1718 C   0  0  0  0  0  0  0  0  0  0  0  0
   -2.6556    4.5350   -2.1235 H   0  0  0  0  0  0  0  0  0  0  0  0
   -2.7795    4.6228    0.0438 C   0  0  0  0  0  0  0  0  0  0  0  0
   -3.3896    5.5387    0.0513 H   0  0  0  0  0  0  0  0  0  0  0  0
   -2.3809    4.0334    1.2496 C   0  0  0  0  0  0  0  0  0  0  0  0
   -2.6620    4.4952    2.2092 H   0  0  0  0  0  0  0  0  0  0  0  0
   -1.6100    2.8546    1.2650 C   0  0  0  0  0  0  0  0  0  0  0  0
   -1.1001    2.3415   -2.5221 C   0  0  0  0  0  0  0  0  0  0  0  0
   -1.1233    1.2341   -2.5811 H   0  0  0  0  0  0  0  0  0  0  0  0
   -0.0327    2.6193   -2.6615 H   0  0  0  0  0  0  0  0  0  0  0  0
   -1.6649    2.7661   -3.3744 H   0  0  0  0  0  0  0  0  0  0  0  0
   -1.1058    2.2971    2.5728 C   0  0  0  0  0  0  0  0  0  0  0  0
   -0.0511    2.6077    2.7377 H   0  0  0  0  0  0  0  0  0  0  0  0
   -1.0937    1.1885    2.5996 H   0  0  0  0  0  0  0  0  0  0  0  0
   -1.6969    2.6782    3.4279 H   0  0  0  0  0  0  0  0  0  0  0  0
  1  2  2  0  0  0  0
  2  5  1  0  0  0  0
  2  3  1  0  0  0  0
  4 22  1  0  0  0  0
  4  3  1  0  0  0  0
  5  6  1  0  0  0  0
  6 14  1  0  0  0  0
  7  6  2  0  0  0  0
  7  8  1  0  0  0  0
  9 10  1  0  0  0  0
  9  7  1  0  0  0  0
 11  9  2  0  0  0  0
 12 11  1  0  0  0  0
 13 11  1  0  0  0  0
 13  5  2  0  0  0  0
 14 16  1  0  0  0  0
 14 17  1  0  0  0  0
 14 15  1  0  0  0  0
 18 13  1  0  0  0  0
 19 18  1  0  0  0  0
 20 18  1  0  0  0  0
 21 18  1  0  0  0  0
 22 30  1  0  0  0  0
 23 24  1  0  0  0  0
 23 22  2  0  0  0  0
 24 26  2  0  0  0  0
 25 24  1  0  0  0  0
 26 27  1  0  0  0  0
 26 28  1  0  0  0  0
 28 30  2  0  0  0  0
 28 29  1  0  0  0  0
 30 35  1  0  0  0  0
 31 23  1  0  0  0  0
 32 31  1  0  0  0  0
 33 31  1  0  0  0  0
 34 31  1  0  0  0  0
 35 37  1  0  0  0  0
 35 36  1  0  0  0  0
 35 38  1  0  0  0  0
M  END
