2
q = -1.0

 38 40  0  0  1  0  0  0  0  0999 V2000
    1.4304    0.1821    0.5356 P   0  0  0  0  0  0  0  0  0  0  0  0
    0.4580   -2.3006    1.6877 C   0  0  2  0  0  3  0  0  0  0  0  0
    0.4783   -3.1105    0.4855 C   0  0  0  0  0  3  0  0  0  0  0  0
    1.3717   -3.5129   -0.0047 H   0  0  0  0  0  0  0  0  0  0  0  0
   -0.8968   -3.3107    0.0817 C   0  0  0  0  0  0  0  0  0  0  0  0
   -1.2234   -3.8457   -0.8184 H   0  0  0  0  0  0  0  0  0  0  0  0
   -1.7528   -2.6733    1.0301 C   0  0  0  0  0  0  0  0  0  0  0  0
   -2.8475   -2.6845    1.0024 H   0  0  0  0  0  0  0  0  0  0  0  0
   -0.9244   -2.0216    2.0304 C   0  0  0  0  0  3  0  0  0  0  0  0
   -1.2703   -1.5336    2.9497 H   0  0  0  0  0  0  0  0  0  0  0  0
    1.6817   -1.7918    2.4204 C   0  0  0  0  0  0  0  0  0  0  0  0
    2.5827   -2.2533    1.9679 H   0  0  0  0  0  0  0  0  0  0  0  0
    1.6514   -2.1151    3.4824 H   0  0  0  0  0  0  0  0  0  0  0  0
    1.7867   -0.2640    2.3262 C   0  0  0  0  0  0  0  0  0  0  0  0
    2.7674    0.1218    2.6718 H   0  0  0  0  0  0  0  0  0  0  0  0
    0.9933    0.2153    2.9354 H   0  0  0  0  0  0  0  0  0  0  0  0
    1.6532    2.0181    0.5151 C   0  0  0  0  0  0  0  0  0  0  0  0
    1.3403    2.8262    1.6282 C   0  0  0  0  0  0  0  0  0  0  0  0
    1.0184    2.3666    2.5736 H   0  0  0  0  0  0  0  0  0  0  0  0
    1.4235    4.2248    1.5375 C   0  0  0  0  0  0  0  0  0  0  0  0
    1.1760    4.8435    2.4138 H   0  0  0  0  0  0  0  0  0  0  0  0
    1.8219    4.8323    0.3365 C   0  0  0  0  0  0  0  0  0  0  0  0
    1.8834    5.9288    0.2657 H   0  0  0  0  0  0  0  0  0  0  0  0
    2.1499    4.0332   -0.7721 C   0  0  0  0  0  0  0  0  0  0  0  0
    2.4711    4.5023   -1.7147 H   0  0  0  0  0  0  0  0  0  0  0  0
    2.0695    2.6371   -0.6843 C   0  0  0  0  0  0  0  0  0  0  0  0
    2.3203    2.0143   -1.5563 H   0  0  0  0  0  0  0  0  0  0  0  0
    3.0317   -0.3236   -0.2650 C   0  0  0  0  0  0  0  0  0  0  0  0
    3.0328   -1.2411   -1.3321 C   0  0  0  0  0  0  0  0  0  0  0  0
    2.0682   -1.5890   -1.7382 H   0  0  0  0  0  0  0  0  0  0  0  0
    4.2505   -1.6595   -1.8958 C   0  0  0  0  0  0  0  0  0  0  0  0
    4.2422   -2.3691   -2.7376 H   0  0  0  0  0  0  0  0  0  0  0  0
    5.4684   -1.1747   -1.3964 C   0  0  0  0  0  0  0  0  0  0  0  0
    6.4203   -1.5090   -1.8372 H   0  0  0  0  0  0  0  0  0  0  0  0
    5.4709   -0.2514   -0.3363 C   0  0  0  0  0  0  0  0  0  0  0  0
    6.4230    0.1401    0.0540 H   0  0  0  0  0  0  0  0  0  0  0  0
    4.2588    0.1775    0.2218 C   0  0  0  0  0  0  0  0  0  0  0  0
    4.2679    0.9185    1.0371 H   0  0  0  0  0  0  0  0  0  0  0  0
  1 14  1  0  0  0  0
  2  9  1  0  0  0  0
  2 11  1  6  0  0  0
  3  2  1  0  0  0  0
  4  3  1  0  0  0  0
  5  3  1  0  0  0  0
  5  7  2  0  0  0  0
  6  5  1  0  0  0  0
  7  9  1  0  0  0  0
  8  7  1  0  0  0  0
  9 10  1  0  0  0  0
 11 13  1  0  0  0  0
 12 11  1  0  0  0  0
 14 11  1  0  0  0  0
 14 15  1  0  0  0  0
 14 16  1  0  0  0  0
 17  1  1  0  0  0  0
 17 18  1  0  0  0  0
 18 19  1  0  0  0  0
 20 18  2  0  0  0  0
 20 21  1  0  0  0  0
 22 20  1  0  0  0  0
 23 22  1  0  0  0  0
 24 26  1  0  0  0  0
 24 22  2  0  0  0  0
 25 24  1  0  0  0  0
 26 17  2  0  0  0  0
 27 26  1  0  0  0  0
 28 37  1  0  0  0  0
 28  1  1  0  0  0  0
 29 28  2  0  0  0  0
 30 29  1  0  0  0  0
 31 33  2  0  0  0  0
 31 29  1  0  0  0  0
 32 31  1  0  0  0  0
 33 35  1  0  0  0  0
 34 33  1  0  0  0  0
 35 36  1  0  0  0  0
 35 37  2  0  0  0  0
 37 38  1  0  0  0  0
M  END
