1
q = -1.0

 28 27  0  0  0  0  0  0  0  0999 V2000
    2.0502    0.7922    0.3030 C   0  0  0  0  0  3  0  0  0  0  0  0
    3.1511    0.6131   -1.1903 Si  0  0  0  0  0  0  0  0  0  0  0  0
    2.2371   -0.5460   -2.4429 C   0  0  0  0  0  0  0  0  0  0  0  0
    2.9067   -0.7958   -3.2922 H   0  0  0  0  0  0  0  0  0  0  0  0
    1.3439   -0.0821   -2.9252 H   0  0  0  0  0  0  0  0  0  0  0  0
    1.9415   -1.5192   -1.9898 H   0  0  0  0  0  0  0  0  0  0  0  0
    4.8298   -0.1998   -0.8498 C   0  0  0  0  0  0  0  0  0  0  0  0
    5.4228   -0.3153   -1.7810 H   0  0  0  0  0  0  0  0  0  0  0  0
    4.7100   -1.2030   -0.3927 H   0  0  0  0  0  0  0  0  0  0  0  0
    5.4137    0.4238   -0.1425 H   0  0  0  0  0  0  0  0  0  0  0  0
    3.4569    2.2398   -2.1184 C   0  0  0  0  0  0  0  0  0  0  0  0
    4.0407    2.0506   -3.0429 H   0  0  0  0  0  0  0  0  0  0  0  0
    4.0360    2.9508   -1.4948 H   0  0  0  0  0  0  0  0  0  0  0  0
    2.5134    2.7429   -2.4116 H   0  0  0  0  0  0  0  0  0  0  0  0
    2.2809    2.2692    1.4265 Si  0  0  0  0  0  0  0  0  0  0  0  0
    4.1109    2.6074    1.8346 C   0  0  0  0  0  0  0  0  0  0  0  0
    4.2205    3.4535    2.5450 H   0  0  0  0  0  0  0  0  0  0  0  0
    4.6919    2.8585    0.9227 H   0  0  0  0  0  0  0  0  0  0  0  0
    4.5816    1.7137    2.2947 H   0  0  0  0  0  0  0  0  0  0  0  0
    1.5708    3.8513    0.6466 C   0  0  0  0  0  0  0  0  0  0  0  0
    1.7396    4.7241    1.3108 H   0  0  0  0  0  0  0  0  0  0  0  0
    0.4777    3.7596    0.4858 H   0  0  0  0  0  0  0  0  0  0  0  0
    2.0408    4.0773   -0.3315 H   0  0  0  0  0  0  0  0  0  0  0  0
    1.3836    1.9693    3.0744 C   0  0  0  0  0  0  0  0  0  0  0  0
    1.4763    2.8493    3.7440 H   0  0  0  0  0  0  0  0  0  0  0  0
    1.8109    1.0949    3.6079 H   0  0  0  0  0  0  0  0  0  0  0  0
    0.3032    1.7697    2.9219 H   0  0  0  0  0  0  0  0  0  0  0  0
    2.2249   -0.1245    0.9259 H   0  0  0  0  0  0  0  0  0  0  0  0
  1 28  1  0  0  0  0
  1 15  1  0  0  0  0
  2  7  1  0  0  0  0
  2  1  1  0  0  0  0
  3  6  1  0  0  0  0
  3  2  1  0  0  0  0
  4  3  1  0  0  0  0
  5  3  1  0  0  0  0
  7  9  1  0  0  0  0
  7 10  1  0  0  0  0
  8  7  1  0  0  0  0
 11 13  1  0  0  0  0
 11  2  1  0  0  0  0
 12 11  1  0  0  0  0
 14 11  1  0  0  0  0
 15 16  1  0  0  0  0
 15 24  1  0  0  0  0
 16 19  1  0  0  0  0
 16 17  1  0  0  0  0
 18 16  1  0  0  0  0
 20 21  1  0  0  0  0
 20 15  1  0  0  0  0
 22 20  1  0  0  0  0
 23 20  1  0  0  0  0
 24 26  1  0  0  0  0
 24 25  1  0  0  0  0
 27 24  1  0  0  0  0
M  END
