7
q = 0.0, confidence = 0.98

 42 43  0  0  1  0  0  0  0  0999 V2000
   -2.7383    2.7172    1.0058 O   0  0  0  0  0  0  0  0  0  0  0  0
   -4.3626    1.8279    2.3112 O   0  0  0  0  0  0  0  0  0  0  0  0
   -5.1242    0.7601   -0.5919 O   0  0  0  0  0  0  0  0  0  0  0  0
   -5.1038   -1.2385    0.4865 O   0  0  0  0  0  0  0  0  0  0  0  0
   -1.1671   -3.3692    2.5120 O   0  0  0  0  0  0  0  0  0  0  0  0
   -0.2358   -1.2208    0.8461 C   0  0  0  0  0  3  0  0  0  0  0  0
   -0.8082    0.0791    0.6260 C   0  0  0  0  0  3  0  0  0  0  0  0
   -2.0882    0.2170   -0.1780 C   0  0  1  0  0  0  0  0  0  0  0  0
   -2.9325   -0.6341   -2.4082 C   0  0  0  0  0  0  0  0  0  0  0  0
   -3.0926   -1.6350   -3.3759 C   0  0  0  0  0  0  0  0  0  0  0  0
   -2.5545   -2.9104   -3.1487 C   0  0  0  0  0  0  0  0  0  0  0  0
   -1.8554   -3.1639   -1.9612 C   0  0  0  0  0  0  0  0  0  0  0  0
   -0.9310   -2.4542    0.2924 C   0  0  2  0  0  0  0  0  0  0  0  0
   -1.6952   -2.1686   -0.9803 C   0  0  0  0  0  0  0  0  0  0  0  0
   -2.2541   -0.8885   -1.2007 C   0  0  0  0  0  0  0  0  0  0  0  0
   -3.2779    0.3308    0.8366 C   0  0  0  0  0  0  0  0  0  0  0  0
   -3.3993    1.7589    1.3598 C   0  0  0  0  0  0  0  0  0  0  0  0
   -4.5949    3.1311    2.8577 C   0  0  0  0  0  0  0  0  0  0  0  0
   -4.5976   -0.1585    0.2598 C   0  0  0  0  0  0  0  0  0  0  0  0
   -6.3078    0.3394   -1.2822 C   0  0  0  0  0  0  0  0  0  0  0  0
   -1.8861   -3.0762    1.3324 C   0  0  0  0  0  0  0  0  0  0  0  0
   -1.9810   -3.8906    3.5300 C   0  0  0  0  0  0  0  0  0  0  0  0
    0.2233   -1.4132    1.8309 H   0  0  0  0  0  0  0  0  0  0  0  0
   -0.7765    0.8111    1.4527 H   0  0  0  0  0  0  0  0  0  0  0  0
   -2.1005    1.1877   -0.7151 H   0  0  0  0  0  0  0  0  0  0  0  0
   -3.3355    0.3752   -2.5868 H   0  0  0  0  0  0  0  0  0  0  0  0
   -3.6211   -1.4143   -4.3160 H   0  0  0  0  0  0  0  0  0  0  0  0
   -2.6626   -3.7022   -3.9054 H   0  0  0  0  0  0  0  0  0  0  0  0
   -1.4085   -4.1567   -1.7884 H   0  0  0  0  0  0  0  0  0  0  0  0
   -0.1753   -3.2422    0.0902 H   0  0  0  0  0  0  0  0  0  0  0  0
   -3.0873   -0.3255    1.7083 H   0  0  0  0  0  0  0  0  0  0  0  0
   -3.6746    3.5319    3.3287 H   0  0  0  0  0  0  0  0  0  0  0  0
   -5.3930    3.0101    3.6115 H   0  0  0  0  0  0  0  0  0  0  0  0
   -4.9145    3.8382    2.0657 H   0  0  0  0  0  0  0  0  0  0  0  0
   -6.0790   -0.5205   -1.9444 H   0  0  0  0  0  0  0  0  0  0  0  0
   -7.0947    0.0321   -0.5650 H   0  0  0  0  0  0  0  0  0  0  0  0
   -6.6410    1.2076   -1.8782 H   0  0  0  0  0  0  0  0  0  0  0  0
   -2.7413   -2.3866    1.5405 H   0  0  0  0  0  0  0  0  0  0  0  0
   -2.3400   -4.0065    0.9054 H   0  0  0  0  0  0  0  0  0  0  0  0
   -2.7927   -3.1808    3.8274 H   0  0  0  0  0  0  0  0  0  0  0  0
   -1.3399   -4.0846    4.4127 H   0  0  0  0  0  0  0  0  0  0  0  0
   -2.4724   -4.8500    3.2306 H   0  0  0  0  0  0  0  0  0  0  0  0
  1 17  2  0  0  0  0
  2 18  1  0  0  0  0
  3 19  1  0  0  0  0
  5 22  1  0  0  0  0
  6 23  1  0  0  0  0
  7  6  1  0  0  0  0
  7 24  1  0  0  0  0
  8 25  1  6  0  0  0
  8  7  1  0  0  0  0
  8 16  1  0  0  0  0
  9 15  1  0  0  0  0
 10 11  1  0  0  0  0
 10  9  2  0  0  0  0
 11 12  2  0  0  0  0
 12 29  1  0  0  0  0
 12 14  1  0  0  0  0
 13 30  1  6  0  0  0
 13  6  1  0  0  0  0
 13 21  1  0  0  0  0
 14 13  1  0  0  0  0
 15 14  2  0  0  0  0
 15  8  1  0  0  0  0
 16 17  1  0  0  0  0
 16 31  1  0  0  0  0
 17  2  1  0  0  0  0
 18 32  1  0  0  0  0
 18 33  1  0  0  0  0
 19  4  2  0  0  0  0
 19 16  1  0  0  0  0
 20  3  1  0  0  0  0
 20 36  1  0  0  0  0
 21 38  1  0  0  0  0
 21  5  1  0  0  0  0
 22 40  1  0  0  0  0
 22 41  1  0  0  0  0
 26  9  1  0  0  0  0
 27 10  1  0  0  0  0
 28 11  1  0  0  0  0
 34 18  1  0  0  0  0
 35 20  1  0  0  0  0
 37 20  1  0  0  0  0
 39 21  1  0  0  0  0
 42 22  1  0  0  0  0
M  END
