3
q = 0.0, confidence = 0.976

 21 21  0  0  0  0  0  0  0  0999 V2000
    4.1114    1.0086    0.4755 N   0  0  0  0  0  0  0  0  0  0  0  0
    2.1644    1.0518   -1.4144 O   0  0  0  0  0  0  0  0  0  0  0  0
    2.0648   -0.0361   -0.6347 C   0  0  0  0  0  2  0  0  0  0  0  0
    3.1973   -0.0503    0.2687 C   0  0  0  0  0  0  0  0  0  0  0  0
    3.6278   -1.1094    1.1052 C   0  0  0  0  0  0  0  0  0  0  0  0
    3.1522   -2.0911    1.1574 H   0  0  0  0  0  0  0  0  0  0  0  0
    4.7739   -0.6947    1.8052 C   0  0  0  0  0  0  0  0  0  0  0  0
    5.3588   -1.2764    2.5254 H   0  0  0  0  0  0  0  0  0  0  0  0
    5.0371    0.6190    1.3997 C   0  0  0  0  0  0  0  0  0  0  0  0
    5.8287    1.3106    1.7131 H   0  0  0  0  0  0  0  0  0  0  0  0
    1.1865    1.4028   -2.4046 C   0  0  0  0  0  0  0  0  0  0  0  0
    0.1743    1.2079   -1.9978 H   0  0  0  0  0  0  0  0  0  0  0  0
    1.3266    0.7392   -3.2819 H   0  0  0  0  0  0  0  0  0  0  0  0
    1.3839    2.8598   -2.7719 C   0  0  0  0  0  0  0  0  0  0  0  0
    0.6453    3.1491   -3.5454 H   0  0  0  0  0  0  0  0  0  0  0  0
    1.2352    3.5133   -1.8897 H   0  0  0  0  0  0  0  0  0  0  0  0
    2.3979    3.0399   -3.1817 H   0  0  0  0  0  0  0  0  0  0  0  0
    4.1146    2.3397   -0.1143 C   0  0  0  0  0  0  0  0  0  0  0  0
    3.1386    2.8372    0.0327 H   0  0  0  0  0  0  0  0  0  0  0  0
    4.9010    2.9335    0.3888 H   0  0  0  0  0  0  0  0  0  0  0  0
    4.3249    2.2982   -1.1991 H   0  0  0  0  0  0  0  0  0  0  0  0
  1  9  1  0  0  0  0
  2  3  1  0  0  0  0
  3  4  1  0  0  0  0
  4  1  1  0  0  0  0
  4  5  2  0  0  0  0
  5  6  1  0  0  0  0
  5  7  1  0  0  0  0
  7  8  1  0  0  0  0
  9 10  1  0  0  0  0
  9  7  2  0  0  0  0
 11 12  1  0  0  0  0
 11  2  1  0  0  0  0
 13 11  1  0  0  0  0
 14 11  1  0  0  0  0
 14 16  1  0  0  0  0
 15 14  1  0  0  0  0
 17 14  1  0  0  0  0
 18 19  1  0  0  0  0
 18 20  1  0  0  0  0
 18  1  1  0  0  0  0
 21 18  1  0  0  0  0
M  END
