8
q = -1.0

 14 14  0  0  1  0  0  0  0  0999 V2000
    1.1766   -1.2757   -0.3530 C   0  0  1  0  0  3  0  0  0  0  0  0
    0.2750   -2.1458    0.3628 C   0  0  0  0  0  0  0  0  0  0  0  0
    0.4602   -2.5351    1.3700 H   0  0  0  0  0  0  0  0  0  0  0  0
   -0.8579   -2.3890   -0.4599 C   0  0  0  0  0  0  0  0  0  0  0  0
   -1.7221   -3.0116   -0.1996 H   0  0  0  0  0  0  0  0  0  0  0  0
   -0.6787   -1.6658   -1.6860 C   0  0  0  0  0  3  0  0  0  0  0  0
   -1.3780   -1.6610   -2.5308 H   0  0  0  0  0  0  0  0  0  0  0  0
    0.5834   -0.9851   -1.6362 C   0  0  0  0  0  3  0  0  0  0  0  0
    1.0413   -0.3799   -2.4260 H   0  0  0  0  0  0  0  0  0  0  0  0
    2.4375   -0.7608    0.2162 C   0  0  0  0  0  0  0  0  0  0  0  0
    3.1145    0.0999   -0.7077 N   0  0  0  0  0  0  0  0  0  0  0  0
    4.1648    0.6376   -0.3283 N   0  0  0  0  0  4  0  0  0  0  0  0
    5.1406    1.1806   -0.0769 N   0  0  0  0  0  2  0  0  0  0  0  0
    2.8448   -1.0181    1.3375 O   0  0  0  0  0  0  0  0  0  0  0  0
  1 10  1  1  0  0  0
  1  2  1  0  0  0  0
  2  3  1  0  0  0  0
  4  5  1  0  0  0  0
  4  2  2  0  0  0  0
  6  8  1  0  0  0  0
  6  4  1  0  0  0  0
  7  6  1  0  0  0  0
  8  1  1  0  0  0  0
  9  8  1  0  0  0  0
 10 14  2  0  0  0  0
 11 12  2  0  0  0  0
 11 10  1  0  0  0  0
 12 13  2  0  0  0  0
M  END
