3
q = -1.0, confidence = 0.0

 20 21  0  0  0  0  0  0  0  0999 V2000
   -4.0836   -2.5421    0.8929 O   0  0  0  0  0  0  0  0  0  0  0  0
   -2.7007   -0.9684    1.8318 O   0  0  0  0  0  0  0  0  0  0  0  0
   -1.6393   -0.5648   -1.1238 C   0  0  0  0  0  3  0  0  0  0  0  0
   -1.6527    0.1656   -2.3273 C   0  0  0  0  0  0  0  0  0  0  0  0
   -0.7110    0.5442   -2.7528 H   0  0  0  0  0  0  0  0  0  0  0  0
   -2.8613    0.4176   -3.0004 C   0  0  0  0  0  0  0  0  0  0  0  0
   -2.8523    0.9970   -3.9371 H   0  0  0  0  0  0  0  0  0  0  0  0
   -4.0687   -0.0806   -2.4887 C   0  0  0  0  0  0  0  0  0  0  0  0
   -5.0152    0.1022   -3.0201 H   0  0  0  0  0  0  0  0  0  0  0  0
   -4.0608   -0.8345   -1.3057 C   0  0  0  0  0  0  0  0  0  0  0  0
   -4.9877   -1.2734   -0.9075 H   0  0  0  0  0  0  0  0  0  0  0  0
   -2.8575   -1.0766   -0.6153 C   0  0  0  0  0  0  0  0  0  0  0  0
   -2.8567   -1.8462    0.6969 C   0  0  0  0  0  0  0  0  0  0  0  0
   -1.9892   -2.5436    0.7257 H   0  0  0  0  0  0  0  0  0  0  0  0
   -4.6717   -2.0938    2.1071 C   0  0  0  0  0  0  0  0  0  0  0  0
   -4.4309   -2.7851    2.9500 H   0  0  0  0  0  0  0  0  0  0  0  0
   -5.7737   -2.0495    1.9840 H   0  0  0  0  0  0  0  0  0  0  0  0
   -4.0160   -0.7296    2.3123 C   0  0  0  0  0  0  0  0  0  0  0  0
   -4.5358    0.0606    1.7169 H   0  0  0  0  0  0  0  0  0  0  0  0
   -3.9533   -0.4063    3.3702 H   0  0  0  0  0  0  0  0  0  0  0  0
  1 15  1  0  0  0  0
  2 18  1  0  0  0  0
  3 12  1  0  0  0  0
  4  3  2  0  0  0  0
  5  4  1  0  0  0  0
  6  8  2  0  0  0  0
  6  4  1  0  0  0  0
  7  6  1  0  0  0  0
  8 10  1  0  0  0  0
  9  8  1  0  0  0  0
 10 11  1  0  0  0  0
 10 12  2  0  0  0  0
 12 13  1  0  0  0  0
 13 14  1  0  0  0  0
 13  1  1  0  0  0  0
 13  2  1  0  0  0  0
 15 18  1  0  0  0  0
 15 16  1  0  0  0  0
 17 15  1  0  0  0  0
 18 20  1  0  0  0  0
 19 18  1  0  0  0  0
M  END
