4
q = 0.0, confidence = 0.984

 41 41  0  0  1  0  0  0  0  0999 V2000
   -1.4791   -2.2879    0.2969 C   0  0  2  0  0  3  0  0  0  0  0  0
   -0.9049   -1.6769    1.4723 C   0  0  0  0  0  3  0  0  0  0  0  0
   -0.5203   -2.2722    2.3166 H   0  0  0  0  0  0  0  0  0  0  0  0
   -0.7385   -0.2627    1.4146 C   0  0  0  0  0  3  0  0  0  0  0  0
   -0.2432    0.3047    2.2182 H   0  0  0  0  0  0  0  0  0  0  0  0
   -1.1557    0.3251    0.1706 C   0  0  0  0  0  3  0  0  0  0  0  0
   -0.8694    1.3734    0.0017 H   0  0  0  0  0  0  0  0  0  0  0  0
   -2.4748   -0.0728   -0.4671 C   0  0  1  0  0  0  0  0  0  0  0  0
   -2.4438    0.2198   -1.5360 H   0  0  0  0  0  0  0  0  0  0  0  0
   -2.6711   -1.5980   -0.3565 C   0  0  0  0  0  0  0  0  0  0  0  0
   -3.5856   -1.8284    0.2358 H   0  0  0  0  0  0  0  0  0  0  0  0
   -2.8609   -2.0267   -1.3586 H   0  0  0  0  0  0  0  0  0  0  0  0
   -1.4708   -3.8148    0.2099 C   0  0  2  0  0  0  0  0  0  0  0  0
   -0.6224   -4.1709    0.8361 H   0  0  0  0  0  0  0  0  0  0  0  0
   -1.2389   -4.3336   -1.2159 C   0  0  0  0  0  0  0  0  0  0  0  0
   -1.2597   -5.4423   -1.2379 H   0  0  0  0  0  0  0  0  0  0  0  0
   -0.2613   -3.9989   -1.6108 H   0  0  0  0  0  0  0  0  0  0  0  0
   -2.0238   -3.9737   -1.9124 H   0  0  0  0  0  0  0  0  0  0  0  0
   -2.7601   -4.4389    0.7999 C   0  0  0  0  0  0  0  0  0  0  0  0
   -3.6233   -4.1763    0.1496 H   0  0  0  0  0  0  0  0  0  0  0  0
   -2.6609   -5.5436    0.7249 H   0  0  0  0  0  0  0  0  0  0  0  0
   -3.0648   -4.0550    2.2474 C   0  0  0  0  0  0  0  0  0  0  0  0
   -3.9650   -4.5828    2.6222 H   0  0  0  0  0  0  0  0  0  0  0  0
   -3.2480   -2.9666    2.3590 H   0  0  0  0  0  0  0  0  0  0  0  0
   -2.2214   -4.3161    2.9208 H   0  0  0  0  0  0  0  0  0  0  0  0
   -3.6479    0.7263    0.1568 C   0  0  0  0  0  0  0  0  0  0  0  0
   -3.8340    0.3778    1.1940 H   0  0  0  0  0  0  0  0  0  0  0  0
   -3.3012    2.2093    0.2215 C   0  0  0  0  0  0  0  0  0  0  0  0
   -3.1143    2.9200   -0.7485 O   0  0  0  0  0  0  0  0  0  0  0  0
   -3.1710    2.6273    1.5021 O   0  0  0  0  0  0  0  0  0  0  0  0
   -2.7659    3.9940    1.6590 C   0  0  0  0  0  0  0  0  0  0  0  0
   -2.7856    4.1955    2.7449 H   0  0  0  0  0  0  0  0  0  0  0  0
   -3.4577    4.6741    1.1231 H   0  0  0  0  0  0  0  0  0  0  0  0
   -1.7432    4.1444    1.2581 H   0  0  0  0  0  0  0  0  0  0  0  0
   -4.9374    0.5428   -0.6391 C   0  0  0  0  0  0  0  0  0  0  0  0
   -5.0864   -0.1899   -1.5961 O   0  0  0  0  0  0  0  0  0  0  0  0
   -5.9238    1.3176   -0.1242 O   0  0  0  0  0  0  0  0  0  0  0  0
   -7.1796    1.2500   -0.8117 C   0  0  0  0  0  0  0  0  0  0  0  0
   -7.8607    1.9331   -0.2740 H   0  0  0  0  0  0  0  0  0  0  0  0
   -7.5797    0.2161   -0.8014 H   0  0  0  0  0  0  0  0  0  0  0  0
   -7.0660    1.5679   -1.8676 H   0  0  0  0  0  0  0  0  0  0  0  0
  1 13  1  1  0  0  0
  1  2  1  0  0  0  0
  2  3  1  0  0  0  0
  4  2  1  0  0  0  0
  4  5  1  0  0  0  0
  6  4  1  0  0  0  0
  7  6  1  0  0  0  0
  8  9  1  6  0  0  0
  8 10  1  0  0  0  0
  8 26  1  0  0  0  0
  8  6  1  0  0  0  0
 10 11  1  0  0  0  0
 10  1  1  0  0  0  0
 12 10  1  0  0  0  0
 13 19  1  0  0  0  0
 13 14  1  1  0  0  0
 15 13  1  0  0  0  0
 16 15  1  0  0  0  0
 17 15  1  0  0  0  0
 18 15  1  0  0  0  0
 19 22  1  0  0  0  0
 20 19  1  0  0  0  0
 21 19  1  0  0  0  0
 22 24  1  0  0  0  0
 22 23  1  0  0  0  0
 22 25  1  0  0  0  0
 26 28  1  0  0  0  0
 26 27  1  0  0  0  0
 28 30  1  0  0  0  0
 29 28  2  0  0  0  0
 30 31  1  0  0  0  0
 31 32  1  0  0  0  0
 33 31  1  0  0  0  0
 34 31  1  0  0  0  0
 35 37  1  0  0  0  0
 35 26  1  0  0  0  0
 36 35  2  0  0  0  0
 38 40  1  0  0  0  0
 38 39  1  0  0  0  0
 38 37  1  0  0  0  0
 41 38  1  0  0  0  0
M  END
