2
q = -1.0, confidence = 0.0

 30 31  0  0  0  0  0  0  0  0999 V2000
    1.9043    1.9107    0.6178 N   0  0  0  0  0  0  0  0  0  0  0  0
    1.2729    1.0325   -0.1313 C   0  0  0  0  0  2  0  0  0  0  0  0
    0.3627    1.2311   -1.2202 C   0  0  0  0  0  3  0  0  0  0  0  0
    0.8039    1.1696   -2.2331 H   0  0  0  0  0  0  0  0  0  0  0  0
   -0.8120    2.1473   -1.1706 C   0  0  0  0  0  0  0  0  0  0  0  0
   -1.8393    1.9534   -2.1248 C   0  0  0  0  0  0  0  0  0  0  0  0
   -1.7247    1.1400   -2.8558 H   0  0  0  0  0  0  0  0  0  0  0  0
   -2.9870    2.7495   -2.1493 C   0  0  0  0  0  0  0  0  0  0  0  0
   -3.7706    2.5672   -2.8996 H   0  0  0  0  0  0  0  0  0  0  0  0
   -3.1245    3.7862   -1.2117 C   0  0  0  0  0  0  0  0  0  0  0  0
   -4.0219    4.4222   -1.2090 H   0  0  0  0  0  0  0  0  0  0  0  0
   -2.0883    4.0336   -0.3048 C   0  0  0  0  0  0  0  0  0  0  0  0
   -2.1750    4.8830    0.3915 H   0  0  0  0  0  0  0  0  0  0  0  0
   -0.9146    3.2484   -0.2704 C   0  0  0  0  0  0  0  0  0  0  0  0
    0.1696    3.6890    0.7065 C   0  0  0  0  0  0  0  0  0  0  0  0
    0.1044    4.7926    0.7972 H   0  0  0  0  0  0  0  0  0  0  0  0
   -0.0465    3.3029    1.7282 H   0  0  0  0  0  0  0  0  0  0  0  0
    1.6225    3.3382    0.3701 C   0  0  0  0  0  0  0  0  0  0  0  0
    1.8554    3.5744   -0.6883 H   0  0  0  0  0  0  0  0  0  0  0  0
    2.3090    3.9327    1.0014 H   0  0  0  0  0  0  0  0  0  0  0  0
    2.8041    1.5437    1.7181 C   0  0  0  0  0  0  0  0  0  0  0  0
    2.6666    0.4583    1.8907 H   0  0  0  0  0  0  0  0  0  0  0  0
    2.4755    2.0810    2.6323 H   0  0  0  0  0  0  0  0  0  0  0  0
    4.2732    1.8522    1.4043 C   0  0  0  0  0  0  0  0  0  0  0  0
    4.3989    2.9442    1.2378 H   0  0  0  0  0  0  0  0  0  0  0  0
    4.8560    1.6248    2.3215 H   0  0  0  0  0  0  0  0  0  0  0  0
    4.8274    1.0685    0.2159 C   0  0  0  0  0  0  0  0  0  0  0  0
    4.7794   -0.0246    0.3992 H   0  0  0  0  0  0  0  0  0  0  0  0
    5.8862    1.3288    0.0242 H   0  0  0  0  0  0  0  0  0  0  0  0
    4.2596    1.2782   -0.7140 H   0  0  0  0  0  0  0  0  0  0  0  0
  1 21  1  0  0  0  0
  2  1  1  0  0  0  0
  3  5  1  0  0  0  0
  3  2  1  0  0  0  0
  4  3  1  0  0  0  0
  5 14  1  0  0  0  0
  6  5  2  0  0  0  0
  7  6  1  0  0  0  0
  8  6  1  0  0  0  0
  8 10  2  0  0  0  0
  9  8  1  0  0  0  0
 10 11  1  0  0  0  0
 10 12  1  0  0  0  0
 12 14  2  0  0  0  0
 12 13  1  0  0  0  0
 14 15  1  0  0  0  0
 15 16  1  0  0  0  0
 15 17  1  0  0  0  0
 18  1  1  0  0  0  0
 18 15  1  0  0  0  0
 18 20  1  0  0  0  0
 19 18  1  0  0  0  0
 21 22  1  0  0  0  0
 21 23  1  0  0  0  0
 24 21  1  0  0  0  0
 24 26  1  0  0  0  0
 25 24  1  0  0  0  0
 27 28  1  0  0  0  0
 27 24  1  0  0  0  0
 29 27  1  0  0  0  0
 30 27  1  0  0  0  0
M  END
