7
q = 0.0, confidence = 0.904

 44 46  0  0  1  0  0  0  0  0999 V2000
   -0.0008    0.9478    0.1574 P   0  0  1  0  0  0  0  0  0  0  0  0
    0.0608    1.3320    1.6319 O   0  0  0  0  0  0  0  0  0  0  0  0
   -0.0368    2.3269   -0.8123 O   0  0  0  0  0  0  0  0  0  0  0  0
    1.2179   -0.1959   -0.5275 C   0  0  1  0  0  3  0  0  0  0  0  0
    0.6232   -0.7897   -1.7080 C   0  0  0  0  0  3  0  0  0  0  0  0
    1.1892   -1.2444   -2.5324 H   0  0  0  0  0  0  0  0  0  0  0  0
   -0.8033   -0.7145   -1.7021 C   0  0  0  0  0  3  0  0  0  0  0  0
   -1.4226   -1.0954   -2.5258 H   0  0  0  0  0  0  0  0  0  0  0  0
   -1.3292   -0.0580   -0.5217 C   0  0  2  0  0  3  0  0  0  0  0  0
    2.6495   -0.1930   -0.1928 C   0  0  0  0  0  0  0  0  0  0  0  0
    3.0868    0.3128    1.0595 C   0  0  0  0  0  0  0  0  0  0  0  0
    2.3240    0.6739    1.7670 H   0  0  0  0  0  0  0  0  0  0  0  0
    4.4451    0.3293    1.3950 C   0  0  0  0  0  0  0  0  0  0  0  0
    4.7540    0.7253    2.3758 H   0  0  0  0  0  0  0  0  0  0  0  0
    5.4119   -0.1631    0.5000 C   0  0  0  0  0  0  0  0  0  0  0  0
    6.4801   -0.1530    0.7681 H   0  0  0  0  0  0  0  0  0  0  0  0
    4.9933   -0.6780   -0.7373 C   0  0  0  0  0  0  0  0  0  0  0  0
    5.7352   -1.0763   -1.4483 H   0  0  0  0  0  0  0  0  0  0  0  0
    3.6340   -0.6923   -1.0799 C   0  0  0  0  0  0  0  0  0  0  0  0
    3.3289   -1.1030   -2.0536 H   0  0  0  0  0  0  0  0  0  0  0  0
   -2.7511    0.1193   -0.1996 C   0  0  0  0  0  0  0  0  0  0  0  0
   -3.7790   -0.4934   -0.9580 C   0  0  0  0  0  0  0  0  0  0  0  0
   -3.5151   -1.1511   -1.7989 H   0  0  0  0  0  0  0  0  0  0  0  0
   -5.1292   -0.2951   -0.6409 C   0  0  0  0  0  0  0  0  0  0  0  0
   -5.9055   -0.7882   -1.2482 H   0  0  0  0  0  0  0  0  0  0  0  0
   -5.4970    0.5177    0.4442 C   0  0  0  0  0  0  0  0  0  0  0  0
   -6.5590    0.6716    0.6921 H   0  0  0  0  0  0  0  0  0  0  0  0
   -4.4879    1.1199    1.2157 C   0  0  0  0  0  0  0  0  0  0  0  0
   -4.7563    1.7488    2.0799 H   0  0  0  0  0  0  0  0  0  0  0  0
   -3.1376    0.9237    0.9038 C   0  0  0  0  0  0  0  0  0  0  0  0
   -2.3472    1.3713    1.5264 H   0  0  0  0  0  0  0  0  0  0  0  0
    0.4012    3.6505   -0.4267 C   0  0  0  0  0  0  0  0  0  0  0  0
    1.8361    3.6107    0.1189 C   0  0  0  0  0  0  0  0  0  0  0  0
    1.8661    3.0367    1.0641 H   0  0  0  0  0  0  0  0  0  0  0  0
    2.2108    4.6370    0.3136 H   0  0  0  0  0  0  0  0  0  0  0  0
    2.5134    3.1187   -0.6077 H   0  0  0  0  0  0  0  0  0  0  0  0
    0.3447    4.4542   -1.7323 C   0  0  0  0  0  0  0  0  0  0  0  0
   -0.6838    4.4353   -2.1448 H   0  0  0  0  0  0  0  0  0  0  0  0
    1.0251    4.0072   -2.4844 H   0  0  0  0  0  0  0  0  0  0  0  0
    0.6426    5.5093   -1.5624 H   0  0  0  0  0  0  0  0  0  0  0  0
   -0.5685    4.2314    0.6138 C   0  0  0  0  0  0  0  0  0  0  0  0
   -1.6045    4.2053    0.2194 H   0  0  0  0  0  0  0  0  0  0  0  0
   -0.3060    5.2823    0.8572 H   0  0  0  0  0  0  0  0  0  0  0  0
   -0.5282    3.6161    1.5327 H   0  0  0  0  0  0  0  0  0  0  0  0
  1  2  2  1  0  0  0
  3 32  1  0  0  0  0
  3  1  1  0  0  0  0
  4 10  1  6  0  0  0
  4  1  1  0  0  0  0
  5  7  1  0  0  0  0
  5  4  1  0  0  0  0
  6  5  1  0  0  0  0
  7  9  1  0  0  0  0
  8  7  1  0  0  0  0
  9 21  1  6  0  0  0
  9  1  1  0  0  0  0
 10 11  1  0  0  0  0
 11 13  2  0  0  0  0
 11 12  1  0  0  0  0
 13 14  1  0  0  0  0
 15 16  1  0  0  0  0
 15 13  1  0  0  0  0
 17 15  2  0  0  0  0
 18 17  1  0  0  0  0
 19 17  1  0  0  0  0
 19 10  2  0  0  0  0
 20 19  1  0  0  0  0
 21 30  1  0  0  0  0
 22 24  1  0  0  0  0
 22 21  2  0  0  0  0
 23 22  1  0  0  0  0
 24 26  2  0  0  0  0
 25 24  1  0  0  0  0
 26 27  1  0  0  0  0
 26 28  1  0  0  0  0
 28 29  1  0  0  0  0
 30 28  2  0  0  0  0
 30 31  1  0  0  0  0
 32 33  1  0  0  0  0
 32 41  1  0  0  0  0
 33 35  1  0  0  0  0
 33 34  1  0  0  0  0
 36 33  1  0  0  0  0
 37 40  1  0  0  0  0
 37 32  1  0  0  0  0
 38 37  1  0  0  0  0
 39 37  1  0  0  0  0
 41 43  1  0  0  0  0
 41 44  1  0  0  0  0
 42 41  1  0  0  0  0
M  END
