12
q = -1.0

 16 15  0  0  1  0  0  0  0  0999 V2000
    3.1119   -2.8190   -0.0588 O   0  0  0  0  0  0  0  0  0  0  0  0
    1.1517   -1.8554   -1.0973 C   0  0  0  0  0  3  0  0  0  0  0  0
    0.1128   -2.1507   -1.3035 H   0  0  0  0  0  0  0  0  0  0  0  0
    0.8609    0.1529   -2.4492 C   0  0  0  0  0  3  0  0  0  0  0  0
   -0.1776   -0.0903   -2.7247 H   0  0  0  0  0  0  0  0  0  0  0  0
    1.3098    0.9430   -3.0781 H   0  0  0  0  0  0  0  0  0  0  0  0
    1.8937   -2.8422   -0.2941 C   0  0  0  0  0  0  0  0  0  0  0  0
    3.1370   -1.0424   -2.5756 C   0  0  0  0  0  0  0  0  0  0  0  0
    3.0548   -1.6002   -3.5344 H   0  0  0  0  0  0  0  0  0  0  0  0
    3.8000   -1.6167   -1.9078 H   0  0  0  0  0  0  0  0  0  0  0  0
    3.5920   -0.0617   -2.8147 H   0  0  0  0  0  0  0  0  0  0  0  0
    1.7473   -0.8960   -2.0115 C   0  0  2  0  0  3  0  0  0  0  0  0
    1.0424   -3.9661    0.2940 C   0  0  0  0  0  0  0  0  0  0  0  0
    1.6708   -4.6079    0.9382 H   0  0  0  0  0  0  0  0  0  0  0  0
    0.6045   -4.5800   -0.5211 H   0  0  0  0  0  0  0  0  0  0  0  0
    0.1940   -3.5622    0.8834 H   0  0  0  0  0  0  0  0  0  0  0  0
  2  7  1  0  0  0  0
  3  2  1  0  0  0  0
  5  4  1  0  0  0  0
  6  4  1  0  0  0  0
  7  1  2  0  0  0  0
  7 13  1  0  0  0  0
  8 12  1  0  0  0  0
  8 10  1  0  0  0  0
  9  8  1  0  0  0  0
 11  8  1  0  0  0  0
 12  4  1  6  0  0  0
 12  2  1  0  0  0  0
 13 16  1  0  0  0  0
 13 14  1  0  0  0  0
 15 13  1  0  0  0  0
M  END
