2
q = -1.0

 30 29  0  0  0  0  0  0  0  0999 V2000
    0.9365   -0.1170   -2.0252 Cl  0  0  0  0  0  0  0  0  0  0  0  0
    0.4010   -0.1431   -0.3169 C   0  0  0  0  0  2  0  0  0  0  0  0
    1.4986   -0.3066    0.9919 P   0  0  0  0  0  2  0  0  0  0  0  0
    3.1430   -0.3421    0.3590 N   0  0  0  0  0  0  0  0  0  0  0  0
    3.8783   -1.8359   -0.2812 Si  0  0  0  0  0  0  0  0  0  0  0  0
    4.7537   -1.4721   -1.9198 C   0  0  0  0  0  0  0  0  0  0  0  0
    2.5538   -3.1399   -0.6125 C   0  0  0  0  0  0  0  0  0  0  0  0
    5.0973   -2.5693    0.9695 C   0  0  0  0  0  0  0  0  0  0  0  0
    4.0355    1.2024    0.4226 Si  0  0  0  0  0  0  0  0  0  0  0  0
    3.8908    2.1279   -1.2217 C   0  0  0  0  0  0  0  0  0  0  0  0
    3.3651    2.2816    1.8278 C   0  0  0  0  0  0  0  0  0  0  0  0
    5.8705    0.9138    0.7948 C   0  0  0  0  0  0  0  0  0  0  0  0
    5.1583   -2.4081   -2.3579 H   0  0  0  0  0  0  0  0  0  0  0  0
    5.5977   -0.7624   -1.8104 H   0  0  0  0  0  0  0  0  0  0  0  0
    4.0286   -1.0364   -2.6367 H   0  0  0  0  0  0  0  0  0  0  0  0
    1.8779   -2.8011   -1.4212 H   0  0  0  0  0  0  0  0  0  0  0  0
    1.9472   -3.3651    0.2871 H   0  0  0  0  0  0  0  0  0  0  0  0
    3.0434   -4.0806   -0.9402 H   0  0  0  0  0  0  0  0  0  0  0  0
    5.9509   -1.8944    1.1732 H   0  0  0  0  0  0  0  0  0  0  0  0
    5.5053   -3.5325    0.5978 H   0  0  0  0  0  0  0  0  0  0  0  0
    4.5827   -2.7651    1.9328 H   0  0  0  0  0  0  0  0  0  0  0  0
    2.8315    2.2121   -1.5314 H   0  0  0  0  0  0  0  0  0  0  0  0
    4.4252    1.5819   -2.0249 H   0  0  0  0  0  0  0  0  0  0  0  0
    4.3246    3.1473   -1.1493 H   0  0  0  0  0  0  0  0  0  0  0  0
    3.9740    3.2077    1.8948 H   0  0  0  0  0  0  0  0  0  0  0  0
    3.4345    1.7517    2.7994 H   0  0  0  0  0  0  0  0  0  0  0  0
    2.3074    2.5786    1.6878 H   0  0  0  0  0  0  0  0  0  0  0  0
    6.0084    0.4312    1.7832 H   0  0  0  0  0  0  0  0  0  0  0  0
    6.3864    1.8965    0.8213 H   0  0  0  0  0  0  0  0  0  0  0  0
    6.3814    0.2933    0.0323 H   0  0  0  0  0  0  0  0  0  0  0  0
  1  2  1  0  0  0  0
  2  3  1  0  0  0  0
  4  9  1  0  0  0  0
  4  3  1  0  0  0  0
  5  4  1  0  0  0  0
  5  8  1  0  0  0  0
  6 14  1  0  0  0  0
  6  5  1  0  0  0  0
  7  5  1  0  0  0  0
  7 17  1  0  0  0  0
  8 19  1  0  0  0  0
  8 21  1  0  0  0  0
  9 12  1  0  0  0  0
  9 11  1  0  0  0  0
 10 24  1  0  0  0  0
 10  9  1  0  0  0  0
 11 25  1  0  0  0  0
 11 26  1  0  0  0  0
 12 29  1  0  0  0  0
 12 28  1  0  0  0  0
 13  6  1  0  0  0  0
 15  6  1  0  0  0  0
 16  7  1  0  0  0  0
 18  7  1  0  0  0  0
 20  8  1  0  0  0  0
 22 10  1  0  0  0  0
 23 10  1  0  0  0  0
 27 11  1  0  0  0  0
 30 12  1  0  0  0  0
M  END
