3
q = 0.0, confidence = 0.99

 18 18  0  0  0  0  0  0  0  0999 V2000
    2.9884   -0.2987   -0.6824 N   0  0  0  0  0  0  0  0  0  0  0  0
    2.7784    1.1929    0.8677 N   0  0  0  0  0  0  0  0  0  0  0  0
    2.0572    0.3273    0.0952 C   0  0  0  0  0  2  0  0  0  0  0  0
    4.2656    0.1575   -0.3982 C   0  0  0  0  0  0  0  0  0  0  0  0
    5.1551   -0.2185   -0.9132 H   0  0  0  0  0  0  0  0  0  0  0  0
    4.1328    1.1071    0.5827 C   0  0  0  0  0  0  0  0  0  0  0  0
    4.8819    1.7258    1.0863 H   0  0  0  0  0  0  0  0  0  0  0  0
    2.2104    2.1031    1.8537 C   0  0  0  0  0  0  0  0  0  0  0  0
    2.4290    3.1537    1.5806 H   0  0  0  0  0  0  0  0  0  0  0  0
    2.6281    1.8929    2.8574 H   0  0  0  0  0  0  0  0  0  0  0  0
    1.1155    1.9551    1.8785 H   0  0  0  0  0  0  0  0  0  0  0  0
    2.6873   -1.3768   -1.6317 C   0  0  0  0  0  0  0  0  0  0  0  0
    3.3526   -1.2441   -2.5082 H   0  0  0  0  0  0  0  0  0  0  0  0
    1.6483   -1.2111   -1.9800 H   0  0  0  0  0  0  0  0  0  0  0  0
    2.8464   -2.7638   -1.0177 C   0  0  0  0  0  0  0  0  0  0  0  0
    3.8815   -2.9345   -0.6610 H   0  0  0  0  0  0  0  0  0  0  0  0
    2.6143   -3.5402   -1.7725 H   0  0  0  0  0  0  0  0  0  0  0  0
    2.1572   -2.8971   -0.1599 H   0  0  0  0  0  0  0  0  0  0  0  0
  1  4  1  0  0  0  0
  1  3  1  0  0  0  0
  2  8  1  0  0  0  0
  3  2  1  0  0  0  0
  4  6  2  0  0  0  0
  5  4  1  0  0  0  0
  6  2  1  0  0  0  0
  6  7  1  0  0  0  0
  8 11  1  0  0  0  0
  8 10  1  0  0  0  0
  9  8  1  0  0  0  0
 12 15  1  0  0  0  0
 12  1  1  0  0  0  0
 13 12  1  0  0  0  0
 14 12  1  0  0  0  0
 15 16  1  0  0  0  0
 15 18  1  0  0  0  0
 17 15  1  0  0  0  0
M  END
