2
q = -1.0

  7  6  0  0  0  0  0  0  0  0999 V2000
    4.7583    1.0986   -0.3739 Br  0  0  0  0  0  0  0  0  0  0  0  0
    2.0169    0.3911   -0.6474 C   0  0  0  0  0  3  0  0  0  0  0  0
    2.2037   -0.1024   -1.6185 H   0  0  0  0  0  0  0  0  0  0  0  0
    1.8528    1.4662   -0.8431 H   0  0  0  0  0  0  0  0  0  0  0  0
    3.1560    0.1346    0.3024 C   0  0  0  0  0  0  0  0  0  0  0  0
    3.4306   -0.9340    0.3469 H   0  0  0  0  0  0  0  0  0  0  0  0
    3.0063    0.5117    1.3269 H   0  0  0  0  0  0  0  0  0  0  0  0
  1  5  1  0  0  0  0
  2  5  1  0  0  0  0
  3  2  1  0  0  0  0
  4  2  1  0  0  0  0
  5  6  1  0  0  0  0
  5  7  1  0  0  0  0
M  END
