1
q = -1.0, confidence = 0.0

 16 16  0  0  0  0  0  0  0  0999 V2000
   -1.2116   -0.5382   -0.0073 C   0  0  0  0  0  3  0  0  0  0  0  0
   -2.4444   -0.4859   -0.0139 C   0  0  0  0  0  0  0  0  0  0  0  0
   -3.8723   -0.4607   -0.0234 C   0  0  0  0  0  0  0  0  0  0  0  0
   -4.6121   -1.6635   -0.1378 C   0  0  0  0  0  0  0  0  0  0  0  0
   -4.0713   -2.6172   -0.2180 H   0  0  0  0  0  0  0  0  0  0  0  0
   -6.0115   -1.6238   -0.1471 C   0  0  0  0  0  0  0  0  0  0  0  0
   -6.5819   -2.5612   -0.2364 H   0  0  0  0  0  0  0  0  0  0  0  0
   -6.6915   -0.4017   -0.0433 C   0  0  0  0  0  0  0  0  0  0  0  0
   -7.7931   -0.3851   -0.0516 H   0  0  0  0  0  0  0  0  0  0  0  0
   -5.9806    0.8127    0.0728 C   0  0  0  0  0  0  0  0  0  0  0  0
   -4.5774    0.7655    0.0808 C   0  0  0  0  0  0  0  0  0  0  0  0
   -4.0016    1.6996    0.1716 H   0  0  0  0  0  0  0  0  0  0  0  0
   -6.7179    2.1245    0.1852 C   0  0  0  0  0  0  0  0  0  0  0  0
   -7.3807    2.1389    1.0756 H   0  0  0  0  0  0  0  0  0  0  0  0
   -7.3658    2.2994   -0.6991 H   0  0  0  0  0  0  0  0  0  0  0  0
   -6.0203    2.9801    0.2686 H   0  0  0  0  0  0  0  0  0  0  0  0
  2  1  3  0  0  0  0
  3  2  1  0  0  0  0
  3 11  1  0  0  0  0
  4  3  2  0  0  0  0
  5  4  1  0  0  0  0
  6  4  1  0  0  0  0
  6  8  2  0  0  0  0
  7  6  1  0  0  0  0
  8 10  1  0  0  0  0
  9  8  1  0  0  0  0
 10 11  2  0  0  0  0
 10 13  1  0  0  0  0
 11 12  1  0  0  0  0
 13 16  1  0  0  0  0
 13 14  1  0  0  0  0
 15 13  1  0  0  0  0
M  END
