15
q = 0.0, confidence = 0.938

 18 18  0  0  0  0  0  0  0  0999 V2000
   -6.2780   -0.2906   -0.8456 Cl  0  0  0  0  0  0  0  0  0  0  0  0
    1.8707   -0.1567    2.2068 O   0  0  0  0  0  1  0  0  0  0  0  0
   -2.5080   -1.4821   -0.0465 C   0  0  0  0  0  0  0  0  0  0  0  0
   -1.8641   -2.3271   -0.3281 H   0  0  0  0  0  0  0  0  0  0  0  0
   -2.0056   -0.4746    0.8155 C   0  0  0  0  0  0  0  0  0  0  0  0
   -2.8882    0.5836    1.1506 C   0  0  0  0  0  0  0  0  0  0  0  0
   -2.5377    1.3720    1.8356 H   0  0  0  0  0  0  0  0  0  0  0  0
   -4.1927    0.6514    0.6497 C   0  0  0  0  0  0  0  0  0  0  0  0
   -4.8621    1.4790    0.9236 H   0  0  0  0  0  0  0  0  0  0  0  0
   -3.8120   -1.4334   -0.5528 C   0  0  0  0  0  0  0  0  0  0  0  0
   -4.1860   -2.2235   -1.2192 H   0  0  0  0  0  0  0  0  0  0  0  0
   -4.6514   -0.3613   -0.2091 C   0  0  0  0  0  0  0  0  0  0  0  0
   -0.6415   -0.4751    1.3506 C   0  0  0  0  0  3  0  0  0  0  0  0
   -0.4660    0.2555    2.1601 H   0  0  0  0  0  0  0  0  0  0  0  0
    0.2109   -1.6289    1.4039 C   0  0  0  0  0  3  0  0  0  0  0  0
   -0.0770   -2.6342    1.0577 H   0  0  0  0  0  0  0  0  0  0  0  0
    1.5342   -1.3736    1.8908 C   0  0  0  0  0  3  0  0  0  0  0  0
    2.2599   -2.2135    2.0181 H   0  0  0  0  0  0  0  0  0  0  0  0
  1 12  1  0  0  0  0
  3  5  1  0  0  0  0
  4  3  1  0  0  0  0
  5  6  2  0  0  0  0
  5 13  1  0  0  0  0
  6  7  1  0  0  0  0
  8  9  1  0  0  0  0
  8  6  1  0  0  0  0
 10 12  1  0  0  0  0
 10  3  2  0  0  0  0
 11 10  1  0  0  0  0
 12  8  2  0  0  0  0
 13 15  1  0  0  0  0
 13 14  1  0  0  0  0
 15 17  1  0  0  0  0
 16 15  1  0  0  0  0
 17 18  1  0  0  0  0
 17  2  1  0  0  0  0
M  END
