3
q = 0.0, confidence = 0.998

 54 56  0  0  0  0  0  0  0  0999 V2000
   -0.5688   -0.4564   -1.6493 N   0  0  0  0  0  0  0  0  0  0  0  0
    1.3714    0.4834   -1.8853 N   0  0  0  0  0  0  0  0  0  0  0  0
    0.5688   -0.1285   -0.9583 C   0  0  0  0  0  2  0  0  0  0  0  0
   -0.4747   -0.0675   -2.9813 C   0  0  0  0  0  0  0  0  0  0  0  0
   -1.2943   -0.2280   -3.6840 H   0  0  0  0  0  0  0  0  0  0  0  0
    0.7455    0.5285   -3.1295 C   0  0  0  0  0  0  0  0  0  0  0  0
    1.2246    0.9957   -3.9939 H   0  0  0  0  0  0  0  0  0  0  0  0
   -1.6789   -1.1990   -1.1075 C   0  0  0  0  0  0  0  0  0  0  0  0
   -1.5941   -2.6099   -1.2280 C   0  0  0  0  0  0  0  0  0  0  0  0
   -0.4240   -3.2630   -1.9093 C   0  0  0  0  0  0  0  0  0  0  0  0
   -0.6040   -4.3459   -2.0423 H   0  0  0  0  0  0  0  0  0  0  0  0
    0.5043   -3.1409   -1.3076 H   0  0  0  0  0  0  0  0  0  0  0  0
   -0.2226   -2.8176   -2.9046 H   0  0  0  0  0  0  0  0  0  0  0  0
   -2.6353   -3.3883   -0.6999 C   0  0  0  0  0  0  0  0  0  0  0  0
   -2.5654   -4.4846   -0.7810 H   0  0  0  0  0  0  0  0  0  0  0  0
   -3.7569   -2.8082   -0.0867 C   0  0  0  0  0  0  0  0  0  0  0  0
   -4.8447   -3.6625    0.5112 C   0  0  0  0  0  0  0  0  0  0  0  0
   -4.5741   -3.9736    1.5430 H   0  0  0  0  0  0  0  0  0  0  0  0
   -5.0048   -4.5889   -0.0750 H   0  0  0  0  0  0  0  0  0  0  0  0
   -5.8063   -3.1172    0.5733 H   0  0  0  0  0  0  0  0  0  0  0  0
   -3.8371   -1.4075   -0.0414 C   0  0  0  0  0  0  0  0  0  0  0  0
   -4.7407   -0.9591    0.3874 H   0  0  0  0  0  0  0  0  0  0  0  0
   -2.8152   -0.5738   -0.5363 C   0  0  0  0  0  0  0  0  0  0  0  0
   -3.0303    0.9576   -0.5464 C   0  0  0  0  0  0  0  0  0  0  0  0
   -3.8084    1.4383    0.7415 C   0  0  0  0  0  0  0  0  0  0  0  0
   -3.8820    1.3304   -1.8079 C   0  0  0  0  0  0  0  0  0  0  0  0
    1.5650    3.0993   -0.6786 C   0  0  0  0  0  0  0  0  0  0  0  0
    1.0666    2.6634    0.2097 H   0  0  0  0  0  0  0  0  0  0  0  0
    0.8048    3.0918   -1.4859 H   0  0  0  0  0  0  0  0  0  0  0  0
    1.8285    4.1495   -0.4522 H   0  0  0  0  0  0  0  0  0  0  0  0
    2.6829    1.0302   -1.6464 C   0  0  0  0  0  0  0  0  0  0  0  0
    3.8126    0.3026   -2.0844 C   0  0  0  0  0  0  0  0  0  0  0  0
    3.6690   -1.0131   -2.8015 C   0  0  0  0  0  0  0  0  0  0  0  0
    3.0830   -1.7306   -2.1898 H   0  0  0  0  0  0  0  0  0  0  0  0
    4.6599   -1.4620   -3.0014 H   0  0  0  0  0  0  0  0  0  0  0  0
    3.1449   -0.8972   -3.7732 H   0  0  0  0  0  0  0  0  0  0  0  0
    5.0784    0.8604   -1.8366 C   0  0  0  0  0  0  0  0  0  0  0  0
    5.9710    0.3001   -2.1575 H   0  0  0  0  0  0  0  0  0  0  0  0
    5.2362    2.1031   -1.1955 C   0  0  0  0  0  0  0  0  0  0  0  0
    6.6099    2.6490   -0.8986 C   0  0  0  0  0  0  0  0  0  0  0  0
    7.3447    2.3527   -1.6732 H   0  0  0  0  0  0  0  0  0  0  0  0
    6.9857    2.2589    0.0718 H   0  0  0  0  0  0  0  0  0  0  0  0
    6.6054    3.7543   -0.8273 H   0  0  0  0  0  0  0  0  0  0  0  0
    4.0804    2.8149   -0.8278 C   0  0  0  0  0  0  0  0  0  0  0  0
    4.1820    3.8067   -0.3588 H   0  0  0  0  0  0  0  0  0  0  0  0
    2.7884    2.3058   -1.0502 C   0  0  0  0  0  0  0  0  0  0  0  0
   -1.8796    1.7284   -0.6565 O   0  0  0  0  0  0  0  0  0  0  0  0
   -1.2976    1.6020    0.1567 H   0  0  0  0  0  0  0  0  0  0  0  0
   -5.1285    1.1311    0.7459 F   0  0  0  0  0  0  0  0  0  0  0  0
   -3.7220    2.7761    0.8656 F   0  0  0  0  0  0  0  0  0  0  0  0
   -3.2591    0.8910    1.8508 F   0  0  0  0  0  0  0  0  0  0  0  0
   -5.0309    0.6269   -1.8700 F   0  0  0  0  0  0  0  0  0  0  0  0
   -4.1925    2.6381   -1.8213 F   0  0  0  0  0  0  0  0  0  0  0  0
   -3.1840    1.0622   -2.9343 F   0  0  0  0  0  0  0  0  0  0  0  0
  1  8  1  0  0  0  0
  1  3  1  0  0  0  0
  2 31  1  0  0  0  0
  2  3  1  0  0  0  0
  4  1  1  0  0  0  0
  5  4  1  0  0  0  0
  6  4  2  0  0  0  0
  6  2  1  0  0  0  0
  7  6  1  0  0  0  0
  8 23  1  0  0  0  0
  9  8  2  0  0  0  0
  9 14  1  0  0  0  0
 10 12  1  0  0  0  0
 10  9  1  0  0  0  0
 11 10  1  0  0  0  0
 13 10  1  0  0  0  0
 14 16  2  0  0  0  0
 15 14  1  0  0  0  0
 16 21  1  0  0  0  0
 16 17  1  0  0  0  0
 17 20  1  0  0  0  0
 17 18  1  0  0  0  0
 19 17  1  0  0  0  0
 21 22  1  0  0  0  0
 23 21  2  0  0  0  0
 24 23  1  0  0  0  0
 24 25  1  0  0  0  0
 25 49  1  0  0  0  0
 25 50  1  0  0  0  0
 25 51  1  0  0  0  0
 26 24  1  0  0  0  0
 27 30  1  0  0  0  0
 27 28  1  0  0  0  0
 29 27  1  0  0  0  0
 31 46  1  0  0  0  0
 32 37  1  0  0  0  0
 32 31  2  0  0  0  0
 33 34  1  0  0  0  0
 33 32  1  0  0  0  0
 35 33  1  0  0  0  0
 36 33  1  0  0  0  0
 37 39  2  0  0  0  0
 38 37  1  0  0  0  0
 39 40  1  0  0  0  0
 39 44  1  0  0  0  0
 40 43  1  0  0  0  0
 40 42  1  0  0  0  0
 41 40  1  0  0  0  0
 44 45  1  0  0  0  0
 46 44  2  0  0  0  0
 46 27  1  0  0  0  0
 47 24  1  0  0  0  0
 47 48  1  0  0  0  0
 52 26  1  0  0  0  0
 53 26  1  0  0  0  0
 54 26  1  0  0  0  0
M  END
