3
q = 0, confidence = 1.0

 23 22  0  0  0  0  0  0  0  0999 V2000
    2.7627   -0.4862   -0.2719 P   0  0  0  0  0  4  0  0  0  0  0  0
    1.2309   -0.7267    0.5950 C   0  0  0  0  0  3  0  0  0  0  0  0
    0.8695    0.0985    1.7358 C   0  0  0  0  0  3  0  0  0  0  0  0
   -0.4306   -0.1180    2.3154 C   0  0  0  0  0  3  0  0  0  0  0  0
   -0.9261   -1.4604    2.7989 C   0  0  0  0  0  0  0  0  0  0  0  0
    3.9982   -1.7504    0.1784 C   0  0  0  0  0  0  0  0  0  0  0  0
    2.4908   -0.6382   -2.0615 C   0  0  0  0  0  0  0  0  0  0  0  0
    3.5130    1.1274    0.0886 C   0  0  0  0  0  0  0  0  0  0  0  0
    0.9624   -1.7975    0.6009 H   0  0  0  0  0  0  0  0  0  0  0  0
    1.5094    0.9346    2.0645 H   0  0  0  0  0  0  0  0  0  0  0  0
   -0.7314    0.6995    2.9965 H   0  0  0  0  0  0  0  0  0  0  0  0
   -2.0272   -1.4762    2.9123 H   0  0  0  0  0  0  0  0  0  0  0  0
   -0.5058   -1.6767    3.8057 H   0  0  0  0  0  0  0  0  0  0  0  0
   -0.6355   -2.3020    2.1419 H   0  0  0  0  0  0  0  0  0  0  0  0
    4.9397   -1.6030   -0.3865 H   0  0  0  0  0  0  0  0  0  0  0  0
    3.5932   -2.7563   -0.0480 H   0  0  0  0  0  0  0  0  0  0  0  0
    4.2049   -1.6864    1.2645 H   0  0  0  0  0  0  0  0  0  0  0  0
    3.4390   -0.5110   -2.6190 H   0  0  0  0  0  0  0  0  0  0  0  0
    1.7466    0.1207   -2.3676 H   0  0  0  0  0  0  0  0  0  0  0  0
    2.0752   -1.6435   -2.2709 H   0  0  0  0  0  0  0  0  0  0  0  0
    4.3876    1.2833   -0.5721 H   0  0  0  0  0  0  0  0  0  0  0  0
    3.8483    1.1474    1.1433 H   0  0  0  0  0  0  0  0  0  0  0  0
    2.7742    1.9318   -0.0756 H   0  0  0  0  0  0  0  0  0  0  0  0
  1  8  1  0  0  0  0
  1  6  1  0  0  0  0
  1  2  1  0  0  0  0
  2  9  1  0  0  0  0
  2  3  1  0  0  0  0
  3 10  1  0  0  0  0
  3  4  1  0  0  0  0
  4  5  1  0  0  0  0
  4 11  1  0  0  0  0
  5 12  1  0  0  0  0
  5 13  1  0  0  0  0
  6 17  1  0  0  0  0
  7  1  1  0  0  0  0
  8 22  1  0  0  0  0
 14  5  1  0  0  0  0
 15  6  1  0  0  0  0
 16  6  1  0  0  0  0
 18  7  1  0  0  0  0
 19  7  1  0  0  0  0
 20  7  1  0  0  0  0
 21  8  1  0  0  0  0
 23  8  1  0  0  0  0
M  END
