3
q = -1.0, confidence = 0.0

 22 22  0  0  0  0  0  0  0  0999 V2000
   -0.7374    2.5177   -0.8461 C   0  0  0  0  0  0  0  0  0  0  0  0
   -1.2943    1.7949   -1.9332 C   0  0  0  0  0  0  0  0  0  0  0  0
   -0.2247    1.1127   -2.5966 C   0  0  0  0  0  3  0  0  0  0  0  0
    0.9776    1.4348   -1.9099 C   0  0  0  0  0  0  0  0  0  0  0  0
    0.6794    2.3012   -0.8089 C   0  0  0  0  0  0  0  0  0  0  0  0
    1.9346    3.2970    0.1995 Si  0  0  0  0  0  0  0  0  0  0  0  0
    3.6098    2.4152    0.2175 C   0  0  0  0  0  0  0  0  0  0  0  0
    2.1342    4.9392   -0.7280 C   0  0  0  0  0  0  0  0  0  0  0  0
    1.3081    3.6428    1.9432 C   0  0  0  0  0  0  0  0  0  0  0  0
   -1.3061    3.1289   -0.1350 H   0  0  0  0  0  0  0  0  0  0  0  0
   -2.3520    1.7771   -2.2176 H   0  0  0  0  0  0  0  0  0  0  0  0
   -0.3122    0.4814   -3.4891 H   0  0  0  0  0  0  0  0  0  0  0  0
    1.9767    1.0810   -2.1840 H   0  0  0  0  0  0  0  0  0  0  0  0
    4.3747    3.0731    0.6792 H   0  0  0  0  0  0  0  0  0  0  0  0
    3.5846    1.4713    0.7964 H   0  0  0  0  0  0  0  0  0  0  0  0
    3.9525    2.1777   -0.8108 H   0  0  0  0  0  0  0  0  0  0  0  0
    1.1673    5.4795   -0.7871 H   0  0  0  0  0  0  0  0  0  0  0  0
    2.8647    5.5988   -0.2149 H   0  0  0  0  0  0  0  0  0  0  0  0
    2.4912    4.7699   -1.7644 H   0  0  0  0  0  0  0  0  0  0  0  0
    0.3121    4.1298    1.9181 H   0  0  0  0  0  0  0  0  0  0  0  0
    2.0069    4.3240    2.4712 H   0  0  0  0  0  0  0  0  0  0  0  0
    1.2106    2.7116    2.5325 H   0  0  0  0  0  0  0  0  0  0  0  0
  1  5  1  0  0  0  0
  1 10  1  0  0  0  0
  2  1  2  0  0  0  0
  3  2  1  0  0  0  0
  3  4  1  0  0  0  0
  4  5  2  0  0  0  0
  5  6  1  0  0  0  0
  6  7  1  0  0  0  0
  6  9  1  0  0  0  0
  7 14  1  0  0  0  0
  7 15  1  0  0  0  0
  8 18  1  0  0  0  0
  8  6  1  0  0  0  0
  9 21  1  0  0  0  0
  9 22  1  0  0  0  0
 11  2  1  0  0  0  0
 12  3  1  0  0  0  0
 13  4  1  0  0  0  0
 16  7  1  0  0  0  0
 17  8  1  0  0  0  0
 19  8  1  0  0  0  0
 20  9  1  0  0  0  0
M  END
