3
q = -1.0, confidence = 0.008

 15 14  0  0  0  0  0  0  0  0999 V2000
    1.3224   -1.6383   -1.9893 C   0  0  0  0  0  3  0  0  0  0  0  0
    1.7720   -0.3049   -1.7920 C   0  0  0  0  0  3  0  0  0  0  0  0
    2.4401   -0.0502   -0.5652 C   0  0  0  0  0  3  0  0  0  0  0  0
    3.5983    0.4947   -0.1398 C   0  0  0  0  0  0  0  0  0  0  0  0
    4.7051    0.7668   -1.1354 C   0  0  0  0  0  0  0  0  0  0  0  0
    3.8974    0.8957    1.2823 C   0  0  0  0  0  0  0  0  0  0  0  0
    1.9762   -2.4719   -1.6923 H   0  0  0  0  0  0  0  0  0  0  0  0
    0.6562   -1.8497   -2.8396 H   0  0  0  0  0  0  0  0  0  0  0  0
    1.4609    0.5159   -2.4641 H   0  0  0  0  0  0  0  0  0  0  0  0
    5.6470    0.2656   -0.8211 H   0  0  0  0  0  0  0  0  0  0  0  0
    4.9361    1.8544   -1.1887 H   0  0  0  0  0  0  0  0  0  0  0  0
    4.4471    0.4131   -2.1514 H   0  0  0  0  0  0  0  0  0  0  0  0
    4.6233    0.2002    1.7566 H   0  0  0  0  0  0  0  0  0  0  0  0
    2.9936    0.9242    1.9163 H   0  0  0  0  0  0  0  0  0  0  0  0
    4.3671    1.9030    1.3018 H   0  0  0  0  0  0  0  0  0  0  0  0
  1  2  1  0  0  0  0
  1  7  1  0  0  0  0
  2  3  1  0  0  0  0
  3  4  2  0  0  0  0
  4  6  1  0  0  0  0
  5 10  1  0  0  0  0
  5  4  1  0  0  0  0
  6 15  1  0  0  0  0
  6 13  1  0  0  0  0
  6 14  1  0  0  0  0
  8  1  1  0  0  0  0
  9  2  1  0  0  0  0
 11  5  1  0  0  0  0
 12  5  1  0  0  0  0
M  END
