5
q = 0.0, confidence = 0.996

 40 43  0  0  0  0  0  0  0  0999 V2000
   -1.1690   -3.3218   -0.7370 N   0  0  0  0  0  0  0  0  0  0  0  0
    0.6726   -2.2653   -0.3168 N   0  0  0  0  0  0  0  0  0  0  0  0
    2.7716   -1.2723   -0.1179 N   0  0  0  0  0  0  0  0  0  0  0  0
    0.7459    0.0400   -0.2185 N   0  0  0  0  0  0  0  0  0  0  0  0
   -0.6928   -2.1030   -0.3755 C   0  0  0  0  0  2  0  0  0  0  0  0
   -0.1162   -4.2379   -0.8643 C   0  0  0  0  0  0  0  0  0  0  0  0
   -0.2929   -5.2813   -1.1431 H   0  0  0  0  0  0  0  0  0  0  0  0
    1.0498   -3.5755   -0.6024 C   0  0  0  0  0  0  0  0  0  0  0  0
    2.0970   -3.8881   -0.6078 H   0  0  0  0  0  0  0  0  0  0  0  0
   -2.5509   -3.6093   -1.0940 C   0  0  0  0  0  0  0  0  0  0  0  0
   -3.0655   -4.1702   -0.2895 H   0  0  0  0  0  0  0  0  0  0  0  0
   -2.5677   -4.2109   -2.0217 H   0  0  0  0  0  0  0  0  0  0  0  0
   -3.0603   -2.6503   -1.2889 H   0  0  0  0  0  0  0  0  0  0  0  0
    1.4690   -1.1183   -0.2022 C   0  0  0  0  0  0  0  0  0  0  0  0
    3.5347   -0.1510   -0.0599 C   0  0  0  0  0  0  0  0  0  0  0  0
    2.8966    1.1022   -0.1643 C   0  0  0  0  0  0  0  0  0  0  0  0
    3.4778    2.0285   -0.2311 H   0  0  0  0  0  0  0  0  0  0  0  0
    1.4965    1.1898   -0.2607 C   0  0  0  0  0  0  0  0  0  0  0  0
    4.9919   -0.3172    0.0811 C   0  0  0  0  0  0  0  0  0  0  0  0
    5.5482   -1.6187    0.0796 C   0  0  0  0  0  0  0  0  0  0  0  0
    4.8738   -2.4784   -0.0316 H   0  0  0  0  0  0  0  0  0  0  0  0
    6.9276   -1.8027    0.2140 C   0  0  0  0  0  0  0  0  0  0  0  0
    7.3475   -2.8194    0.2086 H   0  0  0  0  0  0  0  0  0  0  0  0
    7.7764   -0.6916    0.3535 C   0  0  0  0  0  0  0  0  0  0  0  0
    8.8621   -0.8363    0.4585 H   0  0  0  0  0  0  0  0  0  0  0  0
    7.2370    0.6060    0.3598 C   0  0  0  0  0  0  0  0  0  0  0  0
    7.8982    1.4777    0.4720 H   0  0  0  0  0  0  0  0  0  0  0  0
    5.8576    0.7936    0.2251 C   0  0  0  0  0  0  0  0  0  0  0  0
    5.4585    1.8177    0.2408 H   0  0  0  0  0  0  0  0  0  0  0  0
    0.8783    2.5168   -0.4653 C   0  0  0  0  0  0  0  0  0  0  0  0
    1.3984    3.6406    0.2209 C   0  0  0  0  0  0  0  0  0  0  0  0
    2.1881    3.5051    0.9755 H   0  0  0  0  0  0  0  0  0  0  0  0
    0.8882    4.9209   -0.0228 C   0  0  0  0  0  0  0  0  0  0  0  0
    1.2887    5.7837    0.5297 H   0  0  0  0  0  0  0  0  0  0  0  0
   -0.1324    5.1007   -0.9722 C   0  0  0  0  0  0  0  0  0  0  0  0
   -0.5245    6.1087   -1.1745 H   0  0  0  0  0  0  0  0  0  0  0  0
   -0.6402    3.9922   -1.6692 C   0  0  0  0  0  0  0  0  0  0  0  0
   -1.4229    4.1293   -2.4304 H   0  0  0  0  0  0  0  0  0  0  0  0
   -0.1480    2.7038   -1.4172 C   0  0  0  0  0  0  0  0  0  0  0  0
   -0.5439    1.8445   -1.9807 H   0  0  0  0  0  0  0  0  0  0  0  0
  1  5  1  0  0  0  0
  2 14  1  0  0  0  0
  3 15  1  0  0  0  0
  4 14  1  0  0  0  0
  5  2  1  0  0  0  0
  6  1  1  0  0  0  0
  6  8  2  0  0  0  0
  7  6  1  0  0  0  0
  8  2  1  0  0  0  0
  9  8  1  0  0  0  0
 10  1  1  0  0  0  0
 10 11  1  0  0  0  0
 12 10  1  0  0  0  0
 13 10  1  0  0  0  0
 14  3  2  0  0  0  0
 15 19  1  0  0  0  0
 16 15  2  0  0  0  0
 17 16  1  0  0  0  0
 18  4  2  0  0  0  0
 18 16  1  0  0  0  0
 19 28  1  0  0  0  0
 20 19  2  0  0  0  0
 20 22  1  0  0  0  0
 21 20  1  0  0  0  0
 22 24  2  0  0  0  0
 23 22  1  0  0  0  0
 24 26  1  0  0  0  0
 24 25  1  0  0  0  0
 26 27  1  0  0  0  0
 28 29  1  0  0  0  0
 28 26  2  0  0  0  0
 30 18  1  0  0  0  0
 30 31  1  0  0  0  0
 31 32  1  0  0  0  0
 33 31  2  0  0  0  0
 33 34  1  0  0  0  0
 35 33  1  0  0  0  0
 36 35  1  0  0  0  0
 37 39  1  0  0  0  0
 37 35  2  0  0  0  0
 38 37  1  0  0  0  0
 39 30  2  0  0  0  0
 40 39  1  0  0  0  0
M  END
