19
q = -1.0

 43 45  0  0  0  0  0  0  0  0999 V2000
   -1.6749   -0.8956    1.5323 Si  0  0  0  0  0  0  0  0  0  0  0  0
   -2.7606    0.1447    0.5545 N   0  0  0  0  0  0  0  0  0  0  0  0
   -0.4981   -1.6236    0.3977 N   0  0  0  0  0  0  0  0  0  0  0  0
   -0.7182    0.1297    2.7755 C   0  0  0  0  0  0  0  0  0  0  0  0
   -2.6583   -2.2622    2.3564 C   0  0  0  0  0  0  0  0  0  0  0  0
   -2.5354    1.5419    0.3842 C   0  0  0  0  0  0  0  0  0  0  0  0
   -2.3362    2.0683   -0.9154 C   0  0  0  0  0  0  0  0  0  0  0  0
   -2.0823    3.4324   -1.1026 C   0  0  0  0  0  0  0  0  0  0  0  0
   -2.0110    4.3013    0.0006 C   0  0  0  0  0  0  0  0  0  0  0  0
   -2.2211    3.7900    1.2900 C   0  0  0  0  0  0  0  0  0  0  0  0
   -2.4959    2.4268    1.4815 C   0  0  0  0  0  0  0  0  0  0  0  0
   -3.7539   -0.4437   -0.2798 C   0  0  0  0  0  0  0  0  0  0  0  0
   -4.9918    0.2166   -0.4671 C   0  0  0  0  0  0  0  0  0  0  0  0
   -5.9935   -0.3585   -1.2571 C   0  0  0  0  0  0  0  0  0  0  0  0
   -5.7931   -1.6083   -1.8686 C   0  0  0  0  0  0  0  0  0  0  0  0
   -4.5673   -2.2662   -1.6906 C   0  0  0  0  0  0  0  0  0  0  0  0
   -3.5490   -1.6888   -0.9165 C   0  0  0  0  0  0  0  0  0  0  0  0
    0.2016   -0.7137   -0.4660 C   0  0  0  0  0  3  0  0  0  0  0  0
    1.0349   -1.2510   -1.5009 C   0  0  0  0  0  3  0  0  0  0  0  0
    1.8204   -2.3636   -1.0658 C   0  0  0  0  0  3  0  0  0  0  0  0
    1.1305   -3.3084   -0.1693 C   0  0  0  0  0  0  0  0  0  0  0  0
   -0.0084   -2.9246    0.4819 C   0  0  0  0  0  0  0  0  0  0  0  0
    0.0548   -0.5342    3.2133 H   0  0  0  0  0  0  0  0  0  0  0  0
   -0.1937    0.9721    2.2856 H   0  0  0  0  0  0  0  0  0  0  0  0
   -1.3533    0.5249    3.5921 H   0  0  0  0  0  0  0  0  0  0  0  0
   -2.0045   -2.8677    3.0160 H   0  0  0  0  0  0  0  0  0  0  0  0
   -3.1528   -2.9345    1.6299 H   0  0  0  0  0  0  0  0  0  0  0  0
   -3.4459   -1.8035    2.9878 H   0  0  0  0  0  0  0  0  0  0  0  0
   -2.3866    1.3864   -1.7775 H   0  0  0  0  0  0  0  0  0  0  0  0
   -1.9266    3.8197   -2.1214 H   0  0  0  0  0  0  0  0  0  0  0  0
   -1.8024    5.3713   -0.1466 H   0  0  0  0  0  0  0  0  0  0  0  0
   -2.1893    4.4618    2.1614 H   0  0  0  0  0  0  0  0  0  0  0  0
   -2.6987    2.0392    2.4886 H   0  0  0  0  0  0  0  0  0  0  0  0
   -5.1580    1.1878    0.0217 H   0  0  0  0  0  0  0  0  0  0  0  0
   -6.9495    0.1719   -1.3869 H   0  0  0  0  0  0  0  0  0  0  0  0
   -6.5850   -2.0606   -2.4840 H   0  0  0  0  0  0  0  0  0  0  0  0
   -4.3860   -3.2371   -2.1770 H   0  0  0  0  0  0  0  0  0  0  0  0
   -2.5749   -2.1894   -0.8230 H   0  0  0  0  0  0  0  0  0  0  0  0
   -0.3735    0.2033   -0.6699 H   0  0  0  0  0  0  0  0  0  0  0  0
    1.1022   -0.8062   -2.5026 H   0  0  0  0  0  0  0  0  0  0  0  0
    2.5920   -2.7685   -1.7394 H   0  0  0  0  0  0  0  0  0  0  0  0
    1.5110   -4.3308   -0.0399 H   0  0  0  0  0  0  0  0  0  0  0  0
   -0.5707   -3.6117    1.1300 H   0  0  0  0  0  0  0  0  0  0  0  0
  1  5  1  0  0  0  0
  1  4  1  0  0  0  0
  2  1  1  0  0  0  0
  3 22  1  0  0  0  0
  3  1  1  0  0  0  0
  4 23  1  0  0  0  0
  4 25  1  0  0  0  0
  5 28  1  0  0  0  0
  5 26  1  0  0  0  0
  6  2  1  0  0  0  0
  6 11  1  0  0  0  0
  7  6  2  0  0  0  0
  8  7  1  0  0  0  0
  8  9  2  0  0  0  0
  9 10  1  0  0  0  0
 10 11  2  0  0  0  0
 10 32  1  0  0  0  0
 11 33  1  0  0  0  0
 12  2  1  0  0  0  0
 13 12  1  0  0  0  0
 13 34  1  0  0  0  0
 14 13  2  0  0  0  0
 15 16  2  0  0  0  0
 15 14  1  0  0  0  0
 16 17  1  0  0  0  0
 17 38  1  0  0  0  0
 17 12  2  0  0  0  0
 18  3  1  0  0  0  0
 19 20  1  0  0  0  0
 19 18  1  0  0  0  0
 20 21  1  0  0  0  0
 21 42  1  0  0  0  0
 21 22  2  0  0  0  0
 22 43  1  0  0  0  0
 24  4  1  0  0  0  0
 27  5  1  0  0  0  0
 29  7  1  0  0  0  0
 30  8  1  0  0  0  0
 31  9  1  0  0  0  0
 35 14  1  0  0  0  0
 36 15  1  0  0  0  0
 37 16  1  0  0  0  0
 39 18  1  0  0  0  0
 40 19  1  0  0  0  0
 41 20  1  0  0  0  0
M  END
