3
q = -1.0, confidence = 0.064

 48 51  0  0  0  0  0  0  0  0999 V2000
   -1.6051   -0.1274    0.0392 P   0  0  0  0  0  4  0  0  0  0  0  0
   -0.0561    0.2255    0.2625 N   0  0  0  0  0  2  0  0  0  0  0  0
    2.0155    1.4256    0.0906 C   0  0  0  0  0  3  0  0  0  0  0  0
    0.5888    1.4493    0.1686 C   0  0  0  0  0  0  0  0  0  0  0  0
   -0.0252    2.7284    0.1716 C   0  0  0  0  0  0  0  0  0  0  0  0
   -1.1197    2.8027    0.2557 H   0  0  0  0  0  0  0  0  0  0  0  0
    0.7400    3.9011    0.0932 C   0  0  0  0  0  0  0  0  0  0  0  0
    0.2242    4.8752    0.0986 H   0  0  0  0  0  0  0  0  0  0  0  0
    2.1442    3.8707    0.0124 C   0  0  0  0  0  0  0  0  0  0  0  0
    2.7678    2.6001    0.0162 C   0  0  0  0  0  0  0  0  0  0  0  0
    3.8670    2.5467   -0.0435 H   0  0  0  0  0  0  0  0  0  0  0  0
    2.9653    5.1326   -0.0846 C   0  0  0  0  0  0  0  0  0  0  0  0
    3.7502    5.1725    0.6996 H   0  0  0  0  0  0  0  0  0  0  0  0
    2.3344    6.0365    0.0246 H   0  0  0  0  0  0  0  0  0  0  0  0
    3.4876    5.2070   -1.0626 H   0  0  0  0  0  0  0  0  0  0  0  0
   -2.2977    0.3204   -1.5984 C   0  0  0  0  0  0  0  0  0  0  0  0
   -2.8504    1.5966   -1.8387 C   0  0  0  0  0  0  0  0  0  0  0  0
   -2.9973    2.3017   -1.0072 H   0  0  0  0  0  0  0  0  0  0  0  0
   -3.2259    1.9673   -3.1384 C   0  0  0  0  0  0  0  0  0  0  0  0
   -3.6573    2.9637   -3.3179 H   0  0  0  0  0  0  0  0  0  0  0  0
   -3.0508    1.0722   -4.2054 C   0  0  0  0  0  0  0  0  0  0  0  0
   -3.3471    1.3653   -5.2239 H   0  0  0  0  0  0  0  0  0  0  0  0
   -2.4954   -0.1969   -3.9726 C   0  0  0  0  0  0  0  0  0  0  0  0
   -2.3566   -0.9008   -4.8071 H   0  0  0  0  0  0  0  0  0  0  0  0
   -2.1156   -0.5718   -2.6767 C   0  0  0  0  0  0  0  0  0  0  0  0
   -1.6761   -1.5647   -2.4956 H   0  0  0  0  0  0  0  0  0  0  0  0
   -2.7565    0.5779    1.2862 C   0  0  0  0  0  0  0  0  0  0  0  0
   -4.1454    0.7048    1.0803 C   0  0  0  0  0  0  0  0  0  0  0  0
   -4.5911    0.4207    0.1147 H   0  0  0  0  0  0  0  0  0  0  0  0
   -4.9604    1.2106    2.1045 C   0  0  0  0  0  0  0  0  0  0  0  0
   -6.0444    1.3100    1.9422 H   0  0  0  0  0  0  0  0  0  0  0  0
   -4.3936    1.5941    3.3310 C   0  0  0  0  0  0  0  0  0  0  0  0
   -5.0351    1.9941    4.1309 H   0  0  0  0  0  0  0  0  0  0  0  0
   -3.0095    1.4725    3.5359 C   0  0  0  0  0  0  0  0  0  0  0  0
   -2.5640    1.7781    4.4946 H   0  0  0  0  0  0  0  0  0  0  0  0
   -2.1904    0.9644    2.5176 C   0  0  0  0  0  0  0  0  0  0  0  0
   -1.1028    0.8663    2.6596 H   0  0  0  0  0  0  0  0  0  0  0  0
   -1.7293   -1.9406    0.1700 C   0  0  0  0  0  0  0  0  0  0  0  0
   -2.9893   -2.5730    0.1617 C   0  0  0  0  0  0  0  0  0  0  0  0
   -3.9124   -1.9765    0.1042 H   0  0  0  0  0  0  0  0  0  0  0  0
   -3.0671   -3.9712    0.2309 C   0  0  0  0  0  0  0  0  0  0  0  0
   -4.0513   -4.4637    0.2257 H   0  0  0  0  0  0  0  0  0  0  0  0
   -1.8934   -4.7409    0.3094 C   0  0  0  0  0  0  0  0  0  0  0  0
   -1.9598   -5.8383    0.3634 H   0  0  0  0  0  0  0  0  0  0  0  0
   -0.6397   -4.1099    0.3207 C   0  0  0  0  0  0  0  0  0  0  0  0
    0.2910   -4.6941    0.3804 H   0  0  0  0  0  0  0  0  0  0  0  0
   -0.5558   -2.7119    0.2522 C   0  0  0  0  0  0  0  0  0  0  0  0
    0.4234   -2.2156    0.2617 H   0  0  0  0  0  0  0  0  0  0  0  0
  1 38  1  0  0  0  0
  1  2  1  0  0  0  0
  1 27  1  0  0  0  0
  3  4  1  0  0  0  0
  4  5  2  0  0  0  0
  4  2  1  0  0  0  0
  5  6  1  0  0  0  0
  7  8  1  0  0  0  0
  7  5  1  0  0  0  0
  9 10  1  0  0  0  0
  9  7  2  0  0  0  0
 10  3  2  0  0  0  0
 11 10  1  0  0  0  0
 12  9  1  0  0  0  0
 12 14  1  0  0  0  0
 12 13  1  0  0  0  0
 15 12  1  0  0  0  0
 16  1  1  0  0  0  0
 17 16  1  0  0  0  0
 17 18  1  0  0  0  0
 19 17  2  0  0  0  0
 20 19  1  0  0  0  0
 21 23  2  0  0  0  0
 21 19  1  0  0  0  0
 22 21  1  0  0  0  0
 23 25  1  0  0  0  0
 24 23  1  0  0  0  0
 25 26  1  0  0  0  0
 25 16  2  0  0  0  0
 27 36  1  0  0  0  0
 28 27  2  0  0  0  0
 28 30  1  0  0  0  0
 29 28  1  0  0  0  0
 30 32  2  0  0  0  0
 31 30  1  0  0  0  0
 32 34  1  0  0  0  0
 32 33  1  0  0  0  0
 34 35  1  0  0  0  0
 36 37  1  0  0  0  0
 36 34  2  0  0  0  0
 38 47  1  0  0  0  0
 39 38  2  0  0  0  0
 39 41  1  0  0  0  0
 40 39  1  0  0  0  0
 41 43  2  0  0  0  0
 42 41  1  0  0  0  0
 43 45  1  0  0  0  0
 43 44  1  0  0  0  0
 45 46  1  0  0  0  0
 47 48  1  0  0  0  0
 47 45  2  0  0  0  0
M  END
