4
q = -1.0

 49 54  0  0  1  0  0  0  0  0999 V2000
    1.0654   -2.5121   -1.2491 O   0  0  0  0  0  0  0  0  0  0  0  0
    0.4518   -1.3291   -0.9579 C   0  0  0  0  0  0  0  0  0  0  0  0
   -0.9072   -0.9033   -0.8091 C   0  0  1  0  0  3  0  0  0  0  0  0
   -0.8053    0.5610   -0.6552 C   0  0  1  0  0  3  0  0  0  0  0  0
    0.5927    0.9732   -0.6895 C   0  0  1  0  0  3  0  0  0  0  0  0
    1.3729   -0.2387   -0.8662 C   0  0  0  0  0  0  0  0  0  0  0  0
   -2.1211   -1.7364   -0.9206 C   0  0  0  0  0  0  0  0  0  0  0  0
   -2.1034   -2.8781   -1.7531 C   0  0  0  0  0  0  0  0  0  0  0  0
   -1.1824   -3.1394   -2.2940 H   0  0  0  0  0  0  0  0  0  0  0  0
   -3.2467   -3.6779   -1.8913 C   0  0  0  0  0  0  0  0  0  0  0  0
   -3.2138   -4.5639   -2.5435 H   0  0  0  0  0  0  0  0  0  0  0  0
   -4.4255   -3.3515   -1.2043 C   0  0  0  0  0  0  0  0  0  0  0  0
   -5.3224   -3.9799   -1.3124 H   0  0  0  0  0  0  0  0  0  0  0  0
   -4.4495   -2.2229   -0.3677 C   0  0  0  0  0  0  0  0  0  0  0  0
   -5.3639   -1.9669    0.1884 H   0  0  0  0  0  0  0  0  0  0  0  0
   -3.3097   -1.4236   -0.2221 C   0  0  0  0  0  0  0  0  0  0  0  0
   -3.3337   -0.5592    0.4554 H   0  0  0  0  0  0  0  0  0  0  0  0
   -1.9586    1.4963   -0.6505 C   0  0  0  0  0  0  0  0  0  0  0  0
   -2.8920    1.4420   -1.7083 C   0  0  0  0  0  0  0  0  0  0  0  0
   -2.7741    0.6809   -2.4937 H   0  0  0  0  0  0  0  0  0  0  0  0
   -3.9600    2.3488   -1.7606 C   0  0  0  0  0  0  0  0  0  0  0  0
   -4.6822    2.2922   -2.5891 H   0  0  0  0  0  0  0  0  0  0  0  0
   -4.1076    3.3239   -0.7615 C   0  0  0  0  0  0  0  0  0  0  0  0
   -4.9478    4.0336   -0.8016 H   0  0  0  0  0  0  0  0  0  0  0  0
   -3.1812    3.3865    0.2922 C   0  0  0  0  0  0  0  0  0  0  0  0
   -3.2921    4.1448    1.0817 H   0  0  0  0  0  0  0  0  0  0  0  0
   -2.1164    2.4780    0.3498 C   0  0  0  0  0  0  0  0  0  0  0  0
   -1.3926    2.5197    1.1774 H   0  0  0  0  0  0  0  0  0  0  0  0
    1.1304    2.3517   -0.7557 C   0  0  0  0  0  0  0  0  0  0  0  0
    0.4843    3.3406   -1.5297 C   0  0  0  0  0  0  0  0  0  0  0  0
   -0.4450    3.0942   -2.0613 H   0  0  0  0  0  0  0  0  0  0  0  0
    1.0272    4.6289   -1.6358 C   0  0  0  0  0  0  0  0  0  0  0  0
    0.5096    5.3861   -2.2440 H   0  0  0  0  0  0  0  0  0  0  0  0
    2.2241    4.9515   -0.9782 C   0  0  0  0  0  0  0  0  0  0  0  0
    2.6465    5.9643   -1.0607 H   0  0  0  0  0  0  0  0  0  0  0  0
    2.8801    3.9723   -0.2146 C   0  0  0  0  0  0  0  0  0  0  0  0
    3.8168    4.2147    0.3097 H   0  0  0  0  0  0  0  0  0  0  0  0
    2.3392    2.6848   -0.1048 C   0  0  0  0  0  0  0  0  0  0  0  0
    2.8465    1.9317    0.5151 H   0  0  0  0  0  0  0  0  0  0  0  0
    2.6782   -0.8178   -1.1526 C   0  0  0  0  0  0  0  0  0  0  0  0
    2.4182   -2.2027   -1.3650 C   0  0  0  0  0  0  0  0  0  0  0  0
    3.4154   -3.1308   -1.6527 C   0  0  0  0  0  0  0  0  0  0  0  0
    3.1748   -4.1929   -1.7972 H   0  0  0  0  0  0  0  0  0  0  0  0
    4.7287   -2.6381   -1.7524 C   0  0  0  0  0  0  0  0  0  0  0  0
    5.5468   -3.3368   -1.9820 H   0  0  0  0  0  0  0  0  0  0  0  0
    5.0133   -1.2701   -1.5664 C   0  0  0  0  0  0  0  0  0  0  0  0
    6.0516   -0.9183   -1.6568 H   0  0  0  0  0  0  0  0  0  0  0  0
    3.9982   -0.3488   -1.2643 C   0  0  0  0  0  0  0  0  0  0  0  0
    4.2257    0.7162   -1.1188 H   0  0  0  0  0  0  0  0  0  0  0  0
  1  2  1  0  0  0  0
  2  6  2  0  0  0  0
  2  3  1  0  0  0  0
  3  7  1  6  0  0  0
  3  4  1  0  0  0  0
  4 18  1  6  0  0  0
  5 29  1  6  0  0  0
  5  4  1  0  0  0  0
  6  5  1  0  0  0  0
  7 16  1  0  0  0  0
  8  7  2  0  0  0  0
  9  8  1  0  0  0  0
 10  8  1  0  0  0  0
 10 12  2  0  0  0  0
 11 10  1  0  0  0  0
 12 14  1  0  0  0  0
 13 12  1  0  0  0  0
 14 16  2  0  0  0  0
 14 15  1  0  0  0  0
 16 17  1  0  0  0  0
 18 27  1  0  0  0  0
 19 18  2  0  0  0  0
 20 19  1  0  0  0  0
 21 19  1  0  0  0  0
 21 23  2  0  0  0  0
 22 21  1  0  0  0  0
 23 25  1  0  0  0  0
 24 23  1  0  0  0  0
 25 27  2  0  0  0  0
 25 26  1  0  0  0  0
 27 28  1  0  0  0  0
 29 38  1  0  0  0  0
 30 29  2  0  0  0  0
 31 30  1  0  0  0  0
 32 30  1  0  0  0  0
 32 34  2  0  0  0  0
 33 32  1  0  0  0  0
 34 36  1  0  0  0  0
 35 34  1  0  0  0  0
 36 38  2  0  0  0  0
 36 37  1  0  0  0  0
 38 39  1  0  0  0  0
 40  6  1  0  0  0  0
 41  1  1  0  0  0  0
 41 40  2  0  0  0  0
 42 41  1  0  0  0  0
 43 42  1  0  0  0  0
 44 42  2  0  0  0  0
 44 46  1  0  0  0  0
 45 44  1  0  0  0  0
 46 48  2  0  0  0  0
 47 46  1  0  0  0  0
 48 40  1  0  0  0  0
 48 49  1  0  0  0  0
M  END
