1
q = -1.0

 20 20  0  0  0  0  0  0  0  0999 V2000
   -0.3504   -0.7738   -0.5612 C   0  0  0  0  0  3  0  0  0  0  0  0
   -1.6102   -0.6743   -0.5044 C   0  0  0  0  0  0  0  0  0  0  0  0
   -2.9465   -0.5506   -0.4303 C   0  0  0  0  0  0  0  0  0  0  0  0
   -4.1940   -0.4330   -0.3489 C   0  0  0  0  0  0  0  0  0  0  0  0
   -5.5331   -0.3071   -0.2634 C   0  0  0  0  0  0  0  0  0  0  0  0
   -6.7711   -0.1895   -0.1837 C   0  0  0  0  0  0  0  0  0  0  0  0
   -8.1781   -0.0539   -0.0963 C   0  0  0  0  0  0  0  0  0  0  0  0
   -8.9042   -0.5981    0.9974 C   0  0  0  0  0  0  0  0  0  0  0  0
   -8.3567   -1.1334    1.7865 H   0  0  0  0  0  0  0  0  0  0  0  0
  -10.2933   -0.4572    1.0733 C   0  0  0  0  0  0  0  0  0  0  0  0
  -10.8315   -0.8885    1.9326 H   0  0  0  0  0  0  0  0  0  0  0  0
  -11.0226    0.2230    0.0766 C   0  0  0  0  0  0  0  0  0  0  0  0
  -10.2998    0.7636   -1.0102 C   0  0  0  0  0  0  0  0  0  0  0  0
  -10.8430    1.3013   -1.8043 H   0  0  0  0  0  0  0  0  0  0  0  0
   -8.9133    0.6339   -1.1027 C   0  0  0  0  0  0  0  0  0  0  0  0
   -8.3704    1.0630   -1.9572 H   0  0  0  0  0  0  0  0  0  0  0  0
  -12.5205    0.3703    0.1560 C   0  0  0  0  0  0  0  0  0  0  0  0
  -12.9264   -0.0749    1.0850 H   0  0  0  0  0  0  0  0  0  0  0  0
  -13.0220   -0.1247   -0.7027 H   0  0  0  0  0  0  0  0  0  0  0  0
  -12.8252    1.4377    0.1297 H   0  0  0  0  0  0  0  0  0  0  0  0
  1  2  3  0  0  0  0
  2  3  1  0  0  0  0
  3  4  3  0  0  0  0
  4  5  1  0  0  0  0
  5  6  3  0  0  0  0
  6  7  1  0  0  0  0
  7  8  1  0  0  0  0
  8 10  2  0  0  0  0
  8  9  1  0  0  0  0
 10 11  1  0  0  0  0
 12 17  1  0  0  0  0
 12 10  1  0  0  0  0
 13 12  2  0  0  0  0
 14 13  1  0  0  0  0
 15 13  1  0  0  0  0
 15  7  2  0  0  0  0
 16 15  1  0  0  0  0
 17 18  1  0  0  0  0
 19 17  1  0  0  0  0
 20 17  1  0  0  0  0
M  END
