5
q = 0.0, confidence = 0.998

 47 49  0  0  0  0  0  0  0  0999 V2000
    1.9207   -3.8811    0.1577 O   0  0  0  0  0  0  0  0  0  0  0  0
   -1.1161   -4.1218    0.1727 O   0  0  0  0  0  0  0  0  0  0  0  0
    1.3346   -1.6124   -0.0388 N   0  0  0  0  0  0  0  0  0  0  0  0
   -0.8877   -1.7931   -0.0380 N   0  0  0  0  0  0  0  0  0  0  0  0
    0.1605   -0.8813   -0.1176 C   0  0  0  0  0  2  0  0  0  0  0  0
    1.0965   -2.9995    0.0634 C   0  0  0  0  0  0  0  0  0  0  0  0
   -0.4412   -3.1210    0.0679 C   0  0  0  0  0  0  0  0  0  0  0  0
    2.6470   -1.0339    0.0775 C   0  0  0  0  0  0  0  0  0  0  0  0
    3.4034   -0.7683   -1.0841 C   0  0  0  0  0  0  0  0  0  0  0  0
    4.6579   -0.1552   -0.9105 C   0  0  0  0  0  0  0  0  0  0  0  0
    5.2588    0.0694   -1.8061 H   0  0  0  0  0  0  0  0  0  0  0  0
    5.1703    0.1617    0.3608 C   0  0  0  0  0  0  0  0  0  0  0  0
    4.4123   -0.1921    1.4929 C   0  0  0  0  0  0  0  0  0  0  0  0
    4.8165    0.0036    2.4990 H   0  0  0  0  0  0  0  0  0  0  0  0
    3.1532   -0.8055    1.3771 C   0  0  0  0  0  0  0  0  0  0  0  0
    2.9057   -1.1634   -2.4452 C   0  0  0  0  0  0  0  0  0  0  0  0
    2.6861   -2.2509   -2.4810 H   0  0  0  0  0  0  0  0  0  0  0  0
    3.6628   -0.9429   -3.2208 H   0  0  0  0  0  0  0  0  0  0  0  0
    1.9676   -0.6279   -2.7079 H   0  0  0  0  0  0  0  0  0  0  0  0
    6.4965    0.8642    0.5063 C   0  0  0  0  0  0  0  0  0  0  0  0
    7.1945    0.5916   -0.3097 H   0  0  0  0  0  0  0  0  0  0  0  0
    6.9823    0.6273    1.4731 H   0  0  0  0  0  0  0  0  0  0  0  0
    6.3654    1.9672    0.4667 H   0  0  0  0  0  0  0  0  0  0  0  0
    2.3920   -1.2518    2.6004 C   0  0  0  0  0  0  0  0  0  0  0  0
    2.8681   -0.8751    3.5249 H   0  0  0  0  0  0  0  0  0  0  0  0
    2.3631   -2.3602    2.6612 H   0  0  0  0  0  0  0  0  0  0  0  0
    1.3389   -0.9023    2.5958 H   0  0  0  0  0  0  0  0  0  0  0  0
   -2.2646   -1.3907    0.0949 C   0  0  0  0  0  0  0  0  0  0  0  0
   -3.0719   -1.2582   -1.0573 C   0  0  0  0  0  0  0  0  0  0  0  0
   -4.3705   -0.7476   -0.8801 C   0  0  0  0  0  0  0  0  0  0  0  0
   -5.0081   -0.6193   -1.7693 H   0  0  0  0  0  0  0  0  0  0  0  0
   -4.8796   -0.4127    0.3885 C   0  0  0  0  0  0  0  0  0  0  0  0
   -4.0777   -0.6691    1.5163 C   0  0  0  0  0  0  0  0  0  0  0  0
   -4.4830   -0.4802    2.5234 H   0  0  0  0  0  0  0  0  0  0  0  0
   -2.7738   -1.1801    1.3966 C   0  0  0  0  0  0  0  0  0  0  0  0
   -2.5772   -1.6896   -2.4081 C   0  0  0  0  0  0  0  0  0  0  0  0
   -3.3754   -1.5944   -3.1679 H   0  0  0  0  0  0  0  0  0  0  0  0
   -2.2515   -2.7502   -2.3825 H   0  0  0  0  0  0  0  0  0  0  0  0
   -1.7091   -1.0775   -2.7351 H   0  0  0  0  0  0  0  0  0  0  0  0
   -6.2496    0.1996    0.5352 C   0  0  0  0  0  0  0  0  0  0  0  0
   -6.9398   -0.1474   -0.2587 H   0  0  0  0  0  0  0  0  0  0  0  0
   -6.1960    1.3072    0.4574 H   0  0  0  0  0  0  0  0  0  0  0  0
   -6.7023   -0.0369    1.5181 H   0  0  0  0  0  0  0  0  0  0  0  0
   -1.9920   -1.5743    2.6239 C   0  0  0  0  0  0  0  0  0  0  0  0
   -0.9038   -1.4016    2.5163 H   0  0  0  0  0  0  0  0  0  0  0  0
   -2.1184   -2.6603    2.8208 H   0  0  0  0  0  0  0  0  0  0  0  0
   -2.3416   -1.0274    3.5200 H   0  0  0  0  0  0  0  0  0  0  0  0
  3  6  1  0  0  0  0
  3  8  1  0  0  0  0
  4  7  1  0  0  0  0
  4 28  1  0  0  0  0
  5  3  1  0  0  0  0
  5  4  1  0  0  0  0
  6  7  1  0  0  0  0
  6  1  2  0  0  0  0
  7  2  2  0  0  0  0
  8 15  1  0  0  0  0
  9 10  1  0  0  0  0
  9  8  2  0  0  0  0
 10 12  2  0  0  0  0
 11 10  1  0  0  0  0
 12 20  1  0  0  0  0
 12 13  1  0  0  0  0
 13 14  1  0  0  0  0
 15 13  2  0  0  0  0
 15 24  1  0  0  0  0
 16  9  1  0  0  0  0
 17 16  1  0  0  0  0
 18 16  1  0  0  0  0
 19 16  1  0  0  0  0
 20 22  1  0  0  0  0
 21 20  1  0  0  0  0
 23 20  1  0  0  0  0
 24 26  1  0  0  0  0
 24 25  1  0  0  0  0
 27 24  1  0  0  0  0
 28 35  1  0  0  0  0
 29 30  1  0  0  0  0
 29 28  2  0  0  0  0
 30 32  2  0  0  0  0
 31 30  1  0  0  0  0
 32 40  1  0  0  0  0
 32 33  1  0  0  0  0
 33 34  1  0  0  0  0
 35 33  2  0  0  0  0
 35 44  1  0  0  0  0
 36 38  1  0  0  0  0
 36 29  1  0  0  0  0
 37 36  1  0  0  0  0
 39 36  1  0  0  0  0
 40 43  1  0  0  0  0
 41 40  1  0  0  0  0
 42 40  1  0  0  0  0
 44 46  1  0  0  0  0
 44 47  1  0  0  0  0
 45 44  1  0  0  0  0
M  END
