1
q = -1.0

  8  8  0  0  0  0  0  0  0  0999 V2000
   -1.0678    2.5180   -0.9738 C   0  0  0  0  0  3  0  0  0  0  0  0
   -2.5615    2.7494   -0.7892 C   0  0  0  0  0  0  0  0  0  0  0  0
   -1.5605    3.7738   -0.2994 C   0  0  0  0  0  0  0  0  0  0  0  0
   -0.7191    2.6722   -2.0145 H   0  0  0  0  0  0  0  0  0  0  0  0
   -3.1843    3.0083   -1.6643 H   0  0  0  0  0  0  0  0  0  0  0  0
   -3.1031    2.1564   -0.0323 H   0  0  0  0  0  0  0  0  0  0  0  0
   -1.4127    3.8728    0.7879 H   0  0  0  0  0  0  0  0  0  0  0  0
   -1.4968    4.7339   -0.8395 H   0  0  0  0  0  0  0  0  0  0  0  0
  1  2  1  0  0  0  0
  1  3  1  0  0  0  0
  2  3  1  0  0  0  0
  2  6  1  0  0  0  0
  3  7  1  0  0  0  0
  4  1  1  0  0  0  0
  5  2  1  0  0  0  0
  8  3  1  0  0  0  0
M  END
