2
q = -1.0, confidence = 0.01

 23 24  0  0  0  0  0  0  0  0999 V2000
   -1.9663    1.5113    0.1148 C   0  0  0  0  0  0  0  0  0  0  0  0
   -1.2543    1.1891    1.3186 C   0  0  0  0  0  3  0  0  0  0  0  0
   -1.6605    0.6241    2.1646 H   0  0  0  0  0  0  0  0  0  0  0  0
    0.0064    1.8865    1.2978 C   0  0  0  0  0  0  0  0  0  0  0  0
    1.0691    1.9989    2.2432 C   0  0  0  0  0  0  0  0  0  0  0  0
    0.9993    1.4975    3.2202 H   0  0  0  0  0  0  0  0  0  0  0  0
    2.1642    2.7910    1.9279 C   0  0  0  0  0  0  0  0  0  0  0  0
    2.9810    2.9031    2.6570 H   0  0  0  0  0  0  0  0  0  0  0  0
    2.2499    3.4770    0.6795 C   0  0  0  0  0  0  0  0  0  0  0  0
    3.1357    4.0947    0.4692 H   0  0  0  0  0  0  0  0  0  0  0  0
    1.2446    3.3738   -0.2690 C   0  0  0  0  0  0  0  0  0  0  0  0
    1.3190    3.8916   -1.2355 H   0  0  0  0  0  0  0  0  0  0  0  0
    0.1016    2.5787    0.0260 C   0  0  0  0  0  0  0  0  0  0  0  0
   -1.0865    2.2744   -0.7187 C   0  0  0  0  0  0  0  0  0  0  0  0
   -1.3119    2.6353   -1.7280 H   0  0  0  0  0  0  0  0  0  0  0  0
   -3.3584    1.1444   -0.2209 C   0  0  0  0  0  0  0  0  0  0  0  0
   -4.1269    0.4286    0.6345 C   0  0  0  0  0  0  0  0  0  0  0  0
   -5.1706    0.1887    0.3809 H   0  0  0  0  0  0  0  0  0  0  0  0
   -3.7436    0.0515    1.5935 H   0  0  0  0  0  0  0  0  0  0  0  0
   -3.8917    1.6444   -1.5377 C   0  0  0  0  0  0  0  0  0  0  0  0
   -4.9472    1.3464   -1.6812 H   0  0  0  0  0  0  0  0  0  0  0  0
   -3.2948    1.2312   -2.3767 H   0  0  0  0  0  0  0  0  0  0  0  0
   -3.8296    2.7511   -1.6004 H   0  0  0  0  0  0  0  0  0  0  0  0
  1  2  1  0  0  0  0
  2  3  1  0  0  0  0
  4  2  1  0  0  0  0
  4  5  1  0  0  0  0
  5  6  1  0  0  0  0
  7  5  2  0  0  0  0
  7  8  1  0  0  0  0
  9  7  1  0  0  0  0
 10  9  1  0  0  0  0
 11 13  1  0  0  0  0
 11  9  2  0  0  0  0
 12 11  1  0  0  0  0
 13  4  2  0  0  0  0
 14 13  1  0  0  0  0
 14  1  2  0  0  0  0
 15 14  1  0  0  0  0
 16  1  1  0  0  0  0
 16 17  2  0  0  0  0
 17 19  1  0  0  0  0
 18 17  1  0  0  0  0
 20 16  1  0  0  0  0
 21 20  1  0  0  0  0
 22 20  1  0  0  0  0
 23 20  1  0  0  0  0
M  END
