1
q = -1.0

 17 16  0  0  0  0  0  0  0  0999 V2000
    0.3219    1.2217    0.2277 C   0  0  0  0  0  1  0  0  0  0  0  0
    0.6655    2.5350    0.7768 C   0  0  0  0  0  0  0  0  0  0  0  0
    1.7890    3.3354    0.0375 C   0  0  0  0  0  0  0  0  0  0  0  0
    1.3703    3.5997   -1.4176 C   0  0  0  0  0  0  0  0  0  0  0  0
    3.1044    2.5390    0.0727 C   0  0  0  0  0  0  0  0  0  0  0  0
    1.9637    4.6722    0.7779 C   0  0  0  0  0  0  0  0  0  0  0  0
    1.2785    2.6535   -1.9844 H   0  0  0  0  0  0  0  0  0  0  0  0
    2.1256    4.2288   -1.9293 H   0  0  0  0  0  0  0  0  0  0  0  0
    0.3972    4.1299   -1.4697 H   0  0  0  0  0  0  0  0  0  0  0  0
    2.9905    1.5386   -0.3936 H   0  0  0  0  0  0  0  0  0  0  0  0
    3.4572    2.3962    1.1153 H   0  0  0  0  0  0  0  0  0  0  0  0
    3.9012    3.0838   -0.4720 H   0  0  0  0  0  0  0  0  0  0  0  0
    2.7586    5.2787    0.2994 H   0  0  0  0  0  0  0  0  0  0  0  0
    2.2522    4.5147    1.8376 H   0  0  0  0  0  0  0  0  0  0  0  0
    1.0288    5.2688    0.7628 H   0  0  0  0  0  0  0  0  0  0  0  0
   -0.2748    3.1350    0.7731 H   0  0  0  0  0  0  0  0  0  0  0  0
    0.9542    2.4250    1.8475 H   0  0  0  0  0  0  0  0  0  0  0  0
  1  2  1  0  0  0  0
  2 17  1  0  0  0  0
  3  5  1  0  0  0  0
  3  2  1  0  0  0  0
  3  6  1  0  0  0  0
  4  3  1  0  0  0  0
  5 11  1  0  0  0  0
  6 14  1  0  0  0  0
  7  4  1  0  0  0  0
  8  4  1  0  0  0  0
  9  4  1  0  0  0  0
 10  5  1  0  0  0  0
 12  5  1  0  0  0  0
 13  6  1  0  0  0  0
 15  6  1  0  0  0  0
 16  2  1  0  0  0  0
M  END
