3
q = -1.0

  9  9  0  0  0  0  0  0  0  0999 V2000
   -0.1758    2.6195   -0.6677 N   0  0  0  0  0  0  0  0  0  0  0  0
    0.0139    3.9752    1.7811 N   0  0  0  0  0  0  0  0  0  0  0  0
   -0.0432    1.9383    0.4766 C   0  0  0  0  0  3  0  0  0  0  0  0
   -0.2126    3.9614   -0.6049 C   0  0  0  0  0  0  0  0  0  0  0  0
   -0.3198    4.5130   -1.5556 H   0  0  0  0  0  0  0  0  0  0  0  0
   -0.1228    4.6378    0.6200 C   0  0  0  0  0  0  0  0  0  0  0  0
   -0.1627    5.7408    0.6623 H   0  0  0  0  0  0  0  0  0  0  0  0
    0.0574    2.6394    1.7085 C   0  0  0  0  0  0  0  0  0  0  0  0
    0.1743    2.0847    2.6568 H   0  0  0  0  0  0  0  0  0  0  0  0
  1  4  2  0  0  0  0
  1  3  1  0  0  0  0
  3  8  2  0  0  0  0
  4  6  1  0  0  0  0
  5  4  1  0  0  0  0
  6  7  1  0  0  0  0
  6  2  2  0  0  0  0
  8  2  1  0  0  0  0
  8  9  1  0  0  0  0
M  END
