1
q = 0.0, confidence = 0.746

  7  8  0  0  1  0  0  0  0  0999 V2000
   -1.3245    0.8967   -1.4549 C   0  0  0  0  0  0  0  0  0  0  0  0
   -1.3502    1.9510    0.9181 C   0  0  0  0  0  0  0  0  0  0  0  0
   -1.4684    1.0018    1.8798 C   0  0  2  0  0  0  0  0  0  0  0  0
   -1.8365   -0.3400    1.9560 C   0  0  0  0  0  0  0  0  0  0  0  0
   -2.4314    0.2385    0.7663 C   0  0  2  0  0  0  0  0  0  0  0  0
   -2.0676    1.2944   -0.1911 C   0  0  2  0  0  0  0  0  0  0  0  0
   -1.3258    1.1321   -2.6272 O   0  0  0  0  0  0  0  0  0  0  0  0
  3  2  1  6  0  0  0
  3  4  1  0  0  0  0
  5  3  1  0  0  0  0
  5  4  1  6  0  0  0
  6  1  1  6  0  0  0
  6  5  1  0  0  0  0
  6  2  1  0  0  0  0
  7  1  2  0  0  0  0
M  END
