2
q = 0.0, confidence = 0.832

 16 15  0  0  1  0  0  0  0  0999 V2000
   -1.3469    1.8029    1.0716 C   0  0  0  0  0  3  0  0  0  0  0  0
   -0.7221    2.1445   -0.1743 C   0  0  2  0  0  3  0  0  0  0  0  0
   -1.5213    2.3875   -1.4304 C   0  0  0  0  0  0  0  0  0  0  0  0
    0.7223    2.1445   -0.1745 C   0  0  1  0  0  3  0  0  0  0  0  0
    1.3475    1.8027    1.0711 C   0  0  0  0  0  3  0  0  0  0  0  0
    1.5211    2.3874   -1.4309 C   0  0  0  0  0  0  0  0  0  0  0  0
   -2.4374    1.6416    1.0605 H   0  0  0  0  0  0  0  0  0  0  0  0
   -0.9907    2.2390    2.0186 H   0  0  0  0  0  0  0  0  0  0  0  0
   -1.0675    1.9231   -2.3275 H   0  0  0  0  0  0  0  0  0  0  0  0
   -2.5524    1.9978   -1.3275 H   0  0  0  0  0  0  0  0  0  0  0  0
   -1.6071    3.4786   -1.6272 H   0  0  0  0  0  0  0  0  0  0  0  0
    2.4380    1.6413    1.0597 H   0  0  0  0  0  0  0  0  0  0  0  0
    0.9917    2.2388    2.0183 H   0  0  0  0  0  0  0  0  0  0  0  0
    1.0668    1.9235   -2.3279 H   0  0  0  0  0  0  0  0  0  0  0  0
    2.5521    1.9975   -1.3285 H   0  0  0  0  0  0  0  0  0  0  0  0
    1.6072    3.4786   -1.6275 H   0  0  0  0  0  0  0  0  0  0  0  0
  1  8  1  0  0  0  0
  2  1  1  6  0  0  0
  3 10  1  0  0  0  0
  3  2  1  0  0  0  0
  4  2  1  0  0  0  0
  4  5  1  6  0  0  0
  5 13  1  0  0  0  0
  6 15  1  0  0  0  0
  6  4  1  0  0  0  0
  7  1  1  0  0  0  0
  9  3  1  0  0  0  0
 11  3  1  0  0  0  0
 12  5  1  0  0  0  0
 14  6  1  0  0  0  0
 16  6  1  0  0  0  0
M  END
