26
q = -1.0

 26 28  0  0  0  0  0  0  0  0999 V2000
    4.5605   -0.7039   -2.0164 F   0  0  0  0  0  0  0  0  0  0  0  0
    4.7202   -3.3931   -1.7285 F   0  0  0  0  0  0  0  0  0  0  0  0
    2.5191   -4.8367   -0.9888 F   0  0  0  0  0  0  0  0  0  0  0  0
    0.1420   -3.5936   -0.5492 F   0  0  0  0  0  0  0  0  0  0  0  0
    3.0401    1.4161   -0.6892 N   0  0  0  0  0  0  0  0  0  0  0  0
    2.1689    0.7732   -1.4638 C   0  0  0  0  0  0  0  0  0  0  0  0
    1.1739    1.4459   -2.2460 C   0  0  0  0  0  0  0  0  0  0  0  0
    0.4670    0.8528   -2.8461 H   0  0  0  0  0  0  0  0  0  0  0  0
    1.1286    2.8275   -2.2197 C   0  0  0  0  0  0  0  0  0  0  0  0
    0.3820    3.3770   -2.8152 H   0  0  0  0  0  0  0  0  0  0  0  0
    2.0521    3.5508   -1.4111 C   0  0  0  0  0  0  0  0  0  0  0  0
    2.0676    4.9706   -1.3115 C   0  0  0  0  0  0  0  0  0  0  0  0
    1.3443    5.5522   -1.9053 H   0  0  0  0  0  0  0  0  0  0  0  0
    2.9764    5.6095   -0.4785 C   0  0  0  0  0  0  0  0  0  0  0  0
    2.9824    6.7079   -0.4084 H   0  0  0  0  0  0  0  0  0  0  0  0
    3.9055    4.8504    0.2836 C   0  0  0  0  0  0  0  0  0  0  0  0
    4.6213    5.3691    0.9395 H   0  0  0  0  0  0  0  0  0  0  0  0
    3.9180    3.4654    0.2032 C   0  0  0  0  0  0  0  0  0  0  0  0
    4.6275    2.8548    0.7802 H   0  0  0  0  0  0  0  0  0  0  0  0
    2.9987    2.7798   -0.6429 C   0  0  0  0  0  0  0  0  0  0  0  0
    2.2257   -0.7150   -1.4567 C   0  0  0  0  0  0  0  0  0  0  0  0
    3.4501   -1.3777   -1.6750 C   0  0  0  0  0  0  0  0  0  0  0  0
    3.5491   -2.7700   -1.5318 C   0  0  0  0  0  0  0  0  0  0  0  0
    2.4142   -3.5125   -1.1654 C   0  0  0  0  0  0  0  0  0  0  0  0
    1.1957   -2.8458   -0.9669 C   0  0  0  0  0  0  0  0  0  0  0  0
    1.0758   -1.4642   -1.1181 C   0  0  0  0  0  3  0  0  0  0  0  0
  1 22  1  0  0  0  0
  2 23  1  0  0  0  0
  5 20  1  0  0  0  0
  6 21  1  0  0  0  0
  6  5  2  0  0  0  0
  7  9  2  0  0  0  0
  7  6  1  0  0  0  0
  8  7  1  0  0  0  0
  9 11  1  0  0  0  0
 10  9  1  0  0  0  0
 11 12  2  0  0  0  0
 11 20  1  0  0  0  0
 12 14  1  0  0  0  0
 13 12  1  0  0  0  0
 14 15  1  0  0  0  0
 14 16  2  0  0  0  0
 16 17  1  0  0  0  0
 18 16  1  0  0  0  0
 18 19  1  0  0  0  0
 20 18  2  0  0  0  0
 21 26  1  0  0  0  0
 22 23  1  0  0  0  0
 22 21  2  0  0  0  0
 23 24  2  0  0  0  0
 24  3  1  0  0  0  0
 24 25  1  0  0  0  0
 25  4  1  0  0  0  0
 26 25  2  0  0  0  0
M  END
