3
q = -1.0

 14 14  0  0  0  0  0  0  0  0999 V2000
    0.0821    2.0177   -2.3476 S   0  0  0  0  0  0  0  0  0  0  0  0
   -0.3184    2.0822    0.2891 O   0  0  0  0  0  0  0  0  0  0  0  0
   -0.0745    1.3694   -0.8380 C   0  0  0  0  0  3  0  0  0  0  0  0
   -0.4415    3.4843    0.2484 C   0  0  0  0  0  0  0  0  0  0  0  0
    0.7078    4.2798    0.1815 C   0  0  0  0  0  0  0  0  0  0  0  0
    1.6938    3.8077    0.0938 H   0  0  0  0  0  0  0  0  0  0  0  0
    0.5646    5.6738    0.2295 C   0  0  0  0  0  0  0  0  0  0  0  0
    1.4615    6.3097    0.1770 H   0  0  0  0  0  0  0  0  0  0  0  0
   -0.7095    6.2553    0.3439 C   0  0  0  0  0  0  0  0  0  0  0  0
   -0.8147    7.3500    0.3808 H   0  0  0  0  0  0  0  0  0  0  0  0
   -1.8474    5.4361    0.4139 C   0  0  0  0  0  0  0  0  0  0  0  0
   -2.8489    5.8836    0.5048 H   0  0  0  0  0  0  0  0  0  0  0  0
   -1.7198    4.0390    0.3671 C   0  0  0  0  0  0  0  0  0  0  0  0
   -2.5962    3.3799    0.4165 H   0  0  0  0  0  0  0  0  0  0  0  0
  1  3  2  0  0  0  0
  3  2  1  0  0  0  0
  4  2  1  0  0  0  0
  4 13  1  0  0  0  0
  5  7  1  0  0  0  0
  5  4  2  0  0  0  0
  6  5  1  0  0  0  0
  7  9  2  0  0  0  0
  8  7  1  0  0  0  0
  9 10  1  0  0  0  0
  9 11  1  0  0  0  0
 11 12  1  0  0  0  0
 13 11  2  0  0  0  0
 13 14  1  0  0  0  0
M  END
