2
q = -1.0

 19 18  0  0  0  0  0  0  0  0999 V2000
    8.6964    0.0066   -0.0002 Si  0  0  0  0  0  0  0  0  0  0  0  0
    0.3997   -0.1505   -0.0001 C   0  0  0  0  0  3  0  0  0  0  0  0
    1.6571   -0.1280   -0.0002 C   0  0  0  0  0  0  0  0  0  0  0  0
    3.0049   -0.1059   -0.0003 C   0  0  0  0  0  0  0  0  0  0  0  0
    4.2569   -0.0795   -0.0004 C   0  0  0  0  0  0  0  0  0  0  0  0
    5.6082   -0.0512   -0.0006 C   0  0  0  0  0  0  0  0  0  0  0  0
    6.8563   -0.0244   -0.0008 C   0  0  0  0  0  0  0  0  0  0  0  0
    9.3112   -0.4573    1.7283 C   0  0  0  0  0  0  0  0  0  0  0  0
    8.9636   -1.4709    2.0126 H   0  0  0  0  0  0  0  0  0  0  0  0
    8.9359    0.2582    2.4874 H   0  0  0  0  0  0  0  0  0  0  0  0
   10.4206   -0.4487    1.7620 H   0  0  0  0  0  0  0  0  0  0  0  0
    9.2815    1.7488   -0.4523 C   0  0  0  0  0  0  0  0  0  0  0  0
    8.9151    2.0408   -1.4571 H   0  0  0  0  0  0  0  0  0  0  0  0
   10.3904    1.7977   -0.4602 H   0  0  0  0  0  0  0  0  0  0  0  0
    8.9072    2.4939    0.2782 H   0  0  0  0  0  0  0  0  0  0  0  0
    9.3287   -1.2418   -1.2738 C   0  0  0  0  0  0  0  0  0  0  0  0
    8.9620   -0.9911   -2.2896 H   0  0  0  0  0  0  0  0  0  0  0  0
    8.9829   -2.2661   -1.0287 H   0  0  0  0  0  0  0  0  0  0  0  0
   10.4384   -1.2463   -1.2971 H   0  0  0  0  0  0  0  0  0  0  0  0
  1  8  1  0  0  0  0
  3  2  3  0  0  0  0
  4  3  1  0  0  0  0
  5  4  3  0  0  0  0
  6  5  1  0  0  0  0
  7  6  3  0  0  0  0
  7  1  1  0  0  0  0
  8 11  1  0  0  0  0
  8  9  1  0  0  0  0
  8 10  1  0  0  0  0
 12  1  1  0  0  0  0
 12 15  1  0  0  0  0
 13 12  1  0  0  0  0
 14 12  1  0  0  0  0
 16 18  1  0  0  0  0
 16  1  1  0  0  0  0
 17 16  1  0  0  0  0
 19 16  1  0  0  0  0
M  END
