2
q = 0.0, confidence = 1.0

 49 50  0  0  0  0  0  0  0  0999 V2000
    0.8322   -1.0659    0.4659 N   0  0  0  0  0  0  0  0  0  0  0  0
   -0.4876   -0.8155    0.6979 C   0  0  0  0  0  2  0  0  0  0  0  0
   -0.7530   -1.3943    1.9068 N   0  0  0  0  0  0  0  0  0  0  0  0
    2.9521   -0.2721   -0.5488 C   0  0  0  0  0  0  0  0  0  0  0  0
    1.5189   -0.6932   -0.7796 C   0  0  0  0  0  0  0  0  0  0  0  0
    0.9080    0.1190   -1.2193 H   0  0  0  0  0  0  0  0  0  0  0  0
    1.4303   -1.5413   -1.4831 H   0  0  0  0  0  0  0  0  0  0  0  0
   -2.0872   -1.4521    2.5121 C   0  0  0  0  0  0  0  0  0  0  0  0
   -2.4885   -0.4188    2.5366 H   0  0  0  0  0  0  0  0  0  0  0  0
   -1.9475   -1.7901    3.5592 H   0  0  0  0  0  0  0  0  0  0  0  0
    0.3874   -2.0056    2.4166 C   0  0  0  0  0  0  0  0  0  0  0  0
    0.3867   -2.5270    3.3780 H   0  0  0  0  0  0  0  0  0  0  0  0
    1.3919   -1.7932    1.5075 C   0  0  0  0  0  0  0  0  0  0  0  0
    2.4495   -2.0703    1.5173 H   0  0  0  0  0  0  0  0  0  0  0  0
    3.2114    1.0235   -0.0328 C   0  0  0  0  0  0  0  0  0  0  0  0
    4.0221   -1.1574   -0.8259 C   0  0  0  0  0  0  0  0  0  0  0  0
    4.5477    1.4337    0.1889 C   0  0  0  0  0  0  0  0  0  0  0  0
    5.3651   -0.7282   -0.6356 C   0  0  0  0  0  0  0  0  0  0  0  0
    3.7865   -2.5684   -1.3182 C   0  0  0  0  0  0  0  0  0  0  0  0
    2.7291   -2.8811   -1.2655 H   0  0  0  0  0  0  0  0  0  0  0  0
    4.3710   -3.3020   -0.7261 H   0  0  0  0  0  0  0  0  0  0  0  0
    4.1140   -2.6964   -2.3726 H   0  0  0  0  0  0  0  0  0  0  0  0
   -2.5589   -3.8170    1.5991 C   0  0  0  0  0  0  0  0  0  0  0  0
   -2.4446   -4.2860    2.6034 H   0  0  0  0  0  0  0  0  0  0  0  0
   -1.5478   -3.8082    1.1382 H   0  0  0  0  0  0  0  0  0  0  0  0
    5.6294    0.5630   -0.1115 C   0  0  0  0  0  0  0  0  0  0  0  0
   -3.0417   -2.3734    1.7491 C   0  0  0  0  0  0  0  0  0  0  0  0
   -4.0254   -2.3431    2.2673 H   0  0  0  0  0  0  0  0  0  0  0  0
   -3.1941   -1.9445    0.7349 H   0  0  0  0  0  0  0  0  0  0  0  0
   -3.4903   -4.6488    0.7171 C   0  0  0  0  0  0  0  0  0  0  0  0
   -3.5259   -4.2137   -0.3027 H   0  0  0  0  0  0  0  0  0  0  0  0
   -4.5248   -4.6706    1.1206 H   0  0  0  0  0  0  0  0  0  0  0  0
   -3.1420   -5.6975    0.6284 H   0  0  0  0  0  0  0  0  0  0  0  0
    2.0940    1.9810    0.3058 C   0  0  0  0  0  0  0  0  0  0  0  0
    2.2263    2.9560   -0.2079 H   0  0  0  0  0  0  0  0  0  0  0  0
    2.0793    2.2126    1.3922 H   0  0  0  0  0  0  0  0  0  0  0  0
    1.0857    1.6108    0.0531 H   0  0  0  0  0  0  0  0  0  0  0  0
    7.0411    1.0425    0.1528 C   0  0  0  0  0  0  0  0  0  0  0  0
    7.3037    1.9146   -0.4825 H   0  0  0  0  0  0  0  0  0  0  0  0
    7.8030    0.2664   -0.0302 H   0  0  0  0  0  0  0  0  0  0  0  0
    7.1642    1.3687    1.2058 H   0  0  0  0  0  0  0  0  0  0  0  0
    4.7848    2.8180    0.7460 C   0  0  0  0  0  0  0  0  0  0  0  0
    4.3607    3.5977    0.0782 H   0  0  0  0  0  0  0  0  0  0  0  0
    5.8524    3.0537    0.8900 H   0  0  0  0  0  0  0  0  0  0  0  0
    4.2774    2.9515    1.7249 H   0  0  0  0  0  0  0  0  0  0  0  0
    6.4667   -1.6941   -1.0100 C   0  0  0  0  0  0  0  0  0  0  0  0
    6.4853   -2.5783   -0.3364 H   0  0  0  0  0  0  0  0  0  0  0  0
    7.4728   -1.2432   -0.9830 H   0  0  0  0  0  0  0  0  0  0  0  0
    6.3183   -2.0925   -2.0346 H   0  0  0  0  0  0  0  0  0  0  0  0
  1  2  1  0  0  0  0
  1 13  1  0  0  0  0
  2  3  1  0  0  0  0
  3 11  1  0  0  0  0
  3  8  1  0  0  0  0
  4 15  1  0  0  0  0
  5  4  1  0  0  0  0
  5  1  1  0  0  0  0
  6  5  1  0  0  0  0
  7  5  1  0  0  0  0
  8  9  1  0  0  0  0
  8 10  1  0  0  0  0
 11 12  1  0  0  0  0
 13 14  1  0  0  0  0
 13 11  2  0  0  0  0
 15 17  2  0  0  0  0
 15 34  1  0  0  0  0
 16 18  1  0  0  0  0
 16  4  2  0  0  0  0
 17 42  1  0  0  0  0
 18 26  2  0  0  0  0
 19 20  1  0  0  0  0
 19 16  1  0  0  0  0
 19 21  1  0  0  0  0
 22 19  1  0  0  0  0
 23 27  1  0  0  0  0
 23 24  1  0  0  0  0
 25 23  1  0  0  0  0
 26 38  1  0  0  0  0
 26 17  1  0  0  0  0
 27 28  1  0  0  0  0
 27  8  1  0  0  0  0
 29 27  1  0  0  0  0
 30 32  1  0  0  0  0
 30 23  1  0  0  0  0
 31 30  1  0  0  0  0
 33 30  1  0  0  0  0
 34 36  1  0  0  0  0
 35 34  1  0  0  0  0
 37 34  1  0  0  0  0
 38 41  1  0  0  0  0
 39 38  1  0  0  0  0
 40 38  1  0  0  0  0
 42 44  1  0  0  0  0
 42 45  1  0  0  0  0
 43 42  1  0  0  0  0
 46 48  1  0  0  0  0
 46 18  1  0  0  0  0
 46 47  1  0  0  0  0
 49 46  1  0  0  0  0
M  END
