8
q = -1.0, confidence = 0.01

 10  9  0  0  0  0  0  0  0  0999 V2000
    1.9894    1.4166   -1.2207 F   0  0  0  0  0  0  0  0  0  0  0  0
    2.0694   -1.4671   -1.7909 F   0  0  0  0  0  0  0  0  0  0  0  0
    3.7883   -0.3419   -1.1238 F   0  0  0  0  0  0  0  0  0  0  0  0
    2.7562   -1.6608    0.2698 F   0  0  0  0  0  0  0  0  0  0  0  0
    3.5219    1.0777    1.0893 F   0  0  0  0  0  0  0  0  0  0  0  0
    1.6917    2.2246    1.2537 F   0  0  0  0  0  0  0  0  0  0  0  0
    1.8090    0.2276    2.1196 F   0  0  0  0  0  0  0  0  0  0  0  0
    1.6423    0.3960   -0.2981 C   0  0  0  0  0  0  0  0  0  0  0  0
    2.5671   -0.7740   -0.7431 C   0  0  0  0  0  0  0  0  0  0  0  0
    2.1729    0.9674    1.0464 C   0  0  0  0  0  0  0  0  0  0  0  0
  1  8  1  0  0  0  0
  2  9  1  0  0  0  0
  3  9  1  0  0  0  0
  8 10  1  0  0  0  0
  9  8  1  0  0  0  0
  9  4  1  0  0  0  0
 10  5  1  0  0  0  0
 10  6  1  0  0  0  0
 10  7  1  0  0  0  0
M  END
