3
q = 0.0, confidence = 0.984

 20 21  0  0  1  0  0  0  0  0999 V2000
   -0.9510   -1.5844    0.6484 C   0  0  0  0  0  3  0  0  0  0  0  0
   -0.5507   -0.7243    1.6860 C   0  0  0  0  0  3  0  0  0  0  0  0
   -0.5508    0.7222    1.6869 C   0  0  0  0  0  3  0  0  0  0  0  0
   -0.9511    1.5836    0.6504 C   0  0  0  0  0  3  0  0  0  0  0  0
   -1.9773    1.2235   -0.4158 C   0  0  1  0  0  0  0  0  0  0  0  0
   -1.3796    0.0007   -1.0864 C   0  0  0  0  0  0  0  0  0  0  0  0
   -0.3966    0.0013   -2.0551 C   0  0  0  0  0  0  0  0  0  0  0  0
   -3.2648    0.6749    0.1694 C   0  0  0  0  0  0  0  0  0  0  0  0
   -3.2648   -0.6752    0.1686 C   0  0  0  0  0  0  0  0  0  0  0  0
   -1.9772   -1.2230   -0.4174 C   0  0  2  0  0  0  0  0  0  0  0  0
   -0.0212   -1.1898    2.5316 H   0  0  0  0  0  0  0  0  0  0  0  0
   -0.0213    1.1866    2.5331 H   0  0  0  0  0  0  0  0  0  0  0  0
   -2.1155    2.0747   -1.1126 H   0  0  0  0  0  0  0  0  0  0  0  0
   -0.1417   -0.9328   -2.5765 H   0  0  0  0  0  0  0  0  0  0  0  0
   -0.1418    0.9360   -2.5754 H   0  0  0  0  0  0  0  0  0  0  0  0
   -4.0460    1.3159    0.6033 H   0  0  0  0  0  0  0  0  0  0  0  0
   -4.0459   -1.3168    0.6016 H   0  0  0  0  0  0  0  0  0  0  0  0
   -2.1154   -2.0733   -1.1152 H   0  0  0  0  0  0  0  0  0  0  0  0
   -0.6541   -2.6405    0.7472 H   0  0  0  0  0  0  0  0  0  0  0  0
   -0.6543    2.6396    0.7506 H   0  0  0  0  0  0  0  0  0  0  0  0
  1 19  1  0  0  0  0
  1  2  1  0  0  0  0
  2  3  1  0  0  0  0
  2 11  1  0  0  0  0
  3 12  1  0  0  0  0
  4 20  1  0  0  0  0
  4  3  1  0  0  0  0
  5 13  1  6  0  0  0
  5  8  1  0  0  0  0
  5  4  1  0  0  0  0
  6 10  1  0  0  0  0
  6  5  1  0  0  0  0
  7  6  2  0  0  0  0
  8 16  1  0  0  0  0
  9  8  2  0  0  0  0
  9 17  1  0  0  0  0
 10 18  1  6  0  0  0
 10  9  1  0  0  0  0
 10  1  1  0  0  0  0
 14  7  1  0  0  0  0
 15  7  1  0  0  0  0
M  END
