2
q = -1.0, confidence = 0.004

 12 11  0  0  0  0  0  0  0  0999 V2000
    0.9708   -2.7781   -0.8019 O   0  0  0  0  0  0  0  0  0  0  0  0
    1.2809   -1.8299   -0.0780 C   0  0  0  0  0  3  0  0  0  0  0  0
    2.3914   -2.0228    0.9637 C   0  0  0  0  0  0  0  0  0  0  0  0
    1.9012   -1.7847    2.4021 C   0  0  0  0  0  0  0  0  0  0  0  0
    0.7834   -2.7392    2.8245 C   0  0  0  0  0  0  0  0  0  0  0  0
    2.7868   -3.0543    0.8422 H   0  0  0  0  0  0  0  0  0  0  0  0
    3.2147   -1.3118    0.7379 H   0  0  0  0  0  0  0  0  0  0  0  0
    2.7670   -1.8822    3.0914 H   0  0  0  0  0  0  0  0  0  0  0  0
    1.5503   -0.7334    2.4874 H   0  0  0  0  0  0  0  0  0  0  0  0
   -0.1129   -2.6113    2.1820 H   0  0  0  0  0  0  0  0  0  0  0  0
    1.1006   -3.7999    2.7413 H   0  0  0  0  0  0  0  0  0  0  0  0
    0.4705   -2.5602    3.8733 H   0  0  0  0  0  0  0  0  0  0  0  0
  1  2  2  0  0  0  0
  2  3  1  0  0  0  0
  3  4  1  0  0  0  0
  4  9  1  0  0  0  0
  4  5  1  0  0  0  0
  4  8  1  0  0  0  0
  5 12  1  0  0  0  0
  6  3  1  0  0  0  0
  7  3  1  0  0  0  0
 10  5  1  0  0  0  0
 11  5  1  0  0  0  0
M  END
