1
q = -1.0

 13 12  0  0  0  0  0  0  0  0999 V2000
   -0.6545    0.8298   -0.5215 C   0  0  0  0  0  3  0  0  0  0  0  0
   -1.5744    1.4283    0.5428 C   0  0  0  0  0  0  0  0  0  0  0  0
   -2.3871    2.5488   -0.0723 C   0  0  0  0  0  0  0  0  0  0  0  0
   -4.2767    3.0364   -1.3949 C   0  0  0  0  0  0  0  0  0  0  0  0
   -2.1018    3.7316   -0.0609 O   0  0  0  0  0  0  0  0  0  0  0  0
   -3.4855    2.0580   -0.7151 O   0  0  0  0  0  0  0  0  0  0  0  0
   -0.0234    1.6273   -0.9642 H   0  0  0  0  0  0  0  0  0  0  0  0
   -1.2490    0.3656   -1.3333 H   0  0  0  0  0  0  0  0  0  0  0  0
   -0.9950    1.8627    1.3782 H   0  0  0  0  0  0  0  0  0  0  0  0
   -2.2635    0.6633    0.9496 H   0  0  0  0  0  0  0  0  0  0  0  0
   -5.1129    2.4871   -1.8640 H   0  0  0  0  0  0  0  0  0  0  0  0
   -3.6802    3.5636   -2.1675 H   0  0  0  0  0  0  0  0  0  0  0  0
   -4.6648    3.7969   -0.6868 H   0  0  0  0  0  0  0  0  0  0  0  0
  1  2  1  0  0  0  0
  2 10  1  0  0  0  0
  2  9  1  0  0  0  0
  3  5  2  0  0  0  0
  3  2  1  0  0  0  0
  4  6  1  0  0  0  0
  4 13  1  0  0  0  0
  6  3  1  0  0  0  0
  7  1  1  0  0  0  0
  8  1  1  0  0  0  0
 11  4  1  0  0  0  0
 12  4  1  0  0  0  0
M  END
