17
q = 0.0, confidence = 1.0

 34 36  0  0  0  0  0  0  0  0999 V2000
   -2.4148    0.5614   -0.7332 N   0  0  0  0  0  0  0  0  0  0  0  0
   -3.4694    0.1881   -1.5442 N   0  0  0  0  0  0  0  0  0  0  0  0
   -1.7082   -1.5977   -0.8251 N   0  0  0  0  0  0  0  0  0  0  0  0
   -2.5823   -1.7108   -1.3670 H   0  0  0  0  0  0  0  0  0  0  0  0
   -4.2021    1.2677   -1.7317 C   0  0  0  0  0  0  0  0  0  0  0  0
   -5.1047    1.2129   -2.3554 H   0  0  0  0  0  0  0  0  0  0  0  0
   -3.6629    2.4095   -1.0410 C   0  0  0  0  0  0  0  0  0  0  0  0
   -4.0422    3.7606   -0.9004 C   0  0  0  0  0  0  0  0  0  0  0  0
   -4.9433    4.1461   -1.3995 H   0  0  0  0  0  0  0  0  0  0  0  0
   -3.2446    4.5863   -0.1056 C   0  0  0  0  0  0  0  0  0  0  0  0
   -3.5151    5.6443    0.0274 H   0  0  0  0  0  0  0  0  0  0  0  0
   -2.0925    4.0783    0.5441 C   0  0  0  0  0  0  0  0  0  0  0  0
   -1.4911    4.7492    1.1755 H   0  0  0  0  0  0  0  0  0  0  0  0
   -1.6967    2.7421    0.4195 C   0  0  0  0  0  0  0  0  0  0  0  0
   -0.8120    2.3511    0.9444 H   0  0  0  0  0  0  0  0  0  0  0  0
   -2.4963    1.9183   -0.3899 C   0  0  0  0  0  0  0  0  0  0  0  0
   -1.4769   -0.3845   -0.3610 C   0  0  0  0  0  2  0  0  0  0  0  0
   -0.9193   -2.7841   -0.4985 C   0  0  0  0  0  0  0  0  0  0  0  0
    0.0359   -2.3995   -0.0768 H   0  0  0  0  0  0  0  0  0  0  0  0
   -1.6170   -3.6223    0.5846 C   0  0  0  0  0  0  0  0  0  0  0  0
   -2.6242   -3.9210    0.2141 H   0  0  0  0  0  0  0  0  0  0  0  0
   -1.7637   -2.9816    1.4786 H   0  0  0  0  0  0  0  0  0  0  0  0
   -0.7901   -4.8702    0.9154 C   0  0  0  0  0  0  0  0  0  0  0  0
    0.1652   -4.5524    1.3894 H   0  0  0  0  0  0  0  0  0  0  0  0
   -1.3214   -5.4825    1.6726 H   0  0  0  0  0  0  0  0  0  0  0  0
   -0.4866   -5.7009   -0.3384 C   0  0  0  0  0  0  0  0  0  0  0  0
    0.1445   -6.5768   -0.0812 H   0  0  0  0  0  0  0  0  0  0  0  0
   -1.4382   -6.1102   -0.7472 H   0  0  0  0  0  0  0  0  0  0  0  0
    0.2001   -4.8524   -1.4170 C   0  0  0  0  0  0  0  0  0  0  0  0
    0.3787   -5.4506   -2.3344 H   0  0  0  0  0  0  0  0  0  0  0  0
    1.2020   -4.5355   -1.0502 H   0  0  0  0  0  0  0  0  0  0  0  0
   -0.6203   -3.6018   -1.7612 C   0  0  0  0  0  0  0  0  0  0  0  0
   -1.5837   -3.9063   -2.2315 H   0  0  0  0  0  0  0  0  0  0  0  0
   -0.0879   -2.9665   -2.5000 H   0  0  0  0  0  0  0  0  0  0  0  0
  1 16  1  0  0  0  0
  1 17  1  0  0  0  0
  2  1  1  0  0  0  0
  3 18  1  0  0  0  0
  3 17  1  0  0  0  0
  4  3  1  0  0  0  0
  5  2  2  0  0  0  0
  5  7  1  0  0  0  0
  6  5  1  0  0  0  0
  7  8  2  0  0  0  0
  7 16  1  0  0  0  0
  8 10  1  0  0  0  0
  9  8  1  0  0  0  0
 10 11  1  0  0  0  0
 10 12  2  0  0  0  0
 12 13  1  0  0  0  0
 14 12  1  0  0  0  0
 14 15  1  0  0  0  0
 16 14  2  0  0  0  0
 18 19  1  0  0  0  0
 18 20  1  0  0  0  0
 20 23  1  0  0  0  0
 20 22  1  0  0  0  0
 21 20  1  0  0  0  0
 23 24  1  0  0  0  0
 23 25  1  0  0  0  0
 26 27  1  0  0  0  0
 26 23  1  0  0  0  0
 28 26  1  0  0  0  0
 29 31  1  0  0  0  0
 29 26  1  0  0  0  0
 30 29  1  0  0  0  0
 32 29  1  0  0  0  0
 32 18  1  0  0  0  0
 33 32  1  0  0  0  0
 34 32  1  0  0  0  0
M  END
