1
q = 0.0, confidence = 0.982

 21 21  0  0  0  0  0  0  0  0999 V2000
   -0.6011    0.7770    0.0785 C   0  0  0  0  0  2  0  0  0  0  0  0
   -0.7689    2.0970    0.1673 N   0  0  0  0  0  0  0  0  0  0  0  0
    0.3655    3.0189    0.0991 C   0  0  0  0  0  0  0  0  0  0  0  0
   -2.0504    2.7735    0.3976 C   0  0  0  0  0  0  0  0  0  0  0  0
   -1.8080   -0.0841    0.0434 C   0  0  0  0  0  0  0  0  0  0  0  0
   -1.9314   -1.1494    0.9648 C   0  0  0  0  0  0  0  0  0  0  0  0
   -3.0428   -1.9996    0.9190 C   0  0  0  0  0  0  0  0  0  0  0  0
   -4.0235   -1.8313   -0.0730 C   0  0  0  0  0  0  0  0  0  0  0  0
   -3.8918   -0.7991   -1.0154 C   0  0  0  0  0  0  0  0  0  0  0  0
   -2.8003    0.0777   -0.9523 C   0  0  0  0  0  0  0  0  0  0  0  0
    0.4638    3.5688    1.0579 H   0  0  0  0  0  0  0  0  0  0  0  0
    0.1988    3.7544   -0.7148 H   0  0  0  0  0  0  0  0  0  0  0  0
    1.2871    2.4406   -0.0970 H   0  0  0  0  0  0  0  0  0  0  0  0
   -1.9224    3.5073    1.2187 H   0  0  0  0  0  0  0  0  0  0  0  0
   -2.8306    2.0447    0.6730 H   0  0  0  0  0  0  0  0  0  0  0  0
   -2.3707    3.3257   -0.5099 H   0  0  0  0  0  0  0  0  0  0  0  0
   -1.1381   -1.3016    1.7119 H   0  0  0  0  0  0  0  0  0  0  0  0
   -3.1340   -2.8146    1.6526 H   0  0  0  0  0  0  0  0  0  0  0  0
   -4.8842   -2.5152   -0.1207 H   0  0  0  0  0  0  0  0  0  0  0  0
   -4.6442   -0.6759   -1.8091 H   0  0  0  0  0  0  0  0  0  0  0  0
   -2.6945    0.8757   -1.7029 H   0  0  0  0  0  0  0  0  0  0  0  0
  1  2  1  0  0  0  0
  2  4  1  0  0  0  0
  3  2  1  0  0  0  0
  3 11  1  0  0  0  0
  4 15  1  0  0  0  0
  4 14  1  0  0  0  0
  5  1  1  0  0  0  0
  5  6  1  0  0  0  0
  6 17  1  0  0  0  0
  7  6  2  0  0  0  0
  7 18  1  0  0  0  0
  8  7  1  0  0  0  0
  9 10  1  0  0  0  0
  9  8  2  0  0  0  0
 10  5  2  0  0  0  0
 12  3  1  0  0  0  0
 13  3  1  0  0  0  0
 16  4  1  0  0  0  0
 19  8  1  0  0  0  0
 20  9  1  0  0  0  0
 21 10  1  0  0  0  0
M  END
