3
q = -1.0

 17 16  0  0  0  0  0  0  0  0999 V2000
   -3.2841   -1.0039    1.0632 Si  0  0  0  0  0  0  0  0  0  0  0  0
   -0.4637   -0.4939    1.7306 C   0  0  0  0  0  3  0  0  0  0  0  0
   -1.4870   -0.6393    0.7278 C   0  0  0  0  0  2  0  0  0  0  0  0
   -3.9244    0.3842    2.1892 C   0  0  0  0  0  0  0  0  0  0  0  0
   -4.3955   -1.1281   -0.4689 C   0  0  0  0  0  0  0  0  0  0  0  0
   -3.3734   -2.6597    1.9881 C   0  0  0  0  0  0  0  0  0  0  0  0
   -4.9825    0.2134    2.4764 H   0  0  0  0  0  0  0  0  0  0  0  0
   -3.8535    1.3656    1.6780 H   0  0  0  0  0  0  0  0  0  0  0  0
   -3.3194    0.4409    3.1168 H   0  0  0  0  0  0  0  0  0  0  0  0
   -4.4816   -0.1653   -1.0105 H   0  0  0  0  0  0  0  0  0  0  0  0
   -5.4180   -1.4297   -0.1596 H   0  0  0  0  0  0  0  0  0  0  0  0
   -4.0264   -1.8928   -1.1828 H   0  0  0  0  0  0  0  0  0  0  0  0
   -4.4122   -2.8861    2.3066 H   0  0  0  0  0  0  0  0  0  0  0  0
   -2.7299   -2.6326    2.8907 H   0  0  0  0  0  0  0  0  0  0  0  0
   -3.0233   -3.4952    1.3478 H   0  0  0  0  0  0  0  0  0  0  0  0
    0.0750   -1.3897    2.0903 H   0  0  0  0  0  0  0  0  0  0  0  0
   -0.6296    0.2457    2.5408 H   0  0  0  0  0  0  0  0  0  0  0  0
  1  6  1  0  0  0  0
  1  4  1  0  0  0  0
  2 16  1  0  0  0  0
  2 17  1  0  0  0  0
  3  1  1  0  0  0  0
  3  2  1  0  0  0  0
  4  7  1  0  0  0  0
  4  9  1  0  0  0  0
  5 11  1  0  0  0  0
  5  1  1  0  0  0  0
  6 13  1  0  0  0  0
  6 14  1  0  0  0  0
  8  4  1  0  0  0  0
 10  5  1  0  0  0  0
 12  5  1  0  0  0  0
 15  6  1  0  0  0  0
M  END
