6
q = -1.0, confidence = 0.0

 11 11  0  0  0  0  0  0  0  0999 V2000
    3.1460   -0.6662   -1.4649 Cl  0  0  0  0  0  0  0  0  0  0  0  0
    4.8047   -3.3058   -1.4458 Cl  0  0  0  0  0  0  0  0  0  0  0  0
    3.6891   -5.8635    0.0005 Cl  0  0  0  0  0  0  0  0  0  0  0  0
    0.9003   -5.7626    1.4457 Cl  0  0  0  0  0  0  0  0  0  0  0  0
   -0.7621   -3.1250    1.4637 Cl  0  0  0  0  0  0  0  0  0  0  0  0
    1.2374   -1.9677   -0.0004 C   0  0  0  0  0  0  0  0  0  0  0  0
    2.4900   -2.0612   -0.6353 C   0  0  0  0  0  0  0  0  0  0  0  0
    3.2631   -3.2445   -0.6481 C   0  0  0  0  0  0  0  0  0  0  0  0
    2.7653   -4.3955    0.0001 C   0  0  0  0  0  0  0  0  0  0  0  0
    1.5120   -4.3462    0.6479 C   0  0  0  0  0  0  0  0  0  0  0  0
    0.7796   -3.1373    0.6346 C   0  0  0  0  0  0  0  0  0  0  0  0
  1  7  1  0  0  0  0
  2  8  1  0  0  0  0
  6 11  1  0  0  0  0
  7  6  2  0  0  0  0
  8  7  1  0  0  0  0
  8  9  2  0  0  0  0
  9  3  1  0  0  0  0
  9 10  1  0  0  0  0
 10  4  1  0  0  0  0
 11 10  2  0  0  0  0
 11  5  1  0  0  0  0
M  END
