4
q = 0.0, confidence = 0.93

 28 27  0  0  0  0  0  0  0  0999 V2000
   -0.6119    2.8967   -1.9085 Si  0  0  0  0  0  0  0  0  0  0  0  0
   -1.0492   -1.4121   -3.0631 Si  0  0  0  0  0  0  0  0  0  0  0  0
   -0.5121    1.1080   -1.3836 C   0  0  0  0  0  3  0  0  0  0  0  0
   -0.6271   -0.1747   -1.7295 C   0  0  0  0  0  3  0  0  0  0  0  0
    0.3657   -2.6648   -3.1593 C   0  0  0  0  0  0  0  0  0  0  0  0
   -2.6558   -2.2537   -2.5205 C   0  0  0  0  0  0  0  0  0  0  0  0
   -1.2863   -0.5694   -4.7431 C   0  0  0  0  0  0  0  0  0  0  0  0
    1.1647    3.5138   -2.1175 C   0  0  0  0  0  0  0  0  0  0  0  0
   -1.4928    3.8305   -0.5168 C   0  0  0  0  0  0  0  0  0  0  0  0
   -1.5747    3.0952   -3.5273 C   0  0  0  0  0  0  0  0  0  0  0  0
    1.3082   -2.1684   -3.4675 H   0  0  0  0  0  0  0  0  0  0  0  0
    0.1404   -3.4705   -3.8876 H   0  0  0  0  0  0  0  0  0  0  0  0
    0.5392   -3.1215   -2.1649 H   0  0  0  0  0  0  0  0  0  0  0  0
   -2.5351   -2.7235   -1.5238 H   0  0  0  0  0  0  0  0  0  0  0  0
   -2.9612   -3.0387   -3.2428 H   0  0  0  0  0  0  0  0  0  0  0  0
   -3.4800   -1.5157   -2.4434 H   0  0  0  0  0  0  0  0  0  0  0  0
   -2.1102    0.1715   -4.7022 H   0  0  0  0  0  0  0  0  0  0  0  0
   -1.5306   -1.3123   -5.5308 H   0  0  0  0  0  0  0  0  0  0  0  0
   -0.3637   -0.0360   -5.0511 H   0  0  0  0  0  0  0  0  0  0  0  0
    1.7480    3.3307   -1.1942 H   0  0  0  0  0  0  0  0  0  0  0  0
    1.1893    4.6004   -2.3405 H   0  0  0  0  0  0  0  0  0  0  0  0
    1.6693    2.9763   -2.9457 H   0  0  0  0  0  0  0  0  0  0  0  0
   -2.5144    3.4284   -0.3573 H   0  0  0  0  0  0  0  0  0  0  0  0
   -1.5792    4.9134   -0.7417 H   0  0  0  0  0  0  0  0  0  0  0  0
   -0.9402    3.7171    0.4376 H   0  0  0  0  0  0  0  0  0  0  0  0
   -1.0775    2.5477   -4.3532 H   0  0  0  0  0  0  0  0  0  0  0  0
   -1.6497    4.1638   -3.8182 H   0  0  0  0  0  0  0  0  0  0  0  0
   -2.6047    2.6958   -3.4269 H   0  0  0  0  0  0  0  0  0  0  0  0
  1  3  1  0  0  0  0
  1  9  1  0  0  0  0
  2  6  1  0  0  0  0
  2  4  1  0  0  0  0
  4  3  2  0  0  0  0
  5  2  1  0  0  0  0
  5 13  1  0  0  0  0
  6 16  1  0  0  0  0
  6 14  1  0  0  0  0
  7 17  1  0  0  0  0
  7  2  1  0  0  0  0
  8  1  1  0  0  0  0
  8 20  1  0  0  0  0
  9 23  1  0  0  0  0
  9 25  1  0  0  0  0
 10 28  1  0  0  0  0
 10  1  1  0  0  0  0
 11  5  1  0  0  0  0
 12  5  1  0  0  0  0
 15  6  1  0  0  0  0
 18  7  1  0  0  0  0
 19  7  1  0  0  0  0
 21  8  1  0  0  0  0
 22  8  1  0  0  0  0
 24  9  1  0  0  0  0
 26 10  1  0  0  0  0
 27 10  1  0  0  0  0
M  END
