1
q = -1.0

 28 29  0  0  0  0  0  0  0  0999 V2000
    1.3526    1.4090    1.4191 C   0  0  0  0  0  3  0  0  0  0  0  0
    0.7065    2.0917    1.9759 H   0  0  0  0  0  0  0  0  0  0  0  0
    1.7960    0.1112    1.8624 C   0  0  0  0  0  0  0  0  0  0  0  0
    2.7545   -0.3829    0.8872 C   0  0  0  0  0  0  0  0  0  0  0  0
    2.8904    0.6093   -0.1581 C   0  0  0  0  0  0  0  0  0  0  0  0
    2.0577    1.7044    0.2131 C   0  0  0  0  0  0  0  0  0  0  0  0
    1.9508    2.6295   -0.3655 H   0  0  0  0  0  0  0  0  0  0  0  0
    1.4770   -0.6698    3.0116 C   0  0  0  0  0  0  0  0  0  0  0  0
    0.7603   -0.2882    3.7492 H   0  0  0  0  0  0  0  0  0  0  0  0
    2.1035   -1.8932    3.1878 C   0  0  0  0  0  0  0  0  0  0  0  0
    1.8713   -2.5005    4.0755 H   0  0  0  0  0  0  0  0  0  0  0  0
    3.0526   -2.3755    2.2403 C   0  0  0  0  0  0  0  0  0  0  0  0
    3.5324   -3.3509    2.4108 H   0  0  0  0  0  0  0  0  0  0  0  0
    3.3791   -1.6443    1.1093 C   0  0  0  0  0  0  0  0  0  0  0  0
    4.1044   -2.0424    0.3884 H   0  0  0  0  0  0  0  0  0  0  0  0
    3.9198    0.5950   -1.2875 C   0  0  0  0  0  0  0  0  0  0  0  0
    5.3247    0.5858   -0.6334 C   0  0  0  0  0  0  0  0  0  0  0  0
    5.4588    1.4662    0.0273 H   0  0  0  0  0  0  0  0  0  0  0  0
    6.1068    0.6230   -1.4196 H   0  0  0  0  0  0  0  0  0  0  0  0
    5.4983   -0.3219   -0.0242 H   0  0  0  0  0  0  0  0  0  0  0  0
    3.8055    1.8663   -2.1491 C   0  0  0  0  0  0  0  0  0  0  0  0
    2.8031    1.9514   -2.6103 H   0  0  0  0  0  0  0  0  0  0  0  0
    4.5565    1.8343   -2.9640 H   0  0  0  0  0  0  0  0  0  0  0  0
    4.0016    2.7805   -1.5521 H   0  0  0  0  0  0  0  0  0  0  0  0
    3.7645   -0.6439   -2.1975 C   0  0  0  0  0  0  0  0  0  0  0  0
    2.8002   -0.6161   -2.7383 H   0  0  0  0  0  0  0  0  0  0  0  0
    3.7989   -1.5918   -1.6279 H   0  0  0  0  0  0  0  0  0  0  0  0
    4.5843   -0.6658   -2.9446 H   0  0  0  0  0  0  0  0  0  0  0  0
  1  3  1  0  0  0  0
  1  2  1  0  0  0  0
  3  8  1  0  0  0  0
  4 14  1  0  0  0  0
  4  3  2  0  0  0  0
  5  6  2  0  0  0  0
  5  4  1  0  0  0  0
  6  1  1  0  0  0  0
  7  6  1  0  0  0  0
  8 10  2  0  0  0  0
  8  9  1  0  0  0  0
 10 11  1  0  0  0  0
 12 13  1  0  0  0  0
 12 10  1  0  0  0  0
 14 12  2  0  0  0  0
 15 14  1  0  0  0  0
 16 17  1  0  0  0  0
 16  5  1  0  0  0  0
 17 20  1  0  0  0  0
 17 18  1  0  0  0  0
 19 17  1  0  0  0  0
 21 24  1  0  0  0  0
 21 16  1  0  0  0  0
 22 21  1  0  0  0  0
 23 21  1  0  0  0  0
 25 27  1  0  0  0  0
 25 16  1  0  0  0  0
 26 25  1  0  0  0  0
 28 25  1  0  0  0  0
M  END
