1
q = -1.0, confidence = 0.006

 30 31  0  0  1  0  0  0  0  0999 V2000
   -0.8295   -0.8294   -0.4475 C   0  0  0  0  0  3  0  0  0  0  0  0
   -0.9244   -0.1093   -1.2792 H   0  0  0  0  0  0  0  0  0  0  0  0
   -1.9406   -0.5841    0.5930 C   0  0  1  0  0  0  0  0  0  0  0  0
   -1.7081    0.1807    1.3569 H   0  0  0  0  0  0  0  0  0  0  0  0
   -3.2541   -0.2892   -0.1968 C   0  0  2  0  0  0  0  0  0  0  0  0
   -4.0308   -0.0419    0.5542 H   0  0  0  0  0  0  0  0  0  0  0  0
   -2.2489   -1.9966    1.1229 C   0  0  0  0  0  0  0  0  0  0  0  0
   -3.1626   -2.0275    1.7516 H   0  0  0  0  0  0  0  0  0  0  0  0
   -1.4018   -2.4281    1.6853 H   0  0  0  0  0  0  0  0  0  0  0  0
   -2.4584   -2.5992   -0.2787 C   0  0  2  0  0  0  0  0  0  0  0  0
   -2.7118   -3.6774   -0.3204 H   0  0  0  0  0  0  0  0  0  0  0  0
   -1.1032   -2.2733   -0.9733 C   0  0  2  0  0  0  0  0  0  0  0  0
   -1.2539   -2.2238   -2.0756 H   0  0  0  0  0  0  0  0  0  0  0  0
   -3.5624   -1.6768   -0.8536 C   0  0  0  0  0  0  0  0  0  0  0  0
   -4.5709   -2.0392   -0.5721 H   0  0  0  0  0  0  0  0  0  0  0  0
   -3.5307   -1.6361   -1.9638 H   0  0  0  0  0  0  0  0  0  0  0  0
   -2.3304    1.9447   -0.7569 O   0  0  0  0  0  0  0  0  0  0  0  0
   -3.9045    2.6184    0.7358 O   0  0  0  0  0  0  0  0  0  0  0  0
   -3.1932    0.8684   -1.1972 C   0  0  0  0  0  0  0  0  0  0  0  0
   -4.2078    1.2737   -1.3883 H   0  0  0  0  0  0  0  0  0  0  0  0
   -2.7505    0.5516   -2.1613 H   0  0  0  0  0  0  0  0  0  0  0  0
   -2.7887    2.7164    0.2652 C   0  0  0  0  0  0  0  0  0  0  0  0
   -0.0217   -3.3251   -0.7044 C   0  0  0  0  0  0  0  0  0  0  0  0
    0.1849   -3.4311    0.3776 H   0  0  0  0  0  0  0  0  0  0  0  0
    0.9354   -3.0361   -1.1870 H   0  0  0  0  0  0  0  0  0  0  0  0
   -0.3261   -4.3104   -1.1142 H   0  0  0  0  0  0  0  0  0  0  0  0
   -1.7081    3.6646    0.7316 C   0  0  0  0  0  0  0  0  0  0  0  0
   -1.2212    4.1638   -0.1285 H   0  0  0  0  0  0  0  0  0  0  0  0
   -0.9268    3.0810    1.2616 H   0  0  0  0  0  0  0  0  0  0  0  0
   -2.1373    4.4108    1.4219 H   0  0  0  0  0  0  0  0  0  0  0  0
  1  3  1  0  0  0  0
  2  1  1  0  0  0  0
  3  7  1  0  0  0  0
  3  4  1  1  0  0  0
  5  6  1  1  0  0  0
  5  3  1  0  0  0  0
  7  9  1  0  0  0  0
  7  8  1  0  0  0  0
 10 11  1  1  0  0  0
 10  7  1  0  0  0  0
 12 13  1  6  0  0  0
 12 23  1  0  0  0  0
 12  1  1  0  0  0  0
 12 10  1  0  0  0  0
 14 15  1  0  0  0  0
 14 10  1  0  0  0  0
 14  5  1  0  0  0  0
 16 14  1  0  0  0  0
 17 22  1  0  0  0  0
 19 17  1  0  0  0  0
 19  5  1  0  0  0  0
 20 19  1  0  0  0  0
 21 19  1  0  0  0  0
 22 27  1  0  0  0  0
 22 18  2  0  0  0  0
 23 24  1  0  0  0  0
 25 23  1  0  0  0  0
 26 23  1  0  0  0  0
 27 29  1  0  0  0  0
 27 30  1  0  0  0  0
 28 27  1  0  0  0  0
M  END
