1
q = -1.0

 22 21  0  0  1  0  0  0  0  0999 V2000
    0.5755   -0.9780   -1.7587 C   0  0  0  0  0  3  0  0  0  0  0  0
    1.4640   -0.3914   -0.7999 C   0  0  1  0  0  3  0  0  0  0  0  0
    1.2484    1.0126   -0.5935 C   0  0  0  0  0  3  0  0  0  0  0  0
    1.9774    1.9011    0.3984 C   0  0  1  0  0  0  0  0  0  0  0  0
    3.0693    2.7355   -0.2666 C   0  0  0  0  0  0  0  0  0  0  0  0
    2.5070   -1.2136   -0.0652 C   0  0  2  0  0  0  0  0  0  0  0  0
    3.8488   -1.1382   -0.8092 C   0  0  0  0  0  0  0  0  0  0  0  0
    1.0714    2.8244    1.0016 O   0  0  0  0  0  0  0  0  0  0  0  0
    2.0460   -2.5548    0.0060 O   0  0  0  0  0  0  0  0  0  0  0  0
    0.3023   -0.3778   -2.6432 H   0  0  0  0  0  0  0  0  0  0  0  0
    0.6267   -2.0648   -1.9152 H   0  0  0  0  0  0  0  0  0  0  0  0
    0.9165    1.5683   -1.4926 H   0  0  0  0  0  0  0  0  0  0  0  0
    2.4479    1.2605    1.1842 H   0  0  0  0  0  0  0  0  0  0  0  0
    3.5433    3.4039    0.4788 H   0  0  0  0  0  0  0  0  0  0  0  0
    3.8504    2.0916   -0.7156 H   0  0  0  0  0  0  0  0  0  0  0  0
    2.6321    3.3676   -1.0662 H   0  0  0  0  0  0  0  0  0  0  0  0
    2.6376   -0.7867    0.9572 H   0  0  0  0  0  0  0  0  0  0  0  0
    4.6221   -1.7306   -0.2764 H   0  0  0  0  0  0  0  0  0  0  0  0
    3.7375   -1.5456   -1.8336 H   0  0  0  0  0  0  0  0  0  0  0  0
    4.2150   -0.0950   -0.8815 H   0  0  0  0  0  0  0  0  0  0  0  0
    0.3544    2.2654    1.3645 H   0  0  0  0  0  0  0  0  0  0  0  0
    2.7093   -3.0678    0.5005 H   0  0  0  0  0  0  0  0  0  0  0  0
  2  1  1  1  0  0  0
  2  3  1  0  0  0  0
  2  6  1  0  0  0  0
  3  4  1  0  0  0  0
  4  8  1  0  0  0  0
  4 13  1  1  0  0  0
  5  4  1  0  0  0  0
  5 14  1  0  0  0  0
  6  9  1  0  0  0  0
  6 17  1  1  0  0  0
  7 18  1  0  0  0  0
  7  6  1  0  0  0  0
  8 21  1  0  0  0  0
  9 22  1  0  0  0  0
 10  1  1  0  0  0  0
 11  1  1  0  0  0  0
 12  3  1  0  0  0  0
 15  5  1  0  0  0  0
 16  5  1  0  0  0  0
 19  7  1  0  0  0  0
 20  7  1  0  0  0  0
M  END
