3
q = 0.0, confidence = 0.978

 42 43  0  0  1  0  0  0  0  0999 V2000
    0.6086   -1.0961   -1.3675 C   0  0  0  0  0  0  0  0  0  0  0  0
    1.7473   -0.2500   -1.5073 C   0  0  0  0  0  0  0  0  0  0  0  0
    1.6984    1.1298   -1.0877 C   0  0  2  0  0  3  0  0  0  0  0  0
    0.4860    1.6633   -0.5588 C   0  0  1  0  0  3  0  0  0  0  0  0
   -0.7452    0.8745   -0.6217 C   0  0  0  0  0  0  0  0  0  0  0  0
   -2.0551    1.4580   -0.4456 C   0  0  0  0  0  0  0  0  0  0  0  0
   -3.1484    0.6273   -0.1843 C   0  0  0  0  0  0  0  0  0  0  0  0
   -2.9910   -0.7980   -0.1187 C   0  0  0  0  0  0  0  0  0  0  0  0
   -1.7635   -1.3971   -0.4188 C   0  0  0  0  0  0  0  0  0  0  0  0
   -0.6399   -0.5633   -0.8150 C   0  0  0  0  0  0  0  0  0  0  0  0
    0.6785   -2.4744   -1.9971 C   0  0  0  0  0  0  0  0  0  0  0  0
    3.0391   -0.8029   -2.0605 C   0  0  0  0  0  0  0  0  0  0  0  0
    2.9252    1.9957   -1.2683 C   0  0  0  0  0  0  0  0  0  0  0  0
    0.5162    3.0386    0.0790 C   0  0  0  0  0  0  0  0  0  0  0  0
   -2.2900    2.9289   -0.7268 C   0  0  0  0  0  0  0  0  0  0  0  0
   -4.5207    1.2059    0.0664 C   0  0  0  0  0  0  0  0  0  0  0  0
   -4.1966   -1.6269    0.2594 C   0  0  0  0  0  0  0  0  0  0  0  0
   -1.6182   -2.8899   -0.2119 C   0  0  0  0  0  0  0  0  0  0  0  0
    1.2936   -2.4303   -2.9156 H   0  0  0  0  0  0  0  0  0  0  0  0
    1.1285   -3.2435   -1.3380 H   0  0  0  0  0  0  0  0  0  0  0  0
   -0.3206   -2.8272   -2.3005 H   0  0  0  0  0  0  0  0  0  0  0  0
    3.0978   -0.6630   -3.1625 H   0  0  0  0  0  0  0  0  0  0  0  0
    3.9150   -0.2976   -1.6169 H   0  0  0  0  0  0  0  0  0  0  0  0
    3.1493   -1.8811   -1.8512 H   0  0  0  0  0  0  0  0  0  0  0  0
    2.7195    3.0563   -1.0475 H   0  0  0  0  0  0  0  0  0  0  0  0
    3.2718    1.9401   -2.3201 H   0  0  0  0  0  0  0  0  0  0  0  0
    3.7696    1.6771   -0.6253 H   0  0  0  0  0  0  0  0  0  0  0  0
   -0.2803    3.1416    0.8347 H   0  0  0  0  0  0  0  0  0  0  0  0
    0.4133    3.8697   -0.6490 H   0  0  0  0  0  0  0  0  0  0  0  0
    1.4730    3.1769    0.6140 H   0  0  0  0  0  0  0  0  0  0  0  0
   -1.5031    3.3453   -1.3784 H   0  0  0  0  0  0  0  0  0  0  0  0
   -2.3412    3.5641    0.1822 H   0  0  0  0  0  0  0  0  0  0  0  0
   -3.2465    3.0612   -1.2673 H   0  0  0  0  0  0  0  0  0  0  0  0
   -4.9599    0.7873    0.9942 H   0  0  0  0  0  0  0  0  0  0  0  0
   -5.2299    0.9566   -0.7527 H   0  0  0  0  0  0  0  0  0  0  0  0
   -4.5105    2.3031    0.1783 H   0  0  0  0  0  0  0  0  0  0  0  0
   -4.0544   -2.7047    0.0757 H   0  0  0  0  0  0  0  0  0  0  0  0
   -4.4566   -1.5036    1.3337 H   0  0  0  0  0  0  0  0  0  0  0  0
   -5.0918   -1.3149   -0.3148 H   0  0  0  0  0  0  0  0  0  0  0  0
   -0.5748   -3.1960   -0.0519 H   0  0  0  0  0  0  0  0  0  0  0  0
   -2.0275   -3.4931   -1.0504 H   0  0  0  0  0  0  0  0  0  0  0  0
   -2.1659   -3.1929    0.7002 H   0  0  0  0  0  0  0  0  0  0  0  0
  1 10  1  0  0  0  0
  2  1  2  0  0  0  0
  2  3  1  0  0  0  0
  3 13  1  6  0  0  0
  3  4  1  0  0  0  0
  4 14  1  1  0  0  0
  5  4  1  0  0  0  0
  5  6  1  0  0  0  0
  6  7  2  0  0  0  0
  7  8  1  0  0  0  0
  7 16  1  0  0  0  0
  8 17  1  0  0  0  0
  9 18  1  0  0  0  0
  9  8  2  0  0  0  0
 10  5  2  0  0  0  0
 10  9  1  0  0  0  0
 11  1  1  0  0  0  0
 11 20  1  0  0  0  0
 12 24  1  0  0  0  0
 12 23  1  0  0  0  0
 12  2  1  0  0  0  0
 13 25  1  0  0  0  0
 13 27  1  0  0  0  0
 14 30  1  0  0  0  0
 14 28  1  0  0  0  0
 15  6  1  0  0  0  0
 15 32  1  0  0  0  0
 16 36  1  0  0  0  0
 16 34  1  0  0  0  0
 17 38  1  0  0  0  0
 18 40  1  0  0  0  0
 18 42  1  0  0  0  0
 19 11  1  0  0  0  0
 21 11  1  0  0  0  0
 22 12  1  0  0  0  0
 26 13  1  0  0  0  0
 29 14  1  0  0  0  0
 31 15  1  0  0  0  0
 33 15  1  0  0  0  0
 35 16  1  0  0  0  0
 37 17  1  0  0  0  0
 39 17  1  0  0  0  0
 41 18  1  0  0  0  0
M  END
