3
q = -1.0

 27 28  0  0  0  0  0  0  0  0999 V2000
    0.2794    1.6723    0.0784 C   0  0  0  0  0  3  0  0  0  0  0  0
   -0.8663    1.0680    0.0606 C   0  0  0  0  0  3  0  0  0  0  0  0
   -1.4572   -0.1742    0.0510 C   0  0  0  0  0  3  0  0  0  0  0  0
   -2.6986   -0.7275    0.0587 C   0  0  0  0  0  0  0  0  0  0  0  0
   -3.9758   -0.0149    0.0883 C   0  0  0  0  0  0  0  0  0  0  0  0
   -4.0669    1.3998    0.1171 C   0  0  0  0  0  0  0  0  0  0  0  0
   -5.3129    2.0337    0.1432 C   0  0  0  0  0  0  0  0  0  0  0  0
   -6.4980    1.2757    0.1424 C   0  0  0  0  0  0  0  0  0  0  0  0
   -6.4253   -0.1264    0.1158 C   0  0  0  0  0  0  0  0  0  0  0  0
   -5.1795   -0.7639    0.0888 C   0  0  0  0  0  0  0  0  0  0  0  0
    0.9348    2.9511    0.0419 C   0  0  0  0  0  0  0  0  0  0  0  0
    2.1948    3.1571    0.6563 C   0  0  0  0  0  0  0  0  0  0  0  0
    2.8136    4.4124    0.6221 C   0  0  0  0  0  0  0  0  0  0  0  0
    2.1922    5.4874   -0.0347 C   0  0  0  0  0  0  0  0  0  0  0  0
    0.9401    5.3004   -0.6463 C   0  0  0  0  0  0  0  0  0  0  0  0
    0.3131    4.0507   -0.6083 C   0  0  0  0  0  0  0  0  0  0  0  0
   -2.7768   -1.8290    0.0539 H   0  0  0  0  0  0  0  0  0  0  0  0
   -3.1452    2.0019    0.1231 H   0  0  0  0  0  0  0  0  0  0  0  0
   -5.3650    3.1327    0.1666 H   0  0  0  0  0  0  0  0  0  0  0  0
   -7.4760    1.7790    0.1639 H   0  0  0  0  0  0  0  0  0  0  0  0
   -7.3474   -0.7268    0.1159 H   0  0  0  0  0  0  0  0  0  0  0  0
   -5.1260   -1.8641    0.0673 H   0  0  0  0  0  0  0  0  0  0  0  0
    2.6699    2.3175    1.1822 H   0  0  0  0  0  0  0  0  0  0  0  0
    3.7873    4.5564    1.1142 H   0  0  0  0  0  0  0  0  0  0  0  0
    2.6811    6.4722   -0.0669 H   0  0  0  0  0  0  0  0  0  0  0  0
    0.4470    6.1407   -1.1579 H   0  0  0  0  0  0  0  0  0  0  0  0
   -0.6674    3.9017   -1.0849 H   0  0  0  0  0  0  0  0  0  0  0  0
  2  1  2  0  0  0  0
  3  4  2  0  0  0  0
  3  2  1  0  0  0  0
  4  5  1  0  0  0  0
  5 10  2  0  0  0  0
  5  6  1  0  0  0  0
  6 18  1  0  0  0  0
  6  7  2  0  0  0  0
  7 19  1  0  0  0  0
  8  7  1  0  0  0  0
  8 20  1  0  0  0  0
  9 21  1  0  0  0  0
  9  8  2  0  0  0  0
 10  9  1  0  0  0  0
 11  1  1  0  0  0  0
 11 12  1  0  0  0  0
 12 23  1  0  0  0  0
 13 12  2  0  0  0  0
 13 24  1  0  0  0  0
 14 13  1  0  0  0  0
 15 16  1  0  0  0  0
 15 14  2  0  0  0  0
 16 11  2  0  0  0  0
 17  4  1  0  0  0  0
 22 10  1  0  0  0  0
 25 14  1  0  0  0  0
 26 15  1  0  0  0  0
 27 16  1  0  0  0  0
M  END
