2
q = 0.0, confidence = 0.976

 17 17  0  0  0  0  0  0  0  0999 V2000
   -3.4062    2.1426   -0.3644 O   0  0  0  0  0  0  0  0  0  0  0  0
   -2.9533    0.9332   -0.1658 C   0  0  0  0  0  2  0  0  0  0  0  0
   -2.5324    3.2668   -0.5725 C   0  0  0  0  0  0  0  0  0  0  0  0
   -2.7840    3.7012   -1.5584 H   0  0  0  0  0  0  0  0  0  0  0  0
   -1.4720    2.9424   -0.5391 H   0  0  0  0  0  0  0  0  0  0  0  0
   -2.7475    4.0032    0.2248 H   0  0  0  0  0  0  0  0  0  0  0  0
   -4.0128   -0.0481    0.0225 C   0  0  0  0  0  0  0  0  0  0  0  0
   -3.6552   -1.4050    0.2419 C   0  0  0  0  0  0  0  0  0  0  0  0
   -2.5877   -1.6773    0.2623 H   0  0  0  0  0  0  0  0  0  0  0  0
   -4.6419   -2.3761    0.4278 C   0  0  0  0  0  0  0  0  0  0  0  0
   -4.3601   -3.4253    0.5971 H   0  0  0  0  0  0  0  0  0  0  0  0
   -5.9977   -2.0051    0.3973 C   0  0  0  0  0  0  0  0  0  0  0  0
   -6.7764   -2.7690    0.5440 H   0  0  0  0  0  0  0  0  0  0  0  0
   -6.3692   -0.6627    0.1808 C   0  0  0  0  0  0  0  0  0  0  0  0
   -7.4330   -0.3845    0.1592 H   0  0  0  0  0  0  0  0  0  0  0  0
   -5.3893    0.3115   -0.0059 C   0  0  0  0  0  0  0  0  0  0  0  0
   -5.6671    1.3610   -0.1753 H   0  0  0  0  0  0  0  0  0  0  0  0
  1  2  1  0  0  0  0
  2  7  1  0  0  0  0
  3  5  1  0  0  0  0
  3  1  1  0  0  0  0
  3  6  1  0  0  0  0
  4  3  1  0  0  0  0
  7  8  1  0  0  0  0
  8  9  1  0  0  0  0
  8 10  2  0  0  0  0
 10 11  1  0  0  0  0
 12 10  1  0  0  0  0
 12 13  1  0  0  0  0
 14 12  2  0  0  0  0
 15 14  1  0  0  0  0
 16  7  2  0  0  0  0
 16 14  1  0  0  0  0
 17 16  1  0  0  0  0
M  END
