1
q = 0.0, confidence = 0.858

 23 24  0  0  0  0  0  0  0  0999 V2000
   -0.5070   -0.0002    0.0001 C   0  0  0  0  0  2  0  0  0  0  0  0
   -1.3234   -1.2238    0.0244 C   0  0  0  0  0  0  0  0  0  0  0  0
   -1.0349   -2.3749   -0.7555 C   0  0  0  0  0  0  0  0  0  0  0  0
   -0.1928   -2.3524   -1.4588 H   0  0  0  0  0  0  0  0  0  0  0  0
   -1.8356   -3.5180   -0.6768 C   0  0  0  0  0  0  0  0  0  0  0  0
   -1.6065   -4.3851   -1.3142 H   0  0  0  0  0  0  0  0  0  0  0  0
   -2.9193   -3.5670    0.2171 C   0  0  0  0  0  0  0  0  0  0  0  0
   -3.5322   -4.4779    0.2934 H   0  0  0  0  0  0  0  0  0  0  0  0
   -3.2174   -2.4462    1.0086 C   0  0  0  0  0  0  0  0  0  0  0  0
   -4.0616   -2.4759    1.7141 H   0  0  0  0  0  0  0  0  0  0  0  0
   -2.4518   -1.2809    0.8925 C   0  0  0  0  0  0  0  0  0  0  0  0
   -2.6943   -0.4019    1.5073 H   0  0  0  0  0  0  0  0  0  0  0  0
   -1.3236    1.2234   -0.0241 C   0  0  0  0  0  0  0  0  0  0  0  0
   -2.4519    1.2804   -0.8924 C   0  0  0  0  0  0  0  0  0  0  0  0
   -2.6942    0.4014   -1.5072 H   0  0  0  0  0  0  0  0  0  0  0  0
   -3.2176    2.4456   -1.0086 C   0  0  0  0  0  0  0  0  0  0  0  0
   -4.0616    2.4751   -1.7143 H   0  0  0  0  0  0  0  0  0  0  0  0
   -2.9198    3.5664   -0.2171 C   0  0  0  0  0  0  0  0  0  0  0  0
   -3.5328    4.4772   -0.2935 H   0  0  0  0  0  0  0  0  0  0  0  0
   -1.8362    3.5175    0.6770 C   0  0  0  0  0  0  0  0  0  0  0  0
   -1.6073    4.3847    1.3144 H   0  0  0  0  0  0  0  0  0  0  0  0
   -1.0354    2.3745    0.7558 C   0  0  0  0  0  0  0  0  0  0  0  0
   -0.1935    2.3522    1.4594 H   0  0  0  0  0  0  0  0  0  0  0  0
  1  2  1  0  0  0  0
  2 11  1  0  0  0  0
  3  5  1  0  0  0  0
  3  2  2  0  0  0  0
  4  3  1  0  0  0  0
  5  7  2  0  0  0  0
  6  5  1  0  0  0  0
  7  8  1  0  0  0  0
  7  9  1  0  0  0  0
  9 10  1  0  0  0  0
 11  9  2  0  0  0  0
 11 12  1  0  0  0  0
 13  1  1  0  0  0  0
 13 22  1  0  0  0  0
 14 13  2  0  0  0  0
 15 14  1  0  0  0  0
 16 14  1  0  0  0  0
 16 18  2  0  0  0  0
 17 16  1  0  0  0  0
 18 20  1  0  0  0  0
 19 18  1  0  0  0  0
 20 22  2  0  0  0  0
 20 21  1  0  0  0  0
 22 23  1  0  0  0  0
M  END
