2
q = -1.0

 19 18  0  0  0  0  0  0  0  0999 V2000
    2.0507   -0.0275   -0.1050 N   0  0  0  0  0  0  0  0  0  0  0  0
    1.6610   -0.0306   -1.3299 C   0  0  0  0  0  3  0  0  0  0  0  0
    2.4152   -0.0593   -2.6187 C   0  0  0  0  0  0  0  0  0  0  0  0
    1.8046   -0.5647   -3.3936 H   0  0  0  0  0  0  0  0  0  0  0  0
    3.4222   -0.5241   -2.5855 H   0  0  0  0  0  0  0  0  0  0  0  0
    2.5368    0.9885   -2.9710 H   0  0  0  0  0  0  0  0  0  0  0  0
    3.4549   -0.0682    0.4354 C   0  0  0  0  0  0  0  0  0  0  0  0
    4.0762   -1.4555    0.1811 C   0  0  0  0  0  0  0  0  0  0  0  0
    5.1228   -1.4689    0.5471 H   0  0  0  0  0  0  0  0  0  0  0  0
    4.0879   -1.7113   -0.8954 H   0  0  0  0  0  0  0  0  0  0  0  0
    3.5248   -2.2499    0.7179 H   0  0  0  0  0  0  0  0  0  0  0  0
    4.3484    1.0009   -0.2256 C   0  0  0  0  0  0  0  0  0  0  0  0
    5.3491    0.9897    0.2522 H   0  0  0  0  0  0  0  0  0  0  0  0
    3.9250    2.0132   -0.0995 H   0  0  0  0  0  0  0  0  0  0  0  0
    4.4940    0.8179   -1.3057 H   0  0  0  0  0  0  0  0  0  0  0  0
    3.4043    0.1894    1.9481 C   0  0  0  0  0  0  0  0  0  0  0  0
    4.4142    0.0824    2.3921 H   0  0  0  0  0  0  0  0  0  0  0  0
    2.7248   -0.5231    2.4485 H   0  0  0  0  0  0  0  0  0  0  0  0
    3.0464    1.2135    2.1665 H   0  0  0  0  0  0  0  0  0  0  0  0
  1  7  1  0  0  0  0
  2  1  2  0  0  0  0
  3  5  1  0  0  0  0
  3  2  1  0  0  0  0
  4  3  1  0  0  0  0
  6  3  1  0  0  0  0
  7 16  1  0  0  0  0
  8  7  1  0  0  0  0
  8  9  1  0  0  0  0
  8 11  1  0  0  0  0
 10  8  1  0  0  0  0
 12 14  1  0  0  0  0
 12 13  1  0  0  0  0
 12  7  1  0  0  0  0
 15 12  1  0  0  0  0
 16 19  1  0  0  0  0
 16 17  1  0  0  0  0
 16 18  1  0  0  0  0
M  END
