8
q = -1.0, confidence = 0.076

 11 10  0  0  0  0  0  0  0  0999 V2000
   -1.0195   -0.5197    2.1783 F   0  0  0  0  0  0  0  0  0  0  0  0
   -1.2225    1.5160    1.3541 F   0  0  0  0  0  0  0  0  0  0  0  0
   -2.9697   -1.4907    0.6628 F   0  0  0  0  0  0  0  0  0  0  0  0
   -3.6318    1.9856    0.3415 F   0  0  0  0  0  0  0  0  0  0  0  0
   -5.6179   -0.8310    0.6200 F   0  0  0  0  0  0  0  0  0  0  0  0
   -6.0049    1.1676   -0.1759 F   0  0  0  0  0  0  0  0  0  0  0  0
   -4.9844   -0.3245   -1.4061 F   0  0  0  0  0  0  0  0  0  0  0  0
   -1.3327    0.1875    1.0379 C   0  0  0  0  0  0  0  0  0  0  0  0
   -2.7570   -0.1642    0.7010 C   0  0  0  0  0  0  0  0  0  0  0  0
   -3.7819    0.6551    0.3759 C   0  0  0  0  0  0  0  0  0  0  0  0
   -5.1257    0.1606   -0.1393 C   0  0  0  0  0  0  0  0  0  0  0  0
  3  9  1  0  0  0  0
  4 10  1  0  0  0  0
  6 11  1  0  0  0  0
  7 11  1  0  0  0  0
  8  2  1  0  0  0  0
  8  1  1  0  0  0  0
  9  8  1  0  0  0  0
 10  9  2  0  0  0  0
 11 10  1  0  0  0  0
 11  5  1  0  0  0  0
M  END
