3
q = -1.0

 22 24  0  0  0  0  0  0  0  0999 V2000
    0.9263   -2.0474   -0.5074 C   0  0  0  0  0  0  0  0  0  0  0  0
    1.8494   -1.4405   -1.3952 C   0  0  0  0  0  0  0  0  0  0  0  0
    1.5460   -0.2052   -2.0576 C   0  0  0  0  0  3  0  0  0  0  0  0
    0.2996    0.4334   -1.7763 C   0  0  0  0  0  3  0  0  0  0  0  0
   -2.7100    1.3872   -0.7061 C   0  0  0  0  0  0  0  0  0  0  0  0
   -4.0196    1.4558   -0.2149 C   0  0  0  0  0  3  0  0  0  0  0  0
   -4.5896    0.3499    0.4592 C   0  0  0  0  0  0  0  0  0  0  0  0
   -3.8732   -0.8371    0.6523 C   0  0  0  0  0  0  0  0  0  0  0  0
   -1.5791   -2.0020    0.2240 C   0  0  0  0  0  0  0  0  0  0  0  0
   -0.4344   -1.5766   -0.4277 C   0  0  0  0  0  0  0  0  0  0  0  0
   -0.6371   -0.1845   -0.9157 C   0  0  0  0  0  0  0  0  0  0  0  0
   -1.9742    0.2063   -0.5104 C   0  0  0  0  0  0  0  0  0  0  0  0
   -2.5502   -0.9284    0.1670 C   0  0  0  0  0  0  0  0  0  0  0  0
    1.2338   -2.9526    0.0367 H   0  0  0  0  0  0  0  0  0  0  0  0
    2.8474   -1.8843   -1.5233 H   0  0  0  0  0  0  0  0  0  0  0  0
    2.2761    0.2613   -2.7313 H   0  0  0  0  0  0  0  0  0  0  0  0
    0.0841    1.4218   -2.2096 H   0  0  0  0  0  0  0  0  0  0  0  0
   -2.2629    2.2505   -1.2236 H   0  0  0  0  0  0  0  0  0  0  0  0
   -4.6082    2.3757   -0.3471 H   0  0  0  0  0  0  0  0  0  0  0  0
   -5.6196    0.4273    0.8405 H   0  0  0  0  0  0  0  0  0  0  0  0
   -4.3336   -1.6881    1.1770 H   0  0  0  0  0  0  0  0  0  0  0  0
   -1.7089   -2.9526    0.7556 H   0  0  0  0  0  0  0  0  0  0  0  0
  1 10  1  0  0  0  0
  1 14  1  0  0  0  0
  2  1  2  0  0  0  0
  3  4  1  0  0  0  0
  3  2  1  0  0  0  0
  4 11  1  0  0  0  0
  5 12  2  0  0  0  0
  5  6  1  0  0  0  0
  6  7  1  0  0  0  0
  7  8  2  0  0  0  0
  7 20  1  0  0  0  0
  8 21  1  0  0  0  0
  9 22  1  0  0  0  0
 10  9  1  0  0  0  0
 11 12  1  0  0  0  0
 11 10  2  0  0  0  0
 12 13  1  0  0  0  0
 13  9  2  0  0  0  0
 13  8  1  0  0  0  0
 15  2  1  0  0  0  0
 16  3  1  0  0  0  0
 17  4  1  0  0  0  0
 18  5  1  0  0  0  0
 19  6  1  0  0  0  0
M  END
