8
q = -1.0, confidence = 0.0

 21 21  0  0  1  0  0  0  0  0999 V2000
    4.1826   -0.8474    0.2928 Cl  0  0  0  0  0  0  0  0  0  0  0  0
    2.4113   -0.8059    0.7827 C   0  0  1  0  0  0  0  0  0  0  0  0
    2.1514    0.3370    1.7639 C   0  0  0  0  0  0  0  0  0  0  0  0
    2.5179    1.7531    1.3168 C   0  0  0  0  0  0  0  0  0  0  0  0
    1.6655    2.3318    0.1846 C   0  0  0  0  0  0  0  0  0  0  0  0
    1.8486    1.6766   -1.1899 C   0  0  0  0  0  0  0  0  0  0  0  0
    1.3605    0.2604   -1.3693 C   0  0  0  0  0  3  0  0  0  0  0  0
    1.6202   -0.8578   -0.5082 C   0  0  2  0  0  3  0  0  0  0  0  0
    0.8926   -2.0428   -0.8555 C   0  0  0  0  0  3  0  0  0  0  0  0
    2.2562   -1.7647    1.3129 H   0  0  0  0  0  0  0  0  0  0  0  0
    2.7073    0.0939    2.6931 H   0  0  0  0  0  0  0  0  0  0  0  0
    1.0679    0.2853    2.0169 H   0  0  0  0  0  0  0  0  0  0  0  0
    2.4286    2.4164    2.2028 H   0  0  0  0  0  0  0  0  0  0  0  0
    3.5919    1.7671    1.0296 H   0  0  0  0  0  0  0  0  0  0  0  0
    0.5884    2.2861    0.4526 H   0  0  0  0  0  0  0  0  0  0  0  0
    1.9145    3.4089    0.0779 H   0  0  0  0  0  0  0  0  0  0  0  0
    2.9278    1.7003   -1.4746 H   0  0  0  0  0  0  0  0  0  0  0  0
    1.3252    2.2975   -1.9457 H   0  0  0  0  0  0  0  0  0  0  0  0
    1.1756   -0.0086   -2.4272 H   0  0  0  0  0  0  0  0  0  0  0  0
    0.8956   -2.9004   -0.1632 H   0  0  0  0  0  0  0  0  0  0  0  0
    0.7146   -2.2927   -1.9160 H   0  0  0  0  0  0  0  0  0  0  0  0
  1  2  1  0  0  0  0
  2 10  1  1  0  0  0
  2  3  1  0  0  0  0
  3 12  1  0  0  0  0
  3 11  1  0  0  0  0
  4  3  1  0  0  0  0
  4 13  1  0  0  0  0
  5 15  1  0  0  0  0
  5  4  1  0  0  0  0
  6  5  1  0  0  0  0
  7  6  1  0  0  0  0
  7  8  1  0  0  0  0
  8  9  1  1  0  0  0
  8  2  1  0  0  0  0
  9 20  1  0  0  0  0
 14  4  1  0  0  0  0
 16  5  1  0  0  0  0
 17  6  1  0  0  0  0
 18  6  1  0  0  0  0
 19  7  1  0  0  0  0
 21  9  1  0  0  0  0
M  END
