10
q = -1.0

 27 27  0  0  1  0  0  0  0  0999 V2000
    1.1075   -2.9634    0.8110 Cl  0  0  0  0  0  0  0  0  0  0  0  0
    1.8110   -1.2876    0.8977 C   0  0  1  0  0  0  0  0  0  0  0  0
    3.3463   -1.3790    0.8142 C   0  0  0  0  0  0  0  0  0  0  0  0
    4.0909   -0.0581    1.1340 C   0  0  0  0  0  0  0  0  0  0  0  0
    4.7859    0.6407   -0.0472 C   0  0  0  0  0  0  0  0  0  0  0  0
    3.8988    1.2470   -1.1469 C   0  0  0  0  0  0  0  0  0  0  0  0
    2.9969    2.4276   -0.7101 C   0  0  0  0  0  0  0  0  0  0  0  0
    1.4792    2.1427   -0.8006 C   0  0  0  0  0  0  0  0  0  0  0  0
    1.0886    1.0239    0.1341 C   0  0  0  0  0  3  0  0  0  0  0  0
    1.2595   -0.3765   -0.1714 C   0  0  2  0  0  3  0  0  0  0  0  0
    0.7486   -0.8225   -1.4286 C   0  0  0  0  0  3  0  0  0  0  0  0
    1.5126   -0.9030    1.8935 H   0  0  0  0  0  0  0  0  0  0  0  0
    3.6178   -1.7547   -0.1954 H   0  0  0  0  0  0  0  0  0  0  0  0
    3.6530   -2.1684    1.5285 H   0  0  0  0  0  0  0  0  0  0  0  0
    4.8718   -0.2792    1.8905 H   0  0  0  0  0  0  0  0  0  0  0  0
    3.4021    0.6526    1.6398 H   0  0  0  0  0  0  0  0  0  0  0  0
    5.4845   -0.0860   -0.5179 H   0  0  0  0  0  0  0  0  0  0  0  0
    5.4317    1.4475    0.3653 H   0  0  0  0  0  0  0  0  0  0  0  0
    3.2766    0.4469   -1.6026 H   0  0  0  0  0  0  0  0  0  0  0  0
    4.5701    1.5855   -1.9633 H   0  0  0  0  0  0  0  0  0  0  0  0
    3.2147    3.3201   -1.3332 H   0  0  0  0  0  0  0  0  0  0  0  0
    3.2430    2.7292    0.3321 H   0  0  0  0  0  0  0  0  0  0  0  0
    1.2161    1.8979   -1.8502 H   0  0  0  0  0  0  0  0  0  0  0  0
    0.9095    3.0582   -0.5392 H   0  0  0  0  0  0  0  0  0  0  0  0
    1.2066    1.2841    1.2034 H   0  0  0  0  0  0  0  0  0  0  0  0
    0.6672   -1.9061   -1.6033 H   0  0  0  0  0  0  0  0  0  0  0  0
    0.8214   -0.1857   -2.3251 H   0  0  0  0  0  0  0  0  0  0  0  0
  1  2  1  0  0  0  0
  2 12  1  1  0  0  0
  3  2  1  0  0  0  0
  3  4  1  0  0  0  0
  3 14  1  0  0  0  0
  4 16  1  0  0  0  0
  4 15  1  0  0  0  0
  5 18  1  0  0  0  0
  5  4  1  0  0  0  0
  6  7  1  0  0  0  0
  6  5  1  0  0  0  0
  7 22  1  0  0  0  0
  8  7  1  0  0  0  0
  8 24  1  0  0  0  0
  8  9  1  0  0  0  0
  9 25  1  0  0  0  0
 10 11  1  1  0  0  0
 10  9  1  0  0  0  0
 10  2  1  0  0  0  0
 13  3  1  0  0  0  0
 17  5  1  0  0  0  0
 19  6  1  0  0  0  0
 20  6  1  0  0  0  0
 21  7  1  0  0  0  0
 23  8  1  0  0  0  0
 26 11  1  0  0  0  0
 27 11  1  0  0  0  0
M  END
