4
q = -1.0

 29 30  0  0  1  0  0  0  0  0999 V2000
    0.7201   -2.8909    0.7083 Cl  0  0  0  0  0  0  0  0  0  0  0  0
    0.3995   -1.1973    0.4274 C   0  0  1  0  0  3  0  0  0  0  0  0
   -0.2635   -0.4605    1.4195 C   0  0  0  0  0  3  0  0  0  0  0  0
   -0.6189    0.9168    1.1983 C   0  0  1  0  0  3  0  0  0  0  0  0
   -0.2696    1.4886   -0.0849 C   0  0  1  0  0  3  0  0  0  0  0  0
    0.2957    0.6388   -1.0689 C   0  0  0  0  0  3  0  0  0  0  0  0
    1.2040   -0.5195   -0.6651 C   0  0  1  0  0  0  0  0  0  0  0  0
    2.6387   -0.1482   -0.3116 C   0  0  0  0  0  0  0  0  0  0  0  0
    2.9548    0.5343    0.8802 C   0  0  0  0  0  0  0  0  0  0  0  0
    4.2797    0.8929    1.1658 C   0  0  0  0  0  0  0  0  0  0  0  0
    5.3083    0.5772    0.2628 C   0  0  0  0  0  0  0  0  0  0  0  0
    5.0045   -0.1035   -0.9260 C   0  0  0  0  0  0  0  0  0  0  0  0
    3.6780   -0.4639   -1.2074 C   0  0  0  0  0  0  0  0  0  0  0  0
   -0.5173    3.3337   -1.5809 C   0  0  0  0  0  0  0  0  0  0  0  0
   -1.3798    1.6466    2.2406 C   0  0  0  0  0  0  0  0  0  0  0  0
   -0.6588    2.7659   -0.2834 O   0  0  0  0  0  0  0  0  0  0  0  0
   -1.6392    1.1693    3.3351 O   0  0  0  0  0  0  0  0  0  0  0  0
   -0.6099   -0.9249    2.3549 H   0  0  0  0  0  0  0  0  0  0  0  0
    0.4039    1.0226   -2.0924 H   0  0  0  0  0  0  0  0  0  0  0  0
    1.2451   -1.2177   -1.5242 H   0  0  0  0  0  0  0  0  0  0  0  0
    2.1587    0.7816    1.5979 H   0  0  0  0  0  0  0  0  0  0  0  0
    4.5120    1.4208    2.1032 H   0  0  0  0  0  0  0  0  0  0  0  0
    6.3480    0.8582    0.4892 H   0  0  0  0  0  0  0  0  0  0  0  0
    5.8050   -0.3608   -1.6362 H   0  0  0  0  0  0  0  0  0  0  0  0
    3.4414   -1.0050   -2.1378 H   0  0  0  0  0  0  0  0  0  0  0  0
   -0.8351    4.3876   -1.4885 H   0  0  0  0  0  0  0  0  0  0  0  0
   -1.1731    2.8207   -2.3164 H   0  0  0  0  0  0  0  0  0  0  0  0
    0.5367    3.2942   -1.9290 H   0  0  0  0  0  0  0  0  0  0  0  0
   -1.7091    2.6804    1.9458 H   0  0  0  0  0  0  0  0  0  0  0  0
  2  1  1  1  0  0  0
  2  3  1  0  0  0  0
  3 18  1  0  0  0  0
  4  3  1  0  0  0  0
  4 15  1  6  0  0  0
  5 16  1  6  0  0  0
  5  4  1  0  0  0  0
  6  7  1  0  0  0  0
  6  5  1  0  0  0  0
  7 20  1  6  0  0  0
  7  8  1  0  0  0  0
  7  2  1  0  0  0  0
  8  9  1  0  0  0  0
  9 10  2  0  0  0  0
  9 21  1  0  0  0  0
 10 22  1  0  0  0  0
 11 23  1  0  0  0  0
 11 10  1  0  0  0  0
 12 11  2  0  0  0  0
 13 12  1  0  0  0  0
 13  8  2  0  0  0  0
 14 26  1  0  0  0  0
 14 16  1  0  0  0  0
 15 17  2  0  0  0  0
 19  6  1  0  0  0  0
 24 12  1  0  0  0  0
 25 13  1  0  0  0  0
 27 14  1  0  0  0  0
 28 14  1  0  0  0  0
 29 15  1  0  0  0  0
M  END
