3
q = -1.0, confidence = 0.0

 34 35  0  0  0  0  0  0  0  0999 V2000
    2.5763   -1.1327   -0.5956 C   0  0  0  0  0  3  0  0  0  0  0  0
    2.9086   -1.2087   -1.6453 H   0  0  0  0  0  0  0  0  0  0  0  0
    2.4259    0.2158   -0.1264 C   0  0  0  0  0  3  0  0  0  0  0  0
    1.7316    0.4915    1.1036 C   0  0  0  0  0  3  0  0  0  0  0  0
    1.4777    1.5605    1.2250 H   0  0  0  0  0  0  0  0  0  0  0  0
    1.8035   -0.2272    2.4393 C   0  0  0  0  0  0  0  0  0  0  0  0
    1.5422   -1.3008    2.3608 H   0  0  0  0  0  0  0  0  0  0  0  0
    1.0092    0.2141    3.0721 H   0  0  0  0  0  0  0  0  0  0  0  0
    3.1537   -0.0783    3.1821 C   0  0  0  0  0  0  0  0  0  0  0  0
    3.5664    0.9379    2.9906 H   0  0  0  0  0  0  0  0  0  0  0  0
    2.9337   -0.1058    4.2708 H   0  0  0  0  0  0  0  0  0  0  0  0
    4.2414   -1.1327    2.9114 C   0  0  0  0  0  0  0  0  0  0  0  0
    3.8293   -2.1405    3.1451 H   0  0  0  0  0  0  0  0  0  0  0  0
    5.0347   -0.9676    3.6708 H   0  0  0  0  0  0  0  0  0  0  0  0
    4.9006   -1.1596    1.5114 C   0  0  0  0  0  0  0  0  0  0  0  0
    4.7402   -0.1865    0.9989 H   0  0  0  0  0  0  0  0  0  0  0  0
    6.0008   -1.2401    1.6347 H   0  0  0  0  0  0  0  0  0  0  0  0
    4.4617   -2.3123    0.5962 C   0  0  0  0  0  0  0  0  0  0  0  0
    4.7131   -3.2785    1.0876 H   0  0  0  0  0  0  0  0  0  0  0  0
    5.0631   -2.2800   -0.3384 H   0  0  0  0  0  0  0  0  0  0  0  0
    2.9643   -2.3391    0.2259 C   0  0  0  0  0  0  0  0  0  0  0  0
    2.7442   -3.2439   -0.3754 H   0  0  0  0  0  0  0  0  0  0  0  0
    2.3573   -2.4350    1.1450 H   0  0  0  0  0  0  0  0  0  0  0  0
    2.7109    1.3612   -1.0485 C   0  0  0  0  0  0  0  0  0  0  0  0
    3.2711    2.5475   -0.5285 C   0  0  0  0  0  0  0  0  0  0  0  0
    3.5182    2.6009    0.5428 H   0  0  0  0  0  0  0  0  0  0  0  0
    3.5244    3.6480   -1.3622 C   0  0  0  0  0  0  0  0  0  0  0  0
    3.9657    4.5631   -0.9385 H   0  0  0  0  0  0  0  0  0  0  0  0
    3.2200    3.5800   -2.7301 C   0  0  0  0  0  0  0  0  0  0  0  0
    3.4126    4.4437   -3.3845 H   0  0  0  0  0  0  0  0  0  0  0  0
    2.6667    2.4010   -3.2596 C   0  0  0  0  0  0  0  0  0  0  0  0
    2.4137    2.3422   -4.3291 H   0  0  0  0  0  0  0  0  0  0  0  0
    2.4167    1.3007   -2.4300 C   0  0  0  0  0  0  0  0  0  0  0  0
    1.9414    0.3968   -2.8426 H   0  0  0  0  0  0  0  0  0  0  0  0
  1  3  1  0  0  0  0
  1 21  1  0  0  0  0
  2  1  1  0  0  0  0
  3  4  1  0  0  0  0
  4  5  1  0  0  0  0
  4  6  1  0  0  0  0
  6  8  1  0  0  0  0
  6  9  1  0  0  0  0
  7  6  1  0  0  0  0
  9 11  1  0  0  0  0
 10  9  1  0  0  0  0
 12 13  1  0  0  0  0
 12  9  1  0  0  0  0
 12 14  1  0  0  0  0
 15 17  1  0  0  0  0
 15 12  1  0  0  0  0
 16 15  1  0  0  0  0
 18 19  1  0  0  0  0
 18 15  1  0  0  0  0
 20 18  1  0  0  0  0
 21 18  1  0  0  0  0
 21 23  1  0  0  0  0
 22 21  1  0  0  0  0
 24 25  1  0  0  0  0
 24  3  1  0  0  0  0
 25 26  1  0  0  0  0
 27 28  1  0  0  0  0
 27 25  2  0  0  0  0
 29 27  1  0  0  0  0
 30 29  1  0  0  0  0
 31 29  2  0  0  0  0
 31 33  1  0  0  0  0
 32 31  1  0  0  0  0
 33 24  2  0  0  0  0
 34 33  1  0  0  0  0
M  END
