4
q = -1.0, confidence = 0.0

 30 30  0  0  1  0  0  0  0  0999 V2000
   -1.3608    0.7328    1.8133 C   0  0  0  0  0  3  0  0  0  0  0  0
   -1.2129    0.0697    2.6768 H   0  0  0  0  0  0  0  0  0  0  0  0
   -0.9329    1.7418    1.9221 H   0  0  0  0  0  0  0  0  0  0  0  0
   -2.4371    0.5360    0.8906 C   0  0  2  0  0  3  0  0  0  0  0  0
   -2.8599   -0.8002    0.5728 C   0  0  0  0  0  3  0  0  0  0  0  0
   -3.5168   -0.8430   -0.3127 H   0  0  0  0  0  0  0  0  0  0  0  0
   -3.1376   -1.9818    1.5211 C   0  0  0  0  0  0  0  0  0  0  0  0
   -4.2649   -1.5370    2.4827 C   0  0  0  0  0  0  0  0  0  0  0  0
   -3.9282   -0.7075    3.1372 H   0  0  0  0  0  0  0  0  0  0  0  0
   -4.5786   -2.3839    3.1285 H   0  0  0  0  0  0  0  0  0  0  0  0
   -5.1562   -1.1889    1.9218 H   0  0  0  0  0  0  0  0  0  0  0  0
   -3.6377   -3.1544    0.6533 C   0  0  0  0  0  0  0  0  0  0  0  0
   -2.8587   -3.4600   -0.0741 H   0  0  0  0  0  0  0  0  0  0  0  0
   -4.5440   -2.8693    0.0806 H   0  0  0  0  0  0  0  0  0  0  0  0
   -3.8954   -4.0258    1.2887 H   0  0  0  0  0  0  0  0  0  0  0  0
   -1.9324   -2.4867    2.3419 C   0  0  0  0  0  0  0  0  0  0  0  0
   -1.5855   -1.7558    3.0977 H   0  0  0  0  0  0  0  0  0  0  0  0
   -1.0816   -2.7369    1.6750 H   0  0  0  0  0  0  0  0  0  0  0  0
   -2.2217   -3.4061    2.8917 H   0  0  0  0  0  0  0  0  0  0  0  0
   -2.8823    1.6887    0.0441 C   0  0  0  0  0  0  0  0  0  0  0  0
   -3.0701    1.5614   -1.3514 C   0  0  0  0  0  0  0  0  0  0  0  0
   -2.8659    0.5960   -1.8408 H   0  0  0  0  0  0  0  0  0  0  0  0
   -3.4460    2.6690   -2.1214 C   0  0  0  0  0  0  0  0  0  0  0  0
   -3.5690    2.5557   -3.2091 H   0  0  0  0  0  0  0  0  0  0  0  0
   -3.6462    3.9218   -1.5158 C   0  0  0  0  0  0  0  0  0  0  0  0
   -3.9395    4.7906   -2.1246 H   0  0  0  0  0  0  0  0  0  0  0  0
   -3.4681    4.0575   -0.1307 C   0  0  0  0  0  0  0  0  0  0  0  0
   -3.6284    5.0323    0.3549 H   0  0  0  0  0  0  0  0  0  0  0  0
   -3.0869    2.9499    0.6425 C   0  0  0  0  0  0  0  0  0  0  0  0
   -2.9547    3.0580    1.7297 H   0  0  0  0  0  0  0  0  0  0  0  0
  1  3  1  0  0  0  0
  1  2  1  0  0  0  0
  4  5  1  6  0  0  0
  4  1  1  0  0  0  0
  5  7  1  0  0  0  0
  6  5  1  0  0  0  0
  7 16  1  0  0  0  0
  7  8  1  0  0  0  0
  8 10  1  0  0  0  0
  8  9  1  0  0  0  0
 11  8  1  0  0  0  0
 12 15  1  0  0  0  0
 12  7  1  0  0  0  0
 13 12  1  0  0  0  0
 14 12  1  0  0  0  0
 16 19  1  0  0  0  0
 16 17  1  0  0  0  0
 18 16  1  0  0  0  0
 20 29  1  0  0  0  0
 20  4  1  0  0  0  0
 21 20  2  0  0  0  0
 22 21  1  0  0  0  0
 23 25  2  0  0  0  0
 23 21  1  0  0  0  0
 24 23  1  0  0  0  0
 25 27  1  0  0  0  0
 26 25  1  0  0  0  0
 27 28  1  0  0  0  0
 27 29  2  0  0  0  0
 29 30  1  0  0  0  0
M  END
