8
q = -1.0

 35 35  0  0  1  0  0  0  0  0999 V2000
   -3.1788   -0.5886    0.7861 P   0  0  0  0  0  0  0  0  0  0  0  0
   -2.4903   -1.1277    2.0140 O   0  0  0  0  0  0  0  0  0  0  0  0
   -4.6651    0.0727    1.0458 O   0  0  0  0  0  0  0  0  0  0  0  0
   -3.4555   -1.7969   -0.2712 O   0  0  0  0  0  0  0  0  0  0  0  0
   -0.7424    1.3156    1.6225 C   0  0  0  0  0  3  0  0  0  0  0  0
   -1.1240    0.5390    2.3039 H   0  0  0  0  0  0  0  0  0  0  0  0
    0.0378    1.9900    2.0070 H   0  0  0  0  0  0  0  0  0  0  0  0
   -1.5419    1.7430    0.5183 C   0  0  2  0  0  3  0  0  0  0  0  0
   -2.3856    0.7604   -0.1110 C   0  0  0  0  0  3  0  0  0  0  0  0
   -1.2963    3.0632   -0.1332 C   0  0  0  0  0  0  0  0  0  0  0  0
   -1.0566    4.2013    0.6655 C   0  0  0  0  0  0  0  0  0  0  0  0
   -1.0993    4.1096    1.7611 H   0  0  0  0  0  0  0  0  0  0  0  0
   -0.7837    5.4436    0.0735 C   0  0  0  0  0  0  0  0  0  0  0  0
   -0.6068    6.3242    0.7096 H   0  0  0  0  0  0  0  0  0  0  0  0
   -0.7404    5.5631   -1.3242 C   0  0  0  0  0  0  0  0  0  0  0  0
   -0.5206    6.5360   -1.7895 H   0  0  0  0  0  0  0  0  0  0  0  0
   -0.9765    4.4341   -2.1275 C   0  0  0  0  0  0  0  0  0  0  0  0
   -0.9293    4.5167   -3.2238 H   0  0  0  0  0  0  0  0  0  0  0  0
   -1.2553    3.1940   -1.5398 C   0  0  0  0  0  0  0  0  0  0  0  0
   -1.3895    2.3023   -2.1723 H   0  0  0  0  0  0  0  0  0  0  0  0
   -5.6154   -0.6848    1.8313 C   0  0  0  0  0  0  0  0  0  0  0  0
   -6.6150   -0.3750    1.4621 H   0  0  0  0  0  0  0  0  0  0  0  0
   -5.4993   -1.7697    1.6138 H   0  0  0  0  0  0  0  0  0  0  0  0
   -5.4589   -0.4073    3.3170 C   0  0  0  0  0  0  0  0  0  0  0  0
   -4.4581   -0.7354    3.6581 H   0  0  0  0  0  0  0  0  0  0  0  0
   -6.2324   -0.9542    3.8938 H   0  0  0  0  0  0  0  0  0  0  0  0
   -5.5686    0.6756    3.5258 H   0  0  0  0  0  0  0  0  0  0  0  0
   -4.1113   -1.5806   -1.5385 C   0  0  0  0  0  0  0  0  0  0  0  0
   -3.4472   -0.9668   -2.1859 H   0  0  0  0  0  0  0  0  0  0  0  0
   -5.0630   -1.0286   -1.3700 H   0  0  0  0  0  0  0  0  0  0  0  0
   -4.3506   -2.9327   -2.1779 C   0  0  0  0  0  0  0  0  0  0  0  0
   -3.3840   -3.4451   -2.3523 H   0  0  0  0  0  0  0  0  0  0  0  0
   -4.8610   -2.8067   -3.1537 H   0  0  0  0  0  0  0  0  0  0  0  0
   -4.9802   -3.5747   -1.5301 H   0  0  0  0  0  0  0  0  0  0  0  0
   -2.9069    1.0572   -1.0353 H   0  0  0  0  0  0  0  0  0  0  0  0
  1  3  1  0  0  0  0
  1  2  2  0  0  0  0
  3 21  1  0  0  0  0
  4  1  1  0  0  0  0
  5  7  1  0  0  0  0
  5  6  1  0  0  0  0
  8  9  1  6  0  0  0
  8  5  1  0  0  0  0
  9  1  1  0  0  0  0
 10  8  1  0  0  0  0
 10 11  1  0  0  0  0
 11 12  1  0  0  0  0
 13 11  2  0  0  0  0
 13 14  1  0  0  0  0
 15 13  1  0  0  0  0
 16 15  1  0  0  0  0
 17 19  1  0  0  0  0
 17 15  2  0  0  0  0
 18 17  1  0  0  0  0
 19 10  2  0  0  0  0
 20 19  1  0  0  0  0
 21 24  1  0  0  0  0
 22 21  1  0  0  0  0
 23 21  1  0  0  0  0
 24 27  1  0  0  0  0
 24 25  1  0  0  0  0
 24 26  1  0  0  0  0
 28 30  1  0  0  0  0
 28  4  1  0  0  0  0
 29 28  1  0  0  0  0
 31 28  1  0  0  0  0
 31 34  1  0  0  0  0
 32 31  1  0  0  0  0
 33 31  1  0  0  0  0
 35  9  1  0  0  0  0
M  END
