4
q = -1.0

 11 11  0  0  0  0  0  0  0  0999 V2000
    1.7120   -0.0185   -2.2912 F   0  0  0  0  0  0  0  0  0  0  0  0
    5.5963    1.4321   -0.0320 F   0  0  0  0  0  0  0  0  0  0  0  0
    2.2643   -0.9475    2.3168 F   0  0  0  0  0  0  0  0  0  0  0  0
    1.9470   -0.5532    0.0049 C   0  0  0  0  0  3  0  0  0  0  0  0
    2.4527    0.0357   -1.1592 C   0  0  0  0  0  0  0  0  0  0  0  0
    3.6773    0.7111   -1.2074 C   0  0  0  0  0  0  0  0  0  0  0  0
    4.0392    1.1665   -2.1377 H   0  0  0  0  0  0  0  0  0  0  0  0
    4.4170    0.7860   -0.0216 C   0  0  0  0  0  0  0  0  0  0  0  0
    3.9673    0.2182    1.1762 C   0  0  0  0  0  0  0  0  0  0  0  0
    4.5582    0.2877    2.0984 H   0  0  0  0  0  0  0  0  0  0  0  0
    2.7312   -0.4412    1.1585 C   0  0  0  0  0  0  0  0  0  0  0  0
  1  5  1  0  0  0  0
  2  8  1  0  0  0  0
  4 11  1  0  0  0  0
  5  4  2  0  0  0  0
  6  5  1  0  0  0  0
  6  8  2  0  0  0  0
  7  6  1  0  0  0  0
  8  9  1  0  0  0  0
  9 10  1  0  0  0  0
 11  9  2  0  0  0  0
 11  3  1  0  0  0  0
M  END
