2
q = 0.0, confidence = 0.992

 59 62  0  0  0  0  0  0  0  0999 V2000
    1.2327    1.1240    0.6963 N   0  0  0  0  0  0  0  0  0  0  0  0
    0.0210    0.5707    0.4782 C   0  0  0  0  0  2  0  0  0  0  0  0
   -1.1280    1.2532    0.6705 N   0  0  0  0  0  0  0  0  0  0  0  0
   -1.2994    2.6622    1.1183 C   0  0  0  0  0  0  0  0  0  0  0  0
   -2.3797    2.8807    1.0392 H   0  0  0  0  0  0  0  0  0  0  0  0
   -1.0390    2.7431    2.1966 H   0  0  0  0  0  0  0  0  0  0  0  0
   -0.5058    3.6496    0.3016 C   0  0  0  0  0  0  0  0  0  0  0  0
    0.9052    3.5719    0.3415 C   0  0  0  0  0  0  0  0  0  0  0  0
    1.5322    2.4953    1.1887 C   0  0  0  0  0  0  0  0  0  0  0  0
    2.6327    2.5930    1.1867 H   0  0  0  0  0  0  0  0  0  0  0  0
    1.2060    2.5854    2.2478 H   0  0  0  0  0  0  0  0  0  0  0  0
   -1.1243    4.6270   -0.4957 C   0  0  0  0  0  0  0  0  0  0  0  0
   -2.2238    4.6846   -0.5260 H   0  0  0  0  0  0  0  0  0  0  0  0
   -0.3517    5.5266   -1.2473 C   0  0  0  0  0  0  0  0  0  0  0  0
   -0.8460    6.2895   -1.8670 H   0  0  0  0  0  0  0  0  0  0  0  0
    1.0484    5.4493   -1.2072 C   0  0  0  0  0  0  0  0  0  0  0  0
    1.6583    6.1510   -1.7956 H   0  0  0  0  0  0  0  0  0  0  0  0
    1.6728    4.4721   -0.4158 C   0  0  0  0  0  0  0  0  0  0  0  0
    2.7718    4.4058   -0.3845 H   0  0  0  0  0  0  0  0  0  0  0  0
    2.3872    0.2868    0.4382 C   0  0  0  0  0  0  0  0  0  0  0  0
    2.9252    0.2355   -0.8677 C   0  0  0  0  0  0  0  0  0  0  0  0
    4.0569   -0.5710   -1.0794 C   0  0  0  0  0  0  0  0  0  0  0  0
    4.4803   -0.6294   -2.0949 H   0  0  0  0  0  0  0  0  0  0  0  0
    4.6487   -1.3156   -0.0428 C   0  0  0  0  0  0  0  0  0  0  0  0
    4.0824   -1.2348    1.2428 C   0  0  0  0  0  0  0  0  0  0  0  0
    4.5242   -1.8191    2.0659 H   0  0  0  0  0  0  0  0  0  0  0  0
    2.9525   -0.4429    1.5079 C   0  0  0  0  0  0  0  0  0  0  0  0
    2.2656    0.9643   -2.0083 C   0  0  0  0  0  0  0  0  0  0  0  0
    1.2889    0.4902   -2.2482 H   0  0  0  0  0  0  0  0  0  0  0  0
    2.8918    0.9293   -2.9194 H   0  0  0  0  0  0  0  0  0  0  0  0
    2.0500    2.0244   -1.7687 H   0  0  0  0  0  0  0  0  0  0  0  0
    5.8277   -2.2152   -0.3131 C   0  0  0  0  0  0  0  0  0  0  0  0
    5.4836   -3.2295   -0.6089 H   0  0  0  0  0  0  0  0  0  0  0  0
    6.4666   -2.3354    0.5839 H   0  0  0  0  0  0  0  0  0  0  0  0
    6.4564   -1.8301   -1.1400 H   0  0  0  0  0  0  0  0  0  0  0  0
    2.3178   -0.4185    2.8737 C   0  0  0  0  0  0  0  0  0  0  0  0
    2.8844   -1.0444    3.5882 H   0  0  0  0  0  0  0  0  0  0  0  0
    1.2792   -0.8108    2.8238 H   0  0  0  0  0  0  0  0  0  0  0  0
    2.2565    0.6067    3.2948 H   0  0  0  0  0  0  0  0  0  0  0  0
   -2.3595    0.5275    0.4287 C   0  0  0  0  0  0  0  0  0  0  0  0
   -2.9140    0.5240   -0.8712 C   0  0  0  0  0  0  0  0  0  0  0  0
   -4.1185   -0.1728   -1.0689 C   0  0  0  0  0  0  0  0  0  0  0  0
   -4.5559   -0.1941   -2.0799 H   0  0  0  0  0  0  0  0  0  0  0  0
   -4.7667   -0.8557   -0.0233 C   0  0  0  0  0  0  0  0  0  0  0  0
   -4.1818   -0.8251    1.2560 C   0  0  0  0  0  0  0  0  0  0  0  0
   -4.6685   -1.3624    2.0858 H   0  0  0  0  0  0  0  0  0  0  0  0
   -2.9796   -0.1425    1.5069 C   0  0  0  0  0  0  0  0  0  0  0  0
   -2.1988    1.1848   -2.0196 C   0  0  0  0  0  0  0  0  0  0  0  0
   -1.8953    2.2258   -1.7909 H   0  0  0  0  0  0  0  0  0  0  0  0
   -2.8273    1.1934   -2.9296 H   0  0  0  0  0  0  0  0  0  0  0  0
   -1.2645    0.6300   -2.2555 H   0  0  0  0  0  0  0  0  0  0  0  0
   -6.0281   -1.6408   -0.2786 C   0  0  0  0  0  0  0  0  0  0  0  0
   -6.6305   -1.1950   -1.0945 H   0  0  0  0  0  0  0  0  0  0  0  0
   -6.6619   -1.7056    0.6276 H   0  0  0  0  0  0  0  0  0  0  0  0
   -5.7839   -2.6812   -0.5832 H   0  0  0  0  0  0  0  0  0  0  0  0
   -2.3312   -0.1757    2.8662 C   0  0  0  0  0  0  0  0  0  0  0  0
   -1.3469   -0.6890    2.8112 H   0  0  0  0  0  0  0  0  0  0  0  0
   -2.9592   -0.7215    3.5947 H   0  0  0  0  0  0  0  0  0  0  0  0
   -2.1437    0.8402    3.2718 H   0  0  0  0  0  0  0  0  0  0  0  0
  1  9  1  0  0  0  0
  2  3  1  0  0  0  0
  2  1  1  0  0  0  0
  3  4  1  0  0  0  0
  4  6  1  0  0  0  0
  5  4  1  0  0  0  0
  7  8  1  0  0  0  0
  7  4  1  0  0  0  0
  8  9  1  0  0  0  0
  9 11  1  0  0  0  0
 10  9  1  0  0  0  0
 12  7  2  0  0  0  0
 13 12  1  0  0  0  0
 14 16  2  0  0  0  0
 14 12  1  0  0  0  0
 15 14  1  0  0  0  0
 16 18  1  0  0  0  0
 17 16  1  0  0  0  0
 18 19  1  0  0  0  0
 18  8  2  0  0  0  0
 20  1  1  0  0  0  0
 20 27  1  0  0  0  0
 21 20  2  0  0  0  0
 22 21  1  0  0  0  0
 22 24  2  0  0  0  0
 23 22  1  0  0  0  0
 24 25  1  0  0  0  0
 25 27  2  0  0  0  0
 25 26  1  0  0  0  0
 27 36  1  0  0  0  0
 28 31  1  0  0  0  0
 28 21  1  0  0  0  0
 29 28  1  0  0  0  0
 30 28  1  0  0  0  0
 32 24  1  0  0  0  0
 32 34  1  0  0  0  0
 33 32  1  0  0  0  0
 35 32  1  0  0  0  0
 36 39  1  0  0  0  0
 36 37  1  0  0  0  0
 38 36  1  0  0  0  0
 40  3  1  0  0  0  0
 40 47  1  0  0  0  0
 41 40  2  0  0  0  0
 42 41  1  0  0  0  0
 42 44  2  0  0  0  0
 43 42  1  0  0  0  0
 44 45  1  0  0  0  0
 45 47  2  0  0  0  0
 45 46  1  0  0  0  0
 47 56  1  0  0  0  0
 48 49  1  0  0  0  0
 48 41  1  0  0  0  0
 50 48  1  0  0  0  0
 51 48  1  0  0  0  0
 52 44  1  0  0  0  0
 52 54  1  0  0  0  0
 53 52  1  0  0  0  0
 55 52  1  0  0  0  0
 56 59  1  0  0  0  0
 56 58  1  0  0  0  0
 57 56  1  0  0  0  0
M  END
