1
q = -1.0, confidence = 0.0

 13 14  0  0  0  0  0  0  0  0999 V2000
   -1.4277    1.5636   -0.0300 C   0  0  0  0  0  3  0  0  0  0  0  0
   -3.4896    2.3632    0.0117 C   0  0  0  0  0  0  0  0  0  0  0  0
   -2.5719    3.4317   -0.0841 C   0  0  0  0  0  0  0  0  0  0  0  0
   -3.0364    4.7570   -0.1391 C   0  0  0  0  0  0  0  0  0  0  0  0
   -2.3395    5.6035   -0.2140 H   0  0  0  0  0  0  0  0  0  0  0  0
   -4.4248    4.9487   -0.0958 C   0  0  0  0  0  0  0  0  0  0  0  0
   -4.8283    5.9711   -0.1370 H   0  0  0  0  0  0  0  0  0  0  0  0
   -5.3248    3.8609   -0.0016 C   0  0  0  0  0  0  0  0  0  0  0  0
   -6.4060    4.0610    0.0276 H   0  0  0  0  0  0  0  0  0  0  0  0
   -4.8732    2.5318    0.0545 C   0  0  0  0  0  0  0  0  0  0  0  0
   -5.5619    1.6789    0.1249 H   0  0  0  0  0  0  0  0  0  0  0  0
   -1.2928    2.8782   -0.1057 N   0  0  0  0  0  0  0  0  0  0  0  0
   -2.7608    1.1980    0.0487 O   0  0  0  0  0  0  0  0  0  0  0  0
  1 13  1  0  0  0  0
  2 13  1  0  0  0  0
  2 10  1  0  0  0  0
  3  2  2  0  0  0  0
  4  6  2  0  0  0  0
  4  3  1  0  0  0  0
  5  4  1  0  0  0  0
  6  8  1  0  0  0  0
  7  6  1  0  0  0  0
  8  9  1  0  0  0  0
  8 10  2  0  0  0  0
 10 11  1  0  0  0  0
 12  3  1  0  0  0  0
 12  1  2  0  0  0  0
M  END
