2
q = -1.0

 17 17  0  0  0  0  0  0  0  0999 V2000
    8.0980   -0.5755   -0.0847 O   0  0  0  0  0  0  0  0  0  0  0  0
    1.2331   -0.0822    0.0090 C   0  0  0  0  0  3  0  0  0  0  0  0
    2.4734   -0.1902   -0.0137 C   0  0  0  0  0  0  0  0  0  0  0  0
    3.8967   -0.2684   -0.0308 C   0  0  0  0  0  0  0  0  0  0  0  0
    4.6942    0.8935    0.1224 C   0  0  0  0  0  0  0  0  0  0  0  0
    4.1927    1.8637    0.2544 H   0  0  0  0  0  0  0  0  0  0  0  0
    6.0941    0.8342    0.1101 C   0  0  0  0  0  0  0  0  0  0  0  0
    6.6695    1.7617    0.2330 H   0  0  0  0  0  0  0  0  0  0  0  0
    6.7440   -0.4060   -0.0583 C   0  0  0  0  0  0  0  0  0  0  0  0
    5.9682   -1.5758   -0.2134 C   0  0  0  0  0  0  0  0  0  0  0  0
    6.4928   -2.5336   -0.3443 H   0  0  0  0  0  0  0  0  0  0  0  0
    4.5764   -1.5069   -0.2000 C   0  0  0  0  0  0  0  0  0  0  0  0
    3.9825   -2.4249   -0.3231 H   0  0  0  0  0  0  0  0  0  0  0  0
    8.9164    0.5657    0.0663 C   0  0  0  0  0  0  0  0  0  0  0  0
    8.7486    1.3108   -0.7446 H   0  0  0  0  0  0  0  0  0  0  0  0
    9.9633    0.2120    0.0160 H   0  0  0  0  0  0  0  0  0  0  0  0
    8.7535    1.0702    1.0461 H   0  0  0  0  0  0  0  0  0  0  0  0
  1  9  1  0  0  0  0
  1 14  1  0  0  0  0
  3  2  3  0  0  0  0
  4  3  1  0  0  0  0
  4  5  1  0  0  0  0
  5  6  1  0  0  0  0
  7  5  2  0  0  0  0
  7  8  1  0  0  0  0
  9  7  1  0  0  0  0
 10 12  1  0  0  0  0
 10  9  2  0  0  0  0
 11 10  1  0  0  0  0
 12  4  2  0  0  0  0
 13 12  1  0  0  0  0
 14 17  1  0  0  0  0
 15 14  1  0  0  0  0
 16 14  1  0  0  0  0
M  END
