1
q = 0.0, confidence = 0.966

 16 16  0  0  0  0  0  0  0  0999 V2000
    0.3418    0.5760    0.0000 C   0  0  0  0  0  3  0  0  0  0  0  0
    1.3113   -0.4010    0.0001 N   0  0  0  0  0  0  0  0  0  0  0  0
    0.9331   -1.3491    0.0001 H   0  0  0  0  0  0  0  0  0  0  0  0
    0.7642    1.8377    0.0000 N   0  0  0  0  0  4  0  0  0  0  0  0
    1.7893    2.0227   -0.0000 H   0  0  0  0  0  0  0  0  0  0  0  0
    0.0630    2.5775   -0.0000 H   0  0  0  0  0  0  0  0  0  0  0  0
    2.7076   -0.3077    0.0000 C   0  0  0  0  0  0  0  0  0  0  0  0
    3.2741    0.9142    0.0000 N   0  0  0  0  0  0  0  0  0  0  0  0
    4.6161    0.9993   -0.0001 C   0  0  0  0  0  0  0  0  0  0  0  0
    5.0336    2.0204   -0.0001 H   0  0  0  0  0  0  0  0  0  0  0  0
    5.4588   -0.1167   -0.0001 C   0  0  0  0  0  0  0  0  0  0  0  0
    6.5505    0.0075   -0.0001 H   0  0  0  0  0  0  0  0  0  0  0  0
    4.8639   -1.3918   -0.0000 C   0  0  0  0  0  0  0  0  0  0  0  0
    5.4847   -2.3002   -0.0000 H   0  0  0  0  0  0  0  0  0  0  0  0
    3.4738   -1.4991    0.0000 C   0  0  0  0  0  0  0  0  0  0  0  0
    2.9769   -2.4808    0.0001 H   0  0  0  0  0  0  0  0  0  0  0  0
  1  2  1  0  0  0  0
  2  3  1  0  0  0  0
  4  1  2  0  0  0  0
  5  4  1  0  0  0  0
  6  4  1  0  0  0  0
  7  2  1  0  0  0  0
  8  7  2  0  0  0  0
  9  8  1  0  0  0  0
 10  9  1  0  0  0  0
 11  9  2  0  0  0  0
 11 13  1  0  0  0  0
 12 11  1  0  0  0  0
 13 15  2  0  0  0  0
 14 13  1  0  0  0  0
 15  7  1  0  0  0  0
 15 16  1  0  0  0  0
M  END
