1
q = -1.0, confidence = 0.002

  6  5  0  0  0  0  0  0  0  0999 V2000
    0.0083    1.6488    0.3153 C   0  0  0  0  0  3  0  0  0  0  0  0
    0.0063    2.8589    0.6060 C   0  0  0  0  0  0  0  0  0  0  0  0
    0.0081    4.2797    0.9427 C   0  0  0  0  0  0  0  0  0  0  0  0
   -0.5648    4.8839    0.2046 H   0  0  0  0  0  0  0  0  0  0  0  0
    1.0351    4.7075    0.9785 H   0  0  0  0  0  0  0  0  0  0  0  0
   -0.4548    4.4721    1.9362 H   0  0  0  0  0  0  0  0  0  0  0  0
  1  2  3  0  0  0  0
  2  3  1  0  0  0  0
  3  5  1  0  0  0  0
  3  6  1  0  0  0  0
  4  3  1  0  0  0  0
M  END
