5
q = 0.0, confidence = 0.992

 50 53  0  0  1  0  0  0  0  0999 V2000
    5.0965   -0.6026   -0.0918 O   0  0  0  0  0  0  0  0  0  0  0  0
    2.9424   -1.4084    1.2332 O   0  0  0  0  0  0  0  0  0  0  0  0
   -0.2601    4.1596    0.6044 O   0  0  0  0  0  0  0  0  0  0  0  0
   -2.1625    2.4951   -0.3332 N   0  0  0  0  0  0  0  0  0  0  0  0
    0.1688   -1.5982    1.3496 C   0  0  0  0  0  3  0  0  0  0  0  0
   -1.0381   -2.0182    1.9806 C   0  0  0  0  0  0  0  0  0  0  0  0
   -2.1932   -1.2161    1.9006 C   0  0  0  0  0  0  0  0  0  0  0  0
   -3.3934    0.8628    1.0485 C   0  0  0  0  0  0  0  0  0  0  0  0
   -3.3448    1.6461   -0.2506 C   0  0  0  0  0  0  0  0  0  0  0  0
   -0.8392    1.8691   -0.0297 C   0  0  2  0  0  0  0  0  0  0  0  0
    0.0670    1.7810   -1.2753 C   0  0  0  0  0  0  0  0  0  0  0  0
    2.5391    1.5606   -1.6662 C   0  0  0  0  0  0  0  0  0  0  0  0
    3.7995    1.0018   -1.4135 C   0  0  0  0  0  0  0  0  0  0  0  0
    3.9257    0.0053   -0.4342 C   0  0  0  0  0  0  0  0  0  0  0  0
    2.7756   -0.4358    0.2796 C   0  0  0  0  0  0  0  0  0  0  0  0
    1.4932    0.0942   -0.0180 C   0  0  0  0  0  0  0  0  0  0  0  0
    1.3920    1.1261   -0.9934 C   0  0  0  0  0  0  0  0  0  0  0  0
    0.2476   -0.3540    0.6556 C   0  0  1  0  0  3  0  0  0  0  0  0
   -0.9475    0.4744    0.5791 C   0  0  0  0  0  0  0  0  0  0  0  0
   -2.1520    0.0281    1.1930 C   0  0  0  0  0  0  0  0  0  0  0  0
    6.2696   -0.2311   -0.7907 C   0  0  0  0  0  0  0  0  0  0  0  0
    3.6080   -1.0010    2.4288 C   0  0  0  0  0  0  0  0  0  0  0  0
   -2.2394    3.3205   -1.5371 C   0  0  0  0  0  0  0  0  0  0  0  0
   -0.1354    2.8164    1.0390 C   0  0  2  0  0  0  0  0  0  0  0  0
   -0.6596    2.6679    2.4660 C   0  0  0  0  0  0  0  0  0  0  0  0
   -1.2333    4.2838    0.5528 H   0  0  0  0  0  0  0  0  0  0  0  0
    1.0476   -2.2484    1.3616 H   0  0  0  0  0  0  0  0  0  0  0  0
   -1.0779   -2.9980    2.4762 H   0  0  0  0  0  0  0  0  0  0  0  0
   -3.1442   -1.5594    2.3312 H   0  0  0  0  0  0  0  0  0  0  0  0
   -3.4789    1.5592    1.9107 H   0  0  0  0  0  0  0  0  0  0  0  0
   -4.2886    0.2100    1.0627 H   0  0  0  0  0  0  0  0  0  0  0  0
   -4.2350    2.3054   -0.3263 H   0  0  0  0  0  0  0  0  0  0  0  0
   -3.4062    0.9271   -1.1075 H   0  0  0  0  0  0  0  0  0  0  0  0
    0.2664    2.8011   -1.6503 H   0  0  0  0  0  0  0  0  0  0  0  0
   -0.4714    1.2342   -2.0764 H   0  0  0  0  0  0  0  0  0  0  0  0
    2.4468    2.3643   -2.4125 H   0  0  0  0  0  0  0  0  0  0  0  0
    4.6750    1.3558   -1.9731 H   0  0  0  0  0  0  0  0  0  0  0  0
    7.0882   -0.8483   -0.3767 H   0  0  0  0  0  0  0  0  0  0  0  0
    6.5178    0.8446   -0.6462 H   0  0  0  0  0  0  0  0  0  0  0  0
    6.1804   -0.4329   -1.8815 H   0  0  0  0  0  0  0  0  0  0  0  0
    3.6237   -1.8830    3.0968 H   0  0  0  0  0  0  0  0  0  0  0  0
    4.6500   -0.6797    2.2243 H   0  0  0  0  0  0  0  0  0  0  0  0
    3.0566   -0.1745    2.9301 H   0  0  0  0  0  0  0  0  0  0  0  0
   -3.1849    3.9004   -1.5015 H   0  0  0  0  0  0  0  0  0  0  0  0
   -1.4049    4.0419   -1.5789 H   0  0  0  0  0  0  0  0  0  0  0  0
   -2.2511    2.7320   -2.4876 H   0  0  0  0  0  0  0  0  0  0  0  0
    0.9509    2.5898    1.0254 H   0  0  0  0  0  0  0  0  0  0  0  0
   -0.4573    1.6668    2.8942 H   0  0  0  0  0  0  0  0  0  0  0  0
   -0.1744    3.4300    3.1059 H   0  0  0  0  0  0  0  0  0  0  0  0
   -1.7543    2.8473    2.4960 H   0  0  0  0  0  0  0  0  0  0  0  0
  2 22  1  0  0  0  0
  3 24  1  0  0  0  0
  4  9  1  0  0  0  0
  4 10  1  0  0  0  0
  5 27  1  0  0  0  0
  5  6  1  0  0  0  0
  6 28  1  0  0  0  0
  7  6  2  0  0  0  0
  7 29  1  0  0  0  0
  8 31  1  0  0  0  0
  8 20  1  0  0  0  0
  8 30  1  0  0  0  0
  9  8  1  0  0  0  0
 10 19  1  0  0  0  0
 10 24  1  1  0  0  0
 11 17  1  0  0  0  0
 11 10  1  0  0  0  0
 12 13  2  0  0  0  0
 12 17  1  0  0  0  0
 13 14  1  0  0  0  0
 14  1  1  0  0  0  0
 14 15  2  0  0  0  0
 15  2  1  0  0  0  0
 16 15  1  0  0  0  0
 17 16  2  0  0  0  0
 18 16  1  6  0  0  0
 18  5  1  0  0  0  0
 19 18  1  0  0  0  0
 19 20  2  0  0  0  0
 20  7  1  0  0  0  0
 21 39  1  0  0  0  0
 21 38  1  0  0  0  0
 21  1  1  0  0  0  0
 22 43  1  0  0  0  0
 22 41  1  0  0  0  0
 23 44  1  0  0  0  0
 23  4  1  0  0  0  0
 24 47  1  1  0  0  0
 24 25  1  0  0  0  0
 25 50  1  0  0  0  0
 25 48  1  0  0  0  0
 25 49  1  0  0  0  0
 26  3  1  0  0  0  0
 32  9  1  0  0  0  0
 33  9  1  0  0  0  0
 34 11  1  0  0  0  0
 35 11  1  0  0  0  0
 36 12  1  0  0  0  0
 37 13  1  0  0  0  0
 40 21  1  0  0  0  0
 42 22  1  0  0  0  0
 45 23  1  0  0  0  0
 46 23  1  0  0  0  0
M  END
