7
q = 0.0, confidence = 0.966

 14 13  0  0  0  0  0  0  0  0999 V2000
   -0.2520   -0.8541   -2.4796 C   0  0  0  0  0  3  0  0  0  0  0  0
   -1.2061   -0.6719   -2.9996 H   0  0  0  0  0  0  0  0  0  0  0  0
    0.6403   -0.4954   -3.0157 H   0  0  0  0  0  0  0  0  0  0  0  0
    0.9253   -2.0944   -0.6787 C   0  0  0  0  0  3  0  0  0  0  0  0
    0.8584   -2.8343    0.1373 H   0  0  0  0  0  0  0  0  0  0  0  0
    1.9618   -1.1246   -0.7141 C   0  0  0  0  0  3  0  0  0  0  0  0
   -0.1894   -1.9644   -1.5856 C   0  0  0  0  0  3  0  0  0  0  0  0
    3.1314    0.3666    0.8180 O   0  0  0  0  0  0  0  0  0  0  0  0
    2.6849    0.9322    0.1429 H   0  0  0  0  0  0  0  0  0  0  0  0
    2.9919   -0.9761    0.3769 C   0  0  0  0  0  0  0  0  0  0  0  0
    3.9754   -1.3601    0.0052 H   0  0  0  0  0  0  0  0  0  0  0  0
    2.7134   -1.6106    1.2497 H   0  0  0  0  0  0  0  0  0  0  0  0
    2.2657   -0.7159   -1.6928 H   0  0  0  0  0  0  0  0  0  0  0  0
   -1.0599   -2.6245   -1.4318 H   0  0  0  0  0  0  0  0  0  0  0  0
  1  7  1  0  0  0  0
  2  1  1  0  0  0  0
  3  1  1  0  0  0  0
  4  5  1  0  0  0  0
  6  4  1  0  0  0  0
  6 10  1  0  0  0  0
  7 14  1  0  0  0  0
  7  4  1  0  0  0  0
  9  8  1  0  0  0  0
 10  8  1  0  0  0  0
 10 12  1  0  0  0  0
 11 10  1  0  0  0  0
 13  6  1  0  0  0  0
M  END
