1
q = 0.0, confidence = 0.998

 39 41  0  0  0  0  0  0  0  0999 V2000
   -0.1089   -0.4372    1.2543 C   0  0  0  0  0  3  0  0  0  0  0  0
   -0.5767   -0.9118    2.3945 C   0  0  0  0  0  0  0  0  0  0  0  0
   -1.0278   -1.3855    3.5416 C   0  0  0  0  0  0  0  0  0  0  0  0
   -1.3016    0.0211    0.0024 P   0  0  0  0  0  4  0  0  0  0  0  0
   -1.2706    1.8069   -0.3714 C   0  0  0  0  0  0  0  0  0  0  0  0
   -2.4757    2.4899   -0.6432 C   0  0  0  0  0  0  0  0  0  0  0  0
   -3.4384    1.9609   -0.5870 H   0  0  0  0  0  0  0  0  0  0  0  0
   -2.4431    3.8509   -0.9816 C   0  0  0  0  0  0  0  0  0  0  0  0
   -3.3841    4.3816   -1.1907 H   0  0  0  0  0  0  0  0  0  0  0  0
   -1.2172    4.5314   -1.0500 C   0  0  0  0  0  0  0  0  0  0  0  0
   -1.1959    5.5999   -1.3131 H   0  0  0  0  0  0  0  0  0  0  0  0
   -0.0189    3.8493   -0.7834 C   0  0  0  0  0  0  0  0  0  0  0  0
    0.9453    4.3765   -0.8365 H   0  0  0  0  0  0  0  0  0  0  0  0
   -0.0383    2.4888   -0.4481 C   0  0  0  0  0  0  0  0  0  0  0  0
    0.9029    1.9486   -0.2395 H   0  0  0  0  0  0  0  0  0  0  0  0
   -0.9411   -0.8742   -1.5382 C   0  0  0  0  0  0  0  0  0  0  0  0
   -0.3002   -2.1272   -1.4710 C   0  0  0  0  0  0  0  0  0  0  0  0
    0.0331   -2.5207   -0.4987 H   0  0  0  0  0  0  0  0  0  0  0  0
   -0.0649   -2.8451   -2.6516 C   0  0  0  0  0  0  0  0  0  0  0  0
    0.4471   -3.8175   -2.6036 H   0  0  0  0  0  0  0  0  0  0  0  0
   -0.4641   -2.3167   -3.8902 C   0  0  0  0  0  0  0  0  0  0  0  0
   -0.2678   -2.8796   -4.8153 H   0  0  0  0  0  0  0  0  0  0  0  0
   -1.1003   -1.0664   -3.9540 C   0  0  0  0  0  0  0  0  0  0  0  0
   -1.4022   -0.6480   -4.9257 H   0  0  0  0  0  0  0  0  0  0  0  0
   -1.3402   -0.3396   -2.7788 C   0  0  0  0  0  0  0  0  0  0  0  0
   -1.8235    0.6481   -2.8268 H   0  0  0  0  0  0  0  0  0  0  0  0
   -3.0081   -0.3904    0.4850 C   0  0  0  0  0  0  0  0  0  0  0  0
   -3.7545   -1.3597   -0.2136 C   0  0  0  0  0  0  0  0  0  0  0  0
   -3.3289   -1.8445   -1.1047 H   0  0  0  0  0  0  0  0  0  0  0  0
   -5.0410   -1.7009    0.2302 C   0  0  0  0  0  0  0  0  0  0  0  0
   -5.6242   -2.4548   -0.3195 H   0  0  0  0  0  0  0  0  0  0  0  0
   -5.5818   -1.0828    1.3685 C   0  0  0  0  0  0  0  0  0  0  0  0
   -6.5915   -1.3525    1.7130 H   0  0  0  0  0  0  0  0  0  0  0  0
   -4.8352   -0.1217    2.0703 C   0  0  0  0  0  0  0  0  0  0  0  0
   -5.2562    0.3598    2.9655 H   0  0  0  0  0  0  0  0  0  0  0  0
   -3.5488    0.2241    1.6363 C   0  0  0  0  0  0  0  0  0  0  0  0
   -2.9646    0.9768    2.1865 H   0  0  0  0  0  0  0  0  0  0  0  0
   -1.2339   -0.7175    4.3951 H   0  0  0  0  0  0  0  0  0  0  0  0
   -1.1886   -2.4664    3.6922 H   0  0  0  0  0  0  0  0  0  0  0  0
  1  2  2  0  0  0  0
  2  3  2  0  0  0  0
  3 39  1  0  0  0  0
  3 38  1  0  0  0  0
  4 27  1  0  0  0  0
  4  1  1  0  0  0  0
  5  4  1  0  0  0  0
  6  7  1  0  0  0  0
  6  5  2  0  0  0  0
  8  6  1  0  0  0  0
  9  8  1  0  0  0  0
 10  8  2  0  0  0  0
 10 12  1  0  0  0  0
 11 10  1  0  0  0  0
 12 14  2  0  0  0  0
 13 12  1  0  0  0  0
 14  5  1  0  0  0  0
 14 15  1  0  0  0  0
 16 17  1  0  0  0  0
 16  4  1  0  0  0  0
 17 18  1  0  0  0  0
 19 20  1  0  0  0  0
 19 17  2  0  0  0  0
 21 19  1  0  0  0  0
 22 21  1  0  0  0  0
 23 21  2  0  0  0  0
 23 25  1  0  0  0  0
 24 23  1  0  0  0  0
 25 16  2  0  0  0  0
 26 25  1  0  0  0  0
 27 36  1  0  0  0  0
 28 30  1  0  0  0  0
 28 27  2  0  0  0  0
 29 28  1  0  0  0  0
 30 32  2  0  0  0  0
 31 30  1  0  0  0  0
 32 33  1  0  0  0  0
 32 34  1  0  0  0  0
 34 35  1  0  0  0  0
 36 34  2  0  0  0  0
 36 37  1  0  0  0  0
M  END
