4
q = -1.0, confidence = 0.026

 42 42  0  0  0  0  0  0  0  0999 V2000
   -1.7944    1.1040    1.4902 F   0  0  0  0  0  0  0  0  0  0  0  0
   -4.2767    0.0311    1.5464 F   0  0  0  0  0  0  0  0  0  0  0  0
   -0.0782   -3.0033   -0.2249 F   0  0  0  0  0  0  0  0  0  0  0  0
   -0.8363   -0.9069    0.6315 C   0  0  0  0  0  3  0  0  0  0  0  0
   -8.9536    0.2732   -0.7567 C   0  0  0  0  0  0  0  0  0  0  0  0
   -8.3885    0.9112   -0.0404 H   0  0  0  0  0  0  0  0  0  0  0  0
   -8.5790    0.5577   -1.7663 H   0  0  0  0  0  0  0  0  0  0  0  0
   -1.0881   -2.2249    0.2228 C   0  0  0  0  0  0  0  0  0  0  0  0
   -1.9454   -0.1762    1.0876 C   0  0  0  0  0  0  0  0  0  0  0  0
  -12.2697    2.3986   -0.8318 C   0  0  0  0  0  0  0  0  0  0  0  0
  -12.6424    2.1180    0.1798 H   0  0  0  0  0  0  0  0  0  0  0  0
  -12.8362    1.7567   -1.5446 H   0  0  0  0  0  0  0  0  0  0  0  0
  -10.4459    0.5999   -0.6605 C   0  0  0  0  0  0  0  0  0  0  0  0
  -10.8194    0.3181    0.3503 H   0  0  0  0  0  0  0  0  0  0  0  0
  -11.0106   -0.0417   -1.3748 H   0  0  0  0  0  0  0  0  0  0  0  0
   -2.5439   -4.0866   -0.1030 F   0  0  0  0  0  0  0  0  0  0  0  0
  -10.7779    2.0699   -0.9302 C   0  0  0  0  0  0  0  0  0  0  0  0
  -10.4051    2.3513   -1.9413 H   0  0  0  0  0  0  0  0  0  0  0  0
  -10.2118    2.7109   -0.2168 H   0  0  0  0  0  0  0  0  0  0  0  0
   -7.1255   -1.5109   -0.5699 C   0  0  0  0  0  0  0  0  0  0  0  0
   -6.7395   -1.2234   -1.5744 H   0  0  0  0  0  0  0  0  0  0  0  0
   -6.5697   -0.8835    0.1595 H   0  0  0  0  0  0  0  0  0  0  0  0
   -4.7318   -2.5332    0.8318 O   0  0  0  0  0  0  0  0  0  0  0  0
   -3.2391   -0.7152    1.1307 C   0  0  0  0  0  0  0  0  0  0  0  0
   -8.6205   -1.1968   -0.4895 C   0  0  0  0  0  0  0  0  0  0  0  0
   -9.1773   -1.8382   -1.2106 H   0  0  0  0  0  0  0  0  0  0  0  0
   -9.0008   -1.4822    0.5176 H   0  0  0  0  0  0  0  0  0  0  0  0
   -5.2931   -3.2613   -0.2783 C   0  0  0  0  0  0  0  0  0  0  0  0
   -5.0830   -4.3452   -0.1572 H   0  0  0  0  0  0  0  0  0  0  0  0
   -4.8113   -2.9233   -1.2228 H   0  0  0  0  0  0  0  0  0  0  0  0
   -2.3664   -2.8024    0.2731 C   0  0  0  0  0  0  0  0  0  0  0  0
   -3.4714   -2.0496    0.7266 C   0  0  0  0  0  0  0  0  0  0  0  0
   -6.7876   -2.9802   -0.3032 C   0  0  0  0  0  0  0  0  0  0  0  0
   -7.2192   -3.2970    0.6716 H   0  0  0  0  0  0  0  0  0  0  0  0
   -7.2496   -3.6349   -1.0747 H   0  0  0  0  0  0  0  0  0  0  0  0
  -12.6024    3.8691   -1.1025 C   0  0  0  0  0  0  0  0  0  0  0  0
  -12.0338    4.5075   -0.3898 H   0  0  0  0  0  0  0  0  0  0  0  0
  -12.2279    4.1465   -2.1132 H   0  0  0  0  0  0  0  0  0  0  0  0
  -14.0947    4.1869   -1.0010 C   0  0  0  0  0  0  0  0  0  0  0  0
  -14.6843    3.5893   -1.7276 H   0  0  0  0  0  0  0  0  0  0  0  0
  -14.3036    5.2572   -1.2015 H   0  0  0  0  0  0  0  0  0  0  0  0
  -14.4884    3.9533    0.0106 H   0  0  0  0  0  0  0  0  0  0  0  0
  3  8  1  0  0  0  0
  4  9  1  0  0  0  0
  5 13  1  0  0  0  0
  5 25  1  0  0  0  0
  5  6  1  0  0  0  0
  7  5  1  0  0  0  0
  8 31  1  0  0  0  0
  8  4  2  0  0  0  0
  9 24  2  0  0  0  0
  9  1  1  0  0  0  0
 10 11  1  0  0  0  0
 12 10  1  0  0  0  0
 13 14  1  0  0  0  0
 15 13  1  0  0  0  0
 16 31  1  0  0  0  0
 17 10  1  0  0  0  0
 17 13  1  0  0  0  0
 17 19  1  0  0  0  0
 18 17  1  0  0  0  0
 20 25  1  0  0  0  0
 20 33  1  0  0  0  0
 20 22  1  0  0  0  0
 21 20  1  0  0  0  0
 24  2  1  0  0  0  0
 25 27  1  0  0  0  0
 26 25  1  0  0  0  0
 28 29  1  0  0  0  0
 28 23  1  0  0  0  0
 30 28  1  0  0  0  0
 31 32  2  0  0  0  0
 32 23  1  0  0  0  0
 32 24  1  0  0  0  0
 33 28  1  0  0  0  0
 33 34  1  0  0  0  0
 35 33  1  0  0  0  0
 36 39  1  0  0  0  0
 36 10  1  0  0  0  0
 36 37  1  0  0  0  0
 38 36  1  0  0  0  0
 39 42  1  0  0  0  0
 40 39  1  0  0  0  0
 41 39  1  0  0  0  0
M  END
