4
q = 0.0, confidence = 0.984

 27 30  0  0  0  0  0  0  0  0999 V2000
    3.9514    1.0889    0.4507 N   0  0  0  0  0  2  0  0  0  0  0  0
    7.8864    2.5505    0.2395 C   0  0  0  0  0  0  0  0  0  0  0  0
    8.6492    0.3907   -0.7173 C   0  0  0  0  0  0  0  0  0  0  0  0
    2.8492    0.6565    0.5007 C   0  0  0  0  0  1  0  0  0  0  0  0
    7.5977    1.2144   -0.2055 C   0  0  0  0  0  0  0  0  0  0  0  0
    9.2379    3.0314    0.1587 C   0  0  0  0  0  0  0  0  0  0  0  0
    9.4498    4.0556    0.5017 H   0  0  0  0  0  0  0  0  0  0  0  0
    9.9912    0.8983   -0.7864 C   0  0  0  0  0  0  0  0  0  0  0  0
    6.0009   -0.6400   -0.5919 C   0  0  0  0  0  0  0  0  0  0  0  0
    4.9749   -1.0314   -0.5402 H   0  0  0  0  0  0  0  0  0  0  0  0
   10.2475    2.2389   -0.3335 C   0  0  0  0  0  0  0  0  0  0  0  0
   11.2781    2.6221   -0.3889 H   0  0  0  0  0  0  0  0  0  0  0  0
    6.2604    0.6974   -0.1410 C   0  0  0  0  0  0  0  0  0  0  0  0
    6.8329    3.3507    0.7428 C   0  0  0  0  0  0  0  0  0  0  0  0
    7.0515    4.3736    1.0840 H   0  0  0  0  0  0  0  0  0  0  0  0
    8.3677   -0.9446   -1.1633 C   0  0  0  0  0  0  0  0  0  0  0  0
    5.5295    2.8636    0.8117 C   0  0  0  0  0  0  0  0  0  0  0  0
    4.7116    3.4847    1.2023 H   0  0  0  0  0  0  0  0  0  0  0  0
    5.2413    1.5519    0.3757 C   0  0  0  0  0  0  0  0  0  0  0  0
   11.0133    0.0660   -1.2959 C   0  0  0  0  0  0  0  0  0  0  0  0
   12.0415    0.4560   -1.3485 H   0  0  0  0  0  0  0  0  0  0  0  0
    7.0164   -1.4266   -1.0827 C   0  0  0  0  0  0  0  0  0  0  0  0
    6.8028   -2.4507   -1.4250 H   0  0  0  0  0  0  0  0  0  0  0  0
    9.4239   -1.7389   -1.6651 C   0  0  0  0  0  0  0  0  0  0  0  0
    9.2058   -2.7624   -2.0064 H   0  0  0  0  0  0  0  0  0  0  0  0
   10.7301   -1.2363   -1.7292 C   0  0  0  0  0  0  0  0  0  0  0  0
   11.5397   -1.8688   -2.1228 H   0  0  0  0  0  0  0  0  0  0  0  0
  1  4  1  0  0  0  0
  2 14  1  0  0  0  0
  3  5  1  0  0  0  0
  5 13  1  0  0  0  0
  5  2  2  0  0  0  0
  6  2  1  0  0  0  0
  6  7  1  0  0  0  0
  8  3  1  0  0  0  0
  8 11  1  0  0  0  0
  9 10  1  0  0  0  0
  9 13  1  0  0  0  0
 11  6  2  0  0  0  0
 12 11  1  0  0  0  0
 13 19  2  0  0  0  0
 14 17  2  0  0  0  0
 14 15  1  0  0  0  0
 16 22  1  0  0  0  0
 16  3  2  0  0  0  0
 17 18  1  0  0  0  0
 19  1  1  0  0  0  0
 19 17  1  0  0  0  0
 20  8  2  0  0  0  0
 21 20  1  0  0  0  0
 22  9  2  0  0  0  0
 23 22  1  0  0  0  0
 24 16  1  0  0  0  0
 25 24  1  0  0  0  0
 26 24  2  0  0  0  0
 26 20  1  0  0  0  0
 27 26  1  0  0  0  0
M  END
