3
q = 0.0, confidence = 1.0

 32 34  0  0  0  0  0  0  0  0999 V2000
   -0.9898    0.5897    1.3929 N   0  0  0  0  0  0  0  0  0  0  0  0
    0.9426    1.3524    0.7992 N   0  0  0  0  0  0  0  0  0  0  0  0
    0.1948    0.1954    0.8363 C   0  0  0  0  0  2  0  0  0  0  0  0
   -0.9926    1.9521    1.6814 C   0  0  0  0  0  0  0  0  0  0  0  0
   -1.8590    2.4493    2.1270 H   0  0  0  0  0  0  0  0  0  0  0  0
    0.2293    2.4378    1.3067 C   0  0  0  0  0  0  0  0  0  0  0  0
    0.6576    3.4421    1.3635 H   0  0  0  0  0  0  0  0  0  0  0  0
    2.2633    1.3997    0.2832 C   0  0  0  0  0  0  0  0  0  0  0  0
    2.5168    2.0480   -0.9392 C   0  0  0  0  0  0  0  0  0  0  0  0
    1.5171    2.6423   -1.5939 F   0  0  0  0  0  0  0  0  0  0  0  0
    3.8109    2.0644   -1.4818 C   0  0  0  0  0  0  0  0  0  0  0  0
    4.0514    2.6803   -2.6387 F   0  0  0  0  0  0  0  0  0  0  0  0
    4.8567    1.4186   -0.7973 C   0  0  0  0  0  0  0  0  0  0  0  0
    6.0848    1.4302   -1.3072 F   0  0  0  0  0  0  0  0  0  0  0  0
    4.6132    0.7654    0.4246 C   0  0  0  0  0  0  0  0  0  0  0  0
    5.6122    0.1634    1.0657 F   0  0  0  0  0  0  0  0  0  0  0  0
    3.3185    0.7674    0.9682 C   0  0  0  0  0  0  0  0  0  0  0  0
    3.0942    0.1584    2.1292 F   0  0  0  0  0  0  0  0  0  0  0  0
   -2.1286   -0.3094    1.6044 C   0  0  0  0  0  0  0  0  0  0  0  0
   -2.4494   -0.2244    2.6604 H   0  0  0  0  0  0  0  0  0  0  0  0
   -1.7480   -1.3330    1.4254 H   0  0  0  0  0  0  0  0  0  0  0  0
   -3.2879   -0.0080    0.6852 C   0  0  0  0  0  0  0  0  0  0  0  0
   -3.4151   -0.6423   -0.5642 C   0  0  0  0  0  0  0  0  0  0  0  0
   -2.5175   -1.5519   -0.9478 F   0  0  0  0  0  0  0  0  0  0  0  0
   -4.4845   -0.3499   -1.4285 C   0  0  0  0  0  0  0  0  0  0  0  0
   -4.5949   -0.9645   -2.6046 F   0  0  0  0  0  0  0  0  0  0  0  0
   -5.4452    0.6020   -1.0431 C   0  0  0  0  0  0  0  0  0  0  0  0
   -6.4598    0.8877   -1.8556 F   0  0  0  0  0  0  0  0  0  0  0  0
   -5.3395    1.2532    0.1993 C   0  0  0  0  0  0  0  0  0  0  0  0
   -6.2514    2.1566    0.5613 F   0  0  0  0  0  0  0  0  0  0  0  0
   -4.2625    0.9396    1.0412 C   0  0  0  0  0  0  0  0  0  0  0  0
   -4.1656    1.5780    2.2237 F   0  0  0  0  0  0  0  0  0  0  0  0
  1 19  1  0  0  0  0
  1  4  1  0  0  0  0
  2  3  1  0  0  0  0
  2  6  1  0  0  0  0
  3  1  1  0  0  0  0
  4  5  1  0  0  0  0
  6  7  1  0  0  0  0
  6  4  2  0  0  0  0
  8  2  1  0  0  0  0
  8 17  1  0  0  0  0
  9  8  2  0  0  0  0
 10  9  1  0  0  0  0
 11  9  1  0  0  0  0
 11 13  2  0  0  0  0
 12 11  1  0  0  0  0
 13 15  1  0  0  0  0
 14 13  1  0  0  0  0
 15 17  2  0  0  0  0
 15 16  1  0  0  0  0
 17 18  1  0  0  0  0
 19 20  1  0  0  0  0
 21 19  1  0  0  0  0
 22 31  1  0  0  0  0
 22 19  1  0  0  0  0
 23 22  2  0  0  0  0
 24 23  1  0  0  0  0
 25 27  2  0  0  0  0
 25 23  1  0  0  0  0
 26 25  1  0  0  0  0
 27 29  1  0  0  0  0
 28 27  1  0  0  0  0
 29 30  1  0  0  0  0
 29 31  2  0  0  0  0
 31 32  1  0  0  0  0
M  END
