13
q = -1.0

 24 23  0  0  0  0  0  0  0  0999 V2000
    2.6679   -0.3246    1.4798 S   0  0  0  0  0  0  0  0  0  0  0  0
    0.4760    0.7227   -2.9676 O   0  0  0  0  0  0  0  0  0  0  0  0
    0.1390    2.2558   -1.3165 O   0  0  0  0  0  0  0  0  0  0  0  0
    2.9146    2.1789   -1.5828 O   0  0  0  0  0  0  0  0  0  0  0  0
    3.7562    2.2005    0.5152 O   0  0  0  0  0  0  0  0  0  0  0  0
    4.4351   -0.7179    1.1449 C   0  0  0  0  0  0  0  0  0  0  0  0
    4.9976    0.2372    1.1407 H   0  0  0  0  0  0  0  0  0  0  0  0
    4.7421   -1.2826    2.0499 H   0  0  0  0  0  0  0  0  0  0  0  0
    4.6665   -1.5266   -0.1248 C   0  0  0  0  0  0  0  0  0  0  0  0
    5.7515   -1.7138   -0.2679 H   0  0  0  0  0  0  0  0  0  0  0  0
    4.1422   -2.5004   -0.0836 H   0  0  0  0  0  0  0  0  0  0  0  0
    4.2964   -0.9833   -1.0180 H   0  0  0  0  0  0  0  0  0  0  0  0
    1.0103    0.1536   -0.6781 C   0  0  0  0  0  3  0  0  0  0  0  0
    2.1563    0.5084   -0.0082 C   0  0  0  0  0  0  0  0  0  0  0  0
    2.9520    1.6921   -0.4610 C   0  0  0  0  0  0  0  0  0  0  0  0
    4.5397    3.3273    0.1175 C   0  0  0  0  0  0  0  0  0  0  0  0
    5.1463    3.6057    0.9981 H   0  0  0  0  0  0  0  0  0  0  0  0
    5.1946    3.0751   -0.7417 H   0  0  0  0  0  0  0  0  0  0  0  0
    3.8908    4.1739   -0.1872 H   0  0  0  0  0  0  0  0  0  0  0  0
    0.5742    1.0419   -1.7941 C   0  0  0  0  0  0  0  0  0  0  0  0
   -0.1492    3.2349   -2.3140 C   0  0  0  0  0  0  0  0  0  0  0  0
   -0.7285    4.0339   -1.8144 H   0  0  0  0  0  0  0  0  0  0  0  0
    0.8020    3.6425   -2.7157 H   0  0  0  0  0  0  0  0  0  0  0  0
   -0.7299    2.7973   -3.1504 H   0  0  0  0  0  0  0  0  0  0  0  0
  2 20  2  0  0  0  0
  4 15  2  0  0  0  0
  6  1  1  0  0  0  0
  6  8  1  0  0  0  0
  7  6  1  0  0  0  0
  9 11  1  0  0  0  0
  9  6  1  0  0  0  0
 10  9  1  0  0  0  0
 12  9  1  0  0  0  0
 13 14  2  0  0  0  0
 14  1  1  0  0  0  0
 15 14  1  0  0  0  0
 15  5  1  0  0  0  0
 16  5  1  0  0  0  0
 16 17  1  0  0  0  0
 18 16  1  0  0  0  0
 19 16  1  0  0  0  0
 20  3  1  0  0  0  0
 20 13  1  0  0  0  0
 21 22  1  0  0  0  0
 21  3  1  0  0  0  0
 23 21  1  0  0  0  0
 24 21  1  0  0  0  0
M  END
