10
q = -1.0

 38 40  0  0  1  0  0  0  0  0999 V2000
    1.9047    3.0858   -0.0709 N   0  0  0  0  0  0  0  0  0  0  0  0
    1.0541    1.9723   -0.3717 C   0  0  1  0  0  0  0  0  0  0  0  0
    1.8168    0.8488   -0.7663 O   0  0  0  0  0  0  0  0  0  0  0  0
    2.8577    0.5351    0.1805 C   0  0  2  0  0  0  0  0  0  0  0  0
    3.9096    1.6577    0.1596 C   0  0  0  0  0  0  0  0  0  0  0  0
    3.2209    2.9601    0.5930 C   0  0  1  0  0  0  0  0  0  0  0  0
    3.6352    4.2823   -0.1133 C   0  0  0  0  0  0  0  0  0  0  0  0
    2.2869    4.1708   -0.8660 C   0  0  0  0  0  0  0  0  0  0  0  0
    1.7348    4.7209   -1.7899 O   0  0  0  0  0  0  0  0  0  0  0  0
    3.3557   -0.8533   -0.1768 C   0  0  0  0  0  3  0  0  0  0  0  0
    0.0883    1.6455    0.7983 C   0  0  0  0  0  0  0  0  0  0  0  0
   -0.3897    2.4773    1.5386 O   0  0  0  0  0  0  0  0  0  0  0  0
   -0.1929    0.3208    0.8243 O   0  0  0  0  0  0  0  0  0  0  0  0
   -1.2414   -0.1079    1.7437 C   0  0  0  0  0  0  0  0  0  0  0  0
   -2.5995    0.0783    1.1149 C   0  0  0  0  0  0  0  0  0  0  0  0
   -3.0735   -0.8737    0.1869 C   0  0  0  0  0  0  0  0  0  0  0  0
   -4.3172   -0.7014   -0.4306 C   0  0  0  0  0  0  0  0  0  0  0  0
   -5.0755    0.4319   -0.1089 C   0  0  0  0  0  0  0  0  0  0  0  0
   -4.6287    1.3955    0.8039 C   0  0  0  0  0  0  0  0  0  0  0  0
   -3.3813    1.2138    1.4123 C   0  0  0  0  0  0  0  0  0  0  0  0
   -6.4001    0.6185   -0.7578 N   0  0  0  0  0  0  0  0  0  0  0  0
   -7.0443    1.6207   -0.4500 O   0  0  0  0  0  0  0  0  0  0  0  0
   -6.7632   -0.2418   -1.5588 O   0  0  0  0  0  0  0  0  0  0  0  0
    0.4187    2.2627   -1.2377 H   0  0  0  0  0  0  0  0  0  0  0  0
    2.4146    0.5042    1.2081 H   0  0  0  0  0  0  0  0  0  0  0  0
    4.3000    1.7489   -0.8760 H   0  0  0  0  0  0  0  0  0  0  0  0
    4.7587    1.4137    0.8298 H   0  0  0  0  0  0  0  0  0  0  0  0
    3.1426    3.0198    1.7001 H   0  0  0  0  0  0  0  0  0  0  0  0
    4.5246    4.2194   -0.7696 H   0  0  0  0  0  0  0  0  0  0  0  0
    3.7184    5.1683    0.5448 H   0  0  0  0  0  0  0  0  0  0  0  0
    3.8033   -0.8745   -1.1905 H   0  0  0  0  0  0  0  0  0  0  0  0
    4.0965   -1.2268    0.5564 H   0  0  0  0  0  0  0  0  0  0  0  0
   -1.0272   -1.1794    1.9115 H   0  0  0  0  0  0  0  0  0  0  0  0
   -1.1462    0.4659    2.6855 H   0  0  0  0  0  0  0  0  0  0  0  0
   -2.4547   -1.7548   -0.0479 H   0  0  0  0  0  0  0  0  0  0  0  0
   -4.7180   -1.4239   -1.1536 H   0  0  0  0  0  0  0  0  0  0  0  0
   -5.2641    2.2657    1.0145 H   0  0  0  0  0  0  0  0  0  0  0  0
   -2.9957    1.9654    2.1165 H   0  0  0  0  0  0  0  0  0  0  0  0
  1  6  1  0  0  0  0
  2 24  1  6  0  0  0
  2  1  1  0  0  0  0
  2 11  1  0  0  0  0
  3  2  1  0  0  0  0
  3  4  1  0  0  0  0
  4 25  1  1  0  0  0
  5  4  1  0  0  0  0
  5  6  1  0  0  0  0
  5 27  1  0  0  0  0
  6 28  1  1  0  0  0
  7 30  1  0  0  0  0
  7  6  1  0  0  0  0
  8  7  1  0  0  0  0
  8  1  1  0  0  0  0
  9  8  2  0  0  0  0
 10  4  1  0  0  0  0
 10 32  1  0  0  0  0
 11 13  1  0  0  0  0
 11 12  2  0  0  0  0
 13 14  1  0  0  0  0
 14 33  1  0  0  0  0
 14 34  1  0  0  0  0
 15 20  1  0  0  0  0
 15 14  1  0  0  0  0
 16 15  2  0  0  0  0
 17 18  2  0  0  0  0
 17 16  1  0  0  0  0
 18 19  1  0  0  0  0
 19 37  1  0  0  0  0
 19 20  2  0  0  0  0
 20 38  1  0  0  0  0
 21 22  2  0  0  0  0
 21 18  1  0  0  0  0
 23 21  2  0  0  0  0
 26  5  1  0  0  0  0
 29  7  1  0  0  0  0
 31 10  1  0  0  0  0
 35 16  1  0  0  0  0
 36 17  1  0  0  0  0
M  END
