8
q = -1.0, confidence = 0.008

 28 29  0  0  0  0  0  0  0  0999 V2000
   -4.4044   -0.2024   -0.0253 O   0  0  0  0  0  0  0  0  0  0  0  0
   -5.3627   -0.0224   -0.0421 H   0  0  0  0  0  0  0  0  0  0  0  0
    2.2708   -1.0969   -0.1995 O   0  0  0  0  0  0  0  0  0  0  0  0
    0.5982    1.0767   -0.0292 N   0  0  0  0  0  0  0  0  0  0  0  0
    1.9343    1.1736   -0.0204 N   0  0  0  0  0  0  0  0  0  0  0  0
    2.3802    2.1025   -0.0620 H   0  0  0  0  0  0  0  0  0  0  0  0
    7.0191    0.6337    0.0323 N   0  0  0  0  0  0  0  0  0  0  0  0
   -2.3167    0.9159   -0.0362 C   0  0  0  0  0  3  0  0  0  0  0  0
   -1.5799    2.1253   -0.0648 C   0  0  0  0  0  0  0  0  0  0  0  0
   -2.2565    3.3694   -0.1082 C   0  0  0  0  0  0  0  0  0  0  0  0
   -1.6728    4.3026   -0.1300 H   0  0  0  0  0  0  0  0  0  0  0  0
   -3.6547    3.4115   -0.1247 C   0  0  0  0  0  0  0  0  0  0  0  0
   -4.1794    4.3778   -0.1588 H   0  0  0  0  0  0  0  0  0  0  0  0
   -4.3936    2.2219   -0.0979 C   0  0  0  0  0  0  0  0  0  0  0  0
   -5.4957    2.2502   -0.1106 H   0  0  0  0  0  0  0  0  0  0  0  0
   -3.7236    0.9787   -0.0537 C   0  0  0  0  0  0  0  0  0  0  0  0
   -0.1154    2.1548   -0.0548 C   0  0  0  0  0  0  0  0  0  0  0  0
    0.3648    3.1609   -0.0747 H   0  0  0  0  0  0  0  0  0  0  0  0
    2.7316    0.0278   -0.0877 C   0  0  0  0  0  0  0  0  0  0  0  0
    4.2119    0.3017   -0.0306 C   0  0  0  0  0  0  0  0  0  0  0  0
    4.7956    1.4584    0.5220 C   0  0  0  0  0  0  0  0  0  0  0  0
    4.1901    2.2562    0.9799 H   0  0  0  0  0  0  0  0  0  0  0  0
    6.1960    1.5696    0.5274 C   0  0  0  0  0  0  0  0  0  0  0  0
    6.6742    2.4652    0.9634 H   0  0  0  0  0  0  0  0  0  0  0  0
    6.4564   -0.4744   -0.4804 C   0  0  0  0  0  0  0  0  0  0  0  0
    7.1501   -1.2374   -0.8760 H   0  0  0  0  0  0  0  0  0  0  0  0
    5.0727   -0.6932   -0.5291 C   0  0  0  0  0  0  0  0  0  0  0  0
    4.6408   -1.6176   -0.9398 H   0  0  0  0  0  0  0  0  0  0  0  0
  2  1  1  0  0  0  0
  3 19  2  0  0  0  0
  4  5  1  0  0  0  0
  6  5  1  0  0  0  0
  7 23  1  0  0  0  0
  9 17  1  0  0  0  0
  9  8  2  0  0  0  0
 10  9  1  0  0  0  0
 11 10  1  0  0  0  0
 12 10  2  0  0  0  0
 12 14  1  0  0  0  0
 13 12  1  0  0  0  0
 14 16  2  0  0  0  0
 15 14  1  0  0  0  0
 16  8  1  0  0  0  0
 16  1  1  0  0  0  0
 17  4  2  0  0  0  0
 18 17  1  0  0  0  0
 19 20  1  0  0  0  0
 19  5  1  0  0  0  0
 20 21  1  0  0  0  0
 21 23  2  0  0  0  0
 21 22  1  0  0  0  0
 23 24  1  0  0  0  0
 25  7  2  0  0  0  0
 26 25  1  0  0  0  0
 27 25  1  0  0  0  0
 27 20  2  0  0  0  0
 28 27  1  0  0  0  0
M  END
