1
q = 0.0, confidence = 0.992

 55 57  0  0  1  0  0  0  0  0999 V2000
    0.0048    0.5075   -0.0201 C   0  0  0  0  0  2  0  0  0  0  0  0
   -1.1093    1.2670    0.1064 N   0  0  0  0  0  0  0  0  0  0  0  0
    1.0810    1.3293    0.0314 N   0  0  0  0  0  0  0  0  0  0  0  0
    0.7042    2.7654    0.1022 C   0  0  2  0  0  0  0  0  0  0  0  0
    1.2932    3.2545    0.9043 H   0  0  0  0  0  0  0  0  0  0  0  0
   -0.7810    2.6551    0.5346 C   0  0  1  0  0  0  0  0  0  0  0  0
   -0.8185    2.6701    1.6491 H   0  0  0  0  0  0  0  0  0  0  0  0
    0.9698    3.4887   -1.2173 C   0  0  0  0  0  0  0  0  0  0  0  0
    2.0420    3.4058   -1.4823 H   0  0  0  0  0  0  0  0  0  0  0  0
    0.7248    4.5657   -1.1318 H   0  0  0  0  0  0  0  0  0  0  0  0
    0.3723    3.0554   -2.0432 H   0  0  0  0  0  0  0  0  0  0  0  0
   -1.7407    3.7151    0.0174 C   0  0  0  0  0  0  0  0  0  0  0  0
   -2.7735    3.4832    0.3435 H   0  0  0  0  0  0  0  0  0  0  0  0
   -1.7399    3.7812   -1.0866 H   0  0  0  0  0  0  0  0  0  0  0  0
   -1.4701    4.7082    0.4276 H   0  0  0  0  0  0  0  0  0  0  0  0
    2.4383    0.8745    0.0332 C   0  0  0  0  0  0  0  0  0  0  0  0
    3.0438    0.4090   -1.1631 C   0  0  0  0  0  0  0  0  0  0  0  0
    4.3670   -0.0624   -1.0846 C   0  0  0  0  0  0  0  0  0  0  0  0
    4.8439   -0.4328   -2.0065 H   0  0  0  0  0  0  0  0  0  0  0  0
    5.0956   -0.0774    0.1192 C   0  0  0  0  0  0  0  0  0  0  0  0
    4.4644    0.3992    1.2810 C   0  0  0  0  0  0  0  0  0  0  0  0
    5.0118    0.3867    2.2375 H   0  0  0  0  0  0  0  0  0  0  0  0
    3.1418    0.8773    1.2625 C   0  0  0  0  0  0  0  0  0  0  0  0
    2.3109    0.3884   -2.4760 C   0  0  0  0  0  0  0  0  0  0  0  0
    3.0053    0.1601   -3.3065 H   0  0  0  0  0  0  0  0  0  0  0  0
    1.8236    1.3587   -2.6907 H   0  0  0  0  0  0  0  0  0  0  0  0
    1.4979   -0.3733   -2.4865 H   0  0  0  0  0  0  0  0  0  0  0  0
    6.5183   -0.5769    0.1498 C   0  0  0  0  0  0  0  0  0  0  0  0
    6.6204   -1.5422   -0.3864 H   0  0  0  0  0  0  0  0  0  0  0  0
    6.8809   -0.7189    1.1863 H   0  0  0  0  0  0  0  0  0  0  0  0
    7.2045    0.1405   -0.3490 H   0  0  0  0  0  0  0  0  0  0  0  0
    2.4915    1.3569    2.5356 C   0  0  0  0  0  0  0  0  0  0  0  0
    2.5502    2.4624    2.6386 H   0  0  0  0  0  0  0  0  0  0  0  0
    2.9910    0.9237    3.4232 H   0  0  0  0  0  0  0  0  0  0  0  0
    1.4187    1.0837    2.5716 H   0  0  0  0  0  0  0  0  0  0  0  0
   -2.4399    0.7370    0.1794 C   0  0  0  0  0  0  0  0  0  0  0  0
   -2.9611    0.3307    1.4302 C   0  0  0  0  0  0  0  0  0  0  0  0
   -4.2741   -0.1712    1.4750 C   0  0  0  0  0  0  0  0  0  0  0  0
   -4.6842   -0.4985    2.4443 H   0  0  0  0  0  0  0  0  0  0  0  0
   -5.0697   -0.2714    0.3203 C   0  0  0  0  0  0  0  0  0  0  0  0
   -4.5198    0.1497   -0.9042 C   0  0  0  0  0  0  0  0  0  0  0  0
   -5.1264    0.0764   -1.8213 H   0  0  0  0  0  0  0  0  0  0  0  0
   -3.2113    0.6535   -1.0055 C   0  0  0  0  0  0  0  0  0  0  0  0
   -2.1350    0.4218    2.6879 C   0  0  0  0  0  0  0  0  0  0  0  0
   -2.5584   -0.2158    3.4874 H   0  0  0  0  0  0  0  0  0  0  0  0
   -2.0958    1.4593    3.0846 H   0  0  0  0  0  0  0  0  0  0  0  0
   -1.0922    0.0974    2.5017 H   0  0  0  0  0  0  0  0  0  0  0  0
   -6.4641   -0.8431    0.3805 C   0  0  0  0  0  0  0  0  0  0  0  0
   -6.4834   -1.8816   -0.0140 H   0  0  0  0  0  0  0  0  0  0  0  0
   -7.1727   -0.2532   -0.2354 H   0  0  0  0  0  0  0  0  0  0  0  0
   -6.8509   -0.8746    1.4176 H   0  0  0  0  0  0  0  0  0  0  0  0
   -2.6355    1.0336   -2.3405 C   0  0  0  0  0  0  0  0  0  0  0  0
   -1.9013    0.2560   -2.6534 H   0  0  0  0  0  0  0  0  0  0  0  0
   -2.0917    1.9978   -2.3033 H   0  0  0  0  0  0  0  0  0  0  0  0
   -3.4268    1.1040   -3.1106 H   0  0  0  0  0  0  0  0  0  0  0  0
  1  3  1  0  0  0  0
  1  2  1  0  0  0  0
  2 36  1  0  0  0  0
  2  6  1  0  0  0  0
  3 16  1  0  0  0  0
  3  4  1  0  0  0  0
  4  6  1  0  0  0  0
  4  5  1  1  0  0  0
  6  7  1  1  0  0  0
  8 10  1  0  0  0  0
  8  4  1  0  0  0  0
  9  8  1  0  0  0  0
 11  8  1  0  0  0  0
 12 13  1  0  0  0  0
 12 15  1  0  0  0  0
 12  6  1  0  0  0  0
 14 12  1  0  0  0  0
 16 23  1  0  0  0  0
 17 18  1  0  0  0  0
 17 16  2  0  0  0  0
 18 20  2  0  0  0  0
 19 18  1  0  0  0  0
 20 28  1  0  0  0  0
 20 21  1  0  0  0  0
 21 22  1  0  0  0  0
 23 21  2  0  0  0  0
 23 32  1  0  0  0  0
 24 17  1  0  0  0  0
 25 24  1  0  0  0  0
 26 24  1  0  0  0  0
 27 24  1  0  0  0  0
 28 30  1  0  0  0  0
 29 28  1  0  0  0  0
 31 28  1  0  0  0  0
 32 35  1  0  0  0  0
 32 33  1  0  0  0  0
 32 34  1  0  0  0  0
 36 37  1  0  0  0  0
 37 38  2  0  0  0  0
 37 44  1  0  0  0  0
 38 39  1  0  0  0  0
 40 48  1  0  0  0  0
 40 38  1  0  0  0  0
 41 40  2  0  0  0  0
 42 41  1  0  0  0  0
 43 41  1  0  0  0  0
 43 36  2  0  0  0  0
 44 46  1  0  0  0  0
 44 45  1  0  0  0  0
 47 44  1  0  0  0  0
 48 51  1  0  0  0  0
 49 48  1  0  0  0  0
 50 48  1  0  0  0  0
 52 54  1  0  0  0  0
 52 43  1  0  0  0  0
 53 52  1  0  0  0  0
 55 52  1  0  0  0  0
M  END
