7
q = 0.0, confidence = 0.998

 22 22  0  0  0  0  0  0  0  0999 V2000
   -3.3823    2.0805   -0.6816 Cl  0  0  0  0  0  0  0  0  0  0  0  0
   -4.4889   -1.1523    0.2799 Cl  0  0  0  0  0  0  0  0  0  0  0  0
    1.3527    1.1238    1.6644 O   0  0  0  0  0  0  0  0  0  0  0  0
    2.0782    1.3333    1.0008 H   0  0  0  0  0  0  0  0  0  0  0  0
   -1.0901    0.5936   -0.5028 N   0  0  0  0  0  0  0  0  0  0  0  0
   -1.7714   -1.3892    0.0748 N   0  0  0  0  0  0  0  0  0  0  0  0
   -0.6471   -0.6722   -0.2217 C   0  0  0  0  0  2  0  0  0  0  0  0
   -2.4703    0.6699   -0.3791 C   0  0  0  0  0  0  0  0  0  0  0  0
   -2.9056   -0.5879   -0.0147 C   0  0  0  0  0  0  0  0  0  0  0  0
   -0.1926    1.7097   -0.8327 C   0  0  0  0  0  0  0  0  0  0  0  0
   -0.5900    2.2124   -1.7371 H   0  0  0  0  0  0  0  0  0  0  0  0
    0.7796    1.2434   -1.0917 H   0  0  0  0  0  0  0  0  0  0  0  0
    0.0092    2.7131    0.3072 C   0  0  0  0  0  0  0  0  0  0  0  0
    0.8412    3.3763   -0.0136 H   0  0  0  0  0  0  0  0  0  0  0  0
   -0.8866    3.3603    0.4209 H   0  0  0  0  0  0  0  0  0  0  0  0
    0.3352    2.0877    1.6706 C   0  0  0  0  0  0  0  0  0  0  0  0
    0.5546    2.9269    2.3791 H   0  0  0  0  0  0  0  0  0  0  0  0
   -0.5835    1.5938    2.0668 H   0  0  0  0  0  0  0  0  0  0  0  0
   -1.7764   -2.7945    0.4454 C   0  0  0  0  0  0  0  0  0  0  0  0
   -0.7326   -3.1526    0.3873 H   0  0  0  0  0  0  0  0  0  0  0  0
   -2.4137   -3.3757   -0.2491 H   0  0  0  0  0  0  0  0  0  0  0  0
   -2.1563   -2.9222    1.4780 H   0  0  0  0  0  0  0  0  0  0  0  0
  1  8  1  0  0  0  0
  3 16  1  0  0  0  0
  4  3  1  0  0  0  0
  5  8  1  0  0  0  0
  5  7  1  0  0  0  0
  6 19  1  0  0  0  0
  7  6  1  0  0  0  0
  8  9  2  0  0  0  0
  9  6  1  0  0  0  0
  9  2  1  0  0  0  0
 10  5  1  0  0  0  0
 10 13  1  0  0  0  0
 11 10  1  0  0  0  0
 12 10  1  0  0  0  0
 13 15  1  0  0  0  0
 13 16  1  0  0  0  0
 14 13  1  0  0  0  0
 16 18  1  0  0  0  0
 16 17  1  0  0  0  0
 19 22  1  0  0  0  0
 20 19  1  0  0  0  0
 21 19  1  0  0  0  0
M  END
