3
q = 0.0, confidence = 0.994

 26 27  0  0  0  0  0  0  0  0999 V2000
   -0.5477   -2.1640    0.3608 N   0  0  0  0  0  0  0  0  0  0  0  0
    1.6091   -1.8365   -1.5951 O   0  0  0  0  0  0  0  0  0  0  0  0
    0.3688   -1.0353    0.2987 C   0  0  0  0  0  3  0  0  0  0  0  0
    1.6257   -1.3140   -0.4714 C   0  0  0  0  0  0  0  0  0  0  0  0
    2.9466   -0.9564    0.1403 C   0  0  0  0  0  0  0  0  0  0  0  0
    3.1439   -0.7291    1.5186 C   0  0  0  0  0  0  0  0  0  0  0  0
    4.4276   -0.4564    2.0115 C   0  0  0  0  0  0  0  0  0  0  0  0
    5.5244   -0.4020    1.1375 C   0  0  0  0  0  0  0  0  0  0  0  0
    5.3395   -0.6391   -0.2367 C   0  0  0  0  0  0  0  0  0  0  0  0
    4.0621   -0.9240   -0.7280 C   0  0  0  0  0  0  0  0  0  0  0  0
   -0.7605   -2.9924   -0.7084 C   0  0  0  0  0  3  0  0  0  0  0  0
   -1.6746   -4.0461   -0.6131 C   0  0  0  0  0  0  0  0  0  0  0  0
   -2.4095   -4.2389    0.5583 C   0  0  0  0  0  0  0  0  0  0  0  0
   -2.1925   -3.3598    1.6380 C   0  0  0  0  0  0  0  0  0  0  0  0
   -1.2654   -2.3373    1.5186 C   0  0  0  0  0  0  0  0  0  0  0  0
    0.5380   -0.6780    1.3258 H   0  0  0  0  0  0  0  0  0  0  0  0
    2.2968   -0.7569    2.2157 H   0  0  0  0  0  0  0  0  0  0  0  0
    4.5699   -0.2786    3.0878 H   0  0  0  0  0  0  0  0  0  0  0  0
    6.5289   -0.1787    1.5284 H   0  0  0  0  0  0  0  0  0  0  0  0
    6.1996   -0.6063   -0.9230 H   0  0  0  0  0  0  0  0  0  0  0  0
    3.8875   -1.1317   -1.7937 H   0  0  0  0  0  0  0  0  0  0  0  0
   -0.1339   -2.7860   -1.5840 H   0  0  0  0  0  0  0  0  0  0  0  0
   -1.8088   -4.6947   -1.4895 H   0  0  0  0  0  0  0  0  0  0  0  0
   -3.1458   -5.0519    0.6352 H   0  0  0  0  0  0  0  0  0  0  0  0
   -2.7428   -3.4626    2.5833 H   0  0  0  0  0  0  0  0  0  0  0  0
   -1.0518   -1.6008    2.3087 H   0  0  0  0  0  0  0  0  0  0  0  0
  1 15  1  0  0  0  0
  2  4  2  0  0  0  0
  3  1  1  0  0  0  0
  3 16  1  0  0  0  0
  4  5  1  0  0  0  0
  4  3  1  0  0  0  0
  5  6  1  0  0  0  0
  6  7  2  0  0  0  0
  6 17  1  0  0  0  0
  7 18  1  0  0  0  0
  8 19  1  0  0  0  0
  8  7  1  0  0  0  0
  9  8  2  0  0  0  0
 10  9  1  0  0  0  0
 10  5  2  0  0  0  0
 11 12  1  0  0  0  0
 11  1  1  0  0  0  0
 12 13  2  0  0  0  0
 13 24  1  0  0  0  0
 13 14  1  0  0  0  0
 14 25  1  0  0  0  0
 15 14  2  0  0  0  0
 15 26  1  0  0  0  0
 20  9  1  0  0  0  0
 21 10  1  0  0  0  0
 22 11  1  0  0  0  0
 23 12  1  0  0  0  0
M  END
