2
q = -1

  4  3  0  0  0  0  0  0  0  0999 V2000
   -4.2746   -0.8765    0.1154 Br  0  0  0  0  0  0  0  0  0  0  0  0
   -2.5557   -1.5882    0.7175 C   0  0  0  0  0  3  0  0  0  0  0  0
   -2.5054   -2.6125    0.3063 H   0  0  0  0  0  0  0  0  0  0  0  0
   -2.6240   -1.6098    1.8206 H   0  0  0  0  0  0  0  0  0  0  0  0
  1  2  1  0  0  0  0
  2  4  1  0  0  0  0
  3  2  1  0  0  0  0
M  END
