1
q = -1.0

 40 40  0  0  1  0  0  0  0  0999 V2000
   -1.8887    0.0556   -1.3884 C   0  0  2  0  0  3  0  0  0  0  0  0
   -1.9849    0.3048   -2.8553 C   0  0  0  0  0  0  0  0  0  0  0  0
   -2.0354    1.4100   -3.3736 O   0  0  0  0  0  0  0  0  0  0  0  0
   -2.0075   -0.8532   -3.5606 O   0  0  0  0  0  0  0  0  0  0  0  0
   -2.0265   -0.7031   -4.9817 C   0  0  0  0  0  0  0  0  0  0  0  0
   -1.9998   -1.2465   -0.7075 C   0  0  0  0  0  0  0  0  0  0  0  0
   -1.5090   -2.5518   -1.2100 C   0  0  0  0  0  0  0  0  0  0  0  0
   -0.4231   -2.7443   -1.7415 O   0  0  0  0  0  0  0  0  0  0  0  0
   -2.3986   -3.5389   -0.9586 O   0  0  0  0  0  0  0  0  0  0  0  0
   -1.9147   -4.8685   -1.1651 C   0  0  0  0  0  0  0  0  0  0  0  0
   -2.4771   -1.0210    0.5859 C   0  0  0  0  0  0  0  0  0  0  0  0
   -2.5478   -2.0576    1.6468 C   0  0  0  0  0  0  0  0  0  0  0  0
   -1.6841   -2.8928    1.8663 O   0  0  0  0  0  0  0  0  0  0  0  0
   -3.6996   -1.9645    2.3525 O   0  0  0  0  0  0  0  0  0  0  0  0
   -3.7852   -2.8226    3.4905 C   0  0  0  0  0  0  0  0  0  0  0  0
   -2.7130    0.3956    0.7587 C   0  0  0  0  0  0  0  0  0  0  0  0
   -2.9255    1.0609    2.0574 C   0  0  0  0  0  0  0  0  0  0  0  0
   -2.6110    0.6061    3.1506 O   0  0  0  0  0  0  0  0  0  0  0  0
   -3.4649    2.3004    1.9054 O   0  0  0  0  0  0  0  0  0  0  0  0
   -3.5616    3.0766    3.1009 C   0  0  0  0  0  0  0  0  0  0  0  0
   -2.3939    1.0484   -0.4408 C   0  0  0  0  0  0  0  0  0  0  0  0
   -2.4225    2.5176   -0.7247 C   0  0  0  0  0  0  0  0  0  0  0  0
   -1.4632    3.2587   -0.5923 O   0  0  0  0  0  0  0  0  0  0  0  0
   -3.6333    2.9125   -1.1597 O   0  0  0  0  0  0  0  0  0  0  0  0
   -3.7143    4.2865   -1.5510 C   0  0  0  0  0  0  0  0  0  0  0  0
   -2.9335   -0.1569   -5.3114 H   0  0  0  0  0  0  0  0  0  0  0  0
   -1.1377   -0.1395   -5.3318 H   0  0  0  0  0  0  0  0  0  0  0  0
   -2.0199   -1.7269   -5.3962 H   0  0  0  0  0  0  0  0  0  0  0  0
   -1.4766   -4.9814   -2.1766 H   0  0  0  0  0  0  0  0  0  0  0  0
   -1.1385   -5.1089   -0.4096 H   0  0  0  0  0  0  0  0  0  0  0  0
   -2.7857   -5.5362   -1.0395 H   0  0  0  0  0  0  0  0  0  0  0  0
   -4.7913   -2.6671    3.9193 H   0  0  0  0  0  0  0  0  0  0  0  0
   -3.6429   -3.8839    3.2030 H   0  0  0  0  0  0  0  0  0  0  0  0
   -3.0076   -2.5561    4.2358 H   0  0  0  0  0  0  0  0  0  0  0  0
   -4.0063    4.0430    2.8032 H   0  0  0  0  0  0  0  0  0  0  0  0
   -4.2020    2.5706    3.8514 H   0  0  0  0  0  0  0  0  0  0  0  0
   -2.5608    3.2363    3.5519 H   0  0  0  0  0  0  0  0  0  0  0  0
   -3.4437    4.9549   -0.7086 H   0  0  0  0  0  0  0  0  0  0  0  0
   -3.0240    4.4860   -2.3954 H   0  0  0  0  0  0  0  0  0  0  0  0
   -4.7610    4.4563   -1.8600 H   0  0  0  0  0  0  0  0  0  0  0  0
  1  2  1  6  0  0  0
  1  6  1  0  0  0  0
  1 21  1  0  0  0  0
  3  2  2  0  0  0  0
  4  2  1  0  0  0  0
  5  4  1  0  0  0  0
  6 11  2  0  0  0  0
  7  9  1  0  0  0  0
  7  6  1  0  0  0  0
  8  7  2  0  0  0  0
 10 31  1  0  0  0  0
 10  9  1  0  0  0  0
 10 30  1  0  0  0  0
 11 16  1  0  0  0  0
 11 12  1  0  0  0  0
 12 13  2  0  0  0  0
 12 14  1  0  0  0  0
 14 15  1  0  0  0  0
 15 32  1  0  0  0  0
 15 34  1  0  0  0  0
 16 17  1  0  0  0  0
 17 18  2  0  0  0  0
 19 17  1  0  0  0  0
 19 20  1  0  0  0  0
 20 37  1  0  0  0  0
 20 36  1  0  0  0  0
 21 16  2  0  0  0  0
 22 23  2  0  0  0  0
 22 21  1  0  0  0  0
 24 22  1  0  0  0  0
 25 24  1  0  0  0  0
 25 38  1  0  0  0  0
 26  5  1  0  0  0  0
 27  5  1  0  0  0  0
 28  5  1  0  0  0  0
 29 10  1  0  0  0  0
 33 15  1  0  0  0  0
 35 20  1  0  0  0  0
 39 25  1  0  0  0  0
 40 25  1  0  0  0  0
M  END
