3
q = 0.0, confidence = 1.0

 56 59  0  0  1  0  0  0  0  0999 V2000
    1.1996   -1.9164    0.7151 N   0  0  0  0  0  0  0  0  0  0  0  0
   -0.8874   -2.5009    0.3527 N   0  0  0  0  0  0  0  0  0  0  0  0
   -0.0448   -1.4250    0.4275 C   0  0  0  0  0  2  0  0  0  0  0  0
    1.2607   -3.3747    0.6670 C   0  0  0  0  0  0  0  0  0  0  0  0
    1.8408   -3.7786    1.5229 H   0  0  0  0  0  0  0  0  0  0  0  0
    1.7572   -3.7176   -0.2691 H   0  0  0  0  0  0  0  0  0  0  0  0
   -0.2229   -3.7647    0.7024 C   0  0  0  0  0  0  0  0  0  0  0  0
   -0.4818   -4.5608   -0.0241 H   0  0  0  0  0  0  0  0  0  0  0  0
   -0.5475   -4.1075    1.7110 H   0  0  0  0  0  0  0  0  0  0  0  0
    2.4065   -1.1134    0.7754 C   0  0  0  0  0  0  0  0  0  0  0  0
    2.9643   -1.3961    1.6940 H   0  0  0  0  0  0  0  0  0  0  0  0
    2.0879   -0.0636    0.9434 H   0  0  0  0  0  0  0  0  0  0  0  0
    3.3069   -1.2039   -0.4781 C   0  0  2  0  0  0  0  0  0  0  0  0
    2.5995   -1.3044   -1.3282 H   0  0  0  0  0  0  0  0  0  0  0  0
    4.2909   -2.4205   -0.4685 C   0  0  0  0  0  0  0  0  0  0  0  0
    4.2280   -2.9261    0.5179 H   0  0  0  0  0  0  0  0  0  0  0  0
    3.9403   -3.1769   -1.1991 H   0  0  0  0  0  0  0  0  0  0  0  0
    5.7875   -2.0825   -0.7617 C   0  0  0  0  0  0  0  0  0  0  0  0
    6.4268   -2.4231    0.0797 H   0  0  0  0  0  0  0  0  0  0  0  0
    6.1335   -2.6469   -1.6530 H   0  0  0  0  0  0  0  0  0  0  0  0
    6.0267   -0.5910   -1.0200 C   0  0  1  0  0  0  0  0  0  0  0  0
    7.0942   -0.3932   -1.2572 H   0  0  0  0  0  0  0  0  0  0  0  0
    4.9410   -0.0767   -2.0001 C   0  0  0  0  0  0  0  0  0  0  0  0
    5.2084    0.8753   -2.4942 H   0  0  0  0  0  0  0  0  0  0  0  0
    4.5742   -0.7839   -2.7724 H   0  0  0  0  0  0  0  0  0  0  0  0
    4.0487    0.1160   -0.7464 C   0  0  2  0  0  0  0  0  0  0  0  0
    3.3258    0.9559   -0.7486 H   0  0  0  0  0  0  0  0  0  0  0  0
    5.3654    0.2974    0.0918 C   0  0  0  0  0  0  0  0  0  0  0  0
    5.8516    1.7526    0.0399 C   0  0  0  0  0  0  0  0  0  0  0  0
    5.8406    2.1736   -0.9839 H   0  0  0  0  0  0  0  0  0  0  0  0
    6.8893    1.8342    0.4260 H   0  0  0  0  0  0  0  0  0  0  0  0
    5.2056    2.3977    0.6721 H   0  0  0  0  0  0  0  0  0  0  0  0
    5.4294   -0.1769    1.5444 C   0  0  0  0  0  0  0  0  0  0  0  0
    4.7629    0.4343    2.1883 H   0  0  0  0  0  0  0  0  0  0  0  0
    6.4609   -0.0641    1.9405 H   0  0  0  0  0  0  0  0  0  0  0  0
    5.1426   -1.2363    1.6770 H   0  0  0  0  0  0  0  0  0  0  0  0
   -2.2962   -2.4732    0.1361 C   0  0  0  0  0  0  0  0  0  0  0  0
   -2.7766   -2.5802   -1.1896 C   0  0  0  0  0  0  0  0  0  0  0  0
   -4.1667   -2.5234   -1.3939 C   0  0  0  0  0  0  0  0  0  0  0  0
   -4.5549   -2.5885   -2.4232 H   0  0  0  0  0  0  0  0  0  0  0  0
   -5.0692   -2.3689   -0.3238 C   0  0  0  0  0  0  0  0  0  0  0  0
   -4.5504   -2.2642    0.9813 C   0  0  0  0  0  0  0  0  0  0  0  0
   -5.2417   -2.1214    1.8276 H   0  0  0  0  0  0  0  0  0  0  0  0
   -3.1682   -2.3109    1.2379 C   0  0  0  0  0  0  0  0  0  0  0  0
   -1.8114   -2.6753   -2.3412 C   0  0  0  0  0  0  0  0  0  0  0  0
   -1.1610   -1.7752   -2.3908 H   0  0  0  0  0  0  0  0  0  0  0  0
   -2.3473   -2.7756   -3.3040 H   0  0  0  0  0  0  0  0  0  0  0  0
   -1.1319   -3.5468   -2.2355 H   0  0  0  0  0  0  0  0  0  0  0  0
   -6.5575   -2.3377   -0.5682 C   0  0  0  0  0  0  0  0  0  0  0  0
   -6.8001   -1.8999   -1.5566 H   0  0  0  0  0  0  0  0  0  0  0  0
   -7.0876   -1.7543    0.2102 H   0  0  0  0  0  0  0  0  0  0  0  0
   -6.9839   -3.3640   -0.5537 H   0  0  0  0  0  0  0  0  0  0  0  0
   -2.6198   -2.0951    2.6236 C   0  0  0  0  0  0  0  0  0  0  0  0
   -1.9778   -2.9379    2.9540 H   0  0  0  0  0  0  0  0  0  0  0  0
   -3.4362   -1.9841    3.3619 H   0  0  0  0  0  0  0  0  0  0  0  0
   -1.9866   -1.1822    2.6614 H   0  0  0  0  0  0  0  0  0  0  0  0
  1 10  1  0  0  0  0
  2  3  1  0  0  0  0
  2  7  1  0  0  0  0
  3  1  1  0  0  0  0
  4  7  1  0  0  0  0
  4  1  1  0  0  0  0
  4  5  1  0  0  0  0
  6  4  1  0  0  0  0
  7  9  1  0  0  0  0
  8  7  1  0  0  0  0
 10 12  1  0  0  0  0
 10 11  1  0  0  0  0
 13 14  1  6  0  0  0
 13 15  1  0  0  0  0
 13 10  1  0  0  0  0
 15 16  1  0  0  0  0
 17 15  1  0  0  0  0
 18 15  1  0  0  0  0
 18 19  1  0  0  0  0
 20 18  1  0  0  0  0
 21 22  1  6  0  0  0
 21 18  1  0  0  0  0
 21 28  1  0  0  0  0
 23 21  1  0  0  0  0
 23 26  1  0  0  0  0
 24 23  1  0  0  0  0
 25 23  1  0  0  0  0
 26 27  1  6  0  0  0
 26 13  1  0  0  0  0
 26 28  1  0  0  0  0
 28 33  1  0  0  0  0
 29 28  1  0  0  0  0
 29 31  1  0  0  0  0
 29 32  1  0  0  0  0
 30 29  1  0  0  0  0
 33 36  1  0  0  0  0
 33 35  1  0  0  0  0
 33 34  1  0  0  0  0
 37  2  1  0  0  0  0
 37 44  1  0  0  0  0
 38 37  2  0  0  0  0
 39 38  1  0  0  0  0
 39 41  2  0  0  0  0
 40 39  1  0  0  0  0
 41 42  1  0  0  0  0
 42 44  2  0  0  0  0
 42 43  1  0  0  0  0
 44 53  1  0  0  0  0
 45 48  1  0  0  0  0
 45 38  1  0  0  0  0
 46 45  1  0  0  0  0
 47 45  1  0  0  0  0
 49 52  1  0  0  0  0
 49 41  1  0  0  0  0
 49 51  1  0  0  0  0
 50 49  1  0  0  0  0
 53 56  1  0  0  0  0
 53 54  1  0  0  0  0
 53 55  1  0  0  0  0
M  END
