1
q = 0.0, confidence = 1.0

 33 36  0  0  0  0  0  0  0  0999 V2000
    0.3989   -0.0016   -0.0441 C   0  0  0  0  0  1  0  0  0  0  0  0
   -0.7858   -0.0007   -0.0292 N   0  0  0  0  0  2  0  0  0  0  0  0
   -2.1602   -0.0004   -0.0130 C   0  0  0  0  0  0  0  0  0  0  0  0
   -2.8723   -1.0375   -0.6561 C   0  0  0  0  0  0  0  0  0  0  0  0
   -2.3191   -1.8312   -1.1772 H   0  0  0  0  0  0  0  0  0  0  0  0
   -4.2674   -1.0288   -0.6431 C   0  0  0  0  0  0  0  0  0  0  0  0
   -4.8256   -1.8142   -1.1708 H   0  0  0  0  0  0  0  0  0  0  0  0
   -4.9733    0.0004    0.0198 C   0  0  0  0  0  0  0  0  0  0  0  0
   -4.2516    1.0292    0.6660 C   0  0  0  0  0  0  0  0  0  0  0  0
   -4.7969    1.8150    1.2065 H   0  0  0  0  0  0  0  0  0  0  0  0
   -2.8565    1.0370    0.6465 C   0  0  0  0  0  0  0  0  0  0  0  0
   -2.2909    1.8306    1.1544 H   0  0  0  0  0  0  0  0  0  0  0  0
   -6.3809    0.0009    0.0361 N   0  0  0  0  0  0  0  0  0  0  0  0
   -7.1989   -1.0992    0.3542 C   0  0  0  0  0  0  0  0  0  0  0  0
   -6.8416   -2.3925    0.7698 C   0  0  0  0  0  0  0  0  0  0  0  0
   -5.7906   -2.6931    0.8796 H   0  0  0  0  0  0  0  0  0  0  0  0
   -7.8767   -3.2933    1.0592 C   0  0  0  0  0  0  0  0  0  0  0  0
   -7.6212   -4.3128    1.3847 H   0  0  0  0  0  0  0  0  0  0  0  0
   -9.2334   -2.9179    0.9476 C   0  0  0  0  0  0  0  0  0  0  0  0
  -10.0198   -3.6509    1.1802 H   0  0  0  0  0  0  0  0  0  0  0  0
   -9.5842   -1.6202    0.5555 C   0  0  0  0  0  0  0  0  0  0  0  0
  -10.6408   -1.3213    0.4855 H   0  0  0  0  0  0  0  0  0  0  0  0
   -8.5654   -0.6966    0.2590 C   0  0  0  0  0  0  0  0  0  0  0  0
   -8.5695    0.7000   -0.1357 C   0  0  0  0  0  0  0  0  0  0  0  0
   -7.2053    1.1016   -0.2628 C   0  0  0  0  0  0  0  0  0  0  0  0
   -6.8568    2.3946   -0.6865 C   0  0  0  0  0  0  0  0  0  0  0  0
   -5.8085    2.6944   -0.8208 H   0  0  0  0  0  0  0  0  0  0  0  0
   -7.8977    3.2962   -0.9517 C   0  0  0  0  0  0  0  0  0  0  0  0
   -7.6491    4.3155   -1.2831 H   0  0  0  0  0  0  0  0  0  0  0  0
   -9.2516    2.9218   -0.8085 C   0  0  0  0  0  0  0  0  0  0  0  0
  -10.0427    3.6554   -1.0227 H   0  0  0  0  0  0  0  0  0  0  0  0
   -9.5942    1.6243   -0.4083 C   0  0  0  0  0  0  0  0  0  0  0  0
  -10.6492    1.3263   -0.3137 H   0  0  0  0  0  0  0  0  0  0  0  0
  1  2  1  0  0  0  0
  2  3  1  0  0  0  0
  3 11  1  0  0  0  0
  4  6  1  0  0  0  0
  4  3  2  0  0  0  0
  5  4  1  0  0  0  0
  6  8  2  0  0  0  0
  7  6  1  0  0  0  0
  8 13  1  0  0  0  0
  8  9  1  0  0  0  0
  9 10  1  0  0  0  0
 11  9  2  0  0  0  0
 11 12  1  0  0  0  0
 13 14  1  0  0  0  0
 14 15  1  0  0  0  0
 15 16  1  0  0  0  0
 15 17  2  0  0  0  0
 17 18  1  0  0  0  0
 19 17  1  0  0  0  0
 19 20  1  0  0  0  0
 21 19  2  0  0  0  0
 22 21  1  0  0  0  0
 23 14  2  0  0  0  0
 23 21  1  0  0  0  0
 24 23  1  0  0  0  0
 25 24  1  0  0  0  0
 25 13  1  0  0  0  0
 26 25  2  0  0  0  0
 27 26  1  0  0  0  0
 28 30  2  0  0  0  0
 28 26  1  0  0  0  0
 29 28  1  0  0  0  0
 30 32  1  0  0  0  0
 31 30  1  0  0  0  0
 32 33  1  0  0  0  0
 32 24  2  0  0  0  0
M  END
