2
q = -1.0

 13 13  0  0  0  0  0  0  0  0999 V2000
   -1.7984    0.2487   -1.3066 C   0  0  0  0  0  3  0  0  0  0  0  0
   -1.4519   -1.0909   -1.0581 C   0  0  0  0  0  2  0  0  0  0  0  0
   -1.4884   -1.7035    0.2305 C   0  0  0  0  0  3  0  0  0  0  0  0
   -1.5809   -0.6864    1.2363 C   0  0  0  0  0  3  0  0  0  0  0  0
   -2.6009    0.4407    1.0952 C   0  0  0  0  0  0  0  0  0  0  0  0
   -2.8489    0.8610   -0.3766 C   0  0  0  0  0  0  0  0  0  0  0  0
   -1.6856    0.6796   -2.3149 H   0  0  0  0  0  0  0  0  0  0  0  0
   -1.2463   -2.7617    0.4113 H   0  0  0  0  0  0  0  0  0  0  0  0
   -1.2924   -0.9397    2.2718 H   0  0  0  0  0  0  0  0  0  0  0  0
   -3.5578    0.1194    1.5670 H   0  0  0  0  0  0  0  0  0  0  0  0
   -2.2512    1.3125    1.6851 H   0  0  0  0  0  0  0  0  0  0  0  0
   -3.8524    0.5216   -0.7153 H   0  0  0  0  0  0  0  0  0  0  0  0
   -2.8481    1.9661   -0.4770 H   0  0  0  0  0  0  0  0  0  0  0  0
  1  2  1  0  0  0  0
  1  6  1  0  0  0  0
  2  3  1  0  0  0  0
  3  8  1  0  0  0  0
  3  4  1  0  0  0  0
  4  9  1  0  0  0  0
  5  4  1  0  0  0  0
  5 10  1  0  0  0  0
  5 11  1  0  0  0  0
  6  5  1  0  0  0  0
  7  1  1  0  0  0  0
 12  6  1  0  0  0  0
 13  6  1  0  0  0  0
M  END
