3
q = 0.0, confidence = 0.988

 59 62  0  0  1  0  0  0  0  0999 V2000
   -0.7370    1.5613   -0.0495 N   0  0  0  0  0  0  0  0  0  0  0  0
    1.4297    1.1395    0.0255 N   0  0  0  0  0  0  0  0  0  0  0  0
    0.1983    0.5550   -0.0498 C   0  0  0  0  0  2  0  0  0  0  0  0
   -0.0936    2.8540    0.2466 C   0  0  2  0  0  0  0  0  0  0  0  0
   -0.0439    2.9677    1.3593 H   0  0  0  0  0  0  0  0  0  0  0  0
   -0.6223    4.1611   -0.3205 C   0  0  0  0  0  0  0  0  0  0  0  0
   -1.6576    4.3631    0.0228 H   0  0  0  0  0  0  0  0  0  0  0  0
   -0.6433    4.1107   -1.4297 H   0  0  0  0  0  0  0  0  0  0  0  0
    0.3424    5.2693    0.1576 C   0  0  0  0  0  0  0  0  0  0  0  0
    0.0458    6.2443   -0.2798 H   0  0  0  0  0  0  0  0  0  0  0  0
    0.2337    5.3800    1.2594 H   0  0  0  0  0  0  0  0  0  0  0  0
    1.8224    4.9815   -0.1739 C   0  0  0  0  0  0  0  0  0  0  0  0
    2.4643    5.7710    0.2672 H   0  0  0  0  0  0  0  0  0  0  0  0
    1.9641    5.0479   -1.2751 H   0  0  0  0  0  0  0  0  0  0  0  0
    2.3018    3.5891    0.2940 C   0  0  0  0  0  0  0  0  0  0  0  0
    3.3323    3.3866   -0.0627 H   0  0  0  0  0  0  0  0  0  0  0  0
    2.3211    3.5317    1.4038 H   0  0  0  0  0  0  0  0  0  0  0  0
    1.3138    2.5818   -0.2656 C   0  0  1  0  0  0  0  0  0  0  0  0
    1.2978    2.6928   -1.3777 H   0  0  0  0  0  0  0  0  0  0  0  0
   -2.1368    1.3121    0.1643 C   0  0  0  0  0  0  0  0  0  0  0  0
   -2.6223    1.1338    1.4838 C   0  0  0  0  0  0  0  0  0  0  0  0
   -3.9757    0.7951    1.6610 C   0  0  0  0  0  0  0  0  0  0  0  0
   -4.3506    0.6307    2.6845 H   0  0  0  0  0  0  0  0  0  0  0  0
   -4.8564    0.6593    0.5739 C   0  0  0  0  0  0  0  0  0  0  0  0
   -4.3604    0.9298   -0.7144 C   0  0  0  0  0  0  0  0  0  0  0  0
   -5.0434    0.8744   -1.5775 H   0  0  0  0  0  0  0  0  0  0  0  0
   -3.0160    1.2723   -0.9474 C   0  0  0  0  0  0  0  0  0  0  0  0
   -1.7436    1.3374    2.6934 C   0  0  0  0  0  0  0  0  0  0  0  0
   -1.7455    2.4033    3.0091 H   0  0  0  0  0  0  0  0  0  0  0  0
   -0.6906    1.0576    2.5036 H   0  0  0  0  0  0  0  0  0  0  0  0
   -2.1068    0.7446    3.5549 H   0  0  0  0  0  0  0  0  0  0  0  0
   -6.2851    0.2227    0.7789 C   0  0  0  0  0  0  0  0  0  0  0  0
   -6.9655    0.6864    0.0374 H   0  0  0  0  0  0  0  0  0  0  0  0
   -6.6512    0.4763    1.7933 H   0  0  0  0  0  0  0  0  0  0  0  0
   -6.3807   -0.8787    0.6619 H   0  0  0  0  0  0  0  0  0  0  0  0
   -2.5403    1.5960   -2.3351 C   0  0  0  0  0  0  0  0  0  0  0  0
   -1.7293    0.9056   -2.6547 H   0  0  0  0  0  0  0  0  0  0  0  0
   -2.1243    2.6233   -2.3841 H   0  0  0  0  0  0  0  0  0  0  0  0
   -3.3724    1.5304   -3.0615 H   0  0  0  0  0  0  0  0  0  0  0  0
    2.6712    0.4441    0.1705 C   0  0  0  0  0  0  0  0  0  0  0  0
    3.5007    0.1961   -0.9486 C   0  0  0  0  0  0  0  0  0  0  0  0
    4.6952   -0.5181   -0.7375 C   0  0  0  0  0  0  0  0  0  0  0  0
    5.3384   -0.7304   -1.6068 H   0  0  0  0  0  0  0  0  0  0  0  0
    5.0869   -0.9703    0.5347 C   0  0  0  0  0  0  0  0  0  0  0  0
    4.2665   -0.6508    1.6326 C   0  0  0  0  0  0  0  0  0  0  0  0
    4.5744   -0.9580    2.6453 H   0  0  0  0  0  0  0  0  0  0  0  0
    3.0678    0.0662    1.4779 C   0  0  0  0  0  0  0  0  0  0  0  0
    2.2493    0.4559    2.6841 C   0  0  0  0  0  0  0  0  0  0  0  0
    2.7458    0.1343    3.6190 H   0  0  0  0  0  0  0  0  0  0  0  0
    1.2362    0.0058    2.6684 H   0  0  0  0  0  0  0  0  0  0  0  0
    2.1012    1.5546    2.7323 H   0  0  0  0  0  0  0  0  0  0  0  0
    6.3427   -1.7848    0.7176 C   0  0  0  0  0  0  0  0  0  0  0  0
    6.8072   -1.6055    1.7076 H   0  0  0  0  0  0  0  0  0  0  0  0
    7.0943   -1.5601   -0.0646 H   0  0  0  0  0  0  0  0  0  0  0  0
    6.1212   -2.8722    0.6544 H   0  0  0  0  0  0  0  0  0  0  0  0
    3.1320    0.6911   -2.3199 C   0  0  0  0  0  0  0  0  0  0  0  0
    3.2237    1.7969   -2.3853 H   0  0  0  0  0  0  0  0  0  0  0  0
    2.0851    0.4205   -2.5774 H   0  0  0  0  0  0  0  0  0  0  0  0
    3.8017    0.2603   -3.0882 H   0  0  0  0  0  0  0  0  0  0  0  0
  1 20  1  0  0  0  0
  1  4  1  0  0  0  0
  2 40  1  0  0  0  0
  3  1  1  0  0  0  0
  3  2  1  0  0  0  0
  4  5  1  1  0  0  0
  6  7  1  0  0  0  0
  6  9  1  0  0  0  0
  6  4  1  0  0  0  0
  8  6  1  0  0  0  0
  9 11  1  0  0  0  0
 10  9  1  0  0  0  0
 12  9  1  0  0  0  0
 12 13  1  0  0  0  0
 12 15  1  0  0  0  0
 14 12  1  0  0  0  0
 15 17  1  0  0  0  0
 16 15  1  0  0  0  0
 18 19  1  6  0  0  0
 18  2  1  0  0  0  0
 18  4  1  0  0  0  0
 18 15  1  0  0  0  0
 20 21  1  0  0  0  0
 21 22  2  0  0  0  0
 21 28  1  0  0  0  0
 22 23  1  0  0  0  0
 24 32  1  0  0  0  0
 24 22  1  0  0  0  0
 25 24  2  0  0  0  0
 26 25  1  0  0  0  0
 27 25  1  0  0  0  0
 27 20  2  0  0  0  0
 28 29  1  0  0  0  0
 28 31  1  0  0  0  0
 30 28  1  0  0  0  0
 32 34  1  0  0  0  0
 33 32  1  0  0  0  0
 35 32  1  0  0  0  0
 36 27  1  0  0  0  0
 37 36  1  0  0  0  0
 38 36  1  0  0  0  0
 39 36  1  0  0  0  0
 40 47  1  0  0  0  0
 41 42  1  0  0  0  0
 41 40  2  0  0  0  0
 42 44  2  0  0  0  0
 43 42  1  0  0  0  0
 44 52  1  0  0  0  0
 44 45  1  0  0  0  0
 45 46  1  0  0  0  0
 47 45  2  0  0  0  0
 47 48  1  0  0  0  0
 48 51  1  0  0  0  0
 48 49  1  0  0  0  0
 50 48  1  0  0  0  0
 52 53  1  0  0  0  0
 54 52  1  0  0  0  0
 55 52  1  0  0  0  0
 56 41  1  0  0  0  0
 57 56  1  0  0  0  0
 58 56  1  0  0  0  0
 59 56  1  0  0  0  0
M  END
