10
q = -1.0, confidence = 0.0

 20 20  0  0  0  0  0  0  0  0999 V2000
   -1.8665   -0.3235    1.8513 C   0  0  0  0  0  0  0  0  0  0  0  0
   -2.9674    0.4177    1.3679 C   0  0  0  0  0  0  0  0  0  0  0  0
   -2.8115    1.4604    1.0500 H   0  0  0  0  0  0  0  0  0  0  0  0
   -4.2487   -0.1476    1.2591 C   0  0  0  0  0  0  0  0  0  0  0  0
   -4.4311   -1.4872    1.6635 C   0  0  0  0  0  0  0  0  0  0  0  0
   -5.4296   -1.9472    1.5761 H   0  0  0  0  0  0  0  0  0  0  0  0
   -3.3711   -2.2412    2.2003 C   0  0  0  0  0  0  0  0  0  0  0  0
   -2.0992   -1.6415    2.2900 C   0  0  0  0  0  0  0  0  0  0  0  0
   -1.2562   -2.2154    2.7084 H   0  0  0  0  0  0  0  0  0  0  0  0
   -0.4913    0.2613    1.8549 C   0  0  0  0  0  3  0  0  0  0  0  0
    0.1595   -0.2569    2.5931 H   0  0  0  0  0  0  0  0  0  0  0  0
   -0.5373    1.3399    2.1182 H   0  0  0  0  0  0  0  0  0  0  0  0
   -5.4101    0.6674    0.7441 C   0  0  0  0  0  0  0  0  0  0  0  0
   -6.0657    0.0699    0.0782 H   0  0  0  0  0  0  0  0  0  0  0  0
   -5.0628    1.5564    0.1819 H   0  0  0  0  0  0  0  0  0  0  0  0
   -6.0471    1.0306    1.5794 H   0  0  0  0  0  0  0  0  0  0  0  0
   -3.5810   -3.6591    2.6751 C   0  0  0  0  0  0  0  0  0  0  0  0
   -3.4399   -3.7407    3.7735 H   0  0  0  0  0  0  0  0  0  0  0  0
   -2.8526   -4.3575    2.2111 H   0  0  0  0  0  0  0  0  0  0  0  0
   -4.5998   -4.0241    2.4401 H   0  0  0  0  0  0  0  0  0  0  0  0
  1 10  1  0  0  0  0
  1  8  1  0  0  0  0
  2  1  2  0  0  0  0
  3  2  1  0  0  0  0
  4  2  1  0  0  0  0
  4  5  2  0  0  0  0
  5  7  1  0  0  0  0
  6  5  1  0  0  0  0
  7  8  2  0  0  0  0
  7 17  1  0  0  0  0
  8  9  1  0  0  0  0
 10 12  1  0  0  0  0
 10 11  1  0  0  0  0
 13  4  1  0  0  0  0
 13 16  1  0  0  0  0
 14 13  1  0  0  0  0
 15 13  1  0  0  0  0
 17 18  1  0  0  0  0
 19 17  1  0  0  0  0
 20 17  1  0  0  0  0
M  END
