2
q = -1.0, confidence = 0.0

 27 28  0  0  0  0  0  0  0  0999 V2000
    5.5349   -0.1492   -0.0001 N   0  0  0  0  0  0  0  0  0  0  0  0
   -1.2503   -1.3351    0.0007 C   0  0  0  0  0  3  0  0  0  0  0  0
   -0.9948   -0.3405    1.0127 C   0  0  0  0  0  3  0  0  0  0  0  0
   -0.2032    0.5286   -0.0005 C   0  0  0  0  0  0  0  0  0  0  0  0
   -0.9949   -0.3418   -1.0125 C   0  0  0  0  0  3  0  0  0  0  0  0
    1.2992    0.3196   -0.0003 C   0  0  0  0  0  0  0  0  0  0  0  0
    1.8991   -0.9563    0.0000 C   0  0  0  0  0  0  0  0  0  0  0  0
    3.2863   -1.1209    0.0002 C   0  0  0  0  0  0  0  0  0  0  0  0
    4.1593    0.0044   -0.0001 C   0  0  0  0  0  0  0  0  0  0  0  0
    3.5550    1.2925   -0.0003 C   0  0  0  0  0  0  0  0  0  0  0  0
    2.1637    1.4312   -0.0005 C   0  0  0  0  0  0  0  0  0  0  0  0
    6.3914    1.0172    0.0001 C   0  0  0  0  0  0  0  0  0  0  0  0
    6.1142   -1.4751    0.0002 C   0  0  0  0  0  0  0  0  0  0  0  0
   -1.4803   -2.4084    0.0014 H   0  0  0  0  0  0  0  0  0  0  0  0
   -0.8922   -0.4229    2.1058 H   0  0  0  0  0  0  0  0  0  0  0  0
   -0.4118    1.6169   -0.0011 H   0  0  0  0  0  0  0  0  0  0  0  0
   -0.8924   -0.4256   -2.1055 H   0  0  0  0  0  0  0  0  0  0  0  0
    1.2651   -1.8568    0.0003 H   0  0  0  0  0  0  0  0  0  0  0  0
    3.6957   -2.1393    0.0006 H   0  0  0  0  0  0  0  0  0  0  0  0
    4.1756    2.1978   -0.0003 H   0  0  0  0  0  0  0  0  0  0  0  0
    1.7314    2.4451   -0.0007 H   0  0  0  0  0  0  0  0  0  0  0  0
    6.2321    1.6578    0.8979 H   0  0  0  0  0  0  0  0  0  0  0  0
    6.2311    1.6587   -0.8969 H   0  0  0  0  0  0  0  0  0  0  0  0
    7.4488    0.6962   -0.0007 H   0  0  0  0  0  0  0  0  0  0  0  0
    5.8169   -2.0662   -0.8964 H   0  0  0  0  0  0  0  0  0  0  0  0
    5.8189   -2.0651    0.8984 H   0  0  0  0  0  0  0  0  0  0  0  0
    7.2163   -1.3940   -0.0011 H   0  0  0  0  0  0  0  0  0  0  0  0
  1 12  1  0  0  0  0
  1 13  1  0  0  0  0
  2 14  1  0  0  0  0
  2  3  1  0  0  0  0
  3 15  1  0  0  0  0
  4  6  1  0  0  0  0
  4  3  1  0  0  0  0
  5  4  1  0  0  0  0
  5  2  1  0  0  0  0
  6  7  1  0  0  0  0
  7  8  2  0  0  0  0
  7 18  1  0  0  0  0
  8 19  1  0  0  0  0
  9  1  1  0  0  0  0
  9  8  1  0  0  0  0
 10  9  2  0  0  0  0
 11  6  2  0  0  0  0
 11 10  1  0  0  0  0
 12 22  1  0  0  0  0
 13 26  1  0  0  0  0
 16  4  1  0  0  0  0
 17  5  1  0  0  0  0
 20 10  1  0  0  0  0
 21 11  1  0  0  0  0
 23 12  1  0  0  0  0
 24 12  1  0  0  0  0
 25 13  1  0  0  0  0
 27 13  1  0  0  0  0
M  END
