1
q = 0.0, confidence = 0.998

 33 33  0  0  0  0  0  0  0  0999 V2000
    0.9477    1.0020   -0.0145 C   0  0  0  0  0  2  0  0  0  0  0  0
    2.0680    1.7633    0.0194 N   0  0  0  0  0  0  0  0  0  0  0  0
   -0.2297    1.6725    0.0353 N   0  0  0  0  0  0  0  0  0  0  0  0
   -0.2102    2.6831    0.2061 H   0  0  0  0  0  0  0  0  0  0  0  0
    3.3967    1.1314    0.0052 C   0  0  0  0  0  0  0  0  0  0  0  0
    4.0713    1.7859   -0.5868 H   0  0  0  0  0  0  0  0  0  0  0  0
    3.2986    0.1732   -0.5435 H   0  0  0  0  0  0  0  0  0  0  0  0
    3.9508    0.8828    1.4048 C   0  0  0  0  0  0  0  0  0  0  0  0
    4.9609    0.4314    1.3431 H   0  0  0  0  0  0  0  0  0  0  0  0
    3.2913    0.1788    1.9510 H   0  0  0  0  0  0  0  0  0  0  0  0
    4.0324    1.8201    1.9932 H   0  0  0  0  0  0  0  0  0  0  0  0
    2.0566    3.2283    0.1055 C   0  0  0  0  0  0  0  0  0  0  0  0
    3.0147    3.5385    0.5677 H   0  0  0  0  0  0  0  0  0  0  0  0
    1.2782    3.5580    0.8304 H   0  0  0  0  0  0  0  0  0  0  0  0
    1.8739    3.9111   -1.2521 C   0  0  0  0  0  0  0  0  0  0  0  0
    1.8869    5.0137   -1.1400 H   0  0  0  0  0  0  0  0  0  0  0  0
    0.9159    3.6221   -1.7278 H   0  0  0  0  0  0  0  0  0  0  0  0
    2.6901    3.6264   -1.9452 H   0  0  0  0  0  0  0  0  0  0  0  0
   -1.5440    1.1323   -0.0285 C   0  0  0  0  0  0  0  0  0  0  0  0
   -1.8857    0.0856   -0.9109 C   0  0  0  0  0  0  0  0  0  0  0  0
   -1.1197   -0.3444   -1.5716 H   0  0  0  0  0  0  0  0  0  0  0  0
   -3.1912   -0.4020   -0.9452 C   0  0  0  0  0  0  0  0  0  0  0  0
   -3.4678   -1.2230   -1.6217 H   0  0  0  0  0  0  0  0  0  0  0  0
   -4.1932    0.1554   -0.1202 C   0  0  0  0  0  0  0  0  0  0  0  0
   -3.8613    1.2203    0.7422 C   0  0  0  0  0  0  0  0  0  0  0  0
   -4.6148    1.6789    1.3955 H   0  0  0  0  0  0  0  0  0  0  0  0
   -2.5410    1.6935    0.7855 C   0  0  0  0  0  0  0  0  0  0  0  0
   -2.2819    2.5064    1.4822 H   0  0  0  0  0  0  0  0  0  0  0  0
   -5.4339   -0.3891   -0.2335 O   0  0  0  0  0  0  0  0  0  0  0  0
   -6.4705    0.1242    0.5801 C   0  0  0  0  0  0  0  0  0  0  0  0
   -7.3782   -0.4584    0.3367 H   0  0  0  0  0  0  0  0  0  0  0  0
   -6.6670    1.2009    0.3738 H   0  0  0  0  0  0  0  0  0  0  0  0
   -6.2451    0.0050    1.6640 H   0  0  0  0  0  0  0  0  0  0  0  0
  1  2  1  0  0  0  0
  1  3  1  0  0  0  0
  2 12  1  0  0  0  0
  3  4  1  0  0  0  0
  5  2  1  0  0  0  0
  5  8  1  0  0  0  0
  6  5  1  0  0  0  0
  7  5  1  0  0  0  0
  8 10  1  0  0  0  0
  8 11  1  0  0  0  0
  9  8  1  0  0  0  0
 12 13  1  0  0  0  0
 12 14  1  0  0  0  0
 15 16  1  0  0  0  0
 15 12  1  0  0  0  0
 17 15  1  0  0  0  0
 18 15  1  0  0  0  0
 19  3  1  0  0  0  0
 19 27  1  0  0  0  0
 20 19  2  0  0  0  0
 21 20  1  0  0  0  0
 22 20  1  0  0  0  0
 22 24  2  0  0  0  0
 23 22  1  0  0  0  0
 24 25  1  0  0  0  0
 25 27  2  0  0  0  0
 25 26  1  0  0  0  0
 27 28  1  0  0  0  0
 29 24  1  0  0  0  0
 29 30  1  0  0  0  0
 30 33  1  0  0  0  0
 31 30  1  0  0  0  0
 32 30  1  0  0  0  0
M  END
