5
q = -1.0, confidence = 0.008

 18 18  0  0  0  0  0  0  0  0999 V2000
   -4.2310   -3.5602    2.9177 N   0  0  0  0  0  0  0  0  0  0  0  0
   -5.1643    0.4758    1.6845 N   0  0  0  0  0  0  0  0  0  0  0  0
   -5.0948   -0.4264   -1.8497 N   0  0  0  0  0  0  0  0  0  0  0  0
   -4.6479   -4.5639   -0.6744 N   0  0  0  0  0  0  0  0  0  0  0  0
   -1.7007   -0.8160   -0.0271 C   0  0  0  0  0  3  0  0  0  0  0  0
   -2.1423   -1.1779    1.3843 C   0  0  0  0  0  0  0  0  0  0  0  0
   -3.6512   -1.6351    1.2108 C   0  0  0  0  0  0  0  0  0  0  0  0
   -3.7201   -2.1160   -0.3548 C   0  0  0  0  0  0  0  0  0  0  0  0
   -2.2204   -2.0002   -0.8303 C   0  0  0  0  0  0  0  0  0  0  0  0
   -4.0015   -2.7135    2.1421 C   0  0  0  0  0  0  0  0  0  0  0  0
   -4.5341   -0.4851    1.4586 C   0  0  0  0  0  0  0  0  0  0  0  0
   -4.5282   -1.1818   -1.1568 C   0  0  0  0  0  0  0  0  0  0  0  0
   -4.2601   -3.4711   -0.5121 C   0  0  0  0  0  0  0  0  0  0  0  0
   -2.2713    0.0825   -0.3504 H   0  0  0  0  0  0  0  0  0  0  0  0
   -1.5592   -2.0435    1.7575 H   0  0  0  0  0  0  0  0  0  0  0  0
   -2.0709   -0.3535    2.1181 H   0  0  0  0  0  0  0  0  0  0  0  0
   -2.1795   -1.8808   -1.9291 H   0  0  0  0  0  0  0  0  0  0  0  0
   -1.6792   -2.9274   -0.5547 H   0  0  0  0  0  0  0  0  0  0  0  0
  3 12  3  0  0  0  0
  4 13  3  0  0  0  0
  5  6  1  0  0  0  0
  6 15  1  0  0  0  0
  6 16  1  0  0  0  0
  7  6  1  0  0  0  0
  7 11  1  0  0  0  0
  7 10  1  0  0  0  0
  8  7  1  0  0  0  0
  9 18  1  0  0  0  0
  9  8  1  0  0  0  0
  9  5  1  0  0  0  0
 10  1  3  0  0  0  0
 11  2  3  0  0  0  0
 12  8  1  0  0  0  0
 13  8  1  0  0  0  0
 14  5  1  0  0  0  0
 17  9  1  0  0  0  0
M  END
