9
q = 0.0, confidence = 0.98

 33 36  0  0  1  0  0  0  0  0999 V2000
   -0.1046   -1.0762    0.4022 C   0  0  1  0  0  0  0  0  0  0  0  0
   -1.4863   -0.7870   -0.2675 C   0  0  1  0  0  0  0  0  0  0  0  0
   -2.6621   -1.3820    0.5322 C   0  0  0  0  0  0  0  0  0  0  0  0
   -3.9623   -0.7081    0.1754 C   0  0  0  0  0  0  0  0  0  0  0  0
   -3.9623    0.7083    0.1752 C   0  0  0  0  0  0  0  0  0  0  0  0
   -2.6620    1.3822    0.5317 C   0  0  0  0  0  0  0  0  0  0  0  0
   -1.4863    0.7869   -0.2678 C   0  0  1  0  0  0  0  0  0  0  0  0
   -0.1045    1.0764    0.4017 C   0  0  2  0  0  0  0  0  0  0  0  0
    0.9506    0.7140   -0.6362 C   0  0  2  0  0  3  0  0  0  0  0  0
    0.9506   -0.7143   -0.6359 C   0  0  1  0  0  3  0  0  0  0  0  0
   -0.0058    0.0003    1.3518 O   0  0  0  0  0  0  0  0  0  0  0  0
   -5.1372   -1.4019   -0.1555 C   0  0  0  0  0  0  0  0  0  0  0  0
   -6.3112   -0.7016   -0.4781 C   0  0  0  0  0  0  0  0  0  0  0  0
   -6.3112    0.7016   -0.4783 C   0  0  0  0  0  0  0  0  0  0  0  0
   -5.1371    1.4020   -0.1560 C   0  0  0  0  0  0  0  0  0  0  0  0
    1.8861    1.4173   -1.4488 C   0  0  0  0  0  3  0  0  0  0  0  0
    1.8861   -1.4180   -1.4481 C   0  0  0  0  0  3  0  0  0  0  0  0
   -0.0041   -2.0532    0.9088 H   0  0  0  0  0  0  0  0  0  0  0  0
   -1.5181   -1.1774   -1.3041 H   0  0  0  0  0  0  0  0  0  0  0  0
   -2.4509   -1.2237    1.6133 H   0  0  0  0  0  0  0  0  0  0  0  0
   -2.7232   -2.4773    0.3728 H   0  0  0  0  0  0  0  0  0  0  0  0
   -2.7231    2.4775    0.3720 H   0  0  0  0  0  0  0  0  0  0  0  0
   -2.4508    1.2243    1.6129 H   0  0  0  0  0  0  0  0  0  0  0  0
   -1.5181    1.1770   -1.3045 H   0  0  0  0  0  0  0  0  0  0  0  0
   -0.0040    2.0535    0.9080 H   0  0  0  0  0  0  0  0  0  0  0  0
   -5.1325   -2.5038   -0.1595 H   0  0  0  0  0  0  0  0  0  0  0  0
   -7.2276   -1.2544   -0.7350 H   0  0  0  0  0  0  0  0  0  0  0  0
   -7.2276    1.2543   -0.7355 H   0  0  0  0  0  0  0  0  0  0  0  0
   -5.1324    2.5039   -0.1603 H   0  0  0  0  0  0  0  0  0  0  0  0
    2.0578    1.0899   -2.4871 H   0  0  0  0  0  0  0  0  0  0  0  0
    2.0359    2.4944   -1.2742 H   0  0  0  0  0  0  0  0  0  0  0  0
    2.0578   -1.0912   -2.4866 H   0  0  0  0  0  0  0  0  0  0  0  0
    2.0360   -2.4951   -1.2729 H   0  0  0  0  0  0  0  0  0  0  0  0
  1 18  1  1  0  0  0
  1 11  1  0  0  0  0
  2 19  1  6  0  0  0
  2  1  1  0  0  0  0
  2  3  1  0  0  0  0
  3 20  1  0  0  0  0
  4  3  1  0  0  0  0
  5  4  1  0  0  0  0
  5  6  1  0  0  0  0
  6 23  1  0  0  0  0
  7 24  1  6  0  0  0
  7  2  1  0  0  0  0
  7  8  1  0  0  0  0
  7  6  1  0  0  0  0
  8 25  1  1  0  0  0
  8 11  1  0  0  0  0
  9 16  1  1  0  0  0
  9 10  1  0  0  0  0
  9  8  1  0  0  0  0
 10 17  1  1  0  0  0
 10  1  1  0  0  0  0
 12  4  2  0  0  0  0
 13 12  1  0  0  0  0
 14 13  2  0  0  0  0
 14 15  1  0  0  0  0
 15  5  2  0  0  0  0
 16 31  1  0  0  0  0
 17 33  1  0  0  0  0
 21  3  1  0  0  0  0
 22  6  1  0  0  0  0
 26 12  1  0  0  0  0
 27 13  1  0  0  0  0
 28 14  1  0  0  0  0
 29 15  1  0  0  0  0
 30 16  1  0  0  0  0
 32 17  1  0  0  0  0
M  END
