1
q = -1.0, confidence = 0.0

 49 52  0  0  1  0  0  0  0  0999 V2000
   -1.3075   -0.8294   -0.5308 C   0  0  0  0  0  2  0  0  0  0  0  0
   -0.6843    0.4146   -0.4955 C   0  0  2  0  0  3  0  0  0  0  0  0
    0.7952    0.4650   -0.4470 C   0  0  0  0  0  0  0  0  0  0  0  0
    1.5099   -0.5223   -1.1237 C   0  0  0  0  0  0  0  0  0  0  0  0
    0.8888   -1.1805   -1.7567 H   0  0  0  0  0  0  0  0  0  0  0  0
   -3.2141   -0.4435   -2.0953 C   0  0  0  0  0  0  0  0  0  0  0  0
   -2.5349    0.1503   -2.7252 H   0  0  0  0  0  0  0  0  0  0  0  0
   -4.5429   -0.6399   -2.4872 C   0  0  0  0  0  0  0  0  0  0  0  0
   -4.9030   -0.2014   -3.4307 H   0  0  0  0  0  0  0  0  0  0  0  0
   -5.4192   -1.3808   -1.6761 C   0  0  0  0  0  0  0  0  0  0  0  0
   -6.4668   -1.5268   -1.9802 H   0  0  0  0  0  0  0  0  0  0  0  0
   -4.9478   -1.9327   -0.4734 C   0  0  0  0  0  0  0  0  0  0  0  0
   -5.6282   -2.5068    0.1741 H   0  0  0  0  0  0  0  0  0  0  0  0
   -3.6109   -1.7630   -0.0927 C   0  0  0  0  0  0  0  0  0  0  0  0
   -3.2575   -2.1932    0.8563 H   0  0  0  0  0  0  0  0  0  0  0  0
   -2.7146   -1.0071   -0.8915 C   0  0  0  0  0  0  0  0  0  0  0  0
   -2.5049    1.9002    0.4172 C   0  0  0  0  0  0  0  0  0  0  0  0
   -2.7681    1.0935    1.1173 H   0  0  0  0  0  0  0  0  0  0  0  0
   -3.2179    3.1060    0.4258 C   0  0  0  0  0  0  0  0  0  0  0  0
   -4.0499    3.2418    1.1332 H   0  0  0  0  0  0  0  0  0  0  0  0
   -2.8715    4.1382   -0.4615 C   0  0  0  0  0  0  0  0  0  0  0  0
   -3.4334    5.0847   -0.4551 H   0  0  0  0  0  0  0  0  0  0  0  0
   -1.8025    3.9594   -1.3540 C   0  0  0  0  0  0  0  0  0  0  0  0
   -1.5258    4.7637   -2.0526 H   0  0  0  0  0  0  0  0  0  0  0  0
   -1.0824    2.7568   -1.3563 C   0  0  0  0  0  0  0  0  0  0  0  0
   -0.2451    2.6191   -2.0571 H   0  0  0  0  0  0  0  0  0  0  0  0
   -1.4282    1.7103   -0.4751 C   0  0  0  0  0  0  0  0  0  0  0  0
    1.1040    1.9493    1.5662 C   0  0  0  0  0  0  0  0  0  0  0  0
    0.3953    1.3140    2.1216 H   0  0  0  0  0  0  0  0  0  0  0  0
    1.6740    3.0665    2.1940 C   0  0  0  0  0  0  0  0  0  0  0  0
    1.4176    3.2915    3.2401 H   0  0  0  0  0  0  0  0  0  0  0  0
    2.5548    3.8993    1.4870 C   0  0  0  0  0  0  0  0  0  0  0  0
    2.9938    4.7818    1.9766 H   0  0  0  0  0  0  0  0  0  0  0  0
    2.8655    3.6085    0.1477 C   0  0  0  0  0  0  0  0  0  0  0  0
    3.5445    4.2655   -0.4167 H   0  0  0  0  0  0  0  0  0  0  0  0
    2.3098    2.4841   -0.4748 C   0  0  0  0  0  0  0  0  0  0  0  0
    2.5558    2.2537   -1.5223 H   0  0  0  0  0  0  0  0  0  0  0  0
    1.4283    1.6355    0.2294 C   0  0  0  0  0  0  0  0  0  0  0  0
    3.9514   -0.2135   -0.4115 C   0  0  0  0  0  0  0  0  0  0  0  0
    3.6680    0.4333    0.4277 H   0  0  0  0  0  0  0  0  0  0  0  0
    5.3022   -0.5072   -0.6244 C   0  0  0  0  0  0  0  0  0  0  0  0
    6.0602   -0.0805    0.0498 H   0  0  0  0  0  0  0  0  0  0  0  0
    5.6953   -1.3460   -1.6815 C   0  0  0  0  0  0  0  0  0  0  0  0
    6.7601   -1.5722   -1.8426 H   0  0  0  0  0  0  0  0  0  0  0  0
    4.7185   -1.9028   -2.5221 C   0  0  0  0  0  0  0  0  0  0  0  0
    5.0119   -2.5701   -3.3465 H   0  0  0  0  0  0  0  0  0  0  0  0
    3.3659   -1.6139   -2.3079 C   0  0  0  0  0  0  0  0  0  0  0  0
    2.6013   -2.0597   -2.9635 H   0  0  0  0  0  0  0  0  0  0  0  0
    2.9500   -0.7530   -1.2598 C   0  0  0  0  0  0  0  0  0  0  0  0
  2  1  1  1  0  0  0
  2 27  1  0  0  0  0
  2  3  1  0  0  0  0
  3 38  1  0  0  0  0
  4  3  2  0  0  0  0
  5  4  1  0  0  0  0
  6 16  1  0  0  0  0
  7  6  1  0  0  0  0
  8  6  2  0  0  0  0
  8 10  1  0  0  0  0
  9  8  1  0  0  0  0
 10 12  2  0  0  0  0
 11 10  1  0  0  0  0
 12 14  1  0  0  0  0
 12 13  1  0  0  0  0
 14 15  1  0  0  0  0
 16  1  1  0  0  0  0
 16 14  2  0  0  0  0
 17 19  1  0  0  0  0
 17 18  1  0  0  0  0
 19 20  1  0  0  0  0
 21 22  1  0  0  0  0
 21 19  2  0  0  0  0
 23 21  1  0  0  0  0
 24 23  1  0  0  0  0
 25 23  2  0  0  0  0
 25 27  1  0  0  0  0
 26 25  1  0  0  0  0
 27 17  2  0  0  0  0
 28 29  1  0  0  0  0
 28 30  1  0  0  0  0
 30 31  1  0  0  0  0
 32 33  1  0  0  0  0
 32 30  2  0  0  0  0
 34 32  1  0  0  0  0
 35 34  1  0  0  0  0
 36 34  2  0  0  0  0
 36 38  1  0  0  0  0
 37 36  1  0  0  0  0
 38 28  2  0  0  0  0
 39 40  1  0  0  0  0
 41 39  1  0  0  0  0
 41 42  1  0  0  0  0
 43 41  2  0  0  0  0
 44 43  1  0  0  0  0
 45 47  2  0  0  0  0
 45 43  1  0  0  0  0
 46 45  1  0  0  0  0
 47 49  1  0  0  0  0
 48 47  1  0  0  0  0
 49  4  1  0  0  0  0
 49 39  2  0  0  0  0
M  END
