9
q = 0.0, confidence = 0.984

 21 22  0  0  1  0  0  0  0  0999 V2000
    1.4334   -0.0003   -1.7296 S   0  0  0  0  0  0  0  0  0  0  0  0
    0.2394   -1.3883   -1.2619 B   0  0  0  0  0  0  0  0  0  0  0  0
    0.2394    1.3880   -1.2622 B   0  0  0  0  0  0  0  0  0  0  0  0
   -1.0770   -0.7297   -0.7884 C   0  0  0  0  0  0  0  0  0  0  0  0
   -2.2522   -1.4215   -0.3282 C   0  0  0  0  0  0  0  0  0  0  0  0
   -3.3721   -0.7158    0.0655 C   0  0  0  0  0  0  0  0  0  0  0  0
   -3.3720    0.7159    0.0654 C   0  0  0  0  0  0  0  0  0  0  0  0
   -2.2521    1.4215   -0.3284 C   0  0  0  0  0  0  0  0  0  0  0  0
   -1.0770    0.7295   -0.7886 C   0  0  1  0  0  3  0  0  0  0  0  0
    0.5678   -2.9061   -1.5252 C   0  0  0  0  0  0  0  0  0  0  0  0
    0.5681    2.9057   -1.5258 C   0  0  0  0  0  0  0  0  0  0  0  0
   -2.2579    2.5226   -0.3184 H   0  0  0  0  0  0  0  0  0  0  0  0
   -2.2581   -2.5226   -0.3180 H   0  0  0  0  0  0  0  0  0  0  0  0
   -4.2795    1.2527    0.3822 H   0  0  0  0  0  0  0  0  0  0  0  0
    0.0162    3.5749   -0.8342 H   0  0  0  0  0  0  0  0  0  0  0  0
   -4.2796   -1.2525    0.3824 H   0  0  0  0  0  0  0  0  0  0  0  0
    0.2479    3.1735   -2.5563 H   0  0  0  0  0  0  0  0  0  0  0  0
    1.6457    3.1500   -1.4474 H   0  0  0  0  0  0  0  0  0  0  0  0
    0.0154   -3.5751   -0.8337 H   0  0  0  0  0  0  0  0  0  0  0  0
    1.6454   -3.1507   -1.4462 H   0  0  0  0  0  0  0  0  0  0  0  0
    0.2481   -3.1740   -2.5558 H   0  0  0  0  0  0  0  0  0  0  0  0
  1  3  1  0  0  0  0
  1  2  1  0  0  0  0
  2  4  2  0  0  0  0
  3  9  1  0  0  0  0
  4  5  1  0  0  0  0
  5 13  1  0  0  0  0
  5  6  2  0  0  0  0
  6 16  1  0  0  0  0
  7  6  1  0  0  0  0
  7 14  1  0  0  0  0
  8 12  1  0  0  0  0
  8  7  2  0  0  0  0
  9  4  1  1  0  0  0
  9  8  1  0  0  0  0
 10 20  1  0  0  0  0
 10  2  1  0  0  0  0
 10 19  1  0  0  0  0
 11 18  1  0  0  0  0
 11  3  1  0  0  0  0
 11 15  1  0  0  0  0
 17 11  1  0  0  0  0
 21 10  1  0  0  0  0
M  END
