3
q = -1.0

 29 29  0  0  0  0  0  0  0  0999 V2000
   -1.1436    1.2674    0.0709 C   0  0  0  0  0  3  0  0  0  0  0  0
    0.1045    1.5403    0.1231 C   0  0  0  0  0  3  0  0  0  0  0  0
    1.4081    1.0919    0.1264 C   0  0  0  0  0  3  0  0  0  0  0  0
    2.6398    1.6414    0.1365 C   0  0  0  0  0  0  0  0  0  0  0  0
    3.5228    0.9817    0.0763 H   0  0  0  0  0  0  0  0  0  0  0  0
    2.9965    3.1200    0.2264 C   0  0  0  0  0  0  0  0  0  0  0  0
    3.8344    3.3166    1.5111 C   0  0  0  0  0  0  0  0  0  0  0  0
    4.1778    4.3680    1.5949 H   0  0  0  0  0  0  0  0  0  0  0  0
    4.7340    2.6672    1.5121 H   0  0  0  0  0  0  0  0  0  0  0  0
    3.2380    3.0788    2.4156 H   0  0  0  0  0  0  0  0  0  0  0  0
    1.7642    4.0323    0.2683 C   0  0  0  0  0  0  0  0  0  0  0  0
    2.0786    5.0930    0.3330 H   0  0  0  0  0  0  0  0  0  0  0  0
    1.1235    3.8155    1.1463 H   0  0  0  0  0  0  0  0  0  0  0  0
    1.1402    3.9192   -0.6407 H   0  0  0  0  0  0  0  0  0  0  0  0
    3.8640    3.4705   -1.0041 C   0  0  0  0  0  0  0  0  0  0  0  0
    3.2899    3.3547   -1.9461 H   0  0  0  0  0  0  0  0  0  0  0  0
    4.7616    2.8213   -1.0655 H   0  0  0  0  0  0  0  0  0  0  0  0
    4.2127    4.5219   -0.9473 H   0  0  0  0  0  0  0  0  0  0  0  0
   -2.5158    1.7075   -0.0081 C   0  0  0  0  0  0  0  0  0  0  0  0
   -3.3235    1.8124    1.1514 C   0  0  0  0  0  0  0  0  0  0  0  0
   -2.8875    1.5893    2.1363 H   0  0  0  0  0  0  0  0  0  0  0  0
   -4.6629    2.2122    1.0557 C   0  0  0  0  0  0  0  0  0  0  0  0
   -5.2732    2.2943    1.9676 H   0  0  0  0  0  0  0  0  0  0  0  0
   -5.2239    2.5143   -0.1957 C   0  0  0  0  0  0  0  0  0  0  0  0
   -6.2767    2.8246   -0.2691 H   0  0  0  0  0  0  0  0  0  0  0  0
   -4.4299    2.4324   -1.3516 C   0  0  0  0  0  0  0  0  0  0  0  0
   -4.8579    2.6867   -2.3329 H   0  0  0  0  0  0  0  0  0  0  0  0
   -3.0906    2.0342   -1.2613 C   0  0  0  0  0  0  0  0  0  0  0  0
   -2.4685    1.9810   -2.1669 H   0  0  0  0  0  0  0  0  0  0  0  0
  1  2  2  0  0  0  0
  2  3  1  0  0  0  0
  3  4  2  0  0  0  0
  4  6  1  0  0  0  0
  5  4  1  0  0  0  0
  6 11  1  0  0  0  0
  6  7  1  0  0  0  0
  7  9  1  0  0  0  0
  7  8  1  0  0  0  0
  7 10  1  0  0  0  0
 11 12  1  0  0  0  0
 11 13  1  0  0  0  0
 14 11  1  0  0  0  0
 15 18  1  0  0  0  0
 15  6  1  0  0  0  0
 16 15  1  0  0  0  0
 17 15  1  0  0  0  0
 19  1  1  0  0  0  0
 19 20  1  0  0  0  0
 20 21  1  0  0  0  0
 22 20  2  0  0  0  0
 22 23  1  0  0  0  0
 24 22  1  0  0  0  0
 25 24  1  0  0  0  0
 26 28  1  0  0  0  0
 26 24  2  0  0  0  0
 27 26  1  0  0  0  0
 28 19  2  0  0  0  0
 29 28  1  0  0  0  0
M  END
