6
q = -1.0, confidence = 0.002

 42 43  0  0  1  0  0  0  0  0999 V2000
    0.0275    0.7573   -0.3158 P   0  0  1  0  0  4  0  0  0  0  0  0
   -4.0432   -1.0896   -1.2999 O   0  0  0  0  0  0  0  0  0  0  0  0
   -4.1225   -2.1045    0.7347 O   0  0  0  0  0  0  0  0  0  0  0  0
    0.9025    0.2246    1.1271 C   0  0  0  0  0  3  0  0  0  0  0  0
    0.4477   -0.0033    2.0996 H   0  0  0  0  0  0  0  0  0  0  0  0
    2.2898    0.6674    0.9960 C   0  0  1  0  0  3  0  0  0  0  0  0
    2.6417    0.8911   -0.3782 C   0  0  1  0  0  3  0  0  0  0  0  0
    1.5169    0.6001   -1.2637 C   0  0  0  0  0  3  0  0  0  0  0  0
    1.5791    0.7151   -2.3536 H   0  0  0  0  0  0  0  0  0  0  0  0
    3.1668    0.9563    2.1799 C   0  0  0  0  0  0  0  0  0  0  0  0
    4.2393    0.8417    1.9333 H   0  0  0  0  0  0  0  0  0  0  0  0
    2.9408    0.2721    3.0205 H   0  0  0  0  0  0  0  0  0  0  0  0
    3.0089    1.9970    2.5382 H   0  0  0  0  0  0  0  0  0  0  0  0
    3.9509    1.4396   -0.8663 C   0  0  0  0  0  0  0  0  0  0  0  0
    3.9046    2.5468   -0.9519 H   0  0  0  0  0  0  0  0  0  0  0  0
    4.2029    1.0354   -1.8659 H   0  0  0  0  0  0  0  0  0  0  0  0
    4.7823    1.1844   -0.1821 H   0  0  0  0  0  0  0  0  0  0  0  0
   -1.3703   -0.2733   -0.8837 C   0  0  0  0  0  0  0  0  0  0  0  0
   -1.9963    0.3375   -1.5642 H   0  0  0  0  0  0  0  0  0  0  0  0
   -0.9697   -1.1205   -1.4684 H   0  0  0  0  0  0  0  0  0  0  0  0
   -2.2257   -0.7710    0.2803 C   0  0  0  0  0  0  0  0  0  0  0  0
   -1.6994   -1.5466    0.8705 H   0  0  0  0  0  0  0  0  0  0  0  0
   -2.4677    0.0532    0.9887 H   0  0  0  0  0  0  0  0  0  0  0  0
   -3.5522   -1.3277   -0.2111 C   0  0  0  0  0  0  0  0  0  0  0  0
   -5.4215   -2.6597    0.4157 C   0  0  0  0  0  0  0  0  0  0  0  0
   -5.4291   -2.9497   -0.6544 H   0  0  0  0  0  0  0  0  0  0  0  0
   -5.4938   -3.5703    1.0413 H   0  0  0  0  0  0  0  0  0  0  0  0
   -6.5382   -1.6759    0.7220 C   0  0  0  0  0  0  0  0  0  0  0  0
   -6.4988   -1.3447    1.7789 H   0  0  0  0  0  0  0  0  0  0  0  0
   -7.5228   -2.1544    0.5467 H   0  0  0  0  0  0  0  0  0  0  0  0
   -6.4678   -0.7876    0.0644 H   0  0  0  0  0  0  0  0  0  0  0  0
   -0.7133    2.4439   -0.1473 C   0  0  0  0  0  0  0  0  0  0  0  0
   -0.4105    3.1980    1.0043 C   0  0  0  0  0  0  0  0  0  0  0  0
    0.2047    2.7474    1.7994 H   0  0  0  0  0  0  0  0  0  0  0  0
   -0.8908    4.5096    1.1378 C   0  0  0  0  0  0  0  0  0  0  0  0
   -0.6573    5.0892    2.0438 H   0  0  0  0  0  0  0  0  0  0  0  0
   -1.6659    5.0810    0.1165 C   0  0  0  0  0  0  0  0  0  0  0  0
   -2.0409    6.1105    0.2198 H   0  0  0  0  0  0  0  0  0  0  0  0
   -1.9617    4.3392   -1.0397 C   0  0  0  0  0  0  0  0  0  0  0  0
   -2.5672    4.7865   -1.8425 H   0  0  0  0  0  0  0  0  0  0  0  0
   -1.4896    3.0258   -1.1719 C   0  0  0  0  0  0  0  0  0  0  0  0
   -1.7267    2.4575   -2.0855 H   0  0  0  0  0  0  0  0  0  0  0  0
  1 18  1  6  0  0  0
  1 32  1  0  0  0  0
  1  4  1  0  0  0  0
  2 24  2  0  0  0  0
  4  5  1  0  0  0  0
  6  4  1  0  0  0  0
  6 10  1  1  0  0  0
  7 14  1  1  0  0  0
  7  6  1  0  0  0  0
  8  7  1  0  0  0  0
  8  1  1  0  0  0  0
  9  8  1  0  0  0  0
 10 13  1  0  0  0  0
 10 12  1  0  0  0  0
 11 10  1  0  0  0  0
 14 17  1  0  0  0  0
 15 14  1  0  0  0  0
 16 14  1  0  0  0  0
 18 21  1  0  0  0  0
 19 18  1  0  0  0  0
 20 18  1  0  0  0  0
 21 22  1  0  0  0  0
 21 23  1  0  0  0  0
 24 21  1  0  0  0  0
 24  3  1  0  0  0  0
 25 28  1  0  0  0  0
 25  3  1  0  0  0  0
 25 27  1  0  0  0  0
 26 25  1  0  0  0  0
 28 29  1  0  0  0  0
 30 28  1  0  0  0  0
 31 28  1  0  0  0  0
 32 33  1  0  0  0  0
 33 35  2  0  0  0  0
 33 34  1  0  0  0  0
 35 36  1  0  0  0  0
 37 38  1  0  0  0  0
 37 35  1  0  0  0  0
 39 37  2  0  0  0  0
 40 39  1  0  0  0  0
 41 39  1  0  0  0  0
 41 32  2  0  0  0  0
 42 41  1  0  0  0  0
M  END
