24
q = -1.0

 28 28  0  0  0  0  0  0  0  0999 V2000
   -1.3980   -1.3228   -0.7131 C   0  0  0  0  0  0  0  0  0  0  0  0
   -2.3747   -0.2998   -0.5158 C   0  0  0  0  0  0  0  0  0  0  0  0
   -2.0962    0.7237   -1.4811 C   0  0  0  0  0  0  0  0  0  0  0  0
   -3.5984   -0.4093    0.3910 C   0  0  0  0  0  0  0  0  0  0  0  0
   -4.4835   -1.5813   -0.1975 C   0  0  0  0  0  0  0  0  0  0  0  0
   -5.7898   -1.8066    0.5770 C   0  0  0  0  0  0  0  0  0  0  0  0
   -6.3074   -2.7087    0.1924 H   0  0  0  0  0  0  0  0  0  0  0  0
   -6.4884   -0.9539    0.4542 H   0  0  0  0  0  0  0  0  0  0  0  0
   -5.6261   -1.9586    1.6615 H   0  0  0  0  0  0  0  0  0  0  0  0
   -4.7867   -1.4246   -1.6939 C   0  0  0  0  0  0  0  0  0  0  0  0
   -3.8660   -1.3535   -2.3050 H   0  0  0  0  0  0  0  0  0  0  0  0
   -5.3686   -2.2944   -2.0604 H   0  0  0  0  0  0  0  0  0  0  0  0
   -5.3959   -0.5186   -1.8932 H   0  0  0  0  0  0  0  0  0  0  0  0
   -3.8663   -2.5013   -0.0809 H   0  0  0  0  0  0  0  0  0  0  0  0
   -4.3759    0.9184    0.4151 C   0  0  0  0  0  0  0  0  0  0  0  0
   -5.2253    0.8602    1.1227 H   0  0  0  0  0  0  0  0  0  0  0  0
   -4.7844    1.1788   -0.5813 H   0  0  0  0  0  0  0  0  0  0  0  0
   -3.7170    1.7448    0.7437 H   0  0  0  0  0  0  0  0  0  0  0  0
   -3.1664   -0.7652    1.8290 C   0  0  0  0  0  0  0  0  0  0  0  0
   -4.0417   -0.8295    2.5039 H   0  0  0  0  0  0  0  0  0  0  0  0
   -2.4907    0.0143    2.2311 H   0  0  0  0  0  0  0  0  0  0  0  0
   -2.6459   -1.7444    1.8668 H   0  0  0  0  0  0  0  0  0  0  0  0
   -1.0050    0.3086   -2.2920 C   0  0  0  0  0  0  0  0  0  0  0  0
   -0.5550   -0.9530   -1.8094 C   0  0  0  0  0  3  0  0  0  0  0  0
   -1.3369   -2.2638   -0.1536 H   0  0  0  0  0  0  0  0  0  0  0  0
   -0.5566    0.8845   -3.1084 H   0  0  0  0  0  0  0  0  0  0  0  0
    0.2743   -1.5427   -2.2171 H   0  0  0  0  0  0  0  0  0  0  0  0
   -2.6371    1.6710   -1.5797 H   0  0  0  0  0  0  0  0  0  0  0  0
  1  2  2  0  0  0  0
  1 25  1  0  0  0  0
  2  4  1  0  0  0  0
  3  2  1  0  0  0  0
  4 15  1  0  0  0  0
  4 19  1  0  0  0  0
  5 14  1  0  0  0  0
  5  4  1  0  0  0  0
  5  6  1  0  0  0  0
  6  9  1  0  0  0  0
  7  6  1  0  0  0  0
  8  6  1  0  0  0  0
 10  5  1  0  0  0  0
 11 10  1  0  0  0  0
 12 10  1  0  0  0  0
 13 10  1  0  0  0  0
 15 18  1  0  0  0  0
 15 16  1  0  0  0  0
 17 15  1  0  0  0  0
 19 22  1  0  0  0  0
 19 21  1  0  0  0  0
 19 20  1  0  0  0  0
 23 24  1  0  0  0  0
 23  3  2  0  0  0  0
 24  1  1  0  0  0  0
 26 23  1  0  0  0  0
 27 24  1  0  0  0  0
 28  3  1  0  0  0  0
M  END
