4
q = -1.0

 37 37  0  0  1  0  0  0  0  0999 V2000
   -2.0286   -0.8339    0.6831 C   0  0  0  0  0  3  0  0  0  0  0  0
   -1.3140   -0.0523    1.6502 C   0  0  0  0  0  0  0  0  0  0  0  0
    0.0669   -0.3588    1.8052 C   0  0  0  0  0  0  0  0  0  0  0  0
    0.7294   -1.2780    0.9042 C   0  0  0  0  0  3  0  0  0  0  0  0
    1.8951   -0.5197    0.5121 C   0  0  1  0  0  3  0  0  0  0  0  0
    2.1156    0.4948    1.5906 C   0  0  0  0  0  0  0  0  0  0  0  0
   -3.5280   -0.6886    0.4081 C   0  0  0  0  0  0  0  0  0  0  0  0
   -3.8501   -1.3070   -0.9650 C   0  0  0  0  0  0  0  0  0  0  0  0
   -4.0452    0.7577    0.4327 C   0  0  0  0  0  0  0  0  0  0  0  0
   -4.2555   -1.4969    1.5110 C   0  0  0  0  0  0  0  0  0  0  0  0
    3.0939   -1.0740   -0.2649 C   0  0  0  0  0  0  0  0  0  0  0  0
    2.6550   -2.1581   -1.2621 C   0  0  0  0  0  0  0  0  0  0  0  0
    3.8258    0.0413   -1.0355 C   0  0  0  0  0  0  0  0  0  0  0  0
    4.0634   -1.7015    0.7670 C   0  0  0  0  0  0  0  0  0  0  0  0
    3.0449    1.2389    1.8124 O   0  0  0  0  0  0  0  0  0  0  0  0
    0.9718    0.5090    2.4320 O   0  0  0  0  0  0  0  0  0  0  0  0
   -4.9443   -1.3089   -1.1466 H   0  0  0  0  0  0  0  0  0  0  0  0
   -3.4900   -2.3535   -1.0319 H   0  0  0  0  0  0  0  0  0  0  0  0
   -3.3621   -0.7356   -1.7791 H   0  0  0  0  0  0  0  0  0  0  0  0
   -3.6516    1.3373   -0.4234 H   0  0  0  0  0  0  0  0  0  0  0  0
   -3.7831    1.2878    1.3710 H   0  0  0  0  0  0  0  0  0  0  0  0
   -5.1512    0.7632    0.3539 H   0  0  0  0  0  0  0  0  0  0  0  0
   -5.3525   -1.4888    1.3430 H   0  0  0  0  0  0  0  0  0  0  0  0
   -4.0572   -1.0707    2.5155 H   0  0  0  0  0  0  0  0  0  0  0  0
   -3.9209   -2.5541    1.5199 H   0  0  0  0  0  0  0  0  0  0  0  0
    2.1417   -3.0043   -0.7629 H   0  0  0  0  0  0  0  0  0  0  0  0
    3.5440   -2.5714   -1.7800 H   0  0  0  0  0  0  0  0  0  0  0  0
    1.9718   -1.7478   -2.0297 H   0  0  0  0  0  0  0  0  0  0  0  0
    4.1240    0.8641   -0.3579 H   0  0  0  0  0  0  0  0  0  0  0  0
    3.1813    0.4486   -1.8398 H   0  0  0  0  0  0  0  0  0  0  0  0
    4.7411   -0.3651   -1.5121 H   0  0  0  0  0  0  0  0  0  0  0  0
    4.9421   -2.1406    0.2514 H   0  0  0  0  0  0  0  0  0  0  0  0
    3.5634   -2.5099    1.3388 H   0  0  0  0  0  0  0  0  0  0  0  0
    4.4294   -0.9416    1.4844 H   0  0  0  0  0  0  0  0  0  0  0  0
   -1.7311   -1.8941    0.6173 H   0  0  0  0  0  0  0  0  0  0  0  0
   -1.7502    0.8062    2.1817 H   0  0  0  0  0  0  0  0  0  0  0  0
    0.4994   -2.3338    0.7159 H   0  0  0  0  0  0  0  0  0  0  0  0
  1  2  1  0  0  0  0
  2  3  2  0  0  0  0
  2 36  1  0  0  0  0
  3 16  1  0  0  0  0
  4  3  1  0  0  0  0
  5 11  1  1  0  0  0
  5  4  1  0  0  0  0
  5  6  1  0  0  0  0
  6 15  2  0  0  0  0
  6 16  1  0  0  0  0
  7  9  1  0  0  0  0
  7  1  1  0  0  0  0
  7 10  1  0  0  0  0
  8  7  1  0  0  0  0
  9 21  1  0  0  0  0
 10 25  1  0  0  0  0
 10 24  1  0  0  0  0
 11 14  1  0  0  0  0
 12 26  1  0  0  0  0
 12 11  1  0  0  0  0
 13 29  1  0  0  0  0
 13 11  1  0  0  0  0
 14 33  1  0  0  0  0
 14 34  1  0  0  0  0
 17  8  1  0  0  0  0
 18  8  1  0  0  0  0
 19  8  1  0  0  0  0
 20  9  1  0  0  0  0
 22  9  1  0  0  0  0
 23 10  1  0  0  0  0
 27 12  1  0  0  0  0
 28 12  1  0  0  0  0
 30 13  1  0  0  0  0
 31 13  1  0  0  0  0
 32 14  1  0  0  0  0
 35  1  1  0  0  0  0
 37  4  1  0  0  0  0
M  END
