6
q = 0.0, confidence = 0.722

 19 21  0  0  0  0  0  0  0  0999 V2000
   -0.1053    2.5895    0.0095 S   0  0  0  0  0  0  0  0  0  0  0  0
    1.3945    0.4666   -0.0290 P   0  0  0  0  0  0  0  0  0  0  0  0
    1.7651   -0.2998    1.4404 O   0  0  0  0  0  0  0  0  0  0  0  0
    1.4691   -1.0845   -0.9054 O   0  0  0  0  0  0  0  0  0  0  0  0
    2.7027    1.1046   -0.9597 O   0  0  0  0  0  0  0  0  0  0  0  0
   -0.2746    0.8619   -0.7316 C   0  0  0  0  0  3  0  0  0  0  0  0
    2.5429   -1.5109    1.4449 C   0  0  0  0  0  0  0  0  0  0  0  0
    2.6970   -1.7210   -1.0857 C   0  0  0  0  0  0  0  0  0  0  0  0
    3.9722    1.0739   -0.3104 C   0  0  0  0  0  0  0  0  0  0  0  0
    3.4632   -1.3482    0.2344 C   0  0  0  0  0  3  0  0  0  0  0  0
    4.2285   -0.2946    0.1127 C   0  0  0  0  0  2  0  0  0  0  0  0
    1.2940    2.1742    0.7998 C   0  0  0  0  0  2  0  0  0  0  0  0
   -0.1759    0.9147   -1.8400 H   0  0  0  0  0  0  0  0  0  0  0  0
    1.9027   -2.4096    1.3353 H   0  0  0  0  0  0  0  0  0  0  0  0
    3.0993   -1.5453    2.3988 H   0  0  0  0  0  0  0  0  0  0  0  0
    3.2511   -1.3790   -1.9847 H   0  0  0  0  0  0  0  0  0  0  0  0
    2.5486   -2.8216   -1.1256 H   0  0  0  0  0  0  0  0  0  0  0  0
    3.9516    1.7058    0.6331 H   0  0  0  0  0  0  0  0  0  0  0  0
    4.7303    1.5355   -0.9780 H   0  0  0  0  0  0  0  0  0  0  0  0
  1 12  1  0  0  0  0
  2 12  1  0  0  0  0
  2  3  1  0  0  0  0
  3  7  1  0  0  0  0
  4  2  1  0  0  0  0
  5  9  1  0  0  0  0
  5  2  1  0  0  0  0
  6  2  1  0  0  0  0
  6  1  1  0  0  0  0
  7 15  1  0  0  0  0
  8  4  1  0  0  0  0
  8 10  1  0  0  0  0
  9 11  1  0  0  0  0
  9 18  1  0  0  0  0
 10  7  1  0  0  0  0
 11 10  1  0  0  0  0
 13  6  1  0  0  0  0
 14  7  1  0  0  0  0
 16  8  1  0  0  0  0
 17  8  1  0  0  0  0
 19  9  1  0  0  0  0
M  END
