6
q = -1.0

 39 40  0  0  1  0  0  0  0  0999 V2000
    1.5326   -0.0861   -1.6416 S   0  0  2  0  0  0  0  0  0  0  0  0
    2.0826    1.3650   -2.5953 C   0  0  0  0  0  0  0  0  0  0  0  0
    1.2093    1.9739   -2.8838 H   0  0  0  0  0  0  0  0  0  0  0  0
    2.5896    0.9235   -3.4710 H   0  0  0  0  0  0  0  0  0  0  0  0
    2.7774    1.9660   -1.9838 H   0  0  0  0  0  0  0  0  0  0  0  0
   -0.1850    0.1275   -1.3770 C   0  0  0  0  0  3  0  0  0  0  0  0
   -0.7658   -0.5054   -0.2056 C   0  0  1  0  0  3  0  0  0  0  0  0
   -0.0293   -0.7154    0.9865 C   0  0  0  0  0  3  0  0  0  0  0  0
    1.4787   -0.8726    1.0065 C   0  0  2  0  0  0  0  0  0  0  0  0
    1.9472    0.2254    0.0421 C   0  0  0  0  0  3  0  0  0  0  0  0
   -0.7904    0.2775   -2.2828 H   0  0  0  0  0  0  0  0  0  0  0  0
   -0.6046   -1.0909    1.8460 H   0  0  0  0  0  0  0  0  0  0  0  0
    1.8351   -0.4956    1.9889 H   0  0  0  0  0  0  0  0  0  0  0  0
    2.9958    0.5607    0.1249 H   0  0  0  0  0  0  0  0  0  0  0  0
   -3.0669   -0.5145    0.8656 C   0  0  0  0  0  0  0  0  0  0  0  0
   -4.4295   -0.8341    0.8245 C   0  0  0  0  0  0  0  0  0  0  0  0
   -4.9838   -1.4326   -0.3192 C   0  0  0  0  0  0  0  0  0  0  0  0
   -4.1629   -1.7094   -1.4224 C   0  0  0  0  0  0  0  0  0  0  0  0
   -2.7982   -1.3871   -1.3842 C   0  0  0  0  0  0  0  0  0  0  0  0
   -2.2320   -0.7871   -0.2396 C   0  0  0  0  0  0  0  0  0  0  0  0
   -2.6450   -0.0221    1.7540 H   0  0  0  0  0  0  0  0  0  0  0  0
   -5.0679   -0.6021    1.6903 H   0  0  0  0  0  0  0  0  0  0  0  0
   -6.0556   -1.6798   -0.3502 H   0  0  0  0  0  0  0  0  0  0  0  0
   -4.5850   -2.1852   -2.3206 H   0  0  0  0  0  0  0  0  0  0  0  0
   -2.1545   -1.6291   -2.2435 H   0  0  0  0  0  0  0  0  0  0  0  0
    2.0169   -2.3553    0.9340 C   0  0  0  0  0  0  0  0  0  0  0  0
    1.1822   -3.2420   -0.0069 C   0  0  0  0  0  0  0  0  0  0  0  0
    1.1904   -2.8608   -1.0448 H   0  0  0  0  0  0  0  0  0  0  0  0
    0.1298   -3.3161    0.3342 H   0  0  0  0  0  0  0  0  0  0  0  0
    1.6008   -4.2694   -0.0236 H   0  0  0  0  0  0  0  0  0  0  0  0
    3.4858   -2.3366    0.4801 C   0  0  0  0  0  0  0  0  0  0  0  0
    3.5736   -2.0007   -0.5716 H   0  0  0  0  0  0  0  0  0  0  0  0
    3.9243   -3.3534    0.5477 H   0  0  0  0  0  0  0  0  0  0  0  0
    4.0987   -1.6656    1.1184 H   0  0  0  0  0  0  0  0  0  0  0  0
    1.9285   -2.9353    2.3597 C   0  0  0  0  0  0  0  0  0  0  0  0
    2.2628   -3.9927    2.3755 H   0  0  0  0  0  0  0  0  0  0  0  0
    0.8875   -2.9120    2.7439 H   0  0  0  0  0  0  0  0  0  0  0  0
    2.5657   -2.3673    3.0695 H   0  0  0  0  0  0  0  0  0  0  0  0
    2.0219   -1.2768   -2.4160 O   0  0  0  0  0  1  0  0  0  0  0  0
  1 39  1  6  0  0  0
  1  6  1  0  0  0  0
  1 10  1  0  0  0  0
  2  5  1  0  0  0  0
  2  1  1  0  0  0  0
  3  2  1  0  0  0  0
  4  2  1  0  0  0  0
  6  7  1  0  0  0  0
  7 20  1  1  0  0  0
  7  8  1  0  0  0  0
  8  9  1  0  0  0  0
  8 12  1  0  0  0  0
  9 13  1  1  0  0  0
 10 14  1  0  0  0  0
 10  9  1  0  0  0  0
 11  6  1  0  0  0  0
 15 21  1  0  0  0  0
 16 15  1  0  0  0  0
 16 22  1  0  0  0  0
 17 16  2  0  0  0  0
 18 19  2  0  0  0  0
 18 17  1  0  0  0  0
 19 20  1  0  0  0  0
 20 15  2  0  0  0  0
 23 17  1  0  0  0  0
 24 18  1  0  0  0  0
 25 19  1  0  0  0  0
 26  9  1  0  0  0  0
 26 35  1  0  0  0  0
 27 29  1  0  0  0  0
 27 26  1  0  0  0  0
 28 27  1  0  0  0  0
 30 27  1  0  0  0  0
 31 33  1  0  0  0  0
 31 26  1  0  0  0  0
 31 34  1  0  0  0  0
 32 31  1  0  0  0  0
 35 36  1  0  0  0  0
 35 37  1  0  0  0  0
 35 38  1  0  0  0  0
M  END
