27
q = -1.0, confidence = 0.0

 50 53  0  0  0  0  0  0  0  0999 V2000
    2.1412    2.3987   -0.7147 Si  0  0  0  0  0  0  0  0  0  0  0  0
    0.9678    1.4923    0.1413 O   0  0  0  0  0  0  0  0  0  0  0  0
    2.1644   -1.5882   -0.8370 C   0  0  0  0  0  0  0  0  0  0  0  0
    1.0737   -0.6962   -0.9905 C   0  0  0  0  0  0  0  0  0  0  0  0
    0.3931   -0.5996   -2.2047 C   0  0  0  0  0  0  0  0  0  0  0  0
   -0.4479    0.0974   -2.3217 H   0  0  0  0  0  0  0  0  0  0  0  0
    0.8022   -1.4188   -3.2748 C   0  0  0  0  0  0  0  0  0  0  0  0
    0.2693   -1.3608   -4.2356 H   0  0  0  0  0  0  0  0  0  0  0  0
    1.8767   -2.3129   -3.1241 C   0  0  0  0  0  0  0  0  0  0  0  0
    2.1796   -2.9481   -3.9703 H   0  0  0  0  0  0  0  0  0  0  0  0
    2.5697   -2.4036   -1.9038 C   0  0  0  0  0  0  0  0  0  0  0  0
    3.4120   -3.1030   -1.7903 H   0  0  0  0  0  0  0  0  0  0  0  0
    2.6944   -1.4592    0.5303 C   0  0  0  0  0  0  0  0  0  0  0  0
    3.7673   -2.0985    1.1709 C   0  0  0  0  0  0  0  0  0  0  0  0
    4.3638   -2.8607    0.6469 H   0  0  0  0  0  0  0  0  0  0  0  0
    4.0734   -1.7413    2.4955 C   0  0  0  0  0  0  0  0  0  0  0  0
    4.9137   -2.2311    3.0106 H   0  0  0  0  0  0  0  0  0  0  0  0
    3.3184   -0.7648    3.1715 C   0  0  0  0  0  0  0  0  0  0  0  0
    3.5749   -0.4984    4.2080 H   0  0  0  0  0  0  0  0  0  0  0  0
    2.2365   -0.1293    2.5326 C   0  0  0  0  0  0  0  0  0  0  0  0
    1.6402    0.6313    3.0589 H   0  0  0  0  0  0  0  0  0  0  0  0
    1.9366   -0.4818    1.2165 C   0  0  0  0  0  0  0  0  0  0  0  0
   -0.5101   -0.1765    0.9767 C   0  0  0  0  0  0  0  0  0  0  0  0
   -1.2694    0.7782    1.7543 C   0  0  0  0  0  0  0  0  0  0  0  0
   -2.3602    0.0656    2.3330 C   0  0  0  0  0  0  0  0  0  0  0  0
   -3.1519    0.5182    2.9410 H   0  0  0  0  0  0  0  0  0  0  0  0
   -2.2764   -1.3008    1.9456 C   0  0  0  0  0  3  0  0  0  0  0  0
   -2.9916   -2.0932    2.2001 H   0  0  0  0  0  0  0  0  0  0  0  0
   -1.1173   -1.4737    1.1303 C   0  0  0  0  0  0  0  0  0  0  0  0
    0.8341    0.0973    0.3052 C   0  0  0  0  0  0  0  0  0  0  0  0
   -1.0139    2.2378    1.9876 C   0  0  0  0  0  0  0  0  0  0  0  0
   -0.0407    2.3885    2.4954 H   0  0  0  0  0  0  0  0  0  0  0  0
   -1.8140    2.6641    2.6232 H   0  0  0  0  0  0  0  0  0  0  0  0
   -0.9652    2.7996    1.0381 H   0  0  0  0  0  0  0  0  0  0  0  0
   -0.6203   -2.7946    0.6316 C   0  0  0  0  0  0  0  0  0  0  0  0
   -0.4134   -2.7861   -0.4542 H   0  0  0  0  0  0  0  0  0  0  0  0
   -1.3655   -3.5866    0.8338 H   0  0  0  0  0  0  0  0  0  0  0  0
    0.3241   -3.0605    1.1512 H   0  0  0  0  0  0  0  0  0  0  0  0
    2.0261    4.0788    0.1248 C   0  0  0  0  0  0  0  0  0  0  0  0
    0.9967    4.4844    0.0491 H   0  0  0  0  0  0  0  0  0  0  0  0
    2.7153    4.8081   -0.3482 H   0  0  0  0  0  0  0  0  0  0  0  0
    2.2876    4.0044    1.1998 H   0  0  0  0  0  0  0  0  0  0  0  0
    1.6629    2.5466   -2.5306 C   0  0  0  0  0  0  0  0  0  0  0  0
    1.8415    1.6036   -3.0833 H   0  0  0  0  0  0  0  0  0  0  0  0
    2.2533    3.3507   -3.0176 H   0  0  0  0  0  0  0  0  0  0  0  0
    0.5876    2.8018   -2.6224 H   0  0  0  0  0  0  0  0  0  0  0  0
    3.8666    1.6625   -0.5303 C   0  0  0  0  0  0  0  0  0  0  0  0
    4.1330    1.5068    0.5343 H   0  0  0  0  0  0  0  0  0  0  0  0
    4.6130    2.3522   -0.9775 H   0  0  0  0  0  0  0  0  0  0  0  0
    3.9511    0.6880   -1.0511 H   0  0  0  0  0  0  0  0  0  0  0  0
  1 47  1  0  0  0  0
  1 39  1  0  0  0  0
  1  2  1  0  0  0  0
  2 30  1  0  0  0  0
  3 13  1  0  0  0  0
  4  3  1  0  0  0  0
  4 30  1  0  0  0  0
  5  4  2  0  0  0  0
  6  5  1  0  0  0  0
  7  9  2  0  0  0  0
  7  5  1  0  0  0  0
  8  7  1  0  0  0  0
  9 11  1  0  0  0  0
 10  9  1  0  0  0  0
 11 12  1  0  0  0  0
 11  3  2  0  0  0  0
 13 14  2  0  0  0  0
 13 22  1  0  0  0  0
 14 16  1  0  0  0  0
 15 14  1  0  0  0  0
 16 17  1  0  0  0  0
 16 18  2  0  0  0  0
 18 19  1  0  0  0  0
 20 21  1  0  0  0  0
 20 18  1  0  0  0  0
 22 20  2  0  0  0  0
 23 29  2  0  0  0  0
 23 24  1  0  0  0  0
 24 31  1  0  0  0  0
 24 25  2  0  0  0  0
 25 26  1  0  0  0  0
 27 28  1  0  0  0  0
 27 25  1  0  0  0  0
 29 27  1  0  0  0  0
 30 23  1  0  0  0  0
 30 22  1  0  0  0  0
 31 32  1  0  0  0  0
 31 33  1  0  0  0  0
 34 31  1  0  0  0  0
 35 37  1  0  0  0  0
 35 29  1  0  0  0  0
 35 38  1  0  0  0  0
 36 35  1  0  0  0  0
 39 42  1  0  0  0  0
 40 39  1  0  0  0  0
 41 39  1  0  0  0  0
 43  1  1  0  0  0  0
 44 43  1  0  0  0  0
 45 43  1  0  0  0  0
 46 43  1  0  0  0  0
 47 48  1  0  0  0  0
 49 47  1  0  0  0  0
 50 47  1  0  0  0  0
M  END
