7
q = -1.0

 52 54  0  0  0  0  0  0  0  0999 V2000
   -1.5862    1.6960    1.9674 Si  0  0  0  0  0  0  0  0  0  0  0  0
   -1.0222    0.3102    1.1441 O   0  0  0  0  0  0  0  0  0  0  0  0
    0.1940   -0.8969   -0.5033 C   0  0  0  0  0  0  0  0  0  0  0  0
    0.9118   -0.8590   -1.7528 C   0  0  0  0  0  0  0  0  0  0  0  0
    2.0403   -1.7207   -1.6092 C   0  0  0  0  0  0  0  0  0  0  0  0
    2.7920   -1.8840   -2.3909 H   0  0  0  0  0  0  0  0  0  0  0  0
    2.0021   -2.3219   -0.3164 C   0  0  0  0  0  3  0  0  0  0  0  0
    2.7185   -3.0401    0.0997 H   0  0  0  0  0  0  0  0  0  0  0  0
    0.8604   -1.8308    0.3746 C   0  0  0  0  0  0  0  0  0  0  0  0
    0.5821   -0.1469   -3.0325 C   0  0  0  0  0  0  0  0  0  0  0  0
    1.2264   -0.5293   -3.8476 H   0  0  0  0  0  0  0  0  0  0  0  0
    0.7435    0.9452   -2.9552 H   0  0  0  0  0  0  0  0  0  0  0  0
   -0.4764   -0.3013   -3.3187 H   0  0  0  0  0  0  0  0  0  0  0  0
    0.4091   -2.3065    1.7208 C   0  0  0  0  0  0  0  0  0  0  0  0
   -0.3516   -3.1056    1.5946 H   0  0  0  0  0  0  0  0  0  0  0  0
   -0.0515   -1.4879    2.2993 H   0  0  0  0  0  0  0  0  0  0  0  0
    1.2600   -2.7220    2.2937 H   0  0  0  0  0  0  0  0  0  0  0  0
   -1.1767   -0.2961   -0.1253 C   0  0  0  0  0  0  0  0  0  0  0  0
   -2.1335   -1.5065   -0.0136 C   0  0  0  0  0  0  0  0  0  0  0  0
   -2.9938   -1.6489    1.0867 C   0  0  0  0  0  0  0  0  0  0  0  0
   -2.9569   -0.9042    1.8924 H   0  0  0  0  0  0  0  0  0  0  0  0
   -3.8715   -2.7418    1.1733 C   0  0  0  0  0  0  0  0  0  0  0  0
   -4.5351   -2.8381    2.0463 H   0  0  0  0  0  0  0  0  0  0  0  0
   -3.8979   -3.7103    0.1591 C   0  0  0  0  0  0  0  0  0  0  0  0
   -4.5828   -4.5690    0.2283 H   0  0  0  0  0  0  0  0  0  0  0  0
   -3.0359   -3.5791   -0.9423 C   0  0  0  0  0  0  0  0  0  0  0  0
   -3.0415   -4.3361   -1.7416 H   0  0  0  0  0  0  0  0  0  0  0  0
   -2.1595   -2.4880   -1.0250 C   0  0  0  0  0  0  0  0  0  0  0  0
   -1.4815   -2.3985   -1.8874 H   0  0  0  0  0  0  0  0  0  0  0  0
   -1.7337    0.7316   -1.1314 C   0  0  0  0  0  0  0  0  0  0  0  0
   -1.0331    1.9396   -1.3147 C   0  0  0  0  0  0  0  0  0  0  0  0
   -0.0627    2.0833   -0.8222 H   0  0  0  0  0  0  0  0  0  0  0  0
   -1.5415    2.9506   -2.1393 C   0  0  0  0  0  0  0  0  0  0  0  0
   -0.9674    3.8806   -2.2710 H   0  0  0  0  0  0  0  0  0  0  0  0
   -2.7703    2.7750   -2.7967 C   0  0  0  0  0  0  0  0  0  0  0  0
   -3.1744    3.5689   -3.4431 H   0  0  0  0  0  0  0  0  0  0  0  0
   -3.4771    1.5766   -2.6215 C   0  0  0  0  0  0  0  0  0  0  0  0
   -4.4438    1.4262   -3.1261 H   0  0  0  0  0  0  0  0  0  0  0  0
   -2.9641    0.5631   -1.7946 C   0  0  0  0  0  0  0  0  0  0  0  0
   -3.5395   -0.3623   -1.6576 H   0  0  0  0  0  0  0  0  0  0  0  0
   -0.4206    3.1627    1.7515 C   0  0  0  0  0  0  0  0  0  0  0  0
    0.6307    2.8119    1.7231 H   0  0  0  0  0  0  0  0  0  0  0  0
   -0.5316    3.8498    2.6164 H   0  0  0  0  0  0  0  0  0  0  0  0
   -0.6261    3.7391    0.8292 H   0  0  0  0  0  0  0  0  0  0  0  0
   -3.3462    2.1622    1.4667 C   0  0  0  0  0  0  0  0  0  0  0  0
   -3.7249    2.9511    2.1505 H   0  0  0  0  0  0  0  0  0  0  0  0
   -4.0377    1.2980    1.5271 H   0  0  0  0  0  0  0  0  0  0  0  0
   -3.3841    2.5581    0.4324 H   0  0  0  0  0  0  0  0  0  0  0  0
   -1.5147    1.1192    3.7599 C   0  0  0  0  0  0  0  0  0  0  0  0
   -2.1809    0.2520    3.9439 H   0  0  0  0  0  0  0  0  0  0  0  0
   -1.8091    1.9328    4.4543 H   0  0  0  0  0  0  0  0  0  0  0  0
   -0.4769    0.8131    4.0041 H   0  0  0  0  0  0  0  0  0  0  0  0
  1 49  1  0  0  0  0
  2  1  1  0  0  0  0
  3 18  1  0  0  0  0
  3  9  2  0  0  0  0
  4  5  2  0  0  0  0
  4  3  1  0  0  0  0
  5  7  1  0  0  0  0
  6  5  1  0  0  0  0
  7  8  1  0  0  0  0
  7  9  1  0  0  0  0
  9 14  1  0  0  0  0
 10 12  1  0  0  0  0
 10  4  1  0  0  0  0
 11 10  1  0  0  0  0
 13 10  1  0  0  0  0
 14 17  1  0  0  0  0
 14 16  1  0  0  0  0
 15 14  1  0  0  0  0
 18 19  1  0  0  0  0
 18  2  1  0  0  0  0
 19 20  1  0  0  0  0
 20 22  2  0  0  0  0
 20 21  1  0  0  0  0
 22 23  1  0  0  0  0
 24 25  1  0  0  0  0
 24 22  1  0  0  0  0
 26 24  2  0  0  0  0
 27 26  1  0  0  0  0
 28 26  1  0  0  0  0
 28 19  2  0  0  0  0
 29 28  1  0  0  0  0
 30 18  1  0  0  0  0
 31 30  1  0  0  0  0
 31 32  1  0  0  0  0
 33 31  2  0  0  0  0
 34 33  1  0  0  0  0
 35 37  2  0  0  0  0
 35 33  1  0  0  0  0
 36 35  1  0  0  0  0
 37 39  1  0  0  0  0
 38 37  1  0  0  0  0
 39 40  1  0  0  0  0
 39 30  2  0  0  0  0
 41  1  1  0  0  0  0
 41 43  1  0  0  0  0
 42 41  1  0  0  0  0
 44 41  1  0  0  0  0
 45 47  1  0  0  0  0
 45  1  1  0  0  0  0
 45 46  1  0  0  0  0
 48 45  1  0  0  0  0
 49 50  1  0  0  0  0
 49 52  1  0  0  0  0
 49 51  1  0  0  0  0
M  END
