4
q = -1.0

 17 18  0  0  1  0  0  0  0  0999 V2000
   -3.1909   -1.8788   -1.6570 C   0  0  2  0  0  0  0  0  0  0  0  0
   -3.7416   -1.3433   -2.4486 H   0  0  0  0  0  0  0  0  0  0  0  0
   -1.6710   -2.0067   -1.8714 C   0  0  2  0  0  3  0  0  0  0  0  0
   -1.2141   -3.0322   -0.9413 C   0  0  0  0  0  3  0  0  0  0  0  0
   -0.2869   -3.6150   -1.0207 H   0  0  0  0  0  0  0  0  0  0  0  0
   -2.4959   -3.5046   -0.2342 C   0  0  1  0  0  0  0  0  0  0  0  0
   -2.4381   -4.4630    0.3075 H   0  0  0  0  0  0  0  0  0  0  0  0
   -2.7418   -2.2444    0.6210 C   0  0  0  0  0  0  0  0  0  0  0  0
   -2.7806   -2.2325    1.7155 H   0  0  0  0  0  0  0  0  0  0  0  0
   -3.1575   -1.2307   -0.2607 C   0  0  0  0  0  0  0  0  0  0  0  0
   -3.5656   -0.2434   -0.0040 H   0  0  0  0  0  0  0  0  0  0  0  0
   -3.5706   -3.3396   -1.3340 C   0  0  0  0  0  0  0  0  0  0  0  0
   -4.6043   -3.4344   -0.9440 H   0  0  0  0  0  0  0  0  0  0  0  0
   -3.4213   -4.0287   -2.1910 H   0  0  0  0  0  0  0  0  0  0  0  0
   -0.8479   -0.9809   -2.3372 C   0  0  0  0  0  3  0  0  0  0  0  0
    0.2186   -1.1673   -2.5248 H   0  0  0  0  0  0  0  0  0  0  0  0
   -1.2921   -0.0841   -2.7950 H   0  0  0  0  0  0  0  0  0  0  0  0
  1  2  1  6  0  0  0
  1 12  1  0  0  0  0
  1 10  1  0  0  0  0
  3 15  1  1  0  0  0
  3  1  1  0  0  0  0
  3  4  1  0  0  0  0
  4  6  1  0  0  0  0
  5  4  1  0  0  0  0
  6  7  1  1  0  0  0
  6  8  1  0  0  0  0
  8  9  1  0  0  0  0
 10 11  1  0  0  0  0
 10  8  2  0  0  0  0
 12 13  1  0  0  0  0
 12  6  1  0  0  0  0
 14 12  1  0  0  0  0
 16 15  1  0  0  0  0
 17 15  1  0  0  0  0
M  END
