6
q = 0.0, confidence = 0.904

 24 24  0  0  1  0  0  0  0  0999 V2000
   -1.1221   -1.4572    0.0209 C   0  0  0  0  0  0  0  0  0  0  0  0
   -1.9340   -1.0867    1.2000 C   0  0  1  0  0  3  0  0  0  0  0  0
   -3.1327   -0.5714    0.7349 C   0  0  0  0  0  0  0  0  0  0  0  0
   -3.1294   -0.5995   -0.7350 C   0  0  0  0  0  0  0  0  0  0  0  0
   -1.9281   -1.1309   -1.1748 C   0  0  0  0  0  0  0  0  0  0  0  0
    0.0703   -2.2527    0.0388 C   0  0  0  0  0  3  0  0  0  0  0  0
   -1.4938   -1.2900    2.6174 C   0  0  0  0  0  0  0  0  0  0  0  0
   -4.2786   -0.0350    1.5394 C   0  0  0  0  0  0  0  0  0  0  0  0
   -4.2725   -0.0964   -1.5645 C   0  0  0  0  0  0  0  0  0  0  0  0
   -1.4791   -1.3824   -2.5815 C   0  0  0  0  0  0  0  0  0  0  0  0
    0.3557   -2.7625    0.9753 H   0  0  0  0  0  0  0  0  0  0  0  0
    0.3603   -2.7968   -0.8768 H   0  0  0  0  0  0  0  0  0  0  0  0
   -0.5339   -0.7701    2.8297 H   0  0  0  0  0  0  0  0  0  0  0  0
   -2.2450   -0.9141    3.3397 H   0  0  0  0  0  0  0  0  0  0  0  0
   -1.3263   -2.3654    2.8498 H   0  0  0  0  0  0  0  0  0  0  0  0
   -4.4953    1.0304    1.2992 H   0  0  0  0  0  0  0  0  0  0  0  0
   -5.2211   -0.5901    1.3379 H   0  0  0  0  0  0  0  0  0  0  0  0
   -4.0874   -0.0953    2.6288 H   0  0  0  0  0  0  0  0  0  0  0  0
   -4.4919    0.9773   -1.3672 H   0  0  0  0  0  0  0  0  0  0  0  0
   -4.0769   -0.1990   -2.6499 H   0  0  0  0  0  0  0  0  0  0  0  0
   -5.2151   -0.6446   -1.3450 H   0  0  0  0  0  0  0  0  0  0  0  0
   -0.5224   -0.8624   -2.8077 H   0  0  0  0  0  0  0  0  0  0  0  0
   -2.2294   -1.0390   -3.3207 H   0  0  0  0  0  0  0  0  0  0  0  0
   -1.3015   -2.4641   -2.7739 H   0  0  0  0  0  0  0  0  0  0  0  0
  1  6  1  0  0  0  0
  1  2  1  0  0  0  0
  2  7  1  1  0  0  0
  3  2  1  0  0  0  0
  3  8  1  0  0  0  0
  4  3  2  0  0  0  0
  5  4  1  0  0  0  0
  5  1  2  0  0  0  0
  6 11  1  0  0  0  0
  7 13  1  0  0  0  0
  7 15  1  0  0  0  0
  7 14  1  0  0  0  0
  8 18  1  0  0  0  0
  9 19  1  0  0  0  0
  9 21  1  0  0  0  0
  9  4  1  0  0  0  0
 10  5  1  0  0  0  0
 12  6  1  0  0  0  0
 16  8  1  0  0  0  0
 17  8  1  0  0  0  0
 20  9  1  0  0  0  0
 22 10  1  0  0  0  0
 23 10  1  0  0  0  0
 24 10  1  0  0  0  0
M  END
