5
q = -1.0, confidence = 0.0

 29 31  0  0  1  0  0  0  0  0999 V2000
   -0.0282   -1.3851    0.5426 P   0  0  0  0  0  0  0  0  0  0  0  0
   -1.2961   -0.6726   -0.5500 C   0  0  0  0  0  0  0  0  0  0  0  0
   -0.7317   -0.0125   -1.6782 C   0  0  0  0  0  3  0  0  0  0  0  0
   -1.3259    0.4859   -2.4559 H   0  0  0  0  0  0  0  0  0  0  0  0
    0.7024   -0.0399   -1.6836 C   0  0  0  0  0  3  0  0  0  0  0  0
    1.3130    0.4095   -2.4790 H   0  0  0  0  0  0  0  0  0  0  0  0
    1.2529   -0.7156   -0.5588 C   0  0  2  0  0  3  0  0  0  0  0  0
   -2.7475   -0.8354   -0.3123 C   0  0  0  0  0  0  0  0  0  0  0  0
   -3.6646   -0.7824   -1.3857 C   0  0  0  0  0  0  0  0  0  0  0  0
   -3.2982   -0.6203   -2.4100 H   0  0  0  0  0  0  0  0  0  0  0  0
   -5.0372   -0.9605   -1.1656 C   0  0  0  0  0  0  0  0  0  0  0  0
   -5.7343   -0.9184   -2.0162 H   0  0  0  0  0  0  0  0  0  0  0  0
   -5.5207   -1.1993    0.1300 C   0  0  0  0  0  0  0  0  0  0  0  0
   -6.5986   -1.3383    0.3022 H   0  0  0  0  0  0  0  0  0  0  0  0
   -4.6190   -1.2621    1.2050 C   0  0  0  0  0  0  0  0  0  0  0  0
   -4.9873   -1.4460    2.2254 H   0  0  0  0  0  0  0  0  0  0  0  0
   -3.2484   -1.0821    0.9861 C   0  0  0  0  0  0  0  0  0  0  0  0
   -2.5506   -1.1162    1.8371 H   0  0  0  0  0  0  0  0  0  0  0  0
    2.7041   -0.8967   -0.3269 C   0  0  0  0  0  0  0  0  0  0  0  0
    3.6391    0.0777   -0.7440 C   0  0  0  0  0  0  0  0  0  0  0  0
    3.2795    1.0121   -1.2010 H   0  0  0  0  0  0  0  0  0  0  0  0
    5.0108   -0.1184   -0.5461 C   0  0  0  0  0  0  0  0  0  0  0  0
    5.7237    0.6543   -0.8713 H   0  0  0  0  0  0  0  0  0  0  0  0
    5.4757   -1.2868    0.0806 C   0  0  0  0  0  0  0  0  0  0  0  0
    6.5540   -1.4368    0.2408 H   0  0  0  0  0  0  0  0  0  0  0  0
    4.5568   -2.2569    0.5084 C   0  0  0  0  0  0  0  0  0  0  0  0
    4.9109   -3.1745    1.0020 H   0  0  0  0  0  0  0  0  0  0  0  0
    3.1830   -2.0638    0.3061 C   0  0  0  0  0  0  0  0  0  0  0  0
    2.4651   -2.8328    0.6312 H   0  0  0  0  0  0  0  0  0  0  0  0
  2  8  1  0  0  0  0
  2  1  2  0  0  0  0
  3  2  1  0  0  0  0
  4  3  1  0  0  0  0
  5  3  1  0  0  0  0
  5  7  1  0  0  0  0
  6  5  1  0  0  0  0
  7 19  1  6  0  0  0
  7  1  1  0  0  0  0
  8 17  1  0  0  0  0
  9 11  1  0  0  0  0
  9  8  2  0  0  0  0
 10  9  1  0  0  0  0
 11 13  2  0  0  0  0
 12 11  1  0  0  0  0
 13 14  1  0  0  0  0
 13 15  1  0  0  0  0
 15 16  1  0  0  0  0
 17 15  2  0  0  0  0
 17 18  1  0  0  0  0
 19 28  1  0  0  0  0
 20 22  1  0  0  0  0
 20 19  2  0  0  0  0
 21 20  1  0  0  0  0
 22 24  2  0  0  0  0
 23 22  1  0  0  0  0
 24 25  1  0  0  0  0
 24 26  1  0  0  0  0
 26 27  1  0  0  0  0
 28 26  2  0  0  0  0
 28 29  1  0  0  0  0
M  END
