4
q = 0.0, confidence = 1.0

 24 25  0  0  0  0  0  0  0  0999 V2000
    0.9100   -3.5286   -0.1979 N   0  0  0  0  0  0  0  0  0  0  0  0
    2.0221   -1.7710   -0.7952 N   0  0  0  0  0  0  0  0  0  0  0  0
    1.8886    0.3718    1.1882 N   0  0  0  0  0  0  0  0  0  0  0  0
    0.7721   -2.1913   -0.4353 C   0  0  0  0  0  2  0  0  0  0  0  0
    2.9285   -2.8201   -0.7628 C   0  0  0  0  0  0  0  0  0  0  0  0
    3.9859   -2.6928   -1.0132 H   0  0  0  0  0  0  0  0  0  0  0  0
    2.2229   -3.9345   -0.3900 C   0  0  0  0  0  0  0  0  0  0  0  0
    2.5423   -4.9728   -0.2585 H   0  0  0  0  0  0  0  0  0  0  0  0
   -0.1712   -4.4168    0.2080 C   0  0  0  0  0  0  0  0  0  0  0  0
   -0.0053   -4.7815    1.2406 H   0  0  0  0  0  0  0  0  0  0  0  0
   -0.2331   -5.2815   -0.4803 H   0  0  0  0  0  0  0  0  0  0  0  0
   -1.1190   -3.8503    0.1674 H   0  0  0  0  0  0  0  0  0  0  0  0
    2.3739   -0.3804   -1.0691 C   0  0  0  0  0  0  0  0  0  0  0  0
    1.4817    0.1046   -1.5141 H   0  0  0  0  0  0  0  0  0  0  0  0
    3.1845   -0.3659   -1.8215 H   0  0  0  0  0  0  0  0  0  0  0  0
    2.7756    0.3867    0.1801 C   0  0  0  0  0  0  0  0  0  0  0  0
    3.9920    1.0891    0.2455 C   0  0  0  0  0  0  0  0  0  0  0  0
    4.6965    1.0700   -0.6000 H   0  0  0  0  0  0  0  0  0  0  0  0
    4.2864    1.8126    1.4112 C   0  0  0  0  0  0  0  0  0  0  0  0
    5.2312    2.3702    1.4982 H   0  0  0  0  0  0  0  0  0  0  0  0
    3.3588    1.8049    2.4610 C   0  0  0  0  0  0  0  0  0  0  0  0
    3.5479    2.3548    3.3946 H   0  0  0  0  0  0  0  0  0  0  0  0
    2.1745    1.0650    2.2987 C   0  0  0  0  0  0  0  0  0  0  0  0
    1.4206    1.0311    3.1042 H   0  0  0  0  0  0  0  0  0  0  0  0
  1  9  1  0  0  0  0
  2  5  1  0  0  0  0
  2  4  1  0  0  0  0
  3 23  1  0  0  0  0
  4  1  1  0  0  0  0
  5  7  2  0  0  0  0
  6  5  1  0  0  0  0
  7  8  1  0  0  0  0
  7  1  1  0  0  0  0
  9 10  1  0  0  0  0
 11  9  1  0  0  0  0
 12  9  1  0  0  0  0
 13  2  1  0  0  0  0
 13 16  1  0  0  0  0
 14 13  1  0  0  0  0
 15 13  1  0  0  0  0
 16 17  1  0  0  0  0
 16  3  2  0  0  0  0
 17 19  2  0  0  0  0
 18 17  1  0  0  0  0
 19 20  1  0  0  0  0
 19 21  1  0  0  0  0
 21 22  1  0  0  0  0
 23 21  2  0  0  0  0
 23 24  1  0  0  0  0
M  END
