2
q = -1.0

  3  2  0  0  0  0  0  0  0  0999 V2000
   -3.6268    0.5761   -1.1239 S   0  0  0  0  0  0  0  0  0  0  0  0
   -3.0157    1.5853    0.0472 C   0  0  0  0  0  0  0  0  0  0  0  0
   -2.3889    2.1195    0.9289 N   0  0  0  0  0  0  0  0  0  0  0  0
  1  2  1  0  0  0  0
  2  3  1  0  0  0  0
M  END
