4
q = 0.0, confidence = 0.98

 38 41  0  0  0  0  0  0  0  0999 V2000
    0.4203   -0.6982   -0.8195 C   0  0  0  0  0  0  0  0  0  0  0  0
    1.7478   -1.2425   -1.0191 C   0  0  0  0  0  3  0  0  0  0  0  0
    2.7850   -0.6518   -1.8302 C   0  0  0  0  0  3  0  0  0  0  0  0
    3.0640    0.7377   -1.7236 C   0  0  0  0  0  3  0  0  0  0  0  0
    2.3494    1.5559   -0.7711 C   0  0  0  0  0  3  0  0  0  0  0  0
    0.8488    1.7979   -0.6966 C   0  0  0  0  0  0  0  0  0  0  0  0
   -0.0388    0.5997   -0.7011 C   0  0  0  0  0  0  0  0  0  0  0  0
   -1.4415    0.5112   -0.3956 C   0  0  0  0  0  0  0  0  0  0  0  0
   -1.7488   -0.8536   -0.3671 C   0  0  0  0  0  0  0  0  0  0  0  0
   -0.6070   -1.5783   -0.6167 O   0  0  0  0  0  0  0  0  0  0  0  0
   -2.3154    1.6579   -0.0756 C   0  0  0  0  0  0  0  0  0  0  0  0
   -2.4142    2.7580   -0.9565 C   0  0  0  0  0  0  0  0  0  0  0  0
   -3.2200    3.8613   -0.6390 C   0  0  0  0  0  0  0  0  0  0  0  0
   -3.9399    3.8857    0.5656 C   0  0  0  0  0  0  0  0  0  0  0  0
   -3.8459    2.8002    1.4526 C   0  0  0  0  0  0  0  0  0  0  0  0
   -3.0389    1.6992    1.1384 C   0  0  0  0  0  0  0  0  0  0  0  0
   -2.9721   -1.6227   -0.1736 C   0  0  0  0  0  0  0  0  0  0  0  0
   -2.9000   -2.9977    0.1627 C   0  0  0  0  0  0  0  0  0  0  0  0
   -4.0661   -3.7491    0.3481 C   0  0  0  0  0  0  0  0  0  0  0  0
   -5.3285   -3.1506    0.2034 C   0  0  0  0  0  0  0  0  0  0  0  0
   -5.4116   -1.7911   -0.1418 C   0  0  0  0  0  0  0  0  0  0  0  0
   -4.2508   -1.0335   -0.3344 C   0  0  0  0  0  0  0  0  0  0  0  0
    1.7691   -2.3423   -0.9503 H   0  0  0  0  0  0  0  0  0  0  0  0
    3.4511   -1.2933   -2.4281 H   0  0  0  0  0  0  0  0  0  0  0  0
    3.9523    1.1321   -2.2440 H   0  0  0  0  0  0  0  0  0  0  0  0
    2.8888    2.4918   -0.5403 H   0  0  0  0  0  0  0  0  0  0  0  0
    0.5965    2.4741   -1.5471 H   0  0  0  0  0  0  0  0  0  0  0  0
    0.6257    2.4015    0.2107 H   0  0  0  0  0  0  0  0  0  0  0  0
   -1.8663    2.7331   -1.9108 H   0  0  0  0  0  0  0  0  0  0  0  0
   -3.2900    4.7062   -1.3410 H   0  0  0  0  0  0  0  0  0  0  0  0
   -4.5725    4.7511    0.8149 H   0  0  0  0  0  0  0  0  0  0  0  0
   -4.4015    2.8148    2.4027 H   0  0  0  0  0  0  0  0  0  0  0  0
   -2.9573    0.8530    1.8368 H   0  0  0  0  0  0  0  0  0  0  0  0
   -1.9129   -3.4667    0.2802 H   0  0  0  0  0  0  0  0  0  0  0  0
   -3.9884   -4.8148    0.6127 H   0  0  0  0  0  0  0  0  0  0  0  0
   -6.2441   -3.7424    0.3528 H   0  0  0  0  0  0  0  0  0  0  0  0
   -6.3953   -1.3150   -0.2733 H   0  0  0  0  0  0  0  0  0  0  0  0
   -4.3306    0.0224   -0.6264 H   0  0  0  0  0  0  0  0  0  0  0  0
  1  7  2  0  0  0  0
  1 10  1  0  0  0  0
  2 23  1  0  0  0  0
  2  1  1  0  0  0  0
  3  4  1  0  0  0  0
  3  2  1  0  0  0  0
  4  5  1  0  0  0  0
  5  6  1  0  0  0  0
  5 26  1  0  0  0  0
  6 28  1  0  0  0  0
  7  6  1  0  0  0  0
  7  8  1  0  0  0  0
  8  9  2  0  0  0  0
  8 11  1  0  0  0  0
  9 17  1  0  0  0  0
 10  9  1  0  0  0  0
 11 16  1  0  0  0  0
 12 13  1  0  0  0  0
 12 11  2  0  0  0  0
 13 14  2  0  0  0  0
 14 31  1  0  0  0  0
 14 15  1  0  0  0  0
 15 32  1  0  0  0  0
 16 15  2  0  0  0  0
 16 33  1  0  0  0  0
 17 18  1  0  0  0  0
 18 34  1  0  0  0  0
 18 19  2  0  0  0  0
 19 35  1  0  0  0  0
 20 19  1  0  0  0  0
 20 36  1  0  0  0  0
 21 20  2  0  0  0  0
 22 17  2  0  0  0  0
 22 21  1  0  0  0  0
 24  3  1  0  0  0  0
 25  4  1  0  0  0  0
 27  6  1  0  0  0  0
 29 12  1  0  0  0  0
 30 13  1  0  0  0  0
 37 21  1  0  0  0  0
 38 22  1  0  0  0  0
M  END
