1
q = -1.0, confidence = 0.0

 17 17  0  0  0  0  0  0  0  0999 V2000
   -0.4552    0.3923   -1.6277 C   0  0  0  0  0  3  0  0  0  0  0  0
   -0.6124    1.4023   -2.2840 O   0  0  0  0  0  0  0  0  0  0  0  0
    0.4229   -0.5946   -1.9679 O   0  0  0  0  0  0  0  0  0  0  0  0
    1.4432   -0.2685   -2.9489 C   0  0  0  0  0  0  0  0  0  0  0  0
    1.0809    0.5799   -3.5632 H   0  0  0  0  0  0  0  0  0  0  0  0
    1.5615   -1.1697   -3.5808 H   0  0  0  0  0  0  0  0  0  0  0  0
    2.7172    0.0597   -2.2164 C   0  0  0  0  0  0  0  0  0  0  0  0
    3.7334   -0.9005   -2.0627 C   0  0  0  0  0  0  0  0  0  0  0  0
    3.6266   -1.8865   -2.5415 H   0  0  0  0  0  0  0  0  0  0  0  0
    4.8716   -0.6349   -1.2886 C   0  0  0  0  0  0  0  0  0  0  0  0
    5.6542   -1.3952   -1.1591 H   0  0  0  0  0  0  0  0  0  0  0  0
    4.9832    0.6103   -0.6548 C   0  0  0  0  0  0  0  0  0  0  0  0
    3.9884    1.5907   -0.7970 C   0  0  0  0  0  0  0  0  0  0  0  0
    4.0910    2.5601   -0.2895 H   0  0  0  0  0  0  0  0  0  0  0  0
    2.8599    1.3085   -1.5766 C   0  0  0  0  0  0  0  0  0  0  0  0
    2.0607    2.0593   -1.6716 H   0  0  0  0  0  0  0  0  0  0  0  0
    6.4898    0.9591    0.4617 Br  0  0  0  0  0  0  0  0  0  0  0  0
  2  1  2  0  0  0  0
  3  1  1  0  0  0  0
  4  7  1  0  0  0  0
  4  3  1  0  0  0  0
  5  4  1  0  0  0  0
  6  4  1  0  0  0  0
  7  8  2  0  0  0  0
  7 15  1  0  0  0  0
  8 10  1  0  0  0  0
  9  8  1  0  0  0  0
 10 11  1  0  0  0  0
 10 12  2  0  0  0  0
 12 17  1  0  0  0  0
 13 12  1  0  0  0  0
 13 14  1  0  0  0  0
 15 13  2  0  0  0  0
 16 15  1  0  0  0  0
M  END
