1
q = -1.0

 38 41  0  0  1  0  0  0  0  0999 V2000
    1.5872    0.3856   -0.3497 C   0  0  2  0  0  3  0  0  0  0  0  0
    1.0432   -0.8454   -0.9669 C   0  0  1  0  0  3  0  0  0  0  0  0
    0.5231    1.1763   -0.9857 C   0  0  2  0  0  3  0  0  0  0  0  0
    0.0459   -0.0256   -1.7416 C   0  0  0  0  0  0  0  0  0  0  0  0
   -0.8145   -0.2484   -2.6006 O   0  0  0  0  0  0  0  0  0  0  0  0
    2.9758    0.7812   -0.0190 C   0  0  0  0  0  0  0  0  0  0  0  0
    3.7249    1.4072   -1.0432 C   0  0  0  0  0  0  0  0  0  0  0  0
    5.0564    1.7851   -0.8283 C   0  0  0  0  0  0  0  0  0  0  0  0
    5.6659    1.5475    0.4145 C   0  0  0  0  0  0  0  0  0  0  0  0
    4.9303    0.9334    1.4392 C   0  0  0  0  0  0  0  0  0  0  0  0
    3.5957    0.5560    1.2269 C   0  0  0  0  0  0  0  0  0  0  0  0
    1.5700   -2.1804   -1.2162 C   0  0  0  0  0  0  0  0  0  0  0  0
    0.9119   -2.9946   -2.1732 C   0  0  0  0  0  0  0  0  0  0  0  0
    1.3842   -4.2837   -2.4522 C   0  0  0  0  0  0  0  0  0  0  0  0
    2.5161   -4.7835   -1.7876 C   0  0  0  0  0  0  0  0  0  0  0  0
    3.1841   -3.9767   -0.8493 C   0  0  0  0  0  0  0  0  0  0  0  0
    2.7209   -2.6868   -0.5649 C   0  0  0  0  0  0  0  0  0  0  0  0
    0.2984    2.5985   -1.1937 C   0  0  0  0  0  0  0  0  0  0  0  0
    0.9963    3.5999   -0.4740 C   0  0  0  0  0  0  0  0  0  0  0  0
    0.7307    4.9539   -0.7112 C   0  0  0  0  0  0  0  0  0  0  0  0
   -0.2234    5.3358   -1.6714 C   0  0  0  0  0  0  0  0  0  0  0  0
   -0.9095    4.3502   -2.4004 C   0  0  0  0  0  0  0  0  0  0  0  0
   -0.6563    2.9929   -2.1654 C   0  0  0  0  0  0  0  0  0  0  0  0
    3.2466    1.5947   -2.0164 H   0  0  0  0  0  0  0  0  0  0  0  0
    5.6222    2.2702   -1.6383 H   0  0  0  0  0  0  0  0  0  0  0  0
    6.7111    1.8465    0.5853 H   0  0  0  0  0  0  0  0  0  0  0  0
    5.3943    0.7516    2.4203 H   0  0  0  0  0  0  0  0  0  0  0  0
    3.0255    0.0951    2.0437 H   0  0  0  0  0  0  0  0  0  0  0  0
    0.0372   -2.5828   -2.6980 H   0  0  0  0  0  0  0  0  0  0  0  0
    0.8652   -4.9035   -3.1997 H   0  0  0  0  0  0  0  0  0  0  0  0
    2.8841   -5.7978   -2.0050 H   0  0  0  0  0  0  0  0  0  0  0  0
    4.0782   -4.3582   -0.3330 H   0  0  0  0  0  0  0  0  0  0  0  0
    3.2529   -2.0617    0.1657 H   0  0  0  0  0  0  0  0  0  0  0  0
    1.7455    3.3114    0.2762 H   0  0  0  0  0  0  0  0  0  0  0  0
    1.2763    5.7217   -0.1416 H   0  0  0  0  0  0  0  0  0  0  0  0
   -0.4264    6.4021   -1.8538 H   0  0  0  0  0  0  0  0  0  0  0  0
   -1.6509    4.6424   -3.1599 H   0  0  0  0  0  0  0  0  0  0  0  0
   -1.1834    2.2077   -2.7280 H   0  0  0  0  0  0  0  0  0  0  0  0
  1  6  1  6  0  0  0
  2 12  1  6  0  0  0
  2  1  1  0  0  0  0
  3 18  1  6  0  0  0
  3  1  1  0  0  0  0
  4  3  1  0  0  0  0
  4  2  1  0  0  0  0
  5  4  2  0  0  0  0
  6 11  1  0  0  0  0
  7  8  1  0  0  0  0
  7  6  2  0  0  0  0
  8  9  2  0  0  0  0
  9 26  1  0  0  0  0
  9 10  1  0  0  0  0
 10 27  1  0  0  0  0
 11 10  2  0  0  0  0
 11 28  1  0  0  0  0
 12 17  1  0  0  0  0
 13 12  2  0  0  0  0
 14 13  1  0  0  0  0
 14 15  2  0  0  0  0
 15 16  1  0  0  0  0
 16 17  2  0  0  0  0
 16 32  1  0  0  0  0
 17 33  1  0  0  0  0
 18 19  1  0  0  0  0
 19 34  1  0  0  0  0
 20 19  2  0  0  0  0
 20 35  1  0  0  0  0
 21 20  1  0  0  0  0
 22 23  1  0  0  0  0
 22 21  2  0  0  0  0
 23 18  2  0  0  0  0
 24  7  1  0  0  0  0
 25  8  1  0  0  0  0
 29 13  1  0  0  0  0
 30 14  1  0  0  0  0
 31 15  1  0  0  0  0
 36 21  1  0  0  0  0
 37 22  1  0  0  0  0
 38 23  1  0  0  0  0
M  END
