4
q = 0.0, confidence = 0.984

 31 32  0  0  1  0  0  0  0  0999 V2000
    0.4379    2.5333   -0.0804 O   0  0  0  0  0  0  0  0  0  0  0  0
   -0.1653    0.2965   -0.7329 C   0  0  0  0  0  3  0  0  0  0  0  0
    0.3598    1.2184    0.2369 C   0  0  1  0  0  3  0  0  0  0  0  0
    0.8715    0.6067    1.4225 C   0  0  0  0  0  3  0  0  0  0  0  0
    0.6552   -0.8252    1.4515 C   0  0  0  0  0  3  0  0  0  0  0  0
   -0.7135   -1.3819    1.0752 C   0  0  2  0  0  0  0  0  0  0  0  0
   -1.1588   -0.7740   -0.3065 C   0  0  1  0  0  0  0  0  0  0  0  0
    1.3252    3.3422    0.6823 C   0  0  0  0  0  0  0  0  0  0  0  0
   -1.7006   -1.1644    2.2334 C   0  0  0  0  0  0  0  0  0  0  0  0
   -2.6019   -0.2857   -0.3451 C   0  0  0  0  0  0  0  0  0  0  0  0
   -3.6292   -1.1878   -0.6914 C   0  0  0  0  0  0  0  0  0  0  0  0
   -4.9737   -0.7890   -0.6978 C   0  0  0  0  0  0  0  0  0  0  0  0
   -5.3171    0.5305   -0.3626 C   0  0  0  0  0  0  0  0  0  0  0  0
   -4.3043    1.4423   -0.0280 C   0  0  0  0  0  0  0  0  0  0  0  0
   -2.9600    1.0387   -0.0206 C   0  0  0  0  0  0  0  0  0  0  0  0
    1.3329    4.3383    0.2037 H   0  0  0  0  0  0  0  0  0  0  0  0
    2.3532    2.9172    0.6714 H   0  0  0  0  0  0  0  0  0  0  0  0
    0.9843    3.4485    1.7351 H   0  0  0  0  0  0  0  0  0  0  0  0
   -1.8677   -0.0850    2.4218 H   0  0  0  0  0  0  0  0  0  0  0  0
   -1.3055   -1.6176    3.1654 H   0  0  0  0  0  0  0  0  0  0  0  0
   -2.6868   -1.6214    2.0196 H   0  0  0  0  0  0  0  0  0  0  0  0
   -3.3648   -2.2231   -0.9616 H   0  0  0  0  0  0  0  0  0  0  0  0
   -5.7579   -1.5113   -0.9722 H   0  0  0  0  0  0  0  0  0  0  0  0
   -6.3706    0.8487   -0.3702 H   0  0  0  0  0  0  0  0  0  0  0  0
   -4.5616    2.4822    0.2261 H   0  0  0  0  0  0  0  0  0  0  0  0
   -2.1784    1.7718    0.2286 H   0  0  0  0  0  0  0  0  0  0  0  0
   -0.3285    0.7279   -1.7342 H   0  0  0  0  0  0  0  0  0  0  0  0
    1.3937    1.1618    2.2133 H   0  0  0  0  0  0  0  0  0  0  0  0
    1.1575   -1.3668    2.2711 H   0  0  0  0  0  0  0  0  0  0  0  0
   -0.6038   -2.4779    0.9359 H   0  0  0  0  0  0  0  0  0  0  0  0
   -1.0964   -1.5914   -1.0533 H   0  0  0  0  0  0  0  0  0  0  0  0
  1  8  1  0  0  0  0
  2  7  1  0  0  0  0
  2  3  1  0  0  0  0
  3  1  1  6  0  0  0
  3  4  1  0  0  0  0
  4  5  1  0  0  0  0
  4 28  1  0  0  0  0
  5 29  1  0  0  0  0
  6 30  1  6  0  0  0
  6  5  1  0  0  0  0
  6  9  1  0  0  0  0
  7 31  1  6  0  0  0
  7  6  1  0  0  0  0
  8 18  1  0  0  0  0
  9 19  1  0  0  0  0
  9 20  1  0  0  0  0
 10  7  1  0  0  0  0
 10 15  1  0  0  0  0
 11 10  2  0  0  0  0
 12 11  1  0  0  0  0
 12 13  2  0  0  0  0
 13 14  1  0  0  0  0
 14 15  2  0  0  0  0
 14 25  1  0  0  0  0
 15 26  1  0  0  0  0
 16  8  1  0  0  0  0
 17  8  1  0  0  0  0
 21  9  1  0  0  0  0
 22 11  1  0  0  0  0
 23 12  1  0  0  0  0
 24 13  1  0  0  0  0
 27  2  1  0  0  0  0
M  END
