2
q = -1.0, confidence = 0.0

 26 27  0  0  0  0  0  0  0  0999 V2000
   -3.2387   -0.1912    0.8162 P   0  0  0  0  0  0  0  0  0  0  0  0
   -2.2082   -1.2221   -0.3139 C   0  0  0  0  0  3  0  0  0  0  0  0
   -4.7659    0.1639   -0.1831 C   0  0  0  0  0  0  0  0  0  0  0  0
   -5.1713   -0.6322   -1.2730 C   0  0  0  0  0  0  0  0  0  0  0  0
   -6.3777   -0.3706   -1.9447 C   0  0  0  0  0  0  0  0  0  0  0  0
   -7.1965    0.6936   -1.5401 C   0  0  0  0  0  0  0  0  0  0  0  0
   -6.8030    1.4940   -0.4530 C   0  0  0  0  0  0  0  0  0  0  0  0
   -5.6046    1.2279    0.2214 C   0  0  0  0  0  0  0  0  0  0  0  0
   -2.4374    1.4816    0.6704 C   0  0  0  0  0  0  0  0  0  0  0  0
   -2.2991    2.1436   -0.5690 C   0  0  0  0  0  0  0  0  0  0  0  0
   -1.6828    3.4002   -0.6411 C   0  0  0  0  0  0  0  0  0  0  0  0
   -1.1892    4.0146    0.5237 C   0  0  0  0  0  0  0  0  0  0  0  0
   -1.3262    3.3706    1.7613 C   0  0  0  0  0  0  0  0  0  0  0  0
   -1.9553    2.1156    1.8328 C   0  0  0  0  0  0  0  0  0  0  0  0
   -2.7247   -2.2086   -0.3726 H   0  0  0  0  0  0  0  0  0  0  0  0
   -2.2087   -0.8019   -1.3454 H   0  0  0  0  0  0  0  0  0  0  0  0
   -4.5345   -1.4652   -1.6077 H   0  0  0  0  0  0  0  0  0  0  0  0
   -6.6755   -1.0029   -2.7958 H   0  0  0  0  0  0  0  0  0  0  0  0
   -8.1395    0.9007   -2.0685 H   0  0  0  0  0  0  0  0  0  0  0  0
   -7.4378    2.3330   -0.1279 H   0  0  0  0  0  0  0  0  0  0  0  0
   -5.3055    1.8612    1.0723 H   0  0  0  0  0  0  0  0  0  0  0  0
   -2.6932    1.6719   -1.4832 H   0  0  0  0  0  0  0  0  0  0  0  0
   -1.5834    3.9071   -1.6140 H   0  0  0  0  0  0  0  0  0  0  0  0
   -0.6906    4.9934    0.4628 H   0  0  0  0  0  0  0  0  0  0  0  0
   -0.9447    3.8473    2.6770 H   0  0  0  0  0  0  0  0  0  0  0  0
   -2.0842    1.6208    2.8090 H   0  0  0  0  0  0  0  0  0  0  0  0
  2  1  1  0  0  0  0
  3  8  1  0  0  0  0
  3  1  1  0  0  0  0
  4  3  2  0  0  0  0
  5  6  2  0  0  0  0
  5  4  1  0  0  0  0
  6  7  1  0  0  0  0
  7 20  1  0  0  0  0
  7  8  2  0  0  0  0
  8 21  1  0  0  0  0
  9  1  1  0  0  0  0
  9 14  1  0  0  0  0
 10  9  2  0  0  0  0
 11 10  1  0  0  0  0
 11 12  2  0  0  0  0
 12 13  1  0  0  0  0
 13 14  2  0  0  0  0
 13 25  1  0  0  0  0
 14 26  1  0  0  0  0
 15  2  1  0  0  0  0
 16  2  1  0  0  0  0
 17  4  1  0  0  0  0
 18  5  1  0  0  0  0
 19  6  1  0  0  0  0
 22 10  1  0  0  0  0
 23 11  1  0  0  0  0
 24 12  1  0  0  0  0
M  END
