17
q = -1.0, confidence = 0.016

 41 43  0  0  1  0  0  0  0  0999 V2000
   -1.3408   -0.0645   -0.0253 P   0  0  0  0  0  4  0  0  0  0  0  0
    1.3865    4.1428   -0.4017 N   0  0  0  0  0  0  0  0  0  0  0  0
   -0.0817    1.3725   -3.1361 N   0  0  0  0  0  0  0  0  0  0  0  0
   -1.4450   -1.7611   -0.6489 C   0  0  0  0  0  0  0  0  0  0  0  0
   -0.8368   -2.0905   -1.8776 C   0  0  0  0  0  0  0  0  0  0  0  0
   -0.9347   -3.4005   -2.3632 C   0  0  0  0  0  0  0  0  0  0  0  0
   -1.6346   -4.3767   -1.6356 C   0  0  0  0  0  0  0  0  0  0  0  0
   -2.2453   -4.0447   -0.4169 C   0  0  0  0  0  0  0  0  0  0  0  0
   -2.1529   -2.7371    0.0814 C   0  0  0  0  0  0  0  0  0  0  0  0
   -1.4077   -0.0611    1.7882 C   0  0  0  0  0  0  0  0  0  0  0  0
   -0.6779   -1.0105    2.5352 C   0  0  0  0  0  0  0  0  0  0  0  0
   -0.6471   -0.9111    3.9337 C   0  0  0  0  0  0  0  0  0  0  0  0
   -1.3437    0.1167    4.5868 C   0  0  0  0  0  0  0  0  0  0  0  0
   -2.0869    1.0487    3.8441 C   0  0  0  0  0  0  0  0  0  0  0  0
   -2.1211    0.9653    2.4457 C   0  0  0  0  0  0  0  0  0  0  0  0
    0.1497    0.7878   -0.6017 C   0  0  2  0  0  3  0  0  0  0  0  0
    0.7769    1.7283    0.3764 C   0  0  0  0  0  3  0  0  0  0  0  0
    1.1086    3.0522   -0.0555 C   0  0  0  0  0  0  0  0  0  0  0  0
    0.0368    1.1383   -1.9868 C   0  0  0  0  0  0  0  0  0  0  0  0
   -2.8121    0.8388   -0.6202 C   0  0  0  0  0  0  0  0  0  0  0  0
   -4.0187    0.1616   -0.8878 C   0  0  0  0  0  0  0  0  0  0  0  0
   -5.1412    0.8840   -1.3162 C   0  0  0  0  0  0  0  0  0  0  0  0
   -5.0625    2.2763   -1.4818 C   0  0  0  0  0  0  0  0  0  0  0  0
   -3.8582    2.9500   -1.2236 C   0  0  0  0  0  0  0  0  0  0  0  0
   -2.7293    2.2370   -0.7955 C   0  0  0  0  0  0  0  0  0  0  0  0
    0.3490    1.7181    1.3928 H   0  0  0  0  0  0  0  0  0  0  0  0
   -0.2789   -1.3326   -2.4456 H   0  0  0  0  0  0  0  0  0  0  0  0
   -0.4530   -3.6613   -3.3171 H   0  0  0  0  0  0  0  0  0  0  0  0
   -1.6998   -5.4059   -2.0195 H   0  0  0  0  0  0  0  0  0  0  0  0
   -2.7891   -4.8095    0.1573 H   0  0  0  0  0  0  0  0  0  0  0  0
   -2.6161   -2.4815    1.0460 H   0  0  0  0  0  0  0  0  0  0  0  0
   -0.1345   -1.8218    2.0349 H   0  0  0  0  0  0  0  0  0  0  0  0
   -0.0604   -1.6396    4.5115 H   0  0  0  0  0  0  0  0  0  0  0  0
   -1.3086    0.1926    5.6841 H   0  0  0  0  0  0  0  0  0  0  0  0
   -2.6398    1.8512    4.3544 H   0  0  0  0  0  0  0  0  0  0  0  0
   -2.6979    1.6994    1.8646 H   0  0  0  0  0  0  0  0  0  0  0  0
   -4.0772   -0.9311   -0.7725 H   0  0  0  0  0  0  0  0  0  0  0  0
   -6.0816    0.3540   -1.5287 H   0  0  0  0  0  0  0  0  0  0  0  0
   -5.9438    2.8392   -1.8243 H   0  0  0  0  0  0  0  0  0  0  0  0
   -3.7889    4.0384   -1.3664 H   0  0  0  0  0  0  0  0  0  0  0  0
   -1.7845    2.7708   -0.6115 H   0  0  0  0  0  0  0  0  0  0  0  0
  1 10  1  0  0  0  0
  2 18  3  0  0  0  0
  3 19  3  0  0  0  0
  4  1  1  0  0  0  0
  4  9  1  0  0  0  0
  5  4  2  0  0  0  0
  6  5  1  0  0  0  0
  6  7  2  0  0  0  0
  7  8  1  0  0  0  0
  8  9  2  0  0  0  0
  8 30  1  0  0  0  0
  9 31  1  0  0  0  0
 10 15  2  0  0  0  0
 10 11  1  0  0  0  0
 11 12  2  0  0  0  0
 12 33  1  0  0  0  0
 12 13  1  0  0  0  0
 13 34  1  0  0  0  0
 14 35  1  0  0  0  0
 14 13  2  0  0  0  0
 15 14  1  0  0  0  0
 16 19  1  6  0  0  0
 16  1  1  0  0  0  0
 16 17  1  0  0  0  0
 17 26  1  0  0  0  0
 18 17  1  0  0  0  0
 20  1  1  0  0  0  0
 21 37  1  0  0  0  0
 21 20  2  0  0  0  0
 22 21  1  0  0  0  0
 23 22  2  0  0  0  0
 23 24  1  0  0  0  0
 24 25  2  0  0  0  0
 25 20  1  0  0  0  0
 25 41  1  0  0  0  0
 27  5  1  0  0  0  0
 28  6  1  0  0  0  0
 29  7  1  0  0  0  0
 32 11  1  0  0  0  0
 36 15  1  0  0  0  0
 38 22  1  0  0  0  0
 39 23  1  0  0  0  0
 40 24  1  0  0  0  0
M  END
