8
q = -1.0

 26 28  0  0  0  0  0  0  0  0999 V2000
    2.3378   -3.1394    0.0420 C   0  0  0  0  0  0  0  0  0  0  0  0
    3.6285   -3.5135   -0.3484 C   0  0  0  0  0  0  0  0  0  0  0  0
    4.7301   -2.7065   -0.0182 C   0  0  0  0  0  0  0  0  0  0  0  0
    4.5239   -1.5194    0.7017 C   0  0  0  0  0  0  0  0  0  0  0  0
    3.2318   -1.1413    1.0874 C   0  0  0  0  0  0  0  0  0  0  0  0
    2.1163   -1.9472    0.7689 C   0  0  0  0  0  0  0  0  0  0  0  0
    0.7634   -1.5755    1.2221 C   0  0  0  0  0  0  0  0  0  0  0  0
    0.4148   -0.3810    1.9349 C   0  0  0  0  0  3  0  0  0  0  0  0
   -0.9532   -0.4960    2.3724 C   0  0  0  0  0  0  0  0  0  0  0  0
   -1.7851    0.3302    3.1857 C   0  0  0  0  0  0  0  0  0  0  0  0
   -3.0702   -0.1009    3.4824 C   0  0  0  0  0  0  0  0  0  0  0  0
   -3.5723   -1.3386    2.9795 C   0  0  0  0  0  0  0  0  0  0  0  0
   -2.8001   -2.1521    2.1654 C   0  0  0  0  0  0  0  0  0  0  0  0
   -1.4716   -1.7462    1.8506 C   0  0  0  0  0  0  0  0  0  0  0  0
   -0.4307   -2.3531    1.0717 C   0  0  0  0  0  0  0  0  0  0  0  0
    1.4867   -3.7771   -0.2327 H   0  0  0  0  0  0  0  0  0  0  0  0
    3.7761   -4.4438   -0.9174 H   0  0  0  0  0  0  0  0  0  0  0  0
    5.7458   -3.0033   -0.3210 H   0  0  0  0  0  0  0  0  0  0  0  0
    5.3750   -0.8720    0.9614 H   0  0  0  0  0  0  0  0  0  0  0  0
    3.0940   -0.1997    1.6372 H   0  0  0  0  0  0  0  0  0  0  0  0
    1.1096    0.4168    2.2182 H   0  0  0  0  0  0  0  0  0  0  0  0
   -1.3956    1.2700    3.6051 H   0  0  0  0  0  0  0  0  0  0  0  0
   -3.7143    0.5151    4.1281 H   0  0  0  0  0  0  0  0  0  0  0  0
   -4.5961   -1.6451    3.2406 H   0  0  0  0  0  0  0  0  0  0  0  0
   -3.1938   -3.0979    1.7682 H   0  0  0  0  0  0  0  0  0  0  0  0
   -0.5162   -3.3090    0.5442 H   0  0  0  0  0  0  0  0  0  0  0  0
  1  6  1  0  0  0  0
  2  3  1  0  0  0  0
  2  1  2  0  0  0  0
  3  4  2  0  0  0  0
  4 19  1  0  0  0  0
  4  5  1  0  0  0  0
  5 20  1  0  0  0  0
  6  5  2  0  0  0  0
  6  7  1  0  0  0  0
  7  8  1  0  0  0  0
  8 21  1  0  0  0  0
  8  9  1  0  0  0  0
  9 10  1  0  0  0  0
 10 11  2  0  0  0  0
 10 22  1  0  0  0  0
 11 23  1  0  0  0  0
 12 24  1  0  0  0  0
 12 11  1  0  0  0  0
 13 12  2  0  0  0  0
 14 13  1  0  0  0  0
 14  9  2  0  0  0  0
 15  7  2  0  0  0  0
 15 14  1  0  0  0  0
 16  1  1  0  0  0  0
 17  2  1  0  0  0  0
 18  3  1  0  0  0  0
 25 13  1  0  0  0  0
 26 15  1  0  0  0  0
M  END
