2
q = -2.0, confidence = 0.52

 48 52  0  0  1  0  0  0  0  0999 V2000
    0.8660   -0.9700    0.7685 C   0  0  0  0  0  0  0  0  0  0  0  0
    1.9223   -0.1084    0.2363 C   0  0  1  0  0  3  0  0  0  0  0  0
    1.1130    1.0927    0.4990 C   0  0  1  0  0  3  0  0  0  0  0  0
    0.0504    0.2228    1.0638 C   0  0  0  0  0  0  0  0  0  0  0  0
    0.7926   -2.3977    1.0998 C   0  0  0  0  0  0  0  0  0  0  0  0
    1.1620   -3.3807    0.1523 C   0  0  0  0  0  0  0  0  0  0  0  0
    1.1339   -4.7393    0.4882 C   0  0  0  0  0  0  0  0  0  0  0  0
    0.7249   -5.1436    1.7708 C   0  0  0  0  0  0  0  0  0  0  0  0
    0.3505   -4.1767    2.7169 C   0  0  0  0  0  0  0  0  0  0  0  0
    0.3867   -2.8137    2.3880 C   0  0  0  0  0  0  0  0  0  0  0  0
    3.3099   -0.3445   -0.1754 C   0  0  0  0  0  0  0  0  0  0  0  0
    4.0299   -1.4358    0.3624 C   0  0  0  0  0  0  0  0  0  0  0  0
    5.3678   -1.6517    0.0035 C   0  0  0  0  0  0  0  0  0  0  0  0
    6.0086   -0.7850   -0.8953 C   0  0  0  0  0  0  0  0  0  0  0  0
    5.3015    0.3031   -1.4350 C   0  0  0  0  0  0  0  0  0  0  0  0
    3.9652    0.5222   -1.0821 C   0  0  0  0  0  0  0  0  0  0  0  0
    1.4506    2.5215    0.5408 C   0  0  0  0  0  0  0  0  0  0  0  0
    2.7629    2.9134    0.9006 C   0  0  0  0  0  0  0  0  0  0  0  0
    3.1154    4.2682    0.9704 C   0  0  0  0  0  0  0  0  0  0  0  0
    2.1664    5.2631    0.6888 C   0  0  0  0  0  0  0  0  0  0  0  0
    0.8587    4.8884    0.3372 C   0  0  0  0  0  0  0  0  0  0  0  0
    0.5030    3.5360    0.2628 C   0  0  0  0  0  0  0  0  0  0  0  0
   -1.1996    0.4498    1.7836 C   0  0  0  0  0  0  0  0  0  0  0  0
   -1.4971    1.7160    2.3439 C   0  0  0  0  0  0  0  0  0  0  0  0
   -2.6983    1.9332    3.0314 C   0  0  0  0  0  0  0  0  0  0  0  0
   -3.6314    0.8937    3.1803 C   0  0  0  0  0  0  0  0  0  0  0  0
   -3.3434   -0.3709    2.6407 C   0  0  0  0  0  0  0  0  0  0  0  0
   -2.1437   -0.5949    1.9534 C   0  0  0  0  0  0  0  0  0  0  0  0
    1.4576   -3.0588   -0.8575 H   0  0  0  0  0  0  0  0  0  0  0  0
    1.4224   -5.4918   -0.2616 H   0  0  0  0  0  0  0  0  0  0  0  0
    0.6952   -6.2127    2.0307 H   0  0  0  0  0  0  0  0  0  0  0  0
    0.0312   -4.4850    3.7243 H   0  0  0  0  0  0  0  0  0  0  0  0
    0.1072   -2.0556    3.1343 H   0  0  0  0  0  0  0  0  0  0  0  0
    3.5341   -2.1109    1.0742 H   0  0  0  0  0  0  0  0  0  0  0  0
    5.9148   -2.5046    0.4335 H   0  0  0  0  0  0  0  0  0  0  0  0
    7.0584   -0.9568   -1.1773 H   0  0  0  0  0  0  0  0  0  0  0  0
    5.7949    0.9843   -2.1448 H   0  0  0  0  0  0  0  0  0  0  0  0
    3.4117    1.3674   -1.5160 H   0  0  0  0  0  0  0  0  0  0  0  0
    3.5083    2.1416    1.1394 H   0  0  0  0  0  0  0  0  0  0  0  0
    4.1414    4.5477    1.2549 H   0  0  0  0  0  0  0  0  0  0  0  0
    2.4433    6.3268    0.7445 H   0  0  0  0  0  0  0  0  0  0  0  0
    0.1064    5.6596    0.1109 H   0  0  0  0  0  0  0  0  0  0  0  0
   -0.5185    3.2519   -0.0293 H   0  0  0  0  0  0  0  0  0  0  0  0
   -0.7688    2.5325    2.2488 H   0  0  0  0  0  0  0  0  0  0  0  0
   -2.9048    2.9256    3.4608 H   0  0  0  0  0  0  0  0  0  0  0  0
   -4.5744    1.0667    3.7209 H   0  0  0  0  0  0  0  0  0  0  0  0
   -4.0621   -1.1971    2.7576 H   0  0  0  0  0  0  0  0  0  0  0  0
   -1.9343   -1.5826    1.5223 H   0  0  0  0  0  0  0  0  0  0  0  0
  1  4  2  0  0  0  0
  1  5  1  0  0  0  0
  2 11  1  1  0  0  0
  2  3  1  0  0  0  0
  2  1  1  0  0  0  0
  3 17  1  1  0  0  0
  3  4  1  0  0  0  0
  4 23  1  0  0  0  0
  5 10  1  0  0  0  0
  6  7  1  0  0  0  0
  6  5  2  0  0  0  0
  7  8  2  0  0  0  0
  8 31  1  0  0  0  0
  8  9  1  0  0  0  0
  9 32  1  0  0  0  0
 10  9  2  0  0  0  0
 10 33  1  0  0  0  0
 11 12  1  0  0  0  0
 12 34  1  0  0  0  0
 13 12  2  0  0  0  0
 13 35  1  0  0  0  0
 14 13  1  0  0  0  0
 15 16  1  0  0  0  0
 15 14  2  0  0  0  0
 16 11  2  0  0  0  0
 17 18  1  0  0  0  0
 18 19  2  0  0  0  0
 18 39  1  0  0  0  0
 19 40  1  0  0  0  0
 20 41  1  0  0  0  0
 20 19  1  0  0  0  0
 21 20  2  0  0  0  0
 22 21  1  0  0  0  0
 22 17  2  0  0  0  0
 23 28  2  0  0  0  0
 23 24  1  0  0  0  0
 24 25  2  0  0  0  0
 25 26  1  0  0  0  0
 25 45  1  0  0  0  0
 26 46  1  0  0  0  0
 27 47  1  0  0  0  0
 27 26  2  0  0  0  0
 28 27  1  0  0  0  0
 29  6  1  0  0  0  0
 30  7  1  0  0  0  0
 36 14  1  0  0  0  0
 37 15  1  0  0  0  0
 38 16  1  0  0  0  0
 42 21  1  0  0  0  0
 43 22  1  0  0  0  0
 44 24  1  0  0  0  0
 48 28  1  0  0  0  0
M  END
