3
q = -1.0

 11 10  0  0  0  0  0  0  0  0999 V2000
   -1.1073   -3.1751   -0.7111 O   0  0  0  0  0  0  0  0  0  0  0  0
   -1.7793   -1.1067   -1.3179 O   0  0  0  0  0  0  0  0  0  0  0  0
   -0.8580   -1.9928   -0.8568 C   0  0  0  0  0  3  0  0  0  0  0  0
   -3.1341   -1.6345   -1.5047 C   0  0  0  0  0  0  0  0  0  0  0  0
   -3.9995   -0.5108   -1.9762 C   0  0  0  0  0  0  0  0  0  0  0  0
   -4.9426    0.0653   -1.2099 C   0  0  0  0  0  0  0  0  0  0  0  0
   -3.0835   -2.4698   -2.2332 H   0  0  0  0  0  0  0  0  0  0  0  0
   -3.4820   -2.0446   -0.5347 H   0  0  0  0  0  0  0  0  0  0  0  0
   -3.8329   -0.1585   -3.0096 H   0  0  0  0  0  0  0  0  0  0  0  0
   -5.5761    0.8816   -1.5900 H   0  0  0  0  0  0  0  0  0  0  0  0
   -5.1207   -0.2693   -0.1738 H   0  0  0  0  0  0  0  0  0  0  0  0
  2  3  1  0  0  0  0
  3  1  2  0  0  0  0
  4  2  1  0  0  0  0
  4  8  1  0  0  0  0
  5  4  1  0  0  0  0
  5  6  2  0  0  0  0
  6 11  1  0  0  0  0
  7  4  1  0  0  0  0
  9  5  1  0  0  0  0
 10  6  1  0  0  0  0
M  END
