2
q = -1.0, confidence = 0.0

 20 21  0  0  0  0  0  0  0  0999 V2000
    0.3054   -1.1370    1.6240 N   0  0  0  0  0  0  0  0  0  0  0  0
   -1.0328    1.3273    0.9486 C   0  0  0  0  0  3  0  0  0  0  0  0
   -1.7347    0.1722    1.3871 C   0  0  0  0  0  0  0  0  0  0  0  0
   -1.0455   -1.1404    1.5689 C   0  0  0  0  0  0  0  0  0  0  0  0
   -1.7265    2.5354    0.7619 C   0  0  0  0  0  0  0  0  0  0  0  0
    0.9822   -2.2837    1.7661 C   0  0  0  0  0  0  0  0  0  0  0  0
   -3.1233    0.2810    1.6347 C   0  0  0  0  0  0  0  0  0  0  0  0
   -3.1065    2.6230    1.0090 C   0  0  0  0  0  0  0  0  0  0  0  0
   -3.8042    1.4893    1.4492 C   0  0  0  0  0  0  0  0  0  0  0  0
   -1.7556   -2.3618    1.6557 C   0  0  0  0  0  0  0  0  0  0  0  0
    0.3514   -3.5306    1.8761 C   0  0  0  0  0  0  0  0  0  0  0  0
   -1.0504   -3.5590    1.8145 C   0  0  0  0  0  0  0  0  0  0  0  0
   -1.1915    3.4272    0.4022 H   0  0  0  0  0  0  0  0  0  0  0  0
    2.0826   -2.2010    1.7794 H   0  0  0  0  0  0  0  0  0  0  0  0
   -3.6855   -0.5915    1.9971 H   0  0  0  0  0  0  0  0  0  0  0  0
   -3.6343    3.5769    0.8554 H   0  0  0  0  0  0  0  0  0  0  0  0
   -4.8843    1.5439    1.6520 H   0  0  0  0  0  0  0  0  0  0  0  0
   -2.8492   -2.3782    1.5647 H   0  0  0  0  0  0  0  0  0  0  0  0
    0.9432   -4.4497    1.9937 H   0  0  0  0  0  0  0  0  0  0  0  0
   -1.5942   -4.5141    1.8761 H   0  0  0  0  0  0  0  0  0  0  0  0
  1  6  1  0  0  0  0
  2  3  1  0  0  0  0
  3  4  1  0  0  0  0
  3  7  2  0  0  0  0
  4  1  2  0  0  0  0
  4 10  1  0  0  0  0
  5  2  2  0  0  0  0
  5  8  1  0  0  0  0
  6 14  1  0  0  0  0
  6 11  2  0  0  0  0
  7 15  1  0  0  0  0
  8  9  2  0  0  0  0
  9  7  1  0  0  0  0
  9 17  1  0  0  0  0
 10 12  2  0  0  0  0
 11 19  1  0  0  0  0
 12 11  1  0  0  0  0
 12 20  1  0  0  0  0
 13  5  1  0  0  0  0
 16  8  1  0  0  0  0
 18 10  1  0  0  0  0
M  END
