7
q = 0.0, confidence = 0.982

 49 52  0  0  0  0  0  0  0  0999 V2000
    1.6064    0.7483   -1.1975 N   0  0  0  0  0  0  0  0  0  0  0  0
   -0.1396    2.0943   -0.4799 N   0  0  0  0  0  0  0  0  0  0  0  0
   -2.2605    1.7153   -0.2014 N   0  0  0  0  0  0  0  0  0  0  0  0
    2.8409    0.2888   -1.1328 N   0  0  0  0  0  0  0  0  0  0  0  0
    4.9857    0.3013   -0.2231 N   0  0  0  0  0  0  0  0  0  0  0  0
    6.0217    1.0317    0.2887 N   0  0  0  0  0  0  0  0  0  0  0  0
   -1.0535    1.1001   -0.2608 C   0  0  0  0  0  2  0  0  0  0  0  0
   -0.7738    3.3315   -0.5471 C   0  0  0  0  0  0  0  0  0  0  0  0
   -0.2260    4.2579   -0.7403 H   0  0  0  0  0  0  0  0  0  0  0  0
   -2.1110    3.0906   -0.3747 C   0  0  0  0  0  0  0  0  0  0  0  0
   -2.9722    3.7644   -0.3617 H   0  0  0  0  0  0  0  0  0  0  0  0
   -3.5179    1.0539    0.0591 C   0  0  0  0  0  0  0  0  0  0  0  0
   -3.8257    0.7011    1.3910 C   0  0  0  0  0  0  0  0  0  0  0  0
   -5.0451    0.0362    1.6108 C   0  0  0  0  0  0  0  0  0  0  0  0
   -5.3066   -0.2539    2.6407 H   0  0  0  0  0  0  0  0  0  0  0  0
   -5.9333   -0.2629    0.5618 C   0  0  0  0  0  0  0  0  0  0  0  0
   -5.5903    0.1396   -0.7426 C   0  0  0  0  0  0  0  0  0  0  0  0
   -6.2783   -0.0783   -1.5747 H   0  0  0  0  0  0  0  0  0  0  0  0
   -4.3838    0.8005   -1.0266 C   0  0  0  0  0  0  0  0  0  0  0  0
   -2.8991    1.0309    2.5313 C   0  0  0  0  0  0  0  0  0  0  0  0
   -3.3836    0.8206    3.5027 H   0  0  0  0  0  0  0  0  0  0  0  0
   -2.6024    2.1003    2.5196 H   0  0  0  0  0  0  0  0  0  0  0  0
   -1.9542    0.4481    2.4887 H   0  0  0  0  0  0  0  0  0  0  0  0
   -7.2089   -1.0219    0.8227 C   0  0  0  0  0  0  0  0  0  0  0  0
   -7.0459   -2.1132    0.6905 H   0  0  0  0  0  0  0  0  0  0  0  0
   -8.0131   -0.7258    0.1207 H   0  0  0  0  0  0  0  0  0  0  0  0
   -7.5734   -0.8688    1.8572 H   0  0  0  0  0  0  0  0  0  0  0  0
   -4.0145    1.1923   -2.4321 C   0  0  0  0  0  0  0  0  0  0  0  0
   -3.0951    0.6521   -2.7421 H   0  0  0  0  0  0  0  0  0  0  0  0
   -3.8155    2.2796   -2.5284 H   0  0  0  0  0  0  0  0  0  0  0  0
   -4.8238    0.9311   -3.1389 H   0  0  0  0  0  0  0  0  0  0  0  0
    1.2633    1.8423   -0.5137 C   0  0  0  0  0  0  0  0  0  0  0  0
    2.1814    2.6362    0.1996 C   0  0  0  0  0  0  0  0  0  0  0  0
    1.8706    3.5519    0.7230 H   0  0  0  0  0  0  0  0  0  0  0  0
    3.4832    2.1640    0.2681 C   0  0  0  0  0  0  0  0  0  0  0  0
    4.2875    2.6684    0.8180 H   0  0  0  0  0  0  0  0  0  0  0  0
    3.7453    0.9242   -0.3678 C   0  0  0  0  0  0  0  0  0  0  0  0
    5.3292   -1.0319   -0.4627 C   0  0  0  0  0  0  0  0  0  0  0  0
    6.6617   -1.1204   -0.0889 C   0  0  0  0  0  0  0  0  0  0  0  0
    7.2789   -2.0246   -0.1282 H   0  0  0  0  0  0  0  0  0  0  0  0
    7.0446    0.1812    0.3668 C   0  0  0  0  0  0  0  0  0  0  0  0
    4.4085   -2.0940   -0.9638 C   0  0  0  0  0  0  0  0  0  0  0  0
    3.4821   -2.1704   -0.3586 H   0  0  0  0  0  0  0  0  0  0  0  0
    4.9354   -3.0663   -0.9313 H   0  0  0  0  0  0  0  0  0  0  0  0
    4.0738   -1.8950   -1.9998 H   0  0  0  0  0  0  0  0  0  0  0  0
    8.3766    0.6289    0.8772 C   0  0  0  0  0  0  0  0  0  0  0  0
    9.1656    0.5015    0.1075 H   0  0  0  0  0  0  0  0  0  0  0  0
    8.6864    0.0356    1.7621 H   0  0  0  0  0  0  0  0  0  0  0  0
    8.3340    1.6958    1.1646 H   0  0  0  0  0  0  0  0  0  0  0  0
  1  4  2  0  0  0  0
  1 32  1  0  0  0  0
  2  7  1  0  0  0  0
  3 12  1  0  0  0  0
  4 37  1  0  0  0  0
  5  6  1  0  0  0  0
  6 41  2  0  0  0  0
  7  3  1  0  0  0  0
  8  2  1  0  0  0  0
  8 10  2  0  0  0  0
  9  8  1  0  0  0  0
 10 11  1  0  0  0  0
 10  3  1  0  0  0  0
 12 13  1  0  0  0  0
 13 14  2  0  0  0  0
 13 20  1  0  0  0  0
 14 15  1  0  0  0  0
 16 24  1  0  0  0  0
 16 14  1  0  0  0  0
 17 16  2  0  0  0  0
 18 17  1  0  0  0  0
 19 17  1  0  0  0  0
 19 12  2  0  0  0  0
 20 21  1  0  0  0  0
 22 20  1  0  0  0  0
 23 20  1  0  0  0  0
 24 27  1  0  0  0  0
 25 24  1  0  0  0  0
 26 24  1  0  0  0  0
 28 19  1  0  0  0  0
 29 28  1  0  0  0  0
 30 28  1  0  0  0  0
 31 28  1  0  0  0  0
 32  2  1  0  0  0  0
 32 33  2  0  0  0  0
 33 35  1  0  0  0  0
 33 34  1  0  0  0  0
 35 36  1  0  0  0  0
 37  5  1  0  0  0  0
 37 35  2  0  0  0  0
 38  5  1  0  0  0  0
 38 39  2  0  0  0  0
 39 41  1  0  0  0  0
 40 39  1  0  0  0  0
 41 46  1  0  0  0  0
 42 44  1  0  0  0  0
 42 38  1  0  0  0  0
 42 43  1  0  0  0  0
 45 42  1  0  0  0  0
 46 49  1  0  0  0  0
 46 48  1  0  0  0  0
 47 46  1  0  0  0  0
M  END
