1
q = -1.0, confidence = 0.034

 21 21  0  0  0  0  0  0  0  0999 V2000
    0.1230   -0.0871    1.3976 C   0  0  0  0  0  1  0  0  0  0  0  0
    0.4745   -1.1063    2.4366 C   0  0  0  0  0  0  0  0  0  0  0  0
    1.8161   -1.6726    1.9210 C   0  0  0  0  0  0  0  0  0  0  0  0
    2.9029   -0.7901    1.7224 C   0  0  0  0  0  0  0  0  0  0  0  0
    2.7696    0.2793    1.9439 H   0  0  0  0  0  0  0  0  0  0  0  0
    4.1288   -1.2487    1.2235 C   0  0  0  0  0  0  0  0  0  0  0  0
    4.9566   -0.5375    1.0789 H   0  0  0  0  0  0  0  0  0  0  0  0
    4.2967   -2.6059    0.9001 C   0  0  0  0  0  0  0  0  0  0  0  0
    5.2580   -2.9705    0.5068 H   0  0  0  0  0  0  0  0  0  0  0  0
    3.2250   -3.4906    1.0838 C   0  0  0  0  0  0  0  0  0  0  0  0
    3.3399   -4.5564    0.8323 H   0  0  0  0  0  0  0  0  0  0  0  0
    1.9970   -3.0288    1.5887 C   0  0  0  0  0  0  0  0  0  0  0  0
    1.1738   -3.7434    1.7231 H   0  0  0  0  0  0  0  0  0  0  0  0
    0.6693   -0.4591    3.8295 C   0  0  0  0  0  0  0  0  0  0  0  0
    1.4488    0.3251    3.8122 H   0  0  0  0  0  0  0  0  0  0  0  0
    0.9664   -1.2308    4.5686 H   0  0  0  0  0  0  0  0  0  0  0  0
   -0.2763    0.0095    4.1672 H   0  0  0  0  0  0  0  0  0  0  0  0
   -0.6306   -2.1786    2.5389 C   0  0  0  0  0  0  0  0  0  0  0  0
   -0.8276   -2.6598    1.5628 H   0  0  0  0  0  0  0  0  0  0  0  0
   -1.5762   -1.7093    2.8694 H   0  0  0  0  0  0  0  0  0  0  0  0
   -0.3613   -2.9627    3.2766 H   0  0  0  0  0  0  0  0  0  0  0  0
  1  2  1  0  0  0  0
  2 18  1  0  0  0  0
  2 14  1  0  0  0  0
  3  2  1  0  0  0  0
  4  3  1  0  0  0  0
  4  5  1  0  0  0  0
  6  4  2  0  0  0  0
  7  6  1  0  0  0  0
  8 10  2  0  0  0  0
  8  6  1  0  0  0  0
  9  8  1  0  0  0  0
 10 12  1  0  0  0  0
 11 10  1  0  0  0  0
 12 13  1  0  0  0  0
 12  3  2  0  0  0  0
 14 17  1  0  0  0  0
 14 16  1  0  0  0  0
 15 14  1  0  0  0  0
 18 20  1  0  0  0  0
 18 21  1  0  0  0  0
 19 18  1  0  0  0  0
M  END
