3
q = -1.0, confidence = 0.0

 19 19  0  0  0  0  0  0  0  0999 V2000
   -2.6050   -0.6389   -0.5664 C   0  0  0  0  0  0  0  0  0  0  0  0
   -2.0156   -1.9106   -0.2923 C   0  0  0  0  0  0  0  0  0  0  0  0
   -1.0331   -2.1877   -1.2879 C   0  0  0  0  0  3  0  0  0  0  0  0
   -1.0104   -1.0899   -2.1925 C   0  0  0  0  0  0  0  0  0  0  0  0
   -1.9648   -0.1330   -1.7443 C   0  0  0  0  0  0  0  0  0  0  0  0
   -3.7975   -0.0187    0.1267 C   0  0  0  0  0  0  0  0  0  0  0  0
   -3.8422   -0.3093    1.6301 C   0  0  0  0  0  0  0  0  0  0  0  0
   -5.0871   -0.4812   -0.5789 C   0  0  0  0  0  0  0  0  0  0  0  0
   -2.2931   -2.5772    0.5308 H   0  0  0  0  0  0  0  0  0  0  0  0
   -0.4156   -3.0899   -1.3605 H   0  0  0  0  0  0  0  0  0  0  0  0
   -0.3816   -0.9998   -3.0869 H   0  0  0  0  0  0  0  0  0  0  0  0
   -2.1649    0.8382   -2.2114 H   0  0  0  0  0  0  0  0  0  0  0  0
   -3.7142    1.0824   -0.0052 H   0  0  0  0  0  0  0  0  0  0  0  0
   -2.9310    0.0739    2.1296 H   0  0  0  0  0  0  0  0  0  0  0  0
   -3.9285   -1.3974    1.8338 H   0  0  0  0  0  0  0  0  0  0  0  0
   -4.7207    0.1810    2.0948 H   0  0  0  0  0  0  0  0  0  0  0  0
   -5.0660   -0.2401   -1.6603 H   0  0  0  0  0  0  0  0  0  0  0  0
   -5.9753    0.0106   -0.1324 H   0  0  0  0  0  0  0  0  0  0  0  0
   -5.2180   -1.5791   -0.4809 H   0  0  0  0  0  0  0  0  0  0  0  0
  1  2  2  0  0  0  0
  1  6  1  0  0  0  0
  2  9  1  0  0  0  0
  3  2  1  0  0  0  0
  4  5  2  0  0  0  0
  4  3  1  0  0  0  0
  5  1  1  0  0  0  0
  6  7  1  0  0  0  0
  7 15  1  0  0  0  0
  7 16  1  0  0  0  0
  7 14  1  0  0  0  0
  8 19  1  0  0  0  0
  8 18  1  0  0  0  0
  8  6  1  0  0  0  0
 10  3  1  0  0  0  0
 11  4  1  0  0  0  0
 12  5  1  0  0  0  0
 13  6  1  0  0  0  0
 17  8  1  0  0  0  0
M  END
