1
q = -1.0, confidence = 0.0

 23 23  0  0  0  0  0  0  0  0999 V2000
    1.4412   -0.1269   -0.5617 C   0  0  0  0  0  3  0  0  0  0  0  0
    1.5312   -0.9583   -1.2942 H   0  0  0  0  0  0  0  0  0  0  0  0
    1.8407    0.7931   -1.0466 H   0  0  0  0  0  0  0  0  0  0  0  0
    2.2653   -0.4412    0.7133 C   0  0  0  0  0  0  0  0  0  0  0  0
    2.1155    0.7032    1.7314 C   0  0  0  0  0  0  0  0  0  0  0  0
    2.7285    0.5257    2.6388 H   0  0  0  0  0  0  0  0  0  0  0  0
    1.0547    0.7838    2.0426 H   0  0  0  0  0  0  0  0  0  0  0  0
    2.4139    1.6842    1.3085 H   0  0  0  0  0  0  0  0  0  0  0  0
    1.7670   -1.7411    1.3830 C   0  0  0  0  0  0  0  0  0  0  0  0
    2.4120   -2.0100    2.2445 H   0  0  0  0  0  0  0  0  0  0  0  0
    1.7536   -2.5933    0.6774 H   0  0  0  0  0  0  0  0  0  0  0  0
    0.7264   -1.6108    1.7415 H   0  0  0  0  0  0  0  0  0  0  0  0
    3.7302   -0.6193    0.2673 C   0  0  0  0  0  0  0  0  0  0  0  0
    4.0875   -1.7175   -0.5490 C   0  0  0  0  0  0  0  0  0  0  0  0
    3.3176   -2.4469   -0.8422 H   0  0  0  0  0  0  0  0  0  0  0  0
    5.4017   -1.9007   -0.9974 C   0  0  0  0  0  0  0  0  0  0  0  0
    5.6451   -2.7687   -1.6298 H   0  0  0  0  0  0  0  0  0  0  0  0
    6.4052   -0.9837   -0.6436 C   0  0  0  0  0  0  0  0  0  0  0  0
    7.4390   -1.1249   -0.9942 H   0  0  0  0  0  0  0  0  0  0  0  0
    6.0715    0.1124    0.1631 C   0  0  0  0  0  0  0  0  0  0  0  0
    6.8455    0.8401    0.4532 H   0  0  0  0  0  0  0  0  0  0  0  0
    4.7516    0.2904    0.6114 C   0  0  0  0  0  0  0  0  0  0  0  0
    4.5247    1.1577    1.2466 H   0  0  0  0  0  0  0  0  0  0  0  0
  1  4  1  0  0  0  0
  2  1  1  0  0  0  0
  3  1  1  0  0  0  0
  4  9  1  0  0  0  0
  4  5  1  0  0  0  0
  5  7  1  0  0  0  0
  5  6  1  0  0  0  0
  8  5  1  0  0  0  0
  9 12  1  0  0  0  0
  9 10  1  0  0  0  0
 11  9  1  0  0  0  0
 13 22  1  0  0  0  0
 13  4  1  0  0  0  0
 14 13  2  0  0  0  0
 15 14  1  0  0  0  0
 16 18  2  0  0  0  0
 16 14  1  0  0  0  0
 17 16  1  0  0  0  0
 18 20  1  0  0  0  0
 19 18  1  0  0  0  0
 20 21  1  0  0  0  0
 20 22  2  0  0  0  0
 22 23  1  0  0  0  0
M  END
