1
q = -1.0

 26 27  0  0  0  0  0  0  0  0999 V2000
    0.7061   -0.7712    0.3527 C   0  0  0  0  0  1  0  0  0  0  0  0
   -0.6147   -1.1367    0.5195 C   0  0  0  0  0  3  0  0  0  0  0  0
   -1.7184   -0.3118    0.2401 C   0  0  0  0  0  3  0  0  0  0  0  0
   -1.4983    1.1336    0.0590 C   0  0  0  0  0  0  0  0  0  0  0  0
   -2.0741    1.8237   -1.0368 C   0  0  0  0  0  0  0  0  0  0  0  0
   -1.8151    3.1860   -1.2235 C   0  0  0  0  0  0  0  0  0  0  0  0
   -1.0139    3.8868   -0.3049 C   0  0  0  0  0  0  0  0  0  0  0  0
   -0.4649    3.2207    0.8034 C   0  0  0  0  0  0  0  0  0  0  0  0
   -0.6959    1.8522    0.9812 C   0  0  0  0  0  0  0  0  0  0  0  0
   -3.0672   -0.8651    0.1468 C   0  0  0  0  0  0  0  0  0  0  0  0
   -3.2854   -2.2313   -0.1794 C   0  0  0  0  0  0  0  0  0  0  0  0
   -4.5801   -2.7474   -0.2509 C   0  0  0  0  0  0  0  0  0  0  0  0
   -5.6858   -1.9161    0.0104 C   0  0  0  0  0  0  0  0  0  0  0  0
   -5.4899   -0.5637    0.3374 C   0  0  0  0  0  0  0  0  0  0  0  0
   -4.1961   -0.0382    0.4009 C   0  0  0  0  0  0  0  0  0  0  0  0
   -0.7788   -2.1772    0.8588 H   0  0  0  0  0  0  0  0  0  0  0  0
   -2.6943    1.2726   -1.7590 H   0  0  0  0  0  0  0  0  0  0  0  0
   -2.2417    3.7082   -2.0926 H   0  0  0  0  0  0  0  0  0  0  0  0
   -0.8255    4.9611   -0.4494 H   0  0  0  0  0  0  0  0  0  0  0  0
    0.1387    3.7731    1.5387 H   0  0  0  0  0  0  0  0  0  0  0  0
   -0.3010    1.3366    1.8688 H   0  0  0  0  0  0  0  0  0  0  0  0
   -2.4299   -2.8793   -0.4212 H   0  0  0  0  0  0  0  0  0  0  0  0
   -4.7360   -3.8018   -0.5222 H   0  0  0  0  0  0  0  0  0  0  0  0
   -6.7053   -2.3267   -0.0430 H   0  0  0  0  0  0  0  0  0  0  0  0
   -6.3533    0.0827    0.5526 H   0  0  0  0  0  0  0  0  0  0  0  0
   -4.0438    1.0128    0.6845 H   0  0  0  0  0  0  0  0  0  0  0  0
  1  2  1  0  0  0  0
  2 16  1  0  0  0  0
  3  2  1  0  0  0  0
  4  3  1  0  0  0  0
  4  9  1  0  0  0  0
  5  4  2  0  0  0  0
  6  5  1  0  0  0  0
  6  7  2  0  0  0  0
  7  8  1  0  0  0  0
  8  9  2  0  0  0  0
  8 20  1  0  0  0  0
  9 21  1  0  0  0  0
 10  3  1  0  0  0  0
 10 15  1  0  0  0  0
 11 10  2  0  0  0  0
 12 11  1  0  0  0  0
 12 13  2  0  0  0  0
 13 14  1  0  0  0  0
 14 15  2  0  0  0  0
 14 25  1  0  0  0  0
 15 26  1  0  0  0  0
 17  5  1  0  0  0  0
 18  6  1  0  0  0  0
 19  7  1  0  0  0  0
 22 11  1  0  0  0  0
 23 12  1  0  0  0  0
 24 13  1  0  0  0  0
M  END
