2
q = -1.0, confidence = 0.002

 40 41  0  0  1  0  0  0  0  0999 V2000
    2.3320    0.1552   -0.2128 C   0  0  2  0  0  3  0  0  0  0  0  0
    1.4595    0.6269   -1.2566 C   0  0  0  0  0  3  0  0  0  0  0  0
    1.6268    0.4481   -2.3230 H   0  0  0  0  0  0  0  0  0  0  0  0
    0.3310    1.3569   -0.7289 C   0  0  1  0  0  3  0  0  0  0  0  0
    0.5699    1.4474    0.7005 C   0  0  0  0  0  0  0  0  0  0  0  0
    1.7919    0.7195    1.0181 C   0  0  0  0  0  0  0  0  0  0  0  0
    2.2362    0.6573    2.3733 C   0  0  0  0  0  0  0  0  0  0  0  0
    3.1667    0.1309    2.6265 H   0  0  0  0  0  0  0  0  0  0  0  0
    1.4954    1.2739    3.3694 C   0  0  0  0  0  0  0  0  0  0  0  0
    1.8400    1.2280    4.4134 H   0  0  0  0  0  0  0  0  0  0  0  0
    0.2994    1.9870    3.0580 C   0  0  0  0  0  0  0  0  0  0  0  0
   -0.2596    2.4802    3.8676 H   0  0  0  0  0  0  0  0  0  0  0  0
   -0.1554    2.0853    1.7526 C   0  0  0  0  0  0  0  0  0  0  0  0
   -1.0678    2.6530    1.5291 H   0  0  0  0  0  0  0  0  0  0  0  0
    3.7162   -0.4487   -0.4409 C   0  0  0  0  0  0  0  0  0  0  0  0
    3.8765   -0.8773   -1.9119 C   0  0  0  0  0  0  0  0  0  0  0  0
    3.0906   -1.6021   -2.2060 H   0  0  0  0  0  0  0  0  0  0  0  0
    4.8618   -1.3635   -2.0591 H   0  0  0  0  0  0  0  0  0  0  0  0
    3.8280   -0.0120   -2.6027 H   0  0  0  0  0  0  0  0  0  0  0  0
    4.7599    0.6501   -0.1267 C   0  0  0  0  0  0  0  0  0  0  0  0
    4.5885    1.5477   -0.7547 H   0  0  0  0  0  0  0  0  0  0  0  0
    5.7867    0.2799   -0.3266 H   0  0  0  0  0  0  0  0  0  0  0  0
    4.7121    0.9691    0.9334 H   0  0  0  0  0  0  0  0  0  0  0  0
    3.9797   -1.6846    0.4401 C   0  0  0  0  0  0  0  0  0  0  0  0
    3.8155   -1.4861    1.5161 H   0  0  0  0  0  0  0  0  0  0  0  0
    5.0293   -2.0220    0.3157 H   0  0  0  0  0  0  0  0  0  0  0  0
    3.3102   -2.5148    0.1475 H   0  0  0  0  0  0  0  0  0  0  0  0
   -0.6165    2.2005   -1.5810 C   0  0  0  0  0  0  0  0  0  0  0  0
   -0.1052    3.6601   -1.5064 C   0  0  0  0  0  0  0  0  0  0  0  0
   -0.7267    4.3218   -2.1447 H   0  0  0  0  0  0  0  0  0  0  0  0
    0.9455    3.7323   -1.8538 H   0  0  0  0  0  0  0  0  0  0  0  0
   -0.1448    4.0496   -0.4693 H   0  0  0  0  0  0  0  0  0  0  0  0
   -2.0799    2.1425   -1.1086 C   0  0  0  0  0  0  0  0  0  0  0  0
   -2.6984    2.8279   -1.7236 H   0  0  0  0  0  0  0  0  0  0  0  0
   -2.2066    2.4426   -0.0522 H   0  0  0  0  0  0  0  0  0  0  0  0
   -2.4903    1.1225   -1.2105 H   0  0  0  0  0  0  0  0  0  0  0  0
   -0.5779    1.7345   -3.0495 C   0  0  0  0  0  0  0  0  0  0  0  0
   -0.8458    0.6628   -3.1394 H   0  0  0  0  0  0  0  0  0  0  0  0
    0.4203    1.8826   -3.5079 H   0  0  0  0  0  0  0  0  0  0  0  0
   -1.3045    2.3194   -3.6485 H   0  0  0  0  0  0  0  0  0  0  0  0
  1 15  1  6  0  0  0
  1  6  1  0  0  0  0
  2  4  1  0  0  0  0
  2  1  1  0  0  0  0
  3  2  1  0  0  0  0
  4 28  1  6  0  0  0
  4  5  1  0  0  0  0
  5  6  2  0  0  0  0
  5 13  1  0  0  0  0
  6  7  1  0  0  0  0
  7  8  1  0  0  0  0
  7  9  2  0  0  0  0
  9 10  1  0  0  0  0
 11  9  1  0  0  0  0
 11 12  1  0  0  0  0
 13 11  2  0  0  0  0
 14 13  1  0  0  0  0
 15 20  1  0  0  0  0
 15 24  1  0  0  0  0
 16 15  1  0  0  0  0
 17 16  1  0  0  0  0
 18 16  1  0  0  0  0
 19 16  1  0  0  0  0
 20 23  1  0  0  0  0
 21 20  1  0  0  0  0
 22 20  1  0  0  0  0
 24 25  1  0  0  0  0
 26 24  1  0  0  0  0
 27 24  1  0  0  0  0
 28 29  1  0  0  0  0
 28 33  1  0  0  0  0
 29 32  1  0  0  0  0
 30 29  1  0  0  0  0
 31 29  1  0  0  0  0
 33 35  1  0  0  0  0
 34 33  1  0  0  0  0
 36 33  1  0  0  0  0
 37 28  1  0  0  0  0
 38 37  1  0  0  0  0
 39 37  1  0  0  0  0
 40 37  1  0  0  0  0
M  END
