31
q = 0.0, confidence = 0.532

 53 61  0  0  1  0  0  0  0  0999 V2000
    2.8931   -0.5614   -1.2776 P   0  0  0  0  0  0  0  0  0  0  0  0
   -0.3147    1.6904    0.3652 C   0  0  2  0  0  0  0  0  0  0  0  0
   -1.9611    1.4008    0.4991 C   0  0  1  0  0  0  0  0  0  0  0  0
    0.4777    0.4889   -0.2053 C   0  0  2  0  0  0  0  0  0  0  0  0
    0.6955   -0.1393    0.6793 H   0  0  0  0  0  0  0  0  0  0  0  0
    1.8413    0.9191   -0.7659 C   0  0  0  0  0  0  0  0  0  0  0  0
    2.3936    1.5279   -0.0209 H   0  0  0  0  0  0  0  0  0  0  0  0
    1.7017    1.5464   -1.6701 H   0  0  0  0  0  0  0  0  0  0  0  0
    2.7550   -1.5881    0.2656 C   0  0  0  0  0  0  0  0  0  0  0  0
    3.0053   -1.0729    1.5568 C   0  0  0  0  0  0  0  0  0  0  0  0
    3.3608   -0.0369    1.6723 H   0  0  0  0  0  0  0  0  0  0  0  0
    2.7982   -1.8686    2.6926 C   0  0  0  0  0  0  0  0  0  0  0  0
    2.9862   -1.4520    3.6940 H   0  0  0  0  0  0  0  0  0  0  0  0
    2.3524   -3.1955    2.5540 C   0  0  0  0  0  0  0  0  0  0  0  0
    2.1906   -3.8184    3.4469 H   0  0  0  0  0  0  0  0  0  0  0  0
    2.1191   -3.7240    1.2756 C   0  0  0  0  0  0  0  0  0  0  0  0
    1.7784   -4.7647    1.1626 H   0  0  0  0  0  0  0  0  0  0  0  0
    2.3162   -2.9212    0.1387 C   0  0  0  0  0  0  0  0  0  0  0  0
    2.1281   -3.3282   -0.8681 H   0  0  0  0  0  0  0  0  0  0  0  0
    4.5849    0.1529   -1.0576 C   0  0  0  0  0  0  0  0  0  0  0  0
    4.8702    1.4924   -1.4017 C   0  0  0  0  0  0  0  0  0  0  0  0
    4.0655    2.1647   -1.7359 H   0  0  0  0  0  0  0  0  0  0  0  0
    6.1807    1.9884   -1.3189 C   0  0  0  0  0  0  0  0  0  0  0  0
    6.3813    3.0379   -1.5841 H   0  0  0  0  0  0  0  0  0  0  0  0
    7.2282    1.1566   -0.8954 C   0  0  0  0  0  0  0  0  0  0  0  0
    8.2543    1.5483   -0.8268 H   0  0  0  0  0  0  0  0  0  0  0  0
    6.9565   -0.1797   -0.5586 C   0  0  0  0  0  0  0  0  0  0  0  0
    7.7705   -0.8408   -0.2231 H   0  0  0  0  0  0  0  0  0  0  0  0
    5.6493   -0.6788   -0.6432 C   0  0  0  0  0  0  0  0  0  0  0  0
    5.4486   -1.7271   -0.3716 H   0  0  0  0  0  0  0  0  0  0  0  0
   -0.3579   -0.3472   -1.2002 C   0  0  0  0  0  3  0  0  0  0  0  0
    0.1888   -1.2915   -1.4143 H   0  0  0  0  0  0  0  0  0  0  0  0
   -0.4058    0.2004   -2.1630 H   0  0  0  0  0  0  0  0  0  0  0  0
   -0.9827    1.4269    1.9183 B   0  0  2  0  0  0  0  0  0  0  0  0
   -0.6996    0.4135    2.4960 H   0  0  0  0  0  0  0  0  0  0  0  0
    0.2620    2.6569    1.6577 B   0  0  2  0  0  0  0  0  0  0  0  0
    1.3744    2.4325    2.0723 H   0  0  0  0  0  0  0  0  0  0  0  0
    0.0145    3.3488    0.0481 B   0  0  1  0  0  0  0  0  0  0  0  0
    0.9507    3.6223   -0.6603 H   0  0  0  0  0  0  0  0  0  0  0  0
   -1.3718    2.5175   -0.6770 B   0  0  2  0  0  0  0  0  0  0  0  0
   -1.3632    2.2307   -1.8440 H   0  0  0  0  0  0  0  0  0  0  0  0
   -2.5692    2.1924    1.8939 B   0  0  1  0  0  0  0  0  0  0  0  0
   -3.4795    1.6640    2.4916 H   0  0  0  0  0  0  0  0  0  0  0  0
   -1.1780    3.0233    2.6498 B   0  0  1  0  0  0  0  0  0  0  0  0
   -1.0947    3.1435    3.8503 H   0  0  0  0  0  0  0  0  0  0  0  0
   -0.5627    4.2284    1.4837 B   0  0  2  0  0  0  0  0  0  0  0  0
   -0.0248    5.2526    1.8375 H   0  0  0  0  0  0  0  0  0  0  0  0
   -1.5798    4.1386    0.0150 B   0  0  0  0  0  0  0  0  0  0  0  0
   -1.7978    5.0769   -0.7162 H   0  0  0  0  0  0  0  0  0  0  0  0
   -2.8109    2.8777    0.2870 B   0  0  2  0  0  0  0  0  0  0  0  0
   -3.8957    2.8468   -0.2448 H   0  0  0  0  0  0  0  0  0  0  0  0
   -2.3203    3.9428    1.6294 B   0  0  1  0  0  0  0  0  0  0  0  0
   -3.0865    4.7578    2.0900 H   0  0  0  0  0  0  0  0  0  0  0  0
  1 20  1  0  0  0  0
  1  6  1  0  0  0  0
  1  9  1  0  0  0  0
  2  4  1  6  0  0  0
  2  3  1  0  0  0  0
  2 34  1  0  0  0  0
  3 42  1  0  0  0  0
  3 34  1  0  0  0  0
  4  5  1  0  0  0  0
  6  4  1  0  0  0  0
  6  7  1  0  0  0  0
  8  6  1  0  0  0  0
  9 10  1  0  0  0  0
 10 11  1  0  0  0  0
 10 12  2  0  0  0  0
 12 13  1  0  0  0  0
 14 12  1  0  0  0  0
 14 15  1  0  0  0  0
 16 14  2  0  0  0  0
 17 16  1  0  0  0  0
 18  9  2  0  0  0  0
 18 16  1  0  0  0  0
 19 18  1  0  0  0  0
 20 29  1  0  0  0  0
 21 23  1  0  0  0  0
 21 20  2  0  0  0  0
 22 21  1  0  0  0  0
 23 25  2  0  0  0  0
 24 23  1  0  0  0  0
 25 26  1  0  0  0  0
 25 27  1  0  0  0  0
 27 28  1  0  0  0  0
 29 27  2  0  0  0  0
 29 30  1  0  0  0  0
 31  4  1  0  0  0  0
 32 31  1  0  0  0  0
 33 31  1  0  0  0  0
 34 35  1  0  0  0  0
 36 37  1  0  0  0  0
 36 44  1  0  0  0  0
 38 36  1  0  0  0  0
 39 38  1  0  0  0  0
 40 38  1  0  0  0  0
 40 50  1  0  0  0  0
 40  2  1  0  0  0  0
 41 40  1  0  0  0  0
 42 34  1  0  0  0  0
 42 43  1  0  0  0  0
 44 45  1  0  0  0  0
 46 52  1  0  0  0  0
 46 36  1  0  0  0  0
 46 47  1  0  0  0  0
 46 44  1  0  0  0  0
 48 38  1  0  0  0  0
 48 52  1  0  0  0  0
 49 48  1  0  0  0  0
 50  3  1  0  0  0  0
 50 42  1  0  0  0  0
 51 50  1  0  0  0  0
 52 53  1  0  0  0  0
 52 44  1  0  0  0  0
M  END
