2
q = 0.0, confidence = 0.96

 29 31  0  0  0  0  0  0  0  0999 V2000
   -0.4813   -0.4327   -2.8849 O   0  0  0  0  0  0  0  0  0  0  0  0
   -0.3001   -0.3670   -1.6945 C   0  0  0  0  0  3  0  0  0  0  0  0
    0.5774    0.1448   -0.6791 C   0  0  0  0  0  3  0  0  0  0  0  0
    1.7969   -0.6665   -0.3496 C   0  0  0  0  0  0  0  0  0  0  0  0
    2.0935   -1.7654   -1.1975 C   0  0  0  0  0  0  0  0  0  0  0  0
    3.2063   -2.5843   -0.9985 C   0  0  0  0  0  0  0  0  0  0  0  0
    4.0751   -2.3160    0.0700 C   0  0  0  0  0  0  0  0  0  0  0  0
    3.7977   -1.2370    0.9132 C   0  0  0  0  0  0  0  0  0  0  0  0
    2.6722   -0.4007    0.7404 C   0  0  0  0  0  0  0  0  0  0  0  0
    2.5311    0.7117    1.7685 C   0  0  0  0  0  0  0  0  0  0  0  0
    1.2277    1.5169    1.8317 C   0  0  0  0  0  0  0  0  0  0  0  0
    0.9631    2.3165    0.5882 C   0  0  0  0  0  0  0  0  0  0  0  0
    1.0296    3.7216    0.5966 C   0  0  0  0  0  0  0  0  0  0  0  0
    0.7864    4.4718   -0.5637 C   0  0  0  0  0  0  0  0  0  0  0  0
    0.4806    3.8076   -1.7604 C   0  0  0  0  0  0  0  0  0  0  0  0
    0.4144    2.4074   -1.7863 C   0  0  0  0  0  0  0  0  0  0  0  0
    0.6480    1.6434   -0.6205 C   0  0  0  0  0  0  0  0  0  0  0  0
    1.4302   -1.9738   -2.0497 H   0  0  0  0  0  0  0  0  0  0  0  0
    3.3973   -3.4245   -1.6828 H   0  0  0  0  0  0  0  0  0  0  0  0
    4.9602   -2.9451    0.2477 H   0  0  0  0  0  0  0  0  0  0  0  0
    4.4730   -1.0272    1.7586 H   0  0  0  0  0  0  0  0  0  0  0  0
    2.7074    0.2585    2.7673 H   0  0  0  0  0  0  0  0  0  0  0  0
    3.3706    1.4271    1.6174 H   0  0  0  0  0  0  0  0  0  0  0  0
    1.2825    2.1971    2.7056 H   0  0  0  0  0  0  0  0  0  0  0  0
    0.3757    0.8305    2.0134 H   0  0  0  0  0  0  0  0  0  0  0  0
    1.2746    4.2345    1.5407 H   0  0  0  0  0  0  0  0  0  0  0  0
    0.8401    5.5705   -0.5329 H   0  0  0  0  0  0  0  0  0  0  0  0
    0.3004    4.3792   -2.6835 H   0  0  0  0  0  0  0  0  0  0  0  0
    0.1941    1.8884   -2.7306 H   0  0  0  0  0  0  0  0  0  0  0  0
  1  2  2  0  0  0  0
  2  3  1  0  0  0  0
  3 17  1  0  0  0  0
  3  4  1  0  0  0  0
  4  9  1  0  0  0  0
  5  6  1  0  0  0  0
  5  4  2  0  0  0  0
  6  7  2  0  0  0  0
  7 20  1  0  0  0  0
  7  8  1  0  0  0  0
  8 21  1  0  0  0  0
  9  8  2  0  0  0  0
  9 10  1  0  0  0  0
 10 11  1  0  0  0  0
 10 22  1  0  0  0  0
 11 25  1  0  0  0  0
 11 24  1  0  0  0  0
 12 13  1  0  0  0  0
 12 11  1  0  0  0  0
 13 26  1  0  0  0  0
 14 27  1  0  0  0  0
 14 13  2  0  0  0  0
 15 14  1  0  0  0  0
 16 15  2  0  0  0  0
 16 17  1  0  0  0  0
 17 12  2  0  0  0  0
 18  5  1  0  0  0  0
 19  6  1  0  0  0  0
 23 10  1  0  0  0  0
 28 15  1  0  0  0  0
 29 16  1  0  0  0  0
M  END
