21
q = 0.0, confidence = 0.828

 27 29  0  0  0  0  0  0  0  0999 V2000
    1.3925   -0.8876    0.3276 C   0  0  0  0  0  0  0  0  0  0  0  0
    1.4663   -1.9042    1.3129 C   0  0  0  0  0  0  0  0  0  0  0  0
    0.6363   -2.0074    2.0231 H   0  0  0  0  0  0  0  0  0  0  0  0
    2.5764   -2.7453    1.4253 C   0  0  0  0  0  0  0  0  0  0  0  0
    2.6038   -3.5120    2.2142 H   0  0  0  0  0  0  0  0  0  0  0  0
    3.6437   -2.6051    0.5261 C   0  0  0  0  0  0  0  0  0  0  0  0
    4.5207   -3.2668    0.5889 H   0  0  0  0  0  0  0  0  0  0  0  0
    3.5828   -1.6112   -0.4563 C   0  0  0  0  0  0  0  0  0  0  0  0
    4.4171   -1.5040   -1.1689 H   0  0  0  0  0  0  0  0  0  0  0  0
    2.4880   -0.7302   -0.5747 C   0  0  0  0  0  0  0  0  0  0  0  0
    0.5839    1.4240    0.4821 C   0  0  0  0  0  0  0  0  0  0  0  0
    1.1957    2.1017   -0.6060 C   0  0  0  0  0  0  0  0  0  0  0  0
    1.5621    3.4497   -0.4558 C   0  0  0  0  0  0  0  0  0  0  0  0
    2.0193    3.9765   -1.3091 H   0  0  0  0  0  0  0  0  0  0  0  0
    1.3559    4.1254    0.7579 C   0  0  0  0  0  0  0  0  0  0  0  0
    1.6506    5.1807    0.8588 H   0  0  0  0  0  0  0  0  0  0  0  0
    0.7774    3.4449    1.8401 C   0  0  0  0  0  0  0  0  0  0  0  0
    0.6230    3.9610    2.8001 H   0  0  0  0  0  0  0  0  0  0  0  0
    0.3896    2.1035    1.7019 C   0  0  0  0  0  0  0  0  0  0  0  0
   -0.0625    1.5622    2.5468 H   0  0  0  0  0  0  0  0  0  0  0  0
    0.1979   -0.0016    0.3040 C   0  0  0  0  0  2  0  0  0  0  0  0
    1.4394    1.3162   -1.8674 C   0  0  0  0  0  0  0  0  0  0  0  0
    0.5021    0.7924   -2.1547 H   0  0  0  0  0  0  0  0  0  0  0  0
    1.7012    1.9960   -2.7032 H   0  0  0  0  0  0  0  0  0  0  0  0
    2.5666    0.2831   -1.7089 C   0  0  0  0  0  0  0  0  0  0  0  0
    3.5291    0.8291   -1.5982 H   0  0  0  0  0  0  0  0  0  0  0  0
    2.6567   -0.2826   -2.6624 H   0  0  0  0  0  0  0  0  0  0  0  0
  1  2  1  0  0  0  0
  2  4  2  0  0  0  0
  2  3  1  0  0  0  0
  4  5  1  0  0  0  0
  6  7  1  0  0  0  0
  6  4  1  0  0  0  0
  8  6  2  0  0  0  0
  9  8  1  0  0  0  0
 10  8  1  0  0  0  0
 10  1  2  0  0  0  0
 11 19  1  0  0  0  0
 12 13  1  0  0  0  0
 12 11  2  0  0  0  0
 13 15  2  0  0  0  0
 14 13  1  0  0  0  0
 15 16  1  0  0  0  0
 15 17  1  0  0  0  0
 17 18  1  0  0  0  0
 19 17  2  0  0  0  0
 19 20  1  0  0  0  0
 21  1  1  0  0  0  0
 21 11  1  0  0  0  0
 22 25  1  0  0  0  0
 22 12  1  0  0  0  0
 23 22  1  0  0  0  0
 24 22  1  0  0  0  0
 25 26  1  0  0  0  0
 25 10  1  0  0  0  0
 27 25  1  0  0  0  0
M  END
