2
q = -1.0

 12 11  0  0  0  0  0  0  0  0999 V2000
   -0.2317    0.2065   -2.0781 C   0  0  0  0  0  3  0  0  0  0  0  0
    0.2139    1.4571   -1.5654 C   0  0  0  0  0  3  0  0  0  0  0  0
    1.5000    1.5403   -0.9531 C   0  0  0  0  0  3  0  0  0  0  0  0
    1.9840    2.7719   -0.3412 C   0  0  0  0  0  0  0  0  0  0  0  0
    3.2676    3.0649   -0.0223 C   0  0  0  0  0  0  0  0  0  0  0  0
   -1.2259    0.1883   -2.5559 H   0  0  0  0  0  0  0  0  0  0  0  0
    0.4915   -0.4710   -2.5636 H   0  0  0  0  0  0  0  0  0  0  0  0
   -0.4564    2.3310   -1.5748 H   0  0  0  0  0  0  0  0  0  0  0  0
    2.2948    0.8859   -1.3525 H   0  0  0  0  0  0  0  0  0  0  0  0
    1.2148    3.5375   -0.1296 H   0  0  0  0  0  0  0  0  0  0  0  0
    3.5408    4.0263    0.4375 H   0  0  0  0  0  0  0  0  0  0  0  0
    4.0878    2.3542   -0.2178 H   0  0  0  0  0  0  0  0  0  0  0  0
  1  2  1  0  0  0  0
  2  3  1  0  0  0  0
  3  4  1  0  0  0  0
  4 10  1  0  0  0  0
  4  5  2  0  0  0  0
  5 11  1  0  0  0  0
  6  1  1  0  0  0  0
  7  1  1  0  0  0  0
  8  2  1  0  0  0  0
  9  3  1  0  0  0  0
 12  5  1  0  0  0  0
M  END
