5
q = 0.0, confidence = 0.77

 57 60  0  0  1  0  0  0  0  0999 V2000
   -2.2055    1.6168   -0.9266 O   0  0  0  0  0  0  0  0  0  0  0  0
    1.2154   -2.1332    0.4141 O   0  0  0  0  0  0  0  0  0  0  0  0
    1.2192   -1.1654   -2.2762 O   0  0  0  0  0  0  0  0  0  0  0  0
    1.4472    0.2833    0.5302 N   0  0  0  0  0  0  0  0  0  0  0  0
   -2.1780    0.3465   -0.5250 C   0  0  0  0  0  2  0  0  0  0  0  0
   -0.8266   -0.0646   -0.2458 C   0  0  0  0  0  0  0  0  0  0  0  0
   -0.6020   -1.1334   -0.3342 H   0  0  0  0  0  0  0  0  0  0  0  0
    0.1886    0.7566    0.2328 C   0  0  0  0  0  0  0  0  0  0  0  0
    2.4598    1.0789    1.2370 C   0  0  0  0  0  0  0  0  0  0  0  0
    1.9972    1.6604    2.0571 H   0  0  0  0  0  0  0  0  0  0  0  0
    2.9403    1.8102    0.5484 H   0  0  0  0  0  0  0  0  0  0  0  0
    3.4759    0.0457    1.7182 C   0  0  0  0  0  0  0  0  0  0  0  0
    3.1441   -0.4092    2.6728 H   0  0  0  0  0  0  0  0  0  0  0  0
    4.4753    0.4922    1.8803 H   0  0  0  0  0  0  0  0  0  0  0  0
    3.4493   -1.0110    0.6024 C   0  0  1  0  0  0  0  0  0  0  0  0
    3.7168   -2.0239    0.9689 H   0  0  0  0  0  0  0  0  0  0  0  0
    1.9864   -1.0252    0.0743 C   0  0  1  0  0  0  0  0  0  0  0  0
    2.1243   -0.9726   -1.4833 C   0  0  0  0  0  0  0  0  0  0  0  0
    3.5272   -0.6321   -1.7619 C   0  0  0  0  0  0  0  0  0  0  0  0
    3.8899   -0.4680   -2.7857 H   0  0  0  0  0  0  0  0  0  0  0  0
    4.2874   -0.6701   -0.6264 C   0  0  0  0  0  0  0  0  0  0  0  0
    5.7360   -0.4501   -0.5391 C   0  0  0  0  0  0  0  0  0  0  0  0
    6.4823   -0.9525    0.5548 C   0  0  0  0  0  0  0  0  0  0  0  0
    5.9734   -1.5159    1.3505 H   0  0  0  0  0  0  0  0  0  0  0  0
    7.8688   -0.7662    0.6252 C   0  0  0  0  0  0  0  0  0  0  0  0
    8.4315   -1.1742    1.4782 H   0  0  0  0  0  0  0  0  0  0  0  0
    8.5384   -0.0632   -0.3885 C   0  0  0  0  0  0  0  0  0  0  0  0
    9.6267    0.0885   -0.3300 H   0  0  0  0  0  0  0  0  0  0  0  0
    7.8114    0.4497   -1.4769 C   0  0  0  0  0  0  0  0  0  0  0  0
    8.3290    1.0085   -2.2710 H   0  0  0  0  0  0  0  0  0  0  0  0
    6.4282    0.2581   -1.5523 C   0  0  0  0  0  0  0  0  0  0  0  0
    5.8646    0.6783   -2.3982 H   0  0  0  0  0  0  0  0  0  0  0  0
   -3.4032    2.3978   -1.0628 C   0  0  0  0  0  0  0  0  0  0  0  0
   -3.8035    2.5984   -0.0480 H   0  0  0  0  0  0  0  0  0  0  0  0
   -4.1609    1.8144   -1.6220 H   0  0  0  0  0  0  0  0  0  0  0  0
   -3.0325    3.6842   -1.7735 C   0  0  0  0  0  0  0  0  0  0  0  0
   -2.2735    4.2483   -1.1961 H   0  0  0  0  0  0  0  0  0  0  0  0
   -3.9317    4.3209   -1.8883 H   0  0  0  0  0  0  0  0  0  0  0  0
   -2.6228    3.4749   -2.7814 H   0  0  0  0  0  0  0  0  0  0  0  0
   -0.0467    2.1903    0.5880 C   0  0  0  0  0  0  0  0  0  0  0  0
   -0.8957    2.5158    1.6657 C   0  0  0  0  0  0  0  0  0  0  0  0
   -1.3843    1.7039    2.2260 H   0  0  0  0  0  0  0  0  0  0  0  0
   -1.1274    3.8573    2.0018 C   0  0  0  0  0  0  0  0  0  0  0  0
   -1.7964    4.1017    2.8409 H   0  0  0  0  0  0  0  0  0  0  0  0
   -0.5096    4.8851    1.2703 C   0  0  0  0  0  0  0  0  0  0  0  0
   -0.6937    5.9377    1.5333 H   0  0  0  0  0  0  0  0  0  0  0  0
    0.3433    4.5648    0.2008 C   0  0  0  0  0  0  0  0  0  0  0  0
    0.8230    5.3666   -0.3809 H   0  0  0  0  0  0  0  0  0  0  0  0
    0.5774    3.2245   -0.1370 C   0  0  0  0  0  0  0  0  0  0  0  0
    1.2243    2.9726   -0.9911 H   0  0  0  0  0  0  0  0  0  0  0  0
    0.8806   -2.2968    1.7968 C   0  0  0  0  0  0  0  0  0  0  0  0
    0.2968   -1.4168    2.1501 H   0  0  0  0  0  0  0  0  0  0  0  0
    1.8092   -2.3576    2.4133 H   0  0  0  0  0  0  0  0  0  0  0  0
    0.0672   -3.5692    1.9282 C   0  0  0  0  0  0  0  0  0  0  0  0
   -0.8377   -3.5183    1.2930 H   0  0  0  0  0  0  0  0  0  0  0  0
   -0.2549   -3.7104    2.9783 H   0  0  0  0  0  0  0  0  0  0  0  0
    0.6586   -4.4513    1.6129 H   0  0  0  0  0  0  0  0  0  0  0  0
  1  5  1  0  0  0  0
  2 51  1  0  0  0  0
  3 18  2  0  0  0  0
  4  9  1  0  0  0  0
  5  6  1  0  0  0  0
  6  8  2  0  0  0  0
  7  6  1  0  0  0  0
  8  4  1  0  0  0  0
  8 40  1  0  0  0  0
  9 12  1  0  0  0  0
  9 10  1  0  0  0  0
 11  9  1  0  0  0  0
 12 14  1  0  0  0  0
 12 13  1  0  0  0  0
 15 16  1  1  0  0  0
 15 12  1  0  0  0  0
 17  2  1  1  0  0  0
 17  4  1  0  0  0  0
 17 15  1  0  0  0  0
 18 17  1  0  0  0  0
 19 18  1  0  0  0  0
 19 21  2  0  0  0  0
 20 19  1  0  0  0  0
 21 22  1  0  0  0  0
 21 15  1  0  0  0  0
 22 23  1  0  0  0  0
 23 25  2  0  0  0  0
 23 24  1  0  0  0  0
 25 26  1  0  0  0  0
 27 28  1  0  0  0  0
 27 25  1  0  0  0  0
 29 27  2  0  0  0  0
 30 29  1  0  0  0  0
 31 29  1  0  0  0  0
 31 22  2  0  0  0  0
 32 31  1  0  0  0  0
 33  1  1  0  0  0  0
 33 34  1  0  0  0  0
 35 33  1  0  0  0  0
 36 37  1  0  0  0  0
 36 33  1  0  0  0  0
 38 36  1  0  0  0  0
 39 36  1  0  0  0  0
 40 41  1  0  0  0  0
 41 43  2  0  0  0  0
 41 42  1  0  0  0  0
 43 44  1  0  0  0  0
 45 46  1  0  0  0  0
 45 43  1  0  0  0  0
 47 45  2  0  0  0  0
 48 47  1  0  0  0  0
 49 47  1  0  0  0  0
 49 40  2  0  0  0  0
 50 49  1  0  0  0  0
 51 54  1  0  0  0  0
 51 52  1  0  0  0  0
 51 53  1  0  0  0  0
 54 56  1  0  0  0  0
 55 54  1  0  0  0  0
 57 54  1  0  0  0  0
M  END
