5
q = -1.0, confidence = 0.0

 42 44  0  0  1  0  0  0  0  0999 V2000
    4.5490   -3.2681   -1.2912 O   0  0  0  0  0  0  0  0  0  0  0  0
    2.7325   -2.9063   -2.6332 N   0  0  0  0  0  0  0  0  0  0  0  0
    2.9512   -3.7564   -3.1548 H   0  0  0  0  0  0  0  0  0  0  0  0
    1.8119   -2.4497   -2.7689 H   0  0  0  0  0  0  0  0  0  0  0  0
    0.0010    0.9344   -0.0762 C   0  0  0  0  0  2  0  0  0  0  0  0
    1.1872    0.5243    0.4720 C   0  0  1  0  0  3  0  0  0  0  0  0
    3.0996   -1.4047   -0.7484 C   0  0  0  0  0  0  0  0  0  0  0  0
    4.0252   -0.9001   -0.4015 H   0  0  0  0  0  0  0  0  0  0  0  0
    2.5402   -0.6785   -1.3693 H   0  0  0  0  0  0  0  0  0  0  0  0
    3.5437   -2.6135   -1.5814 C   0  0  0  0  0  0  0  0  0  0  0  0
   -0.3301    2.3017   -0.5169 C   0  0  0  0  0  0  0  0  0  0  0  0
   -0.1560    3.4106    0.3510 C   0  0  0  0  0  0  0  0  0  0  0  0
    0.3156    3.2480    1.3322 H   0  0  0  0  0  0  0  0  0  0  0  0
   -0.5540    4.6984   -0.0342 C   0  0  0  0  0  0  0  0  0  0  0  0
   -0.4113    5.5420    0.6589 H   0  0  0  0  0  0  0  0  0  0  0  0
   -1.1260    4.9158   -1.2987 C   0  0  0  0  0  0  0  0  0  0  0  0
   -1.4371    5.9274   -1.6006 H   0  0  0  0  0  0  0  0  0  0  0  0
   -1.2945    3.8299   -2.1757 C   0  0  0  0  0  0  0  0  0  0  0  0
   -1.7330    3.9907   -3.1728 H   0  0  0  0  0  0  0  0  0  0  0  0
   -0.9117    2.5390   -1.7881 C   0  0  0  0  0  0  0  0  0  0  0  0
   -1.0540    1.6837   -2.4662 H   0  0  0  0  0  0  0  0  0  0  0  0
    1.3302   -0.8650    1.0113 C   0  0  0  0  0  0  0  0  0  0  0  0
    2.2550   -1.7892    0.4528 C   0  0  0  0  0  0  0  0  0  0  0  0
    2.3577   -3.0748    1.0217 C   0  0  0  0  0  0  0  0  0  0  0  0
    3.0914   -3.7756    0.5954 H   0  0  0  0  0  0  0  0  0  0  0  0
    1.5600   -3.4620    2.1079 C   0  0  0  0  0  0  0  0  0  0  0  0
    1.6644   -4.4736    2.5298 H   0  0  0  0  0  0  0  0  0  0  0  0
    0.6450   -2.5536    2.6609 C   0  0  0  0  0  0  0  0  0  0  0  0
    0.0280   -2.8372    3.5281 H   0  0  0  0  0  0  0  0  0  0  0  0
    0.5429   -1.2676    2.1122 C   0  0  0  0  0  0  0  0  0  0  0  0
   -0.1367   -0.5291    2.5594 H   0  0  0  0  0  0  0  0  0  0  0  0
    2.3962    1.3907    0.5711 C   0  0  0  0  0  0  0  0  0  0  0  0
    2.7733    2.2702   -0.4709 C   0  0  0  0  0  0  0  0  0  0  0  0
    2.1614    2.3143   -1.3831 H   0  0  0  0  0  0  0  0  0  0  0  0
    3.9254    3.0581   -0.3639 C   0  0  0  0  0  0  0  0  0  0  0  0
    4.2044    3.7281   -1.1917 H   0  0  0  0  0  0  0  0  0  0  0  0
    4.7334    2.9837    0.7836 C   0  0  0  0  0  0  0  0  0  0  0  0
    5.6417    3.6000    0.8635 H   0  0  0  0  0  0  0  0  0  0  0  0
    4.3824    2.1023    1.8183 C   0  0  0  0  0  0  0  0  0  0  0  0
    5.0149    2.0253    2.7162 H   0  0  0  0  0  0  0  0  0  0  0  0
    3.2307    1.3100    1.7102 C   0  0  0  0  0  0  0  0  0  0  0  0
    2.9648    0.6116    2.5182 H   0  0  0  0  0  0  0  0  0  0  0  0
  2 10  1  0  0  0  0
  3  2  1  0  0  0  0
  4  2  1  0  0  0  0
  6  5  1  6  0  0  0
  6 32  1  0  0  0  0
  6 22  1  0  0  0  0
  7  8  1  0  0  0  0
  7 23  1  0  0  0  0
  9  7  1  0  0  0  0
 10  1  2  0  0  0  0
 10  7  1  0  0  0  0
 11  5  1  0  0  0  0
 11 12  1  0  0  0  0
 12 13  1  0  0  0  0
 14 12  2  0  0  0  0
 14 15  1  0  0  0  0
 16 14  1  0  0  0  0
 17 16  1  0  0  0  0
 18 20  1  0  0  0  0
 18 16  2  0  0  0  0
 19 18  1  0  0  0  0
 20 11  2  0  0  0  0
 21 20  1  0  0  0  0
 22 30  1  0  0  0  0
 23 22  2  0  0  0  0
 23 24  1  0  0  0  0
 24 26  2  0  0  0  0
 25 24  1  0  0  0  0
 26 27  1  0  0  0  0
 26 28  1  0  0  0  0
 28 29  1  0  0  0  0
 30 31  1  0  0  0  0
 30 28  2  0  0  0  0
 32 41  1  0  0  0  0
 33 35  1  0  0  0  0
 33 32  2  0  0  0  0
 34 33  1  0  0  0  0
 35 37  2  0  0  0  0
 36 35  1  0  0  0  0
 37 38  1  0  0  0  0
 37 39  1  0  0  0  0
 39 40  1  0  0  0  0
 41 39  2  0  0  0  0
 41 42  1  0  0  0  0
M  END
