5
q = -1.0

 25 25  0  0  0  0  0  0  0  0999 V2000
    7.7526    0.9991    2.6962 N   0  0  0  0  0  0  0  0  0  0  0  0
    3.2812   -3.9014   -2.1469 N   0  0  0  0  0  0  0  0  0  0  0  0
    7.5280   -2.7178   -1.2557 N   0  0  0  0  0  0  0  0  0  0  0  0
    5.7147   -2.8685    2.5046 N   0  0  0  0  0  0  0  0  0  0  0  0
    1.8999   -0.5342   -0.1713 C   0  0  0  0  0  3  0  0  0  0  0  0
    3.1037   -0.8451   -0.2922 C   0  0  0  0  0  0  0  0  0  0  0  0
    4.4693   -1.1388   -0.3777 C   0  0  0  0  0  0  0  0  0  0  0  0
    5.3799   -0.1446    0.2735 C   0  0  0  0  0  0  0  0  0  0  0  0
    6.0638   -0.5222    1.4168 C   0  0  0  0  0  0  0  0  0  0  0  0
    6.9891    0.3304    2.1052 C   0  0  0  0  0  0  0  0  0  0  0  0
    4.9737   -2.2645   -1.0350 C   0  0  0  0  0  0  0  0  0  0  0  0
    4.0639   -3.1784   -1.6514 C   0  0  0  0  0  0  0  0  0  0  0  0
    6.3751   -2.5163   -1.1482 C   0  0  0  0  0  0  0  0  0  0  0  0
    5.4268    1.1958   -0.3366 C   0  0  0  0  0  0  0  0  0  0  0  0
    5.3412    1.3072   -1.7472 C   0  0  0  0  0  0  0  0  0  0  0  0
    5.2604    0.3962   -2.3582 H   0  0  0  0  0  0  0  0  0  0  0  0
    5.3880    2.5613   -2.3660 C   0  0  0  0  0  0  0  0  0  0  0  0
    5.3413    2.6295   -3.4630 H   0  0  0  0  0  0  0  0  0  0  0  0
    5.4920    3.7270   -1.5890 C   0  0  0  0  0  0  0  0  0  0  0  0
    5.5243    4.7134   -2.0758 H   0  0  0  0  0  0  0  0  0  0  0  0
    5.5522    3.6304   -0.1889 C   0  0  0  0  0  0  0  0  0  0  0  0
    5.6236    4.5403    0.4256 H   0  0  0  0  0  0  0  0  0  0  0  0
    5.5252    2.3777    0.4359 C   0  0  0  0  0  0  0  0  0  0  0  0
    5.5608    2.3189    1.5322 H   0  0  0  0  0  0  0  0  0  0  0  0
    5.8749   -1.8203    2.0006 C   0  0  0  0  0  0  0  0  0  0  0  0
  2 12  3  0  0  0  0
  3 13  3  0  0  0  0
  6  5  3  0  0  0  0
  7  6  1  0  0  0  0
  7  8  1  0  0  0  0
  8  9  2  0  0  0  0
  9 25  1  0  0  0  0
  9 10  1  0  0  0  0
 10  1  3  0  0  0  0
 11  7  2  0  0  0  0
 12 11  1  0  0  0  0
 13 11  1  0  0  0  0
 14  8  1  0  0  0  0
 14 23  1  0  0  0  0
 15 14  2  0  0  0  0
 16 15  1  0  0  0  0
 17 15  1  0  0  0  0
 17 19  2  0  0  0  0
 18 17  1  0  0  0  0
 19 21  1  0  0  0  0
 20 19  1  0  0  0  0
 21 22  1  0  0  0  0
 21 23  2  0  0  0  0
 23 24  1  0  0  0  0
 25  4  3  0  0  0  0
M  END
