6
q = 0.0, confidence = 0.842

 16 16  0  0  0  0  0  0  0  0999 V2000
   -4.3755   -1.5205   -1.1810 C   0  0  0  0  0  0  0  0  0  0  0  0
   -4.6193   -0.3902   -1.5912 C   0  0  0  0  0  0  0  0  0  0  0  0
   -4.3290    0.9278   -2.1516 C   0  0  0  0  0  0  0  0  0  0  0  0
   -2.9902    0.8197   -2.9530 C   0  0  0  0  0  0  0  0  0  0  0  0
   -1.9371   -0.0050   -2.2810 C   0  0  0  0  0  3  0  0  0  0  0  0
   -1.6521   -1.2625   -1.8687 C   0  0  0  0  0  3  0  0  0  0  0  0
   -2.2805   -2.6219   -1.7879 C   0  0  0  0  0  0  0  0  0  0  0  0
   -3.5367   -2.6755   -0.8632 C   0  0  0  0  0  0  0  0  0  0  0  0
   -4.2050    1.6743   -1.3361 H   0  0  0  0  0  0  0  0  0  0  0  0
   -5.1300    1.3155   -2.8164 H   0  0  0  0  0  0  0  0  0  0  0  0
   -2.6177    1.8450   -3.1520 H   0  0  0  0  0  0  0  0  0  0  0  0
   -3.2055    0.3477   -3.9383 H   0  0  0  0  0  0  0  0  0  0  0  0
   -1.5473   -3.3802   -1.4452 H   0  0  0  0  0  0  0  0  0  0  0  0
   -2.5927   -2.9070   -2.8172 H   0  0  0  0  0  0  0  0  0  0  0  0
   -4.0502   -3.6522   -0.9926 H   0  0  0  0  0  0  0  0  0  0  0  0
   -3.2202   -2.6199    0.2013 H   0  0  0  0  0  0  0  0  0  0  0  0
  1  8  1  0  0  0  0
  2  1  3  0  0  0  0
  3  2  1  0  0  0  0
  3  9  1  0  0  0  0
  4  5  1  0  0  0  0
  4  3  1  0  0  0  0
  5  6  2  0  0  0  0
  6  7  1  0  0  0  0
  7 13  1  0  0  0  0
  7  8  1  0  0  0  0
  8 16  1  0  0  0  0
 10  3  1  0  0  0  0
 11  4  1  0  0  0  0
 12  4  1  0  0  0  0
 14  7  1  0  0  0  0
 15  8  1  0  0  0  0
M  END
