2
q = -1.0

 14 14  0  0  0  0  0  0  0  0999 V2000
    4.3383    0.7756    0.7097 S   0  0  0  0  0  0  0  0  0  0  0  0
    2.0525   -0.3177    0.0527 C   0  0  0  0  0  3  0  0  0  0  0  0
    2.4430    0.5803   -1.0091 C   0  0  0  0  0  0  0  0  0  0  0  0
    3.6391    1.2487   -0.8163 C   0  0  0  0  0  0  0  0  0  0  0  0
    3.0173   -0.3351    1.0589 C   0  0  0  0  0  0  0  0  0  0  0  0
    4.3020    2.2454   -1.7169 C   0  0  0  0  0  0  0  0  0  0  0  0
    3.0390   -1.1042    2.3462 C   0  0  0  0  0  0  0  0  0  0  0  0
    1.8427    0.7471   -1.9155 H   0  0  0  0  0  0  0  0  0  0  0  0
    3.6328    2.4780   -2.5689 H   0  0  0  0  0  0  0  0  0  0  0  0
    5.2628    1.8713   -2.1319 H   0  0  0  0  0  0  0  0  0  0  0  0
    4.5254    3.1993   -1.1937 H   0  0  0  0  0  0  0  0  0  0  0  0
    2.7961   -2.1719    2.1651 H   0  0  0  0  0  0  0  0  0  0  0  0
    2.2848   -0.7284    3.0700 H   0  0  0  0  0  0  0  0  0  0  0  0
    4.0306   -1.0562    2.8378 H   0  0  0  0  0  0  0  0  0  0  0  0
  1  5  1  0  0  0  0
  2  5  2  0  0  0  0
  3  4  2  0  0  0  0
  3  2  1  0  0  0  0
  4  1  1  0  0  0  0
  5  7  1  0  0  0  0
  6 11  1  0  0  0  0
  6  4  1  0  0  0  0
  7 14  1  0  0  0  0
  7 13  1  0  0  0  0
  8  3  1  0  0  0  0
  9  6  1  0  0  0  0
 10  6  1  0  0  0  0
 12  7  1  0  0  0  0
M  END
