3
q = 0.0, confidence = 0.996

 32 32  0  0  0  0  0  0  0  0999 V2000
   -2.5161    0.9375    0.5730 N   0  0  0  0  0  0  0  0  0  0  0  0
   -2.3979   -1.3738    0.2337 N   0  0  0  0  0  0  0  0  0  0  0  0
   -1.9461   -0.1319   -0.0285 C   0  0  0  0  0  2  0  0  0  0  0  0
   -3.6802    0.8129    1.4550 C   0  0  0  0  0  0  0  0  0  0  0  0
   -4.4888   -0.4192    1.0803 C   0  0  0  0  0  0  0  0  0  0  0  0
   -3.5677   -1.6290    1.0793 C   0  0  0  0  0  0  0  0  0  0  0  0
   -2.0554    2.3147    0.2594 C   0  0  0  0  0  0  0  0  0  0  0  0
   -1.6900    3.0854    1.5296 C   0  0  0  0  0  0  0  0  0  0  0  0
   -3.0544    3.0497   -0.6355 C   0  0  0  0  0  0  0  0  0  0  0  0
   -1.7907   -2.5508   -0.4353 C   0  0  0  0  0  0  0  0  0  0  0  0
   -1.4868   -3.6653    0.5683 C   0  0  0  0  0  0  0  0  0  0  0  0
   -2.6435   -3.0168   -1.6172 C   0  0  0  0  0  0  0  0  0  0  0  0
   -1.1265    2.1609   -0.3334 H   0  0  0  0  0  0  0  0  0  0  0  0
   -4.2929    1.7301    1.3565 H   0  0  0  0  0  0  0  0  0  0  0  0
   -3.3500    0.7553    2.5178 H   0  0  0  0  0  0  0  0  0  0  0  0
   -4.9215   -0.2815    0.0677 H   0  0  0  0  0  0  0  0  0  0  0  0
   -5.3224   -0.5687    1.7939 H   0  0  0  0  0  0  0  0  0  0  0  0
   -3.2353   -1.8756    2.1132 H   0  0  0  0  0  0  0  0  0  0  0  0
   -4.0951   -2.5197    0.6848 H   0  0  0  0  0  0  0  0  0  0  0  0
   -0.9259    2.5495    2.1276 H   0  0  0  0  0  0  0  0  0  0  0  0
   -2.5715    3.2844    2.1742 H   0  0  0  0  0  0  0  0  0  0  0  0
   -1.2553    4.0652    1.2507 H   0  0  0  0  0  0  0  0  0  0  0  0
   -3.2278    2.4604   -1.5577 H   0  0  0  0  0  0  0  0  0  0  0  0
   -2.6375    4.0354   -0.9229 H   0  0  0  0  0  0  0  0  0  0  0  0
   -4.0222    3.2380   -0.1242 H   0  0  0  0  0  0  0  0  0  0  0  0
   -0.8293   -2.1618   -0.8381 H   0  0  0  0  0  0  0  0  0  0  0  0
   -0.9035   -3.2902    1.4303 H   0  0  0  0  0  0  0  0  0  0  0  0
   -0.8901   -4.4531    0.0680 H   0  0  0  0  0  0  0  0  0  0  0  0
   -2.4092   -4.1506    0.9495 H   0  0  0  0  0  0  0  0  0  0  0  0
   -2.7893   -2.1796   -2.3290 H   0  0  0  0  0  0  0  0  0  0  0  0
   -3.6343   -3.3955   -1.2873 H   0  0  0  0  0  0  0  0  0  0  0  0
   -2.1321   -3.8474   -2.1435 H   0  0  0  0  0  0  0  0  0  0  0  0
  1  4  1  0  0  0  0
  2  6  1  0  0  0  0
  3  2  1  0  0  0  0
  3  1  1  0  0  0  0
  4 15  1  0  0  0  0
  5  4  1  0  0  0  0
  5 17  1  0  0  0  0
  6  5  1  0  0  0  0
  6 18  1  0  0  0  0
  7  1  1  0  0  0  0
  7  8  1  0  0  0  0
  8 20  1  0  0  0  0
  8 21  1  0  0  0  0
  9 25  1  0  0  0  0
  9  7  1  0  0  0  0
 10  2  1  0  0  0  0
 10 11  1  0  0  0  0
 11 29  1  0  0  0  0
 11 27  1  0  0  0  0
 12 31  1  0  0  0  0
 12 10  1  0  0  0  0
 13  7  1  0  0  0  0
 14  4  1  0  0  0  0
 16  5  1  0  0  0  0
 19  6  1  0  0  0  0
 22  8  1  0  0  0  0
 23  9  1  0  0  0  0
 24  9  1  0  0  0  0
 26 10  1  0  0  0  0
 28 11  1  0  0  0  0
 30 12  1  0  0  0  0
 32 12  1  0  0  0  0
M  END
