5
q = 0.0, confidence = 1.0

 24 25  0  0  0  0  0  0  0  0999 V2000
    3.1576   -0.8897    1.6052 F   0  0  0  0  0  0  0  0  0  0  0  0
    1.8270   -2.8463   -0.2339 N   0  0  0  0  0  0  0  0  0  0  0  0
    0.1414   -4.2857   -0.1545 N   0  0  0  0  0  0  0  0  0  0  0  0
   -0.2905   -2.9926   -0.0298 N   0  0  0  0  0  0  0  0  0  0  0  0
    0.7055   -2.0714   -0.0866 C   0  0  0  0  0  2  0  0  0  0  0  0
    1.4414   -4.1715   -0.2728 C   0  0  0  0  0  0  0  0  0  0  0  0
    2.1336   -5.0135   -0.3944 H   0  0  0  0  0  0  0  0  0  0  0  0
    3.1966   -2.3382   -0.3073 C   0  0  0  0  0  0  0  0  0  0  0  0
    3.1998   -1.4325   -0.9459 H   0  0  0  0  0  0  0  0  0  0  0  0
    3.8235   -3.1084   -0.7988 H   0  0  0  0  0  0  0  0  0  0  0  0
    3.7949   -1.9984    1.0507 C   0  0  0  0  0  0  0  0  0  0  0  0
    3.6967   -2.8460    1.7622 H   0  0  0  0  0  0  0  0  0  0  0  0
    4.8725   -1.7601    0.9220 H   0  0  0  0  0  0  0  0  0  0  0  0
   -1.6926   -2.7258    0.1059 C   0  0  0  0  0  0  0  0  0  0  0  0
   -2.6071   -3.5245   -0.5996 C   0  0  0  0  0  0  0  0  0  0  0  0
   -2.2379   -4.3497   -1.2237 H   0  0  0  0  0  0  0  0  0  0  0  0
   -3.9764   -3.2487   -0.4874 C   0  0  0  0  0  0  0  0  0  0  0  0
   -4.6993   -3.8690   -1.0373 H   0  0  0  0  0  0  0  0  0  0  0  0
   -4.4244   -2.1874    0.3169 C   0  0  0  0  0  0  0  0  0  0  0  0
   -5.5009   -1.9767    0.3995 H   0  0  0  0  0  0  0  0  0  0  0  0
   -3.4995   -1.4060    1.0270 C   0  0  0  0  0  0  0  0  0  0  0  0
   -3.8451   -0.5837    1.6701 H   0  0  0  0  0  0  0  0  0  0  0  0
   -2.1275   -1.6776    0.9341 C   0  0  0  0  0  0  0  0  0  0  0  0
   -1.3995   -1.0939    1.5164 H   0  0  0  0  0  0  0  0  0  0  0  0
  2  5  1  0  0  0  0
  3  4  1  0  0  0  0
  4 14  1  0  0  0  0
  5  4  1  0  0  0  0
  6  2  1  0  0  0  0
  6  3  2  0  0  0  0
  7  6  1  0  0  0  0
  8  2  1  0  0  0  0
  8 11  1  0  0  0  0
  9  8  1  0  0  0  0
 10  8  1  0  0  0  0
 11  1  1  0  0  0  0
 11 12  1  0  0  0  0
 13 11  1  0  0  0  0
 14 23  1  0  0  0  0
 15 17  1  0  0  0  0
 15 14  2  0  0  0  0
 16 15  1  0  0  0  0
 17 19  2  0  0  0  0
 18 17  1  0  0  0  0
 19 20  1  0  0  0  0
 19 21  1  0  0  0  0
 21 22  1  0  0  0  0
 23 21  2  0  0  0  0
 23 24  1  0  0  0  0
M  END
