3
q = -1.0

 43 44  0  0  1  0  0  0  0  0999 V2000
   -1.6823   -1.5301   -0.1933 Si  0  0  0  0  0  0  0  0  0  0  0  0
   -1.9139    0.2791    0.1012 N   0  0  0  0  0  0  0  0  0  0  0  0
    0.1470   -1.6359   -0.5235 C   0  0  2  0  0  3  0  0  0  0  0  0
    1.1668   -1.8720    0.4747 C   0  0  0  0  0  0  0  0  0  0  0  0
    2.4081   -1.3888   -0.0354 C   0  0  0  0  0  0  0  0  0  0  0  0
    2.1864   -0.8725   -1.3558 C   0  0  0  0  0  0  0  0  0  0  0  0
    0.8008   -1.0267   -1.6645 C   0  0  0  0  0  0  0  0  0  0  0  0
    1.0095   -2.6167    1.7746 C   0  0  0  0  0  0  0  0  0  0  0  0
    1.9918   -2.7694    2.2610 H   0  0  0  0  0  0  0  0  0  0  0  0
    0.5711   -3.6222    1.6090 H   0  0  0  0  0  0  0  0  0  0  0  0
    0.3626   -2.0976    2.5099 H   0  0  0  0  0  0  0  0  0  0  0  0
    3.7596   -1.5253    0.6033 C   0  0  0  0  0  0  0  0  0  0  0  0
    3.7078   -1.5222    1.7097 H   0  0  0  0  0  0  0  0  0  0  0  0
    4.4356   -0.7001    0.3045 H   0  0  0  0  0  0  0  0  0  0  0  0
    4.2560   -2.4744    0.3021 H   0  0  0  0  0  0  0  0  0  0  0  0
    3.2793   -0.3956   -2.2684 C   0  0  0  0  0  0  0  0  0  0  0  0
    3.9550    0.3248   -1.7636 H   0  0  0  0  0  0  0  0  0  0  0  0
    2.8814    0.1082   -3.1694 H   0  0  0  0  0  0  0  0  0  0  0  0
    3.9114   -1.2427   -2.6140 H   0  0  0  0  0  0  0  0  0  0  0  0
    0.1642   -0.6501   -2.9766 C   0  0  0  0  0  0  0  0  0  0  0  0
   -0.6812    0.0624   -2.8717 H   0  0  0  0  0  0  0  0  0  0  0  0
   -0.2339   -1.5410   -3.5066 H   0  0  0  0  0  0  0  0  0  0  0  0
    0.8968   -0.1655   -3.6490 H   0  0  0  0  0  0  0  0  0  0  0  0
   -2.7464   -2.1214   -1.6397 C   0  0  0  0  0  0  0  0  0  0  0  0
   -3.8268   -2.0472   -1.4011 H   0  0  0  0  0  0  0  0  0  0  0  0
   -2.5116   -3.1908   -1.8220 H   0  0  0  0  0  0  0  0  0  0  0  0
   -2.5589   -1.5795   -2.5857 H   0  0  0  0  0  0  0  0  0  0  0  0
   -2.2528   -2.4688    1.3398 C   0  0  0  0  0  0  0  0  0  0  0  0
   -1.7820   -2.1142    2.2752 H   0  0  0  0  0  0  0  0  0  0  0  0
   -2.0022   -3.5428    1.2251 H   0  0  0  0  0  0  0  0  0  0  0  0
   -3.3536   -2.3879    1.4485 H   0  0  0  0  0  0  0  0  0  0  0  0
   -2.6127    1.0356   -0.9711 C   0  0  0  0  0  0  0  0  0  0  0  0
   -2.3868    0.6243   -1.9728 H   0  0  0  0  0  0  0  0  0  0  0  0
   -2.2488    2.0829   -0.9552 H   0  0  0  0  0  0  0  0  0  0  0  0
   -4.1211    1.0020   -0.6210 C   0  0  0  0  0  0  0  0  0  0  0  0
   -4.6055    1.9666   -0.8704 H   0  0  0  0  0  0  0  0  0  0  0  0
   -4.6476    0.2170   -1.1984 H   0  0  0  0  0  0  0  0  0  0  0  0
   -4.1500    0.6973    0.8983 C   0  0  0  0  0  0  0  0  0  0  0  0
   -4.5961   -0.2997    1.0910 H   0  0  0  0  0  0  0  0  0  0  0  0
   -4.7414    1.4343    1.4765 H   0  0  0  0  0  0  0  0  0  0  0  0
   -2.6638    0.7052    1.3079 C   0  0  0  0  0  0  0  0  0  0  0  0
   -2.3412    1.7368    1.5679 H   0  0  0  0  0  0  0  0  0  0  0  0
   -2.4310    0.0634    2.1755 H   0  0  0  0  0  0  0  0  0  0  0  0
  1  2  1  0  0  0  0
  1 28  1  0  0  0  0
  2 41  1  0  0  0  0
  3  1  1  1  0  0  0
  3  4  1  0  0  0  0
  4  8  1  0  0  0  0
  5  4  2  0  0  0  0
  5 12  1  0  0  0  0
  6  5  1  0  0  0  0
  7  6  2  0  0  0  0
  7  3  1  0  0  0  0
  8  9  1  0  0  0  0
  8 11  1  0  0  0  0
 10  8  1  0  0  0  0
 12 13  1  0  0  0  0
 14 12  1  0  0  0  0
 15 12  1  0  0  0  0
 16 17  1  0  0  0  0
 16  6  1  0  0  0  0
 18 16  1  0  0  0  0
 19 16  1  0  0  0  0
 20 21  1  0  0  0  0
 20  7  1  0  0  0  0
 22 20  1  0  0  0  0
 23 20  1  0  0  0  0
 24 25  1  0  0  0  0
 24  1  1  0  0  0  0
 26 24  1  0  0  0  0
 27 24  1  0  0  0  0
 28 31  1  0  0  0  0
 28 29  1  0  0  0  0
 30 28  1  0  0  0  0
 32 34  1  0  0  0  0
 32 35  1  0  0  0  0
 32  2  1  0  0  0  0
 33 32  1  0  0  0  0
 35 38  1  0  0  0  0
 36 35  1  0  0  0  0
 37 35  1  0  0  0  0
 38 39  1  0  0  0  0
 38 41  1  0  0  0  0
 38 40  1  0  0  0  0
 41 42  1  0  0  0  0
 41 43  1  0  0  0  0
M  END
