6
q = -1.0, confidence = 0.0

 11 11  0  0  0  0  0  0  0  0999 V2000
    2.0465    4.3648    0.3021 Cl  0  0  0  0  0  0  0  0  0  0  0  0
    5.4884    0.2851   -0.6981 Cl  0  0  0  0  0  0  0  0  0  0  0  0
    0.0918    2.2677    0.3960 F   0  0  0  0  0  0  0  0  0  0  0  0
    4.6603    3.1111   -0.2994 F   0  0  0  0  0  0  0  0  0  0  0  0
    3.1080   -1.3260   -0.4827 F   0  0  0  0  0  0  0  0  0  0  0  0
    1.4373    0.3645   -0.1979 C   0  0  0  0  0  0  0  0  0  0  0  0
    1.2869    1.7456    0.0463 C   0  0  0  0  0  0  0  0  0  0  0  0
    2.3420    2.6826    0.0074 C   0  0  0  0  0  0  0  0  0  0  0  0
    3.6485    2.2437   -0.2552 C   0  0  0  0  0  0  0  0  0  0  0  0
    3.8763    0.8725   -0.4426 C   0  0  0  0  0  0  0  0  0  0  0  0
    2.7806   -0.0099   -0.3943 C   0  0  0  0  0  0  0  0  0  0  0  0
  2 10  1  0  0  0  0
  4  9  1  0  0  0  0
  5 11  1  0  0  0  0
  6  7  1  0  0  0  0
  7  3  1  0  0  0  0
  8  7  2  0  0  0  0
  8  1  1  0  0  0  0
  9  8  1  0  0  0  0
 10 11  1  0  0  0  0
 10  9  2  0  0  0  0
 11  6  2  0  0  0  0
M  END
