23
q = -1.0

 26 27  0  0  0  0  0  0  0  0999 V2000
    6.0726    1.1161    0.7041 O   0  0  0  0  0  0  0  0  0  0  0  0
    3.0310   -1.1007   -1.0985 N   0  0  0  0  0  0  0  0  0  0  0  0
    0.4522   -0.1309    0.1112 C   0  0  0  0  0  0  0  0  0  0  0  0
    1.4103    0.6759   -0.7272 C   0  0  0  0  0  0  0  0  0  0  0  0
    1.3689    1.7407   -0.4300 H   0  0  0  0  0  0  0  0  0  0  0  0
    1.1120    0.6115   -1.7929 H   0  0  0  0  0  0  0  0  0  0  0  0
    5.3536   -0.9477   -0.4065 C   0  0  0  0  0  0  0  0  0  0  0  0
    6.3341   -1.4393   -0.3631 H   0  0  0  0  0  0  0  0  0  0  0  0
    2.8269    0.1398   -0.6029 C   0  0  0  0  0  0  0  0  0  0  0  0
    4.2627   -1.6110   -0.9932 C   0  0  0  0  0  0  0  0  0  0  0  0
    4.4102   -2.6256   -1.4055 H   0  0  0  0  0  0  0  0  0  0  0  0
    5.1347    0.3453    0.1093 C   0  0  0  0  0  0  0  0  0  0  0  0
    3.8373    0.8927    0.0061 C   0  0  0  0  0  0  0  0  0  0  0  0
    3.6500    1.9002    0.4044 H   0  0  0  0  0  0  0  0  0  0  0  0
    0.0079   -1.4641   -0.1791 C   0  0  0  0  0  0  0  0  0  0  0  0
    0.2746   -2.0243   -1.0821 H   0  0  0  0  0  0  0  0  0  0  0  0
    7.3900    0.6023    0.8286 C   0  0  0  0  0  0  0  0  0  0  0  0
    7.4130   -0.3256    1.4415 H   0  0  0  0  0  0  0  0  0  0  0  0
    7.9823    1.3854    1.3361 H   0  0  0  0  0  0  0  0  0  0  0  0
    7.8435    0.3895   -0.1644 H   0  0  0  0  0  0  0  0  0  0  0  0
   -0.0742    0.2261    1.4000 C   0  0  0  0  0  0  0  0  0  0  0  0
    0.1142    1.1711    1.9238 H   0  0  0  0  0  0  0  0  0  0  0  0
   -0.8449   -0.8854    1.8983 C   0  0  0  0  0  3  0  0  0  0  0  0
   -1.3543   -0.9376    2.8676 H   0  0  0  0  0  0  0  0  0  0  0  0
   -0.7909   -1.9270    0.9150 C   0  0  0  0  0  0  0  0  0  0  0  0
   -1.2663   -2.9123    0.9913 H   0  0  0  0  0  0  0  0  0  0  0  0
  1 17  1  0  0  0  0
  2 10  2  0  0  0  0
  2  9  1  0  0  0  0
  3 21  2  0  0  0  0
  4  9  1  0  0  0  0
  4  5  1  0  0  0  0
  4  3  1  0  0  0  0
  6  4  1  0  0  0  0
  7  8  1  0  0  0  0
  7 12  2  0  0  0  0
  9 13  2  0  0  0  0
 10  7  1  0  0  0  0
 11 10  1  0  0  0  0
 12  1  1  0  0  0  0
 13 12  1  0  0  0  0
 13 14  1  0  0  0  0
 15  3  1  0  0  0  0
 15 25  2  0  0  0  0
 16 15  1  0  0  0  0
 17 19  1  0  0  0  0
 17 18  1  0  0  0  0
 20 17  1  0  0  0  0
 21 23  1  0  0  0  0
 21 22  1  0  0  0  0
 23 24  1  0  0  0  0
 25 26  1  0  0  0  0
 25 23  1  0  0  0  0
M  END
