1
q = -1.0

 34 34  0  0  1  0  0  0  0  0999 V2000
   -0.8262   -0.5445   -0.0001 C   0  0  1  0  0  3  0  0  0  0  0  0
   -1.4342    0.1671   -1.1978 C   0  0  0  0  0  0  0  0  0  0  0  0
   -2.2732    1.1556   -0.7342 C   0  0  0  0  0  0  0  0  0  0  0  0
   -2.2735    1.1553    0.7341 C   0  0  0  0  0  0  0  0  0  0  0  0
   -1.4347    0.1667    1.1976 C   0  0  0  0  0  0  0  0  0  0  0  0
   -0.8234   -2.1123   -0.0004 C   0  0  0  0  0  0  0  0  0  0  0  0
   -0.1142   -2.7082   -1.2348 C   0  0  0  0  0  0  0  0  0  0  0  0
    0.9295   -2.3371   -1.3236 H   0  0  0  0  0  0  0  0  0  0  0  0
   -0.6359   -2.4912   -2.1819 H   0  0  0  0  0  0  0  0  0  0  0  0
   -0.0631   -3.8112   -1.1331 H   0  0  0  0  0  0  0  0  0  0  0  0
   -2.2998   -2.5683   -0.0008 C   0  0  0  0  0  0  0  0  0  0  0  0
   -2.8341   -2.1909   -0.8954 H   0  0  0  0  0  0  0  0  0  0  0  0
   -2.8345   -2.1912    0.8936 H   0  0  0  0  0  0  0  0  0  0  0  0
   -2.3647   -3.6758   -0.0010 H   0  0  0  0  0  0  0  0  0  0  0  0
   -0.1148   -2.7087    1.2341 C   0  0  0  0  0  0  0  0  0  0  0  0
   -0.0636   -3.8116    1.1320 H   0  0  0  0  0  0  0  0  0  0  0  0
   -0.6370   -2.4921    2.1810 H   0  0  0  0  0  0  0  0  0  0  0  0
    0.9288   -2.3375    1.3236 H   0  0  0  0  0  0  0  0  0  0  0  0
   -1.1595   -0.1158   -2.6476 C   0  0  0  0  0  0  0  0  0  0  0  0
   -1.7542   -0.9705   -3.0396 H   0  0  0  0  0  0  0  0  0  0  0  0
   -0.0949   -0.3508   -2.8448 H   0  0  0  0  0  0  0  0  0  0  0  0
   -1.4193    0.7615   -3.2718 H   0  0  0  0  0  0  0  0  0  0  0  0
   -3.0669    2.1407   -1.5361 C   0  0  0  0  0  0  0  0  0  0  0  0
   -2.8146    3.1872   -1.2598 H   0  0  0  0  0  0  0  0  0  0  0  0
   -4.1565    2.0262   -1.3496 H   0  0  0  0  0  0  0  0  0  0  0  0
   -2.9050    2.0308   -2.6248 H   0  0  0  0  0  0  0  0  0  0  0  0
   -3.0675    2.1401    1.5361 C   0  0  0  0  0  0  0  0  0  0  0  0
   -2.9045    2.0310    2.6247 H   0  0  0  0  0  0  0  0  0  0  0  0
   -4.1572    2.0243    1.3507 H   0  0  0  0  0  0  0  0  0  0  0  0
   -2.8166    3.1867    1.2589 H   0  0  0  0  0  0  0  0  0  0  0  0
   -1.1605   -0.1168    2.6474 C   0  0  0  0  0  0  0  0  0  0  0  0
   -1.4203    0.7604    3.2718 H   0  0  0  0  0  0  0  0  0  0  0  0
   -0.0960   -0.3520    2.8449 H   0  0  0  0  0  0  0  0  0  0  0  0
   -1.7555   -0.9715    3.0389 H   0  0  0  0  0  0  0  0  0  0  0  0
  1  6  1  6  0  0  0
  1  5  1  0  0  0  0
  2  3  2  0  0  0  0
  2  1  1  0  0  0  0
  3  4  1  0  0  0  0
  4  5  2  0  0  0  0
  4 27  1  0  0  0  0
  5 31  1  0  0  0  0
  6 15  1  0  0  0  0
  7 10  1  0  0  0  0
  7  6  1  0  0  0  0
  8  7  1  0  0  0  0
  9  7  1  0  0  0  0
 11  6  1  0  0  0  0
 11 13  1  0  0  0  0
 12 11  1  0  0  0  0
 14 11  1  0  0  0  0
 15 18  1  0  0  0  0
 15 17  1  0  0  0  0
 16 15  1  0  0  0  0
 19  2  1  0  0  0  0
 20 19  1  0  0  0  0
 21 19  1  0  0  0  0
 22 19  1  0  0  0  0
 23 25  1  0  0  0  0
 23 24  1  0  0  0  0
 23  3  1  0  0  0  0
 26 23  1  0  0  0  0
 27 28  1  0  0  0  0
 29 27  1  0  0  0  0
 30 27  1  0  0  0  0
 31 33  1  0  0  0  0
 31 34  1  0  0  0  0
 31 32  1  0  0  0  0
M  END
