5
q = 0.0, confidence = 0.996

 36 36  0  0  1  0  0  0  0  0999 V2000
    3.0199   -2.1481   -0.0161 O   0  0  0  0  0  0  0  0  0  0  0  0
    3.7930   -0.3267   -1.1305 O   0  0  0  0  0  0  0  0  0  0  0  0
    1.8009    1.1838    0.1443 N   0  0  0  0  0  0  0  0  0  0  0  0
    0.5034    2.6629   -0.7614 N   0  0  0  0  0  0  0  0  0  0  0  0
    0.4808    1.4223   -0.1714 C   0  0  0  0  0  2  0  0  0  0  0  0
    2.6157    2.2394   -0.2451 C   0  0  0  0  0  0  0  0  0  0  0  0
    3.6983    2.2191   -0.1071 H   0  0  0  0  0  0  0  0  0  0  0  0
    1.7959    3.1738   -0.8090 C   0  0  0  0  0  0  0  0  0  0  0  0
    2.0176    4.1518   -1.2447 H   0  0  0  0  0  0  0  0  0  0  0  0
    2.3122   -0.0231    0.7854 C   0  0  2  0  0  0  0  0  0  0  0  0
    1.4228   -0.6032    1.1063 H   0  0  0  0  0  0  0  0  0  0  0  0
    3.1531    0.2885    2.0656 C   0  0  0  0  0  0  0  0  0  0  0  0
    4.1463    0.6726    1.7359 H   0  0  0  0  0  0  0  0  0  0  0  0
    2.4669    1.3562    2.9286 C   0  0  0  0  0  0  0  0  0  0  0  0
    3.0385    1.5008    3.8672 H   0  0  0  0  0  0  0  0  0  0  0  0
    1.4346    1.0400    3.1807 H   0  0  0  0  0  0  0  0  0  0  0  0
    2.4056    2.3362    2.4170 H   0  0  0  0  0  0  0  0  0  0  0  0
    3.3701   -0.9967    2.8752 C   0  0  0  0  0  0  0  0  0  0  0  0
    3.9809   -0.7826    3.7745 H   0  0  0  0  0  0  0  0  0  0  0  0
    3.8801   -1.7878    2.2933 H   0  0  0  0  0  0  0  0  0  0  0  0
    2.3914   -1.3974    3.2108 H   0  0  0  0  0  0  0  0  0  0  0  0
    3.1218   -0.8156   -0.2376 C   0  0  0  0  0  0  0  0  0  0  0  0
    3.8310   -3.0061   -0.8582 C   0  0  0  0  0  0  0  0  0  0  0  0
    4.0189   -3.9036   -0.2376 H   0  0  0  0  0  0  0  0  0  0  0  0
    4.7917   -2.4925   -1.0631 H   0  0  0  0  0  0  0  0  0  0  0  0
    3.1198   -3.3602   -2.1532 C   0  0  0  0  0  0  0  0  0  0  0  0
    3.7483   -4.0526   -2.7489 H   0  0  0  0  0  0  0  0  0  0  0  0
    2.9401   -2.4538   -2.7636 H   0  0  0  0  0  0  0  0  0  0  0  0
    2.1510   -3.8618   -1.9584 H   0  0  0  0  0  0  0  0  0  0  0  0
   -0.6337    3.4009   -1.3193 C   0  0  0  0  0  0  0  0  0  0  0  0
   -1.5024    2.7193   -1.2794 H   0  0  0  0  0  0  0  0  0  0  0  0
   -0.3936    3.6276   -2.3807 H   0  0  0  0  0  0  0  0  0  0  0  0
   -0.9480    4.6714   -0.5376 C   0  0  0  0  0  0  0  0  0  0  0  0
   -1.8044    5.1945   -1.0073 H   0  0  0  0  0  0  0  0  0  0  0  0
   -0.0908    5.3749   -0.5120 H   0  0  0  0  0  0  0  0  0  0  0  0
   -1.2348    4.4005    0.4967 H   0  0  0  0  0  0  0  0  0  0  0  0
  2 22  2  0  0  0  0
  3 10  1  0  0  0  0
  4  5  1  0  0  0  0
  5  3  1  0  0  0  0
  6  7  1  0  0  0  0
  6  3  1  0  0  0  0
  8  4  1  0  0  0  0
  8  6  2  0  0  0  0
  9  8  1  0  0  0  0
 10 11  1  1  0  0  0
 10 12  1  0  0  0  0
 12 18  1  0  0  0  0
 12 14  1  0  0  0  0
 13 12  1  0  0  0  0
 14 16  1  0  0  0  0
 14 15  1  0  0  0  0
 17 14  1  0  0  0  0
 18 21  1  0  0  0  0
 18 19  1  0  0  0  0
 20 18  1  0  0  0  0
 22  1  1  0  0  0  0
 22 10  1  0  0  0  0
 23 24  1  0  0  0  0
 23  1  1  0  0  0  0
 25 23  1  0  0  0  0
 26 29  1  0  0  0  0
 26 23  1  0  0  0  0
 27 26  1  0  0  0  0
 28 26  1  0  0  0  0
 30 31  1  0  0  0  0
 30  4  1  0  0  0  0
 30 33  1  0  0  0  0
 32 30  1  0  0  0  0
 33 35  1  0  0  0  0
 33 36  1  0  0  0  0
 34 33  1  0  0  0  0
M  END
