1
q = 0.0, confidence = 1.0

 25 26  0  0  0  0  0  0  0  0999 V2000
   -0.2416    0.1736   -0.0344 C   0  0  0  0  0  2  0  0  0  0  0  0
    0.2778    1.4356   -0.1336 N   0  0  0  0  0  0  0  0  0  0  0  0
    0.8946   -0.6802    0.0245 C   0  0  0  0  0  0  0  0  0  0  0  0
    0.8652   -1.7667    0.1477 H   0  0  0  0  0  0  0  0  0  0  0  0
    1.6569    1.4147   -0.1159 N   0  0  0  0  0  0  0  0  0  0  0  0
    2.0513    0.1007   -0.0268 C   0  0  0  0  0  0  0  0  0  0  0  0
    3.4612   -0.3161    0.0248 C   0  0  0  0  0  0  0  0  0  0  0  0
    3.8810   -1.4248   -0.7440 C   0  0  0  0  0  0  0  0  0  0  0  0
    3.1547   -1.9290   -1.3987 H   0  0  0  0  0  0  0  0  0  0  0  0
    5.2092   -1.8664   -0.6857 C   0  0  0  0  0  0  0  0  0  0  0  0
    5.5234   -2.7284   -1.2931 H   0  0  0  0  0  0  0  0  0  0  0  0
    6.1372   -1.2098    0.1385 C   0  0  0  0  0  0  0  0  0  0  0  0
    7.1803   -1.5573    0.1817 H   0  0  0  0  0  0  0  0  0  0  0  0
    5.7280   -0.1139    0.9148 C   0  0  0  0  0  0  0  0  0  0  0  0
    6.4459    0.3918    1.5779 H   0  0  0  0  0  0  0  0  0  0  0  0
    4.3993    0.3289    0.8640 C   0  0  0  0  0  0  0  0  0  0  0  0
    4.0753    1.1597    1.5091 H   0  0  0  0  0  0  0  0  0  0  0  0
   -0.4463    2.6897   -0.1851 C   0  0  0  0  0  0  0  0  0  0  0  0
   -1.5177    2.4217   -0.1263 H   0  0  0  0  0  0  0  0  0  0  0  0
   -0.2599    3.2308   -1.1346 H   0  0  0  0  0  0  0  0  0  0  0  0
   -0.1830    3.3392    0.6740 H   0  0  0  0  0  0  0  0  0  0  0  0
    2.4315    2.5766   -0.5009 C   0  0  0  0  0  0  0  0  0  0  0  0
    3.4922    2.2757   -0.5531 H   0  0  0  0  0  0  0  0  0  0  0  0
    2.3298    3.3952    0.2391 H   0  0  0  0  0  0  0  0  0  0  0  0
    2.1209    2.9474   -1.4993 H   0  0  0  0  0  0  0  0  0  0  0  0
  1  3  1  0  0  0  0
  2  5  1  0  0  0  0
  2  1  1  0  0  0  0
  3  4  1  0  0  0  0
  5  6  1  0  0  0  0
  6  3  2  0  0  0  0
  6  7  1  0  0  0  0
  7 16  1  0  0  0  0
  8 10  1  0  0  0  0
  8  7  2  0  0  0  0
  9  8  1  0  0  0  0
 10 12  2  0  0  0  0
 11 10  1  0  0  0  0
 12 13  1  0  0  0  0
 12 14  1  0  0  0  0
 14 15  1  0  0  0  0
 16 14  2  0  0  0  0
 16 17  1  0  0  0  0
 18  2  1  0  0  0  0
 18 19  1  0  0  0  0
 18 21  1  0  0  0  0
 20 18  1  0  0  0  0
 22  5  1  0  0  0  0
 22 24  1  0  0  0  0
 23 22  1  0  0  0  0
 25 22  1  0  0  0  0
M  END
