1
q = 0.0, confidence = 0.992

 20 21  0  0  1  0  0  0  0  0999 V2000
    0.1419    0.7988    0.0505 C   0  0  0  0  0  2  0  0  0  0  0  0
   -1.6468    2.0189    0.8225 C   0  0  0  0  0  0  0  0  0  0  0  0
   -2.1149    1.2772   -0.4586 C   0  0  1  0  0  0  0  0  0  0  0  0
   -0.8322    0.6710   -0.8535 N   0  0  0  0  0  0  0  0  0  0  0  0
   -0.2799    1.5583    1.0570 O   0  0  0  0  0  0  0  0  0  0  0  0
   -2.9588   -0.9164    0.5108 C   0  0  0  0  0  0  0  0  0  0  0  0
   -3.9840   -1.8454    0.7349 C   0  0  0  0  0  0  0  0  0  0  0  0
   -5.2675   -1.6205    0.2097 C   0  0  0  0  0  0  0  0  0  0  0  0
   -5.5217   -0.4644   -0.5434 C   0  0  0  0  0  0  0  0  0  0  0  0
   -4.4947    0.4648   -0.7705 C   0  0  0  0  0  0  0  0  0  0  0  0
   -3.2087    0.2481   -0.2433 C   0  0  0  0  0  0  0  0  0  0  0  0
   -2.2491    1.7625    1.7138 H   0  0  0  0  0  0  0  0  0  0  0  0
   -1.6114    3.1187    0.6991 H   0  0  0  0  0  0  0  0  0  0  0  0
   -2.4434    2.0008   -1.2327 H   0  0  0  0  0  0  0  0  0  0  0  0
   -0.7293    0.0655   -1.6700 H   0  0  0  0  0  0  0  0  0  0  0  0
   -1.9530   -1.1060    0.9188 H   0  0  0  0  0  0  0  0  0  0  0  0
   -3.7785   -2.7536    1.3211 H   0  0  0  0  0  0  0  0  0  0  0  0
   -6.0704   -2.3522    0.3848 H   0  0  0  0  0  0  0  0  0  0  0  0
   -6.5236   -0.2858   -0.9616 H   0  0  0  0  0  0  0  0  0  0  0  0
   -4.6939    1.3702   -1.3660 H   0  0  0  0  0  0  0  0  0  0  0  0
  1  5  1  0  0  0  0
  2  5  1  0  0  0  0
  2 12  1  0  0  0  0
  3 14  1  6  0  0  0
  3 11  1  0  0  0  0
  3  2  1  0  0  0  0
  4  3  1  0  0  0  0
  4  1  1  0  0  0  0
  6  7  1  0  0  0  0
  6 16  1  0  0  0  0
  7 17  1  0  0  0  0
  8 18  1  0  0  0  0
  8  7  2  0  0  0  0
  9  8  1  0  0  0  0
 10  9  2  0  0  0  0
 10 11  1  0  0  0  0
 11  6  2  0  0  0  0
 13  2  1  0  0  0  0
 15  4  1  0  0  0  0
 19  9  1  0  0  0  0
 20 10  1  0  0  0  0
M  END
