5
q = -1.0

 15 15  0  0  0  0  0  0  0  0999 V2000
    1.4782   -0.9329   -1.2773 C   0  0  0  0  0  0  0  0  0  0  0  0
    1.7628   -0.5662   -2.2785 H   0  0  0  0  0  0  0  0  0  0  0  0
    0.4134   -1.8671   -1.2363 C   0  0  0  0  0  0  0  0  0  0  0  0
   -0.0711   -2.2133   -2.1642 H   0  0  0  0  0  0  0  0  0  0  0  0
   -0.1125   -2.3369   -0.0001 C   0  0  0  0  0  3  0  0  0  0  0  0
   -0.9514   -3.0478   -0.0002 H   0  0  0  0  0  0  0  0  0  0  0  0
    0.4133   -1.8672    1.2361 C   0  0  0  0  0  3  0  0  0  0  0  0
   -0.0713   -2.2134    2.1640 H   0  0  0  0  0  0  0  0  0  0  0  0
    1.4782   -0.9330    1.2773 C   0  0  0  0  0  0  0  0  0  0  0  0
    1.7625   -0.5663    2.2786 H   0  0  0  0  0  0  0  0  0  0  0  0
    3.4742    0.4796   -0.0001 C   0  0  0  0  0  0  0  0  0  0  0  0
    3.5447    1.1264   -0.8982 H   0  0  0  0  0  0  0  0  0  0  0  0
    2.1942   -0.4538    0.0000 B   0  0  0  0  0  0  0  0  0  0  0  0
    4.3840   -0.1610   -0.0009 H   0  0  0  0  0  0  0  0  0  0  0  0
    3.5456    1.1256    0.8985 H   0  0  0  0  0  0  0  0  0  0  0  0
  1  3  2  0  0  0  0
  1 13  1  0  0  0  0
  2  1  1  0  0  0  0
  3  5  1  0  0  0  0
  4  3  1  0  0  0  0
  5  7  1  0  0  0  0
  6  5  1  0  0  0  0
  7  9  1  0  0  0  0
  7  8  1  0  0  0  0
  9 10  1  0  0  0  0
 11 13  1  0  0  0  0
 11 15  1  0  0  0  0
 12 11  1  0  0  0  0
 13  9  2  0  0  0  0
 14 11  1  0  0  0  0
M  END
