1
q = 0.0, confidence = 0.998

 39 40  0  0  0  0  0  0  0  0999 V2000
    1.1732   -1.0755   -1.2695 C   0  0  0  0  0  2  0  0  0  0  0  0
    2.4393   -0.7618   -1.6711 N   0  0  0  0  0  0  0  0  0  0  0  0
    0.9018   -2.2789   -1.8542 N   0  0  0  0  0  0  0  0  0  0  0  0
    2.9616   -1.7583   -2.4797 C   0  0  0  0  0  0  0  0  0  0  0  0
    3.9687   -1.7025   -2.9036 H   0  0  0  0  0  0  0  0  0  0  0  0
    1.9874   -2.7172   -2.5993 C   0  0  0  0  0  0  0  0  0  0  0  0
    1.9748   -3.6567   -3.1602 H   0  0  0  0  0  0  0  0  0  0  0  0
    3.1700    0.4356   -1.2298 C   0  0  0  0  0  0  0  0  0  0  0  0
    2.3981    1.1943   -0.9753 H   0  0  0  0  0  0  0  0  0  0  0  0
    3.7462    0.8130   -2.0967 H   0  0  0  0  0  0  0  0  0  0  0  0
    4.0919    0.1664   -0.0591 C   0  0  0  0  0  0  0  0  0  0  0  0
    5.4883    0.2323   -0.2172 C   0  0  0  0  0  0  0  0  0  0  0  0
    5.9145    0.4906   -1.2000 H   0  0  0  0  0  0  0  0  0  0  0  0
    6.3420   -0.0203    0.8686 C   0  0  0  0  0  0  0  0  0  0  0  0
    7.4323    0.0369    0.7325 H   0  0  0  0  0  0  0  0  0  0  0  0
    5.8049   -0.3460    2.1228 C   0  0  0  0  0  0  0  0  0  0  0  0
    6.4731   -0.5457    2.9738 H   0  0  0  0  0  0  0  0  0  0  0  0
    4.4113   -0.4140    2.2899 C   0  0  0  0  0  0  0  0  0  0  0  0
    3.9862   -0.6653    3.2734 H   0  0  0  0  0  0  0  0  0  0  0  0
    3.5604   -0.1574    1.2064 C   0  0  0  0  0  0  0  0  0  0  0  0
    2.4658   -0.2117    1.3367 H   0  0  0  0  0  0  0  0  0  0  0  0
   -0.3392   -3.0380   -1.6691 C   0  0  0  0  0  0  0  0  0  0  0  0
   -0.6835   -3.3747   -2.6672 H   0  0  0  0  0  0  0  0  0  0  0  0
   -1.0889   -2.3293   -1.2669 H   0  0  0  0  0  0  0  0  0  0  0  0
   -0.1656   -4.2295   -0.7229 C   0  0  0  0  0  0  0  0  0  0  0  0
   -1.0886   -4.8427   -0.7780 H   0  0  0  0  0  0  0  0  0  0  0  0
    0.6476   -4.8866   -1.0966 H   0  0  0  0  0  0  0  0  0  0  0  0
    0.1478   -3.8495    0.7268 C   0  0  0  0  0  0  0  0  0  0  0  0
    0.4288   -4.7799    1.2874 H   0  0  0  0  0  0  0  0  0  0  0  0
    1.0494   -3.2001    0.7421 H   0  0  0  0  0  0  0  0  0  0  0  0
   -0.9259   -3.1270    1.4107 N   0  0  0  0  0  0  0  0  0  0  0  0
   -2.0931   -3.9647    1.6579 C   0  0  0  0  0  0  0  0  0  0  0  0
   -1.8645   -4.8464    2.3113 H   0  0  0  0  0  0  0  0  0  0  0  0
   -2.5187   -4.3451    0.7090 H   0  0  0  0  0  0  0  0  0  0  0  0
   -2.8839   -3.3720    2.1595 H   0  0  0  0  0  0  0  0  0  0  0  0
   -0.4393   -2.5316    2.6491 C   0  0  0  0  0  0  0  0  0  0  0  0
   -1.2431   -1.9368    3.1285 H   0  0  0  0  0  0  0  0  0  0  0  0
    0.4047   -1.8462    2.4308 H   0  0  0  0  0  0  0  0  0  0  0  0
   -0.0903   -3.2929    3.3935 H   0  0  0  0  0  0  0  0  0  0  0  0
  2  1  1  0  0  0  0
  2  8  1  0  0  0  0
  3 22  1  0  0  0  0
  3  1  1  0  0  0  0
  4  2  1  0  0  0  0
  5  4  1  0  0  0  0
  6  4  2  0  0  0  0
  6  3  1  0  0  0  0
  7  6  1  0  0  0  0
  8  9  1  0  0  0  0
  8 11  1  0  0  0  0
 10  8  1  0  0  0  0
 11 20  1  0  0  0  0
 12 11  2  0  0  0  0
 12 14  1  0  0  0  0
 13 12  1  0  0  0  0
 14 16  2  0  0  0  0
 15 14  1  0  0  0  0
 16 18  1  0  0  0  0
 16 17  1  0  0  0  0
 18 19  1  0  0  0  0
 20 21  1  0  0  0  0
 20 18  2  0  0  0  0
 22 24  1  0  0  0  0
 22 25  1  0  0  0  0
 23 22  1  0  0  0  0
 25 28  1  0  0  0  0
 26 25  1  0  0  0  0
 27 25  1  0  0  0  0
 28 30  1  0  0  0  0
 28 29  1  0  0  0  0
 28 31  1  0  0  0  0
 31 32  1  0  0  0  0
 31 36  1  0  0  0  0
 32 35  1  0  0  0  0
 32 33  1  0  0  0  0
 34 32  1  0  0  0  0
 36 37  1  0  0  0  0
 36 39  1  0  0  0  0
 38 36  1  0  0  0  0
M  END
