5
q = 0.0, confidence = 0.982

 33 34  0  0  0  0  0  0  0  0999 V2000
   -5.8397    0.5561    0.1856 Br  0  0  0  0  0  0  0  0  0  0  0  0
   -0.9929    2.8097   -0.6948 N   0  0  0  0  0  0  0  0  0  0  0  0
   -2.3893    1.3596   -1.4020 N   0  0  0  0  0  0  0  0  0  0  0  0
   -2.9310    2.5658   -1.7506 N   0  0  0  0  0  0  0  0  0  0  0  0
   -1.2025    1.4577   -0.7570 C   0  0  0  0  0  2  0  0  0  0  0  0
   -2.0544    3.4385   -1.3089 C   0  0  0  0  0  0  0  0  0  0  0  0
   -2.1557    4.5242   -1.4102 H   0  0  0  0  0  0  0  0  0  0  0  0
    0.1839    3.4431   -0.0859 C   0  0  0  0  0  0  0  0  0  0  0  0
    0.6961    2.6081    0.4365 H   0  0  0  0  0  0  0  0  0  0  0  0
   -0.2109    4.4813    0.9705 C   0  0  0  0  0  0  0  0  0  0  0  0
   -0.8557    3.9912    1.7282 H   0  0  0  0  0  0  0  0  0  0  0  0
   -0.8051    5.2951    0.4971 H   0  0  0  0  0  0  0  0  0  0  0  0
    1.0455    5.0780    1.6176 C   0  0  0  0  0  0  0  0  0  0  0  0
    0.7570    5.8464    2.3637 H   0  0  0  0  0  0  0  0  0  0  0  0
    1.5701    4.2759    2.1832 H   0  0  0  0  0  0  0  0  0  0  0  0
    1.9952    5.6701    0.5675 C   0  0  0  0  0  0  0  0  0  0  0  0
    2.9096    6.0681    1.0541 H   0  0  0  0  0  0  0  0  0  0  0  0
    1.5010    6.5378    0.0747 H   0  0  0  0  0  0  0  0  0  0  0  0
    2.3693    4.6313   -0.4979 C   0  0  0  0  0  0  0  0  0  0  0  0
    3.0226    5.0805   -1.2739 H   0  0  0  0  0  0  0  0  0  0  0  0
    2.9632    3.8191   -0.0231 H   0  0  0  0  0  0  0  0  0  0  0  0
    1.1256    4.0168   -1.1534 C   0  0  0  0  0  0  0  0  0  0  0  0
    1.4024    3.2117   -1.8659 H   0  0  0  0  0  0  0  0  0  0  0  0
    0.5857    4.7952   -1.7382 H   0  0  0  0  0  0  0  0  0  0  0  0
   -3.0942    0.1236   -1.7387 C   0  0  0  0  0  0  0  0  0  0  0  0
   -4.0481    0.4439   -2.1972 H   0  0  0  0  0  0  0  0  0  0  0  0
   -2.4867   -0.4232   -2.4886 H   0  0  0  0  0  0  0  0  0  0  0  0
   -3.3379   -0.7656   -0.5195 C   0  0  0  0  0  0  0  0  0  0  0  0
   -2.3516   -1.1184   -0.1358 H   0  0  0  0  0  0  0  0  0  0  0  0
   -3.8981   -1.6612   -0.8593 H   0  0  0  0  0  0  0  0  0  0  0  0
   -4.0420   -0.1067    0.6516 C   0  0  0  0  0  0  0  0  0  0  0  0
   -4.1896   -0.8200    1.4823 H   0  0  0  0  0  0  0  0  0  0  0  0
   -3.4769    0.7622    1.0390 H   0  0  0  0  0  0  0  0  0  0  0  0
  1 31  1  0  0  0  0
  2  8  1  0  0  0  0
  3  5  1  0  0  0  0
  4  3  1  0  0  0  0
  4  6  2  0  0  0  0
  5  2  1  0  0  0  0
  6  2  1  0  0  0  0
  7  6  1  0  0  0  0
  8  9  1  0  0  0  0
  8 10  1  0  0  0  0
 10 13  1  0  0  0  0
 10 11  1  0  0  0  0
 12 10  1  0  0  0  0
 13 15  1  0  0  0  0
 13 14  1  0  0  0  0
 16 17  1  0  0  0  0
 16 13  1  0  0  0  0
 18 16  1  0  0  0  0
 19 21  1  0  0  0  0
 19 16  1  0  0  0  0
 20 19  1  0  0  0  0
 22 19  1  0  0  0  0
 22  8  1  0  0  0  0
 23 22  1  0  0  0  0
 24 22  1  0  0  0  0
 25  3  1  0  0  0  0
 25 28  1  0  0  0  0
 26 25  1  0  0  0  0
 27 25  1  0  0  0  0
 28 29  1  0  0  0  0
 28 31  1  0  0  0  0
 30 28  1  0  0  0  0
 31 33  1  0  0  0  0
 31 32  1  0  0  0  0
M  END
