2
q = 0.0, confidence = 0.922

 59 63  0  0  0  0  0  0  0  0999 V2000
   -0.9881   -0.2432   -0.9954 P   0  0  0  0  0  4  0  0  0  0  0  0
   -0.2721    0.2235    0.5859 C   0  0  0  0  0  3  0  0  0  0  0  0
    1.0459    0.2295    0.5490 C   0  0  0  0  0  0  0  0  0  0  0  0
    2.3861    0.2029    0.5317 C   0  0  0  0  0  0  0  0  0  0  0  0
    0.2440   -0.2360   -2.3499 C   0  0  0  0  0  0  0  0  0  0  0  0
    0.2092    0.6877   -3.4140 C   0  0  0  0  0  0  0  0  0  0  0  0
    1.2678    0.7319   -4.3349 C   0  0  0  0  0  0  0  0  0  0  0  0
    2.3652   -0.1320   -4.1930 C   0  0  0  0  0  0  0  0  0  0  0  0
    2.3951   -1.0627   -3.1415 C   0  0  0  0  0  0  0  0  0  0  0  0
    1.3365   -1.1230   -2.2264 C   0  0  0  0  0  0  0  0  0  0  0  0
   -1.5682   -1.9697   -0.9444 C   0  0  0  0  0  0  0  0  0  0  0  0
   -1.5658   -2.6948    0.2608 C   0  0  0  0  0  0  0  0  0  0  0  0
   -1.9448   -4.0444    0.2591 C   0  0  0  0  0  0  0  0  0  0  0  0
   -2.3334   -4.6684   -0.9372 C   0  0  0  0  0  0  0  0  0  0  0  0
   -2.3316   -3.9451   -2.1412 C   0  0  0  0  0  0  0  0  0  0  0  0
   -1.9410   -2.5986   -2.1511 C   0  0  0  0  0  0  0  0  0  0  0  0
   -2.3300    0.8681   -1.4988 C   0  0  0  0  0  0  0  0  0  0  0  0
   -2.0454    2.2490   -1.5514 C   0  0  0  0  0  0  0  0  0  0  0  0
   -3.0402    3.1482   -1.9552 C   0  0  0  0  0  0  0  0  0  0  0  0
   -4.3149    2.6748   -2.3060 C   0  0  0  0  0  0  0  0  0  0  0  0
   -4.5993    1.3017   -2.2435 C   0  0  0  0  0  0  0  0  0  0  0  0
   -3.6111    0.3932   -1.8386 C   0  0  0  0  0  0  0  0  0  0  0  0
    3.1195   -1.0767    0.7177 C   0  0  0  0  0  0  0  0  0  0  0  0
    2.4389   -2.2463    1.1422 C   0  0  0  0  0  0  0  0  0  0  0  0
    3.1057   -3.4704    1.2608 C   0  0  0  0  0  0  0  0  0  0  0  0
    4.4751   -3.5667    0.9568 C   0  0  0  0  0  0  0  0  0  0  0  0
    5.1611   -2.4209    0.5262 C   0  0  0  0  0  0  0  0  0  0  0  0
    4.4949   -1.1921    0.4057 C   0  0  0  0  0  0  0  0  0  0  0  0
    3.1183    1.4767    0.2535 C   0  0  0  0  0  0  0  0  0  0  0  0
    2.7697    2.2677   -0.8625 C   0  0  0  0  0  0  0  0  0  0  0  0
    3.4234    3.4825   -1.1122 C   0  0  0  0  0  0  0  0  0  0  0  0
    4.4391    3.9285   -0.2515 C   0  0  0  0  0  0  0  0  0  0  0  0
    4.7952    3.1496    0.8617 C   0  0  0  0  0  0  0  0  0  0  0  0
    4.1423    1.9341    1.1126 C   0  0  0  0  0  0  0  0  0  0  0  0
   -0.6435    1.3732   -3.5237 H   0  0  0  0  0  0  0  0  0  0  0  0
    1.2344    1.4517   -5.1667 H   0  0  0  0  0  0  0  0  0  0  0  0
    3.2001   -0.0827   -4.9083 H   0  0  0  0  0  0  0  0  0  0  0  0
    3.2516   -1.7430   -3.0219 H   0  0  0  0  0  0  0  0  0  0  0  0
    1.3666   -1.8590   -1.4090 H   0  0  0  0  0  0  0  0  0  0  0  0
   -1.2900   -2.1729    1.1897 H   0  0  0  0  0  0  0  0  0  0  0  0
   -1.9422   -4.6111    1.2024 H   0  0  0  0  0  0  0  0  0  0  0  0
   -2.6365   -5.7264   -0.9332 H   0  0  0  0  0  0  0  0  0  0  0  0
   -2.6276   -4.4343   -3.0813 H   0  0  0  0  0  0  0  0  0  0  0  0
   -1.9119   -2.0398   -3.0992 H   0  0  0  0  0  0  0  0  0  0  0  0
   -1.0564    2.6220   -1.2451 H   0  0  0  0  0  0  0  0  0  0  0  0
   -2.8224    4.2260   -1.9748 H   0  0  0  0  0  0  0  0  0  0  0  0
   -5.0974    3.3841   -2.6157 H   0  0  0  0  0  0  0  0  0  0  0  0
   -5.6041    0.9326   -2.4973 H   0  0  0  0  0  0  0  0  0  0  0  0
   -3.8443   -0.6774   -1.7558 H   0  0  0  0  0  0  0  0  0  0  0  0
    1.3632   -2.1831    1.3671 H   0  0  0  0  0  0  0  0  0  0  0  0
    2.5501   -4.3607    1.5940 H   0  0  0  0  0  0  0  0  0  0  0  0
    5.0006   -4.5288    1.0517 H   0  0  0  0  0  0  0  0  0  0  0  0
    6.2314   -2.4819    0.2747 H   0  0  0  0  0  0  0  0  0  0  0  0
    5.0437   -0.3082    0.0507 H   0  0  0  0  0  0  0  0  0  0  0  0
    1.9826    1.9081   -1.5419 H   0  0  0  0  0  0  0  0  0  0  0  0
    3.1403    4.0831   -1.9904 H   0  0  0  0  0  0  0  0  0  0  0  0
    4.9529    4.8821   -0.4468 H   0  0  0  0  0  0  0  0  0  0  0  0
    5.5847    3.4955    1.5466 H   0  0  0  0  0  0  0  0  0  0  0  0
    4.4159    1.3326    1.9928 H   0  0  0  0  0  0  0  0  0  0  0  0
  1 11  1  0  0  0  0
  1  2  1  0  0  0  0
  3  2  2  0  0  0  0
  4  3  2  0  0  0  0
  4 23  1  0  0  0  0
  5 10  1  0  0  0  0
  5  1  1  0  0  0  0
  6  5  2  0  0  0  0
  7  8  2  0  0  0  0
  7  6  1  0  0  0  0
  8  9  1  0  0  0  0
  9 38  1  0  0  0  0
  9 10  2  0  0  0  0
 10 39  1  0  0  0  0
 11 12  1  0  0  0  0
 12 40  1  0  0  0  0
 13 12  2  0  0  0  0
 13 41  1  0  0  0  0
 14 42  1  0  0  0  0
 14 13  1  0  0  0  0
 15 14  2  0  0  0  0
 16 15  1  0  0  0  0
 16 11  2  0  0  0  0
 17  1  1  0  0  0  0
 18 17  1  0  0  0  0
 18 45  1  0  0  0  0
 19 18  2  0  0  0  0
 20 21  2  0  0  0  0
 20 19  1  0  0  0  0
 21 22  1  0  0  0  0
 22 49  1  0  0  0  0
 22 17  2  0  0  0  0
 23 24  1  0  0  0  0
 24 25  2  0  0  0  0
 24 50  1  0  0  0  0
 25 51  1  0  0  0  0
 26 52  1  0  0  0  0
 26 25  1  0  0  0  0
 27 26  2  0  0  0  0
 28 27  1  0  0  0  0
 28 23  2  0  0  0  0
 29  4  1  0  0  0  0
 29 34  1  0  0  0  0
 30 29  2  0  0  0  0
 31 30  1  0  0  0  0
 31 32  2  0  0  0  0
 32 33  1  0  0  0  0
 33 34  2  0  0  0  0
 33 58  1  0  0  0  0
 34 59  1  0  0  0  0
 35  6  1  0  0  0  0
 36  7  1  0  0  0  0
 37  8  1  0  0  0  0
 43 15  1  0  0  0  0
 44 16  1  0  0  0  0
 46 19  1  0  0  0  0
 47 20  1  0  0  0  0
 48 21  1  0  0  0  0
 53 27  1  0  0  0  0
 54 28  1  0  0  0  0
 55 30  1  0  0  0  0
 56 31  1  0  0  0  0
 57 32  1  0  0  0  0
M  END
