8
q = 0.0, confidence = 0.972

 30 29  0  0  0  0  0  0  0  0999 V2000
    2.9495   -1.2113    0.4404 O   0  0  0  0  0  0  0  0  0  0  0  0
    2.0887   -1.0616   -1.6621 O   0  0  0  0  0  0  0  0  0  0  0  0
   -2.8921   -1.1143   -0.7172 O   0  0  0  0  0  0  0  0  0  0  0  0
   -1.9895   -1.6808    1.2995 O   0  0  0  0  0  0  0  0  0  0  0  0
    1.9309   -1.0547   -0.4462 C   0  0  0  0  0  0  0  0  0  0  0  0
    0.6419   -0.8864    0.2701 C   0  0  0  0  0  3  0  0  0  0  0  0
    0.6253   -1.2849    1.2961 H   0  0  0  0  0  0  0  0  0  0  0  0
   -0.5884   -0.8133   -0.4602 C   0  0  0  0  0  3  0  0  0  0  0  0
   -0.5560   -0.8384   -1.5607 H   0  0  0  0  0  0  0  0  0  0  0  0
   -1.8600   -1.2600    0.1582 C   0  0  0  0  0  0  0  0  0  0  0  0
    4.2814   -1.3949   -0.1113 C   0  0  0  0  0  0  0  0  0  0  0  0
    4.1733   -1.9911   -1.0421 H   0  0  0  0  0  0  0  0  0  0  0  0
    4.8838   -0.0374   -0.4618 C   0  0  0  0  0  0  0  0  0  0  0  0
    4.2819    0.4595   -1.2467 H   0  0  0  0  0  0  0  0  0  0  0  0
    5.9145   -0.1613   -0.8503 H   0  0  0  0  0  0  0  0  0  0  0  0
    4.9270    0.6139    0.4351 H   0  0  0  0  0  0  0  0  0  0  0  0
    5.0727   -2.1643    0.9352 C   0  0  0  0  0  0  0  0  0  0  0  0
    4.5823   -3.1298    1.1666 H   0  0  0  0  0  0  0  0  0  0  0  0
    5.1517   -1.5816    1.8754 H   0  0  0  0  0  0  0  0  0  0  0  0
    6.0968   -2.3716    0.5668 H   0  0  0  0  0  0  0  0  0  0  0  0
   -4.2220   -1.3947   -0.2004 C   0  0  0  0  0  0  0  0  0  0  0  0
   -4.1329   -2.2620    0.4874 H   0  0  0  0  0  0  0  0  0  0  0  0
   -5.0830   -1.7456   -1.4036 C   0  0  0  0  0  0  0  0  0  0  0  0
   -4.6628   -2.6132   -1.9489 H   0  0  0  0  0  0  0  0  0  0  0  0
   -5.1440   -0.8900   -2.1068 H   0  0  0  0  0  0  0  0  0  0  0  0
   -6.1109   -2.0016   -1.0785 H   0  0  0  0  0  0  0  0  0  0  0  0
   -4.7209   -0.1866    0.5870 C   0  0  0  0  0  0  0  0  0  0  0  0
   -4.0554    0.0136    1.4489 H   0  0  0  0  0  0  0  0  0  0  0  0
   -5.7412   -0.3749    0.9771 H   0  0  0  0  0  0  0  0  0  0  0  0
   -4.7553    0.7135   -0.0606 H   0  0  0  0  0  0  0  0  0  0  0  0
  2  5  2  0  0  0  0
  3 21  1  0  0  0  0
  3 10  1  0  0  0  0
  5  6  1  0  0  0  0
  5  1  1  0  0  0  0
  6  7  1  0  0  0  0
  8 10  1  0  0  0  0
  8  6  1  0  0  0  0
  9  8  1  0  0  0  0
 10  4  2  0  0  0  0
 11  1  1  0  0  0  0
 11 17  1  0  0  0  0
 12 11  1  0  0  0  0
 13 11  1  0  0  0  0
 13 16  1  0  0  0  0
 14 13  1  0  0  0  0
 15 13  1  0  0  0  0
 17 18  1  0  0  0  0
 17 19  1  0  0  0  0
 20 17  1  0  0  0  0
 21 22  1  0  0  0  0
 21 27  1  0  0  0  0
 23 26  1  0  0  0  0
 23 21  1  0  0  0  0
 24 23  1  0  0  0  0
 25 23  1  0  0  0  0
 27 29  1  0  0  0  0
 27 28  1  0  0  0  0
 30 27  1  0  0  0  0
M  END
