3
q = -1.0

 18 17  0  0  0  0  0  0  0  0999 V2000
    4.0956   -0.2638    0.3544 Si  0  0  0  0  0  0  0  0  0  0  0  0
    1.4291   -0.2267   -1.5790 O   0  0  0  0  0  0  0  0  0  0  0  0
    1.3758   -0.6585   -0.4001 C   0  0  0  0  0  3  0  0  0  0  0  0
    2.5012   -1.3454    0.2899 C   0  0  0  0  0  0  0  0  0  0  0  0
    5.2546   -1.0642    1.6172 C   0  0  0  0  0  0  0  0  0  0  0  0
    4.8625   -0.2605   -1.3712 C   0  0  0  0  0  0  0  0  0  0  0  0
    3.6534    1.4932    0.8773 C   0  0  0  0  0  0  0  0  0  0  0  0
    2.7861   -2.2476   -0.2961 H   0  0  0  0  0  0  0  0  0  0  0  0
    2.2088   -1.6575    1.3104 H   0  0  0  0  0  0  0  0  0  0  0  0
    5.4875   -2.1140    1.3442 H   0  0  0  0  0  0  0  0  0  0  0  0
    6.2142   -0.5100    1.6771 H   0  0  0  0  0  0  0  0  0  0  0  0
    4.8001   -1.0650    2.6292 H   0  0  0  0  0  0  0  0  0  0  0  0
    5.1967   -1.2764   -1.6665 H   0  0  0  0  0  0  0  0  0  0  0  0
    5.7394    0.4170   -1.4242 H   0  0  0  0  0  0  0  0  0  0  0  0
    4.1086    0.0786   -2.1105 H   0  0  0  0  0  0  0  0  0  0  0  0
    4.5654    2.1091    1.0147 H   0  0  0  0  0  0  0  0  0  0  0  0
    3.0322    1.9702    0.0931 H   0  0  0  0  0  0  0  0  0  0  0  0
    3.0743    1.4936    1.8223 H   0  0  0  0  0  0  0  0  0  0  0  0
  1  7  1  0  0  0  0
  1  5  1  0  0  0  0
  2  3  2  0  0  0  0
  3  4  1  0  0  0  0
  4  1  1  0  0  0  0
  4  9  1  0  0  0  0
  5 11  1  0  0  0  0
  5 12  1  0  0  0  0
  6  1  1  0  0  0  0
  7 16  1  0  0  0  0
  7 18  1  0  0  0  0
  8  4  1  0  0  0  0
 10  5  1  0  0  0  0
 13  6  1  0  0  0  0
 14  6  1  0  0  0  0
 15  6  1  0  0  0  0
 17  7  1  0  0  0  0
M  END
