1
q = -1.0

 26 26  0  0  0  0  0  0  0  0999 V2000
    1.5832   -2.3938    0.0210 C   0  0  0  0  0  3  0  0  0  0  0  0
    1.4604   -3.0046    0.9330 H   0  0  0  0  0  0  0  0  0  0  0  0
    1.4757   -3.0347   -0.8723 H   0  0  0  0  0  0  0  0  0  0  0  0
    2.8659   -1.6480    0.0217 C   0  0  0  0  0  0  0  0  0  0  0  0
    3.5200   -1.2949   -1.1827 C   0  0  0  0  0  0  0  0  0  0  0  0
    3.0665   -1.5777   -2.1450 H   0  0  0  0  0  0  0  0  0  0  0  0
    4.7302   -0.5961   -1.1767 C   0  0  0  0  0  0  0  0  0  0  0  0
    5.1975   -0.3479   -2.1425 H   0  0  0  0  0  0  0  0  0  0  0  0
    5.3607   -0.2086    0.0274 C   0  0  0  0  0  0  0  0  0  0  0  0
    4.7170   -0.5726    1.2272 C   0  0  0  0  0  0  0  0  0  0  0  0
    5.1651   -0.3108    2.1956 H   0  0  0  0  0  0  0  0  0  0  0  0
    3.5031   -1.2733    1.2248 C   0  0  0  0  0  0  0  0  0  0  0  0
    3.0360   -1.5382    2.1859 H   0  0  0  0  0  0  0  0  0  0  0  0
    6.6868    0.5698   -0.0127 C   0  0  0  0  0  0  0  0  0  0  0  0
    7.2137    0.8925    1.3961 C   0  0  0  0  0  0  0  0  0  0  0  0
    7.4122   -0.0275    1.9821 H   0  0  0  0  0  0  0  0  0  0  0  0
    6.5005    1.5187    1.9692 H   0  0  0  0  0  0  0  0  0  0  0  0
    8.1671    1.4539    1.3222 H   0  0  0  0  0  0  0  0  0  0  0  0
    7.7530   -0.2726   -0.7496 C   0  0  0  0  0  0  0  0  0  0  0  0
    7.9278   -1.2340   -0.2257 H   0  0  0  0  0  0  0  0  0  0  0  0
    8.7172    0.2755   -0.7977 H   0  0  0  0  0  0  0  0  0  0  0  0
    7.4462   -0.5064   -1.7883 H   0  0  0  0  0  0  0  0  0  0  0  0
    6.4709    1.9013   -0.7681 C   0  0  0  0  0  0  0  0  0  0  0  0
    7.4176    2.4789   -0.8180 H   0  0  0  0  0  0  0  0  0  0  0  0
    5.7114    2.5264   -0.2561 H   0  0  0  0  0  0  0  0  0  0  0  0
    6.1230    1.7323   -1.8064 H   0  0  0  0  0  0  0  0  0  0  0  0
  1  4  1  0  0  0  0
  1  2  1  0  0  0  0
  3  1  1  0  0  0  0
  4 12  1  0  0  0  0
  5  7  1  0  0  0  0
  5  4  2  0  0  0  0
  6  5  1  0  0  0  0
  7  9  2  0  0  0  0
  8  7  1  0  0  0  0
  9 10  1  0  0  0  0
 10 11  1  0  0  0  0
 12 10  2  0  0  0  0
 12 13  1  0  0  0  0
 14  9  1  0  0  0  0
 14 15  1  0  0  0  0
 15 17  1  0  0  0  0
 15 16  1  0  0  0  0
 18 15  1  0  0  0  0
 19 20  1  0  0  0  0
 19 14  1  0  0  0  0
 21 19  1  0  0  0  0
 22 19  1  0  0  0  0
 23 25  1  0  0  0  0
 23 14  1  0  0  0  0
 24 23  1  0  0  0  0
 26 23  1  0  0  0  0
M  END
