13
q = 0.0, confidence = 0.954

 27 28  0  0  0  0  0  0  0  0999 V2000
   -1.4402    5.2483   -0.4278 O   0  0  0  0  0  0  0  0  0  0  0  0
   -3.3801    4.2362   -0.2095 O   0  0  0  0  0  0  0  0  0  0  0  0
    0.8810    2.1368    2.1668 O   0  0  0  0  0  0  0  0  0  0  0  0
    2.8949    2.9846    2.0379 O   0  0  0  0  0  0  0  0  0  0  0  0
    6.0751   -0.2663    0.1821 O   0  0  0  0  0  0  0  0  0  0  0  0
    5.4568   -1.5247   -1.4987 O   0  0  0  0  0  0  0  0  0  0  0  0
    0.0052    1.5013   -0.3625 N   0  0  0  0  0  0  0  0  0  0  0  0
   -0.1797    2.8454   -0.3860 N   0  0  0  0  0  0  0  0  0  0  0  0
   -2.1217    1.7338   -0.2544 N   0  0  0  0  0  0  0  0  0  0  0  0
   -2.1512    4.2614   -0.3210 N   0  0  0  0  0  0  0  0  0  0  0  0
    1.9982    2.2419    1.6580 N   0  0  0  0  0  0  0  0  0  0  0  0
    5.2518   -0.6806   -0.6302 N   0  0  0  0  0  0  0  0  0  0  0  0
   -1.1514    0.7611   -0.2756 C   0  0  0  0  0  2  0  0  0  0  0  0
   -1.4829    2.9593   -0.3208 C   0  0  0  0  0  0  0  0  0  0  0  0
    1.3150    0.9501   -0.4063 C   0  0  0  0  0  0  0  0  0  0  0  0
    2.3064    1.3484    0.5145 C   0  0  0  0  0  0  0  0  0  0  0  0
    3.6067    0.8407    0.4316 C   0  0  0  0  0  0  0  0  0  0  0  0
    4.3852    1.1629    1.1346 H   0  0  0  0  0  0  0  0  0  0  0  0
    3.8774   -0.1099   -0.5544 C   0  0  0  0  0  0  0  0  0  0  0  0
    2.9071   -0.5412   -1.4688 C   0  0  0  0  0  0  0  0  0  0  0  0
    3.1791   -1.2859   -2.2284 H   0  0  0  0  0  0  0  0  0  0  0  0
    1.6194    0.0042   -1.4012 C   0  0  0  0  0  0  0  0  0  0  0  0
    0.8284   -0.2902   -2.1122 H   0  0  0  0  0  0  0  0  0  0  0  0
   -3.5512    1.4290   -0.2109 C   0  0  0  0  0  0  0  0  0  0  0  0
   -3.6263    0.3256   -0.1792 H   0  0  0  0  0  0  0  0  0  0  0  0
   -4.0500    1.8206   -1.1153 H   0  0  0  0  0  0  0  0  0  0  0  0
   -4.0131    1.8873    0.6813 H   0  0  0  0  0  0  0  0  0  0  0  0
  1 10  2  0  0  0  0
  6 12  2  0  0  0  0
  7 13  1  0  0  0  0
  8  7  1  0  0  0  0
  8 14  2  0  0  0  0
  9 24  1  0  0  0  0
 10 14  1  0  0  0  0
 10  2  2  0  0  0  0
 11  4  2  0  0  0  0
 11  3  2  0  0  0  0
 12 19  1  0  0  0  0
 12  5  2  0  0  0  0
 13  9  1  0  0  0  0
 14  9  1  0  0  0  0
 15  7  1  0  0  0  0
 15 16  1  0  0  0  0
 16 11  1  0  0  0  0
 17 16  2  0  0  0  0
 17 18  1  0  0  0  0
 19 17  1  0  0  0  0
 20 22  1  0  0  0  0
 20 19  2  0  0  0  0
 21 20  1  0  0  0  0
 22 15  2  0  0  0  0
 23 22  1  0  0  0  0
 24 25  1  0  0  0  0
 24 27  1  0  0  0  0
 26 24  1  0  0  0  0
M  END
