5
q = -1.0, confidence = 0.002

  9  9  0  0  0  0  0  0  0  0999 V2000
    4.6991    0.4355   -1.9532 F   0  0  0  0  0  0  0  0  0  0  0  0
    4.6162   -0.2561    2.5025 F   0  0  0  0  0  0  0  0  0  0  0  0
    2.6682    0.1842   -1.0098 N   0  0  0  0  0  0  0  0  0  0  0  0
    4.6893    0.0916    0.2709 N   0  0  0  0  0  0  0  0  0  0  0  0
    1.9038   -0.0230    0.0968 C   0  0  0  0  0  2  0  0  0  0  0  0
    3.9834    0.2247   -0.8468 C   0  0  0  0  0  0  0  0  0  0  0  0
    3.9473   -0.1139    1.3527 C   0  0  0  0  0  0  0  0  0  0  0  0
    2.5519   -0.1866    1.3511 C   0  0  0  0  0  3  0  0  0  0  0  0
    2.0021   -0.3540    2.2868 H   0  0  0  0  0  0  0  0  0  0  0  0
  1  6  1  0  0  0  0
  3  6  2  0  0  0  0
  3  5  1  0  0  0  0
  4  7  2  0  0  0  0
  5  8  1  0  0  0  0
  6  4  1  0  0  0  0
  7  2  1  0  0  0  0
  8  7  1  0  0  0  0
  8  9  1  0  0  0  0
M  END
