6
q = -1.0, confidence = 0.0

 27 28  0  0  0  0  0  0  0  0999 V2000
    2.2784   -0.4778   -0.1318 C   0  0  0  0  0  0  0  0  0  0  0  0
    2.1487    0.5613   -1.1144 C   0  0  0  0  0  0  0  0  0  0  0  0
    2.6806    1.5169   -1.0826 H   0  0  0  0  0  0  0  0  0  0  0  0
    1.1954    0.1541   -2.0768 C   0  0  0  0  0  0  0  0  0  0  0  0
    0.8508    0.7456   -2.9301 H   0  0  0  0  0  0  0  0  0  0  0  0
    0.6804   -1.1145   -1.6826 C   0  0  0  0  0  3  0  0  0  0  0  0
   -0.0846   -1.6913   -2.2156 H   0  0  0  0  0  0  0  0  0  0  0  0
    1.3787   -1.5131   -0.4996 C   0  0  0  0  0  0  0  0  0  0  0  0
    1.2519   -2.4577    0.0416 H   0  0  0  0  0  0  0  0  0  0  0  0
    3.2456   -0.5088    1.0220 C   0  0  0  0  0  0  0  0  0  0  0  0
    2.8965   -1.2487    1.7696 H   0  0  0  0  0  0  0  0  0  0  0  0
    3.2490    0.4878    1.5046 H   0  0  0  0  0  0  0  0  0  0  0  0
    4.6443   -0.8780    0.5692 C   0  0  0  0  0  0  0  0  0  0  0  0
    5.5205    0.1298    0.0847 C   0  0  0  0  0  0  0  0  0  0  0  0
    5.0179    1.3987    0.0866 O   0  0  0  0  0  0  0  0  0  0  0  0
    5.8488    2.4635   -0.3333 C   0  0  0  0  0  0  0  0  0  0  0  0
    6.1589    2.3530   -1.3968 H   0  0  0  0  0  0  0  0  0  0  0  0
    6.7619    2.5484    0.2972 H   0  0  0  0  0  0  0  0  0  0  0  0
    5.2490    3.3862   -0.2262 H   0  0  0  0  0  0  0  0  0  0  0  0
    6.8166   -0.2030   -0.3539 C   0  0  0  0  0  0  0  0  0  0  0  0
    7.4980    0.5743   -0.7245 H   0  0  0  0  0  0  0  0  0  0  0  0
    7.2439   -1.5409   -0.3205 C   0  0  0  0  0  0  0  0  0  0  0  0
    8.2584   -1.7900   -0.6675 H   0  0  0  0  0  0  0  0  0  0  0  0
    6.3915   -2.5471    0.1503 C   0  0  0  0  0  0  0  0  0  0  0  0
    6.7264   -3.5943    0.1804 H   0  0  0  0  0  0  0  0  0  0  0  0
    5.1015   -2.2037    0.5890 C   0  0  0  0  0  0  0  0  0  0  0  0
    4.4239   -2.9871    0.9653 H   0  0  0  0  0  0  0  0  0  0  0  0
  1 10  1  0  0  0  0
  2  3  1  0  0  0  0
  2  1  1  0  0  0  0
  4  6  1  0  0  0  0
  4  2  2  0  0  0  0
  5  4  1  0  0  0  0
  6  8  1  0  0  0  0
  7  6  1  0  0  0  0
  8  1  2  0  0  0  0
  8  9  1  0  0  0  0
 10 12  1  0  0  0  0
 10 11  1  0  0  0  0
 13 26  1  0  0  0  0
 13 10  1  0  0  0  0
 14 15  1  0  0  0  0
 14 13  2  0  0  0  0
 16 19  1  0  0  0  0
 16 15  1  0  0  0  0
 16 18  1  0  0  0  0
 17 16  1  0  0  0  0
 20 22  2  0  0  0  0
 20 14  1  0  0  0  0
 21 20  1  0  0  0  0
 22 24  1  0  0  0  0
 23 22  1  0  0  0  0
 24 25  1  0  0  0  0
 24 26  2  0  0  0  0
 26 27  1  0  0  0  0
M  END
