1
q = 0.0, confidence = 0.988

 17 17  0  0  0  0  0  0  0  0999 V2000
   -2.0042    0.1043   -0.7648 C   0  0  0  0  0  2  0  0  0  0  0  0
   -3.2426   -0.1636   -0.0372 C   0  0  0  0  0  0  0  0  0  0  0  0
   -3.8066   -1.3572    0.4264 C   0  0  0  0  0  0  0  0  0  0  0  0
   -3.3499   -2.3383    0.2612 H   0  0  0  0  0  0  0  0  0  0  0  0
   -5.0403   -1.1774    1.1013 C   0  0  0  0  0  0  0  0  0  0  0  0
   -5.6290   -1.9995    1.5304 H   0  0  0  0  0  0  0  0  0  0  0  0
   -5.4239    0.1547    1.1623 C   0  0  0  0  0  0  0  0  0  0  0  0
   -6.3224    0.5722    1.6352 H   0  0  0  0  0  0  0  0  0  0  0  0
   -4.3001    1.1970    0.3784 S   0  0  0  0  0  0  0  0  0  0  0  0
   -2.0973    1.3747   -1.1838 O   0  0  0  0  0  0  0  0  0  0  0  0
   -1.0713    2.0938   -1.8853 C   0  0  0  0  0  0  0  0  0  0  0  0
   -1.1881    1.8793   -2.9672 H   0  0  0  0  0  0  0  0  0  0  0  0
   -0.0797    1.7147   -1.5704 H   0  0  0  0  0  0  0  0  0  0  0  0
   -1.2460    3.5677   -1.5817 C   0  0  0  0  0  0  0  0  0  0  0  0
   -0.4877    4.1536   -2.1377 H   0  0  0  0  0  0  0  0  0  0  0  0
   -1.1131    3.7656   -0.5007 H   0  0  0  0  0  0  0  0  0  0  0  0
   -2.2511    3.9199   -1.8871 H   0  0  0  0  0  0  0  0  0  0  0  0
  1  2  1  0  0  0  0
  2  9  1  0  0  0  0
  2  3  2  0  0  0  0
  3  5  1  0  0  0  0
  4  3  1  0  0  0  0
  5  7  2  0  0  0  0
  5  6  1  0  0  0  0
  7  8  1  0  0  0  0
  9  7  1  0  0  0  0
 10  1  1  0  0  0  0
 11 14  1  0  0  0  0
 11 13  1  0  0  0  0
 11 10  1  0  0  0  0
 12 11  1  0  0  0  0
 14 16  1  0  0  0  0
 15 14  1  0  0  0  0
 17 14  1  0  0  0  0
M  END
