5
q = -1.0, confidence = 0.0

 19 19  0  0  0  0  0  0  0  0999 V2000
   -4.8100   -3.0840    1.0750 Br  0  0  0  0  0  0  0  0  0  0  0  0
   -5.1641    1.6981   -2.0034 Br  0  0  0  0  0  0  0  0  0  0  0  0
   -1.7897   -2.4467    0.8987 O   0  0  0  0  0  0  0  0  0  0  0  0
   -2.1644    1.6083   -1.7281 O   0  0  0  0  0  0  0  0  0  0  0  0
   -1.9001   -0.3360   -0.2762 C   0  0  0  0  0  3  0  0  0  0  0  0
   -2.5400   -1.4828    0.2474 C   0  0  0  0  0  0  0  0  0  0  0  0
   -3.9470   -1.6295    0.1821 C   0  0  0  0  0  0  0  0  0  0  0  0
   -4.7435   -0.6894   -0.4823 C   0  0  0  0  0  0  0  0  0  0  0  0
   -4.1085    0.4050   -1.0841 C   0  0  0  0  0  0  0  0  0  0  0  0
   -2.7107    0.5776   -1.0000 C   0  0  0  0  0  0  0  0  0  0  0  0
   -1.5784   -3.6477    0.1664 C   0  0  0  0  0  0  0  0  0  0  0  0
   -1.4887    2.6134   -0.9841 C   0  0  0  0  0  0  0  0  0  0  0  0
   -5.8341   -0.8014   -0.5241 H   0  0  0  0  0  0  0  0  0  0  0  0
   -1.1161   -4.3744    0.8612 H   0  0  0  0  0  0  0  0  0  0  0  0
   -0.8824   -3.4807   -0.6855 H   0  0  0  0  0  0  0  0  0  0  0  0
   -2.5302   -4.0771   -0.2131 H   0  0  0  0  0  0  0  0  0  0  0  0
   -0.7047    2.1580   -0.3360 H   0  0  0  0  0  0  0  0  0  0  0  0
   -2.1990    3.1918   -0.3550 H   0  0  0  0  0  0  0  0  0  0  0  0
   -1.0013    3.2827   -1.7169 H   0  0  0  0  0  0  0  0  0  0  0  0
  2  9  1  0  0  0  0
  4 10  1  0  0  0  0
  4 12  1  0  0  0  0
  5  6  1  0  0  0  0
  6  3  1  0  0  0  0
  7  6  2  0  0  0  0
  7  1  1  0  0  0  0
  8  7  1  0  0  0  0
  9 10  1  0  0  0  0
  9  8  2  0  0  0  0
 10  5  2  0  0  0  0
 11 14  1  0  0  0  0
 11  3  1  0  0  0  0
 12 18  1  0  0  0  0
 12 17  1  0  0  0  0
 13  8  1  0  0  0  0
 15 11  1  0  0  0  0
 16 11  1  0  0  0  0
 19 12  1  0  0  0  0
M  END
