20
q = 0.0, confidence = 0.956

 31 34  0  0  0  0  0  0  0  0999 V2000
   -1.4734   -0.6880    2.1280 O   0  0  0  0  0  0  0  0  0  0  0  0
   -0.0438    0.6265    0.7306 C   0  0  0  0  0  0  0  0  0  0  0  0
    0.0116    2.0373    0.7082 C   0  0  0  0  0  0  0  0  0  0  0  0
    1.2125    2.7074    0.4708 C   0  0  0  0  0  0  0  0  0  0  0  0
    2.4053    1.9957    0.2117 C   0  0  0  0  0  0  0  0  0  0  0  0
    2.3647    0.5596    0.1963 C   0  0  0  0  0  0  0  0  0  0  0  0
    3.5583   -0.1803   -0.0819 C   0  0  0  0  0  0  0  0  0  0  0  0
    3.6532    2.6606   -0.0469 C   0  0  0  0  0  0  0  0  0  0  0  0
    4.7988    1.9490   -0.3091 C   0  0  0  0  0  0  0  0  0  0  0  0
    5.7472    2.4721   -0.5066 H   0  0  0  0  0  0  0  0  0  0  0  0
    4.7925    0.5108   -0.3364 C   0  0  0  0  0  0  0  0  0  0  0  0
    5.9577   -0.2425   -0.6049 C   0  0  0  0  0  0  0  0  0  0  0  0
    5.9192   -1.6431   -0.6287 C   0  0  0  0  0  0  0  0  0  0  0  0
    4.7201   -2.3253   -0.3849 C   0  0  0  0  0  0  0  0  0  0  0  0
    3.5293   -1.6159   -0.1089 C   0  0  0  0  0  0  0  0  0  0  0  0
    2.2792   -2.2803    0.1381 C   0  0  0  0  0  0  0  0  0  0  0  0
    1.1321   -1.5729    0.4079 C   0  0  0  0  0  0  0  0  0  0  0  0
    0.1890   -2.1151    0.5675 H   0  0  0  0  0  0  0  0  0  0  0  0
    1.1338   -0.1334    0.4602 C   0  0  0  0  0  0  0  0  0  0  0  0
   -1.3447   -0.0485    0.9730 C   0  0  0  0  0  2  0  0  0  0  0  0
   -0.4682   -0.6458    3.1709 C   0  0  0  0  0  0  0  0  0  0  0  0
   -0.9070    2.6121    0.8926 H   0  0  0  0  0  0  0  0  0  0  0  0
    1.2349    3.8079    0.4765 H   0  0  0  0  0  0  0  0  0  0  0  0
    3.6706    3.7613   -0.0331 H   0  0  0  0  0  0  0  0  0  0  0  0
    6.9025    0.2890   -0.7972 H   0  0  0  0  0  0  0  0  0  0  0  0
    6.8373   -2.2110   -0.8419 H   0  0  0  0  0  0  0  0  0  0  0  0
    4.6924   -3.4256   -0.4076 H   0  0  0  0  0  0  0  0  0  0  0  0
    2.2512   -3.3800    0.0964 H   0  0  0  0  0  0  0  0  0  0  0  0
   -1.0012   -0.9029    4.1035 H   0  0  0  0  0  0  0  0  0  0  0  0
    0.3212   -1.3949    2.9654 H   0  0  0  0  0  0  0  0  0  0  0  0
   -0.0129    0.3605    3.2407 H   0  0  0  0  0  0  0  0  0  0  0  0
  1 21  1  0  0  0  0
  2 20  1  0  0  0  0
  3  2  1  0  0  0  0
  3 22  1  0  0  0  0
  4 23  1  0  0  0  0
  4  3  2  0  0  0  0
  5  4  1  0  0  0  0
  6  5  1  0  0  0  0
  6 19  1  0  0  0  0
  7  6  2  0  0  0  0
  8 24  1  0  0  0  0
  8  5  2  0  0  0  0
  9  8  1  0  0  0  0
 10  9  1  0  0  0  0
 11  9  2  0  0  0  0
 11  7  1  0  0  0  0
 12 11  1  0  0  0  0
 13 12  2  0  0  0  0
 13 14  1  0  0  0  0
 14 15  2  0  0  0  0
 15  7  1  0  0  0  0
 15 16  1  0  0  0  0
 16 17  2  0  0  0  0
 17 19  1  0  0  0  0
 17 18  1  0  0  0  0
 19  2  2  0  0  0  0
 20  1  1  0  0  0  0
 21 31  1  0  0  0  0
 21 29  1  0  0  0  0
 25 12  1  0  0  0  0
 26 13  1  0  0  0  0
 27 14  1  0  0  0  0
 28 16  1  0  0  0  0
 30 21  1  0  0  0  0
M  END
