5
q = -1.0, confidence = 0.0

 24 23  0  0  0  0  0  0  0  0999 V2000
    0.1248    1.7056    0.4891 S   0  0  0  0  0  0  0  0  0  0  0  0
    1.7755    1.4194   -0.3186 C   0  0  0  0  0  0  0  0  0  0  0  0
    2.2693   -0.0179   -0.0179 C   0  0  0  0  0  0  0  0  0  0  0  0
    1.1961   -0.9633   -0.5737 C   0  0  0  0  0  3  0  0  0  0  0  0
    0.5865   -2.0605    0.1093 C   0  0  0  0  0  3  0  0  0  0  0  0
   -0.6472   -2.5584   -0.4306 C   0  0  0  0  0  3  0  0  0  0  0  0
   -0.7022    2.8461   -0.6623 C   0  0  0  0  0  0  0  0  0  0  0  0
    3.5960   -0.2454   -0.7738 C   0  0  0  0  0  0  0  0  0  0  0  0
    2.4944   -0.1983    1.4922 C   0  0  0  0  0  0  0  0  0  0  0  0
    2.4950    2.1857    0.0375 H   0  0  0  0  0  0  0  0  0  0  0  0
    1.6281    1.5525   -1.4101 H   0  0  0  0  0  0  0  0  0  0  0  0
    1.1155   -0.9410   -1.6790 H   0  0  0  0  0  0  0  0  0  0  0  0
    0.8990   -2.3367    1.1301 H   0  0  0  0  0  0  0  0  0  0  0  0
   -0.7913   -2.6208   -1.5229 H   0  0  0  0  0  0  0  0  0  0  0  0
   -1.2539   -3.2535    0.1694 H   0  0  0  0  0  0  0  0  0  0  0  0
   -0.5163    2.5386   -1.7089 H   0  0  0  0  0  0  0  0  0  0  0  0
   -1.7812    2.7192   -0.4413 H   0  0  0  0  0  0  0  0  0  0  0  0
   -0.3763    3.8890   -0.4875 H   0  0  0  0  0  0  0  0  0  0  0  0
    3.9630   -1.2770   -0.6019 H   0  0  0  0  0  0  0  0  0  0  0  0
    3.4681   -0.1075   -1.8668 H   0  0  0  0  0  0  0  0  0  0  0  0
    4.3800    0.4582   -0.4274 H   0  0  0  0  0  0  0  0  0  0  0  0
    1.5530   -0.0775    2.0662 H   0  0  0  0  0  0  0  0  0  0  0  0
    2.9035   -1.2036    1.7154 H   0  0  0  0  0  0  0  0  0  0  0  0
    3.2217    0.5502    1.8657 H   0  0  0  0  0  0  0  0  0  0  0  0
  2  3  1  0  0  0  0
  2 10  1  0  0  0  0
  2  1  1  0  0  0  0
  3  9  1  0  0  0  0
  4  3  1  0  0  0  0
  4  5  1  0  0  0  0
  5 13  1  0  0  0  0
  6  5  1  0  0  0  0
  6 15  1  0  0  0  0
  7 18  1  0  0  0  0
  7 17  1  0  0  0  0
  7  1  1  0  0  0  0
  8 19  1  0  0  0  0
  8 21  1  0  0  0  0
  8  3  1  0  0  0  0
  9 23  1  0  0  0  0
  9 24  1  0  0  0  0
  9 22  1  0  0  0  0
 11  2  1  0  0  0  0
 12  4  1  0  0  0  0
 14  6  1  0  0  0  0
 16  7  1  0  0  0  0
 20  8  1  0  0  0  0
M  END
