1
q = -1.0, confidence = 0.002

 23 23  0  0  0  0  0  0  0  0999 V2000
   -2.2883   -0.1883    0.0621 C   0  0  0  0  0  3  0  0  0  0  0  0
   -2.2707    0.7013    1.3134 C   0  0  0  0  0  0  0  0  0  0  0  0
   -3.5482    1.5110    1.6389 C   0  0  0  0  0  0  0  0  0  0  0  0
   -4.2155    2.2476    0.4591 C   0  0  0  0  0  0  0  0  0  0  0  0
   -5.4278    1.5494   -0.1789 C   0  0  0  0  0  0  0  0  0  0  0  0
   -5.2331    0.1734   -0.8363 C   0  0  0  0  0  0  0  0  0  0  0  0
   -4.7997   -0.9691    0.1087 C   0  0  0  0  0  0  0  0  0  0  0  0
   -3.3009   -1.3405    0.0669 C   0  0  0  0  0  0  0  0  0  0  0  0
   -2.5503    0.4600   -0.7970 H   0  0  0  0  0  0  0  0  0  0  0  0
   -2.0147    0.0999    2.2096 H   0  0  0  0  0  0  0  0  0  0  0  0
   -1.4412    1.4338    1.2021 H   0  0  0  0  0  0  0  0  0  0  0  0
   -4.2989    0.8633    2.1355 H   0  0  0  0  0  0  0  0  0  0  0  0
   -3.2580    2.2527    2.4125 H   0  0  0  0  0  0  0  0  0  0  0  0
   -3.4512    2.4778   -0.3176 H   0  0  0  0  0  0  0  0  0  0  0  0
   -4.5653    3.2400    0.8124 H   0  0  0  0  0  0  0  0  0  0  0  0
   -6.2103    1.4449    0.6065 H   0  0  0  0  0  0  0  0  0  0  0  0
   -5.8636    2.2376   -0.9350 H   0  0  0  0  0  0  0  0  0  0  0  0
   -6.2021   -0.0988   -1.3033 H   0  0  0  0  0  0  0  0  0  0  0  0
   -4.5194    0.2523   -1.6879 H   0  0  0  0  0  0  0  0  0  0  0  0
   -5.1166   -0.7298    1.1444 H   0  0  0  0  0  0  0  0  0  0  0  0
   -5.3597   -1.8909   -0.1526 H   0  0  0  0  0  0  0  0  0  0  0  0
   -3.0862   -2.0379    0.9077 H   0  0  0  0  0  0  0  0  0  0  0  0
   -3.1378   -1.9300   -0.8600 H   0  0  0  0  0  0  0  0  0  0  0  0
  1  8  1  0  0  0  0
  1  2  1  0  0  0  0
  2  3  1  0  0  0  0
  2 10  1  0  0  0  0
  3 12  1  0  0  0  0
  3 13  1  0  0  0  0
  4 15  1  0  0  0  0
  4  3  1  0  0  0  0
  5  4  1  0  0  0  0
  5 16  1  0  0  0  0
  6  5  1  0  0  0  0
  6  7  1  0  0  0  0
  7 20  1  0  0  0  0
  8  7  1  0  0  0  0
  8 22  1  0  0  0  0
  9  1  1  0  0  0  0
 11  2  1  0  0  0  0
 14  4  1  0  0  0  0
 17  5  1  0  0  0  0
 18  6  1  0  0  0  0
 19  6  1  0  0  0  0
 21  7  1  0  0  0  0
 23  8  1  0  0  0  0
M  END
