1
q = -1.0, confidence = 0.008

  8  7  0  0  0  0  0  0  0  0999 V2000
   -2.7190   -1.3859   -0.8824 C   0  0  0  0  0  3  0  0  0  0  0  0
   -2.2896   -2.5478   -1.6180 C   0  0  0  0  0  0  0  0  0  0  0  0
   -3.7440   -1.7695    0.1892 C   0  0  0  0  0  0  0  0  0  0  0  0
   -1.9268   -3.5166   -2.1796 N   0  0  0  0  0  0  0  0  0  0  0  0
   -3.1365   -0.6572   -1.6052 H   0  0  0  0  0  0  0  0  0  0  0  0
   -4.2130   -0.8712    0.6298 H   0  0  0  0  0  0  0  0  0  0  0  0
   -3.2744   -2.3504    1.0062 H   0  0  0  0  0  0  0  0  0  0  0  0
   -4.5525   -2.3932   -0.2485 H   0  0  0  0  0  0  0  0  0  0  0  0
  1  3  1  0  0  0  0
  2  1  1  0  0  0  0
  3  6  1  0  0  0  0
  3  7  1  0  0  0  0
  4  2  3  0  0  0  0
  5  1  1  0  0  0  0
  8  3  1  0  0  0  0
M  END
