15
q = -1.0

 33 33  0  0  1  0  0  0  0  0999 V2000
   -1.6986   -2.6592    0.6248 C   0  0  0  0  0  0  0  0  0  0  0  0
   -2.4257   -3.0912   -0.2556 O   0  0  0  0  0  0  0  0  0  0  0  0
   -1.1212   -3.4563    1.5606 O   0  0  0  0  0  0  0  0  0  0  0  0
   -1.3833   -4.8542    1.4285 C   0  0  0  0  0  0  0  0  0  0  0  0
   -1.2719   -1.2306    0.8213 C   0  0  2  0  0  3  0  0  0  0  0  0
   -0.6878   -0.9485    2.1029 C   0  0  0  0  0  0  0  0  0  0  0  0
   -0.2606   -0.7161    3.1734 N   0  0  0  0  0  0  0  0  0  0  0  0
   -1.9886   -0.1601    0.1007 C   0  0  2  0  0  3  0  0  0  0  0  0
   -3.4247   -0.2296   -0.2744 C   0  0  0  0  0  0  0  0  0  0  0  0
   -4.3388   -0.8650    0.5918 C   0  0  0  0  0  0  0  0  0  0  0  0
   -5.7121   -0.8486    0.3158 C   0  0  0  0  0  0  0  0  0  0  0  0
   -6.1963   -0.1972   -0.8296 C   0  0  0  0  0  0  0  0  0  0  0  0
   -5.2950    0.4481   -1.6926 C   0  0  0  0  0  0  0  0  0  0  0  0
   -3.9226    0.4367   -1.4144 C   0  0  0  0  0  0  0  0  0  0  0  0
   -1.1795    0.9703   -0.2563 C   0  0  0  0  0  2  0  0  0  0  0  0
   -1.2725    2.3355   -0.3002 C   0  0  2  0  0  3  0  0  0  0  0  0
   -0.3440    3.0286   -1.1366 C   0  0  0  0  0  0  0  0  0  0  0  0
    0.4606    3.5051   -1.8495 N   0  0  0  0  0  0  0  0  0  0  0  0
   -2.2407    3.1399    0.4900 C   0  0  0  0  0  0  0  0  0  0  0  0
   -2.4127    4.3406    0.3703 O   0  0  0  0  0  0  0  0  0  0  0  0
   -2.9099    2.3631    1.3829 O   0  0  0  0  0  0  0  0  0  0  0  0
   -3.9189    3.0337    2.1402 C   0  0  0  0  0  0  0  0  0  0  0  0
   -0.8947   -5.3379    2.2929 H   0  0  0  0  0  0  0  0  0  0  0  0
   -0.9618   -5.2488    0.4803 H   0  0  0  0  0  0  0  0  0  0  0  0
   -2.4728   -5.0575    1.4311 H   0  0  0  0  0  0  0  0  0  0  0  0
   -3.9674   -1.3565    1.5027 H   0  0  0  0  0  0  0  0  0  0  0  0
   -6.4111   -1.3474    1.0042 H   0  0  0  0  0  0  0  0  0  0  0  0
   -7.2751   -0.1868   -1.0470 H   0  0  0  0  0  0  0  0  0  0  0  0
   -5.6649    0.9688   -2.5889 H   0  0  0  0  0  0  0  0  0  0  0  0
   -3.2220    0.9580   -2.0825 H   0  0  0  0  0  0  0  0  0  0  0  0
   -4.3683    2.2658    2.7946 H   0  0  0  0  0  0  0  0  0  0  0  0
   -4.6897    3.4690    1.4723 H   0  0  0  0  0  0  0  0  0  0  0  0
   -3.4812    3.8535    2.7454 H   0  0  0  0  0  0  0  0  0  0  0  0
  1  5  1  0  0  0  0
  1  3  1  0  0  0  0
  2  1  2  0  0  0  0
  4 25  1  0  0  0  0
  4  3  1  0  0  0  0
  4 23  1  0  0  0  0
  5  6  1  1  0  0  0
  6  7  3  0  0  0  0
  8 15  1  6  0  0  0
  8  5  1  0  0  0  0
  9  8  1  0  0  0  0
  9 10  1  0  0  0  0
 10 26  1  0  0  0  0
 11 10  2  0  0  0  0
 11 27  1  0  0  0  0
 12 11  1  0  0  0  0
 13 14  1  0  0  0  0
 13 12  2  0  0  0  0
 14  9  2  0  0  0  0
 16 17  1  1  0  0  0
 16 15  1  0  0  0  0
 16 19  1  0  0  0  0
 18 17  3  0  0  0  0
 19 21  1  0  0  0  0
 20 19  2  0  0  0  0
 21 22  1  0  0  0  0
 22 33  1  0  0  0  0
 22 31  1  0  0  0  0
 24  4  1  0  0  0  0
 28 12  1  0  0  0  0
 29 13  1  0  0  0  0
 30 14  1  0  0  0  0
 32 22  1  0  0  0  0
M  END
