1
q = -1.0, confidence = 0.0

 29 30  0  0  1  0  0  0  0  0999 V2000
    1.2826   -0.6493   -0.8889 C   0  0  0  0  0  3  0  0  0  0  0  0
    2.2586    0.2835   -0.5570 C   0  0  1  0  0  3  0  0  0  0  0  0
    2.1388    1.7583   -0.5113 C   0  0  0  0  0  0  0  0  0  0  0  0
    1.9420    2.5330   -1.6756 C   0  0  0  0  0  0  0  0  0  0  0  0
    1.9228    2.0301   -2.6517 H   0  0  0  0  0  0  0  0  0  0  0  0
    1.7951    3.9263   -1.6006 C   0  0  0  0  0  0  0  0  0  0  0  0
    1.6432    4.5096   -2.5220 H   0  0  0  0  0  0  0  0  0  0  0  0
    1.8527    4.5769   -0.3569 C   0  0  0  0  0  0  0  0  0  0  0  0
    1.7385    5.6701   -0.2974 H   0  0  0  0  0  0  0  0  0  0  0  0
    2.0659    3.8227    0.8085 C   0  0  0  0  0  0  0  0  0  0  0  0
    2.1075    4.3203    1.7895 H   0  0  0  0  0  0  0  0  0  0  0  0
    2.2101    2.4301    0.7329 C   0  0  0  0  0  0  0  0  0  0  0  0
    2.3549    1.8419    1.6505 H   0  0  0  0  0  0  0  0  0  0  0  0
    3.4746   -0.4163   -0.0872 C   0  0  0  0  0  0  0  0  0  0  0  0
    4.8368    0.5506    0.3792 S   0  0  0  0  0  0  0  0  0  0  0  0
    6.1519   -0.6366    0.7902 C   0  0  0  0  0  0  0  0  0  0  0  0
    5.8771   -1.2705    1.6524 H   0  0  0  0  0  0  0  0  0  0  0  0
    7.0267   -0.0107    1.0498 H   0  0  0  0  0  0  0  0  0  0  0  0
    6.3974   -1.2781   -0.0758 H   0  0  0  0  0  0  0  0  0  0  0  0
    3.2835   -1.8067   -0.1148 C   0  0  0  0  0  0  0  0  0  0  0  0
    4.1290   -2.8656    0.2816 C   0  0  0  0  0  0  0  0  0  0  0  0
    4.8120   -3.7653    0.6195 N   0  0  0  0  0  0  0  0  0  0  0  0
    1.9039   -1.9986   -0.5749 C   0  0  0  0  0  0  0  0  0  0  0  0
    1.2699   -3.1318   -0.5773 N   0  0  0  0  0  2  0  0  0  0  0  0
   -0.3781   -2.8981   -1.1643 S   0  0  0  0  0  0  0  0  0  0  0  0
   -1.1590   -3.7425    0.2555 C   0  0  0  0  0  0  0  0  0  0  0  0
   -0.6749   -4.7338    0.3346 H   0  0  0  0  0  0  0  0  0  0  0  0
   -2.2362   -3.8457    0.0309 H   0  0  0  0  0  0  0  0  0  0  0  0
   -1.0266   -3.1667    1.1895 H   0  0  0  0  0  0  0  0  0  0  0  0
  1 23  2  0  0  0  0
  1  2  1  0  0  0  0
  2  3  1  1  0  0  0
  2 14  1  0  0  0  0
  3 12  1  0  0  0  0
  4  6  1  0  0  0  0
  4  3  2  0  0  0  0
  5  4  1  0  0  0  0
  6  8  2  0  0  0  0
  7  6  1  0  0  0  0
  8  9  1  0  0  0  0
  8 10  1  0  0  0  0
 10 11  1  0  0  0  0
 12 10  2  0  0  0  0
 12 13  1  0  0  0  0
 14 15  1  0  0  0  0
 15 16  1  0  0  0  0
 16 18  1  0  0  0  0
 16 17  1  0  0  0  0
 19 16  1  0  0  0  0
 20 14  2  0  0  0  0
 20 21  1  0  0  0  0
 21 22  3  0  0  0  0
 23 20  1  0  0  0  0
 24 23  1  0  0  0  0
 25 24  1  0  0  0  0
 25 26  1  0  0  0  0
 26 27  1  0  0  0  0
 26 29  1  0  0  0  0
 28 26  1  0  0  0  0
M  END
