1
q = -1.0

 29 29  0  0  1  0  0  0  0  0999 V2000
    1.1568   -0.1939   -0.8236 C   0  0  0  0  0  2  0  0  0  0  0  0
    0.7842    0.5918   -2.3457 S   0  0  0  0  0  0  0  0  0  0  0  0
    2.3529    0.9593   -3.2132 C   0  0  0  0  0  0  0  0  0  0  0  0
    2.3762    0.0579   -0.1605 C   0  0  2  0  0  3  0  0  0  0  0  0
    3.1651    1.3116   -0.3132 C   0  0  0  0  0  0  0  0  0  0  0  0
    2.5313    2.5742   -0.3820 C   0  0  0  0  0  0  0  0  0  0  0  0
    3.2799    3.7531   -0.4840 C   0  0  0  0  0  0  0  0  0  0  0  0
    4.6844    3.7038   -0.5095 C   0  0  0  0  0  0  0  0  0  0  0  0
    5.3291    2.4579   -0.4392 C   0  0  0  0  0  0  0  0  0  0  0  0
    4.5796    1.2771   -0.3452 C   0  0  0  0  0  0  0  0  0  0  0  0
    2.9655   -0.9769    0.6825 C   0  0  2  0  0  3  0  0  0  0  0  0
    3.6509   -0.6787    2.2699 S   0  0  0  0  0  0  0  0  0  0  0  0
    2.8774    0.8818    2.7771 C   0  0  0  0  0  0  0  0  0  0  0  0
    3.1364   -2.2819    0.1765 C   0  0  0  0  0  3  0  0  0  0  0  0
    3.1094   -2.4884   -1.2343 C   0  0  0  0  0  0  0  0  0  0  0  0
    3.1326   -2.6517   -2.4013 N   0  0  0  0  0  0  0  0  0  0  0  0
    3.4361   -3.4091    0.9986 C   0  0  0  0  0  0  0  0  0  0  0  0
    3.6454   -4.3647    1.6541 N   0  0  0  0  0  0  0  0  0  0  0  0
    2.0833    1.0041   -4.2863 H   0  0  0  0  0  0  0  0  0  0  0  0
    3.0545    0.1205   -3.0440 H   0  0  0  0  0  0  0  0  0  0  0  0
    2.8043    1.9163   -2.8914 H   0  0  0  0  0  0  0  0  0  0  0  0
    1.4354    2.6226   -0.3564 H   0  0  0  0  0  0  0  0  0  0  0  0
    2.7570    4.7211   -0.5299 H   0  0  0  0  0  0  0  0  0  0  0  0
    5.2731    4.6307   -0.5847 H   0  0  0  0  0  0  0  0  0  0  0  0
    6.4283    2.4031   -0.4668 H   0  0  0  0  0  0  0  0  0  0  0  0
    5.0943    0.3055   -0.3032 H   0  0  0  0  0  0  0  0  0  0  0  0
    2.9010    0.8920    3.8832 H   0  0  0  0  0  0  0  0  0  0  0  0
    1.8318    0.9083    2.4249 H   0  0  0  0  0  0  0  0  0  0  0  0
    3.4275    1.7528    2.3731 H   0  0  0  0  0  0  0  0  0  0  0  0
  2  1  1  0  0  0  0
  3 20  1  0  0  0  0
  3 21  1  0  0  0  0
  3  2  1  0  0  0  0
  4  1  1  6  0  0  0
  4 11  1  0  0  0  0
  5  4  1  0  0  0  0
  6 22  1  0  0  0  0
  6  5  2  0  0  0  0
  7  6  1  0  0  0  0
  8  7  2  0  0  0  0
  8  9  1  0  0  0  0
  9 10  2  0  0  0  0
 10  5  1  0  0  0  0
 10 26  1  0  0  0  0
 11 14  1  6  0  0  0
 11 12  1  0  0  0  0
 12 13  1  0  0  0  0
 13 27  1  0  0  0  0
 14 17  1  0  0  0  0
 15 14  1  0  0  0  0
 16 15  3  0  0  0  0
 17 18  3  0  0  0  0
 19  3  1  0  0  0  0
 23  7  1  0  0  0  0
 24  8  1  0  0  0  0
 25  9  1  0  0  0  0
 28 13  1  0  0  0  0
 29 13  1  0  0  0  0
M  END
