1
q = -1.0

 31 31  0  0  0  0  0  0  0  0999 V2000
   -0.6442    0.6502    1.1690 C   0  0  0  0  0  3  0  0  0  0  0  0
   -1.3656    2.2544    1.1079 S   0  0  0  0  0  0  0  0  0  0  0  0
   -0.0055    3.4545    1.0803 C   0  0  0  0  0  0  0  0  0  0  0  0
   -1.6500   -0.3482    0.8757 C   0  0  0  0  0  0  0  0  0  0  0  0
   -2.9905    0.0150    0.5902 C   0  0  0  0  0  0  0  0  0  0  0  0
   -4.1452    0.3594    0.3251 C   0  0  0  0  0  0  0  0  0  0  0  0
   -5.4774    0.7320   -0.0041 C   0  0  0  0  0  0  0  0  0  0  0  0
   -6.3737   -0.2244   -0.5527 C   0  0  0  0  0  0  0  0  0  0  0  0
   -7.6817    0.1529   -0.8785 C   0  0  0  0  0  0  0  0  0  0  0  0
   -8.1204    1.4717   -0.6700 C   0  0  0  0  0  0  0  0  0  0  0  0
   -7.2381    2.4230   -0.1291 C   0  0  0  0  0  0  0  0  0  0  0  0
   -5.9278    2.0627    0.2029 C   0  0  0  0  0  0  0  0  0  0  0  0
    0.4974   -1.9614    1.1970 S   0  0  0  0  0  0  0  0  0  0  0  0
    0.2165   -2.7803    2.8144 C   0  0  0  0  0  0  0  0  0  0  0  0
   -1.2336   -1.6994    0.7351 C   0  0  0  0  0  0  0  0  0  0  0  0
   -1.9092   -2.8203    0.2201 C   0  0  0  0  0  0  0  0  0  0  0  0
   -3.2459   -2.8117   -0.2786 C   0  0  0  0  0  0  0  0  0  0  0  0
   -4.3321   -2.8973   -0.7236 N   0  0  0  0  0  0  0  0  0  0  0  0
   -1.2354   -4.0758    0.1259 C   0  0  0  0  0  0  0  0  0  0  0  0
   -0.6819   -5.1139    0.0575 N   0  0  0  0  0  0  0  0  0  0  0  0
   -0.4191    4.3491    0.5763 H   0  0  0  0  0  0  0  0  0  0  0  0
    0.8422    3.0574    0.4951 H   0  0  0  0  0  0  0  0  0  0  0  0
    0.3282    3.7402    2.0954 H   0  0  0  0  0  0  0  0  0  0  0  0
   -6.0170   -1.2529   -0.7163 H   0  0  0  0  0  0  0  0  0  0  0  0
   -8.3692   -0.5950   -1.3026 H   0  0  0  0  0  0  0  0  0  0  0  0
   -9.1508    1.7594   -0.9291 H   0  0  0  0  0  0  0  0  0  0  0  0
   -7.5770    3.4574    0.0363 H   0  0  0  0  0  0  0  0  0  0  0  0
   -5.2314    2.8008    0.6272 H   0  0  0  0  0  0  0  0  0  0  0  0
    1.2073   -2.8971    3.2903 H   0  0  0  0  0  0  0  0  0  0  0  0
   -0.2235   -3.7761    2.6182 H   0  0  0  0  0  0  0  0  0  0  0  0
   -0.4489   -2.1568    3.4383 H   0  0  0  0  0  0  0  0  0  0  0  0
  2  1  1  0  0  0  0
  3  2  1  0  0  0  0
  3 23  1  0  0  0  0
  4  1  2  0  0  0  0
  5  4  1  0  0  0  0
  6  5  3  0  0  0  0
  7 12  1  0  0  0  0
  7  6  1  0  0  0  0
  8  7  2  0  0  0  0
  9 10  2  0  0  0  0
  9  8  1  0  0  0  0
 10 11  1  0  0  0  0
 11 27  1  0  0  0  0
 11 12  2  0  0  0  0
 12 28  1  0  0  0  0
 13 14  1  0  0  0  0
 14 29  1  0  0  0  0
 14 31  1  0  0  0  0
 15  4  1  0  0  0  0
 15 13  1  0  0  0  0
 16 15  2  0  0  0  0
 17 16  1  0  0  0  0
 18 17  3  0  0  0  0
 19 16  1  0  0  0  0
 20 19  3  0  0  0  0
 21  3  1  0  0  0  0
 22  3  1  0  0  0  0
 24  8  1  0  0  0  0
 25  9  1  0  0  0  0
 26 10  1  0  0  0  0
 30 14  1  0  0  0  0
M  END
