8
q = 0.0, confidence = 1.0

 43 45  0  0  0  0  0  0  0  0999 V2000
    0.5158   -2.0250    0.0131 N   0  0  0  0  0  0  0  0  0  0  0  0
   -0.7965   -2.3862   -0.0115 N   0  0  0  0  0  0  0  0  0  0  0  0
   -0.3650    2.0823   -0.9547 C   0  0  0  0  0  0  0  0  0  0  0  0
    0.2382    1.6782   -1.7803 H   0  0  0  0  0  0  0  0  0  0  0  0
   -0.5649   -0.1848   -0.0365 N   0  0  0  0  0  0  0  0  0  0  0  0
   -1.4087    3.9814    0.1889 C   0  0  0  0  0  0  0  0  0  0  0  0
   -1.4674   -1.2482   -0.0464 C   0  0  0  0  0  0  0  0  0  0  0  0
    0.7178   -0.6849   -0.0026 C   0  0  0  0  0  2  0  0  0  0  0  0
   -0.6375    3.4525   -0.8676 C   0  0  0  0  0  0  0  0  0  0  0  0
   -0.2361    4.1282   -1.6384 H   0  0  0  0  0  0  0  0  0  0  0  0
   -3.6848   -2.2203    0.4705 C   0  0  0  0  0  0  0  0  0  0  0  0
   -3.1509   -3.0415    0.9696 H   0  0  0  0  0  0  0  0  0  0  0  0
   -1.6295    1.7156    1.0955 C   0  0  0  0  0  0  0  0  0  0  0  0
   -2.0077    1.0297    1.8670 H   0  0  0  0  0  0  0  0  0  0  0  0
   -2.9336   -1.1720   -0.1083 C   0  0  0  0  0  0  0  0  0  0  0  0
    1.5867   -3.0788    0.0450 C   0  0  0  0  0  0  0  0  0  0  0  0
   -0.8643    1.2163    0.0312 C   0  0  0  0  0  0  0  0  0  0  0  0
   -5.0094   -0.1134   -0.8246 C   0  0  0  0  0  0  0  0  0  0  0  0
   -5.5255    0.7092   -1.3418 H   0  0  0  0  0  0  0  0  0  0  0  0
    0.9163   -4.4571    0.0689 C   0  0  0  0  0  0  0  0  0  0  0  0
    0.2755   -4.5827    0.9618 H   0  0  0  0  0  0  0  0  0  0  0  0
    1.7102   -5.2284    0.0921 H   0  0  0  0  0  0  0  0  0  0  0  0
    0.2880   -4.6207   -0.8264 H   0  0  0  0  0  0  0  0  0  0  0  0
   -1.6632    5.4630    0.2899 C   0  0  0  0  0  0  0  0  0  0  0  0
   -2.5275    5.6877    0.9442 H   0  0  0  0  0  0  0  0  0  0  0  0
   -1.8525    5.9127   -0.7051 H   0  0  0  0  0  0  0  0  0  0  0  0
   -0.7792    5.9835    0.7165 H   0  0  0  0  0  0  0  0  0  0  0  0
   -3.6095   -0.1195   -0.7655 C   0  0  0  0  0  0  0  0  0  0  0  0
   -3.0417    0.6899   -1.2442 H   0  0  0  0  0  0  0  0  0  0  0  0
   -1.9020    3.0877    1.1617 C   0  0  0  0  0  0  0  0  0  0  0  0
   -2.5030    3.4763    1.9983 H   0  0  0  0  0  0  0  0  0  0  0  0
   -5.0828   -2.2064    0.4065 C   0  0  0  0  0  0  0  0  0  0  0  0
   -5.6573   -3.0252    0.8653 H   0  0  0  0  0  0  0  0  0  0  0  0
    2.4478   -2.9265   -1.2197 C   0  0  0  0  0  0  0  0  0  0  0  0
    1.8295   -3.0393   -2.1324 H   0  0  0  0  0  0  0  0  0  0  0  0
    3.2333   -3.7070   -1.2297 H   0  0  0  0  0  0  0  0  0  0  0  0
    2.9451   -1.9359   -1.2502 H   0  0  0  0  0  0  0  0  0  0  0  0
    2.4273   -2.8737    1.3160 C   0  0  0  0  0  0  0  0  0  0  0  0
    2.9255   -1.8832    1.3149 H   0  0  0  0  0  0  0  0  0  0  0  0
    3.2114   -3.6538    1.3706 H   0  0  0  0  0  0  0  0  0  0  0  0
    1.7946   -2.9483    2.2227 H   0  0  0  0  0  0  0  0  0  0  0  0
   -5.7501   -1.1507   -0.2364 C   0  0  0  0  0  0  0  0  0  0  0  0
   -6.8495   -1.1385   -0.2826 H   0  0  0  0  0  0  0  0  0  0  0  0
  1 16  1  0  0  0  0
  2  1  1  0  0  0  0
  3  9  2  0  0  0  0
  3 17  1  0  0  0  0
  4  3  1  0  0  0  0
  5  8  1  0  0  0  0
  5 17  1  0  0  0  0
  6 24  1  0  0  0  0
  6 30  2  0  0  0  0
  7  5  1  0  0  0  0
  7  2  2  0  0  0  0
  8  1  1  0  0  0  0
  9  6  1  0  0  0  0
 10  9  1  0  0  0  0
 11 12  1  0  0  0  0
 13 30  1  0  0  0  0
 13 14  1  0  0  0  0
 15  7  1  0  0  0  0
 15 11  2  0  0  0  0
 16 20  1  0  0  0  0
 16 38  1  0  0  0  0
 17 13  2  0  0  0  0
 18 28  2  0  0  0  0
 18 42  1  0  0  0  0
 19 18  1  0  0  0  0
 20 22  1  0  0  0  0
 20 21  1  0  0  0  0
 23 20  1  0  0  0  0
 24 27  1  0  0  0  0
 24 25  1  0  0  0  0
 26 24  1  0  0  0  0
 28 15  1  0  0  0  0
 29 28  1  0  0  0  0
 30 31  1  0  0  0  0
 32 11  1  0  0  0  0
 32 33  1  0  0  0  0
 34 16  1  0  0  0  0
 35 34  1  0  0  0  0
 36 34  1  0  0  0  0
 37 34  1  0  0  0  0
 38 40  1  0  0  0  0
 38 41  1  0  0  0  0
 39 38  1  0  0  0  0
 42 32  2  0  0  0  0
 43 42  1  0  0  0  0
M  END
