9
q = 0.0, confidence = 0.974

 13 12  0  0  0  0  0  0  0  0999 V2000
   -1.2934    3.9159    0.4839 N   0  0  0  0  0  0  0  0  0  0  0  0
    2.6793    4.0178   -0.8528 C   0  0  0  0  0  0  0  0  0  0  0  0
    3.4031    4.5183   -0.1769 H   0  0  0  0  0  0  0  0  0  0  0  0
    1.8308    4.7127   -1.0170 H   0  0  0  0  0  0  0  0  0  0  0  0
    3.1802    3.8626   -1.8313 H   0  0  0  0  0  0  0  0  0  0  0  0
    2.1839    2.6885   -0.2662 C   0  0  0  0  0  0  0  0  0  0  0  0
    3.0515    2.0260   -0.0538 H   0  0  0  0  0  0  0  0  0  0  0  0
    1.6966    2.8838    0.7130 H   0  0  0  0  0  0  0  0  0  0  0  0
    1.2174    1.9627   -1.1841 C   0  0  0  0  0  3  0  0  0  0  0  0
    1.6640    1.6718   -2.1560 H   0  0  0  0  0  0  0  0  0  0  0  0
   -0.1890    2.3203   -1.2592 C   0  0  0  0  0  3  0  0  0  0  0  0
   -0.7171    2.2608   -2.2281 H   0  0  0  0  0  0  0  0  0  0  0  0
   -0.7849    3.2081   -0.3113 C   0  0  0  0  0  0  0  0  0  0  0  0
  2  6  1  0  0  0  0
  2  3  1  0  0  0  0
  4  2  1  0  0  0  0
  5  2  1  0  0  0  0
  6  7  1  0  0  0  0
  6  8  1  0  0  0  0
  9  6  1  0  0  0  0
 10  9  1  0  0  0  0
 11  9  1  0  0  0  0
 11 13  1  0  0  0  0
 12 11  1  0  0  0  0
 13  1  3  0  0  0  0
M  END
