5
q = 0.0, confidence = 0.996

 35 36  0  0  0  0  0  0  0  0999 V2000
   -0.6794    0.5291    1.1473 N   0  0  0  0  0  0  0  0  0  0  0  0
   -1.6122    0.9509    1.2298 H   0  0  0  0  0  0  0  0  0  0  0  0
   -1.5713   -0.8465   -0.4565 N   0  0  0  0  0  0  0  0  0  0  0  0
   -1.4254   -1.6703   -1.0434 H   0  0  0  0  0  0  0  0  0  0  0  0
   -0.4820   -0.4411    0.2422 C   0  0  0  0  0  2  0  0  0  0  0  0
    0.4097    1.1771    1.8692 C   0  0  0  0  0  0  0  0  0  0  0  0
    1.1094    0.3985    2.2309 H   0  0  0  0  0  0  0  0  0  0  0  0
   -0.0314    1.6872    2.7493 H   0  0  0  0  0  0  0  0  0  0  0  0
    1.1496    2.1955    1.0176 C   0  0  0  0  0  0  0  0  0  0  0  0
    0.3999    3.1924    0.5090 N   0  0  0  0  0  0  0  0  0  0  0  0
    1.0063    4.1098   -0.2598 C   0  0  0  0  0  0  0  0  0  0  0  0
    0.3632    4.9110   -0.6659 H   0  0  0  0  0  0  0  0  0  0  0  0
    2.3784    4.0837   -0.5589 C   0  0  0  0  0  0  0  0  0  0  0  0
    2.8233    4.8620   -1.1963 H   0  0  0  0  0  0  0  0  0  0  0  0
    3.1516    3.0377   -0.0374 C   0  0  0  0  0  0  0  0  0  0  0  0
    4.2262    2.9629   -0.2622 H   0  0  0  0  0  0  0  0  0  0  0  0
    2.5277    2.0718    0.7650 C   0  0  0  0  0  0  0  0  0  0  0  0
    3.0928    1.2176    1.1664 H   0  0  0  0  0  0  0  0  0  0  0  0
   -2.9019   -0.3283   -0.3310 C   0  0  0  0  0  0  0  0  0  0  0  0
   -3.1955    0.9741   -0.8126 C   0  0  0  0  0  0  0  0  0  0  0  0
   -4.5161    1.4427   -0.6564 C   0  0  0  0  0  0  0  0  0  0  0  0
   -4.7681    2.4494   -1.0239 H   0  0  0  0  0  0  0  0  0  0  0  0
   -5.5040    0.6454   -0.0659 C   0  0  0  0  0  0  0  0  0  0  0  0
   -6.5292    1.0312    0.0395 H   0  0  0  0  0  0  0  0  0  0  0  0
   -5.1939   -0.6455    0.3853 C   0  0  0  0  0  0  0  0  0  0  0  0
   -5.9726   -1.2722    0.8466 H   0  0  0  0  0  0  0  0  0  0  0  0
   -3.8884   -1.1540    0.2654 C   0  0  0  0  0  0  0  0  0  0  0  0
   -2.1435    1.8285   -1.4683 C   0  0  0  0  0  0  0  0  0  0  0  0
   -2.6086    2.5960   -2.1155 H   0  0  0  0  0  0  0  0  0  0  0  0
   -1.4497    1.2182   -2.0796 H   0  0  0  0  0  0  0  0  0  0  0  0
   -1.5132    2.3574   -0.7180 H   0  0  0  0  0  0  0  0  0  0  0  0
   -3.5318   -2.5346    0.7515 C   0  0  0  0  0  0  0  0  0  0  0  0
   -3.2916   -3.2183   -0.0913 H   0  0  0  0  0  0  0  0  0  0  0  0
   -4.3684   -2.9882    1.3153 H   0  0  0  0  0  0  0  0  0  0  0  0
   -2.6357   -2.5174    1.4049 H   0  0  0  0  0  0  0  0  0  0  0  0
  1  2  1  0  0  0  0
  1  6  1  0  0  0  0
  3 19  1  0  0  0  0
  3  5  1  0  0  0  0
  4  3  1  0  0  0  0
  5  1  1  0  0  0  0
  6  7  1  0  0  0  0
  6  8  1  0  0  0  0
  9  6  1  0  0  0  0
 10  9  2  0  0  0  0
 11 10  1  0  0  0  0
 12 11  1  0  0  0  0
 13 11  2  0  0  0  0
 13 15  1  0  0  0  0
 14 13  1  0  0  0  0
 15 17  2  0  0  0  0
 16 15  1  0  0  0  0
 17  9  1  0  0  0  0
 17 18  1  0  0  0  0
 19 27  1  0  0  0  0
 20 21  1  0  0  0  0
 20 19  2  0  0  0  0
 21 23  2  0  0  0  0
 22 21  1  0  0  0  0
 23 24  1  0  0  0  0
 23 25  1  0  0  0  0
 25 26  1  0  0  0  0
 27 25  2  0  0  0  0
 27 32  1  0  0  0  0
 28 20  1  0  0  0  0
 28 31  1  0  0  0  0
 29 28  1  0  0  0  0
 30 28  1  0  0  0  0
 32 34  1  0  0  0  0
 32 35  1  0  0  0  0
 33 32  1  0  0  0  0
M  END
