4
q = -1.0, confidence = 0.0

 18 18  0  0  0  0  0  0  0  0999 V2000
    5.7778   -1.5415    0.8186 Cl  0  0  0  0  0  0  0  0  0  0  0  0
    1.3134    2.2696   -0.2876 N   0  0  0  0  0  2  0  0  0  0  0  0
   -0.8451    2.9127   -0.5969 O   0  0  0  0  0  0  0  0  0  0  0  0
    0.0834    1.9107   -0.4536 C   0  0  0  0  0  2  0  0  0  0  0  0
   -0.3544    4.2580   -0.5638 C   0  0  0  0  0  0  0  0  0  0  0  0
    2.3271    1.3590   -0.0144 C   0  0  0  0  0  0  0  0  0  0  0  0
    3.5628    1.4743   -0.6971 C   0  0  0  0  0  0  0  0  0  0  0  0
    4.6164    0.5872   -0.4537 C   0  0  0  0  0  0  0  0  0  0  0  0
    4.4596   -0.4294    0.5038 C   0  0  0  0  0  0  0  0  0  0  0  0
    3.2592   -0.5508    1.2205 C   0  0  0  0  0  0  0  0  0  0  0  0
    2.2067    0.3363    0.9620 C   0  0  0  0  0  0  0  0  0  0  0  0
    0.3951    4.4273   -1.3635 H   0  0  0  0  0  0  0  0  0  0  0  0
    0.1383    4.4824    0.4054 H   0  0  0  0  0  0  0  0  0  0  0  0
   -1.2367    4.9092   -0.7125 H   0  0  0  0  0  0  0  0  0  0  0  0
    3.6692    2.2752   -1.4434 H   0  0  0  0  0  0  0  0  0  0  0  0
    5.5652    0.6763   -1.0018 H   0  0  0  0  0  0  0  0  0  0  0  0
    3.1569   -1.3397    1.9798 H   0  0  0  0  0  0  0  0  0  0  0  0
    1.2655    0.2514    1.5252 H   0  0  0  0  0  0  0  0  0  0  0  0
  2  6  1  0  0  0  0
  3  5  1  0  0  0  0
  3  4  1  0  0  0  0
  4  2  1  0  0  0  0
  5 13  1  0  0  0  0
  6 11  1  0  0  0  0
  7  8  1  0  0  0  0
  7  6  2  0  0  0  0
  8  9  2  0  0  0  0
  9  1  1  0  0  0  0
  9 10  1  0  0  0  0
 10 17  1  0  0  0  0
 11 10  2  0  0  0  0
 11 18  1  0  0  0  0
 12  5  1  0  0  0  0
 14  5  1  0  0  0  0
 15  7  1  0  0  0  0
 16  8  1  0  0  0  0
M  END
