2
q = 0.0, confidence = 0.998

 37 39  0  0  0  0  0  0  0  0999 V2000
   -0.8237   -0.0280    0.2415 P   0  0  0  0  0  4  0  0  0  0  0  0
    0.4527   -0.2041    1.4690 C   0  0  0  0  0  3  0  0  0  0  0  0
   -1.0379   -1.5633   -0.7114 C   0  0  0  0  0  0  0  0  0  0  0  0
   -2.1507   -1.6817   -1.5710 C   0  0  0  0  0  0  0  0  0  0  0  0
   -2.3584   -2.8705   -2.2832 C   0  0  0  0  0  0  0  0  0  0  0  0
   -1.4698   -3.9472   -2.1271 C   0  0  0  0  0  0  0  0  0  0  0  0
   -0.3727   -3.8339   -1.2594 C   0  0  0  0  0  0  0  0  0  0  0  0
   -0.1487   -2.6440   -0.5521 C   0  0  0  0  0  0  0  0  0  0  0  0
   -2.4758    0.2657    0.9908 C   0  0  0  0  0  0  0  0  0  0  0  0
   -2.8313   -0.4853    2.1312 C   0  0  0  0  0  0  0  0  0  0  0  0
   -4.0895   -0.3109    2.7225 C   0  0  0  0  0  0  0  0  0  0  0  0
   -5.0008    0.6114    2.1812 C   0  0  0  0  0  0  0  0  0  0  0  0
   -4.6507    1.3600    1.0472 C   0  0  0  0  0  0  0  0  0  0  0  0
   -3.3914    1.1911    0.4505 C   0  0  0  0  0  0  0  0  0  0  0  0
   -0.5497    1.3832   -0.8702 C   0  0  0  0  0  0  0  0  0  0  0  0
   -0.4421    2.6664   -0.2924 C   0  0  0  0  0  0  0  0  0  0  0  0
   -0.2298    3.7818   -1.1114 C   0  0  0  0  0  0  0  0  0  0  0  0
   -0.1347    3.6247   -2.5043 C   0  0  0  0  0  0  0  0  0  0  0  0
   -0.2500    2.3496   -3.0781 C   0  0  0  0  0  0  0  0  0  0  0  0
   -0.4573    1.2250   -2.2657 C   0  0  0  0  0  0  0  0  0  0  0  0
    0.2849    0.5983    2.2146 H   0  0  0  0  0  0  0  0  0  0  0  0
    0.2475   -1.1665    1.9818 H   0  0  0  0  0  0  0  0  0  0  0  0
   -2.8626   -0.8485   -1.6755 H   0  0  0  0  0  0  0  0  0  0  0  0
   -3.2235   -2.9591   -2.9572 H   0  0  0  0  0  0  0  0  0  0  0  0
   -1.6359   -4.8812   -2.6849 H   0  0  0  0  0  0  0  0  0  0  0  0
    0.3254   -4.6751   -1.1360 H   0  0  0  0  0  0  0  0  0  0  0  0
    0.7330   -2.5380    0.0968 H   0  0  0  0  0  0  0  0  0  0  0  0
   -2.1202   -1.2080    2.5601 H   0  0  0  0  0  0  0  0  0  0  0  0
   -4.3599   -0.8976    3.6132 H   0  0  0  0  0  0  0  0  0  0  0  0
   -5.9876    0.7485    2.6485 H   0  0  0  0  0  0  0  0  0  0  0  0
   -5.3612    2.0853    0.6228 H   0  0  0  0  0  0  0  0  0  0  0  0
   -3.1164    1.7855   -0.4334 H   0  0  0  0  0  0  0  0  0  0  0  0
   -0.5049    2.7970    0.7980 H   0  0  0  0  0  0  0  0  0  0  0  0
   -0.1268    4.7778   -0.6562 H   0  0  0  0  0  0  0  0  0  0  0  0
    0.0370    4.5027   -3.1451 H   0  0  0  0  0  0  0  0  0  0  0  0
   -0.1649    2.2227   -4.1675 H   0  0  0  0  0  0  0  0  0  0  0  0
   -0.5143    0.2237   -2.7145 H   0  0  0  0  0  0  0  0  0  0  0  0
  1  9  1  0  0  0  0
  1  2  1  0  0  0  0
  2 22  1  0  0  0  0
  2 21  1  0  0  0  0
  3  8  1  0  0  0  0
  3  1  1  0  0  0  0
  4  3  2  0  0  0  0
  5  6  2  0  0  0  0
  5  4  1  0  0  0  0
  6  7  1  0  0  0  0
  7 26  1  0  0  0  0
  7  8  2  0  0  0  0
  8 27  1  0  0  0  0
  9 10  1  0  0  0  0
 10 28  1  0  0  0  0
 10 11  2  0  0  0  0
 11 29  1  0  0  0  0
 12 30  1  0  0  0  0
 12 11  1  0  0  0  0
 13 12  2  0  0  0  0
 14  9  2  0  0  0  0
 14 13  1  0  0  0  0
 15 16  1  0  0  0  0
 15  1  1  0  0  0  0
 16 33  1  0  0  0  0
 17 34  1  0  0  0  0
 17 16  2  0  0  0  0
 18 17  1  0  0  0  0
 19 18  2  0  0  0  0
 19 20  1  0  0  0  0
 20 15  2  0  0  0  0
 23  4  1  0  0  0  0
 24  5  1  0  0  0  0
 25  6  1  0  0  0  0
 31 13  1  0  0  0  0
 32 14  1  0  0  0  0
 35 18  1  0  0  0  0
 36 19  1  0  0  0  0
 37 20  1  0  0  0  0
M  END
