15
q = -1.0

 48 54  0  0  1  0  0  0  0  0999 V2000
   -0.7280    1.0580   -1.1663 C   0  0  0  0  0  3  0  0  0  0  0  0
   -0.3904    0.9836   -2.2043 H   0  0  0  0  0  0  0  0  0  0  0  0
   -1.9396    1.7231   -0.7264 C   0  0  0  0  0  0  0  0  0  0  0  0
   -3.0261    2.3168   -1.4366 C   0  0  0  0  0  0  0  0  0  0  0  0
   -3.0301    2.3153   -2.5364 H   0  0  0  0  0  0  0  0  0  0  0  0
   -4.0484    2.9121   -0.7135 C   0  0  0  0  0  0  0  0  0  0  0  0
   -4.8833    3.3895   -1.2477 H   0  0  0  0  0  0  0  0  0  0  0  0
   -4.0483    2.9123    0.7135 C   0  0  0  0  0  0  0  0  0  0  0  0
   -4.8831    3.3900    1.2476 H   0  0  0  0  0  0  0  0  0  0  0  0
   -3.0260    2.3173    1.4368 C   0  0  0  0  0  0  0  0  0  0  0  0
   -3.0299    2.3162    2.5365 H   0  0  0  0  0  0  0  0  0  0  0  0
   -1.9395    1.7233    0.7267 C   0  0  0  0  0  0  0  0  0  0  0  0
   -0.7279    1.0583    1.1667 C   0  0  0  0  0  3  0  0  0  0  0  0
   -0.3902    0.9845    2.2047 H   0  0  0  0  0  0  0  0  0  0  0  0
    0.0398    0.6895    0.0002 C   0  0  0  0  0  3  0  0  0  0  0  0
    1.5018    0.3034    0.0001 C   0  0  1  0  0  0  0  0  0  0  0  0
    2.0243   -0.5086   -1.2159 C   0  0  0  0  0  0  0  0  0  0  0  0
    1.2759   -1.1293   -2.2250 C   0  0  0  0  0  0  0  0  0  0  0  0
    0.1795   -1.0811   -2.2240 H   0  0  0  0  0  0  0  0  0  0  0  0
    1.9290   -1.8569   -3.2382 C   0  0  0  0  0  0  0  0  0  0  0  0
    1.3295   -2.3409   -4.0237 H   0  0  0  0  0  0  0  0  0  0  0  0
    3.3244   -1.9756   -3.2451 C   0  0  0  0  0  0  0  0  0  0  0  0
    3.8284   -2.5446   -4.0409 H   0  0  0  0  0  0  0  0  0  0  0  0
    4.0801   -1.3824   -2.2179 C   0  0  0  0  0  0  0  0  0  0  0  0
    5.1756   -1.4914   -2.1945 H   0  0  0  0  0  0  0  0  0  0  0  0
    3.4317   -0.6632   -1.2102 C   0  0  0  0  0  0  0  0  0  0  0  0
    2.3271    1.6243   -0.0006 C   0  0  0  0  0  0  0  0  0  0  0  0
    1.8094    2.9261   -0.0008 C   0  0  0  0  0  0  0  0  0  0  0  0
    0.7245    3.0999   -0.0006 H   0  0  0  0  0  0  0  0  0  0  0  0
    2.6901    4.0241   -0.0014 C   0  0  0  0  0  0  0  0  0  0  0  0
    2.2809    5.0457   -0.0016 H   0  0  0  0  0  0  0  0  0  0  0  0
    4.0778    3.8244   -0.0017 C   0  0  0  0  0  0  0  0  0  0  0  0
    4.7599    4.6880   -0.0021 H   0  0  0  0  0  0  0  0  0  0  0  0
    4.5996    2.5184   -0.0014 C   0  0  0  0  0  0  0  0  0  0  0  0
    5.6876    2.3491   -0.0016 H   0  0  0  0  0  0  0  0  0  0  0  0
    3.7238    1.4282   -0.0008 C   0  0  0  0  0  0  0  0  0  0  0  0
    2.0248   -0.5076    1.2165 C   0  0  0  0  0  0  0  0  0  0  0  0
    1.2769   -1.1274    2.2266 C   0  0  0  0  0  0  0  0  0  0  0  0
    0.1805   -1.0793    2.2261 H   0  0  0  0  0  0  0  0  0  0  0  0
    1.9305   -1.8541    3.2400 C   0  0  0  0  0  0  0  0  0  0  0  0
    1.3314   -2.3376    4.0262 H   0  0  0  0  0  0  0  0  0  0  0  0
    3.3260   -1.9729    3.2464 C   0  0  0  0  0  0  0  0  0  0  0  0
    3.8303   -2.5412    4.0424 H   0  0  0  0  0  0  0  0  0  0  0  0
    4.0811   -1.3806    2.2184 C   0  0  0  0  0  0  0  0  0  0  0  0
    5.1766   -1.4896    2.1945 H   0  0  0  0  0  0  0  0  0  0  0  0
    3.4323   -0.6623    1.2103 C   0  0  0  0  0  0  0  0  0  0  0  0
    4.1155   -0.0376   -0.0003 C   0  0  1  0  0  0  0  0  0  0  0  0
    5.2098   -0.1921   -0.0005 H   0  0  0  0  0  0  0  0  0  0  0  0
  1  3  1  0  0  0  0
  1 15  1  0  0  0  0
  2  1  1  0  0  0  0
  3 12  1  0  0  0  0
  4  3  2  0  0  0  0
  4  6  1  0  0  0  0
  5  4  1  0  0  0  0
  6  8  2  0  0  0  0
  7  6  1  0  0  0  0
  8  9  1  0  0  0  0
  8 10  1  0  0  0  0
 10 11  1  0  0  0  0
 12 13  1  0  0  0  0
 12 10  2  0  0  0  0
 13 14  1  0  0  0  0
 15 13  1  0  0  0  0
 16 15  1  1  0  0  0
 16 37  1  0  0  0  0
 17 26  1  0  0  0  0
 17 16  1  0  0  0  0
 18 19  1  0  0  0  0
 18 17  2  0  0  0  0
 20 18  1  0  0  0  0
 21 20  1  0  0  0  0
 22 20  2  0  0  0  0
 22 24  1  0  0  0  0
 23 22  1  0  0  0  0
 24 25  1  0  0  0  0
 24 26  2  0  0  0  0
 26 47  1  0  0  0  0
 27 16  1  0  0  0  0
 28 29  1  0  0  0  0
 28 27  2  0  0  0  0
 30 28  1  0  0  0  0
 31 30  1  0  0  0  0
 32 30  2  0  0  0  0
 32 34  1  0  0  0  0
 33 32  1  0  0  0  0
 34 36  2  0  0  0  0
 35 34  1  0  0  0  0
 36 27  1  0  0  0  0
 36 47  1  0  0  0  0
 37 38  1  0  0  0  0
 38 40  2  0  0  0  0
 39 38  1  0  0  0  0
 40 42  1  0  0  0  0
 40 41  1  0  0  0  0
 42 43  1  0  0  0  0
 44 42  2  0  0  0  0
 45 44  1  0  0  0  0
 46 37  2  0  0  0  0
 46 44  1  0  0  0  0
 47 48  1  6  0  0  0
 47 46  1  0  0  0  0
M  END
