2
q = -1.0, confidence = 0.0

 31 32  0  0  1  0  0  0  0  0999 V2000
   -0.9139    1.9391   -0.3531 N   0  0  0  0  0  0  0  0  0  0  0  0
    0.7668   -0.1483   -0.0003 C   0  0  0  0  0  3  0  0  0  0  0  0
    1.6517   -1.2206   -0.0748 C   0  0  0  0  0  0  0  0  0  0  0  0
    1.2810   -2.2550   -0.1508 H   0  0  0  0  0  0  0  0  0  0  0  0
    3.0688   -1.0525   -0.0280 C   0  0  0  0  0  0  0  0  0  0  0  0
    3.9722   -2.1528   -0.1120 C   0  0  0  0  0  0  0  0  0  0  0  0
    3.5580   -3.1699   -0.2015 H   0  0  0  0  0  0  0  0  0  0  0  0
    5.3456   -1.9538   -0.0856 C   0  0  0  0  0  0  0  0  0  0  0  0
    6.0285   -2.8147   -0.1528 H   0  0  0  0  0  0  0  0  0  0  0  0
    5.8774   -0.6410    0.0292 C   0  0  0  0  0  0  0  0  0  0  0  0
    6.9679   -0.4929    0.0501 H   0  0  0  0  0  0  0  0  0  0  0  0
    5.0239    0.4503    0.1191 C   0  0  0  0  0  0  0  0  0  0  0  0
    5.4303    1.4700    0.2145 H   0  0  0  0  0  0  0  0  0  0  0  0
    3.6101    0.2770    0.0967 C   0  0  0  0  0  0  0  0  0  0  0  0
    2.6997    1.3673    0.2140 C   0  0  0  0  0  0  0  0  0  0  0  0
    3.1183    2.3771    0.3477 H   0  0  0  0  0  0  0  0  0  0  0  0
    1.3271    1.1648    0.1916 C   0  0  0  0  0  0  0  0  0  0  0  0
    0.3252    2.2608    0.4610 C   0  0  1  0  0  0  0  0  0  0  0  0
   -0.0171    2.1075    1.5077 H   0  0  0  0  0  0  0  0  0  0  0  0
    0.8473    3.6889    0.3105 C   0  0  0  0  0  0  0  0  0  0  0  0
    0.0469    4.4424    0.4452 H   0  0  0  0  0  0  0  0  0  0  0  0
    1.3431    3.8662   -0.6644 H   0  0  0  0  0  0  0  0  0  0  0  0
    1.5970    3.8805    1.1021 H   0  0  0  0  0  0  0  0  0  0  0  0
   -2.0921    2.6691    0.1641 C   0  0  0  0  0  0  0  0  0  0  0  0
   -2.2517    2.3707    1.2170 H   0  0  0  0  0  0  0  0  0  0  0  0
   -2.9814    2.3879   -0.4290 H   0  0  0  0  0  0  0  0  0  0  0  0
   -1.9516    3.7700    0.0918 H   0  0  0  0  0  0  0  0  0  0  0  0
   -0.6831    2.2740   -1.7751 C   0  0  0  0  0  0  0  0  0  0  0  0
    0.2172    1.7395   -2.1309 H   0  0  0  0  0  0  0  0  0  0  0  0
   -0.5376    3.3675   -1.9079 H   0  0  0  0  0  0  0  0  0  0  0  0
   -1.5536    1.9691   -2.3804 H   0  0  0  0  0  0  0  0  0  0  0  0
  1 24  1  0  0  0  0
  1 18  1  0  0  0  0
  2 17  1  0  0  0  0
  3  5  1  0  0  0  0
  3  2  2  0  0  0  0
  4  3  1  0  0  0  0
  5 14  1  0  0  0  0
  6  8  1  0  0  0  0
  6  5  2  0  0  0  0
  7  6  1  0  0  0  0
  8 10  2  0  0  0  0
  9  8  1  0  0  0  0
 10 11  1  0  0  0  0
 10 12  1  0  0  0  0
 12 13  1  0  0  0  0
 14 12  2  0  0  0  0
 14 15  1  0  0  0  0
 15 16  1  0  0  0  0
 17 15  2  0  0  0  0
 17 18  1  0  0  0  0
 18 19  1  1  0  0  0
 20 21  1  0  0  0  0
 20 18  1  0  0  0  0
 20 23  1  0  0  0  0
 22 20  1  0  0  0  0
 24 25  1  0  0  0  0
 26 24  1  0  0  0  0
 27 24  1  0  0  0  0
 28  1  1  0  0  0  0
 29 28  1  0  0  0  0
 30 28  1  0  0  0  0
 31 28  1  0  0  0  0
M  END
