2
q = -1

  4  3  0  0  0  0  0  0  0  0999 V2000
   -2.3380   -2.0808    0.7562 Cl  0  0  0  0  0  0  0  0  0  0  0  0
   -2.2306   -0.9427   -0.6388 C   0  0  0  0  0  3  0  0  0  0  0  0
   -2.1746   -1.5522   -1.5612 H   0  0  0  0  0  0  0  0  0  0  0  0
   -3.1282   -0.3003   -0.6234 H   0  0  0  0  0  0  0  0  0  0  0  0
  2  4  1  0  0  0  0
  2  1  1  0  0  0  0
  3  2  1  0  0  0  0
M  END
