10
q = 0.0, confidence = 0.984

 56 61  0  0  1  0  0  0  0  0999 V2000
   -1.9092    1.1137   -0.5623 C   0  0  1  0  0  3  0  0  0  0  0  0
   -1.7400    2.5583   -0.3285 C   0  0  0  0  0  0  0  0  0  0  0  0
   -2.6858    3.5556   -0.0333 C   0  0  0  0  0  0  0  0  0  0  0  0
   -2.2326    4.8621    0.2220 C   0  0  0  0  0  0  0  0  0  0  0  0
   -0.8637    5.1769    0.1641 C   0  0  0  0  0  0  0  0  0  0  0  0
    0.0837    4.1862   -0.1701 C   0  0  0  0  0  0  0  0  0  0  0  0
   -0.3587    2.8847   -0.3992 C   0  0  0  0  0  0  0  0  0  0  0  0
    0.3948    1.6611   -0.8880 C   0  0  1  0  0  0  0  0  0  0  0  0
    1.6357    1.2131   -0.1321 C   0  0  0  0  0  3  0  0  0  0  0  0
    2.2299   -0.0339   -0.5628 C   0  0  2  0  0  3  0  0  0  0  0  0
    1.2637   -1.0697   -0.7842 C   0  0  0  0  0  3  0  0  0  0  0  0
   -0.1396   -0.7918   -0.5692 C   0  0  1  0  0  3  0  0  0  0  0  0
   -0.6539    0.5629   -0.7639 C   0  0  1  0  0  3  0  0  0  0  0  0
    0.7531    1.9038   -2.3845 C   0  0  0  0  0  0  0  0  0  0  0  0
   -3.2085    0.4234   -0.4538 C   0  0  0  0  0  0  0  0  0  0  0  0
   -4.0058    0.5688    0.7049 C   0  0  0  0  0  0  0  0  0  0  0  0
   -5.2223   -0.1178    0.8235 C   0  0  0  0  0  0  0  0  0  0  0  0
   -5.6693   -0.9501   -0.2157 C   0  0  0  0  0  0  0  0  0  0  0  0
   -4.8936   -1.0878   -1.3782 C   0  0  0  0  0  0  0  0  0  0  0  0
   -3.6779   -0.4034   -1.4986 C   0  0  0  0  0  0  0  0  0  0  0  0
   -1.0739   -1.9633   -0.5514 C   0  0  0  0  0  0  0  0  0  0  0  0
   -1.9266   -2.2236    0.5402 C   0  0  0  0  0  0  0  0  0  0  0  0
   -2.8276   -3.2945    0.5024 C   0  0  0  0  0  0  0  0  0  0  0  0
   -2.8866   -4.1300   -0.6246 C   0  0  0  0  0  0  0  0  0  0  0  0
   -2.0341   -3.8891   -1.7121 C   0  0  0  0  0  0  0  0  0  0  0  0
   -1.1339   -2.8131   -1.6748 C   0  0  0  0  0  0  0  0  0  0  0  0
    3.6871   -0.2469   -0.7611 C   0  0  0  0  0  0  0  0  0  0  0  0
    4.3097   -1.4747   -0.4453 C   0  0  0  0  0  0  0  0  0  0  0  0
    5.6767   -1.6617   -0.6786 C   0  0  0  0  0  0  0  0  0  0  0  0
    6.4505   -0.6225   -1.2248 C   0  0  0  0  0  0  0  0  0  0  0  0
    5.8445    0.6033   -1.5358 C   0  0  0  0  0  0  0  0  0  0  0  0
    4.4726    0.7894   -1.3070 C   0  0  0  0  0  0  0  0  0  0  0  0
   -3.7587    3.3152    0.0052 H   0  0  0  0  0  0  0  0  0  0  0  0
   -2.9603    5.6496    0.4707 H   0  0  0  0  0  0  0  0  0  0  0  0
   -0.5291    6.2032    0.3782 H   0  0  0  0  0  0  0  0  0  0  0  0
    1.1534    4.4411   -0.2372 H   0  0  0  0  0  0  0  0  0  0  0  0
    2.3216    2.0037    0.2147 H   0  0  0  0  0  0  0  0  0  0  0  0
    1.5855   -2.0901   -1.0391 H   0  0  0  0  0  0  0  0  0  0  0  0
    1.5120    2.7086   -2.4679 H   0  0  0  0  0  0  0  0  0  0  0  0
    1.1676    0.9840   -2.8424 H   0  0  0  0  0  0  0  0  0  0  0  0
   -0.1443    2.2171   -2.9530 H   0  0  0  0  0  0  0  0  0  0  0  0
   -3.6397    1.1961    1.5317 H   0  0  0  0  0  0  0  0  0  0  0  0
   -5.8234   -0.0078    1.7392 H   0  0  0  0  0  0  0  0  0  0  0  0
   -6.6232   -1.4907   -0.1197 H   0  0  0  0  0  0  0  0  0  0  0  0
   -5.2358   -1.7388   -2.1969 H   0  0  0  0  0  0  0  0  0  0  0  0
   -3.0666   -0.5119   -2.4062 H   0  0  0  0  0  0  0  0  0  0  0  0
   -1.8886   -1.5682    1.4211 H   0  0  0  0  0  0  0  0  0  0  0  0
   -3.4926   -3.4743    1.3601 H   0  0  0  0  0  0  0  0  0  0  0  0
   -3.5962   -4.9706   -0.6535 H   0  0  0  0  0  0  0  0  0  0  0  0
   -2.0709   -4.5397   -2.5992 H   0  0  0  0  0  0  0  0  0  0  0  0
   -0.4797   -2.6137   -2.5380 H   0  0  0  0  0  0  0  0  0  0  0  0
    3.7158   -2.2772    0.0187 H   0  0  0  0  0  0  0  0  0  0  0  0
    6.1480   -2.6217   -0.4188 H   0  0  0  0  0  0  0  0  0  0  0  0
    7.5267   -0.7689   -1.4014 H   0  0  0  0  0  0  0  0  0  0  0  0
    6.4421    1.4223   -1.9640 H   0  0  0  0  0  0  0  0  0  0  0  0
    3.9947    1.7453   -1.5695 H   0  0  0  0  0  0  0  0  0  0  0  0
  1 15  1  1  0  0  0
  1  2  1  0  0  0  0
  2  3  1  0  0  0  0
  3 33  1  0  0  0  0
  3  4  2  0  0  0  0
  4 34  1  0  0  0  0
  5  4  1  0  0  0  0
  5 35  1  0  0  0  0
  6  5  2  0  0  0  0
  7  2  2  0  0  0  0
  7  6  1  0  0  0  0
  8 14  1  6  0  0  0
  8 13  1  0  0  0  0
  8  7  1  0  0  0  0
  8  9  1  0  0  0  0
  9 37  1  0  0  0  0
 10 27  1  1  0  0  0
 10  9  1  0  0  0  0
 11 12  1  0  0  0  0
 11 10  1  0  0  0  0
 12 21  1  6  0  0  0
 13 12  1  0  0  0  0
 13  1  1  0  0  0  0
 15 16  1  0  0  0  0
 16 17  2  0  0  0  0
 16 42  1  0  0  0  0
 17 43  1  0  0  0  0
 18 44  1  0  0  0  0
 18 17  1  0  0  0  0
 19 18  2  0  0  0  0
 20 19  1  0  0  0  0
 20 15  2  0  0  0  0
 21 22  1  0  0  0  0
 22 47  1  0  0  0  0
 23 22  2  0  0  0  0
 23 48  1  0  0  0  0
 24 23  1  0  0  0  0
 25 26  1  0  0  0  0
 25 24  2  0  0  0  0
 26 21  2  0  0  0  0
 27 28  1  0  0  0  0
 28 52  1  0  0  0  0
 29 28  2  0  0  0  0
 29 53  1  0  0  0  0
 30 29  1  0  0  0  0
 31 32  1  0  0  0  0
 31 30  2  0  0  0  0
 32 27  2  0  0  0  0
 36  6  1  0  0  0  0
 38 11  1  0  0  0  0
 39 14  1  0  0  0  0
 40 14  1  0  0  0  0
 41 14  1  0  0  0  0
 45 19  1  0  0  0  0
 46 20  1  0  0  0  0
 49 24  1  0  0  0  0
 50 25  1  0  0  0  0
 51 26  1  0  0  0  0
 54 30  1  0  0  0  0
 55 31  1  0  0  0  0
 56 32  1  0  0  0  0
M  END
