1
q = -1.0, confidence = 0.002

 13 13  0  0  0  0  0  0  0  0999 V2000
    1.5879    0.0969    0.0237 C   0  0  0  0  0  1  0  0  0  0  0  0
    2.9970    0.0766    0.0349 C   0  0  0  0  0  0  0  0  0  0  0  0
    3.8222   -1.2052    0.1673 C   0  0  0  0  0  0  0  0  0  0  0  0
    5.2436   -0.7373   -0.2206 C   0  0  0  0  0  0  0  0  0  0  0  0
    5.2650    0.7835    0.0625 C   0  0  0  0  0  0  0  0  0  0  0  0
    3.8175    1.1732   -0.0160 C   0  0  0  0  0  0  0  0  0  0  0  0
    3.4362   -2.0263   -0.4690 H   0  0  0  0  0  0  0  0  0  0  0  0
    3.7671   -1.5620    1.2196 H   0  0  0  0  0  0  0  0  0  0  0  0
    5.3989   -0.9052   -1.3061 H   0  0  0  0  0  0  0  0  0  0  0  0
    6.0387   -1.2911    0.3149 H   0  0  0  0  0  0  0  0  0  0  0  0
    5.9074    1.3579   -0.6379 H   0  0  0  0  0  0  0  0  0  0  0  0
    5.6543    1.0150    1.0833 H   0  0  0  0  0  0  0  0  0  0  0  0
    3.4553    2.2110   -0.0634 H   0  0  0  0  0  0  0  0  0  0  0  0
  1  2  1  0  0  0  0
  2  3  1  0  0  0  0
  3  8  1  0  0  0  0
  4  5  1  0  0  0  0
  4  3  1  0  0  0  0
  4 10  1  0  0  0  0
  5 12  1  0  0  0  0
  6  2  2  0  0  0  0
  6  5  1  0  0  0  0
  7  3  1  0  0  0  0
  9  4  1  0  0  0  0
 11  5  1  0  0  0  0
 13  6  1  0  0  0  0
M  END
