1
q = -1.0

  5  4  0  0  0  0  0  0  0  0999 V2000
   -1.3814   -1.0146   -0.5044 C   0  0  0  0  0  3  0  0  0  0  0  0
   -1.3380   -2.2288   -0.3446 O   0  0  0  0  0  0  0  0  0  0  0  0
   -2.4644   -0.4108   -1.0808 N   0  0  0  0  0  0  0  0  0  0  0  0
   -2.5340    0.5979   -1.1883 H   0  0  0  0  0  0  0  0  0  0  0  0
   -3.2617   -0.9976   -1.3417 H   0  0  0  0  0  0  0  0  0  0  0  0
  1  2  2  0  0  0  0
  3  1  1  0  0  0  0
  4  3  1  0  0  0  0
  5  3  1  0  0  0  0
M  END
