5
q = 0.0, confidence = 0.986

 62 65  0  0  0  0  0  0  0  0999 V2000
   -2.3819   -0.0798    0.4369 P   0  0  0  0  0  0  0  0  0  0  0  0
    2.3818    0.0797    0.4369 P   0  0  0  0  0  0  0  0  0  0  0  0
   -3.0382   -0.2560    2.1733 C   0  0  0  0  0  0  0  0  0  0  0  0
   -1.8562   -0.6803    3.0501 C   0  0  0  0  0  0  0  0  0  0  0  0
   -0.6734    0.2148    2.7472 C   0  0  0  0  0  3  0  0  0  0  0  0
    0.6732   -0.2149    2.7472 C   0  0  0  0  0  3  0  0  0  0  0  0
    1.8561    0.6802    3.0501 C   0  0  0  0  0  0  0  0  0  0  0  0
    3.0381    0.2558    2.1733 C   0  0  0  0  0  0  0  0  0  0  0  0
   -3.2672    1.3511   -0.2941 C   0  0  0  0  0  0  0  0  0  0  0  0
   -4.6282    1.5456    0.0259 C   0  0  0  0  0  0  0  0  0  0  0  0
   -5.3437    2.6032   -0.5523 C   0  0  0  0  0  0  0  0  0  0  0  0
   -4.7078    3.4676   -1.4586 C   0  0  0  0  0  0  0  0  0  0  0  0
   -3.3583    3.2680   -1.7857 C   0  0  0  0  0  0  0  0  0  0  0  0
   -2.6320    2.2148   -1.2078 C   0  0  0  0  0  0  0  0  0  0  0  0
   -3.0247   -1.4988   -0.5217 C   0  0  0  0  0  0  0  0  0  0  0  0
   -3.2228   -1.3570   -1.9101 C   0  0  0  0  0  0  0  0  0  0  0  0
   -3.6760   -2.4460   -2.6675 C   0  0  0  0  0  0  0  0  0  0  0  0
   -3.9327   -3.6796   -2.0491 C   0  0  0  0  0  0  0  0  0  0  0  0
   -3.7283   -3.8253   -0.6680 C   0  0  0  0  0  0  0  0  0  0  0  0
   -3.2677   -2.7429    0.0945 C   0  0  0  0  0  0  0  0  0  0  0  0
    3.2674   -1.3509   -0.2942 C   0  0  0  0  0  0  0  0  0  0  0  0
    4.6287   -1.5444    0.0252 C   0  0  0  0  0  0  0  0  0  0  0  0
    5.3445   -2.6019   -0.5530 C   0  0  0  0  0  0  0  0  0  0  0  0
    4.7087   -3.4670   -1.4586 C   0  0  0  0  0  0  0  0  0  0  0  0
    3.3589   -3.2683   -1.7851 C   0  0  0  0  0  0  0  0  0  0  0  0
    2.6323   -2.2154   -1.2073 C   0  0  0  0  0  0  0  0  0  0  0  0
    3.0245    1.4989   -0.5215 C   0  0  0  0  0  0  0  0  0  0  0  0
    3.2678    2.7428    0.0949 C   0  0  0  0  0  0  0  0  0  0  0  0
    3.7284    3.8253   -0.6675 C   0  0  0  0  0  0  0  0  0  0  0  0
    3.9325    3.6799   -2.0486 C   0  0  0  0  0  0  0  0  0  0  0  0
    3.6754    2.4464   -2.6673 C   0  0  0  0  0  0  0  0  0  0  0  0
    3.2222    1.3573   -1.9100 C   0  0  0  0  0  0  0  0  0  0  0  0
   -3.9026   -0.9469    2.2192 H   0  0  0  0  0  0  0  0  0  0  0  0
   -3.3927    0.7548    2.4625 H   0  0  0  0  0  0  0  0  0  0  0  0
   -1.5787   -1.7361    2.8562 H   0  0  0  0  0  0  0  0  0  0  0  0
   -2.1247   -0.5882    4.1262 H   0  0  0  0  0  0  0  0  0  0  0  0
   -0.8529    1.2982    2.8859 H   0  0  0  0  0  0  0  0  0  0  0  0
    0.8527   -1.2983    2.8860 H   0  0  0  0  0  0  0  0  0  0  0  0
    2.1245    0.5880    4.1262 H   0  0  0  0  0  0  0  0  0  0  0  0
    1.5787    1.7360    2.8561 H   0  0  0  0  0  0  0  0  0  0  0  0
    3.9025    0.9465    2.2193 H   0  0  0  0  0  0  0  0  0  0  0  0
    3.3924   -0.7552    2.4624 H   0  0  0  0  0  0  0  0  0  0  0  0
   -5.1412    0.8629    0.7208 H   0  0  0  0  0  0  0  0  0  0  0  0
   -6.4042    2.7494   -0.2968 H   0  0  0  0  0  0  0  0  0  0  0  0
   -5.2696    4.2984   -1.9126 H   0  0  0  0  0  0  0  0  0  0  0  0
   -2.8561    3.9421   -2.4960 H   0  0  0  0  0  0  0  0  0  0  0  0
   -1.5745    2.0563   -1.4615 H   0  0  0  0  0  0  0  0  0  0  0  0
   -3.0186   -0.3933   -2.3971 H   0  0  0  0  0  0  0  0  0  0  0  0
   -3.8296   -2.3274   -3.7508 H   0  0  0  0  0  0  0  0  0  0  0  0
   -4.2910   -4.5322   -2.6459 H   0  0  0  0  0  0  0  0  0  0  0  0
   -3.9188   -4.7927   -0.1791 H   0  0  0  0  0  0  0  0  0  0  0  0
   -3.0854   -2.8783    1.1696 H   0  0  0  0  0  0  0  0  0  0  0  0
    5.1416   -0.8612    0.7196 H   0  0  0  0  0  0  0  0  0  0  0  0
    6.4053   -2.7473   -0.2979 H   0  0  0  0  0  0  0  0  0  0  0  0
    5.2708   -4.2976   -1.9125 H   0  0  0  0  0  0  0  0  0  0  0  0
    2.8568   -3.9430   -2.4949 H   0  0  0  0  0  0  0  0  0  0  0  0
    1.5745   -2.0576   -1.4606 H   0  0  0  0  0  0  0  0  0  0  0  0
    3.0858    2.8781    1.1700 H   0  0  0  0  0  0  0  0  0  0  0  0
    3.9191    4.7925   -0.1785 H   0  0  0  0  0  0  0  0  0  0  0  0
    4.2908    4.5325   -2.6454 H   0  0  0  0  0  0  0  0  0  0  0  0
    3.8288    2.3280   -3.7506 H   0  0  0  0  0  0  0  0  0  0  0  0
    3.0177    0.3938   -2.3971 H   0  0  0  0  0  0  0  0  0  0  0  0
  1  3  1  0  0  0  0
  2  8  1  0  0  0  0
  3 33  1  0  0  0  0
  3 34  1  0  0  0  0
  3  4  1  0  0  0  0
  4 36  1  0  0  0  0
  5  6  1  0  0  0  0
  5 37  1  0  0  0  0
  5  4  1  0  0  0  0
  6 38  1  0  0  0  0
  6  7  1  0  0  0  0
  7 39  1  0  0  0  0
  8 41  1  0  0  0  0
  8 42  1  0  0  0  0
  8  7  1  0  0  0  0
  9 10  1  0  0  0  0
  9  1  1  0  0  0  0
 10 43  1  0  0  0  0
 11 44  1  0  0  0  0
 11 10  2  0  0  0  0
 12 11  1  0  0  0  0
 13 12  2  0  0  0  0
 13 14  1  0  0  0  0
 14  9  2  0  0  0  0
 15 20  1  0  0  0  0
 15  1  1  0  0  0  0
 16 15  2  0  0  0  0
 17 18  2  0  0  0  0
 17 16  1  0  0  0  0
 18 19  1  0  0  0  0
 19 51  1  0  0  0  0
 19 20  2  0  0  0  0
 20 52  1  0  0  0  0
 21 22  1  0  0  0  0
 21  2  1  0  0  0  0
 22 53  1  0  0  0  0
 23 54  1  0  0  0  0
 23 22  2  0  0  0  0
 24 23  1  0  0  0  0
 25 24  2  0  0  0  0
 25 26  1  0  0  0  0
 26 21  2  0  0  0  0
 27 28  1  0  0  0  0
 27  2  1  0  0  0  0
 28 58  1  0  0  0  0
 29 59  1  0  0  0  0
 29 28  2  0  0  0  0
 30 29  1  0  0  0  0
 31 30  2  0  0  0  0
 31 32  1  0  0  0  0
 32 27  2  0  0  0  0
 35  4  1  0  0  0  0
 40  7  1  0  0  0  0
 45 12  1  0  0  0  0
 46 13  1  0  0  0  0
 47 14  1  0  0  0  0
 48 16  1  0  0  0  0
 49 17  1  0  0  0  0
 50 18  1  0  0  0  0
 55 24  1  0  0  0  0
 56 25  1  0  0  0  0
 57 26  1  0  0  0  0
 60 30  1  0  0  0  0
 61 31  1  0  0  0  0
 62 32  1  0  0  0  0
M  END
