1
q = -1

  3  2  0  0  0  0  0  0  0  0999 V2000
   -0.0120    1.5624   -0.4717 C   0  0  0  0  0  0  0  0  0  0  0  0
   -0.0170    2.7885   -0.2840 C   0  0  0  0  0  0  0  0  0  0  0  0
   -0.0074    4.4274   -0.0647 Cl  0  0  0  0  0  0  0  0  0  0  0  0
  1  2  3  0  0  0  0
  2  3  1  0  0  0  0
M  END
