3
q = 0.0, confidence = 0.99

 28 30  0  0  1  0  0  0  0  0999 V2000
    3.4806   -0.0230   -0.1441 N   0  0  0  0  0  0  0  0  0  0  0  0
    1.9538   -1.4234    0.6144 N   0  0  0  0  0  0  0  0  0  0  0  0
    1.2323   -0.3517    0.0806 C   0  0  0  0  0  3  0  0  0  0  0  0
    2.2074    0.5282   -0.3905 C   0  0  0  0  0  0  0  0  0  0  0  0
    3.3245   -1.2205    0.4801 C   0  0  1  0  0  3  0  0  0  0  0  0
    4.2480   -2.1730    0.9442 C   0  0  0  0  0  0  0  0  0  0  0  0
    5.3259   -1.9937    0.8380 H   0  0  0  0  0  0  0  0  0  0  0  0
    3.7489   -3.3260    1.5446 C   0  0  0  0  0  0  0  0  0  0  0  0
    4.4436   -4.0893    1.9225 H   0  0  0  0  0  0  0  0  0  0  0  0
    2.3455   -3.5150    1.6770 C   0  0  0  0  0  0  0  0  0  0  0  0
    1.9440   -4.4201    2.1516 H   0  0  0  0  0  0  0  0  0  0  0  0
    1.4644   -2.5609    1.2111 C   0  0  0  0  0  0  0  0  0  0  0  0
    0.3684   -2.6142    1.2614 H   0  0  0  0  0  0  0  0  0  0  0  0
    4.7656    0.5044   -0.5662 C   0  0  0  0  0  0  0  0  0  0  0  0
    4.6038    1.2265   -1.3860 H   0  0  0  0  0  0  0  0  0  0  0  0
    5.4039   -0.3197   -0.9394 H   0  0  0  0  0  0  0  0  0  0  0  0
    5.2888    1.0204    0.2651 H   0  0  0  0  0  0  0  0  0  0  0  0
    1.9984    1.8354   -1.0222 C   0  0  0  0  0  0  0  0  0  0  0  0
    2.7343    2.9787   -0.6335 C   0  0  0  0  0  0  0  0  0  0  0  0
    3.4795    2.9038    0.1723 H   0  0  0  0  0  0  0  0  0  0  0  0
    2.4793    4.2227   -1.2261 C   0  0  0  0  0  0  0  0  0  0  0  0
    3.0506    5.1068   -0.9046 H   0  0  0  0  0  0  0  0  0  0  0  0
    1.4831    4.3458   -2.2077 C   0  0  0  0  0  0  0  0  0  0  0  0
    1.2815    5.3247   -2.6686 H   0  0  0  0  0  0  0  0  0  0  0  0
    0.7395    3.2175   -2.5912 C   0  0  0  0  0  0  0  0  0  0  0  0
   -0.0447    3.3069   -3.3582 H   0  0  0  0  0  0  0  0  0  0  0  0
    0.9911    1.9703   -2.0061 C   0  0  0  0  0  0  0  0  0  0  0  0
    0.4152    1.0810   -2.3054 H   0  0  0  0  0  0  0  0  0  0  0  0
  1  5  1  0  0  0  0
  2 12  1  0  0  0  0
  3  2  1  0  0  0  0
  4  1  1  0  0  0  0
  4  3  2  0  0  0  0
  5  2  1  0  0  0  0
  5  6  1  6  0  0  0
  6  8  2  0  0  0  0
  7  6  1  0  0  0  0
  8 10  1  0  0  0  0
  8  9  1  0  0  0  0
 10 11  1  0  0  0  0
 12 13  1  0  0  0  0
 12 10  2  0  0  0  0
 14  1  1  0  0  0  0
 14 17  1  0  0  0  0
 15 14  1  0  0  0  0
 16 14  1  0  0  0  0
 18 19  1  0  0  0  0
 18  4  1  0  0  0  0
 19 20  1  0  0  0  0
 21 22  1  0  0  0  0
 21 19  2  0  0  0  0
 23 21  1  0  0  0  0
 24 23  1  0  0  0  0
 25 23  2  0  0  0  0
 25 27  1  0  0  0  0
 26 25  1  0  0  0  0
 27 18  2  0  0  0  0
 28 27  1  0  0  0  0
M  END
