17
q = -2.0, confidence = 0.624

 42 44  0  0  0  0  0  0  0  0999 V2000
   -0.1109   -0.3838    0.9094 N   0  0  0  0  0  0  0  0  0  0  0  0
   -0.3899   -0.2604    2.2222 C   0  0  0  0  0  0  0  0  0  0  0  0
   -1.2410    0.3472    2.5537 H   0  0  0  0  0  0  0  0  0  0  0  0
    0.5205   -1.0198    2.9925 C   0  0  0  0  0  0  0  0  0  0  0  0
    0.5415   -1.0849    4.0865 H   0  0  0  0  0  0  0  0  0  0  0  0
    1.3763   -1.6554    2.0832 C   0  0  0  0  0  0  0  0  0  0  0  0
    2.1890   -2.3476    2.3301 H   0  0  0  0  0  0  0  0  0  0  0  0
    1.0155   -1.2090    0.7728 C   0  0  0  0  0  0  0  0  0  0  0  0
    1.0598   -1.8123   -0.1450 H   0  0  0  0  0  0  0  0  0  0  0  0
   -0.2490   -0.0960   -1.7038 C   0  0  0  0  0  0  0  0  0  0  0  0
   -0.0308   -1.1095   -2.0909 H   0  0  0  0  0  0  0  0  0  0  0  0
   -0.9058    0.3742   -2.4696 H   0  0  0  0  0  0  0  0  0  0  0  0
    1.0174    0.6915   -1.6034 C   0  0  0  0  0  3  0  0  0  0  0  0
    0.9874    1.5984   -0.9687 H   0  0  0  0  0  0  0  0  0  0  0  0
    2.1429    0.5192   -2.3945 C   0  0  0  0  0  3  0  0  0  0  0  0
    2.1266   -0.3222   -3.1111 H   0  0  0  0  0  0  0  0  0  0  0  0
    3.3769    1.2170   -2.1663 C   0  0  0  0  0  3  0  0  0  0  0  0
    3.2825    2.2610   -1.8288 H   0  0  0  0  0  0  0  0  0  0  0  0
    4.1964    1.0736   -2.8857 H   0  0  0  0  0  0  0  0  0  0  0  0
   -1.0979   -0.0703   -0.2913 B   0  0  0  0  0  0  0  0  0  0  0  0
   -1.7287    1.4503   -0.2004 C   0  0  0  0  0  0  0  0  0  0  0  0
   -1.1592    2.5537    0.4508 C   0  0  0  0  0  0  0  0  0  0  0  0
   -0.0114    2.4304    1.1730 F   0  0  0  0  0  0  0  0  0  0  0  0
   -1.6822    3.8586    0.4011 C   0  0  0  0  0  0  0  0  0  0  0  0
   -1.0756    4.8622    1.0514 F   0  0  0  0  0  0  0  0  0  0  0  0
   -2.8358    4.1055   -0.3545 C   0  0  0  0  0  0  0  0  0  0  0  0
   -3.3525    5.3369   -0.4227 F   0  0  0  0  0  0  0  0  0  0  0  0
   -3.4352    3.0431   -1.0509 C   0  0  0  0  0  0  0  0  0  0  0  0
   -4.5281    3.2652   -1.7910 F   0  0  0  0  0  0  0  0  0  0  0  0
   -2.8668    1.7630   -0.9692 C   0  0  0  0  0  0  0  0  0  0  0  0
   -3.4722    0.7981   -1.6930 F   0  0  0  0  0  0  0  0  0  0  0  0
   -2.2329   -1.2676   -0.1442 C   0  0  0  0  0  0  0  0  0  0  0  0
   -3.3929   -1.1067    0.6357 C   0  0  0  0  0  0  0  0  0  0  0  0
   -3.6409    0.0653    1.2631 F   0  0  0  0  0  0  0  0  0  0  0  0
   -4.3491   -2.1146    0.8415 C   0  0  0  0  0  0  0  0  0  0  0  0
   -5.4407   -1.8863    1.5828 F   0  0  0  0  0  0  0  0  0  0  0  0
   -4.1411   -3.3820    0.2765 C   0  0  0  0  0  0  0  0  0  0  0  0
   -5.0319   -4.3615    0.4633 F   0  0  0  0  0  0  0  0  0  0  0  0
   -2.9793   -3.6123   -0.4737 C   0  0  0  0  0  0  0  0  0  0  0  0
   -2.7487   -4.8256   -0.9941 F   0  0  0  0  0  0  0  0  0  0  0  0
   -2.0559   -2.5668   -0.6502 C   0  0  0  0  0  0  0  0  0  0  0  0
   -0.9340   -2.9125   -1.3362 F   0  0  0  0  0  0  0  0  0  0  0  0
  1  2  1  0  0  0  0
  2  3  1  0  0  0  0
  2  4  2  0  0  0  0
  4  5  1  0  0  0  0
  6  7  1  0  0  0  0
  6  4  1  0  0  0  0
  8  1  1  0  0  0  0
  8  6  2  0  0  0  0
  9  8  1  0  0  0  0
 10 13  1  0  0  0  0
 10 20  1  0  0  0  0
 11 10  1  0  0  0  0
 12 10  1  0  0  0  0
 13 14  1  0  0  0  0
 15 17  1  0  0  0  0
 15 13  1  0  0  0  0
 16 15  1  0  0  0  0
 17 18  1  0  0  0  0
 19 17  1  0  0  0  0
 20 21  1  0  0  0  0
 20 32  1  0  0  0  0
 20  1  1  0  0  0  0
 21 22  1  0  0  0  0
 22 23  1  0  0  0  0
 24 22  2  0  0  0  0
 24 25  1  0  0  0  0
 26 24  1  0  0  0  0
 27 26  1  0  0  0  0
 28 30  1  0  0  0  0
 28 26  2  0  0  0  0
 29 28  1  0  0  0  0
 30 21  2  0  0  0  0
 31 30  1  0  0  0  0
 32 33  1  0  0  0  0
 33 35  2  0  0  0  0
 33 34  1  0  0  0  0
 35 36  1  0  0  0  0
 37 38  1  0  0  0  0
 37 35  1  0  0  0  0
 39 37  2  0  0  0  0
 40 39  1  0  0  0  0
 41 39  1  0  0  0  0
 41 32  2  0  0  0  0
 42 41  1  0  0  0  0
M  END
