1
q = -1.0, confidence = 0.06

 44 47  0  0  0  0  0  0  0  0999 V2000
   -1.0271   -1.9207    0.4720 C   0  0  0  0  0  1  0  0  0  0  0  0
   -0.0067   -2.6028    0.6174 C   0  0  0  0  0  2  0  0  0  0  0  0
    1.1946   -3.4175    0.7915 C   0  0  0  0  0  0  0  0  0  0  0  0
    1.1709   -4.2915    0.1106 H   0  0  0  0  0  0  0  0  0  0  0  0
    1.2812   -3.7602    1.8416 H   0  0  0  0  0  0  0  0  0  0  0  0
    3.0645   -2.0079    1.5624 C   0  0  0  0  0  0  0  0  0  0  0  0
    4.2767   -1.2264    1.2238 C   0  0  0  0  0  0  0  0  0  0  0  0
    4.7741   -1.1789   -0.1095 C   0  0  0  0  0  0  0  0  0  0  0  0
    4.0796   -1.8604   -1.1501 C   0  0  0  0  0  0  0  0  0  0  0  0
    2.8728   -2.6804   -0.8471 C   0  0  0  0  0  0  0  0  0  0  0  0
    4.9374   -0.5137    2.2237 C   0  0  0  0  0  0  0  0  0  0  0  0
    4.5277   -0.5595    3.2439 H   0  0  0  0  0  0  0  0  0  0  0  0
    6.1158    0.2052    1.9473 C   0  0  0  0  0  0  0  0  0  0  0  0
    6.6363    0.7066    2.7743 H   0  0  0  0  0  0  0  0  0  0  0  0
    6.6697    0.2350    0.6559 C   0  0  0  0  0  0  0  0  0  0  0  0
    5.9519   -0.4165   -0.4211 C   0  0  0  0  0  0  0  0  0  0  0  0
    6.3216   -0.2834   -1.7889 C   0  0  0  0  0  0  0  0  0  0  0  0
    7.1533    0.3858   -2.0505 H   0  0  0  0  0  0  0  0  0  0  0  0
    5.6187   -0.9445   -2.7928 C   0  0  0  0  0  0  0  0  0  0  0  0
    5.9181   -0.8179   -3.8440 H   0  0  0  0  0  0  0  0  0  0  0  0
    4.5104   -1.7583   -2.4720 C   0  0  0  0  0  0  0  0  0  0  0  0
    3.9429   -2.3003   -3.2428 H   0  0  0  0  0  0  0  0  0  0  0  0
    8.3190    1.9520    1.2832 C   0  0  0  0  0  0  0  0  0  0  0  0
    8.8177    1.5250    2.1924 H   0  0  0  0  0  0  0  0  0  0  0  0
    7.4317    2.5159    1.6315 H   0  0  0  0  0  0  0  0  0  0  0  0
    9.2920    2.8918    0.5643 C   0  0  0  0  0  0  0  0  0  0  0  0
    8.7458    3.4131   -0.2526 H   0  0  0  0  0  0  0  0  0  0  0  0
    9.6368    3.6728    1.2744 H   0  0  0  0  0  0  0  0  0  0  0  0
   10.4935    2.1429   -0.0317 C   0  0  0  0  0  0  0  0  0  0  0  0
   11.0571    1.6883    0.8172 H   0  0  0  0  0  0  0  0  0  0  0  0
    9.9836    0.9877   -0.9076 C   0  0  0  0  0  0  0  0  0  0  0  0
    9.4853    1.4044   -1.8115 H   0  0  0  0  0  0  0  0  0  0  0  0
   10.8333    0.3671   -1.2627 H   0  0  0  0  0  0  0  0  0  0  0  0
    8.9944    0.1069   -0.1474 C   0  0  0  0  0  0  0  0  0  0  0  0
    8.6030   -0.7038   -0.7882 H   0  0  0  0  0  0  0  0  0  0  0  0
    9.5233   -0.3897    0.7068 H   0  0  0  0  0  0  0  0  0  0  0  0
   11.4371    3.0757   -0.7914 C   0  0  0  0  0  0  0  0  0  0  0  0
   10.9158    3.5535   -1.6479 H   0  0  0  0  0  0  0  0  0  0  0  0
   12.3112    2.5257   -1.1961 H   0  0  0  0  0  0  0  0  0  0  0  0
   11.8189    3.8864   -0.1379 H   0  0  0  0  0  0  0  0  0  0  0  0
    2.4393   -2.6813    0.4902 N   0  0  0  0  0  0  0  0  0  0  0  0
    7.8720    0.8972    0.3799 N   0  0  0  0  0  0  0  0  0  0  0  0
    2.6130   -2.0854    2.7027 O   0  0  0  0  0  0  0  0  0  0  0  0
    2.2773   -3.3238   -1.7075 O   0  0  0  0  0  0  0  0  0  0  0  0
  1  2  1  0  0  0  0
  2  3  1  0  0  0  0
  3  5  1  0  0  0  0
  4  3  1  0  0  0  0
  6 43  2  0  0  0  0
  7  6  1  0  0  0  0
  7 11  1  0  0  0  0
  8  7  2  0  0  0  0
  9 10  1  0  0  0  0
  9  8  1  0  0  0  0
 10 41  1  0  0  0  0
 11 12  1  0  0  0  0
 13 11  2  0  0  0  0
 13 14  1  0  0  0  0
 15 13  1  0  0  0  0
 16  8  1  0  0  0  0
 16 15  2  0  0  0  0
 17 16  1  0  0  0  0
 18 17  1  0  0  0  0
 19 21  1  0  0  0  0
 19 17  2  0  0  0  0
 20 19  1  0  0  0  0
 21  9  2  0  0  0  0
 22 21  1  0  0  0  0
 23 25  1  0  0  0  0
 23 24  1  0  0  0  0
 26 28  1  0  0  0  0
 26 23  1  0  0  0  0
 27 26  1  0  0  0  0
 29 26  1  0  0  0  0
 29 30  1  0  0  0  0
 31 34  1  0  0  0  0
 31 29  1  0  0  0  0
 32 31  1  0  0  0  0
 33 31  1  0  0  0  0
 34 42  1  0  0  0  0
 34 36  1  0  0  0  0
 35 34  1  0  0  0  0
 37 40  1  0  0  0  0
 37 29  1  0  0  0  0
 38 37  1  0  0  0  0
 39 37  1  0  0  0  0
 41  3  1  0  0  0  0
 41  6  1  0  0  0  0
 42 15  1  0  0  0  0
 42 23  1  0  0  0  0
 44 10  2  0  0  0  0
M  END
