10
q = 0.0, confidence = 0.976

 33 35  0  0  1  0  0  0  0  0999 V2000
   -5.1224    2.5599   -0.0423 O   0  0  0  0  0  0  0  0  0  0  0  0
   -5.2626   -1.8446    1.2692 O   0  0  0  0  0  0  0  0  0  0  0  0
   -2.1194    2.5546   -0.8372 O   0  0  0  0  0  0  0  0  0  0  0  0
   -2.7549   -2.1659   -1.4054 O   0  0  0  0  0  0  0  0  0  0  0  0
   -5.4530    0.3262    0.4643 N   0  0  0  0  0  0  0  0  0  0  0  0
   -3.3027    1.1974    0.9263 C   0  0  1  0  0  0  0  0  0  0  0  0
   -3.3773   -0.2625    1.4252 C   0  0  2  0  0  0  0  0  0  0  0  0
   -2.2732   -1.1266    0.7282 C   0  0  2  0  0  0  0  0  0  0  0  0
   -0.9454   -0.4495    1.1095 C   0  0  0  0  0  3  0  0  0  0  0  0
   -0.8747    0.9177    0.6016 C   0  0  0  0  0  3  0  0  0  0  0  0
   -2.1593    1.2979   -0.1803 C   0  0  2  0  0  0  0  0  0  0  0  0
   -4.6911    1.5013    0.3856 C   0  0  0  0  0  0  0  0  0  0  0  0
   -4.7827   -0.7400    1.0747 C   0  0  0  0  0  0  0  0  0  0  0  0
   -2.4807    0.2616   -1.2302 C   0  0  0  0  0  0  0  0  0  0  0  0
   -2.5200   -1.0028   -0.7491 C   0  0  0  0  0  0  0  0  0  0  0  0
   -6.8105    0.2355   -0.0261 C   0  0  0  0  0  0  0  0  0  0  0  0
   -7.3887    1.1195    0.3049 H   0  0  0  0  0  0  0  0  0  0  0  0
   -7.2505   -0.6988    0.3698 H   0  0  0  0  0  0  0  0  0  0  0  0
   -6.8252    0.2087   -1.1352 H   0  0  0  0  0  0  0  0  0  0  0  0
   -2.0974    3.7124   -0.0242 C   0  0  0  0  0  0  0  0  0  0  0  0
   -3.0867    3.8906    0.4508 H   0  0  0  0  0  0  0  0  0  0  0  0
   -1.8766    4.5645   -0.6967 H   0  0  0  0  0  0  0  0  0  0  0  0
   -1.3017    3.6786    0.7547 H   0  0  0  0  0  0  0  0  0  0  0  0
   -3.0331   -2.0503   -2.7968 C   0  0  0  0  0  0  0  0  0  0  0  0
   -3.0704    1.9112    1.7412 H   0  0  0  0  0  0  0  0  0  0  0  0
   -3.2461   -0.3373    2.5242 H   0  0  0  0  0  0  0  0  0  0  0  0
   -2.3656   -2.1812    1.0514 H   0  0  0  0  0  0  0  0  0  0  0  0
   -0.7260   -0.5991    2.1837 H   0  0  0  0  0  0  0  0  0  0  0  0
   -0.5667    1.7011    1.3215 H   0  0  0  0  0  0  0  0  0  0  0  0
   -2.5969    0.5772   -2.2731 H   0  0  0  0  0  0  0  0  0  0  0  0
   -2.1681   -1.6054   -3.3317 H   0  0  0  0  0  0  0  0  0  0  0  0
   -3.9363   -1.4216   -2.9636 H   0  0  0  0  0  0  0  0  0  0  0  0
   -3.2231   -3.0745   -3.1674 H   0  0  0  0  0  0  0  0  0  0  0  0
  1 12  2  0  0  0  0
  3 20  1  0  0  0  0
  4 15  1  0  0  0  0
  5 13  1  0  0  0  0
  6  7  1  0  0  0  0
  6 25  1  1  0  0  0
  7 26  1  1  0  0  0
  8 27  1  1  0  0  0
  8  9  1  0  0  0  0
  8  7  1  0  0  0  0
  9 28  1  0  0  0  0
 10  9  1  0  0  0  0
 10 29  1  0  0  0  0
 11  3  1  6  0  0  0
 11 10  1  0  0  0  0
 11  6  1  0  0  0  0
 12  5  1  0  0  0  0
 12  6  1  0  0  0  0
 13  2  2  0  0  0  0
 13  7  1  0  0  0  0
 14 15  2  0  0  0  0
 14 11  1  0  0  0  0
 15  8  1  0  0  0  0
 16 17  1  0  0  0  0
 16 18  1  0  0  0  0
 16  5  1  0  0  0  0
 19 16  1  0  0  0  0
 20 21  1  0  0  0  0
 20 23  1  0  0  0  0
 22 20  1  0  0  0  0
 24  4  1  0  0  0  0
 30 14  1  0  0  0  0
 31 24  1  0  0  0  0
 32 24  1  0  0  0  0
 33 24  1  0  0  0  0
M  END
