11
q = -1.0

 37 37  0  0  0  0  0  0  0  0999 V2000
   -1.2004    0.7697   -0.0731 P   0  0  0  0  0  0  0  0  0  0  0  0
   -2.4574   -0.5620    0.1577 C   0  0  0  0  0  0  0  0  0  0  0  0
   -1.8336   -1.8173    0.3660 C   0  0  0  0  0  0  0  0  0  0  0  0
   -2.6357   -2.9758    0.4364 C   0  0  0  0  0  0  0  0  0  0  0  0
   -2.1492   -3.9540    0.5753 H   0  0  0  0  0  0  0  0  0  0  0  0
   -4.0259   -2.8854    0.3336 C   0  0  0  0  0  0  0  0  0  0  0  0
   -4.6454   -3.7946    0.3783 H   0  0  0  0  0  0  0  0  0  0  0  0
   -4.6365   -1.6318    0.1786 C   0  0  0  0  0  0  0  0  0  0  0  0
   -5.7336   -1.5618    0.1112 H   0  0  0  0  0  0  0  0  0  0  0  0
   -3.8743   -0.4512    0.0965 C   0  0  0  0  0  0  0  0  0  0  0  0
   -0.3442   -1.9094    0.5778 C   0  0  0  0  0  3  0  0  0  0  0  0
    0.0436   -2.8197    0.0733 H   0  0  0  0  0  0  0  0  0  0  0  0
   -0.1728   -2.0484    1.6697 H   0  0  0  0  0  0  0  0  0  0  0  0
   -4.6072    0.8638   -0.0102 C   0  0  0  0  0  0  0  0  0  0  0  0
   -4.6565    1.3708    0.9770 H   0  0  0  0  0  0  0  0  0  0  0  0
   -5.6506    0.7075   -0.3450 H   0  0  0  0  0  0  0  0  0  0  0  0
   -4.1286    1.5693   -0.7140 H   0  0  0  0  0  0  0  0  0  0  0  0
   -1.3638    1.9946    1.3641 C   0  0  0  0  0  0  0  0  0  0  0  0
   -0.3071    2.3102    1.4876 H   0  0  0  0  0  0  0  0  0  0  0  0
   -1.7721    1.2243    2.6244 C   0  0  0  0  0  0  0  0  0  0  0  0
   -1.6376    1.8559    3.5273 H   0  0  0  0  0  0  0  0  0  0  0  0
   -1.1633    0.3071    2.7499 H   0  0  0  0  0  0  0  0  0  0  0  0
   -2.8345    0.9113    2.5797 H   0  0  0  0  0  0  0  0  0  0  0  0
   -2.1949    3.2618    1.1474 C   0  0  0  0  0  0  0  0  0  0  0  0
   -3.2636    3.0430    0.9621 H   0  0  0  0  0  0  0  0  0  0  0  0
   -1.8187    3.8728    0.3035 H   0  0  0  0  0  0  0  0  0  0  0  0
   -2.1436    3.8954    2.0582 H   0  0  0  0  0  0  0  0  0  0  0  0
   -1.6586    1.7466   -1.6204 C   0  0  0  0  0  0  0  0  0  0  0  0
   -2.4316    2.4720   -1.2889 H   0  0  0  0  0  0  0  0  0  0  0  0
   -2.2403    0.8766   -2.7397 C   0  0  0  0  0  0  0  0  0  0  0  0
   -2.5280    1.5252   -3.5941 H   0  0  0  0  0  0  0  0  0  0  0  0
   -3.1382    0.3159   -2.4173 H   0  0  0  0  0  0  0  0  0  0  0  0
   -1.4893    0.1408   -3.0855 H   0  0  0  0  0  0  0  0  0  0  0  0
   -0.4275    2.5291   -2.0917 C   0  0  0  0  0  0  0  0  0  0  0  0
    0.3724    1.8241   -2.3939 H   0  0  0  0  0  0  0  0  0  0  0  0
   -0.0226    3.1929   -1.3019 H   0  0  0  0  0  0  0  0  0  0  0  0
   -0.6904    3.1622   -2.9646 H   0  0  0  0  0  0  0  0  0  0  0  0
  1  2  1  0  0  0  0
  1 18  1  0  0  0  0
  2  3  1  0  0  0  0
  3  4  2  0  0  0  0
  3 11  1  0  0  0  0
  4  5  1  0  0  0  0
  6  7  1  0  0  0  0
  6  4  1  0  0  0  0
  8  6  2  0  0  0  0
  9  8  1  0  0  0  0
 10  2  2  0  0  0  0
 10  8  1  0  0  0  0
 11 13  1  0  0  0  0
 12 11  1  0  0  0  0
 14 10  1  0  0  0  0
 14 15  1  0  0  0  0
 16 14  1  0  0  0  0
 17 14  1  0  0  0  0
 18 19  1  0  0  0  0
 18 20  1  0  0  0  0
 20 22  1  0  0  0  0
 20 21  1  0  0  0  0
 23 20  1  0  0  0  0
 24 18  1  0  0  0  0
 24 27  1  0  0  0  0
 25 24  1  0  0  0  0
 26 24  1  0  0  0  0
 28 29  1  0  0  0  0
 28  1  1  0  0  0  0
 30 32  1  0  0  0  0
 30 28  1  0  0  0  0
 31 30  1  0  0  0  0
 33 30  1  0  0  0  0
 34 28  1  0  0  0  0
 34 36  1  0  0  0  0
 35 34  1  0  0  0  0
 37 34  1  0  0  0  0
M  END
