3
q = -1.0

 28 29  0  0  0  0  0  0  0  0999 V2000
    3.0910   -0.0326   -1.0023 P   0  0  0  0  0  4  0  0  0  0  0  0
    3.6148   -0.3748   -2.8233 B   0  0  0  0  0  0  0  0  0  0  0  0
    1.3469   -0.2173   -0.6706 C   0  0  0  0  0  1  0  0  0  0  0  0
    3.8654   -1.1529    0.2349 C   0  0  0  0  0  0  0  0  0  0  0  0
    3.7247   -2.5412    0.0312 C   0  0  0  0  0  0  0  0  0  0  0  0
    4.2462   -3.4418    0.9702 C   0  0  0  0  0  0  0  0  0  0  0  0
    4.9221   -2.9653    2.1060 C   0  0  0  0  0  0  0  0  0  0  0  0
    5.0780   -1.5839    2.2999 C   0  0  0  0  0  0  0  0  0  0  0  0
    4.5486   -0.6756    1.3696 C   0  0  0  0  0  0  0  0  0  0  0  0
    3.4506    1.6667   -0.4044 C   0  0  0  0  0  0  0  0  0  0  0  0
    2.6289    2.3000    0.5517 C   0  0  0  0  0  0  0  0  0  0  0  0
    2.9345    3.5980    0.9863 C   0  0  0  0  0  0  0  0  0  0  0  0
    4.0577    4.2672    0.4727 C   0  0  0  0  0  0  0  0  0  0  0  0
    4.8735    3.6394   -0.4826 C   0  0  0  0  0  0  0  0  0  0  0  0
    4.5710    2.3430   -0.9265 C   0  0  0  0  0  0  0  0  0  0  0  0
    3.2031   -2.9137   -0.8629 H   0  0  0  0  0  0  0  0  0  0  0  0
    4.1234   -4.5238    0.8118 H   0  0  0  0  0  0  0  0  0  0  0  0
    5.3324   -3.6746    2.8408 H   0  0  0  0  0  0  0  0  0  0  0  0
    5.6144   -1.2071    3.1842 H   0  0  0  0  0  0  0  0  0  0  0  0
    4.6631    0.4072    1.5283 H   0  0  0  0  0  0  0  0  0  0  0  0
    1.7377    1.7792    0.9357 H   0  0  0  0  0  0  0  0  0  0  0  0
    2.2872    4.0911    1.7275 H   0  0  0  0  0  0  0  0  0  0  0  0
    4.2946    5.2866    0.8138 H   0  0  0  0  0  0  0  0  0  0  0  0
    5.7486    4.1658   -0.8930 H   0  0  0  0  0  0  0  0  0  0  0  0
    5.1941    1.8506   -1.6884 H   0  0  0  0  0  0  0  0  0  0  0  0
    2.9805    0.4429   -3.4871 H   0  0  0  0  0  0  0  0  0  0  0  0
    4.8348   -0.1990   -2.8173 H   0  0  0  0  0  0  0  0  0  0  0  0
    3.2889   -1.5444   -3.0191 H   0  0  0  0  0  0  0  0  0  0  0  0
  1  3  1  0  0  0  0
  1 10  1  0  0  0  0
  1  4  1  0  0  0  0
  2 27  1  0  0  0  0
  2  1  1  0  0  0  0
  4  9  1  0  0  0  0
  5  4  2  0  0  0  0
  5  6  1  0  0  0  0
  6  7  2  0  0  0  0
  7  8  1  0  0  0  0
  7 18  1  0  0  0  0
  8 19  1  0  0  0  0
  9 20  1  0  0  0  0
  9  8  2  0  0  0  0
 10 11  1  0  0  0  0
 11 21  1  0  0  0  0
 11 12  2  0  0  0  0
 12 22  1  0  0  0  0
 13 23  1  0  0  0  0
 13 12  1  0  0  0  0
 14 13  2  0  0  0  0
 15 14  1  0  0  0  0
 15 10  2  0  0  0  0
 16  5  1  0  0  0  0
 17  6  1  0  0  0  0
 24 14  1  0  0  0  0
 25 15  1  0  0  0  0
 26  2  1  0  0  0  0
 28  2  1  0  0  0  0
M  END
