1
q = 0.0, confidence = 0.992

 22 22  0  0  0  0  0  0  0  0999 V2000
    1.4888   -0.8449   -0.4441 C   0  0  0  0  0  2  0  0  0  0  0  0
    3.6958   -1.3381   -0.6877 C   0  0  0  0  0  0  0  0  0  0  0  0
    4.7571   -1.1158   -0.8244 H   0  0  0  0  0  0  0  0  0  0  0  0
    3.0269   -2.5155   -0.4723 C   0  0  0  0  0  0  0  0  0  0  0  0
    3.3926   -3.5452   -0.4136 H   0  0  0  0  0  0  0  0  0  0  0  0
    0.6309   -3.1713   -0.1019 C   0  0  0  0  0  0  0  0  0  0  0  0
    0.8535   -3.7682    0.8042 H   0  0  0  0  0  0  0  0  0  0  0  0
    0.5516   -3.8546   -0.9705 H   0  0  0  0  0  0  0  0  0  0  0  0
   -0.3316   -2.6438    0.0390 H   0  0  0  0  0  0  0  0  0  0  0  0
    3.0345    1.0852   -0.8395 C   0  0  0  0  0  0  0  0  0  0  0  0
    2.0650    1.6104   -0.9385 H   0  0  0  0  0  0  0  0  0  0  0  0
    3.6018    1.2191   -1.7830 H   0  0  0  0  0  0  0  0  0  0  0  0
    3.8328    1.6666    0.3192 C   0  0  0  0  0  0  0  0  0  0  0  0
    3.8998    2.7752    0.1824 H   0  0  0  0  0  0  0  0  0  0  0  0
    3.2890    1.4865    1.2815 H   0  0  0  0  0  0  0  0  0  0  0  0
    5.9196    1.4952    1.4054 C   0  0  0  0  0  0  0  0  0  0  0  0
    6.1043    2.5947    1.3742 H   0  0  0  0  0  0  0  0  0  0  0  0
    6.8889    0.9700    1.3167 H   0  0  0  0  0  0  0  0  0  0  0  0
    5.4636    1.2460    2.3928 H   0  0  0  0  0  0  0  0  0  0  0  0
    2.7371   -0.3354   -0.6687 N   0  0  0  0  0  0  0  0  0  0  0  0
    1.6855   -2.1912   -0.3260 N   0  0  0  0  0  0  0  0  0  0  0  0
    5.1054    1.0703    0.3289 O   0  0  0  0  0  0  0  0  0  0  0  0
  1 21  1  0  0  0  0
  2 20  1  0  0  0  0
  2  4  2  0  0  0  0
  3  2  1  0  0  0  0
  4  5  1  0  0  0  0
  4 21  1  0  0  0  0
  6  9  1  0  0  0  0
  6  7  1  0  0  0  0
  8  6  1  0  0  0  0
 10 20  1  0  0  0  0
 10 13  1  0  0  0  0
 11 10  1  0  0  0  0
 12 10  1  0  0  0  0
 13 22  1  0  0  0  0
 13 15  1  0  0  0  0
 14 13  1  0  0  0  0
 16 19  1  0  0  0  0
 17 16  1  0  0  0  0
 18 16  1  0  0  0  0
 20  1  1  0  0  0  0
 21  6  1  0  0  0  0
 22 16  1  0  0  0  0
M  END
