3
q = -1.0

 18 20  0  0  0  0  0  0  0  0999 V2000
   -1.4717   -1.1085    0.6303 N   0  0  0  0  0  0  0  0  0  0  0  0
   -1.4718    1.1084    0.6303 N   0  0  0  0  0  0  0  0  0  0  0  0
   -0.6403   -0.0000    1.0078 C   0  0  0  0  0  3  0  0  0  0  0  0
   -1.4260   -2.4835    0.7463 C   0  0  0  0  0  0  0  0  0  0  0  0
   -2.5382   -2.9830    0.0720 C   0  0  0  0  0  0  0  0  0  0  0  0
   -3.2787   -1.8806   -0.4705 C   0  0  0  0  0  0  0  0  0  0  0  0
   -2.5936   -0.7232   -0.1074 C   0  0  0  0  0  0  0  0  0  0  0  0
   -2.5936    0.7231   -0.1074 C   0  0  0  0  0  0  0  0  0  0  0  0
   -3.2789    1.8804   -0.4704 C   0  0  0  0  0  0  0  0  0  0  0  0
   -2.5385    2.9828    0.0723 C   0  0  0  0  0  0  0  0  0  0  0  0
   -1.4263    2.4834    0.7465 C   0  0  0  0  0  0  0  0  0  0  0  0
   -0.3742   -0.0000    2.0792 H   0  0  0  0  0  0  0  0  0  0  0  0
   -0.6214   -2.9930    1.2858 H   0  0  0  0  0  0  0  0  0  0  0  0
   -2.7985   -4.0439   -0.0158 H   0  0  0  0  0  0  0  0  0  0  0  0
   -4.2117   -1.9310   -1.0407 H   0  0  0  0  0  0  0  0  0  0  0  0
   -4.2119    1.9308   -1.0405 H   0  0  0  0  0  0  0  0  0  0  0  0
   -2.7990    4.0436   -0.0154 H   0  0  0  0  0  0  0  0  0  0  0  0
   -0.6216    2.9929    1.2860 H   0  0  0  0  0  0  0  0  0  0  0  0
  1  4  1  0  0  0  0
  1  3  1  0  0  0  0
  2 11  1  0  0  0  0
  2  3  1  0  0  0  0
  3 12  1  0  0  0  0
  4 13  1  0  0  0  0
  5  4  2  0  0  0  0
  6  7  2  0  0  0  0
  6  5  1  0  0  0  0
  7  8  1  0  0  0  0
  7  1  1  0  0  0  0
  8  2  1  0  0  0  0
  9  8  2  0  0  0  0
  9 10  1  0  0  0  0
 10 11  2  0  0  0  0
 11 18  1  0  0  0  0
 14  5  1  0  0  0  0
 15  6  1  0  0  0  0
 16  9  1  0  0  0  0
 17 10  1  0  0  0  0
M  END
