3
q = -1.0

 26 27  0  0  0  0  0  0  0  0999 V2000
   -1.8712    3.1927   -0.4655 O   0  0  0  0  0  0  0  0  0  0  0  0
   -4.0339    3.8626   -0.6571 O   0  0  0  0  0  0  0  0  0  0  0  0
   -2.6777    0.6098    0.5397 C   0  0  0  0  0  3  0  0  0  0  0  0
   -3.2291    3.0021   -0.3545 C   0  0  0  0  0  0  0  0  0  0  0  0
   -3.2811   -1.6684    1.4779 C   0  0  0  0  0  0  0  0  0  0  0  0
   -4.2538   -2.0422    1.8609 H   0  0  0  0  0  0  0  0  0  0  0  0
   -2.5821   -1.6011    2.3358 H   0  0  0  0  0  0  0  0  0  0  0  0
   -3.5431    1.6624    0.1767 C   0  0  0  0  0  0  0  0  0  0  0  0
   -4.8481    1.2906    0.4052 N   0  0  0  0  0  0  0  0  0  0  0  0
   -3.5597   -0.3343    0.9788 N   0  0  0  0  0  0  0  0  0  0  0  0
   -4.8652    0.0881    0.8878 N   0  0  0  0  0  0  0  0  0  0  0  0
   -3.2035   -2.5679   -0.8983 C   0  0  0  0  0  0  0  0  0  0  0  0
   -3.9443   -1.8038   -1.1795 H   0  0  0  0  0  0  0  0  0  0  0  0
   -2.7312   -2.6133    0.4280 C   0  0  0  0  0  0  0  0  0  0  0  0
   -1.7724   -3.5822    0.7789 C   0  0  0  0  0  0  0  0  0  0  0  0
   -1.3834   -3.6114    1.8093 H   0  0  0  0  0  0  0  0  0  0  0  0
   -1.3117   -4.5089   -0.1700 C   0  0  0  0  0  0  0  0  0  0  0  0
   -0.5645   -5.2634    0.1199 H   0  0  0  0  0  0  0  0  0  0  0  0
   -1.4922    4.4869   -0.9320 C   0  0  0  0  0  0  0  0  0  0  0  0
   -1.8287    4.6521   -1.9771 H   0  0  0  0  0  0  0  0  0  0  0  0
   -0.3891    4.5251   -0.8724 H   0  0  0  0  0  0  0  0  0  0  0  0
   -1.9390    5.2847   -0.3043 H   0  0  0  0  0  0  0  0  0  0  0  0
   -2.7368   -3.4859   -1.8495 C   0  0  0  0  0  0  0  0  0  0  0  0
   -3.1151   -3.4404   -2.8821 H   0  0  0  0  0  0  0  0  0  0  0  0
   -1.7975   -4.4659   -1.4865 C   0  0  0  0  0  0  0  0  0  0  0  0
   -1.4458   -5.1971   -2.2307 H   0  0  0  0  0  0  0  0  0  0  0  0
  1  4  1  0  0  0  0
  2  4  2  0  0  0  0
  3 10  1  0  0  0  0
  4  8  1  0  0  0  0
  5  6  1  0  0  0  0
  5  7  1  0  0  0  0
  8  9  1  0  0  0  0
  8  3  2  0  0  0  0
  9 11  2  0  0  0  0
 10  5  1  0  0  0  0
 11 10  1  0  0  0  0
 12 14  1  0  0  0  0
 13 12  1  0  0  0  0
 14 15  2  0  0  0  0
 14  5  1  0  0  0  0
 15 16  1  0  0  0  0
 17 18  1  0  0  0  0
 17 15  1  0  0  0  0
 19 21  1  0  0  0  0
 19  1  1  0  0  0  0
 19 22  1  0  0  0  0
 20 19  1  0  0  0  0
 23 25  1  0  0  0  0
 23 12  2  0  0  0  0
 24 23  1  0  0  0  0
 25 17  2  0  0  0  0
 26 25  1  0  0  0  0
M  END
