3
q = -1.0

 10  9  0  0  0  0  0  0  0  0999 V2000
    4.1499    1.3115   -1.0167 O   0  0  0  0  0  0  0  0  0  0  0  0
    4.3831    0.2636    0.9856 O   0  0  0  0  0  0  0  0  0  0  0  0
    2.2044    0.9269    0.3667 C   0  0  0  0  0  3  0  0  0  0  0  0
    3.6450    0.8872    0.0116 C   0  0  0  0  0  0  0  0  0  0  0  0
    5.7676    0.0939    0.6792 C   0  0  0  0  0  0  0  0  0  0  0  0
    1.7314    1.7881   -0.1326 H   0  0  0  0  0  0  0  0  0  0  0  0
    2.0661    1.0001    1.4591 H   0  0  0  0  0  0  0  0  0  0  0  0
    5.8982   -0.5750   -0.1965 H   0  0  0  0  0  0  0  0  0  0  0  0
    6.2288   -0.3611    1.5747 H   0  0  0  0  0  0  0  0  0  0  0  0
    6.2497    1.0651    0.4462 H   0  0  0  0  0  0  0  0  0  0  0  0
  1  4  2  0  0  0  0
  3  7  1  0  0  0  0
  4  3  1  0  0  0  0
  4  2  1  0  0  0  0
  5  2  1  0  0  0  0
  5  9  1  0  0  0  0
  6  3  1  0  0  0  0
  8  5  1  0  0  0  0
 10  5  1  0  0  0  0
M  END
