9
q = -1.0, confidence = 0.084

 70 71  0  0  1  0  0  0  0  0999 V2000
   -4.3273    0.0639   -2.1950 O   0  0  0  0  0  0  0  0  0  0  0  0
   -4.5443    1.1326   -0.2030 O   0  0  0  0  0  0  0  0  0  0  0  0
   -1.5589   -0.1109   -1.8952 N   0  0  0  0  0  0  0  0  0  0  0  0
   -1.7002    0.5082   -2.7052 H   0  0  0  0  0  0  0  0  0  0  0  0
   -1.8201   -1.0646   -2.2062 H   0  0  0  0  0  0  0  0  0  0  0  0
    1.5165   -0.5501    1.2106 C   0  0  2  0  0  0  0  0  0  0  0  0
    0.6615   -1.2504    1.0977 H   0  0  0  0  0  0  0  0  0  0  0  0
    2.2829   -0.6224   -0.1285 C   0  0  1  0  0  3  0  0  0  0  0  0
    2.2090    0.6372   -0.8256 C   0  0  2  0  0  3  0  0  0  0  0  0
    1.0758    1.3366   -0.2624 C   0  0  1  0  0  3  0  0  0  0  0  0
    0.9086    0.9156    1.2273 C   0  0  2  0  0  0  0  0  0  0  0  0
    2.2011   -1.0290    2.5109 C   0  0  0  0  0  0  0  0  0  0  0  0
    3.2210   -0.6083    2.6204 H   0  0  0  0  0  0  0  0  0  0  0  0
    1.6202   -0.6091    3.3594 H   0  0  0  0  0  0  0  0  0  0  0  0
    2.2311   -2.5512    2.6730 C   0  0  0  0  0  0  0  0  0  0  0  0
    2.6369   -2.8382    3.6642 H   0  0  0  0  0  0  0  0  0  0  0  0
    2.8532   -3.0484    1.9045 H   0  0  0  0  0  0  0  0  0  0  0  0
    1.2097   -2.9762    2.5871 H   0  0  0  0  0  0  0  0  0  0  0  0
    3.2479   -1.7271   -0.4814 C   0  0  0  0  0  0  0  0  0  0  0  0
    3.3612   -1.7503   -1.5841 H   0  0  0  0  0  0  0  0  0  0  0  0
    2.7774   -2.6986   -0.2284 H   0  0  0  0  0  0  0  0  0  0  0  0
    4.6389   -1.6204    0.1659 C   0  0  0  0  0  0  0  0  0  0  0  0
    5.2934   -2.4429   -0.1868 H   0  0  0  0  0  0  0  0  0  0  0  0
    4.5981   -1.6806    1.2707 H   0  0  0  0  0  0  0  0  0  0  0  0
    5.1355   -0.6643   -0.0950 H   0  0  0  0  0  0  0  0  0  0  0  0
    3.0419    1.0534   -2.0149 C   0  0  0  0  0  0  0  0  0  0  0  0
    2.4178    1.6762   -2.6888 H   0  0  0  0  0  0  0  0  0  0  0  0
    3.2976    0.1440   -2.5965 H   0  0  0  0  0  0  0  0  0  0  0  0
    4.3336    1.8123   -1.6714 C   0  0  0  0  0  0  0  0  0  0  0  0
    4.9150    2.0212   -2.5914 H   0  0  0  0  0  0  0  0  0  0  0  0
    4.9804    1.2280   -0.9878 H   0  0  0  0  0  0  0  0  0  0  0  0
    4.1257    2.7831   -1.1797 H   0  0  0  0  0  0  0  0  0  0  0  0
    0.5210    2.6337   -0.8132 C   0  0  0  0  0  0  0  0  0  0  0  0
   -0.5206    2.7439   -0.4432 H   0  0  0  0  0  0  0  0  0  0  0  0
    0.4409    2.5291   -1.9159 H   0  0  0  0  0  0  0  0  0  0  0  0
    1.2827    3.9347   -0.5082 C   0  0  0  0  0  0  0  0  0  0  0  0
    0.7819    4.7943   -0.9983 H   0  0  0  0  0  0  0  0  0  0  0  0
    2.3223    3.8982   -0.8884 H   0  0  0  0  0  0  0  0  0  0  0  0
    1.3293    4.1541    0.5756 H   0  0  0  0  0  0  0  0  0  0  0  0
    1.7298    1.8527    2.1662 C   0  0  0  0  0  0  0  0  0  0  0  0
    1.2464    2.8480    2.1983 H   0  0  0  0  0  0  0  0  0  0  0  0
    1.6336    1.4594    3.1991 H   0  0  0  0  0  0  0  0  0  0  0  0
    3.2046    2.0611    1.8215 C   0  0  0  0  0  0  0  0  0  0  0  0
    3.7083    2.6274    2.6309 H   0  0  0  0  0  0  0  0  0  0  0  0
    3.3319    2.6382    0.8879 H   0  0  0  0  0  0  0  0  0  0  0  0
    3.7554    1.1107    1.6886 H   0  0  0  0  0  0  0  0  0  0  0  0
   -0.5909    0.9339    1.6344 C   0  0  0  0  0  0  0  0  0  0  0  0
   -1.2137    2.0586    2.0712 C   0  0  0  0  0  0  0  0  0  0  0  0
   -0.6193    2.9824    2.1694 H   0  0  0  0  0  0  0  0  0  0  0  0
   -2.6569    2.1942    2.4559 C   0  0  0  0  0  0  0  0  0  0  0  0
   -2.7506    2.5695    3.4980 H   0  0  0  0  0  0  0  0  0  0  0  0
   -3.2128    1.2420    2.3735 H   0  0  0  0  0  0  0  0  0  0  0  0
   -3.1721    2.9388    1.8114 H   0  0  0  0  0  0  0  0  0  0  0  0
   -1.3978   -0.3299    1.5281 C   0  0  0  0  0  0  0  0  0  0  0  0
   -1.3459   -1.2579    2.5921 C   0  0  0  0  0  0  0  0  0  0  0  0
   -0.7248   -1.0168    3.4676 H   0  0  0  0  0  0  0  0  0  0  0  0
   -2.0530   -2.4661    2.5503 C   0  0  0  0  0  0  0  0  0  0  0  0
   -1.9842   -3.1705    3.3931 H   0  0  0  0  0  0  0  0  0  0  0  0
   -2.8434   -2.7729    1.4325 C   0  0  0  0  0  0  0  0  0  0  0  0
   -3.3916   -3.7250    1.3793 H   0  0  0  0  0  0  0  0  0  0  0  0
   -2.9369   -1.8509    0.3844 C   0  0  0  0  0  0  0  0  0  0  0  0
   -3.5659   -2.0830   -0.4898 H   0  0  0  0  0  0  0  0  0  0  0  0
   -2.2345   -0.6299    0.4219 C   0  0  0  0  0  0  0  0  0  0  0  0
   -2.3786    0.3277   -0.7540 C   0  0  2  0  0  0  0  0  0  0  0  0
   -2.0180    1.3238   -0.4285 H   0  0  0  0  0  0  0  0  0  0  0  0
   -3.8473    0.4775   -1.1561 C   0  0  0  0  0  0  0  0  0  0  0  0
   -5.9497    1.2791   -0.4518 C   0  0  0  0  0  0  0  0  0  0  0  0
   -6.3519    1.8555    0.3997 H   0  0  0  0  0  0  0  0  0  0  0  0
   -6.4404    0.2869   -0.5125 H   0  0  0  0  0  0  0  0  0  0  0  0
   -6.1272    1.8154   -1.4053 H   0  0  0  0  0  0  0  0  0  0  0  0
  1 66  2  0  0  0  0
  3 64  1  0  0  0  0
  4  3  1  0  0  0  0
  5  3  1  0  0  0  0
  6  7  1  6  0  0  0
  6 11  1  0  0  0  0
  6 12  1  0  0  0  0
  8 19  1  1  0  0  0
  8  6  1  0  0  0  0
  9 26  1  6  0  0  0
  9 10  1  0  0  0  0
  9  8  1  0  0  0  0
 10 33  1  1  0  0  0
 10 11  1  0  0  0  0
 11 47  1  1  0  0  0
 11 40  1  0  0  0  0
 12 13  1  0  0  0  0
 12 15  1  0  0  0  0
 12 14  1  0  0  0  0
 15 16  1  0  0  0  0
 17 15  1  0  0  0  0
 18 15  1  0  0  0  0
 19 21  1  0  0  0  0
 19 22  1  0  0  0  0
 20 19  1  0  0  0  0
 22 24  1  0  0  0  0
 23 22  1  0  0  0  0
 25 22  1  0  0  0  0
 26 29  1  0  0  0  0
 27 26  1  0  0  0  0
 28 26  1  0  0  0  0
 29 32  1  0  0  0  0
 29 31  1  0  0  0  0
 30 29  1  0  0  0  0
 33 36  1  0  0  0  0
 33 34  1  0  0  0  0
 35 33  1  0  0  0  0
 36 39  1  0  0  0  0
 37 36  1  0  0  0  0
 38 36  1  0  0  0  0
 40 41  1  0  0  0  0
 40 42  1  0  0  0  0
 43 40  1  0  0  0  0
 43 44  1  0  0  0  0
 45 43  1  0  0  0  0
 46 43  1  0  0  0  0
 47 48  2  0  0  0  0
 48 49  1  0  0  0  0
 48 50  1  0  0  0  0
 50 51  1  0  0  0  0
 52 50  1  0  0  0  0
 53 50  1  0  0  0  0
 54 47  1  0  0  0  0
 54 55  1  0  0  0  0
 55 56  1  0  0  0  0
 57 55  2  0  0  0  0
 57 58  1  0  0  0  0
 59 57  1  0  0  0  0
 60 59  1  0  0  0  0
 61 63  1  0  0  0  0
 61 59  2  0  0  0  0
 62 61  1  0  0  0  0
 63 54  2  0  0  0  0
 64 65  1  1  0  0  0
 64 63  1  0  0  0  0
 66 64  1  0  0  0  0
 66  2  1  0  0  0  0
 67  2  1  0  0  0  0
 67 68  1  0  0  0  0
 69 67  1  0  0  0  0
 70 67  1  0  0  0  0
M  END
