2
q = 0.0, confidence = 0.728

  7  6  0  0  0  0  0  0  0  0999 V2000
    1.4685    2.0105   -0.5557 Se  0  0  0  0  0  1  0  0  0  0  0  0
    1.2928    1.2440    1.1952 C   0  0  0  0  0  3  0  0  0  0  0  0
    2.4894    1.1749    2.1179 C   0  0  0  0  0  0  0  0  0  0  0  0
    0.3927    1.6026    1.7299 H   0  0  0  0  0  0  0  0  0  0  0  0
    3.4212    0.9414    1.5679 H   0  0  0  0  0  0  0  0  0  0  0  0
    2.3402    0.4029    2.9051 H   0  0  0  0  0  0  0  0  0  0  0  0
    2.6439    2.1456    2.6399 H   0  0  0  0  0  0  0  0  0  0  0  0
  1  2  1  0  0  0  0
  2  4  1  0  0  0  0
  2  3  1  0  0  0  0
  3  7  1  0  0  0  0
  3  6  1  0  0  0  0
  5  3  1  0  0  0  0
M  END
