2
q = -1.0

 22 22  0  0  0  0  0  0  0  0999 V2000
   -0.6628    2.0019    0.4362 P   0  0  0  0  0  0  0  0  0  0  0  0
   -1.6174   -0.4870   -0.1793 C   0  0  0  0  0  3  0  0  0  0  0  0
   -2.5914    0.4753   -0.5695 C   0  0  0  0  0  0  0  0  0  0  0  0
   -3.9270    0.0869   -0.7940 C   0  0  0  0  0  0  0  0  0  0  0  0
   -4.3154   -1.2515   -0.6351 C   0  0  0  0  0  0  0  0  0  0  0  0
   -3.3673   -2.2021   -0.2228 C   0  0  0  0  0  0  0  0  0  0  0  0
   -2.0359   -1.8201    0.0118 C   0  0  0  0  0  0  0  0  0  0  0  0
   -2.1420    1.9164   -0.6802 C   0  0  0  0  0  0  0  0  0  0  0  0
   -1.3791    2.2587    2.1048 C   0  0  0  0  0  0  0  0  0  0  0  0
    0.1500    3.6128    0.0696 C   0  0  0  0  0  0  0  0  0  0  0  0
   -2.0268    1.3912    2.3331 H   0  0  0  0  0  0  0  0  0  0  0  0
   -1.9618    3.2013    2.1385 H   0  0  0  0  0  0  0  0  0  0  0  0
   -0.5661    2.2726    2.8549 H   0  0  0  0  0  0  0  0  0  0  0  0
   -0.5487    4.4525    0.2587 H   0  0  0  0  0  0  0  0  0  0  0  0
    0.4692    3.6410   -0.9895 H   0  0  0  0  0  0  0  0  0  0  0  0
    1.0441    3.7311    0.7120 H   0  0  0  0  0  0  0  0  0  0  0  0
   -2.9329    2.6474   -0.4102 H   0  0  0  0  0  0  0  0  0  0  0  0
   -1.7887    2.1662   -1.7060 H   0  0  0  0  0  0  0  0  0  0  0  0
   -4.6707    0.8442   -1.0917 H   0  0  0  0  0  0  0  0  0  0  0  0
   -5.3602   -1.5479   -0.8143 H   0  0  0  0  0  0  0  0  0  0  0  0
   -3.6689   -3.2500   -0.0665 H   0  0  0  0  0  0  0  0  0  0  0  0
   -1.3124   -2.5668    0.3724 H   0  0  0  0  0  0  0  0  0  0  0  0
  1  9  1  0  0  0  0
  2  7  1  0  0  0  0
  3  2  2  0  0  0  0
  4  5  2  0  0  0  0
  4  3  1  0  0  0  0
  5  6  1  0  0  0  0
  6 21  1  0  0  0  0
  6  7  2  0  0  0  0
  7 22  1  0  0  0  0
  8  3  1  0  0  0  0
  8 17  1  0  0  0  0
  8  1  1  0  0  0  0
  9 12  1  0  0  0  0
  9 11  1  0  0  0  0
  9 13  1  0  0  0  0
 10 14  1  0  0  0  0
 10  1  1  0  0  0  0
 10 16  1  0  0  0  0
 15 10  1  0  0  0  0
 18  8  1  0  0  0  0
 19  4  1  0  0  0  0
 20  5  1  0  0  0  0
M  END
