2
q = -1.0

 15 16  0  0  1  0  0  0  0  0999 V2000
   -4.9918   -0.0225    0.9158 O   0  0  0  0  0  0  0  0  0  0  0  0
   -3.0955   -1.1916   -0.0065 C   0  0  0  0  0  3  0  0  0  0  0  0
   -3.6763   -2.2580   -0.9532 C   0  0  0  0  0  0  0  0  0  0  0  0
   -3.6255   -2.5048    0.5280 C   0  0  0  0  0  0  0  0  0  0  0  0
   -3.9913   -0.0039    0.2000 C   0  0  0  0  0  0  0  0  0  0  0  0
   -3.6202    1.2653   -0.5428 C   0  0  1  0  0  0  0  0  0  0  0  0
   -4.6140    2.4113   -0.5362 C   0  0  0  0  0  0  0  0  0  0  0  0
   -3.5617    2.5759    0.2171 C   0  0  0  0  0  0  0  0  0  0  0  0
   -2.9363    1.1083   -1.4046 H   0  0  0  0  0  0  0  0  0  0  0  0
   -2.9888   -2.8011   -1.6207 H   0  0  0  0  0  0  0  0  0  0  0  0
   -4.6626   -2.0445   -1.3999 H   0  0  0  0  0  0  0  0  0  0  0  0
   -2.9021   -3.2402    0.9124 H   0  0  0  0  0  0  0  0  0  0  0  0
   -4.5723   -2.4346    1.0886 H   0  0  0  0  0  0  0  0  0  0  0  0
   -5.5836    2.7468   -0.9145 H   0  0  0  0  0  0  0  0  0  0  0  0
   -2.9847    3.1365    0.9594 H   0  0  0  0  0  0  0  0  0  0  0  0
  2  5  1  0  0  0  0
  2  4  1  0  0  0  0
  3  2  1  0  0  0  0
  3  4  1  0  0  0  0
  4 12  1  0  0  0  0
  4 13  1  0  0  0  0
  5  1  2  0  0  0  0
  6  9  1  6  0  0  0
  6  7  1  0  0  0  0
  6  5  1  0  0  0  0
  6  8  1  0  0  0  0
  7  8  2  0  0  0  0
  8 15  1  0  0  0  0
 10  3  1  0  0  0  0
 11  3  1  0  0  0  0
 14  7  1  0  0  0  0
M  END
