1
q = -2.0, confidence = 0.558

 21 20  0  0  0  0  0  0  0  0999 V2000
    0.7585    0.8885    1.5176 C   0  0  0  0  0  3  0  0  0  0  0  0
    0.6154    0.6528    2.5858 H   0  0  0  0  0  0  0  0  0  0  0  0
    1.3514    1.8406    0.7732 C   0  0  0  0  0  0  0  0  0  0  0  0
    2.0911    2.8787    0.2624 C   0  0  0  0  0  0  0  0  0  0  0  0
    2.2421    2.6888   -1.1728 C   0  0  0  0  0  0  0  0  0  0  0  0
    2.7978    3.4062   -1.8055 H   0  0  0  0  0  0  0  0  0  0  0  0
    1.6520    1.5393   -1.6587 C   0  0  0  0  0  3  0  0  0  0  0  0
    1.7300    1.3108   -2.7403 H   0  0  0  0  0  0  0  0  0  0  0  0
    2.6875    4.0306    1.0669 C   0  0  0  0  0  0  0  0  0  0  0  0
    2.3435    3.8774    2.5572 C   0  0  0  0  0  0  0  0  0  0  0  0
    2.7481    2.9280    2.9628 H   0  0  0  0  0  0  0  0  0  0  0  0
    1.2455    3.8662    2.7119 H   0  0  0  0  0  0  0  0  0  0  0  0
    2.7686    4.7148    3.1482 H   0  0  0  0  0  0  0  0  0  0  0  0
    2.1153    5.3691    0.5482 C   0  0  0  0  0  0  0  0  0  0  0  0
    1.0141    5.4028    0.6782 H   0  0  0  0  0  0  0  0  0  0  0  0
    2.3322    5.5090   -0.5300 H   0  0  0  0  0  0  0  0  0  0  0  0
    2.5523    6.2291    1.0990 H   0  0  0  0  0  0  0  0  0  0  0  0
    4.2236    4.0355    0.8981 C   0  0  0  0  0  0  0  0  0  0  0  0
    4.6645    3.0923    1.2812 H   0  0  0  0  0  0  0  0  0  0  0  0
    4.6821    4.8796    1.4559 H   0  0  0  0  0  0  0  0  0  0  0  0
    4.5122    4.1345   -0.1675 H   0  0  0  0  0  0  0  0  0  0  0  0
  1  2  1  0  0  0  0
  3  1  2  0  0  0  0
  4  3  2  0  0  0  0
  4  9  1  0  0  0  0
  5  4  1  0  0  0  0
  6  5  1  0  0  0  0
  7  5  2  0  0  0  0
  8  7  1  0  0  0  0
  9 10  1  0  0  0  0
 10 12  1  0  0  0  0
 10 11  1  0  0  0  0
 10 13  1  0  0  0  0
 14 15  1  0  0  0  0
 14  9  1  0  0  0  0
 14 17  1  0  0  0  0
 16 14  1  0  0  0  0
 18  9  1  0  0  0  0
 18 19  1  0  0  0  0
 18 20  1  0  0  0  0
 21 18  1  0  0  0  0
M  END
