6
q = -1.0, confidence = 0.0

  8  8  0  0  0  0  0  0  0  0999 V2000
   -0.8771    3.9781   -2.5947 Cl  0  0  0  0  0  0  0  0  0  0  0  0
    0.4428    4.2933    2.4646 Cl  0  0  0  0  0  0  0  0  0  0  0  0
   -0.3602    1.8709   -1.1172 N   0  0  0  0  0  4  0  0  0  0  0  0
   -0.1934    4.0011   -0.0617 N   0  0  0  0  0  0  0  0  0  0  0  0
    0.2242    2.0107    1.1843 N   0  0  0  0  0  0  0  0  0  0  0  0
   -0.0334    1.2929    0.0658 C   0  0  0  0  0  0  0  0  0  0  0  0
   -0.4292    3.1979   -1.1005 C   0  0  0  0  0  0  0  0  0  0  0  0
    0.1317    3.3283    1.0456 C   0  0  0  0  0  0  0  0  0  0  0  0
  1  7  1  0  0  0  0
  3  7  2  0  0  0  0
  3  6  2  0  0  0  0
  4  8  2  0  0  0  0
  6  5  1  0  0  0  0
  7  4  1  0  0  0  0
  8  5  1  0  0  0  0
  8  2  1  0  0  0  0
M  END
