7
q = 0.0, confidence = 0.99

 11 11  0  0  0  0  0  0  0  0999 V2000
   -0.3019    2.6110   -1.5846 S   0  0  0  0  0  0  0  0  0  0  0  0
    0.2486    4.0128    0.4328 N   0  0  0  0  0  0  0  0  0  0  0  0
   -0.0698    4.1378   -0.8627 C   0  0  0  0  0  3  0  0  0  0  0  0
   -0.1551    5.1090   -1.3644 H   0  0  0  0  0  0  0  0  0  0  0  0
    0.3060    2.6969    0.8747 C   0  0  0  0  0  0  0  0  0  0  0  0
    0.5817    2.5093    1.9189 H   0  0  0  0  0  0  0  0  0  0  0  0
    0.0336    1.7521   -0.0957 C   0  0  0  0  0  3  0  0  0  0  0  0
    0.5318    5.1453    1.3166 C   0  0  0  0  0  0  0  0  0  0  0  0
    0.4170    6.0897    0.7573 H   0  0  0  0  0  0  0  0  0  0  0  0
    1.5706    5.0595    1.6897 H   0  0  0  0  0  0  0  0  0  0  0  0
   -0.1730    5.1357    2.1698 H   0  0  0  0  0  0  0  0  0  0  0  0
  1  3  1  0  0  0  0
  1  7  1  0  0  0  0
  2  5  1  0  0  0  0
  2  8  1  0  0  0  0
  3  2  1  0  0  0  0
  4  3  1  0  0  0  0
  5  6  1  0  0  0  0
  7  5  2  0  0  0  0
  8 10  1  0  0  0  0
  8 11  1  0  0  0  0
  9  8  1  0  0  0  0
M  END
