4
q = -1.0

 43 45  0  0  0  0  0  0  0  0999 V2000
   -0.1176    1.1492    0.5417 P   0  0  0  0  0  4  0  0  0  0  0  0
    0.4470   -0.2324   -0.4759 C   0  0  0  0  0  3  0  0  0  0  0  0
    0.3756    0.0228   -1.5505 H   0  0  0  0  0  0  0  0  0  0  0  0
    0.1497   -1.5414   -0.0257 C   0  0  0  0  0  3  0  0  0  0  0  0
   -0.8433   -2.4137    0.2354 C   0  0  0  0  0  0  0  0  0  0  0  0
   -0.5861   -3.3661    0.7321 H   0  0  0  0  0  0  0  0  0  0  0  0
   -2.2658   -2.2278   -0.1016 C   0  0  0  0  0  0  0  0  0  0  0  0
   -2.6789   -1.4375   -1.2001 C   0  0  0  0  0  0  0  0  0  0  0  0
   -1.9226   -0.9464   -1.8292 H   0  0  0  0  0  0  0  0  0  0  0  0
   -4.0358   -1.2993   -1.5103 C   0  0  0  0  0  0  0  0  0  0  0  0
   -4.3381   -0.6915   -2.3760 H   0  0  0  0  0  0  0  0  0  0  0  0
   -5.0096   -1.9395   -0.7246 C   0  0  0  0  0  0  0  0  0  0  0  0
   -6.0765   -1.8331   -0.9717 H   0  0  0  0  0  0  0  0  0  0  0  0
   -4.6144   -2.7318    0.3653 C   0  0  0  0  0  0  0  0  0  0  0  0
   -5.3708   -3.2474    0.9758 H   0  0  0  0  0  0  0  0  0  0  0  0
   -3.2543   -2.8852    0.6673 C   0  0  0  0  0  0  0  0  0  0  0  0
   -2.9471   -3.5219    1.5117 H   0  0  0  0  0  0  0  0  0  0  0  0
    0.0841    0.7722    2.3088 C   0  0  0  0  0  0  0  0  0  0  0  0
    1.1470    0.8636    2.5926 H   0  0  0  0  0  0  0  0  0  0  0  0
   -0.2717   -0.2572    2.5079 H   0  0  0  0  0  0  0  0  0  0  0  0
   -0.5137    1.4954    2.8946 H   0  0  0  0  0  0  0  0  0  0  0  0
   -1.8816    1.4727    0.2583 C   0  0  0  0  0  0  0  0  0  0  0  0
   -2.2659    2.2376   -0.8636 C   0  0  0  0  0  0  0  0  0  0  0  0
   -1.5039    2.6772   -1.5255 H   0  0  0  0  0  0  0  0  0  0  0  0
   -3.6263    2.4567   -1.1195 C   0  0  0  0  0  0  0  0  0  0  0  0
   -3.9274    3.0590   -1.9894 H   0  0  0  0  0  0  0  0  0  0  0  0
   -4.5996    1.9199   -0.2612 C   0  0  0  0  0  0  0  0  0  0  0  0
   -5.6663    2.0982   -0.4625 H   0  0  0  0  0  0  0  0  0  0  0  0
   -4.2166    1.1553    0.8521 C   0  0  0  0  0  0  0  0  0  0  0  0
   -4.9785    0.7255    1.5181 H   0  0  0  0  0  0  0  0  0  0  0  0
   -2.8601    0.9246    1.1141 C   0  0  0  0  0  0  0  0  0  0  0  0
   -2.5770    0.3069    1.9779 H   0  0  0  0  0  0  0  0  0  0  0  0
    0.7789    2.6592    0.1017 C   0  0  0  0  0  0  0  0  0  0  0  0
    1.8429    2.6325   -0.8223 C   0  0  0  0  0  0  0  0  0  0  0  0
    2.1552    1.6816   -1.2772 H   0  0  0  0  0  0  0  0  0  0  0  0
    2.5098    3.8228   -1.1459 C   0  0  0  0  0  0  0  0  0  0  0  0
    3.3390    3.8049   -1.8683 H   0  0  0  0  0  0  0  0  0  0  0  0
    2.1244    5.0318   -0.5463 C   0  0  0  0  0  0  0  0  0  0  0  0
    2.6531    5.9626   -0.7997 H   0  0  0  0  0  0  0  0  0  0  0  0
    1.0636    5.0584    0.3750 C   0  0  0  0  0  0  0  0  0  0  0  0
    0.7604    6.0071    0.8417 H   0  0  0  0  0  0  0  0  0  0  0  0
    0.3841    3.8770    0.6976 C   0  0  0  0  0  0  0  0  0  0  0  0
   -0.4604    3.9071    1.4037 H   0  0  0  0  0  0  0  0  0  0  0  0
  1 18  1  0  0  0  0
  2  4  1  0  0  0  0
  2  1  1  0  0  0  0
  3  2  1  0  0  0  0
  4  5  2  0  0  0  0
  5  6  1  0  0  0  0
  7  5  1  0  0  0  0
  7 16  1  0  0  0  0
  8  7  2  0  0  0  0
  9  8  1  0  0  0  0
 10  8  1  0  0  0  0
 10 12  2  0  0  0  0
 11 10  1  0  0  0  0
 12 14  1  0  0  0  0
 13 12  1  0  0  0  0
 14 16  2  0  0  0  0
 14 15  1  0  0  0  0
 16 17  1  0  0  0  0
 18 20  1  0  0  0  0
 18 19  1  0  0  0  0
 18 21  1  0  0  0  0
 22  1  1  0  0  0  0
 22 31  1  0  0  0  0
 23 22  2  0  0  0  0
 24 23  1  0  0  0  0
 25 23  1  0  0  0  0
 25 27  2  0  0  0  0
 26 25  1  0  0  0  0
 27 29  1  0  0  0  0
 28 27  1  0  0  0  0
 29 31  2  0  0  0  0
 29 30  1  0  0  0  0
 31 32  1  0  0  0  0
 33  1  1  0  0  0  0
 33 42  1  0  0  0  0
 34 33  2  0  0  0  0
 35 34  1  0  0  0  0
 36 34  1  0  0  0  0
 36 38  2  0  0  0  0
 37 36  1  0  0  0  0
 38 40  1  0  0  0  0
 39 38  1  0  0  0  0
 40 42  2  0  0  0  0
 40 41  1  0  0  0  0
 42 43  1  0  0  0  0
M  END
