1
q = -1.0

 14 14  0  0  0  0  0  0  0  0999 V2000
   -1.5946    1.3979   -1.9829 C   0  0  0  0  0  3  0  0  0  0  0  0
   -2.2363    1.9989   -0.8032 C   0  0  0  0  0  0  0  0  0  0  0  0
   -3.3666    1.3847   -0.1829 C   0  0  0  0  0  0  0  0  0  0  0  0
   -3.8810    1.8453    1.0362 C   0  0  0  0  0  0  0  0  0  0  0  0
   -3.2647    2.9263    1.6751 C   0  0  0  0  0  0  0  0  0  0  0  0
   -2.1556    3.5669    1.1039 C   0  0  0  0  0  0  0  0  0  0  0  0
   -1.6487    3.1017   -0.1126 C   0  0  0  0  0  0  0  0  0  0  0  0
   -3.7477    3.3671    2.8508 F   0  0  0  0  0  0  0  0  0  0  0  0
   -0.9468    2.0776   -2.5654 H   0  0  0  0  0  0  0  0  0  0  0  0
   -2.2732    0.8142   -2.6326 H   0  0  0  0  0  0  0  0  0  0  0  0
   -3.8732    0.5532   -0.6935 H   0  0  0  0  0  0  0  0  0  0  0  0
   -4.7593    1.3701    1.4962 H   0  0  0  0  0  0  0  0  0  0  0  0
   -1.7010    4.4225    1.6241 H   0  0  0  0  0  0  0  0  0  0  0  0
   -0.7863    3.6109   -0.5648 H   0  0  0  0  0  0  0  0  0  0  0  0
  1  2  1  0  0  0  0
  2  3  2  0  0  0  0
  2  7  1  0  0  0  0
  3  4  1  0  0  0  0
  4 12  1  0  0  0  0
  4  5  2  0  0  0  0
  5  8  1  0  0  0  0
  6 13  1  0  0  0  0
  6  5  1  0  0  0  0
  7  6  2  0  0  0  0
  9  1  1  0  0  0  0
 10  1  1  0  0  0  0
 11  3  1  0  0  0  0
 14  7  1  0  0  0  0
M  END
