3
q = 0.0, confidence = 0.984

 22 23  0  0  0  0  0  0  0  0999 V2000
   -0.9620   -1.3025   -0.3918 C   0  0  0  0  0  0  0  0  0  0  0  0
   -0.4652   -2.1260    0.6724 C   0  0  0  0  0  3  0  0  0  0  0  0
    0.8471   -2.6772    0.6288 C   0  0  0  0  0  3  0  0  0  0  0  0
    1.6958   -2.4183   -0.4873 C   0  0  0  0  0  0  0  0  0  0  0  0
    1.2170   -1.6049   -1.5549 C   0  0  0  0  0  0  0  0  0  0  0  0
   -0.0876   -1.0424   -1.4984 C   0  0  0  0  0  0  0  0  0  0  0  0
   -2.3040   -0.6720   -0.3132 C   0  0  0  0  0  0  0  0  0  0  0  0
   -2.9924   -0.2996   -1.4894 C   0  0  0  0  0  0  0  0  0  0  0  0
   -4.2563    0.3034   -1.4256 C   0  0  0  0  0  0  0  0  0  0  0  0
   -4.8635    0.5410   -0.1833 C   0  0  0  0  0  0  0  0  0  0  0  0
   -4.1955    0.1667    0.9939 C   0  0  0  0  0  0  0  0  0  0  0  0
   -2.9311   -0.4316    0.9308 C   0  0  0  0  0  0  0  0  0  0  0  0
   -1.0774   -2.2800    1.5702 H   0  0  0  0  0  0  0  0  0  0  0  0
    1.2353   -3.2201    1.5010 H   0  0  0  0  0  0  0  0  0  0  0  0
    2.7386   -2.7630   -0.4786 H   0  0  0  0  0  0  0  0  0  0  0  0
    1.8948   -1.3226   -2.3736 H   0  0  0  0  0  0  0  0  0  0  0  0
   -0.3940   -0.3248   -2.2726 H   0  0  0  0  0  0  0  0  0  0  0  0
   -2.5443   -0.5045   -2.4728 H   0  0  0  0  0  0  0  0  0  0  0  0
   -4.7737    0.5820   -2.3561 H   0  0  0  0  0  0  0  0  0  0  0  0
   -5.8548    1.0159   -0.1319 H   0  0  0  0  0  0  0  0  0  0  0  0
   -4.6568    0.3561    1.9748 H   0  0  0  0  0  0  0  0  0  0  0  0
   -2.4041   -0.6729    1.8638 H   0  0  0  0  0  0  0  0  0  0  0  0
  1  7  1  0  0  0  0
  1  2  1  0  0  0  0
  2 13  1  0  0  0  0
  3  2  1  0  0  0  0
  3 14  1  0  0  0  0
  4 15  1  0  0  0  0
  4  3  1  0  0  0  0
  5  6  1  0  0  0  0
  5  4  2  0  0  0  0
  6  1  2  0  0  0  0
  7 12  1  0  0  0  0
  8  9  1  0  0  0  0
  8  7  2  0  0  0  0
  9 10  2  0  0  0  0
 10 20  1  0  0  0  0
 10 11  1  0  0  0  0
 11 21  1  0  0  0  0
 12 11  2  0  0  0  0
 12 22  1  0  0  0  0
 16  5  1  0  0  0  0
 17  6  1  0  0  0  0
 18  8  1  0  0  0  0
 19  9  1  0  0  0  0
M  END
