2
q = 0.0, confidence = 0.98

 56 58  0  0  0  0  0  0  0  0999 V2000
   -0.5584   -2.2619   -0.0319 N   0  0  0  0  0  0  0  0  0  0  0  0
    0.3225   -1.1865    0.0264 C   0  0  0  0  0  2  0  0  0  0  0  0
   -0.9870   -4.5133   -0.1807 O   0  0  0  0  0  0  0  0  0  0  0  0
    1.6789   -1.5523   -0.0278 N   0  0  0  0  0  0  0  0  0  0  0  0
   -0.1921   -3.6026   -0.3365 C   0  0  0  0  0  0  0  0  0  0  0  0
    3.3670   -3.0982   -0.1657 O   0  0  0  0  0  0  0  0  0  0  0  0
    1.1858   -3.7918   -0.9528 C   0  0  0  0  0  0  0  0  0  0  0  0
    2.1863   -2.8341   -0.3268 C   0  0  0  0  0  0  0  0  0  0  0  0
    1.6515   -5.2404   -0.7904 C   0  0  0  0  0  0  0  0  0  0  0  0
    1.7284   -5.5149    0.2790 H   0  0  0  0  0  0  0  0  0  0  0  0
    2.6493   -5.3640   -1.2492 H   0  0  0  0  0  0  0  0  0  0  0  0
    0.9259   -5.9229   -1.2687 H   0  0  0  0  0  0  0  0  0  0  0  0
    1.0793   -3.4105   -2.4597 C   0  0  0  0  0  0  0  0  0  0  0  0
    0.7369   -2.3673   -2.6026 H   0  0  0  0  0  0  0  0  0  0  0  0
    0.3672   -4.0940   -2.9621 H   0  0  0  0  0  0  0  0  0  0  0  0
    2.0735   -3.5243   -2.9343 H   0  0  0  0  0  0  0  0  0  0  0  0
   -1.9654   -2.0927    0.2585 C   0  0  0  0  0  0  0  0  0  0  0  0
   -2.3852   -1.9937    1.6011 C   0  0  0  0  0  0  0  0  0  0  0  0
   -3.7566   -1.7938    1.8440 C   0  0  0  0  0  0  0  0  0  0  0  0
   -4.0973   -1.6957    2.8871 H   0  0  0  0  0  0  0  0  0  0  0  0
   -4.6965   -1.7121    0.8001 C   0  0  0  0  0  0  0  0  0  0  0  0
   -4.2347   -1.8432   -0.5233 C   0  0  0  0  0  0  0  0  0  0  0  0
   -4.9527   -1.7778   -1.3563 H   0  0  0  0  0  0  0  0  0  0  0  0
   -2.8745   -2.0383   -0.8211 C   0  0  0  0  0  0  0  0  0  0  0  0
   -1.4024   -2.0269    2.7378 C   0  0  0  0  0  0  0  0  0  0  0  0
   -1.9159   -2.2152    3.6993 H   0  0  0  0  0  0  0  0  0  0  0  0
   -0.8741   -1.0512    2.8191 H   0  0  0  0  0  0  0  0  0  0  0  0
   -0.6360   -2.8138    2.5941 H   0  0  0  0  0  0  0  0  0  0  0  0
   -6.1630   -1.5204    1.0949 C   0  0  0  0  0  0  0  0  0  0  0  0
   -6.6546   -2.4944    1.3064 H   0  0  0  0  0  0  0  0  0  0  0  0
   -6.6969   -1.0650    0.2378 H   0  0  0  0  0  0  0  0  0  0  0  0
   -6.3203   -0.8787    1.9845 H   0  0  0  0  0  0  0  0  0  0  0  0
   -2.3972   -2.1201   -2.2447 C   0  0  0  0  0  0  0  0  0  0  0  0
   -1.6227   -1.3513   -2.4519 H   0  0  0  0  0  0  0  0  0  0  0  0
   -3.2351   -1.9668   -2.9503 H   0  0  0  0  0  0  0  0  0  0  0  0
   -1.9534   -3.1138   -2.4605 H   0  0  0  0  0  0  0  0  0  0  0  0
    2.6778   -0.5524    0.3144 C   0  0  0  0  0  0  0  0  0  0  0  0
    3.4679    0.0347   -0.7064 C   0  0  0  0  0  0  0  0  0  0  0  0
    4.4199    0.9961   -0.3188 C   0  0  0  0  0  0  0  0  0  0  0  0
    5.0250    1.4785   -1.1029 H   0  0  0  0  0  0  0  0  0  0  0  0
    4.6351    1.3379    1.0275 C   0  0  0  0  0  0  0  0  0  0  0  0
    3.9231    0.6318    2.0142 C   0  0  0  0  0  0  0  0  0  0  0  0
    4.1283    0.8291    3.0781 H   0  0  0  0  0  0  0  0  0  0  0  0
    2.9673   -0.3406    1.6851 C   0  0  0  0  0  0  0  0  0  0  0  0
    2.3465   -1.2053    2.7456 C   0  0  0  0  0  0  0  0  0  0  0  0
    2.5777   -0.8216    3.7562 H   0  0  0  0  0  0  0  0  0  0  0  0
    2.7473   -2.2387    2.6637 H   0  0  0  0  0  0  0  0  0  0  0  0
    1.2484   -1.2556    2.6473 H   0  0  0  0  0  0  0  0  0  0  0  0
    5.6039    2.4284    1.4044 C   0  0  0  0  0  0  0  0  0  0  0  0
    5.0765    3.4030    1.4955 H   0  0  0  0  0  0  0  0  0  0  0  0
    6.3973    2.5553    0.6418 H   0  0  0  0  0  0  0  0  0  0  0  0
    6.0861    2.2294    2.3818 H   0  0  0  0  0  0  0  0  0  0  0  0
    3.3982   -0.4238   -2.1352 C   0  0  0  0  0  0  0  0  0  0  0  0
    2.3558   -0.4766   -2.5016 H   0  0  0  0  0  0  0  0  0  0  0  0
    3.8538   -1.4332   -2.2197 H   0  0  0  0  0  0  0  0  0  0  0  0
    3.9610    0.2612   -2.7970 H   0  0  0  0  0  0  0  0  0  0  0  0
  1  2  1  0  0  0  0
  1 17  1  0  0  0  0
  4  2  1  0  0  0  0
  4 37  1  0  0  0  0
  5  3  2  0  0  0  0
  5  1  1  0  0  0  0
  7  9  1  0  0  0  0
  7  5  1  0  0  0  0
  7  8  1  0  0  0  0
  8  6  2  0  0  0  0
  8  4  1  0  0  0  0
  9 10  1  0  0  0  0
 11  9  1  0  0  0  0
 12  9  1  0  0  0  0
 13  7  1  0  0  0  0
 14 13  1  0  0  0  0
 15 13  1  0  0  0  0
 16 13  1  0  0  0  0
 17 18  1  0  0  0  0
 18 19  2  0  0  0  0
 18 25  1  0  0  0  0
 19 20  1  0  0  0  0
 21 29  1  0  0  0  0
 21 19  1  0  0  0  0
 22 21  2  0  0  0  0
 23 22  1  0  0  0  0
 24 22  1  0  0  0  0
 24 17  2  0  0  0  0
 25 27  1  0  0  0  0
 25 26  1  0  0  0  0
 28 25  1  0  0  0  0
 29 30  1  0  0  0  0
 29 32  1  0  0  0  0
 31 29  1  0  0  0  0
 33 24  1  0  0  0  0
 34 33  1  0  0  0  0
 35 33  1  0  0  0  0
 36 33  1  0  0  0  0
 37 44  1  0  0  0  0
 38 39  1  0  0  0  0
 38 37  2  0  0  0  0
 39 41  2  0  0  0  0
 40 39  1  0  0  0  0
 41 49  1  0  0  0  0
 41 42  1  0  0  0  0
 42 43  1  0  0  0  0
 44 42  2  0  0  0  0
 44 45  1  0  0  0  0
 45 46  1  0  0  0  0
 47 45  1  0  0  0  0
 48 45  1  0  0  0  0
 49 50  1  0  0  0  0
 49 52  1  0  0  0  0
 51 49  1  0  0  0  0
 53 38  1  0  0  0  0
 54 53  1  0  0  0  0
 55 53  1  0  0  0  0
 56 53  1  0  0  0  0
M  END
