1
q = 0.0, confidence = 0.992

 51 52  0  0  0  0  0  0  0  0999 V2000
    1.3797   -0.4594   -0.2324 C   0  0  0  0  0  2  0  0  0  0  0  0
    2.5264   -0.1411   -0.8542 N   0  0  0  0  0  0  0  0  0  0  0  0
    2.7418   -0.8092   -1.6235 H   0  0  0  0  0  0  0  0  0  0  0  0
    1.1382    0.1648    0.9414 N   0  0  0  0  0  0  0  0  0  0  0  0
    1.8378    0.8611    1.2372 H   0  0  0  0  0  0  0  0  0  0  0  0
    0.1535   -0.1629    1.9096 C   0  0  0  0  0  0  0  0  0  0  0  0
   -0.4620    0.8881    2.6344 C   0  0  0  0  0  0  0  0  0  0  0  0
   -1.4094    0.5401    3.6164 C   0  0  0  0  0  0  0  0  0  0  0  0
   -1.9009    1.3470    4.1827 H   0  0  0  0  0  0  0  0  0  0  0  0
   -1.7449   -0.7966    3.8742 C   0  0  0  0  0  0  0  0  0  0  0  0
   -2.4945   -1.0370    4.6423 H   0  0  0  0  0  0  0  0  0  0  0  0
   -1.1249   -1.8231    3.1443 C   0  0  0  0  0  0  0  0  0  0  0  0
   -1.3756   -2.8766    3.3375 H   0  0  0  0  0  0  0  0  0  0  0  0
   -0.1708   -1.5092    2.1691 C   0  0  0  0  0  0  0  0  0  0  0  0
    0.3352   -2.3034    1.6011 H   0  0  0  0  0  0  0  0  0  0  0  0
   -0.0930    2.3343    2.3885 C   0  0  0  0  0  0  0  0  0  0  0  0
   -0.9309    2.9761    2.7292 H   0  0  0  0  0  0  0  0  0  0  0  0
    0.0050    2.5134    1.2967 H   0  0  0  0  0  0  0  0  0  0  0  0
    1.1981    2.7742    3.0997 C   0  0  0  0  0  0  0  0  0  0  0  0
    1.1219    2.6166    4.1940 H   0  0  0  0  0  0  0  0  0  0  0  0
    1.4041    3.8488    2.9207 H   0  0  0  0  0  0  0  0  0  0  0  0
    2.0915    2.2122    2.7529 H   0  0  0  0  0  0  0  0  0  0  0  0
    3.5672    0.6612   -0.2765 C   0  0  0  0  0  0  0  0  0  0  0  0
    3.4633    2.0760   -0.3513 C   0  0  0  0  0  0  0  0  0  0  0  0
    4.4808    2.8367    0.2547 C   0  0  0  0  0  0  0  0  0  0  0  0
    4.4340    3.9341    0.2177 H   0  0  0  0  0  0  0  0  0  0  0  0
    5.5604    2.2139    0.8963 C   0  0  0  0  0  0  0  0  0  0  0  0
    6.3479    2.8277    1.3595 H   0  0  0  0  0  0  0  0  0  0  0  0
    5.6429    0.8175    0.9506 C   0  0  0  0  0  0  0  0  0  0  0  0
    6.4952    0.3424    1.4583 H   0  0  0  0  0  0  0  0  0  0  0  0
    4.6456    0.0080    0.3730 C   0  0  0  0  0  0  0  0  0  0  0  0
    2.3146    2.7273   -1.1156 C   0  0  0  0  0  0  0  0  0  0  0  0
    1.4028    2.1235   -0.9240 H   0  0  0  0  0  0  0  0  0  0  0  0
    4.6865   -1.5105    0.4947 C   0  0  0  0  0  0  0  0  0  0  0  0
    4.0412   -1.9408   -0.2991 H   0  0  0  0  0  0  0  0  0  0  0  0
    2.0124    4.1621   -0.6684 C   0  0  0  0  0  0  0  0  0  0  0  0
    2.8277    4.8625   -0.9430 H   0  0  0  0  0  0  0  0  0  0  0  0
    1.8612    4.2300    0.4279 H   0  0  0  0  0  0  0  0  0  0  0  0
    1.0905    4.5285   -1.1618 H   0  0  0  0  0  0  0  0  0  0  0  0
    2.5781    2.6625   -2.6322 C   0  0  0  0  0  0  0  0  0  0  0  0
    1.7234    3.0896   -3.1961 H   0  0  0  0  0  0  0  0  0  0  0  0
    2.7205    1.6187   -2.9731 H   0  0  0  0  0  0  0  0  0  0  0  0
    3.4879    3.2393   -2.8972 H   0  0  0  0  0  0  0  0  0  0  0  0
    4.0780   -1.9494    1.8413 C   0  0  0  0  0  0  0  0  0  0  0  0
    4.6744   -1.5614    2.6936 H   0  0  0  0  0  0  0  0  0  0  0  0
    4.0526   -3.0556    1.9112 H   0  0  0  0  0  0  0  0  0  0  0  0
    3.0394   -1.5826    1.9605 H   0  0  0  0  0  0  0  0  0  0  0  0
    6.0943   -2.0915    0.3063 C   0  0  0  0  0  0  0  0  0  0  0  0
    6.5510   -1.7520   -0.6448 H   0  0  0  0  0  0  0  0  0  0  0  0
    6.0455   -3.1984    0.2841 H   0  0  0  0  0  0  0  0  0  0  0  0
    6.7792   -1.8115    1.1337 H   0  0  0  0  0  0  0  0  0  0  0  0
  1  4  1  0  0  0  0
  2 23  1  0  0  0  0
  2  1  1  0  0  0  0
  3  2  1  0  0  0  0
  4  5  1  0  0  0  0
  4  6  1  0  0  0  0
  6 14  2  0  0  0  0
  6  7  1  0  0  0  0
  7  8  2  0  0  0  0
  8 10  1  0  0  0  0
  8  9  1  0  0  0  0
 10 11  1  0  0  0  0
 12 13  1  0  0  0  0
 12 10  2  0  0  0  0
 14 12  1  0  0  0  0
 15 14  1  0  0  0  0
 16  7  1  0  0  0  0
 16 17  1  0  0  0  0
 16 19  1  0  0  0  0
 18 16  1  0  0  0  0
 19 20  1  0  0  0  0
 21 19  1  0  0  0  0
 22 19  1  0  0  0  0
 23 31  1  0  0  0  0
 24 23  2  0  0  0  0
 24 25  1  0  0  0  0
 25 27  2  0  0  0  0
 26 25  1  0  0  0  0
 27 29  1  0  0  0  0
 27 28  1  0  0  0  0
 29 30  1  0  0  0  0
 31 34  1  0  0  0  0
 31 29  2  0  0  0  0
 32 33  1  0  0  0  0
 32 36  1  0  0  0  0
 32 24  1  0  0  0  0
 34 44  1  0  0  0  0
 35 34  1  0  0  0  0
 36 38  1  0  0  0  0
 37 36  1  0  0  0  0
 39 36  1  0  0  0  0
 40 32  1  0  0  0  0
 41 40  1  0  0  0  0
 42 40  1  0  0  0  0
 43 40  1  0  0  0  0
 44 46  1  0  0  0  0
 44 47  1  0  0  0  0
 44 45  1  0  0  0  0
 48 34  1  0  0  0  0
 48 51  1  0  0  0  0
 49 48  1  0  0  0  0
 50 48  1  0  0  0  0
M  END
