1
q = -1.0

 32 33  0  0  1  0  0  0  0  0999 V2000
    1.5038    0.4320   -1.2003 C   0  0  2  0  0  3  0  0  0  0  0  0
    1.8375   -0.8744   -1.7090 C   0  0  0  0  0  0  0  0  0  0  0  0
    3.1945   -1.5003   -1.7636 C   0  0  0  0  0  0  0  0  0  0  0  0
    3.9895   -0.7333   -1.6981 H   0  0  0  0  0  0  0  0  0  0  0  0
    3.3154   -2.0513   -2.7171 H   0  0  0  0  0  0  0  0  0  0  0  0
    3.3458   -2.2299   -0.9403 H   0  0  0  0  0  0  0  0  0  0  0  0
    0.6837   -1.4042   -2.3513 C   0  0  0  0  0  0  0  0  0  0  0  0
    0.6253   -2.7244   -3.0517 C   0  0  0  0  0  0  0  0  0  0  0  0
   -0.4155   -3.0827   -3.1489 H   0  0  0  0  0  0  0  0  0  0  0  0
    1.1948   -3.4937   -2.4953 H   0  0  0  0  0  0  0  0  0  0  0  0
    1.0622   -2.6453   -4.0715 H   0  0  0  0  0  0  0  0  0  0  0  0
   -0.3379   -0.3937   -2.3475 C   0  0  0  0  0  0  0  0  0  0  0  0
   -1.6118   -0.4771   -3.1281 C   0  0  0  0  0  0  0  0  0  0  0  0
   -2.1237   -1.4432   -2.9505 H   0  0  0  0  0  0  0  0  0  0  0  0
   -1.3910   -0.4056   -4.2150 H   0  0  0  0  0  0  0  0  0  0  0  0
   -2.3126    0.3384   -2.8737 H   0  0  0  0  0  0  0  0  0  0  0  0
    0.1631    0.7491   -1.6525 C   0  0  0  0  0  0  0  0  0  0  0  0
   -0.4805    2.1008   -1.7283 C   0  0  0  0  0  0  0  0  0  0  0  0
   -0.2514    2.7516   -0.8690 H   0  0  0  0  0  0  0  0  0  0  0  0
   -1.5793    2.0338   -1.8100 H   0  0  0  0  0  0  0  0  0  0  0  0
   -0.1152    2.6224   -2.6404 H   0  0  0  0  0  0  0  0  0  0  0  0
    2.5019    1.3212   -0.5729 C   0  0  0  0  0  0  0  0  0  0  0  0
    3.4056    0.8019    0.3857 C   0  0  0  0  0  0  0  0  0  0  0  0
    3.3111   -0.2516    0.6859 H   0  0  0  0  0  0  0  0  0  0  0  0
    4.3752    1.6190    0.9812 C   0  0  0  0  0  0  0  0  0  0  0  0
    5.0583    1.1933    1.7322 H   0  0  0  0  0  0  0  0  0  0  0  0
    4.4684    2.9767    0.6321 C   0  0  0  0  0  0  0  0  0  0  0  0
    5.2255    3.6212    1.1038 H   0  0  0  0  0  0  0  0  0  0  0  0
    3.5928    3.5010   -0.3314 C   0  0  0  0  0  0  0  0  0  0  0  0
    3.6673    4.5592   -0.6255 H   0  0  0  0  0  0  0  0  0  0  0  0
    2.6250    2.6826   -0.9321 C   0  0  0  0  0  0  0  0  0  0  0  0
    1.9652    3.1050   -1.7014 H   0  0  0  0  0  0  0  0  0  0  0  0
  1 22  1  6  0  0  0
  2  1  1  0  0  0  0
  3  2  1  0  0  0  0
  3  4  1  0  0  0  0
  3  6  1  0  0  0  0
  5  3  1  0  0  0  0
  7 12  1  0  0  0  0
  7  2  2  0  0  0  0
  8 10  1  0  0  0  0
  8  7  1  0  0  0  0
  9  8  1  0  0  0  0
 11  8  1  0  0  0  0
 12 17  2  0  0  0  0
 13 14  1  0  0  0  0
 13 16  1  0  0  0  0
 13 12  1  0  0  0  0
 15 13  1  0  0  0  0
 17  1  1  0  0  0  0
 18 17  1  0  0  0  0
 18 19  1  0  0  0  0
 20 18  1  0  0  0  0
 21 18  1  0  0  0  0
 22 23  1  0  0  0  0
 23 24  1  0  0  0  0
 23 25  2  0  0  0  0
 25 26  1  0  0  0  0
 27 25  1  0  0  0  0
 27 28  1  0  0  0  0
 29 27  2  0  0  0  0
 30 29  1  0  0  0  0
 31 22  2  0  0  0  0
 31 29  1  0  0  0  0
 32 31  1  0  0  0  0
M  END
