20
q = 0.0, confidence = 0.946

 38 38  0  0  1  0  0  0  0  0999 V2000
    4.1645    1.3643   -0.8241 O   0  0  0  0  0  0  0  0  0  0  0  0
    3.3354    3.1959    0.2248 O   0  0  0  0  0  0  0  0  0  0  0  0
    0.7130   -1.1299   -1.7974 C   0  0  0  0  0  3  0  0  0  0  0  0
    1.3053   -0.5616   -0.6171 C   0  0  0  0  0  3  0  0  0  0  0  0
    0.7819    0.7549   -0.0552 C   0  0  2  0  0  0  0  0  0  0  0  0
    1.4343    1.1387    1.2884 C   0  0  0  0  0  0  0  0  0  0  0  0
    2.9752    1.1082    1.2866 C   0  0  0  0  0  0  0  0  0  0  0  0
    3.5758    1.8612    0.1184 C   0  0  0  0  0  0  0  0  0  0  0  0
    3.8137    3.9926   -0.8653 C   0  0  0  0  0  0  0  0  0  0  0  0
    1.2989   -1.6232   -2.5877 H   0  0  0  0  0  0  0  0  0  0  0  0
    2.3917   -0.7112   -0.5203 H   0  0  0  0  0  0  0  0  0  0  0  0
    1.1056    1.5397   -0.7803 H   0  0  0  0  0  0  0  0  0  0  0  0
    1.0884    0.4689    2.0987 H   0  0  0  0  0  0  0  0  0  0  0  0
    1.1086    2.1625    1.5584 H   0  0  0  0  0  0  0  0  0  0  0  0
    3.3612    0.0729    1.2425 H   0  0  0  0  0  0  0  0  0  0  0  0
    3.3389    1.5631    2.2305 H   0  0  0  0  0  0  0  0  0  0  0  0
    4.9140    3.9025   -0.9686 H   0  0  0  0  0  0  0  0  0  0  0  0
    3.3519    3.6722   -1.8214 H   0  0  0  0  0  0  0  0  0  0  0  0
    3.5331    5.0350   -0.6315 H   0  0  0  0  0  0  0  0  0  0  0  0
   -0.7088   -1.1329   -1.7972 C   0  0  0  0  0  3  0  0  0  0  0  0
   -1.3031   -0.5671   -0.6167 C   0  0  0  0  0  3  0  0  0  0  0  0
   -0.7851    0.7517   -0.0551 C   0  0  1  0  0  0  0  0  0  0  0  0
   -1.2929   -1.6287   -2.5873 H   0  0  0  0  0  0  0  0  0  0  0  0
   -2.3888   -0.7213   -0.5194 H   0  0  0  0  0  0  0  0  0  0  0  0
   -1.4388    1.1331    1.2886 C   0  0  0  0  0  0  0  0  0  0  0  0
   -1.1121    1.5350   -0.7803 H   0  0  0  0  0  0  0  0  0  0  0  0
   -2.9796    1.0962    1.2871 C   0  0  0  0  0  0  0  0  0  0  0  0
   -1.0900    0.4650    2.0989 H   0  0  0  0  0  0  0  0  0  0  0  0
   -1.1173    2.1584    1.5582 H   0  0  0  0  0  0  0  0  0  0  0  0
   -3.5835    1.8462    0.1187 C   0  0  0  0  0  0  0  0  0  0  0  0
   -3.3613    0.0592    1.2434 H   0  0  0  0  0  0  0  0  0  0  0  0
   -3.3450    1.5499    2.2308 H   0  0  0  0  0  0  0  0  0  0  0  0
   -4.1703    1.3464   -0.8236 O   0  0  0  0  0  0  0  0  0  0  0  0
   -3.3488    3.1819    0.2245 O   0  0  0  0  0  0  0  0  0  0  0  0
   -3.8308    3.9761   -0.8658 C   0  0  0  0  0  0  0  0  0  0  0  0
   -4.9307    3.8813   -0.9689 H   0  0  0  0  0  0  0  0  0  0  0  0
   -3.3678    3.6575   -1.8219 H   0  0  0  0  0  0  0  0  0  0  0  0
   -3.5547    5.0198   -0.6324 H   0  0  0  0  0  0  0  0  0  0  0  0
  1  8  2  0  0  0  0
  3 20  1  0  0  0  0
  3  4  1  0  0  0  0
  4 11  1  0  0  0  0
  4  5  1  0  0  0  0
  5 12  1  6  0  0  0
  5 22  1  0  0  0  0
  5  6  1  0  0  0  0
  6 14  1  0  0  0  0
  6 13  1  0  0  0  0
  7  6  1  0  0  0  0
  7 16  1  0  0  0  0
  8  2  1  0  0  0  0
  8  7  1  0  0  0  0
  9 19  1  0  0  0  0
  9  2  1  0  0  0  0
 10  3  1  0  0  0  0
 15  7  1  0  0  0  0
 17  9  1  0  0  0  0
 18  9  1  0  0  0  0
 20 21  1  0  0  0  0
 21 24  1  0  0  0  0
 21 22  1  0  0  0  0
 22 26  1  6  0  0  0
 22 25  1  0  0  0  0
 23 20  1  0  0  0  0
 25 29  1  0  0  0  0
 25 28  1  0  0  0  0
 27 25  1  0  0  0  0
 27 32  1  0  0  0  0
 30 34  1  0  0  0  0
 30 27  1  0  0  0  0
 31 27  1  0  0  0  0
 33 30  2  0  0  0  0
 35 38  1  0  0  0  0
 35 34  1  0  0  0  0
 36 35  1  0  0  0  0
 37 35  1  0  0  0  0
M  END
