2
q = 0.0, confidence = 0.986

 23 22  0  0  0  0  0  0  0  0999 V2000
   -3.3122   -1.1711    0.0002 Si  0  0  0  0  0  0  0  0  0  0  0  0
   -2.5088    0.5185   -0.0015 C   0  0  0  0  0  3  0  0  0  0  0  0
   -2.1288    1.7372   -0.0006 C   0  0  0  0  0  0  0  0  0  0  0  0
   -2.2312    3.1765    0.0002 C   0  0  0  0  0  0  0  0  0  0  0  0
   -1.1184    3.9534    0.0011 C   0  0  0  0  0  3  0  0  0  0  0  0
   -0.1114    3.5086    0.0011 H   0  0  0  0  0  0  0  0  0  0  0  0
   -1.2052    5.0509    0.0018 H   0  0  0  0  0  0  0  0  0  0  0  0
   -3.6389    3.7280    0.0001 C   0  0  0  0  0  0  0  0  0  0  0  0
   -3.6344    4.8346    0.0010 H   0  0  0  0  0  0  0  0  0  0  0  0
   -4.1992    3.3737    0.8900 H   0  0  0  0  0  0  0  0  0  0  0  0
   -4.1985    3.3751   -0.8909 H   0  0  0  0  0  0  0  0  0  0  0  0
   -2.7307   -2.0813    1.5457 C   0  0  0  0  0  0  0  0  0  0  0  0
   -1.6378   -2.2564    1.4840 H   0  0  0  0  0  0  0  0  0  0  0  0
   -3.2362   -3.0664    1.6213 H   0  0  0  0  0  0  0  0  0  0  0  0
   -2.9506   -1.5087    2.4689 H   0  0  0  0  0  0  0  0  0  0  0  0
   -5.1838   -0.9072    0.0003 C   0  0  0  0  0  0  0  0  0  0  0  0
   -5.7090   -1.8849    0.0011 H   0  0  0  0  0  0  0  0  0  0  0  0
   -5.5077   -0.3441   -0.8981 H   0  0  0  0  0  0  0  0  0  0  0  0
   -5.5075   -0.3428    0.8980 H   0  0  0  0  0  0  0  0  0  0  0  0
   -2.7315   -2.0844   -1.5438 C   0  0  0  0  0  0  0  0  0  0  0  0
   -1.6385   -2.2593   -1.4823 H   0  0  0  0  0  0  0  0  0  0  0  0
   -2.9518   -1.5135   -2.4679 H   0  0  0  0  0  0  0  0  0  0  0  0
   -3.2370   -3.0696   -1.6173 H   0  0  0  0  0  0  0  0  0  0  0  0
  1 16  1  0  0  0  0
  1 12  1  0  0  0  0
  2  3  2  0  0  0  0
  2  1  1  0  0  0  0
  3  4  2  0  0  0  0
  4  5  1  0  0  0  0
  5  6  1  0  0  0  0
  5  7  1  0  0  0  0
  8  4  1  0  0  0  0
  8  9  1  0  0  0  0
  8 10  1  0  0  0  0
 11  8  1  0  0  0  0
 12 14  1  0  0  0  0
 12 15  1  0  0  0  0
 13 12  1  0  0  0  0
 16 17  1  0  0  0  0
 16 19  1  0  0  0  0
 18 16  1  0  0  0  0
 20 21  1  0  0  0  0
 20  1  1  0  0  0  0
 22 20  1  0  0  0  0
 23 20  1  0  0  0  0
M  END
