22
q = -1.0

 47 46  0  0  1  0  0  0  0  0999 V2000
   -2.6142   -0.7126   -0.6209 S   0  0  0  0  0  0  0  0  0  0  0  0
    0.1368    3.5892   -0.2134 O   0  0  0  0  0  0  0  0  0  0  0  0
    1.0675    3.1687    1.8129 O   0  0  0  0  0  0  0  0  0  0  0  0
    2.9341    2.4254   -0.3842 O   0  0  0  0  0  0  0  0  0  0  0  0
    3.8332    0.3604   -0.6443 O   0  0  0  0  0  0  0  0  0  0  0  0
   -2.3072    2.9391    0.9792 F   0  0  0  0  0  0  0  0  0  0  0  0
   -3.1688    2.4300   -0.9693 F   0  0  0  0  0  0  0  0  0  0  0  0
   -4.0149    1.5937    0.8506 F   0  0  0  0  0  0  0  0  0  0  0  0
    0.4614    0.1684    3.0362 F   0  0  0  0  0  0  0  0  0  0  0  0
   -1.7179    0.3712    3.1393 F   0  0  0  0  0  0  0  0  0  0  0  0
   -0.8156   -1.4794    2.4389 F   0  0  0  0  0  0  0  0  0  0  0  0
    3.5035   -0.6261    2.0530 F   0  0  0  0  0  0  0  0  0  0  0  0
    3.8498   -2.2188    0.5972 F   0  0  0  0  0  0  0  0  0  0  0  0
    2.3941   -2.5050    2.1917 F   0  0  0  0  0  0  0  0  0  0  0  0
    1.6390   -3.8432   -0.3481 F   0  0  0  0  0  0  0  0  0  0  0  0
   -0.1998   -3.6048    0.8013 F   0  0  0  0  0  0  0  0  0  0  0  0
   -0.2351   -3.3913   -1.3710 F   0  0  0  0  0  0  0  0  0  0  0  0
   -2.8381    1.9372    0.2552 C   0  0  0  0  0  0  0  0  0  0  0  0
   -1.9078    0.7470    0.1815 C   0  0  1  0  0  3  0  0  0  0  0  0
   -0.7102    0.5102    1.0182 C   0  0  2  0  0  3  0  0  0  0  0  0
   -0.6882   -0.1260    2.3937 C   0  0  0  0  0  0  0  0  0  0  0  0
    0.4637    1.2979    0.5451 C   0  0  1  0  0  3  0  0  0  0  0  0
    0.5458    2.8080    0.6260 C   0  0  0  0  0  0  0  0  0  0  0  0
    1.2402    4.5799    1.9952 C   0  0  0  0  0  0  0  0  0  0  0  0
    1.6527    0.4689    0.2253 C   0  0  1  0  0  3  0  0  0  0  0  0
    2.8374    1.2105   -0.2817 C   0  0  0  0  0  0  0  0  0  0  0  0
    5.0679    0.9743   -1.0306 C   0  0  0  0  0  0  0  0  0  0  0  0
    1.7838   -0.9999    0.4735 C   0  0  0  0  0  0  0  0  0  0  0  0
    2.8969   -1.5926    1.3240 C   0  0  0  0  0  0  0  0  0  0  0  0
    0.7637   -1.6390   -0.1582 C   0  0  0  0  0  3  0  0  0  0  0  0
    0.5064   -3.1083   -0.2482 C   0  0  0  0  0  0  0  0  0  0  0  0
   -3.0720   -2.0829    0.5702 C   0  0  0  0  0  0  0  0  0  0  0  0
   -3.5272   -3.2393   -0.3168 C   0  0  0  0  0  0  0  0  0  0  0  0
   -4.1310   -1.5711    1.5368 C   0  0  0  0  0  0  0  0  0  0  0  0
    1.6335    4.7104    3.0187 H   0  0  0  0  0  0  0  0  0  0  0  0
    1.9596    4.9727    1.2486 H   0  0  0  0  0  0  0  0  0  0  0  0
    0.2758    5.1124    1.8747 H   0  0  0  0  0  0  0  0  0  0  0  0
    5.7602    0.1436   -1.2531 H   0  0  0  0  0  0  0  0  0  0  0  0
    4.9282    1.6181   -1.9224 H   0  0  0  0  0  0  0  0  0  0  0  0
    5.4660    1.5999   -0.2070 H   0  0  0  0  0  0  0  0  0  0  0  0
   -2.1464   -2.3575    1.1002 H   0  0  0  0  0  0  0  0  0  0  0  0
   -3.8043   -4.0966    0.3302 H   0  0  0  0  0  0  0  0  0  0  0  0
   -4.4169   -2.9703   -0.9227 H   0  0  0  0  0  0  0  0  0  0  0  0
   -2.7162   -3.5773   -0.9903 H   0  0  0  0  0  0  0  0  0  0  0  0
   -4.4189   -2.3958    2.2216 H   0  0  0  0  0  0  0  0  0  0  0  0
   -3.7543   -0.7332    2.1521 H   0  0  0  0  0  0  0  0  0  0  0  0
   -5.0419   -1.2318    1.0031 H   0  0  0  0  0  0  0  0  0  0  0  0
  1 32  1  0  0  0  0
  2 23  2  0  0  0  0
  3 24  1  0  0  0  0
  4 26  2  0  0  0  0
  5 26  1  0  0  0  0
  7 18  1  0  0  0  0
 13 29  1  0  0  0  0
 15 31  1  0  0  0  0
 17 31  1  0  0  0  0
 18  8  1  0  0  0  0
 18  6  1  0  0  0  0
 19  1  1  1  0  0  0
 19 18  1  0  0  0  0
 19 20  1  0  0  0  0
 20 21  1  1  0  0  0
 21 11  1  0  0  0  0
 21  9  1  0  0  0  0
 21 10  1  0  0  0  0
 22 23  1  1  0  0  0
 22 20  1  0  0  0  0
 23  3  1  0  0  0  0
 24 35  1  0  0  0  0
 25 26  1  1  0  0  0
 25 28  1  0  0  0  0
 25 22  1  0  0  0  0
 27  5  1  0  0  0  0
 27 40  1  0  0  0  0
 28 29  1  0  0  0  0
 29 12  1  0  0  0  0
 29 14  1  0  0  0  0
 30 28  2  0  0  0  0
 31 30  1  0  0  0  0
 31 16  1  0  0  0  0
 32 41  1  0  0  0  0
 32 34  1  0  0  0  0
 33 42  1  0  0  0  0
 33 32  1  0  0  0  0
 34 46  1  0  0  0  0
 34 45  1  0  0  0  0
 36 24  1  0  0  0  0
 37 24  1  0  0  0  0
 38 27  1  0  0  0  0
 39 27  1  0  0  0  0
 43 33  1  0  0  0  0
 44 33  1  0  0  0  0
 47 34  1  0  0  0  0
M  END
