2
q = -1.0

 28 29  0  0  0  0  0  0  0  0999 V2000
    0.1741   -0.8577    2.6811 C   0  0  0  0  0  0  0  0  0  0  0  0
    0.3624   -0.6300    1.2226 C   0  0  0  0  0  2  0  0  0  0  0  0
    1.6194   -0.4262    0.5111 C   0  0  0  0  0  3  0  0  0  0  0  0
    2.4918   -1.6263    0.2858 C   0  0  0  0  0  0  0  0  0  0  0  0
    3.8077   -1.5065   -0.2289 C   0  0  0  0  0  0  0  0  0  0  0  0
    4.6107   -2.6335   -0.4568 C   0  0  0  0  0  0  0  0  0  0  0  0
    4.1406   -3.9220   -0.1580 C   0  0  0  0  0  0  0  0  0  0  0  0
    2.8502   -4.0622    0.3795 C   0  0  0  0  0  0  0  0  0  0  0  0
    2.0437   -2.9372    0.5954 C   0  0  0  0  0  0  0  0  0  0  0  0
    2.3892    0.8662    0.6875 C   0  0  0  0  0  0  0  0  0  0  0  0
    2.7640    1.6637   -0.4140 C   0  0  0  0  0  0  0  0  0  0  0  0
    3.4674    2.8636   -0.2372 C   0  0  0  0  0  0  0  0  0  0  0  0
    3.8107    3.2984    1.0534 C   0  0  0  0  0  0  0  0  0  0  0  0
    3.4689    2.5049    2.1591 C   0  0  0  0  0  0  0  0  0  0  0  0
    2.7814    1.2952    1.9738 C   0  0  0  0  0  0  0  0  0  0  0  0
   -0.8621   -1.1213    2.9661 H   0  0  0  0  0  0  0  0  0  0  0  0
    0.4773    0.0399    3.2639 H   0  0  0  0  0  0  0  0  0  0  0  0
    0.8497   -1.6752    3.0207 H   0  0  0  0  0  0  0  0  0  0  0  0
    4.2070   -0.5065   -0.4514 H   0  0  0  0  0  0  0  0  0  0  0  0
    5.6230   -2.4992   -0.8694 H   0  0  0  0  0  0  0  0  0  0  0  0
    4.7739   -4.8047   -0.3328 H   0  0  0  0  0  0  0  0  0  0  0  0
    2.4670   -5.0618    0.6394 H   0  0  0  0  0  0  0  0  0  0  0  0
    1.0318   -3.0688    1.0051 H   0  0  0  0  0  0  0  0  0  0  0  0
    2.4627    1.3480   -1.4225 H   0  0  0  0  0  0  0  0  0  0  0  0
    3.7424    3.4692   -1.1151 H   0  0  0  0  0  0  0  0  0  0  0  0
    4.3508    4.2470    1.1957 H   0  0  0  0  0  0  0  0  0  0  0  0
    3.7489    2.8251    3.1751 H   0  0  0  0  0  0  0  0  0  0  0  0
    2.5482    0.6659    2.8453 H   0  0  0  0  0  0  0  0  0  0  0  0
  1 16  1  0  0  0  0
  1 18  1  0  0  0  0
  1 17  1  0  0  0  0
  2  1  1  0  0  0  0
  3 10  1  0  0  0  0
  3  2  1  0  0  0  0
  4  3  1  0  0  0  0
  4  9  1  0  0  0  0
  5  4  2  0  0  0  0
  6  5  1  0  0  0  0
  6  7  2  0  0  0  0
  7  8  1  0  0  0  0
  8  9  2  0  0  0  0
  8 22  1  0  0  0  0
  9 23  1  0  0  0  0
 10 15  1  0  0  0  0
 11 12  1  0  0  0  0
 11 10  2  0  0  0  0
 12 13  2  0  0  0  0
 13 26  1  0  0  0  0
 13 14  1  0  0  0  0
 14 27  1  0  0  0  0
 15 14  2  0  0  0  0
 15 28  1  0  0  0  0
 19  5  1  0  0  0  0
 20  6  1  0  0  0  0
 21  7  1  0  0  0  0
 24 11  1  0  0  0  0
 25 12  1  0  0  0  0
M  END
