3
q = -1.0

 22 23  0  0  1  0  0  0  0  0999 V2000
    2.0132    0.0013   -4.3000 O   0  0  0  0  0  0  0  0  0  0  0  0
    2.5064    5.1655    0.4905 O   0  0  0  0  0  0  0  0  0  0  0  0
    0.3286   -0.8163   -1.6061 C   0  0  0  0  0  2  0  0  0  0  0  0
    1.0772    0.2901   -1.9910 C   0  0  2  0  0  3  0  0  0  0  0  0
    1.3943   -0.3304   -3.3036 C   0  0  0  0  0  0  0  0  0  0  0  0
    0.5827   -1.6081   -2.8997 C   0  0  0  0  0  0  0  0  0  0  0  0
   -0.3056   -1.8412   -3.5280 H   0  0  0  0  0  0  0  0  0  0  0  0
    1.1894   -2.5330   -2.7820 H   0  0  0  0  0  0  0  0  0  0  0  0
    1.4613    1.5476   -1.3652 C   0  0  0  0  0  0  0  0  0  0  0  0
    1.2441    1.7858    0.0161 C   0  0  0  0  0  0  0  0  0  0  0  0
    0.7682    1.0042    0.6269 H   0  0  0  0  0  0  0  0  0  0  0  0
    1.6116    2.9908    0.6063 C   0  0  0  0  0  0  0  0  0  0  0  0
    1.4415    3.1744    1.6768 H   0  0  0  0  0  0  0  0  0  0  0  0
    2.2033    4.0114   -0.1711 C   0  0  0  0  0  0  0  0  0  0  0  0
    2.4421    3.7889   -1.5436 C   0  0  0  0  0  0  0  0  0  0  0  0
    2.9143    4.5598   -2.1674 H   0  0  0  0  0  0  0  0  0  0  0  0
    2.0798    2.5645   -2.1257 C   0  0  0  0  0  0  0  0  0  0  0  0
    2.2767    2.3777   -3.1922 H   0  0  0  0  0  0  0  0  0  0  0  0
    3.1091    6.2155   -0.2382 C   0  0  0  0  0  0  0  0  0  0  0  0
    3.2684    7.0445    0.4764 H   0  0  0  0  0  0  0  0  0  0  0  0
    4.0920    5.9157   -0.6674 H   0  0  0  0  0  0  0  0  0  0  0  0
    2.4587    6.5748   -1.0682 H   0  0  0  0  0  0  0  0  0  0  0  0
  1  5  2  0  0  0  0
  4  3  1  0  0  0  0
  4  9  1  1  0  0  0
  5  6  1  0  0  0  0
  5  4  1  0  0  0  0
  6  8  1  0  0  0  0
  6  3  1  0  0  0  0
  7  6  1  0  0  0  0
  9 10  1  0  0  0  0
 10 12  2  0  0  0  0
 10 11  1  0  0  0  0
 12 13  1  0  0  0  0
 14  2  1  0  0  0  0
 14 12  1  0  0  0  0
 15 14  2  0  0  0  0
 16 15  1  0  0  0  0
 17 15  1  0  0  0  0
 17  9  2  0  0  0  0
 18 17  1  0  0  0  0
 19 20  1  0  0  0  0
 19  2  1  0  0  0  0
 21 19  1  0  0  0  0
 22 19  1  0  0  0  0
M  END
