4
q = -1.0

 50 53  0  0  1  0  0  0  0  0999 V2000
   -0.2794    4.4083   -1.1595 O   0  0  0  0  0  0  0  0  0  0  0  0
    0.3217    4.0179   -1.8208 H   0  0  0  0  0  0  0  0  0  0  0  0
   -5.8069   -4.8916    0.4798 O   0  0  0  0  0  0  0  0  0  0  0  0
    1.4520    1.5998   -0.1143 C   0  0  0  0  0  1  0  0  0  0  0  0
    0.5074    2.4003   -0.1626 C   0  0  0  0  0  2  0  0  0  0  0  0
   -0.6123    3.3466   -0.2582 C   0  0  2  0  0  0  0  0  0  0  0  0
   -1.9569    2.6001   -0.6319 C   0  0  1  0  0  0  0  0  0  0  0  0
   -1.8525    1.5038   -1.6983 C   0  0  0  0  0  0  0  0  0  0  0  0
   -0.9817    0.8583   -1.4569 H   0  0  0  0  0  0  0  0  0  0  0  0
   -1.6567    1.9459   -2.6993 H   0  0  0  0  0  0  0  0  0  0  0  0
   -3.1305    0.6503   -1.7447 C   0  0  0  0  0  0  0  0  0  0  0  0
   -2.9883   -0.1677   -2.4792 H   0  0  0  0  0  0  0  0  0  0  0  0
   -3.9717    1.2627   -2.1319 H   0  0  0  0  0  0  0  0  0  0  0  0
   -3.5186    0.0589   -0.3729 C   0  0  2  0  0  0  0  0  0  0  0  0
   -2.6851   -0.6175   -0.0664 H   0  0  0  0  0  0  0  0  0  0  0  0
   -4.7932   -0.8621   -0.4376 C   0  0  1  0  0  0  0  0  0  0  0  0
   -4.4916   -2.0584   -1.3755 C   0  0  0  0  0  0  0  0  0  0  0  0
   -4.4664   -1.7093   -2.4272 H   0  0  0  0  0  0  0  0  0  0  0  0
   -3.4684   -2.4264   -1.1419 H   0  0  0  0  0  0  0  0  0  0  0  0
   -5.4704   -3.2238   -1.2384 C   0  0  0  0  0  0  0  0  0  0  0  0
   -6.4966   -2.9157   -1.5416 H   0  0  0  0  0  0  0  0  0  0  0  0
   -5.1988   -4.0798   -1.8869 H   0  0  0  0  0  0  0  0  0  0  0  0
   -5.5611   -3.7204    0.1980 C   0  0  0  0  0  0  0  0  0  0  0  0
   -5.3979   -2.6805    1.2300 C   0  0  0  0  0  0  0  0  0  0  0  0
   -5.5898   -3.0126    2.2641 H   0  0  0  0  0  0  0  0  0  0  0  0
   -5.1068   -1.3749    0.9699 C   0  0  0  0  0  0  0  0  0  0  0  0
   -5.1206   -0.3533    2.0751 C   0  0  0  0  0  0  0  0  0  0  0  0
   -5.2889   -0.8545    3.0494 H   0  0  0  0  0  0  0  0  0  0  0  0
   -5.9942    0.3195    1.9135 H   0  0  0  0  0  0  0  0  0  0  0  0
   -3.8505    0.5040    2.0952 C   0  0  0  0  0  0  0  0  0  0  0  0
   -3.9338    1.2822    2.8814 H   0  0  0  0  0  0  0  0  0  0  0  0
   -2.9791   -0.1322    2.3682 H   0  0  0  0  0  0  0  0  0  0  0  0
   -3.5843    1.1466    0.7313 C   0  0  1  0  0  0  0  0  0  0  0  0
   -4.4234    1.8451    0.5061 H   0  0  0  0  0  0  0  0  0  0  0  0
   -2.2745    1.9379    0.7247 C   0  0  2  0  0  0  0  0  0  0  0  0
   -1.4603    1.1940    0.8875 H   0  0  0  0  0  0  0  0  0  0  0  0
   -2.0608    3.0613    1.7589 C   0  0  0  0  0  0  0  0  0  0  0  0
   -1.7669    2.6590    2.7479 H   0  0  0  0  0  0  0  0  0  0  0  0
   -2.9997    3.6340    1.9135 H   0  0  0  0  0  0  0  0  0  0  0  0
   -0.9584    3.9583    1.1379 C   0  0  0  0  0  0  0  0  0  0  0  0
   -0.0493    4.0284    1.7631 H   0  0  0  0  0  0  0  0  0  0  0  0
   -1.3111    4.9923    0.9565 H   0  0  0  0  0  0  0  0  0  0  0  0
   -2.9903    3.6590   -1.0530 C   0  0  0  0  0  0  0  0  0  0  0  0
   -2.6059    4.2169   -1.9280 H   0  0  0  0  0  0  0  0  0  0  0  0
   -3.1882    4.4021   -0.2568 H   0  0  0  0  0  0  0  0  0  0  0  0
   -3.9607    3.2020   -1.3260 H   0  0  0  0  0  0  0  0  0  0  0  0
   -6.0325   -0.0876   -0.9517 C   0  0  0  0  0  0  0  0  0  0  0  0
   -6.9368   -0.7272   -0.9239 H   0  0  0  0  0  0  0  0  0  0  0  0
   -5.8851    0.2442   -1.9980 H   0  0  0  0  0  0  0  0  0  0  0  0
   -6.2445    0.8109   -0.3406 H   0  0  0  0  0  0  0  0  0  0  0  0
  1  6  1  0  0  0  0
  2  1  1  0  0  0  0
  5  4  1  0  0  0  0
  6  5  1  1  0  0  0
  6 40  1  0  0  0  0
  7 43  1  6  0  0  0
  7  6  1  0  0  0  0
  7 35  1  0  0  0  0
  8  9  1  0  0  0  0
  8  7  1  0  0  0  0
 10  8  1  0  0  0  0
 11  8  1  0  0  0  0
 11 14  1  0  0  0  0
 12 11  1  0  0  0  0
 13 11  1  0  0  0  0
 14 15  1  1  0  0  0
 14 33  1  0  0  0  0
 16 47  1  6  0  0  0
 16 14  1  0  0  0  0
 16 26  1  0  0  0  0
 17 20  1  0  0  0  0
 17 19  1  0  0  0  0
 17 16  1  0  0  0  0
 18 17  1  0  0  0  0
 20 23  1  0  0  0  0
 21 20  1  0  0  0  0
 22 20  1  0  0  0  0
 23  3  2  0  0  0  0
 23 24  1  0  0  0  0
 24 25  1  0  0  0  0
 26 24  2  0  0  0  0
 26 27  1  0  0  0  0
 27 30  1  0  0  0  0
 27 28  1  0  0  0  0
 29 27  1  0  0  0  0
 30 32  1  0  0  0  0
 30 31  1  0  0  0  0
 33 34  1  6  0  0  0
 33 30  1  0  0  0  0
 35 33  1  0  0  0  0
 35 36  1  1  0  0  0
 35 37  1  0  0  0  0
 37 39  1  0  0  0  0
 37 38  1  0  0  0  0
 40 37  1  0  0  0  0
 40 41  1  0  0  0  0
 42 40  1  0  0  0  0
 43 45  1  0  0  0  0
 44 43  1  0  0  0  0
 46 43  1  0  0  0  0
 47 48  1  0  0  0  0
 47 50  1  0  0  0  0
 49 47  1  0  0  0  0
M  END
