3
q = -1.0, confidence = 0.0

 38 38  0  0  1  0  0  0  0  0999 V2000
   -3.3680    0.6524    1.2616 O   0  0  0  0  0  0  0  0  0  0  0  0
   -2.3923   -0.8614   -0.3667 N   0  0  0  0  0  0  0  0  0  0  0  0
    0.2989    0.4473    1.5888 C   0  0  0  0  0  2  0  0  0  0  0  0
    1.2231    0.9201    2.6977 C   0  0  0  0  0  0  0  0  0  0  0  0
    2.1283    2.1047    2.3333 C   0  0  0  0  0  0  0  0  0  0  0  0
   -1.0384    0.2576    1.7776 C   0  0  1  0  0  3  0  0  0  0  0  0
   -1.8026    0.6357    3.0556 C   0  0  0  0  0  0  0  0  0  0  0  0
   -3.0747    1.2948    2.5069 C   0  0  0  0  0  0  0  0  0  0  0  0
   -3.6954   -0.9991   -1.0583 C   0  0  0  0  0  0  0  0  0  0  0  0
   -4.1288    0.3206   -1.7103 C   0  0  0  0  0  0  0  0  0  0  0  0
   -4.7990   -1.5825   -0.1609 C   0  0  0  0  0  0  0  0  0  0  0  0
   -1.3432   -1.8148   -0.7606 C   0  0  0  0  0  0  0  0  0  0  0  0
   -1.6751   -3.2506   -0.3243 C   0  0  0  0  0  0  0  0  0  0  0  0
   -0.9789   -1.7502   -2.2494 C   0  0  0  0  0  0  0  0  0  0  0  0
   -2.2381   -0.0387    0.7864 B   0  0  0  0  0  0  0  0  0  0  0  0
    0.6541    1.1678    3.6205 H   0  0  0  0  0  0  0  0  0  0  0  0
    1.8826    0.0701    2.9930 H   0  0  0  0  0  0  0  0  0  0  0  0
    2.7561    1.8688    1.4477 H   0  0  0  0  0  0  0  0  0  0  0  0
    1.5294    3.0054    2.0852 H   0  0  0  0  0  0  0  0  0  0  0  0
    2.8005    2.3737    3.1737 H   0  0  0  0  0  0  0  0  0  0  0  0
   -2.0742   -0.2753    3.6370 H   0  0  0  0  0  0  0  0  0  0  0  0
   -1.2556    1.3098    3.7445 H   0  0  0  0  0  0  0  0  0  0  0  0
   -2.9087    2.3836    2.3308 H   0  0  0  0  0  0  0  0  0  0  0  0
   -3.9558    1.1931    3.1750 H   0  0  0  0  0  0  0  0  0  0  0  0
   -3.5323   -1.7260   -1.8811 H   0  0  0  0  0  0  0  0  0  0  0  0
   -5.0735    0.1892   -2.2761 H   0  0  0  0  0  0  0  0  0  0  0  0
   -4.2910    1.0973   -0.9380 H   0  0  0  0  0  0  0  0  0  0  0  0
   -3.3549    0.6820   -2.4169 H   0  0  0  0  0  0  0  0  0  0  0  0
   -4.4779   -2.5434    0.2867 H   0  0  0  0  0  0  0  0  0  0  0  0
   -5.0447   -0.8830    0.6599 H   0  0  0  0  0  0  0  0  0  0  0  0
   -5.7187   -1.7696   -0.7526 H   0  0  0  0  0  0  0  0  0  0  0  0
   -0.4390   -1.4860   -0.2023 H   0  0  0  0  0  0  0  0  0  0  0  0
   -0.8283   -3.9348   -0.5407 H   0  0  0  0  0  0  0  0  0  0  0  0
   -1.8901   -3.2925    0.7625 H   0  0  0  0  0  0  0  0  0  0  0  0
   -2.5597   -3.6512   -0.8622 H   0  0  0  0  0  0  0  0  0  0  0  0
   -0.1149   -2.4098   -2.4632 H   0  0  0  0  0  0  0  0  0  0  0  0
   -1.8113   -2.0776   -2.9055 H   0  0  0  0  0  0  0  0  0  0  0  0
   -0.6769   -0.7278   -2.5390 H   0  0  0  0  0  0  0  0  0  0  0  0
  1  8  1  0  0  0  0
  2 15  1  0  0  0  0
  3  4  1  0  0  0  0
  4 17  1  0  0  0  0
  4 16  1  0  0  0  0
  5  4  1  0  0  0  0
  5 20  1  0  0  0  0
  6  3  1  6  0  0  0
  6  7  1  0  0  0  0
  7 21  1  0  0  0  0
  7 22  1  0  0  0  0
  8  7  1  0  0  0  0
  8 24  1  0  0  0  0
  9  2  1  0  0  0  0
  9 11  1  0  0  0  0
 10  9  1  0  0  0  0
 10 27  1  0  0  0  0
 11 29  1  0  0  0  0
 11 30  1  0  0  0  0
 12  2  1  0  0  0  0
 12 13  1  0  0  0  0
 12 32  1  0  0  0  0
 13 34  1  0  0  0  0
 14 12  1  0  0  0  0
 15  1  1  0  0  0  0
 15  6  1  0  0  0  0
 18  5  1  0  0  0  0
 19  5  1  0  0  0  0
 23  8  1  0  0  0  0
 25  9  1  0  0  0  0
 26 10  1  0  0  0  0
 28 10  1  0  0  0  0
 31 11  1  0  0  0  0
 33 13  1  0  0  0  0
 35 13  1  0  0  0  0
 36 14  1  0  0  0  0
 37 14  1  0  0  0  0
 38 14  1  0  0  0  0
M  END
