2
q = 0.0, confidence = 0.99

 33 35  0  0  1  0  0  0  0  0999 V2000
   -0.3153    1.4429   -1.0756 N   0  0  0  0  0  0  0  0  0  0  0  0
   -0.8024    0.3083   -0.5066 C   0  0  0  0  0  2  0  0  0  0  0  0
    0.5595   -0.2789   -0.5036 C   0  0  0  0  0  0  0  0  0  0  0  0
    1.1100    1.0166   -1.1217 C   0  0  2  0  0  0  0  0  0  0  0  0
    1.0323   -1.4840   -0.0999 C   0  0  0  0  0  0  0  0  0  0  0  0
   -0.8934    2.6965   -1.4729 C   0  0  0  0  0  0  0  0  0  0  0  0
    2.3928   -2.0092   -0.1191 C   0  0  0  0  0  0  0  0  0  0  0  0
    2.6029   -3.3420    0.3165 C   0  0  0  0  0  0  0  0  0  0  0  0
    3.8826   -3.9082    0.3214 C   0  0  0  0  0  0  0  0  0  0  0  0
    4.9861   -3.1522   -0.1059 C   0  0  0  0  0  0  0  0  0  0  0  0
    4.7975   -1.8270   -0.5366 C   0  0  0  0  0  0  0  0  0  0  0  0
    3.5192   -1.2603   -0.5460 C   0  0  0  0  0  0  0  0  0  0  0  0
    2.0397    1.8843   -0.3071 C   0  0  0  0  0  0  0  0  0  0  0  0
    1.8298    2.0400    1.0786 C   0  0  0  0  0  0  0  0  0  0  0  0
    2.6800    2.8572    1.8341 C   0  0  0  0  0  0  0  0  0  0  0  0
    3.7503    3.5266    1.2156 C   0  0  0  0  0  0  0  0  0  0  0  0
    3.9641    3.3789   -0.1628 C   0  0  0  0  0  0  0  0  0  0  0  0
    3.1090    2.5630   -0.9208 C   0  0  0  0  0  0  0  0  0  0  0  0
    1.4811    0.9103   -2.1655 H   0  0  0  0  0  0  0  0  0  0  0  0
    0.2692   -2.1726    0.3007 H   0  0  0  0  0  0  0  0  0  0  0  0
   -0.3255    3.5357   -1.0192 H   0  0  0  0  0  0  0  0  0  0  0  0
   -1.9415    2.7412   -1.1292 H   0  0  0  0  0  0  0  0  0  0  0  0
   -0.8727    2.8120   -2.5780 H   0  0  0  0  0  0  0  0  0  0  0  0
    1.7375   -3.9336    0.6536 H   0  0  0  0  0  0  0  0  0  0  0  0
    4.0215   -4.9453    0.6620 H   0  0  0  0  0  0  0  0  0  0  0  0
    5.9942   -3.5936   -0.1018 H   0  0  0  0  0  0  0  0  0  0  0  0
    5.6595   -1.2275   -0.8661 H   0  0  0  0  0  0  0  0  0  0  0  0
    3.3976   -0.2191   -0.8713 H   0  0  0  0  0  0  0  0  0  0  0  0
    0.9963    1.5081    1.5641 H   0  0  0  0  0  0  0  0  0  0  0  0
    2.5105    2.9697    2.9156 H   0  0  0  0  0  0  0  0  0  0  0  0
    4.4195    4.1649    1.8122 H   0  0  0  0  0  0  0  0  0  0  0  0
    4.7992    3.9024   -0.6524 H   0  0  0  0  0  0  0  0  0  0  0  0
    3.2745    2.4469   -2.0041 H   0  0  0  0  0  0  0  0  0  0  0  0
  1  2  1  0  0  0  0
  2  3  1  0  0  0  0
  3  5  2  0  0  0  0
  4 19  1  6  0  0  0
  4  1  1  0  0  0  0
  4  3  1  0  0  0  0
  4 13  1  0  0  0  0
  5 20  1  0  0  0  0
  6 22  1  0  0  0  0
  6  1  1  0  0  0  0
  6 21  1  0  0  0  0
  7  5  1  0  0  0  0
  7  8  1  0  0  0  0
  8  9  2  0  0  0  0
  8 24  1  0  0  0  0
  9 25  1  0  0  0  0
 10 26  1  0  0  0  0
 10  9  1  0  0  0  0
 11 10  2  0  0  0  0
 12 11  1  0  0  0  0
 12  7  2  0  0  0  0
 13 14  1  0  0  0  0
 14 29  1  0  0  0  0
 14 15  2  0  0  0  0
 15 30  1  0  0  0  0
 16 31  1  0  0  0  0
 16 15  1  0  0  0  0
 17 16  2  0  0  0  0
 18 13  2  0  0  0  0
 18 17  1  0  0  0  0
 23  6  1  0  0  0  0
 27 11  1  0  0  0  0
 28 12  1  0  0  0  0
 32 17  1  0  0  0  0
 33 18  1  0  0  0  0
M  END
