2
q = -1.0

 24 25  0  0  0  0  0  0  0  0999 V2000
    2.8055    0.2070   -0.1267 N   0  0  0  0  0  0  0  0  0  0  0  0
    1.5153   -0.1343   -0.2926 C   0  0  0  0  0  1  0  0  0  0  0  0
    3.7747   -0.8116    0.1593 C   0  0  0  0  0  0  0  0  0  0  0  0
    3.7263   -2.0278   -0.5467 C   0  0  0  0  0  0  0  0  0  0  0  0
    2.9739   -2.1615   -1.3365 H   0  0  0  0  0  0  0  0  0  0  0  0
    4.6312   -3.0496   -0.2292 C   0  0  0  0  0  0  0  0  0  0  0  0
    4.5854   -4.0005   -0.7807 H   0  0  0  0  0  0  0  0  0  0  0  0
    5.5914   -2.8623    0.7775 C   0  0  0  0  0  0  0  0  0  0  0  0
    6.3022   -3.6658    1.0212 H   0  0  0  0  0  0  0  0  0  0  0  0
    5.6380   -1.6436    1.4750 C   0  0  0  0  0  0  0  0  0  0  0  0
    6.3815   -1.4913    2.2721 H   0  0  0  0  0  0  0  0  0  0  0  0
    4.7298   -0.6192    1.1769 C   0  0  0  0  0  0  0  0  0  0  0  0
    4.7524    0.3298    1.7317 H   0  0  0  0  0  0  0  0  0  0  0  0
    3.1596    1.5938   -0.1580 C   0  0  0  0  0  0  0  0  0  0  0  0
    4.4316    1.9999   -0.6088 C   0  0  0  0  0  0  0  0  0  0  0  0
    5.1675    1.2455   -0.9207 H   0  0  0  0  0  0  0  0  0  0  0  0
    4.7428    3.3650   -0.6649 C   0  0  0  0  0  0  0  0  0  0  0  0
    5.7371    3.6756   -1.0203 H   0  0  0  0  0  0  0  0  0  0  0  0
    3.7951    4.3320   -0.2900 C   0  0  0  0  0  0  0  0  0  0  0  0
    4.0451    5.4020   -0.3421 H   0  0  0  0  0  0  0  0  0  0  0  0
    2.5265    3.9207    0.1497 C   0  0  0  0  0  0  0  0  0  0  0  0
    1.7739    4.6670    0.4461 H   0  0  0  0  0  0  0  0  0  0  0  0
    2.2048    2.5592    0.2252 C   0  0  0  0  0  0  0  0  0  0  0  0
    1.2123    2.2277    0.5649 H   0  0  0  0  0  0  0  0  0  0  0  0
  1  3  1  0  0  0  0
  2  1  1  0  0  0  0
  3 12  1  0  0  0  0
  4  6  1  0  0  0  0
  4  3  2  0  0  0  0
  5  4  1  0  0  0  0
  6  8  2  0  0  0  0
  7  6  1  0  0  0  0
  8  9  1  0  0  0  0
  8 10  1  0  0  0  0
 10 11  1  0  0  0  0
 12 10  2  0  0  0  0
 12 13  1  0  0  0  0
 14  1  1  0  0  0  0
 14 23  1  0  0  0  0
 15 14  2  0  0  0  0
 16 15  1  0  0  0  0
 17 15  1  0  0  0  0
 17 19  2  0  0  0  0
 18 17  1  0  0  0  0
 19 21  1  0  0  0  0
 20 19  1  0  0  0  0
 21 23  2  0  0  0  0
 21 22  1  0  0  0  0
 23 24  1  0  0  0  0
M  END
