4
q = -1.0, confidence = 0.0

 29 28  0  0  0  0  0  0  0  0999 V2000
   -2.1541   -0.4052   -0.7054 P   0  0  1  0  0  0  0  0  0  0  0  0
   -2.6963    1.7042    0.0466 Si  0  0  0  0  0  0  0  0  0  0  0  0
   -0.7594   -1.1634    1.5446 O   0  0  0  0  0  0  0  0  0  0  0  0
   -0.6540   -0.6493    0.4387 C   0  0  0  0  0  3  0  0  0  0  0  0
   -1.5739    2.9460   -0.8361 C   0  0  0  0  0  0  0  0  0  0  0  0
   -4.4859    2.0900   -0.4527 C   0  0  0  0  0  0  0  0  0  0  0  0
   -2.4836    1.9481    1.9144 C   0  0  0  0  0  0  0  0  0  0  0  0
   -3.4937   -1.5903    0.0097 C   0  0  0  0  0  0  0  0  0  0  0  0
   -2.8671   -2.9979   -0.0187 C   0  0  0  0  0  0  0  0  0  0  0  0
   -4.6638   -1.5431   -0.9901 C   0  0  0  0  0  0  0  0  0  0  0  0
   -3.9805   -1.2631    1.4269 C   0  0  0  0  0  0  0  0  0  0  0  0
   -0.5177    2.8168   -0.5322 H   0  0  0  0  0  0  0  0  0  0  0  0
   -1.8880    3.9763   -0.5663 H   0  0  0  0  0  0  0  0  0  0  0  0
   -1.6255    2.8377   -1.9368 H   0  0  0  0  0  0  0  0  0  0  0  0
   -5.2250    1.4795    0.1023 H   0  0  0  0  0  0  0  0  0  0  0  0
   -4.6443    1.9270   -1.5377 H   0  0  0  0  0  0  0  0  0  0  0  0
   -4.6956    3.1584   -0.2331 H   0  0  0  0  0  0  0  0  0  0  0  0
   -3.1655    1.3063    2.5037 H   0  0  0  0  0  0  0  0  0  0  0  0
   -2.6889    3.0078    2.1759 H   0  0  0  0  0  0  0  0  0  0  0  0
   -1.4479    1.7081    2.2228 H   0  0  0  0  0  0  0  0  0  0  0  0
   -2.0532   -3.0940    0.7249 H   0  0  0  0  0  0  0  0  0  0  0  0
   -2.4567   -3.2417   -1.0204 H   0  0  0  0  0  0  0  0  0  0  0  0
   -3.6438   -3.7557    0.2236 H   0  0  0  0  0  0  0  0  0  0  0  0
   -5.1463   -0.5467   -1.0238 H   0  0  0  0  0  0  0  0  0  0  0  0
   -5.4398   -2.2823   -0.6926 H   0  0  0  0  0  0  0  0  0  0  0  0
   -4.3306   -1.7946   -2.0177 H   0  0  0  0  0  0  0  0  0  0  0  0
   -3.1331   -1.2278    2.1372 H   0  0  0  0  0  0  0  0  0  0  0  0
   -4.6930   -2.0455    1.7713 H   0  0  0  0  0  0  0  0  0  0  0  0
   -4.5179   -0.2946    1.4641 H   0  0  0  0  0  0  0  0  0  0  0  0
  1  8  1  0  0  0  0
  1  2  1  0  0  0  0
  1  4  1  1  0  0  0
  2  7  1  0  0  0  0
  4  3  2  0  0  0  0
  5 13  1  0  0  0  0
  5 12  1  0  0  0  0
  5  2  1  0  0  0  0
  6 17  1  0  0  0  0
  6  2  1  0  0  0  0
  6 15  1  0  0  0  0
  7 19  1  0  0  0  0
  7 20  1  0  0  0  0
  7 18  1  0  0  0  0
  8 11  1  0  0  0  0
  9  8  1  0  0  0  0
  9 23  1  0  0  0  0
  9 21  1  0  0  0  0
 10 25  1  0  0  0  0
 10  8  1  0  0  0  0
 11 29  1  0  0  0  0
 11 28  1  0  0  0  0
 11 27  1  0  0  0  0
 14  5  1  0  0  0  0
 16  6  1  0  0  0  0
 22  9  1  0  0  0  0
 24 10  1  0  0  0  0
 26 10  1  0  0  0  0
M  END
