3
q = 0.0, confidence = 0.9

  3  2  0  0  0  0  0  0  0  0999 V2000
   -1.8088    2.0140   -0.0011 Cl  0  0  0  0  0  0  0  0  0  0  0  0
   -2.5978   -0.6997   -0.0161 Cl  0  0  0  0  0  0  0  0  0  0  0  0
   -1.2672    0.3863   -0.0067 C   0  0  0  0  0  0  0  0  0  0  0  0
  2  3  1  0  0  0  0
  3  1  1  0  0  0  0
M  END
