1
q = -1.0, confidence = 0.0

 18 18  0  0  0  0  0  0  0  0999 V2000
    1.6859    0.8780    2.3259 C   0  0  0  0  0  3  0  0  0  0  0  0
    2.6056    0.5886    2.8710 H   0  0  0  0  0  0  0  0  0  0  0  0
    1.4160    1.9150    2.6038 H   0  0  0  0  0  0  0  0  0  0  0  0
    0.5735   -0.0667    2.6107 C   0  0  0  0  0  0  0  0  0  0  0  0
    0.8209   -1.4374    2.8686 C   0  0  0  0  0  0  0  0  0  0  0  0
    1.8626   -1.7940    2.8949 H   0  0  0  0  0  0  0  0  0  0  0  0
   -0.2294   -2.3395    3.0899 C   0  0  0  0  0  0  0  0  0  0  0  0
   -0.0077   -3.3987    3.2949 H   0  0  0  0  0  0  0  0  0  0  0  0
   -1.5577   -1.8921    3.0479 C   0  0  0  0  0  0  0  0  0  0  0  0
   -2.3702   -2.6235    3.2056 H   0  0  0  0  0  0  0  0  0  0  0  0
   -1.8534   -0.5327    2.7926 C   0  0  0  0  0  0  0  0  0  0  0  0
   -0.7759    0.3551    2.5888 C   0  0  0  0  0  0  0  0  0  0  0  0
   -0.9935    1.4162    2.3901 H   0  0  0  0  0  0  0  0  0  0  0  0
   -3.3342   -0.0178    2.6961 B   0  0  0  0  0  0  0  0  0  0  0  0
   -3.5641    1.2333    2.1770 O   0  0  0  0  0  0  0  0  0  0  0  0
   -4.5160    1.4440    2.1703 H   0  0  0  0  0  0  0  0  0  0  0  0
   -4.4300   -0.7680    3.0681 O   0  0  0  0  0  0  0  0  0  0  0  0
   -4.1711   -1.6116    3.4783 H   0  0  0  0  0  0  0  0  0  0  0  0
  1  3  1  0  0  0  0
  1  4  1  0  0  0  0
  1  2  1  0  0  0  0
  4  5  1  0  0  0  0
  5  6  1  0  0  0  0
  5  7  2  0  0  0  0
  7  8  1  0  0  0  0
  9  7  1  0  0  0  0
  9 10  1  0  0  0  0
 11  9  2  0  0  0  0
 12  4  2  0  0  0  0
 12 11  1  0  0  0  0
 13 12  1  0  0  0  0
 14 11  1  0  0  0  0
 14 17  1  0  0  0  0
 15 14  1  0  0  0  0
 16 15  1  0  0  0  0
 17 18  1  0  0  0  0
M  END
