1
q = -1.0

 18 18  0  0  0  0  0  0  0  0999 V2000
   -1.5537   -0.9111    2.1622 C   0  0  0  0  0  3  0  0  0  0  0  0
   -2.5383   -0.5667    2.5362 H   0  0  0  0  0  0  0  0  0  0  0  0
   -1.3910   -1.9198    2.5878 H   0  0  0  0  0  0  0  0  0  0  0  0
   -0.4269   -0.0058    2.5309 C   0  0  0  0  0  0  0  0  0  0  0  0
   -0.5256    1.4217    2.5712 C   0  0  0  0  0  0  0  0  0  0  0  0
    0.6305    2.1702    2.9014 C   0  0  0  0  0  0  0  0  0  0  0  0
    0.5480    3.2676    2.9351 H   0  0  0  0  0  0  0  0  0  0  0  0
    1.8617    1.5638    3.1805 C   0  0  0  0  0  0  0  0  0  0  0  0
    2.7392    2.1749    3.4426 H   0  0  0  0  0  0  0  0  0  0  0  0
    1.9581    0.1634    3.1267 C   0  0  0  0  0  0  0  0  0  0  0  0
    2.9161   -0.3378    3.3372 H   0  0  0  0  0  0  0  0  0  0  0  0
    0.8301   -0.5994    2.8072 C   0  0  0  0  0  0  0  0  0  0  0  0
    0.9095   -1.6971    2.7633 H   0  0  0  0  0  0  0  0  0  0  0  0
   -1.8279    2.2611    2.2849 B   0  0  0  0  0  0  0  0  0  0  0  0
   -1.6566    3.5266    1.7601 O   0  0  0  0  0  0  0  0  0  0  0  0
   -2.5223    3.9647    1.6587 H   0  0  0  0  0  0  0  0  0  0  0  0
   -3.1243    1.8731    2.5416 O   0  0  0  0  0  0  0  0  0  0  0  0
   -3.1656    0.9704    2.9065 H   0  0  0  0  0  0  0  0  0  0  0  0
  1  4  1  0  0  0  0
  1  2  1  0  0  0  0
  1  3  1  0  0  0  0
  4  5  2  0  0  0  0
  4 12  1  0  0  0  0
  5  6  1  0  0  0  0
  6  7  1  0  0  0  0
  6  8  2  0  0  0  0
  8  9  1  0  0  0  0
 10  8  1  0  0  0  0
 10 11  1  0  0  0  0
 12 10  2  0  0  0  0
 13 12  1  0  0  0  0
 14 17  1  0  0  0  0
 14  5  1  0  0  0  0
 15 14  1  0  0  0  0
 16 15  1  0  0  0  0
 17 18  1  0  0  0  0
M  END
