7
q = -1.0

 22 22  0  0  1  0  0  0  0  0999 V2000
   -4.9029    1.2757   -0.4444 C   0  0  0  0  0  0  0  0  0  0  0  0
   -6.1750    1.5231   -0.9798 C   0  0  0  0  0  0  0  0  0  0  0  0
   -7.2833    0.7807   -0.5399 C   0  0  0  0  0  0  0  0  0  0  0  0
   -7.1050   -0.2086    0.4395 C   0  0  0  0  0  0  0  0  0  0  0  0
   -5.8291   -0.4525    0.9713 C   0  0  0  0  0  0  0  0  0  0  0  0
   -4.7065    0.2842    0.5407 C   0  0  0  0  0  0  0  0  0  0  0  0
   -1.0507   -1.0785    0.7290 C   0  0  0  0  0  3  0  0  0  0  0  0
   -0.9930   -1.2069    1.9610 O   0  0  0  0  0  0  0  0  0  0  0  0
   -2.4323   -0.7873    0.0936 C   0  0  2  0  0  0  0  0  0  0  0  0
   -3.3278   -0.0037    1.0803 C   0  0  0  0  0  0  0  0  0  0  0  0
   -3.0543   -2.1256   -0.3375 C   0  0  0  0  0  0  0  0  0  0  0  0
   -4.0369    1.8622   -0.7879 H   0  0  0  0  0  0  0  0  0  0  0  0
   -6.3043    2.3037   -1.7459 H   0  0  0  0  0  0  0  0  0  0  0  0
   -8.2830    0.9746   -0.9580 H   0  0  0  0  0  0  0  0  0  0  0  0
   -7.9668   -0.7954    0.7938 H   0  0  0  0  0  0  0  0  0  0  0  0
   -5.6940   -1.2299    1.7403 H   0  0  0  0  0  0  0  0  0  0  0  0
   -2.2736   -0.1725   -0.8166 H   0  0  0  0  0  0  0  0  0  0  0  0
   -3.3892   -0.5837    2.0226 H   0  0  0  0  0  0  0  0  0  0  0  0
   -2.8130    0.9479    1.3284 H   0  0  0  0  0  0  0  0  0  0  0  0
   -4.0338   -1.9671   -0.8309 H   0  0  0  0  0  0  0  0  0  0  0  0
   -3.2165   -2.7798    0.5449 H   0  0  0  0  0  0  0  0  0  0  0  0
   -2.3887   -2.6596   -1.0448 H   0  0  0  0  0  0  0  0  0  0  0  0
  1  6  1  0  0  0  0
  2  3  1  0  0  0  0
  2  1  2  0  0  0  0
  3  4  2  0  0  0  0
  4 15  1  0  0  0  0
  4  5  1  0  0  0  0
  5 16  1  0  0  0  0
  6  5  2  0  0  0  0
  6 10  1  0  0  0  0
  7  8  2  0  0  0  0
  9 17  1  6  0  0  0
  9  7  1  0  0  0  0
  9 10  1  0  0  0  0
 10 19  1  0  0  0  0
 10 18  1  0  0  0  0
 11  9  1  0  0  0  0
 11 21  1  0  0  0  0
 12  1  1  0  0  0  0
 13  2  1  0  0  0  0
 14  3  1  0  0  0  0
 20 11  1  0  0  0  0
 22 11  1  0  0  0  0
M  END
