16
q = 0.0, confidence = 0.972

 22 21  0  0  1  0  0  0  0  0999 V2000
    2.1669    1.1508    0.5132 O   0  0  0  0  0  0  0  0  0  0  0  0
   -0.5095   -1.6979   -1.3476 C   0  0  0  0  0  3  0  0  0  0  0  0
   -0.5026   -2.7531   -1.0335 H   0  0  0  0  0  0  0  0  0  0  0  0
   -0.9102   -1.5166   -2.3565 H   0  0  0  0  0  0  0  0  0  0  0  0
    1.2646    1.4926   -0.2320 C   0  0  0  0  0  0  0  0  0  0  0  0
    1.5496   -2.0908    1.0045 O   0  0  0  0  0  0  0  0  0  0  0  0
   -0.8051    0.9790   -1.7055 C   0  0  0  0  0  3  0  0  0  0  0  0
   -1.0922    0.4646   -2.6354 H   0  0  0  0  0  0  0  0  0  0  0  0
   -1.0579    2.0476   -1.6681 H   0  0  0  0  0  0  0  0  0  0  0  0
    2.8144   -1.3341   -0.7280 O   0  0  0  0  0  0  0  0  0  0  0  0
    0.9189    2.7820   -0.4490 O   0  0  0  0  0  0  0  0  0  0  0  0
    1.6319    3.7465    0.3357 C   0  0  0  0  0  0  0  0  0  0  0  0
    1.2658    4.7358    0.0100 H   0  0  0  0  0  0  0  0  0  0  0  0
    2.7240    3.6588    0.1706 H   0  0  0  0  0  0  0  0  0  0  0  0
    1.4267    3.5953    1.4149 H   0  0  0  0  0  0  0  0  0  0  0  0
    0.3760    0.5577   -1.0002 C   0  0  2  0  0  3  0  0  0  0  0  0
    0.5317   -0.8592   -0.8207 C   0  0  1  0  0  3  0  0  0  0  0  0
    3.9936   -1.7921   -0.0534 C   0  0  0  0  0  0  0  0  0  0  0  0
    4.8140   -1.7265   -0.7896 H   0  0  0  0  0  0  0  0  0  0  0  0
    3.8681   -2.8327    0.3055 H   0  0  0  0  0  0  0  0  0  0  0  0
    4.2025   -1.1356    0.8154 H   0  0  0  0  0  0  0  0  0  0  0  0
    1.6672   -1.4734   -0.0355 C   0  0  0  0  0  0  0  0  0  0  0  0
  2  3  1  0  0  0  0
  4  2  1  0  0  0  0
  5  1  2  0  0  0  0
  7  9  1  0  0  0  0
  8  7  1  0  0  0  0
 10 18  1  0  0  0  0
 10 22  1  0  0  0  0
 11  5  1  0  0  0  0
 11 12  1  0  0  0  0
 12 15  1  0  0  0  0
 13 12  1  0  0  0  0
 14 12  1  0  0  0  0
 16  7  1  1  0  0  0
 16 17  1  0  0  0  0
 16  5  1  0  0  0  0
 17  2  1  1  0  0  0
 17 22  1  0  0  0  0
 18 20  1  0  0  0  0
 18 21  1  0  0  0  0
 19 18  1  0  0  0  0
 22  6  2  0  0  0  0
M  END
