2
q = -1.0, confidence = 0.0

 25 25  0  0  0  0  0  0  0  0999 V2000
    1.2672    0.4665   -0.1547 C   0  0  0  0  0  0  0  0  0  0  0  0
    0.4459    1.1770    0.7715 C   0  0  0  0  0  3  0  0  0  0  0  0
    0.6458    1.3235    1.8392 H   0  0  0  0  0  0  0  0  0  0  0  0
   -0.6999    1.7148    0.0592 C   0  0  0  0  0  0  0  0  0  0  0  0
   -0.5826    1.3253   -1.3329 C   0  0  0  0  0  0  0  0  0  0  0  0
    0.6203    0.5547   -1.4511 C   0  0  0  0  0  0  0  0  0  0  0  0
    1.0050    0.1264   -2.3851 H   0  0  0  0  0  0  0  0  0  0  0  0
    2.6092   -0.1496    0.1239 C   0  0  0  0  0  0  0  0  0  0  0  0
    2.7381   -1.0775   -0.4681 H   0  0  0  0  0  0  0  0  0  0  0  0
    2.6738   -0.4574    1.1859 H   0  0  0  0  0  0  0  0  0  0  0  0
    3.7530    0.8198   -0.1961 C   0  0  0  0  0  0  0  0  0  0  0  0
    3.7389    1.1342   -1.2615 H   0  0  0  0  0  0  0  0  0  0  0  0
    3.6558    1.7638    0.3824 H   0  0  0  0  0  0  0  0  0  0  0  0
    5.1154    0.2277    0.1053 C   0  0  0  0  0  0  0  0  0  0  0  0
   -1.7915    2.5251    0.6416 C   0  0  0  0  0  0  0  0  0  0  0  0
   -1.4933    1.7202   -2.4551 C   0  0  0  0  0  0  0  0  0  0  0  0
   -2.5427    1.7868   -2.1184 H   0  0  0  0  0  0  0  0  0  0  0  0
   -1.4111    1.0113   -3.3004 H   0  0  0  0  0  0  0  0  0  0  0  0
   -1.2112    2.7300   -2.8196 H   0  0  0  0  0  0  0  0  0  0  0  0
    5.3156   -0.8650    0.5990 O   0  0  0  0  0  0  0  0  0  0  0  0
    6.1130    1.0784   -0.2422 O   0  0  0  0  0  0  0  0  0  0  0  0
    6.9473    0.6170   -0.0057 H   0  0  0  0  0  0  0  0  0  0  0  0
   -2.7123    3.0290    0.0192 O   0  0  0  0  0  0  0  0  0  0  0  0
   -1.6476    2.6616    1.9872 O   0  0  0  0  0  0  0  0  0  0  0  0
   -2.4193    3.1932    2.2782 H   0  0  0  0  0  0  0  0  0  0  0  0
  1  8  1  0  0  0  0
  1  2  1  0  0  0  0
  2  3  1  0  0  0  0
  4 15  1  0  0  0  0
  4  2  1  0  0  0  0
  5  4  2  0  0  0  0
  6  5  1  0  0  0  0
  6  1  2  0  0  0  0
  7  6  1  0  0  0  0
  8 10  1  0  0  0  0
  9  8  1  0  0  0  0
 11 14  1  0  0  0  0
 11  8  1  0  0  0  0
 11 13  1  0  0  0  0
 12 11  1  0  0  0  0
 14 20  2  0  0  0  0
 15 24  1  0  0  0  0
 16 17  1  0  0  0  0
 16  5  1  0  0  0  0
 18 16  1  0  0  0  0
 19 16  1  0  0  0  0
 21 22  1  0  0  0  0
 21 14  1  0  0  0  0
 23 15  2  0  0  0  0
 24 25  1  0  0  0  0
M  END
