11
q = -1.0

 22 23  0  0  0  0  0  0  0  0999 V2000
    1.2721    1.1382    0.8716 N   0  0  0  0  0  0  0  0  0  0  0  0
    1.5707    2.4243    0.9976 C   0  0  0  0  0  0  0  0  0  0  0  0
    2.7816    2.9962    0.5252 C   0  0  0  0  0  0  0  0  0  0  0  0
    3.6850    2.1783   -0.1355 C   0  0  0  0  0  0  0  0  0  0  0  0
    3.3940    0.7956   -0.3058 C   0  0  0  0  0  0  0  0  0  0  0  0
    4.2581   -0.1002   -0.9997 C   0  0  0  0  0  0  0  0  0  0  0  0
    3.8959   -1.4295   -1.1396 C   0  0  0  0  0  0  0  0  0  0  0  0
    2.6872   -1.9191   -0.5766 C   0  0  0  0  0  0  0  0  0  0  0  0
    1.8141   -1.0932    0.1340 C   0  0  0  0  0  0  0  0  0  0  0  0
    2.1587    0.3062    0.2514 C   0  0  0  0  0  0  0  0  0  0  0  0
    0.5709   -1.6049    0.7972 C   0  0  0  0  0  3  0  0  0  0  0  0
    0.3042   -3.1011    0.6851 C   0  0  0  0  0  0  0  0  0  0  0  0
    0.8118    3.0614    1.4858 H   0  0  0  0  0  0  0  0  0  0  0  0
    2.9761    4.0692    0.6676 H   0  0  0  0  0  0  0  0  0  0  0  0
    4.6256    2.5827   -0.5421 H   0  0  0  0  0  0  0  0  0  0  0  0
    5.2021    0.2801   -1.4193 H   0  0  0  0  0  0  0  0  0  0  0  0
    4.5532   -2.1257   -1.6822 H   0  0  0  0  0  0  0  0  0  0  0  0
    2.4493   -2.9856   -0.6940 H   0  0  0  0  0  0  0  0  0  0  0  0
    0.5900   -1.2873    1.8611 H   0  0  0  0  0  0  0  0  0  0  0  0
   -0.6115   -3.3867    1.2377 H   0  0  0  0  0  0  0  0  0  0  0  0
    0.1749   -3.4313   -0.3655 H   0  0  0  0  0  0  0  0  0  0  0  0
    1.1453   -3.6882    1.1163 H   0  0  0  0  0  0  0  0  0  0  0  0
  1  2  1  0  0  0  0
  2 13  1  0  0  0  0
  3 14  1  0  0  0  0
  3  2  2  0  0  0  0
  4  3  1  0  0  0  0
  5  4  2  0  0  0  0
  5 10  1  0  0  0  0
  6  5  1  0  0  0  0
  7  6  2  0  0  0  0
  7  8  1  0  0  0  0
  8  9  2  0  0  0  0
  9 10  1  0  0  0  0
  9 11  1  0  0  0  0
 10  1  2  0  0  0  0
 11 19  1  0  0  0  0
 12 11  1  0  0  0  0
 12 22  1  0  0  0  0
 12 20  1  0  0  0  0
 15  4  1  0  0  0  0
 16  6  1  0  0  0  0
 17  7  1  0  0  0  0
 18  8  1  0  0  0  0
 21 12  1  0  0  0  0
M  END
