2
q = -1.0, confidence = 0.0

 45 48  0  0  1  0  0  0  0  0999 V2000
    0.3895    1.0109   -0.0757 As  0  0  0  0  0  0  0  0  0  0  0  0
   -1.3241   -1.2225   -0.1567 C   0  0  0  0  0  3  0  0  0  0  0  0
   -2.0607   -2.3570    0.2996 C   0  0  0  0  0  0  0  0  0  0  0  0
   -1.5058   -3.2225    0.6893 H   0  0  0  0  0  0  0  0  0  0  0  0
   -3.4436   -2.3868    0.2371 C   0  0  0  0  0  0  0  0  0  0  0  0
   -3.9967   -3.2689    0.5985 H   0  0  0  0  0  0  0  0  0  0  0  0
   -4.1801   -1.2909   -0.2979 C   0  0  0  0  0  0  0  0  0  0  0  0
   -5.6030   -1.3093   -0.3712 C   0  0  0  0  0  0  0  0  0  0  0  0
   -6.1344   -2.1981    0.0047 H   0  0  0  0  0  0  0  0  0  0  0  0
   -6.3091   -0.2407   -0.9035 C   0  0  0  0  0  0  0  0  0  0  0  0
   -7.4080   -0.2707   -0.9548 H   0  0  0  0  0  0  0  0  0  0  0  0
   -5.6072    0.8942   -1.3864 C   0  0  0  0  0  0  0  0  0  0  0  0
   -6.1656    1.7420   -1.8123 H   0  0  0  0  0  0  0  0  0  0  0  0
   -4.2210    0.9432   -1.3275 C   0  0  0  0  0  0  0  0  0  0  0  0
   -3.7018    1.8323   -1.7130 H   0  0  0  0  0  0  0  0  0  0  0  0
   -3.4595   -0.1363   -0.7816 C   0  0  0  0  0  0  0  0  0  0  0  0
   -2.0222   -0.1177   -0.6893 C   0  0  0  0  0  0  0  0  0  0  0  0
   -1.2478    1.0858   -1.1933 C   0  0  2  0  0  0  0  0  0  0  0  0
   -1.7752    2.0356   -0.9699 H   0  0  0  0  0  0  0  0  0  0  0  0
   -0.8978    0.9990   -2.6843 C   0  0  0  0  0  0  0  0  0  0  0  0
   -0.2908    0.0933   -2.8878 H   0  0  0  0  0  0  0  0  0  0  0  0
   -0.3325    1.8864   -3.0330 H   0  0  0  0  0  0  0  0  0  0  0  0
   -1.8276    0.9182   -3.2837 H   0  0  0  0  0  0  0  0  0  0  0  0
    1.7277    2.1707   -0.8745 C   0  0  0  0  0  0  0  0  0  0  0  0
    3.0462    1.6939   -1.0053 C   0  0  0  0  0  0  0  0  0  0  0  0
    3.2946    0.6820   -0.6444 H   0  0  0  0  0  0  0  0  0  0  0  0
    4.0229    2.5173   -1.5898 C   0  0  0  0  0  0  0  0  0  0  0  0
    5.0553    2.1490   -1.6920 H   0  0  0  0  0  0  0  0  0  0  0  0
    3.6872    3.8021   -2.0445 C   0  0  0  0  0  0  0  0  0  0  0  0
    4.4554    4.4418   -2.5053 H   0  0  0  0  0  0  0  0  0  0  0  0
    2.3703    4.2748   -1.9127 C   0  0  0  0  0  0  0  0  0  0  0  0
    2.1063    5.2824   -2.2685 H   0  0  0  0  0  0  0  0  0  0  0  0
    1.3887    3.4622   -1.3259 C   0  0  0  0  0  0  0  0  0  0  0  0
    0.3593    3.8387   -1.2154 H   0  0  0  0  0  0  0  0  0  0  0  0
   -0.1149    1.9420    1.5630 C   0  0  0  0  0  0  0  0  0  0  0  0
    0.6188    3.0477    2.0319 C   0  0  0  0  0  0  0  0  0  0  0  0
    1.4940    3.4102    1.4720 H   0  0  0  0  0  0  0  0  0  0  0  0
    0.2318    3.6913    3.2187 C   0  0  0  0  0  0  0  0  0  0  0  0
    0.8097    4.5547    3.5827 H   0  0  0  0  0  0  0  0  0  0  0  0
   -0.8846    3.2366    3.9368 C   0  0  0  0  0  0  0  0  0  0  0  0
   -1.1866    3.7437    4.8658 H   0  0  0  0  0  0  0  0  0  0  0  0
   -1.6118    2.1282    3.4718 C   0  0  0  0  0  0  0  0  0  0  0  0
   -2.4846    1.7635    4.0344 H   0  0  0  0  0  0  0  0  0  0  0  0
   -1.2265    1.4729    2.2932 C   0  0  0  0  0  0  0  0  0  0  0  0
   -1.7883    0.5943    1.9409 H   0  0  0  0  0  0  0  0  0  0  0  0
  1 35  1  0  0  0  0
  2  3  1  0  0  0  0
  3  4  1  0  0  0  0
  5  3  2  0  0  0  0
  5  6  1  0  0  0  0
  7  5  1  0  0  0  0
  8  7  1  0  0  0  0
  8  9  1  0  0  0  0
 10  8  2  0  0  0  0
 11 10  1  0  0  0  0
 12 14  2  0  0  0  0
 12 10  1  0  0  0  0
 13 12  1  0  0  0  0
 14 16  1  0  0  0  0
 15 14  1  0  0  0  0
 16 17  1  0  0  0  0
 16  7  2  0  0  0  0
 17  2  2  0  0  0  0
 18 19  1  1  0  0  0
 18 17  1  0  0  0  0
 18  1  1  0  0  0  0
 20 18  1  0  0  0  0
 21 20  1  0  0  0  0
 22 20  1  0  0  0  0
 23 20  1  0  0  0  0
 24  1  1  0  0  0  0
 25 24  1  0  0  0  0
 25 26  1  0  0  0  0
 27 25  2  0  0  0  0
 28 27  1  0  0  0  0
 29 31  2  0  0  0  0
 29 27  1  0  0  0  0
 30 29  1  0  0  0  0
 31 33  1  0  0  0  0
 32 31  1  0  0  0  0
 33 34  1  0  0  0  0
 33 24  2  0  0  0  0
 35 36  2  0  0  0  0
 35 44  1  0  0  0  0
 36 38  1  0  0  0  0
 37 36  1  0  0  0  0
 38 39  1  0  0  0  0
 38 40  2  0  0  0  0
 40 41  1  0  0  0  0
 42 40  1  0  0  0  0
 42 43  1  0  0  0  0
 44 42  2  0  0  0  0
 45 44  1  0  0  0  0
M  END
