3
q = -1.0

 17 16  0  0  0  0  0  0  0  0999 V2000
   -1.4414   -1.4671   -1.6361 S   0  0  0  0  0  0  0  0  0  0  0  0
   -3.4908   -0.7167    0.0344 N   0  0  0  0  0  0  0  0  0  0  0  0
   -2.2254   -0.6223   -0.3697 C   0  0  0  0  0  3  0  0  0  0  0  0
   -3.9535    0.0701    1.1842 C   0  0  0  0  0  0  0  0  0  0  0  0
   -3.8269   -0.6909    2.5012 C   0  0  0  0  0  0  0  0  0  0  0  0
   -4.4550   -1.5982   -0.6374 C   0  0  0  0  0  0  0  0  0  0  0  0
   -5.1631   -0.9070   -1.8012 C   0  0  0  0  0  0  0  0  0  0  0  0
   -3.3423    0.9938    1.2213 H   0  0  0  0  0  0  0  0  0  0  0  0
   -5.0050    0.3717    0.9919 H   0  0  0  0  0  0  0  0  0  0  0  0
   -4.1867   -0.0682    3.3445 H   0  0  0  0  0  0  0  0  0  0  0  0
   -2.7652   -0.9461    2.6897 H   0  0  0  0  0  0  0  0  0  0  0  0
   -4.4170   -1.6300    2.4924 H   0  0  0  0  0  0  0  0  0  0  0  0
   -3.8991   -2.4891   -0.9949 H   0  0  0  0  0  0  0  0  0  0  0  0
   -5.1817   -1.9487    0.1246 H   0  0  0  0  0  0  0  0  0  0  0  0
   -5.8879   -1.5962   -2.2791 H   0  0  0  0  0  0  0  0  0  0  0  0
   -4.4253   -0.5941   -2.5664 H   0  0  0  0  0  0  0  0  0  0  0  0
   -5.7177   -0.0080   -1.4636 H   0  0  0  0  0  0  0  0  0  0  0  0
  1  3  2  0  0  0  0
  2  4  1  0  0  0  0
  3  2  1  0  0  0  0
  4  8  1  0  0  0  0
  4  5  1  0  0  0  0
  5 11  1  0  0  0  0
  5 10  1  0  0  0  0
  6  2  1  0  0  0  0
  6 14  1  0  0  0  0
  7 17  1  0  0  0  0
  7  6  1  0  0  0  0
  9  4  1  0  0  0  0
 12  5  1  0  0  0  0
 13  6  1  0  0  0  0
 15  7  1  0  0  0  0
 16  7  1  0  0  0  0
M  END
