25
q = -1.0, confidence = 0.004

 26 28  0  0  0  0  0  0  0  0999 V2000
    6.7859   -1.3833   -0.0437 N   0  0  0  0  0  0  0  0  0  0  0  0
    2.6218   -0.8531   -0.0160 C   0  0  0  0  0  0  0  0  0  0  0  0
    3.5454    0.2228   -0.0017 C   0  0  0  0  0  0  0  0  0  0  0  0
    3.1670    1.2553    0.0148 H   0  0  0  0  0  0  0  0  0  0  0  0
    4.9229   -0.0347   -0.0057 C   0  0  0  0  0  0  0  0  0  0  0  0
    5.3944   -1.3866   -0.0296 C   0  0  0  0  0  0  0  0  0  0  0  0
    4.4977   -2.4705   -0.0357 C   0  0  0  0  0  0  0  0  0  0  0  0
    4.8521   -3.5116   -0.0377 H   0  0  0  0  0  0  0  0  0  0  0  0
    3.1296   -2.1912   -0.0315 C   0  0  0  0  0  0  0  0  0  0  0  0
    2.4046   -3.0179   -0.0362 H   0  0  0  0  0  0  0  0  0  0  0  0
    6.1025    0.8116    0.0119 C   0  0  0  0  0  0  0  0  0  0  0  0
    6.3069    2.2023    0.0401 C   0  0  0  0  0  0  0  0  0  0  0  0
    5.4464    2.8886    0.0495 H   0  0  0  0  0  0  0  0  0  0  0  0
    7.6169    2.7004    0.0587 C   0  0  0  0  0  0  0  0  0  0  0  0
    7.7891    3.7868    0.0824 H   0  0  0  0  0  0  0  0  0  0  0  0
    8.7225    1.8211    0.0521 C   0  0  0  0  0  0  0  0  0  0  0  0
    9.7426    2.2337    0.0734 H   0  0  0  0  0  0  0  0  0  0  0  0
    8.5496    0.4294    0.0247 C   0  0  0  0  0  0  0  0  0  0  0  0
    9.4186   -0.2444    0.0303 H   0  0  0  0  0  0  0  0  0  0  0  0
    7.2347   -0.0656   -0.0023 C   0  0  0  0  0  0  0  0  0  0  0  0
    7.6295   -2.5536   -0.0308 C   0  0  0  0  0  0  0  0  0  0  0  0
    7.1151   -3.3923   -0.5377 H   0  0  0  0  0  0  0  0  0  0  0  0
    7.8934   -2.8744    1.0015 H   0  0  0  0  0  0  0  0  0  0  0  0
    8.5666   -2.3495   -0.5847 H   0  0  0  0  0  0  0  0  0  0  0  0
   -0.0181   -0.4547   -0.0072 C   0  0  0  0  0  3  0  0  0  0  0  0
    1.2177   -0.6198   -0.0110 C   0  0  0  0  0  0  0  0  0  0  0  0
  1 21  1  0  0  0  0
  1  6  1  0  0  0  0
  1 20  1  0  0  0  0
  2 26  1  0  0  0  0
  2  3  1  0  0  0  0
  3  4  1  0  0  0  0
  5  3  2  0  0  0  0
  5 11  1  0  0  0  0
  6  5  1  0  0  0  0
  7  9  1  0  0  0  0
  7  6  2  0  0  0  0
  8  7  1  0  0  0  0
  9  2  2  0  0  0  0
 10  9  1  0  0  0  0
 11 12  1  0  0  0  0
 12 13  1  0  0  0  0
 12 14  2  0  0  0  0
 14 15  1  0  0  0  0
 16 14  1  0  0  0  0
 16 17  1  0  0  0  0
 18 19  1  0  0  0  0
 18 16  2  0  0  0  0
 20 11  2  0  0  0  0
 20 18  1  0  0  0  0
 21 23  1  0  0  0  0
 22 21  1  0  0  0  0
 24 21  1  0  0  0  0
 26 25  3  0  0  0  0
M  END
