2
q = 0.0, confidence = 0.996

 13 13  0  0  0  0  0  0  0  0999 V2000
   -2.2751   -0.4311   -0.6979 N   0  0  0  0  0  2  0  0  0  0  0  0
   -1.1223   -0.7071   -0.6099 C   0  0  0  0  0  1  0  0  0  0  0  0
   -3.5409    0.0503   -0.4416 C   0  0  0  0  0  0  0  0  0  0  0  0
   -4.5815   -0.1392   -1.3741 C   0  0  0  0  0  0  0  0  0  0  0  0
   -5.8567    0.3619   -1.0838 C   0  0  0  0  0  0  0  0  0  0  0  0
   -6.0944    1.0439    0.1209 C   0  0  0  0  0  0  0  0  0  0  0  0
   -5.0502    1.2277    1.0441 C   0  0  0  0  0  0  0  0  0  0  0  0
   -3.7688    0.7354    0.7740 C   0  0  0  0  0  0  0  0  0  0  0  0
   -4.3763   -0.6761   -2.3107 H   0  0  0  0  0  0  0  0  0  0  0  0
   -6.6732    0.2168   -1.8066 H   0  0  0  0  0  0  0  0  0  0  0  0
   -7.0991    1.4336    0.3424 H   0  0  0  0  0  0  0  0  0  0  0  0
   -5.2356    1.7603    1.9889 H   0  0  0  0  0  0  0  0  0  0  0  0
   -2.9295    0.8611    1.4754 H   0  0  0  0  0  0  0  0  0  0  0  0
  1  2  1  0  0  0  0
  1  3  1  0  0  0  0
  3  8  1  0  0  0  0
  4  5  1  0  0  0  0
  4  3  2  0  0  0  0
  5  6  2  0  0  0  0
  6 11  1  0  0  0  0
  6  7  1  0  0  0  0
  7 12  1  0  0  0  0
  8  7  2  0  0  0  0
  8 13  1  0  0  0  0
  9  4  1  0  0  0  0
 10  5  1  0  0  0  0
M  END
