3
q = -1.0, confidence = 0.0

 14 15  0  0  0  0  0  0  0  0999 V2000
   -3.5036    1.4192   -0.0001 S   0  0  0  0  0  0  0  0  0  0  0  0
   -6.3300    1.1249   -0.0001 C   0  0  0  0  0  0  0  0  0  0  0  0
   -2.5726   -0.0799    0.0000 C   0  0  0  0  0  3  0  0  0  0  0  0
   -3.4237   -1.1748    0.0000 C   0  0  0  0  0  0  0  0  0  0  0  0
   -4.8240   -0.8427   -0.0000 C   0  0  0  0  0  0  0  0  0  0  0  0
   -5.0360    0.5729   -0.0001 C   0  0  0  0  0  0  0  0  0  0  0  0
   -7.4270    0.2566   -0.0002 C   0  0  0  0  0  0  0  0  0  0  0  0
   -7.2396   -1.1464   -0.0001 C   0  0  0  0  0  0  0  0  0  0  0  0
   -5.9559   -1.6950   -0.0001 C   0  0  0  0  0  0  0  0  0  0  0  0
   -6.4753    2.2156   -0.0002 H   0  0  0  0  0  0  0  0  0  0  0  0
   -3.0605   -2.2124    0.0000 H   0  0  0  0  0  0  0  0  0  0  0  0
   -8.4468    0.6707   -0.0002 H   0  0  0  0  0  0  0  0  0  0  0  0
   -8.1177   -1.8100   -0.0001 H   0  0  0  0  0  0  0  0  0  0  0  0
   -5.8134   -2.7869   -0.0000 H   0  0  0  0  0  0  0  0  0  0  0  0
  1  3  1  0  0  0  0
  2  6  1  0  0  0  0
  4  3  2  0  0  0  0
  4 11  1  0  0  0  0
  5  4  1  0  0  0  0
  6  1  1  0  0  0  0
  6  5  2  0  0  0  0
  7  2  2  0  0  0  0
  7  8  1  0  0  0  0
  8  9  2  0  0  0  0
  9  5  1  0  0  0  0
  9 14  1  0  0  0  0
 10  2  1  0  0  0  0
 12  7  1  0  0  0  0
 13  8  1  0  0  0  0
M  END
