4
q = -1.0, confidence = 0.0

 27 28  0  0  1  0  0  0  0  0999 V2000
    0.8530   -0.8392   -0.4939 C   0  0  1  0  0  3  0  0  0  0  0  0
    0.1342   -0.2426   -1.5654 C   0  0  0  0  0  3  0  0  0  0  0  0
    0.6690    0.3918   -2.2874 H   0  0  0  0  0  0  0  0  0  0  0  0
   -1.2812   -0.3887   -1.7295 C   0  0  0  0  0  3  0  0  0  0  0  0
   -1.8061    0.0239   -2.6016 H   0  0  0  0  0  0  0  0  0  0  0  0
   -2.0137   -1.1376   -0.7442 C   0  0  1  0  0  3  0  0  0  0  0  0
   -1.2764   -1.5204    0.4198 C   0  0  0  0  0  3  0  0  0  0  0  0
   -1.8338   -1.8899    1.2929 H   0  0  0  0  0  0  0  0  0  0  0  0
    0.1606   -1.9713    0.2492 C   0  0  0  0  0  0  0  0  0  0  0  0
    0.2603   -2.9406   -0.2920 H   0  0  0  0  0  0  0  0  0  0  0  0
    0.6149   -2.1101    1.2468 H   0  0  0  0  0  0  0  0  0  0  0  0
   -3.3255   -1.2340   -0.9250 O   0  0  0  0  0  0  0  0  0  0  0  0
   -4.1402   -1.8689    0.0747 C   0  0  0  0  0  0  0  0  0  0  0  0
   -5.1488   -1.9446   -0.3667 H   0  0  0  0  0  0  0  0  0  0  0  0
   -4.1880   -1.2482    0.9932 H   0  0  0  0  0  0  0  0  0  0  0  0
   -3.7584   -2.8818    0.3144 H   0  0  0  0  0  0  0  0  0  0  0  0
    2.2842   -0.5677   -0.2889 C   0  0  0  0  0  0  0  0  0  0  0  0
    3.0910   -1.5059    0.4020 C   0  0  0  0  0  0  0  0  0  0  0  0
    2.6525   -2.4315    0.8005 H   0  0  0  0  0  0  0  0  0  0  0  0
    4.4654   -1.2891    0.5597 C   0  0  0  0  0  0  0  0  0  0  0  0
    5.0773   -2.0365    1.0856 H   0  0  0  0  0  0  0  0  0  0  0  0
    5.0576   -0.1231    0.0522 C   0  0  0  0  0  0  0  0  0  0  0  0
    6.1353    0.0524    0.1865 H   0  0  0  0  0  0  0  0  0  0  0  0
    4.2681    0.8267   -0.6219 C   0  0  0  0  0  0  0  0  0  0  0  0
    4.7255    1.7485   -1.0100 H   0  0  0  0  0  0  0  0  0  0  0  0
    2.8995    0.6077   -0.7921 C   0  0  0  0  0  0  0  0  0  0  0  0
    2.3022    1.3785   -1.3007 H   0  0  0  0  0  0  0  0  0  0  0  0
  1 17  1  6  0  0  0
  1  9  1  0  0  0  0
  2  1  1  0  0  0  0
  3  2  1  0  0  0  0
  4  2  1  0  0  0  0
  4  6  1  0  0  0  0
  5  4  1  0  0  0  0
  6 12  1  1  0  0  0
  6  7  1  0  0  0  0
  7  8  1  0  0  0  0
  9  7  1  0  0  0  0
  9 11  1  0  0  0  0
 10  9  1  0  0  0  0
 12 13  1  0  0  0  0
 13 16  1  0  0  0  0
 13 15  1  0  0  0  0
 14 13  1  0  0  0  0
 17 18  1  0  0  0  0
 18 20  2  0  0  0  0
 18 19  1  0  0  0  0
 20 21  1  0  0  0  0
 22 23  1  0  0  0  0
 22 20  1  0  0  0  0
 24 22  2  0  0  0  0
 25 24  1  0  0  0  0
 26 24  1  0  0  0  0
 26 17  2  0  0  0  0
 27 26  1  0  0  0  0
M  END
