3
q = -1.0, confidence = 0.014

 71 77  0  0  1  0  0  0  0  0999 V2000
    2.9101    0.2179    1.3553 N   0  0  0  0  0  0  0  0  0  0  0  0
    0.7623   -1.3492    0.5266 C   0  0  1  0  0  3  0  0  0  0  0  0
    1.2929   -2.6764    0.3859 C   0  0  0  0  0  3  0  0  0  0  0  0
    1.6838   -3.0253   -0.9571 C   0  0  0  0  0  3  0  0  0  0  0  0
    0.9152   -2.4742   -2.0770 C   0  0  0  0  0  0  0  0  0  0  0  0
    0.0207   -1.4694   -1.9022 C   0  0  0  0  0  0  0  0  0  0  0  0
   -0.1963   -0.8122   -0.5484 C   0  0  1  0  0  0  0  0  0  0  0  0
    0.6948   -0.6802    1.8984 C   0  0  0  0  0  0  0  0  0  0  0  0
    1.7774    0.3634    2.0977 C   0  0  0  0  0  0  0  0  0  0  0  0
    1.6683    1.4135    3.0217 C   0  0  0  0  0  0  0  0  0  0  0  0
    2.7412    2.3014    3.1852 C   0  0  0  0  0  0  0  0  0  0  0  0
    3.8975    2.1284    2.4124 C   0  0  0  0  0  0  0  0  0  0  0  0
    3.9403    1.0711    1.4961 C   0  0  0  0  0  0  0  0  0  0  0  0
   -1.6524   -1.1127   -0.1402 C   0  0  0  0  0  0  0  0  0  0  0  0
   -2.3644    0.0633   -0.1054 C   0  0  0  0  0  0  0  0  0  0  0  0
   -1.4616    1.1934   -0.4228 C   0  0  0  0  0  0  0  0  0  0  0  0
   -0.1889    0.7180   -0.6632 C   0  0  0  0  0  0  0  0  0  0  0  0
   -2.1920   -2.4840   -0.0306 C   0  0  0  0  0  0  0  0  0  0  0  0
   -1.7964   -3.3683    0.9980 C   0  0  0  0  0  0  0  0  0  0  0  0
   -2.3316   -4.6623    1.0780 C   0  0  0  0  0  0  0  0  0  0  0  0
   -3.2706   -5.0982    0.1307 C   0  0  0  0  0  0  0  0  0  0  0  0
   -3.6776   -4.2281   -0.8935 C   0  0  0  0  0  0  0  0  0  0  0  0
   -3.1446   -2.9352   -0.9728 C   0  0  0  0  0  0  0  0  0  0  0  0
   -3.8162    0.1821    0.1476 C   0  0  0  0  0  0  0  0  0  0  0  0
   -4.4241   -0.5335    1.2043 C   0  0  0  0  0  0  0  0  0  0  0  0
   -5.8029   -0.4393    1.4337 C   0  0  0  0  0  0  0  0  0  0  0  0
   -6.6030    0.3688    0.6096 C   0  0  0  0  0  0  0  0  0  0  0  0
   -6.0122    1.0831   -0.4448 C   0  0  0  0  0  0  0  0  0  0  0  0
   -4.6321    0.9959   -0.6722 C   0  0  0  0  0  0  0  0  0  0  0  0
   -1.8997    2.6054   -0.4671 C   0  0  0  0  0  0  0  0  0  0  0  0
   -2.6172    3.1723    0.6102 C   0  0  0  0  0  0  0  0  0  0  0  0
   -3.0267    4.5125    0.5694 C   0  0  0  0  0  0  0  0  0  0  0  0
   -2.7380    5.3055   -0.5525 C   0  0  0  0  0  0  0  0  0  0  0  0
   -2.0351    4.7491   -1.6344 C   0  0  0  0  0  0  0  0  0  0  0  0
   -1.6190    3.4122   -1.5926 C   0  0  0  0  0  0  0  0  0  0  0  0
    1.0256    1.5060   -0.9240 C   0  0  0  0  0  0  0  0  0  0  0  0
    1.2494    2.7305   -0.2452 C   0  0  0  0  0  0  0  0  0  0  0  0
    2.4195    3.4664   -0.4594 C   0  0  0  0  0  0  0  0  0  0  0  0
    3.4010    2.9985   -1.3515 C   0  0  0  0  0  0  0  0  0  0  0  0
    3.2006    1.7853   -2.0240 C   0  0  0  0  0  0  0  0  0  0  0  0
    2.0271    1.0463   -1.8131 C   0  0  0  0  0  0  0  0  0  0  0  0
    1.5447   -3.3066    1.2550 H   0  0  0  0  0  0  0  0  0  0  0  0
    2.2525   -3.9519   -1.1213 H   0  0  0  0  0  0  0  0  0  0  0  0
    1.0762   -2.9002   -3.0791 H   0  0  0  0  0  0  0  0  0  0  0  0
   -0.5967   -1.0898   -2.7297 H   0  0  0  0  0  0  0  0  0  0  0  0
    0.7438    1.5280    3.6060 H   0  0  0  0  0  0  0  0  0  0  0  0
    2.6694    3.1284    3.9078 H   0  0  0  0  0  0  0  0  0  0  0  0
    4.7567    2.8077    2.5045 H   0  0  0  0  0  0  0  0  0  0  0  0
    4.8011    0.8648    0.8363 H   0  0  0  0  0  0  0  0  0  0  0  0
   -1.0845   -3.0265    1.7621 H   0  0  0  0  0  0  0  0  0  0  0  0
   -2.0161   -5.3333    1.8916 H   0  0  0  0  0  0  0  0  0  0  0  0
   -3.6885   -6.1144    0.1930 H   0  0  0  0  0  0  0  0  0  0  0  0
   -4.4164   -4.5600   -1.6389 H   0  0  0  0  0  0  0  0  0  0  0  0
   -3.4633   -2.2515   -1.7736 H   0  0  0  0  0  0  0  0  0  0  0  0
   -3.7996   -1.1664    1.8514 H   0  0  0  0  0  0  0  0  0  0  0  0
   -6.2567   -1.0017    2.2639 H   0  0  0  0  0  0  0  0  0  0  0  0
   -7.6863    0.4423    0.7898 H   0  0  0  0  0  0  0  0  0  0  0  0
   -6.6316    1.7166   -1.0978 H   0  0  0  0  0  0  0  0  0  0  0  0
   -4.1778    1.5570   -1.5014 H   0  0  0  0  0  0  0  0  0  0  0  0
   -2.8513    2.5517    1.4880 H   0  0  0  0  0  0  0  0  0  0  0  0
   -3.5804    4.9395    1.4194 H   0  0  0  0  0  0  0  0  0  0  0  0
   -3.0644    6.3560   -0.5863 H   0  0  0  0  0  0  0  0  0  0  0  0
   -1.8099    5.3627   -2.5200 H   0  0  0  0  0  0  0  0  0  0  0  0
   -1.0665    2.9757   -2.4377 H   0  0  0  0  0  0  0  0  0  0  0  0
    0.5034    3.0903    0.4766 H   0  0  0  0  0  0  0  0  0  0  0  0
    2.5752    4.4080    0.0891 H   0  0  0  0  0  0  0  0  0  0  0  0
    4.3261    3.5733   -1.5098 H   0  0  0  0  0  0  0  0  0  0  0  0
    3.9731    1.3845   -2.6953 H   0  0  0  0  0  0  0  0  0  0  0  0
    1.8740    0.1069   -2.3613 H   0  0  0  0  0  0  0  0  0  0  0  0
    0.8281   -1.4546    2.6875 H   0  0  0  0  0  0  0  0  0  0  0  0
   -0.3031   -0.2247    2.0687 H   0  0  0  0  0  0  0  0  0  0  0  0
  1 13  2  0  0  0  0
  1  9  1  0  0  0  0
  2  8  1  1  0  0  0
  3  2  1  0  0  0  0
  3 42  1  0  0  0  0
  4  3  1  0  0  0  0
  5  6  2  0  0  0  0
  5  4  1  0  0  0  0
  7  6  1  6  0  0  0
  7 14  1  0  0  0  0
  7  2  1  0  0  0  0
  8 71  1  0  0  0  0
  8  9  1  0  0  0  0
  8 70  1  0  0  0  0
  9 10  2  0  0  0  0
 10 11  1  0  0  0  0
 10 46  1  0  0  0  0
 11 47  1  0  0  0  0
 12 48  1  0  0  0  0
 12 11  2  0  0  0  0
 13 12  1  0  0  0  0
 14 15  2  0  0  0  0
 14 18  1  0  0  0  0
 15 24  1  0  0  0  0
 16 15  1  0  0  0  0
 17  7  1  0  0  0  0
 17 16  2  0  0  0  0
 18 19  1  0  0  0  0
 19 20  2  0  0  0  0
 19 50  1  0  0  0  0
 20 51  1  0  0  0  0
 21 52  1  0  0  0  0
 21 20  1  0  0  0  0
 22 21  2  0  0  0  0
 23 22  1  0  0  0  0
 23 18  2  0  0  0  0
 24 25  1  0  0  0  0
 25 26  2  0  0  0  0
 25 55  1  0  0  0  0
 26 56  1  0  0  0  0
 27 57  1  0  0  0  0
 27 26  1  0  0  0  0
 28 27  2  0  0  0  0
 29 28  1  0  0  0  0
 29 24  2  0  0  0  0
 30 16  1  0  0  0  0
 30 31  1  0  0  0  0
 31 60  1  0  0  0  0
 32 31  2  0  0  0  0
 32 61  1  0  0  0  0
 33 32  1  0  0  0  0
 34 35  1  0  0  0  0
 34 33  2  0  0  0  0
 35 30  2  0  0  0  0
 36 17  1  0  0  0  0
 36 37  1  0  0  0  0
 37 65  1  0  0  0  0
 38 37  2  0  0  0  0
 38 66  1  0  0  0  0
 39 38  1  0  0  0  0
 40 41  1  0  0  0  0
 40 39  2  0  0  0  0
 41 36  2  0  0  0  0
 43  4  1  0  0  0  0
 44  5  1  0  0  0  0
 45  6  1  0  0  0  0
 49 13  1  0  0  0  0
 53 22  1  0  0  0  0
 54 23  1  0  0  0  0
 58 28  1  0  0  0  0
 59 29  1  0  0  0  0
 62 33  1  0  0  0  0
 63 34  1  0  0  0  0
 64 35  1  0  0  0  0
 67 39  1  0  0  0  0
 68 40  1  0  0  0  0
 69 41  1  0  0  0  0
M  END
