1
q = -1.0

 48 50  0  0  0  0  0  0  0  0999 V2000
    0.8087    0.8758    0.4190 C   0  0  0  0  0  3  0  0  0  0  0  0
    1.2438    2.7312    0.5366 Si  0  0  0  0  0  0  0  0  0  0  0  0
    0.5963    3.5931   -1.0280 C   0  0  0  0  0  0  0  0  0  0  0  0
    0.3815    3.5537    2.0127 C   0  0  0  0  0  0  0  0  0  0  0  0
    3.0980    3.1411    0.6916 C   0  0  0  0  0  0  0  0  0  0  0  0
   -1.8543   -0.3668   -0.4864 P   0  0  0  0  0  0  0  0  0  0  0  0
   -1.2631   -0.3301    1.2738 C   0  0  0  0  0  0  0  0  0  0  0  0
    0.0036    0.2905    1.5359 C   0  0  0  0  0  0  0  0  0  0  0  0
    0.4261    0.3371    2.8883 C   0  0  0  0  0  0  0  0  0  0  0  0
   -0.3268   -0.2251    3.9270 C   0  0  0  0  0  0  0  0  0  0  0  0
   -1.5476   -0.8565    3.6471 C   0  0  0  0  0  0  0  0  0  0  0  0
   -2.0104   -0.8955    2.3225 C   0  0  0  0  0  0  0  0  0  0  0  0
   -2.5775    1.3316   -0.6525 C   0  0  0  0  0  0  0  0  0  0  0  0
   -2.8146    1.8083   -1.9606 C   0  0  0  0  0  0  0  0  0  0  0  0
   -3.3049    3.1053   -2.1728 C   0  0  0  0  0  0  0  0  0  0  0  0
   -3.5486    3.9519   -1.0783 C   0  0  0  0  0  0  0  0  0  0  0  0
   -3.3133    3.4886    0.2261 C   0  0  0  0  0  0  0  0  0  0  0  0
   -2.8360    2.1855    0.4395 C   0  0  0  0  0  0  0  0  0  0  0  0
   -3.3585   -1.4297   -0.3676 C   0  0  0  0  0  0  0  0  0  0  0  0
   -3.1557   -2.8279   -0.4094 C   0  0  0  0  0  0  0  0  0  0  0  0
   -4.2471   -3.7047   -0.3415 C   0  0  0  0  0  0  0  0  0  0  0  0
   -5.5556   -3.1993   -0.2537 C   0  0  0  0  0  0  0  0  0  0  0  0
   -5.7650   -1.8118   -0.2268 C   0  0  0  0  0  0  0  0  0  0  0  0
   -4.6735   -0.9296   -0.2788 C   0  0  0  0  0  0  0  0  0  0  0  0
    1.0776    3.2340   -1.9595 H   0  0  0  0  0  0  0  0  0  0  0  0
   -0.4971    3.4375   -1.1303 H   0  0  0  0  0  0  0  0  0  0  0  0
    0.7784    4.6859   -0.9607 H   0  0  0  0  0  0  0  0  0  0  0  0
   -0.7105    3.3700    1.9798 H   0  0  0  0  0  0  0  0  0  0  0  0
    0.7556    3.1884    2.9892 H   0  0  0  0  0  0  0  0  0  0  0  0
    0.5481    4.6504    1.9714 H   0  0  0  0  0  0  0  0  0  0  0  0
    3.5183    2.8419    1.6733 H   0  0  0  0  0  0  0  0  0  0  0  0
    3.7101    2.6616   -0.0983 H   0  0  0  0  0  0  0  0  0  0  0  0
    3.2336    4.2391    0.6011 H   0  0  0  0  0  0  0  0  0  0  0  0
    1.3748    0.8368    3.1321 H   0  0  0  0  0  0  0  0  0  0  0  0
    0.0430   -0.1640    4.9623 H   0  0  0  0  0  0  0  0  0  0  0  0
   -2.1460   -1.3046    4.4546 H   0  0  0  0  0  0  0  0  0  0  0  0
   -2.9783   -1.3687    2.0993 H   0  0  0  0  0  0  0  0  0  0  0  0
   -2.6043    1.1508   -2.8202 H   0  0  0  0  0  0  0  0  0  0  0  0
   -3.4852    3.4625   -3.1984 H   0  0  0  0  0  0  0  0  0  0  0  0
   -3.9187    4.9752   -1.2433 H   0  0  0  0  0  0  0  0  0  0  0  0
   -3.5020    4.1481    1.0875 H   0  0  0  0  0  0  0  0  0  0  0  0
   -2.6545    1.8227    1.4627 H   0  0  0  0  0  0  0  0  0  0  0  0
   -2.1297   -3.2218   -0.4900 H   0  0  0  0  0  0  0  0  0  0  0  0
   -4.0757   -4.7920   -0.3664 H   0  0  0  0  0  0  0  0  0  0  0  0
   -6.4127   -3.8886   -0.2096 H   0  0  0  0  0  0  0  0  0  0  0  0
   -6.7877   -1.4094   -0.1592 H   0  0  0  0  0  0  0  0  0  0  0  0
   -4.8435    0.1573   -0.2471 H   0  0  0  0  0  0  0  0  0  0  0  0
    0.1601    0.8667   -0.4852 H   0  0  0  0  0  0  0  0  0  0  0  0
  1  2  1  0  0  0  0
  1  8  1  0  0  0  0
  2  5  1  0  0  0  0
  2  4  1  0  0  0  0
  3 27  1  0  0  0  0
  3  2  1  0  0  0  0
  4 29  1  0  0  0  0
  5 31  1  0  0  0  0
  6 19  1  0  0  0  0
  6  7  1  0  0  0  0
  7  8  2  0  0  0  0
  7 12  1  0  0  0  0
  8  9  1  0  0  0  0
  9 34  1  0  0  0  0
  9 10  2  0  0  0  0
 10 35  1  0  0  0  0
 11 10  1  0  0  0  0
 11 36  1  0  0  0  0
 12 11  2  0  0  0  0
 13  6  1  0  0  0  0
 13 18  1  0  0  0  0
 14 13  2  0  0  0  0
 15 14  1  0  0  0  0
 15 16  2  0  0  0  0
 16 17  1  0  0  0  0
 17 18  2  0  0  0  0
 17 41  1  0  0  0  0
 18 42  1  0  0  0  0
 19 24  1  0  0  0  0
 20 19  2  0  0  0  0
 20 21  1  0  0  0  0
 21 22  2  0  0  0  0
 22 23  1  0  0  0  0
 22 45  1  0  0  0  0
 23 46  1  0  0  0  0
 24 47  1  0  0  0  0
 24 23  2  0  0  0  0
 25  3  1  0  0  0  0
 26  3  1  0  0  0  0
 28  4  1  0  0  0  0
 30  4  1  0  0  0  0
 32  5  1  0  0  0  0
 33  5  1  0  0  0  0
 37 12  1  0  0  0  0
 38 14  1  0  0  0  0
 39 15  1  0  0  0  0
 40 16  1  0  0  0  0
 43 20  1  0  0  0  0
 44 21  1  0  0  0  0
 48  1  1  0  0  0  0
M  END
