1
q = -1.0

 38 40  0  0  0  0  0  0  0  0999 V2000
   -0.1178   -0.1640    0.7793 C   0  0  0  0  0  3  0  0  0  0  0  0
   -0.2056    0.2676    2.6530 Si  0  0  0  0  0  0  0  0  0  0  0  0
   -0.5792    2.0896    3.0354 C   0  0  0  0  0  0  0  0  0  0  0  0
   -1.6460   -0.7198    3.4018 C   0  0  0  0  0  0  0  0  0  0  0  0
    1.3580   -0.2604    3.5941 C   0  0  0  0  0  0  0  0  0  0  0  0
   -1.4701    0.0457    0.1781 C   0  0  0  0  0  0  0  0  0  0  0  0
   -1.8763    1.3559   -0.2387 C   0  0  0  0  0  0  0  0  0  0  0  0
   -0.9853    2.4739   -0.1635 C   0  0  0  0  0  0  0  0  0  0  0  0
   -1.3570    3.7382   -0.5825 C   0  0  0  0  0  0  0  0  0  0  0  0
   -2.6643    3.9656   -1.1063 C   0  0  0  0  0  0  0  0  0  0  0  0
   -3.5537    2.9144   -1.2111 C   0  0  0  0  0  0  0  0  0  0  0  0
   -3.1949    1.5878   -0.7996 C   0  0  0  0  0  0  0  0  0  0  0  0
   -4.0843    0.5099   -0.9481 C   0  0  0  0  0  0  0  0  0  0  0  0
   -3.7148   -0.7913   -0.5654 C   0  0  0  0  0  0  0  0  0  0  0  0
   -4.6234   -1.8883   -0.7355 C   0  0  0  0  0  0  0  0  0  0  0  0
   -4.2828   -3.1712   -0.3590 C   0  0  0  0  0  0  0  0  0  0  0  0
   -3.0039   -3.4194    0.2201 C   0  0  0  0  0  0  0  0  0  0  0  0
   -2.1030   -2.3858    0.4011 C   0  0  0  0  0  0  0  0  0  0  0  0
   -2.4014   -1.0357    0.0134 C   0  0  0  0  0  0  0  0  0  0  0  0
    0.0574   -1.2695    0.8514 H   0  0  0  0  0  0  0  0  0  0  0  0
    0.1971    2.8053    2.6992 H   0  0  0  0  0  0  0  0  0  0  0  0
   -1.5402    2.4032    2.5821 H   0  0  0  0  0  0  0  0  0  0  0  0
   -0.6709    2.1946    4.1371 H   0  0  0  0  0  0  0  0  0  0  0  0
   -2.6058   -0.4886    2.8981 H   0  0  0  0  0  0  0  0  0  0  0  0
   -1.4811   -1.8135    3.3239 H   0  0  0  0  0  0  0  0  0  0  0  0
   -1.7509   -0.4688    4.4782 H   0  0  0  0  0  0  0  0  0  0  0  0
    1.7944   -1.1903    3.1767 H   0  0  0  0  0  0  0  0  0  0  0  0
    2.1418    0.5220    3.5965 H   0  0  0  0  0  0  0  0  0  0  0  0
    1.0855   -0.4532    4.6524 H   0  0  0  0  0  0  0  0  0  0  0  0
    0.0159    2.2973    0.2435 H   0  0  0  0  0  0  0  0  0  0  0  0
   -0.6447    4.5744   -0.5079 H   0  0  0  0  0  0  0  0  0  0  0  0
   -2.9573    4.9754   -1.4316 H   0  0  0  0  0  0  0  0  0  0  0  0
   -4.5620    3.0740   -1.6243 H   0  0  0  0  0  0  0  0  0  0  0  0
   -5.0835    0.6848   -1.3770 H   0  0  0  0  0  0  0  0  0  0  0  0
   -5.6093   -1.6783   -1.1793 H   0  0  0  0  0  0  0  0  0  0  0  0
   -4.9931   -4.0001   -0.4985 H   0  0  0  0  0  0  0  0  0  0  0  0
   -2.7331   -4.4394    0.5321 H   0  0  0  0  0  0  0  0  0  0  0  0
   -1.1314   -2.6157    0.8605 H   0  0  0  0  0  0  0  0  0  0  0  0
  1 20  1  0  0  0  0
  1  2  1  0  0  0  0
  2  3  1  0  0  0  0
  2  4  1  0  0  0  0
  2  5  1  0  0  0  0
  3 23  1  0  0  0  0
  4 26  1  0  0  0  0
  5 28  1  0  0  0  0
  5 29  1  0  0  0  0
  6  1  1  0  0  0  0
  7  8  1  0  0  0  0
  7  6  2  0  0  0  0
  8 30  1  0  0  0  0
  9 31  1  0  0  0  0
  9  8  2  0  0  0  0
 10  9  1  0  0  0  0
 11 10  2  0  0  0  0
 11 12  1  0  0  0  0
 12  7  1  0  0  0  0
 13 12  2  0  0  0  0
 13 14  1  0  0  0  0
 14 19  1  0  0  0  0
 15 14  2  0  0  0  0
 15 16  1  0  0  0  0
 16 17  2  0  0  0  0
 17 18  1  0  0  0  0
 17 37  1  0  0  0  0
 18 38  1  0  0  0  0
 19  6  1  0  0  0  0
 19 18  2  0  0  0  0
 21  3  1  0  0  0  0
 22  3  1  0  0  0  0
 24  4  1  0  0  0  0
 25  4  1  0  0  0  0
 27  5  1  0  0  0  0
 32 10  1  0  0  0  0
 33 11  1  0  0  0  0
 34 13  1  0  0  0  0
 35 15  1  0  0  0  0
 36 16  1  0  0  0  0
M  END
