4
q = 0.0, confidence = 0.682

 50 54  0  0  1  0  0  0  0  0999 V2000
   -0.0835   -2.5665   -1.8850 O   0  0  0  0  0  0  0  0  0  0  0  0
   -0.0342   -1.5147   -1.2619 C   0  0  0  0  0  0  0  0  0  0  0  0
    1.1704   -0.7496   -0.7522 C   0  0  2  0  0  3  0  0  0  0  0  0
    0.7252    0.5997   -0.4230 C   0  0  2  0  0  3  0  0  0  0  0  0
   -0.7287    0.6150   -0.3963 C   0  0  2  0  0  3  0  0  0  0  0  0
   -1.1912   -0.7376   -0.6795 C   0  0  1  0  0  3  0  0  0  0  0  0
    2.5720   -1.1924   -0.9267 C   0  0  0  0  0  0  0  0  0  0  0  0
    2.8822   -2.1719   -1.8994 C   0  0  0  0  0  0  0  0  0  0  0  0
    4.2083   -2.5863   -2.0940 C   0  0  0  0  0  0  0  0  0  0  0  0
    5.2464   -2.0405   -1.3253 C   0  0  0  0  0  0  0  0  0  0  0  0
    4.9475   -1.0758   -0.3480 C   0  0  0  0  0  0  0  0  0  0  0  0
    3.6272   -0.6577   -0.1490 C   0  0  0  0  0  0  0  0  0  0  0  0
    1.5793    1.8085   -0.3165 C   0  0  0  0  0  0  0  0  0  0  0  0
    1.4586    2.7163    0.7560 C   0  0  0  0  0  0  0  0  0  0  0  0
    2.2346    3.8818    0.7908 C   0  0  0  0  0  0  0  0  0  0  0  0
    3.1414    4.1582   -0.2458 C   0  0  0  0  0  0  0  0  0  0  0  0
    3.2661    3.2613   -1.3184 C   0  0  0  0  0  0  0  0  0  0  0  0
    2.4928    2.0925   -1.3549 C   0  0  0  0  0  0  0  0  0  0  0  0
   -1.5823    1.8270   -0.3242 C   0  0  0  0  0  0  0  0  0  0  0  0
   -2.7779    1.8534    0.4260 C   0  0  0  0  0  0  0  0  0  0  0  0
   -3.5995    2.9873    0.4204 C   0  0  0  0  0  0  0  0  0  0  0  0
   -3.2485    4.1128   -0.3427 C   0  0  0  0  0  0  0  0  0  0  0  0
   -2.0717    4.0918   -1.1061 C   0  0  0  0  0  0  0  0  0  0  0  0
   -1.2447    2.9595   -1.0985 C   0  0  0  0  0  0  0  0  0  0  0  0
   -2.5949   -1.1511   -0.9089 C   0  0  0  0  0  0  0  0  0  0  0  0
   -3.1288   -2.2953   -0.2815 C   0  0  0  0  0  0  0  0  0  0  0  0
   -4.4404   -2.7112   -0.5483 C   0  0  0  0  0  0  0  0  0  0  0  0
   -5.2399   -1.9893   -1.4486 C   0  0  0  0  0  0  0  0  0  0  0  0
   -4.7155   -0.8545   -2.0869 C   0  0  0  0  0  0  0  0  0  0  0  0
   -3.4029   -0.4398   -1.8231 C   0  0  0  0  0  0  0  0  0  0  0  0
    2.0637   -2.6115   -2.4845 H   0  0  0  0  0  0  0  0  0  0  0  0
    4.4285   -3.3494   -2.8562 H   0  0  0  0  0  0  0  0  0  0  0  0
    6.2854   -2.3696   -1.4794 H   0  0  0  0  0  0  0  0  0  0  0  0
    5.7508   -0.6474    0.2706 H   0  0  0  0  0  0  0  0  0  0  0  0
    3.4146    0.0917    0.6255 H   0  0  0  0  0  0  0  0  0  0  0  0
    0.7462    2.4984    1.5655 H   0  0  0  0  0  0  0  0  0  0  0  0
    2.1327    4.5784    1.6364 H   0  0  0  0  0  0  0  0  0  0  0  0
    3.7538    5.0719   -0.2151 H   0  0  0  0  0  0  0  0  0  0  0  0
    3.9748    3.4698   -2.1340 H   0  0  0  0  0  0  0  0  0  0  0  0
    2.5924    1.3895   -2.1947 H   0  0  0  0  0  0  0  0  0  0  0  0
   -3.0712    0.9755    1.0164 H   0  0  0  0  0  0  0  0  0  0  0  0
   -4.5237    2.9898    1.0175 H   0  0  0  0  0  0  0  0  0  0  0  0
   -3.8946    5.0037   -0.3448 H   0  0  0  0  0  0  0  0  0  0  0  0
   -1.7914    4.9637   -1.7162 H   0  0  0  0  0  0  0  0  0  0  0  0
   -0.3304    2.9491   -1.7078 H   0  0  0  0  0  0  0  0  0  0  0  0
   -2.5035   -2.8563    0.4284 H   0  0  0  0  0  0  0  0  0  0  0  0
   -4.8415   -3.6048   -0.0466 H   0  0  0  0  0  0  0  0  0  0  0  0
   -6.2715   -2.3129   -1.6546 H   0  0  0  0  0  0  0  0  0  0  0  0
   -5.3326   -0.2866   -2.7998 H   0  0  0  0  0  0  0  0  0  0  0  0
   -2.9937    0.4446   -2.3331 H   0  0  0  0  0  0  0  0  0  0  0  0
  1  2  2  0  0  0  0
  2  3  1  0  0  0  0
  2  6  1  0  0  0  0
  3  7  1  6  0  0  0
  3  4  1  0  0  0  0
  4  5  1  0  0  0  0
  4 13  1  6  0  0  0
  5 19  1  6  0  0  0
  6 25  1  6  0  0  0
  6  5  1  0  0  0  0
  7 12  1  0  0  0  0
  8  7  2  0  0  0  0
  9  8  1  0  0  0  0
  9 10  2  0  0  0  0
 10 11  1  0  0  0  0
 11 12  2  0  0  0  0
 11 34  1  0  0  0  0
 12 35  1  0  0  0  0
 13 14  1  0  0  0  0
 14 15  2  0  0  0  0
 14 36  1  0  0  0  0
 15 37  1  0  0  0  0
 16 38  1  0  0  0  0
 16 15  1  0  0  0  0
 17 16  2  0  0  0  0
 18 17  1  0  0  0  0
 18 13  2  0  0  0  0
 19 20  1  0  0  0  0
 20 41  1  0  0  0  0
 21 20  2  0  0  0  0
 21 42  1  0  0  0  0
 22 21  1  0  0  0  0
 23 24  1  0  0  0  0
 23 22  2  0  0  0  0
 24 19  2  0  0  0  0
 25 26  1  0  0  0  0
 26 46  1  0  0  0  0
 27 26  2  0  0  0  0
 27 47  1  0  0  0  0
 28 27  1  0  0  0  0
 29 30  1  0  0  0  0
 29 28  2  0  0  0  0
 30 25  2  0  0  0  0
 31  8  1  0  0  0  0
 32  9  1  0  0  0  0
 33 10  1  0  0  0  0
 39 17  1  0  0  0  0
 40 18  1  0  0  0  0
 43 22  1  0  0  0  0
 44 23  1  0  0  0  0
 45 24  1  0  0  0  0
 48 28  1  0  0  0  0
 49 29  1  0  0  0  0
 50 30  1  0  0  0  0
M  END
