1
q = -1.0

 17 16  0  0  0  0  0  0  0  0999 V2000
   -2.1270    0.1640   -0.1083 C   0  0  0  0  0  3  0  0  0  0  0  0
   -2.7846    1.0290   -0.3093 H   0  0  0  0  0  0  0  0  0  0  0  0
   -2.6587   -1.0736   -0.0508 C   0  0  0  0  0  0  0  0  0  0  0  0
   -1.9923   -1.9409    0.1202 H   0  0  0  0  0  0  0  0  0  0  0  0
   -4.1279   -1.4586   -0.2087 C   0  0  0  0  0  0  0  0  0  0  0  0
   -4.5874   -2.1821    1.0770 C   0  0  0  0  0  0  0  0  0  0  0  0
   -4.5637   -1.4990    1.9502 H   0  0  0  0  0  0  0  0  0  0  0  0
   -3.9293   -3.0460    1.3057 H   0  0  0  0  0  0  0  0  0  0  0  0
   -5.6248   -2.5638    0.9694 H   0  0  0  0  0  0  0  0  0  0  0  0
   -4.2452   -2.4385   -1.3976 C   0  0  0  0  0  0  0  0  0  0  0  0
   -5.2864   -2.8101   -1.5046 H   0  0  0  0  0  0  0  0  0  0  0  0
   -3.5819   -3.3168   -1.2566 H   0  0  0  0  0  0  0  0  0  0  0  0
   -3.9538   -1.9469   -2.3467 H   0  0  0  0  0  0  0  0  0  0  0  0
   -5.0316   -0.2424   -0.4590 C   0  0  0  0  0  0  0  0  0  0  0  0
   -4.9821    0.4785    0.3827 H   0  0  0  0  0  0  0  0  0  0  0  0
   -6.0886   -0.5604   -0.5707 H   0  0  0  0  0  0  0  0  0  0  0  0
   -4.7380    0.2966   -1.3823 H   0  0  0  0  0  0  0  0  0  0  0  0
  1  3  2  0  0  0  0
  2  1  1  0  0  0  0
  3  4  1  0  0  0  0
  5  3  1  0  0  0  0
  5  6  1  0  0  0  0
  6  8  1  0  0  0  0
  6  7  1  0  0  0  0
  9  6  1  0  0  0  0
 10 12  1  0  0  0  0
 10  5  1  0  0  0  0
 11 10  1  0  0  0  0
 13 10  1  0  0  0  0
 14  5  1  0  0  0  0
 14 15  1  0  0  0  0
 16 14  1  0  0  0  0
 17 14  1  0  0  0  0
M  END
