1
q = 0.0, confidence = 0.932

  7  6  0  0  0  0  0  0  0  0999 V2000
   -1.9849    0.2735   -1.7798 C   0  0  0  0  0  3  0  0  0  0  0  0
   -2.2620    0.6339   -2.7796 H   0  0  0  0  0  0  0  0  0  0  0  0
   -2.4153   -0.4864   -0.8081 C   0  0  0  0  0  3  0  0  0  0  0  0
   -3.5704   -1.3069   -0.4302 C   0  0  0  0  0  0  0  0  0  0  0  0
   -3.2152   -2.5564   -0.0062 F   0  0  0  0  0  0  0  0  0  0  0  0
   -4.4683   -1.4785   -1.4352 F   0  0  0  0  0  0  0  0  0  0  0  0
   -4.2729   -0.7464    0.6176 F   0  0  0  0  0  0  0  0  0  0  0  0
  1  3  2  0  0  0  0
  2  1  1  0  0  0  0
  3  4  1  0  0  0  0
  4  5  1  0  0  0  0
  4  7  1  0  0  0  0
  6  4  1  0  0  0  0
M  END
