1
q = -1.0

 14 14  0  0  0  0  0  0  0  0999 V2000
   -2.3114   -0.9165   -0.0398 C   0  0  0  0  0  3  0  0  0  0  0  0
   -2.7680   -0.5998    0.9172 H   0  0  0  0  0  0  0  0  0  0  0  0
   -3.4389   -0.8686   -1.0805 C   0  0  0  0  0  0  0  0  0  0  0  0
   -3.0382   -1.0501   -2.0944 H   0  0  0  0  0  0  0  0  0  0  0  0
   -3.9555    0.1089   -1.1283 H   0  0  0  0  0  0  0  0  0  0  0  0
   -4.3718   -2.0257   -0.6500 C   0  0  0  0  0  0  0  0  0  0  0  0
   -5.1588   -1.6496    0.0369 H   0  0  0  0  0  0  0  0  0  0  0  0
   -4.9018   -2.4740   -1.5151 H   0  0  0  0  0  0  0  0  0  0  0  0
   -3.4587   -3.0523    0.0874 C   0  0  0  0  0  0  0  0  0  0  0  0
   -3.4709   -4.0522   -0.3925 H   0  0  0  0  0  0  0  0  0  0  0  0
   -3.8116   -3.2055    1.1292 H   0  0  0  0  0  0  0  0  0  0  0  0
   -2.0427   -2.4263    0.0805 C   0  0  0  0  0  0  0  0  0  0  0  0
   -1.4738   -2.7838   -0.7986 H   0  0  0  0  0  0  0  0  0  0  0  0
   -1.4418   -2.7012    0.9695 H   0  0  0  0  0  0  0  0  0  0  0  0
  1 12  1  0  0  0  0
  1  2  1  0  0  0  0
  3  6  1  0  0  0  0
  3  1  1  0  0  0  0
  4  3  1  0  0  0  0
  5  3  1  0  0  0  0
  6  7  1  0  0  0  0
  6  9  1  0  0  0  0
  8  6  1  0  0  0  0
  9 11  1  0  0  0  0
 10  9  1  0  0  0  0
 12  9  1  0  0  0  0
 12 14  1  0  0  0  0
 13 12  1  0  0  0  0
M  END
