25
q = 0.0, confidence = 0.98

 38 41  0  0  0  0  0  0  0  0999 V2000
   -0.8768    1.9803   -0.8166 N   0  0  0  0  0  0  0  0  0  0  0  0
   -2.6188   -0.1221   -0.5013 N   0  0  0  0  0  0  0  0  0  0  0  0
   -0.1684    3.1105   -0.6105 C   0  0  0  0  0  0  0  0  0  0  0  0
    0.8201    2.9833   -0.1456 H   0  0  0  0  0  0  0  0  0  0  0  0
   -0.6370    4.3779   -0.9721 C   0  0  0  0  0  0  0  0  0  0  0  0
   -0.0109    5.2616   -0.7834 H   0  0  0  0  0  0  0  0  0  0  0  0
   -1.9025    4.4876   -1.5657 C   0  0  0  0  0  0  0  0  0  0  0  0
   -2.3088    5.4679   -1.8556 H   0  0  0  0  0  0  0  0  0  0  0  0
   -2.6455    3.3171   -1.7728 C   0  0  0  0  0  0  0  0  0  0  0  0
   -3.6472    3.3541   -2.2258 H   0  0  0  0  0  0  0  0  0  0  0  0
   -2.1066    2.0786   -1.3987 C   0  0  0  0  0  0  0  0  0  0  0  0
   -2.8317    0.7762   -1.6504 C   0  0  0  0  0  0  0  0  0  0  0  0
   -3.9038    0.9598   -1.8750 H   0  0  0  0  0  0  0  0  0  0  0  0
   -2.3471    0.2709   -2.5178 H   0  0  0  0  0  0  0  0  0  0  0  0
   -2.8988   -1.5500   -0.6723 C   0  0  0  0  0  0  0  0  0  0  0  0
   -3.9326   -2.0431   -1.4682 C   0  0  0  0  0  0  0  0  0  0  0  0
   -4.5971   -1.3535   -2.0087 H   0  0  0  0  0  0  0  0  0  0  0  0
   -4.0936   -3.4357   -1.5990 C   0  0  0  0  0  0  0  0  0  0  0  0
   -4.8882   -3.8355   -2.2463 H   0  0  0  0  0  0  0  0  0  0  0  0
   -3.2287   -4.3044   -0.9189 C   0  0  0  0  0  0  0  0  0  0  0  0
   -3.3458   -5.3930   -1.0305 H   0  0  0  0  0  0  0  0  0  0  0  0
   -2.2049   -3.7945   -0.1021 C   0  0  0  0  0  0  0  0  0  0  0  0
   -1.5205   -4.4795    0.4221 H   0  0  0  0  0  0  0  0  0  0  0  0
   -2.0183   -2.4069    0.0400 C   0  0  0  0  0  0  0  0  0  0  0  0
   -0.9107   -1.7965    0.8179 C   0  0  0  0  0  3  0  0  0  0  0  0
   -0.1429   -2.5172    1.1509 H   0  0  0  0  0  0  0  0  0  0  0  0
   -1.0862   -0.6056    1.6770 C   0  0  0  0  0  3  0  0  0  0  0  0
   -0.4001   -0.5409    2.5376 H   0  0  0  0  0  0  0  0  0  0  0  0
   -2.3894    0.0519    1.9019 C   0  0  0  0  0  0  0  0  0  0  0  0
   -2.8540    0.4821    3.1606 C   0  0  0  0  0  0  0  0  0  0  0  0
   -2.2311    0.2974    4.0495 H   0  0  0  0  0  0  0  0  0  0  0  0
   -4.0836    1.1506    3.2809 C   0  0  0  0  0  0  0  0  0  0  0  0
   -4.4240    1.4931    4.2701 H   0  0  0  0  0  0  0  0  0  0  0  0
   -4.8782    1.3863    2.1490 C   0  0  0  0  0  0  0  0  0  0  0  0
   -5.8395    1.9129    2.2434 H   0  0  0  0  0  0  0  0  0  0  0  0
   -4.4351    0.9613    0.8822 C   0  0  0  0  0  0  0  0  0  0  0  0
   -5.0485    1.1517   -0.0102 H   0  0  0  0  0  0  0  0  0  0  0  0
   -3.1991    0.3206    0.7731 C   0  0  0  0  0  0  0  0  0  0  0  0
  1  3  1  0  0  0  0
  2 38  1  0  0  0  0
  3  4  1  0  0  0  0
  5  6  1  0  0  0  0
  5  3  2  0  0  0  0
  7  5  1  0  0  0  0
  8  7  1  0  0  0  0
  9  7  2  0  0  0  0
  9 11  1  0  0  0  0
 10  9  1  0  0  0  0
 11  1  2  0  0  0  0
 12 11  1  0  0  0  0
 12  2  1  0  0  0  0
 13 12  1  0  0  0  0
 14 12  1  0  0  0  0
 15  2  1  0  0  0  0
 15 24  1  0  0  0  0
 16 15  2  0  0  0  0
 17 16  1  0  0  0  0
 18 16  1  0  0  0  0
 18 20  2  0  0  0  0
 19 18  1  0  0  0  0
 20 22  1  0  0  0  0
 21 20  1  0  0  0  0
 22 24  2  0  0  0  0
 22 23  1  0  0  0  0
 24 25  1  0  0  0  0
 25 26  1  0  0  0  0
 25 27  1  0  0  0  0
 27 29  1  0  0  0  0
 27 28  1  0  0  0  0
 29 30  1  0  0  0  0
 30 32  2  0  0  0  0
 30 31  1  0  0  0  0
 32 33  1  0  0  0  0
 34 35  1  0  0  0  0
 34 32  1  0  0  0  0
 36 34  2  0  0  0  0
 37 36  1  0  0  0  0
 38 36  1  0  0  0  0
 38 29  2  0  0  0  0
M  END
