2
q = 0.0, confidence = 0.974

 42 42  0  0  1  0  0  0  0  0999 V2000
    0.2049   -0.3373    1.4825 C   0  0  2  0  0  3  0  0  0  0  0  0
   -1.0843    0.3033    1.1624 C   0  0  2  0  0  3  0  0  0  0  0  0
   -1.0672    1.1837    0.0340 C   0  0  1  0  0  3  0  0  0  0  0  0
    0.1319    1.2213   -0.8062 C   0  0  2  0  0  3  0  0  0  0  0  0
    1.3580    0.6690   -0.3069 C   0  0  2  0  0  3  0  0  0  0  0  0
    1.4188    0.4582    1.1635 C   0  0  0  0  0  0  0  0  0  0  0  0
    0.2460   -1.7263    1.6699 C   0  0  0  0  0  3  0  0  0  0  0  0
    1.4949   -2.5248    1.8862 C   0  0  0  0  0  0  0  0  0  0  0  0
   -2.2925    0.0505    2.0351 C   0  0  0  0  0  0  0  0  0  0  0  0
   -2.2034    0.7916    3.3767 C   0  0  0  0  0  0  0  0  0  0  0  0
   -2.2754    1.9255   -0.3995 C   0  0  0  0  0  0  0  0  0  0  0  0
   -2.9781    2.7781    0.3707 C   0  0  0  0  0  0  0  0  0  0  0  0
    0.1099    2.0108   -2.1010 C   0  0  0  0  0  0  0  0  0  0  0  0
    0.5633    3.4587   -1.8706 C   0  0  0  0  0  0  0  0  0  0  0  0
    2.5291    0.4783   -1.1691 C   0  0  0  0  0  0  0  0  0  0  0  0
    3.7113   -0.0756   -0.8125 C   0  0  0  0  0  0  0  0  0  0  0  0
    2.3175    0.8875    2.0795 C   0  0  0  0  0  0  0  0  0  0  0  0
    3.5029    1.7733    1.8502 C   0  0  0  0  0  0  0  0  0  0  0  0
   -0.6966   -2.2301    1.9361 H   0  0  0  0  0  0  0  0  0  0  0  0
    2.3889   -2.0187    1.4777 H   0  0  0  0  0  0  0  0  0  0  0  0
    1.6597   -2.6854    2.9745 H   0  0  0  0  0  0  0  0  0  0  0  0
    1.4110   -3.5268    1.4217 H   0  0  0  0  0  0  0  0  0  0  0  0
   -2.3759   -1.0368    2.2355 H   0  0  0  0  0  0  0  0  0  0  0  0
   -3.2120    0.3351    1.4891 H   0  0  0  0  0  0  0  0  0  0  0  0
   -1.2989    0.4855    3.9408 H   0  0  0  0  0  0  0  0  0  0  0  0
   -2.1465    1.8898    3.2363 H   0  0  0  0  0  0  0  0  0  0  0  0
   -3.0886    0.5751    4.0075 H   0  0  0  0  0  0  0  0  0  0  0  0
   -2.5943    1.7738   -1.4443 H   0  0  0  0  0  0  0  0  0  0  0  0
   -3.8627    3.2999   -0.0252 H   0  0  0  0  0  0  0  0  0  0  0  0
   -2.6916    2.9912    1.4124 H   0  0  0  0  0  0  0  0  0  0  0  0
   -0.9025    2.0000   -2.5450 H   0  0  0  0  0  0  0  0  0  0  0  0
    0.7569    1.5227   -2.8542 H   0  0  0  0  0  0  0  0  0  0  0  0
   -0.0979    3.9698   -1.1418 H   0  0  0  0  0  0  0  0  0  0  0  0
    1.5967    3.4929   -1.4697 H   0  0  0  0  0  0  0  0  0  0  0  0
    0.5417    4.0372   -2.8157 H   0  0  0  0  0  0  0  0  0  0  0  0
    2.3990    0.7643   -2.2244 H   0  0  0  0  0  0  0  0  0  0  0  0
    4.5093   -0.2174   -1.5555 H   0  0  0  0  0  0  0  0  0  0  0  0
    3.9054   -0.4270    0.2117 H   0  0  0  0  0  0  0  0  0  0  0  0
    2.1232    0.5827    3.1244 H   0  0  0  0  0  0  0  0  0  0  0  0
    4.4630    1.2328    2.0059 H   0  0  0  0  0  0  0  0  0  0  0  0
    3.5209    2.1945    0.8285 H   0  0  0  0  0  0  0  0  0  0  0  0
    3.4990    2.6117    2.5788 H   0  0  0  0  0  0  0  0  0  0  0  0
  1  7  1  6  0  0  0
  2  1  1  0  0  0  0
  2  9  1  1  0  0  0
  3 11  1  6  0  0  0
  3  2  1  0  0  0  0
  4 13  1  1  0  0  0
  4  5  1  0  0  0  0
  4  3  1  0  0  0  0
  5 15  1  1  0  0  0
  5  6  1  0  0  0  0
  6  1  1  0  0  0  0
  6 17  2  0  0  0  0
  7  8  1  0  0  0  0
  7 19  1  0  0  0  0
  8 21  1  0  0  0  0
  9 23  1  0  0  0  0
  9 10  1  0  0  0  0
 10 25  1  0  0  0  0
 10 27  1  0  0  0  0
 11 12  2  0  0  0  0
 12 30  1  0  0  0  0
 13 14  1  0  0  0  0
 14 34  1  0  0  0  0
 14 33  1  0  0  0  0
 15 16  2  0  0  0  0
 16 38  1  0  0  0  0
 17 39  1  0  0  0  0
 18 40  1  0  0  0  0
 18 17  1  0  0  0  0
 18 42  1  0  0  0  0
 20  8  1  0  0  0  0
 22  8  1  0  0  0  0
 24  9  1  0  0  0  0
 26 10  1  0  0  0  0
 28 11  1  0  0  0  0
 29 12  1  0  0  0  0
 31 13  1  0  0  0  0
 32 13  1  0  0  0  0
 35 14  1  0  0  0  0
 36 15  1  0  0  0  0
 37 16  1  0  0  0  0
 41 18  1  0  0  0  0
M  END
