3
q = -1.0

  7  6  0  0  0  0  0  0  0  0999 V2000
    0.5416    1.7892    1.9655 O   0  0  0  0  0  0  0  0  0  0  0  0
    1.7075    3.7830    0.8117 O   0  0  0  0  0  0  0  0  0  0  0  0
    0.4832    1.6890    0.7261 C   0  0  0  0  0  3  0  0  0  0  0  0
    0.9480    2.9567   -0.0264 C   0  0  0  0  0  0  0  0  0  0  0  0
    1.4714    3.4313    1.7071 H   0  0  0  0  0  0  0  0  0  0  0  0
    0.0118    3.4497   -0.4076 H   0  0  0  0  0  0  0  0  0  0  0  0
    1.5204    2.6725   -0.9357 H   0  0  0  0  0  0  0  0  0  0  0  0
  2  5  1  0  0  0  0
  3  1  2  0  0  0  0
  4  3  1  0  0  0  0
  4  2  1  0  0  0  0
  6  4  1  0  0  0  0
  7  4  1  0  0  0  0
M  END
