7
q = -1.0

 37 37  0  0  0  0  0  0  0  0999 V2000
   -1.5105   -1.5283   -1.4009 N   0  0  0  0  0  0  0  0  0  0  0  0
   -1.7318   -2.4561   -2.3470 C   0  0  0  0  0  0  0  0  0  0  0  0
   -3.0047   -2.7406   -2.8570 C   0  0  0  0  0  0  0  0  0  0  0  0
   -4.0906   -2.0111   -2.3445 C   0  0  0  0  0  0  0  0  0  0  0  0
   -3.8658   -1.0479   -1.3558 C   0  0  0  0  0  0  0  0  0  0  0  0
   -2.5490   -0.8121   -0.8807 C   0  0  0  0  0  0  0  0  0  0  0  0
   -2.2047    0.1976    0.1680 C   0  0  0  0  0  3  0  0  0  0  0  0
   -2.7602   -0.3632    1.8909 Si  0  0  0  0  0  0  0  0  0  0  0  0
   -1.9621   -2.0385    2.2992 C   0  0  0  0  0  0  0  0  0  0  0  0
   -2.2412    0.8958    3.2121 C   0  0  0  0  0  0  0  0  0  0  0  0
   -4.6406   -0.6182    2.0247 C   0  0  0  0  0  0  0  0  0  0  0  0
   -2.5985    1.9818   -0.3524 Si  0  0  0  0  0  0  0  0  0  0  0  0
   -4.3777    2.5304    0.0423 C   0  0  0  0  0  0  0  0  0  0  0  0
   -1.4225    3.2129    0.4867 C   0  0  0  0  0  0  0  0  0  0  0  0
   -2.3356    2.1129   -2.2279 C   0  0  0  0  0  0  0  0  0  0  0  0
   -0.8398   -2.9933   -2.7148 H   0  0  0  0  0  0  0  0  0  0  0  0
   -3.1389   -3.5066   -3.6341 H   0  0  0  0  0  0  0  0  0  0  0  0
   -5.1110   -2.1937   -2.7164 H   0  0  0  0  0  0  0  0  0  0  0  0
   -4.7003   -0.4658   -0.9406 H   0  0  0  0  0  0  0  0  0  0  0  0
   -2.1625   -2.7777    1.4963 H   0  0  0  0  0  0  0  0  0  0  0  0
   -0.8605   -1.9591    2.4072 H   0  0  0  0  0  0  0  0  0  0  0  0
   -2.3650   -2.4495    3.2481 H   0  0  0  0  0  0  0  0  0  0  0  0
   -1.1501    1.0942    3.1850 H   0  0  0  0  0  0  0  0  0  0  0  0
   -2.7680    1.8640    3.0917 H   0  0  0  0  0  0  0  0  0  0  0  0
   -2.4871    0.5029    4.2203 H   0  0  0  0  0  0  0  0  0  0  0  0
   -5.2068    0.2990    1.7676 H   0  0  0  0  0  0  0  0  0  0  0  0
   -4.9832   -1.4328    1.3545 H   0  0  0  0  0  0  0  0  0  0  0  0
   -4.9103   -0.9062    3.0625 H   0  0  0  0  0  0  0  0  0  0  0  0
   -5.1318    1.8579   -0.4154 H   0  0  0  0  0  0  0  0  0  0  0  0
   -4.5625    2.5519    1.1360 H   0  0  0  0  0  0  0  0  0  0  0  0
   -4.5600    3.5534   -0.3487 H   0  0  0  0  0  0  0  0  0  0  0  0
   -1.4655    3.1525    1.5919 H   0  0  0  0  0  0  0  0  0  0  0  0
   -0.3731    3.0332    0.1736 H   0  0  0  0  0  0  0  0  0  0  0  0
   -1.6900    4.2498    0.1939 H   0  0  0  0  0  0  0  0  0  0  0  0
   -1.3151    1.7694   -2.4966 H   0  0  0  0  0  0  0  0  0  0  0  0
   -3.0586    1.4856   -2.7877 H   0  0  0  0  0  0  0  0  0  0  0  0
   -2.4520    3.1612   -2.5725 H   0  0  0  0  0  0  0  0  0  0  0  0
  1  6  1  0  0  0  0
  2  1  2  0  0  0  0
  3  2  1  0  0  0  0
  3  4  2  0  0  0  0
  4  5  1  0  0  0  0
  5 19  1  0  0  0  0
  5  6  2  0  0  0  0
  6  7  1  0  0  0  0
  7  8  1  0  0  0  0
  8 11  1  0  0  0  0
  8  9  1  0  0  0  0
  8 10  1  0  0  0  0
  9 21  1  0  0  0  0
  9 22  1  0  0  0  0
 10 25  1  0  0  0  0
 11 28  1  0  0  0  0
 12 13  1  0  0  0  0
 12  7  1  0  0  0  0
 12 14  1  0  0  0  0
 13 30  1  0  0  0  0
 14 32  1  0  0  0  0
 15 12  1  0  0  0  0
 16  2  1  0  0  0  0
 17  3  1  0  0  0  0
 18  4  1  0  0  0  0
 20  9  1  0  0  0  0
 23 10  1  0  0  0  0
 24 10  1  0  0  0  0
 26 11  1  0  0  0  0
 27 11  1  0  0  0  0
 29 13  1  0  0  0  0
 31 13  1  0  0  0  0
 33 14  1  0  0  0  0
 34 14  1  0  0  0  0
 35 15  1  0  0  0  0
 36 15  1  0  0  0  0
 37 15  1  0  0  0  0
M  END
