4
q = -1.0

 25 26  0  0  1  0  0  0  0  0999 V2000
    2.9232    1.3316   -1.9283 Si  0  0  0  0  0  0  0  0  0  0  0  0
    2.2311   -1.1845   -0.4782 C   0  0  0  0  0  0  0  0  0  0  0  0
    1.9669   -0.2313   -1.5347 C   0  0  2  0  0  3  0  0  0  0  0  0
    0.8888   -0.7850   -2.3004 C   0  0  0  0  0  3  0  0  0  0  0  0
    0.4446   -0.3099   -3.1863 H   0  0  0  0  0  0  0  0  0  0  0  0
    0.4313   -1.9938   -1.7166 C   0  0  0  0  0  3  0  0  0  0  0  0
   -0.3785   -2.6296   -2.0888 H   0  0  0  0  0  0  0  0  0  0  0  0
    1.2666   -2.2704   -0.5824 C   0  0  0  0  0  0  0  0  0  0  0  0
    1.2719   -3.3192    0.3802 C   0  0  0  0  0  0  0  0  0  0  0  0
    0.5333   -4.1323    0.3113 H   0  0  0  0  0  0  0  0  0  0  0  0
    2.2301   -3.3090    1.3884 C   0  0  0  0  0  0  0  0  0  0  0  0
    2.2555   -4.1262    2.1255 H   0  0  0  0  0  0  0  0  0  0  0  0
    3.1961   -2.2617    1.4763 C   0  0  0  0  0  0  0  0  0  0  0  0
    3.9567   -2.2986    2.2717 H   0  0  0  0  0  0  0  0  0  0  0  0
    3.1995   -1.2097    0.5667 C   0  0  0  0  0  0  0  0  0  0  0  0
    3.9586   -0.4143    0.6363 H   0  0  0  0  0  0  0  0  0  0  0  0
    4.7136    0.9120   -2.3828 C   0  0  0  0  0  0  0  0  0  0  0  0
    4.7406    0.2828   -3.2960 H   0  0  0  0  0  0  0  0  0  0  0  0
    5.2135    0.3455   -1.5712 H   0  0  0  0  0  0  0  0  0  0  0  0
    5.3046    1.8308   -2.5759 H   0  0  0  0  0  0  0  0  0  0  0  0
    2.0772    2.2658   -3.3343 C   0  0  0  0  0  0  0  0  0  0  0  0
    1.0387    2.5394   -3.0610 H   0  0  0  0  0  0  0  0  0  0  0  0
    2.0438    1.6431   -4.2518 H   0  0  0  0  0  0  0  0  0  0  0  0
    2.6290    3.1968   -3.5755 H   0  0  0  0  0  0  0  0  0  0  0  0
    2.9654    2.2157   -0.6977 H   0  0  0  0  0  0  0  0  0  0  0  0
  1 25  1  0  0  0  0
  2 15  1  0  0  0  0
  3  1  1  6  0  0  0
  3  2  1  0  0  0  0
  4  6  1  0  0  0  0
  4  3  1  0  0  0  0
  5  4  1  0  0  0  0
  6  8  1  0  0  0  0
  7  6  1  0  0  0  0
  8  2  2  0  0  0  0
  8  9  1  0  0  0  0
  9 11  2  0  0  0  0
 10  9  1  0  0  0  0
 11 13  1  0  0  0  0
 11 12  1  0  0  0  0
 13 14  1  0  0  0  0
 15 16  1  0  0  0  0
 15 13  2  0  0  0  0
 17  1  1  0  0  0  0
 17 19  1  0  0  0  0
 18 17  1  0  0  0  0
 20 17  1  0  0  0  0
 21 22  1  0  0  0  0
 21  1  1  0  0  0  0
 23 21  1  0  0  0  0
 24 21  1  0  0  0  0
M  END
