2
q = -1.0, confidence = 0.0

 41 42  0  0  1  0  0  0  0  0999 V2000
   -0.9358   -2.1748   -0.2611 N   0  0  0  0  0  2  0  0  0  0  0  0
    0.1542   -1.4975   -0.1831 C   0  0  0  0  0  2  0  0  0  0  0  0
   -2.1890   -1.5423   -0.1868 C   0  0  0  0  0  0  0  0  0  0  0  0
   -2.8515   -1.4474    1.0672 C   0  0  0  0  0  0  0  0  0  0  0  0
   -4.1455   -0.8980    1.1079 C   0  0  0  0  0  0  0  0  0  0  0  0
   -4.6607   -0.8276    2.0792 H   0  0  0  0  0  0  0  0  0  0  0  0
   -4.7802   -0.4452   -0.0575 C   0  0  0  0  0  0  0  0  0  0  0  0
   -5.7954   -0.0238   -0.0083 H   0  0  0  0  0  0  0  0  0  0  0  0
   -4.1121   -0.5376   -1.2868 C   0  0  0  0  0  0  0  0  0  0  0  0
   -4.6023   -0.1849   -2.2083 H   0  0  0  0  0  0  0  0  0  0  0  0
   -2.8168   -1.0796   -1.3751 C   0  0  0  0  0  0  0  0  0  0  0  0
   -2.1620   -1.9262    2.3175 C   0  0  0  0  0  0  0  0  0  0  0  0
   -1.3220   -1.2543    2.5976 H   0  0  0  0  0  0  0  0  0  0  0  0
   -1.7179   -2.9318    2.1657 H   0  0  0  0  0  0  0  0  0  0  0  0
   -2.8618   -1.9666    3.1740 H   0  0  0  0  0  0  0  0  0  0  0  0
   -2.0954   -1.1754   -2.6941 C   0  0  0  0  0  0  0  0  0  0  0  0
   -1.2426   -0.4645   -2.7413 H   0  0  0  0  0  0  0  0  0  0  0  0
   -2.7718   -0.9478   -3.5401 H   0  0  0  0  0  0  0  0  0  0  0  0
   -1.6648   -2.1879   -2.8392 H   0  0  0  0  0  0  0  0  0  0  0  0
    1.5057   -2.2086   -0.2653 C   0  0  1  0  0  0  0  0  0  0  0  0
    1.3410   -3.2972   -0.4113 H   0  0  0  0  0  0  0  0  0  0  0  0
    2.2786   -1.5230   -1.3710 C   0  0  0  0  0  0  0  0  0  0  0  0
    3.2427   -0.7345   -0.7931 C   0  0  0  0  0  0  0  0  0  0  0  0
    3.2228   -0.9288    0.6746 C   0  0  0  0  0  0  0  0  0  0  0  0
    2.2474   -1.8380    1.0011 C   0  0  0  0  0  0  0  0  0  0  0  0
    1.9220   -1.6806   -2.8125 C   0  0  0  0  0  0  0  0  0  0  0  0
    0.8328   -1.5410   -2.9741 H   0  0  0  0  0  0  0  0  0  0  0  0
    2.1612   -2.7027   -3.1801 H   0  0  0  0  0  0  0  0  0  0  0  0
    2.4587   -0.9588   -3.4585 H   0  0  0  0  0  0  0  0  0  0  0  0
    4.2079    0.1849   -1.4748 C   0  0  0  0  0  0  0  0  0  0  0  0
    4.0414    0.2274   -2.5680 H   0  0  0  0  0  0  0  0  0  0  0  0
    5.2594   -0.1319   -1.3056 H   0  0  0  0  0  0  0  0  0  0  0  0
    4.1271    1.2199   -1.0796 H   0  0  0  0  0  0  0  0  0  0  0  0
    4.1616   -0.2177    1.5990 C   0  0  0  0  0  0  0  0  0  0  0  0
    3.9749   -0.4736    2.6593 H   0  0  0  0  0  0  0  0  0  0  0  0
    4.0700    0.8847    1.4963 H   0  0  0  0  0  0  0  0  0  0  0  0
    5.2211   -0.4649    1.3732 H   0  0  0  0  0  0  0  0  0  0  0  0
    1.8540   -2.3664    2.3410 C   0  0  0  0  0  0  0  0  0  0  0  0
    2.3718   -1.8419    3.1674 H   0  0  0  0  0  0  0  0  0  0  0  0
    2.0861   -3.4503    2.4332 H   0  0  0  0  0  0  0  0  0  0  0  0
    0.7606   -2.2697    2.5048 H   0  0  0  0  0  0  0  0  0  0  0  0
  1  3  1  0  0  0  0
  1  2  1  0  0  0  0
  3  4  1  0  0  0  0
  4  5  2  0  0  0  0
  4 12  1  0  0  0  0
  5  6  1  0  0  0  0
  7  8  1  0  0  0  0
  7  5  1  0  0  0  0
  9  7  2  0  0  0  0
 10  9  1  0  0  0  0
 11  9  1  0  0  0  0
 11  3  2  0  0  0  0
 12 13  1  0  0  0  0
 12 15  1  0  0  0  0
 14 12  1  0  0  0  0
 16 11  1  0  0  0  0
 17 16  1  0  0  0  0
 18 16  1  0  0  0  0
 19 16  1  0  0  0  0
 20 21  1  6  0  0  0
 20  2  1  0  0  0  0
 20 25  1  0  0  0  0
 22 23  2  0  0  0  0
 22 20  1  0  0  0  0
 23 24  1  0  0  0  0
 24 25  2  0  0  0  0
 24 34  1  0  0  0  0
 25 38  1  0  0  0  0
 26 22  1  0  0  0  0
 27 26  1  0  0  0  0
 28 26  1  0  0  0  0
 29 26  1  0  0  0  0
 30 32  1  0  0  0  0
 30 33  1  0  0  0  0
 30 23  1  0  0  0  0
 31 30  1  0  0  0  0
 34 35  1  0  0  0  0
 36 34  1  0  0  0  0
 37 34  1  0  0  0  0
 38 40  1  0  0  0  0
 38 41  1  0  0  0  0
 38 39  1  0  0  0  0
M  END
