7
q = -1.0

 12 12  0  0  0  0  0  0  0  0999 V2000
   -3.7460    1.4809    0.0552 N   0  0  0  0  0  0  0  0  0  0  0  0
   -4.5793    1.4361   -0.5361 H   0  0  0  0  0  0  0  0  0  0  0  0
   -3.0990    2.7169    0.2027 C   0  0  0  0  0  0  0  0  0  0  0  0
   -3.6086    3.5820   -0.2372 H   0  0  0  0  0  0  0  0  0  0  0  0
   -1.9329    2.7647    0.9036 C   0  0  0  0  0  0  0  0  0  0  0  0
   -1.4777    3.7448    1.1044 H   0  0  0  0  0  0  0  0  0  0  0  0
   -1.2809    1.5528    1.3968 C   0  0  0  0  0  3  0  0  0  0  0  0
   -2.1234    0.3272    1.4167 C   0  0  0  0  0  3  0  0  0  0  0  0
   -3.3289    0.3717    0.6741 C   0  0  0  0  0  3  0  0  0  0  0  0
   -4.0034   -0.4960    0.6080 H   0  0  0  0  0  0  0  0  0  0  0  0
   -0.5883    1.6884    2.2435 H   0  0  0  0  0  0  0  0  0  0  0  0
   -2.0818   -0.4025    2.2381 H   0  0  0  0  0  0  0  0  0  0  0  0
  1  3  1  0  0  0  0
  1  9  1  0  0  0  0
  2  1  1  0  0  0  0
  3  5  2  0  0  0  0
  4  3  1  0  0  0  0
  5  6  1  0  0  0  0
  5  7  1  0  0  0  0
  7  8  1  0  0  0  0
  7 11  1  0  0  0  0
  8 12  1  0  0  0  0
  9  8  1  0  0  0  0
 10  9  1  0  0  0  0
M  END
