3
q = 0.0, confidence = 0.998

 33 35  0  0  0  0  0  0  0  0999 V2000
   -1.2979   -1.7960   -0.8439 N   0  0  0  0  0  0  0  0  0  0  0  0
   -3.1402   -0.6032   -1.6787 N   0  0  0  0  0  0  0  0  0  0  0  0
   -0.1587   -1.1476   -0.4344 C   0  0  0  0  0  2  0  0  0  0  0  0
   -1.0014   -2.9913   -1.5005 C   0  0  0  0  0  0  0  0  0  0  0  0
   -2.6275   -1.2769   -0.6481 C   0  0  0  0  0  0  0  0  0  0  0  0
   -3.2897   -1.5351    0.5755 C   0  0  0  0  0  0  0  0  0  0  0  0
   -4.5750   -0.9710    0.6919 C   0  0  0  0  0  0  0  0  0  0  0  0
   -5.1205   -0.2289   -0.3632 C   0  0  0  0  0  0  0  0  0  0  0  0
   -4.3677   -0.0816   -1.5380 C   0  0  0  0  0  0  0  0  0  0  0  0
   -2.6565   -2.3329    1.6749 C   0  0  0  0  0  0  0  0  0  0  0  0
   -1.7841   -3.6328   -1.9142 H   0  0  0  0  0  0  0  0  0  0  0  0
   -5.1448   -1.1224    1.6220 H   0  0  0  0  0  0  0  0  0  0  0  0
   -6.1214    0.2205   -0.2820 H   0  0  0  0  0  0  0  0  0  0  0  0
   -4.7669    0.4773   -2.4018 H   0  0  0  0  0  0  0  0  0  0  0  0
   -2.1736   -3.2518    1.2860 H   0  0  0  0  0  0  0  0  0  0  0  0
   -3.4028   -2.6196    2.4398 H   0  0  0  0  0  0  0  0  0  0  0  0
   -1.8572   -1.7293    2.1661 H   0  0  0  0  0  0  0  0  0  0  0  0
    0.8540   -1.9855   -0.8356 N   0  0  0  0  0  0  0  0  0  0  0  0
    2.8721   -1.1801   -1.7209 N   0  0  0  0  0  0  0  0  0  0  0  0
    0.3607   -3.1104   -1.4957 C   0  0  0  0  0  0  0  0  0  0  0  0
    2.2499   -1.6785   -0.6511 C   0  0  0  0  0  0  0  0  0  0  0  0
    2.8563   -1.9490    0.5991 C   0  0  0  0  0  0  0  0  0  0  0  0
    4.2092   -1.5711    0.7021 C   0  0  0  0  0  0  0  0  0  0  0  0
    4.8702   -0.9973   -0.3918 C   0  0  0  0  0  0  0  0  0  0  0  0
    4.1631   -0.8403   -1.5934 C   0  0  0  0  0  0  0  0  0  0  0  0
    2.1097   -2.5813    1.7341 C   0  0  0  0  0  0  0  0  0  0  0  0
    1.0233   -3.8778   -1.9046 H   0  0  0  0  0  0  0  0  0  0  0  0
    4.7411   -1.7377    1.6517 H   0  0  0  0  0  0  0  0  0  0  0  0
    5.9254   -0.6942   -0.3215 H   0  0  0  0  0  0  0  0  0  0  0  0
    4.6536   -0.4247   -2.4905 H   0  0  0  0  0  0  0  0  0  0  0  0
    1.4863   -3.4296    1.3868 H   0  0  0  0  0  0  0  0  0  0  0  0
    2.8059   -2.9470    2.5125 H   0  0  0  0  0  0  0  0  0  0  0  0
    1.4139   -1.8433    2.1983 H   0  0  0  0  0  0  0  0  0  0  0  0
  1  5  1  0  0  0  0
  1  3  1  0  0  0  0
  2  9  2  0  0  0  0
  2  5  1  0  0  0  0
  4 20  2  0  0  0  0
  4  1  1  0  0  0  0
  5  6  2  0  0  0  0
  6  7  1  0  0  0  0
  6 10  1  0  0  0  0
  7 12  1  0  0  0  0
  8 13  1  0  0  0  0
  8  7  2  0  0  0  0
  9  8  1  0  0  0  0
 10 17  1  0  0  0  0
 10 16  1  0  0  0  0
 11  4  1  0  0  0  0
 14  9  1  0  0  0  0
 15 10  1  0  0  0  0
 18 21  1  0  0  0  0
 18  3  1  0  0  0  0
 19 25  2  0  0  0  0
 19 21  1  0  0  0  0
 20 18  1  0  0  0  0
 21 22  2  0  0  0  0
 22 23  1  0  0  0  0
 22 26  1  0  0  0  0
 23 28  1  0  0  0  0
 24 29  1  0  0  0  0
 24 23  2  0  0  0  0
 25 24  1  0  0  0  0
 26 33  1  0  0  0  0
 26 32  1  0  0  0  0
 27 20  1  0  0  0  0
 30 25  1  0  0  0  0
 31 26  1  0  0  0  0
M  END
