5
q = -1.0

 36 38  0  0  1  0  0  0  0  0999 V2000
    4.1595   -1.9177   -0.4325 S   0  0  0  0  0  0  0  0  0  0  0  0
   -1.3481    0.7223    0.9231 C   0  0  0  0  0  3  0  0  0  0  0  0
   -0.1482   -0.0292    0.8337 C   0  0  0  0  0  0  0  0  0  0  0  0
    0.2540   -0.5371   -0.4568 C   0  0  0  0  0  0  0  0  0  0  0  0
   -0.5791   -0.1976   -1.5805 C   0  0  0  0  0  3  0  0  0  0  0  0
   -1.6893    0.6524   -1.4234 C   0  0  0  0  0  3  0  0  0  0  0  0
   -1.7522    1.6125   -0.2496 C   0  0  2  0  0  0  0  0  0  0  0  0
    1.4640   -1.4014   -0.7058 C   0  0  0  0  0  0  0  0  0  0  0  0
    2.7577   -0.8951   -0.2288 C   0  0  0  0  0  0  0  0  0  0  0  0
    3.1069    0.3380    0.3217 C   0  0  0  0  0  0  0  0  0  0  0  0
    4.4985    0.4466    0.5819 C   0  0  0  0  0  0  0  0  0  0  0  0
    5.1896   -0.7052    0.2293 C   0  0  0  0  0  0  0  0  0  0  0  0
    0.1404   -0.1569    3.2017 C   0  0  0  0  0  0  0  0  0  0  0  0
   -0.9423    2.9018   -0.3507 C   0  0  0  0  0  0  0  0  0  0  0  0
   -1.3913    4.0511    0.3310 C   0  0  0  0  0  0  0  0  0  0  0  0
   -0.6364    5.2332    0.3303 C   0  0  0  0  0  0  0  0  0  0  0  0
    0.5849    5.2863   -0.3603 C   0  0  0  0  0  0  0  0  0  0  0  0
    1.0385    4.1518   -1.0516 C   0  0  0  0  0  0  0  0  0  0  0  0
    0.2810    2.9702   -1.0474 C   0  0  0  0  0  0  0  0  0  0  0  0
    0.5836   -0.4631    1.8866 O   0  0  0  0  0  0  0  0  0  0  0  0
    1.3757   -2.4359   -1.3673 O   0  0  0  0  0  0  0  0  0  0  0  0
   -1.7496    0.9593    1.9177 H   0  0  0  0  0  0  0  0  0  0  0  0
   -0.3655   -0.6966   -2.5380 H   0  0  0  0  0  0  0  0  0  0  0  0
   -2.3517    0.8097   -2.2878 H   0  0  0  0  0  0  0  0  0  0  0  0
   -2.8118    1.8962   -0.0908 H   0  0  0  0  0  0  0  0  0  0  0  0
    2.3759    1.1349    0.5134 H   0  0  0  0  0  0  0  0  0  0  0  0
    4.9815    1.3352    1.0110 H   0  0  0  0  0  0  0  0  0  0  0  0
    6.2656   -0.8979    0.3279 H   0  0  0  0  0  0  0  0  0  0  0  0
    0.9219   -0.5401    3.8824 H   0  0  0  0  0  0  0  0  0  0  0  0
   -0.8203   -0.6656    3.4317 H   0  0  0  0  0  0  0  0  0  0  0  0
    0.0254    0.9384    3.3505 H   0  0  0  0  0  0  0  0  0  0  0  0
   -2.3515    4.0153    0.8714 H   0  0  0  0  0  0  0  0  0  0  0  0
   -1.0066    6.1204    0.8668 H   0  0  0  0  0  0  0  0  0  0  0  0
    1.1785    6.2130   -0.3658 H   0  0  0  0  0  0  0  0  0  0  0  0
    1.9898    4.1866   -1.6047 H   0  0  0  0  0  0  0  0  0  0  0  0
    0.6439    2.0912   -1.5997 H   0  0  0  0  0  0  0  0  0  0  0  0
  1  9  1  0  0  0  0
  1 12  1  0  0  0  0
  2 22  1  0  0  0  0
  3  2  1  0  0  0  0
  3 20  1  0  0  0  0
  4  3  2  0  0  0  0
  5  6  1  0  0  0  0
  5  4  1  0  0  0  0
  6  7  1  0  0  0  0
  7 25  1  1  0  0  0
  7  2  1  0  0  0  0
  8  4  1  0  0  0  0
  8  9  1  0  0  0  0
  9 10  2  0  0  0  0
 10 26  1  0  0  0  0
 10 11  1  0  0  0  0
 11 27  1  0  0  0  0
 12 28  1  0  0  0  0
 12 11  2  0  0  0  0
 13 31  1  0  0  0  0
 13 30  1  0  0  0  0
 13 29  1  0  0  0  0
 14  7  1  0  0  0  0
 14 15  1  0  0  0  0
 15 32  1  0  0  0  0
 16 15  2  0  0  0  0
 16 33  1  0  0  0  0
 17 16  1  0  0  0  0
 18 19  1  0  0  0  0
 18 17  2  0  0  0  0
 19 14  2  0  0  0  0
 20 13  1  0  0  0  0
 21  8  2  0  0  0  0
 23  5  1  0  0  0  0
 24  6  1  0  0  0  0
 34 17  1  0  0  0  0
 35 18  1  0  0  0  0
 36 19  1  0  0  0  0
M  END
