3
q = -1.0

 34 35  0  0  0  0  0  0  0  0999 V2000
   -1.1177    2.3395    0.5318 C   0  0  0  0  0  0  0  0  0  0  0  0
   -0.1515    2.3740   -0.5261 C   0  0  0  0  0  0  0  0  0  0  0  0
   -0.5477    1.4491   -1.5380 C   0  0  0  0  0  3  0  0  0  0  0  0
   -1.8217    0.8902   -1.1690 C   0  0  0  0  0  0  0  0  0  0  0  0
   -2.1887    1.4497    0.1170 C   0  0  0  0  0  0  0  0  0  0  0  0
   -3.4396    1.0903    0.7265 C   0  0  0  0  0  0  0  0  0  0  0  0
   -4.2366    0.1402    0.0743 C   0  0  0  0  0  0  0  0  0  0  0  0
   -5.5223   -0.3709    0.6794 C   0  0  0  0  0  0  0  0  0  0  0  0
   -3.8603   -0.4132   -1.2097 C   0  0  0  0  0  0  0  0  0  0  0  0
   -2.6801   -0.0295   -1.8527 C   0  0  0  0  0  0  0  0  0  0  0  0
   -2.3355   -0.4818   -3.2525 C   0  0  0  0  0  0  0  0  0  0  0  0
   -4.7896   -1.4111   -1.8577 C   0  0  0  0  0  0  0  0  0  0  0  0
   -3.8097    1.7068    2.0493 C   0  0  0  0  0  0  0  0  0  0  0  0
    1.0675    3.2465   -0.5863 C   0  0  0  0  0  0  0  0  0  0  0  0
   -1.0326    3.1945    1.7635 C   0  0  0  0  0  0  0  0  0  0  0  0
   -0.0237    1.2988   -2.4851 H   0  0  0  0  0  0  0  0  0  0  0  0
   -5.4697   -1.4687    0.8372 H   0  0  0  0  0  0  0  0  0  0  0  0
   -6.3938   -0.1932    0.0149 H   0  0  0  0  0  0  0  0  0  0  0  0
   -5.7517    0.0817    1.6581 H   0  0  0  0  0  0  0  0  0  0  0  0
   -2.1560   -1.5757   -3.3206 H   0  0  0  0  0  0  0  0  0  0  0  0
   -3.1542   -0.2512   -3.9650 H   0  0  0  0  0  0  0  0  0  0  0  0
   -1.4295    0.0263   -3.6315 H   0  0  0  0  0  0  0  0  0  0  0  0
   -4.4109   -1.7769   -2.8279 H   0  0  0  0  0  0  0  0  0  0  0  0
   -5.7995   -0.9837   -2.0336 H   0  0  0  0  0  0  0  0  0  0  0  0
   -4.9422   -2.2979   -1.2071 H   0  0  0  0  0  0  0  0  0  0  0  0
   -4.8715    1.5585    2.3110 H   0  0  0  0  0  0  0  0  0  0  0  0
   -3.6209    2.7962    2.0528 H   0  0  0  0  0  0  0  0  0  0  0  0
   -3.1986    1.2602    2.8625 H   0  0  0  0  0  0  0  0  0  0  0  0
    1.8161    2.8382   -1.2922 H   0  0  0  0  0  0  0  0  0  0  0  0
    0.7947    4.2676   -0.9289 H   0  0  0  0  0  0  0  0  0  0  0  0
    1.5568    3.3364    0.4022 H   0  0  0  0  0  0  0  0  0  0  0  0
   -1.3133    2.6449    2.6794 H   0  0  0  0  0  0  0  0  0  0  0  0
   -1.6935    4.0841    1.6817 H   0  0  0  0  0  0  0  0  0  0  0  0
    0.0014    3.5572    1.9097 H   0  0  0  0  0  0  0  0  0  0  0  0
  1 15  1  0  0  0  0
  2  1  2  0  0  0  0
  3  4  1  0  0  0  0
  3  2  1  0  0  0  0
  4  5  1  0  0  0  0
  5  1  1  0  0  0  0
  5  6  2  0  0  0  0
  6 13  1  0  0  0  0
  7  8  1  0  0  0  0
  7  6  1  0  0  0  0
  8 17  1  0  0  0  0
  8 19  1  0  0  0  0
  9  7  2  0  0  0  0
 10  9  1  0  0  0  0
 10  4  2  0  0  0  0
 11 10  1  0  0  0  0
 12  9  1  0  0  0  0
 12 25  1  0  0  0  0
 13 27  1  0  0  0  0
 13 26  1  0  0  0  0
 13 28  1  0  0  0  0
 14  2  1  0  0  0  0
 14 31  1  0  0  0  0
 15 34  1  0  0  0  0
 15 32  1  0  0  0  0
 16  3  1  0  0  0  0
 18  8  1  0  0  0  0
 20 11  1  0  0  0  0
 21 11  1  0  0  0  0
 22 11  1  0  0  0  0
 23 12  1  0  0  0  0
 24 12  1  0  0  0  0
 29 14  1  0  0  0  0
 30 14  1  0  0  0  0
 33 15  1  0  0  0  0
M  END
