5
q = -1.0, confidence = 0.002

 38 40  0  0  1  0  0  0  0  0999 V2000
   -1.7888    0.6295   -2.5687 N   0  0  0  0  0  0  0  0  0  0  0  0
   -0.5408    0.3552   -2.1113 C   0  0  0  0  0  0  0  0  0  0  0  0
   -0.0439   -0.9847   -1.9168 C   0  0  0  0  0  0  0  0  0  0  0  0
    1.3818   -0.9682   -1.6419 C   0  0  2  0  0  3  0  0  0  0  0  0
    1.7064    0.4285   -1.4327 C   0  0  0  0  0  3  0  0  0  0  0  0
    0.5048    1.2416   -1.6200 C   0  0  1  0  0  3  0  0  0  0  0  0
   -2.7335   -0.4737   -2.7021 C   0  0  0  0  0  0  0  0  0  0  0  0
   -2.3313    1.9762   -2.6275 C   0  0  0  0  0  0  0  0  0  0  0  0
    2.3000   -2.1170   -1.6576 C   0  0  0  0  0  0  0  0  0  0  0  0
    1.8181   -3.4415   -1.7761 C   0  0  0  0  0  0  0  0  0  0  0  0
    2.6996   -4.5288   -1.7782 C   0  0  0  0  0  0  0  0  0  0  0  0
    4.0849   -4.3233   -1.6652 C   0  0  0  0  0  0  0  0  0  0  0  0
    4.5765   -3.0137   -1.5494 C   0  0  0  0  0  0  0  0  0  0  0  0
    3.6966   -1.9235   -1.5464 C   0  0  0  0  0  0  0  0  0  0  0  0
    0.5498    2.7277   -1.5665 C   0  0  0  0  0  0  0  0  0  0  0  0
   -0.2868    3.4877   -0.7181 C   0  0  0  0  0  0  0  0  0  0  0  0
   -0.1976    4.8849   -0.6893 C   0  0  0  0  0  0  0  0  0  0  0  0
    0.7401    5.5530   -1.4944 C   0  0  0  0  0  0  0  0  0  0  0  0
    1.5893    4.8098   -2.3282 C   0  0  0  0  0  0  0  0  0  0  0  0
    1.4953    3.4102   -2.3624 C   0  0  0  0  0  0  0  0  0  0  0  0
   -0.6264   -1.8902   -2.1016 H   0  0  0  0  0  0  0  0  0  0  0  0
    2.6940    0.8496   -1.2185 H   0  0  0  0  0  0  0  0  0  0  0  0
    0.7362   -3.6245   -1.8419 H   0  0  0  0  0  0  0  0  0  0  0  0
    2.2991   -5.5505   -1.8652 H   0  0  0  0  0  0  0  0  0  0  0  0
    4.7761   -5.1794   -1.6671 H   0  0  0  0  0  0  0  0  0  0  0  0
    5.6595   -2.8366   -1.4617 H   0  0  0  0  0  0  0  0  0  0  0  0
    4.0980   -0.9041   -1.4563 H   0  0  0  0  0  0  0  0  0  0  0  0
   -1.0091    2.9651   -0.0727 H   0  0  0  0  0  0  0  0  0  0  0  0
   -0.8582    5.4570   -0.0201 H   0  0  0  0  0  0  0  0  0  0  0  0
    0.8134    6.6508   -1.4655 H   0  0  0  0  0  0  0  0  0  0  0  0
    2.3306    5.3224   -2.9603 H   0  0  0  0  0  0  0  0  0  0  0  0
    2.1568    2.8285   -3.0225 H   0  0  0  0  0  0  0  0  0  0  0  0
   -2.3384   -1.2545   -3.3839 H   0  0  0  0  0  0  0  0  0  0  0  0
   -2.9629   -0.9396   -1.7193 H   0  0  0  0  0  0  0  0  0  0  0  0
   -3.6749   -0.0890   -3.1332 H   0  0  0  0  0  0  0  0  0  0  0  0
   -2.7904    2.2845   -1.6622 H   0  0  0  0  0  0  0  0  0  0  0  0
   -1.5414    2.7009   -2.8881 H   0  0  0  0  0  0  0  0  0  0  0  0
   -3.1084    2.0131   -3.4158 H   0  0  0  0  0  0  0  0  0  0  0  0
  1  2  1  0  0  0  0
  2  3  2  0  0  0  0
  2  6  1  0  0  0  0
  3  4  1  0  0  0  0
  4  9  1  6  0  0  0
  4  5  1  0  0  0  0
  5 22  1  0  0  0  0
  6 15  1  6  0  0  0
  6  5  1  0  0  0  0
  7  1  1  0  0  0  0
  7 34  1  0  0  0  0
  8  1  1  0  0  0  0
  8 36  1  0  0  0  0
  9 14  1  0  0  0  0
 10  9  2  0  0  0  0
 11 10  1  0  0  0  0
 11 12  2  0  0  0  0
 12 13  1  0  0  0  0
 13 14  2  0  0  0  0
 13 26  1  0  0  0  0
 14 27  1  0  0  0  0
 15 16  1  0  0  0  0
 16 17  2  0  0  0  0
 16 28  1  0  0  0  0
 17 29  1  0  0  0  0
 18 30  1  0  0  0  0
 18 17  1  0  0  0  0
 19 18  2  0  0  0  0
 20 19  1  0  0  0  0
 20 15  2  0  0  0  0
 21  3  1  0  0  0  0
 23 10  1  0  0  0  0
 24 11  1  0  0  0  0
 25 12  1  0  0  0  0
 31 19  1  0  0  0  0
 32 20  1  0  0  0  0
 33  7  1  0  0  0  0
 35  7  1  0  0  0  0
 37  8  1  0  0  0  0
 38  8  1  0  0  0  0
M  END
