1
q = 0.0, confidence = 0.99

 43 45  0  0  1  0  0  0  0  0999 V2000
    0.4184   -2.1696   -1.2358 C   0  0  0  0  0  3  0  0  0  0  0  0
    0.2586   -3.2068   -0.8821 H   0  0  0  0  0  0  0  0  0  0  0  0
    0.0675   -2.1013   -2.2868 H   0  0  0  0  0  0  0  0  0  0  0  0
    1.8202   -1.8117   -1.1411 C   0  0  2  0  0  3  0  0  0  0  0  0
    2.4290   -3.2751    0.7774 C   0  0  0  0  0  0  0  0  0  0  0  0
    1.5276   -2.9649    1.3424 H   0  0  0  0  0  0  0  0  0  0  0  0
    3.2842   -3.3465    1.4718 H   0  0  0  0  0  0  0  0  0  0  0  0
    2.2482   -4.2695    0.3233 H   0  0  0  0  0  0  0  0  0  0  0  0
    3.9507   -1.6371   -0.4211 C   0  0  0  0  0  0  0  0  0  0  0  0
    4.8224   -1.8629    0.1987 H   0  0  0  0  0  0  0  0  0  0  0  0
    3.7915   -0.7520   -1.4515 C   0  0  0  0  0  0  0  0  0  0  0  0
    4.4954   -0.0517   -1.9086 H   0  0  0  0  0  0  0  0  0  0  0  0
    1.8055   -0.0169   -2.8611 C   0  0  0  0  0  0  0  0  0  0  0  0
    1.0020   -0.6136   -3.3317 H   0  0  0  0  0  0  0  0  0  0  0  0
    2.5299    0.2341   -3.6604 H   0  0  0  0  0  0  0  0  0  0  0  0
    1.2334    1.2616   -2.2331 C   0  0  0  0  0  0  0  0  0  0  0  0
    0.4711    1.6899   -2.9125 H   0  0  0  0  0  0  0  0  0  0  0  0
    2.0197    2.0340   -2.1166 H   0  0  0  0  0  0  0  0  0  0  0  0
    1.8363    1.0725    0.6160 C   0  0  0  0  0  0  0  0  0  0  0  0
    1.8277    0.1577    1.6884 C   0  0  0  0  0  0  0  0  0  0  0  0
    0.9701   -0.5327    1.7785 H   0  0  0  0  0  0  0  0  0  0  0  0
    2.8875    0.1321    2.6085 C   0  0  0  0  0  0  0  0  0  0  0  0
    2.8690   -0.5811    3.4467 H   0  0  0  0  0  0  0  0  0  0  0  0
    3.9617    1.0243    2.4661 C   0  0  0  0  0  0  0  0  0  0  0  0
    4.7917    1.0090    3.1884 H   0  0  0  0  0  0  0  0  0  0  0  0
    3.9691    1.9502    1.4087 C   0  0  0  0  0  0  0  0  0  0  0  0
    4.8018    2.6619    1.3050 H   0  0  0  0  0  0  0  0  0  0  0  0
    2.9114    1.9773    0.4887 C   0  0  0  0  0  0  0  0  0  0  0  0
    2.9221    2.7247   -0.3200 H   0  0  0  0  0  0  0  0  0  0  0  0
   -0.3608    2.7063   -0.3572 C   0  0  0  0  0  0  0  0  0  0  0  0
   -0.1302    3.4937    0.7890 C   0  0  0  0  0  0  0  0  0  0  0  0
    0.5805    3.1565    1.5579 H   0  0  0  0  0  0  0  0  0  0  0  0
   -0.8019    4.7160    0.9501 C   0  0  0  0  0  0  0  0  0  0  0  0
   -0.6131    5.3252    1.8466 H   0  0  0  0  0  0  0  0  0  0  0  0
   -1.7052    5.1614   -0.0262 C   0  0  0  0  0  0  0  0  0  0  0  0
   -2.2268    6.1216    0.1015 H   0  0  0  0  0  0  0  0  0  0  0  0
   -1.9463    4.3766   -1.1660 C   0  0  0  0  0  0  0  0  0  0  0  0
   -2.6587    4.7180   -1.9319 H   0  0  0  0  0  0  0  0  0  0  0  0
   -1.2851    3.1515   -1.3283 C   0  0  0  0  0  0  0  0  0  0  0  0
   -1.5042    2.5349   -2.2150 H   0  0  0  0  0  0  0  0  0  0  0  0
    2.7310   -2.2838   -0.2421 N   0  0  0  0  0  0  0  0  0  0  0  0
    2.4773   -0.8760   -1.8929 N   0  0  0  0  0  0  0  0  0  0  0  0
    0.4176    1.0510   -0.5598 P   0  0  0  0  0  0  0  0  0  0  0  0
  1  2  1  0  0  0  0
  3  1  1  0  0  0  0
  4  1  1  1  0  0  0
  4 41  1  0  0  0  0
  5  6  1  0  0  0  0
  5  7  1  0  0  0  0
  8  5  1  0  0  0  0
  9 41  1  0  0  0  0
  9 10  1  0  0  0  0
 11  9  2  0  0  0  0
 12 11  1  0  0  0  0
 13 16  1  0  0  0  0
 13 42  1  0  0  0  0
 14 13  1  0  0  0  0
 15 13  1  0  0  0  0
 16 18  1  0  0  0  0
 16 43  1  0  0  0  0
 17 16  1  0  0  0  0
 19 20  1  0  0  0  0
 20 21  1  0  0  0  0
 20 22  2  0  0  0  0
 22 23  1  0  0  0  0
 24 22  1  0  0  0  0
 24 25  1  0  0  0  0
 26 24  2  0  0  0  0
 27 26  1  0  0  0  0
 28 19  2  0  0  0  0
 28 26  1  0  0  0  0
 29 28  1  0  0  0  0
 30 31  1  0  0  0  0
 31 33  2  0  0  0  0
 31 32  1  0  0  0  0
 33 34  1  0  0  0  0
 35 36  1  0  0  0  0
 35 33  1  0  0  0  0
 37 35  2  0  0  0  0
 38 37  1  0  0  0  0
 39 37  1  0  0  0  0
 39 30  2  0  0  0  0
 40 39  1  0  0  0  0
 41  5  1  0  0  0  0
 42 11  1  0  0  0  0
 42  4  1  0  0  0  0
 43 30  1  0  0  0  0
 43 19  1  0  0  0  0
M  END
