1
q = -1.0

 10  9  0  0  0  0  0  0  0  0999 V2000
    1.9621    1.1522    0.3309 C   0  0  0  0  0  3  0  0  0  0  0  0
    3.1536    0.5207   -0.3179 C   0  0  0  0  0  0  0  0  0  0  0  0
    4.1051   -0.0974    0.4196 C   0  0  0  0  0  0  0  0  0  0  0  0
    5.2744   -0.8465   -0.1260 C   0  0  0  0  0  0  0  0  0  0  0  0
    1.9927    1.3779    1.5456 O   0  0  0  0  0  0  0  0  0  0  0  0
    3.2025    0.4988   -1.4176 H   0  0  0  0  0  0  0  0  0  0  0  0
    3.9801   -0.0631    1.5173 H   0  0  0  0  0  0  0  0  0  0  0  0
    6.2309   -0.4548    0.2838 H   0  0  0  0  0  0  0  0  0  0  0  0
    5.3212   -0.8035   -1.2322 H   0  0  0  0  0  0  0  0  0  0  0  0
    5.2242   -1.9155    0.1775 H   0  0  0  0  0  0  0  0  0  0  0  0
  1  5  2  0  0  0  0
  2  1  1  0  0  0  0
  2  3  2  0  0  0  0
  3  7  1  0  0  0  0
  4 10  1  0  0  0  0
  4  8  1  0  0  0  0
  4  3  1  0  0  0  0
  6  2  1  0  0  0  0
  9  4  1  0  0  0  0
M  END
