3
q = -1.0

 21 21  0  0  1  0  0  0  0  0999 V2000
    1.9080   -0.9672    0.9526 C   0  0  1  0  0  3  0  0  0  0  0  0
    2.3428    0.2929   -0.5944 C   0  0  2  0  0  3  0  0  0  0  0  0
    2.0749    0.4654    0.8156 C   0  0  2  0  0  3  0  0  0  0  0  0
    2.6581   -1.2092   -0.3834 C   0  0  2  0  0  0  0  0  0  0  0  0
    2.1854    1.5681    1.8140 C   0  0  0  0  0  0  0  0  0  0  0  0
    2.2697   -2.2889   -1.3823 C   0  0  0  0  0  0  0  0  0  0  0  0
    2.8224    1.1899   -1.6817 C   0  0  0  0  0  0  0  0  0  0  0  0
    1.7928   -1.8448    2.1510 C   0  0  0  0  0  0  0  0  0  0  0  0
    2.0641    2.5678    1.3556 H   0  0  0  0  0  0  0  0  0  0  0  0
    1.4329    1.4582    2.6208 H   0  0  0  0  0  0  0  0  0  0  0  0
    3.1885    1.5454    2.2932 H   0  0  0  0  0  0  0  0  0  0  0  0
    1.3916   -2.8444    1.8890 H   0  0  0  0  0  0  0  0  0  0  0  0
    2.7961   -2.0078    2.6049 H   0  0  0  0  0  0  0  0  0  0  0  0
    1.1322   -1.4017    2.9220 H   0  0  0  0  0  0  0  0  0  0  0  0
    2.4526   -3.2963   -0.9544 H   0  0  0  0  0  0  0  0  0  0  0  0
    2.8874   -2.2067   -2.3002 H   0  0  0  0  0  0  0  0  0  0  0  0
    3.9214    1.0671   -1.8075 H   0  0  0  0  0  0  0  0  0  0  0  0
    2.6220    2.2564   -1.4702 H   0  0  0  0  0  0  0  0  0  0  0  0
    3.7521   -1.3059   -0.1619 H   0  0  0  0  0  0  0  0  0  0  0  0
    1.2046   -2.2286   -1.6739 H   0  0  0  0  0  0  0  0  0  0  0  0
    2.3545    0.9323   -2.6538 H   0  0  0  0  0  0  0  0  0  0  0  0
  1  8  1  1  0  0  0
  2  7  1  1  0  0  0
  2  4  1  0  0  0  0
  2  3  1  0  0  0  0
  3  1  1  0  0  0  0
  3  5  1  1  0  0  0
  4 19  1  1  0  0  0
  4  1  1  0  0  0  0
  5 11  1  0  0  0  0
  5 10  1  0  0  0  0
  6 15  1  0  0  0  0
  6  4  1  0  0  0  0
  7 18  1  0  0  0  0
  8 13  1  0  0  0  0
  8 14  1  0  0  0  0
  9  5  1  0  0  0  0
 12  8  1  0  0  0  0
 16  6  1  0  0  0  0
 17  7  1  0  0  0  0
 20  6  1  0  0  0  0
 21  7  1  0  0  0  0
M  END
