1
q = -2.0, confidence = 0.926

 44 49  0  0  1  0  0  0  0  0999 V2000
    0.4695   -1.3521    1.3655 C   0  0  1  0  0  3  0  0  0  0  0  0
   -2.6219   -3.7046   -0.3286 C   0  0  0  0  0  0  0  0  0  0  0  0
   -3.4134   -4.2917   -0.8178 H   0  0  0  0  0  0  0  0  0  0  0  0
    1.4041   -1.3960    0.2657 C   0  0  0  0  0  0  0  0  0  0  0  0
   -1.4878   -3.3523   -1.0435 C   0  0  0  0  0  0  0  0  0  0  0  0
   -1.3586   -3.6465   -2.0950 H   0  0  0  0  0  0  0  0  0  0  0  0
    0.8045   -2.1057   -0.8168 C   0  0  0  0  0  0  0  0  0  0  0  0
    1.2630   -2.2595   -1.7998 H   0  0  0  0  0  0  0  0  0  0  0  0
    3.9308   -1.4753    0.1588 C   0  0  0  0  0  0  0  0  0  0  0  0
    3.8897   -2.5620    0.3273 H   0  0  0  0  0  0  0  0  0  0  0  0
    2.7786    0.6632   -0.0823 C   0  0  0  0  0  0  0  0  0  0  0  0
   -2.7861   -3.3218    1.0368 C   0  0  0  0  0  0  0  0  0  0  0  0
   -3.6963   -3.6321    1.5716 H   0  0  0  0  0  0  0  0  0  0  0  0
    2.7358   -0.7344    0.1533 C   0  0  0  0  0  0  0  0  0  0  0  0
    0.7084    1.4494    1.1951 C   0  0  0  0  0  0  0  0  0  0  0  0
   -2.5574    3.4200    1.1374 C   0  0  0  0  0  0  0  0  0  0  0  0
   -3.4017    3.7652    1.7527 H   0  0  0  0  0  0  0  0  0  0  0  0
    0.7945    2.0705   -1.0572 C   0  0  0  0  0  0  0  0  0  0  0  0
    1.1310    2.1669   -2.0948 H   0  0  0  0  0  0  0  0  0  0  0  0
   -0.4216    2.6001   -0.5029 C   0  0  0  0  0  0  0  0  0  0  0  0
    5.1591   -0.8350   -0.0713 C   0  0  0  0  0  0  0  0  0  0  0  0
    6.0904   -1.4212   -0.0672 H   0  0  0  0  0  0  0  0  0  0  0  0
    1.1326    0.8289    2.5015 C   0  0  0  0  0  0  0  0  0  0  0  0
    0.7869    1.4524    3.3509 H   0  0  0  0  0  0  0  0  0  0  0  0
    2.2404    0.8368    2.5399 H   0  0  0  0  0  0  0  0  0  0  0  0
   -0.6622   -2.1688    0.9883 C   0  0  0  0  0  0  0  0  0  0  0  0
   -1.4963    3.3423   -1.0745 C   0  0  0  0  0  3  0  0  0  0  0  0
   -1.4822    3.5928   -2.1451 H   0  0  0  0  0  0  0  0  0  0  0  0
    5.1982    0.5458   -0.3213 C   0  0  0  0  0  0  0  0  0  0  0  0
    6.1603    1.0443   -0.5131 H   0  0  0  0  0  0  0  0  0  0  0  0
    0.6171   -0.6241    2.6769 C   0  0  0  0  0  0  0  0  0  0  0  0
    1.2857   -1.1834    3.3679 H   0  0  0  0  0  0  0  0  0  0  0  0
   -0.3786   -0.6029    3.1646 H   0  0  0  0  0  0  0  0  0  0  0  0
    1.4956    1.4028   -0.0108 C   0  0  0  0  0  0  0  0  0  0  0  0
    4.0109    1.2945   -0.3264 C   0  0  0  0  0  0  0  0  0  0  0  0
    4.0322    2.3784   -0.5149 H   0  0  0  0  0  0  0  0  0  0  0  0
   -0.4725   -2.6008   -0.3843 C   0  0  0  0  0  0  0  0  0  0  0  0
   -0.4638    2.2339    0.9067 C   0  0  0  0  0  0  0  0  0  0  0  0
   -2.5386    3.7431   -0.2541 C   0  0  0  0  0  0  0  0  0  0  0  0
   -3.3726    4.3216   -0.6783 H   0  0  0  0  0  0  0  0  0  0  0  0
   -1.5476    2.6717    1.7202 C   0  0  0  0  0  0  0  0  0  0  0  0
   -1.5814    2.4079    2.7877 H   0  0  0  0  0  0  0  0  0  0  0  0
   -1.8342   -2.5590    1.6949 C   0  0  0  0  0  0  0  0  0  0  0  0
   -1.9828   -2.2523    2.7406 H   0  0  0  0  0  0  0  0  0  0  0  0
  1  4  1  1  0  0  0
  1 31  1  0  0  0  0
  2 12  1  0  0  0  0
  3  2  1  0  0  0  0
  5 37  1  0  0  0  0
  5  2  2  0  0  0  0
  6  5  1  0  0  0  0
  7 37  1  0  0  0  0
  7  4  2  0  0  0  0
  8  7  1  0  0  0  0
  9 10  1  0  0  0  0
 11 34  1  0  0  0  0
 11 14  2  0  0  0  0
 12 13  1  0  0  0  0
 12 43  2  0  0  0  0
 14  9  1  0  0  0  0
 14  4  1  0  0  0  0
 15 23  1  0  0  0  0
 16 41  1  0  0  0  0
 16 17  1  0  0  0  0
 18 20  2  0  0  0  0
 18 34  1  0  0  0  0
 19 18  1  0  0  0  0
 20 38  1  0  0  0  0
 21 22  1  0  0  0  0
 21  9  2  0  0  0  0
 23 25  1  0  0  0  0
 23 31  1  0  0  0  0
 23 24  1  0  0  0  0
 26  1  1  0  0  0  0
 26 43  1  0  0  0  0
 27 20  1  0  0  0  0
 27 39  1  0  0  0  0
 28 27  1  0  0  0  0
 29 21  1  0  0  0  0
 30 29  1  0  0  0  0
 31 33  1  0  0  0  0
 31 32  1  0  0  0  0
 34 15  2  0  0  0  0
 35 29  2  0  0  0  0
 35 11  1  0  0  0  0
 36 35  1  0  0  0  0
 37 26  2  0  0  0  0
 38 15  1  0  0  0  0
 38 41  2  0  0  0  0
 39 16  2  0  0  0  0
 40 39  1  0  0  0  0
 41 42  1  0  0  0  0
 43 44  1  0  0  0  0
M  END
