8
q = 0.0, confidence = 0.99

 22 21  0  0  0  0  0  0  0  0999 V2000
    3.6198   -0.9620   -1.5888 O   0  0  0  0  0  0  0  0  0  0  0  0
    3.3916    1.2957   -1.6548 O   0  0  0  0  0  0  0  0  0  0  0  0
   -3.4303   -1.2436   -1.5969 O   0  0  0  0  0  0  0  0  0  0  0  0
   -3.3723    1.0213   -1.7620 O   0  0  0  0  0  0  0  0  0  0  0  0
    2.9062    0.0278   -1.6894 C   0  0  0  0  0  0  0  0  0  0  0  0
    1.4375    0.0129   -1.8847 C   0  0  0  0  0  3  0  0  0  0  0  0
    0.8252   -1.2604   -2.1439 C   0  0  0  0  0  3  0  0  0  0  0  0
   -0.6014   -1.3302   -2.1588 C   0  0  0  0  0  3  0  0  0  0  0  0
   -1.3297   -0.1141   -1.9325 C   0  0  0  0  0  3  0  0  0  0  0  0
   -2.7966   -0.2067   -1.7430 C   0  0  0  0  0  0  0  0  0  0  0  0
    4.7908    1.4064   -1.3686 C   0  0  0  0  0  0  0  0  0  0  0  0
   -4.7601    1.0645   -1.4120 C   0  0  0  0  0  0  0  0  0  0  0  0
    1.0330    0.9387   -2.3218 H   0  0  0  0  0  0  0  0  0  0  0  0
    1.4515   -2.1633   -2.2164 H   0  0  0  0  0  0  0  0  0  0  0  0
   -1.1355   -2.2896   -2.2407 H   0  0  0  0  0  0  0  0  0  0  0  0
   -0.9870    0.8248   -2.3953 H   0  0  0  0  0  0  0  0  0  0  0  0
    4.9969    1.0389   -0.3429 H   0  0  0  0  0  0  0  0  0  0  0  0
    5.3912    0.8185   -2.0916 H   0  0  0  0  0  0  0  0  0  0  0  0
    5.0361    2.4807   -1.4506 H   0  0  0  0  0  0  0  0  0  0  0  0
   -5.3527    0.3777   -2.0493 H   0  0  0  0  0  0  0  0  0  0  0  0
   -5.0825    2.1095   -1.5707 H   0  0  0  0  0  0  0  0  0  0  0  0
   -4.8839    0.7806   -0.3474 H   0  0  0  0  0  0  0  0  0  0  0  0
  2 11  1  0  0  0  0
  4 10  1  0  0  0  0
  4 12  1  0  0  0  0
  5  2  1  0  0  0  0
  5  1  2  0  0  0  0
  6  5  1  0  0  0  0
  7  6  1  0  0  0  0
  8  7  1  0  0  0  0
  8  9  1  0  0  0  0
  9 10  1  0  0  0  0
 10  3  2  0  0  0  0
 11 17  1  0  0  0  0
 12 22  1  0  0  0  0
 13  6  1  0  0  0  0
 14  7  1  0  0  0  0
 15  8  1  0  0  0  0
 16  9  1  0  0  0  0
 18 11  1  0  0  0  0
 19 11  1  0  0  0  0
 20 12  1  0  0  0  0
 21 12  1  0  0  0  0
M  END
