1
q = -1.0

 20 20  0  0  1  0  0  0  0  0999 V2000
   -0.3206    0.6388   -0.7905 C   0  0  0  0  0  3  0  0  0  0  0  0
   -1.0554    1.5403    0.2259 C   0  0  1  0  0  0  0  0  0  0  0  0
   -2.7506   -0.1010    0.5412 C   0  0  1  0  0  0  0  0  0  0  0  0
   -2.0488   -1.0112   -0.4804 C   0  0  1  0  0  0  0  0  0  0  0  0
   -3.4297   -0.8541    1.6716 C   0  0  0  0  0  0  0  0  0  0  0  0
   -3.0044   -1.8193   -1.3425 C   0  0  0  0  0  0  0  0  0  0  0  0
   -1.9333    2.5093   -0.4809 C   0  0  0  0  0  0  0  0  0  0  0  0
   -1.7906    0.7765    1.1619 O   0  0  0  0  0  0  0  0  0  0  0  0
   -1.2514   -0.2342   -1.3801 O   0  0  0  0  0  0  0  0  0  0  0  0
   -2.6038    3.2814   -1.0538 N   0  0  0  0  0  0  0  0  0  0  0  0
   -4.2628   -1.4765    1.2933 H   0  0  0  0  0  0  0  0  0  0  0  0
   -2.7012   -1.5038    2.1966 H   0  0  0  0  0  0  0  0  0  0  0  0
   -3.8387   -0.1322    2.4042 H   0  0  0  0  0  0  0  0  0  0  0  0
   -3.7077   -1.1498   -1.8773 H   0  0  0  0  0  0  0  0  0  0  0  0
   -2.4258   -2.3875   -2.0960 H   0  0  0  0  0  0  0  0  0  0  0  0
   -3.5850   -2.5381   -0.7334 H   0  0  0  0  0  0  0  0  0  0  0  0
    0.0576    1.2510   -1.6322 H   0  0  0  0  0  0  0  0  0  0  0  0
   -0.3265    2.1315    0.8158 H   0  0  0  0  0  0  0  0  0  0  0  0
   -3.4940    0.5244   -0.0122 H   0  0  0  0  0  0  0  0  0  0  0  0
   -1.3780   -1.7023    0.0854 H   0  0  0  0  0  0  0  0  0  0  0  0
  1  2  1  0  0  0  0
  2 18  1  1  0  0  0
  2  8  1  0  0  0  0
  3 19  1  6  0  0  0
  3  8  1  0  0  0  0
  3  5  1  0  0  0  0
  4 20  1  1  0  0  0
  4  3  1  0  0  0  0
  5 12  1  0  0  0  0
  5 13  1  0  0  0  0
  6 16  1  0  0  0  0
  6  4  1  0  0  0  0
  7  2  1  0  0  0  0
  9  1  1  0  0  0  0
  9  4  1  0  0  0  0
 10  7  3  0  0  0  0
 11  5  1  0  0  0  0
 14  6  1  0  0  0  0
 15  6  1  0  0  0  0
 17  1  1  0  0  0  0
M  END
