2
q = 0.0, confidence = 0.936

  8  7  0  0  0  0  0  0  0  0999 V2000
    0.1094   -2.9241   -0.5659 N   0  0  0  0  0  0  0  0  0  0  0  0
   -0.4062   -2.2819    0.4894 C   0  0  0  0  0  2  0  0  0  0  0  0
   -1.3989   -3.1579    1.2241 C   0  0  0  0  0  0  0  0  0  0  0  0
   -1.0326   -3.3829    2.2449 H   0  0  0  0  0  0  0  0  0  0  0  0
   -1.5824   -4.1268    0.7113 H   0  0  0  0  0  0  0  0  0  0  0  0
   -2.3713   -2.6433    1.3383 H   0  0  0  0  0  0  0  0  0  0  0  0
    0.9021   -2.5423   -1.0934 H   0  0  0  0  0  0  0  0  0  0  0  0
   -0.1436   -3.8971   -0.7748 H   0  0  0  0  0  0  0  0  0  0  0  0
  1  2  1  0  0  0  0
  2  3  1  0  0  0  0
  3  6  1  0  0  0  0
  3  4  1  0  0  0  0
  5  3  1  0  0  0  0
  7  1  1  0  0  0  0
  8  1  1  0  0  0  0
M  END
