2
q = -1.0

 24 25  0  0  0  0  0  0  0  0999 V2000
    0.5307    0.4820   -1.8046 C   0  0  0  0  0  3  0  0  0  0  0  0
   -0.7842    1.0066   -1.9994 C   0  0  0  0  0  3  0  0  0  0  0  0
   -1.2905    1.8145   -0.9330 C   0  0  0  0  0  3  0  0  0  0  0  0
   -0.4468    2.8386   -0.1941 C   0  0  0  0  0  0  0  0  0  0  0  0
    1.0533    2.4940   -0.1355 C   0  0  0  0  0  0  0  0  0  0  0  0
    1.3561    0.9783   -0.5822 B   0  0  0  0  0  0  0  0  0  0  0  0
    2.7047    0.2461   -0.1837 C   0  0  0  0  0  0  0  0  0  0  0  0
    2.9648   -1.1010   -0.5367 C   0  0  0  0  0  0  0  0  0  0  0  0
    4.1698   -1.7344   -0.2036 C   0  0  0  0  0  0  0  0  0  0  0  0
    5.1640   -1.0295    0.4962 C   0  0  0  0  0  0  0  0  0  0  0  0
    4.9365    0.3071    0.8583 C   0  0  0  0  0  0  0  0  0  0  0  0
    3.7222    0.9276    0.5253 C   0  0  0  0  0  0  0  0  0  0  0  0
    0.9051   -0.2512   -2.5392 H   0  0  0  0  0  0  0  0  0  0  0  0
   -1.4238    0.7049   -2.8459 H   0  0  0  0  0  0  0  0  0  0  0  0
   -2.3614    2.0836   -1.0014 H   0  0  0  0  0  0  0  0  0  0  0  0
   -0.6214    3.8290   -0.6776 H   0  0  0  0  0  0  0  0  0  0  0  0
   -0.8580    2.9474    0.8328 H   0  0  0  0  0  0  0  0  0  0  0  0
    1.6213    3.1306   -0.8516 H   0  0  0  0  0  0  0  0  0  0  0  0
    1.4645    2.7373    0.8656 H   0  0  0  0  0  0  0  0  0  0  0  0
    2.1959   -1.6763   -1.0769 H   0  0  0  0  0  0  0  0  0  0  0  0
    4.3369   -2.7851   -0.4886 H   0  0  0  0  0  0  0  0  0  0  0  0
    6.1124   -1.5229    0.7603 H   0  0  0  0  0  0  0  0  0  0  0  0
    5.7093    0.8683    1.4069 H   0  0  0  0  0  0  0  0  0  0  0  0
    3.5627    1.9763    0.8223 H   0  0  0  0  0  0  0  0  0  0  0  0
  1  6  1  0  0  0  0
  2  1  1  0  0  0  0
  2  3  1  0  0  0  0
  3  4  1  0  0  0  0
  4  5  1  0  0  0  0
  4 17  1  0  0  0  0
  5 19  1  0  0  0  0
  6  7  1  0  0  0  0
  6  5  1  0  0  0  0
  7 12  1  0  0  0  0
  8  9  1  0  0  0  0
  8  7  2  0  0  0  0
  9 10  2  0  0  0  0
 10 22  1  0  0  0  0
 10 11  1  0  0  0  0
 11 23  1  0  0  0  0
 12 24  1  0  0  0  0
 12 11  2  0  0  0  0
 13  1  1  0  0  0  0
 14  2  1  0  0  0  0
 15  3  1  0  0  0  0
 16  4  1  0  0  0  0
 18  5  1  0  0  0  0
 20  8  1  0  0  0  0
 21  9  1  0  0  0  0
M  END
