6
q = 0.0, confidence = 0.988

 35 35  0  0  0  0  0  0  0  0999 V2000
   -0.1304    2.3218    0.4064 O   0  0  0  0  0  0  0  0  0  0  0  0
   -0.5044   -1.4788   -0.7024 O   0  0  0  0  0  0  0  0  0  0  0  0
    0.4231   -1.7442    1.3571 O   0  0  0  0  0  0  0  0  0  0  0  0
    4.1342    0.0967    0.8864 O   0  0  0  0  0  0  0  0  0  0  0  0
    4.0060    0.7897   -1.3554 O   0  0  0  0  0  0  0  0  0  0  0  0
   -0.4211    1.0524    0.1444 C   0  0  0  0  0  2  0  0  0  0  0  0
    0.8372    0.2814    0.0270 C   0  0  0  0  0  0  0  0  0  0  0  0
    0.6849   -1.2244    0.0516 C   0  0  0  0  0  0  0  0  0  0  0  0
    1.8991   -1.9465   -0.4826 C   0  0  0  0  0  0  0  0  0  0  0  0
    3.1033   -1.3632   -0.5961 C   0  0  0  0  0  0  0  0  0  0  0  0
    3.3387    0.1018   -0.3085 C   0  0  0  0  0  0  0  0  0  0  0  0
    2.0508    0.8634   -0.1315 C   0  0  0  0  0  0  0  0  0  0  0  0
   -1.1635    3.3099    0.4659 C   0  0  0  0  0  0  0  0  0  0  0  0
   -0.9089   -2.8532   -0.8019 C   0  0  0  0  0  0  0  0  0  0  0  0
    1.2106   -1.2319    2.4226 C   0  0  0  0  0  0  0  0  0  0  0  0
    4.4140    1.3754    1.4481 C   0  0  0  0  0  0  0  0  0  0  0  0
    5.2332    0.2282   -1.8029 C   0  0  0  0  0  0  0  0  0  0  0  0
   -1.7457    3.3234   -0.4754 H   0  0  0  0  0  0  0  0  0  0  0  0
   -1.8461    3.1086    1.3130 H   0  0  0  0  0  0  0  0  0  0  0  0
   -0.6480    4.2765    0.6127 H   0  0  0  0  0  0  0  0  0  0  0  0
   -0.1015   -3.4655   -1.2494 H   0  0  0  0  0  0  0  0  0  0  0  0
   -1.7800   -2.8703   -1.4772 H   0  0  0  0  0  0  0  0  0  0  0  0
   -1.1878   -3.2562    0.1911 H   0  0  0  0  0  0  0  0  0  0  0  0
    2.2952   -1.2236    2.1742 H   0  0  0  0  0  0  0  0  0  0  0  0
    1.0364   -1.9000    3.2869 H   0  0  0  0  0  0  0  0  0  0  0  0
    0.9015   -0.1998    2.7010 H   0  0  0  0  0  0  0  0  0  0  0  0
    5.2497    1.2327    2.1595 H   0  0  0  0  0  0  0  0  0  0  0  0
    4.7233    2.1039    0.6678 H   0  0  0  0  0  0  0  0  0  0  0  0
    3.5412    1.7870    2.0024 H   0  0  0  0  0  0  0  0  0  0  0  0
    5.0750   -0.6185   -2.5075 H   0  0  0  0  0  0  0  0  0  0  0  0
    5.7723    1.0314   -2.3409 H   0  0  0  0  0  0  0  0  0  0  0  0
    5.8589   -0.1174   -0.9516 H   0  0  0  0  0  0  0  0  0  0  0  0
    1.7977   -3.0304   -0.6375 H   0  0  0  0  0  0  0  0  0  0  0  0
    3.9894   -1.9616   -0.8563 H   0  0  0  0  0  0  0  0  0  0  0  0
    2.1220    1.9602   -0.1627 H   0  0  0  0  0  0  0  0  0  0  0  0
  1 13  1  0  0  0  0
  2  8  1  0  0  0  0
  3 15  1  0  0  0  0
  4 16  1  0  0  0  0
  5 11  1  0  0  0  0
  6  1  1  0  0  0  0
  7  8  1  0  0  0  0
  7  6  1  0  0  0  0
  8  3  1  0  0  0  0
  9  8  1  0  0  0  0
 10  9  2  0  0  0  0
 10 11  1  0  0  0  0
 11 12  1  0  0  0  0
 11  4  1  0  0  0  0
 12  7  2  0  0  0  0
 13 20  1  0  0  0  0
 13 19  1  0  0  0  0
 14  2  1  0  0  0  0
 14 23  1  0  0  0  0
 15 26  1  0  0  0  0
 15 25  1  0  0  0  0
 16 29  1  0  0  0  0
 16 27  1  0  0  0  0
 17  5  1  0  0  0  0
 17 32  1  0  0  0  0
 18 13  1  0  0  0  0
 21 14  1  0  0  0  0
 22 14  1  0  0  0  0
 24 15  1  0  0  0  0
 28 16  1  0  0  0  0
 30 17  1  0  0  0  0
 31 17  1  0  0  0  0
 33  9  1  0  0  0  0
 34 10  1  0  0  0  0
 35 12  1  0  0  0  0
M  END
