3
q = -1.0, confidence = 0.0

 46 46  0  0  1  0  0  0  0  0999 V2000
   -0.9841    0.4034    1.1082 C   0  0  0  0  0  0  0  0  0  0  0  0
   -1.0188    1.1059   -0.2014 C   0  0  2  0  0  3  0  0  0  0  0  0
    0.3433    1.5993   -0.3920 C   0  0  0  0  0  3  0  0  0  0  0  0
    0.6589    2.2180   -1.2371 H   0  0  0  0  0  0  0  0  0  0  0  0
    1.2397    1.0967    0.6274 C   0  0  2  0  0  3  0  0  0  0  0  0
    0.3555    0.4041    1.5459 C   0  0  0  0  0  0  0  0  0  0  0  0
    0.7182   -0.1487    2.4175 H   0  0  0  0  0  0  0  0  0  0  0  0
   -2.0808   -0.2433    1.9737 C   0  0  0  0  0  0  0  0  0  0  0  0
   -2.6613    0.8725    2.8798 C   0  0  0  0  0  0  0  0  0  0  0  0
   -3.1170    1.6912    2.2935 H   0  0  0  0  0  0  0  0  0  0  0  0
   -1.8686    1.3133    3.5172 H   0  0  0  0  0  0  0  0  0  0  0  0
   -3.4433    0.4493    3.5439 H   0  0  0  0  0  0  0  0  0  0  0  0
   -3.2095   -0.9281    1.1813 C   0  0  0  0  0  0  0  0  0  0  0  0
   -3.8325   -0.2090    0.6216 H   0  0  0  0  0  0  0  0  0  0  0  0
   -3.8811   -1.4570    1.8874 H   0  0  0  0  0  0  0  0  0  0  0  0
   -2.7892   -1.6627    0.4677 H   0  0  0  0  0  0  0  0  0  0  0  0
   -1.4778   -1.3225    2.9017 C   0  0  0  0  0  0  0  0  0  0  0  0
   -2.2878   -1.7808    3.5030 H   0  0  0  0  0  0  0  0  0  0  0  0
   -0.7399   -0.9096    3.6166 H   0  0  0  0  0  0  0  0  0  0  0  0
   -0.9898   -2.1262    2.3174 H   0  0  0  0  0  0  0  0  0  0  0  0
   -2.1657    1.5697   -1.1301 C   0  0  0  0  0  0  0  0  0  0  0  0
   -1.6106    2.5569   -2.1830 C   0  0  0  0  0  0  0  0  0  0  0  0
   -2.4345    2.8714   -2.8539 H   0  0  0  0  0  0  0  0  0  0  0  0
   -0.8318    2.0884   -2.8170 H   0  0  0  0  0  0  0  0  0  0  0  0
   -1.1898    3.4708   -1.7178 H   0  0  0  0  0  0  0  0  0  0  0  0
   -3.2445    2.3355   -0.3335 C   0  0  0  0  0  0  0  0  0  0  0  0
   -3.9781    2.7860   -1.0326 H   0  0  0  0  0  0  0  0  0  0  0  0
   -2.7935    3.1562    0.2608 H   0  0  0  0  0  0  0  0  0  0  0  0
   -3.8083    1.6824    0.3563 H   0  0  0  0  0  0  0  0  0  0  0  0
   -2.7892    0.3983   -1.9210 C   0  0  0  0  0  0  0  0  0  0  0  0
   -3.1536   -0.4134   -1.2720 H   0  0  0  0  0  0  0  0  0  0  0  0
   -2.0355   -0.0448   -2.6009 H   0  0  0  0  0  0  0  0  0  0  0  0
   -3.6381    0.7672   -2.5331 H   0  0  0  0  0  0  0  0  0  0  0  0
    2.6714    1.5299    0.9107 C   0  0  0  0  0  0  0  0  0  0  0  0
    3.3933    0.4469    1.7346 C   0  0  0  0  0  0  0  0  0  0  0  0
    2.9474    0.3393    2.7445 H   0  0  0  0  0  0  0  0  0  0  0  0
    4.4586    0.7213    1.8745 H   0  0  0  0  0  0  0  0  0  0  0  0
    3.3341   -0.5362    1.2275 H   0  0  0  0  0  0  0  0  0  0  0  0
    3.4304    1.7565   -0.4090 C   0  0  0  0  0  0  0  0  0  0  0  0
    3.4774    0.8223   -1.0036 H   0  0  0  0  0  0  0  0  0  0  0  0
    4.4664    2.0936   -0.2030 H   0  0  0  0  0  0  0  0  0  0  0  0
    2.9475    2.5350   -1.0340 H   0  0  0  0  0  0  0  0  0  0  0  0
    2.6180    2.8512    1.7114 C   0  0  0  0  0  0  0  0  0  0  0  0
    2.1194    3.6524    1.1290 H   0  0  0  0  0  0  0  0  0  0  0  0
    3.6420    3.1959    1.9647 H   0  0  0  0  0  0  0  0  0  0  0  0
    2.0563    2.7198    2.6586 H   0  0  0  0  0  0  0  0  0  0  0  0
  1  6  2  0  0  0  0
  1  8  1  0  0  0  0
  2 21  1  1  0  0  0
  2  1  1  0  0  0  0
  3  2  1  0  0  0  0
  3  5  1  0  0  0  0
  4  3  1  0  0  0  0
  5 34  1  1  0  0  0
  5  6  1  0  0  0  0
  6  7  1  0  0  0  0
  8  9  1  0  0  0  0
  8 17  1  0  0  0  0
  9 11  1  0  0  0  0
  9 12  1  0  0  0  0
 10  9  1  0  0  0  0
 13 15  1  0  0  0  0
 13  8  1  0  0  0  0
 14 13  1  0  0  0  0
 16 13  1  0  0  0  0
 17 18  1  0  0  0  0
 17 19  1  0  0  0  0
 20 17  1  0  0  0  0
 21 26  1  0  0  0  0
 22 25  1  0  0  0  0
 22 21  1  0  0  0  0
 23 22  1  0  0  0  0
 24 22  1  0  0  0  0
 26 28  1  0  0  0  0
 26 29  1  0  0  0  0
 27 26  1  0  0  0  0
 30 31  1  0  0  0  0
 30 21  1  0  0  0  0
 32 30  1  0  0  0  0
 33 30  1  0  0  0  0
 34 43  1  0  0  0  0
 34 35  1  0  0  0  0
 35 37  1  0  0  0  0
 35 36  1  0  0  0  0
 38 35  1  0  0  0  0
 39 41  1  0  0  0  0
 39 34  1  0  0  0  0
 40 39  1  0  0  0  0
 42 39  1  0  0  0  0
 43 45  1  0  0  0  0
 43 46  1  0  0  0  0
 44 43  1  0  0  0  0
M  END
