5
q = 0.0, confidence = 0.986

 22 24  0  0  1  0  0  0  0  0999 V2000
    2.1886    1.3052   -0.0002 C   0  0  1  0  0  0  0  0  0  0  0  0
    1.3793    0.7041   -1.1660 C   0  0  0  0  0  0  0  0  0  0  0  0
    1.3793   -0.7040   -1.1660 C   0  0  0  0  0  0  0  0  0  0  0  0
    2.1885   -1.3052   -0.0002 C   0  0  2  0  0  0  0  0  0  0  0  0
    1.3789   -0.7041    1.1653 C   0  0  0  0  0  3  0  0  0  0  0  0
    1.3789    0.7041    1.1653 C   0  0  0  0  0  3  0  0  0  0  0  0
    3.5765    0.7054   -0.0000 C   0  0  0  0  0  0  0  0  0  0  0  0
    3.5765   -0.7054   -0.0000 C   0  0  0  0  0  0  0  0  0  0  0  0
    4.7805   -1.4118    0.0002 C   0  0  0  0  0  0  0  0  0  0  0  0
    4.8002   -2.7489    0.0002 F   0  0  0  0  0  0  0  0  0  0  0  0
    6.0008   -0.7043    0.0003 C   0  0  0  0  0  0  0  0  0  0  0  0
    7.1560   -1.3611    0.0005 F   0  0  0  0  0  0  0  0  0  0  0  0
    6.0008    0.7042    0.0003 C   0  0  0  0  0  0  0  0  0  0  0  0
    7.1560    1.3611    0.0005 F   0  0  0  0  0  0  0  0  0  0  0  0
    4.7805    1.4118    0.0002 C   0  0  0  0  0  0  0  0  0  0  0  0
    4.8003    2.7489    0.0002 F   0  0  0  0  0  0  0  0  0  0  0  0
    2.1805    2.4065   -0.0002 H   0  0  0  0  0  0  0  0  0  0  0  0
    1.1127    1.3182   -2.0385 H   0  0  0  0  0  0  0  0  0  0  0  0
    1.1127   -1.3181   -2.0385 H   0  0  0  0  0  0  0  0  0  0  0  0
    2.1804   -2.4065   -0.0002 H   0  0  0  0  0  0  0  0  0  0  0  0
    1.1125   -1.3182    2.0379 H   0  0  0  0  0  0  0  0  0  0  0  0
    1.1125    1.3182    2.0379 H   0  0  0  0  0  0  0  0  0  0  0  0
  1 17  1  1  0  0  0
  1  7  1  0  0  0  0
  1  6  1  0  0  0  0
  2  1  1  0  0  0  0
  3  2  2  0  0  0  0
  3  4  1  0  0  0  0
  4 20  1  6  0  0  0
  4  8  1  0  0  0  0
  4  5  1  0  0  0  0
  5 21  1  0  0  0  0
  6  5  1  0  0  0  0
  6 22  1  0  0  0  0
  7  8  2  0  0  0  0
  7 15  1  0  0  0  0
  8  9  1  0  0  0  0
  9 10  1  0  0  0  0
  9 11  2  0  0  0  0
 11 13  1  0  0  0  0
 11 12  1  0  0  0  0
 13 14  1  0  0  0  0
 15 16  1  0  0  0  0
 15 13  2  0  0  0  0
 18  2  1  0  0  0  0
 19  3  1  0  0  0  0
M  END
