4
q = -1.0, confidence = 0.002

 13 13  0  0  0  0  0  0  0  0999 V2000
    0.4873    2.3806   -2.0079 N   0  0  0  0  0  0  0  0  0  0  0  0
    0.5412    1.1955   -2.3599 O   0  0  0  0  0  0  0  0  0  0  0  0
    0.3550    3.3148   -2.8021 O   0  0  0  0  0  0  0  0  0  0  0  0
    0.7463    1.6835    0.4052 C   0  0  0  0  0  3  0  0  0  0  0  0
    0.5578    2.6999   -0.5653 C   0  0  0  0  0  0  0  0  0  0  0  0
    0.3967    4.0578   -0.2293 C   0  0  0  0  0  0  0  0  0  0  0  0
    0.4214    4.4480    1.1095 C   0  0  0  0  0  0  0  0  0  0  0  0
    0.6131    3.4709    2.1034 C   0  0  0  0  0  0  0  0  0  0  0  0
    0.7748    2.1242    1.7543 C   0  0  0  0  0  0  0  0  0  0  0  0
    0.2496    4.7763   -1.0458 H   0  0  0  0  0  0  0  0  0  0  0  0
    0.2919    5.5065    1.3789 H   0  0  0  0  0  0  0  0  0  0  0  0
    0.6373    3.7620    3.1653 H   0  0  0  0  0  0  0  0  0  0  0  0
    0.9248    1.3805    2.5505 H   0  0  0  0  0  0  0  0  0  0  0  0
  1  5  1  0  0  0  0
  2  1  2  0  0  0  0
  3  1  2  0  0  0  0
  4  9  1  0  0  0  0
  5  6  1  0  0  0  0
  5  4  2  0  0  0  0
  6  7  2  0  0  0  0
  7 11  1  0  0  0  0
  7  8  1  0  0  0  0
  8 12  1  0  0  0  0
  9  8  2  0  0  0  0
  9 13  1  0  0  0  0
 10  6  1  0  0  0  0
M  END
