1
q = 0.0, confidence = 1.0

 42 43  0  0  0  0  0  0  0  0999 V2000
    4.5049   -0.0320   -0.0050 C   0  0  0  0  0  1  0  0  0  0  0  0
   -6.5211    0.9805    0.1471 O   0  0  0  0  0  0  0  0  0  0  0  0
    3.3239    0.0670    0.0098 N   0  0  0  0  0  2  0  0  0  0  0  0
   -5.1839    0.7675    0.1142 C   0  0  0  0  0  0  0  0  0  0  0  0
    1.9543    0.1801    0.0274 C   0  0  0  0  0  0  0  0  0  0  0  0
   -2.3450    0.5345    0.0823 C   0  0  0  0  0  0  0  0  0  0  0  0
   -0.8716    0.4130    0.0643 C   0  0  0  0  0  0  0  0  0  0  0  0
    1.3383    1.3742   -0.4082 C   0  0  0  0  0  0  0  0  0  0  0  0
    1.9624    2.2033   -0.7699 H   0  0  0  0  0  0  0  0  0  0  0  0
    1.1626   -0.8979    0.4819 C   0  0  0  0  0  0  0  0  0  0  0  0
    1.6520   -1.8184    0.8298 H   0  0  0  0  0  0  0  0  0  0  0  0
   -4.5741   -0.4877   -0.0996 C   0  0  0  0  0  0  0  0  0  0  0  0
   -5.1790   -1.3878   -0.2700 H   0  0  0  0  0  0  0  0  0  0  0  0
   -3.1773   -0.5896   -0.1103 C   0  0  0  0  0  0  0  0  0  0  0  0
   -2.7249   -1.5731   -0.3076 H   0  0  0  0  0  0  0  0  0  0  0  0
   -0.0529    1.4777   -0.3874 C   0  0  0  0  0  0  0  0  0  0  0  0
   -0.5209    2.4011   -0.7578 H   0  0  0  0  0  0  0  0  0  0  0  0
   -2.9785    1.7856    0.2918 C   0  0  0  0  0  0  0  0  0  0  0  0
   -2.3672    2.6816    0.4759 H   0  0  0  0  0  0  0  0  0  0  0  0
   -4.3661    1.9039    0.3113 C   0  0  0  0  0  0  0  0  0  0  0  0
   -4.8554    2.8722    0.4894 H   0  0  0  0  0  0  0  0  0  0  0  0
   -9.8731   -0.7211   -0.1196 C   0  0  0  0  0  0  0  0  0  0  0  0
   -9.7190   -1.2198   -1.1033 H   0  0  0  0  0  0  0  0  0  0  0  0
   -9.7102   -1.5129    0.6464 H   0  0  0  0  0  0  0  0  0  0  0  0
   -7.4059   -0.1248   -0.0320 C   0  0  0  0  0  0  0  0  0  0  0  0
   -7.2120   -0.8975    0.7487 H   0  0  0  0  0  0  0  0  0  0  0  0
   -7.2222   -0.6026   -1.0231 H   0  0  0  0  0  0  0  0  0  0  0  0
   -0.2266   -0.7720    0.4979 C   0  0  0  0  0  0  0  0  0  0  0  0
   -0.8298   -1.6063    0.8839 H   0  0  0  0  0  0  0  0  0  0  0  0
  -11.3177   -0.2224   -0.0288 C   0  0  0  0  0  0  0  0  0  0  0  0
  -11.4815    0.5699   -0.7940 H   0  0  0  0  0  0  0  0  0  0  0  0
  -11.4727    0.2769    0.9545 H   0  0  0  0  0  0  0  0  0  0  0  0
   -8.8338    0.3877    0.0609 C   0  0  0  0  0  0  0  0  0  0  0  0
   -8.9775    1.1776   -0.7074 H   0  0  0  0  0  0  0  0  0  0  0  0
   -8.9688    0.8842    1.0459 H   0  0  0  0  0  0  0  0  0  0  0  0
  -12.3649   -1.3254   -0.2083 C   0  0  0  0  0  0  0  0  0  0  0  0
  -12.2046   -1.8229   -1.1909 H   0  0  0  0  0  0  0  0  0  0  0  0
  -12.1958   -2.1158    0.5568 H   0  0  0  0  0  0  0  0  0  0  0  0
  -13.8045   -0.8186   -0.1161 C   0  0  0  0  0  0  0  0  0  0  0  0
  -14.0041   -0.3486    0.8696 H   0  0  0  0  0  0  0  0  0  0  0  0
  -14.5383   -1.6386   -0.2497 H   0  0  0  0  0  0  0  0  0  0  0  0
  -14.0131   -0.0535   -0.8929 H   0  0  0  0  0  0  0  0  0  0  0  0
  1  3  1  0  0  0  0
  3  5  1  0  0  0  0
  4  2  1  0  0  0  0
  4 20  1  0  0  0  0
  5 10  1  0  0  0  0
  6 18  1  0  0  0  0
  7  6  1  0  0  0  0
  7 28  1  0  0  0  0
  8 16  1  0  0  0  0
  8  5  2  0  0  0  0
  9  8  1  0  0  0  0
 10 28  2  0  0  0  0
 10 11  1  0  0  0  0
 12  4  2  0  0  0  0
 13 12  1  0  0  0  0
 14 12  1  0  0  0  0
 14  6  2  0  0  0  0
 15 14  1  0  0  0  0
 16  7  2  0  0  0  0
 17 16  1  0  0  0  0
 18 20  2  0  0  0  0
 18 19  1  0  0  0  0
 20 21  1  0  0  0  0
 22 30  1  0  0  0  0
 22 33  1  0  0  0  0
 22 24  1  0  0  0  0
 23 22  1  0  0  0  0
 25 33  1  0  0  0  0
 25  2  1  0  0  0  0
 25 26  1  0  0  0  0
 27 25  1  0  0  0  0
 28 29  1  0  0  0  0
 30 32  1  0  0  0  0
 31 30  1  0  0  0  0
 33 35  1  0  0  0  0
 34 33  1  0  0  0  0
 36 39  1  0  0  0  0
 36 30  1  0  0  0  0
 36 38  1  0  0  0  0
 37 36  1  0  0  0  0
 39 40  1  0  0  0  0
 41 39  1  0  0  0  0
 42 39  1  0  0  0  0
M  END
