5
q = 0.0, confidence = 0.988

 48 49  0  0  0  0  0  0  0  0999 V2000
   -5.5287    1.2371    0.1508 O   0  0  0  0  0  0  0  0  0  0  0  0
    4.2882    0.0600    0.0072 N   0  0  0  0  0  2  0  0  0  0  0  0
   -1.3661    0.6792    0.0851 C   0  0  0  0  0  0  0  0  0  0  0  0
    2.9221    0.2099    0.0263 C   0  0  0  0  0  0  0  0  0  0  0  0
    5.4660   -0.0712   -0.0089 C   0  0  0  0  0  1  0  0  0  0  0  0
    2.1043   -0.8324    0.5163 C   0  0  0  0  0  0  0  0  0  0  0  0
    2.5707   -1.7545    0.8906 H   0  0  0  0  0  0  0  0  0  0  0  0
    0.1034    0.5183    0.0658 C   0  0  0  0  0  0  0  0  0  0  0  0
   -4.1978    0.9880    0.1197 C   0  0  0  0  0  0  0  0  0  0  0  0
   -3.6221   -0.2888   -0.0578 C   0  0  0  0  0  0  0  0  0  0  0  0
   -4.2511   -1.1774   -0.1985 H   0  0  0  0  0  0  0  0  0  0  0  0
    2.3358    1.4059   -0.4436 C   0  0  0  0  0  0  0  0  0  0  0  0
    2.9800    2.2068   -0.8327 H   0  0  0  0  0  0  0  0  0  0  0  0
    0.7189   -0.6694    0.5333 C   0  0  0  0  0  0  0  0  0  0  0  0
    0.0956   -1.4753    0.9468 H   0  0  0  0  0  0  0  0  0  0  0  0
    0.9480    1.5467   -0.4212 C   0  0  0  0  0  0  0  0  0  0  0  0
    0.5029    2.4704   -0.8182 H   0  0  0  0  0  0  0  0  0  0  0  0
   -2.2285   -0.4278   -0.0700 C   0  0  0  0  0  0  0  0  0  0  0  0
   -1.8031   -1.4285   -0.2387 H   0  0  0  0  0  0  0  0  0  0  0  0
   -6.4432    0.1509    0.0071 C   0  0  0  0  0  0  0  0  0  0  0  0
   -6.2670   -0.6033    0.8098 H   0  0  0  0  0  0  0  0  0  0  0  0
   -6.2758   -0.3606   -0.9699 H   0  0  0  0  0  0  0  0  0  0  0  0
   -7.8566    0.7037    0.0890 C   0  0  0  0  0  0  0  0  0  0  0  0
   -7.9819    1.4749   -0.7012 H   0  0  0  0  0  0  0  0  0  0  0  0
   -7.9752    1.2316    1.0596 H   0  0  0  0  0  0  0  0  0  0  0  0
   -1.9657    1.9524    0.2584 C   0  0  0  0  0  0  0  0  0  0  0  0
   -1.3302    2.8372    0.4128 H   0  0  0  0  0  0  0  0  0  0  0  0
   -3.3495    2.1079    0.2791 C   0  0  0  0  0  0  0  0  0  0  0  0
   -3.8124    3.0937    0.4292 H   0  0  0  0  0  0  0  0  0  0  0  0
   -8.9258   -0.3815   -0.0571 C   0  0  0  0  0  0  0  0  0  0  0  0
   -8.7814   -1.1558    0.7302 H   0  0  0  0  0  0  0  0  0  0  0  0
   -8.7890   -0.9116   -1.0268 H   0  0  0  0  0  0  0  0  0  0  0  0
  -10.3562    0.1585    0.0242 C   0  0  0  0  0  0  0  0  0  0  0  0
  -10.4938    0.6881    0.9938 H   0  0  0  0  0  0  0  0  0  0  0  0
  -10.5007    0.9338   -0.7617 H   0  0  0  0  0  0  0  0  0  0  0  0
  -12.8630   -0.3822   -0.0412 C   0  0  0  0  0  0  0  0  0  0  0  0
  -13.0025    0.1471    0.9289 H   0  0  0  0  0  0  0  0  0  0  0  0
  -13.0095    0.3942   -0.8264 H   0  0  0  0  0  0  0  0  0  0  0  0
  -11.4322   -0.9202   -0.1226 C   0  0  0  0  0  0  0  0  0  0  0  0
  -11.2853   -1.6958    0.6630 H   0  0  0  0  0  0  0  0  0  0  0  0
  -11.2926   -1.4495   -1.0926 H   0  0  0  0  0  0  0  0  0  0  0  0
  -13.9413   -1.4600   -0.1887 C   0  0  0  0  0  0  0  0  0  0  0  0
  -13.7980   -1.9875   -1.1582 H   0  0  0  0  0  0  0  0  0  0  0  0
  -13.7909   -2.2347    0.5962 H   0  0  0  0  0  0  0  0  0  0  0  0
  -15.3665   -0.9125   -0.1057 C   0  0  0  0  0  0  0  0  0  0  0  0
  -15.5499   -0.4115    0.8679 H   0  0  0  0  0  0  0  0  0  0  0  0
  -16.1232   -1.7152   -0.2157 H   0  0  0  0  0  0  0  0  0  0  0  0
  -15.5571   -0.1622   -0.9015 H   0  0  0  0  0  0  0  0  0  0  0  0
  2  4  1  0  0  0  0
  3 26  1  0  0  0  0
  4  6  1  0  0  0  0
  5  2  1  0  0  0  0
  6 14  2  0  0  0  0
  6  7  1  0  0  0  0
  8  3  1  0  0  0  0
  8 14  1  0  0  0  0
  9  1  1  0  0  0  0
  9 28  1  0  0  0  0
 10  9  2  0  0  0  0
 11 10  1  0  0  0  0
 12 16  1  0  0  0  0
 12  4  2  0  0  0  0
 13 12  1  0  0  0  0
 14 15  1  0  0  0  0
 16  8  2  0  0  0  0
 17 16  1  0  0  0  0
 18 10  1  0  0  0  0
 18  3  2  0  0  0  0
 19 18  1  0  0  0  0
 20 23  1  0  0  0  0
 20  1  1  0  0  0  0
 20 21  1  0  0  0  0
 22 20  1  0  0  0  0
 23 25  1  0  0  0  0
 24 23  1  0  0  0  0
 26 28  2  0  0  0  0
 26 27  1  0  0  0  0
 28 29  1  0  0  0  0
 30 33  1  0  0  0  0
 30 23  1  0  0  0  0
 30 31  1  0  0  0  0
 32 30  1  0  0  0  0
 33 34  1  0  0  0  0
 35 33  1  0  0  0  0
 36 37  1  0  0  0  0
 38 36  1  0  0  0  0
 39 36  1  0  0  0  0
 39 33  1  0  0  0  0
 39 40  1  0  0  0  0
 41 39  1  0  0  0  0
 42 45  1  0  0  0  0
 42 36  1  0  0  0  0
 42 44  1  0  0  0  0
 43 42  1  0  0  0  0
 45 46  1  0  0  0  0
 47 45  1  0  0  0  0
 48 45  1  0  0  0  0
M  END
