10
q = -1.0

 27 27  0  0  0  0  0  0  0  0999 V2000
    0.0091   -0.4267   -2.9965 O   0  0  0  0  0  0  0  0  0  0  0  0
   -0.3664    1.5494   -2.1404 O   0  0  0  0  0  0  0  0  0  0  0  0
    2.3580    2.2704   -2.4190 O   0  0  0  0  0  0  0  0  0  0  0  0
    4.5000    2.2450   -0.6252 O   0  0  0  0  0  0  0  0  0  0  0  0
    4.6552    0.2198    1.2825 O   0  0  0  0  0  0  0  0  0  0  0  0
    3.0153   -1.4186    2.6286 O   0  0  0  0  0  0  0  0  0  0  0  0
    2.5249   -2.9532    1.1758 O   0  0  0  0  0  0  0  0  0  0  0  0
    0.2721    0.4993   -2.2343 N   0  0  0  0  0  0  0  0  0  0  0  0
    2.7098   -1.7559    1.4976 N   0  0  0  0  0  0  0  0  0  0  0  0
    1.4589   -0.7104   -0.3985 C   0  0  0  0  0  3  0  0  0  0  0  0
    1.4440    0.3391   -1.3412 C   0  0  0  0  0  0  0  0  0  0  0  0
    2.4477    1.3226   -1.4552 C   0  0  0  0  0  0  0  0  0  0  0  0
    3.5373    1.2761   -0.5573 C   0  0  0  0  0  0  0  0  0  0  0  0
    3.6058    0.2573    0.4192 C   0  0  0  0  0  0  0  0  0  0  0  0
    2.5893   -0.7306    0.4551 C   0  0  0  0  0  0  0  0  0  0  0  0
    2.1183    3.6074   -1.9483 C   0  0  0  0  0  0  0  0  0  0  0  0
    2.0073    4.2339   -2.8524 H   0  0  0  0  0  0  0  0  0  0  0  0
    2.9692    3.9726   -1.3381 H   0  0  0  0  0  0  0  0  0  0  0  0
    1.1819    3.6332   -1.3543 H   0  0  0  0  0  0  0  0  0  0  0  0
    5.7596    1.8092   -1.1475 C   0  0  0  0  0  0  0  0  0  0  0  0
    6.4256    2.6923   -1.1406 H   0  0  0  0  0  0  0  0  0  0  0  0
    5.6484    1.4437   -2.1913 H   0  0  0  0  0  0  0  0  0  0  0  0
    6.1998    1.0085   -0.5167 H   0  0  0  0  0  0  0  0  0  0  0  0
    4.5765    1.2101    2.3263 C   0  0  0  0  0  0  0  0  0  0  0  0
    5.3670    0.9556    3.0557 H   0  0  0  0  0  0  0  0  0  0  0  0
    3.5829    1.1633    2.8158 H   0  0  0  0  0  0  0  0  0  0  0  0
    4.7486    2.2263    1.9142 H   0  0  0  0  0  0  0  0  0  0  0  0
  1  8  2  0  0  0  0
  3 16  1  0  0  0  0
  3 12  1  0  0  0  0
  4 13  1  0  0  0  0
  5 24  1  0  0  0  0
  7  9  2  0  0  0  0
  8  2  2  0  0  0  0
  8 11  1  0  0  0  0
  9  6  2  0  0  0  0
 10 15  1  0  0  0  0
 11 10  2  0  0  0  0
 12 11  1  0  0  0  0
 12 13  2  0  0  0  0
 13 14  1  0  0  0  0
 14 15  2  0  0  0  0
 14  5  1  0  0  0  0
 15  9  1  0  0  0  0
 16 19  1  0  0  0  0
 16 18  1  0  0  0  0
 17 16  1  0  0  0  0
 20 21  1  0  0  0  0
 20  4  1  0  0  0  0
 20 23  1  0  0  0  0
 22 20  1  0  0  0  0
 24 26  1  0  0  0  0
 24 25  1  0  0  0  0
 27 24  1  0  0  0  0
M  END
