6
q = 0.0, confidence = 0.954

 22 23  0  0  1  0  0  0  0  0999 V2000
   -3.1493    0.3016   -0.8966 O   0  0  0  0  0  0  0  0  0  0  0  0
   -6.4899   -1.6689    0.0915 N   0  0  0  0  0  0  0  0  0  0  0  0
   -2.9757    1.2131    0.1964 C   0  0  2  0  0  0  0  0  0  0  0  0
   -1.6712    0.7194    0.8662 C   0  0  0  0  0  3  0  0  0  0  0  0
   -1.5211    1.1078    1.8902 H   0  0  0  0  0  0  0  0  0  0  0  0
   -1.7002   -0.7299    0.6196 C   0  0  0  0  0  3  0  0  0  0  0  0
   -1.5234   -1.4463    1.4439 H   0  0  0  0  0  0  0  0  0  0  0  0
   -3.0047   -0.9262   -0.1855 C   0  0  1  0  0  0  0  0  0  0  0  0
   -4.1576   -0.7751    0.9194 C   0  0  1  0  0  0  0  0  0  0  0  0
   -3.8794   -1.3395    1.8325 H   0  0  0  0  0  0  0  0  0  0  0  0
   -4.1370    0.7676    1.1456 C   0  0  0  0  0  0  0  0  0  0  0  0
   -3.9582    1.0404    2.2033 H   0  0  0  0  0  0  0  0  0  0  0  0
   -5.0918    1.2249    0.8216 H   0  0  0  0  0  0  0  0  0  0  0  0
   -5.4551   -1.2655    0.4688 C   0  0  0  0  0  0  0  0  0  0  0  0
   -3.0915    2.6346   -0.3091 C   0  0  0  0  0  0  0  0  0  0  0  0
   -2.2468    2.8765   -0.9802 H   0  0  0  0  0  0  0  0  0  0  0  0
   -3.1098    3.3579    0.5301 H   0  0  0  0  0  0  0  0  0  0  0  0
   -4.0325    2.7531   -0.8818 H   0  0  0  0  0  0  0  0  0  0  0  0
   -3.1541   -2.0886   -1.1396 C   0  0  0  0  0  0  0  0  0  0  0  0
   -4.1449   -2.0614   -1.6324 H   0  0  0  0  0  0  0  0  0  0  0  0
   -3.0618   -3.0552   -0.6070 H   0  0  0  0  0  0  0  0  0  0  0  0
   -2.3766   -2.0175   -1.9240 H   0  0  0  0  0  0  0  0  0  0  0  0
  1  8  1  0  0  0  0
  1  3  1  0  0  0  0
  2 14  3  0  0  0  0
  3 15  1  6  0  0  0
  3  4  1  0  0  0  0
  3 11  1  0  0  0  0
  4  5  1  0  0  0  0
  6  4  1  0  0  0  0
  6  7  1  0  0  0  0
  8 19  1  6  0  0  0
  8  6  1  0  0  0  0
  8  9  1  0  0  0  0
  9 11  1  0  0  0  0
  9 10  1  1  0  0  0
 11 12  1  0  0  0  0
 13 11  1  0  0  0  0
 14  9  1  0  0  0  0
 15 17  1  0  0  0  0
 16 15  1  0  0  0  0
 18 15  1  0  0  0  0
 19 21  1  0  0  0  0
 20 19  1  0  0  0  0
 22 19  1  0  0  0  0
M  END
