1
q = 0.0, confidence = 0.978

 28 30  0  0  0  0  0  0  0  0999 V2000
   -1.0865   -1.4313   -0.7122 C   0  0  0  0  0  3  0  0  0  0  0  0
   -0.5515   -2.2621   -1.2050 H   0  0  0  0  0  0  0  0  0  0  0  0
   -1.0865   -1.4320    0.7108 C   0  0  0  0  0  3  0  0  0  0  0  0
   -0.5515   -2.2633    1.2027 H   0  0  0  0  0  0  0  0  0  0  0  0
   -2.0922   -0.7076    1.5371 C   0  0  0  0  0  0  0  0  0  0  0  0
   -3.0066   -1.4056    2.3461 C   0  0  0  0  0  0  0  0  0  0  0  0
   -2.9870   -2.5060    2.3618 H   0  0  0  0  0  0  0  0  0  0  0  0
   -3.9319   -0.7035    3.1328 C   0  0  0  0  0  0  0  0  0  0  0  0
   -4.6453   -1.2562    3.7620 H   0  0  0  0  0  0  0  0  0  0  0  0
   -3.9319    0.7005    3.1335 C   0  0  0  0  0  0  0  0  0  0  0  0
   -4.6453    1.2525    3.7633 H   0  0  0  0  0  0  0  0  0  0  0  0
   -3.0066    1.4033    2.3475 C   0  0  0  0  0  0  0  0  0  0  0  0
   -2.9870    2.5037    2.3643 H   0  0  0  0  0  0  0  0  0  0  0  0
   -2.0922    0.7061    1.5378 C   0  0  0  0  0  0  0  0  0  0  0  0
   -1.0865    1.4313    0.7122 C   0  0  0  0  0  3  0  0  0  0  0  0
   -0.5514    2.2621    1.2049 H   0  0  0  0  0  0  0  0  0  0  0  0
   -1.0866    1.4320   -0.7108 C   0  0  0  0  0  3  0  0  0  0  0  0
   -0.5515    2.2633   -1.2028 H   0  0  0  0  0  0  0  0  0  0  0  0
   -2.0923    0.7076   -1.5370 C   0  0  0  0  0  0  0  0  0  0  0  0
   -3.0069    1.4056   -2.3459 C   0  0  0  0  0  0  0  0  0  0  0  0
   -2.9873    2.5060   -2.3616 H   0  0  0  0  0  0  0  0  0  0  0  0
   -3.9322    0.7035   -3.1325 C   0  0  0  0  0  0  0  0  0  0  0  0
   -4.6457    1.2561   -3.7617 H   0  0  0  0  0  0  0  0  0  0  0  0
   -3.9321   -0.7005   -3.1332 C   0  0  0  0  0  0  0  0  0  0  0  0
   -4.6457   -1.2525   -3.7630 H   0  0  0  0  0  0  0  0  0  0  0  0
   -3.0068   -1.4033   -2.3474 C   0  0  0  0  0  0  0  0  0  0  0  0
   -2.9871   -2.5037   -2.3642 H   0  0  0  0  0  0  0  0  0  0  0  0
   -2.0923   -0.7061   -1.5377 C   0  0  0  0  0  0  0  0  0  0  0  0
  1  3  1  0  0  0  0
  2  1  1  0  0  0  0
  3  4  1  0  0  0  0
  3  5  1  0  0  0  0
  5 14  2  0  0  0  0
  5  6  1  0  0  0  0
  6  7  1  0  0  0  0
  6  8  2  0  0  0  0
  8 10  1  0  0  0  0
  8  9  1  0  0  0  0
 10 11  1  0  0  0  0
 12 13  1  0  0  0  0
 12 10  2  0  0  0  0
 14 12  1  0  0  0  0
 15 16  1  0  0  0  0
 15 14  1  0  0  0  0
 17 15  1  0  0  0  0
 18 17  1  0  0  0  0
 19 17  1  0  0  0  0
 20 19  2  0  0  0  0
 21 20  1  0  0  0  0
 22 20  1  0  0  0  0
 23 22  1  0  0  0  0
 24 22  2  0  0  0  0
 24 26  1  0  0  0  0
 25 24  1  0  0  0  0
 26 28  2  0  0  0  0
 27 26  1  0  0  0  0
 28 19  1  0  0  0  0
 28  1  1  0  0  0  0
M  END
