2
q = 0.0, confidence = 0.986

 46 51  0  0  0  0  0  0  0  0999 V2000
   -0.6310   -1.4296   -1.5196 N   0  0  0  0  0  0  0  0  0  0  0  0
    0.6719   -1.2310   -1.1571 C   0  0  0  0  0  2  0  0  0  0  0  0
   -0.7943   -2.6863   -2.1031 C   0  0  0  0  0  0  0  0  0  0  0  0
   -1.7644   -3.0305   -2.4710 H   0  0  0  0  0  0  0  0  0  0  0  0
    0.4412   -3.2772   -2.1031 C   0  0  0  0  0  0  0  0  0  0  0  0
    0.7692   -4.2526   -2.4734 H   0  0  0  0  0  0  0  0  0  0  0  0
    1.3231   -2.3711   -1.5234 N   0  0  0  0  0  0  0  0  0  0  0  0
    2.7772   -2.5502   -1.4158 C   0  0  0  0  0  0  0  0  0  0  0  0
    3.2530   -1.8451   -2.1276 H   0  0  0  0  0  0  0  0  0  0  0  0
    2.9908   -3.5852   -1.7503 H   0  0  0  0  0  0  0  0  0  0  0  0
    3.3099   -2.3130   -0.0194 C   0  0  0  0  0  0  0  0  0  0  0  0
    4.2804   -1.3173    0.2022 C   0  0  0  0  0  0  0  0  0  0  0  0
    4.6262   -0.7043   -0.6441 H   0  0  0  0  0  0  0  0  0  0  0  0
    4.7781   -1.0884    1.4941 C   0  0  0  0  0  0  0  0  0  0  0  0
    5.5340   -0.3048    1.6558 H   0  0  0  0  0  0  0  0  0  0  0  0
    4.2959   -1.8403    2.5766 C   0  0  0  0  0  0  0  0  0  0  0  0
    4.6754   -1.6532    3.5929 H   0  0  0  0  0  0  0  0  0  0  0  0
    3.3215   -2.8285    2.3619 C   0  0  0  0  0  0  0  0  0  0  0  0
    2.9295   -3.4102    3.2095 H   0  0  0  0  0  0  0  0  0  0  0  0
    2.8372   -3.0680    1.0696 C   0  0  0  0  0  0  0  0  0  0  0  0
    2.0579   -3.8295    0.9094 H   0  0  0  0  0  0  0  0  0  0  0  0
   -1.6613   -0.4435   -1.3828 C   0  0  0  0  0  0  0  0  0  0  0  0
   -1.5115    0.7720   -2.0681 C   0  0  0  0  0  0  0  0  0  0  0  0
   -0.5973    0.9404   -2.6570 H   0  0  0  0  0  0  0  0  0  0  0  0
   -2.5098    1.7459   -1.9880 C   0  0  0  0  0  0  0  0  0  0  0  0
   -2.3907    2.6966   -2.5293 H   0  0  0  0  0  0  0  0  0  0  0  0
   -3.6818    1.5239   -1.2306 C   0  0  0  0  0  0  0  0  0  0  0  0
   -3.8239    0.2884   -0.5109 C   0  0  0  0  0  0  0  0  0  0  0  0
   -2.7901   -0.7086   -0.5694 C   0  0  0  0  0  0  0  0  0  0  0  0
   -2.9323   -1.9039    0.2189 C   0  0  0  0  0  0  0  0  0  0  0  0
   -2.1086   -2.6306    0.2330 H   0  0  0  0  0  0  0  0  0  0  0  0
   -4.0557   -2.1207    0.9784 C   0  0  0  0  0  0  0  0  0  0  0  0
   -4.1427   -3.0348    1.5859 H   0  0  0  0  0  0  0  0  0  0  0  0
   -5.1286   -1.1644    1.0259 C   0  0  0  0  0  0  0  0  0  0  0  0
   -4.9937    0.0550    0.2792 C   0  0  0  0  0  0  0  0  0  0  0  0
   -6.0355    1.0432    0.3341 C   0  0  0  0  0  0  0  0  0  0  0  0
   -5.8686    2.2650   -0.4071 C   0  0  0  0  0  0  0  0  0  0  0  0
   -6.6695    3.0191   -0.3595 H   0  0  0  0  0  0  0  0  0  0  0  0
   -4.7385    2.4968   -1.1526 C   0  0  0  0  0  0  0  0  0  0  0  0
   -4.6206    3.4396   -1.7088 H   0  0  0  0  0  0  0  0  0  0  0  0
   -7.1845    0.7863    1.1159 C   0  0  0  0  0  0  0  0  0  0  0  0
   -7.9824    1.5440    1.1550 H   0  0  0  0  0  0  0  0  0  0  0  0
   -7.3106   -0.4094    1.8354 C   0  0  0  0  0  0  0  0  0  0  0  0
   -8.2120   -0.5902    2.4403 H   0  0  0  0  0  0  0  0  0  0  0  0
   -6.2949   -1.3742    1.7951 C   0  0  0  0  0  0  0  0  0  0  0  0
   -6.3940   -2.3086    2.3689 H   0  0  0  0  0  0  0  0  0  0  0  0
  1 22  1  0  0  0  0
  1  2  1  0  0  0  0
  3  5  2  0  0  0  0
  3  1  1  0  0  0  0
  4  3  1  0  0  0  0
  5  7  1  0  0  0  0
  6  5  1  0  0  0  0
  7  8  1  0  0  0  0
  7  2  1  0  0  0  0
  8 11  1  0  0  0  0
  9  8  1  0  0  0  0
 10  8  1  0  0  0  0
 11 12  2  0  0  0  0
 11 20  1  0  0  0  0
 12 14  1  0  0  0  0
 13 12  1  0  0  0  0
 14 15  1  0  0  0  0
 14 16  2  0  0  0  0
 16 17  1  0  0  0  0
 18 16  1  0  0  0  0
 18 19  1  0  0  0  0
 20 18  2  0  0  0  0
 21 20  1  0  0  0  0
 22 29  1  0  0  0  0
 23 25  1  0  0  0  0
 23 22  2  0  0  0  0
 24 23  1  0  0  0  0
 25 27  2  0  0  0  0
 26 25  1  0  0  0  0
 27 39  1  0  0  0  0
 27 28  1  0  0  0  0
 28 35  1  0  0  0  0
 29 28  2  0  0  0  0
 29 30  1  0  0  0  0
 30 31  1  0  0  0  0
 30 32  2  0  0  0  0
 32 34  1  0  0  0  0
 32 33  1  0  0  0  0
 34 45  1  0  0  0  0
 35 36  1  0  0  0  0
 35 34  2  0  0  0  0
 36 41  2  0  0  0  0
 37 38  1  0  0  0  0
 37 36  1  0  0  0  0
 39 37  2  0  0  0  0
 40 39  1  0  0  0  0
 41 42  1  0  0  0  0
 41 43  1  0  0  0  0
 43 44  1  0  0  0  0
 45 43  2  0  0  0  0
 45 46  1  0  0  0  0
M  END
