3
q = 0.0, confidence = 0.998

 21 21  0  0  0  0  0  0  0  0999 V2000
   -2.1331    0.9926   -1.9818 N   0  0  0  0  0  0  0  0  0  0  0  0
   -2.2641   -1.1524   -1.6924 N   0  0  0  0  0  0  0  0  0  0  0  0
   -1.5372   -0.0375   -1.2623 C   0  0  0  0  0  2  0  0  0  0  0  0
   -3.1482    0.5330   -2.8105 C   0  0  0  0  0  0  0  0  0  0  0  0
   -3.7240    1.2030   -3.4566 H   0  0  0  0  0  0  0  0  0  0  0  0
   -3.2358   -0.8190   -2.6264 C   0  0  0  0  0  0  0  0  0  0  0  0
   -3.9051   -1.5546   -3.0807 H   0  0  0  0  0  0  0  0  0  0  0  0
   -1.8125    2.4082   -1.8793 C   0  0  0  0  0  0  0  0  0  0  0  0
   -1.3576    2.6176   -0.8965 H   0  0  0  0  0  0  0  0  0  0  0  0
   -2.7419    2.9975   -2.0027 H   0  0  0  0  0  0  0  0  0  0  0  0
   -1.0778    2.7148   -2.6496 H   0  0  0  0  0  0  0  0  0  0  0  0
   -2.0783   -2.5159   -1.1712 C   0  0  0  0  0  0  0  0  0  0  0  0
   -1.1308   -2.4677   -0.5990 H   0  0  0  0  0  0  0  0  0  0  0  0
   -3.1961   -2.9079   -0.2006 C   0  0  0  0  0  0  0  0  0  0  0  0
   -3.2465   -2.2098    0.6548 H   0  0  0  0  0  0  0  0  0  0  0  0
   -3.0124   -3.9255    0.1979 H   0  0  0  0  0  0  0  0  0  0  0  0
   -4.1822   -2.9150   -0.7091 H   0  0  0  0  0  0  0  0  0  0  0  0
   -1.9180   -3.5249   -2.3108 C   0  0  0  0  0  0  0  0  0  0  0  0
   -1.1392   -3.2031   -3.0281 H   0  0  0  0  0  0  0  0  0  0  0  0
   -2.8674   -3.6638   -2.8676 H   0  0  0  0  0  0  0  0  0  0  0  0
   -1.6277   -4.5130   -1.9031 H   0  0  0  0  0  0  0  0  0  0  0  0
  1  8  1  0  0  0  0
  1  3  1  0  0  0  0
  2  3  1  0  0  0  0
  2 12  1  0  0  0  0
  4  6  2  0  0  0  0
  4  1  1  0  0  0  0
  5  4  1  0  0  0  0
  6  2  1  0  0  0  0
  7  6  1  0  0  0  0
  8  9  1  0  0  0  0
 10  8  1  0  0  0  0
 11  8  1  0  0  0  0
 12 13  1  0  0  0  0
 12 14  1  0  0  0  0
 14 16  1  0  0  0  0
 14 15  1  0  0  0  0
 17 14  1  0  0  0  0
 18 21  1  0  0  0  0
 18 12  1  0  0  0  0
 19 18  1  0  0  0  0
 20 18  1  0  0  0  0
M  END
