1
q = 0.0, confidence = 0.998

 27 29  0  0  0  0  0  0  0  0999 V2000
    2.0065   -0.3971   -0.0646 C   0  0  0  0  0  2  0  0  0  0  0  0
    2.6444   -1.6007    0.0679 N   0  0  0  0  0  0  0  0  0  0  0  0
    2.0629   -2.8576    0.1686 C   0  0  0  0  0  0  0  0  0  0  0  0
    0.9648   -2.8686    0.1383 H   0  0  0  0  0  0  0  0  0  0  0  0
    2.8651   -3.9593    0.2967 C   0  0  0  0  0  0  0  0  0  0  0  0
    2.3959   -4.9495    0.3742 H   0  0  0  0  0  0  0  0  0  0  0  0
    4.2965   -3.8303    0.3305 C   0  0  0  0  0  0  0  0  0  0  0  0
    4.9197   -4.7295    0.4328 H   0  0  0  0  0  0  0  0  0  0  0  0
    4.8806   -2.5862    0.2388 C   0  0  0  0  0  0  0  0  0  0  0  0
    5.9713   -2.4568    0.2668 H   0  0  0  0  0  0  0  0  0  0  0  0
    4.0525   -1.4340    0.1093 C   0  0  0  0  0  0  0  0  0  0  0  0
    4.2910   -0.0657   -0.0020 C   0  0  0  0  0  0  0  0  0  0  0  0
    5.5781    0.6789   -0.0345 C   0  0  0  0  0  0  0  0  0  0  0  0
    5.6802    1.3433    0.8459 H   0  0  0  0  0  0  0  0  0  0  0  0
    5.6543    1.3203   -0.9367 H   0  0  0  0  0  0  0  0  0  0  0  0
    6.4249   -0.0315   -0.0498 H   0  0  0  0  0  0  0  0  0  0  0  0
    3.0318    0.5183   -0.1124 N   0  0  0  0  0  0  0  0  0  0  0  0
    2.7980    1.9336   -0.2244 C   0  0  0  0  0  0  0  0  0  0  0  0
    3.4143    2.6951    0.6787 N   0  0  0  0  0  0  0  0  0  0  0  0
    3.1974    4.0192    0.6285 C   0  0  0  0  0  0  0  0  0  0  0  0
    3.7234    4.6287    1.3828 H   0  0  0  0  0  0  0  0  0  0  0  0
    2.3510    4.6223   -0.3164 C   0  0  0  0  0  0  0  0  0  0  0  0
    2.2016    5.7117   -0.3120 H   0  0  0  0  0  0  0  0  0  0  0  0
    1.7271    3.8055   -1.2719 C   0  0  0  0  0  0  0  0  0  0  0  0
    1.0793    4.2395   -2.0483 H   0  0  0  0  0  0  0  0  0  0  0  0
    1.9563    2.4225   -1.2393 C   0  0  0  0  0  0  0  0  0  0  0  0
    1.5129    1.7418   -1.9788 H   0  0  0  0  0  0  0  0  0  0  0  0
  1  2  1  0  0  0  0
  2 11  1  0  0  0  0
  2  3  1  0  0  0  0
  3  5  2  0  0  0  0
  4  3  1  0  0  0  0
  5  7  1  0  0  0  0
  5  6  1  0  0  0  0
  7  8  1  0  0  0  0
  9 10  1  0  0  0  0
  9  7  2  0  0  0  0
 11  9  1  0  0  0  0
 12 11  2  0  0  0  0
 13 12  1  0  0  0  0
 13 14  1  0  0  0  0
 15 13  1  0  0  0  0
 16 13  1  0  0  0  0
 17  1  1  0  0  0  0
 17 12  1  0  0  0  0
 18 17  1  0  0  0  0
 18 19  1  0  0  0  0
 20 19  2  0  0  0  0
 20 21  1  0  0  0  0
 22 23  1  0  0  0  0
 22 20  1  0  0  0  0
 24 26  1  0  0  0  0
 24 22  2  0  0  0  0
 25 24  1  0  0  0  0
 26 18  2  0  0  0  0
 27 26  1  0  0  0  0
M  END
