6
q = -1.0

 15 15  0  0  0  0  0  0  0  0999 V2000
    0.7566    0.0886   -2.3474 F   0  0  0  0  0  0  0  0  0  0  0  0
    3.4815    0.2325   -2.3019 F   0  0  0  0  0  0  0  0  0  0  0  0
    3.3916    0.2923    2.4581 F   0  0  0  0  0  0  0  0  0  0  0  0
    0.6688    0.1875    2.4064 F   0  0  0  0  0  0  0  0  0  0  0  0
    4.8532    0.3766    0.1310 O   0  0  0  0  0  0  0  0  0  0  0  0
    0.6406    0.1136    0.0296 C   0  0  0  0  0  3  0  0  0  0  0  0
    1.3818    0.1319   -1.1481 C   0  0  0  0  0  0  0  0  0  0  0  0
    2.7822    0.2119   -1.1411 C   0  0  0  0  0  0  0  0  0  0  0  0
    3.4845    0.2716    0.0802 C   0  0  0  0  0  0  0  0  0  0  0  0
    2.7413    0.2473    1.2774 C   0  0  0  0  0  0  0  0  0  0  0  0
    1.3388    0.1838    1.2307 C   0  0  0  0  0  0  0  0  0  0  0  0
    5.5463   -0.7853   -0.3033 C   0  0  0  0  0  0  0  0  0  0  0  0
    5.2734   -1.6765    0.3071 H   0  0  0  0  0  0  0  0  0  0  0  0
    6.6280   -0.5810   -0.1753 H   0  0  0  0  0  0  0  0  0  0  0  0
    5.3467   -1.0129   -1.3736 H   0  0  0  0  0  0  0  0  0  0  0  0
  1  7  1  0  0  0  0
  2  8  1  0  0  0  0
  6 11  1  0  0  0  0
  7  8  1  0  0  0  0
  7  6  2  0  0  0  0
  8  9  2  0  0  0  0
  9  5  1  0  0  0  0
  9 10  1  0  0  0  0
 10  3  1  0  0  0  0
 11 10  2  0  0  0  0
 11  4  1  0  0  0  0
 12 14  1  0  0  0  0
 12  5  1  0  0  0  0
 12 13  1  0  0  0  0
 15 12  1  0  0  0  0
M  END
