26
q = 0.0, confidence = 0.998

 46 49  0  0  0  0  0  0  0  0999 V2000
    1.8946   -0.0119    0.9324 N   0  0  0  0  0  0  0  0  0  0  0  0
    0.7882   -1.2052   -1.8217 N   0  0  0  0  0  0  0  0  0  0  0  0
   -1.1587   -1.6527   -0.9927 N   0  0  0  0  0  0  0  0  0  0  0  0
    1.7849    0.0584    2.2683 C   0  0  0  0  0  0  0  0  0  0  0  0
    0.9018    0.5894    2.6516 H   0  0  0  0  0  0  0  0  0  0  0  0
    2.7216   -0.4838    3.1716 C   0  0  0  0  0  0  0  0  0  0  0  0
    2.5492   -0.3871    4.2523 H   0  0  0  0  0  0  0  0  0  0  0  0
    3.8507   -1.0968    2.6593 C   0  0  0  0  0  0  0  0  0  0  0  0
    4.6294   -1.5051    3.3213 H   0  0  0  0  0  0  0  0  0  0  0  0
    4.0084   -1.2096    1.2522 C   0  0  0  0  0  0  0  0  0  0  0  0
    5.1576   -1.8458    0.7010 C   0  0  0  0  0  0  0  0  0  0  0  0
    5.9292   -2.2237    1.3884 H   0  0  0  0  0  0  0  0  0  0  0  0
    5.2899   -1.9900   -0.6673 C   0  0  0  0  0  0  0  0  0  0  0  0
    6.1761   -2.4779   -1.0980 H   0  0  0  0  0  0  0  0  0  0  0  0
    4.2572   -1.5259   -1.5171 C   0  0  0  0  0  0  0  0  0  0  0  0
    4.3537   -1.6764   -2.6036 H   0  0  0  0  0  0  0  0  0  0  0  0
    3.1144   -0.8908   -1.0337 C   0  0  0  0  0  0  0  0  0  0  0  0
    2.9754   -0.6830    0.3845 C   0  0  0  0  0  0  0  0  0  0  0  0
    2.0486   -0.4881   -2.0225 C   0  0  0  0  0  0  0  0  0  0  0  0
    1.7913    0.5921   -1.9180 H   0  0  0  0  0  0  0  0  0  0  0  0
    2.3997   -0.6697   -3.0554 H   0  0  0  0  0  0  0  0  0  0  0  0
    0.4226   -2.4390   -2.3438 C   0  0  0  0  0  0  0  0  0  0  0  0
    1.0561   -3.0025   -3.0352 H   0  0  0  0  0  0  0  0  0  0  0  0
   -0.8132   -2.7211   -1.8237 C   0  0  0  0  0  0  0  0  0  0  0  0
   -1.4780   -3.5781   -1.9654 H   0  0  0  0  0  0  0  0  0  0  0  0
   -0.1658   -0.7112   -0.9781 C   0  0  0  0  0  2  0  0  0  0  0  0
   -2.4081   -1.5576   -0.2819 C   0  0  0  0  0  0  0  0  0  0  0  0
   -3.5723   -1.2097   -1.0054 C   0  0  0  0  0  0  0  0  0  0  0  0
   -3.5245   -0.9443   -2.4884 C   0  0  0  0  0  0  0  0  0  0  0  0
   -3.3363   -1.8715   -3.0686 H   0  0  0  0  0  0  0  0  0  0  0  0
   -2.7120   -0.2364   -2.7524 H   0  0  0  0  0  0  0  0  0  0  0  0
   -4.4801   -0.5177   -2.8449 H   0  0  0  0  0  0  0  0  0  0  0  0
   -4.7748   -1.0966   -0.2869 C   0  0  0  0  0  0  0  0  0  0  0  0
   -5.6900   -0.8155   -0.8315 H   0  0  0  0  0  0  0  0  0  0  0  0
   -4.8411   -1.3241    1.1016 C   0  0  0  0  0  0  0  0  0  0  0  0
   -6.1522   -1.2263    1.8368 C   0  0  0  0  0  0  0  0  0  0  0  0
   -6.7018   -2.1906    1.7856 H   0  0  0  0  0  0  0  0  0  0  0  0
   -6.8121   -0.4544    1.3950 H   0  0  0  0  0  0  0  0  0  0  0  0
   -6.0058   -0.9903    2.9084 H   0  0  0  0  0  0  0  0  0  0  0  0
   -3.6568   -1.6760    1.7759 C   0  0  0  0  0  0  0  0  0  0  0  0
   -3.6903   -1.8639    2.8608 H   0  0  0  0  0  0  0  0  0  0  0  0
   -2.4263   -1.8051    1.1073 C   0  0  0  0  0  0  0  0  0  0  0  0
   -1.1714   -2.1769    1.8519 C   0  0  0  0  0  0  0  0  0  0  0  0
   -0.5833   -2.9473    1.3136 H   0  0  0  0  0  0  0  0  0  0  0  0
   -1.4068   -2.5613    2.8614 H   0  0  0  0  0  0  0  0  0  0  0  0
   -0.5062   -1.2965    1.9677 H   0  0  0  0  0  0  0  0  0  0  0  0
  1  4  1  0  0  0  0
  2 26  1  0  0  0  0
  3 26  1  0  0  0  0
  3 27  1  0  0  0  0
  4  5  1  0  0  0  0
  4  6  2  0  0  0  0
  6  7  1  0  0  0  0
  8  6  1  0  0  0  0
  8  9  1  0  0  0  0
 10  8  2  0  0  0  0
 11 10  1  0  0  0  0
 11 12  1  0  0  0  0
 13 11  2  0  0  0  0
 14 13  1  0  0  0  0
 15 17  2  0  0  0  0
 15 13  1  0  0  0  0
 16 15  1  0  0  0  0
 17 18  1  0  0  0  0
 18  1  2  0  0  0  0
 18 10  1  0  0  0  0
 19 20  1  0  0  0  0
 19  2  1  0  0  0  0
 19 17  1  0  0  0  0
 21 19  1  0  0  0  0
 22 24  2  0  0  0  0
 22  2  1  0  0  0  0
 23 22  1  0  0  0  0
 24  3  1  0  0  0  0
 25 24  1  0  0  0  0
 27 42  1  0  0  0  0
 28 33  1  0  0  0  0
 28 27  2  0  0  0  0
 29 28  1  0  0  0  0
 30 29  1  0  0  0  0
 31 29  1  0  0  0  0
 32 29  1  0  0  0  0
 33 35  2  0  0  0  0
 34 33  1  0  0  0  0
 35 40  1  0  0  0  0
 35 36  1  0  0  0  0
 36 39  1  0  0  0  0
 37 36  1  0  0  0  0
 38 36  1  0  0  0  0
 40 41  1  0  0  0  0
 42 40  2  0  0  0  0
 42 43  1  0  0  0  0
 43 46  1  0  0  0  0
 43 45  1  0  0  0  0
 44 43  1  0  0  0  0
M  END
