11
q = -1.0

 25 28  0  0  0  0  0  0  0  0999 V2000
    2.1095   -1.0860   -1.2182 O   0  0  0  0  0  0  0  0  0  0  0  0
    2.0652   -1.2404    1.1541 O   0  0  0  0  0  0  0  0  0  0  0  0
    3.5934    0.3944    0.0939 O   0  0  0  0  0  0  0  0  0  0  0  0
    4.1404   -1.8842   -0.0403 O   0  0  0  0  0  0  0  0  0  0  0  0
    3.0315   -0.9511    0.0016 B   0  0  0  0  0  0  0  0  0  0  0  0
    0.9228   -1.4764   -0.8030 C   0  0  0  0  0  0  0  0  0  0  0  0
   -0.2168   -1.7927   -1.5879 C   0  0  0  0  0  0  0  0  0  0  0  0
   -0.1751   -1.7357   -2.6838 H   0  0  0  0  0  0  0  0  0  0  0  0
   -1.4036   -2.1765   -0.8905 C   0  0  0  0  0  3  0  0  0  0  0  0
   -2.3194   -2.4116   -1.4521 H   0  0  0  0  0  0  0  0  0  0  0  0
   -1.4368   -2.2398    0.5450 C   0  0  0  0  0  3  0  0  0  0  0  0
   -2.3811   -2.5141    1.0379 H   0  0  0  0  0  0  0  0  0  0  0  0
   -0.2821   -1.9480    1.3371 C   0  0  0  0  0  0  0  0  0  0  0  0
   -0.2966   -2.0087    2.4335 H   0  0  0  0  0  0  0  0  0  0  0  0
    0.8958   -1.5659    0.6481 C   0  0  0  0  0  0  0  0  0  0  0  0
    4.9498    0.2417    0.0919 C   0  0  0  0  0  0  0  0  0  0  0  0
    5.9368    1.2224    0.1565 C   0  0  0  0  0  0  0  0  0  0  0  0
    5.6690    2.2873    0.2191 H   0  0  0  0  0  0  0  0  0  0  0  0
    7.2842    0.7931    0.1398 C   0  0  0  0  0  0  0  0  0  0  0  0
    8.0882    1.5429    0.1896 H   0  0  0  0  0  0  0  0  0  0  0  0
    7.6090   -0.5703    0.0613 C   0  0  0  0  0  0  0  0  0  0  0  0
    8.6658   -0.8774    0.0502 H   0  0  0  0  0  0  0  0  0  0  0  0
    6.6025   -1.5611   -0.0040 C   0  0  0  0  0  0  0  0  0  0  0  0
    6.8445   -2.6317   -0.0658 H   0  0  0  0  0  0  0  0  0  0  0  0
    5.2755   -1.1341    0.0123 C   0  0  0  0  0  0  0  0  0  0  0  0
  1  6  1  0  0  0  0
  1  5  1  0  0  0  0
  4  5  1  0  0  0  0
  4 25  1  0  0  0  0
  5  3  1  0  0  0  0
  5  2  1  0  0  0  0
  6 15  1  0  0  0  0
  7  9  1  0  0  0  0
  7  6  2  0  0  0  0
  8  7  1  0  0  0  0
  9 11  1  0  0  0  0
 10  9  1  0  0  0  0
 11 12  1  0  0  0  0
 11 13  1  0  0  0  0
 13 14  1  0  0  0  0
 15  2  1  0  0  0  0
 15 13  2  0  0  0  0
 16  3  1  0  0  0  0
 16 17  1  0  0  0  0
 17 18  1  0  0  0  0
 19 17  2  0  0  0  0
 19 20  1  0  0  0  0
 21 19  1  0  0  0  0
 22 21  1  0  0  0  0
 23 25  1  0  0  0  0
 23 21  2  0  0  0  0
 24 23  1  0  0  0  0
 25 16  2  0  0  0  0
M  END
