3
q = -1.0

  4  3  0  0  0  0  0  0  0  0999 V2000
   -0.4662   -1.4280    2.5639 Cl  0  0  0  0  0  0  0  0  0  0  0  0
   -2.7733    0.3486    2.2522 Cl  0  0  0  0  0  0  0  0  0  0  0  0
   -1.0388    0.1100    1.7824 C   0  0  0  0  0  3  0  0  0  0  0  0
   -0.4753    0.9184    2.2849 H   0  0  0  0  0  0  0  0  0  0  0  0
  3  2  1  0  0  0  0
  3  4  1  0  0  0  0
  3  1  1  0  0  0  0
M  END
