1
q = 0.0, confidence = 0.998

 39 41  0  0  0  0  0  0  0  0999 V2000
   -1.3675    0.5871   -0.3620 C   0  0  0  0  0  2  0  0  0  0  0  0
   -3.7485    0.4788    0.5535 C   0  0  0  0  0  0  0  0  0  0  0  0
   -3.2301   -0.2031    1.8259 C   0  0  0  0  0  0  0  0  0  0  0  0
   -2.5133   -1.0133    1.5776 H   0  0  0  0  0  0  0  0  0  0  0  0
   -4.0854   -0.6459    2.3723 H   0  0  0  0  0  0  0  0  0  0  0  0
   -2.7181    0.5211    2.4903 H   0  0  0  0  0  0  0  0  0  0  0  0
   -4.7795    1.5483    0.9485 C   0  0  0  0  0  0  0  0  0  0  0  0
   -4.3206    2.3561    1.5536 H   0  0  0  0  0  0  0  0  0  0  0  0
   -5.5683    1.0698    1.5596 H   0  0  0  0  0  0  0  0  0  0  0  0
   -5.2826    1.9978    0.0699 H   0  0  0  0  0  0  0  0  0  0  0  0
   -4.3766   -0.5537   -0.3987 C   0  0  0  0  0  0  0  0  0  0  0  0
   -4.7882   -0.0527   -1.2984 H   0  0  0  0  0  0  0  0  0  0  0  0
   -5.2045   -1.0852    0.1118 H   0  0  0  0  0  0  0  0  0  0  0  0
   -3.6161   -1.2909   -0.7314 H   0  0  0  0  0  0  0  0  0  0  0  0
   -2.7466    2.3048   -0.9203 C   0  0  0  0  0  0  0  0  0  0  0  0
   -3.6601    2.9010   -0.9317 H   0  0  0  0  0  0  0  0  0  0  0  0
   -1.5639    2.4997   -1.5815 C   0  0  0  0  0  0  0  0  0  0  0  0
   -1.2457    3.2903   -2.2672 H   0  0  0  0  0  0  0  0  0  0  0  0
    0.6205    1.2273   -1.7012 C   0  0  0  0  0  0  0  0  0  0  0  0
    0.7730    1.8695   -2.5935 H   0  0  0  0  0  0  0  0  0  0  0  0
    0.7262    0.1753   -2.0291 H   0  0  0  0  0  0  0  0  0  0  0  0
    1.6586    1.5269   -0.6410 C   0  0  0  0  0  0  0  0  0  0  0  0
    1.5045    2.5630    0.2734 C   0  0  0  0  0  0  0  0  0  0  0  0
    0.5971    3.1857    0.2336 H   0  0  0  0  0  0  0  0  0  0  0  0
    2.4751    2.8155    1.2776 C   0  0  0  0  0  0  0  0  0  0  0  0
    2.3188    3.6452    1.9834 H   0  0  0  0  0  0  0  0  0  0  0  0
    3.6054    2.0185    1.3801 C   0  0  0  0  0  0  0  0  0  0  0  0
    4.3577    2.2015    2.1631 H   0  0  0  0  0  0  0  0  0  0  0  0
    3.8009    0.9412    0.4703 C   0  0  0  0  0  0  0  0  0  0  0  0
    4.9207    0.0634    0.5320 C   0  0  0  0  0  0  0  0  0  0  0  0
    5.6832    0.2174    1.3121 H   0  0  0  0  0  0  0  0  0  0  0  0
    5.0287   -0.9714   -0.3822 C   0  0  0  0  0  0  0  0  0  0  0  0
    5.8766   -1.6715   -0.3578 H   0  0  0  0  0  0  0  0  0  0  0  0
    4.0107   -1.1197   -1.3668 C   0  0  0  0  0  0  0  0  0  0  0  0
    4.0759   -1.9417   -2.1027 H   0  0  0  0  0  0  0  0  0  0  0  0
    2.8255    0.6955   -0.5652 C   0  0  0  0  0  0  0  0  0  0  0  0
   -2.6099    1.1360   -0.1720 N   0  0  0  0  0  0  0  0  0  0  0  0
   -0.7424    1.4403   -1.2292 N   0  0  0  0  0  0  0  0  0  0  0  0
    2.9575   -0.3244   -1.4625 N   0  0  0  0  0  0  0  0  0  0  0  0
  1 37  1  0  0  0  0
  2  7  1  0  0  0  0
  2  3  1  0  0  0  0
  3  5  1  0  0  0  0
  3  6  1  0  0  0  0
  4  3  1  0  0  0  0
  7  8  1  0  0  0  0
  7  9  1  0  0  0  0
 10  7  1  0  0  0  0
 11 13  1  0  0  0  0
 11  2  1  0  0  0  0
 12 11  1  0  0  0  0
 14 11  1  0  0  0  0
 15 37  1  0  0  0  0
 16 15  1  0  0  0  0
 17 38  1  0  0  0  0
 17 15  2  0  0  0  0
 18 17  1  0  0  0  0
 19 38  1  0  0  0  0
 19 22  1  0  0  0  0
 20 19  1  0  0  0  0
 21 19  1  0  0  0  0
 22 36  2  0  0  0  0
 22 23  1  0  0  0  0
 23 25  2  0  0  0  0
 24 23  1  0  0  0  0
 25 27  1  0  0  0  0
 25 26  1  0  0  0  0
 27 28  1  0  0  0  0
 29 30  1  0  0  0  0
 29 27  2  0  0  0  0
 30 31  1  0  0  0  0
 32 33  1  0  0  0  0
 32 30  2  0  0  0  0
 34 32  1  0  0  0  0
 35 34  1  0  0  0  0
 36 29  1  0  0  0  0
 37  2  1  0  0  0  0
 38  1  1  0  0  0  0
 39 34  2  0  0  0  0
 39 36  1  0  0  0  0
M  END
