3
q = -1.0

 61 65  0  0  0  0  0  0  0  0999 V2000
   -2.2134    0.4154   -0.1804 P   0  0  0  0  0  0  0  0  0  0  0  0
    2.3274    0.0560    0.3177 P   0  0  0  0  0  0  0  0  0  0  0  0
    0.0826    1.2010    1.3635 C   0  0  0  0  0  3  0  0  0  0  0  0
   -0.9428    2.1949    1.4176 C   0  0  0  0  0  0  0  0  0  0  0  0
   -0.9510    3.1954    2.4088 C   0  0  0  0  0  0  0  0  0  0  0  0
   -1.7691    3.9337    2.4261 H   0  0  0  0  0  0  0  0  0  0  0  0
    0.0799    3.2718    3.3567 C   0  0  0  0  0  0  0  0  0  0  0  0
    0.0707    4.0561    4.1286 H   0  0  0  0  0  0  0  0  0  0  0  0
    1.1416    2.3602    3.2822 C   0  0  0  0  0  0  0  0  0  0  0  0
    1.9871    2.4421    3.9841 H   0  0  0  0  0  0  0  0  0  0  0  0
    1.1511    1.3503    2.3017 C   0  0  0  0  0  0  0  0  0  0  0  0
   -2.0060    2.1742    0.3484 C   0  0  0  0  0  0  0  0  0  0  0  0
   -1.6441    2.6848   -0.5706 H   0  0  0  0  0  0  0  0  0  0  0  0
   -2.9685    2.6332    0.6514 H   0  0  0  0  0  0  0  0  0  0  0  0
    2.3645    0.4633    2.1324 C   0  0  0  0  0  0  0  0  0  0  0  0
    2.2936   -0.4710    2.7278 H   0  0  0  0  0  0  0  0  0  0  0  0
    3.3113    0.9699    2.4068 H   0  0  0  0  0  0  0  0  0  0  0  0
   -3.2683    0.5357   -1.6953 C   0  0  0  0  0  0  0  0  0  0  0  0
   -2.7821    0.2253   -2.9803 C   0  0  0  0  0  0  0  0  0  0  0  0
   -1.7294   -0.0673   -3.1001 H   0  0  0  0  0  0  0  0  0  0  0  0
   -3.6165    0.3587   -4.1016 C   0  0  0  0  0  0  0  0  0  0  0  0
   -3.2231    0.1134   -5.0998 H   0  0  0  0  0  0  0  0  0  0  0  0
   -4.9358    0.8126   -3.9561 C   0  0  0  0  0  0  0  0  0  0  0  0
   -5.5861    0.9175   -4.8381 H   0  0  0  0  0  0  0  0  0  0  0  0
   -5.4216    1.1408   -2.6800 C   0  0  0  0  0  0  0  0  0  0  0  0
   -6.4526    1.5061   -2.5563 H   0  0  0  0  0  0  0  0  0  0  0  0
   -4.5951    1.0019   -1.5563 C   0  0  0  0  0  0  0  0  0  0  0  0
   -4.9905    1.2495   -0.5592 H   0  0  0  0  0  0  0  0  0  0  0  0
   -3.4189   -0.2729    1.0380 C   0  0  0  0  0  0  0  0  0  0  0  0
   -4.3071   -1.3027    0.6619 C   0  0  0  0  0  0  0  0  0  0  0  0
   -4.3408   -1.6401   -0.3851 H   0  0  0  0  0  0  0  0  0  0  0  0
   -5.1622   -1.8876    1.6074 C   0  0  0  0  0  0  0  0  0  0  0  0
   -5.8519   -2.6872    1.2965 H   0  0  0  0  0  0  0  0  0  0  0  0
   -5.1422   -1.4526    2.9421 C   0  0  0  0  0  0  0  0  0  0  0  0
   -5.8141   -1.9109    3.6836 H   0  0  0  0  0  0  0  0  0  0  0  0
   -4.2627   -0.4274    3.3240 C   0  0  0  0  0  0  0  0  0  0  0  0
   -4.2413   -0.0775    4.3674 H   0  0  0  0  0  0  0  0  0  0  0  0
   -3.4033    0.1590    2.3819 C   0  0  0  0  0  0  0  0  0  0  0  0
   -2.7049    0.9477    2.6989 H   0  0  0  0  0  0  0  0  0  0  0  0
    3.5809   -1.2478    0.0148 C   0  0  0  0  0  0  0  0  0  0  0  0
    4.2045   -1.9637    1.0551 C   0  0  0  0  0  0  0  0  0  0  0  0
    4.0075   -1.7021    2.1049 H   0  0  0  0  0  0  0  0  0  0  0  0
    5.0812   -3.0210    0.7616 C   0  0  0  0  0  0  0  0  0  0  0  0
    5.5603   -3.5754    1.5829 H   0  0  0  0  0  0  0  0  0  0  0  0
    5.3484   -3.3672   -0.5716 C   0  0  0  0  0  0  0  0  0  0  0  0
    6.0340   -4.1973   -0.7996 H   0  0  0  0  0  0  0  0  0  0  0  0
    4.7433   -2.6457   -1.6151 C   0  0  0  0  0  0  0  0  0  0  0  0
    4.9559   -2.9065   -2.6630 H   0  0  0  0  0  0  0  0  0  0  0  0
    3.8636   -1.5948   -1.3254 C   0  0  0  0  0  0  0  0  0  0  0  0
    3.3904   -1.0281   -2.1428 H   0  0  0  0  0  0  0  0  0  0  0  0
    3.1261    1.5714   -0.3796 C   0  0  0  0  0  0  0  0  0  0  0  0
    2.3902    2.7739   -0.4509 C   0  0  0  0  0  0  0  0  0  0  0  0
    1.3259    2.7754   -0.1876 H   0  0  0  0  0  0  0  0  0  0  0  0
    3.0163    3.9584   -0.8623 C   0  0  0  0  0  0  0  0  0  0  0  0
    2.4293    4.8879   -0.9129 H   0  0  0  0  0  0  0  0  0  0  0  0
    4.3738    3.9600   -1.2196 C   0  0  0  0  0  0  0  0  0  0  0  0
    4.8583    4.8913   -1.5513 H   0  0  0  0  0  0  0  0  0  0  0  0
    5.1097    2.7681   -1.1524 C   0  0  0  0  0  0  0  0  0  0  0  0
    6.1757    2.7573   -1.4267 H   0  0  0  0  0  0  0  0  0  0  0  0
    4.4920    1.5801   -0.7301 C   0  0  0  0  0  0  0  0  0  0  0  0
    5.0862    0.6573   -0.6704 H   0  0  0  0  0  0  0  0  0  0  0  0
  1 12  1  0  0  0  0
  1 29  1  0  0  0  0
  2 15  1  0  0  0  0
  3  4  2  0  0  0  0
  3 11  1  0  0  0  0
  4  5  1  0  0  0  0
  5  6  1  0  0  0  0
  5  7  2  0  0  0  0
  7  8  1  0  0  0  0
  9  7  1  0  0  0  0
  9 10  1  0  0  0  0
 11  9  2  0  0  0  0
 12 14  1  0  0  0  0
 12  4  1  0  0  0  0
 13 12  1  0  0  0  0
 15 11  1  0  0  0  0
 15 17  1  0  0  0  0
 15 16  1  0  0  0  0
 18 27  1  0  0  0  0
 18  1  1  0  0  0  0
 19 18  2  0  0  0  0
 20 19  1  0  0  0  0
 21 23  2  0  0  0  0
 21 19  1  0  0  0  0
 22 21  1  0  0  0  0
 23 25  1  0  0  0  0
 24 23  1  0  0  0  0
 25 26  1  0  0  0  0
 25 27  2  0  0  0  0
 27 28  1  0  0  0  0
 29 38  1  0  0  0  0
 30 29  2  0  0  0  0
 30 32  1  0  0  0  0
 31 30  1  0  0  0  0
 32 34  2  0  0  0  0
 33 32  1  0  0  0  0
 34 36  1  0  0  0  0
 34 35  1  0  0  0  0
 36 37  1  0  0  0  0
 38 39  1  0  0  0  0
 38 36  2  0  0  0  0
 40  2  1  0  0  0  0
 40 41  1  0  0  0  0
 41 42  1  0  0  0  0
 43 41  2  0  0  0  0
 43 44  1  0  0  0  0
 45 43  1  0  0  0  0
 46 45  1  0  0  0  0
 47 49  1  0  0  0  0
 47 45  2  0  0  0  0
 48 47  1  0  0  0  0
 49 40  2  0  0  0  0
 50 49  1  0  0  0  0
 51  2  1  0  0  0  0
 52 51  1  0  0  0  0
 52 53  1  0  0  0  0
 54 52  2  0  0  0  0
 55 54  1  0  0  0  0
 56 58  2  0  0  0  0
 56 54  1  0  0  0  0
 57 56  1  0  0  0  0
 58 60  1  0  0  0  0
 59 58  1  0  0  0  0
 60 61  1  0  0  0  0
 60 51  2  0  0  0  0
M  END
