2
q = -2.0, confidence = 0.504

 20 20  0  0  0  0  0  0  0  0999 V2000
   -3.9383    0.0083   -1.3446 C   0  0  0  0  0  3  0  0  0  0  0  0
   -4.0965    0.8850    1.0678 C   0  0  0  0  0  3  0  0  0  0  0  0
   -3.8057    1.9379    0.0978 C   0  0  0  0  0  0  0  0  0  0  0  0
   -3.7904    1.3059   -1.2161 C   0  0  0  0  0  3  0  0  0  0  0  0
   -4.3526   -0.4156    0.9290 C   0  0  0  0  0  3  0  0  0  0  0  0
   -4.1674   -1.0427   -0.3418 C   0  0  0  0  0  0  0  0  0  0  0  0
   -4.2071   -2.5096   -0.6536 C   0  0  0  0  0  0  0  0  0  0  0  0
   -3.2671   -2.7055   -1.2187 H   0  0  0  0  0  0  0  0  0  0  0  0
   -3.6738    3.3957    0.4004 C   0  0  0  0  0  0  0  0  0  0  0  0
   -2.9389    3.8771   -0.2721 H   0  0  0  0  0  0  0  0  0  0  0  0
   -3.3709    3.5519    1.4526 H   0  0  0  0  0  0  0  0  0  0  0  0
   -4.6535    3.8931    0.2388 H   0  0  0  0  0  0  0  0  0  0  0  0
   -4.2120   -3.3590    0.6177 C   0  0  0  0  0  0  0  0  0  0  0  0
   -4.1678   -4.4370    0.3643 H   0  0  0  0  0  0  0  0  0  0  0  0
   -5.1306   -3.1804    1.2128 H   0  0  0  0  0  0  0  0  0  0  0  0
   -3.3437   -3.1090    1.2588 H   0  0  0  0  0  0  0  0  0  0  0  0
   -5.3920   -2.8125   -1.5881 C   0  0  0  0  0  0  0  0  0  0  0  0
   -5.3711   -3.8749   -1.9030 H   0  0  0  0  0  0  0  0  0  0  0  0
   -5.3549   -2.1831   -2.5004 H   0  0  0  0  0  0  0  0  0  0  0  0
   -6.3592   -2.6248   -1.0776 H   0  0  0  0  0  0  0  0  0  0  0  0
  1  4  2  0  0  0  0
  1  6  1  0  0  0  0
  3  9  1  0  0  0  0
  3  2  2  0  0  0  0
  4  3  1  0  0  0  0
  5  2  1  0  0  0  0
  6  5  2  0  0  0  0
  7  6  1  0  0  0  0
  7 13  1  0  0  0  0
  8  7  1  0  0  0  0
  9 11  1  0  0  0  0
 10  9  1  0  0  0  0
 12  9  1  0  0  0  0
 13 15  1  0  0  0  0
 13 16  1  0  0  0  0
 14 13  1  0  0  0  0
 17 20  1  0  0  0  0
 17  7  1  0  0  0  0
 18 17  1  0  0  0  0
 19 17  1  0  0  0  0
M  END
