6
q = -1.0

 43 46  0  0  0  0  0  0  0  0999 V2000
    0.8327   -1.0187   -0.5986 C   0  0  0  0  0  0  0  0  0  0  0  0
    1.2879   -0.7268   -1.9317 C   0  0  0  0  0  0  0  0  0  0  0  0
    0.9902    0.1391   -2.5295 H   0  0  0  0  0  0  0  0  0  0  0  0
    2.1863   -1.7394   -2.3647 C   0  0  0  0  0  0  0  0  0  0  0  0
    2.7087   -1.7693   -3.3274 H   0  0  0  0  0  0  0  0  0  0  0  0
    2.3540   -2.6576   -1.2888 C   0  0  0  0  0  3  0  0  0  0  0  0
    3.0374   -3.5158   -1.2678 H   0  0  0  0  0  0  0  0  0  0  0  0
    1.5252   -2.2136   -0.2178 C   0  0  0  0  0  0  0  0  0  0  0  0
    1.4585   -2.7075    0.7591 H   0  0  0  0  0  0  0  0  0  0  0  0
   -0.3541   -0.3128    0.2799 B   0  0  0  0  0  0  0  0  0  0  0  0
    0.0462   -0.6565    1.8268 N   0  0  0  0  0  0  0  0  0  0  0  0
    1.1456   -0.0760    2.3638 C   0  0  0  0  0  3  0  0  0  0  0  0
    1.6731    0.6471    1.7278 H   0  0  0  0  0  0  0  0  0  0  0  0
    1.5928   -0.3871    3.6480 C   0  0  0  0  0  0  0  0  0  0  0  0
    2.4971    0.1065    4.0277 H   0  0  0  0  0  0  0  0  0  0  0  0
    0.8910   -1.3306    4.4066 C   0  0  0  0  0  0  0  0  0  0  0  0
    1.2213   -1.5936    5.4224 H   0  0  0  0  0  0  0  0  0  0  0  0
   -0.2347   -1.9442    3.8382 C   0  0  0  0  0  0  0  0  0  0  0  0
   -0.8151   -2.7012    4.3834 H   0  0  0  0  0  0  0  0  0  0  0  0
   -0.6260   -1.5856    2.5487 C   0  0  0  0  0  0  0  0  0  0  0  0
   -1.4911   -2.0427    2.0511 H   0  0  0  0  0  0  0  0  0  0  0  0
   -1.8282   -0.9806   -0.0265 C   0  0  0  0  0  0  0  0  0  0  0  0
   -2.9486   -0.4977    0.6789 C   0  0  0  0  0  0  0  0  0  0  0  0
   -2.7701    0.3922    1.6793 F   0  0  0  0  0  0  0  0  0  0  0  0
   -4.2668   -0.9097    0.4332 C   0  0  0  0  0  0  0  0  0  0  0  0
   -5.2880   -0.4232    1.1463 F   0  0  0  0  0  0  0  0  0  0  0  0
   -4.5022   -1.8540   -0.5804 C   0  0  0  0  0  0  0  0  0  0  0  0
   -5.7453   -2.2648   -0.8387 F   0  0  0  0  0  0  0  0  0  0  0  0
   -3.4206   -2.3696   -1.3096 C   0  0  0  0  0  0  0  0  0  0  0  0
   -3.6384   -3.2734   -2.2706 F   0  0  0  0  0  0  0  0  0  0  0  0
   -2.1138   -1.9321   -1.0211 C   0  0  0  0  0  0  0  0  0  0  0  0
   -1.1402   -2.4789   -1.7686 F   0  0  0  0  0  0  0  0  0  0  0  0
   -0.5302    1.3065    0.0364 C   0  0  0  0  0  0  0  0  0  0  0  0
   -0.8691    1.7422   -1.2589 C   0  0  0  0  0  0  0  0  0  0  0  0
   -1.0632    0.8410   -2.2501 F   0  0  0  0  0  0  0  0  0  0  0  0
   -1.0476    3.0859   -1.6218 C   0  0  0  0  0  0  0  0  0  0  0  0
   -1.3484    3.4199   -2.8812 F   0  0  0  0  0  0  0  0  0  0  0  0
   -0.9324    4.0794   -0.6381 C   0  0  0  0  0  0  0  0  0  0  0  0
   -1.1013    5.3658   -0.9513 F   0  0  0  0  0  0  0  0  0  0  0  0
   -0.6519    3.6990    0.6814 C   0  0  0  0  0  0  0  0  0  0  0  0
   -0.5683    4.6274    1.6409 F   0  0  0  0  0  0  0  0  0  0  0  0
   -0.4829    2.3384    0.9906 C   0  0  0  0  0  0  0  0  0  0  0  0
   -0.2778    2.0766    2.3025 F   0  0  0  0  0  0  0  0  0  0  0  0
  1  8  2  0  0  0  0
  1 10  1  0  0  0  0
  2  1  1  0  0  0  0
  3  2  1  0  0  0  0
  4  2  2  0  0  0  0
  4  6  1  0  0  0  0
  5  4  1  0  0  0  0
  6  7  1  0  0  0  0
  6  8  1  0  0  0  0
  8  9  1  0  0  0  0
 10 11  1  0  0  0  0
 11 12  1  0  0  0  0
 11 20  1  0  0  0  0
 12 14  1  0  0  0  0
 13 12  1  0  0  0  0
 14 15  1  0  0  0  0
 14 16  2  0  0  0  0
 16 17  1  0  0  0  0
 18 19  1  0  0  0  0
 18 16  1  0  0  0  0
 20 18  2  0  0  0  0
 21 20  1  0  0  0  0
 22 10  1  0  0  0  0
 22 23  1  0  0  0  0
 23 24  1  0  0  0  0
 25 23  2  0  0  0  0
 25 26  1  0  0  0  0
 27 25  1  0  0  0  0
 28 27  1  0  0  0  0
 29 31  1  0  0  0  0
 29 27  2  0  0  0  0
 30 29  1  0  0  0  0
 31 22  2  0  0  0  0
 32 31  1  0  0  0  0
 33 10  1  0  0  0  0
 33 42  1  0  0  0  0
 34 33  2  0  0  0  0
 35 34  1  0  0  0  0
 36 34  1  0  0  0  0
 36 38  2  0  0  0  0
 37 36  1  0  0  0  0
 38 40  1  0  0  0  0
 39 38  1  0  0  0  0
 40 42  2  0  0  0  0
 40 41  1  0  0  0  0
 42 43  1  0  0  0  0
M  END
