1
q = 0.0, confidence = 0.988

 25 25  0  0  0  0  0  0  0  0999 V2000
    0.4452   -1.1536   -0.2147 C   0  0  0  0  0  2  0  0  0  0  0  0
   -1.0083   -0.8827   -0.1369 C   0  0  0  0  0  0  0  0  0  0  0  0
   -1.5284    0.4368   -0.2172 C   0  0  0  0  0  0  0  0  0  0  0  0
   -0.8385    1.2710   -0.3603 H   0  0  0  0  0  0  0  0  0  0  0  0
   -2.8952    0.7031   -0.1446 C   0  0  0  0  0  0  0  0  0  0  0  0
   -3.8129   -0.3821    0.0297 C   0  0  0  0  0  0  0  0  0  0  0  0
   -3.3096   -1.6940    0.1164 C   0  0  0  0  0  0  0  0  0  0  0  0
   -3.9986   -2.5366    0.2616 H   0  0  0  0  0  0  0  0  0  0  0  0
   -1.9363   -1.9413    0.0257 C   0  0  0  0  0  0  0  0  0  0  0  0
   -1.5674   -2.9720    0.0993 H   0  0  0  0  0  0  0  0  0  0  0  0
    0.5835   -2.4591   -0.4395 O   0  0  0  0  0  0  0  0  0  0  0  0
    1.8260   -3.1465   -0.5544 C   0  0  0  0  0  0  0  0  0  0  0  0
    1.5733   -4.2227   -0.5310 H   0  0  0  0  0  0  0  0  0  0  0  0
    2.5083   -2.9017    0.2798 H   0  0  0  0  0  0  0  0  0  0  0  0
    2.3131   -2.9033   -1.5176 H   0  0  0  0  0  0  0  0  0  0  0  0
   -3.4494    1.9364   -0.2250 O   0  0  0  0  0  0  0  0  0  0  0  0
   -2.5709    3.0444   -0.3431 C   0  0  0  0  0  0  0  0  0  0  0  0
   -3.2102    3.9453   -0.3743 H   0  0  0  0  0  0  0  0  0  0  0  0
   -1.9647    2.9942   -1.2752 H   0  0  0  0  0  0  0  0  0  0  0  0
   -1.8810    3.1128    0.5273 H   0  0  0  0  0  0  0  0  0  0  0  0
   -5.1153   -0.0410    0.1016 O   0  0  0  0  0  0  0  0  0  0  0  0
   -6.0778   -1.0687    0.2694 C   0  0  0  0  0  0  0  0  0  0  0  0
   -7.0630   -0.5686    0.2982 H   0  0  0  0  0  0  0  0  0  0  0  0
   -5.9234   -1.6245    1.2205 H   0  0  0  0  0  0  0  0  0  0  0  0
   -6.0596   -1.7905   -0.5768 H   0  0  0  0  0  0  0  0  0  0  0  0
  1  2  1  0  0  0  0
  2  9  1  0  0  0  0
  3  5  1  0  0  0  0
  3  2  2  0  0  0  0
  4  3  1  0  0  0  0
  5  6  2  0  0  0  0
  6 21  1  0  0  0  0
  6  7  1  0  0  0  0
  7  8  1  0  0  0  0
  9 10  1  0  0  0  0
  9  7  2  0  0  0  0
 11  1  1  0  0  0  0
 12 13  1  0  0  0  0
 12 11  1  0  0  0  0
 12 14  1  0  0  0  0
 15 12  1  0  0  0  0
 16  5  1  0  0  0  0
 17 16  1  0  0  0  0
 17 20  1  0  0  0  0
 18 17  1  0  0  0  0
 19 17  1  0  0  0  0
 21 22  1  0  0  0  0
 22 23  1  0  0  0  0
 22 24  1  0  0  0  0
 25 22  1  0  0  0  0
M  END
