1
q = 0.0, confidence = 0.994

 65 67  0  0  0  0  0  0  0  0999 V2000
    0.0000   -0.0081    0.0060 C   0  0  0  0  0  2  0  0  0  0  0  0
    1.0832   -0.6578    0.5324 N   0  0  0  0  0  0  0  0  0  0  0  0
    0.6895   -1.6969    1.3749 C   0  0  0  0  0  0  0  0  0  0  0  0
    1.7918   -2.7057    2.1923 Cl  0  0  0  0  0  0  0  0  0  0  0  0
    2.4447   -0.2959    0.2382 C   0  0  0  0  0  0  0  0  0  0  0  0
    3.0717   -0.9017   -0.8738 C   0  0  0  0  0  0  0  0  0  0  0  0
    4.3933   -0.5098   -1.1551 C   0  0  0  0  0  0  0  0  0  0  0  0
    4.9148   -0.9504   -2.0181 H   0  0  0  0  0  0  0  0  0  0  0  0
    5.0474    0.4403   -0.3606 C   0  0  0  0  0  0  0  0  0  0  0  0
    6.0795    0.7366   -0.6016 H   0  0  0  0  0  0  0  0  0  0  0  0
    4.3939    1.0234    0.7323 C   0  0  0  0  0  0  0  0  0  0  0  0
    4.9157    1.7776    1.3404 H   0  0  0  0  0  0  0  0  0  0  0  0
    3.0723    0.6680    1.0588 C   0  0  0  0  0  0  0  0  0  0  0  0
    2.3452   -1.9002   -1.7646 C   0  0  0  0  0  0  0  0  0  0  0  0
    1.3648   -2.1213   -1.2950 H   0  0  0  0  0  0  0  0  0  0  0  0
    3.1053   -3.2317   -1.8704 C   0  0  0  0  0  0  0  0  0  0  0  0
    2.5292   -3.9594   -2.4773 H   0  0  0  0  0  0  0  0  0  0  0  0
    3.2760   -3.6748   -0.8688 H   0  0  0  0  0  0  0  0  0  0  0  0
    4.0931   -3.1027   -2.3585 H   0  0  0  0  0  0  0  0  0  0  0  0
    2.0532   -1.2823   -3.1434 C   0  0  0  0  0  0  0  0  0  0  0  0
    1.4728   -0.3419   -3.0448 H   0  0  0  0  0  0  0  0  0  0  0  0
    1.4681   -1.9856   -3.7707 H   0  0  0  0  0  0  0  0  0  0  0  0
    2.9916   -1.0430   -3.6846 H   0  0  0  0  0  0  0  0  0  0  0  0
    2.3475    1.3340    2.2205 C   0  0  0  0  0  0  0  0  0  0  0  0
    1.3645    0.8334    2.3375 H   0  0  0  0  0  0  0  0  0  0  0  0
    2.0632    2.8131    1.9052 C   0  0  0  0  0  0  0  0  0  0  0  0
    1.4857    2.9168    0.9637 H   0  0  0  0  0  0  0  0  0  0  0  0
    3.0046    3.3882    1.7876 H   0  0  0  0  0  0  0  0  0  0  0  0
    1.4782    3.2813    2.7232 H   0  0  0  0  0  0  0  0  0  0  0  0
    3.1060    1.1547    3.5452 C   0  0  0  0  0  0  0  0  0  0  0  0
    3.2715    0.0816    3.7686 H   0  0  0  0  0  0  0  0  0  0  0  0
    2.5317    1.5983    4.3837 H   0  0  0  0  0  0  0  0  0  0  0  0
    4.0962    1.6542    3.5215 H   0  0  0  0  0  0  0  0  0  0  0  0
   -1.0832   -0.6577    0.5326 N   0  0  0  0  0  0  0  0  0  0  0  0
   -0.6895   -1.6968    1.3750 C   0  0  0  0  0  0  0  0  0  0  0  0
   -1.7917   -2.7055    2.1926 Cl  0  0  0  0  0  0  0  0  0  0  0  0
   -2.4446   -0.2956    0.2386 C   0  0  0  0  0  0  0  0  0  0  0  0
   -3.0717    0.6691    1.0587 C   0  0  0  0  0  0  0  0  0  0  0  0
   -4.3933    1.0247    0.7325 C   0  0  0  0  0  0  0  0  0  0  0  0
   -4.9146    1.7794    1.3403 H   0  0  0  0  0  0  0  0  0  0  0  0
   -5.0474    0.4409   -0.3597 C   0  0  0  0  0  0  0  0  0  0  0  0
   -6.0795    0.7374   -0.6005 H   0  0  0  0  0  0  0  0  0  0  0  0
   -4.3939   -0.5100   -1.1538 C   0  0  0  0  0  0  0  0  0  0  0  0
   -4.9158   -0.9511   -2.0162 H   0  0  0  0  0  0  0  0  0  0  0  0
   -3.0723   -0.9021   -0.8727 C   0  0  0  0  0  0  0  0  0  0  0  0
   -2.3464    1.3355    2.2198 C   0  0  0  0  0  0  0  0  0  0  0  0
   -1.3629    0.8356    2.3361 H   0  0  0  0  0  0  0  0  0  0  0  0
   -3.1038    1.1557    3.5451 C   0  0  0  0  0  0  0  0  0  0  0  0
   -2.5292    1.5997    4.3832 H   0  0  0  0  0  0  0  0  0  0  0  0
   -3.2683    0.0825    3.7686 H   0  0  0  0  0  0  0  0  0  0  0  0
   -4.0944    1.6544    3.5220 H   0  0  0  0  0  0  0  0  0  0  0  0
   -2.0632    2.8148    1.9044 C   0  0  0  0  0  0  0  0  0  0  0  0
   -1.4865    2.9189    0.9624 H   0  0  0  0  0  0  0  0  0  0  0  0
   -1.4777    3.2833    2.7220 H   0  0  0  0  0  0  0  0  0  0  0  0
   -3.0050    3.3894    1.7876 H   0  0  0  0  0  0  0  0  0  0  0  0
   -2.3463   -1.9012   -1.7632 C   0  0  0  0  0  0  0  0  0  0  0  0
   -1.3662   -2.1231   -1.2932 H   0  0  0  0  0  0  0  0  0  0  0  0
   -2.0534   -1.2835   -3.1419 C   0  0  0  0  0  0  0  0  0  0  0  0
   -1.4722   -0.3436   -3.0430 H   0  0  0  0  0  0  0  0  0  0  0  0
   -2.9914   -1.0434   -3.6833 H   0  0  0  0  0  0  0  0  0  0  0  0
   -1.4686   -1.9874   -3.7690 H   0  0  0  0  0  0  0  0  0  0  0  0
   -3.1074   -3.2321   -1.8693 C   0  0  0  0  0  0  0  0  0  0  0  0
   -3.2789   -3.6750   -0.8677 H   0  0  0  0  0  0  0  0  0  0  0  0
   -2.5316   -3.9603   -2.4758 H   0  0  0  0  0  0  0  0  0  0  0  0
   -4.0949   -3.1024   -2.3579 H   0  0  0  0  0  0  0  0  0  0  0  0
  1  2  1  0  0  0  0
  1 34  1  0  0  0  0
  2  3  1  0  0  0  0
  3 35  2  0  0  0  0
  3  4  1  0  0  0  0
  5  2  1  0  0  0  0
  5 13  1  0  0  0  0
  6  5  2  0  0  0  0
  7  6  1  0  0  0  0
  7  9  2  0  0  0  0
  8  7  1  0  0  0  0
  9 11  1  0  0  0  0
 10  9  1  0  0  0  0
 11 13  2  0  0  0  0
 11 12  1  0  0  0  0
 13 24  1  0  0  0  0
 14 15  1  0  0  0  0
 14  6  1  0  0  0  0
 16 14  1  0  0  0  0
 16 18  1  0  0  0  0
 17 16  1  0  0  0  0
 19 16  1  0  0  0  0
 20 21  1  0  0  0  0
 20 14  1  0  0  0  0
 22 20  1  0  0  0  0
 23 20  1  0  0  0  0
 24 25  1  0  0  0  0
 24 30  1  0  0  0  0
 26 24  1  0  0  0  0
 26 29  1  0  0  0  0
 27 26  1  0  0  0  0
 28 26  1  0  0  0  0
 30 31  1  0  0  0  0
 30 32  1  0  0  0  0
 33 30  1  0  0  0  0
 34 35  1  0  0  0  0
 35 36  1  0  0  0  0
 37 34  1  0  0  0  0
 37 38  1  0  0  0  0
 38 46  1  0  0  0  0
 39 38  2  0  0  0  0
 39 40  1  0  0  0  0
 41 39  1  0  0  0  0
 42 41  1  0  0  0  0
 43 45  1  0  0  0  0
 43 41  2  0  0  0  0
 44 43  1  0  0  0  0
 45 37  2  0  0  0  0
 46 47  1  0  0  0  0
 46 48  1  0  0  0  0
 48 50  1  0  0  0  0
 48 49  1  0  0  0  0
 51 48  1  0  0  0  0
 52 46  1  0  0  0  0
 52 54  1  0  0  0  0
 53 52  1  0  0  0  0
 55 52  1  0  0  0  0
 56 57  1  0  0  0  0
 56 45  1  0  0  0  0
 58 59  1  0  0  0  0
 58 56  1  0  0  0  0
 60 58  1  0  0  0  0
 61 58  1  0  0  0  0
 62 56  1  0  0  0  0
 62 63  1  0  0  0  0
 64 62  1  0  0  0  0
 65 62  1  0  0  0  0
M  END
