3
q = 0.0, confidence = 1.0

 56 57  0  0  1  0  0  0  0  0999 V2000
   -0.2008    0.0182   -0.5965 C   0  0  0  0  0  0  0  0  0  0  0  0
    0.6439    1.1576   -0.7407 C   0  0  0  0  0  0  0  0  0  0  0  0
    2.0325    0.9373   -1.0635 C   0  0  0  0  0  3  0  0  0  0  0  0
    2.6964    1.8079   -1.1306 H   0  0  0  0  0  0  0  0  0  0  0  0
    2.5694   -0.3504   -1.2764 C   0  0  2  0  0  3  0  0  0  0  0  0
    1.7205   -1.5118   -1.1360 C   0  0  0  0  0  0  0  0  0  0  0  0
    2.2380   -2.8380   -1.3058 C   0  0  0  0  0  0  0  0  0  0  0  0
    3.2909   -2.9418   -1.5983 H   0  0  0  0  0  0  0  0  0  0  0  0
    1.4305   -3.9386   -1.1019 C   0  0  0  0  0  0  0  0  0  0  0  0
    1.8384   -4.9511   -1.2394 H   0  0  0  0  0  0  0  0  0  0  0  0
    0.0799   -3.7704   -0.6832 C   0  0  0  0  0  0  0  0  0  0  0  0
   -0.5438   -4.6525   -0.4755 H   0  0  0  0  0  0  0  0  0  0  0  0
   -0.4458   -2.5047   -0.5095 C   0  0  0  0  0  0  0  0  0  0  0  0
   -1.4708   -2.3812   -0.1480 H   0  0  0  0  0  0  0  0  0  0  0  0
    0.3310   -1.3311   -0.7703 C   0  0  0  0  0  0  0  0  0  0  0  0
   -1.4924    0.1879   -0.2413 O   0  0  0  0  0  0  0  0  0  0  0  0
   -3.0903   -0.1385   -0.7913 Si  0  0  0  0  0  0  0  0  0  0  0  0
   -3.7842    1.4705   -1.4845 C   0  0  0  0  0  0  0  0  0  0  0  0
   -3.6188    2.3292   -0.8057 H   0  0  0  0  0  0  0  0  0  0  0  0
   -4.8756    1.3699   -1.6540 H   0  0  0  0  0  0  0  0  0  0  0  0
   -3.3192    1.7069   -2.4625 H   0  0  0  0  0  0  0  0  0  0  0  0
   -3.1041   -1.4171   -2.1799 C   0  0  0  0  0  0  0  0  0  0  0  0
   -3.0219   -2.4639   -1.8312 H   0  0  0  0  0  0  0  0  0  0  0  0
   -2.2697   -1.2306   -2.8869 H   0  0  0  0  0  0  0  0  0  0  0  0
   -4.0521   -1.3175   -2.7480 H   0  0  0  0  0  0  0  0  0  0  0  0
   -4.0683   -0.6743    0.7663 C   0  0  0  0  0  0  0  0  0  0  0  0
   -3.5223   -1.9836    1.3654 C   0  0  0  0  0  0  0  0  0  0  0  0
   -3.5466   -2.8225    0.6382 H   0  0  0  0  0  0  0  0  0  0  0  0
   -4.1483   -2.2914    2.2318 H   0  0  0  0  0  0  0  0  0  0  0  0
   -2.4869   -1.8651    1.7410 H   0  0  0  0  0  0  0  0  0  0  0  0
   -3.9789    0.4381    1.8294 C   0  0  0  0  0  0  0  0  0  0  0  0
   -4.3624    1.4097    1.4548 H   0  0  0  0  0  0  0  0  0  0  0  0
   -2.9359    0.5845    2.1738 H   0  0  0  0  0  0  0  0  0  0  0  0
   -4.5885    0.1656    2.7191 H   0  0  0  0  0  0  0  0  0  0  0  0
   -5.5365   -0.8829    0.3398 C   0  0  0  0  0  0  0  0  0  0  0  0
   -5.9974    0.0450   -0.0567 H   0  0  0  0  0  0  0  0  0  0  0  0
   -6.1450   -1.2012    1.2147 H   0  0  0  0  0  0  0  0  0  0  0  0
   -5.6400   -1.6722   -0.4344 H   0  0  0  0  0  0  0  0  0  0  0  0
    0.0681    2.9536   -0.4271 Si  0  0  0  0  0  0  0  0  0  0  0  0
   -1.0096    3.0815    1.1140 C   0  0  0  0  0  0  0  0  0  0  0  0
   -0.4515    2.7043    1.9943 H   0  0  0  0  0  0  0  0  0  0  0  0
   -1.9377    2.4878    1.0248 H   0  0  0  0  0  0  0  0  0  0  0  0
   -1.2806    4.1407    1.3031 H   0  0  0  0  0  0  0  0  0  0  0  0
   -0.8087    3.5924   -1.9802 C   0  0  0  0  0  0  0  0  0  0  0  0
   -0.1160    3.5658   -2.8463 H   0  0  0  0  0  0  0  0  0  0  0  0
   -1.1269    4.6457   -1.8340 H   0  0  0  0  0  0  0  0  0  0  0  0
   -1.7049    3.0006   -2.2410 H   0  0  0  0  0  0  0  0  0  0  0  0
    1.6065    4.0325   -0.1899 C   0  0  0  0  0  0  0  0  0  0  0  0
    2.2566    4.0476   -1.0891 H   0  0  0  0  0  0  0  0  0  0  0  0
    2.2113    3.7198    0.6832 H   0  0  0  0  0  0  0  0  0  0  0  0
    1.2758    5.0774   -0.0141 H   0  0  0  0  0  0  0  0  0  0  0  0
    3.8620   -0.6022   -1.6078 O   0  0  0  0  0  0  0  0  0  0  0  0
    4.8216    0.4077   -1.3342 C   0  0  0  0  0  0  0  0  0  0  0  0
    5.8131   -0.0459   -1.5150 H   0  0  0  0  0  0  0  0  0  0  0  0
    4.7493    0.7388   -0.2744 H   0  0  0  0  0  0  0  0  0  0  0  0
    4.7031    1.2882   -2.0035 H   0  0  0  0  0  0  0  0  0  0  0  0
  1 16  1  0  0  0  0
  2  1  2  0  0  0  0
  2 39  1  0  0  0  0
  3  2  1  0  0  0  0
  4  3  1  0  0  0  0
  5 52  1  1  0  0  0
  5  6  1  0  0  0  0
  5  3  1  0  0  0  0
  6 15  1  0  0  0  0
  7  6  2  0  0  0  0
  7  9  1  0  0  0  0
  8  7  1  0  0  0  0
  9 11  2  0  0  0  0
 10  9  1  0  0  0  0
 11 13  1  0  0  0  0
 11 12  1  0  0  0  0
 13 14  1  0  0  0  0
 15  1  1  0  0  0  0
 15 13  2  0  0  0  0
 17 16  1  0  0  0  0
 17 26  1  0  0  0  0
 18 19  1  0  0  0  0
 18 17  1  0  0  0  0
 20 18  1  0  0  0  0
 21 18  1  0  0  0  0
 22 23  1  0  0  0  0
 22 17  1  0  0  0  0
 24 22  1  0  0  0  0
 25 22  1  0  0  0  0
 26 27  1  0  0  0  0
 26 31  1  0  0  0  0
 27 30  1  0  0  0  0
 27 29  1  0  0  0  0
 28 27  1  0  0  0  0
 31 33  1  0  0  0  0
 31 34  1  0  0  0  0
 32 31  1  0  0  0  0
 35 26  1  0  0  0  0
 35 37  1  0  0  0  0
 36 35  1  0  0  0  0
 38 35  1  0  0  0  0
 39 48  1  0  0  0  0
 39 40  1  0  0  0  0
 40 43  1  0  0  0  0
 40 41  1  0  0  0  0
 42 40  1  0  0  0  0
 44 46  1  0  0  0  0
 44 39  1  0  0  0  0
 45 44  1  0  0  0  0
 47 44  1  0  0  0  0
 48 51  1  0  0  0  0
 48 50  1  0  0  0  0
 49 48  1  0  0  0  0
 52 53  1  0  0  0  0
 53 55  1  0  0  0  0
 54 53  1  0  0  0  0
 56 53  1  0  0  0  0
M  END
