14
q = -1.0, confidence = 0.0

 25 25  0  0  1  0  0  0  0  0999 V2000
    3.8335    1.2840   -0.8575 O   0  0  0  0  0  0  0  0  0  0  0  0
    4.7825    1.5097   -0.8199 H   0  0  0  0  0  0  0  0  0  0  0  0
    2.3033   -0.3958   -0.1639 C   0  0  0  0  0  0  0  0  0  0  0  0
    3.6220    0.1269   -0.1707 C   0  0  0  0  0  0  0  0  0  0  0  0
    4.6521   -0.5548    0.5038 C   0  0  0  0  0  0  0  0  0  0  0  0
    5.6732   -0.1400    0.4905 H   0  0  0  0  0  0  0  0  0  0  0  0
    4.3847   -1.7516    1.1805 C   0  0  0  0  0  0  0  0  0  0  0  0
    5.2014   -2.2710    1.7031 H   0  0  0  0  0  0  0  0  0  0  0  0
    3.0852   -2.2838    1.1911 C   0  0  0  0  0  0  0  0  0  0  0  0
    2.8721   -3.2212    1.7240 H   0  0  0  0  0  0  0  0  0  0  0  0
    2.0620   -1.6048    0.5169 C   0  0  0  0  0  0  0  0  0  0  0  0
    1.0344   -2.0019    0.5214 H   0  0  0  0  0  0  0  0  0  0  0  0
    1.2434    0.3281   -0.9256 C   0  0  1  0  0  3  0  0  0  0  0  0
    0.4978   -0.3447   -1.9440 C   0  0  0  0  0  3  0  0  0  0  0  0
    0.7624   -1.3904   -2.1690 H   0  0  0  0  0  0  0  0  0  0  0  0
    0.0443    0.2155   -2.7790 H   0  0  0  0  0  0  0  0  0  0  0  0
    0.7710    1.6314   -0.5149 C   0  0  0  0  0  3  0  0  0  0  0  0
    0.2693    2.6572   -1.5093 C   0  0  0  0  0  0  0  0  0  0  0  0
    1.1060    3.3497   -1.7511 H   0  0  0  0  0  0  0  0  0  0  0  0
   -0.5407    3.2789   -1.0780 H   0  0  0  0  0  0  0  0  0  0  0  0
   -0.0909    2.2269   -2.4607 H   0  0  0  0  0  0  0  0  0  0  0  0
    1.3309    2.2327    0.7518 C   0  0  0  0  0  0  0  0  0  0  0  0
    1.5487    1.4725    1.5254 H   0  0  0  0  0  0  0  0  0  0  0  0
    0.6540    3.0038    1.1699 H   0  0  0  0  0  0  0  0  0  0  0  0
    2.2889    2.7436    0.5150 H   0  0  0  0  0  0  0  0  0  0  0  0
  1  2  1  0  0  0  0
  1  4  1  0  0  0  0
  3 11  1  0  0  0  0
  4  3  2  0  0  0  0
  4  5  1  0  0  0  0
  5  7  2  0  0  0  0
  6  5  1  0  0  0  0
  7  9  1  0  0  0  0
  7  8  1  0  0  0  0
  9 10  1  0  0  0  0
 11 12  1  0  0  0  0
 11  9  2  0  0  0  0
 13 14  1  1  0  0  0
 13 17  1  0  0  0  0
 13  3  1  0  0  0  0
 15 14  1  0  0  0  0
 16 14  1  0  0  0  0
 17 22  1  0  0  0  0
 18 20  1  0  0  0  0
 18 17  1  0  0  0  0
 19 18  1  0  0  0  0
 21 18  1  0  0  0  0
 22 24  1  0  0  0  0
 22 23  1  0  0  0  0
 25 22  1  0  0  0  0
M  END
