16
q = 0.0, confidence = 0.998

 31 33  0  0  0  0  0  0  0  0999 V2000
   -0.9431    3.0046    0.1943 C   0  0  0  0  0  0  0  0  0  0  0  0
   -2.0140    2.8618   -0.0199 H   0  0  0  0  0  0  0  0  0  0  0  0
   -0.5447    4.0267    1.0674 C   0  0  0  0  0  0  0  0  0  0  0  0
   -1.3018    4.6805    1.5268 H   0  0  0  0  0  0  0  0  0  0  0  0
    0.8180    4.2172    1.3516 C   0  0  0  0  0  0  0  0  0  0  0  0
    1.1307    5.0203    2.0364 H   0  0  0  0  0  0  0  0  0  0  0  0
    1.7763    3.3813    0.7592 C   0  0  0  0  0  0  0  0  0  0  0  0
    2.8455    3.5244    0.9785 H   0  0  0  0  0  0  0  0  0  0  0  0
    1.3823    2.3525   -0.1121 C   0  0  0  0  0  0  0  0  0  0  0  0
    2.1329    1.6864   -0.5735 H   0  0  0  0  0  0  0  0  0  0  0  0
    0.0167    2.1598   -0.3993 C   0  0  0  0  0  0  0  0  0  0  0  0
   -0.3963    1.0356   -1.3307 C   0  0  0  0  0  0  0  0  0  0  0  0
   -0.9816    1.4145   -2.1926 H   0  0  0  0  0  0  0  0  0  0  0  0
    0.5071    0.5286   -1.7235 H   0  0  0  0  0  0  0  0  0  0  0  0
   -1.2208    0.0139   -0.6668 N   0  0  0  0  0  0  0  0  0  0  0  0
   -0.6941   -0.9990    0.0862 C   0  0  0  0  0  2  0  0  0  0  0  0
   -2.6138   -0.0146   -0.6369 C   0  0  0  0  0  0  0  0  0  0  0  0
   -2.9633   -1.1193    0.1793 C   0  0  0  0  0  0  0  0  0  0  0  0
   -4.3011   -1.4605    0.4246 C   0  0  0  0  0  0  0  0  0  0  0  0
   -4.5694   -2.3184    1.0569 H   0  0  0  0  0  0  0  0  0  0  0  0
   -5.2831   -0.6580   -0.1743 C   0  0  0  0  0  0  0  0  0  0  0  0
   -6.3447   -0.8909   -0.0059 H   0  0  0  0  0  0  0  0  0  0  0  0
   -4.9374    0.4431   -0.9901 C   0  0  0  0  0  0  0  0  0  0  0  0
   -5.7364    1.0480   -1.4434 H   0  0  0  0  0  0  0  0  0  0  0  0
   -3.5996    0.7845   -1.2361 C   0  0  0  0  0  0  0  0  0  0  0  0
   -3.3388    1.6427   -1.8710 H   0  0  0  0  0  0  0  0  0  0  0  0
   -1.7605   -1.6863    0.5972 N   0  0  0  0  0  0  0  0  0  0  0  0
   -1.6572   -2.8563    1.4485 C   0  0  0  0  0  0  0  0  0  0  0  0
   -0.5841   -3.0685    1.6086 H   0  0  0  0  0  0  0  0  0  0  0  0
   -2.1373   -3.7319    0.9668 H   0  0  0  0  0  0  0  0  0  0  0  0
   -2.1446   -2.6687    2.4265 H   0  0  0  0  0  0  0  0  0  0  0  0
  1  3  1  0  0  0  0
  2  1  1  0  0  0  0
  3  5  2  0  0  0  0
  3  4  1  0  0  0  0
  5  6  1  0  0  0  0
  7  8  1  0  0  0  0
  7  5  1  0  0  0  0
  9  7  2  0  0  0  0
 10  9  1  0  0  0  0
 11  9  1  0  0  0  0
 11  1  2  0  0  0  0
 12 15  1  0  0  0  0
 12 11  1  0  0  0  0
 13 12  1  0  0  0  0
 14 12  1  0  0  0  0
 15 17  1  0  0  0  0
 15 16  1  0  0  0  0
 16 27  1  0  0  0  0
 17 18  1  0  0  0  0
 18 19  2  0  0  0  0
 18 27  1  0  0  0  0
 19 20  1  0  0  0  0
 21 22  1  0  0  0  0
 21 19  1  0  0  0  0
 23 21  2  0  0  0  0
 24 23  1  0  0  0  0
 25 23  1  0  0  0  0
 25 17  2  0  0  0  0
 26 25  1  0  0  0  0
 27 28  1  0  0  0  0
 28 29  1  0  0  0  0
 28 31  1  0  0  0  0
 30 28  1  0  0  0  0
M  END
