23
q = -2.0, confidence = 0.886

 42 43  0  0  1  0  0  0  0  0999 V2000
    2.5137   -1.9073    0.2480 Si  0  0  0  0  0  0  0  0  0  0  0  0
    3.9275   -2.3691   -0.9176 C   0  0  0  0  0  0  0  0  0  0  0  0
    4.8873   -1.9312   -0.5755 H   0  0  0  0  0  0  0  0  0  0  0  0
    3.7541   -2.0430   -1.9611 H   0  0  0  0  0  0  0  0  0  0  0  0
    4.0393   -3.4727   -0.9297 H   0  0  0  0  0  0  0  0  0  0  0  0
    2.6175   -3.0203    1.7686 C   0  0  0  0  0  0  0  0  0  0  0  0
    3.4845   -2.7486    2.4045 H   0  0  0  0  0  0  0  0  0  0  0  0
    2.7577   -4.0683    1.4324 H   0  0  0  0  0  0  0  0  0  0  0  0
    1.7083   -2.9865    2.3969 H   0  0  0  0  0  0  0  0  0  0  0  0
    0.8314   -2.0156   -0.5914 C   0  0  0  0  0  0  0  0  0  0  0  0
    0.5566   -1.4627   -1.8917 C   0  0  0  0  0  0  0  0  0  0  0  0
    1.3053   -1.2354   -2.6634 H   0  0  0  0  0  0  0  0  0  0  0  0
   -0.8569   -1.2934   -2.0534 C   0  0  0  0  0  0  0  0  0  0  0  0
   -1.4592   -1.6832   -0.8260 C   0  0  0  0  0  0  0  0  0  0  0  0
   -2.5343   -1.6675   -0.6165 H   0  0  0  0  0  0  0  0  0  0  0  0
   -0.4368   -2.1058    0.0741 C   0  0  0  0  0  3  0  0  0  0  0  0
   -0.6079   -2.4556    1.1011 H   0  0  0  0  0  0  0  0  0  0  0  0
   -1.5771   -0.8670   -3.2956 C   0  0  0  0  0  0  0  0  0  0  0  0
   -2.5657   -0.4325   -3.0521 H   0  0  0  0  0  0  0  0  0  0  0  0
   -1.7425   -1.7400   -3.9622 H   0  0  0  0  0  0  0  0  0  0  0  0
   -1.0020   -0.1076   -3.8594 H   0  0  0  0  0  0  0  0  0  0  0  0
    2.3736   -0.0574    0.6444 C   0  0  1  0  0  3  0  0  0  0  0  0
    2.4702    1.0074   -0.3325 C   0  0  1  0  0  3  0  0  0  0  0  0
    1.8603    2.1844    0.2163 C   0  0  1  0  0  3  0  0  0  0  0  0
    1.3524    1.8579    1.5113 C   0  0  0  0  0  0  0  0  0  0  0  0
    1.6504    0.4784    1.7741 C   0  0  0  0  0  0  0  0  0  0  0  0
    3.1782    0.9968   -1.6600 C   0  0  0  0  0  0  0  0  0  0  0  0
    2.5761    1.4956   -2.4459 H   0  0  0  0  0  0  0  0  0  0  0  0
    3.4117   -0.0240   -2.0069 H   0  0  0  0  0  0  0  0  0  0  0  0
    4.1418    1.5464   -1.5902 H   0  0  0  0  0  0  0  0  0  0  0  0
    1.8844    3.5448   -0.4087 C   0  0  0  0  0  0  0  0  0  0  0  0
    1.0730    4.1902   -0.0220 H   0  0  0  0  0  0  0  0  0  0  0  0
    1.7636    3.4924   -1.5073 H   0  0  0  0  0  0  0  0  0  0  0  0
    2.8500    4.0529   -0.1949 H   0  0  0  0  0  0  0  0  0  0  0  0
    0.7410    2.8342    2.4706 C   0  0  0  0  0  0  0  0  0  0  0  0
    0.0152    2.3569    3.1559 H   0  0  0  0  0  0  0  0  0  0  0  0
    0.2114    3.6499    1.9408 H   0  0  0  0  0  0  0  0  0  0  0  0
    1.5267    3.3080    3.0978 H   0  0  0  0  0  0  0  0  0  0  0  0
    1.3513   -0.2264    3.0703 C   0  0  0  0  0  0  0  0  0  0  0  0
    0.8406    0.4497    3.7810 H   0  0  0  0  0  0  0  0  0  0  0  0
    2.2859   -0.5737    3.5560 H   0  0  0  0  0  0  0  0  0  0  0  0
    0.7015   -1.1148    2.9438 H   0  0  0  0  0  0  0  0  0  0  0  0
  1  6  1  0  0  0  0
  2  3  1  0  0  0  0
  2  1  1  0  0  0  0
  4  2  1  0  0  0  0
  5  2  1  0  0  0  0
  6  9  1  0  0  0  0
  6  7  1  0  0  0  0
  8  6  1  0  0  0  0
 10 16  1  0  0  0  0
 10  1  1  0  0  0  0
 11 10  2  0  0  0  0
 12 11  1  0  0  0  0
 13 11  1  0  0  0  0
 13 14  2  0  0  0  0
 14 15  1  0  0  0  0
 14 16  1  0  0  0  0
 16 17  1  0  0  0  0
 18 19  1  0  0  0  0
 18 13  1  0  0  0  0
 20 18  1  0  0  0  0
 21 18  1  0  0  0  0
 22  1  1  6  0  0  0
 22 26  1  0  0  0  0
 23 27  1  1  0  0  0
 23 24  1  0  0  0  0
 23 22  1  0  0  0  0
 24 31  1  1  0  0  0
 24 25  1  0  0  0  0
 25 26  2  0  0  0  0
 25 35  1  0  0  0  0
 26 39  1  0  0  0  0
 27 30  1  0  0  0  0
 28 27  1  0  0  0  0
 29 27  1  0  0  0  0
 31 34  1  0  0  0  0
 31 32  1  0  0  0  0
 33 31  1  0  0  0  0
 35 38  1  0  0  0  0
 35 36  1  0  0  0  0
 37 35  1  0  0  0  0
 39 41  1  0  0  0  0
 39 40  1  0  0  0  0
 42 39  1  0  0  0  0
M  END
