4
q = 0.0, confidence = 0.976

 14 14  0  0  0  0  0  0  0  0999 V2000
   -2.6599   -0.2805    1.1443 C   0  0  0  0  0  3  0  0  0  0  0  0
   -2.4328   -0.9214    2.0129 H   0  0  0  0  0  0  0  0  0  0  0  0
   -3.7709   -0.9361    0.3694 C   0  0  0  0  0  0  0  0  0  0  0  0
   -2.3662    2.0045    0.2500 C   0  0  0  0  0  3  0  0  0  0  0  0
   -2.1085    3.0628    0.4034 H   0  0  0  0  0  0  0  0  0  0  0  0
   -2.4298    1.3952   -1.0780 C   0  0  0  0  0  3  0  0  0  0  0  0
   -1.9912    2.0167   -1.8761 H   0  0  0  0  0  0  0  0  0  0  0  0
   -2.5169    1.1486    1.3733 C   0  0  0  0  0  3  0  0  0  0  0  0
   -2.3647    1.5597    2.3827 H   0  0  0  0  0  0  0  0  0  0  0  0
   -3.6131    0.6477   -1.5452 C   0  0  0  0  0  0  0  0  0  0  0  0
   -3.9889    0.9398   -2.5418 H   0  0  0  0  0  0  0  0  0  0  0  0
   -4.2258   -2.0060    0.7788 O   0  0  0  0  0  0  0  0  0  0  0  0
   -4.2755   -0.3273   -0.8745 C   0  0  0  0  0  0  0  0  0  0  0  0
   -5.1662   -0.8101   -1.3045 H   0  0  0  0  0  0  0  0  0  0  0  0
  1  8  1  0  0  0  0
  1  2  1  0  0  0  0
  3 12  2  0  0  0  0
  3  1  1  0  0  0  0
  4  5  1  0  0  0  0
  4  8  1  0  0  0  0
  6  4  1  0  0  0  0
  7  6  1  0  0  0  0
  8  9  1  0  0  0  0
 10  6  1  0  0  0  0
 10 13  2  0  0  0  0
 11 10  1  0  0  0  0
 13  3  1  0  0  0  0
 14 13  1  0  0  0  0
M  END
