1
q = -1.0

 17 18  0  0  0  0  0  0  0  0999 V2000
    1.6156   -0.3811    0.3457 C   0  0  0  0  0  3  0  0  0  0  0  0
    2.0031   -0.6470    1.6992 C   0  0  0  0  0  0  0  0  0  0  0  0
    1.2454   -0.6295    2.4999 H   0  0  0  0  0  0  0  0  0  0  0  0
    3.3160   -0.9383    2.0408 C   0  0  0  0  0  0  0  0  0  0  0  0
    3.5852   -1.1409    3.0905 H   0  0  0  0  0  0  0  0  0  0  0  0
    4.3380   -0.9862    1.0482 C   0  0  0  0  0  0  0  0  0  0  0  0
    3.9628   -0.7490   -0.3241 C   0  0  0  0  0  0  0  0  0  0  0  0
    2.5984   -0.4588   -0.6361 C   0  0  0  0  0  0  0  0  0  0  0  0
    2.3397   -0.3354   -1.6987 H   0  0  0  0  0  0  0  0  0  0  0  0
    4.9726   -0.8142   -1.3296 C   0  0  0  0  0  0  0  0  0  0  0  0
    4.6824   -0.6398   -2.3780 H   0  0  0  0  0  0  0  0  0  0  0  0
    6.2919   -1.0915   -1.0003 C   0  0  0  0  0  0  0  0  0  0  0  0
    7.0587   -1.1375   -1.7891 H   0  0  0  0  0  0  0  0  0  0  0  0
    6.6608   -1.3201    0.3534 C   0  0  0  0  0  0  0  0  0  0  0  0
    7.7097   -1.5404    0.6042 H   0  0  0  0  0  0  0  0  0  0  0  0
    5.7006   -1.2692    1.3545 C   0  0  0  0  0  0  0  0  0  0  0  0
    5.9794   -1.4500    2.4051 H   0  0  0  0  0  0  0  0  0  0  0  0
  1  2  1  0  0  0  0
  2  4  2  0  0  0  0
  2  3  1  0  0  0  0
  4  5  1  0  0  0  0
  6 16  1  0  0  0  0
  6  4  1  0  0  0  0
  7  6  2  0  0  0  0
  8  7  1  0  0  0  0
  8  1  2  0  0  0  0
  9  8  1  0  0  0  0
 10 12  2  0  0  0  0
 10  7  1  0  0  0  0
 11 10  1  0  0  0  0
 12 14  1  0  0  0  0
 13 12  1  0  0  0  0
 14 15  1  0  0  0  0
 14 16  2  0  0  0  0
 16 17  1  0  0  0  0
M  END
