23
q = -1.0

 48 54  0  0  1  0  0  0  0  0999 V2000
    1.3017    2.3810    0.2466 N   0  0  0  0  0  0  0  0  0  0  0  0
   -1.4399   -0.3624   -0.3035 C   0  0  1  0  0  3  0  0  0  0  0  0
    0.2709    1.5061    1.9435 N   0  0  0  0  0  0  0  0  0  0  0  0
   -2.4964    0.3306    0.8674 C   0  0  2  0  0  0  0  0  0  0  0  0
   -2.0576    0.7249    2.2846 C   0  0  0  0  0  0  0  0  0  0  0  0
   -2.3703    1.7763    2.4445 H   0  0  0  0  0  0  0  0  0  0  0  0
   -2.6497    0.1116    2.9914 H   0  0  0  0  0  0  0  0  0  0  0  0
   -2.6213   -1.3253    0.5103 B   0  0  1  0  0  0  0  0  0  0  0  0
   -2.2598   -2.1179    1.3462 H   0  0  0  0  0  0  0  0  0  0  0  0
   -0.5881    0.5761    2.6669 C   0  0  0  0  0  0  0  0  0  0  0  0
   -0.4698    0.7601    3.7534 H   0  0  0  0  0  0  0  0  0  0  0  0
   -0.2222   -0.4448    2.4308 H   0  0  0  0  0  0  0  0  0  0  0  0
   -2.3837   -1.4689   -1.2279 B   0  0  1  0  0  0  0  0  0  0  0  0
   -1.8612   -2.4585   -1.6727 H   0  0  0  0  0  0  0  0  0  0  0  0
    0.4362    2.8497    2.2440 C   0  0  0  0  0  0  0  0  0  0  0  0
    0.0806    3.2976    3.1766 H   0  0  0  0  0  0  0  0  0  0  0  0
   -2.0019    0.1392   -1.8425 B   0  0  1  0  0  0  0  0  0  0  0  0
   -1.1851    0.2979   -2.7182 H   0  0  0  0  0  0  0  0  0  0  0  0
    1.0970    3.3986    1.1806 C   0  0  0  0  0  0  0  0  0  0  0  0
    1.4402    4.4226    1.0215 H   0  0  0  0  0  0  0  0  0  0  0  0
   -2.0520    1.2608   -0.4808 B   0  0  0  0  0  0  0  0  0  0  0  0
   -1.3217    2.2055   -0.3293 H   0  0  0  0  0  0  0  0  0  0  0  0
    0.7925    1.1947    0.7170 C   0  0  0  0  0  2  0  0  0  0  0  0
   -4.0772   -0.3218    0.7622 B   0  0  2  0  0  0  0  0  0  0  0  0
   -4.6739   -0.4548    1.8048 H   0  0  0  0  0  0  0  0  0  0  0  0
    1.9642    2.6363   -1.0751 C   0  0  0  0  0  0  0  0  0  0  0  0
   -4.0357   -1.4641   -0.5854 B   0  0  2  0  0  0  0  0  0  0  0  0
   -4.7080   -2.4698   -0.5790 H   0  0  0  0  0  0  0  0  0  0  0  0
    3.4871    2.6758   -0.8568 C   0  0  0  0  0  0  0  0  0  0  0  0
    3.7637    3.4411   -0.1039 H   0  0  0  0  0  0  0  0  0  0  0  0
    4.0003    2.9258   -1.8061 H   0  0  0  0  0  0  0  0  0  0  0  0
    3.8657    1.6956   -0.5086 H   0  0  0  0  0  0  0  0  0  0  0  0
   -3.6441   -0.5358   -2.0631 B   0  0  2  0  0  0  0  0  0  0  0  0
   -4.0306   -0.8700   -3.1602 H   0  0  0  0  0  0  0  0  0  0  0  0
    1.4734    3.9925   -1.6170 C   0  0  0  0  0  0  0  0  0  0  0  0
    0.3668    4.0257   -1.6505 H   0  0  0  0  0  0  0  0  0  0  0  0
    1.8535    4.1241   -2.6484 H   0  0  0  0  0  0  0  0  0  0  0  0
    1.8404    4.8527   -1.0232 H   0  0  0  0  0  0  0  0  0  0  0  0
   -3.4341    1.1757   -1.6018 B   0  0  0  0  0  0  0  0  0  0  0  0
   -3.6676    2.1063   -2.3396 H   0  0  0  0  0  0  0  0  0  0  0  0
    1.5731    1.5472   -2.0785 C   0  0  0  0  0  0  0  0  0  0  0  0
    1.7733    0.5289   -1.6772 H   0  0  0  0  0  0  0  0  0  0  0  0
    2.1533    1.6870   -3.0113 H   0  0  0  0  0  0  0  0  0  0  0  0
    0.4958    1.5984   -2.3229 H   0  0  0  0  0  0  0  0  0  0  0  0
   -3.7166    1.2955    0.1411 B   0  0  1  0  0  0  0  0  0  0  0  0
   -4.0621    2.2780    0.7550 H   0  0  0  0  0  0  0  0  0  0  0  0
   -4.7031    0.1783   -0.8244 B   0  0  2  0  0  0  0  0  0  0  0  0
   -5.8848    0.3836   -0.9856 H   0  0  0  0  0  0  0  0  0  0  0  0
  1 23  1  0  0  0  0
  1 19  1  0  0  0  0
  2  8  1  0  0  0  0
  3 15  1  0  0  0  0
  3 10  1  0  0  0  0
  4  5  1  0  0  0  0
  5  6  1  0  0  0  0
  5 10  1  0  0  0  0
  5  7  1  0  0  0  0
  8  4  1  0  0  0  0
  8  9  1  0  0  0  0
 10 11  1  0  0  0  0
 12 10  1  0  0  0  0
 13  2  1  0  0  0  0
 13  8  1  0  0  0  0
 14 13  1  0  0  0  0
 15 16  1  0  0  0  0
 17 13  1  0  0  0  0
 17 21  1  0  0  0  0
 17  2  1  0  0  0  0
 18 17  1  0  0  0  0
 19 15  2  0  0  0  0
 20 19  1  0  0  0  0
 21 22  1  0  0  0  0
 21  4  1  0  0  0  0
 23  3  1  0  0  0  0
 24  4  1  0  0  0  0
 24 25  1  0  0  0  0
 26 29  1  0  0  0  0
 26  1  1  0  0  0  0
 27 28  1  0  0  0  0
 27 24  1  0  0  0  0
 29 32  1  0  0  0  0
 29 30  1  0  0  0  0
 31 29  1  0  0  0  0
 33 39  1  0  0  0  0
 33 47  1  0  0  0  0
 33 27  1  0  0  0  0
 34 33  1  0  0  0  0
 35 26  1  0  0  0  0
 35 38  1  0  0  0  0
 36 35  1  0  0  0  0
 37 35  1  0  0  0  0
 39 45  1  0  0  0  0
 40 39  1  0  0  0  0
 41 42  1  0  0  0  0
 41 26  1  0  0  0  0
 43 41  1  0  0  0  0
 44 41  1  0  0  0  0
 45 46  1  0  0  0  0
 45 24  1  0  0  0  0
 47 27  1  0  0  0  0
 47 45  1  0  0  0  0
 48 47  1  0  0  0  0
M  END
