1
q = -1.0

 47 48  0  0  0  0  0  0  0  0999 V2000
    1.9676    0.7996   -1.1999 C   0  0  0  0  0  2  0  0  0  0  0  0
    3.0188    0.7888   -2.0651 N   0  0  0  0  0  0  0  0  0  0  0  0
    2.9524    1.8581   -2.9572 C   0  0  0  0  0  0  0  0  0  0  0  0
    3.6990    2.0085   -3.7431 H   0  0  0  0  0  0  0  0  0  0  0  0
    1.8268    2.5739   -2.6559 C   0  0  0  0  0  0  0  0  0  0  0  0
    1.3791    3.4463   -3.1402 H   0  0  0  0  0  0  0  0  0  0  0  0
    1.2299    1.9075   -1.5816 N   0  0  0  0  0  0  0  0  0  0  0  0
    0.0353    2.2222   -0.9018 C   0  0  0  0  0  0  0  0  0  0  0  0
   -0.2494    3.5237   -0.5140 C   0  0  0  0  0  3  0  0  0  0  0  0
    0.4033    4.3755   -0.7452 H   0  0  0  0  0  0  0  0  0  0  0  0
   -1.3779    3.7859    0.2266 N   0  0  0  0  0  0  0  0  0  0  0  0
   -2.2100    2.7758    0.6038 C   0  0  0  0  0  0  0  0  0  0  0  0
   -3.0704    3.0496    1.2301 H   0  0  0  0  0  0  0  0  0  0  0  0
   -1.9935    1.4630    0.1940 C   0  0  0  0  0  0  0  0  0  0  0  0
   -0.8328    1.1579   -0.5570 C   0  0  0  0  0  0  0  0  0  0  0  0
   -0.6769    0.1576   -0.9907 H   0  0  0  0  0  0  0  0  0  0  0  0
   -2.9138    0.3906    0.7527 C   0  0  0  0  0  0  0  0  0  0  0  0
   -2.9718    0.3298    1.9902 O   0  0  0  0  0  0  0  0  0  0  0  0
   -3.5451   -0.4449   -0.1087 N   0  0  0  0  0  0  0  0  0  0  0  0
   -3.6784   -0.1519   -1.5559 C   0  0  0  0  0  0  0  0  0  0  0  0
   -3.0914    0.7729   -1.7275 H   0  0  0  0  0  0  0  0  0  0  0  0
   -4.2529   -1.6409    0.4305 C   0  0  0  0  0  0  0  0  0  0  0  0
   -4.6468   -2.1548   -0.4688 H   0  0  0  0  0  0  0  0  0  0  0  0
   -3.2675   -2.5966    1.1122 C   0  0  0  0  0  0  0  0  0  0  0  0
   -2.4236   -2.8454    0.4376 H   0  0  0  0  0  0  0  0  0  0  0  0
   -3.7856   -3.5381    1.3800 H   0  0  0  0  0  0  0  0  0  0  0  0
   -2.8651   -2.1507    2.0416 H   0  0  0  0  0  0  0  0  0  0  0  0
   -5.4463   -1.2692    1.3186 C   0  0  0  0  0  0  0  0  0  0  0  0
   -5.1078   -0.7651    2.2425 H   0  0  0  0  0  0  0  0  0  0  0  0
   -5.9968   -2.1882    1.6007 H   0  0  0  0  0  0  0  0  0  0  0  0
   -6.1517   -0.6011    0.7867 H   0  0  0  0  0  0  0  0  0  0  0  0
    4.0799   -0.2115   -2.0440 C   0  0  0  0  0  0  0  0  0  0  0  0
    3.7057   -1.0965   -1.4968 H   0  0  0  0  0  0  0  0  0  0  0  0
    4.9845    0.1874   -1.5436 H   0  0  0  0  0  0  0  0  0  0  0  0
    4.3315   -0.5066   -3.0796 H   0  0  0  0  0  0  0  0  0  0  0  0
   -3.0836   -1.2578   -2.4310 C   0  0  0  0  0  0  0  0  0  0  0  0
   -2.0298   -1.4741   -2.1630 H   0  0  0  0  0  0  0  0  0  0  0  0
   -3.1181   -0.9536   -3.4955 H   0  0  0  0  0  0  0  0  0  0  0  0
   -3.6558   -2.2034   -2.3437 H   0  0  0  0  0  0  0  0  0  0  0  0
   -5.1339    0.1692   -1.9213 C   0  0  0  0  0  0  0  0  0  0  0  0
   -5.7940   -0.7115   -1.7905 H   0  0  0  0  0  0  0  0  0  0  0  0
   -5.1964    0.4711   -2.9854 H   0  0  0  0  0  0  0  0  0  0  0  0
   -5.5335    0.9956   -1.3009 H   0  0  0  0  0  0  0  0  0  0  0  0
   -1.6498    5.1739    0.6268 C   0  0  0  0  0  0  0  0  0  0  0  0
   -0.8132    5.5596    1.2410 H   0  0  0  0  0  0  0  0  0  0  0  0
   -2.5791    5.2080    1.2205 H   0  0  0  0  0  0  0  0  0  0  0  0
   -1.7685    5.8096   -0.2720 H   0  0  0  0  0  0  0  0  0  0  0  0
  2 32  1  0  0  0  0
  2  1  1  0  0  0  0
  3  5  2  0  0  0  0
  3  2  1  0  0  0  0
  4  3  1  0  0  0  0
  5  7  1  0  0  0  0
  6  5  1  0  0  0  0
  7  1  1  0  0  0  0
  7  8  1  0  0  0  0
  8 15  2  0  0  0  0
  8  9  1  0  0  0  0
  9 11  1  0  0  0  0
 10  9  1  0  0  0  0
 11 12  1  0  0  0  0
 11 44  1  0  0  0  0
 12 13  1  0  0  0  0
 14 12  2  0  0  0  0
 14 17  1  0  0  0  0
 15 14  1  0  0  0  0
 16 15  1  0  0  0  0
 17 18  2  0  0  0  0
 19 22  1  0  0  0  0
 19 17  1  0  0  0  0
 20 19  1  0  0  0  0
 21 20  1  0  0  0  0
 22 24  1  0  0  0  0
 22 28  1  0  0  0  0
 23 22  1  0  0  0  0
 24 26  1  0  0  0  0
 24 27  1  0  0  0  0
 25 24  1  0  0  0  0
 28 30  1  0  0  0  0
 28 29  1  0  0  0  0
 31 28  1  0  0  0  0
 32 34  1  0  0  0  0
 32 33  1  0  0  0  0
 35 32  1  0  0  0  0
 36 39  1  0  0  0  0
 36 37  1  0  0  0  0
 36 20  1  0  0  0  0
 38 36  1  0  0  0  0
 40 41  1  0  0  0  0
 40 20  1  0  0  0  0
 40 43  1  0  0  0  0
 42 40  1  0  0  0  0
 44 46  1  0  0  0  0
 44 45  1  0  0  0  0
 47 44  1  0  0  0  0
M  END
