1
q = 0.0, confidence = 0.994

 82 84  0  0  1  0  0  0  0  0999 V2000
   -0.8020   -0.2031    0.9489 C   0  0  0  0  0  2  0  0  0  0  0  0
   -0.1842   -0.3315    2.1403 N   0  0  1  0  0  0  0  0  0  0  0  0
   -1.1405   -0.5677    3.2334 C   0  0  0  0  0  0  0  0  0  0  0  0
   -0.9062    0.0609    4.1148 H   0  0  0  0  0  0  0  0  0  0  0  0
   -1.0998   -1.6326    3.5517 H   0  0  0  0  0  0  0  0  0  0  0  0
   -2.4864   -0.2105    2.5798 C   0  0  0  0  0  0  0  0  0  0  0  0
   -3.2894   -0.9419    2.7984 H   0  0  0  0  0  0  0  0  0  0  0  0
   -2.8527    0.7982    2.8755 H   0  0  0  0  0  0  0  0  0  0  0  0
   -2.1422   -0.2134    1.1484 N   0  0  0  0  0  0  0  0  0  0  0  0
    1.2655   -0.4280    2.3307 C   0  0  0  0  0  0  0  0  0  0  0  0
    1.6850   -0.2111    1.3269 H   0  0  0  0  0  0  0  0  0  0  0  0
    1.7767    0.6399    3.3127 C   0  0  0  0  0  0  0  0  0  0  0  0
    2.8849    0.5794    3.2972 H   0  0  0  0  0  0  0  0  0  0  0  0
    1.4851    0.3639    4.3507 H   0  0  0  0  0  0  0  0  0  0  0  0
    1.3244    2.0793    3.0179 C   0  0  0  0  0  0  0  0  0  0  0  0
    0.2389    2.1760    3.2435 H   0  0  0  0  0  0  0  0  0  0  0  0
    1.8386    2.7527    3.7380 H   0  0  0  0  0  0  0  0  0  0  0  0
    1.5653    2.5697    1.5826 C   0  0  0  0  0  0  0  0  0  0  0  0
    1.2400    3.6308    1.5084 H   0  0  0  0  0  0  0  0  0  0  0  0
    0.8996    2.0147    0.8842 H   0  0  0  0  0  0  0  0  0  0  0  0
    3.0009    2.4398    1.0665 C   0  0  0  0  0  0  0  0  0  0  0  0
    3.6931    3.0489    1.6914 H   0  0  0  0  0  0  0  0  0  0  0  0
    3.3443    1.3914    1.1864 H   0  0  0  0  0  0  0  0  0  0  0  0
    3.1316    2.8441   -0.4090 C   0  0  0  0  0  0  0  0  0  0  0  0
    2.9618    3.9404   -0.4845 H   0  0  0  0  0  0  0  0  0  0  0  0
    2.3033    2.3739   -0.9850 H   0  0  0  0  0  0  0  0  0  0  0  0
    4.4668    2.4733   -1.0857 C   0  0  0  0  0  0  0  0  0  0  0  0
    4.6988    3.2380   -1.8567 H   0  0  0  0  0  0  0  0  0  0  0  0
    5.2961    2.5390   -0.3438 H   0  0  0  0  0  0  0  0  0  0  0  0
    4.4819    1.0992   -1.7770 C   0  0  0  0  0  0  0  0  0  0  0  0
    5.4137    1.0089   -2.3791 H   0  0  0  0  0  0  0  0  0  0  0  0
    3.6386    1.0569   -2.5002 H   0  0  0  0  0  0  0  0  0  0  0  0
    4.3841   -0.1195   -0.8535 C   0  0  0  0  0  0  0  0  0  0  0  0
    5.2583   -0.1318   -0.1608 H   0  0  0  0  0  0  0  0  0  0  0  0
    3.4853   -0.0175   -0.2087 H   0  0  0  0  0  0  0  0  0  0  0  0
    4.2854   -1.4491   -1.6103 C   0  0  0  0  0  0  0  0  0  0  0  0
    5.0295   -1.4558   -2.4372 H   0  0  0  0  0  0  0  0  0  0  0  0
    3.2919   -1.4912   -2.1066 H   0  0  0  0  0  0  0  0  0  0  0  0
    4.5215   -2.6980   -0.7440 C   0  0  0  0  0  0  0  0  0  0  0  0
    4.3186   -3.6056   -1.3548 H   0  0  0  0  0  0  0  0  0  0  0  0
    5.6004   -2.7491   -0.4761 H   0  0  0  0  0  0  0  0  0  0  0  0
    3.7109   -2.7746    0.5584 C   0  0  0  0  0  0  0  0  0  0  0  0
    4.0231   -3.6815    1.1241 H   0  0  0  0  0  0  0  0  0  0  0  0
    3.9970   -1.9146    1.2027 H   0  0  0  0  0  0  0  0  0  0  0  0
    2.1904   -2.7997    0.3776 C   0  0  0  0  0  0  0  0  0  0  0  0
    1.9133   -3.6454   -0.2888 H   0  0  0  0  0  0  0  0  0  0  0  0
    1.8550   -1.8898   -0.1697 H   0  0  0  0  0  0  0  0  0  0  0  0
    1.3996   -2.9349    1.6895 C   0  0  0  0  0  0  0  0  0  0  0  0
    1.6195   -3.9239    2.1481 H   0  0  0  0  0  0  0  0  0  0  0  0
    0.3119   -2.9450    1.4539 H   0  0  0  0  0  0  0  0  0  0  0  0
    1.6812   -1.8510    2.7409 C   0  0  0  0  0  0  0  0  0  0  0  0
    1.1809   -2.1135    3.6993 H   0  0  0  0  0  0  0  0  0  0  0  0
    2.7645   -1.8256    2.9798 H   0  0  0  0  0  0  0  0  0  0  0  0
   -3.1158    0.0543    0.1306 C   0  0  0  0  0  0  0  0  0  0  0  0
   -3.3627    1.3946   -0.2564 C   0  0  0  0  0  0  0  0  0  0  0  0
   -4.3339    1.6169   -1.2512 C   0  0  0  0  0  0  0  0  0  0  0  0
   -4.5418    2.6461   -1.5814 H   0  0  0  0  0  0  0  0  0  0  0  0
   -5.0295    0.5503   -1.8314 C   0  0  0  0  0  0  0  0  0  0  0  0
   -5.7821    0.7460   -2.6103 H   0  0  0  0  0  0  0  0  0  0  0  0
   -4.7663   -0.7670   -1.4324 C   0  0  0  0  0  0  0  0  0  0  0  0
   -5.3116   -1.5963   -1.9059 H   0  0  0  0  0  0  0  0  0  0  0  0
   -3.8052   -1.0432   -0.4438 C   0  0  0  0  0  0  0  0  0  0  0  0
   -2.6041    2.5693    0.3491 C   0  0  0  0  0  0  0  0  0  0  0  0
   -1.8891    2.1637    1.0937 H   0  0  0  0  0  0  0  0  0  0  0  0
   -3.4514   -2.4745   -0.0590 C   0  0  0  0  0  0  0  0  0  0  0  0
   -3.0042   -2.4396    0.9572 H   0  0  0  0  0  0  0  0  0  0  0  0
   -3.5492    3.5300    1.0911 C   0  0  0  0  0  0  0  0  0  0  0  0
   -2.9746    4.3472    1.5731 H   0  0  0  0  0  0  0  0  0  0  0  0
   -4.1309    3.0062    1.8771 H   0  0  0  0  0  0  0  0  0  0  0  0
   -4.2766    3.9991    0.3969 H   0  0  0  0  0  0  0  0  0  0  0  0
   -1.7665    3.3017   -0.7130 C   0  0  0  0  0  0  0  0  0  0  0  0
   -1.1629    4.1058   -0.2446 H   0  0  0  0  0  0  0  0  0  0  0  0
   -2.4100    3.7676   -1.4873 H   0  0  0  0  0  0  0  0  0  0  0  0
   -1.0722    2.6019   -1.2215 H   0  0  0  0  0  0  0  0  0  0  0  0
   -4.6690   -3.4065    0.0041 C   0  0  0  0  0  0  0  0  0  0  0  0
   -4.3720   -4.3998    0.3968 H   0  0  0  0  0  0  0  0  0  0  0  0
   -5.1101   -3.5767   -0.9995 H   0  0  0  0  0  0  0  0  0  0  0  0
   -5.4657   -2.9996    0.6592 H   0  0  0  0  0  0  0  0  0  0  0  0
   -2.3691   -3.0267   -1.0067 C   0  0  0  0  0  0  0  0  0  0  0  0
   -2.0645   -4.0496   -0.7033 H   0  0  0  0  0  0  0  0  0  0  0  0
   -1.4667   -2.3807   -1.0123 H   0  0  0  0  0  0  0  0  0  0  0  0
   -2.7481   -3.0738   -2.0482 H   0  0  0  0  0  0  0  0  0  0  0  0
  1  9  1  0  0  0  0
  2  1  1  6  0  0  0
  2 10  1  0  0  0  0
  2  3  1  0  0  0  0
  3  5  1  0  0  0  0
  3  4  1  0  0  0  0
  6  7  1  0  0  0  0
  6  8  1  0  0  0  0
  6  3  1  0  0  0  0
  9  6  1  0  0  0  0
 10 51  1  0  0  0  0
 10 12  1  0  0  0  0
 11 10  1  0  0  0  0
 12 14  1  0  0  0  0
 13 12  1  0  0  0  0
 15 16  1  0  0  0  0
 15 12  1  0  0  0  0
 15 17  1  0  0  0  0
 18 15  1  0  0  0  0
 19 18  1  0  0  0  0
 20 18  1  0  0  0  0
 21 23  1  0  0  0  0
 21 18  1  0  0  0  0
 21 22  1  0  0  0  0
 24 21  1  0  0  0  0
 25 24  1  0  0  0  0
 26 24  1  0  0  0  0
 27 24  1  0  0  0  0
 27 29  1  0  0  0  0
 28 27  1  0  0  0  0
 30 27  1  0  0  0  0
 30 33  1  0  0  0  0
 31 30  1  0  0  0  0
 32 30  1  0  0  0  0
 33 35  1  0  0  0  0
 33 34  1  0  0  0  0
 36 33  1  0  0  0  0
 36 39  1  0  0  0  0
 37 36  1  0  0  0  0
 38 36  1  0  0  0  0
 39 41  1  0  0  0  0
 39 42  1  0  0  0  0
 40 39  1  0  0  0  0
 42 43  1  0  0  0  0
 42 44  1  0  0  0  0
 45 42  1  0  0  0  0
 45 48  1  0  0  0  0
 46 45  1  0  0  0  0
 47 45  1  0  0  0  0
 48 49  1  0  0  0  0
 48 51  1  0  0  0  0
 50 48  1  0  0  0  0
 51 53  1  0  0  0  0
 51 52  1  0  0  0  0
 54  9  1  0  0  0  0
 55 54  1  0  0  0  0
 55 63  1  0  0  0  0
 56 55  2  0  0  0  0
 57 56  1  0  0  0  0
 58 60  2  0  0  0  0
 58 56  1  0  0  0  0
 59 58  1  0  0  0  0
 60 62  1  0  0  0  0
 61 60  1  0  0  0  0
 62 65  1  0  0  0  0
 62 54  2  0  0  0  0
 63 67  1  0  0  0  0
 63 64  1  0  0  0  0
 65 75  1  0  0  0  0
 65 66  1  0  0  0  0
 67 68  1  0  0  0  0
 67 69  1  0  0  0  0
 70 67  1  0  0  0  0
 71 72  1  0  0  0  0
 71 63  1  0  0  0  0
 73 71  1  0  0  0  0
 74 71  1  0  0  0  0
 75 76  1  0  0  0  0
 75 78  1  0  0  0  0
 77 75  1  0  0  0  0
 79 80  1  0  0  0  0
 79 65  1  0  0  0  0
 81 79  1  0  0  0  0
 82 79  1  0  0  0  0
M  END
