1
q = 0.0, confidence = 1.0

 56 58  0  0  1  0  0  0  0  0999 V2000
    0.3641    0.6798    0.3044 C   0  0  0  0  0  2  0  0  0  0  0  0
    1.5242    1.3133    0.5634 N   0  0  2  0  0  0  0  0  0  0  0  0
    1.5970    2.7186    1.0158 C   0  0  0  0  0  0  0  0  0  0  0  0
    1.6995    3.3888    0.1264 H   0  0  0  0  0  0  0  0  0  0  0  0
    2.5266    2.8472    1.6069 H   0  0  0  0  0  0  0  0  0  0  0  0
    0.3877    3.0656    1.8316 C   0  0  0  0  0  0  0  0  0  0  0  0
    0.4337    3.8745    2.5728 H   0  0  0  0  0  0  0  0  0  0  0  0
   -0.7544    2.3876    1.6151 C   0  0  0  0  0  0  0  0  0  0  0  0
   -1.7024    2.5915    2.1318 H   0  0  0  0  0  0  0  0  0  0  0  0
   -0.7882    1.3004    0.7225 N   0  0  0  0  0  0  0  0  0  0  0  0
    2.8068    0.6491    0.2595 C   0  0  0  0  0  0  0  0  0  0  0  0
    2.5096   -0.3223   -0.1946 H   0  0  0  0  0  0  0  0  0  0  0  0
    3.6374    1.4160   -0.7786 C   0  0  0  0  0  0  0  0  0  0  0  0
    3.9249    2.4152   -0.3817 H   0  0  0  0  0  0  0  0  0  0  0  0
    3.0211    1.5881   -1.6859 H   0  0  0  0  0  0  0  0  0  0  0  0
    4.9104    0.6300   -1.1239 C   0  0  0  0  0  0  0  0  0  0  0  0
    4.6236   -0.3201   -1.6262 H   0  0  0  0  0  0  0  0  0  0  0  0
    5.5188    1.1997   -1.8562 H   0  0  0  0  0  0  0  0  0  0  0  0
    5.7319    0.3124    0.1323 C   0  0  0  0  0  0  0  0  0  0  0  0
    6.6302   -0.2817   -0.1349 H   0  0  0  0  0  0  0  0  0  0  0  0
    6.1064    1.2632    0.5755 H   0  0  0  0  0  0  0  0  0  0  0  0
    4.8906   -0.4350    1.1752 C   0  0  0  0  0  0  0  0  0  0  0  0
    5.4835   -0.6261    2.0934 H   0  0  0  0  0  0  0  0  0  0  0  0
    4.6076   -1.4322    0.7717 H   0  0  0  0  0  0  0  0  0  0  0  0
    3.6122    0.3379    1.5296 C   0  0  0  0  0  0  0  0  0  0  0  0
    2.9763   -0.2460    2.2267 H   0  0  0  0  0  0  0  0  0  0  0  0
    3.8882    1.2821    2.0517 H   0  0  0  0  0  0  0  0  0  0  0  0
   -2.0752    0.7241    0.3942 C   0  0  0  0  0  0  0  0  0  0  0  0
   -2.7537    1.2194   -0.7459 C   0  0  0  0  0  0  0  0  0  0  0  0
   -4.0129    0.6676   -1.0451 C   0  0  0  0  0  0  0  0  0  0  0  0
   -4.5609    1.0202   -1.9311 H   0  0  0  0  0  0  0  0  0  0  0  0
   -4.5738   -0.3278   -0.2356 C   0  0  0  0  0  0  0  0  0  0  0  0
   -5.5589   -0.7488   -0.4879 H   0  0  0  0  0  0  0  0  0  0  0  0
   -3.8837   -0.7942    0.8891 C   0  0  0  0  0  0  0  0  0  0  0  0
   -4.3304   -1.5827    1.5130 H   0  0  0  0  0  0  0  0  0  0  0  0
   -2.6181   -0.2817    1.2301 C   0  0  0  0  0  0  0  0  0  0  0  0
   -2.1169    2.2577   -1.6613 C   0  0  0  0  0  0  0  0  0  0  0  0
   -1.3204    2.7668   -1.0799 H   0  0  0  0  0  0  0  0  0  0  0  0
   -1.8830   -0.8074    2.4565 C   0  0  0  0  0  0  0  0  0  0  0  0
   -0.8566   -0.3885    2.4380 H   0  0  0  0  0  0  0  0  0  0  0  0
   -3.1048    3.3392   -2.1220 C   0  0  0  0  0  0  0  0  0  0  0  0
   -3.6090    3.8256   -1.2629 H   0  0  0  0  0  0  0  0  0  0  0  0
   -3.8909    2.9253   -2.7864 H   0  0  0  0  0  0  0  0  0  0  0  0
   -2.5740    4.1231   -2.6994 H   0  0  0  0  0  0  0  0  0  0  0  0
   -1.4416    1.5631   -2.8590 C   0  0  0  0  0  0  0  0  0  0  0  0
   -0.6999    0.8099   -2.5218 H   0  0  0  0  0  0  0  0  0  0  0  0
   -0.9258    2.3031   -3.5053 H   0  0  0  0  0  0  0  0  0  0  0  0
   -2.1931    1.0305   -3.4775 H   0  0  0  0  0  0  0  0  0  0  0  0
   -2.5605   -0.3248    3.7518 C   0  0  0  0  0  0  0  0  0  0  0  0
   -2.0014   -0.6790    4.6420 H   0  0  0  0  0  0  0  0  0  0  0  0
   -3.5976   -0.7121    3.8284 H   0  0  0  0  0  0  0  0  0  0  0  0
   -2.6140    0.7819    3.7998 H   0  0  0  0  0  0  0  0  0  0  0  0
   -1.7439   -2.3385    2.4267 C   0  0  0  0  0  0  0  0  0  0  0  0
   -1.2631   -2.6785    1.4871 H   0  0  0  0  0  0  0  0  0  0  0  0
   -2.7297   -2.8411    2.5083 H   0  0  0  0  0  0  0  0  0  0  0  0
   -1.1249   -2.6846    3.2794 H   0  0  0  0  0  0  0  0  0  0  0  0
  1  2  1  0  0  0  0
  1 10  1  0  0  0  0
  2 11  1  6  0  0  0
  2  3  1  0  0  0  0
  3  5  1  0  0  0  0
  3  6  1  0  0  0  0
  4  3  1  0  0  0  0
  6  7  1  0  0  0  0
  8  6  2  0  0  0  0
  8  9  1  0  0  0  0
 10  8  1  0  0  0  0
 11 25  1  0  0  0  0
 12 11  1  0  0  0  0
 13 14  1  0  0  0  0
 13 11  1  0  0  0  0
 15 13  1  0  0  0  0
 16 13  1  0  0  0  0
 16 19  1  0  0  0  0
 17 16  1  0  0  0  0
 18 16  1  0  0  0  0
 19 21  1  0  0  0  0
 19 22  1  0  0  0  0
 20 19  1  0  0  0  0
 22 25  1  0  0  0  0
 22 23  1  0  0  0  0
 24 22  1  0  0  0  0
 25 27  1  0  0  0  0
 25 26  1  0  0  0  0
 28 10  1  0  0  0  0
 28 36  1  0  0  0  0
 29 28  2  0  0  0  0
 30 29  1  0  0  0  0
 30 32  2  0  0  0  0
 31 30  1  0  0  0  0
 32 34  1  0  0  0  0
 33 32  1  0  0  0  0
 34 36  2  0  0  0  0
 34 35  1  0  0  0  0
 36 39  1  0  0  0  0
 37 38  1  0  0  0  0
 37 29  1  0  0  0  0
 39 49  1  0  0  0  0
 40 39  1  0  0  0  0
 41 37  1  0  0  0  0
 41 42  1  0  0  0  0
 43 41  1  0  0  0  0
 44 41  1  0  0  0  0
 45 46  1  0  0  0  0
 45 37  1  0  0  0  0
 47 45  1  0  0  0  0
 48 45  1  0  0  0  0
 49 52  1  0  0  0  0
 49 51  1  0  0  0  0
 49 50  1  0  0  0  0
 53 39  1  0  0  0  0
 53 55  1  0  0  0  0
 53 56  1  0  0  0  0
 54 53  1  0  0  0  0
M  END
