2
q = 0.0, confidence = 0.986

 35 37  0  0  1  0  0  0  0  0999 V2000
   -2.0496    1.2668    0.7671 N   0  0  0  0  0  0  0  0  0  0  0  0
   -1.2571    0.6773   -0.2923 C   0  0  1  0  0  3  0  0  0  0  0  0
   -2.1481    0.8778   -1.4272 C   0  0  0  0  0  3  0  0  0  0  0  0
   -2.9252    2.1764   -1.2588 C   0  0  0  0  0  0  0  0  0  0  0  0
   -2.8161    2.4350    0.2565 C   0  0  0  0  0  0  0  0  0  0  0  0
   -1.5514    1.3711    2.1348 C   0  0  0  0  0  0  0  0  0  0  0  0
   -0.9307    0.4896    2.3730 H   0  0  0  0  0  0  0  0  0  0  0  0
   -2.4104    1.4065    2.8318 H   0  0  0  0  0  0  0  0  0  0  0  0
   -0.9418    2.2910    2.2670 H   0  0  0  0  0  0  0  0  0  0  0  0
    0.2087    0.4860   -0.2159 C   0  0  0  0  0  0  0  0  0  0  0  0
    0.7996   -0.7667   -0.4777 C   0  0  0  0  0  0  0  0  0  0  0  0
    0.1459   -1.6208   -0.7085 H   0  0  0  0  0  0  0  0  0  0  0  0
    2.1886   -0.9261   -0.4425 C   0  0  0  0  0  0  0  0  0  0  0  0
    2.6234   -1.9086   -0.6791 H   0  0  0  0  0  0  0  0  0  0  0  0
    3.0437    0.1532   -0.1220 C   0  0  0  0  0  0  0  0  0  0  0  0
    2.4465    1.4060    0.1469 C   0  0  0  0  0  0  0  0  0  0  0  0
    3.0826    2.2609    0.4214 H   0  0  0  0  0  0  0  0  0  0  0  0
    1.0587    1.5724    0.0919 C   0  0  0  0  0  0  0  0  0  0  0  0
    0.6257    2.5656    0.2892 H   0  0  0  0  0  0  0  0  0  0  0  0
    4.5163   -0.0228   -0.0657 C   0  0  0  0  0  0  0  0  0  0  0  0
    5.0869   -1.2325    0.3929 C   0  0  0  0  0  0  0  0  0  0  0  0
    4.4284   -2.0438    0.7380 H   0  0  0  0  0  0  0  0  0  0  0  0
    6.4772   -1.3992    0.4464 C   0  0  0  0  0  0  0  0  0  0  0  0
    6.8982   -2.3467    0.8160 H   0  0  0  0  0  0  0  0  0  0  0  0
    7.3307   -0.3604    0.0419 C   0  0  0  0  0  0  0  0  0  0  0  0
    8.4225   -0.4914    0.0834 H   0  0  0  0  0  0  0  0  0  0  0  0
    6.7797    0.8469   -0.4166 C   0  0  0  0  0  0  0  0  0  0  0  0
    7.4393    1.6644   -0.7458 H   0  0  0  0  0  0  0  0  0  0  0  0
    5.3894    1.0135   -0.4693 C   0  0  0  0  0  0  0  0  0  0  0  0
    4.9692    1.9538   -0.8571 H   0  0  0  0  0  0  0  0  0  0  0  0
   -1.8388    0.5557   -2.4320 H   0  0  0  0  0  0  0  0  0  0  0  0
   -3.9772    2.0931   -1.5967 H   0  0  0  0  0  0  0  0  0  0  0  0
   -2.4600    3.0088   -1.8336 H   0  0  0  0  0  0  0  0  0  0  0  0
   -3.7908    2.4837    0.7804 H   0  0  0  0  0  0  0  0  0  0  0  0
   -2.2515    3.3676    0.4846 H   0  0  0  0  0  0  0  0  0  0  0  0
  1  6  1  0  0  0  0
  2 10  1  6  0  0  0
  2  1  1  0  0  0  0
  3  4  1  0  0  0  0
  3  2  1  0  0  0  0
  4  5  1  0  0  0  0
  5 35  1  0  0  0  0
  5  1  1  0  0  0  0
  5 34  1  0  0  0  0
  6  9  1  0  0  0  0
  6  7  1  0  0  0  0
  6  8  1  0  0  0  0
 10 18  1  0  0  0  0
 11 13  1  0  0  0  0
 11 10  2  0  0  0  0
 12 11  1  0  0  0  0
 13 15  2  0  0  0  0
 14 13  1  0  0  0  0
 15 20  1  0  0  0  0
 15 16  1  0  0  0  0
 16 17  1  0  0  0  0
 18 16  2  0  0  0  0
 18 19  1  0  0  0  0
 20 21  1  0  0  0  0
 21 23  2  0  0  0  0
 21 22  1  0  0  0  0
 23 24  1  0  0  0  0
 25 26  1  0  0  0  0
 25 23  1  0  0  0  0
 27 25  2  0  0  0  0
 28 27  1  0  0  0  0
 29 27  1  0  0  0  0
 29 20  2  0  0  0  0
 30 29  1  0  0  0  0
 31  3  1  0  0  0  0
 32  4  1  0  0  0  0
 33  4  1  0  0  0  0
M  END
