1
q = -1.0

 20 20  0  0  0  0  0  0  0  0999 V2000
    1.1664    0.2262   -0.2399 C   0  0  0  0  0  3  0  0  0  0  0  0
    1.8474   -0.8696   -0.8301 C   0  0  0  0  0  0  0  0  0  0  0  0
    3.2417   -1.0095   -0.7378 C   0  0  0  0  0  0  0  0  0  0  0  0
    3.7386   -1.8627   -1.2179 H   0  0  0  0  0  0  0  0  0  0  0  0
    4.0004   -0.0609   -0.0423 C   0  0  0  0  0  0  0  0  0  0  0  0
    3.3566    1.0224    0.5677 C   0  0  0  0  0  0  0  0  0  0  0  0
    3.9453    1.7683    1.1173 H   0  0  0  0  0  0  0  0  0  0  0  0
    1.9618    1.1634    0.4756 C   0  0  0  0  0  0  0  0  0  0  0  0
    1.0883   -1.9593   -1.5612 C   0  0  0  0  0  0  0  0  0  0  0  0
    0.3221   -1.4902   -2.5716 F   0  0  0  0  0  0  0  0  0  0  0  0
    0.2529   -2.6377   -0.7139 F   0  0  0  0  0  0  0  0  0  0  0  0
    1.9167   -2.8884   -2.0965 F   0  0  0  0  0  0  0  0  0  0  0  0
    5.4895   -0.2427    0.1099 C   0  0  0  0  0  0  0  0  0  0  0  0
    5.7899   -0.9719    1.2179 F   0  0  0  0  0  0  0  0  0  0  0  0
    6.1321    0.9428    0.2345 F   0  0  0  0  0  0  0  0  0  0  0  0
    6.0282   -0.8959   -0.9472 F   0  0  0  0  0  0  0  0  0  0  0  0
    1.3402    2.3503    1.1963 C   0  0  0  0  0  0  0  0  0  0  0  0
    0.3688    1.9472    2.0752 F   0  0  0  0  0  0  0  0  0  0  0  0
    0.7701    3.2466    0.3711 F   0  0  0  0  0  0  0  0  0  0  0  0
    2.2583    3.0222    1.9368 F   0  0  0  0  0  0  0  0  0  0  0  0
  1  8  1  0  0  0  0
  2  3  1  0  0  0  0
  2  1  2  0  0  0  0
  3  5  2  0  0  0  0
  4  3  1  0  0  0  0
  5 13  1  0  0  0  0
  5  6  1  0  0  0  0
  6  7  1  0  0  0  0
  8  6  2  0  0  0  0
  8 17  1  0  0  0  0
  9  2  1  0  0  0  0
  9 11  1  0  0  0  0
 10  9  1  0  0  0  0
 12  9  1  0  0  0  0
 13 15  1  0  0  0  0
 13 14  1  0  0  0  0
 16 13  1  0  0  0  0
 17 20  1  0  0  0  0
 17 18  1  0  0  0  0
 19 17  1  0  0  0  0
M  END
