22
q = 0.0, confidence = 0.99

 31 32  0  0  0  0  0  0  0  0999 V2000
   -3.0134   -1.4616   -1.4839 C   0  0  0  0  0  0  0  0  0  0  0  0
   -3.0266   -2.3363   -2.1537 H   0  0  0  0  0  0  0  0  0  0  0  0
   -4.2188   -0.8767   -1.0780 C   0  0  0  0  0  0  0  0  0  0  0  0
   -5.1907   -1.2711   -1.4087 H   0  0  0  0  0  0  0  0  0  0  0  0
   -4.2081    0.2415   -0.2235 C   0  0  0  0  0  0  0  0  0  0  0  0
   -5.5256    0.8216    0.1798 C   0  0  0  0  0  0  0  0  0  0  0  0
   -6.6098    0.3906   -0.1757 O   0  0  0  0  0  0  0  0  0  0  0  0
   -5.3816    1.8951    0.9968 O   0  0  0  0  0  0  0  0  0  0  0  0
   -6.6041    2.5065    1.4218 C   0  0  0  0  0  0  0  0  0  0  0  0
   -7.1863    2.8705    0.5512 H   0  0  0  0  0  0  0  0  0  0  0  0
   -6.3152    3.3502    2.0731 H   0  0  0  0  0  0  0  0  0  0  0  0
   -7.2339    1.7837    1.9788 H   0  0  0  0  0  0  0  0  0  0  0  0
   -2.9766    0.7710    0.2168 C   0  0  0  0  0  0  0  0  0  0  0  0
   -2.9739    1.6477    0.8786 H   0  0  0  0  0  0  0  0  0  0  0  0
   -1.7753    0.1843   -0.1928 C   0  0  0  0  0  0  0  0  0  0  0  0
   -0.8132    0.5986    0.1496 H   0  0  0  0  0  0  0  0  0  0  0  0
   -1.7823   -0.9382   -1.0466 C   0  0  0  0  0  0  0  0  0  0  0  0
   -0.4743   -1.5653   -1.4827 C   0  0  0  0  0  0  0  0  0  0  0  0
   -0.6574   -2.4120   -2.1736 H   0  0  0  0  0  0  0  0  0  0  0  0
    0.1625   -0.8244   -2.0081 H   0  0  0  0  0  0  0  0  0  0  0  0
    0.3246   -2.0414   -0.3542 N   0  0  0  0  0  0  0  0  0  0  0  0
    1.4422   -1.4058    0.1094 C   0  0  0  0  0  2  0  0  0  0  0  0
    0.0040   -3.1384    0.4335 C   0  0  0  0  0  0  0  0  0  0  0  0
   -0.8690   -3.7683    0.2386 H   0  0  0  0  0  0  0  0  0  0  0  0
    0.9598   -3.2009    1.4153 C   0  0  0  0  0  0  0  0  0  0  0  0
    1.0946   -3.9106    2.2371 H   0  0  0  0  0  0  0  0  0  0  0  0
    1.8239   -2.1365    1.2005 N   0  0  0  0  0  0  0  0  0  0  0  0
    2.9947   -1.8341    2.0200 C   0  0  0  0  0  0  0  0  0  0  0  0
    3.4554   -0.8889    1.6623 H   0  0  0  0  0  0  0  0  0  0  0  0
    3.7357   -2.6540    1.9425 H   0  0  0  0  0  0  0  0  0  0  0  0
    2.6921   -1.7149    3.0785 H   0  0  0  0  0  0  0  0  0  0  0  0
  1  3  2  0  0  0  0
  1 17  1  0  0  0  0
  2  1  1  0  0  0  0
  3  5  1  0  0  0  0
  4  3  1  0  0  0  0
  5  6  1  0  0  0  0
  5 13  2  0  0  0  0
  6  8  1  0  0  0  0
  7  6  2  0  0  0  0
  8  9  1  0  0  0  0
  9 12  1  0  0  0  0
  9 11  1  0  0  0  0
 10  9  1  0  0  0  0
 13 14  1  0  0  0  0
 15 16  1  0  0  0  0
 15 13  1  0  0  0  0
 17 15  2  0  0  0  0
 18 17  1  0  0  0  0
 18 21  1  0  0  0  0
 19 18  1  0  0  0  0
 20 18  1  0  0  0  0
 21 22  1  0  0  0  0
 21 23  1  0  0  0  0
 22 27  1  0  0  0  0
 23 25  2  0  0  0  0
 24 23  1  0  0  0  0
 25 26  1  0  0  0  0
 27 25  1  0  0  0  0
 27 28  1  0  0  0  0
 28 31  1  0  0  0  0
 29 28  1  0  0  0  0
 30 28  1  0  0  0  0
M  END
