3
q = -1.0, confidence = 0.288

 21 21  0  0  0  0  0  0  0  0999 V2000
   -0.5097    1.6778    0.4552 N   0  0  0  0  0  0  0  0  0  0  0  0
   -3.6531   -1.0270    0.4012 N   0  0  0  0  0  0  0  0  0  0  0  0
    0.8819    0.7499   -1.9816 C   0  0  0  0  0  3  0  0  0  0  0  0
    1.5138    1.4469   -0.9514 C   0  0  0  0  0  3  0  0  0  0  0  0
    0.8050    2.2663    0.1152 C   0  0  0  0  0  0  0  0  0  0  0  0
   -1.5852    1.9078   -0.3493 C   0  0  0  0  0  3  0  0  0  0  0  0
   -2.6868    1.0753   -0.3387 C   0  0  0  0  0  0  0  0  0  0  0  0
   -2.6790   -0.0908    0.4813 C   0  0  0  0  0  0  0  0  0  0  0  0
   -1.6125   -0.2214    1.4085 C   0  0  0  0  0  0  0  0  0  0  0  0
   -0.5394    0.6425    1.3554 C   0  0  0  0  0  0  0  0  0  0  0  0
   -3.4357   -1.9572    0.7635 H   0  0  0  0  0  0  0  0  0  0  0  0
   -4.2789   -1.0139   -0.4041 H   0  0  0  0  0  0  0  0  0  0  0  0
   -0.2107    0.7047   -2.1039 H   0  0  0  0  0  0  0  0  0  0  0  0
    1.4709    0.3832   -2.8369 H   0  0  0  0  0  0  0  0  0  0  0  0
    2.6002    1.6297   -0.9965 H   0  0  0  0  0  0  0  0  0  0  0  0
    1.4229    2.2661    1.0338 H   0  0  0  0  0  0  0  0  0  0  0  0
    0.6341    3.3182   -0.2019 H   0  0  0  0  0  0  0  0  0  0  0  0
   -1.5057    2.7683   -1.0281 H   0  0  0  0  0  0  0  0  0  0  0  0
   -3.5202    1.2795   -1.0251 H   0  0  0  0  0  0  0  0  0  0  0  0
   -1.5563   -1.0799    2.0900 H   0  0  0  0  0  0  0  0  0  0  0  0
    0.3837    0.4754    1.9423 H   0  0  0  0  0  0  0  0  0  0  0  0
  1 10  1  0  0  0  0
  2  8  1  0  0  0  0
  2 11  1  0  0  0  0
  3  4  1  0  0  0  0
  4  5  1  0  0  0  0
  5  1  1  0  0  0  0
  5 16  1  0  0  0  0
  6  7  1  0  0  0  0
  6  1  1  0  0  0  0
  7  8  2  0  0  0  0
  8  9  1  0  0  0  0
  9 20  1  0  0  0  0
 10  9  2  0  0  0  0
 10 21  1  0  0  0  0
 12  2  1  0  0  0  0
 13  3  1  0  0  0  0
 14  3  1  0  0  0  0
 15  4  1  0  0  0  0
 17  5  1  0  0  0  0
 18  6  1  0  0  0  0
 19  7  1  0  0  0  0
M  END
