7
q = -1.0

 34 34  0  0  0  0  0  0  0  0999 V2000
    2.9308    2.0723    0.0159 Si  0  0  0  0  0  0  0  0  0  0  0  0
   -2.9841    2.1000   -0.1456 Si  0  0  0  0  0  0  0  0  0  0  0  0
   -1.2165    1.6627    0.3488 C   0  0  0  0  0  0  0  0  0  0  0  0
   -0.0151    2.0291   -0.3433 C   0  0  0  0  0  0  0  0  0  0  0  0
    1.1390    1.6149    0.3952 C   0  0  0  0  0  0  0  0  0  0  0  0
    0.6382    0.9620    1.5721 C   0  0  0  0  0  0  0  0  0  0  0  0
   -0.7862    0.9963    1.5449 C   0  0  0  0  0  3  0  0  0  0  0  0
    3.4440    3.3905    1.2782 C   0  0  0  0  0  0  0  0  0  0  0  0
    3.0464    2.7905   -1.7278 C   0  0  0  0  0  0  0  0  0  0  0  0
    4.0886    0.5852    0.2061 C   0  0  0  0  0  0  0  0  0  0  0  0
   -4.1912    0.8160    0.5414 C   0  0  0  0  0  0  0  0  0  0  0  0
   -3.3822    3.7909    0.6200 C   0  0  0  0  0  0  0  0  0  0  0  0
   -3.1119    2.2245   -2.0269 C   0  0  0  0  0  0  0  0  0  0  0  0
    0.0166    2.5453   -1.3124 H   0  0  0  0  0  0  0  0  0  0  0  0
    1.2541    0.5357    2.3750 H   0  0  0  0  0  0  0  0  0  0  0  0
   -1.4497    0.5812    2.3140 H   0  0  0  0  0  0  0  0  0  0  0  0
    3.3655    3.0007    2.3139 H   0  0  0  0  0  0  0  0  0  0  0  0
    2.7895    4.2827    1.2038 H   0  0  0  0  0  0  0  0  0  0  0  0
    4.4920    3.7168    1.1137 H   0  0  0  0  0  0  0  0  0  0  0  0
    2.3875    3.6764   -1.8363 H   0  0  0  0  0  0  0  0  0  0  0  0
    2.7527    2.0465   -2.4941 H   0  0  0  0  0  0  0  0  0  0  0  0
    4.0850    3.1167   -1.9419 H   0  0  0  0  0  0  0  0  0  0  0  0
    4.0636    0.1934    1.2434 H   0  0  0  0  0  0  0  0  0  0  0  0
    3.8102   -0.2373   -0.4824 H   0  0  0  0  0  0  0  0  0  0  0  0
    5.1355    0.8793   -0.0147 H   0  0  0  0  0  0  0  0  0  0  0  0
   -5.2407    1.1178    0.3457 H   0  0  0  0  0  0  0  0  0  0  0  0
   -4.0123   -0.1682    0.0658 H   0  0  0  0  0  0  0  0  0  0  0  0
   -4.0754    0.7001    1.6392 H   0  0  0  0  0  0  0  0  0  0  0  0
   -2.6764    4.5656    0.2561 H   0  0  0  0  0  0  0  0  0  0  0  0
   -3.3012    3.7550    1.7259 H   0  0  0  0  0  0  0  0  0  0  0  0
   -4.4112    4.1175    0.3626 H   0  0  0  0  0  0  0  0  0  0  0  0
   -2.4154    2.9903   -2.4266 H   0  0  0  0  0  0  0  0  0  0  0  0
   -4.1383    2.5119   -2.3349 H   0  0  0  0  0  0  0  0  0  0  0  0
   -2.8620    1.2504   -2.4929 H   0  0  0  0  0  0  0  0  0  0  0  0
  1 10  1  0  0  0  0
  1  5  1  0  0  0  0
  1  8  1  0  0  0  0
  2  3  1  0  0  0  0
  2 11  1  0  0  0  0
  2 12  1  0  0  0  0
  3  7  1  0  0  0  0
  4  3  2  0  0  0  0
  4  5  1  0  0  0  0
  5  6  2  0  0  0  0
  6 15  1  0  0  0  0
  7  6  1  0  0  0  0
  7 16  1  0  0  0  0
  8 17  1  0  0  0  0
  9  1  1  0  0  0  0
 10 23  1  0  0  0  0
 11 28  1  0  0  0  0
 12 30  1  0  0  0  0
 13  2  1  0  0  0  0
 14  4  1  0  0  0  0
 18  8  1  0  0  0  0
 19  8  1  0  0  0  0
 20  9  1  0  0  0  0
 21  9  1  0  0  0  0
 22  9  1  0  0  0  0
 24 10  1  0  0  0  0
 25 10  1  0  0  0  0
 26 11  1  0  0  0  0
 27 11  1  0  0  0  0
 29 12  1  0  0  0  0
 31 12  1  0  0  0  0
 32 13  1  0  0  0  0
 33 13  1  0  0  0  0
 34 13  1  0  0  0  0
M  END
