3
q = -1.0

 14 14  0  0  0  0  0  0  0  0999 V2000
    0.1775    1.6006   -1.7312 O   0  0  0  0  0  0  0  0  0  0  0  0
   -0.1713    2.1473    0.4607 O   0  0  0  0  0  0  0  0  0  0  0  0
    0.0387    1.2539   -0.5723 C   0  0  0  0  0  3  0  0  0  0  0  0
   -0.2481    3.5224    0.2441 C   0  0  0  0  0  0  0  0  0  0  0  0
   -1.1941    4.2045    1.0248 C   0  0  0  0  0  0  0  0  0  0  0  0
   -1.3031    5.5976    0.9177 C   0  0  0  0  0  0  0  0  0  0  0  0
   -0.4722    6.3054    0.0336 C   0  0  0  0  0  0  0  0  0  0  0  0
    0.4715    5.6088   -0.7384 C   0  0  0  0  0  0  0  0  0  0  0  0
    0.5952    4.2141   -0.6412 C   0  0  0  0  0  0  0  0  0  0  0  0
   -1.8427    3.6229    1.6952 H   0  0  0  0  0  0  0  0  0  0  0  0
   -2.0478    6.1319    1.5274 H   0  0  0  0  0  0  0  0  0  0  0  0
   -0.5590    7.3990   -0.0527 H   0  0  0  0  0  0  0  0  0  0  0  0
    1.1305    6.1565   -1.4296 H   0  0  0  0  0  0  0  0  0  0  0  0
    1.3340    3.6701   -1.2406 H   0  0  0  0  0  0  0  0  0  0  0  0
  1  3  2  0  0  0  0
  3  2  1  0  0  0  0
  4  2  1  0  0  0  0
  4  5  1  0  0  0  0
  5 10  1  0  0  0  0
  6  5  2  0  0  0  0
  6 11  1  0  0  0  0
  7  6  1  0  0  0  0
  8  9  1  0  0  0  0
  8  7  2  0  0  0  0
  9  4  2  0  0  0  0
 12  7  1  0  0  0  0
 13  8  1  0  0  0  0
 14  9  1  0  0  0  0
M  END
