21
q = 0.0, confidence = 0.98

 35 36  0  0  0  0  0  0  0  0999 V2000
   -1.8087    1.8172   -0.6866 N   0  0  0  0  0  0  0  0  0  0  0  0
    0.2272    2.3767   -0.1634 N   0  0  0  0  0  0  0  0  0  0  0  0
    3.5467    1.0520    3.1341 N   0  0  0  0  0  0  0  0  0  0  0  0
    3.2652    0.4205    0.6194 C   0  0  0  0  0  0  0  0  0  0  0  0
    3.9812   -0.6754    0.0893 C   0  0  0  0  0  0  0  0  0  0  0  0
    4.6026   -1.2819    0.7624 H   0  0  0  0  0  0  0  0  0  0  0  0
    3.8782   -0.9892   -1.2697 C   0  0  0  0  0  0  0  0  0  0  0  0
    4.4156   -1.8606   -1.6706 H   0  0  0  0  0  0  0  0  0  0  0  0
    3.0817   -0.2005   -2.1125 C   0  0  0  0  0  0  0  0  0  0  0  0
    2.9844   -0.4508   -3.1784 H   0  0  0  0  0  0  0  0  0  0  0  0
    2.3677    0.8869   -1.5909 C   0  0  0  0  0  0  0  0  0  0  0  0
    1.7056    1.4646   -2.2525 H   0  0  0  0  0  0  0  0  0  0  0  0
    2.4259    1.1997   -0.2236 C   0  0  0  0  0  0  0  0  0  0  0  0
    1.5989    2.3211    0.3653 C   0  0  0  0  0  0  0  0  0  0  0  0
    1.5342    2.2025    1.4659 H   0  0  0  0  0  0  0  0  0  0  0  0
    2.0581    3.3081    0.1534 H   0  0  0  0  0  0  0  0  0  0  0  0
   -0.4559    3.5537   -0.4409 C   0  0  0  0  0  0  0  0  0  0  0  0
    0.0277    4.5330   -0.3817 H   0  0  0  0  0  0  0  0  0  0  0  0
   -1.7406    3.1997   -0.7678 C   0  0  0  0  0  0  0  0  0  0  0  0
   -2.6011    3.8077   -1.0613 H   0  0  0  0  0  0  0  0  0  0  0  0
   -0.6074    1.3131   -0.3120 C   0  0  0  0  0  2  0  0  0  0  0  0
   -3.0092    0.9985   -0.9023 C   0  0  0  0  0  0  0  0  0  0  0  0
   -2.6939    0.1328   -1.5207 H   0  0  0  0  0  0  0  0  0  0  0  0
   -3.7129    1.6048   -1.5063 H   0  0  0  0  0  0  0  0  0  0  0  0
   -3.6445    0.5408    0.4119 C   0  0  0  0  0  0  0  0  0  0  0  0
   -2.8611    0.0634    1.0402 H   0  0  0  0  0  0  0  0  0  0  0  0
   -3.9996    1.4272    0.9824 H   0  0  0  0  0  0  0  0  0  0  0  0
   -4.7945   -0.4437    0.1848 C   0  0  0  0  0  0  0  0  0  0  0  0
   -4.4088   -1.3177   -0.3846 H   0  0  0  0  0  0  0  0  0  0  0  0
   -5.5663    0.0269   -0.4648 H   0  0  0  0  0  0  0  0  0  0  0  0
   -5.4320   -0.9193    1.4902 C   0  0  0  0  0  0  0  0  0  0  0  0
   -6.2543   -1.6376    1.3018 H   0  0  0  0  0  0  0  0  0  0  0  0
   -5.8530   -0.0704    2.0682 H   0  0  0  0  0  0  0  0  0  0  0  0
   -4.6858   -1.4243    2.1373 H   0  0  0  0  0  0  0  0  0  0  0  0
    3.4028    0.7500    2.0085 C   0  0  0  0  0  0  0  0  0  0  0  0
  1 21  1  0  0  0  0
  2 14  1  0  0  0  0
  4 35  1  0  0  0  0
  5  4  1  0  0  0  0
  5  6  1  0  0  0  0
  7  5  2  0  0  0  0
  8  7  1  0  0  0  0
  9 11  2  0  0  0  0
  9  7  1  0  0  0  0
 10  9  1  0  0  0  0
 11 13  1  0  0  0  0
 12 11  1  0  0  0  0
 13 14  1  0  0  0  0
 13  4  2  0  0  0  0
 14 15  1  0  0  0  0
 16 14  1  0  0  0  0
 17 18  1  0  0  0  0
 17  2  1  0  0  0  0
 19  1  1  0  0  0  0
 19 17  2  0  0  0  0
 20 19  1  0  0  0  0
 21  2  1  0  0  0  0
 22  1  1  0  0  0  0
 22 25  1  0  0  0  0
 23 22  1  0  0  0  0
 24 22  1  0  0  0  0
 25 27  1  0  0  0  0
 25 26  1  0  0  0  0
 28 25  1  0  0  0  0
 28 31  1  0  0  0  0
 29 28  1  0  0  0  0
 30 28  1  0  0  0  0
 31 33  1  0  0  0  0
 31 34  1  0  0  0  0
 32 31  1  0  0  0  0
 35  3  3  0  0  0  0
M  END
