5
q = -1.0, confidence = 0.0

 23 23  0  0  0  0  0  0  0  0999 V2000
   -2.9633    1.7540    2.3315 N   0  0  0  0  0  0  0  0  0  0  0  0
   -2.8533    0.7893    2.6610 H   0  0  0  0  0  0  0  0  0  0  0  0
   -2.6024   -1.0476    1.7649 O   0  0  0  0  0  0  0  0  0  0  0  0
   -3.8855    3.0034    0.6404 O   0  0  0  0  0  0  0  0  0  0  0  0
   -2.2937   -1.1006    0.5807 C   0  0  0  0  0  3  0  0  0  0  0  0
   -3.2474   -0.7888   -0.5416 C   0  0  0  0  0  0  0  0  0  0  0  0
   -4.3547    0.0958   -0.3733 C   0  0  0  0  0  0  0  0  0  0  0  0
   -5.1165    0.4249   -1.5110 C   0  0  0  0  0  0  0  0  0  0  0  0
   -5.9509    1.1338   -1.3971 H   0  0  0  0  0  0  0  0  0  0  0  0
   -4.8395   -0.1296   -2.7690 C   0  0  0  0  0  0  0  0  0  0  0  0
   -5.4628    0.1435   -3.6344 H   0  0  0  0  0  0  0  0  0  0  0  0
   -3.7750   -1.0314   -2.9195 C   0  0  0  0  0  0  0  0  0  0  0  0
   -3.5601   -1.4851   -3.8985 H   0  0  0  0  0  0  0  0  0  0  0  0
   -2.9784   -1.3420   -1.8120 C   0  0  0  0  0  0  0  0  0  0  0  0
   -2.1254   -2.0335   -1.9006 H   0  0  0  0  0  0  0  0  0  0  0  0
   -4.7096    0.7392    0.9513 C   0  0  0  0  0  0  0  0  0  0  0  0
   -4.6703   -0.0098    1.7621 H   0  0  0  0  0  0  0  0  0  0  0  0
   -5.7391    1.1410    0.8841 H   0  0  0  0  0  0  0  0  0  0  0  0
   -3.8163    1.9507    1.2815 C   0  0  0  0  0  0  0  0  0  0  0  0
   -2.0379    2.7665    2.7873 C   0  0  0  0  0  0  0  0  0  0  0  0
   -0.9860    2.5208    2.5229 H   0  0  0  0  0  0  0  0  0  0  0  0
   -2.0999    2.8967    3.8877 H   0  0  0  0  0  0  0  0  0  0  0  0
   -2.3105    3.7185    2.2935 H   0  0  0  0  0  0  0  0  0  0  0  0
  1  2  1  0  0  0  0
  1 20  1  0  0  0  0
  4 19  2  0  0  0  0
  5  3  2  0  0  0  0
  6  7  1  0  0  0  0
  6  5  1  0  0  0  0
  7 16  1  0  0  0  0
  8  9  1  0  0  0  0
  8  7  2  0  0  0  0
 10  8  1  0  0  0  0
 11 10  1  0  0  0  0
 12 10  2  0  0  0  0
 12 14  1  0  0  0  0
 13 12  1  0  0  0  0
 14  6  2  0  0  0  0
 15 14  1  0  0  0  0
 16 19  1  0  0  0  0
 16 17  1  0  0  0  0
 18 16  1  0  0  0  0
 19  1  1  0  0  0  0
 20 22  1  0  0  0  0
 21 20  1  0  0  0  0
 23 20  1  0  0  0  0
M  END
