2
q = -1.0, confidence = 0.0

 21 21  0  0  0  0  0  0  0  0999 V2000
    1.7289    1.6898    1.9873 O   0  0  0  0  0  0  0  0  0  0  0  0
    3.0952   -0.6111   -0.5006 C   0  0  0  0  0  3  0  0  0  0  0  0
    3.7326   -0.1816    0.6937 C   0  0  0  0  0  0  0  0  0  0  0  0
    5.0240    0.3791    0.6084 C   0  0  0  0  0  0  0  0  0  0  0  0
    5.5109    0.7303    1.5329 H   0  0  0  0  0  0  0  0  0  0  0  0
    5.6972    0.4930   -0.6173 C   0  0  0  0  0  0  0  0  0  0  0  0
    6.7054    0.9331   -0.6530 H   0  0  0  0  0  0  0  0  0  0  0  0
    5.0806    0.0323   -1.7892 C   0  0  0  0  0  0  0  0  0  0  0  0
    5.6016    0.0996   -2.7573 H   0  0  0  0  0  0  0  0  0  0  0  0
    3.7880   -0.5196   -1.7257 C   0  0  0  0  0  0  0  0  0  0  0  0
    3.3079   -0.8739   -2.6520 H   0  0  0  0  0  0  0  0  0  0  0  0
    3.0713   -0.3312    2.0502 C   0  0  0  0  0  0  0  0  0  0  0  0
    3.7675    0.0356    2.8330 H   0  0  0  0  0  0  0  0  0  0  0  0
    2.8824   -1.4019    2.2692 H   0  0  0  0  0  0  0  0  0  0  0  0
    1.7802    0.4782    2.2235 C   0  0  0  0  0  0  0  0  0  0  0  0
   -0.5697    0.3703    2.9468 C   0  0  0  0  0  0  0  0  0  0  0  0
   -0.8588    0.3042    4.0179 H   0  0  0  0  0  0  0  0  0  0  0  0
   -1.3709   -0.1095    2.3446 H   0  0  0  0  0  0  0  0  0  0  0  0
   -0.4908    1.4373    2.6617 H   0  0  0  0  0  0  0  0  0  0  0  0
    0.7151   -0.2392    2.6985 N   0  0  0  0  0  0  0  0  0  0  0  0
    0.8000   -1.2604    2.7922 H   0  0  0  0  0  0  0  0  0  0  0  0
  1 15  2  0  0  0  0
  2  3  1  0  0  0  0
  3 12  1  0  0  0  0
  4  3  2  0  0  0  0
  4  5  1  0  0  0  0
  6  4  1  0  0  0  0
  7  6  1  0  0  0  0
  8 10  1  0  0  0  0
  8  6  2  0  0  0  0
  9  8  1  0  0  0  0
 10  2  2  0  0  0  0
 11 10  1  0  0  0  0
 12 15  1  0  0  0  0
 12 14  1  0  0  0  0
 12 13  1  0  0  0  0
 15 20  1  0  0  0  0
 16 17  1  0  0  0  0
 18 16  1  0  0  0  0
 19 16  1  0  0  0  0
 20 21  1  0  0  0  0
 20 16  1  0  0  0  0
M  END
