22
q = -1.0, confidence = 0.0

 40 41  0  0  0  0  0  0  0  0999 V2000
    2.1721    2.8914    0.8467 C   0  0  0  0  0  0  0  0  0  0  0  0
    1.2790    1.8356    1.1952 C   0  0  0  0  0  0  0  0  0  0  0  0
    1.3606    1.2667    2.4893 C   0  0  0  0  0  0  0  0  0  0  0  0
    0.6874    0.4280    2.7290 H   0  0  0  0  0  0  0  0  0  0  0  0
    2.2584    1.7447    3.4472 C   0  0  0  0  0  0  0  0  0  0  0  0
    2.2867    1.2933    4.4501 H   0  0  0  0  0  0  0  0  0  0  0  0
    3.1276    2.7959    3.1104 C   0  0  0  0  0  0  0  0  0  0  0  0
    3.8477    3.1812    3.8483 H   0  0  0  0  0  0  0  0  0  0  0  0
    3.0832    3.3476    1.8253 C   0  0  0  0  0  0  0  0  0  0  0  0
    3.7623    4.1712    1.5544 H   0  0  0  0  0  0  0  0  0  0  0  0
    2.2102    3.5690   -0.5032 C   0  0  0  0  0  0  0  0  0  0  0  0
    1.7204    2.9488   -1.2766 H   0  0  0  0  0  0  0  0  0  0  0  0
    3.2580    3.7611   -0.7994 H   0  0  0  0  0  0  0  0  0  0  0  0
    2.1857    5.9958   -0.3637 O   0  0  0  0  0  0  0  0  0  0  0  0
    1.5319    4.9552   -0.4390 C   0  0  0  0  0  0  0  0  0  0  0  0
    0.1720    4.8813   -0.4331 N   0  0  0  0  0  0  0  0  0  0  0  0
   -0.2330    3.9264   -0.4647 H   0  0  0  0  0  0  0  0  0  0  0  0
   -0.6692    6.0464   -0.3053 C   0  0  0  0  0  0  0  0  0  0  0  0
   -0.0100    6.9351   -0.2644 H   0  0  0  0  0  0  0  0  0  0  0  0
   -1.2797    6.0152    0.6241 H   0  0  0  0  0  0  0  0  0  0  0  0
   -1.3609    6.1524   -1.1688 H   0  0  0  0  0  0  0  0  0  0  0  0
    0.2741    1.2590    0.2624 C   0  0  0  0  0  2  0  0  0  0  0  0
   -0.3903    2.0084   -0.5432 N   0  0  0  0  0  2  0  0  0  0  0  0
   -1.3675    1.5888   -1.4621 C   0  0  0  0  0  0  0  0  0  0  0  0
   -1.0265    0.8837   -2.6484 C   0  0  0  0  0  0  0  0  0  0  0  0
   -2.0609    0.5575   -3.5464 C   0  0  0  0  0  0  0  0  0  0  0  0
   -1.8044    0.0158   -4.4704 H   0  0  0  0  0  0  0  0  0  0  0  0
   -3.3935    0.9022   -3.2861 C   0  0  0  0  0  0  0  0  0  0  0  0
   -4.1851    0.6281   -3.9994 H   0  0  0  0  0  0  0  0  0  0  0  0
   -3.7118    1.6072   -2.1160 C   0  0  0  0  0  0  0  0  0  0  0  0
   -4.7566    1.8821   -1.9022 H   0  0  0  0  0  0  0  0  0  0  0  0
   -2.7118    1.9791   -1.2029 C   0  0  0  0  0  0  0  0  0  0  0  0
    0.3956    0.4907   -2.9577 C   0  0  0  0  0  0  0  0  0  0  0  0
    0.6622   -0.4673   -2.4630 H   0  0  0  0  0  0  0  0  0  0  0  0
    1.1214    1.2476   -2.5998 H   0  0  0  0  0  0  0  0  0  0  0  0
    0.5387    0.3557   -4.0471 H   0  0  0  0  0  0  0  0  0  0  0  0
   -3.0445    2.7703    0.0351 C   0  0  0  0  0  0  0  0  0  0  0  0
   -2.6512    3.8074   -0.0306 H   0  0  0  0  0  0  0  0  0  0  0  0
   -2.5890    2.3273    0.9432 H   0  0  0  0  0  0  0  0  0  0  0  0
   -4.1394    2.8346    0.1841 H   0  0  0  0  0  0  0  0  0  0  0  0
  1  2  2  0  0  0  0
  1  9  1  0  0  0  0
  2  3  1  0  0  0  0
  3  4  1  0  0  0  0
  3  5  2  0  0  0  0
  5  6  1  0  0  0  0
  7  5  1  0  0  0  0
  7  8  1  0  0  0  0
  9  7  2  0  0  0  0
 10  9  1  0  0  0  0
 11 15  1  0  0  0  0
 11  1  1  0  0  0  0
 12 11  1  0  0  0  0
 13 11  1  0  0  0  0
 15 16  1  0  0  0  0
 15 14  2  0  0  0  0
 16 18  1  0  0  0  0
 17 16  1  0  0  0  0
 18 19  1  0  0  0  0
 18 20  1  0  0  0  0
 21 18  1  0  0  0  0
 22  2  1  0  0  0  0
 23 22  1  0  0  0  0
 24 32  1  0  0  0  0
 24 23  1  0  0  0  0
 25 24  2  0  0  0  0
 26 28  2  0  0  0  0
 26 25  1  0  0  0  0
 27 26  1  0  0  0  0
 28 30  1  0  0  0  0
 29 28  1  0  0  0  0
 30 31  1  0  0  0  0
 30 32  2  0  0  0  0
 32 37  1  0  0  0  0
 33 25  1  0  0  0  0
 33 35  1  0  0  0  0
 33 34  1  0  0  0  0
 36 33  1  0  0  0  0
 37 40  1  0  0  0  0
 37 39  1  0  0  0  0
 38 37  1  0  0  0  0
M  END
