4
q = 0.0, confidence = 0.99

 34 36  0  0  0  0  0  0  0  0999 V2000
    1.6752   -0.3174    0.4997 N   0  0  0  0  0  0  0  0  0  0  0  0
    2.3981    0.8495    0.3858 N   0  0  0  0  0  0  0  0  0  0  0  0
    1.5918    1.8808    0.2066 N   0  0  0  0  0  2  0  0  0  0  0  0
    0.3488   -0.0516    0.3316 C   0  0  0  0  0  3  0  0  0  0  0  0
    0.3412    1.3868    0.2148 C   0  0  0  0  0  0  0  0  0  0  0  0
   -0.8136    2.2973    0.1130 C   0  0  0  0  0  0  0  0  0  0  0  0
   -1.8685    2.2200    1.0464 C   0  0  0  0  0  0  0  0  0  0  0  0
   -2.9628    3.0875    0.9534 C   0  0  0  0  0  0  0  0  0  0  0  0
   -3.0432    4.0584   -0.0678 C   0  0  0  0  0  0  0  0  0  0  0  0
   -1.9717    4.1452   -0.9800 C   0  0  0  0  0  0  0  0  0  0  0  0
   -0.8701    3.2839   -0.8919 C   0  0  0  0  0  0  0  0  0  0  0  0
   -4.2458    4.9597   -0.1839 C   0  0  0  0  0  0  0  0  0  0  0  0
    3.7960    0.8974    0.1256 C   0  0  0  0  0  0  0  0  0  0  0  0
    4.5759    1.8697    0.7744 C   0  0  0  0  0  0  0  0  0  0  0  0
    5.9460    1.9398    0.4906 C   0  0  0  0  0  0  0  0  0  0  0  0
    6.5293    1.0413   -0.4186 C   0  0  0  0  0  0  0  0  0  0  0  0
    5.7354    0.0798   -1.0656 C   0  0  0  0  0  0  0  0  0  0  0  0
    4.3599    0.0082   -0.8088 C   0  0  0  0  0  0  0  0  0  0  0  0
    2.3007   -1.5600    0.9264 C   0  0  0  0  0  0  0  0  0  0  0  0
   -1.8134    1.4798    1.8579 H   0  0  0  0  0  0  0  0  0  0  0  0
   -3.7737    3.0172    1.6961 H   0  0  0  0  0  0  0  0  0  0  0  0
   -2.0034    4.9044   -1.7776 H   0  0  0  0  0  0  0  0  0  0  0  0
   -0.0416    3.3634   -1.6111 H   0  0  0  0  0  0  0  0  0  0  0  0
   -5.0974    4.4270   -0.6593 H   0  0  0  0  0  0  0  0  0  0  0  0
   -4.0301    5.8534   -0.8011 H   0  0  0  0  0  0  0  0  0  0  0  0
   -4.5960    5.3016    0.8108 H   0  0  0  0  0  0  0  0  0  0  0  0
    4.0965    2.5593    1.4829 H   0  0  0  0  0  0  0  0  0  0  0  0
    6.5652    2.6988    0.9915 H   0  0  0  0  0  0  0  0  0  0  0  0
    7.6075    1.0958   -0.6298 H   0  0  0  0  0  0  0  0  0  0  0  0
    6.1856   -0.6112   -1.7937 H   0  0  0  0  0  0  0  0  0  0  0  0
    3.7141   -0.7073   -1.3395 H   0  0  0  0  0  0  0  0  0  0  0  0
    1.6135   -2.0398    1.6471 H   0  0  0  0  0  0  0  0  0  0  0  0
    3.2699   -1.3319    1.4039 H   0  0  0  0  0  0  0  0  0  0  0  0
    2.4187   -2.2407    0.0611 H   0  0  0  0  0  0  0  0  0  0  0  0
  1 19  1  0  0  0  0
  2  1  1  0  0  0  0
  3  5  1  0  0  0  0
  3  2  1  0  0  0  0
  4  1  1  0  0  0  0
  5  4  2  0  0  0  0
  6  5  1  0  0  0  0
  6  7  1  0  0  0  0
  7 20  1  0  0  0  0
  8  7  2  0  0  0  0
  8 21  1  0  0  0  0
  9  8  1  0  0  0  0
 10 11  1  0  0  0  0
 10  9  2  0  0  0  0
 11  6  2  0  0  0  0
 12  9  1  0  0  0  0
 12 26  1  0  0  0  0
 13  2  1  0  0  0  0
 13 14  1  0  0  0  0
 14 27  1  0  0  0  0
 15 14  2  0  0  0  0
 15 28  1  0  0  0  0
 16 15  1  0  0  0  0
 17 18  1  0  0  0  0
 17 16  2  0  0  0  0
 18 13  2  0  0  0  0
 19 33  1  0  0  0  0
 19 32  1  0  0  0  0
 22 10  1  0  0  0  0
 23 11  1  0  0  0  0
 24 12  1  0  0  0  0
 25 12  1  0  0  0  0
 29 16  1  0  0  0  0
 30 17  1  0  0  0  0
 31 18  1  0  0  0  0
 34 19  1  0  0  0  0
M  END
