3
q = 0.0, confidence = 0.996

 35 37  0  0  0  0  0  0  0  0999 V2000
    0.5930    0.1008    1.1304 N   0  0  0  0  0  0  0  0  0  0  0  0
   -1.0605    0.1684    2.5301 N   0  0  0  0  0  0  0  0  0  0  0  0
   -0.7752    0.1403    1.1906 C   0  0  0  0  0  2  0  0  0  0  0  0
    1.1501    0.0869    2.4007 C   0  0  0  0  0  0  0  0  0  0  0  0
    0.1049    0.1349    3.2854 C   0  0  0  0  0  0  0  0  0  0  0  0
   -2.4050    0.2134    3.0830 C   0  0  0  0  0  0  0  0  0  0  0  0
    1.3465    0.0056   -0.1333 C   0  0  0  0  0  0  0  0  0  0  0  0
    2.2696    1.1984   -0.3490 C   0  0  0  0  0  0  0  0  0  0  0  0
    3.2569    1.1356   -1.3542 C   0  0  0  0  0  0  0  0  0  0  0  0
    4.0684    2.2447   -1.6291 C   0  0  0  0  0  0  0  0  0  0  0  0
    3.9067    3.4369   -0.9053 C   0  0  0  0  0  0  0  0  0  0  0  0
    2.9190    3.5125    0.0870 C   0  0  0  0  0  0  0  0  0  0  0  0
    2.1034    2.4031    0.3606 C   0  0  0  0  0  0  0  0  0  0  0  0
    1.9996   -1.3688   -0.2275 C   0  0  0  0  0  0  0  0  0  0  0  0
    3.2894   -1.6161    0.2813 C   0  0  0  0  0  0  0  0  0  0  0  0
    3.8280   -2.9112    0.2486 C   0  0  0  0  0  0  0  0  0  0  0  0
    3.0835   -3.9705   -0.2942 C   0  0  0  0  0  0  0  0  0  0  0  0
    1.7974   -3.7304   -0.8034 C   0  0  0  0  0  0  0  0  0  0  0  0
    1.2575   -2.4365   -0.7678 C   0  0  0  0  0  0  0  0  0  0  0  0
    2.2298    0.0468    2.5668 H   0  0  0  0  0  0  0  0  0  0  0  0
    0.0940    0.1470    4.3793 H   0  0  0  0  0  0  0  0  0  0  0  0
   -2.6019   -0.6887    3.6955 H   0  0  0  0  0  0  0  0  0  0  0  0
   -3.1194    0.2441    2.2395 H   0  0  0  0  0  0  0  0  0  0  0  0
   -2.5357    1.1185    3.7082 H   0  0  0  0  0  0  0  0  0  0  0  0
    0.5465    0.0554   -0.9059 H   0  0  0  0  0  0  0  0  0  0  0  0
    3.3889    0.2065   -1.9283 H   0  0  0  0  0  0  0  0  0  0  0  0
    4.8334    2.1762   -2.4174 H   0  0  0  0  0  0  0  0  0  0  0  0
    4.5459    4.3066   -1.1194 H   0  0  0  0  0  0  0  0  0  0  0  0
    2.7743    4.4450    0.6533 H   0  0  0  0  0  0  0  0  0  0  0  0
    1.3216    2.4835    1.1295 H   0  0  0  0  0  0  0  0  0  0  0  0
    3.8851   -0.7842    0.6880 H   0  0  0  0  0  0  0  0  0  0  0  0
    4.8385   -3.0930    0.6452 H   0  0  0  0  0  0  0  0  0  0  0  0
    3.5089   -4.9852   -0.3241 H   0  0  0  0  0  0  0  0  0  0  0  0
    1.2098   -4.5551   -1.2341 H   0  0  0  0  0  0  0  0  0  0  0  0
    0.2436   -2.2462   -1.1558 H   0  0  0  0  0  0  0  0  0  0  0  0
  1  3  1  0  0  0  0
  1  4  1  0  0  0  0
  2  6  1  0  0  0  0
  2  5  1  0  0  0  0
  3  2  1  0  0  0  0
  4 20  1  0  0  0  0
  4  5  2  0  0  0  0
  5 21  1  0  0  0  0
  6 22  1  0  0  0  0
  6 24  1  0  0  0  0
  7  1  1  0  0  0  0
  8  7  1  0  0  0  0
  8 13  1  0  0  0  0
  9  8  2  0  0  0  0
 10  9  1  0  0  0  0
 10 11  2  0  0  0  0
 11 12  1  0  0  0  0
 12 13  2  0  0  0  0
 12 29  1  0  0  0  0
 13 30  1  0  0  0  0
 14  7  1  0  0  0  0
 14 15  1  0  0  0  0
 15 31  1  0  0  0  0
 16 15  2  0  0  0  0
 16 32  1  0  0  0  0
 17 16  1  0  0  0  0
 18 19  1  0  0  0  0
 18 17  2  0  0  0  0
 19 14  2  0  0  0  0
 23  6  1  0  0  0  0
 25  7  1  0  0  0  0
 26  9  1  0  0  0  0
 27 10  1  0  0  0  0
 28 11  1  0  0  0  0
 33 17  1  0  0  0  0
 34 18  1  0  0  0  0
 35 19  1  0  0  0  0
M  END
