1
q = -1.0

 16 15  0  0  0  0  0  0  0  0999 V2000
    1.8552    0.2914   -0.5743 C   0  0  0  0  0  3  0  0  0  0  0  0
    2.5555   -0.8769   -1.2717 C   0  0  0  0  0  0  0  0  0  0  0  0
    4.0900   -0.7989   -1.2504 C   0  0  0  0  0  0  0  0  0  0  0  0
    4.7871   -1.9650   -1.9579 C   0  0  0  0  0  0  0  0  0  0  0  0
    6.3138   -1.8858   -1.9175 C   0  0  0  0  0  0  0  0  0  0  0  0
    2.0613    1.2330   -1.1318 H   0  0  0  0  0  0  0  0  0  0  0  0
    2.3259    0.4273    0.4274 H   0  0  0  0  0  0  0  0  0  0  0  0
    2.2443   -1.8393   -0.8039 H   0  0  0  0  0  0  0  0  0  0  0  0
    2.2282   -0.9435   -2.3340 H   0  0  0  0  0  0  0  0  0  0  0  0
    4.4138    0.1629   -1.7108 H   0  0  0  0  0  0  0  0  0  0  0  0
    4.4347   -0.7509   -0.1916 H   0  0  0  0  0  0  0  0  0  0  0  0
    4.4493   -2.9212   -1.4983 H   0  0  0  0  0  0  0  0  0  0  0  0
    4.4424   -2.0071   -3.0157 H   0  0  0  0  0  0  0  0  0  0  0  0
    6.6886   -1.8793   -0.8723 H   0  0  0  0  0  0  0  0  0  0  0  0
    6.7884   -2.7431   -2.4372 H   0  0  0  0  0  0  0  0  0  0  0  0
    6.6814   -0.9565   -2.4015 H   0  0  0  0  0  0  0  0  0  0  0  0
  1  7  1  0  0  0  0
  2  3  1  0  0  0  0
  2  8  1  0  0  0  0
  2  1  1  0  0  0  0
  3 11  1  0  0  0  0
  4  5  1  0  0  0  0
  4 12  1  0  0  0  0
  4  3  1  0  0  0  0
  5 14  1  0  0  0  0
  6  1  1  0  0  0  0
  9  2  1  0  0  0  0
 10  3  1  0  0  0  0
 13  4  1  0  0  0  0
 15  5  1  0  0  0  0
 16  5  1  0  0  0  0
M  END
