6
q = -1.0

 14 14  0  0  0  0  0  0  0  0999 V2000
   -2.5467    0.0932   -0.2961 C   0  0  0  0  0  0  0  0  0  0  0  0
   -2.3095    0.7878    0.9364 C   0  0  0  0  0  0  0  0  0  0  0  0
   -2.5576    0.4169    1.9364 H   0  0  0  0  0  0  0  0  0  0  0  0
   -1.6688    2.0211    0.6483 C   0  0  0  0  0  0  0  0  0  0  0  0
   -1.3844    2.7819    1.3846 H   0  0  0  0  0  0  0  0  0  0  0  0
   -1.5066    2.1141   -0.7731 C   0  0  0  0  0  3  0  0  0  0  0  0
   -1.0786    2.9612   -1.3209 H   0  0  0  0  0  0  0  0  0  0  0  0
   -2.0474    0.9345   -1.3473 C   0  0  0  0  0  0  0  0  0  0  0  0
   -2.0657    0.6838   -2.4143 H   0  0  0  0  0  0  0  0  0  0  0  0
   -3.1471   -1.2273   -0.4876 C   0  0  0  0  0  0  0  0  0  0  0  0
   -3.1773   -1.5765   -1.5327 H   0  0  0  0  0  0  0  0  0  0  0  0
   -3.6315   -2.0224    0.4887 C   0  0  0  0  0  0  0  0  0  0  0  0
   -3.6013   -1.7302    1.5497 H   0  0  0  0  0  0  0  0  0  0  0  0
   -4.0595   -3.0079    0.2540 H   0  0  0  0  0  0  0  0  0  0  0  0
  1  2  1  0  0  0  0
  2  3  1  0  0  0  0
  4  2  2  0  0  0  0
  4  5  1  0  0  0  0
  6  4  1  0  0  0  0
  7  6  1  0  0  0  0
  8  6  1  0  0  0  0
  8  1  2  0  0  0  0
  9  8  1  0  0  0  0
 10  1  1  0  0  0  0
 10 12  2  0  0  0  0
 11 10  1  0  0  0  0
 12 13  1  0  0  0  0
 14 12  1  0  0  0  0
M  END
