2
q = -1.0, confidence = 0.01

 20 21  0  0  0  0  0  0  0  0999 V2000
   -2.2908    1.2784   -0.2121 C   0  0  0  0  0  0  0  0  0  0  0  0
   -1.6441    1.1615    1.0609 C   0  0  0  0  0  3  0  0  0  0  0  0
   -2.0660    0.6634    1.9407 H   0  0  0  0  0  0  0  0  0  0  0  0
   -0.4335    1.9419    1.0232 C   0  0  0  0  0  0  0  0  0  0  0  0
    0.5540    2.2460    2.0065 C   0  0  0  0  0  0  0  0  0  0  0  0
    0.4541    1.8591    3.0318 H   0  0  0  0  0  0  0  0  0  0  0  0
    1.6121    3.0736    1.6580 C   0  0  0  0  0  0  0  0  0  0  0  0
    2.3701    3.3331    2.4125 H   0  0  0  0  0  0  0  0  0  0  0  0
    1.7346    3.6068    0.3399 C   0  0  0  0  0  0  0  0  0  0  0  0
    2.5895    4.2583    0.1050 H   0  0  0  0  0  0  0  0  0  0  0  0
    0.8044    3.3149   -0.6450 C   0  0  0  0  0  0  0  0  0  0  0  0
    0.9087    3.7156   -1.6629 H   0  0  0  0  0  0  0  0  0  0  0  0
   -0.3020    2.4798   -0.3195 C   0  0  0  0  0  0  0  0  0  0  0  0
   -1.4132    1.9959   -1.0877 C   0  0  0  0  0  0  0  0  0  0  0  0
   -1.6089    2.2091   -2.1452 H   0  0  0  0  0  0  0  0  0  0  0  0
   -3.6053    0.7543   -0.5886 C   0  0  0  0  0  0  0  0  0  0  0  0
   -3.8237    0.7656   -1.6683 H   0  0  0  0  0  0  0  0  0  0  0  0
   -4.5377    0.3005    0.2746 C   0  0  0  0  0  0  0  0  0  0  0  0
   -4.3615    0.2730    1.3612 H   0  0  0  0  0  0  0  0  0  0  0  0
   -5.5119   -0.0629   -0.0847 H   0  0  0  0  0  0  0  0  0  0  0  0
  1  2  1  0  0  0  0
  2  3  1  0  0  0  0
  4  2  1  0  0  0  0
  4  5  1  0  0  0  0
  5  6  1  0  0  0  0
  7  5  2  0  0  0  0
  7  8  1  0  0  0  0
  9  7  1  0  0  0  0
 10  9  1  0  0  0  0
 11 13  1  0  0  0  0
 11  9  2  0  0  0  0
 12 11  1  0  0  0  0
 13  4  2  0  0  0  0
 14 13  1  0  0  0  0
 14  1  2  0  0  0  0
 15 14  1  0  0  0  0
 16  1  1  0  0  0  0
 16 18  2  0  0  0  0
 17 16  1  0  0  0  0
 18 19  1  0  0  0  0
 20 18  1  0  0  0  0
M  END
