7
q = 0.0, confidence = 0.998

 36 37  0  0  0  0  0  0  0  0999 V2000
   -4.2418   -0.3600   -0.3726 O   0  0  0  0  0  0  0  0  0  0  0  0
   -5.9537   -1.5705    0.5311 O   0  0  0  0  0  0  0  0  0  0  0  0
   -3.3118   -1.4101   -0.2167 C   0  0  0  0  0  0  0  0  0  0  0  0
   -2.7850   -1.8965   -1.3599 C   0  0  0  0  0  0  0  0  0  0  0  0
   -1.6513   -2.8705   -1.4957 C   0  0  0  0  0  0  0  0  0  0  0  0
   -0.2650   -2.1595   -1.5284 C   0  0  0  0  0  0  0  0  0  0  0  0
    0.0478   -1.6632   -0.1440 C   0  0  0  0  0  3  0  0  0  0  0  0
   -0.4365   -0.4450    0.3950 C   0  0  0  0  0  3  0  0  0  0  0  0
   -0.8671   -0.3169    1.8327 C   0  0  0  0  0  0  0  0  0  0  0  0
   -2.3941   -0.5139    1.9844 C   0  0  0  0  0  0  0  0  0  0  0  0
   -2.9767   -1.7246    1.2164 C   0  0  0  0  0  0  0  0  0  0  0  0
   -5.5268   -0.5281    0.0697 C   0  0  0  0  0  0  0  0  0  0  0  0
   -6.3259    0.7226   -0.0935 C   0  0  0  0  0  0  0  0  0  0  0  0
   -5.7801    1.9067   -0.6311 C   0  0  0  0  0  0  0  0  0  0  0  0
   -6.5811    3.0498   -0.7565 C   0  0  0  0  0  0  0  0  0  0  0  0
   -7.9251    3.0174   -0.3487 C   0  0  0  0  0  0  0  0  0  0  0  0
   -8.4715    1.8382    0.1864 C   0  0  0  0  0  0  0  0  0  0  0  0
   -7.6753    0.6939    0.3137 C   0  0  0  0  0  0  0  0  0  0  0  0
   -3.1809   -1.4561   -2.2903 H   0  0  0  0  0  0  0  0  0  0  0  0
   -1.7752   -3.4453   -2.4362 H   0  0  0  0  0  0  0  0  0  0  0  0
   -1.6569   -3.6151   -0.6718 H   0  0  0  0  0  0  0  0  0  0  0  0
    0.5117   -2.8800   -1.8584 H   0  0  0  0  0  0  0  0  0  0  0  0
   -0.2747   -1.3208   -2.2523 H   0  0  0  0  0  0  0  0  0  0  0  0
    0.2580   -2.4632    0.5919 H   0  0  0  0  0  0  0  0  0  0  0  0
   -0.8867    0.2739   -0.3137 H   0  0  0  0  0  0  0  0  0  0  0  0
   -0.5935    0.6828    2.2312 H   0  0  0  0  0  0  0  0  0  0  0  0
   -0.3160   -1.0626    2.4404 H   0  0  0  0  0  0  0  0  0  0  0  0
   -2.6198   -0.6221    3.0653 H   0  0  0  0  0  0  0  0  0  0  0  0
   -2.9286    0.4012    1.6523 H   0  0  0  0  0  0  0  0  0  0  0  0
   -2.2798   -2.5853    1.2541 H   0  0  0  0  0  0  0  0  0  0  0  0
   -3.9148   -2.0535    1.7088 H   0  0  0  0  0  0  0  0  0  0  0  0
   -4.7283    1.9180   -0.9485 H   0  0  0  0  0  0  0  0  0  0  0  0
   -6.1547    3.9734   -1.1763 H   0  0  0  0  0  0  0  0  0  0  0  0
   -8.5513    3.9173   -0.4489 H   0  0  0  0  0  0  0  0  0  0  0  0
   -9.5245    1.8134    0.5051 H   0  0  0  0  0  0  0  0  0  0  0  0
   -8.0734   -0.2438    0.7284 H   0  0  0  0  0  0  0  0  0  0  0  0
  1  3  1  0  0  0  0
  1 12  1  0  0  0  0
  3 11  1  0  0  0  0
  4  3  2  0  0  0  0
  5  4  1  0  0  0  0
  5 21  1  0  0  0  0
  6  5  1  0  0  0  0
  6  7  1  0  0  0  0
  7  8  1  0  0  0  0
  7 24  1  0  0  0  0
  8  9  1  0  0  0  0
  9 10  1  0  0  0  0
  9 26  1  0  0  0  0
  9 27  1  0  0  0  0
 10 28  1  0  0  0  0
 11 30  1  0  0  0  0
 11 31  1  0  0  0  0
 11 10  1  0  0  0  0
 12  2  2  0  0  0  0
 13 12  1  0  0  0  0
 13 18  1  0  0  0  0
 14 13  2  0  0  0  0
 15 14  1  0  0  0  0
 15 16  2  0  0  0  0
 16 17  1  0  0  0  0
 17 18  2  0  0  0  0
 17 35  1  0  0  0  0
 18 36  1  0  0  0  0
 19  4  1  0  0  0  0
 20  5  1  0  0  0  0
 22  6  1  0  0  0  0
 23  6  1  0  0  0  0
 25  8  1  0  0  0  0
 29 10  1  0  0  0  0
 32 14  1  0  0  0  0
 33 15  1  0  0  0  0
 34 16  1  0  0  0  0
M  END
