4
q = -1.0

 15 14  0  0  0  0  0  0  0  0999 V2000
    0.3440    2.3433   -0.0111 C   0  0  0  0  0  3  0  0  0  0  0  0
    0.3281    2.6456   -1.0733 H   0  0  0  0  0  0  0  0  0  0  0  0
   -0.2777    2.9477    0.6693 H   0  0  0  0  0  0  0  0  0  0  0  0
    1.4666    1.6464    0.5128 C   0  0  0  0  0  3  0  0  0  0  0  0
    1.6733    1.6536    1.5982 H   0  0  0  0  0  0  0  0  0  0  0  0
    2.1137    0.6821   -0.3212 C   0  0  0  0  0  3  0  0  0  0  0  0
    2.2035    0.8988   -1.4026 H   0  0  0  0  0  0  0  0  0  0  0  0
    3.1458   -0.2710    0.2147 C   0  0  0  0  0  0  0  0  0  0  0  0
    2.9598   -0.4728    1.3000 H   0  0  0  0  0  0  0  0  0  0  0  0
    3.0437   -1.2508   -0.3109 H   0  0  0  0  0  0  0  0  0  0  0  0
    4.4311    0.2943    0.0121 O   0  0  0  0  0  0  0  0  0  0  0  0
    5.4663   -0.5867    0.3711 C   0  0  0  0  0  0  0  0  0  0  0  0
    5.4322   -0.8616    1.4551 H   0  0  0  0  0  0  0  0  0  0  0  0
    6.4294   -0.0782    0.1682 H   0  0  0  0  0  0  0  0  0  0  0  0
    5.4340   -1.5383   -0.2151 H   0  0  0  0  0  0  0  0  0  0  0  0
  1  4  1  0  0  0  0
  1  3  1  0  0  0  0
  2  1  1  0  0  0  0
  4  5  1  0  0  0  0
  6  8  1  0  0  0  0
  6  4  1  0  0  0  0
  7  6  1  0  0  0  0
  8  9  1  0  0  0  0
 10  8  1  0  0  0  0
 11  8  1  0  0  0  0
 11 12  1  0  0  0  0
 12 13  1  0  0  0  0
 14 12  1  0  0  0  0
 15 12  1  0  0  0  0
M  END
