4
q = -1.0

  7  7  0  0  0  0  0  0  0  0999 V2000
   -4.1782   -0.0000   -1.9662 N   0  0  0  0  0  0  0  0  0  0  0  0
   -3.3100    0.0008    0.4682 S   0  0  0  0  0  0  0  0  0  0  0  0
   -6.4159    0.0009   -0.2247 Br  0  0  0  0  0  0  0  0  0  0  0  0
   -2.1001    0.0001   -0.7970 C   0  0  0  0  0  3  0  0  0  0  0  0
   -2.7994   -0.0002   -2.0038 C   0  0  0  0  0  0  0  0  0  0  0  0
   -2.3098   -0.0007   -2.9899 H   0  0  0  0  0  0  0  0  0  0  0  0
   -4.5919    0.0005   -0.7334 C   0  0  0  0  0  0  0  0  0  0  0  0
  1  7  2  0  0  0  0
  4  2  1  0  0  0  0
  5  1  1  0  0  0  0
  5  4  2  0  0  0  0
  6  5  1  0  0  0  0
  7  3  1  0  0  0  0
  7  2  1  0  0  0  0
M  END
