2
q = -1.0

 16 16  0  0  0  0  0  0  0  0999 V2000
    1.1591   -1.9494   -0.0102 S   0  0  0  0  0  1  0  0  0  0  0  0
    0.2682   -0.0919   -2.2792 C   0  0  0  0  0  3  0  0  0  0  0  0
    0.4881   -1.1220   -2.6088 H   0  0  0  0  0  0  0  0  0  0  0  0
   -0.3347    0.4896   -2.9929 H   0  0  0  0  0  0  0  0  0  0  0  0
    1.3158    0.6231   -1.5830 C   0  0  0  0  0  3  0  0  0  0  0  0
    1.3890    1.6989   -1.8113 H   0  0  0  0  0  0  0  0  0  0  0  0
    2.6247   -0.0375   -1.3384 C   0  0  0  0  0  0  0  0  0  0  0  0
    3.8372    0.5317   -1.7742 C   0  0  0  0  0  0  0  0  0  0  0  0
    3.8104    1.5037   -2.2944 H   0  0  0  0  0  0  0  0  0  0  0  0
    5.0658   -0.1240   -1.5800 C   0  0  0  0  0  0  0  0  0  0  0  0
    6.0012    0.3422   -1.9249 H   0  0  0  0  0  0  0  0  0  0  0  0
    5.0853   -1.3823   -0.9561 C   0  0  0  0  0  0  0  0  0  0  0  0
    6.0397   -1.9093   -0.8008 H   0  0  0  0  0  0  0  0  0  0  0  0
    3.8892   -1.9657   -0.5092 C   0  0  0  0  0  0  0  0  0  0  0  0
    3.9011   -2.9382    0.0066 H   0  0  0  0  0  0  0  0  0  0  0  0
    2.6602   -1.2921   -0.6667 C   0  0  0  0  0  0  0  0  0  0  0  0
  2  5  1  0  0  0  0
  3  2  1  0  0  0  0
  4  2  1  0  0  0  0
  5  7  1  0  0  0  0
  6  5  1  0  0  0  0
  7 16  1  0  0  0  0
  8 10  1  0  0  0  0
  8  7  2  0  0  0  0
  9  8  1  0  0  0  0
 10 12  2  0  0  0  0
 11 10  1  0  0  0  0
 12 13  1  0  0  0  0
 12 14  1  0  0  0  0
 14 15  1  0  0  0  0
 16 14  2  0  0  0  0
 16  1  1  0  0  0  0
M  END
