2
q = 0.0, confidence = 0.994

 41 43  0  0  1  0  0  0  0  0999 V2000
   -2.8409   -1.0714    0.1285 N   0  0  0  0  0  0  0  0  0  0  0  0
   -2.0145    0.0003    0.0000 C   0  0  0  0  0  2  0  0  0  0  0  0
   -2.8406    1.0722   -0.1284 N   0  0  0  0  0  0  0  0  0  0  0  0
   -4.1744    0.6819   -0.0801 C   0  0  0  0  0  0  0  0  0  0  0  0
   -4.9959    1.3973   -0.1769 H   0  0  0  0  0  0  0  0  0  0  0  0
   -4.1745   -0.6808    0.0803 C   0  0  0  0  0  0  0  0  0  0  0  0
   -4.9963   -1.3959    0.1772 H   0  0  0  0  0  0  0  0  0  0  0  0
   -2.3399   -2.4565    0.2271 C   0  0  2  0  0  0  0  0  0  0  0  0
   -1.2698   -2.3182    0.4949 H   0  0  0  0  0  0  0  0  0  0  0  0
   -2.4093   -3.1396   -1.1375 C   0  0  0  0  0  0  0  0  0  0  0  0
   -3.4508   -3.2163   -1.5096 H   0  0  0  0  0  0  0  0  0  0  0  0
   -1.9827   -4.1601   -1.0815 H   0  0  0  0  0  0  0  0  0  0  0  0
   -1.8211   -2.5484   -1.8672 H   0  0  0  0  0  0  0  0  0  0  0  0
   -3.0204   -3.1662    1.3887 C   0  0  0  0  0  0  0  0  0  0  0  0
   -3.9045   -4.2450    1.2094 C   0  0  0  0  0  0  0  0  0  0  0  0
   -4.1140   -4.6254    0.1988 H   0  0  0  0  0  0  0  0  0  0  0  0
   -4.5230   -4.8504    2.3169 C   0  0  0  0  0  0  0  0  0  0  0  0
   -5.2122   -5.6949    2.1630 H   0  0  0  0  0  0  0  0  0  0  0  0
   -4.2616   -4.3824    3.6124 C   0  0  0  0  0  0  0  0  0  0  0  0
   -4.7451   -4.8576    4.4796 H   0  0  0  0  0  0  0  0  0  0  0  0
   -3.3750   -3.3071    3.7985 C   0  0  0  0  0  0  0  0  0  0  0  0
   -3.1589   -2.9395    4.8133 H   0  0  0  0  0  0  0  0  0  0  0  0
   -2.7579   -2.7025    2.6962 C   0  0  0  0  0  0  0  0  0  0  0  0
   -2.0567   -1.8617    2.8367 H   0  0  0  0  0  0  0  0  0  0  0  0
   -2.3392    2.4571   -0.2271 C   0  0  2  0  0  0  0  0  0  0  0  0
   -1.2692    2.3186   -0.4948 H   0  0  0  0  0  0  0  0  0  0  0  0
   -2.4086    3.1403    1.1375 C   0  0  0  0  0  0  0  0  0  0  0  0
   -3.4501    3.2174    1.5095 H   0  0  0  0  0  0  0  0  0  0  0  0
   -1.9817    4.1608    1.0814 H   0  0  0  0  0  0  0  0  0  0  0  0
   -1.8207    2.5490    1.8673 H   0  0  0  0  0  0  0  0  0  0  0  0
   -3.0195    3.1670   -1.3888 C   0  0  0  0  0  0  0  0  0  0  0  0
   -3.9032    4.2461   -1.2096 C   0  0  0  0  0  0  0  0  0  0  0  0
   -4.1126    4.6267   -0.1991 H   0  0  0  0  0  0  0  0  0  0  0  0
   -4.5215    4.8516   -2.3172 C   0  0  0  0  0  0  0  0  0  0  0  0
   -5.2103    5.6963   -2.1634 H   0  0  0  0  0  0  0  0  0  0  0  0
   -4.2601    4.3833   -3.6126 C   0  0  0  0  0  0  0  0  0  0  0  0
   -4.7434    4.8587   -4.4799 H   0  0  0  0  0  0  0  0  0  0  0  0
   -3.3740    3.3078   -3.7986 C   0  0  0  0  0  0  0  0  0  0  0  0
   -3.1580    2.9399   -4.8134 H   0  0  0  0  0  0  0  0  0  0  0  0
   -2.7572    2.7030   -2.6962 C   0  0  0  0  0  0  0  0  0  0  0  0
   -2.0562    1.8620   -2.8366 H   0  0  0  0  0  0  0  0  0  0  0  0
  1  8  1  0  0  0  0
  2  1  1  0  0  0  0
  3  4  1  0  0  0  0
  3  2  1  0  0  0  0
  4  6  2  0  0  0  0
  5  4  1  0  0  0  0
  6  1  1  0  0  0  0
  6  7  1  0  0  0  0
  8  9  1  1  0  0  0
  8 14  1  0  0  0  0
 10 12  1  0  0  0  0
 10  8  1  0  0  0  0
 11 10  1  0  0  0  0
 13 10  1  0  0  0  0
 14 23  1  0  0  0  0
 15 14  2  0  0  0  0
 15 17  1  0  0  0  0
 16 15  1  0  0  0  0
 17 19  2  0  0  0  0
 18 17  1  0  0  0  0
 19 21  1  0  0  0  0
 19 20  1  0  0  0  0
 21 22  1  0  0  0  0
 23 24  1  0  0  0  0
 23 21  2  0  0  0  0
 25 26  1  6  0  0  0
 25  3  1  0  0  0  0
 25 27  1  0  0  0  0
 27 28  1  0  0  0  0
 27 30  1  0  0  0  0
 29 27  1  0  0  0  0
 31 32  1  0  0  0  0
 31 25  1  0  0  0  0
 32 33  1  0  0  0  0
 34 35  1  0  0  0  0
 34 32  2  0  0  0  0
 36 34  1  0  0  0  0
 37 36  1  0  0  0  0
 38 36  2  0  0  0  0
 38 40  1  0  0  0  0
 39 38  1  0  0  0  0
 40 31  2  0  0  0  0
 41 40  1  0  0  0  0
M  END
