23
q = -2.0, confidence = 0.644

 41 44  0  0  1  0  0  0  0  0999 V2000
   -0.4518    0.9800   -0.9423 S   0  0  0  0  0  0  0  0  0  0  0  0
   -0.1586   -1.8462    0.5149 S   0  0  0  0  0  1  0  0  0  0  0  0
    1.1769    0.3510   -0.5006 C   0  0  0  0  0  0  0  0  0  0  0  0
    1.2471   -0.8992    0.0794 C   0  0  0  0  0  0  0  0  0  0  0  0
    2.2763    1.3106   -0.7143 C   0  0  0  0  0  0  0  0  0  0  0  0
    3.3052    1.4683    0.2492 C   0  0  0  0  0  0  0  0  0  0  0  0
    4.3392    2.3908    0.0525 C   0  0  0  0  0  0  0  0  0  0  0  0
    4.3685    3.1955   -1.0991 C   0  0  0  0  0  0  0  0  0  0  0  0
    3.3457    3.0674   -2.0526 C   0  0  0  0  0  0  0  0  0  0  0  0
    2.3136    2.1387   -1.8643 C   0  0  0  0  0  0  0  0  0  0  0  0
    2.5411   -1.5799    0.3541 C   0  0  0  0  0  0  0  0  0  0  0  0
    3.5387   -1.6487   -0.6445 C   0  0  0  0  0  0  0  0  0  0  0  0
    4.7533   -2.2981   -0.3927 C   0  0  0  0  0  0  0  0  0  0  0  0
    4.9947   -2.8899    0.8585 C   0  0  0  0  0  0  0  0  0  0  0  0
    4.0063   -2.8356    1.8539 C   0  0  0  0  0  0  0  0  0  0  0  0
    2.7866   -2.1909    1.6038 C   0  0  0  0  0  0  0  0  0  0  0  0
   -2.9522    1.7421    1.3961 C   0  0  1  0  0  0  0  0  0  0  0  0
   -2.5735    2.3828    2.7233 C   0  0  0  0  0  0  0  0  0  0  0  0
   -1.2534    2.1508    2.9132 C   0  0  0  0  0  0  0  0  0  0  0  0
   -0.7681    1.3051    1.7526 C   0  0  2  0  0  0  0  0  0  0  0  0
   -0.7651    2.1744    0.4621 C   0  0  2  0  0  0  0  0  0  0  0  0
   -2.2393    2.6224    0.3110 C   0  0  0  0  0  0  0  0  0  0  0  0
   -2.0443    0.4731    1.4353 C   0  0  0  0  0  3  0  0  0  0  0  0
    3.2815    0.8580    1.1631 H   0  0  0  0  0  0  0  0  0  0  0  0
    5.1265    2.4915    0.8155 H   0  0  0  0  0  0  0  0  0  0  0  0
    5.1801    3.9235   -1.2484 H   0  0  0  0  0  0  0  0  0  0  0  0
    3.3544    3.6928   -2.9586 H   0  0  0  0  0  0  0  0  0  0  0  0
    1.5217    2.0384   -2.6220 H   0  0  0  0  0  0  0  0  0  0  0  0
    3.3470   -1.1874   -1.6241 H   0  0  0  0  0  0  0  0  0  0  0  0
    5.5187   -2.3458   -1.1825 H   0  0  0  0  0  0  0  0  0  0  0  0
    5.9514   -3.3975    1.0552 H   0  0  0  0  0  0  0  0  0  0  0  0
    4.1857   -3.2996    2.8359 H   0  0  0  0  0  0  0  0  0  0  0  0
    2.0073   -2.1470    2.3794 H   0  0  0  0  0  0  0  0  0  0  0  0
   -4.0338    1.5959    1.2192 H   0  0  0  0  0  0  0  0  0  0  0  0
   -3.2398    3.0028    3.3413 H   0  0  0  0  0  0  0  0  0  0  0  0
   -0.6159    2.5352    3.7222 H   0  0  0  0  0  0  0  0  0  0  0  0
    0.1749    0.7535    1.9110 H   0  0  0  0  0  0  0  0  0  0  0  0
   -0.0017    2.9729    0.4106 H   0  0  0  0  0  0  0  0  0  0  0  0
   -2.6262    2.4196   -0.7089 H   0  0  0  0  0  0  0  0  0  0  0  0
   -2.3642    3.7048    0.5076 H   0  0  0  0  0  0  0  0  0  0  0  0
   -2.3088   -0.2006    2.2752 H   0  0  0  0  0  0  0  0  0  0  0  0
  1  3  1  0  0  0  0
  1 21  1  0  0  0  0
  3  4  2  0  0  0  0
  4 11  1  0  0  0  0
  4  2  1  0  0  0  0
  5  3  1  0  0  0  0
  5  6  1  0  0  0  0
  6 24  1  0  0  0  0
  7  6  2  0  0  0  0
  7 25  1  0  0  0  0
  8  7  1  0  0  0  0
  9 10  1  0  0  0  0
  9  8  2  0  0  0  0
 10  5  2  0  0  0  0
 11 16  1  0  0  0  0
 12 13  1  0  0  0  0
 12 11  2  0  0  0  0
 13 14  2  0  0  0  0
 14 31  1  0  0  0  0
 14 15  1  0  0  0  0
 15 32  1  0  0  0  0
 16 15  2  0  0  0  0
 16 33  1  0  0  0  0
 17 34  1  6  0  0  0
 17 23  1  0  0  0  0
 17 18  1  0  0  0  0
 18 19  2  0  0  0  0
 18 35  1  0  0  0  0
 19 36  1  0  0  0  0
 20 37  1  1  0  0  0
 20 19  1  0  0  0  0
 21 38  1  1  0  0  0
 21 20  1  0  0  0  0
 22 21  1  0  0  0  0
 22 40  1  0  0  0  0
 22 17  1  0  0  0  0
 23 20  1  0  0  0  0
 23 41  1  0  0  0  0
 26  8  1  0  0  0  0
 27  9  1  0  0  0  0
 28 10  1  0  0  0  0
 29 12  1  0  0  0  0
 30 13  1  0  0  0  0
 39 22  1  0  0  0  0
M  END
