11
q = -1.0, confidence = 0.0

 27 28  0  0  0  0  0  0  0  0999 V2000
    1.4465   -0.0018    1.7819 N   0  0  0  0  0  0  0  0  0  0  0  0
   -0.7248   -0.0025    2.1944 N   0  0  0  0  0  0  0  0  0  0  0  0
    3.3445    1.2337    0.8455 C   0  0  0  0  0  0  0  0  0  0  0  0
    4.5907   -1.2088    0.1948 C   0  0  0  0  0  0  0  0  0  0  0  0
    5.0780   -2.1648   -0.0558 H   0  0  0  0  0  0  0  0  0  0  0  0
    5.2238   -0.0001   -0.1486 C   0  0  0  0  0  0  0  0  0  0  0  0
    6.5324    0.0006   -0.8989 C   0  0  0  0  0  0  0  0  0  0  0  0
    7.1384    0.8983   -0.6652 H   0  0  0  0  0  0  0  0  0  0  0  0
    6.3582    0.0014   -1.9967 H   0  0  0  0  0  0  0  0  0  0  0  0
    7.1385   -0.8975   -0.6667 H   0  0  0  0  0  0  0  0  0  0  0  0
    0.1751   -0.0012    1.1959 C   0  0  0  0  0  3  0  0  0  0  0  0
    4.5911    1.2080    0.1977 C   0  0  0  0  0  0  0  0  0  0  0  0
    5.0788    2.1644   -0.0506 H   0  0  0  0  0  0  0  0  0  0  0  0
    2.7205   -0.0012    1.1319 C   0  0  0  0  0  0  0  0  0  0  0  0
   -0.0590   -0.0040    3.3903 C   0  0  0  0  0  0  0  0  0  0  0  0
   -0.5826   -0.0052    4.3558 H   0  0  0  0  0  0  0  0  0  0  0  0
    2.7026    2.5333    1.2566 C   0  0  0  0  0  0  0  0  0  0  0  0
    2.8866    2.7399    2.3329 H   0  0  0  0  0  0  0  0  0  0  0  0
    1.6040    2.5028    1.1233 H   0  0  0  0  0  0  0  0  0  0  0  0
    3.1067    3.3800    0.6707 H   0  0  0  0  0  0  0  0  0  0  0  0
    1.3067   -0.0035    3.1591 C   0  0  0  0  0  0  0  0  0  0  0  0
    2.1786   -0.0043    3.8220 H   0  0  0  0  0  0  0  0  0  0  0  0
    2.7015   -2.5359    1.2503 C   0  0  0  0  0  0  0  0  0  0  0  0
    2.8844   -2.7448    2.3263 H   0  0  0  0  0  0  0  0  0  0  0  0
    3.1060   -3.3815    0.6629 H   0  0  0  0  0  0  0  0  0  0  0  0
    1.6031   -2.5049    1.1160 H   0  0  0  0  0  0  0  0  0  0  0  0
    3.3440   -1.2356    0.8425 C   0  0  0  0  0  0  0  0  0  0  0  0
  1 21  1  0  0  0  0
  2 15  1  0  0  0  0
  3 14  1  0  0  0  0
  3 17  1  0  0  0  0
  4 27  1  0  0  0  0
  5  4  1  0  0  0  0
  6  4  2  0  0  0  0
  6 12  1  0  0  0  0
  7 10  1  0  0  0  0
  7  8  1  0  0  0  0
  7  6  1  0  0  0  0
  9  7  1  0  0  0  0
 11  1  1  0  0  0  0
 11  2  2  0  0  0  0
 12  3  2  0  0  0  0
 13 12  1  0  0  0  0
 14  1  1  0  0  0  0
 15 16  1  0  0  0  0
 17 18  1  0  0  0  0
 19 17  1  0  0  0  0
 20 17  1  0  0  0  0
 21 15  2  0  0  0  0
 21 22  1  0  0  0  0
 23 24  1  0  0  0  0
 25 23  1  0  0  0  0
 26 23  1  0  0  0  0
 27 14  2  0  0  0  0
 27 23  1  0  0  0  0
M  END
