7
q = 0.0, confidence = 0.98

 29 28  0  0  1  0  0  0  0  0999 V2000
    2.3623    0.0812    0.3260 P   0  0  0  0  0  0  0  0  0  0  0  0
    1.5709   -1.0014    1.5221 C   0  0  1  0  0  3  0  0  0  0  0  0
    1.3241   -0.6343    2.9612 C   0  0  0  0  0  0  0  0  0  0  0  0
    0.5140   -1.2438    3.4056 H   0  0  0  0  0  0  0  0  0  0  0  0
    1.0931    0.4348    3.1284 H   0  0  0  0  0  0  0  0  0  0  0  0
    2.2457   -0.8596    3.5382 H   0  0  0  0  0  0  0  0  0  0  0  0
    1.1605   -2.2494    0.9536 C   0  0  0  0  0  3  0  0  0  0  0  0
    1.8286   -2.8229    0.2903 H   0  0  0  0  0  0  0  0  0  0  0  0
    0.5026   -2.8808    1.5771 H   0  0  0  0  0  0  0  0  0  0  0  0
    2.7157    1.7653    1.0321 C   0  0  0  0  0  0  0  0  0  0  0  0
    1.8038    1.9397    1.6418 H   0  0  0  0  0  0  0  0  0  0  0  0
    2.7445    2.8343   -0.0697 C   0  0  0  0  0  0  0  0  0  0  0  0
    2.7967    3.8379    0.3979 H   0  0  0  0  0  0  0  0  0  0  0  0
    1.8310    2.8056   -0.6929 H   0  0  0  0  0  0  0  0  0  0  0  0
    3.6289    2.7302   -0.7276 H   0  0  0  0  0  0  0  0  0  0  0  0
    3.9424    1.8204    1.9508 C   0  0  0  0  0  0  0  0  0  0  0  0
    4.8867    1.7533    1.3765 H   0  0  0  0  0  0  0  0  0  0  0  0
    3.9431    1.0212    2.7172 H   0  0  0  0  0  0  0  0  0  0  0  0
    3.9535    2.7946    2.4805 H   0  0  0  0  0  0  0  0  0  0  0  0
    3.8397   -0.7385   -0.4739 C   0  0  0  0  0  0  0  0  0  0  0  0
    3.3735   -1.6679   -0.8645 H   0  0  0  0  0  0  0  0  0  0  0  0
    4.3761    0.0707   -1.6610 C   0  0  0  0  0  0  0  0  0  0  0  0
    4.9011    0.9869   -1.3261 H   0  0  0  0  0  0  0  0  0  0  0  0
    3.5761    0.3736   -2.3660 H   0  0  0  0  0  0  0  0  0  0  0  0
    5.1122   -0.5379   -2.2241 H   0  0  0  0  0  0  0  0  0  0  0  0
    4.9293   -1.1421    0.5277 C   0  0  0  0  0  0  0  0  0  0  0  0
    5.6678   -1.7926    0.0156 H   0  0  0  0  0  0  0  0  0  0  0  0
    4.5166   -1.7115    1.3834 H   0  0  0  0  0  0  0  0  0  0  0  0
    5.4803   -0.2689    0.9232 H   0  0  0  0  0  0  0  0  0  0  0  0
  1 10  1  0  0  0  0
  1  2  1  0  0  0  0
  2  7  1  6  0  0  0
  2  3  1  0  0  0  0
  3  5  1  0  0  0  0
  3  4  1  0  0  0  0
  3  6  1  0  0  0  0
  7  9  1  0  0  0  0
  8  7  1  0  0  0  0
 10 11  1  0  0  0  0
 10 16  1  0  0  0  0
 12 13  1  0  0  0  0
 12 10  1  0  0  0  0
 14 12  1  0  0  0  0
 15 12  1  0  0  0  0
 16 19  1  0  0  0  0
 16 18  1  0  0  0  0
 17 16  1  0  0  0  0
 20  1  1  0  0  0  0
 20 26  1  0  0  0  0
 21 20  1  0  0  0  0
 22 23  1  0  0  0  0
 22 20  1  0  0  0  0
 24 22  1  0  0  0  0
 25 22  1  0  0  0  0
 26 29  1  0  0  0  0
 26 28  1  0  0  0  0
 27 26  1  0  0  0  0
M  END
