4
q = -1.0

 26 27  0  0  1  0  0  0  0  0999 V2000
   -1.9696   -0.4584   -0.3121 C   0  0  0  0  0  0  0  0  0  0  0  0
   -1.0144   -0.9707   -0.4837 H   0  0  0  0  0  0  0  0  0  0  0  0
    0.4979    1.4369   -0.4948 C   0  0  1  0  0  3  0  0  0  0  0  0
    0.7417    0.6740   -1.6948 C   0  0  0  0  0  3  0  0  0  0  0  0
   -0.0053    0.0951   -2.2500 H   0  0  0  0  0  0  0  0  0  0  0  0
   -6.7638   -0.8145    0.0147 C   0  0  0  0  0  0  0  0  0  0  0  0
   -7.0062    0.0373   -0.6587 H   0  0  0  0  0  0  0  0  0  0  0  0
   -6.8375   -0.4701    1.0699 H   0  0  0  0  0  0  0  0  0  0  0  0
   -7.4964   -1.6253   -0.1520 H   0  0  0  0  0  0  0  0  0  0  0  0
    1.7485    2.0771   -0.1409 C   0  0  0  0  0  0  0  0  0  0  0  0
    1.8665    2.7524    0.7138 H   0  0  0  0  0  0  0  0  0  0  0  0
   -1.9878    0.9049    0.0687 C   0  0  0  0  0  0  0  0  0  0  0  0
   -3.2340    1.4971    0.3649 C   0  0  0  0  0  0  0  0  0  0  0  0
   -3.2381    2.5491    0.6868 H   0  0  0  0  0  0  0  0  0  0  0  0
   -4.4289    0.7814    0.2559 C   0  0  0  0  0  0  0  0  0  0  0  0
   -5.3805    1.2806    0.4815 H   0  0  0  0  0  0  0  0  0  0  0  0
    2.1121    0.8423   -2.0736 C   0  0  0  0  0  3  0  0  0  0  0  0
    2.5938    0.4142   -2.9604 H   0  0  0  0  0  0  0  0  0  0  0  0
   -3.1508   -1.1906   -0.4104 C   0  0  0  0  0  0  0  0  0  0  0  0
   -3.1426   -2.2554   -0.6837 H   0  0  0  0  0  0  0  0  0  0  0  0
    2.7308    1.7081   -1.1003 C   0  0  0  0  0  0  0  0  0  0  0  0
    3.7787    2.0323   -1.1070 H   0  0  0  0  0  0  0  0  0  0  0  0
   -0.7967    2.7667    0.9366 O   0  0  0  0  0  0  0  0  0  0  0  0
   -0.7736    1.7536    0.2340 C   0  0  0  0  0  0  0  0  0  0  0  0
   -4.3948   -0.5761   -0.1382 C   0  0  0  0  0  0  0  0  0  0  0  0
   -5.4884   -1.3643   -0.2708 O   0  0  0  0  0  0  0  0  0  0  0  0
  1 12  1  0  0  0  0
  2  1  1  0  0  0  0
  3 10  1  0  0  0  0
  3 24  1  6  0  0  0
  4  3  1  0  0  0  0
  5  4  1  0  0  0  0
  6  8  1  0  0  0  0
  7  6  1  0  0  0  0
  9  6  1  0  0  0  0
 10 11  1  0  0  0  0
 12 24  1  0  0  0  0
 12 13  2  0  0  0  0
 13 14  1  0  0  0  0
 15 13  1  0  0  0  0
 15 16  1  0  0  0  0
 17  4  1  0  0  0  0
 17 21  1  0  0  0  0
 18 17  1  0  0  0  0
 19  1  2  0  0  0  0
 19 25  1  0  0  0  0
 20 19  1  0  0  0  0
 21 10  2  0  0  0  0
 22 21  1  0  0  0  0
 24 23  2  0  0  0  0
 25 15  2  0  0  0  0
 26 25  1  0  0  0  0
 26  6  1  0  0  0  0
M  END
