1
q = -1.0

 10 10  0  0  0  0  0  0  0  0999 V2000
   -2.6887   -0.4979    0.0060 C   0  0  0  0  0  3  0  0  0  0  0  0
   -3.5078    0.6592    0.0001 C   0  0  0  0  0  0  0  0  0  0  0  0
   -2.7118    2.2576    0.0017 Cl  0  0  0  0  0  0  0  0  0  0  0  0
   -4.8296    0.7028   -0.0065 N   0  0  0  0  0  0  0  0  0  0  0  0
   -5.4880   -0.4703   -0.0076 C   0  0  0  0  0  0  0  0  0  0  0  0
   -6.5911   -0.4135   -0.0131 H   0  0  0  0  0  0  0  0  0  0  0  0
   -4.8268   -1.7042   -0.0024 C   0  0  0  0  0  0  0  0  0  0  0  0
   -5.3988   -2.6446   -0.0036 H   0  0  0  0  0  0  0  0  0  0  0  0
   -3.4202   -1.7057    0.0042 C   0  0  0  0  0  0  0  0  0  0  0  0
   -2.8801   -2.6661    0.0081 H   0  0  0  0  0  0  0  0  0  0  0  0
  2  3  1  0  0  0  0
  2  1  2  0  0  0  0
  4  2  1  0  0  0  0
  5  4  2  0  0  0  0
  5  7  1  0  0  0  0
  6  5  1  0  0  0  0
  7  9  2  0  0  0  0
  8  7  1  0  0  0  0
  9  1  1  0  0  0  0
  9 10  1  0  0  0  0
M  END
