24
q = 0.0, confidence = 0.536

 39 42  0  0  1  0  0  0  0  0999 V2000
    3.7326    0.7611    0.7899 C   0  0  0  0  0  0  0  0  0  0  0  0
    4.4635    0.6269   -0.0138 H   0  0  0  0  0  0  0  0  0  0  0  0
    3.8573    1.8683    1.6249 C   0  0  0  0  0  3  0  0  0  0  0  0
    4.6733    2.5843    1.4397 H   0  0  0  0  0  0  0  0  0  0  0  0
    2.9684    2.0930    2.7101 C   0  0  0  0  0  0  0  0  0  0  0  0
    3.1027    2.9709    3.3593 H   0  0  0  0  0  0  0  0  0  0  0  0
    1.9375    1.1893    2.9555 C   0  0  0  0  0  0  0  0  0  0  0  0
    1.2521    1.3430    3.8022 H   0  0  0  0  0  0  0  0  0  0  0  0
    1.7907    0.0505    2.1280 C   0  0  0  0  0  0  0  0  0  0  0  0
    0.8717   -1.0578    2.2033 C   0  0  0  0  0  0  0  0  0  0  0  0
   -0.1782   -1.3299    3.1099 C   0  0  0  0  0  0  0  0  0  0  0  0
   -0.3929   -0.6257    3.9279 H   0  0  0  0  0  0  0  0  0  0  0  0
   -0.9364   -2.4882    2.9578 C   0  0  0  0  0  0  0  0  0  0  0  0
   -1.7588   -2.7090    3.6535 H   0  0  0  0  0  0  0  0  0  0  0  0
   -0.6498   -3.3822    1.8944 C   0  0  0  0  0  0  0  0  0  0  0  0
   -1.2643   -4.2872    1.7717 H   0  0  0  0  0  0  0  0  0  0  0  0
    0.3924   -3.1519    0.9988 C   0  0  0  0  0  0  0  0  0  0  0  0
    0.5785   -3.8911    0.2134 H   0  0  0  0  0  0  0  0  0  0  0  0
    1.2237   -1.9938    1.1395 C   0  0  0  0  0  0  0  0  0  0  0  0
    2.3614   -1.4747    0.3999 C   0  0  0  0  0  0  0  0  0  0  0  0
    2.7083   -0.2129    1.0251 C   0  0  0  0  0  0  0  0  0  0  0  0
    2.9105   -2.0109   -0.9441 C   0  0  0  0  0  0  0  0  0  0  0  0
    1.9946   -1.3169   -1.9594 C   0  0  1  0  0  3  0  0  0  0  0  0
    0.6790   -1.7498   -2.3157 C   0  0  0  0  0  3  0  0  0  0  0  0
    0.2514   -2.7401   -2.1216 H   0  0  0  0  0  0  0  0  0  0  0  0
    0.0082   -0.6816   -2.9871 C   0  0  0  0  0  3  0  0  0  0  0  0
   -0.9923   -0.7285   -3.4295 H   0  0  0  0  0  0  0  0  0  0  0  0
    0.8962    0.4232   -3.0339 C   0  0  0  0  0  0  0  0  0  0  0  0
    0.7013    1.3874   -3.5217 H   0  0  0  0  0  0  0  0  0  0  0  0
    2.1130    0.0415   -2.3936 C   0  0  0  0  0  0  0  0  0  0  0  0
    2.9948    0.6827   -2.2668 H   0  0  0  0  0  0  0  0  0  0  0  0
    4.3906   -1.6516   -1.1866 C   0  0  0  0  0  0  0  0  0  0  0  0
    4.7556   -2.1891   -2.0839 H   0  0  0  0  0  0  0  0  0  0  0  0
    5.0152   -1.9502   -0.3215 H   0  0  0  0  0  0  0  0  0  0  0  0
    4.5569   -0.5782   -1.3777 H   0  0  0  0  0  0  0  0  0  0  0  0
    2.8260   -3.5459   -1.0611 C   0  0  0  0  0  0  0  0  0  0  0  0
    1.7938   -3.9273   -1.1260 H   0  0  0  0  0  0  0  0  0  0  0  0
    3.3173   -4.0307   -0.1943 H   0  0  0  0  0  0  0  0  0  0  0  0
    3.3409   -3.8739   -1.9856 H   0  0  0  0  0  0  0  0  0  0  0  0
  1 21  2  0  0  0  0
  1  3  1  0  0  0  0
  2  1  1  0  0  0  0
  3  5  1  0  0  0  0
  4  3  1  0  0  0  0
  5  7  2  0  0  0  0
  5  6  1  0  0  0  0
  7  8  1  0  0  0  0
  9 10  2  0  0  0  0
  9  7  1  0  0  0  0
 10 11  1  0  0  0  0
 11 12  1  0  0  0  0
 13 11  2  0  0  0  0
 13 14  1  0  0  0  0
 15 13  1  0  0  0  0
 16 15  1  0  0  0  0
 17 19  1  0  0  0  0
 17 15  2  0  0  0  0
 18 17  1  0  0  0  0
 19 10  1  0  0  0  0
 20 21  1  0  0  0  0
 20 19  2  0  0  0  0
 21  9  1  0  0  0  0
 22 20  1  0  0  0  0
 23 22  1  1  0  0  0
 24 25  1  0  0  0  0
 24 23  1  0  0  0  0
 26 24  1  0  0  0  0
 27 26  1  0  0  0  0
 28 26  1  0  0  0  0
 28 30  2  0  0  0  0
 29 28  1  0  0  0  0
 30 31  1  0  0  0  0
 30 23  1  0  0  0  0
 32 22  1  0  0  0  0
 32 34  1  0  0  0  0
 33 32  1  0  0  0  0
 35 32  1  0  0  0  0
 36 22  1  0  0  0  0
 36 38  1  0  0  0  0
 37 36  1  0  0  0  0
 39 36  1  0  0  0  0
M  END
