1
q = 0.0, confidence = 0.988

 28 29  0  0  0  0  0  0  0  0999 V2000
    0.3828    0.8552   -0.0000 C   0  0  0  0  0  2  0  0  0  0  0  0
   -0.8759    1.3021   -0.0001 N   0  0  0  0  0  0  0  0  0  0  0  0
   -1.0087    2.3246   -0.0002 H   0  0  0  0  0  0  0  0  0  0  0  0
   -2.1299    0.5606   -0.0000 C   0  0  0  0  0  0  0  0  0  0  0  0
   -1.8660   -0.5115   -0.0000 H   0  0  0  0  0  0  0  0  0  0  0  0
   -2.9418    0.8609    1.2707 C   0  0  0  0  0  0  0  0  0  0  0  0
   -3.1500    1.9547    1.3180 H   0  0  0  0  0  0  0  0  0  0  0  0
   -2.3346    0.6051    2.1625 H   0  0  0  0  0  0  0  0  0  0  0  0
   -4.2623    0.0802    1.2676 C   0  0  0  0  0  0  0  0  0  0  0  0
   -4.0327   -1.0064    1.3332 H   0  0  0  0  0  0  0  0  0  0  0  0
   -4.8493    0.3287    2.1757 H   0  0  0  0  0  0  0  0  0  0  0  0
   -5.0810    0.3567    0.0000 C   0  0  0  0  0  0  0  0  0  0  0  0
   -5.4065    1.4216   -0.0000 H   0  0  0  0  0  0  0  0  0  0  0  0
   -6.0086   -0.2524    0.0001 H   0  0  0  0  0  0  0  0  0  0  0  0
   -4.2624    0.0801   -1.2675 C   0  0  0  0  0  0  0  0  0  0  0  0
   -4.8494    0.3285   -2.1756 H   0  0  0  0  0  0  0  0  0  0  0  0
   -4.0328   -1.0066   -1.3330 H   0  0  0  0  0  0  0  0  0  0  0  0
   -2.9419    0.8608   -1.2708 C   0  0  0  0  0  0  0  0  0  0  0  0
   -2.3348    0.6049   -2.1626 H   0  0  0  0  0  0  0  0  0  0  0  0
   -3.1500    1.9546   -1.3181 H   0  0  0  0  0  0  0  0  0  0  0  0
    0.8209    3.2542    0.0000 O   0  0  0  0  0  0  0  0  0  0  0  0
    1.3370    1.9593   -0.0000 C   0  0  0  0  0  0  0  0  0  0  0  0
    2.7241    2.0565   -0.0001 C   0  0  0  0  0  0  0  0  0  0  0  0
    3.4293    1.2223   -0.0001 H   0  0  0  0  0  0  0  0  0  0  0  0
    3.0580    3.4423   -0.0000 C   0  0  0  0  0  0  0  0  0  0  0  0
    4.0604    3.8829   -0.0000 H   0  0  0  0  0  0  0  0  0  0  0  0
    1.8595    4.1225    0.0000 C   0  0  0  0  0  0  0  0  0  0  0  0
    1.5981    5.1864    0.0001 H   0  0  0  0  0  0  0  0  0  0  0  0
  1 22  1  0  0  0  0
  2  4  1  0  0  0  0
  2  1  1  0  0  0  0
  3  2  1  0  0  0  0
  4  5  1  0  0  0  0
  4  6  1  0  0  0  0
  6  7  1  0  0  0  0
  6  8  1  0  0  0  0
  9  6  1  0  0  0  0
  9 10  1  0  0  0  0
  9 11  1  0  0  0  0
 12 14  1  0  0  0  0
 12  9  1  0  0  0  0
 13 12  1  0  0  0  0
 15 12  1  0  0  0  0
 16 15  1  0  0  0  0
 17 15  1  0  0  0  0
 18 15  1  0  0  0  0
 18  4  1  0  0  0  0
 19 18  1  0  0  0  0
 20 18  1  0  0  0  0
 21 27  1  0  0  0  0
 22 21  1  0  0  0  0
 23 25  1  0  0  0  0
 23 22  2  0  0  0  0
 24 23  1  0  0  0  0
 25 27  2  0  0  0  0
 26 25  1  0  0  0  0
 27 28  1  0  0  0  0
M  END
