1
q = -1.0

 19 19  0  0  0  0  0  0  0  0999 V2000
   -0.5506   -0.7105   -2.1809 C   0  0  0  0  0  3  0  0  0  0  0  0
    0.1053   -1.3566   -2.7756 H   0  0  0  0  0  0  0  0  0  0  0  0
   -0.5520    0.7111   -2.1804 C   0  0  0  0  0  0  0  0  0  0  0  0
    0.1026    1.3590   -2.7746 H   0  0  0  0  0  0  0  0  0  0  0  0
   -1.5183    1.1624   -1.2257 C   0  0  0  0  0  0  0  0  0  0  0  0
   -2.1329   -0.0018   -0.6499 C   0  0  0  0  0  0  0  0  0  0  0  0
   -1.5158   -1.1644   -1.2264 C   0  0  0  0  0  0  0  0  0  0  0  0
   -1.8445    2.5855   -0.8930 C   0  0  0  0  0  0  0  0  0  0  0  0
   -1.0363    3.2653   -1.2219 H   0  0  0  0  0  0  0  0  0  0  0  0
   -1.9849    2.7270    0.1971 H   0  0  0  0  0  0  0  0  0  0  0  0
   -2.7861    2.8980   -1.3933 H   0  0  0  0  0  0  0  0  0  0  0  0
   -3.2962   -0.0032    0.2891 C   0  0  0  0  0  0  0  0  0  0  0  0
   -3.2993    0.8890    0.9430 H   0  0  0  0  0  0  0  0  0  0  0  0
   -3.2990   -0.8972    0.9406 H   0  0  0  0  0  0  0  0  0  0  0  0
   -4.2438   -0.0026   -0.2925 H   0  0  0  0  0  0  0  0  0  0  0  0
   -1.8384   -2.5884   -0.8940 C   0  0  0  0  0  0  0  0  0  0  0  0
   -2.7799   -2.9028   -1.3934 H   0  0  0  0  0  0  0  0  0  0  0  0
   -1.9773   -2.7307    0.1962 H   0  0  0  0  0  0  0  0  0  0  0  0
   -1.0290   -3.2661   -1.2242 H   0  0  0  0  0  0  0  0  0  0  0  0
  1  3  1  0  0  0  0
  1  7  1  0  0  0  0
  2  1  1  0  0  0  0
  3  5  2  0  0  0  0
  4  3  1  0  0  0  0
  5  8  1  0  0  0  0
  5  6  1  0  0  0  0
  6 12  1  0  0  0  0
  7 16  1  0  0  0  0
  7  6  2  0  0  0  0
  8 10  1  0  0  0  0
  9  8  1  0  0  0  0
 11  8  1  0  0  0  0
 12 14  1  0  0  0  0
 12 13  1  0  0  0  0
 15 12  1  0  0  0  0
 16 18  1  0  0  0  0
 17 16  1  0  0  0  0
 19 16  1  0  0  0  0
M  END
