8
q = -1.0

 20 21  0  0  0  0  0  0  0  0999 V2000
    3.1578   -0.3529    2.0677 F   0  0  0  0  0  0  0  0  0  0  0  0
    4.8932    1.6446    2.4788 F   0  0  0  0  0  0  0  0  0  0  0  0
    6.1414    2.8735    0.3628 F   0  0  0  0  0  0  0  0  0  0  0  0
    5.5869    2.0489   -2.1958 F   0  0  0  0  0  0  0  0  0  0  0  0
    3.8723    0.0457   -2.6461 F   0  0  0  0  0  0  0  0  0  0  0  0
    2.4808   -1.3631   -0.5487 C   0  0  0  0  0  0  0  0  0  0  0  0
    2.0559   -2.3519    0.4037 C   0  0  0  0  0  0  0  0  0  0  0  0
    1.1502   -3.2382   -0.2450 C   0  0  0  0  0  3  0  0  0  0  0  0
    0.9961   -2.8069   -1.5939 C   0  0  0  0  0  0  0  0  0  0  0  0
    1.7992   -1.6533   -1.7805 C   0  0  0  0  0  0  0  0  0  0  0  0
    3.4380   -0.2704   -0.3110 C   0  0  0  0  0  0  0  0  0  0  0  0
    3.7580    0.1867    0.9885 C   0  0  0  0  0  0  0  0  0  0  0  0
    4.6470    1.2432    1.2291 C   0  0  0  0  0  0  0  0  0  0  0  0
    5.2848    1.8749    0.1491 C   0  0  0  0  0  0  0  0  0  0  0  0
    4.9940    1.4548   -1.1579 C   0  0  0  0  0  0  0  0  0  0  0  0
    4.0955    0.3970   -1.3705 C   0  0  0  0  0  0  0  0  0  0  0  0
    2.4003   -2.4296    1.4387 H   0  0  0  0  0  0  0  0  0  0  0  0
    0.6728   -4.1137    0.2112 H   0  0  0  0  0  0  0  0  0  0  0  0
    0.3604   -3.2734   -2.3544 H   0  0  0  0  0  0  0  0  0  0  0  0
    1.8745   -1.0718   -2.7036 H   0  0  0  0  0  0  0  0  0  0  0  0
  4 15  1  0  0  0  0
  5 16  1  0  0  0  0
  6 11  1  0  0  0  0
  6  7  2  0  0  0  0
  7 17  1  0  0  0  0
  8 18  1  0  0  0  0
  8  7  1  0  0  0  0
  9  8  1  0  0  0  0
 10  9  2  0  0  0  0
 10  6  1  0  0  0  0
 11 12  1  0  0  0  0
 12 13  2  0  0  0  0
 12  1  1  0  0  0  0
 13  2  1  0  0  0  0
 14  3  1  0  0  0  0
 14 13  1  0  0  0  0
 15 14  2  0  0  0  0
 16 15  1  0  0  0  0
 16 11  2  0  0  0  0
 19  9  1  0  0  0  0
 20 10  1  0  0  0  0
M  END
