2
q = -1.0, confidence = 0.08

 13 12  0  0  0  0  0  0  0  0999 V2000
    6.3052   -0.0695   -0.1418 Br  0  0  0  0  0  0  0  0  0  0  0  0
    1.0536   -1.4878   -0.6665 C   0  0  0  0  0  3  0  0  0  0  0  0
    1.3264   -2.5518   -0.5045 H   0  0  0  0  0  0  0  0  0  0  0  0
    1.1236   -1.2998   -1.7615 H   0  0  0  0  0  0  0  0  0  0  0  0
    3.4852   -0.7762   -0.3529 C   0  0  0  0  0  0  0  0  0  0  0  0
    3.7871   -1.8332   -0.1945 H   0  0  0  0  0  0  0  0  0  0  0  0
    3.5823   -0.5842   -1.4427 H   0  0  0  0  0  0  0  0  0  0  0  0
    4.4248    0.1419    0.4100 C   0  0  0  0  0  0  0  0  0  0  0  0
    4.4110   -0.0590    1.4985 H   0  0  0  0  0  0  0  0  0  0  0  0
    4.1869    1.2106    0.2456 H   0  0  0  0  0  0  0  0  0  0  0  0
    2.0220   -0.5788    0.0830 C   0  0  0  0  0  0  0  0  0  0  0  0
    1.9414   -0.7594    1.1783 H   0  0  0  0  0  0  0  0  0  0  0  0
    1.7439    0.4884   -0.0686 H   0  0  0  0  0  0  0  0  0  0  0  0
  1  8  1  0  0  0  0
  2  3  1  0  0  0  0
  2 11  1  0  0  0  0
  4  2  1  0  0  0  0
  5  6  1  0  0  0  0
  5 11  1  0  0  0  0
  5  8  1  0  0  0  0
  7  5  1  0  0  0  0
  8  9  1  0  0  0  0
 10  8  1  0  0  0  0
 11 12  1  0  0  0  0
 13 11  1  0  0  0  0
M  END
