23
q = 0.0, confidence = 0.902

 54 57  0  0  1  0  0  0  0  0999 V2000
    1.1070    2.9373    1.1207 Si  0  0  0  0  0  0  0  0  0  0  0  0
    1.1046   -2.9382    1.1202 Si  0  0  0  0  0  0  0  0  0  0  0  0
    1.5448   -0.0004    2.4755 O   0  0  0  0  0  0  0  0  0  0  0  0
   -2.5713   -1.2869   -0.7672 C   0  0  0  0  0  0  0  0  0  0  0  0
   -3.2543   -2.4554   -0.4335 C   0  0  0  0  0  0  0  0  0  0  0  0
   -2.7696   -3.4228   -0.6381 H   0  0  0  0  0  0  0  0  0  0  0  0
   -4.5425   -2.4400    0.1515 C   0  0  0  0  0  0  0  0  0  0  0  0
   -5.0466   -3.3875    0.3934 H   0  0  0  0  0  0  0  0  0  0  0  0
   -5.1499   -1.2277    0.4173 C   0  0  0  0  0  0  0  0  0  0  0  0
   -6.1500   -1.1870    0.8755 H   0  0  0  0  0  0  0  0  0  0  0  0
   -4.4947    0.0013    0.1127 C   0  0  0  0  0  0  0  0  0  0  0  0
   -5.1494    1.2306    0.4169 C   0  0  0  0  0  0  0  0  0  0  0  0
   -6.1495    1.1905    0.8752 H   0  0  0  0  0  0  0  0  0  0  0  0
   -4.5414    2.4426    0.1508 C   0  0  0  0  0  0  0  0  0  0  0  0
   -5.0451    3.3903    0.3924 H   0  0  0  0  0  0  0  0  0  0  0  0
   -3.2532    2.4572   -0.4341 C   0  0  0  0  0  0  0  0  0  0  0  0
   -2.7680    3.4243   -0.6389 H   0  0  0  0  0  0  0  0  0  0  0  0
   -2.5707    1.2884   -0.7675 C   0  0  0  0  0  0  0  0  0  0  0  0
   -3.1763    0.0009   -0.4954 C   0  0  0  0  0  0  0  0  0  0  0  0
   -1.1863    1.4489   -1.3794 C   0  0  0  0  0  0  0  0  0  0  0  0
   -1.1711    1.0434   -2.4119 H   0  0  0  0  0  0  0  0  0  0  0  0
   -0.9408    2.5220   -1.4600 H   0  0  0  0  0  0  0  0  0  0  0  0
   -0.1748    0.7201   -0.5408 C   0  0  1  0  0  3  0  0  0  0  0  0
    0.7134    1.1918    0.4907 C   0  0  2  0  0  3  0  0  0  0  0  0
    1.0358   -0.0003    1.3536 C   0  0  0  0  0  0  0  0  0  0  0  0
    0.7129   -1.1922    0.4906 C   0  0  2  0  0  3  0  0  0  0  0  0
   -0.1752   -0.7199   -0.5408 C   0  0  1  0  0  3  0  0  0  0  0  0
   -1.1871   -1.4483   -1.3794 C   0  0  0  0  0  0  0  0  0  0  0  0
   -0.9422   -2.5214   -1.4599 H   0  0  0  0  0  0  0  0  0  0  0  0
   -1.1719   -1.0428   -2.4118 H   0  0  0  0  0  0  0  0  0  0  0  0
    2.9231    2.9753    1.6261 C   0  0  0  0  0  0  0  0  0  0  0  0
    3.5915    2.9032    0.7446 H   0  0  0  0  0  0  0  0  0  0  0  0
    3.1328    2.1187    2.2974 H   0  0  0  0  0  0  0  0  0  0  0  0
    3.1635    3.9151    2.1643 H   0  0  0  0  0  0  0  0  0  0  0  0
    0.7707    4.2603   -0.1942 C   0  0  0  0  0  0  0  0  0  0  0  0
   -0.3129    4.3886   -0.3924 H   0  0  0  0  0  0  0  0  0  0  0  0
    1.2785    4.0415   -1.1546 H   0  0  0  0  0  0  0  0  0  0  0  0
    1.1534    5.2362    0.1712 H   0  0  0  0  0  0  0  0  0  0  0  0
   -0.0174    3.2065    2.6160 C   0  0  0  0  0  0  0  0  0  0  0  0
   -1.0865    3.1557    2.3237 H   0  0  0  0  0  0  0  0  0  0  0  0
    0.1682    4.1937    3.0873 H   0  0  0  0  0  0  0  0  0  0  0  0
    0.1752    2.4143    3.3672 H   0  0  0  0  0  0  0  0  0  0  0  0
    2.9195   -2.9773    1.6301 C   0  0  0  0  0  0  0  0  0  0  0  0
    3.1280   -2.1208    2.3018 H   0  0  0  0  0  0  0  0  0  0  0  0
    3.5901   -2.9056    0.7502 H   0  0  0  0  0  0  0  0  0  0  0  0
    3.1579   -3.9173    2.1687 H   0  0  0  0  0  0  0  0  0  0  0  0
    0.7711   -4.2602   -0.1964 C   0  0  0  0  0  0  0  0  0  0  0  0
    1.2804   -4.0403   -1.1558 H   0  0  0  0  0  0  0  0  0  0  0  0
   -0.3122   -4.3888   -0.3967 H   0  0  0  0  0  0  0  0  0  0  0  0
    1.1535   -5.2362    0.1688 H   0  0  0  0  0  0  0  0  0  0  0  0
   -0.0236   -3.2079    2.6126 C   0  0  0  0  0  0  0  0  0  0  0  0
   -1.0920   -3.1561    2.3176 H   0  0  0  0  0  0  0  0  0  0  0  0
    0.1677   -2.4167    3.3650 H   0  0  0  0  0  0  0  0  0  0  0  0
    0.1601   -4.1957    3.0834 H   0  0  0  0  0  0  0  0  0  0  0  0
  1 31  1  0  0  0  0
  1 39  1  0  0  0  0
  2 43  1  0  0  0  0
  2 51  1  0  0  0  0
  4 19  2  0  0  0  0
  4  5  1  0  0  0  0
  5  7  2  0  0  0  0
  6  5  1  0  0  0  0
  7  8  1  0  0  0  0
  7  9  1  0  0  0  0
  9 10  1  0  0  0  0
 11 12  1  0  0  0  0
 11  9  2  0  0  0  0
 12 13  1  0  0  0  0
 14 15  1  0  0  0  0
 14 12  2  0  0  0  0
 16 14  1  0  0  0  0
 17 16  1  0  0  0  0
 18 19  1  0  0  0  0
 18 16  2  0  0  0  0
 19 11  1  0  0  0  0
 20 18  1  0  0  0  0
 21 20  1  0  0  0  0
 22 20  1  0  0  0  0
 23 20  1  1  0  0  0
 23 27  1  0  0  0  0
 23 24  1  0  0  0  0
 24  1  1  1  0  0  0
 24 25  1  0  0  0  0
 25  3  2  0  0  0  0
 26  2  1  1  0  0  0
 26 25  1  0  0  0  0
 27 28  1  1  0  0  0
 27 26  1  0  0  0  0
 28  4  1  0  0  0  0
 29 28  1  0  0  0  0
 30 28  1  0  0  0  0
 31 34  1  0  0  0  0
 31 33  1  0  0  0  0
 32 31  1  0  0  0  0
 35 38  1  0  0  0  0
 35  1  1  0  0  0  0
 36 35  1  0  0  0  0
 37 35  1  0  0  0  0
 39 41  1  0  0  0  0
 39 42  1  0  0  0  0
 40 39  1  0  0  0  0
 43 46  1  0  0  0  0
 43 44  1  0  0  0  0
 45 43  1  0  0  0  0
 47 50  1  0  0  0  0
 47  2  1  0  0  0  0
 48 47  1  0  0  0  0
 49 47  1  0  0  0  0
 51 54  1  0  0  0  0
 51 53  1  0  0  0  0
 52 51  1  0  0  0  0
M  END
