3
q = -1.0

 14 13  0  0  0  0  0  0  0  0999 V2000
    2.2142   -1.2897    1.2861 S   0  0  0  0  0  1  0  0  0  0  0  0
    1.9511   -1.4179   -1.7487 S   0  0  0  0  0  1  0  0  0  0  0  0
    2.8283   -0.9068   -0.3221 C   0  0  0  0  0  3  0  0  0  0  0  0
    3.9939   -0.2476   -0.5431 O   0  0  0  0  0  0  0  0  0  0  0  0
    4.5866    0.5615    0.5104 C   0  0  0  0  0  0  0  0  0  0  0  0
    4.9221    1.9098   -0.1108 C   0  0  0  0  0  0  0  0  0  0  0  0
    5.7857   -0.1878    1.0776 C   0  0  0  0  0  0  0  0  0  0  0  0
    3.8208    0.6917    1.3054 H   0  0  0  0  0  0  0  0  0  0  0  0
    5.6439    1.7897   -0.9443 H   0  0  0  0  0  0  0  0  0  0  0  0
    4.0013    2.3845   -0.5009 H   0  0  0  0  0  0  0  0  0  0  0  0
    5.3734    2.5807    0.6478 H   0  0  0  0  0  0  0  0  0  0  0  0
    5.4683   -1.1540    1.5168 H   0  0  0  0  0  0  0  0  0  0  0  0
    6.5308   -0.3899    0.2816 H   0  0  0  0  0  0  0  0  0  0  0  0
    6.2760    0.4094    1.8728 H   0  0  0  0  0  0  0  0  0  0  0  0
  2  3  1  0  0  0  0
  3  1  1  0  0  0  0
  4  3  1  0  0  0  0
  4  5  1  0  0  0  0
  5  7  1  0  0  0  0
  5  8  1  0  0  0  0
  6  5  1  0  0  0  0
  6 11  1  0  0  0  0
  7 12  1  0  0  0  0
  7 14  1  0  0  0  0
  9  6  1  0  0  0  0
 10  6  1  0  0  0  0
 13  7  1  0  0  0  0
M  END
