1
q = -1.0

 11 10  0  0  0  0  0  0  0  0999 V2000
    0.9175    0.0000    0.3780 C   0  0  0  0  0  3  0  0  0  0  0  0
    1.1497    0.0002    1.7789 O   0  0  0  0  0  0  0  0  0  0  0  0
    1.5965   -1.2736   -0.1822 C   0  0  0  0  0  0  0  0  0  0  0  0
    1.5968    1.2733   -0.1826 C   0  0  0  0  0  0  0  0  0  0  0  0
    1.6312   -1.3389   -1.5354 F   0  0  0  0  0  0  0  0  0  0  0  0
    0.9963   -2.4010    0.2559 F   0  0  0  0  0  0  0  0  0  0  0  0
    2.8942   -1.3476    0.2412 F   0  0  0  0  0  0  0  0  0  0  0  0
    2.8952    1.3461    0.2391 F   0  0  0  0  0  0  0  0  0  0  0  0
    1.6298    1.3393   -1.5358 F   0  0  0  0  0  0  0  0  0  0  0  0
    0.9980    2.4008    0.2570 F   0  0  0  0  0  0  0  0  0  0  0  0
    2.1219   -0.0005    1.9146 H   0  0  0  0  0  0  0  0  0  0  0  0
  1  2  1  0  0  0  0
  2 11  1  0  0  0  0
  3  7  1  0  0  0  0
  3  6  1  0  0  0  0
  3  1  1  0  0  0  0
  4  8  1  0  0  0  0
  4 10  1  0  0  0  0
  4  1  1  0  0  0  0
  5  3  1  0  0  0  0
  9  4  1  0  0  0  0
M  END
