2
q = 0.0, confidence = 0.984

 20 19  0  0  0  0  0  0  0  0999 V2000
   -3.3737   -0.3803   -0.3297 N   0  0  0  0  0  0  0  0  0  0  0  0
   -1.1942   -1.5021   -0.5264 C   0  0  0  0  0  3  0  0  0  0  0  0
   -2.3043   -0.7519   -1.0118 C   0  0  0  0  0  3  0  0  0  0  0  0
   -3.5047   -0.6692    1.1083 C   0  0  0  0  0  0  0  0  0  0  0  0
   -4.1602   -2.0231    1.3748 C   0  0  0  0  0  0  0  0  0  0  0  0
   -4.4585    0.3742   -0.9747 C   0  0  0  0  0  0  0  0  0  0  0  0
   -4.4477    1.8721   -0.6785 C   0  0  0  0  0  0  0  0  0  0  0  0
   -0.6979   -2.0869   -1.3168 H   0  0  0  0  0  0  0  0  0  0  0  0
   -1.3221   -2.0579    0.4160 H   0  0  0  0  0  0  0  0  0  0  0  0
   -2.2763   -0.4158   -2.0630 H   0  0  0  0  0  0  0  0  0  0  0  0
   -2.4954   -0.6007    1.5636 H   0  0  0  0  0  0  0  0  0  0  0  0
   -4.1025    0.1529    1.5477 H   0  0  0  0  0  0  0  0  0  0  0  0
   -4.2530   -2.1846    2.4667 H   0  0  0  0  0  0  0  0  0  0  0  0
   -3.5515   -2.8507    0.9602 H   0  0  0  0  0  0  0  0  0  0  0  0
   -5.1761   -2.0862    0.9340 H   0  0  0  0  0  0  0  0  0  0  0  0
   -5.4142   -0.0863   -0.6436 H   0  0  0  0  0  0  0  0  0  0  0  0
   -4.3799    0.1965   -2.0655 H   0  0  0  0  0  0  0  0  0  0  0  0
   -3.5071    2.3326   -1.0345 H   0  0  0  0  0  0  0  0  0  0  0  0
   -4.5282    2.0777    0.4070 H   0  0  0  0  0  0  0  0  0  0  0  0
   -5.3108    2.3510   -1.1825 H   0  0  0  0  0  0  0  0  0  0  0  0
  1  4  1  0  0  0  0
  2  9  1  0  0  0  0
  3  2  1  0  0  0  0
  3  1  1  0  0  0  0
  4  5  1  0  0  0  0
  4 12  1  0  0  0  0
  4 11  1  0  0  0  0
  5 13  1  0  0  0  0
  6  7  1  0  0  0  0
  6 16  1  0  0  0  0
  6  1  1  0  0  0  0
  7 19  1  0  0  0  0
  8  2  1  0  0  0  0
 10  3  1  0  0  0  0
 14  5  1  0  0  0  0
 15  5  1  0  0  0  0
 17  6  1  0  0  0  0
 18  7  1  0  0  0  0
 20  7  1  0  0  0  0
M  END
