1
q = 0.0, confidence = 1.0

 27 28  0  0  0  0  0  0  0  0999 V2000
   -1.8322   -0.1566   -0.2077 C   0  0  0  0  0  2  0  0  0  0  0  0
   -1.1615    2.8233    1.2356 C   0  0  0  0  0  0  0  0  0  0  0  0
   -0.5269    3.7299    1.1895 H   0  0  0  0  0  0  0  0  0  0  0  0
   -0.6026    2.0586    1.8103 H   0  0  0  0  0  0  0  0  0  0  0  0
   -2.0968    3.0745    1.7759 H   0  0  0  0  0  0  0  0  0  0  0  0
   -1.4321    2.3171   -0.1774 C   0  0  0  0  0  0  0  0  0  0  0  0
   -1.9188    3.0892   -0.8076 H   0  0  0  0  0  0  0  0  0  0  0  0
   -0.4730    2.0300   -0.6567 H   0  0  0  0  0  0  0  0  0  0  0  0
   -2.8875   -2.4241   -0.1136 C   0  0  0  0  0  0  0  0  0  0  0  0
   -1.9364   -2.7221   -0.5976 H   0  0  0  0  0  0  0  0  0  0  0  0
   -3.7199   -2.8152   -0.7343 H   0  0  0  0  0  0  0  0  0  0  0  0
   -2.9558   -2.9537    1.3164 C   0  0  0  0  0  0  0  0  0  0  0  0
   -2.9227   -4.0611    1.3145 H   0  0  0  0  0  0  0  0  0  0  0  0
   -3.8881   -2.6369    1.8256 H   0  0  0  0  0  0  0  0  0  0  0  0
   -2.0920   -2.5826    1.9030 H   0  0  0  0  0  0  0  0  0  0  0  0
   -4.1027   -0.2015   -0.1150 C   0  0  0  0  0  0  0  0  0  0  0  0
   -3.6855    1.1531   -0.1290 C   0  0  0  0  0  0  0  0  0  0  0  0
   -4.6144    2.2034   -0.0900 C   0  0  0  0  0  0  0  0  0  0  0  0
   -4.2935    3.2542   -0.0972 H   0  0  0  0  0  0  0  0  0  0  0  0
   -5.9722    1.8545   -0.0357 C   0  0  0  0  0  0  0  0  0  0  0  0
   -6.7300    2.6509   -0.0011 H   0  0  0  0  0  0  0  0  0  0  0  0
   -6.3878    0.5041   -0.0216 C   0  0  0  0  0  0  0  0  0  0  0  0
   -7.4620    0.2720    0.0236 H   0  0  0  0  0  0  0  0  0  0  0  0
   -5.4607   -0.5483   -0.0612 C   0  0  0  0  0  0  0  0  0  0  0  0
   -5.7873   -1.5975   -0.0469 H   0  0  0  0  0  0  0  0  0  0  0  0
   -2.2942    1.1322   -0.1961 N   0  0  0  0  0  0  0  0  0  0  0  0
   -2.9384   -0.9651   -0.1737 N   0  0  0  0  0  0  0  0  0  0  0  0
  1 26  1  0  0  0  0
  1 27  1  0  0  0  0
  2  5  1  0  0  0  0
  2  4  1  0  0  0  0
  3  2  1  0  0  0  0
  6  2  1  0  0  0  0
  7  6  1  0  0  0  0
  8  6  1  0  0  0  0
  9 12  1  0  0  0  0
 10  9  1  0  0  0  0
 11  9  1  0  0  0  0
 12 14  1  0  0  0  0
 12 15  1  0  0  0  0
 13 12  1  0  0  0  0
 16 24  1  0  0  0  0
 17 16  2  0  0  0  0
 17 18  1  0  0  0  0
 18 20  2  0  0  0  0
 19 18  1  0  0  0  0
 20 22  1  0  0  0  0
 20 21  1  0  0  0  0
 22 23  1  0  0  0  0
 24 25  1  0  0  0  0
 24 22  2  0  0  0  0
 26  6  1  0  0  0  0
 26 17  1  0  0  0  0
 27 16  1  0  0  0  0
 27  9  1  0  0  0  0
M  END
