2
q = -1.0, confidence = 0.0

 27 29  0  0  1  0  0  0  0  0999 V2000
    1.5172    1.1796   -1.8666 C   0  0  0  0  0  0  0  0  0  0  0  0
    0.4896    0.2401   -2.1931 C   0  0  0  0  0  3  0  0  0  0  0  0
    0.6396   -0.8977   -1.3534 C   0  0  0  0  0  0  0  0  0  0  0  0
    1.7556   -0.6591   -0.4940 C   0  0  0  0  0  0  0  0  0  0  0  0
    2.3243    0.6045   -0.8507 C   0  0  0  0  0  0  0  0  0  0  0  0
    3.6539    0.9976   -0.2695 C   0  0  0  0  0  0  0  0  0  0  0  0
    4.1845   -0.1549    0.6092 C   0  0  1  0  0  0  0  0  0  0  0  0
    3.0743   -0.6027    1.6004 C   0  0  0  0  0  0  0  0  0  0  0  0
    2.5421   -1.5161    0.4550 C   0  0  2  0  0  0  0  0  0  0  0  0
    4.0364   -1.5624   -0.0868 C   0  0  0  0  0  0  0  0  0  0  0  0
    4.2699   -1.6764   -1.5921 C   0  0  0  0  0  0  0  0  0  0  0  0
    4.8611   -2.6417    0.6245 C   0  0  0  0  0  0  0  0  0  0  0  0
    1.6431    2.1714   -2.3148 H   0  0  0  0  0  0  0  0  0  0  0  0
   -0.2967    0.3914   -2.9398 H   0  0  0  0  0  0  0  0  0  0  0  0
    0.0175   -1.7989   -1.3730 H   0  0  0  0  0  0  0  0  0  0  0  0
    4.3592    1.2237   -1.0978 H   0  0  0  0  0  0  0  0  0  0  0  0
    3.5500    1.9273    0.3310 H   0  0  0  0  0  0  0  0  0  0  0  0
    5.1840    0.0902    1.0232 H   0  0  0  0  0  0  0  0  0  0  0  0
    3.4701   -1.1782    2.4564 H   0  0  0  0  0  0  0  0  0  0  0  0
    2.3962    0.1905    1.9669 H   0  0  0  0  0  0  0  0  0  0  0  0
    2.0541   -2.4817    0.6994 H   0  0  0  0  0  0  0  0  0  0  0  0
    3.6846   -0.9473   -2.1832 H   0  0  0  0  0  0  0  0  0  0  0  0
    3.9987   -2.6911   -1.9513 H   0  0  0  0  0  0  0  0  0  0  0  0
    5.3436   -1.5189   -1.8259 H   0  0  0  0  0  0  0  0  0  0  0  0
    4.7452   -2.6243    1.7251 H   0  0  0  0  0  0  0  0  0  0  0  0
    5.9400   -2.5107    0.3999 H   0  0  0  0  0  0  0  0  0  0  0  0
    4.5669   -3.6518    0.2708 H   0  0  0  0  0  0  0  0  0  0  0  0
  1  5  2  0  0  0  0
  2  1  1  0  0  0  0
  2  3  1  0  0  0  0
  3  4  2  0  0  0  0
  4  9  1  0  0  0  0
  5  4  1  0  0  0  0
  5  6  1  0  0  0  0
  6 17  1  0  0  0  0
  6  7  1  0  0  0  0
  7 18  1  1  0  0  0
  7  8  1  0  0  0  0
  8 20  1  0  0  0  0
  8 19  1  0  0  0  0
  9 21  1  1  0  0  0
  9  8  1  0  0  0  0
 10  9  1  0  0  0  0
 10  7  1  0  0  0  0
 10 12  1  0  0  0  0
 11 10  1  0  0  0  0
 12 25  1  0  0  0  0
 13  1  1  0  0  0  0
 14  2  1  0  0  0  0
 15  3  1  0  0  0  0
 16  6  1  0  0  0  0
 22 11  1  0  0  0  0
 23 11  1  0  0  0  0
 24 11  1  0  0  0  0
 26 12  1  0  0  0  0
 27 12  1  0  0  0  0
M  END
