1
q = -1.0

 20 20  0  0  0  0  0  0  0  0999 V2000
   -1.8454   -0.4743   -0.5501 C   0  0  0  0  0  3  0  0  0  0  0  0
   -5.3614   -0.8695   -0.3282 N   0  0  0  0  0  0  0  0  0  0  0  0
   -4.6658   -1.1368   -2.5059 O   0  0  0  0  0  0  0  0  0  0  0  0
   -3.0259   -0.6991   -0.8683 C   0  0  0  0  0  0  0  0  0  0  0  0
   -4.3871   -0.9244   -1.3195 C   0  0  0  0  0  0  0  0  0  0  0  0
   -5.1014   -0.5597    1.0683 C   0  0  0  0  0  0  0  0  0  0  0  0
   -5.4571   -1.4070    1.7031 H   0  0  0  0  0  0  0  0  0  0  0  0
   -4.0060   -0.4757    1.2066 H   0  0  0  0  0  0  0  0  0  0  0  0
   -5.8256    0.7271    1.4893 C   0  0  0  0  0  0  0  0  0  0  0  0
   -5.6699    0.9062    2.5741 H   0  0  0  0  0  0  0  0  0  0  0  0
   -5.3668    1.5843    0.9485 H   0  0  0  0  0  0  0  0  0  0  0  0
   -7.3215    0.6466    1.1542 C   0  0  0  0  0  0  0  0  0  0  0  0
   -7.7928   -0.1373    1.7899 H   0  0  0  0  0  0  0  0  0  0  0  0
   -7.8317    1.5999    1.4051 H   0  0  0  0  0  0  0  0  0  0  0  0
   -7.5326    0.2892   -0.3240 C   0  0  0  0  0  0  0  0  0  0  0  0
   -7.1715    1.1223   -0.9658 H   0  0  0  0  0  0  0  0  0  0  0  0
   -8.6118    0.1541   -0.5468 H   0  0  0  0  0  0  0  0  0  0  0  0
   -6.7638   -0.9853   -0.6990 C   0  0  0  0  0  0  0  0  0  0  0  0
   -6.7924   -1.1858   -1.7868 H   0  0  0  0  0  0  0  0  0  0  0  0
   -7.2104   -1.8615   -0.1709 H   0  0  0  0  0  0  0  0  0  0  0  0
  2  6  1  0  0  0  0
  3  5  2  0  0  0  0
  4  1  3  0  0  0  0
  5  4  1  0  0  0  0
  5  2  1  0  0  0  0
  6  8  1  0  0  0  0
  6  9  1  0  0  0  0
  6  7  1  0  0  0  0
  9 10  1  0  0  0  0
 11  9  1  0  0  0  0
 12 14  1  0  0  0  0
 12  9  1  0  0  0  0
 12 13  1  0  0  0  0
 15 12  1  0  0  0  0
 16 15  1  0  0  0  0
 17 15  1  0  0  0  0
 18  2  1  0  0  0  0
 18 15  1  0  0  0  0
 18 20  1  0  0  0  0
 19 18  1  0  0  0  0
M  END
