5
q = nan, confidence = 0.0

 15 14  0  0  0  0  0  0  0  0999 V2000
   -3.0599   -1.8199    0.1689 P   0  0  0  0  0  0  0  0  0  0  0  0
   -2.8592   -3.4513    0.1631 O   0  0  0  0  0  0  0  0  0  0  0  0
   -4.6379   -1.6786   -0.2806 O   0  0  0  0  0  0  0  0  0  0  0  0
   -2.7822   -1.2305    1.5428 O   0  0  0  0  0  0  0  0  0  0  0  0
   -2.2068   -1.1597   -1.2641 C   0  0  0  0  0  3  0  0  0  0  0  0
   -2.1235   -4.1002    1.2031 C   0  0  0  0  0  0  0  0  0  0  0  0
   -5.6316   -2.0762    0.6615 C   0  0  0  0  0  0  0  0  0  0  0  0
   -2.1330   -1.9705   -2.0141 H   0  0  0  0  0  0  0  0  0  0  0  0
   -2.8291   -0.3414   -1.6720 H   0  0  0  0  0  0  0  0  0  0  0  0
   -2.1528   -3.5027    2.1378 H   0  0  0  0  0  0  0  0  0  0  0  0
   -1.0670   -4.2412    0.8914 H   0  0  0  0  0  0  0  0  0  0  0  0
   -2.5927   -5.0889    1.3789 H   0  0  0  0  0  0  0  0  0  0  0  0
   -5.4131   -1.6624    1.6694 H   0  0  0  0  0  0  0  0  0  0  0  0
   -5.6924   -3.1839    0.7339 H   0  0  0  0  0  0  0  0  0  0  0  0
   -6.6026   -1.6815    0.3044 H   0  0  0  0  0  0  0  0  0  0  0  0
  1  4  2  0  0  0  0
  2  1  1  0  0  0  0
  2  6  1  0  0  0  0
  3  1  1  0  0  0  0
  3  7  1  0  0  0  0
  5  1  1  0  0  0  0
  6 12  1  0  0  0  0
  6 10  1  0  0  0  0
  7 14  1  0  0  0  0
  7 13  1  0  0  0  0
  8  5  1  0  0  0  0
  9  5  1  0  0  0  0
 11  6  1  0  0  0  0
 15  7  1  0  0  0  0
M  END
