6
q = -1.0

 10 10  0  0  0  0  0  0  0  0999 V2000
    0.3848    1.5676   -2.3630 F   0  0  0  0  0  0  0  0  0  0  0  0
    0.6521    4.2571   -2.2068 F   0  0  0  0  0  0  0  0  0  0  0  0
    0.0079    4.2578    2.3010 F   0  0  0  0  0  0  0  0  0  0  0  0
   -0.2551    1.5680    2.3863 F   0  0  0  0  0  0  0  0  0  0  0  0
    0.3303    4.2413    0.0473 N   0  0  0  0  0  0  0  0  0  0  0  0
    0.0669    1.4063    0.0115 C   0  0  0  0  0  0  0  0  0  0  0  0
    0.2907    2.1672   -1.1485 C   0  0  0  0  0  0  0  0  0  0  0  0
    0.4231    3.5627   -1.0824 C   0  0  0  0  0  0  0  0  0  0  0  0
    0.1110    3.5625    1.1587 C   0  0  0  0  0  0  0  0  0  0  0  0
   -0.0199    2.1646    1.1899 C   0  0  0  0  0  0  0  0  0  0  0  0
  1  7  1  0  0  0  0
  2  8  1  0  0  0  0
  5  9  1  0  0  0  0
  6 10  1  0  0  0  0
  7  8  1  0  0  0  0
  7  6  2  0  0  0  0
  8  5  2  0  0  0  0
  9 10  2  0  0  0  0
  9  3  1  0  0  0  0
 10  4  1  0  0  0  0
M  END
