9
q = -2.0, confidence = 0.642

 74 75  0  0  1  0  0  0  0  0999 V2000
    3.6681    1.2886    0.0653 Si  0  0  0  0  0  0  0  0  0  0  0  0
   -3.5146    1.6704    0.1851 Si  0  0  0  0  0  0  0  0  0  0  0  0
    0.6628    1.5712   -0.3091 C   0  0  2  0  0  3  0  0  0  0  0  0
    1.8051    1.1369    0.4888 C   0  0  2  0  0  3  0  0  0  0  0  0
    1.2512    0.8303    1.7603 C   0  0  0  0  0  0  0  0  0  0  0  0
    1.8151    0.4039    2.5982 H   0  0  0  0  0  0  0  0  0  0  0  0
   -0.1676    1.0406    1.7957 C   0  0  0  0  0  0  0  0  0  0  0  0
   -0.8114    0.8507    2.6615 H   0  0  0  0  0  0  0  0  0  0  0  0
   -0.5479    1.6065    0.5230 C   0  0  2  0  0  3  0  0  0  0  0  0
   -1.7042    1.3256   -0.3188 C   0  0  2  0  0  3  0  0  0  0  0  0
   -1.1697    1.2395   -1.6623 C   0  0  0  0  0  0  0  0  0  0  0  0
   -1.7730    1.0313   -2.5531 H   0  0  0  0  0  0  0  0  0  0  0  0
    0.2342    1.3521   -1.6722 C   0  0  0  0  0  0  0  0  0  0  0  0
    0.8775    1.2367   -2.5499 H   0  0  0  0  0  0  0  0  0  0  0  0
    4.1931    2.8447    1.0818 C   0  0  0  0  0  0  0  0  0  0  0  0
    3.4131    3.5933    0.8083 H   0  0  0  0  0  0  0  0  0  0  0  0
    5.5563    3.4291    0.6710 C   0  0  0  0  0  0  0  0  0  0  0  0
    5.7453    4.3874    1.2019 H   0  0  0  0  0  0  0  0  0  0  0  0
    5.6216    3.6376   -0.4149 H   0  0  0  0  0  0  0  0  0  0  0  0
    6.3914    2.7476    0.9272 H   0  0  0  0  0  0  0  0  0  0  0  0
    4.1253    2.6388    2.6028 C   0  0  0  0  0  0  0  0  0  0  0  0
    4.8580    1.8793    2.9465 H   0  0  0  0  0  0  0  0  0  0  0  0
    3.1221    2.3141    2.9434 H   0  0  0  0  0  0  0  0  0  0  0  0
    4.3614    3.5824    3.1411 H   0  0  0  0  0  0  0  0  0  0  0  0
    3.7758    1.6623   -1.8158 C   0  0  0  0  0  0  0  0  0  0  0  0
    3.0690    0.9196   -2.2510 H   0  0  0  0  0  0  0  0  0  0  0  0
    3.2790    3.0735   -2.1719 C   0  0  0  0  0  0  0  0  0  0  0  0
    3.9834    3.8547   -1.8191 H   0  0  0  0  0  0  0  0  0  0  0  0
    2.2892    3.3074   -1.7297 H   0  0  0  0  0  0  0  0  0  0  0  0
    3.1876    3.1973   -3.2728 H   0  0  0  0  0  0  0  0  0  0  0  0
    5.1491    1.3749   -2.4436 C   0  0  0  0  0  0  0  0  0  0  0  0
    5.1199    1.5437   -3.5419 H   0  0  0  0  0  0  0  0  0  0  0  0
    5.4691    0.3261   -2.2829 H   0  0  0  0  0  0  0  0  0  0  0  0
    5.9436    2.0348   -2.0373 H   0  0  0  0  0  0  0  0  0  0  0  0
    4.6415   -0.3025    0.5217 C   0  0  0  0  0  0  0  0  0  0  0  0
    4.5180   -0.9388   -0.3836 H   0  0  0  0  0  0  0  0  0  0  0  0
    6.1462   -0.0452    0.7176 C   0  0  0  0  0  0  0  0  0  0  0  0
    6.3432    0.5417    1.6386 H   0  0  0  0  0  0  0  0  0  0  0  0
    6.6078    0.4994   -0.1298 H   0  0  0  0  0  0  0  0  0  0  0  0
    6.6908   -1.0076    0.8277 H   0  0  0  0  0  0  0  0  0  0  0  0
    4.0622   -1.0908    1.7054 C   0  0  0  0  0  0  0  0  0  0  0  0
    4.6615   -2.0086    1.8890 H   0  0  0  0  0  0  0  0  0  0  0  0
    3.0203   -1.4182    1.5218 H   0  0  0  0  0  0  0  0  0  0  0  0
    4.0819   -0.5034    2.6480 H   0  0  0  0  0  0  0  0  0  0  0  0
   -4.8286    0.8250   -0.9301 C   0  0  0  0  0  0  0  0  0  0  0  0
   -4.9018   -0.2083   -0.5207 H   0  0  0  0  0  0  0  0  0  0  0  0
   -4.4919    0.6967   -2.4244 C   0  0  0  0  0  0  0  0  0  0  0  0
   -3.6253    0.0293   -2.5951 H   0  0  0  0  0  0  0  0  0  0  0  0
   -4.2812    1.6780   -2.8974 H   0  0  0  0  0  0  0  0  0  0  0  0
   -5.3503    0.2527   -2.9734 H   0  0  0  0  0  0  0  0  0  0  0  0
   -6.1972    1.5097   -0.7474 C   0  0  0  0  0  0  0  0  0  0  0  0
   -6.1976    2.5374   -1.1676 H   0  0  0  0  0  0  0  0  0  0  0  0
   -6.5060    1.5882    0.3134 H   0  0  0  0  0  0  0  0  0  0  0  0
   -6.9898    0.9429   -1.2812 H   0  0  0  0  0  0  0  0  0  0  0  0
   -3.6302    3.5898    0.0569 C   0  0  0  0  0  0  0  0  0  0  0  0
   -4.6839    3.8200    0.3382 H   0  0  0  0  0  0  0  0  0  0  0  0
   -3.3973    4.1063   -1.3706 C   0  0  0  0  0  0  0  0  0  0  0  0
   -3.4856    5.2135   -1.4133 H   0  0  0  0  0  0  0  0  0  0  0  0
   -4.1255    3.6899   -2.0947 H   0  0  0  0  0  0  0  0  0  0  0  0
   -2.3802    3.8484   -1.7357 H   0  0  0  0  0  0  0  0  0  0  0  0
   -2.7048    4.2968    1.0587 C   0  0  0  0  0  0  0  0  0  0  0  0
   -1.6369    4.0735    0.8519 H   0  0  0  0  0  0  0  0  0  0  0  0
   -2.9065    4.0001    2.1077 H   0  0  0  0  0  0  0  0  0  0  0  0
   -2.8242    5.4001    0.9988 H   0  0  0  0  0  0  0  0  0  0  0  0
   -3.7329    1.1790    2.0291 C   0  0  0  0  0  0  0  0  0  0  0  0
   -2.8487    1.6419    2.5248 H   0  0  0  0  0  0  0  0  0  0  0  0
   -3.6785   -0.3362    2.2695 C   0  0  0  0  0  0  0  0  0  0  0  0
   -3.7378   -0.5719    3.3540 H   0  0  0  0  0  0  0  0  0  0  0  0
   -2.7511   -0.8058    1.8841 H   0  0  0  0  0  0  0  0  0  0  0  0
   -4.5242   -0.8575    1.7744 H   0  0  0  0  0  0  0  0  0  0  0  0
   -4.9813    1.7929    2.6865 C   0  0  0  0  0  0  0  0  0  0  0  0
   -5.9127    1.3347    2.2952 H   0  0  0  0  0  0  0  0  0  0  0  0
   -5.0576    2.8880    2.5311 H   0  0  0  0  0  0  0  0  0  0  0  0
   -4.9750    1.6122    3.7828 H   0  0  0  0  0  0  0  0  0  0  0  0
  1 35  1  0  0  0  0
  1 15  1  0  0  0  0
  2 65  1  0  0  0  0
  3 13  1  6  0  0  0
  3  4  1  0  0  0  0
  3  9  1  0  0  0  0
  4  1  1  1  0  0  0
  4  5  1  0  0  0  0
  5  7  2  0  0  0  0
  5  6  1  0  0  0  0
  7  8  1  0  0  0  0
  9  7  1  1  0  0  0
 10  2  1  6  0  0  0
 10  9  1  0  0  0  0
 11 10  1  0  0  0  0
 12 11  1  0  0  0  0
 13 11  2  0  0  0  0
 14 13  1  0  0  0  0
 15 21  1  0  0  0  0
 16 15  1  0  0  0  0
 17 20  1  0  0  0  0
 17 15  1  0  0  0  0
 17 18  1  0  0  0  0
 19 17  1  0  0  0  0
 21 23  1  0  0  0  0
 21 22  1  0  0  0  0
 21 24  1  0  0  0  0
 25  1  1  0  0  0  0
 26 25  1  0  0  0  0
 27 28  1  0  0  0  0
 27 25  1  0  0  0  0
 27 29  1  0  0  0  0
 30 27  1  0  0  0  0
 31 33  1  0  0  0  0
 31 34  1  0  0  0  0
 31 25  1  0  0  0  0
 32 31  1  0  0  0  0
 35 37  1  0  0  0  0
 35 41  1  0  0  0  0
 36 35  1  0  0  0  0
 37 40  1  0  0  0  0
 37 38  1  0  0  0  0
 39 37  1  0  0  0  0
 41 42  1  0  0  0  0
 41 44  1  0  0  0  0
 43 41  1  0  0  0  0
 45 51  1  0  0  0  0
 45 46  1  0  0  0  0
 45  2  1  0  0  0  0
 47 45  1  0  0  0  0
 48 47  1  0  0  0  0
 49 47  1  0  0  0  0
 50 47  1  0  0  0  0
 51 53  1  0  0  0  0
 52 51  1  0  0  0  0
 54 51  1  0  0  0  0
 55  2  1  0  0  0  0
 55 56  1  0  0  0  0
 55 61  1  0  0  0  0
 57 55  1  0  0  0  0
 58 57  1  0  0  0  0
 59 57  1  0  0  0  0
 60 57  1  0  0  0  0
 61 63  1  0  0  0  0
 62 61  1  0  0  0  0
 64 61  1  0  0  0  0
 65 67  1  0  0  0  0
 65 66  1  0  0  0  0
 65 71  1  0  0  0  0
 67 68  1  0  0  0  0
 69 67  1  0  0  0  0
 70 67  1  0  0  0  0
 71 74  1  0  0  0  0
 72 71  1  0  0  0  0
 73 71  1  0  0  0  0
M  END
