13
q = 0.0, confidence = 1.0

 35 35  0  0  0  0  0  0  0  0999 V2000
    1.0276   -2.6681   -0.3347 N   0  0  0  0  0  0  0  0  0  0  0  0
   -1.0274   -2.6681    0.3349 N   0  0  0  0  0  0  0  0  0  0  0  0
    0.6551   -4.0003   -0.2041 C   0  0  0  0  0  0  0  0  0  0  0  0
   -0.6547   -4.0003    0.2047 C   0  0  0  0  0  0  0  0  0  0  0  0
    1.3465   -4.8236   -0.4047 H   0  0  0  0  0  0  0  0  0  0  0  0
   -1.3460   -4.8238    0.4054 H   0  0  0  0  0  0  0  0  0  0  0  0
    2.3660   -2.1776   -0.6805 C   0  0  0  0  0  0  0  0  0  0  0  0
   -2.3659   -2.1779    0.6806 C   0  0  0  0  0  0  0  0  0  0  0  0
    2.7816   -2.8321   -1.4709 H   0  0  0  0  0  0  0  0  0  0  0  0
   -2.7815   -2.8325    1.4708 H   0  0  0  0  0  0  0  0  0  0  0  0
    2.2038   -1.1730   -1.1283 H   0  0  0  0  0  0  0  0  0  0  0  0
   -2.2039   -1.1733    1.1286 H   0  0  0  0  0  0  0  0  0  0  0  0
    0.0000   -1.8394    0.0000 C   0  0  0  0  0  2  0  0  0  0  0  0
    3.2527   -2.0741    0.5276 C   0  0  0  0  0  0  0  0  0  0  0  0
   -3.2525   -2.0742   -0.5276 C   0  0  0  0  0  0  0  0  0  0  0  0
    2.7770   -1.5567    1.3811 H   0  0  0  0  0  0  0  0  0  0  0  0
   -2.7767   -1.5568   -1.3810 H   0  0  0  0  0  0  0  0  0  0  0  0
    4.5338   -2.4955    0.6444 C   0  0  0  0  0  0  0  0  0  0  0  0
   -4.5336   -2.4956   -0.6445 C   0  0  0  0  0  0  0  0  0  0  0  0
    5.2984   -2.2602    1.9219 C   0  0  0  0  0  0  0  0  0  0  0  0
   -5.2981   -2.2602   -1.9221 C   0  0  0  0  0  0  0  0  0  0  0  0
    4.6780   -1.7555    2.6871 H   0  0  0  0  0  0  0  0  0  0  0  0
   -4.6776   -1.7554   -2.6872 H   0  0  0  0  0  0  0  0  0  0  0  0
    5.6708   -3.2179    2.3469 H   0  0  0  0  0  0  0  0  0  0  0  0
   -5.6704   -3.2178   -2.3473 H   0  0  0  0  0  0  0  0  0  0  0  0
    6.1978   -1.6325    1.7359 H   0  0  0  0  0  0  0  0  0  0  0  0
   -6.1975   -1.6326   -1.7362 H   0  0  0  0  0  0  0  0  0  0  0  0
    5.3148   -3.1786   -0.4483 C   0  0  0  0  0  0  0  0  0  0  0  0
   -5.3147   -3.1788    0.4481 C   0  0  0  0  0  0  0  0  0  0  0  0
    4.7095   -3.4236   -1.3414 H   0  0  0  0  0  0  0  0  0  0  0  0
   -4.7094   -3.4239    1.3411 H   0  0  0  0  0  0  0  0  0  0  0  0
    6.1575   -2.5349   -0.7843 H   0  0  0  0  0  0  0  0  0  0  0  0
   -6.1574   -2.5350    0.7841 H   0  0  0  0  0  0  0  0  0  0  0  0
    5.7759   -4.1185   -0.0753 H   0  0  0  0  0  0  0  0  0  0  0  0
   -5.7759   -4.1185    0.0749 H   0  0  0  0  0  0  0  0  0  0  0  0
  1  3  1  0  0  0  0
  1 13  1  0  0  0  0
  2  8  1  0  0  0  0
  3  4  2  0  0  0  0
  4  2  1  0  0  0  0
  4  6  1  0  0  0  0
  5  3  1  0  0  0  0
  7  1  1  0  0  0  0
  7 14  1  0  0  0  0
  8 12  1  0  0  0  0
  8 10  1  0  0  0  0
  9  7  1  0  0  0  0
 11  7  1  0  0  0  0
 13  2  1  0  0  0  0
 14 18  2  0  0  0  0
 14 16  1  0  0  0  0
 15  8  1  0  0  0  0
 17 15  1  0  0  0  0
 18 20  1  0  0  0  0
 19 15  2  0  0  0  0
 19 29  1  0  0  0  0
 20 24  1  0  0  0  0
 20 22  1  0  0  0  0
 21 27  1  0  0  0  0
 21 19  1  0  0  0  0
 23 21  1  0  0  0  0
 25 21  1  0  0  0  0
 26 20  1  0  0  0  0
 28 34  1  0  0  0  0
 28 18  1  0  0  0  0
 29 33  1  0  0  0  0
 29 31  1  0  0  0  0
 30 28  1  0  0  0  0
 32 28  1  0  0  0  0
 35 29  1  0  0  0  0
M  END
