1
q = -1.0

 34 34  0  0  1  0  0  0  0  0999 V2000
    1.3152   -0.2208   -0.0752 C   0  0  2  0  0  3  0  0  0  0  0  0
    0.7724    0.2097   -1.3569 C   0  0  1  0  0  3  0  0  0  0  0  0
    0.0635    1.4459   -1.1434 C   0  0  0  0  0  0  0  0  0  0  0  0
    0.1565    1.7916    0.2611 C   0  0  0  0  0  0  0  0  0  0  0  0
    0.9364    0.7574    0.9143 C   0  0  2  0  0  3  0  0  0  0  0  0
    2.2276   -1.4023    0.1241 C   0  0  0  0  0  0  0  0  0  0  0  0
    2.2054   -1.7082    1.1906 H   0  0  0  0  0  0  0  0  0  0  0  0
    1.8388   -2.2705   -0.4461 H   0  0  0  0  0  0  0  0  0  0  0  0
    3.6816   -1.1263   -0.3060 C   0  0  0  0  0  0  0  0  0  0  0  0
    4.2654   -2.0664   -0.1953 H   0  0  0  0  0  0  0  0  0  0  0  0
    3.7030   -0.8851   -1.3921 H   0  0  0  0  0  0  0  0  0  0  0  0
    4.3746   -0.0034    0.4713 C   0  0  0  0  0  0  0  0  0  0  0  0
    4.3490   -0.2425    1.5579 H   0  0  0  0  0  0  0  0  0  0  0  0
    3.7910    0.9364    0.3555 H   0  0  0  0  0  0  0  0  0  0  0  0
    5.8185    0.2331    0.0277 C   0  0  0  0  0  0  0  0  0  0  0  0
    6.4375   -0.6784    0.1625 H   0  0  0  0  0  0  0  0  0  0  0  0
    6.2973    1.0501    0.6040 H   0  0  0  0  0  0  0  0  0  0  0  0
    5.8691    0.5080   -1.0467 H   0  0  0  0  0  0  0  0  0  0  0  0
    1.0168   -0.4566   -2.6791 C   0  0  0  0  0  0  0  0  0  0  0  0
    1.9472   -0.0721   -3.1506 H   0  0  0  0  0  0  0  0  0  0  0  0
    0.1852   -0.2761   -3.3865 H   0  0  0  0  0  0  0  0  0  0  0  0
    1.1282   -1.5521   -2.5680 H   0  0  0  0  0  0  0  0  0  0  0  0
   -0.5707    2.2919   -2.2073 C   0  0  0  0  0  0  0  0  0  0  0  0
    0.1562    3.0395   -2.5909 H   0  0  0  0  0  0  0  0  0  0  0  0
   -1.4478    2.8462   -1.8225 H   0  0  0  0  0  0  0  0  0  0  0  0
   -0.9093    1.6824   -3.0662 H   0  0  0  0  0  0  0  0  0  0  0  0
   -0.3273    3.0631    0.8931 C   0  0  0  0  0  0  0  0  0  0  0  0
   -0.5740    2.9187    1.9621 H   0  0  0  0  0  0  0  0  0  0  0  0
   -1.2352    3.4487    0.3913 H   0  0  0  0  0  0  0  0  0  0  0  0
    0.4495    3.8569    0.8343 H   0  0  0  0  0  0  0  0  0  0  0  0
    1.3516    0.7729    2.3562 C   0  0  0  0  0  0  0  0  0  0  0  0
    2.2577    1.4006    2.4916 H   0  0  0  0  0  0  0  0  0  0  0  0
    1.5904   -0.2431    2.7224 H   0  0  0  0  0  0  0  0  0  0  0  0
    0.5573    1.1863    3.0067 H   0  0  0  0  0  0  0  0  0  0  0  0
  1  6  1  6  0  0  0
  1  5  1  0  0  0  0
  2 19  1  6  0  0  0
  2  3  1  0  0  0  0
  2  1  1  0  0  0  0
  3  4  2  0  0  0  0
  4 27  1  0  0  0  0
  4  5  1  0  0  0  0
  5 31  1  6  0  0  0
  6  7  1  0  0  0  0
  8  6  1  0  0  0  0
  9 10  1  0  0  0  0
  9  6  1  0  0  0  0
  9 12  1  0  0  0  0
 11  9  1  0  0  0  0
 12 13  1  0  0  0  0
 14 12  1  0  0  0  0
 15 16  1  0  0  0  0
 15 12  1  0  0  0  0
 15 17  1  0  0  0  0
 18 15  1  0  0  0  0
 19 22  1  0  0  0  0
 20 19  1  0  0  0  0
 21 19  1  0  0  0  0
 23 25  1  0  0  0  0
 23  3  1  0  0  0  0
 24 23  1  0  0  0  0
 26 23  1  0  0  0  0
 27 28  1  0  0  0  0
 29 27  1  0  0  0  0
 30 27  1  0  0  0  0
 31 32  1  0  0  0  0
 31 33  1  0  0  0  0
 31 34  1  0  0  0  0
M  END
