5
q = -1.0, confidence = 0.0

 35 36  0  0  1  0  0  0  0  0999 V2000
   -1.1186    0.8270   -0.2022 C   0  0  0  0  0  0  0  0  0  0  0  0
   -0.6055    0.9815    1.1399 C   0  0  0  0  0  0  0  0  0  0  0  0
    0.6821    1.6405    1.0669 C   0  0  0  0  0  0  0  0  0  0  0  0
    0.9628    1.9031   -0.3318 C   0  0  0  0  0  0  0  0  0  0  0  0
   -0.1388    1.4059   -1.1139 C   0  0  2  0  0  3  0  0  0  0  0  0
   -2.4727    0.3056   -0.6149 C   0  0  0  0  0  0  0  0  0  0  0  0
   -2.4755    0.2807   -1.7232 H   0  0  0  0  0  0  0  0  0  0  0  0
   -2.8724   -1.1264   -0.1210 C   0  0  0  0  0  0  0  0  0  0  0  0
   -2.1715   -1.5069    0.6463 H   0  0  0  0  0  0  0  0  0  0  0  0
   -2.8020   -1.8382   -0.9673 H   0  0  0  0  0  0  0  0  0  0  0  0
   -4.3217   -1.0086    0.4053 C   0  0  0  0  0  0  0  0  0  0  0  0
   -4.3192   -0.8981    1.5114 H   0  0  0  0  0  0  0  0  0  0  0  0
   -4.9380   -1.9005    0.1771 H   0  0  0  0  0  0  0  0  0  0  0  0
   -4.8655    0.2835   -0.2276 C   0  0  0  0  0  0  0  0  0  0  0  0
   -5.7566    0.6898    0.2922 H   0  0  0  0  0  0  0  0  0  0  0  0
   -5.1575    0.0971   -1.2843 H   0  0  0  0  0  0  0  0  0  0  0  0
   -3.6521    1.2192   -0.1840 C   0  0  0  0  0  0  0  0  0  0  0  0
   -3.7479    2.1164   -0.8282 H   0  0  0  0  0  0  0  0  0  0  0  0
   -3.4930    1.5795    0.8546 H   0  0  0  0  0  0  0  0  0  0  0  0
   -1.3109    0.6477    2.4233 C   0  0  0  0  0  0  0  0  0  0  0  0
   -1.8295    1.5470    2.8188 H   0  0  0  0  0  0  0  0  0  0  0  0
   -0.6013    0.3066    3.2014 H   0  0  0  0  0  0  0  0  0  0  0  0
   -2.0695   -0.1435    2.2895 H   0  0  0  0  0  0  0  0  0  0  0  0
    1.4994    2.1117    2.2332 C   0  0  0  0  0  0  0  0  0  0  0  0
    1.1927    3.1340    2.5459 H   0  0  0  0  0  0  0  0  0  0  0  0
    2.5777    2.1494    1.9869 H   0  0  0  0  0  0  0  0  0  0  0  0
    1.3818    1.4469    3.1100 H   0  0  0  0  0  0  0  0  0  0  0  0
    2.1484    2.6624   -0.8497 C   0  0  0  0  0  0  0  0  0  0  0  0
    2.3814    2.3927   -1.8970 H   0  0  0  0  0  0  0  0  0  0  0  0
    3.0549    2.4681   -0.2452 H   0  0  0  0  0  0  0  0  0  0  0  0
    1.9532    3.7558   -0.8183 H   0  0  0  0  0  0  0  0  0  0  0  0
   -0.3075    1.5588   -2.5974 C   0  0  0  0  0  0  0  0  0  0  0  0
   -0.8043    0.6794   -3.0500 H   0  0  0  0  0  0  0  0  0  0  0  0
    0.6683    1.6838   -3.1034 H   0  0  0  0  0  0  0  0  0  0  0  0
   -0.9255    2.4518   -2.8331 H   0  0  0  0  0  0  0  0  0  0  0  0
  1  2  2  0  0  0  0
  2 20  1  0  0  0  0
  3  2  1  0  0  0  0
  3 24  1  0  0  0  0
  4  3  2  0  0  0  0
  5 32  1  1  0  0  0
  5  4  1  0  0  0  0
  5  1  1  0  0  0  0
  6  1  1  0  0  0  0
  6 17  1  0  0  0  0
  6  8  1  0  0  0  0
  7  6  1  0  0  0  0
  8 11  1  0  0  0  0
  8  9  1  0  0  0  0
 10  8  1  0  0  0  0
 11 12  1  0  0  0  0
 13 11  1  0  0  0  0
 14 17  1  0  0  0  0
 14 15  1  0  0  0  0
 14 11  1  0  0  0  0
 16 14  1  0  0  0  0
 17 19  1  0  0  0  0
 18 17  1  0  0  0  0
 20 21  1  0  0  0  0
 20 22  1  0  0  0  0
 23 20  1  0  0  0  0
 24 25  1  0  0  0  0
 24 27  1  0  0  0  0
 26 24  1  0  0  0  0
 28 31  1  0  0  0  0
 28  4  1  0  0  0  0
 28 30  1  0  0  0  0
 29 28  1  0  0  0  0
 33 32  1  0  0  0  0
 34 32  1  0  0  0  0
 35 32  1  0  0  0  0
M  END
