2
q = 0.0, confidence = 0.92

 23 23  0  0  1  0  0  0  0  0999 V2000
   -1.5564   -0.5104    1.2852 C   0  0  0  0  0  3  0  0  0  0  0  0
   -0.9505   -1.7216    0.7673 C   0  0  2  0  0  3  0  0  0  0  0  0
   -1.0047   -1.7469   -0.6813 C   0  0  2  0  0  3  0  0  0  0  0  0
   -1.5859   -0.5368   -1.2123 C   0  0  0  0  0  3  0  0  0  0  0  0
   -2.9245   -0.1014    0.0598 Si  0  0  0  0  0  0  0  0  0  0  0  0
   -0.5399   -2.9135    1.5844 C   0  0  0  0  0  0  0  0  0  0  0  0
   -0.7491   -2.9807   -1.4968 C   0  0  0  0  0  0  0  0  0  0  0  0
   -4.3014   -1.4023    0.0433 C   0  0  0  0  0  0  0  0  0  0  0  0
   -3.8325    1.5530    0.1439 C   0  0  0  0  0  0  0  0  0  0  0  0
   -1.5463   -0.3432    2.3714 H   0  0  0  0  0  0  0  0  0  0  0  0
    0.2908   -3.4852    1.1267 H   0  0  0  0  0  0  0  0  0  0  0  0
   -1.4017   -3.6097    1.6725 H   0  0  0  0  0  0  0  0  0  0  0  0
   -0.2515   -2.6385    2.6162 H   0  0  0  0  0  0  0  0  0  0  0  0
   -3.8878   -2.4300    0.0170 H   0  0  0  0  0  0  0  0  0  0  0  0
   -4.9589   -1.2739   -0.8419 H   0  0  0  0  0  0  0  0  0  0  0  0
   -4.9423   -1.3134    0.9451 H   0  0  0  0  0  0  0  0  0  0  0  0
   -1.5904   -0.4049   -2.3064 H   0  0  0  0  0  0  0  0  0  0  0  0
    0.0001   -3.6622   -1.0542 H   0  0  0  0  0  0  0  0  0  0  0  0
   -0.4642   -2.7493   -2.5408 H   0  0  0  0  0  0  0  0  0  0  0  0
   -1.7048   -3.5457   -1.5529 H   0  0  0  0  0  0  0  0  0  0  0  0
   -3.2327    2.4739    0.2303 H   0  0  0  0  0  0  0  0  0  0  0  0
   -4.5051    1.5049    1.0264 H   0  0  0  0  0  0  0  0  0  0  0  0
   -4.4909    1.6534   -0.7443 H   0  0  0  0  0  0  0  0  0  0  0  0
  1 10  1  0  0  0  0
  2  1  1  0  0  0  0
  2  6  1  1  0  0  0
  3  7  1  1  0  0  0
  3  2  1  0  0  0  0
  4  3  1  0  0  0  0
  4  5  1  0  0  0  0
  5  9  1  0  0  0  0
  5  1  1  0  0  0  0
  6 12  1  0  0  0  0
  6 13  1  0  0  0  0
  7 18  1  0  0  0  0
  8  5  1  0  0  0  0
  8 16  1  0  0  0  0
  9 21  1  0  0  0  0
  9 22  1  0  0  0  0
 11  6  1  0  0  0  0
 14  8  1  0  0  0  0
 15  8  1  0  0  0  0
 17  4  1  0  0  0  0
 19  7  1  0  0  0  0
 20  7  1  0  0  0  0
 23  9  1  0  0  0  0
M  END
