4
q = -1.0

 16 16  0  0  0  0  0  0  0  0999 V2000
   -6.6885    6.0652   -0.6084 F   0  0  0  0  0  0  0  0  0  0  0  0
   -7.2660    5.1908    1.3020 F   0  0  0  0  0  0  0  0  0  0  0  0
   -8.0244    4.3330   -0.5525 F   0  0  0  0  0  0  0  0  0  0  0  0
   -1.3825    0.6016   -0.0179 C   0  0  0  0  0  3  0  0  0  0  0  0
   -2.3669    1.3598   -0.0228 C   0  0  0  0  0  0  0  0  0  0  0  0
   -3.4922    2.2299   -0.0276 C   0  0  0  0  0  0  0  0  0  0  0  0
   -3.3255    3.6417   -0.0326 C   0  0  0  0  0  0  0  0  0  0  0  0
   -2.3059    4.0524   -0.0357 H   0  0  0  0  0  0  0  0  0  0  0  0
   -4.4308    4.4951   -0.0373 C   0  0  0  0  0  0  0  0  0  0  0  0
   -4.2860    5.5852   -0.0487 H   0  0  0  0  0  0  0  0  0  0  0  0
   -5.7354    3.9671   -0.0378 C   0  0  0  0  0  0  0  0  0  0  0  0
   -5.9211    2.5723   -0.0369 C   0  0  0  0  0  0  0  0  0  0  0  0
   -6.9401    2.1598   -0.0495 H   0  0  0  0  0  0  0  0  0  0  0  0
   -4.8184    1.7159   -0.0323 C   0  0  0  0  0  0  0  0  0  0  0  0
   -4.9706    0.6261   -0.0356 H   0  0  0  0  0  0  0  0  0  0  0  0
   -6.9257    4.8877    0.0205 C   0  0  0  0  0  0  0  0  0  0  0  0
  1 16  1  0  0  0  0
  3 16  1  0  0  0  0
  5  4  3  0  0  0  0
  6  5  1  0  0  0  0
  7  6  2  0  0  0  0
  8  7  1  0  0  0  0
  9  7  1  0  0  0  0
 10  9  1  0  0  0  0
 11  9  2  0  0  0  0
 11 12  1  0  0  0  0
 11 16  1  0  0  0  0
 12 14  2  0  0  0  0
 13 12  1  0  0  0  0
 14  6  1  0  0  0  0
 15 14  1  0  0  0  0
 16  2  1  0  0  0  0
M  END
