4
q = 0.0, confidence = 0.832

 53 55  0  0  1  0  0  0  0  0999 V2000
   -4.8494    0.2764   -2.6407 C   0  0  0  0  0  0  0  0  0  0  0  0
   -4.6128    0.8639   -1.3653 O   0  0  0  0  0  0  0  0  0  0  0  0
   -3.5446    0.4250   -0.6655 C   0  0  2  0  0  3  0  0  0  0  0  0
   -2.4724   -0.3689   -1.1700 C   0  0  0  0  0  3  0  0  0  0  0  0
   -1.4796   -0.6906   -0.1689 C   0  0  0  0  0  3  0  0  0  0  0  0
   -0.9765    0.3757    0.8121 C   0  0  2  0  0  0  0  0  0  0  0  0
   -2.1921    1.1523    1.3676 C   0  0  0  0  0  0  0  0  0  0  0  0
   -3.4864    0.6537    0.7541 C   0  0  0  0  0  3  0  0  0  0  0  0
    0.1179    1.3086    0.1038 C   0  0  0  0  0  0  0  0  0  0  0  0
    1.3252    0.4940    0.1725 N   0  0  0  0  0  0  0  0  0  0  0  0
    1.2230   -0.5983    1.1539 C   0  0  0  0  0  0  0  0  0  0  0  0
   -0.0880   -0.2968    1.8838 C   0  0  0  0  0  0  0  0  0  0  0  0
   -0.2578    1.5552   -1.3713 C   0  0  0  0  0  0  0  0  0  0  0  0
    0.2460    0.9721   -2.3088 O   0  0  0  0  0  0  0  0  0  0  0  0
   -1.2822    2.4213   -1.4723 O   0  0  0  0  0  0  0  0  0  0  0  0
   -1.7404    2.6975   -2.8001 C   0  0  0  0  0  0  0  0  0  0  0  0
    0.3209    2.6432    0.8781 C   0  0  0  0  0  0  0  0  0  0  0  0
   -0.2356    3.6977    0.6616 O   0  0  0  0  0  0  0  0  0  0  0  0
    1.1735    2.4516    1.9180 O   0  0  0  0  0  0  0  0  0  0  0  0
    1.4860    3.6332    2.6666 C   0  0  0  0  0  0  0  0  0  0  0  0
    2.4861    1.0738   -0.2842 C   0  0  0  0  0  0  0  0  0  0  0  0
    2.5080    2.2374   -0.6961 O   0  0  0  0  0  0  0  0  0  0  0  0
    3.7331    0.2364   -0.2685 C   0  0  0  0  0  0  0  0  0  0  0  0
    3.7330   -1.1142   -0.6734 C   0  0  0  0  0  0  0  0  0  0  0  0
    4.9294   -1.8388   -0.7198 C   0  0  0  0  0  0  0  0  0  0  0  0
    6.1169   -1.1960   -0.3480 C   0  0  0  0  0  0  0  0  0  0  0  0
    7.3884   -1.9650   -0.3793 N   0  0  0  0  0  0  0  0  0  0  0  0
    8.4146   -1.3729   -0.0476 O   0  0  0  0  0  0  0  0  0  0  0  0
    7.3283   -3.1420   -0.7329 O   0  0  0  0  0  0  0  0  0  0  0  0
    6.1483    0.1498    0.0434 C   0  0  0  0  0  0  0  0  0  0  0  0
    4.9490    0.8672    0.0663 C   0  0  0  0  0  0  0  0  0  0  0  0
   -5.8155    0.6770   -2.9968 H   0  0  0  0  0  0  0  0  0  0  0  0
   -4.9143   -0.8308   -2.5589 H   0  0  0  0  0  0  0  0  0  0  0  0
   -4.0529    0.5445   -3.3678 H   0  0  0  0  0  0  0  0  0  0  0  0
   -2.4145   -0.7203   -2.2085 H   0  0  0  0  0  0  0  0  0  0  0  0
   -0.7131   -1.4120   -0.4931 H   0  0  0  0  0  0  0  0  0  0  0  0
   -2.2376    1.0367    2.4695 H   0  0  0  0  0  0  0  0  0  0  0  0
   -2.0973    2.2399    1.1650 H   0  0  0  0  0  0  0  0  0  0  0  0
   -4.4151    1.0538    1.1928 H   0  0  0  0  0  0  0  0  0  0  0  0
    2.0999   -0.5988    1.8302 H   0  0  0  0  0  0  0  0  0  0  0  0
    1.1861   -1.5900    0.6536 H   0  0  0  0  0  0  0  0  0  0  0  0
    0.0921    0.4133    2.7126 H   0  0  0  0  0  0  0  0  0  0  0  0
   -0.5599   -1.2064    2.2967 H   0  0  0  0  0  0  0  0  0  0  0  0
   -2.7083    3.2168   -2.6871 H   0  0  0  0  0  0  0  0  0  0  0  0
   -1.8565    1.7598   -3.3800 H   0  0  0  0  0  0  0  0  0  0  0  0
   -1.0140    3.3464   -3.3288 H   0  0  0  0  0  0  0  0  0  0  0  0
    2.1316    3.3053    3.5004 H   0  0  0  0  0  0  0  0  0  0  0  0
    0.5645    4.1157    3.0489 H   0  0  0  0  0  0  0  0  0  0  0  0
    2.0228    4.3593    2.0238 H   0  0  0  0  0  0  0  0  0  0  0  0
    2.7918   -1.5898   -0.9841 H   0  0  0  0  0  0  0  0  0  0  0  0
    4.9696   -2.8880   -1.0407 H   0  0  0  0  0  0  0  0  0  0  0  0
    7.1113    0.6033    0.3125 H   0  0  0  0  0  0  0  0  0  0  0  0
    4.9324    1.9327    0.3372 H   0  0  0  0  0  0  0  0  0  0  0  0
  1 33  1  0  0  0  0
  1  2  1  0  0  0  0
  3  2  1  1  0  0  0
  3  8  1  0  0  0  0
  4  3  1  0  0  0  0
  4  5  1  0  0  0  0
  6  5  1  6  0  0  0
  6  7  1  0  0  0  0
  6 12  1  0  0  0  0
  7 37  1  0  0  0  0
  8 39  1  0  0  0  0
  8  7  1  0  0  0  0
  9 10  1  0  0  0  0
  9  6  1  0  0  0  0
  9 17  1  0  0  0  0
 10 11  1  0  0  0  0
 11 40  1  0  0  0  0
 11 12  1  0  0  0  0
 12 43  1  0  0  0  0
 12 42  1  0  0  0  0
 13  9  1  0  0  0  0
 14 13  2  0  0  0  0
 15 13  1  0  0  0  0
 16 44  1  0  0  0  0
 16 15  1  0  0  0  0
 17 19  1  0  0  0  0
 18 17  2  0  0  0  0
 19 20  1  0  0  0  0
 20 48  1  0  0  0  0
 20 47  1  0  0  0  0
 21 23  1  0  0  0  0
 21 10  1  0  0  0  0
 22 21  2  0  0  0  0
 23 31  1  0  0  0  0
 24 23  2  0  0  0  0
 25 24  1  0  0  0  0
 25 26  2  0  0  0  0
 26 30  1  0  0  0  0
 27 26  1  0  0  0  0
 27 28  2  0  0  0  0
 29 27  2  0  0  0  0
 30 31  2  0  0  0  0
 30 52  1  0  0  0  0
 31 53  1  0  0  0  0
 32  1  1  0  0  0  0
 34  1  1  0  0  0  0
 35  4  1  0  0  0  0
 36  5  1  0  0  0  0
 38  7  1  0  0  0  0
 41 11  1  0  0  0  0
 45 16  1  0  0  0  0
 46 16  1  0  0  0  0
 49 20  1  0  0  0  0
 50 24  1  0  0  0  0
 51 25  1  0  0  0  0
M  END
