3
q = 0.0, confidence = 0.952

 35 36  0  0  0  0  0  0  0  0999 V2000
   -1.5162    2.8197   -0.3197 Si  0  0  0  0  0  0  0  0  0  0  0  0
    1.9749    1.7071   -0.7534 C   0  0  0  0  0  3  0  0  0  0  0  0
    0.7798    1.1487   -0.2642 C   0  0  0  0  0  3  0  0  0  0  0  0
   -0.5201    1.2330    0.0406 C   0  0  0  0  0  0  0  0  0  0  0  0
   -1.2291    0.0981    0.7009 C   0  0  0  0  0  0  0  0  0  0  0  0
   -1.3508    0.0675    2.0897 C   0  0  0  0  0  0  0  0  0  0  0  0
   -1.9908   -1.0136    2.7494 C   0  0  0  0  0  0  0  0  0  0  0  0
   -2.5137   -2.0682    2.0187 C   0  0  0  0  0  0  0  0  0  0  0  0
   -2.4190   -2.0808    0.5967 C   0  0  0  0  0  0  0  0  0  0  0  0
   -2.9347   -3.1598   -0.1806 C   0  0  0  0  0  0  0  0  0  0  0  0
   -2.8196   -3.1654   -1.5622 C   0  0  0  0  0  0  0  0  0  0  0  0
   -2.1832   -2.0837   -2.2276 C   0  0  0  0  0  0  0  0  0  0  0  0
   -1.6738   -1.0172   -1.5017 C   0  0  0  0  0  0  0  0  0  0  0  0
   -1.7723   -0.9810   -0.0793 C   0  0  0  0  0  0  0  0  0  0  0  0
   -0.4256    4.0587   -1.2392 C   0  0  0  0  0  0  0  0  0  0  0  0
   -3.0239    2.3524   -1.3624 C   0  0  0  0  0  0  0  0  0  0  0  0
   -2.0917    3.5435    1.3321 C   0  0  0  0  0  0  0  0  0  0  0  0
   -0.9234    0.8916    2.6807 H   0  0  0  0  0  0  0  0  0  0  0  0
   -2.0600   -1.0119    3.8478 H   0  0  0  0  0  0  0  0  0  0  0  0
   -3.0044   -2.9139    2.5248 H   0  0  0  0  0  0  0  0  0  0  0  0
   -3.4243   -3.9963    0.3422 H   0  0  0  0  0  0  0  0  0  0  0  0
   -3.2189   -4.0083   -2.1464 H   0  0  0  0  0  0  0  0  0  0  0  0
   -2.0909   -2.0941   -3.3242 H   0  0  0  0  0  0  0  0  0  0  0  0
   -1.1754   -0.1835   -2.0159 H   0  0  0  0  0  0  0  0  0  0  0  0
   -0.9978    4.9827   -1.4625 H   0  0  0  0  0  0  0  0  0  0  0  0
   -0.0645    3.6406   -2.2006 H   0  0  0  0  0  0  0  0  0  0  0  0
    0.4606    4.3434   -0.6371 H   0  0  0  0  0  0  0  0  0  0  0  0
   -3.6868    3.2306   -1.5067 H   0  0  0  0  0  0  0  0  0  0  0  0
   -2.7258    1.9792   -2.3629 H   0  0  0  0  0  0  0  0  0  0  0  0
   -3.6124    1.5539   -0.8665 H   0  0  0  0  0  0  0  0  0  0  0  0
   -2.6958    4.4601    1.1686 H   0  0  0  0  0  0  0  0  0  0  0  0
   -1.2281    3.8115    1.9744 H   0  0  0  0  0  0  0  0  0  0  0  0
   -2.7185    2.8150    1.8852 H   0  0  0  0  0  0  0  0  0  0  0  0
    2.1371    1.7984   -1.8412 H   0  0  0  0  0  0  0  0  0  0  0  0
    2.5208    2.4548   -0.1526 H   0  0  0  0  0  0  0  0  0  0  0  0
  1  4  1  0  0  0  0
  1 17  1  0  0  0  0
  2  3  1  0  0  0  0
  2 35  1  0  0  0  0
  3  4  2  0  0  0  0
  4  5  1  0  0  0  0
  5  6  1  0  0  0  0
  6 18  1  0  0  0  0
  6  7  2  0  0  0  0
  7 19  1  0  0  0  0
  8 20  1  0  0  0  0
  8  7  1  0  0  0  0
  9  8  2  0  0  0  0
 10 21  1  0  0  0  0
 10  9  1  0  0  0  0
 11 10  2  0  0  0  0
 12 11  1  0  0  0  0
 12 13  2  0  0  0  0
 13 14  1  0  0  0  0
 14  9  1  0  0  0  0
 14  5  2  0  0  0  0
 15 27  1  0  0  0  0
 15  1  1  0  0  0  0
 16 30  1  0  0  0  0
 16  1  1  0  0  0  0
 17 33  1  0  0  0  0
 17 32  1  0  0  0  0
 22 11  1  0  0  0  0
 23 12  1  0  0  0  0
 24 13  1  0  0  0  0
 25 15  1  0  0  0  0
 26 15  1  0  0  0  0
 28 16  1  0  0  0  0
 29 16  1  0  0  0  0
 31 17  1  0  0  0  0
 34  2  1  0  0  0  0
M  END
