6
q = 0.0, confidence = 0.99

 30 32  0  0  0  0  0  0  0  0999 V2000
    1.6433    0.9737   -0.9918 N   0  0  0  0  0  0  0  0  0  0  0  0
   -3.1094   -1.9203   -1.7295 N   0  0  0  0  0  0  0  0  0  0  0  0
   -3.1829   -2.7652   -1.1585 H   0  0  0  0  0  0  0  0  0  0  0  0
   -3.9915   -1.4029   -1.7309 H   0  0  0  0  0  0  0  0  0  0  0  0
    0.3702    0.4463   -1.1687 C   0  0  0  0  0  0  0  0  0  0  0  0
   -0.8349    1.0632   -1.6078 C   0  0  0  0  0  3  0  0  0  0  0  0
   -0.8814    2.1359   -1.8370 H   0  0  0  0  0  0  0  0  0  0  0  0
   -1.9864    0.2509   -1.8030 C   0  0  0  0  0  3  0  0  0  0  0  0
   -2.9117    0.7127   -2.1735 H   0  0  0  0  0  0  0  0  0  0  0  0
   -1.9856   -1.1504   -1.4781 C   0  0  0  0  0  0  0  0  0  0  0  0
   -0.8277   -1.7164   -0.8665 C   0  0  0  0  0  0  0  0  0  0  0  0
   -0.8331   -2.7638   -0.5366 H   0  0  0  0  0  0  0  0  0  0  0  0
    0.3610   -0.9294   -0.7526 C   0  0  0  0  0  0  0  0  0  0  0  0
    1.6996   -1.2140   -0.2680 C   0  0  0  0  0  0  0  0  0  0  0  0
    2.4528   -0.0097   -0.4298 C   0  0  0  0  0  0  0  0  0  0  0  0
    3.8025    0.0627   -0.0448 C   0  0  0  0  0  0  0  0  0  0  0  0
    4.3823    0.9903   -0.1524 H   0  0  0  0  0  0  0  0  0  0  0  0
    4.3890   -1.0923    0.4916 C   0  0  0  0  0  0  0  0  0  0  0  0
    5.4445   -1.0604    0.8015 H   0  0  0  0  0  0  0  0  0  0  0  0
    3.6568   -2.2898    0.6504 C   0  0  0  0  0  0  0  0  0  0  0  0
    4.1491   -3.1733    1.0823 H   0  0  0  0  0  0  0  0  0  0  0  0
    2.3095   -2.3578    0.2729 C   0  0  0  0  0  0  0  0  0  0  0  0
    1.7348   -3.2863    0.4061 H   0  0  0  0  0  0  0  0  0  0  0  0
    2.0226    2.3658   -1.1738 C   0  0  0  0  0  0  0  0  0  0  0  0
    1.9410    3.2058    0.1027 C   0  0  0  0  0  0  0  0  0  0  0  0
    3.0540    2.3774   -1.5851 H   0  0  0  0  0  0  0  0  0  0  0  0
    1.3747    2.7885   -1.9685 H   0  0  0  0  0  0  0  0  0  0  0  0
    2.5792    2.7753    0.8999 H   0  0  0  0  0  0  0  0  0  0  0  0
    2.2940    4.2370   -0.0992 H   0  0  0  0  0  0  0  0  0  0  0  0
    0.9066    3.2643    0.4917 H   0  0  0  0  0  0  0  0  0  0  0  0
  1 15  1  0  0  0  0
  2 10  1  0  0  0  0
  2  3  1  0  0  0  0
  4  2  1  0  0  0  0
  5  1  1  0  0  0  0
  5 13  2  0  0  0  0
  6  5  1  0  0  0  0
  7  6  1  0  0  0  0
  8  6  1  0  0  0  0
  8 10  1  0  0  0  0
  9  8  1  0  0  0  0
 10 11  2  0  0  0  0
 11 13  1  0  0  0  0
 11 12  1  0  0  0  0
 13 14  1  0  0  0  0
 14 22  1  0  0  0  0
 15 14  2  0  0  0  0
 15 16  1  0  0  0  0
 16 18  2  0  0  0  0
 17 16  1  0  0  0  0
 18 20  1  0  0  0  0
 18 19  1  0  0  0  0
 20 21  1  0  0  0  0
 22 23  1  0  0  0  0
 22 20  2  0  0  0  0
 24  1  1  0  0  0  0
 24 25  1  0  0  0  0
 25 30  1  0  0  0  0
 25 28  1  0  0  0  0
 26 24  1  0  0  0  0
 27 24  1  0  0  0  0
 29 25  1  0  0  0  0
M  END
