4
q = -1.0

 29 31  0  0  0  0  0  0  0  0999 V2000
    2.5788   -0.1821   -0.4272 N   0  0  0  0  0  0  0  0  0  0  0  0
   -2.5787   -0.1819   -0.4266 N   0  0  0  0  0  0  0  0  0  0  0  0
    1.2278    1.8135   -0.0832 C   0  0  0  0  0  0  0  0  0  0  0  0
    0.0003    1.1063   -0.0268 C   0  0  0  0  0  3  0  0  0  0  0  0
   -1.2273    1.8136   -0.0833 C   0  0  0  0  0  0  0  0  0  0  0  0
   -1.2098    3.2223   -0.2078 C   0  0  0  0  0  0  0  0  0  0  0  0
    0.0005    3.9201   -0.2735 C   0  0  0  0  0  0  0  0  0  0  0  0
    1.2106    3.2222   -0.2076 C   0  0  0  0  0  0  0  0  0  0  0  0
    2.5445    1.1061   -0.0256 C   0  0  0  0  0  0  0  0  0  0  0  0
    3.7175    1.7467    0.4389 C   0  0  0  0  0  0  0  0  0  0  0  0
    4.9240    1.0377    0.4587 C   0  0  0  0  0  0  0  0  0  0  0  0
    4.9420   -0.2972    0.0280 C   0  0  0  0  0  0  0  0  0  0  0  0
    3.7306   -0.8638   -0.3960 C   0  0  0  0  0  0  0  0  0  0  0  0
   -2.5441    1.1065   -0.0257 C   0  0  0  0  0  0  0  0  0  0  0  0
   -3.7172    1.7475    0.4382 C   0  0  0  0  0  0  0  0  0  0  0  0
   -4.9238    1.0387    0.4581 C   0  0  0  0  0  0  0  0  0  0  0  0
   -4.9419   -0.2965    0.0281 C   0  0  0  0  0  0  0  0  0  0  0  0
   -3.7304   -0.8635   -0.3952 C   0  0  0  0  0  0  0  0  0  0  0  0
   -2.1555    3.7777   -0.2924 H   0  0  0  0  0  0  0  0  0  0  0  0
    0.0005    5.0132   -0.3976 H   0  0  0  0  0  0  0  0  0  0  0  0
    2.1564    3.7773   -0.2921 H   0  0  0  0  0  0  0  0  0  0  0  0
    3.6799    2.7811    0.8074 H   0  0  0  0  0  0  0  0  0  0  0  0
    5.8432    1.5220    0.8226 H   0  0  0  0  0  0  0  0  0  0  0  0
    5.8674   -0.8914    0.0317 H   0  0  0  0  0  0  0  0  0  0  0  0
    3.6777   -1.9178   -0.7211 H   0  0  0  0  0  0  0  0  0  0  0  0
   -3.6796    2.7821    0.8064 H   0  0  0  0  0  0  0  0  0  0  0  0
   -5.8430    1.5232    0.8215 H   0  0  0  0  0  0  0  0  0  0  0  0
   -5.8673   -0.8905    0.0320 H   0  0  0  0  0  0  0  0  0  0  0  0
   -3.6775   -1.9177   -0.7196 H   0  0  0  0  0  0  0  0  0  0  0  0
  1 13  2  0  0  0  0
  1  9  1  0  0  0  0
  2 18  2  0  0  0  0
  2 14  1  0  0  0  0
  3  4  1  0  0  0  0
  3  9  1  0  0  0  0
  5  4  2  0  0  0  0
  5 14  1  0  0  0  0
  6  5  1  0  0  0  0
  7  6  2  0  0  0  0
  7  8  1  0  0  0  0
  8  3  2  0  0  0  0
  9 10  2  0  0  0  0
 10 11  1  0  0  0  0
 10 22  1  0  0  0  0
 11 23  1  0  0  0  0
 12 24  1  0  0  0  0
 12 11  2  0  0  0  0
 13 12  1  0  0  0  0
 14 15  2  0  0  0  0
 15 16  1  0  0  0  0
 15 26  1  0  0  0  0
 16 27  1  0  0  0  0
 17 28  1  0  0  0  0
 17 16  2  0  0  0  0
 18 17  1  0  0  0  0
 19  6  1  0  0  0  0
 20  7  1  0  0  0  0
 21  8  1  0  0  0  0
 25 13  1  0  0  0  0
 29 18  1  0  0  0  0
M  END
