4
q = 0.0, confidence = 0.812

  5  4  0  0  0  0  0  0  0  0999 V2000
   -2.0975   -2.0899    0.9117 F   0  0  0  0  0  0  0  0  0  0  0  0
   -0.0325   -2.8552    1.1035 F   0  0  0  0  0  0  0  0  0  0  0  0
   -0.5269   -2.3269   -2.0939 O   0  0  0  0  0  0  0  0  0  0  0  0
   -0.5837   -1.7611   -1.0206 C   0  0  0  0  0  0  0  0  0  0  0  0
   -0.8070   -1.9433    0.4227 C   0  0  0  0  0  0  0  0  0  0  0  0
  3  4  2  0  0  0  0
  4  5  1  0  0  0  0
  5  1  1  0  0  0  0
  5  2  1  0  0  0  0
M  END
