1
q = -1.0

 13 13  0  0  0  0  0  0  0  0999 V2000
    1.9519   -0.9577    0.3063 C   0  0  0  0  0  3  0  0  0  0  0  0
    2.0452   -0.8403    1.5240 O   0  0  0  0  0  0  0  0  0  0  0  0
    3.1770   -0.6526   -0.5641 C   0  0  0  0  0  0  0  0  0  0  0  0
    4.4109   -0.2416    0.2050 C   0  0  0  0  0  0  0  0  0  0  0  0
    4.5690    1.1894    0.6537 C   0  0  0  0  0  0  0  0  0  0  0  0
    5.4503    0.6432   -0.4473 C   0  0  0  0  0  0  0  0  0  0  0  0
    2.8762    0.1449   -1.2779 H   0  0  0  0  0  0  0  0  0  0  0  0
    3.3591   -1.5463   -1.2014 H   0  0  0  0  0  0  0  0  0  0  0  0
    4.7838   -1.0075    0.9053 H   0  0  0  0  0  0  0  0  0  0  0  0
    3.7713    1.8976    0.3795 H   0  0  0  0  0  0  0  0  0  0  0  0
    5.0152    1.3774    1.6424 H   0  0  0  0  0  0  0  0  0  0  0  0
    6.5129    0.4534   -0.2282 H   0  0  0  0  0  0  0  0  0  0  0  0
    5.2598    0.9822   -1.4790 H   0  0  0  0  0  0  0  0  0  0  0  0
  1  2  2  0  0  0  0
  3  4  1  0  0  0  0
  3  1  1  0  0  0  0
  4  5  1  0  0  0  0
  4  9  1  0  0  0  0
  5 11  1  0  0  0  0
  6 12  1  0  0  0  0
  6  4  1  0  0  0  0
  6  5  1  0  0  0  0
  7  3  1  0  0  0  0
  8  3  1  0  0  0  0
 10  5  1  0  0  0  0
 13  6  1  0  0  0  0
M  END
