1
q = 0.0, confidence = 0.576

 20 20  0  0  0  0  0  0  0  0999 V2000
   -1.8460    0.7029    0.5392 C   0  0  0  0  0  2  0  0  0  0  0  0
   -3.2330    0.9150    0.1858 C   0  0  0  0  0  0  0  0  0  0  0  0
   -3.7801    0.4883   -1.0533 C   0  0  0  0  0  0  0  0  0  0  0  0
   -5.1209    0.7334   -1.3612 C   0  0  0  0  0  0  0  0  0  0  0  0
   -5.9499    1.4053   -0.4454 C   0  0  0  0  0  0  0  0  0  0  0  0
   -5.4256    1.8387    0.7841 C   0  0  0  0  0  0  0  0  0  0  0  0
   -4.0829    1.6026    1.0949 C   0  0  0  0  0  0  0  0  0  0  0  0
   -1.2429    0.8336    1.8324 C   0  0  0  0  0  3  0  0  0  0  0  0
    0.0148    1.4322    1.9024 C   0  0  0  0  0  3  0  0  0  0  0  0
    0.9441    1.3535    3.0720 C   0  0  0  0  0  0  0  0  0  0  0  0
   -3.1418   -0.0413   -1.7734 H   0  0  0  0  0  0  0  0  0  0  0  0
   -5.5275    0.3942   -2.3257 H   0  0  0  0  0  0  0  0  0  0  0  0
   -7.0057    1.5935   -0.6924 H   0  0  0  0  0  0  0  0  0  0  0  0
   -6.0687    2.3693    1.5025 H   0  0  0  0  0  0  0  0  0  0  0  0
   -3.6648    1.9564    2.0494 H   0  0  0  0  0  0  0  0  0  0  0  0
   -1.6345    0.2551    2.6933 H   0  0  0  0  0  0  0  0  0  0  0  0
    0.2171    2.2133    1.1512 H   0  0  0  0  0  0  0  0  0  0  0  0
    0.6983    0.5054    3.7367 H   0  0  0  0  0  0  0  0  0  0  0  0
    0.9050    2.3002    3.6540 H   0  0  0  0  0  0  0  0  0  0  0  0
    1.9931    1.2241    2.7362 H   0  0  0  0  0  0  0  0  0  0  0  0
  1  8  1  0  0  0  0
  2  1  1  0  0  0  0
  2  7  1  0  0  0  0
  3  2  2  0  0  0  0
  4  3  1  0  0  0  0
  4  5  2  0  0  0  0
  5  6  1  0  0  0  0
  6  7  2  0  0  0  0
  6 14  1  0  0  0  0
  7 15  1  0  0  0  0
  8  9  1  0  0  0  0
  8 16  1  0  0  0  0
  9 10  1  0  0  0  0
 10 19  1  0  0  0  0
 10 18  1  0  0  0  0
 11  3  1  0  0  0  0
 12  4  1  0  0  0  0
 13  5  1  0  0  0  0
 17  9  1  0  0  0  0
 20 10  1  0  0  0  0
M  END
