3
q = -1.0, confidence = 0.0

 30 31  0  0  0  0  0  0  0  0999 V2000
    0.5891   -2.0027   -0.4555 S   0  0  0  0  0  0  0  0  0  0  0  0
    2.6898    0.0596   -1.1239 P   0  0  0  0  0  0  0  0  0  0  0  0
    1.1841   -0.3459   -0.0942 C   0  0  0  0  0  3  0  0  0  0  0  0
    0.4563   -2.7226    1.2269 C   0  0  0  0  0  0  0  0  0  0  0  0
    3.8614   -1.1160   -0.2765 C   0  0  0  0  0  0  0  0  0  0  0  0
    4.3557   -0.9197    1.0311 C   0  0  0  0  0  0  0  0  0  0  0  0
    5.1383   -1.9048    1.6515 C   0  0  0  0  0  0  0  0  0  0  0  0
    5.4375   -3.0999    0.9747 C   0  0  0  0  0  0  0  0  0  0  0  0
    4.9547   -3.3028   -0.3276 C   0  0  0  0  0  0  0  0  0  0  0  0
    4.1744   -2.3149   -0.9501 C   0  0  0  0  0  0  0  0  0  0  0  0
    3.2181    1.6471   -0.3348 C   0  0  0  0  0  0  0  0  0  0  0  0
    4.5515    2.0693   -0.5402 C   0  0  0  0  0  0  0  0  0  0  0  0
    5.0115    3.2789   -0.0038 C   0  0  0  0  0  0  0  0  0  0  0  0
    4.1440    4.0994    0.7376 C   0  0  0  0  0  0  0  0  0  0  0  0
    2.8144    3.6990    0.9330 C   0  0  0  0  0  0  0  0  0  0  0  0
    2.3530    2.4837    0.4006 C   0  0  0  0  0  0  0  0  0  0  0  0
    1.4334   -0.2939    0.9861 H   0  0  0  0  0  0  0  0  0  0  0  0
   -0.1865   -3.6193    1.1425 H   0  0  0  0  0  0  0  0  0  0  0  0
   -0.0147   -1.9924    1.9106 H   0  0  0  0  0  0  0  0  0  0  0  0
    1.4681   -3.0080    1.5733 H   0  0  0  0  0  0  0  0  0  0  0  0
    4.1293    0.0176    1.5635 H   0  0  0  0  0  0  0  0  0  0  0  0
    5.5198   -1.7389    2.6711 H   0  0  0  0  0  0  0  0  0  0  0  0
    6.0537   -3.8710    1.4622 H   0  0  0  0  0  0  0  0  0  0  0  0
    5.1921   -4.2334   -0.8660 H   0  0  0  0  0  0  0  0  0  0  0  0
    3.7960   -2.4715   -1.9729 H   0  0  0  0  0  0  0  0  0  0  0  0
    5.2405    1.4335   -1.1192 H   0  0  0  0  0  0  0  0  0  0  0  0
    6.0558    3.5861   -0.1688 H   0  0  0  0  0  0  0  0  0  0  0  0
    4.5044    5.0516    1.1558 H   0  0  0  0  0  0  0  0  0  0  0  0
    2.1218    4.3372    1.5033 H   0  0  0  0  0  0  0  0  0  0  0  0
    1.3015    2.1967    0.5442 H   0  0  0  0  0  0  0  0  0  0  0  0
  1  3  1  0  0  0  0
  1  4  1  0  0  0  0
  2 11  1  0  0  0  0
  2  5  1  0  0  0  0
  2  3  1  0  0  0  0
  3 17  1  0  0  0  0
  4 20  1  0  0  0  0
  4 19  1  0  0  0  0
  5  6  1  0  0  0  0
  6 21  1  0  0  0  0
  6  7  2  0  0  0  0
  7 22  1  0  0  0  0
  8 23  1  0  0  0  0
  8  7  1  0  0  0  0
  9  8  2  0  0  0  0
 10  9  1  0  0  0  0
 10  5  2  0  0  0  0
 11 16  1  0  0  0  0
 12 11  2  0  0  0  0
 12 13  1  0  0  0  0
 13 14  2  0  0  0  0
 14 15  1  0  0  0  0
 14 28  1  0  0  0  0
 15 29  1  0  0  0  0
 16 30  1  0  0  0  0
 16 15  2  0  0  0  0
 18  4  1  0  0  0  0
 24  9  1  0  0  0  0
 25 10  1  0  0  0  0
 26 12  1  0  0  0  0
 27 13  1  0  0  0  0
M  END
