2
q = -1.0

 55 57  0  0  1  0  0  0  0  0999 V2000
   -2.8406    0.6715    0.1358 O   0  0  0  0  0  0  0  0  0  0  0  0
    0.6924    0.7518    0.6769 C   0  0  0  0  0  3  0  0  0  0  0  0
   -0.4936    1.1545    0.2698 C   0  0  0  0  0  0  0  0  0  0  0  0
   -1.7256    1.4690   -0.1555 C   0  0  0  0  0  0  0  0  0  0  0  0
   -2.0466    2.6835   -0.9190 C   0  0  0  0  0  0  0  0  0  0  0  0
   -1.0304    3.5888   -1.3184 C   0  0  0  0  0  0  0  0  0  0  0  0
   -1.3425    4.7396   -2.0475 C   0  0  0  0  0  0  0  0  0  0  0  0
   -2.6762    5.0274   -2.3976 C   0  0  0  0  0  0  0  0  0  0  0  0
   -3.6895    4.1368   -2.0100 C   0  0  0  0  0  0  0  0  0  0  0  0
   -3.3832    2.9777   -1.2819 C   0  0  0  0  0  0  0  0  0  0  0  0
    1.2032    1.2063    1.9975 C   0  0  0  0  0  0  0  0  0  0  0  0
    1.7817    0.3029    2.9185 C   0  0  0  0  0  0  0  0  0  0  0  0
    2.2326    0.7376    4.1722 C   0  0  0  0  0  0  0  0  0  0  0  0
    2.1401    2.0928    4.5310 C   0  0  0  0  0  0  0  0  0  0  0  0
    1.5748    3.0050    3.6243 C   0  0  0  0  0  0  0  0  0  0  0  0
    1.1045    2.5665    2.3788 C   0  0  0  0  0  0  0  0  0  0  0  0
   -2.6201   -0.7440    0.1493 C   0  0  1  0  0  0  0  0  0  0  0  0
   -3.4284   -1.3895    1.2855 C   0  0  1  0  0  0  0  0  0  0  0  0
   -3.1929   -2.9122    1.2448 C   0  0  0  0  0  0  0  0  0  0  0  0
   -3.5310   -3.5238   -0.1210 C   0  0  0  0  0  0  0  0  0  0  0  0
   -2.7516   -2.8482   -1.2609 C   0  0  2  0  0  0  0  0  0  0  0  0
   -2.9934   -1.3332   -1.2120 C   0  0  0  0  0  0  0  0  0  0  0  0
   -3.1528   -0.7323    2.6620 C   0  0  0  0  0  0  0  0  0  0  0  0
   -1.7367   -0.9831    3.1957 C   0  0  0  0  0  0  0  0  0  0  0  0
   -4.2119   -1.1272    3.6991 C   0  0  0  0  0  0  0  0  0  0  0  0
   -3.0852   -3.4339   -2.6338 C   0  0  0  0  0  0  0  0  0  0  0  0
    0.0154    3.3607   -1.0601 H   0  0  0  0  0  0  0  0  0  0  0  0
   -0.5326    5.4209   -2.3535 H   0  0  0  0  0  0  0  0  0  0  0  0
   -2.9188    5.9355   -2.9714 H   0  0  0  0  0  0  0  0  0  0  0  0
   -4.7376    4.3452   -2.2803 H   0  0  0  0  0  0  0  0  0  0  0  0
   -4.1710    2.2742   -0.9798 H   0  0  0  0  0  0  0  0  0  0  0  0
    1.8609   -0.7578    2.6394 H   0  0  0  0  0  0  0  0  0  0  0  0
    2.6685    0.0092    4.8742 H   0  0  0  0  0  0  0  0  0  0  0  0
    2.5094    2.4362    5.5101 H   0  0  0  0  0  0  0  0  0  0  0  0
    1.4961    4.0712    3.8914 H   0  0  0  0  0  0  0  0  0  0  0  0
    0.6504    3.2761    1.6704 H   0  0  0  0  0  0  0  0  0  0  0  0
   -1.5397   -0.9337    0.3345 H   0  0  0  0  0  0  0  0  0  0  0  0
   -4.5042   -1.2039    1.0515 H   0  0  0  0  0  0  0  0  0  0  0  0
   -2.1245   -3.1186    1.4694 H   0  0  0  0  0  0  0  0  0  0  0  0
   -3.7853   -3.4093    2.0420 H   0  0  0  0  0  0  0  0  0  0  0  0
   -3.3236   -4.6163   -0.1126 H   0  0  0  0  0  0  0  0  0  0  0  0
   -4.6223   -3.4124   -0.3219 H   0  0  0  0  0  0  0  0  0  0  0  0
   -1.6672   -3.0176   -1.0699 H   0  0  0  0  0  0  0  0  0  0  0  0
   -2.4100   -0.8196   -2.0012 H   0  0  0  0  0  0  0  0  0  0  0  0
   -4.0694   -1.1195   -1.4075 H   0  0  0  0  0  0  0  0  0  0  0  0
   -3.2507    0.3596    2.4797 H   0  0  0  0  0  0  0  0  0  0  0  0
   -0.9609   -0.6876    2.4638 H   0  0  0  0  0  0  0  0  0  0  0  0
   -1.5738   -2.0510    3.4520 H   0  0  0  0  0  0  0  0  0  0  0  0
   -1.5533   -0.3894    4.1146 H   0  0  0  0  0  0  0  0  0  0  0  0
   -5.2393   -0.9131    3.3361 H   0  0  0  0  0  0  0  0  0  0  0  0
   -4.0653   -0.5710    4.6483 H   0  0  0  0  0  0  0  0  0  0  0  0
   -4.1625   -2.2097    3.9454 H   0  0  0  0  0  0  0  0  0  0  0  0
   -2.4743   -2.9543   -3.4252 H   0  0  0  0  0  0  0  0  0  0  0  0
   -4.1557   -3.2710   -2.8855 H   0  0  0  0  0  0  0  0  0  0  0  0
   -2.8940   -4.5271   -2.6679 H   0  0  0  0  0  0  0  0  0  0  0  0
  1 17  1  0  0  0  0
  2 11  1  0  0  0  0
  3  2  2  0  0  0  0
  4  1  1  0  0  0  0
  4  3  2  0  0  0  0
  5  4  1  0  0  0  0
  6 27  1  0  0  0  0
  6  5  2  0  0  0  0
  7  6  1  0  0  0  0
  8  7  2  0  0  0  0
  8  9  1  0  0  0  0
  9 10  2  0  0  0  0
 10 31  1  0  0  0  0
 10  5  1  0  0  0  0
 11 16  2  0  0  0  0
 11 12  1  0  0  0  0
 12 13  2  0  0  0  0
 13 14  1  0  0  0  0
 13 33  1  0  0  0  0
 14 34  1  0  0  0  0
 15 35  1  0  0  0  0
 15 14  2  0  0  0  0
 16 15  1  0  0  0  0
 17 37  1  1  0  0  0
 17 18  1  0  0  0  0
 18 38  1  6  0  0  0
 18 23  1  0  0  0  0
 19 18  1  0  0  0  0
 19 39  1  0  0  0  0
 19 40  1  0  0  0  0
 20 41  1  0  0  0  0
 20 19  1  0  0  0  0
 21 22  1  0  0  0  0
 21 43  1  1  0  0  0
 21 20  1  0  0  0  0
 22 17  1  0  0  0  0
 23 24  1  0  0  0  0
 23 25  1  0  0  0  0
 24 48  1  0  0  0  0
 24 49  1  0  0  0  0
 25 52  1  0  0  0  0
 25 51  1  0  0  0  0
 26 21  1  0  0  0  0
 28  7  1  0  0  0  0
 29  8  1  0  0  0  0
 30  9  1  0  0  0  0
 32 12  1  0  0  0  0
 36 16  1  0  0  0  0
 42 20  1  0  0  0  0
 44 22  1  0  0  0  0
 45 22  1  0  0  0  0
 46 23  1  0  0  0  0
 47 24  1  0  0  0  0
 50 25  1  0  0  0  0
 53 26  1  0  0  0  0
 54 26  1  0  0  0  0
 55 26  1  0  0  0  0
M  END
