7
q = -1.0

 31 30  0  0  0  0  0  0  0  0999 V2000
   -2.3691    2.3812   -0.5737 S   0  0  0  0  0  0  0  0  0  0  0  0
   -1.4460   -2.8588   -0.3527 S   0  0  0  0  0  0  0  0  0  0  0  0
   -0.5198   -0.0733    0.3096 P   0  0  1  0  0  0  0  0  0  0  0  0
    2.5542    2.3501    0.1222 O   0  0  0  0  0  0  0  0  0  0  0  0
    0.2901    2.3673   -0.3001 N   0  0  0  0  0  0  0  0  0  0  0  0
   -2.7814   -0.6843   -1.1584 N   0  0  0  0  0  0  0  0  0  0  0  0
    1.5931    1.6322   -0.0928 C   0  0  0  0  0  3  0  0  0  0  0  0
   -0.8723    1.6916   -0.2520 C   0  0  0  0  0  0  0  0  0  0  0  0
    0.3201    3.7987   -0.5512 C   0  0  0  0  0  0  0  0  0  0  0  0
   -0.3352    4.3268    0.1709 H   0  0  0  0  0  0  0  0  0  0  0  0
   -0.0658    4.0131   -1.5690 H   0  0  0  0  0  0  0  0  0  0  0  0
    1.3690    4.1270   -0.4432 H   0  0  0  0  0  0  0  0  0  0  0  0
   -1.1278   -0.0309    2.1311 C   0  0  0  0  0  0  0  0  0  0  0  0
   -0.4938    1.2094    2.7827 C   0  0  0  0  0  0  0  0  0  0  0  0
   -0.7005    1.1883    3.8732 H   0  0  0  0  0  0  0  0  0  0  0  0
   -0.9170    2.1500    2.3790 H   0  0  0  0  0  0  0  0  0  0  0  0
    0.6064    1.2309    2.6459 H   0  0  0  0  0  0  0  0  0  0  0  0
   -2.6612    0.0527    2.1667 C   0  0  0  0  0  0  0  0  0  0  0  0
   -2.9847    0.1891    3.2205 H   0  0  0  0  0  0  0  0  0  0  0  0
   -3.1244   -0.8815    1.7922 H   0  0  0  0  0  0  0  0  0  0  0  0
   -3.0461    0.9068    1.5748 H   0  0  0  0  0  0  0  0  0  0  0  0
   -0.6655   -1.3054    2.8532 C   0  0  0  0  0  0  0  0  0  0  0  0
    0.4341   -1.3492    2.9539 H   0  0  0  0  0  0  0  0  0  0  0  0
   -1.0135   -2.2180    2.3305 H   0  0  0  0  0  0  0  0  0  0  0  0
   -1.0968   -1.3048    3.8766 H   0  0  0  0  0  0  0  0  0  0  0  0
   -1.7437   -1.2205   -0.5101 C   0  0  0  0  0  0  0  0  0  0  0  0
   -3.7862   -1.4790   -1.8327 C   0  0  0  0  0  0  0  0  0  0  0  0
   -3.3099   -2.1590   -2.5696 H   0  0  0  0  0  0  0  0  0  0  0  0
   -4.4947   -0.8024   -2.3450 H   0  0  0  0  0  0  0  0  0  0  0  0
   -4.3339   -2.1218   -1.1104 H   0  0  0  0  0  0  0  0  0  0  0  0
   -2.8897    0.3559   -1.1128 H   0  0  0  0  0  0  0  0  0  0  0  0
  1  8  2  0  0  0  0
  3 26  1  6  0  0  0
  3 13  1  0  0  0  0
  5  8  1  0  0  0  0
  5  7  1  0  0  0  0
  6 31  1  0  0  0  0
  6 26  1  0  0  0  0
  7  4  2  0  0  0  0
  8  3  1  0  0  0  0
  9 12  1  0  0  0  0
  9  5  1  0  0  0  0
  9 10  1  0  0  0  0
 11  9  1  0  0  0  0
 13 18  1  0  0  0  0
 13 14  1  0  0  0  0
 13 22  1  0  0  0  0
 14 15  1  0  0  0  0
 16 14  1  0  0  0  0
 17 14  1  0  0  0  0
 18 19  1  0  0  0  0
 20 18  1  0  0  0  0
 21 18  1  0  0  0  0
 22 23  1  0  0  0  0
 22 25  1  0  0  0  0
 24 22  1  0  0  0  0
 26  2  2  0  0  0  0
 27  6  1  0  0  0  0
 27 30  1  0  0  0  0
 28 27  1  0  0  0  0
 29 27  1  0  0  0  0
M  END
