9
q = -1.0

 30 30  0  0  1  0  0  0  0  0999 V2000
    2.0857    1.4295    0.2171 P   0  0  0  0  0  0  0  0  0  0  0  0
    1.6781   -0.0899   -0.7446 C   0  0  2  0  0  3  0  0  0  0  0  0
    2.3694   -1.3415   -0.8415 C   0  0  0  0  0  0  0  0  0  0  0  0
    3.2301   -1.6532   -0.2390 H   0  0  0  0  0  0  0  0  0  0  0  0
    1.7466   -2.1255   -1.8523 C   0  0  0  0  0  0  0  0  0  0  0  0
    2.0299   -3.1477   -2.1339 H   0  0  0  0  0  0  0  0  0  0  0  0
    0.6702   -1.3745   -2.4028 C   0  0  0  0  0  3  0  0  0  0  0  0
   -0.0066   -1.7028   -3.2002 H   0  0  0  0  0  0  0  0  0  0  0  0
    0.6112   -0.1323   -1.7110 C   0  0  0  0  0  3  0  0  0  0  0  0
   -0.1085    0.6793   -1.8776 H   0  0  0  0  0  0  0  0  0  0  0  0
    2.9707    2.4320   -1.1322 C   0  0  0  0  0  0  0  0  0  0  0  0
    3.3890    3.2854   -0.5525 H   0  0  0  0  0  0  0  0  0  0  0  0
    4.1052    1.7039   -1.8540 C   0  0  0  0  0  0  0  0  0  0  0  0
    3.7239    0.8069   -2.3846 H   0  0  0  0  0  0  0  0  0  0  0  0
    4.9054    1.3721   -1.1625 H   0  0  0  0  0  0  0  0  0  0  0  0
    4.5764    2.3667   -2.6112 H   0  0  0  0  0  0  0  0  0  0  0  0
    1.9377    2.9979   -2.1151 C   0  0  0  0  0  0  0  0  0  0  0  0
    1.0780    3.4628   -1.5914 H   0  0  0  0  0  0  0  0  0  0  0  0
    1.5384    2.2013   -2.7752 H   0  0  0  0  0  0  0  0  0  0  0  0
    2.4044    3.7640   -2.7693 H   0  0  0  0  0  0  0  0  0  0  0  0
    3.5315    0.8246    1.2732 C   0  0  0  0  0  0  0  0  0  0  0  0
    4.2047    0.2093    0.6371 H   0  0  0  0  0  0  0  0  0  0  0  0
    3.0004   -0.0428    2.4220 C   0  0  0  0  0  0  0  0  0  0  0  0
    2.4089   -0.9062    2.0597 H   0  0  0  0  0  0  0  0  0  0  0  0
    2.3512    0.5507    3.0994 H   0  0  0  0  0  0  0  0  0  0  0  0
    3.8400   -0.4420    3.0291 H   0  0  0  0  0  0  0  0  0  0  0  0
    4.3230    2.0219    1.8142 C   0  0  0  0  0  0  0  0  0  0  0  0
    3.6591    2.7263    2.3592 H   0  0  0  0  0  0  0  0  0  0  0  0
    4.8365    2.5900    1.0136 H   0  0  0  0  0  0  0  0  0  0  0  0
    5.1009    1.6783    2.5280 H   0  0  0  0  0  0  0  0  0  0  0  0
  1 21  1  0  0  0  0
  2  1  1  6  0  0  0
  3  2  1  0  0  0  0
  3  4  1  0  0  0  0
  5  3  2  0  0  0  0
  6  5  1  0  0  0  0
  7  5  1  0  0  0  0
  7  9  1  0  0  0  0
  8  7  1  0  0  0  0
  9  2  1  0  0  0  0
 10  9  1  0  0  0  0
 11 12  1  0  0  0  0
 11  1  1  0  0  0  0
 13 15  1  0  0  0  0
 13 11  1  0  0  0  0
 14 13  1  0  0  0  0
 16 13  1  0  0  0  0
 17 18  1  0  0  0  0
 17 11  1  0  0  0  0
 19 17  1  0  0  0  0
 20 17  1  0  0  0  0
 21 27  1  0  0  0  0
 21 23  1  0  0  0  0
 22 21  1  0  0  0  0
 23 26  1  0  0  0  0
 23 25  1  0  0  0  0
 24 23  1  0  0  0  0
 27 28  1  0  0  0  0
 27 30  1  0  0  0  0
 29 27  1  0  0  0  0
M  END
