1
q = -1.0, confidence = 0.002

 17 17  0  0  0  0  0  0  0  0999 V2000
   -0.5400   -0.3037   -0.1278 C   0  0  0  0  0  2  0  0  0  0  0  0
   -1.0073   -0.1919   -1.1293 H   0  0  0  0  0  0  0  0  0  0  0  0
   -1.3536   -0.4344    0.9559 C   0  0  0  0  0  3  0  0  0  0  0  0
   -0.8997   -0.6188    1.9465 H   0  0  0  0  0  0  0  0  0  0  0  0
   -2.8228   -0.3902    0.9556 C   0  0  0  0  0  0  0  0  0  0  0  0
   -3.5812   -0.0350   -0.1853 C   0  0  0  0  0  0  0  0  0  0  0  0
   -3.1043    0.2282   -1.1385 H   0  0  0  0  0  0  0  0  0  0  0  0
   -4.9744   -0.0063   -0.1141 C   0  0  0  0  0  0  0  0  0  0  0  0
   -5.6841   -0.3191    1.0555 C   0  0  0  0  0  0  0  0  0  0  0  0
   -6.7805   -0.2791    1.0492 H   0  0  0  0  0  0  0  0  0  0  0  0
   -4.9396   -0.6673    2.1898 C   0  0  0  0  0  0  0  0  0  0  0  0
   -5.4595   -0.9184    3.1266 H   0  0  0  0  0  0  0  0  0  0  0  0
   -3.5383   -0.6990    2.1409 C   0  0  0  0  0  0  0  0  0  0  0  0
   -2.9690   -0.9774    3.0417 H   0  0  0  0  0  0  0  0  0  0  0  0
   -5.7379    0.3848   -1.3278 N   0  0  0  0  0  0  0  0  0  0  0  0
   -5.0963    0.6967   -2.3317 O   0  0  0  0  0  0  0  0  0  0  0  0
   -6.9670    0.3759   -1.2525 O   0  0  0  0  0  0  0  0  0  0  0  0
  1  3  1  0  0  0  0
  2  1  1  0  0  0  0
  3  4  1  0  0  0  0
  5  3  1  0  0  0  0
  5 13  1  0  0  0  0
  6  8  1  0  0  0  0
  6  5  2  0  0  0  0
  7  6  1  0  0  0  0
  8  9  2  0  0  0  0
  9 11  1  0  0  0  0
 10  9  1  0  0  0  0
 11 12  1  0  0  0  0
 13 11  2  0  0  0  0
 13 14  1  0  0  0  0
 15 17  2  0  0  0  0
 15  8  1  0  0  0  0
 16 15  2  0  0  0  0
M  END
