1
q = 0.0, confidence = 0.746

 12 11  0  0  0  0  0  0  0  0999 V2000
   -0.0330    1.9977    0.5650 C   0  0  0  0  0  2  0  0  0  0  0  0
   -0.0953    3.4451    0.1381 C   0  0  0  0  0  0  0  0  0  0  0  0
   -1.4090    4.0651    0.6486 C   0  0  0  0  0  0  0  0  0  0  0  0
   -2.2765    3.5752    0.1654 H   0  0  0  0  0  0  0  0  0  0  0  0
   -1.4418    5.1454    0.3982 H   0  0  0  0  0  0  0  0  0  0  0  0
   -1.5082    3.9699    1.7511 H   0  0  0  0  0  0  0  0  0  0  0  0
    1.1447    4.1942    0.6572 C   0  0  0  0  0  0  0  0  0  0  0  0
    1.2447    4.1108    1.7606 H   0  0  0  0  0  0  0  0  0  0  0  0
    1.0704    5.2721    0.4058 H   0  0  0  0  0  0  0  0  0  0  0  0
    2.0650    3.7975    0.1859 H   0  0  0  0  0  0  0  0  0  0  0  0
   -0.0966    3.4889   -0.9690 H   0  0  0  0  0  0  0  0  0  0  0  0
    0.0090    1.8774    1.6714 H   0  0  0  0  0  0  0  0  0  0  0  0
  1 12  1  0  0  0  0
  2  1  1  0  0  0  0
  2  3  1  0  0  0  0
  2  7  1  0  0  0  0
  3  6  1  0  0  0  0
  4  3  1  0  0  0  0
  5  3  1  0  0  0  0
  7  8  1  0  0  0  0
  9  7  1  0  0  0  0
 10  7  1  0  0  0  0
 11  2  1  0  0  0  0
M  END
