2
q = -1.0

 10 10  0  0  0  0  0  0  0  0999 V2000
    2.9769    1.6076   -0.5046 N   0  0  0  0  0  0  0  0  0  0  0  0
    1.7932    1.4853    0.1338 C   0  0  0  0  0  3  0  0  0  0  0  0
    1.4155    2.4347    1.1227 C   0  0  0  0  0  0  0  0  0  0  0  0
    0.4409    2.3502    1.6233 H   0  0  0  0  0  0  0  0  0  0  0  0
    2.2816    3.4850    1.4439 C   0  0  0  0  0  0  0  0  0  0  0  0
    1.9949    4.2243    2.2089 H   0  0  0  0  0  0  0  0  0  0  0  0
    3.5125    3.5885    0.7748 C   0  0  0  0  0  0  0  0  0  0  0  0
    4.2233    4.3993    0.9929 H   0  0  0  0  0  0  0  0  0  0  0  0
    3.8044    2.6194   -0.1944 C   0  0  0  0  0  0  0  0  0  0  0  0
    4.7546    2.6610   -0.7578 H   0  0  0  0  0  0  0  0  0  0  0  0
  1  9  2  0  0  0  0
  1  2  1  0  0  0  0
  2  3  2  0  0  0  0
  3  5  1  0  0  0  0
  3  4  1  0  0  0  0
  5  6  1  0  0  0  0
  7  8  1  0  0  0  0
  7  5  2  0  0  0  0
  9  7  1  0  0  0  0
 10  9  1  0  0  0  0
M  END
