4
q = 0.0, confidence = 0.81

 43 45  0  0  0  0  0  0  0  0999 V2000
    2.0067    1.3557    0.0001 S   0  0  0  0  0  0  0  0  0  0  0  0
    4.6479    1.0488   -0.0007 N   0  0  0  0  0  0  0  0  0  0  0  0
   -1.1068    2.2120    1.2332 C   0  0  0  0  0  0  0  0  0  0  0  0
   -0.4278    0.1249    0.0001 C   0  0  0  0  0  2  0  0  0  0  0  0
    3.4585    0.3992   -0.0002 C   0  0  0  0  0  0  0  0  0  0  0  0
   -1.7537    4.2417    0.0007 C   0  0  0  0  0  0  0  0  0  0  0  0
   -0.8985    1.4842    2.5357 C   0  0  0  0  0  0  0  0  0  0  0  0
   -1.4982    0.5491    2.5608 H   0  0  0  0  0  0  0  0  0  0  0  0
   -1.1833    2.1117    3.4019 H   0  0  0  0  0  0  0  0  0  0  0  0
    0.1594    1.1736    2.6663 H   0  0  0  0  0  0  0  0  0  0  0  0
    2.1847   -3.6660    0.0004 C   0  0  0  0  0  0  0  0  0  0  0  0
    1.8072   -4.6995    0.0004 H   0  0  0  0  0  0  0  0  0  0  0  0
   -0.8858    1.5405    0.0004 C   0  0  0  0  0  0  0  0  0  0  0  0
    4.6347    2.5080    0.0002 C   0  0  0  0  0  0  0  0  0  0  0  0
    4.1061    2.8997   -0.8965 H   0  0  0  0  0  0  0  0  0  0  0  0
    5.6707    2.8883    0.0003 H   0  0  0  0  0  0  0  0  0  0  0  0
    4.1065    2.8986    0.8975 H   0  0  0  0  0  0  0  0  0  0  0  0
   -0.9005    1.4842   -2.5351 C   0  0  0  0  0  0  0  0  0  0  0  0
   -1.1855    2.1117   -3.4012 H   0  0  0  0  0  0  0  0  0  0  0  0
   -1.5007    0.5493   -2.5597 H   0  0  0  0  0  0  0  0  0  0  0  0
    0.1572    1.1731   -2.6661 H   0  0  0  0  0  0  0  0  0  0  0  0
    3.1763   -1.0221    0.0000 C   0  0  0  0  0  0  0  0  0  0  0  0
   -2.2523    5.6655   -0.0003 C   0  0  0  0  0  0  0  0  0  0  0  0
   -3.3627    5.6997   -0.0441 H   0  0  0  0  0  0  0  0  0  0  0  0
   -1.8772    6.2303   -0.8771 H   0  0  0  0  0  0  0  0  0  0  0  0
   -1.9469    6.2073    0.9167 H   0  0  0  0  0  0  0  0  0  0  0  0
    3.5796   -3.4262    0.0008 C   0  0  0  0  0  0  0  0  0  0  0  0
    4.2821   -4.2726    0.0014 H   0  0  0  0  0  0  0  0  0  0  0  0
    1.7581   -1.2758   -0.0001 C   0  0  0  0  0  0  0  0  0  0  0  0
    5.9284    0.3537   -0.0020 C   0  0  0  0  0  0  0  0  0  0  0  0
    6.0482   -0.2801    0.9006 H   0  0  0  0  0  0  0  0  0  0  0  0
    6.7378    1.1039   -0.0046 H   0  0  0  0  0  0  0  0  0  0  0  0
    6.0447   -0.2824   -0.9034 H   0  0  0  0  0  0  0  0  0  0  0  0
   -1.5340    3.5507   -1.2053 C   0  0  0  0  0  0  0  0  0  0  0  0
   -1.7057    4.0685   -2.1635 H   0  0  0  0  0  0  0  0  0  0  0  0
    0.9380   -0.0854   -0.0001 C   0  0  0  0  0  0  0  0  0  0  0  0
    1.2816   -2.6074   -0.0001 C   0  0  0  0  0  0  0  0  0  0  0  0
    0.1920   -2.7773   -0.0003 H   0  0  0  0  0  0  0  0  0  0  0  0
   -1.1078    2.2122   -1.2326 C   0  0  0  0  0  0  0  0  0  0  0  0
   -1.5330    3.5508    1.2062 C   0  0  0  0  0  0  0  0  0  0  0  0
   -1.7040    4.0687    2.1645 H   0  0  0  0  0  0  0  0  0  0  0  0
    4.0765   -2.1262    0.0007 C   0  0  0  0  0  0  0  0  0  0  0  0
    5.1609   -1.9820    0.0012 H   0  0  0  0  0  0  0  0  0  0  0  0
  2  5  1  0  0  0  0
  2 14  1  0  0  0  0
  3  7  1  0  0  0  0
  4 13  1  0  0  0  0
  5 22  2  0  0  0  0
  5  1  1  0  0  0  0
  6 40  2  0  0  0  0
  7  8  1  0  0  0  0
  7 10  1  0  0  0  0
  7  9  1  0  0  0  0
 11 12  1  0  0  0  0
 11 27  1  0  0  0  0
 13  3  2  0  0  0  0
 14 16  1  0  0  0  0
 14 17  1  0  0  0  0
 15 14  1  0  0  0  0
 18 39  1  0  0  0  0
 19 18  1  0  0  0  0
 20 18  1  0  0  0  0
 21 18  1  0  0  0  0
 22 42  1  0  0  0  0
 23  6  1  0  0  0  0
 23 26  1  0  0  0  0
 24 23  1  0  0  0  0
 25 23  1  0  0  0  0
 27 28  1  0  0  0  0
 29 37  1  0  0  0  0
 29 36  2  0  0  0  0
 29 22  1  0  0  0  0
 30  2  1  0  0  0  0
 30 31  1  0  0  0  0
 32 30  1  0  0  0  0
 33 30  1  0  0  0  0
 34  6  1  0  0  0  0
 35 34  1  0  0  0  0
 36  1  1  0  0  0  0
 36  4  1  0  0  0  0
 37 11  2  0  0  0  0
 38 37  1  0  0  0  0
 39 34  2  0  0  0  0
 39 13  1  0  0  0  0
 40  3  1  0  0  0  0
 40 41  1  0  0  0  0
 42 27  2  0  0  0  0
 42 43  1  0  0  0  0
M  END
