3
q = 0.0, confidence = 1.0

 35 37  0  0  0  0  0  0  0  0999 V2000
    1.2627    0.6900    0.8931 N   0  0  0  0  0  0  0  0  0  0  0  0
    1.5322   -1.1936   -0.1536 N   0  0  0  0  0  0  0  0  0  0  0  0
    0.5835   -0.3103    0.2669 C   0  0  0  0  0  2  0  0  0  0  0  0
    0.6364    1.8599    1.5104 C   0  0  0  0  0  0  0  0  0  0  0  0
    0.8940    1.8694    2.5886 H   0  0  0  0  0  0  0  0  0  0  0  0
   -0.4563    1.6840    1.4335 H   0  0  0  0  0  0  0  0  0  0  0  0
    1.0466    3.1535    0.8417 C   0  0  0  0  0  0  0  0  0  0  0  0
    0.8015    3.3459   -0.5341 C   0  0  0  0  0  0  0  0  0  0  0  0
    0.3112    2.5497   -1.1206 H   0  0  0  0  0  0  0  0  0  0  0  0
    1.1787    4.5454   -1.1526 C   0  0  0  0  0  0  0  0  0  0  0  0
    0.9810    4.6870   -2.2261 H   0  0  0  0  0  0  0  0  0  0  0  0
    1.8002    5.5641   -0.4097 C   0  0  0  0  0  0  0  0  0  0  0  0
    2.0939    6.5051   -0.8997 H   0  0  0  0  0  0  0  0  0  0  0  0
    2.0448    5.3781    0.9590 C   0  0  0  0  0  0  0  0  0  0  0  0
    2.5314    6.1708    1.5475 H   0  0  0  0  0  0  0  0  0  0  0  0
    1.6713    4.1751    1.5801 C   0  0  0  0  0  0  0  0  0  0  0  0
    1.8640    4.0279    2.6552 H   0  0  0  0  0  0  0  0  0  0  0  0
    2.6257    0.4512    0.8556 C   0  0  0  0  0  0  0  0  0  0  0  0
    3.3514    1.1318    1.3089 H   0  0  0  0  0  0  0  0  0  0  0  0
    2.8154   -0.7484    0.2028 C   0  0  0  0  0  0  0  0  0  0  0  0
    4.0728   -1.4535   -0.0780 C   0  0  0  0  0  0  0  0  0  0  0  0
    5.1951   -0.7185   -0.5257 C   0  0  0  0  0  0  0  0  0  0  0  0
    5.0884    0.3611   -0.7097 H   0  0  0  0  0  0  0  0  0  0  0  0
    6.4207   -1.3565   -0.7562 C   0  0  0  0  0  0  0  0  0  0  0  0
    7.2826   -0.7692   -1.1074 H   0  0  0  0  0  0  0  0  0  0  0  0
    6.5455   -2.7408   -0.5569 C   0  0  0  0  0  0  0  0  0  0  0  0
    7.5062   -3.2429   -0.7464 H   0  0  0  0  0  0  0  0  0  0  0  0
    5.4380   -3.4812   -0.1138 C   0  0  0  0  0  0  0  0  0  0  0  0
    5.5310   -4.5644    0.0565 H   0  0  0  0  0  0  0  0  0  0  0  0
    4.2131   -2.8456    0.1299 C   0  0  0  0  0  0  0  0  0  0  0  0
    3.3642   -3.4294    0.5138 H   0  0  0  0  0  0  0  0  0  0  0  0
    1.2112   -2.3798   -0.9354 C   0  0  0  0  0  0  0  0  0  0  0  0
    0.9412   -3.2268   -0.2737 H   0  0  0  0  0  0  0  0  0  0  0  0
    2.0811   -2.6552   -1.5579 H   0  0  0  0  0  0  0  0  0  0  0  0
    0.3508   -2.1357   -1.5869 H   0  0  0  0  0  0  0  0  0  0  0  0
  1  4  1  0  0  0  0
  2 20  1  0  0  0  0
  2  3  1  0  0  0  0
  3  1  1  0  0  0  0
  4  5  1  0  0  0  0
  6  4  1  0  0  0  0
  7  4  1  0  0  0  0
  7 16  1  0  0  0  0
  8  7  2  0  0  0  0
  9  8  1  0  0  0  0
 10  8  1  0  0  0  0
 10 12  2  0  0  0  0
 11 10  1  0  0  0  0
 12 14  1  0  0  0  0
 13 12  1  0  0  0  0
 14 15  1  0  0  0  0
 14 16  2  0  0  0  0
 16 17  1  0  0  0  0
 18  1  1  0  0  0  0
 18 19  1  0  0  0  0
 20 18  2  0  0  0  0
 21 30  1  0  0  0  0
 21 20  1  0  0  0  0
 22 21  2  0  0  0  0
 23 22  1  0  0  0  0
 24 26  2  0  0  0  0
 24 22  1  0  0  0  0
 25 24  1  0  0  0  0
 26 28  1  0  0  0  0
 27 26  1  0  0  0  0
 28 29  1  0  0  0  0
 28 30  2  0  0  0  0
 30 31  1  0  0  0  0
 32 33  1  0  0  0  0
 32  2  1  0  0  0  0
 34 32  1  0  0  0  0
 35 32  1  0  0  0  0
M  END
