5
q = 0.0, confidence = 0.614

 40 43  0  0  1  0  0  0  0  0999 V2000
    0.0785   -2.4635   -0.9000 O   0  0  0  0  0  0  0  0  0  0  0  0
    0.0284   -1.2419   -0.7838 C   0  0  0  0  0  0  0  0  0  0  0  0
   -1.1804   -0.3532   -0.6160 C   0  0  1  0  0  3  0  0  0  0  0  0
   -0.7540    1.0102   -0.8507 C   0  0  1  0  0  3  0  0  0  0  0  0
    0.6913    1.0515   -0.8520 C   0  0  1  0  0  3  0  0  0  0  0  0
    1.1872   -0.2917   -0.6299 C   0  0  2  0  0  3  0  0  0  0  0  0
   -1.6005    2.2064   -1.2239 C   0  0  0  0  0  0  0  0  0  0  0  0
   -0.7581    3.3320   -1.8442 C   0  0  0  0  0  0  0  0  0  0  0  0
    0.5436    3.5525   -1.0660 C   0  0  0  0  0  0  0  0  0  0  0  0
    1.4438    2.3159   -1.1730 C   0  0  0  0  0  0  0  0  0  0  0  0
    2.5831   -0.7679   -0.5921 C   0  0  0  0  0  0  0  0  0  0  0  0
    3.6405   -0.0828   -1.2337 C   0  0  0  0  0  0  0  0  0  0  0  0
    4.9510   -0.5807   -1.1917 C   0  0  0  0  0  0  0  0  0  0  0  0
    5.2329   -1.7746   -0.5124 C   0  0  0  0  0  0  0  0  0  0  0  0
    4.1892   -2.4743    0.1162 C   0  0  0  0  0  0  0  0  0  0  0  0
    2.8805   -1.9816    0.0749 C   0  0  0  0  0  0  0  0  0  0  0  0
   -2.5709   -0.8451   -0.5795 C   0  0  0  0  0  0  0  0  0  0  0  0
   -2.8647   -2.1584   -1.0224 C   0  0  0  0  0  0  0  0  0  0  0  0
   -4.1839   -2.6314   -1.0260 C   0  0  0  0  0  0  0  0  0  0  0  0
   -5.2365   -1.8160   -0.5841 C   0  0  0  0  0  0  0  0  0  0  0  0
   -4.9572   -0.5175   -0.1274 C   0  0  0  0  0  0  0  0  0  0  0  0
   -3.6421   -0.0378   -0.1237 C   0  0  0  0  0  0  0  0  0  0  0  0
   -2.3918    1.8674   -1.9247 H   0  0  0  0  0  0  0  0  0  0  0  0
   -2.1398    2.5989   -0.3386 H   0  0  0  0  0  0  0  0  0  0  0  0
   -0.5072    3.0749   -2.8971 H   0  0  0  0  0  0  0  0  0  0  0  0
   -1.3591    4.2625   -1.8850 H   0  0  0  0  0  0  0  0  0  0  0  0
    0.3141    3.7565    0.0031 H   0  0  0  0  0  0  0  0  0  0  0  0
    1.0854    4.4399   -1.4502 H   0  0  0  0  0  0  0  0  0  0  0  0
    2.3462    2.4121   -0.5376 H   0  0  0  0  0  0  0  0  0  0  0  0
    1.8126    2.2308   -2.2203 H   0  0  0  0  0  0  0  0  0  0  0  0
    3.4413    0.8385   -1.7950 H   0  0  0  0  0  0  0  0  0  0  0  0
    5.7571   -0.0298   -1.6998 H   0  0  0  0  0  0  0  0  0  0  0  0
    6.2621   -2.1627   -0.4766 H   0  0  0  0  0  0  0  0  0  0  0  0
    4.3973   -3.4165    0.6456 H   0  0  0  0  0  0  0  0  0  0  0  0
    2.0673   -2.5410    0.5559 H   0  0  0  0  0  0  0  0  0  0  0  0
   -2.0349   -2.8000   -1.3465 H   0  0  0  0  0  0  0  0  0  0  0  0
   -4.3891   -3.6545   -1.3767 H   0  0  0  0  0  0  0  0  0  0  0  0
   -6.2709   -2.1921   -0.5863 H   0  0  0  0  0  0  0  0  0  0  0  0
   -5.7709    0.1272    0.2382 H   0  0  0  0  0  0  0  0  0  0  0  0
   -3.4486    0.9685    0.2690 H   0  0  0  0  0  0  0  0  0  0  0  0
  1  2  2  0  0  0  0
  2  6  1  0  0  0  0
  2  3  1  0  0  0  0
  3 17  1  6  0  0  0
  4  7  1  6  0  0  0
  4  3  1  0  0  0  0
  5 10  1  6  0  0  0
  5  4  1  0  0  0  0
  5  6  1  0  0  0  0
  6 11  1  6  0  0  0
  7 24  1  0  0  0  0
  8  7  1  0  0  0  0
  8  9  1  0  0  0  0
  9 27  1  0  0  0  0
 10  9  1  0  0  0  0
 10 29  1  0  0  0  0
 11 16  1  0  0  0  0
 12 13  1  0  0  0  0
 12 11  2  0  0  0  0
 13 14  2  0  0  0  0
 14 33  1  0  0  0  0
 14 15  1  0  0  0  0
 15 34  1  0  0  0  0
 16 15  2  0  0  0  0
 16 35  1  0  0  0  0
 17 22  1  0  0  0  0
 18 17  2  0  0  0  0
 19 18  1  0  0  0  0
 19 20  2  0  0  0  0
 20 21  1  0  0  0  0
 21 22  2  0  0  0  0
 21 39  1  0  0  0  0
 22 40  1  0  0  0  0
 23  7  1  0  0  0  0
 25  8  1  0  0  0  0
 26  8  1  0  0  0  0
 28  9  1  0  0  0  0
 30 10  1  0  0  0  0
 31 12  1  0  0  0  0
 32 13  1  0  0  0  0
 36 18  1  0  0  0  0
 37 19  1  0  0  0  0
 38 20  1  0  0  0  0
M  END
