8
q = 0.0, confidence = 0.868

 40 43  0  0  1  0  0  0  0  0999 V2000
    2.2529   -1.9159    1.3380 F   0  0  0  0  0  0  0  0  0  0  0  0
    6.5628   -1.8829   -0.5518 F   0  0  0  0  0  0  0  0  0  0  0  0
   -3.4640    1.0922    0.5767 F   0  0  0  0  0  0  0  0  0  0  0  0
   -6.3367   -2.4513   -0.5680 F   0  0  0  0  0  0  0  0  0  0  0  0
    0.1608   -2.3276   -0.7233 O   0  0  0  0  0  0  0  0  0  0  0  0
    0.0829   -1.1048   -0.6832 C   0  0  0  0  0  0  0  0  0  0  0  0
    1.2074   -0.1191   -0.5926 C   0  0  2  0  0  3  0  0  0  0  0  0
    0.6898    1.1930   -0.9259 C   0  0  2  0  0  3  0  0  0  0  0  0
   -0.7530    1.1206   -0.9348 C   0  0  2  0  0  3  0  0  0  0  0  0
   -1.1482   -0.2258   -0.5887 C   0  0  1  0  0  3  0  0  0  0  0  0
    1.4261    2.4390   -1.3350 C   0  0  0  0  0  0  0  0  0  0  0  0
    1.7837    2.3020   -2.3809 H   0  0  0  0  0  0  0  0  0  0  0  0
    2.3364    2.5780   -0.7175 H   0  0  0  0  0  0  0  0  0  0  0  0
    0.5044    3.6643   -1.2904 C   0  0  0  0  0  0  0  0  0  0  0  0
    1.0289    4.5414   -1.7196 H   0  0  0  0  0  0  0  0  0  0  0  0
    0.2692    3.9179   -0.2337 H   0  0  0  0  0  0  0  0  0  0  0  0
   -0.7918    3.3820   -2.0613 C   0  0  0  0  0  0  0  0  0  0  0  0
   -0.5284    3.0945   -3.1033 H   0  0  0  0  0  0  0  0  0  0  0  0
   -1.4107    4.2981   -2.1393 H   0  0  0  0  0  0  0  0  0  0  0  0
   -1.6199    2.2619   -1.4082 C   0  0  0  0  0  0  0  0  0  0  0  0
   -2.2212    2.6639   -0.5710 H   0  0  0  0  0  0  0  0  0  0  0  0
   -2.3628    1.8521   -2.1254 H   0  0  0  0  0  0  0  0  0  0  0  0
    2.6183   -0.5394   -0.5694 C   0  0  0  0  0  0  0  0  0  0  0  0
    3.0863   -1.4723    0.3847 C   0  0  0  0  0  0  0  0  0  0  0  0
    4.4057   -1.9317    0.4083 C   0  0  0  0  0  0  0  0  0  0  0  0
    4.7318   -2.6505    1.1713 H   0  0  0  0  0  0  0  0  0  0  0  0
    5.2923   -1.4480   -0.5597 C   0  0  0  0  0  0  0  0  0  0  0  0
    4.8857   -0.5256   -1.5314 C   0  0  0  0  0  0  0  0  0  0  0  0
    5.6065   -0.1737   -2.2818 H   0  0  0  0  0  0  0  0  0  0  0  0
    3.5564   -0.0860   -1.5237 C   0  0  0  0  0  0  0  0  0  0  0  0
    3.2258    0.6155   -2.3013 H   0  0  0  0  0  0  0  0  0  0  0  0
   -2.5104   -0.7844   -0.5560 C   0  0  0  0  0  0  0  0  0  0  0  0
   -3.6271   -0.1159   -0.0054 C   0  0  0  0  0  0  0  0  0  0  0  0
   -4.9157   -0.6537   -0.0001 C   0  0  0  0  0  0  0  0  0  0  0  0
   -5.7504   -0.0959    0.4441 H   0  0  0  0  0  0  0  0  0  0  0  0
   -5.1030   -1.9217   -0.5614 C   0  0  0  0  0  0  0  0  0  0  0  0
   -4.0340   -2.6437   -1.1047 C   0  0  0  0  0  0  0  0  0  0  0  0
   -4.2123   -3.6423   -1.5268 H   0  0  0  0  0  0  0  0  0  0  0  0
   -2.7564   -2.0751   -1.0919 C   0  0  0  0  0  0  0  0  0  0  0  0
   -1.8986   -2.6384   -1.4814 H   0  0  0  0  0  0  0  0  0  0  0  0
  4 36  1  0  0  0  0
  5  6  2  0  0  0  0
  6  7  1  0  0  0  0
  6 10  1  0  0  0  0
  7 23  1  6  0  0  0
  8 11  1  6  0  0  0
  8  7  1  0  0  0  0
  9 20  1  6  0  0  0
  9  8  1  0  0  0  0
  9 10  1  0  0  0  0
 10 32  1  6  0  0  0
 11 14  1  0  0  0  0
 11 13  1  0  0  0  0
 12 11  1  0  0  0  0
 14 16  1  0  0  0  0
 15 14  1  0  0  0  0
 17 20  1  0  0  0  0
 17 14  1  0  0  0  0
 18 17  1  0  0  0  0
 19 17  1  0  0  0  0
 20 21  1  0  0  0  0
 22 20  1  0  0  0  0
 23 24  1  0  0  0  0
 24 25  2  0  0  0  0
 24  1  1  0  0  0  0
 25 26  1  0  0  0  0
 27  2  1  0  0  0  0
 27 25  1  0  0  0  0
 28 30  1  0  0  0  0
 28 27  2  0  0  0  0
 29 28  1  0  0  0  0
 30 23  2  0  0  0  0
 31 30  1  0  0  0  0
 32 33  1  0  0  0  0
 33 34  2  0  0  0  0
 33  3  1  0  0  0  0
 34 35  1  0  0  0  0
 36 34  1  0  0  0  0
 37 39  1  0  0  0  0
 37 36  2  0  0  0  0
 38 37  1  0  0  0  0
 39 32  2  0  0  0  0
 40 39  1  0  0  0  0
M  END
