35
q = -1.0

 68 67  0  0  0  0  0  0  0  0999 V2000
    2.3101   -0.0875    0.2572 P   0  0  0  0  0  0  0  0  0  0  0  0
   -2.3161   -0.2108    0.2146 P   0  0  0  0  0  0  0  0  0  0  0  0
    3.4917    1.4425    0.2623 C   0  0  0  0  0  0  0  0  0  0  0  0
    4.9060    1.0894    0.7516 C   0  0  0  0  0  0  0  0  0  0  0  0
    5.5017    2.0225    0.8542 H   0  0  0  0  0  0  0  0  0  0  0  0
    5.4448    0.4373    0.0364 H   0  0  0  0  0  0  0  0  0  0  0  0
    4.9019    0.5923    1.7412 H   0  0  0  0  0  0  0  0  0  0  0  0
    2.8363    2.4413    1.2415 C   0  0  0  0  0  0  0  0  0  0  0  0
    3.3188    3.4360    1.1356 H   0  0  0  0  0  0  0  0  0  0  0  0
    2.9505    2.1316    2.2983 H   0  0  0  0  0  0  0  0  0  0  0  0
    1.7510    2.5483    1.0365 H   0  0  0  0  0  0  0  0  0  0  0  0
    3.5984    2.1251   -1.1131 C   0  0  0  0  0  0  0  0  0  0  0  0
    4.1974    3.0548   -1.0034 H   0  0  0  0  0  0  0  0  0  0  0  0
    2.6116    2.4174   -1.5134 H   0  0  0  0  0  0  0  0  0  0  0  0
    4.1023    1.4975   -1.8682 H   0  0  0  0  0  0  0  0  0  0  0  0
    3.0971   -1.5390   -0.7699 C   0  0  0  0  0  0  0  0  0  0  0  0
    3.7267   -1.0424   -2.0825 C   0  0  0  0  0  0  0  0  0  0  0  0
    4.0096   -1.9236   -2.6980 H   0  0  0  0  0  0  0  0  0  0  0  0
    4.6498   -0.4553   -1.9134 H   0  0  0  0  0  0  0  0  0  0  0  0
    3.0241   -0.4337   -2.6828 H   0  0  0  0  0  0  0  0  0  0  0  0
    1.9417   -2.4956   -1.1279 C   0  0  0  0  0  0  0  0  0  0  0  0
    2.3413   -3.3419   -1.7286 H   0  0  0  0  0  0  0  0  0  0  0  0
    1.1571   -1.9745   -1.7085 H   0  0  0  0  0  0  0  0  0  0  0  0
    1.4530   -2.9149   -0.2281 H   0  0  0  0  0  0  0  0  0  0  0  0
    4.1593   -2.3176    0.0253 C   0  0  0  0  0  0  0  0  0  0  0  0
    4.5928   -3.1054   -0.6281 H   0  0  0  0  0  0  0  0  0  0  0  0
    3.7288   -2.8294    0.9075 H   0  0  0  0  0  0  0  0  0  0  0  0
    4.9942   -1.6769    0.3684 H   0  0  0  0  0  0  0  0  0  0  0  0
    2.4894   -0.6666    2.0212 C   0  0  0  0  0  0  0  0  0  0  0  0
    3.4775   -1.1170    2.2359 H   0  0  0  0  0  0  0  0  0  0  0  0
    2.3944    0.2425    2.6483 H   0  0  0  0  0  0  0  0  0  0  0  0
    1.3156   -1.5918    2.2993 C   0  0  0  0  0  0  0  0  0  0  0  0
    1.4625   -2.5600    1.7706 H   0  0  0  0  0  0  0  0  0  0  0  0
    1.2859   -1.8528    3.3840 H   0  0  0  0  0  0  0  0  0  0  0  0
   -0.0098   -0.9535    1.8541 C   0  0  0  0  0  3  0  0  0  0  0  0
   -0.2191   -0.1165    2.5696 H   0  0  0  0  0  0  0  0  0  0  0  0
   -1.1469   -1.9753    1.9839 C   0  0  0  0  0  0  0  0  0  0  0  0
   -0.9773   -2.8107    1.2711 H   0  0  0  0  0  0  0  0  0  0  0  0
   -1.1588   -2.4401    2.9998 H   0  0  0  0  0  0  0  0  0  0  0  0
   -2.4915   -1.3114    1.7188 C   0  0  0  0  0  0  0  0  0  0  0  0
   -2.7371   -0.6447    2.5698 H   0  0  0  0  0  0  0  0  0  0  0  0
   -3.3367   -2.0215    1.6150 H   0  0  0  0  0  0  0  0  0  0  0  0
   -3.4435    1.2797    0.7193 C   0  0  0  0  0  0  0  0  0  0  0  0
   -4.7309    0.8654    1.4566 C   0  0  0  0  0  0  0  0  0  0  0  0
   -5.2559    1.7840    1.7977 H   0  0  0  0  0  0  0  0  0  0  0  0
   -4.5331    0.2541    2.3575 H   0  0  0  0  0  0  0  0  0  0  0  0
   -5.4333    0.3080    0.8106 H   0  0  0  0  0  0  0  0  0  0  0  0
   -2.5609    2.1036    1.6783 C   0  0  0  0  0  0  0  0  0  0  0  0
   -3.0945    3.0325    1.9744 H   0  0  0  0  0  0  0  0  0  0  0  0
   -1.5936    2.3672    1.2061 H   0  0  0  0  0  0  0  0  0  0  0  0
   -2.3248    1.5430    2.6055 H   0  0  0  0  0  0  0  0  0  0  0  0
   -3.8403    2.1536   -0.4821 C   0  0  0  0  0  0  0  0  0  0  0  0
   -4.3880    3.0476   -0.1131 H   0  0  0  0  0  0  0  0  0  0  0  0
   -4.5183    1.6229   -1.1788 H   0  0  0  0  0  0  0  0  0  0  0  0
   -2.9655    2.5153   -1.0521 H   0  0  0  0  0  0  0  0  0  0  0  0
   -3.1520   -1.2484   -1.1728 C   0  0  0  0  0  0  0  0  0  0  0  0
   -2.3495   -2.5641   -1.2209 C   0  0  0  0  0  0  0  0  0  0  0  0
   -2.6580   -3.1524   -2.1116 H   0  0  0  0  0  0  0  0  0  0  0  0
   -2.5242   -3.1951   -0.3277 H   0  0  0  0  0  0  0  0  0  0  0  0
   -1.2616   -2.3533   -1.2903 H   0  0  0  0  0  0  0  0  0  0  0  0
   -3.0061   -0.5528   -2.5366 C   0  0  0  0  0  0  0  0  0  0  0  0
   -3.4381   -1.2073   -3.3239 H   0  0  0  0  0  0  0  0  0  0  0  0
   -1.9450   -0.3803   -2.7938 H   0  0  0  0  0  0  0  0  0  0  0  0
   -3.5382    0.4155   -2.5840 H   0  0  0  0  0  0  0  0  0  0  0  0
   -4.6349   -1.5546   -0.9172 C   0  0  0  0  0  0  0  0  0  0  0  0
   -4.9897   -2.2917   -1.6700 H   0  0  0  0  0  0  0  0  0  0  0  0
   -5.2708   -0.6539   -1.0200 H   0  0  0  0  0  0  0  0  0  0  0  0
   -4.8149   -1.9960    0.0832 H   0  0  0  0  0  0  0  0  0  0  0  0
  1  3  1  0  0  0  0
  1 29  1  0  0  0  0
  2 43  1  0  0  0  0
  2 40  1  0  0  0  0
  3  4  1  0  0  0  0
  3  8  1  0  0  0  0
  4  5  1  0  0  0  0
  4  7  1  0  0  0  0
  6  4  1  0  0  0  0
  8 10  1  0  0  0  0
  9  8  1  0  0  0  0
 11  8  1  0  0  0  0
 12 13  1  0  0  0  0
 12  3  1  0  0  0  0
 14 12  1  0  0  0  0
 15 12  1  0  0  0  0
 16 25  1  0  0  0  0
 16  1  1  0  0  0  0
 17 19  1  0  0  0  0
 17 16  1  0  0  0  0
 18 17  1  0  0  0  0
 20 17  1  0  0  0  0
 21 16  1  0  0  0  0
 21 24  1  0  0  0  0
 22 21  1  0  0  0  0
 23 21  1  0  0  0  0
 25 28  1  0  0  0  0
 25 27  1  0  0  0  0
 26 25  1  0  0  0  0
 29 30  1  0  0  0  0
 29 32  1  0  0  0  0
 29 31  1  0  0  0  0
 32 34  1  0  0  0  0
 33 32  1  0  0  0  0
 35 37  1  0  0  0  0
 35 32  1  0  0  0  0
 35 36  1  0  0  0  0
 37 39  1  0  0  0  0
 38 37  1  0  0  0  0
 40 37  1  0  0  0  0
 40 41  1  0  0  0  0
 42 40  1  0  0  0  0
 43 44  1  0  0  0  0
 43 48  1  0  0  0  0
 44 45  1  0  0  0  0
 44 46  1  0  0  0  0
 47 44  1  0  0  0  0
 48 49  1  0  0  0  0
 48 51  1  0  0  0  0
 50 48  1  0  0  0  0
 52 53  1  0  0  0  0
 52 43  1  0  0  0  0
 54 52  1  0  0  0  0
 55 52  1  0  0  0  0
 56 65  1  0  0  0  0
 56  2  1  0  0  0  0
 57 56  1  0  0  0  0
 57 59  1  0  0  0  0
 58 57  1  0  0  0  0
 60 57  1  0  0  0  0
 61 56  1  0  0  0  0
 62 61  1  0  0  0  0
 63 61  1  0  0  0  0
 64 61  1  0  0  0  0
 65 68  1  0  0  0  0
 66 65  1  0  0  0  0
 67 65  1  0  0  0  0
M  END
