1
q = -1.0

 17 17  0  0  0  0  0  0  0  0999 V2000
   -1.2369    0.9716   -1.3560 C   0  0  0  0  0  3  0  0  0  0  0  0
   -2.5857    1.4185   -0.9419 C   0  0  0  0  0  0  0  0  0  0  0  0
   -3.7727    0.8440   -1.4620 C   0  0  0  0  0  0  0  0  0  0  0  0
   -5.0430    1.2114   -0.9965 C   0  0  0  0  0  0  0  0  0  0  0  0
   -5.2041    2.1913    0.0023 C   0  0  0  0  0  0  0  0  0  0  0  0
   -4.0318    2.8095    0.4882 C   0  0  0  0  0  0  0  0  0  0  0  0
   -2.7632    2.4394    0.0295 C   0  0  0  0  0  0  0  0  0  0  0  0
   -6.5646    2.5650    0.5352 C   0  0  0  0  0  0  0  0  0  0  0  0
   -1.3020    0.2916   -2.2410 H   0  0  0  0  0  0  0  0  0  0  0  0
   -0.6083    1.8413   -1.6590 H   0  0  0  0  0  0  0  0  0  0  0  0
   -3.6947    0.1051   -2.2758 H   0  0  0  0  0  0  0  0  0  0  0  0
   -5.9365    0.7339   -1.4316 H   0  0  0  0  0  0  0  0  0  0  0  0
   -4.1173    3.6033    1.2487 H   0  0  0  0  0  0  0  0  0  0  0  0
   -1.8805    2.9535    0.4396 H   0  0  0  0  0  0  0  0  0  0  0  0
   -7.3746    2.2292   -0.1423 H   0  0  0  0  0  0  0  0  0  0  0  0
   -6.6656    3.6615    0.6704 H   0  0  0  0  0  0  0  0  0  0  0  0
   -6.7545    2.1018    1.5284 H   0  0  0  0  0  0  0  0  0  0  0  0
  1  2  1  0  0  0  0
  2  7  1  0  0  0  0
  3  4  1  0  0  0  0
  3  2  2  0  0  0  0
  4  5  2  0  0  0  0
  5  6  1  0  0  0  0
  5  8  1  0  0  0  0
  6 13  1  0  0  0  0
  7 14  1  0  0  0  0
  7  6  2  0  0  0  0
  8 16  1  0  0  0  0
  8 17  1  0  0  0  0
  9  1  1  0  0  0  0
 10  1  1  0  0  0  0
 11  3  1  0  0  0  0
 12  4  1  0  0  0  0
 15  8  1  0  0  0  0
M  END
