2
q = 0.0, confidence = 0.94

 22 24  0  0  0  0  0  0  0  0999 V2000
    2.5468    3.1919   -1.1522 S   0  0  0  0  0  0  0  0  0  0  0  0
    0.8006    0.7407   -0.0357 C   0  0  0  0  0  2  0  0  0  0  0  0
    0.5964    1.3914   -0.9199 H   0  0  0  0  0  0  0  0  0  0  0  0
    2.2250    0.7260    0.2151 C   0  0  0  0  0  0  0  0  0  0  0  0
    2.8641   -0.3514    0.8504 C   0  0  0  0  0  0  0  0  0  0  0  0
    2.2421   -1.1901    1.1881 H   0  0  0  0  0  0  0  0  0  0  0  0
    4.2750   -0.4481    0.9765 C   0  0  0  0  0  0  0  0  0  0  0  0
    4.8771   -1.5882    1.5894 C   0  0  0  0  0  0  0  0  0  0  0  0
    4.2231   -2.3906    1.9636 H   0  0  0  0  0  0  0  0  0  0  0  0
    6.2550   -1.6853    1.7115 C   0  0  0  0  0  0  0  0  0  0  0  0
    6.7100   -2.5646    2.1906 H   0  0  0  0  0  0  0  0  0  0  0  0
    7.0820   -0.6447    1.2154 C   0  0  0  0  0  0  0  0  0  0  0  0
    8.1749   -0.7242    1.3151 H   0  0  0  0  0  0  0  0  0  0  0  0
    6.5265    0.4739    0.6005 C   0  0  0  0  0  0  0  0  0  0  0  0
    7.1850    1.2660    0.2165 H   0  0  0  0  0  0  0  0  0  0  0  0
    5.1210    0.6033    0.4616 C   0  0  0  0  0  0  0  0  0  0  0  0
    4.4916    1.7249   -0.1912 C   0  0  0  0  0  0  0  0  0  0  0  0
    5.1066    2.8741   -0.7990 C   0  0  0  0  0  0  0  0  0  0  0  0
    6.1880    3.0600   -0.8265 H   0  0  0  0  0  0  0  0  0  0  0  0
    4.1895    3.7335   -1.3549 C   0  0  0  0  0  0  0  0  0  0  0  0
    4.3815    4.6780   -1.8789 H   0  0  0  0  0  0  0  0  0  0  0  0
    3.0829    1.7575   -0.3120 C   0  0  0  0  0  0  0  0  0  0  0  0
  1 22  1  0  0  0  0
  2  4  1  0  0  0  0
  3  2  1  0  0  0  0
  4  5  1  0  0  0  0
  5  7  2  0  0  0  0
  5  6  1  0  0  0  0
  7  8  1  0  0  0  0
  8 10  2  0  0  0  0
  8  9  1  0  0  0  0
 10 11  1  0  0  0  0
 12 13  1  0  0  0  0
 12 10  1  0  0  0  0
 14 12  2  0  0  0  0
 15 14  1  0  0  0  0
 16 14  1  0  0  0  0
 16  7  1  0  0  0  0
 17 16  2  0  0  0  0
 18 17  1  0  0  0  0
 19 18  1  0  0  0  0
 20  1  1  0  0  0  0
 20 18  2  0  0  0  0
 21 20  1  0  0  0  0
 22 17  1  0  0  0  0
 22  4  2  0  0  0  0
M  END
