4
q = -1.0

 31 32  0  0  1  0  0  0  0  0999 V2000
   -3.0332   -0.7032   -1.5936 S   0  0  0  0  0  0  0  0  0  0  0  0
   -0.0777    0.5299   -2.2884 O   0  0  0  0  0  0  0  0  0  0  0  0
   -2.2373    2.1324   -2.3090 O   0  0  0  0  0  0  0  0  0  0  0  0
   -0.4236   -0.0134   -1.2254 C   0  0  0  0  0  3  0  0  0  0  0  0
   -1.8172    0.3647   -0.6866 C   0  0  1  0  0  0  0  0  0  0  0  0
   -3.4792   -1.9115   -0.3633 C   0  0  0  0  0  0  0  0  0  0  0  0
   -3.7557   -1.5727    0.9778 C   0  0  0  0  0  0  0  0  0  0  0  0
   -4.1315   -2.5684    1.8890 C   0  0  0  0  0  0  0  0  0  0  0  0
   -4.2731   -3.9030    1.4732 C   0  0  0  0  0  0  0  0  0  0  0  0
   -4.0368   -4.2362    0.1298 C   0  0  0  0  0  0  0  0  0  0  0  0
   -3.6342   -3.2504   -0.7836 C   0  0  0  0  0  0  0  0  0  0  0  0
   -2.1599    1.8568   -0.9311 C   0  0  2  0  0  0  0  0  0  0  0  0
   -3.4541    2.2165   -0.2329 C   0  0  0  0  0  0  0  0  0  0  0  0
   -3.4955    2.2950    1.1736 C   0  0  0  0  0  0  0  0  0  0  0  0
   -4.7013    2.5634    1.8377 C   0  0  0  0  0  0  0  0  0  0  0  0
   -5.8798    2.7643    1.0994 C   0  0  0  0  0  0  0  0  0  0  0  0
   -5.8407    2.6969   -0.3021 C   0  0  0  0  0  0  0  0  0  0  0  0
   -4.6352    2.4218   -0.9664 C   0  0  0  0  0  0  0  0  0  0  0  0
   -1.4170    1.7161   -2.6741 H   0  0  0  0  0  0  0  0  0  0  0  0
   -1.9046    0.1244    0.3853 H   0  0  0  0  0  0  0  0  0  0  0  0
   -3.6900   -0.5246    1.3064 H   0  0  0  0  0  0  0  0  0  0  0  0
   -4.3292   -2.2922    2.9359 H   0  0  0  0  0  0  0  0  0  0  0  0
   -4.5732   -4.6793    2.1929 H   0  0  0  0  0  0  0  0  0  0  0  0
   -4.1515   -5.2768   -0.2110 H   0  0  0  0  0  0  0  0  0  0  0  0
   -3.4226   -3.5149   -1.8310 H   0  0  0  0  0  0  0  0  0  0  0  0
   -1.3362    2.4374   -0.4449 H   0  0  0  0  0  0  0  0  0  0  0  0
   -2.5691    2.1472    1.7520 H   0  0  0  0  0  0  0  0  0  0  0  0
   -4.7213    2.6223    2.9370 H   0  0  0  0  0  0  0  0  0  0  0  0
   -6.8273    2.9767    1.6180 H   0  0  0  0  0  0  0  0  0  0  0  0
   -6.7611    2.8553   -0.8853 H   0  0  0  0  0  0  0  0  0  0  0  0
   -4.5832    2.3606   -2.0620 H   0  0  0  0  0  0  0  0  0  0  0  0
  1  5  1  0  0  0  0
  1  6  1  0  0  0  0
  2  4  2  0  0  0  0
  3 12  1  0  0  0  0
  4  5  1  0  0  0  0
  5 20  1  1  0  0  0
  6  7  1  0  0  0  0
  7 21  1  0  0  0  0
  7  8  2  0  0  0  0
  8 22  1  0  0  0  0
  9  8  1  0  0  0  0
  9 23  1  0  0  0  0
 10  9  2  0  0  0  0
 11  6  2  0  0  0  0
 11 10  1  0  0  0  0
 12  5  1  0  0  0  0
 12 26  1  1  0  0  0
 12 13  1  0  0  0  0
 13 14  1  0  0  0  0
 14 27  1  0  0  0  0
 14 15  2  0  0  0  0
 15 28  1  0  0  0  0
 16 29  1  0  0  0  0
 16 15  1  0  0  0  0
 17 16  2  0  0  0  0
 18 17  1  0  0  0  0
 18 13  2  0  0  0  0
 19  3  1  0  0  0  0
 24 10  1  0  0  0  0
 25 11  1  0  0  0  0
 30 17  1  0  0  0  0
 31 18  1  0  0  0  0
M  END
