4
q = -1.0

 24 24  0  0  1  0  0  0  0  0999 V2000
    3.6443   -1.3424   -0.7362 S   0  0  0  0  0  0  0  0  0  0  0  0
    0.5495   -1.5074   -1.7408 O   0  0  0  0  0  0  0  0  0  0  0  0
    1.9324   -3.7129   -1.0186 O   0  0  0  0  0  0  0  0  0  0  0  0
    0.9472   -0.8684   -0.7538 C   0  0  0  0  0  3  0  0  0  0  0  0
    2.0139   -1.5645    0.1215 C   0  0  1  0  0  0  0  0  0  0  0  0
    4.2760    0.1808   -0.0658 C   0  0  0  0  0  0  0  0  0  0  0  0
    5.0409    0.9866   -0.9394 C   0  0  0  0  0  0  0  0  0  0  0  0
    5.6129    2.1836   -0.4860 C   0  0  0  0  0  0  0  0  0  0  0  0
    5.4163    2.6072    0.8388 C   0  0  0  0  0  0  0  0  0  0  0  0
    4.6659    1.8026    1.7129 C   0  0  0  0  0  0  0  0  0  0  0  0
    4.1150    0.5910    1.2740 C   0  0  0  0  0  0  0  0  0  0  0  0
    1.7480   -3.0849    0.2346 C   0  0  2  0  0  0  0  0  0  0  0  0
    2.6421   -3.7631    1.2624 C   0  0  0  0  0  0  0  0  0  0  0  0
    1.3856   -3.1663   -1.6339 H   0  0  0  0  0  0  0  0  0  0  0  0
    2.0721   -1.1072    1.1242 H   0  0  0  0  0  0  0  0  0  0  0  0
    5.1690    0.6729   -1.9870 H   0  0  0  0  0  0  0  0  0  0  0  0
    6.2007    2.8006   -1.1828 H   0  0  0  0  0  0  0  0  0  0  0  0
    5.8479    3.5566    1.1893 H   0  0  0  0  0  0  0  0  0  0  0  0
    4.5073    2.1164    2.7560 H   0  0  0  0  0  0  0  0  0  0  0  0
    3.5431   -0.0248    1.9814 H   0  0  0  0  0  0  0  0  0  0  0  0
    0.6874   -3.1792    0.5764 H   0  0  0  0  0  0  0  0  0  0  0  0
    2.4393   -4.8520    1.2615 H   0  0  0  0  0  0  0  0  0  0  0  0
    2.4475   -3.3670    2.2791 H   0  0  0  0  0  0  0  0  0  0  0  0
    3.7097   -3.6047    1.0108 H   0  0  0  0  0  0  0  0  0  0  0  0
  1  6  1  0  0  0  0
  1  5  1  0  0  0  0
  2  4  2  0  0  0  0
  3 12  1  0  0  0  0
  4  5  1  0  0  0  0
  5 12  1  0  0  0  0
  5 15  1  1  0  0  0
  6 11  1  0  0  0  0
  7  8  1  0  0  0  0
  7  6  2  0  0  0  0
  8  9  2  0  0  0  0
  9 18  1  0  0  0  0
  9 10  1  0  0  0  0
 10 19  1  0  0  0  0
 11 10  2  0  0  0  0
 11 20  1  0  0  0  0
 12 21  1  1  0  0  0
 12 13  1  0  0  0  0
 13 23  1  0  0  0  0
 14  3  1  0  0  0  0
 16  7  1  0  0  0  0
 17  8  1  0  0  0  0
 22 13  1  0  0  0  0
 24 13  1  0  0  0  0
M  END
