4
q = -1.0, confidence = 0.0

 24 24  0  0  1  0  0  0  0  0999 V2000
   -3.5927    0.0763   -1.5163 S   0  0  0  0  0  0  0  0  0  0  0  0
   -0.6169    0.1031   -1.9681 O   0  0  0  0  0  0  0  0  0  0  0  0
   -2.8324    2.7007    0.8845 O   0  0  0  0  0  0  0  0  0  0  0  0
   -0.9493   -0.0136   -0.7932 C   0  0  0  0  0  3  0  0  0  0  0  0
   -2.2729    0.6220   -0.3379 C   0  0  1  0  0  0  0  0  0  0  0  0
   -4.9512   -0.2773   -0.4208 C   0  0  0  0  0  0  0  0  0  0  0  0
   -5.7829   -1.3703   -0.7515 C   0  0  0  0  0  0  0  0  0  0  0  0
   -6.8957   -1.6748    0.0447 C   0  0  0  0  0  0  0  0  0  0  0  0
   -7.1813   -0.9110    1.1884 C   0  0  0  0  0  0  0  0  0  0  0  0
   -6.3518    0.1731    1.5183 C   0  0  0  0  0  0  0  0  0  0  0  0
   -5.2498    0.5053    0.7159 C   0  0  0  0  0  0  0  0  0  0  0  0
   -2.0402    2.1576   -0.1693 C   0  0  1  0  0  0  0  0  0  0  0  0
   -2.2884    2.9522   -1.4382 C   0  0  0  0  0  0  0  0  0  0  0  0
   -2.4386    2.3753    1.7178 H   0  0  0  0  0  0  0  0  0  0  0  0
   -2.5644    0.2074    0.6434 H   0  0  0  0  0  0  0  0  0  0  0  0
   -5.5434   -1.9862   -1.6320 H   0  0  0  0  0  0  0  0  0  0  0  0
   -7.5362   -2.5291   -0.2239 H   0  0  0  0  0  0  0  0  0  0  0  0
   -8.0486   -1.1592    1.8186 H   0  0  0  0  0  0  0  0  0  0  0  0
   -6.5735    0.7859    2.4060 H   0  0  0  0  0  0  0  0  0  0  0  0
   -4.6227    1.3802    0.9518 H   0  0  0  0  0  0  0  0  0  0  0  0
   -0.9637    2.2697    0.0968 H   0  0  0  0  0  0  0  0  0  0  0  0
   -1.6945    2.5232   -2.2684 H   0  0  0  0  0  0  0  0  0  0  0  0
   -1.9914    4.0076   -1.2845 H   0  0  0  0  0  0  0  0  0  0  0  0
   -3.3600    2.9096   -1.7156 H   0  0  0  0  0  0  0  0  0  0  0  0
  1  6  1  0  0  0  0
  1  5  1  0  0  0  0
  2  4  2  0  0  0  0
  3 14  1  0  0  0  0
  4  5  1  0  0  0  0
  5 12  1  0  0  0  0
  5 15  1  1  0  0  0
  6 11  1  0  0  0  0
  7  6  2  0  0  0  0
  7  8  1  0  0  0  0
  8  9  2  0  0  0  0
  9 10  1  0  0  0  0
  9 18  1  0  0  0  0
 10 19  1  0  0  0  0
 11 20  1  0  0  0  0
 11 10  2  0  0  0  0
 12 21  1  1  0  0  0
 12  3  1  0  0  0  0
 13 23  1  0  0  0  0
 13 12  1  0  0  0  0
 16  7  1  0  0  0  0
 17  8  1  0  0  0  0
 22 13  1  0  0  0  0
 24 13  1  0  0  0  0
M  END
