4
q = -1.0, confidence = 0.0

 31 32  0  0  1  0  0  0  0  0999 V2000
    2.6465    0.9356   -1.6966 S   0  0  0  0  0  0  0  0  0  0  0  0
   -0.1989   -1.1944   -2.2476 O   0  0  0  0  0  0  0  0  0  0  0  0
    1.4584   -2.8980   -1.0203 O   0  0  0  0  0  0  0  0  0  0  0  0
    0.2215   -0.3176   -1.4781 C   0  0  0  0  0  3  0  0  0  0  0  0
    1.6912   -0.4680   -0.9878 C   0  0  1  0  0  0  0  0  0  0  0  0
    3.4255    1.7383   -0.3126 C   0  0  0  0  0  0  0  0  0  0  0  0
    3.7034    3.1135   -0.4678 C   0  0  0  0  0  0  0  0  0  0  0  0
    4.3639    3.8184    0.5476 C   0  0  0  0  0  0  0  0  0  0  0  0
    4.7384    3.1679    1.7341 C   0  0  0  0  0  0  0  0  0  0  0  0
    4.4568    1.8013    1.8877 C   0  0  0  0  0  0  0  0  0  0  0  0
    3.8134    1.0813    0.8716 C   0  0  0  0  0  0  0  0  0  0  0  0
    2.3316   -1.8441   -1.3656 C   0  0  1  0  0  0  0  0  0  0  0  0
    3.6432   -2.0301   -0.6309 C   0  0  0  0  0  0  0  0  0  0  0  0
    3.6420   -2.6431    0.6378 C   0  0  0  0  0  0  0  0  0  0  0  0
    4.8252   -2.7289    1.3868 C   0  0  0  0  0  0  0  0  0  0  0  0
    6.0241   -2.2046    0.8762 C   0  0  0  0  0  0  0  0  0  0  0  0
    6.0353   -1.6135   -0.3973 C   0  0  0  0  0  0  0  0  0  0  0  0
    4.8538   -1.5333   -1.1497 C   0  0  0  0  0  0  0  0  0  0  0  0
    0.6380   -2.6947   -1.5233 H   0  0  0  0  0  0  0  0  0  0  0  0
    1.6841   -0.3499    0.1137 H   0  0  0  0  0  0  0  0  0  0  0  0
    3.3921    3.6298   -1.3894 H   0  0  0  0  0  0  0  0  0  0  0  0
    4.5730    4.8909    0.4138 H   0  0  0  0  0  0  0  0  0  0  0  0
    5.2463    3.7243    2.5359 H   0  0  0  0  0  0  0  0  0  0  0  0
    4.7522    1.2752    2.8083 H   0  0  0  0  0  0  0  0  0  0  0  0
    3.6307    0.0058    1.0019 H   0  0  0  0  0  0  0  0  0  0  0  0
    2.5271   -1.8197   -2.4658 H   0  0  0  0  0  0  0  0  0  0  0  0
    2.6946   -3.0497    1.0178 H   0  0  0  0  0  0  0  0  0  0  0  0
    4.8121   -3.2096    2.3776 H   0  0  0  0  0  0  0  0  0  0  0  0
    6.9515   -2.2645    1.4662 H   0  0  0  0  0  0  0  0  0  0  0  0
    6.9729   -1.2104   -0.8095 H   0  0  0  0  0  0  0  0  0  0  0  0
    4.8628   -1.0619   -2.1434 H   0  0  0  0  0  0  0  0  0  0  0  0
  1  5  1  0  0  0  0
  1  6  1  0  0  0  0
  2  4  2  0  0  0  0
  4  5  1  0  0  0  0
  5 20  1  1  0  0  0
  6 11  1  0  0  0  0
  7  6  2  0  0  0  0
  7  8  1  0  0  0  0
  8  9  2  0  0  0  0
  9 10  1  0  0  0  0
  9 23  1  0  0  0  0
 10 24  1  0  0  0  0
 11 25  1  0  0  0  0
 11 10  2  0  0  0  0
 12 26  1  6  0  0  0
 12  3  1  0  0  0  0
 12  5  1  0  0  0  0
 12 13  1  0  0  0  0
 13 14  1  0  0  0  0
 14 27  1  0  0  0  0
 14 15  2  0  0  0  0
 15 28  1  0  0  0  0
 16 15  1  0  0  0  0
 16 29  1  0  0  0  0
 17 16  2  0  0  0  0
 18 13  2  0  0  0  0
 18 17  1  0  0  0  0
 19  3  1  0  0  0  0
 21  7  1  0  0  0  0
 22  8  1  0  0  0  0
 30 17  1  0  0  0  0
 31 18  1  0  0  0  0
M  END
