2
q = 0.0, confidence = 0.958

 11 11  0  0  0  0  0  0  0  0999 V2000
   -3.2323    0.3784    0.0554 O   0  0  0  0  0  0  0  0  0  0  0  0
   -2.0872   -0.3087    0.0770 C   0  0  0  0  0  2  0  0  0  0  0  0
   -2.4080   -1.7883    0.1839 C   0  0  0  0  0  0  0  0  0  0  0  0
   -1.7079   -2.4023   -0.4135 H   0  0  0  0  0  0  0  0  0  0  0  0
   -2.2604   -2.0900    1.2464 H   0  0  0  0  0  0  0  0  0  0  0  0
   -3.8807   -1.8757   -0.2425 C   0  0  0  0  0  0  0  0  0  0  0  0
   -3.9553   -2.0131   -1.3407 H   0  0  0  0  0  0  0  0  0  0  0  0
   -4.4415   -2.6966    0.2436 H   0  0  0  0  0  0  0  0  0  0  0  0
   -4.3941   -0.4928    0.1565 C   0  0  0  0  0  0  0  0  0  0  0  0
   -5.1796   -0.0721   -0.4995 H   0  0  0  0  0  0  0  0  0  0  0  0
   -4.7510   -0.4540    1.2086 H   0  0  0  0  0  0  0  0  0  0  0  0
  1  2  1  0  0  0  0
  1  9  1  0  0  0  0
  2  3  1  0  0  0  0
  3  5  1  0  0  0  0
  4  3  1  0  0  0  0
  6  9  1  0  0  0  0
  6  3  1  0  0  0  0
  6  8  1  0  0  0  0
  7  6  1  0  0  0  0
  9 11  1  0  0  0  0
 10  9  1  0  0  0  0
M  END
