1
q = 0.0, confidence = 1.0

 33 34  0  0  0  0  0  0  0  0999 V2000
    1.5878   -0.0399   -0.3792 C   0  0  0  0  0  2  0  0  0  0  0  0
    2.4157    1.0517   -0.4309 N   0  0  0  0  0  0  0  0  0  0  0  0
    2.4095   -1.1378   -0.3599 N   0  0  0  0  0  0  0  0  0  0  0  0
    3.7540    0.6615   -0.4336 C   0  0  0  0  0  0  0  0  0  0  0  0
    3.7490   -0.7553   -0.3899 C   0  0  0  0  0  0  0  0  0  0  0  0
    4.9425   -1.4929   -0.3987 C   0  0  0  0  0  0  0  0  0  0  0  0
    4.9401   -2.5912   -0.3683 H   0  0  0  0  0  0  0  0  0  0  0  0
    6.1421   -0.7680   -0.4476 C   0  0  0  0  0  0  0  0  0  0  0  0
    7.0984   -1.3112   -0.4543 H   0  0  0  0  0  0  0  0  0  0  0  0
    6.1481    0.6444   -0.4873 C   0  0  0  0  0  0  0  0  0  0  0  0
    7.1093    1.1778   -0.5225 H   0  0  0  0  0  0  0  0  0  0  0  0
    4.9561    1.3834   -0.4823 C   0  0  0  0  0  0  0  0  0  0  0  0
    4.9680    2.4815   -0.5106 H   0  0  0  0  0  0  0  0  0  0  0  0
    1.9404   -2.5163   -0.2388 C   0  0  0  0  0  0  0  0  0  0  0  0
    2.4914   -3.1316   -0.9800 H   0  0  0  0  0  0  0  0  0  0  0  0
    0.8719   -2.5039   -0.5344 H   0  0  0  0  0  0  0  0  0  0  0  0
    2.1025   -3.0880    1.1759 C   0  0  0  0  0  0  0  0  0  0  0  0
    1.7442   -4.1389    1.1399 H   0  0  0  0  0  0  0  0  0  0  0  0
    3.1833   -3.1439    1.4307 H   0  0  0  0  0  0  0  0  0  0  0  0
    1.3477   -2.3076    2.2513 C   0  0  0  0  0  0  0  0  0  0  0  0
    1.7259   -1.2688    2.3421 H   0  0  0  0  0  0  0  0  0  0  0  0
    1.4585   -2.7903    3.2423 H   0  0  0  0  0  0  0  0  0  0  0  0
    0.2651   -2.2389    2.0194 H   0  0  0  0  0  0  0  0  0  0  0  0
    1.9296    2.4327   -0.4103 C   0  0  0  0  0  0  0  0  0  0  0  0
    1.0492    2.4778   -1.0814 H   0  0  0  0  0  0  0  0  0  0  0  0
    2.7238    3.0683   -0.8518 H   0  0  0  0  0  0  0  0  0  0  0  0
    1.5471    2.9144    0.9933 C   0  0  0  0  0  0  0  0  0  0  0  0
    1.1537    3.9480    0.8891 H   0  0  0  0  0  0  0  0  0  0  0  0
    0.6936    2.2946    1.3442 H   0  0  0  0  0  0  0  0  0  0  0  0
    2.6867    2.8769    2.0101 C   0  0  0  0  0  0  0  0  0  0  0  0
    3.0691    1.8457    2.1571 H   0  0  0  0  0  0  0  0  0  0  0  0
    2.3484    3.2460    2.9983 H   0  0  0  0  0  0  0  0  0  0  0  0
    3.5436    3.5077    1.6931 H   0  0  0  0  0  0  0  0  0  0  0  0
  1  3  1  0  0  0  0
  2 24  1  0  0  0  0
  2  1  1  0  0  0  0
  3 14  1  0  0  0  0
  4  2  1  0  0  0  0
  4  5  1  0  0  0  0
  5  3  1  0  0  0  0
  6  5  2  0  0  0  0
  6  7  1  0  0  0  0
  8  6  1  0  0  0  0
  9  8  1  0  0  0  0
 10 12  1  0  0  0  0
 10  8  2  0  0  0  0
 11 10  1  0  0  0  0
 12  4  2  0  0  0  0
 13 12  1  0  0  0  0
 14 17  1  0  0  0  0
 15 14  1  0  0  0  0
 16 14  1  0  0  0  0
 17 19  1  0  0  0  0
 17 20  1  0  0  0  0
 18 17  1  0  0  0  0
 20 21  1  0  0  0  0
 20 22  1  0  0  0  0
 23 20  1  0  0  0  0
 24 27  1  0  0  0  0
 25 24  1  0  0  0  0
 26 24  1  0  0  0  0
 27 29  1  0  0  0  0
 27 30  1  0  0  0  0
 28 27  1  0  0  0  0
 30 31  1  0  0  0  0
 30 32  1  0  0  0  0
 33 30  1  0  0  0  0
M  END
