1
q = -1.0, confidence = 0.0

 21 21  0  0  0  0  0  0  0  0999 V2000
    0.9653    1.2404   -0.0001 C   0  0  0  0  0  3  0  0  0  0  0  0
    1.0769    2.5975   -0.0001 C   0  0  0  0  0  0  0  0  0  0  0  0
    2.4026    3.3248   -0.0000 C   0  0  0  0  0  0  0  0  0  0  0  0
   -0.1221    3.5137   -0.0002 C   0  0  0  0  0  0  0  0  0  0  0  0
    2.1667    0.3647   -0.0000 C   0  0  0  0  0  0  0  0  0  0  0  0
    2.7377   -0.0942    1.2133 C   0  0  0  0  0  0  0  0  0  0  0  0
    3.8102   -0.9951    1.2133 C   0  0  0  0  0  0  0  0  0  0  0  0
    4.3431   -1.4605    0.0002 C   0  0  0  0  0  0  0  0  0  0  0  0
    3.8102   -0.9952   -1.2130 C   0  0  0  0  0  0  0  0  0  0  0  0
    2.7378   -0.0943   -1.2133 C   0  0  0  0  0  0  0  0  0  0  0  0
    2.4906    3.9900    0.8877 H   0  0  0  0  0  0  0  0  0  0  0  0
    2.4908    3.9899   -0.8878 H   0  0  0  0  0  0  0  0  0  0  0  0
    3.2645    2.6319    0.0001 H   0  0  0  0  0  0  0  0  0  0  0  0
   -0.1144    4.1859   -0.8874 H   0  0  0  0  0  0  0  0  0  0  0  0
   -0.1147    4.1856    0.8873 H   0  0  0  0  0  0  0  0  0  0  0  0
   -1.0779    2.9591   -0.0004 H   0  0  0  0  0  0  0  0  0  0  0  0
    2.3242    0.2721    2.1654 H   0  0  0  0  0  0  0  0  0  0  0  0
    4.2347   -1.3393    2.1691 H   0  0  0  0  0  0  0  0  0  0  0  0
    5.1781   -2.1773    0.0002 H   0  0  0  0  0  0  0  0  0  0  0  0
    4.2349   -1.3395   -2.1688 H   0  0  0  0  0  0  0  0  0  0  0  0
    2.3243    0.2719   -2.1654 H   0  0  0  0  0  0  0  0  0  0  0  0
  1  2  2  0  0  0  0
  1  5  1  0  0  0  0
  2  3  1  0  0  0  0
  3 13  1  0  0  0  0
  3 11  1  0  0  0  0
  4  2  1  0  0  0  0
  4 15  1  0  0  0  0
  5  6  1  0  0  0  0
  6 17  1  0  0  0  0
  7  6  2  0  0  0  0
  7 18  1  0  0  0  0
  8 19  1  0  0  0  0
  8  7  1  0  0  0  0
  9  8  2  0  0  0  0
 10  9  1  0  0  0  0
 10  5  2  0  0  0  0
 12  3  1  0  0  0  0
 14  4  1  0  0  0  0
 16  4  1  0  0  0  0
 20  9  1  0  0  0  0
 21 10  1  0  0  0  0
M  END
