1
q = -1.0, confidence = 0.0

 26 28  0  0  0  0  0  0  0  0999 V2000
    0.4118    1.2945   -0.2586 C   0  0  0  0  0  3  0  0  0  0  0  0
   -0.7530    0.8539   -0.2214 C   0  0  0  0  0  0  0  0  0  0  0  0
   -2.0402    0.2692   -0.2086 C   0  0  0  0  0  0  0  0  0  0  0  0
   -2.1870   -1.1256   -0.3830 C   0  0  0  0  0  0  0  0  0  0  0  0
   -1.2835   -1.7342   -0.5271 H   0  0  0  0  0  0  0  0  0  0  0  0
   -3.4524   -1.7323   -0.3812 C   0  0  0  0  0  0  0  0  0  0  0  0
   -3.5618   -2.8181   -0.5203 H   0  0  0  0  0  0  0  0  0  0  0  0
   -4.6168   -0.9754   -0.2054 C   0  0  0  0  0  0  0  0  0  0  0  0
   -5.9323   -1.6516   -0.2122 C   0  0  0  0  0  0  0  0  0  0  0  0
   -6.0626   -2.8658   -0.3675 O   0  0  0  0  0  0  0  0  0  0  0  0
   -7.0621   -0.8174   -0.0275 N   0  0  0  0  0  0  0  0  0  0  0  0
   -8.3840   -1.4358   -0.0261 C   0  0  0  0  0  0  0  0  0  0  0  0
   -9.0095   -1.0005   -0.8297 H   0  0  0  0  0  0  0  0  0  0  0  0
   -8.8957   -1.2401    0.9364 H   0  0  0  0  0  0  0  0  0  0  0  0
   -8.2430   -2.5187   -0.1821 H   0  0  0  0  0  0  0  0  0  0  0  0
   -8.0788    1.2026    0.3110 O   0  0  0  0  0  0  0  0  0  0  0  0
   -7.0306    0.5768    0.1585 C   0  0  0  0  0  0  0  0  0  0  0  0
   -5.6906    1.2186    0.1577 C   0  0  0  0  0  0  0  0  0  0  0  0
   -5.5953    2.5991    0.3371 C   0  0  0  0  0  0  0  0  0  0  0  0
   -6.5278    3.1665    0.4738 H   0  0  0  0  0  0  0  0  0  0  0  0
   -4.3315    3.2300    0.3408 C   0  0  0  0  0  0  0  0  0  0  0  0
   -4.2657    4.3190    0.4843 H   0  0  0  0  0  0  0  0  0  0  0  0
   -3.1710    2.4804    0.1645 C   0  0  0  0  0  0  0  0  0  0  0  0
   -2.1791    2.9583    0.1667 H   0  0  0  0  0  0  0  0  0  0  0  0
   -3.2308    1.0738   -0.0223 C   0  0  0  0  0  0  0  0  0  0  0  0
   -4.5156    0.4333   -0.0240 C   0  0  0  0  0  0  0  0  0  0  0  0
  1  2  3  0  0  0  0
  2  3  1  0  0  0  0
  3 25  1  0  0  0  0
  4  6  1  0  0  0  0
  4  3  2  0  0  0  0
  5  4  1  0  0  0  0
  6  8  2  0  0  0  0
  7  6  1  0  0  0  0
  8 26  1  0  0  0  0
  9  8  1  0  0  0  0
  9 11  1  0  0  0  0
 10  9  2  0  0  0  0
 11 12  1  0  0  0  0
 11 17  1  0  0  0  0
 12 14  1  0  0  0  0
 13 12  1  0  0  0  0
 15 12  1  0  0  0  0
 17 16  2  0  0  0  0
 18 17  1  0  0  0  0
 18 19  1  0  0  0  0
 19 21  2  0  0  0  0
 19 20  1  0  0  0  0
 21 22  1  0  0  0  0
 23 24  1  0  0  0  0
 23 21  1  0  0  0  0
 25 23  2  0  0  0  0
 26 25  1  0  0  0  0
 26 18  2  0  0  0  0
M  END
