5
q = -1.0

 17 16  0  0  0  0  0  0  0  0999 V2000
    0.0668    4.7664    0.2810 O   0  0  0  0  0  0  0  0  0  0  0  0
   -2.1028    4.0897    0.3134 O   0  0  0  0  0  0  0  0  0  0  0  0
   -3.2052    1.4789   -0.8114 O   0  0  0  0  0  0  0  0  0  0  0  0
   -3.0786    1.3489    1.4546 O   0  0  0  0  0  0  0  0  0  0  0  0
   -1.0528    1.3198    0.1641 C   0  0  0  0  0  3  0  0  0  0  0  0
   -0.3155    2.4639    0.1754 C   0  0  0  0  0  0  0  0  0  0  0  0
    0.7804    2.4416    0.0909 H   0  0  0  0  0  0  0  0  0  0  0  0
   -0.9128    3.8083    0.2650 C   0  0  0  0  0  0  0  0  0  0  0  0
   -0.4083    6.1091    0.3616 C   0  0  0  0  0  0  0  0  0  0  0  0
    0.4877    6.7561    0.3679 H   0  0  0  0  0  0  0  0  0  0  0  0
   -1.0048    6.2682    1.2838 H   0  0  0  0  0  0  0  0  0  0  0  0
   -1.0564    6.3576   -0.5045 H   0  0  0  0  0  0  0  0  0  0  0  0
   -2.5340    1.4070    0.3615 C   0  0  0  0  0  0  0  0  0  0  0  0
   -4.6325    1.4523   -0.6885 C   0  0  0  0  0  0  0  0  0  0  0  0
   -4.9833    2.3023   -0.0703 H   0  0  0  0  0  0  0  0  0  0  0  0
   -4.9510    0.4987   -0.2223 H   0  0  0  0  0  0  0  0  0  0  0  0
   -5.0292    1.5326   -1.7167 H   0  0  0  0  0  0  0  0  0  0  0  0
  1  9  1  0  0  0  0
  3 14  1  0  0  0  0
  3 13  1  0  0  0  0
  5  6  2  0  0  0  0
  5 13  1  0  0  0  0
  6  8  1  0  0  0  0
  7  6  1  0  0  0  0
  8  1  1  0  0  0  0
  8  2  2  0  0  0  0
  9 10  1  0  0  0  0
  9 11  1  0  0  0  0
 12  9  1  0  0  0  0
 13  4  2  0  0  0  0
 14 16  1  0  0  0  0
 14 15  1  0  0  0  0
 17 14  1  0  0  0  0
M  END
