1
q = 0.0, confidence = 0.996

 25 26  0  0  0  0  0  0  0  0999 V2000
   -1.0559   -1.7119   -0.1522 C   0  0  0  0  0  2  0  0  0  0  0  0
   -2.7876   -3.1891   -0.2660 C   0  0  0  0  0  0  0  0  0  0  0  0
   -3.8204   -3.5311   -0.1582 H   0  0  0  0  0  0  0  0  0  0  0  0
   -1.6515   -3.8437   -0.6623 C   0  0  0  0  0  0  0  0  0  0  0  0
   -1.4974   -4.8779   -0.9835 H   0  0  0  0  0  0  0  0  0  0  0  0
    0.7851   -3.1994   -0.9306 C   0  0  0  0  0  0  0  0  0  0  0  0
    1.2574   -2.2096   -1.0904 H   0  0  0  0  0  0  0  0  0  0  0  0
    0.7926   -3.7361   -1.9020 H   0  0  0  0  0  0  0  0  0  0  0  0
    1.5231   -3.9773    0.1532 C   0  0  0  0  0  0  0  0  0  0  0  0
    1.5235   -3.4014    1.1006 H   0  0  0  0  0  0  0  0  0  0  0  0
    2.5754   -4.1374   -0.1554 H   0  0  0  0  0  0  0  0  0  0  0  0
    1.0618   -4.9693    0.3356 H   0  0  0  0  0  0  0  0  0  0  0  0
   -3.2862   -0.8408    0.4557 C   0  0  0  0  0  0  0  0  0  0  0  0
   -4.4173   -0.5528   -0.3249 C   0  0  0  0  0  0  0  0  0  0  0  0
   -4.6025   -1.1246   -1.2455 H   0  0  0  0  0  0  0  0  0  0  0  0
   -5.2702    0.4925    0.0581 C   0  0  0  0  0  0  0  0  0  0  0  0
   -6.1514    0.7272   -0.5574 H   0  0  0  0  0  0  0  0  0  0  0  0
   -4.9873    1.2509    1.2052 C   0  0  0  0  0  0  0  0  0  0  0  0
   -5.6548    2.0753    1.4981 H   0  0  0  0  0  0  0  0  0  0  0  0
   -3.8527    0.9538    1.9781 C   0  0  0  0  0  0  0  0  0  0  0  0
   -3.6303    1.5386    2.8836 H   0  0  0  0  0  0  0  0  0  0  0  0
   -2.9980   -0.0961    1.6119 C   0  0  0  0  0  0  0  0  0  0  0  0
   -2.1056   -0.3429    2.2070 H   0  0  0  0  0  0  0  0  0  0  0  0
   -2.4007   -1.8883    0.0523 N   0  0  0  0  0  0  0  0  0  0  0  0
   -0.6115   -2.9239   -0.5868 N   0  0  0  0  0  0  0  0  0  0  0  0
  1 24  1  0  0  0  0
  2  3  1  0  0  0  0
  2 24  1  0  0  0  0
  4 25  1  0  0  0  0
  4  2  2  0  0  0  0
  5  4  1  0  0  0  0
  6 25  1  0  0  0  0
  6  9  1  0  0  0  0
  7  6  1  0  0  0  0
  8  6  1  0  0  0  0
  9 12  1  0  0  0  0
  9 10  1  0  0  0  0
 11  9  1  0  0  0  0
 13 22  1  0  0  0  0
 14 16  1  0  0  0  0
 14 13  2  0  0  0  0
 15 14  1  0  0  0  0
 16 18  2  0  0  0  0
 17 16  1  0  0  0  0
 18 19  1  0  0  0  0
 18 20  1  0  0  0  0
 20 21  1  0  0  0  0
 22 20  2  0  0  0  0
 22 23  1  0  0  0  0
 24 13  1  0  0  0  0
 25  1  1  0  0  0  0
M  END
