1
q = 0.0, confidence = 1.0

 37 38  0  0  0  0  0  0  0  0999 V2000
   -0.7282    1.8833   -0.7523 C   0  0  0  0  0  2  0  0  0  0  0  0
   -0.0541    3.9343   -1.4772 C   0  0  0  0  0  0  0  0  0  0  0  0
    0.6593    4.7372   -1.6820 H   0  0  0  0  0  0  0  0  0  0  0  0
   -1.3980    3.8303   -1.7165 C   0  0  0  0  0  0  0  0  0  0  0  0
   -2.0970    4.5368   -2.1719 H   0  0  0  0  0  0  0  0  0  0  0  0
   -3.1722    2.0682   -1.2600 C   0  0  0  0  0  0  0  0  0  0  0  0
   -3.0554    0.9971   -0.9933 H   0  0  0  0  0  0  0  0  0  0  0  0
   -3.7944    2.1572   -2.6521 C   0  0  0  0  0  0  0  0  0  0  0  0
   -3.9326    3.2082   -2.9814 H   0  0  0  0  0  0  0  0  0  0  0  0
   -4.7937    1.6794   -2.6425 H   0  0  0  0  0  0  0  0  0  0  0  0
   -3.1643    1.6251   -3.3914 H   0  0  0  0  0  0  0  0  0  0  0  0
   -3.9825    2.7690   -0.1678 C   0  0  0  0  0  0  0  0  0  0  0  0
   -3.4935    2.6353    0.8182 H   0  0  0  0  0  0  0  0  0  0  0  0
   -5.0014    2.3362   -0.1161 H   0  0  0  0  0  0  0  0  0  0  0  0
   -4.0849    3.8553   -0.3717 H   0  0  0  0  0  0  0  0  0  0  0  0
    1.6734    2.5004   -0.3923 C   0  0  0  0  0  0  0  0  0  0  0  0
    2.0609    3.1306    0.8159 C   0  0  0  0  0  0  0  0  0  0  0  0
    1.1107    4.0149    1.5780 C   0  0  0  0  0  0  0  0  0  0  0  0
    1.5657    4.3542    2.5274 H   0  0  0  0  0  0  0  0  0  0  0  0
    0.1739    3.4699    1.8204 H   0  0  0  0  0  0  0  0  0  0  0  0
    0.8263    4.9151    0.9946 H   0  0  0  0  0  0  0  0  0  0  0  0
    3.3670    2.9060    1.2805 C   0  0  0  0  0  0  0  0  0  0  0  0
    3.6766    3.3782    2.2268 H   0  0  0  0  0  0  0  0  0  0  0  0
    4.2837    2.1064    0.5717 C   0  0  0  0  0  0  0  0  0  0  0  0
    5.6722    1.8709    1.1116 C   0  0  0  0  0  0  0  0  0  0  0  0
    5.6401    1.2725    2.0474 H   0  0  0  0  0  0  0  0  0  0  0  0
    6.1799    2.8248    1.3628 H   0  0  0  0  0  0  0  0  0  0  0  0
    6.3064    1.3258    0.3859 H   0  0  0  0  0  0  0  0  0  0  0  0
    3.8670    1.5322   -0.6394 C   0  0  0  0  0  0  0  0  0  0  0  0
    4.5748    0.9194   -1.2182 H   0  0  0  0  0  0  0  0  0  0  0  0
    2.5658    1.7096   -1.1472 C   0  0  0  0  0  0  0  0  0  0  0  0
    2.1580    1.0664   -2.4421 C   0  0  0  0  0  0  0  0  0  0  0  0
    1.5378    0.1626   -2.2604 H   0  0  0  0  0  0  0  0  0  0  0  0
    3.0451    0.7585   -3.0272 H   0  0  0  0  0  0  0  0  0  0  0  0
    1.5368    1.7399   -3.0650 H   0  0  0  0  0  0  0  0  0  0  0  0
    0.3392    2.7367   -0.8825 N   0  0  0  0  0  0  0  0  0  0  0  0
   -1.7864    2.5744   -1.2670 N   0  0  0  0  0  0  0  0  0  0  0  0
  2 36  1  0  0  0  0
  3  2  1  0  0  0  0
  4  2  2  0  0  0  0
  4 37  1  0  0  0  0
  5  4  1  0  0  0  0
  6  7  1  0  0  0  0
  6 12  1  0  0  0  0
  8 10  1  0  0  0  0
  8  6  1  0  0  0  0
  9  8  1  0  0  0  0
 11  8  1  0  0  0  0
 12 14  1  0  0  0  0
 12 13  1  0  0  0  0
 15 12  1  0  0  0  0
 16 17  1  0  0  0  0
 17 22  2  0  0  0  0
 17 18  1  0  0  0  0
 18 20  1  0  0  0  0
 18 19  1  0  0  0  0
 21 18  1  0  0  0  0
 22 23  1  0  0  0  0
 24 25  1  0  0  0  0
 24 22  1  0  0  0  0
 25 27  1  0  0  0  0
 25 26  1  0  0  0  0
 28 25  1  0  0  0  0
 29 24  2  0  0  0  0
 30 29  1  0  0  0  0
 31 29  1  0  0  0  0
 31 16  2  0  0  0  0
 32 33  1  0  0  0  0
 32 31  1  0  0  0  0
 34 32  1  0  0  0  0
 35 32  1  0  0  0  0
 36  1  1  0  0  0  0
 36 16  1  0  0  0  0
 37  6  1  0  0  0  0
 37  1  1  0  0  0  0
M  END
