1
q = 0.0, confidence = 0.992

 28 30  0  0  1  0  0  0  0  0999 V2000
   -0.5572    0.0494   -0.3705 C   0  0  0  0  0  2  0  0  0  0  0  0
   -1.4251    1.0776   -0.4079 N   0  0  1  0  0  0  0  0  0  0  0  0
   -2.8775    0.8874   -0.6144 C   0  0  2  0  0  0  0  0  0  0  0  0
   -3.4784    2.2513   -0.2419 C   0  0  0  0  0  0  0  0  0  0  0  0
   -2.3598    3.2388   -0.5878 C   0  0  0  0  0  0  0  0  0  0  0  0
   -1.0939    2.4875   -0.1658 C   0  0  0  0  0  0  0  0  0  0  0  0
   -3.3780   -0.2100    0.1864 N   0  0  1  0  0  0  0  0  0  0  0  0
   -4.7418   -0.6246   -0.1388 C   0  0  0  0  0  0  0  0  0  0  0  0
   -4.8095   -2.0727    0.3547 C   0  0  0  0  0  0  0  0  0  0  0  0
   -3.4170   -2.5983   -0.0178 C   0  0  0  0  0  0  0  0  0  0  0  0
   -2.4965   -1.4004    0.2804 C   0  0  1  0  0  0  0  0  0  0  0  0
   -1.2860   -1.2573   -0.6522 C   0  0  0  0  0  0  0  0  0  0  0  0
   -3.0530    0.6934   -1.7127 H   0  0  0  0  0  0  0  0  0  0  0  0
   -3.6720    2.2386    0.8508 H   0  0  0  0  0  0  0  0  0  0  0  0
   -4.4336    2.4520   -0.7643 H   0  0  0  0  0  0  0  0  0  0  0  0
   -2.3405    3.4356   -1.6804 H   0  0  0  0  0  0  0  0  0  0  0  0
   -2.4634    4.2143   -0.0758 H   0  0  0  0  0  0  0  0  0  0  0  0
   -0.8564    2.6356    0.9104 H   0  0  0  0  0  0  0  0  0  0  0  0
   -0.1910    2.7743   -0.7354 H   0  0  0  0  0  0  0  0  0  0  0  0
   -5.4950    0.0355    0.3429 H   0  0  0  0  0  0  0  0  0  0  0  0
   -4.9351   -0.5849   -1.2457 H   0  0  0  0  0  0  0  0  0  0  0  0
   -4.9496   -2.0922    1.4554 H   0  0  0  0  0  0  0  0  0  0  0  0
   -5.6393   -2.6444   -0.1044 H   0  0  0  0  0  0  0  0  0  0  0  0
   -3.3835   -2.8365   -1.1032 H   0  0  0  0  0  0  0  0  0  0  0  0
   -3.1199   -3.5113    0.5344 H   0  0  0  0  0  0  0  0  0  0  0  0
   -2.1016   -1.4768    1.3204 H   0  0  0  0  0  0  0  0  0  0  0  0
   -1.6385   -1.2667   -1.7109 H   0  0  0  0  0  0  0  0  0  0  0  0
   -0.6135   -2.1241   -0.5234 H   0  0  0  0  0  0  0  0  0  0  0  0
  2  1  1  1  0  0  0
  2  6  1  0  0  0  0
  3 13  1  6  0  0  0
  3  2  1  0  0  0  0
  3  4  1  0  0  0  0
  3  7  1  0  0  0  0
  4 14  1  0  0  0  0
  5  4  1  0  0  0  0
  5  6  1  0  0  0  0
  5 17  1  0  0  0  0
  6 18  1  0  0  0  0
  7  8  1  6  0  0  0
  7 11  1  0  0  0  0
  8 20  1  0  0  0  0
  8  9  1  0  0  0  0
  9 22  1  0  0  0  0
 10 11  1  0  0  0  0
 10  9  1  0  0  0  0
 10 25  1  0  0  0  0
 11 26  1  1  0  0  0
 12 28  1  0  0  0  0
 12  1  1  0  0  0  0
 12 11  1  0  0  0  0
 15  4  1  0  0  0  0
 16  5  1  0  0  0  0
 19  6  1  0  0  0  0
 21  8  1  0  0  0  0
 23  9  1  0  0  0  0
 24 10  1  0  0  0  0
 27 12  1  0  0  0  0
M  END
