1
q = 0.0, confidence = 0.994

 37 37  0  0  1  0  0  0  0  0999 V2000
    0.4405    0.6578    0.3868 C   0  0  1  0  0  3  0  0  0  0  0  0
    0.2233   -0.7378    0.7301 C   0  0  0  0  0  0  0  0  0  0  0  0
   -0.4992   -1.4179    0.2605 H   0  0  0  0  0  0  0  0  0  0  0  0
    1.1408   -1.0797    1.7801 C   0  0  0  0  0  0  0  0  0  0  0  0
    1.2443   -2.0682    2.2438 H   0  0  0  0  0  0  0  0  0  0  0  0
    1.9259    0.0834    2.0942 C   0  0  0  0  0  0  0  0  0  0  0  0
    2.7301    0.1332    2.8382 H   0  0  0  0  0  0  0  0  0  0  0  0
    1.5020    1.1590    1.2432 C   0  0  0  0  0  0  0  0  0  0  0  0
    1.9215    2.1735    1.2277 H   0  0  0  0  0  0  0  0  0  0  0  0
   -0.2640    1.4241   -0.6706 C   0  0  0  0  0  0  0  0  0  0  0  0
   -0.5910    0.7730   -1.5017 H   0  0  0  0  0  0  0  0  0  0  0  0
    0.3734    2.2272   -1.0880 H   0  0  0  0  0  0  0  0  0  0  0  0
   -1.1783    3.1611    0.8649 C   0  0  0  0  0  0  0  0  0  0  0  0
   -2.0880    3.7019    1.1818 H   0  0  0  0  0  0  0  0  0  0  0  0
   -0.4471    3.8719    0.4394 H   0  0  0  0  0  0  0  0  0  0  0  0
   -0.7293    2.6323    1.7233 H   0  0  0  0  0  0  0  0  0  0  0  0
   -2.1632    2.8641   -1.3504 C   0  0  0  0  0  0  0  0  0  0  0  0
   -2.3780    2.1377   -2.1524 H   0  0  0  0  0  0  0  0  0  0  0  0
   -1.4505    3.6227   -1.7208 H   0  0  0  0  0  0  0  0  0  0  0  0
   -3.0993    3.3557   -1.0283 H   0  0  0  0  0  0  0  0  0  0  0  0
   -2.5362    1.1716    0.4396 C   0  0  0  0  0  0  0  0  0  0  0  0
   -1.9875    0.7011    1.2784 H   0  0  0  0  0  0  0  0  0  0  0  0
   -3.3476    1.7914    0.8712 H   0  0  0  0  0  0  0  0  0  0  0  0
   -3.1062    0.1110   -0.4913 C   0  0  0  0  0  0  0  0  0  0  0  0
   -2.2925   -0.4306   -1.0181 H   0  0  0  0  0  0  0  0  0  0  0  0
   -3.7424    0.5724   -1.2756 H   0  0  0  0  0  0  0  0  0  0  0  0
   -3.9441   -0.9053    0.2984 C   0  0  0  0  0  0  0  0  0  0  0  0
   -3.3048   -1.3830    1.0743 H   0  0  0  0  0  0  0  0  0  0  0  0
   -4.7478   -0.3728    0.8541 H   0  0  0  0  0  0  0  0  0  0  0  0
   -4.5681   -1.9875   -0.5889 C   0  0  0  0  0  0  0  0  0  0  0  0
   -3.7596   -2.5092   -1.1481 H   0  0  0  0  0  0  0  0  0  0  0  0
   -5.2042   -1.5024   -1.3618 H   0  0  0  0  0  0  0  0  0  0  0  0
   -5.3936   -3.0045    0.1986 C   0  0  0  0  0  0  0  0  0  0  0  0
   -4.7748   -3.5306    0.9545 H   0  0  0  0  0  0  0  0  0  0  0  0
   -5.8299   -3.7730   -0.4687 H   0  0  0  0  0  0  0  0  0  0  0  0
   -6.2316   -2.5153    0.7367 H   0  0  0  0  0  0  0  0  0  0  0  0
   -1.5509    2.1547   -0.1824 N   0  3  0  0  0  0  0  0  0  0  0  0
  1 10  1  6  0  0  0
  1  2  1  0  0  0  0
  1  8  1  0  0  0  0
  2  4  2  0  0  0  0
  3  2  1  0  0  0  0
  4  6  1  0  0  0  0
  4  5  1  0  0  0  0
  6  7  1  0  0  0  0
  8  6  2  0  0  0  0
  9  8  1  0  0  0  0
 10 37  1  0  0  0  0
 11 10  1  0  0  0  0
 12 10  1  0  0  0  0
 13 14  1  0  0  0  0
 13 16  1  0  0  0  0
 15 13  1  0  0  0  0
 17 20  1  0  0  0  0
 17 37  1  0  0  0  0
 18 17  1  0  0  0  0
 19 17  1  0  0  0  0
 21 23  1  0  0  0  0
 21 22  1  0  0  0  0
 24 27  1  0  0  0  0
 24 21  1  0  0  0  0
 25 24  1  0  0  0  0
 26 24  1  0  0  0  0
 27 29  1  0  0  0  0
 27 28  1  0  0  0  0
 30 33  1  0  0  0  0
 30 27  1  0  0  0  0
 31 30  1  0  0  0  0
 32 30  1  0  0  0  0
 33 36  1  0  0  0  0
 33 34  1  0  0  0  0
 35 33  1  0  0  0  0
 37 21  1  0  0  0  0
 37 13  1  0  0  0  0
M  CHG  1  37   1
M  END
