4
q = -1.0

 20 19  0  0  0  0  0  0  0  0999 V2000
    0.3857   -2.2266   -0.4881 C   0  0  0  0  0  2  0  0  0  0  0  0
   -0.7370   -2.7834    0.0791 C   0  0  0  0  0  0  0  0  0  0  0  0
   -1.9012   -1.9362    0.0140 C   0  0  0  0  0  0  0  0  0  0  0  0
   -1.6345   -0.7822   -0.6620 C   0  0  0  0  0  2  0  0  0  0  0  0
   -1.6154    0.5316   -0.9903 C   0  0  0  0  0  3  0  0  0  0  0  0
   -2.2225    1.7337   -1.0329 C   0  0  0  0  0  0  0  0  0  0  0  0
   -0.7449   -3.7560    0.5929 H   0  0  0  0  0  0  0  0  0  0  0  0
   -1.6926    2.6500   -1.3304 H   0  0  0  0  0  0  0  0  0  0  0  0
    1.6552   -3.0170   -0.4345 C   0  0  0  0  0  0  0  0  0  0  0  0
    2.0748   -3.4325   -1.6765 F   0  0  0  0  0  0  0  0  0  0  0  0
    2.7022   -2.3003    0.0810 F   0  0  0  0  0  0  0  0  0  0  0  0
    1.5660   -4.1430    0.3179 F   0  0  0  0  0  0  0  0  0  0  0  0
   -3.2110   -2.2385    0.6837 C   0  0  0  0  0  0  0  0  0  0  0  0
   -3.0625   -3.1846    1.6469 F   0  0  0  0  0  0  0  0  0  0  0  0
   -3.7444   -1.1386    1.2805 F   0  0  0  0  0  0  0  0  0  0  0  0
   -4.1439   -2.7015   -0.1859 F   0  0  0  0  0  0  0  0  0  0  0  0
   -3.6051    1.9412   -0.5016 C   0  0  0  0  0  0  0  0  0  0  0  0
   -3.5899    2.2184    0.8416 F   0  0  0  0  0  0  0  0  0  0  0  0
   -4.4074    0.8667   -0.6667 F   0  0  0  0  0  0  0  0  0  0  0  0
   -4.2020    3.0024   -1.1017 F   0  0  0  0  0  0  0  0  0  0  0  0
  1  9  1  0  0  0  0
  1  2  1  0  0  0  0
  2  7  1  0  0  0  0
  3  2  2  0  0  0  0
  3 13  1  0  0  0  0
  4  3  1  0  0  0  0
  5  4  1  0  0  0  0
  6  5  2  0  0  0  0
  6 17  1  0  0  0  0
  8  6  1  0  0  0  0
  9 11  1  0  0  0  0
  9 12  1  0  0  0  0
 10  9  1  0  0  0  0
 13 15  1  0  0  0  0
 13 14  1  0  0  0  0
 16 13  1  0  0  0  0
 17 18  1  0  0  0  0
 19 17  1  0  0  0  0
 20 17  1  0  0  0  0
M  END
