1
q = 0.0, confidence = 0.998

 50 53  0  0  1  0  0  0  0  0999 V2000
   -1.0973   -0.4497   -0.0186 C   0  0  1  0  0  3  0  0  0  0  0  0
   -0.9275   -1.8906   -0.0500 C   0  0  0  0  0  0  0  0  0  0  0  0
   -1.8126   -2.9527   -0.2375 C   0  0  0  0  0  0  0  0  0  0  0  0
   -1.0575   -4.1540   -0.1549 C   0  0  0  0  0  0  0  0  0  0  0  0
    0.2464   -3.7688    0.0847 C   0  0  0  0  0  0  0  0  0  0  0  0
    0.3431   -2.4204    0.1416 O   0  0  0  0  0  0  0  0  0  0  0  0
    0.0010    0.2692    0.0323 O   0  0  0  0  0  0  0  0  0  0  0  0
    1.7899    0.1596    0.0226 Si  0  0  0  0  0  0  0  0  0  0  0  0
    2.2578    2.4833   -0.1103 Si  0  0  0  0  0  0  0  0  0  0  0  0
    1.7395    3.1812   -1.7968 C   0  0  0  0  0  0  0  0  0  0  0  0
    1.2889    3.3801    1.2503 C   0  0  0  0  0  0  0  0  0  0  0  0
    4.1228    2.7739    0.1210 C   0  0  0  0  0  0  0  0  0  0  0  0
    2.3851   -0.7340    2.1433 Si  0  0  0  0  0  0  0  0  0  0  0  0
    0.7883   -0.8256    3.1620 C   0  0  0  0  0  0  0  0  0  0  0  0
    3.6011    0.4388    3.0117 C   0  0  0  0  0  0  0  0  0  0  0  0
    3.2272   -2.4328    2.0340 C   0  0  0  0  0  0  0  0  0  0  0  0
    2.4338   -0.8536   -2.0239 Si  0  0  0  0  0  0  0  0  0  0  0  0
    0.9998   -0.5043   -3.2171 C   0  0  0  0  0  0  0  0  0  0  0  0
    4.0168    0.0229   -2.6091 C   0  0  0  0  0  0  0  0  0  0  0  0
    2.8094   -2.7149   -1.9919 C   0  0  0  0  0  0  0  0  0  0  0  0
   -2.8866   -2.8688   -0.4209 H   0  0  0  0  0  0  0  0  0  0  0  0
   -1.4267   -5.1802   -0.2538 H   0  0  0  0  0  0  0  0  0  0  0  0
    1.1769   -4.3263    0.2335 H   0  0  0  0  0  0  0  0  0  0  0  0
    0.6528    3.0547   -1.9673 H   0  0  0  0  0  0  0  0  0  0  0  0
    2.2830    2.6972   -2.6328 H   0  0  0  0  0  0  0  0  0  0  0  0
    1.9650    4.2682   -1.8319 H   0  0  0  0  0  0  0  0  0  0  0  0
    1.5644    3.0208    2.2623 H   0  0  0  0  0  0  0  0  0  0  0  0
    0.1996    3.2249    1.1247 H   0  0  0  0  0  0  0  0  0  0  0  0
    1.4892    4.4714    1.2074 H   0  0  0  0  0  0  0  0  0  0  0  0
    4.4686    2.4660    1.1270 H   0  0  0  0  0  0  0  0  0  0  0  0
    4.3429    3.8561    0.0038 H   0  0  0  0  0  0  0  0  0  0  0  0
    4.7228    2.2263   -0.6333 H   0  0  0  0  0  0  0  0  0  0  0  0
    1.0170   -1.1466    4.2000 H   0  0  0  0  0  0  0  0  0  0  0  0
    0.0644   -1.5460    2.7326 H   0  0  0  0  0  0  0  0  0  0  0  0
    0.2925    0.1651    3.2096 H   0  0  0  0  0  0  0  0  0  0  0  0
    4.5603    0.5162    2.4610 H   0  0  0  0  0  0  0  0  0  0  0  0
    3.8251    0.0531    4.0287 H   0  0  0  0  0  0  0  0  0  0  0  0
    3.1821    1.4590    3.1196 H   0  0  0  0  0  0  0  0  0  0  0  0
    4.1382   -2.3880    1.4029 H   0  0  0  0  0  0  0  0  0  0  0  0
    2.5540   -3.2041    1.6149 H   0  0  0  0  0  0  0  0  0  0  0  0
    3.5348   -2.7656    3.0478 H   0  0  0  0  0  0  0  0  0  0  0  0
    0.0731   -1.0200   -2.8910 H   0  0  0  0  0  0  0  0  0  0  0  0
    1.2451   -0.8588   -4.2402 H   0  0  0  0  0  0  0  0  0  0  0  0
    0.7791    0.5809   -3.2695 H   0  0  0  0  0  0  0  0  0  0  0  0
    3.8721    1.1149   -2.7242 H   0  0  0  0  0  0  0  0  0  0  0  0
    4.3272   -0.3862   -3.5937 H   0  0  0  0  0  0  0  0  0  0  0  0
    4.8536   -0.1391   -1.8990 H   0  0  0  0  0  0  0  0  0  0  0  0
    1.8825   -3.3193   -1.9610 H   0  0  0  0  0  0  0  0  0  0  0  0
    3.4404   -2.9953   -1.1245 H   0  0  0  0  0  0  0  0  0  0  0  0
    3.3599   -2.9901   -2.9161 H   0  0  0  0  0  0  0  0  0  0  0  0
  1  2  1  1  0  0  0
  1  7  1  0  0  0  0
  2  6  1  0  0  0  0
  3  4  1  0  0  0  0
  3  2  2  0  0  0  0
  4  5  2  0  0  0  0
  5  6  1  0  0  0  0
  5 23  1  0  0  0  0
  8  7  1  0  0  0  0
  8 13  1  0  0  0  0
  8  1  1  0  0  0  0
  8  6  1  0  0  0  0
  8 18  1  0  0  0  0
  9  8  1  0  0  0  0
  9 12  1  0  0  0  0
  9 11  1  0  0  0  0
 10  9  1  0  0  0  0
 11 27  1  0  0  0  0
 12 30  1  0  0  0  0
 13 15  1  0  0  0  0
 13 14  1  0  0  0  0
 14 35  1  0  0  0  0
 14 33  1  0  0  0  0
 15 38  1  0  0  0  0
 15 37  1  0  0  0  0
 16 13  1  0  0  0  0
 16 41  1  0  0  0  0
 17 20  1  0  0  0  0
 17  8  1  0  0  0  0
 18 42  1  0  0  0  0
 18 17  1  0  0  0  0
 19 17  1  0  0  0  0
 19 47  1  0  0  0  0
 20 48  1  0  0  0  0
 20 49  1  0  0  0  0
 21  3  1  0  0  0  0
 22  4  1  0  0  0  0
 24 10  1  0  0  0  0
 25 10  1  0  0  0  0
 26 10  1  0  0  0  0
 28 11  1  0  0  0  0
 29 11  1  0  0  0  0
 31 12  1  0  0  0  0
 32 12  1  0  0  0  0
 34 14  1  0  0  0  0
 36 15  1  0  0  0  0
 39 16  1  0  0  0  0
 40 16  1  0  0  0  0
 43 18  1  0  0  0  0
 44 18  1  0  0  0  0
 45 19  1  0  0  0  0
 46 19  1  0  0  0  0
 50 20  1  0  0  0  0
M  HYD  1   1   0
M  ZBO  3  11   0  12   0  13   0
M  END
