4
q = -1.0, confidence = 0.006

 14 13  0  0  0  0  0  0  0  0999 V2000
    3.8915   -1.2130   -0.1970 O   0  0  0  0  0  0  0  0  0  0  0  0
    2.4002   -2.0924   -1.6997 N   0  0  0  0  0  0  0  0  0  0  0  0
    1.3992   -2.2128   -1.8843 H   0  0  0  0  0  0  0  0  0  0  0  0
    1.6521   -1.6894    0.5805 C   0  0  0  0  0  3  0  0  0  0  0  0
    0.9243   -2.4828    0.3174 H   0  0  0  0  0  0  0  0  0  0  0  0
    2.7515   -1.6335   -0.4485 C   0  0  0  0  0  0  0  0  0  0  0  0
    3.2730   -1.9153   -2.8374 C   0  0  0  0  0  0  0  0  0  0  0  0
    3.2409   -2.7985   -3.5080 H   0  0  0  0  0  0  0  0  0  0  0  0
    4.3020   -1.7870   -2.4512 H   0  0  0  0  0  0  0  0  0  0  0  0
    3.0051   -1.0085   -3.4261 H   0  0  0  0  0  0  0  0  0  0  0  0
    2.2013   -1.9152    1.9777 C   0  0  0  0  0  0  0  0  0  0  0  0
    1.4316   -1.8112    2.7642 H   0  0  0  0  0  0  0  0  0  0  0  0
    3.0307   -1.2186    2.1992 H   0  0  0  0  0  0  0  0  0  0  0  0
    2.6196   -2.9439    2.0490 H   0  0  0  0  0  0  0  0  0  0  0  0
  2  6  1  0  0  0  0
  3  2  1  0  0  0  0
  4 11  1  0  0  0  0
  5  4  1  0  0  0  0
  6  1  2  0  0  0  0
  6  4  1  0  0  0  0
  7  9  1  0  0  0  0
  7  2  1  0  0  0  0
  8  7  1  0  0  0  0
 10  7  1  0  0  0  0
 11 14  1  0  0  0  0
 11 13  1  0  0  0  0
 11 12  1  0  0  0  0
M  END
