1
q = -1.0, confidence = 0.048

 18 19  0  0  0  0  0  0  0  0999 V2000
    0.1221   -0.9431   -0.0943 C   0  0  0  0  0  3  0  0  0  0  0  0
   -1.1217   -0.9480   -0.0582 C   0  0  0  0  0  0  0  0  0  0  0  0
   -2.5451   -0.9634   -0.0113 C   0  0  0  0  0  0  0  0  0  0  0  0
   -3.2594   -2.1768    0.2309 C   0  0  0  0  0  0  0  0  0  0  0  0
   -2.6834   -3.1019    0.3771 H   0  0  0  0  0  0  0  0  0  0  0  0
   -4.6519   -2.2090    0.2844 C   0  0  0  0  0  0  0  0  0  0  0  0
   -5.1999   -3.1434    0.4710 H   0  0  0  0  0  0  0  0  0  0  0  0
   -5.3834   -1.0231    0.0960 C   0  0  0  0  0  0  0  0  0  0  0  0
   -7.5805    0.0263   -0.0158 C   0  0  0  0  0  0  0  0  0  0  0  0
   -6.8928    1.2910   -0.2720 C   0  0  0  0  0  0  0  0  0  0  0  0
   -7.5458    2.1636   -0.4091 H   0  0  0  0  0  0  0  0  0  0  0  0
   -5.5315    1.3750   -0.3351 C   0  0  0  0  0  0  0  0  0  0  0  0
   -5.0384    2.3414   -0.5299 H   0  0  0  0  0  0  0  0  0  0  0  0
   -4.7108    0.2042   -0.1497 C   0  0  0  0  0  0  0  0  0  0  0  0
   -3.3004    0.2145   -0.1994 C   0  0  0  0  0  0  0  0  0  0  0  0
   -2.7780    1.1641   -0.3903 H   0  0  0  0  0  0  0  0  0  0  0  0
   -6.7413   -1.0933    0.1570 O   0  0  0  0  0  0  0  0  0  0  0  0
   -8.7777   -0.1470    0.0604 O   0  0  0  0  0  0  0  0  0  0  0  0
  1  2  3  0  0  0  0
  2  3  1  0  0  0  0
  3  4  1  0  0  0  0
  4  6  2  0  0  0  0
  4  5  1  0  0  0  0
  6  7  1  0  0  0  0
  8 17  1  0  0  0  0
  8  6  1  0  0  0  0
  9 18  2  0  0  0  0
  9 17  1  0  0  0  0
 10  9  1  0  0  0  0
 11 10  1  0  0  0  0
 12 10  2  0  0  0  0
 12 14  1  0  0  0  0
 13 12  1  0  0  0  0
 14  8  2  0  0  0  0
 15 14  1  0  0  0  0
 15  3  2  0  0  0  0
 16 15  1  0  0  0  0
M  END
