1
q = -1.0, confidence = 0.0

 12 12  0  0  0  0  0  0  0  0999 V2000
   -0.0259    1.5509   -0.0010 C   0  0  0  0  0  3  0  0  0  0  0  0
   -1.2463    1.7967   -0.0012 C   0  0  0  0  0  0  0  0  0  0  0  0
   -2.6701    1.8584   -0.0011 C   0  0  0  0  0  0  0  0  0  0  0  0
   -3.3780    3.0904   -0.0019 C   0  0  0  0  0  0  0  0  0  0  0  0
   -2.8138    4.0338   -0.0026 H   0  0  0  0  0  0  0  0  0  0  0  0
   -4.7749    3.0745   -0.0018 C   0  0  0  0  0  0  0  0  0  0  0  0
   -5.3410    4.0190   -0.0024 H   0  0  0  0  0  0  0  0  0  0  0  0
   -5.4438    1.8392   -0.0009 C   0  0  0  0  0  0  0  0  0  0  0  0
   -6.5423    1.7793   -0.0007 H   0  0  0  0  0  0  0  0  0  0  0  0
   -4.6621    0.6715   -0.0002 C   0  0  0  0  0  0  0  0  0  0  0  0
   -5.1528   -0.3206    0.0005 H   0  0  0  0  0  0  0  0  0  0  0  0
   -3.3248    0.6601   -0.0003 N   0  0  0  0  0  0  0  0  0  0  0  0
  2  3  1  0  0  0  0
  2  1  3  0  0  0  0
  3 12  1  0  0  0  0
  4  6  1  0  0  0  0
  4  3  2  0  0  0  0
  5  4  1  0  0  0  0
  6  8  2  0  0  0  0
  7  6  1  0  0  0  0
  8  9  1  0  0  0  0
  8 10  1  0  0  0  0
 10 11  1  0  0  0  0
 12 10  2  0  0  0  0
M  END
