1
q = 0.0, confidence = 1.0

 46 50  0  0  1  0  0  0  0  0999 V2000
   -0.3211   -0.9409    0.6101 C   0  0  0  0  0  2  0  0  0  0  0  0
   -6.1977   -2.2147    0.8041 C   0  0  0  0  0  0  0  0  0  0  0  0
   -7.0660   -2.4541    1.4368 H   0  0  0  0  0  0  0  0  0  0  0  0
   -1.5275   -1.4227    1.0295 N   0  0  0  0  0  0  0  0  0  0  0  0
    4.0710   -0.7688   -0.2740 C   0  0  2  0  0  0  0  0  0  0  0  0
    4.5151    0.2488   -0.2534 H   0  0  0  0  0  0  0  0  0  0  0  0
    2.6248   -0.6761    0.2452 C   0  0  0  0  0  0  0  0  0  0  0  0
    2.5952   -0.2721    1.2781 H   0  0  0  0  0  0  0  0  0  0  0  0
    2.0430    0.0286   -0.3899 H   0  0  0  0  0  0  0  0  0  0  0  0
   -3.9757   -1.5989   -0.8016 C   0  0  0  0  0  0  0  0  0  0  0  0
   -3.1036   -1.3475   -1.4288 H   0  0  0  0  0  0  0  0  0  0  0  0
    0.5424   -2.0023    0.6849 N   0  0  0  0  0  0  0  0  0  0  0  0
   -2.7400   -0.6126    1.1746 C   0  0  0  0  0  0  0  0  0  0  0  0
   -2.8926   -0.3892    2.2505 H   0  0  0  0  0  0  0  0  0  0  0  0
   -2.5131    0.3508    0.6707 H   0  0  0  0  0  0  0  0  0  0  0  0
    1.9581   -2.0639    0.2123 C   0  0  2  0  0  0  0  0  0  0  0  0
   -5.1001   -2.2176   -1.3635 C   0  0  0  0  0  0  0  0  0  0  0  0
   -5.1097   -2.4563   -2.4380 H   0  0  0  0  0  0  0  0  0  0  0  0
   -5.0695   -1.5976    1.3692 C   0  0  0  0  0  0  0  0  0  0  0  0
   -5.0553   -1.3529    2.4435 H   0  0  0  0  0  0  0  0  0  0  0  0
    2.7766   -3.0088    1.1237 C   0  0  0  0  0  0  0  0  0  0  0  0
    2.7458   -2.6323    2.1679 H   0  0  0  0  0  0  0  0  0  0  0  0
    2.3404   -4.0288    1.1242 H   0  0  0  0  0  0  0  0  0  0  0  0
    4.0654   -1.3053   -1.7181 C   0  0  0  0  0  0  0  0  0  0  0  0
    3.4939   -0.6181   -2.3772 H   0  0  0  0  0  0  0  0  0  0  0  0
    5.1030   -1.3524   -2.1127 H   0  0  0  0  0  0  0  0  0  0  0  0
   -6.2137   -2.5272   -0.5633 C   0  0  0  0  0  0  0  0  0  0  0  0
   -7.0959   -3.0125   -1.0081 H   0  0  0  0  0  0  0  0  0  0  0  0
    4.2293   -3.1039    0.6137 C   0  0  2  0  0  0  0  0  0  0  0  0
    4.7917   -3.7930    1.2786 H   0  0  0  0  0  0  0  0  0  0  0  0
   -3.9528   -1.2831    0.5732 C   0  0  0  0  0  0  0  0  0  0  0  0
    1.9749   -2.6118   -1.2339 C   0  0  0  0  0  0  0  0  0  0  0  0
    1.4910   -3.6121   -1.2515 H   0  0  0  0  0  0  0  0  0  0  0  0
    1.3703   -1.9409   -1.8795 H   0  0  0  0  0  0  0  0  0  0  0  0
    3.4265   -2.7071   -1.7392 C   0  0  2  0  0  0  0  0  0  0  0  0
    3.4197   -3.1005   -2.7775 H   0  0  0  0  0  0  0  0  0  0  0  0
    4.8815   -1.7105    0.6331 C   0  0  0  0  0  0  0  0  0  0  0  0
    5.9334   -1.7773    0.2819 H   0  0  0  0  0  0  0  0  0  0  0  0
    4.9082   -1.3134    1.6702 H   0  0  0  0  0  0  0  0  0  0  0  0
   -0.1422   -3.1333    1.1318 C   0  0  0  0  0  0  0  0  0  0  0  0
    0.3416   -4.1040    1.2502 H   0  0  0  0  0  0  0  0  0  0  0  0
    4.2291   -3.6540   -0.8264 C   0  0  0  0  0  0  0  0  0  0  0  0
    5.2728   -3.7491   -1.1949 H   0  0  0  0  0  0  0  0  0  0  0  0
    3.7856   -4.6731   -0.8472 H   0  0  0  0  0  0  0  0  0  0  0  0
   -1.4400   -2.7667    1.3535 C   0  0  0  0  0  0  0  0  0  0  0  0
   -2.3048   -3.3394    1.6991 H   0  0  0  0  0  0  0  0  0  0  0  0
  1 12  1  0  0  0  0
  1  4  1  0  0  0  0
  2 19  1  0  0  0  0
  2  3  1  0  0  0  0
  4 13  1  0  0  0  0
  4 45  1  0  0  0  0
  5  6  1  1  0  0  0
  5  7  1  0  0  0  0
  5 37  1  0  0  0  0
  7  8  1  0  0  0  0
  9  7  1  0  0  0  0
 10 31  1  0  0  0  0
 11 10  1  0  0  0  0
 12 40  1  0  0  0  0
 13 14  1  0  0  0  0
 15 13  1  0  0  0  0
 16  7  1  0  0  0  0
 16 12  1  1  0  0  0
 16 21  1  0  0  0  0
 17 10  2  0  0  0  0
 17 27  1  0  0  0  0
 18 17  1  0  0  0  0
 19 20  1  0  0  0  0
 21 23  1  0  0  0  0
 21 22  1  0  0  0  0
 24  5  1  0  0  0  0
 25 24  1  0  0  0  0
 26 24  1  0  0  0  0
 27  2  2  0  0  0  0
 28 27  1  0  0  0  0
 29 37  1  0  0  0  0
 29 21  1  0  0  0  0
 29 30  1  1  0  0  0
 31 13  1  0  0  0  0
 31 19  2  0  0  0  0
 32 16  1  0  0  0  0
 33 32  1  0  0  0  0
 34 32  1  0  0  0  0
 35 36  1  6  0  0  0
 35 24  1  0  0  0  0
 35 32  1  0  0  0  0
 35 42  1  0  0  0  0
 37 39  1  0  0  0  0
 38 37  1  0  0  0  0
 40 41  1  0  0  0  0
 40 45  2  0  0  0  0
 42 29  1  0  0  0  0
 43 42  1  0  0  0  0
 44 42  1  0  0  0  0
 45 46  1  0  0  0  0
M  END
