7
q = -1.0

 10 10  0  0  0  0  0  0  0  0999 V2000
   -2.9384   -1.1529   -0.5696 Br  0  0  0  0  0  0  0  0  0  0  0  0
   -0.0011   -2.5437    1.0651 Br  0  0  0  0  0  0  0  0  0  0  0  0
    2.9374   -1.1553   -0.5696 Br  0  0  0  0  0  0  0  0  0  0  0  0
   -1.1597   -0.6624   -0.9178 C   0  0  0  0  0  0  0  0  0  0  0  0
   -0.0005   -1.2023   -0.2396 C   0  0  0  0  0  0  0  0  0  0  0  0
    1.1592   -0.6634   -0.9177 C   0  0  0  0  0  0  0  0  0  0  0  0
    0.7228    0.1989   -1.9723 C   0  0  0  0  0  3  0  0  0  0  0  0
   -0.7226    0.1994   -1.9723 C   0  0  0  0  0  0  0  0  0  0  0  0
    1.3776    0.7209   -2.6787 H   0  0  0  0  0  0  0  0  0  0  0  0
   -1.3770    0.7222   -2.6786 H   0  0  0  0  0  0  0  0  0  0  0  0
  4  1  1  0  0  0  0
  4  5  1  0  0  0  0
  5  2  1  0  0  0  0
  6  3  1  0  0  0  0
  6  5  2  0  0  0  0
  7  6  1  0  0  0  0
  8  7  1  0  0  0  0
  8  4  2  0  0  0  0
  9  7  1  0  0  0  0
 10  8  1  0  0  0  0
M  END
