5
q = 0.0, confidence = 0.916

 15 15  0  0  0  0  0  0  0  0999 V2000
   -1.5733   -0.5161   -2.0417 C   0  0  0  0  0  0  0  0  0  0  0  0
   -1.4194   -1.8145   -1.5634 C   0  0  0  0  0  3  0  0  0  0  0  0
   -2.4228   -2.5435   -0.6943 C   0  0  0  0  0  0  0  0  0  0  0  0
   -2.6617   -1.7787    0.5989 C   0  0  0  0  0  3  0  0  0  0  0  0
   -3.2797   -0.5113    0.6633 C   0  0  0  0  0  3  0  0  0  0  0  0
   -3.1930    0.5207   -0.3333 C   0  0  0  0  0  3  0  0  0  0  0  0
   -2.4354    0.5307   -1.5386 C   0  0  0  0  0  0  0  0  0  0  0  0
   -0.8755   -0.1882   -2.8300 H   0  0  0  0  0  0  0  0  0  0  0  0
   -0.5947   -2.4030   -1.9927 H   0  0  0  0  0  0  0  0  0  0  0  0
   -2.0148   -3.5411   -0.4451 H   0  0  0  0  0  0  0  0  0  0  0  0
   -3.3788   -2.7162   -1.2423 H   0  0  0  0  0  0  0  0  0  0  0  0
   -2.6979   -2.3712    1.5262 H   0  0  0  0  0  0  0  0  0  0  0  0
   -3.7308   -0.2042    1.6200 H   0  0  0  0  0  0  0  0  0  0  0  0
   -3.6935    1.4695   -0.0830 H   0  0  0  0  0  0  0  0  0  0  0  0
   -2.4404    1.4717   -2.1086 H   0  0  0  0  0  0  0  0  0  0  0  0
  1  2  1  0  0  0  0
  1  7  2  0  0  0  0
  2  3  1  0  0  0  0
  3 10  1  0  0  0  0
  3  4  1  0  0  0  0
  4  5  1  0  0  0  0
  4 12  1  0  0  0  0
  5 13  1  0  0  0  0
  6 14  1  0  0  0  0
  6  5  1  0  0  0  0
  7  6  1  0  0  0  0
  8  1  1  0  0  0  0
  9  2  1  0  0  0  0
 11  3  1  0  0  0  0
 15  7  1  0  0  0  0
M  END
