2
q = 0.0, confidence = 0.908

 48 51  0  0  0  0  0  0  0  0999 V2000
    2.6347    0.5250   -0.0190 P   0  0  0  0  0  4  0  0  0  0  0  0
   -0.0559    0.1778    0.0023 C   0  0  0  0  0  3  0  0  0  0  0  0
    1.1302   -0.4739   -0.1550 C   0  0  0  0  0  0  0  0  0  0  0  0
    1.3346   -1.9481   -0.2004 C   0  0  0  0  0  0  0  0  0  0  0  0
    1.6506   -2.5879   -1.4191 C   0  0  0  0  0  0  0  0  0  0  0  0
    1.8198   -3.9784   -1.4675 C   0  0  0  0  0  0  0  0  0  0  0  0
    1.6943   -4.7424   -0.2950 C   0  0  0  0  0  0  0  0  0  0  0  0
    1.3944   -4.1125    0.9238 C   0  0  0  0  0  0  0  0  0  0  0  0
    1.2149   -2.7223    0.9755 C   0  0  0  0  0  0  0  0  0  0  0  0
    4.0051   -0.1779   -0.9788 C   0  0  0  0  0  0  0  0  0  0  0  0
    4.4897    0.4603   -2.1387 C   0  0  0  0  0  0  0  0  0  0  0  0
    5.5192   -0.1389   -2.8798 C   0  0  0  0  0  0  0  0  0  0  0  0
    6.0632   -1.3655   -2.4677 C   0  0  0  0  0  0  0  0  0  0  0  0
    5.5843   -1.9971   -1.3075 C   0  0  0  0  0  0  0  0  0  0  0  0
    4.5575   -1.4090   -0.5586 C   0  0  0  0  0  0  0  0  0  0  0  0
    3.1497    0.5752    1.7228 C   0  0  0  0  0  0  0  0  0  0  0  0
    4.5028    0.8105    2.0502 C   0  0  0  0  0  0  0  0  0  0  0  0
    4.8789    0.9140    3.3966 C   0  0  0  0  0  0  0  0  0  0  0  0
    3.9147    0.7788    4.4100 C   0  0  0  0  0  0  0  0  0  0  0  0
    2.5711    0.5396    4.0799 C   0  0  0  0  0  0  0  0  0  0  0  0
    2.1789    0.4374    2.7371 C   0  0  0  0  0  0  0  0  0  0  0  0
    2.2960    2.2159   -0.5867 C   0  0  0  0  0  0  0  0  0  0  0  0
    2.6955    3.3245    0.1854 C   0  0  0  0  0  0  0  0  0  0  0  0
    2.4353    4.6226   -0.2796 C   0  0  0  0  0  0  0  0  0  0  0  0
    1.7804    4.8149   -1.5058 C   0  0  0  0  0  0  0  0  0  0  0  0
    1.3794    3.7087   -2.2746 C   0  0  0  0  0  0  0  0  0  0  0  0
    1.6332    2.4082   -1.8202 C   0  0  0  0  0  0  0  0  0  0  0  0
   -0.0116    1.2826    0.0479 H   0  0  0  0  0  0  0  0  0  0  0  0
    1.7635   -1.9842   -2.3332 H   0  0  0  0  0  0  0  0  0  0  0  0
    2.0528   -4.4693   -2.4242 H   0  0  0  0  0  0  0  0  0  0  0  0
    1.8290   -5.8338   -0.3328 H   0  0  0  0  0  0  0  0  0  0  0  0
    1.2896   -4.7096    1.8421 H   0  0  0  0  0  0  0  0  0  0  0  0
    0.9416   -2.2281    1.9195 H   0  0  0  0  0  0  0  0  0  0  0  0
    4.0726    1.4266   -2.4581 H   0  0  0  0  0  0  0  0  0  0  0  0
    5.9020    0.3610   -3.7818 H   0  0  0  0  0  0  0  0  0  0  0  0
    6.8715   -1.8307   -3.0514 H   0  0  0  0  0  0  0  0  0  0  0  0
    6.0133   -2.9561   -0.9819 H   0  0  0  0  0  0  0  0  0  0  0  0
    4.1855   -1.9063    0.3497 H   0  0  0  0  0  0  0  0  0  0  0  0
    5.2593    0.9056    1.2564 H   0  0  0  0  0  0  0  0  0  0  0  0
    5.9324    1.0957    3.6560 H   0  0  0  0  0  0  0  0  0  0  0  0
    4.2162    0.8541    5.4655 H   0  0  0  0  0  0  0  0  0  0  0  0
    1.8157    0.4215    4.8710 H   0  0  0  0  0  0  0  0  0  0  0  0
    1.1229    0.2319    2.4928 H   0  0  0  0  0  0  0  0  0  0  0  0
    3.2021    3.1733    1.1501 H   0  0  0  0  0  0  0  0  0  0  0  0
    2.7447    5.4886    0.3239 H   0  0  0  0  0  0  0  0  0  0  0  0
    1.5765    5.8347   -1.8650 H   0  0  0  0  0  0  0  0  0  0  0  0
    0.8606    3.8598   -3.2328 H   0  0  0  0  0  0  0  0  0  0  0  0
    1.3009    1.5422   -2.4126 H   0  0  0  0  0  0  0  0  0  0  0  0
  1 16  1  0  0  0  0
  2 28  1  0  0  0  0
  3  1  1  0  0  0  0
  3  2  2  0  0  0  0
  4  3  1  0  0  0  0
  4  9  1  0  0  0  0
  5  4  2  0  0  0  0
  6  5  1  0  0  0  0
  6  7  2  0  0  0  0
  7  8  1  0  0  0  0
  8  9  2  0  0  0  0
  8 32  1  0  0  0  0
  9 33  1  0  0  0  0
 10 15  1  0  0  0  0
 10  1  1  0  0  0  0
 11 10  2  0  0  0  0
 12 13  2  0  0  0  0
 12 11  1  0  0  0  0
 13 14  1  0  0  0  0
 14 37  1  0  0  0  0
 14 15  2  0  0  0  0
 15 38  1  0  0  0  0
 16 17  2  0  0  0  0
 16 21  1  0  0  0  0
 17 18  1  0  0  0  0
 18 40  1  0  0  0  0
 18 19  2  0  0  0  0
 19 41  1  0  0  0  0
 20 19  1  0  0  0  0
 20 42  1  0  0  0  0
 21 20  2  0  0  0  0
 22  1  1  0  0  0  0
 22 23  1  0  0  0  0
 23 44  1  0  0  0  0
 24 23  2  0  0  0  0
 24 45  1  0  0  0  0
 25 24  1  0  0  0  0
 26 27  1  0  0  0  0
 26 25  2  0  0  0  0
 27 22  2  0  0  0  0
 29  5  1  0  0  0  0
 30  6  1  0  0  0  0
 31  7  1  0  0  0  0
 34 11  1  0  0  0  0
 35 12  1  0  0  0  0
 36 13  1  0  0  0  0
 39 17  1  0  0  0  0
 43 21  1  0  0  0  0
 46 25  1  0  0  0  0
 47 26  1  0  0  0  0
 48 27  1  0  0  0  0
M  END
