5
q = -1.0

 29 30  0  0  0  0  0  0  0  0999 V2000
    2.3840    1.1280    0.0959 C   0  0  0  0  0  0  0  0  0  0  0  0
    2.9370    1.0253    1.0357 H   0  0  0  0  0  0  0  0  0  0  0  0
    1.5582    2.2169   -0.2820 C   0  0  0  0  0  0  0  0  0  0  0  0
    1.3843    3.1264    0.3044 H   0  0  0  0  0  0  0  0  0  0  0  0
    1.0150    1.9297   -1.5767 C   0  0  0  0  0  3  0  0  0  0  0  0
    0.3489    2.5749   -2.1622 H   0  0  0  0  0  0  0  0  0  0  0  0
    1.5411    0.6788   -2.0012 C   0  0  0  0  0  0  0  0  0  0  0  0
    1.3265    0.1833   -2.9537 H   0  0  0  0  0  0  0  0  0  0  0  0
    2.3795    0.1616   -0.9676 C   0  0  0  0  0  0  0  0  0  0  0  0
    3.0958   -1.1349   -0.9677 C   0  0  0  0  0  0  0  0  0  0  0  0
    2.7080   -2.1691   -1.7582 C   0  0  0  0  0  0  0  0  0  0  0  0
    3.2718   -3.1124   -1.7718 H   0  0  0  0  0  0  0  0  0  0  0  0
    1.7792   -2.1138   -2.3415 H   0  0  0  0  0  0  0  0  0  0  0  0
    4.1459   -1.2591   -0.0273 N   0  0  0  0  0  0  0  0  0  0  0  0
    4.2047   -2.4350    0.8286 C   0  0  0  0  0  0  0  0  0  0  0  0
    5.1253   -3.0336    0.6520 H   0  0  0  0  0  0  0  0  0  0  0  0
    3.3162   -3.0588    0.6358 H   0  0  0  0  0  0  0  0  0  0  0  0
    4.1755   -2.1497    1.9021 H   0  0  0  0  0  0  0  0  0  0  0  0
    5.1734   -0.3098    0.0391 C   0  0  0  0  0  0  0  0  0  0  0  0
    5.3868    0.6075   -1.0236 C   0  0  0  0  0  0  0  0  0  0  0  0
    4.7615    0.5463   -1.9248 H   0  0  0  0  0  0  0  0  0  0  0  0
    6.3981    1.5704   -0.9445 C   0  0  0  0  0  0  0  0  0  0  0  0
    6.5373    2.2683   -1.7846 H   0  0  0  0  0  0  0  0  0  0  0  0
    7.2441    1.6395    0.1751 C   0  0  0  0  0  0  0  0  0  0  0  0
    8.0425    2.3940    0.2291 H   0  0  0  0  0  0  0  0  0  0  0  0
    7.0628    0.7142    1.2139 C   0  0  0  0  0  0  0  0  0  0  0  0
    7.7230    0.7385    2.0948 H   0  0  0  0  0  0  0  0  0  0  0  0
    6.0485   -0.2512    1.1538 C   0  0  0  0  0  0  0  0  0  0  0  0
    5.9337   -0.9576    1.9860 H   0  0  0  0  0  0  0  0  0  0  0  0
  1  2  1  0  0  0  0
  3  1  2  0  0  0  0
  3  4  1  0  0  0  0
  5  3  1  0  0  0  0
  6  5  1  0  0  0  0
  7  5  1  0  0  0  0
  7  9  2  0  0  0  0
  8  7  1  0  0  0  0
  9  1  1  0  0  0  0
 10  9  1  0  0  0  0
 10 14  1  0  0  0  0
 11 10  2  0  0  0  0
 12 11  1  0  0  0  0
 13 11  1  0  0  0  0
 14 19  1  0  0  0  0
 14 15  1  0  0  0  0
 15 18  1  0  0  0  0
 16 15  1  0  0  0  0
 17 15  1  0  0  0  0
 19 28  1  0  0  0  0
 20 22  1  0  0  0  0
 20 19  2  0  0  0  0
 21 20  1  0  0  0  0
 22 24  2  0  0  0  0
 23 22  1  0  0  0  0
 24 25  1  0  0  0  0
 24 26  1  0  0  0  0
 26 27  1  0  0  0  0
 28 26  2  0  0  0  0
 28 29  1  0  0  0  0
M  END
