7
q = -2.0, confidence = 0.892

 34 35  0  0  0  0  0  0  0  0999 V2000
    0.7262    2.4784   -0.2903 C   0  0  0  0  0  0  0  0  0  0  0  0
    0.9373    3.1438    0.5551 H   0  0  0  0  0  0  0  0  0  0  0  0
    1.6586    2.0289   -1.2783 C   0  0  0  0  0  0  0  0  0  0  0  0
    2.7286    2.2663   -1.3094 H   0  0  0  0  0  0  0  0  0  0  0  0
    0.9589    1.2030   -2.1963 C   0  0  0  0  0  0  0  0  0  0  0  0
    1.3876    0.6962   -3.0687 H   0  0  0  0  0  0  0  0  0  0  0  0
   -0.3977    1.1178   -1.7630 C   0  0  0  0  0  3  0  0  0  0  0  0
   -1.2068    0.5666   -2.2581 H   0  0  0  0  0  0  0  0  0  0  0  0
   -0.5601    1.9537   -0.6074 C   0  0  0  0  0  0  0  0  0  0  0  0
   -1.8512    2.2919    0.0336 C   0  0  0  0  0  0  0  0  0  0  0  0
   -2.0482    3.5414    0.5428 C   0  0  0  0  0  0  0  0  0  0  0  0
   -3.0102    3.8185    1.0005 H   0  0  0  0  0  0  0  0  0  0  0  0
   -1.2673    4.3137    0.4861 H   0  0  0  0  0  0  0  0  0  0  0  0
   -2.9295    1.2989   -0.0183 C   0  0  0  0  0  0  0  0  0  0  0  0
   -3.9432    1.6885   -0.1926 H   0  0  0  0  0  0  0  0  0  0  0  0
   -2.7615   -0.0574    0.1464 C   0  0  0  0  0  0  0  0  0  0  0  0
   -3.7640   -0.9787   -0.1845 N   0  0  0  0  0  0  0  0  0  0  0  0
   -4.0898   -2.0578    0.7386 C   0  0  0  0  0  0  0  0  0  0  0  0
   -3.1883   -2.3865    1.2851 H   0  0  0  0  0  0  0  0  0  0  0  0
   -4.4985   -2.9262    0.1811 H   0  0  0  0  0  0  0  0  0  0  0  0
   -4.8550   -1.7423    1.4897 H   0  0  0  0  0  0  0  0  0  0  0  0
   -4.9009   -0.5130   -0.9496 C   0  0  0  0  0  0  0  0  0  0  0  0
   -5.6354    0.0721   -0.3413 H   0  0  0  0  0  0  0  0  0  0  0  0
   -5.4393   -1.3869   -1.3699 H   0  0  0  0  0  0  0  0  0  0  0  0
   -4.5580    0.1321   -1.7821 H   0  0  0  0  0  0  0  0  0  0  0  0
   -1.5255   -0.6400    0.7095 C   0  0  0  0  0  0  0  0  0  0  0  0
   -0.9097   -1.8721    0.3341 C   0  0  0  0  0  0  0  0  0  0  0  0
   -1.2387   -2.5024   -0.5000 H   0  0  0  0  0  0  0  0  0  0  0  0
    0.1387   -2.1542    1.2620 C   0  0  0  0  0  0  0  0  0  0  0  0
    0.7937   -3.0333    1.2447 H   0  0  0  0  0  0  0  0  0  0  0  0
    0.1936   -1.0862    2.1993 C   0  0  0  0  0  0  0  0  0  0  0  0
    0.8921   -0.9977    3.0392 H   0  0  0  0  0  0  0  0  0  0  0  0
   -0.8048   -0.1347    1.8416 C   0  0  0  0  0  3  0  0  0  0  0  0
   -1.0382    0.7995    2.3675 H   0  0  0  0  0  0  0  0  0  0  0  0
  1  2  1  0  0  0  0
  3  1  1  0  0  0  0
  4  3  1  0  0  0  0
  5  7  1  0  0  0  0
  5  3  2  0  0  0  0
  6  5  1  0  0  0  0
  7  9  1  0  0  0  0
  8  7  1  0  0  0  0
  9  1  2  0  0  0  0
  9 10  1  0  0  0  0
 10 11  2  0  0  0  0
 11 12  1  0  0  0  0
 13 11  1  0  0  0  0
 14 10  1  0  0  0  0
 14 16  2  0  0  0  0
 15 14  1  0  0  0  0
 16 26  1  0  0  0  0
 17 16  1  0  0  0  0
 17 18  1  0  0  0  0
 18 19  1  0  0  0  0
 18 21  1  0  0  0  0
 20 18  1  0  0  0  0
 22 23  1  0  0  0  0
 22 17  1  0  0  0  0
 24 22  1  0  0  0  0
 25 22  1  0  0  0  0
 26 33  1  0  0  0  0
 27 26  2  0  0  0  0
 27 29  1  0  0  0  0
 28 27  1  0  0  0  0
 29 31  2  0  0  0  0
 30 29  1  0  0  0  0
 31 32  1  0  0  0  0
 33 31  1  0  0  0  0
 33 34  1  0  0  0  0
M  END
