1
q = 0.0, confidence = 0.988

 34 37  0  0  0  0  0  0  0  0999 V2000
   -0.1713    0.5720   -0.3896 C   0  0  0  0  0  2  0  0  0  0  0  0
    0.3483    1.8511   -0.4083 N   0  0  0  0  0  0  0  0  0  0  0  0
    1.6163    2.2844    0.0424 C   0  0  0  0  0  0  0  0  0  0  0  0
    2.5258    1.4037    0.6523 C   0  0  0  0  0  0  0  0  0  0  0  0
    3.7768    1.8679    1.0669 C   0  0  0  0  0  0  0  0  0  0  0  0
    4.1360    3.2177    0.8858 C   0  0  0  0  0  0  0  0  0  0  0  0
    3.2263    4.1002    0.3026 C   0  0  0  0  0  0  0  0  0  0  0  0
    1.9484    3.6637   -0.1257 C   0  0  0  0  0  0  0  0  0  0  0  0
    0.9855    4.5809   -0.6961 C   0  0  0  0  0  0  0  0  0  0  0  0
   -0.2583    4.1516   -1.0710 C   0  0  0  0  0  0  0  0  0  0  0  0
   -0.5991    2.7713   -0.9273 C   0  0  0  0  0  0  0  0  0  0  0  0
   -1.7284    2.0315   -1.2149 C   0  0  0  0  0  0  0  0  0  0  0  0
   -1.4385    0.7205   -0.8833 N   0  0  0  0  0  0  0  0  0  0  0  0
   -2.3930   -0.3878   -1.0079 C   0  0  0  0  0  0  0  0  0  0  0  0
   -3.6988   -0.1026   -0.3026 C   0  0  0  0  0  0  0  0  0  0  0  0
   -3.7246    0.0238    1.1023 C   0  0  0  0  0  0  0  0  0  0  0  0
   -4.9331    0.2996    1.7561 C   0  0  0  0  0  0  0  0  0  0  0  0
   -6.1225    0.4498    1.0220 C   0  0  0  0  0  0  0  0  0  0  0  0
   -6.1017    0.3211   -0.3748 C   0  0  0  0  0  0  0  0  0  0  0  0
   -4.8920    0.0476   -1.0336 C   0  0  0  0  0  0  0  0  0  0  0  0
    2.2216    0.3487    0.7978 H   0  0  0  0  0  0  0  0  0  0  0  0
    4.4772    1.1671    1.5459 H   0  0  0  0  0  0  0  0  0  0  0  0
    5.1225    3.5780    1.2132 H   0  0  0  0  0  0  0  0  0  0  0  0
    3.4857    5.1620    0.1710 H   0  0  0  0  0  0  0  0  0  0  0  0
    1.2716    5.6373   -0.8056 H   0  0  0  0  0  0  0  0  0  0  0  0
   -1.0102    4.8361   -1.4874 H   0  0  0  0  0  0  0  0  0  0  0  0
   -2.7021    2.3382   -1.6052 H   0  0  0  0  0  0  0  0  0  0  0  0
   -1.8705   -1.2653   -0.5687 H   0  0  0  0  0  0  0  0  0  0  0  0
   -2.5667   -0.5885   -2.0855 H   0  0  0  0  0  0  0  0  0  0  0  0
   -2.7884   -0.1055    1.6738 H   0  0  0  0  0  0  0  0  0  0  0  0
   -4.9473    0.3931    2.8528 H   0  0  0  0  0  0  0  0  0  0  0  0
   -7.0689    0.6650    1.5414 H   0  0  0  0  0  0  0  0  0  0  0  0
   -7.0298    0.4342   -0.9556 H   0  0  0  0  0  0  0  0  0  0  0  0
   -4.8742   -0.0558   -2.1310 H   0  0  0  0  0  0  0  0  0  0  0  0
  2  1  1  0  0  0  0
  2  3  1  0  0  0  0
  3  4  1  0  0  0  0
  4 21  1  0  0  0  0
  4  5  2  0  0  0  0
  5 22  1  0  0  0  0
  6  5  1  0  0  0  0
  6 23  1  0  0  0  0
  7  6  2  0  0  0  0
  8  3  2  0  0  0  0
  8  7  1  0  0  0  0
  9  8  1  0  0  0  0
 10 11  1  0  0  0  0
 10  9  2  0  0  0  0
 11  2  1  0  0  0  0
 12 11  2  0  0  0  0
 12 13  1  0  0  0  0
 13  1  1  0  0  0  0
 14 13  1  0  0  0  0
 14 28  1  0  0  0  0
 14 15  1  0  0  0  0
 15 16  1  0  0  0  0
 16 30  1  0  0  0  0
 16 17  2  0  0  0  0
 17 31  1  0  0  0  0
 18 32  1  0  0  0  0
 18 17  1  0  0  0  0
 19 18  2  0  0  0  0
 20 19  1  0  0  0  0
 20 15  2  0  0  0  0
 24  7  1  0  0  0  0
 25  9  1  0  0  0  0
 26 10  1  0  0  0  0
 27 12  1  0  0  0  0
 29 14  1  0  0  0  0
 33 19  1  0  0  0  0
 34 20  1  0  0  0  0
M  END
