3
q = 0.0, confidence = 0.998

 44 47  0  0  1  0  0  0  0  0999 V2000
   -1.0434   -0.2232   -0.0981 N   0  0  0  0  0  0  0  0  0  0  0  0
   -1.8036   -2.2721    0.0716 N   0  0  0  0  0  0  0  0  0  0  0  0
    0.1101   -0.9950   -0.0582 C   0  0  0  0  0  3  0  0  0  0  0  0
   -2.2057   -0.9713   -0.0159 C   0  0  1  0  0  3  0  0  0  0  0  0
   -2.5508   -3.4438    0.0956 C   0  0  0  0  0  0  0  0  0  0  0  0
   -3.6410   -3.3317    0.0627 H   0  0  0  0  0  0  0  0  0  0  0  0
   -1.8993   -4.6534    0.1248 C   0  0  0  0  0  0  0  0  0  0  0  0
   -2.5098   -5.5674    0.1387 H   0  0  0  0  0  0  0  0  0  0  0  0
   -0.4714   -4.7354    0.1149 C   0  0  0  0  0  0  0  0  0  0  0  0
    0.0218   -5.7169    0.1250 H   0  0  0  0  0  0  0  0  0  0  0  0
    0.2713   -3.5691    0.0595 C   0  0  0  0  0  0  0  0  0  0  0  0
    1.3685   -3.5546    0.0005 H   0  0  0  0  0  0  0  0  0  0  0  0
   -0.3818   -2.3158    0.0402 C   0  0  0  0  0  0  0  0  0  0  0  0
   -1.0275    1.2169   -0.1299 C   0  0  0  0  0  0  0  0  0  0  0  0
   -0.7126    1.8691   -1.3440 C   0  0  0  0  0  0  0  0  0  0  0  0
   -0.6382    3.2729   -1.3197 C   0  0  0  0  0  0  0  0  0  0  0  0
   -0.3918    3.8000   -2.2554 H   0  0  0  0  0  0  0  0  0  0  0  0
   -0.8728    4.0183   -0.1484 C   0  0  0  0  0  0  0  0  0  0  0  0
   -1.2186    3.3251    1.0250 C   0  0  0  0  0  0  0  0  0  0  0  0
   -1.4187    3.8907    1.9491 H   0  0  0  0  0  0  0  0  0  0  0  0
   -1.3042    1.9214    1.0619 C   0  0  0  0  0  0  0  0  0  0  0  0
   -0.4974    1.0988   -2.6161 C   0  0  0  0  0  0  0  0  0  0  0  0
   -0.4225    1.7817   -3.4831 H   0  0  0  0  0  0  0  0  0  0  0  0
   -1.3284    0.3869   -2.8056 H   0  0  0  0  0  0  0  0  0  0  0  0
    0.4232    0.4730   -2.5759 H   0  0  0  0  0  0  0  0  0  0  0  0
   -0.7334    5.5198   -0.1514 C   0  0  0  0  0  0  0  0  0  0  0  0
   -1.2886    5.9856    0.6859 H   0  0  0  0  0  0  0  0  0  0  0  0
   -1.0991    5.9617   -1.0997 H   0  0  0  0  0  0  0  0  0  0  0  0
    0.3324    5.8170   -0.0469 H   0  0  0  0  0  0  0  0  0  0  0  0
   -1.6758    1.2024    2.3331 C   0  0  0  0  0  0  0  0  0  0  0  0
   -2.7393    0.8816    2.3165 H   0  0  0  0  0  0  0  0  0  0  0  0
   -1.5366    1.8589    3.2127 H   0  0  0  0  0  0  0  0  0  0  0  0
   -1.0640    0.2899    2.4827 H   0  0  0  0  0  0  0  0  0  0  0  0
   -3.5752   -0.4702    0.0212 C   0  0  0  0  0  0  0  0  0  0  0  0
   -4.5149   -1.0056    0.9401 C   0  0  0  0  0  0  0  0  0  0  0  0
   -4.2051   -1.7929    1.6430 H   0  0  0  0  0  0  0  0  0  0  0  0
   -5.8235   -0.5100    0.9941 C   0  0  0  0  0  0  0  0  0  0  0  0
   -6.5356   -0.9363    1.7169 H   0  0  0  0  0  0  0  0  0  0  0  0
   -6.2199    0.5381    0.1478 C   0  0  0  0  0  0  0  0  0  0  0  0
   -7.2470    0.9296    0.1948 H   0  0  0  0  0  0  0  0  0  0  0  0
   -5.2944    1.0854   -0.7559 C   0  0  0  0  0  0  0  0  0  0  0  0
   -5.5951    1.9061   -1.4242 H   0  0  0  0  0  0  0  0  0  0  0  0
   -3.9880    0.5881   -0.8261 C   0  0  0  0  0  0  0  0  0  0  0  0
   -3.2796    1.0146   -1.5481 H   0  0  0  0  0  0  0  0  0  0  0  0
  1  3  1  0  0  0  0
  1  4  1  0  0  0  0
  2  5  1  0  0  0  0
  3 13  2  0  0  0  0
  4 34  1  1  0  0  0
  4  2  1  0  0  0  0
  5  7  2  0  0  0  0
  6  5  1  0  0  0  0
  7  8  1  0  0  0  0
  9  7  1  0  0  0  0
  9 10  1  0  0  0  0
 11  9  2  0  0  0  0
 12 11  1  0  0  0  0
 13 11  1  0  0  0  0
 13  2  1  0  0  0  0
 14  1  1  0  0  0  0
 14 21  1  0  0  0  0
 15 16  1  0  0  0  0
 15 14  2  0  0  0  0
 16 18  2  0  0  0  0
 17 16  1  0  0  0  0
 18 19  1  0  0  0  0
 19 21  2  0  0  0  0
 19 20  1  0  0  0  0
 21 30  1  0  0  0  0
 22 25  1  0  0  0  0
 22 15  1  0  0  0  0
 23 22  1  0  0  0  0
 24 22  1  0  0  0  0
 26 18  1  0  0  0  0
 26 29  1  0  0  0  0
 26 27  1  0  0  0  0
 28 26  1  0  0  0  0
 30 33  1  0  0  0  0
 30 32  1  0  0  0  0
 31 30  1  0  0  0  0
 34 35  1  0  0  0  0
 35 37  2  0  0  0  0
 35 36  1  0  0  0  0
 37 38  1  0  0  0  0
 39 40  1  0  0  0  0
 39 37  1  0  0  0  0
 41 39  2  0  0  0  0
 42 41  1  0  0  0  0
 43 41  1  0  0  0  0
 43 34  2  0  0  0  0
 44 43  1  0  0  0  0
M  END
