1
q = -1.0

 15 15  0  0  0  0  0  0  0  0999 V2000
   -0.0189    1.7588    0.4460 C   0  0  0  0  0  3  0  0  0  0  0  0
    0.0243    2.1371    1.8028 C   0  0  0  0  0  0  0  0  0  0  0  0
    0.0956    1.3662    2.5871 H   0  0  0  0  0  0  0  0  0  0  0  0
   -0.0183    3.4948    2.1720 C   0  0  0  0  0  0  0  0  0  0  0  0
    0.0146    3.7736    3.2371 H   0  0  0  0  0  0  0  0  0  0  0  0
   -0.1046    4.4840    1.1797 C   0  0  0  0  0  0  0  0  0  0  0  0
   -0.1450    5.5481    1.4598 H   0  0  0  0  0  0  0  0  0  0  0  0
   -0.1415    4.1138   -0.1731 C   0  0  0  0  0  0  0  0  0  0  0  0
   -0.2112    4.8699   -0.9682 H   0  0  0  0  0  0  0  0  0  0  0  0
   -0.0935    2.7592   -0.5497 C   0  0  0  0  0  0  0  0  0  0  0  0
   -0.0791    2.3789   -2.0102 C   0  0  0  0  0  0  0  0  0  0  0  0
   -0.7022    1.4570   -2.1343 H   0  0  0  0  0  0  0  0  0  0  0  0
    0.9664    2.0833   -2.2781 H   0  0  0  0  0  0  0  0  0  0  0  0
   -0.5337    3.4509   -2.8179 O   0  0  0  0  0  0  0  0  0  0  0  0
   -0.2732    3.2513   -3.7331 H   0  0  0  0  0  0  0  0  0  0  0  0
  1  2  1  0  0  0  0
  2  4  2  0  0  0  0
  2  3  1  0  0  0  0
  4  5  1  0  0  0  0
  6  7  1  0  0  0  0
  6  4  1  0  0  0  0
  8  6  2  0  0  0  0
  9  8  1  0  0  0  0
 10  8  1  0  0  0  0
 10  1  2  0  0  0  0
 11 10  1  0  0  0  0
 12 11  1  0  0  0  0
 13 11  1  0  0  0  0
 14 11  1  0  0  0  0
 15 14  1  0  0  0  0
M  END
