1
q = -1.0

  8  7  0  0  0  0  0  0  0  0999 V2000
    2.9774    1.2765    0.9526 C   0  0  0  0  0  3  0  0  0  0  0  0
    4.0116    0.9182    1.1093 H   0  0  0  0  0  0  0  0  0  0  0  0
    2.7035    2.0523    1.6904 H   0  0  0  0  0  0  0  0  0  0  0  0
    2.6989    1.8310   -0.7227 S   0  0  0  0  0  0  0  0  0  0  0  0
    4.1838    1.3247   -1.6656 C   0  0  0  0  0  0  0  0  0  0  0  0
    3.8726    1.2277   -2.7231 H   0  0  0  0  0  0  0  0  0  0  0  0
    4.5477    0.3471   -1.3009 H   0  0  0  0  0  0  0  0  0  0  0  0
    4.9604    2.1076   -1.5726 H   0  0  0  0  0  0  0  0  0  0  0  0
  1  2  1  0  0  0  0
  1  3  1  0  0  0  0
  4  1  1  0  0  0  0
  5  8  1  0  0  0  0
  5  7  1  0  0  0  0
  5  4  1  0  0  0  0
  6  5  1  0  0  0  0
M  END
