2
q = -1.0, confidence = 0.012

 10  9  0  0  0  0  0  0  0  0999 V2000
   -6.4554    0.2649   -0.2868 O   0  0  0  0  0  0  0  0  0  0  0  0
   -1.5633    0.4800   -0.3880 C   0  0  0  0  0  3  0  0  0  0  0  0
   -2.7500    0.8060   -0.5201 C   0  0  0  0  0  0  0  0  0  0  0  0
   -4.1747    1.1185   -0.6336 C   0  0  0  0  0  0  0  0  0  0  0  0
   -5.0899    0.0021   -0.0795 C   0  0  0  0  0  0  0  0  0  0  0  0
   -6.7042    1.0258    0.2694 H   0  0  0  0  0  0  0  0  0  0  0  0
   -4.4613    1.2949   -1.6936 H   0  0  0  0  0  0  0  0  0  0  0  0
   -4.4058    2.0674   -0.0952 H   0  0  0  0  0  0  0  0  0  0  0  0
   -4.8368   -0.1742    0.9965 H   0  0  0  0  0  0  0  0  0  0  0  0
   -4.8652   -0.9433   -0.6175 H   0  0  0  0  0  0  0  0  0  0  0  0
  1  5  1  0  0  0  0
  1  6  1  0  0  0  0
  3  2  3  0  0  0  0
  4  3  1  0  0  0  0
  4  8  1  0  0  0  0
  4  5  1  0  0  0  0
  5  9  1  0  0  0  0
  7  4  1  0  0  0  0
 10  5  1  0  0  0  0
M  END
