2
q = -1.0

 36 38  0  0  0  0  0  0  0  0999 V2000
   -1.4827    0.7762   -0.3246 N   0  0  0  0  0  2  0  0  0  0  0  0
   -0.3977    1.1811   -0.5360 C   0  0  0  0  0  1  0  0  0  0  0  0
   -2.6872   -0.6902    1.3738 C   0  0  0  0  0  0  0  0  0  0  0  0
   -1.8625   -1.8364    1.4778 C   0  0  0  0  0  0  0  0  0  0  0  0
   -1.3276   -2.1973    0.5848 H   0  0  0  0  0  0  0  0  0  0  0  0
   -1.7222   -2.5442    2.6803 C   0  0  0  0  0  0  0  0  0  0  0  0
   -1.0757   -3.4352    2.7213 H   0  0  0  0  0  0  0  0  0  0  0  0
   -2.4032   -2.1142    3.8317 C   0  0  0  0  0  0  0  0  0  0  0  0
   -2.3034   -2.6702    4.7775 H   0  0  0  0  0  0  0  0  0  0  0  0
   -3.2112   -0.9689    3.7633 C   0  0  0  0  0  0  0  0  0  0  0  0
   -3.7511   -0.6215    4.6592 H   0  0  0  0  0  0  0  0  0  0  0  0
   -3.3469   -0.2713    2.5493 C   0  0  0  0  0  0  0  0  0  0  0  0
   -3.9980    0.6167    2.5073 H   0  0  0  0  0  0  0  0  0  0  0  0
   -3.9984    1.2493   -0.0110 C   0  0  0  0  0  0  0  0  0  0  0  0
   -5.3630    0.8896   -0.0961 C   0  0  0  0  0  0  0  0  0  0  0  0
   -5.6279   -0.1694   -0.2490 H   0  0  0  0  0  0  0  0  0  0  0  0
   -6.3871    1.8437    0.0012 C   0  0  0  0  0  0  0  0  0  0  0  0
   -7.4403    1.5280   -0.0700 H   0  0  0  0  0  0  0  0  0  0  0  0
   -6.0729    3.2014    0.1817 C   0  0  0  0  0  0  0  0  0  0  0  0
   -6.8737    3.9538    0.2542 H   0  0  0  0  0  0  0  0  0  0  0  0
   -4.7263    3.5870    0.2643 C   0  0  0  0  0  0  0  0  0  0  0  0
   -4.4653    4.6488    0.4033 H   0  0  0  0  0  0  0  0  0  0  0  0
   -3.7111    2.6195    0.1701 C   0  0  0  0  0  0  0  0  0  0  0  0
   -2.6582    2.9429    0.2381 H   0  0  0  0  0  0  0  0  0  0  0  0
   -3.0883   -0.9339   -1.3138 C   0  0  0  0  0  0  0  0  0  0  0  0
   -2.6859   -0.6040   -2.6289 C   0  0  0  0  0  0  0  0  0  0  0  0
   -2.1824    0.3603   -2.8109 H   0  0  0  0  0  0  0  0  0  0  0  0
   -2.8991   -1.4698   -3.7136 C   0  0  0  0  0  0  0  0  0  0  0  0
   -2.5637   -1.1805   -4.7224 H   0  0  0  0  0  0  0  0  0  0  0  0
   -3.5423   -2.7032   -3.5125 C   0  0  0  0  0  0  0  0  0  0  0  0
   -3.7147   -3.3864   -4.3589 H   0  0  0  0  0  0  0  0  0  0  0  0
   -3.9667   -3.0501   -2.2199 C   0  0  0  0  0  0  0  0  0  0  0  0
   -4.4759   -4.0119   -2.0474 H   0  0  0  0  0  0  0  0  0  0  0  0
   -3.7368   -2.1778   -1.1418 C   0  0  0  0  0  0  0  0  0  0  0  0
   -4.0588   -2.4780   -0.1320 H   0  0  0  0  0  0  0  0  0  0  0  0
   -2.8492    0.0955   -0.0594 B   0  0  0  0  0  0  0  0  0  0  0  0
  1 36  1  0  0  0  0
  2  1  1  0  0  0  0
  3  4  2  0  0  0  0
  3 12  1  0  0  0  0
  4  6  1  0  0  0  0
  5  4  1  0  0  0  0
  6  7  1  0  0  0  0
  6  8  2  0  0  0  0
  8  9  1  0  0  0  0
 10  8  1  0  0  0  0
 10 11  1  0  0  0  0
 12 10  2  0  0  0  0
 13 12  1  0  0  0  0
 14 23  1  0  0  0  0
 15 14  2  0  0  0  0
 15 17  1  0  0  0  0
 16 15  1  0  0  0  0
 17 19  2  0  0  0  0
 18 17  1  0  0  0  0
 19 20  1  0  0  0  0
 19 21  1  0  0  0  0
 21 22  1  0  0  0  0
 23 24  1  0  0  0  0
 23 21  2  0  0  0  0
 25 34  1  0  0  0  0
 25 36  1  0  0  0  0
 26 25  2  0  0  0  0
 27 26  1  0  0  0  0
 28 30  2  0  0  0  0
 28 26  1  0  0  0  0
 29 28  1  0  0  0  0
 30 32  1  0  0  0  0
 31 30  1  0  0  0  0
 32 33  1  0  0  0  0
 32 34  2  0  0  0  0
 34 35  1  0  0  0  0
 36 14  1  0  0  0  0
 36  3  1  0  0  0  0
M  END
