2
q = -1.0

 38 41  0  0  0  0  0  0  0  0999 V2000
    0.0210    0.7966    0.9132 P   0  0  2  0  0  0  0  0  0  0  0  0
    0.6959   -1.6827   -0.2844 C   0  0  0  0  0  3  0  0  0  0  0  0
    0.9003   -2.9660   -0.8133 C   0  0  0  0  0  0  0  0  0  0  0  0
    0.0426   -3.6155   -1.0381 H   0  0  0  0  0  0  0  0  0  0  0  0
    2.1917   -3.4529   -1.1233 C   0  0  0  0  0  0  0  0  0  0  0  0
    2.2979   -4.4683   -1.5374 H   0  0  0  0  0  0  0  0  0  0  0  0
    3.3236   -2.6658   -0.9402 C   0  0  0  0  0  0  0  0  0  0  0  0
    4.3102   -3.0686   -1.2070 H   0  0  0  0  0  0  0  0  0  0  0  0
    3.1963   -1.3471   -0.4342 C   0  0  0  0  0  0  0  0  0  0  0  0
    4.3373   -0.4513   -0.2607 C   0  0  0  0  0  0  0  0  0  0  0  0
    5.6687   -0.8378   -0.5718 C   0  0  0  0  0  0  0  0  0  0  0  0
    5.8643   -1.8504   -0.9504 H   0  0  0  0  0  0  0  0  0  0  0  0
    6.7396    0.0372   -0.4116 C   0  0  0  0  0  0  0  0  0  0  0  0
    7.7579   -0.2962   -0.6634 H   0  0  0  0  0  0  0  0  0  0  0  0
    6.5265    1.3501    0.0700 C   0  0  0  0  0  0  0  0  0  0  0  0
    7.3759    2.0387    0.1931 H   0  0  0  0  0  0  0  0  0  0  0  0
    5.2374    1.7615    0.3852 C   0  0  0  0  0  0  0  0  0  0  0  0
    5.0526    2.7800    0.7619 H   0  0  0  0  0  0  0  0  0  0  0  0
    4.1285    0.8843    0.2321 C   0  0  0  0  0  0  0  0  0  0  0  0
    2.8023    1.3112    0.5749 C   0  0  0  0  0  0  0  0  0  0  0  0
    2.6569    2.3333    0.9605 H   0  0  0  0  0  0  0  0  0  0  0  0
    1.7377    0.4542    0.4189 C   0  0  0  0  0  0  0  0  0  0  0  0
    1.8803   -0.8793   -0.0987 C   0  0  0  0  0  0  0  0  0  0  0  0
   -0.3770    2.5157    0.4177 C   0  0  0  0  0  0  0  0  0  0  0  0
    0.0988    3.0253   -0.8095 C   0  0  0  0  0  0  0  0  0  0  0  0
    0.7552    2.4057   -1.4355 H   0  0  0  0  0  0  0  0  0  0  0  0
   -0.2820    4.3078   -1.2296 C   0  0  0  0  0  0  0  0  0  0  0  0
    0.0936    4.6971   -2.1880 H   0  0  0  0  0  0  0  0  0  0  0  0
   -1.1423    5.0888   -0.4413 C   0  0  0  0  0  0  0  0  0  0  0  0
   -1.4404    6.0934   -0.7780 H   0  0  0  0  0  0  0  0  0  0  0  0
   -1.6223    4.5847    0.7777 C   0  0  0  0  0  0  0  0  0  0  0  0
   -2.2972    5.1908    1.4009 H   0  0  0  0  0  0  0  0  0  0  0  0
   -1.2430    3.3034    1.2046 C   0  0  0  0  0  0  0  0  0  0  0  0
   -1.6350    2.9188    2.1583 H   0  0  0  0  0  0  0  0  0  0  0  0
    0.1289    0.8963    2.7557 C   0  0  0  0  0  0  0  0  0  0  0  0
    0.8166    1.7099    3.0579 H   0  0  0  0  0  0  0  0  0  0  0  0
    0.5217   -0.0742    3.1140 H   0  0  0  0  0  0  0  0  0  0  0  0
   -0.8667    1.0685    3.2076 H   0  0  0  0  0  0  0  0  0  0  0  0
  1 35  1  1  0  0  0
  2 23  1  0  0  0  0
  3  2  2  0  0  0  0
  4  3  1  0  0  0  0
  5  7  2  0  0  0  0
  5  3  1  0  0  0  0
  6  5  1  0  0  0  0
  7  9  1  0  0  0  0
  8  7  1  0  0  0  0
  9 10  2  0  0  0  0
  9 23  1  0  0  0  0
 10 19  1  0  0  0  0
 11 13  2  0  0  0  0
 11 10  1  0  0  0  0
 12 11  1  0  0  0  0
 13 15  1  0  0  0  0
 14 13  1  0  0  0  0
 15 16  1  0  0  0  0
 15 17  2  0  0  0  0
 17 18  1  0  0  0  0
 19 17  1  0  0  0  0
 19 20  2  0  0  0  0
 20 21  1  0  0  0  0
 22 20  1  0  0  0  0
 22  1  1  0  0  0  0
 23 22  2  0  0  0  0
 24  1  1  0  0  0  0
 24 33  1  0  0  0  0
 25 24  2  0  0  0  0
 26 25  1  0  0  0  0
 27 25  1  0  0  0  0
 27 29  2  0  0  0  0
 28 27  1  0  0  0  0
 29 31  1  0  0  0  0
 30 29  1  0  0  0  0
 31 33  2  0  0  0  0
 31 32  1  0  0  0  0
 33 34  1  0  0  0  0
 35 36  1  0  0  0  0
 35 37  1  0  0  0  0
 35 38  1  0  0  0  0
M  END
