3
q = -1.0, confidence = 0.02

 17 16  0  0  1  0  0  0  0  0999 V2000
    2.4960    0.4228   -1.0724 C   0  0  0  0  0  3  0  0  0  0  0  0
    2.1623   -0.9051   -1.3619 C   0  0  2  0  0  3  0  0  0  0  0  0
    0.9146   -1.1595   -2.0484 C   0  0  0  0  0  3  0  0  0  0  0  0
    3.7547    0.8392   -0.3655 C   0  0  0  0  0  0  0  0  0  0  0  0
    2.9916   -2.0640   -0.8623 C   0  0  0  0  0  0  0  0  0  0  0  0
    1.7569    1.5297   -1.8022 C   0  0  0  0  0  0  0  0  0  0  0  0
    2.0033    2.5233   -1.3875 H   0  0  0  0  0  0  0  0  0  0  0  0
    1.9822    1.5079   -2.8935 H   0  0  0  0  0  0  0  0  0  0  0  0
    0.6330    1.4668   -1.7973 H   0  0  0  0  0  0  0  0  0  0  0  0
    2.3907   -2.9912   -0.8215 H   0  0  0  0  0  0  0  0  0  0  0  0
    3.8330   -2.2329   -1.5688 H   0  0  0  0  0  0  0  0  0  0  0  0
    3.4218   -1.8942    0.1422 H   0  0  0  0  0  0  0  0  0  0  0  0
    4.1995    0.0173    0.2239 H   0  0  0  0  0  0  0  0  0  0  0  0
    4.5211    1.1832   -1.0961 H   0  0  0  0  0  0  0  0  0  0  0  0
    3.5469    1.6822    0.3252 H   0  0  0  0  0  0  0  0  0  0  0  0
    0.6265   -2.2154   -2.1780 H   0  0  0  0  0  0  0  0  0  0  0  0
    0.6722   -0.5391   -2.9282 H   0  0  0  0  0  0  0  0  0  0  0  0
  1  4  1  0  0  0  0
  2  3  1  1  0  0  0
  2  1  1  0  0  0  0
  2  5  1  0  0  0  0
  4 13  1  0  0  0  0
  4 15  1  0  0  0  0
  5 10  1  0  0  0  0
  5 12  1  0  0  0  0
  6  9  1  0  0  0  0
  6  7  1  0  0  0  0
  6  1  1  0  0  0  0
  8  6  1  0  0  0  0
 11  5  1  0  0  0  0
 14  4  1  0  0  0  0
 16  3  1  0  0  0  0
 17  3  1  0  0  0  0
M  END
