14
q = -1.0

 45 48  0  0  1  0  0  0  0  0999 V2000
   -2.8334   -0.9233   -2.7427 Cl  0  0  0  0  0  0  0  0  0  0  0  0
   -2.3039    2.2861   -2.2282 Cl  0  0  0  0  0  0  0  0  0  0  0  0
   -2.3055    2.9228    1.1659 Cl  0  0  0  0  0  0  0  0  0  0  0  0
   -2.7739    0.0768    2.8132 Cl  0  0  0  0  0  0  0  0  0  0  0  0
    0.3160   -0.0288   -1.2174 C   0  0  2  0  0  0  0  0  0  0  0  0
   -0.9075   -0.8258   -0.6998 C   0  0  2  0  0  0  0  0  0  0  0  0
   -2.3194   -0.3518   -1.1336 C   0  0  1  0  0  0  0  0  0  0  0  0
   -2.4245    1.1546   -0.9506 C   0  0  0  0  0  0  0  0  0  0  0  0
   -2.4272    1.4065    0.3817 C   0  0  0  0  0  0  0  0  0  0  0  0
   -2.3235    0.0678    1.0857 C   0  0  1  0  0  0  0  0  0  0  0  0
   -0.9062   -0.5304    0.8399 C   0  0  2  0  0  0  0  0  0  0  0  0
    0.3180    0.4018    1.0261 C   0  0  1  0  0  0  0  0  0  0  0  0
    1.5802   -0.4281    0.7545 C   0  0  2  0  0  3  0  0  0  0  0  0
    1.5966   -0.6837   -0.6772 C   0  0  1  0  0  3  0  0  0  0  0  0
    0.5056    1.1801   -0.2850 C   0  0  0  0  0  3  0  0  0  0  0  0
   -3.1884   -0.8307    0.1027 C   0  0  0  0  0  0  0  0  0  0  0  0
    2.3617   -1.1960    1.7465 C   0  0  0  0  0  0  0  0  0  0  0  0
    3.1628   -2.0842    1.4944 O   0  0  0  0  0  0  0  0  0  0  0  0
    2.0760   -0.7849    3.0119 O   0  0  0  0  0  0  0  0  0  0  0  0
    2.7932   -1.4641    4.0463 C   0  0  0  0  0  0  0  0  0  0  0  0
    2.2075   -1.8886   -1.3065 C   0  0  0  0  0  0  0  0  0  0  0  0
    1.5361   -2.8532   -1.6395 O   0  0  0  0  0  0  0  0  0  0  0  0
    3.5426   -1.8035   -1.4715 O   0  0  0  0  0  0  0  0  0  0  0  0
    4.1844   -3.0156   -1.8864 C   0  0  0  0  0  0  0  0  0  0  0  0
   -3.0353   -2.1521    0.5105 O   0  0  0  0  0  0  0  0  0  0  0  0
   -3.5556   -3.1594   -0.3589 C   0  0  0  0  0  0  0  0  0  0  0  0
   -4.5071   -0.4843   -0.1401 O   0  0  0  0  0  0  0  0  0  0  0  0
   -5.4123   -0.5669    0.9592 C   0  0  0  0  0  0  0  0  0  0  0  0
    0.3269    0.1599   -2.3060 H   0  0  0  0  0  0  0  0  0  0  0  0
   -0.7941   -1.9015   -0.9290 H   0  0  0  0  0  0  0  0  0  0  0  0
   -0.8161   -1.4508    1.4454 H   0  0  0  0  0  0  0  0  0  0  0  0
    0.3434    0.9697    1.9719 H   0  0  0  0  0  0  0  0  0  0  0  0
    0.0713    2.1723   -0.4774 H   0  0  0  0  0  0  0  0  0  0  0  0
    2.4327   -1.0399    5.0001 H   0  0  0  0  0  0  0  0  0  0  0  0
    3.8859   -1.3041    3.9401 H   0  0  0  0  0  0  0  0  0  0  0  0
    2.6022   -2.5557    4.0101 H   0  0  0  0  0  0  0  0  0  0  0  0
    5.2345   -2.7494   -2.1015 H   0  0  0  0  0  0  0  0  0  0  0  0
    3.6940   -3.4396   -2.7849 H   0  0  0  0  0  0  0  0  0  0  0  0
    4.1394   -3.7615   -1.0673 H   0  0  0  0  0  0  0  0  0  0  0  0
   -2.8584   -3.3688   -1.1970 H   0  0  0  0  0  0  0  0  0  0  0  0
   -4.5373   -2.8613   -0.7806 H   0  0  0  0  0  0  0  0  0  0  0  0
   -3.6745   -4.0717    0.2558 H   0  0  0  0  0  0  0  0  0  0  0  0
   -5.3485    0.3385    1.5988 H   0  0  0  0  0  0  0  0  0  0  0  0
   -5.2128   -1.4600    1.5874 H   0  0  0  0  0  0  0  0  0  0  0  0
   -6.4281   -0.6384    0.5254 H   0  0  0  0  0  0  0  0  0  0  0  0
  2  8  1  0  0  0  0
  5 29  1  6  0  0  0
  5  6  1  0  0  0  0
  5 14  1  0  0  0  0
  5 15  1  0  0  0  0
  6 30  1  6  0  0  0
  6 11  1  0  0  0  0
  7  1  1  6  0  0  0
  7  8  1  0  0  0  0
  7  6  1  0  0  0  0
  7 16  1  0  0  0  0
  8  9  2  0  0  0  0
  9 10  1  0  0  0  0
  9  3  1  0  0  0  0
 10  4  1  1  0  0  0
 11 12  1  0  0  0  0
 11 10  1  0  0  0  0
 11 31  1  1  0  0  0
 12 32  1  1  0  0  0
 13 12  1  0  0  0  0
 13 17  1  1  0  0  0
 14 21  1  1  0  0  0
 14 13  1  0  0  0  0
 15 12  1  0  0  0  0
 16 25  1  0  0  0  0
 16 10  1  0  0  0  0
 17 19  1  0  0  0  0
 18 17  2  0  0  0  0
 19 20  1  0  0  0  0
 20 34  1  0  0  0  0
 22 21  2  0  0  0  0
 23 21  1  0  0  0  0
 24 23  1  0  0  0  0
 24 39  1  0  0  0  0
 26 42  1  0  0  0  0
 26 25  1  0  0  0  0
 27 16  1  0  0  0  0
 27 28  1  0  0  0  0
 28 44  1  0  0  0  0
 28 43  1  0  0  0  0
 33 15  1  0  0  0  0
 35 20  1  0  0  0  0
 36 20  1  0  0  0  0
 37 24  1  0  0  0  0
 38 24  1  0  0  0  0
 40 26  1  0  0  0  0
 41 26  1  0  0  0  0
 45 28  1  0  0  0  0
M  END
