7
q = 0.0, confidence = 0.978

 24 25  0  0  1  0  0  0  0  0999 V2000
    0.9759    0.0419   -0.5817 C   0  0  2  0  0  0  0  0  0  0  0  0
    1.1280    1.0867   -0.9260 H   0  0  0  0  0  0  0  0  0  0  0  0
   -1.0193   -1.3555   -1.2251 C   0  0  0  0  0  3  0  0  0  0  0  0
   -1.6508   -1.8007   -2.0115 H   0  0  0  0  0  0  0  0  0  0  0  0
    0.0955    0.0782    0.6632 C   0  0  0  0  0  3  0  0  0  0  0  0
    0.4223    0.8128    1.4175 H   0  0  0  0  0  0  0  0  0  0  0  0
   -1.1660   -1.8948    0.1016 C   0  0  0  0  0  3  0  0  0  0  0  0
   -1.7952   -2.7677    0.3333 H   0  0  0  0  0  0  0  0  0  0  0  0
   -0.5505   -1.1204    1.1294 C   0  0  0  0  0  3  0  0  0  0  0  0
   -0.6727   -1.3700    2.1947 H   0  0  0  0  0  0  0  0  0  0  0  0
    0.3163   -0.8107   -1.6879 C   0  0  0  0  0  0  0  0  0  0  0  0
    0.1791   -0.2050   -2.6055 H   0  0  0  0  0  0  0  0  0  0  0  0
    0.9851   -1.6505   -1.9830 H   0  0  0  0  0  0  0  0  0  0  0  0
    2.3267   -0.4012   -0.2510 N   0  0  0  0  0  0  0  0  0  0  0  0
    3.3361    0.4888    0.0668 C   0  0  0  0  0  0  0  0  0  0  0  0
    3.3285    2.1405   -0.1513 S   0  0  0  0  0  0  0  0  0  0  0  0
    4.3643   -0.2475    0.6122 N   0  0  0  0  0  0  0  0  0  0  0  0
    5.2893    0.1816    0.6396 H   0  0  0  0  0  0  0  0  0  0  0  0
    2.6279   -1.7289    0.2773 C   0  0  0  0  0  0  0  0  0  0  0  0
    2.2817   -2.5331   -0.4027 H   0  0  0  0  0  0  0  0  0  0  0  0
    2.1375   -1.8855    1.2674 H   0  0  0  0  0  0  0  0  0  0  0  0
    4.1592   -1.6754    0.4120 C   0  0  0  0  0  0  0  0  0  0  0  0
    4.5310   -2.2772    1.2648 H   0  0  0  0  0  0  0  0  0  0  0  0
    4.6558   -2.0418   -0.5179 H   0  0  0  0  0  0  0  0  0  0  0  0
  1  2  1  6  0  0  0
  1 14  1  0  0  0  0
  1  5  1  0  0  0  0
  3  7  1  0  0  0  0
  4  3  1  0  0  0  0
  5  9  1  0  0  0  0
  5  6  1  0  0  0  0
  7  8  1  0  0  0  0
  7  9  1  0  0  0  0
  9 10  1  0  0  0  0
 11  3  1  0  0  0  0
 11  1  1  0  0  0  0
 12 11  1  0  0  0  0
 13 11  1  0  0  0  0
 14 15  1  0  0  0  0
 14 19  1  0  0  0  0
 15 17  1  0  0  0  0
 16 15  2  0  0  0  0
 17 18  1  0  0  0  0
 19 22  1  0  0  0  0
 19 21  1  0  0  0  0
 20 19  1  0  0  0  0
 22 17  1  0  0  0  0
 22 23  1  0  0  0  0
 24 22  1  0  0  0  0
M  END
