4
q = 0.0, confidence = 0.978

 38 40  0  0  1  0  0  0  0  0999 V2000
   -0.6877    4.1075    0.2321 O   0  0  0  0  0  0  0  0  0  0  0  0
   -5.2191   -0.8276   -0.0874 O   0  0  0  0  0  0  0  0  0  0  0  0
    2.9348    0.8764    0.7992 C   0  0  0  0  0  3  0  0  0  0  0  0
    1.6813    1.2276    0.1991 C   0  0  1  0  0  3  0  0  0  0  0  0
    1.4356    0.7889   -1.1352 C   0  0  1  0  0  3  0  0  0  0  0  0
    2.4528    0.0222   -1.7902 C   0  0  0  0  0  3  0  0  0  0  0  0
    0.0586    1.2117   -1.6354 C   0  0  2  0  0  0  0  0  0  0  0  0
    0.1076    2.7754   -1.6057 C   0  0  0  0  0  0  0  0  0  0  0  0
    0.3830    3.2686   -0.1640 C   0  0  2  0  0  0  0  0  0  0  0  0
    0.5103    2.0067    0.7768 C   0  0  1  0  0  0  0  0  0  0  0  0
   -0.7806    1.2338    0.6223 C   0  0  0  0  0  0  0  0  0  0  0  0
   -1.0024    0.7910   -0.6382 C   0  0  0  0  0  0  0  0  0  0  0  0
   -2.1848   -0.0504   -1.0233 C   0  0  0  0  0  0  0  0  0  0  0  0
   -2.8398   -0.6684    0.2356 C   0  0  1  0  0  0  0  0  0  0  0  0
   -3.0661    0.4211    1.2922 C   0  0  0  0  0  0  0  0  0  0  0  0
   -1.7361    1.0284    1.7607 C   0  0  0  0  0  0  0  0  0  0  0  0
   -4.1318   -1.3785   -0.1706 C   0  0  0  0  0  0  0  0  0  0  0  0
   -3.9795   -2.7972   -0.6888 C   0  0  0  0  0  0  0  0  0  0  0  0
    3.0475    1.0257    1.8850 H   0  0  0  0  0  0  0  0  0  0  0  0
    3.8688    0.9903    0.2247 H   0  0  0  0  0  0  0  0  0  0  0  0
    2.1876   -0.4926   -2.7275 H   0  0  0  0  0  0  0  0  0  0  0  0
    3.5057    0.3431   -1.7295 H   0  0  0  0  0  0  0  0  0  0  0  0
   -0.1393    0.8339   -2.6565 H   0  0  0  0  0  0  0  0  0  0  0  0
   -0.8700    3.1863   -1.9218 H   0  0  0  0  0  0  0  0  0  0  0  0
    0.8803    3.1466   -2.3071 H   0  0  0  0  0  0  0  0  0  0  0  0
   -0.4697    4.4663    1.1122 H   0  0  0  0  0  0  0  0  0  0  0  0
    1.3525    3.8202   -0.1294 H   0  0  0  0  0  0  0  0  0  0  0  0
    0.7037    2.3226    1.8216 H   0  0  0  0  0  0  0  0  0  0  0  0
   -1.8644   -0.8466   -1.7284 H   0  0  0  0  0  0  0  0  0  0  0  0
   -2.9397    0.5604   -1.5714 H   0  0  0  0  0  0  0  0  0  0  0  0
   -2.1288   -1.4296    0.6295 H   0  0  0  0  0  0  0  0  0  0  0  0
   -3.7148    1.2029    0.8463 H   0  0  0  0  0  0  0  0  0  0  0  0
   -3.6310    0.0081    2.1519 H   0  0  0  0  0  0  0  0  0  0  0  0
   -1.9172    2.0081    2.2559 H   0  0  0  0  0  0  0  0  0  0  0  0
   -1.2586    0.3856    2.5354 H   0  0  0  0  0  0  0  0  0  0  0  0
   -4.8884   -3.1080   -1.2356 H   0  0  0  0  0  0  0  0  0  0  0  0
   -3.0753   -2.9163   -1.3191 H   0  0  0  0  0  0  0  0  0  0  0  0
   -3.8425   -3.4732    0.1831 H   0  0  0  0  0  0  0  0  0  0  0  0
  1 26  1  0  0  0  0
  3 19  1  0  0  0  0
  4 10  1  0  0  0  0
  4  3  1  1  0  0  0
  5  6  1  1  0  0  0
  5  4  1  0  0  0  0
  6 22  1  0  0  0  0
  7 23  1  6  0  0  0
  7  8  1  0  0  0  0
  7  5  1  0  0  0  0
  7 12  1  0  0  0  0
  8  9  1  0  0  0  0
  9 27  1  1  0  0  0
  9  1  1  0  0  0  0
  9 10  1  0  0  0  0
 10 28  1  1  0  0  0
 11 10  1  0  0  0  0
 11 16  1  0  0  0  0
 12 11  2  0  0  0  0
 13 12  1  0  0  0  0
 13 14  1  0  0  0  0
 14 31  1  1  0  0  0
 14 15  1  0  0  0  0
 15 16  1  0  0  0  0
 15 33  1  0  0  0  0
 16 34  1  0  0  0  0
 16 35  1  0  0  0  0
 17  2  2  0  0  0  0
 17 14  1  0  0  0  0
 18 17  1  0  0  0  0
 18 38  1  0  0  0  0
 20  3  1  0  0  0  0
 21  6  1  0  0  0  0
 24  8  1  0  0  0  0
 25  8  1  0  0  0  0
 29 13  1  0  0  0  0
 30 13  1  0  0  0  0
 32 15  1  0  0  0  0
 36 18  1  0  0  0  0
 37 18  1  0  0  0  0
M  END
