1
q = 0.0, confidence = 0.982

 26 27  0  0  1  0  0  0  0  0999 V2000
    0.6494    1.0988   -0.1624 C   0  0  0  0  0  2  0  0  0  0  0  0
    0.9318    2.3362    0.2089 O   0  0  0  0  0  0  0  0  0  0  0  0
   -0.7570    1.0789   -0.7444 C   0  0  2  0  0  0  0  0  0  0  0  0
   -0.7743    0.4147   -1.6307 H   0  0  0  0  0  0  0  0  0  0  0  0
   -1.0142    2.5567   -1.1077 C   0  0  0  0  0  0  0  0  0  0  0  0
   -0.6640    2.7715   -2.1369 H   0  0  0  0  0  0  0  0  0  0  0  0
   -2.0813    2.8447   -1.0433 H   0  0  0  0  0  0  0  0  0  0  0  0
   -0.1517    3.2864   -0.0857 C   0  0  0  0  0  0  0  0  0  0  0  0
    0.3275    4.2166   -0.4428 H   0  0  0  0  0  0  0  0  0  0  0  0
   -0.6708    3.4924    0.8729 H   0  0  0  0  0  0  0  0  0  0  0  0
   -1.7454    0.5245    0.3096 C   0  0  0  0  0  0  0  0  0  0  0  0
   -1.8377    1.2298    1.1634 H   0  0  0  0  0  0  0  0  0  0  0  0
   -1.3363   -0.4151    0.7322 H   0  0  0  0  0  0  0  0  0  0  0  0
   -3.1425    0.2484   -0.2396 C   0  0  2  0  0  0  0  0  0  0  0  0
   -3.5395    1.1726   -0.7275 H   0  0  0  0  0  0  0  0  0  0  0  0
   -4.1587   -0.0339    0.8879 C   0  0  0  0  0  0  0  0  0  0  0  0
   -5.1107   -1.1327    0.4125 C   0  0  0  0  0  0  0  0  0  0  0  0
   -6.1598   -0.8999    0.6807 H   0  0  0  0  0  0  0  0  0  0  0  0
   -4.8349   -2.0489    0.9822 H   0  0  0  0  0  0  0  0  0  0  0  0
   -4.8117   -1.2999   -1.0841 C   0  0  0  0  0  0  0  0  0  0  0  0
   -5.4260   -0.5858   -1.6733 H   0  0  0  0  0  0  0  0  0  0  0  0
   -5.0354   -2.3141   -1.4673 H   0  0  0  0  0  0  0  0  0  0  0  0
   -3.3184   -0.9306   -1.2107 C   0  0  0  0  0  0  0  0  0  0  0  0
   -3.0238   -0.6942   -2.2522 H   0  0  0  0  0  0  0  0  0  0  0  0
   -2.6804   -1.7786   -0.8803 H   0  0  0  0  0  0  0  0  0  0  0  0
   -4.1721    0.5233    1.9680 O   0  0  0  0  0  0  0  0  0  0  0  0
  1  2  1  0  0  0  0
  3  4  1  6  0  0  0
  3  1  1  0  0  0  0
  3 11  1  0  0  0  0
  5  7  1  0  0  0  0
  5  3  1  0  0  0  0
  5  8  1  0  0  0  0
  6  5  1  0  0  0  0
  8  2  1  0  0  0  0
  8 10  1  0  0  0  0
  9  8  1  0  0  0  0
 11 13  1  0  0  0  0
 11 12  1  0  0  0  0
 14 15  1  6  0  0  0
 14 11  1  0  0  0  0
 14 16  1  0  0  0  0
 16 26  2  0  0  0  0
 17 18  1  0  0  0  0
 17 16  1  0  0  0  0
 17 19  1  0  0  0  0
 20 17  1  0  0  0  0
 21 20  1  0  0  0  0
 22 20  1  0  0  0  0
 23 20  1  0  0  0  0
 23 25  1  0  0  0  0
 23 14  1  0  0  0  0
 24 23  1  0  0  0  0
M  END
