3
q = -1.0

 32 32  0  0  1  0  0  0  0  0999 V2000
    0.5063    1.6815   -0.1071 O   0  0  0  0  0  0  0  0  0  0  0  0
    2.0792   -1.7227   -1.8981 O   0  0  0  0  0  0  0  0  0  0  0  0
   -0.0841   -0.6437    0.1668 C   0  0  0  0  0  3  0  0  0  0  0  0
    0.8428    0.3531   -0.5105 C   0  0  2  0  0  0  0  0  0  0  0  0
    2.3498    0.0564   -0.2705 C   0  0  2  0  0  0  0  0  0  0  0  0
    2.8259   -1.1068   -1.1492 C   0  0  0  0  0  0  0  0  0  0  0  0
    4.3044   -1.4488   -1.0343 C   0  0  0  0  0  0  0  0  0  0  0  0
    4.7186   -1.6379    0.4340 C   0  0  0  0  0  0  0  0  0  0  0  0
    4.3083   -0.4303    1.2774 C   0  0  0  0  0  0  0  0  0  0  0  0
    2.7984   -0.1427    1.2080 C   0  0  1  0  0  0  0  0  0  0  0  0
    2.4276    1.0410    2.1074 C   0  0  0  0  0  0  0  0  0  0  0  0
    0.8813    2.7084   -1.0053 C   0  0  0  0  0  0  0  0  0  0  0  0
    0.2973    4.0186   -0.5070 C   0  0  0  0  0  0  0  0  0  0  0  0
    0.0974   -1.6219   -0.3174 H   0  0  0  0  0  0  0  0  0  0  0  0
    0.1453   -0.7385    1.2477 H   0  0  0  0  0  0  0  0  0  0  0  0
    0.6920    0.2649   -1.6116 H   0  0  0  0  0  0  0  0  0  0  0  0
    2.9232    0.9399   -0.6454 H   0  0  0  0  0  0  0  0  0  0  0  0
    4.8799   -0.5994   -1.4670 H   0  0  0  0  0  0  0  0  0  0  0  0
    4.5014   -2.3442   -1.6548 H   0  0  0  0  0  0  0  0  0  0  0  0
    5.8119   -1.8156    0.5010 H   0  0  0  0  0  0  0  0  0  0  0  0
    4.2274   -2.5518    0.8345 H   0  0  0  0  0  0  0  0  0  0  0  0
    4.8632    0.4729    0.9333 H   0  0  0  0  0  0  0  0  0  0  0  0
    4.6005   -0.5857    2.3376 H   0  0  0  0  0  0  0  0  0  0  0  0
    2.2747   -1.0486    1.5904 H   0  0  0  0  0  0  0  0  0  0  0  0
    2.9179    1.9713    1.7499 H   0  0  0  0  0  0  0  0  0  0  0  0
    1.3404    1.2362    2.1207 H   0  0  0  0  0  0  0  0  0  0  0  0
    2.7717    0.8562    3.1461 H   0  0  0  0  0  0  0  0  0  0  0  0
    0.5045    2.4719   -2.0306 H   0  0  0  0  0  0  0  0  0  0  0  0
    1.9953    2.7897   -1.0823 H   0  0  0  0  0  0  0  0  0  0  0  0
   -0.8078    3.9561   -0.4588 H   0  0  0  0  0  0  0  0  0  0  0  0
    0.6690    4.2502    0.5110 H   0  0  0  0  0  0  0  0  0  0  0  0
    0.5751    4.8522   -1.1820 H   0  0  0  0  0  0  0  0  0  0  0  0
  2  6  2  0  0  0  0
  3 15  1  0  0  0  0
  4 16  1  6  0  0  0
  4  5  1  0  0  0  0
  4  1  1  0  0  0  0
  4  3  1  0  0  0  0
  5 17  1  6  0  0  0
  5 10  1  0  0  0  0
  6  7  1  0  0  0  0
  6  5  1  0  0  0  0
  7  8  1  0  0  0  0
  8 20  1  0  0  0  0
  8 21  1  0  0  0  0
  8  9  1  0  0  0  0
  9 23  1  0  0  0  0
 10  9  1  0  0  0  0
 10 24  1  1  0  0  0
 10 11  1  0  0  0  0
 11 26  1  0  0  0  0
 11 27  1  0  0  0  0
 12 13  1  0  0  0  0
 12  1  1  0  0  0  0
 13 30  1  0  0  0  0
 13 31  1  0  0  0  0
 14  3  1  0  0  0  0
 18  7  1  0  0  0  0
 19  7  1  0  0  0  0
 22  9  1  0  0  0  0
 25 11  1  0  0  0  0
 28 12  1  0  0  0  0
 29 12  1  0  0  0  0
 32 13  1  0  0  0  0
M  END
