15
q = -1.0, confidence = 0.184

 35 39  0  0  1  0  0  0  0  0999 V2000
    1.0496   -0.2783    2.6243 N   0  0  0  0  0  0  0  0  0  0  0  0
    2.7865   -0.2577    0.2272 C   0  0  2  0  0  0  0  0  0  0  0  0
    2.1452   -1.4103   -0.6582 C   0  0  1  0  0  0  0  0  0  0  0  0
    2.0828   -2.4118   -0.2106 H   0  0  0  0  0  0  0  0  0  0  0  0
    3.3229   -0.5782    1.6276 C   0  0  0  0  0  0  0  0  0  0  0  0
    3.4197   -1.6762    1.7339 H   0  0  0  0  0  0  0  0  0  0  0  0
    4.3510   -0.1785    1.7210 H   0  0  0  0  0  0  0  0  0  0  0  0
    2.4986   -0.0017    2.7646 C   0  0  0  0  0  0  0  0  0  0  0  0
    2.8580   -0.4138    3.7369 H   0  0  0  0  0  0  0  0  0  0  0  0
    2.6165    1.1004    2.8055 H   0  0  0  0  0  0  0  0  0  0  0  0
    0.3416    0.1773    3.8290 C   0  0  0  0  0  0  0  0  0  0  0  0
    0.7611   -0.3194    4.7328 H   0  0  0  0  0  0  0  0  0  0  0  0
   -0.7319   -0.0653    3.7618 H   0  0  0  0  0  0  0  0  0  0  0  0
    0.4540    1.2742    3.9416 H   0  0  0  0  0  0  0  0  0  0  0  0
    0.6888   -1.6141    2.1214 C   0  0  0  0  0  3  0  0  0  0  0  0
   -0.1396   -2.0562    2.6974 H   0  0  0  0  0  0  0  0  0  0  0  0
    1.5408   -2.3152    2.0862 H   0  0  0  0  0  0  0  0  0  0  0  0
    1.0591   -0.8226   -1.7735 B   0  0  0  0  0  2  0  0  0  0  0  0
    0.1411   -1.5300   -2.1336 H   0  0  0  0  0  0  0  0  0  0  0  0
    1.0864    0.9456   -1.6140 B   0  0  2  0  0  0  0  0  0  0  0  0
    0.1847    1.6836   -1.9346 H   0  0  0  0  0  0  0  0  0  0  0  0
    2.1689    1.2255   -0.2471 B   0  0  2  0  0  0  0  0  0  0  0  0
    1.9869    2.0470    0.6464 H   0  0  0  0  0  0  0  0  0  0  0  0
    3.7834   -0.9952   -0.9656 B   0  0  1  0  0  0  0  0  0  0  0  0
    4.6528   -1.7370   -0.5777 H   0  0  0  0  0  0  0  0  0  0  0  0
    2.6738   -1.3541   -2.2905 B   0  0  2  0  0  0  0  0  0  0  0  0
    2.8329   -2.3917   -2.8890 H   0  0  0  0  0  0  0  0  0  0  0  0
    2.0247    0.1801   -2.9032 B   0  0  2  0  0  0  0  0  0  0  0  0
    1.7243    0.3049   -4.0696 H   0  0  0  0  0  0  0  0  0  0  0  0
    2.7341    1.5068   -1.9174 B   0  0  0  0  0  0  0  0  0  0  0  0
    2.9544    2.6173   -2.3491 H   0  0  0  0  0  0  0  0  0  0  0  0
    3.8066    0.7668   -0.7166 B   0  0  2  0  0  0  0  0  0  0  0  0
    4.7787    1.2337   -0.1687 H   0  0  0  0  0  0  0  0  0  0  0  0
    3.7300    0.0856   -2.3632 B   0  0  1  0  0  0  0  0  0  0  0  0
    4.6805    0.1317   -3.1096 H   0  0  0  0  0  0  0  0  0  0  0  0
  1  8  1  0  0  0  0
  1 11  1  0  0  0  0
  2  5  1  1  0  0  0
  3  4  1  1  0  0  0
  3  2  1  0  0  0  0
  5  7  1  0  0  0  0
  5  6  1  0  0  0  0
  5  8  1  0  0  0  0
  8 10  1  0  0  0  0
  8  9  1  0  0  0  0
 11 14  1  0  0  0  0
 11 12  1  0  0  0  0
 13 11  1  0  0  0  0
 15  1  1  0  0  0  0
 15 16  1  0  0  0  0
 17 15  1  0  0  0  0
 18  3  1  0  0  0  0
 19 18  1  0  0  0  0
 20 21  1  6  0  0  0
 20 22  1  0  0  0  0
 22  2  1  0  0  0  0
 22 23  1  1  0  0  0
 24 25  1  1  0  0  0
 24  2  1  0  0  0  0
 26 27  1  6  0  0  0
 26 24  1  0  0  0  0
 26  3  1  0  0  0  0
 28 29  1  6  0  0  0
 28 34  1  0  0  0  0
 28 26  1  0  0  0  0
 28 20  1  0  0  0  0
 30 20  1  0  0  0  0
 30 32  1  0  0  0  0
 31 30  1  0  0  0  0
 32 22  1  0  0  0  0
 32 33  1  1  0  0  0
 34 35  1  6  0  0  0
 34 24  1  0  0  0  0
 34 32  1  0  0  0  0
M  END
