1
q = -1.0

  6  5  0  0  0  0  0  0  0  0999 V2000
    0.8458   -2.6919    0.6803 C   0  0  0  0  0  3  0  0  0  0  0  0
    0.7980   -3.1881    1.6668 H   0  0  0  0  0  0  0  0  0  0  0  0
    1.8067   -2.9268   -0.1772 C   0  0  0  0  0  0  0  0  0  0  0  0
    2.7561   -3.1387   -1.0794 C   0  0  0  0  0  0  0  0  0  0  0  0
    3.6736   -2.5246   -1.1120 H   0  0  0  0  0  0  0  0  0  0  0  0
    2.6655   -3.9399   -1.8338 H   0  0  0  0  0  0  0  0  0  0  0  0
  1  2  1  0  0  0  0
  3  1  2  0  0  0  0
  4  3  2  0  0  0  0
  5  4  1  0  0  0  0
  6  4  1  0  0  0  0
M  END
