2
q = -1.0, confidence = 0.0

 16 16  0  0  1  0  0  0  0  0999 V2000
   -0.4297   -2.6385   -0.4228 S   0  0  0  0  0  1  0  0  0  0  0  0
    0.6021   -0.4746   -1.9084 C   0  0  0  0  0  3  0  0  0  0  0  0
   -0.2659   -0.6029   -2.5692 H   0  0  0  0  0  0  0  0  0  0  0  0
    1.4892   -0.0415   -2.3949 H   0  0  0  0  0  0  0  0  0  0  0  0
    0.8099   -1.3552   -0.8050 C   0  0  2  0  0  3  0  0  0  0  0  0
    2.1681   -1.7883   -0.3585 C   0  0  0  0  0  0  0  0  0  0  0  0
    3.2364   -1.8723   -1.2785 C   0  0  0  0  0  0  0  0  0  0  0  0
    3.0533   -1.6555   -2.3414 H   0  0  0  0  0  0  0  0  0  0  0  0
    4.5196   -2.2513   -0.8547 C   0  0  0  0  0  0  0  0  0  0  0  0
    5.3389   -2.3143   -1.5871 H   0  0  0  0  0  0  0  0  0  0  0  0
    4.7542   -2.5619    0.4929 C   0  0  0  0  0  0  0  0  0  0  0  0
    5.7601   -2.8597    0.8255 H   0  0  0  0  0  0  0  0  0  0  0  0
    3.6907   -2.5087    1.4125 C   0  0  0  0  0  0  0  0  0  0  0  0
    3.8631   -2.7647    2.4691 H   0  0  0  0  0  0  0  0  0  0  0  0
    2.4089   -2.1361    0.9918 C   0  0  0  0  0  0  0  0  0  0  0  0
    1.5698   -2.0902    1.7029 H   0  0  0  0  0  0  0  0  0  0  0  0
  2  5  1  0  0  0  0
  3  2  1  0  0  0  0
  4  2  1  0  0  0  0
  5  1  1  6  0  0  0
  5  6  1  0  0  0  0
  6 15  1  0  0  0  0
  7  9  1  0  0  0  0
  7  6  2  0  0  0  0
  8  7  1  0  0  0  0
  9 11  2  0  0  0  0
 10  9  1  0  0  0  0
 11 12  1  0  0  0  0
 11 13  1  0  0  0  0
 13 14  1  0  0  0  0
 15 13  2  0  0  0  0
 15 16  1  0  0  0  0
M  END
