1
q = -1.0

 12 11  0  0  0  0  0  0  0  0999 V2000
    0.8667    0.5255    1.7171 C   0  0  0  0  0  3  0  0  0  0  0  0
    2.0772    1.2897    1.3921 C   0  0  0  0  0  0  0  0  0  0  0  0
    3.3822    0.8791    1.4395 C   0  0  0  0  0  0  0  0  0  0  0  0
    4.4975    1.6611    0.9506 C   0  0  0  0  0  0  0  0  0  0  0  0
    5.8026    1.2860    0.9550 C   0  0  0  0  0  0  0  0  0  0  0  0
    1.1054   -0.3969    2.2883 H   0  0  0  0  0  0  0  0  0  0  0  0
    0.1592    1.1317    2.3187 H   0  0  0  0  0  0  0  0  0  0  0  0
    1.9062    2.3113    0.9957 H   0  0  0  0  0  0  0  0  0  0  0  0
    3.6197   -0.1134    1.8670 H   0  0  0  0  0  0  0  0  0  0  0  0
    4.2360    2.6501    0.5284 H   0  0  0  0  0  0  0  0  0  0  0  0
    6.5927    1.9417    0.5600 H   0  0  0  0  0  0  0  0  0  0  0  0
    6.1149    0.3079    1.3579 H   0  0  0  0  0  0  0  0  0  0  0  0
  1  6  1  0  0  0  0
  1  7  1  0  0  0  0
  2  3  2  0  0  0  0
  2  1  1  0  0  0  0
  3  9  1  0  0  0  0
  4  5  2  0  0  0  0
  4  3  1  0  0  0  0
  5 12  1  0  0  0  0
  8  2  1  0  0  0  0
 10  4  1  0  0  0  0
 11  5  1  0  0  0  0
M  END
