2
q = -1.0

 44 45  0  0  1  0  0  0  0  0999 V2000
   -5.3062   -0.9679   -0.6987 Si  0  0  0  0  0  0  0  0  0  0  0  0
    0.8616   -1.8559   -0.8403 C   0  0  2  0  0  3  0  0  0  0  0  0
    1.8046   -1.3781   -1.8221 C   0  0  1  0  0  3  0  0  0  0  0  0
    3.1086   -1.8447   -1.4489 C   0  0  0  0  0  0  0  0  0  0  0  0
    2.9895   -2.5860   -0.2355 C   0  0  0  0  0  0  0  0  0  0  0  0
    1.6023   -2.6101    0.1411 C   0  0  2  0  0  3  0  0  0  0  0  0
   -0.6054   -1.6798   -0.8951 C   0  0  0  0  0  0  0  0  0  0  0  0
   -1.4768   -2.7535   -0.6044 C   0  0  0  0  0  0  0  0  0  0  0  0
   -1.0610   -3.7497   -0.3963 H   0  0  0  0  0  0  0  0  0  0  0  0
   -2.8665   -2.5655   -0.5806 C   0  0  0  0  0  0  0  0  0  0  0  0
   -3.5102   -3.4249   -0.3333 H   0  0  0  0  0  0  0  0  0  0  0  0
   -3.4469   -1.3073   -0.8536 C   0  0  0  0  0  0  0  0  0  0  0  0
   -2.5707   -0.2547   -1.2026 C   0  0  0  0  0  0  0  0  0  0  0  0
   -2.9667    0.7492   -1.4274 H   0  0  0  0  0  0  0  0  0  0  0  0
   -1.1847   -0.4351   -1.2291 C   0  0  0  0  0  0  0  0  0  0  0  0
   -0.5399    0.4200   -1.4642 H   0  0  0  0  0  0  0  0  0  0  0  0
   -5.5468    0.2943    0.6940 C   0  0  0  0  0  0  0  0  0  0  0  0
   -6.6151    0.5676    0.8168 H   0  0  0  0  0  0  0  0  0  0  0  0
   -4.9743    1.2201    0.4804 H   0  0  0  0  0  0  0  0  0  0  0  0
   -5.1793   -0.1109    1.6593 H   0  0  0  0  0  0  0  0  0  0  0  0
   -6.2218   -2.5732   -0.2954 C   0  0  0  0  0  0  0  0  0  0  0  0
   -5.8751   -3.0083    0.6644 H   0  0  0  0  0  0  0  0  0  0  0  0
   -6.0767   -3.3339   -1.0897 H   0  0  0  0  0  0  0  0  0  0  0  0
   -7.3114   -2.3855   -0.2040 H   0  0  0  0  0  0  0  0  0  0  0  0
   -5.9448   -0.2397   -2.3259 C   0  0  0  0  0  0  0  0  0  0  0  0
   -5.8187   -0.9585   -3.1609 H   0  0  0  0  0  0  0  0  0  0  0  0
   -5.3937    0.6860   -2.5906 H   0  0  0  0  0  0  0  0  0  0  0  0
   -7.0218    0.0174   -2.2519 H   0  0  0  0  0  0  0  0  0  0  0  0
    1.4959   -0.7977   -3.1698 C   0  0  0  0  0  0  0  0  0  0  0  0
    2.2475   -0.0502   -3.4856 H   0  0  0  0  0  0  0  0  0  0  0  0
    0.4973   -0.3317   -3.2180 H   0  0  0  0  0  0  0  0  0  0  0  0
    1.5155   -1.6165   -3.9219 H   0  0  0  0  0  0  0  0  0  0  0  0
    4.3411   -1.6929   -2.2811 C   0  0  0  0  0  0  0  0  0  0  0  0
    4.3483   -2.4546   -3.0908 H   0  0  0  0  0  0  0  0  0  0  0  0
    5.2603   -1.8250   -1.6809 H   0  0  0  0  0  0  0  0  0  0  0  0
    4.3944   -0.6931   -2.7520 H   0  0  0  0  0  0  0  0  0  0  0  0
    4.0951   -3.2925    0.4836 C   0  0  0  0  0  0  0  0  0  0  0  0
    4.1403   -4.3599    0.1768 H   0  0  0  0  0  0  0  0  0  0  0  0
    3.9481   -3.2583    1.5797 H   0  0  0  0  0  0  0  0  0  0  0  0
    5.0794   -2.8368    0.2640 H   0  0  0  0  0  0  0  0  0  0  0  0
    1.0791   -3.3994    1.3026 C   0  0  0  0  0  0  0  0  0  0  0  0
    1.1307   -4.4853    1.0721 H   0  0  0  0  0  0  0  0  0  0  0  0
    0.0309   -3.1541    1.5416 H   0  0  0  0  0  0  0  0  0  0  0  0
    1.6905   -3.2178    2.2082 H   0  0  0  0  0  0  0  0  0  0  0  0
  1 21  1  0  0  0  0
  1 17  1  0  0  0  0
  2  7  1  6  0  0  0
  2  6  1  0  0  0  0
  3 29  1  6  0  0  0
  3  4  1  0  0  0  0
  3  2  1  0  0  0  0
  4  5  2  0  0  0  0
  5  6  1  0  0  0  0
  5 37  1  0  0  0  0
  6 41  1  6  0  0  0
  7  8  1  0  0  0  0
  8 10  2  0  0  0  0
  8  9  1  0  0  0  0
 10 11  1  0  0  0  0
 12  1  1  0  0  0  0
 12 10  1  0  0  0  0
 13 12  2  0  0  0  0
 14 13  1  0  0  0  0
 15 13  1  0  0  0  0
 15  7  2  0  0  0  0
 16 15  1  0  0  0  0
 17 18  1  0  0  0  0
 17 20  1  0  0  0  0
 19 17  1  0  0  0  0
 21 24  1  0  0  0  0
 21 22  1  0  0  0  0
 23 21  1  0  0  0  0
 25 28  1  0  0  0  0
 25  1  1  0  0  0  0
 26 25  1  0  0  0  0
 27 25  1  0  0  0  0
 30 29  1  0  0  0  0
 31 29  1  0  0  0  0
 32 29  1  0  0  0  0
 33 35  1  0  0  0  0
 33  4  1  0  0  0  0
 34 33  1  0  0  0  0
 36 33  1  0  0  0  0
 37 39  1  0  0  0  0
 38 37  1  0  0  0  0
 40 37  1  0  0  0  0
 41 43  1  0  0  0  0
 41 44  1  0  0  0  0
 42 41  1  0  0  0  0
M  END
