1
q = 0.0, confidence = 0.828

 13 13  0  0  0  0  0  0  0  0999 V2000
    0.4118    1.7605   -0.1105 C   0  0  0  0  0  2  0  0  0  0  0  0
    0.7147    2.7108   -1.2522 C   0  0  0  0  0  0  0  0  0  0  0  0
    0.5718    4.1358   -0.6876 C   0  0  0  0  0  0  0  0  0  0  0  0
    1.0680    3.9760    0.7549 C   0  0  0  0  0  0  0  0  0  0  0  0
    0.4941    2.6063    1.1640 C   0  0  0  0  0  0  0  0  0  0  0  0
    0.1380    2.4899   -2.1700 H   0  0  0  0  0  0  0  0  0  0  0  0
    1.7793    2.5290   -1.5329 H   0  0  0  0  0  0  0  0  0  0  0  0
   -0.4989    4.4411   -0.6891 H   0  0  0  0  0  0  0  0  0  0  0  0
    1.1292    4.8945   -1.2731 H   0  0  0  0  0  0  0  0  0  0  0  0
    0.7594    4.7985    1.4313 H   0  0  0  0  0  0  0  0  0  0  0  0
    2.1782    3.9371    0.7603 H   0  0  0  0  0  0  0  0  0  0  0  0
    1.0430    2.0909    1.9767 H   0  0  0  0  0  0  0  0  0  0  0  0
   -0.5468    2.7257    1.5460 H   0  0  0  0  0  0  0  0  0  0  0  0
  1  5  1  0  0  0  0
  2  3  1  0  0  0  0
  2  1  1  0  0  0  0
  3  4  1  0  0  0  0
  4 11  1  0  0  0  0
  4  5  1  0  0  0  0
  4 10  1  0  0  0  0
  5 13  1  0  0  0  0
  5 12  1  0  0  0  0
  6  2  1  0  0  0  0
  7  2  1  0  0  0  0
  8  3  1  0  0  0  0
  9  3  1  0  0  0  0
M  END
