2
q = 0.0, confidence = 0.992

 50 53  0  0  0  0  0  0  0  0999 V2000
   -1.8327    0.8220    0.0263 P   0  0  0  0  0  4  0  0  0  0  0  0
   -1.0975   -0.5976   -0.8137 C   0  0  0  0  0  3  0  0  0  0  0  0
   -1.3169   -0.3891   -1.8848 H   0  0  0  0  0  0  0  0  0  0  0  0
   -1.7893   -1.8689   -0.3950 C   0  0  0  0  0  0  0  0  0  0  0  0
   -2.7354   -2.4758   -1.2463 C   0  0  0  0  0  0  0  0  0  0  0  0
   -2.9245   -2.0258   -2.2351 H   0  0  0  0  0  0  0  0  0  0  0  0
   -3.4618   -3.6223   -0.8664 C   0  0  0  0  0  0  0  0  0  0  0  0
   -3.2330   -4.1622    0.4134 C   0  0  0  0  0  0  0  0  0  0  0  0
   -3.7936   -5.0543    0.7344 H   0  0  0  0  0  0  0  0  0  0  0  0
   -2.2868   -3.5793    1.2736 C   0  0  0  0  0  0  0  0  0  0  0  0
   -2.1028   -4.0215    2.2648 H   0  0  0  0  0  0  0  0  0  0  0  0
   -1.5631   -2.4490    0.8754 C   0  0  0  0  0  0  0  0  0  0  0  0
   -0.8079   -2.0094    1.5429 H   0  0  0  0  0  0  0  0  0  0  0  0
   -4.4701   -4.2287   -1.8103 C   0  0  0  0  0  0  0  0  0  0  0  0
   -3.9884   -4.5673   -2.7513 H   0  0  0  0  0  0  0  0  0  0  0  0
   -5.2465   -3.4883   -2.0972 H   0  0  0  0  0  0  0  0  0  0  0  0
   -4.9812   -5.1008   -1.3589 H   0  0  0  0  0  0  0  0  0  0  0  0
   -3.6364    0.8627   -0.2674 C   0  0  0  0  0  0  0  0  0  0  0  0
   -4.4377   -0.1800    0.2553 C   0  0  0  0  0  0  0  0  0  0  0  0
   -4.0000   -0.9410    0.9179 H   0  0  0  0  0  0  0  0  0  0  0  0
   -5.7989   -0.2450   -0.0742 C   0  0  0  0  0  0  0  0  0  0  0  0
   -6.4154   -1.0590    0.3357 H   0  0  0  0  0  0  0  0  0  0  0  0
   -6.3689    0.7160   -0.9248 C   0  0  0  0  0  0  0  0  0  0  0  0
   -7.4377    0.6599   -1.1809 H   0  0  0  0  0  0  0  0  0  0  0  0
   -5.5746    1.7483   -1.4486 C   0  0  0  0  0  0  0  0  0  0  0  0
   -6.0179    2.5038   -2.1147 H   0  0  0  0  0  0  0  0  0  0  0  0
   -4.2116    1.8228   -1.1256 C   0  0  0  0  0  0  0  0  0  0  0  0
   -3.5913    2.6307   -1.5413 H   0  0  0  0  0  0  0  0  0  0  0  0
   -1.1620    2.3858   -0.6230 C   0  0  0  0  0  0  0  0  0  0  0  0
   -0.4206    2.4216   -1.8203 C   0  0  0  0  0  0  0  0  0  0  0  0
   -0.1824    1.4917   -2.3566 H   0  0  0  0  0  0  0  0  0  0  0  0
    0.0525    3.6493   -2.3065 C   0  0  0  0  0  0  0  0  0  0  0  0
    0.6414    3.6730   -3.2353 H   0  0  0  0  0  0  0  0  0  0  0  0
   -0.2097    4.8362   -1.6045 C   0  0  0  0  0  0  0  0  0  0  0  0
    0.1703    5.7957   -1.9866 H   0  0  0  0  0  0  0  0  0  0  0  0
   -0.9454    4.7997   -0.4086 C   0  0  0  0  0  0  0  0  0  0  0  0
   -1.1427    5.7275    0.1488 H   0  0  0  0  0  0  0  0  0  0  0  0
   -1.4205    3.5772    0.0858 C   0  0  0  0  0  0  0  0  0  0  0  0
   -1.9844    3.5460    1.0308 H   0  0  0  0  0  0  0  0  0  0  0  0
   -1.5852    0.8468    1.8354 C   0  0  0  0  0  0  0  0  0  0  0  0
   -0.2889    0.6509    2.3555 C   0  0  0  0  0  0  0  0  0  0  0  0
    0.5536    0.4242    1.6781 H   0  0  0  0  0  0  0  0  0  0  0  0
   -0.0697    0.7225    3.7367 C   0  0  0  0  0  0  0  0  0  0  0  0
    0.9472    0.5546    4.1216 H   0  0  0  0  0  0  0  0  0  0  0  0
   -1.1364    1.0015    4.6068 C   0  0  0  0  0  0  0  0  0  0  0  0
   -0.9635    1.0550    5.6925 H   0  0  0  0  0  0  0  0  0  0  0  0
   -2.4242    1.2153    4.0906 C   0  0  0  0  0  0  0  0  0  0  0  0
   -3.2619    1.4395    4.7679 H   0  0  0  0  0  0  0  0  0  0  0  0
   -2.6538    1.1418    2.7079 C   0  0  0  0  0  0  0  0  0  0  0  0
   -3.6653    1.3114    2.3118 H   0  0  0  0  0  0  0  0  0  0  0  0
  1 40  1  0  0  0  0
  2  4  1  0  0  0  0
  2  1  1  0  0  0  0
  3  2  1  0  0  0  0
  4 12  1  0  0  0  0
  5  7  1  0  0  0  0
  5  4  2  0  0  0  0
  6  5  1  0  0  0  0
  7  8  2  0  0  0  0
  8  9  1  0  0  0  0
  8 10  1  0  0  0  0
 10 11  1  0  0  0  0
 12 10  2  0  0  0  0
 12 13  1  0  0  0  0
 14 17  1  0  0  0  0
 14  7  1  0  0  0  0
 15 14  1  0  0  0  0
 16 14  1  0  0  0  0
 18  1  1  0  0  0  0
 18 19  1  0  0  0  0
 19 20  1  0  0  0  0
 21 19  2  0  0  0  0
 21 22  1  0  0  0  0
 23 21  1  0  0  0  0
 24 23  1  0  0  0  0
 25 27  1  0  0  0  0
 25 23  2  0  0  0  0
 26 25  1  0  0  0  0
 27 18  2  0  0  0  0
 28 27  1  0  0  0  0
 29  1  1  0  0  0  0
 29 38  1  0  0  0  0
 30 29  2  0  0  0  0
 31 30  1  0  0  0  0
 32 30  1  0  0  0  0
 32 34  2  0  0  0  0
 33 32  1  0  0  0  0
 34 36  1  0  0  0  0
 35 34  1  0  0  0  0
 36 38  2  0  0  0  0
 36 37  1  0  0  0  0
 38 39  1  0  0  0  0
 40 41  2  0  0  0  0
 40 49  1  0  0  0  0
 41 43  1  0  0  0  0
 42 41  1  0  0  0  0
 43 44  1  0  0  0  0
 43 45  2  0  0  0  0
 45 46  1  0  0  0  0
 47 45  1  0  0  0  0
 47 48  1  0  0  0  0
 49 47  2  0  0  0  0
 50 49  1  0  0  0  0
M  END
