1
q = -1.0, confidence = 0.038

 42 43  0  0  0  0  0  0  0  0999 V2000
    2.7639   -0.3065   -0.1239 C   0  0  0  0  0  3  0  0  0  0  0  0
    1.5299   -0.1665   -0.1368 C   0  0  0  0  0  0  0  0  0  0  0  0
    0.1147   -0.0056   -0.1518 C   0  0  0  0  0  0  0  0  0  0  0  0
   -0.7471   -1.1033   -0.4130 C   0  0  0  0  0  0  0  0  0  0  0  0
   -0.3031   -2.0886   -0.6163 H   0  0  0  0  0  0  0  0  0  0  0  0
   -2.1333   -0.9398   -0.4279 C   0  0  0  0  0  0  0  0  0  0  0  0
   -2.7715   -1.8048   -0.6640 H   0  0  0  0  0  0  0  0  0  0  0  0
   -2.7335    0.3186   -0.1828 C   0  0  0  0  0  0  0  0  0  0  0  0
   -1.8713    1.4108    0.0773 C   0  0  0  0  0  0  0  0  0  0  0  0
   -2.3034    2.3981    0.3005 H   0  0  0  0  0  0  0  0  0  0  0  0
   -0.4838    1.2583    0.0930 C   0  0  0  0  0  0  0  0  0  0  0  0
    0.1658    2.1194    0.3075 H   0  0  0  0  0  0  0  0  0  0  0  0
   -4.2048    0.4862   -0.1973 C   0  0  0  0  0  0  0  0  0  0  0  0
   -5.0690   -0.5529    0.2094 C   0  0  0  0  0  0  0  0  0  0  0  0
   -4.6409   -1.4995    0.5720 H   0  0  0  0  0  0  0  0  0  0  0  0
   -6.4637   -0.4069    0.2015 C   0  0  0  0  0  0  0  0  0  0  0  0
   -7.0919   -1.2416    0.5398 H   0  0  0  0  0  0  0  0  0  0  0  0
   -7.0383    0.8087   -0.2237 C   0  0  0  0  0  0  0  0  0  0  0  0
   -6.1908    1.8609   -0.6349 C   0  0  0  0  0  0  0  0  0  0  0  0
   -6.6532    2.7988   -0.9753 H   0  0  0  0  0  0  0  0  0  0  0  0
   -4.8061    1.6985   -0.6193 C   0  0  0  0  0  0  0  0  0  0  0  0
   -4.1690    2.5239   -0.9707 H   0  0  0  0  0  0  0  0  0  0  0  0
   -9.2805    0.0342    0.1191 C   0  0  0  0  0  0  0  0  0  0  0  0
   -9.0892   -0.2652    1.1772 H   0  0  0  0  0  0  0  0  0  0  0  0
   -9.1286   -0.8749   -0.5103 H   0  0  0  0  0  0  0  0  0  0  0  0
  -10.6973    0.5636   -0.0385 C   0  0  0  0  0  0  0  0  0  0  0  0
  -10.8424    0.8777   -1.0946 H   0  0  0  0  0  0  0  0  0  0  0  0
  -10.8014    1.4840    0.5755 H   0  0  0  0  0  0  0  0  0  0  0  0
  -11.7618   -0.4610    0.3597 C   0  0  0  0  0  0  0  0  0  0  0  0
  -11.6380   -1.3836   -0.2516 H   0  0  0  0  0  0  0  0  0  0  0  0
  -11.5979   -0.7774    1.4149 H   0  0  0  0  0  0  0  0  0  0  0  0
  -13.1946    0.0559    0.2061 C   0  0  0  0  0  0  0  0  0  0  0  0
  -13.3598    0.3724   -0.8487 H   0  0  0  0  0  0  0  0  0  0  0  0
  -13.3194    0.9791    0.8164 H   0  0  0  0  0  0  0  0  0  0  0  0
  -14.2664   -0.9634    0.6035 C   0  0  0  0  0  0  0  0  0  0  0  0
  -14.1362   -1.8849   -0.0069 H   0  0  0  0  0  0  0  0  0  0  0  0
  -14.0962   -1.2781    1.6574 H   0  0  0  0  0  0  0  0  0  0  0  0
  -15.6940   -0.4388    0.4466 C   0  0  0  0  0  0  0  0  0  0  0  0
  -16.4463   -1.1977    0.7414 H   0  0  0  0  0  0  0  0  0  0  0  0
  -15.9041   -0.1505   -0.6047 H   0  0  0  0  0  0  0  0  0  0  0  0
  -15.8638    0.4615    1.0736 H   0  0  0  0  0  0  0  0  0  0  0  0
   -8.3750    1.0591   -0.2724 O   0  0  0  0  0  0  0  0  0  0  0  0
  2  1  3  0  0  0  0
  3  2  1  0  0  0  0
  3 11  1  0  0  0  0
  4  3  2  0  0  0  0
  5  4  1  0  0  0  0
  6  4  1  0  0  0  0
  6  8  2  0  0  0  0
  7  6  1  0  0  0  0
  8  9  1  0  0  0  0
  9 11  2  0  0  0  0
  9 10  1  0  0  0  0
 11 12  1  0  0  0  0
 13  8  1  0  0  0  0
 13 14  1  0  0  0  0
 14 15  1  0  0  0  0
 16 14  2  0  0  0  0
 16 17  1  0  0  0  0
 18 16  1  0  0  0  0
 19 21  1  0  0  0  0
 19 18  2  0  0  0  0
 20 19  1  0  0  0  0
 21 13  2  0  0  0  0
 22 21  1  0  0  0  0
 23 24  1  0  0  0  0
 25 23  1  0  0  0  0
 26 23  1  0  0  0  0
 26 29  1  0  0  0  0
 26 28  1  0  0  0  0
 27 26  1  0  0  0  0
 29 31  1  0  0  0  0
 30 29  1  0  0  0  0
 32 29  1  0  0  0  0
 32 35  1  0  0  0  0
 32 34  1  0  0  0  0
 33 32  1  0  0  0  0
 35 37  1  0  0  0  0
 36 35  1  0  0  0  0
 38 35  1  0  0  0  0
 38 39  1  0  0  0  0
 38 41  1  0  0  0  0
 40 38  1  0  0  0  0
 42 18  1  0  0  0  0
 42 23  1  0  0  0  0
M  END
