2
q = -1.0, confidence = 0.0

 35 35  0  0  0  0  0  0  0  0999 V2000
    0.0497   -1.4852    0.0780 N   0  0  0  0  0  0  0  0  0  0  0  0
    1.0634   -0.7299    0.1143 C   0  0  0  0  0  3  0  0  0  0  0  0
    2.5190   -0.8445    0.1411 C   0  0  0  0  0  0  0  0  0  0  0  0
    3.1930   -0.7504    1.3874 C   0  0  0  0  0  0  0  0  0  0  0  0
    4.5955   -0.7650    1.3940 C   0  0  0  0  0  0  0  0  0  0  0  0
    5.3464   -0.8626    0.2055 C   0  0  0  0  0  0  0  0  0  0  0  0
    4.6490   -0.9600   -1.0119 C   0  0  0  0  0  0  0  0  0  0  0  0
    3.2442   -0.9562   -1.0723 C   0  0  0  0  0  0  0  0  0  0  0  0
    2.3912   -0.6571    2.6576 C   0  0  0  0  0  0  0  0  0  0  0  0
    6.8538   -0.8378    0.2444 C   0  0  0  0  0  0  0  0  0  0  0  0
    2.5198   -1.0977   -2.3862 C   0  0  0  0  0  0  0  0  0  0  0  0
   -0.1648   -2.9446   -0.0052 C   0  0  0  0  0  0  0  0  0  0  0  0
    1.1631   -3.7093    0.0923 C   0  0  0  0  0  0  0  0  0  0  0  0
   -1.1008   -3.3495    1.1454 C   0  0  0  0  0  0  0  0  0  0  0  0
   -0.8570   -3.1961   -1.3570 C   0  0  0  0  0  0  0  0  0  0  0  0
    5.1202   -0.6939    2.3610 H   0  0  0  0  0  0  0  0  0  0  0  0
    5.2174   -1.0424   -1.9528 H   0  0  0  0  0  0  0  0  0  0  0  0
    1.5737    0.0858    2.5505 H   0  0  0  0  0  0  0  0  0  0  0  0
    1.8979   -1.6245    2.8953 H   0  0  0  0  0  0  0  0  0  0  0  0
    3.0213   -0.3792    3.5241 H   0  0  0  0  0  0  0  0  0  0  0  0
    7.2321    0.1829    0.4675 H   0  0  0  0  0  0  0  0  0  0  0  0
    7.2516   -1.5062    1.0350 H   0  0  0  0  0  0  0  0  0  0  0  0
    7.2934   -1.1503   -0.7227 H   0  0  0  0  0  0  0  0  0  0  0  0
    3.1479   -0.7648   -3.2352 H   0  0  0  0  0  0  0  0  0  0  0  0
    1.5752   -0.5173   -2.3905 H   0  0  0  0  0  0  0  0  0  0  0  0
    2.2441   -2.1575   -2.5799 H   0  0  0  0  0  0  0  0  0  0  0  0
    1.8504   -3.4517   -0.7356 H   0  0  0  0  0  0  0  0  0  0  0  0
    1.6835   -3.4936    1.0462 H   0  0  0  0  0  0  0  0  0  0  0  0
    0.9662   -4.7990    0.0481 H   0  0  0  0  0  0  0  0  0  0  0  0
   -0.6395   -3.1257    2.1279 H   0  0  0  0  0  0  0  0  0  0  0  0
   -1.2987   -4.4386    1.0955 H   0  0  0  0  0  0  0  0  0  0  0  0
   -2.0635   -2.8093    1.0757 H   0  0  0  0  0  0  0  0  0  0  0  0
   -0.2080   -2.8782   -2.1973 H   0  0  0  0  0  0  0  0  0  0  0  0
   -1.8068   -2.6298   -1.4119 H   0  0  0  0  0  0  0  0  0  0  0  0
   -1.0764   -4.2762   -1.4733 H   0  0  0  0  0  0  0  0  0  0  0  0
  1  2  2  0  0  0  0
  2  3  1  0  0  0  0
  3  4  1  0  0  0  0
  4  5  2  0  0  0  0
  4  9  1  0  0  0  0
  5 16  1  0  0  0  0
  6 10  1  0  0  0  0
  6  5  1  0  0  0  0
  7  6  2  0  0  0  0
  8  7  1  0  0  0  0
  8  3  2  0  0  0  0
  9 19  1  0  0  0  0
  9 20  1  0  0  0  0
 10 21  1  0  0  0  0
 10 22  1  0  0  0  0
 11  8  1  0  0  0  0
 12  1  1  0  0  0  0
 12 13  1  0  0  0  0
 12 14  1  0  0  0  0
 13 28  1  0  0  0  0
 14 30  1  0  0  0  0
 15 12  1  0  0  0  0
 17  7  1  0  0  0  0
 18  9  1  0  0  0  0
 23 10  1  0  0  0  0
 24 11  1  0  0  0  0
 25 11  1  0  0  0  0
 26 11  1  0  0  0  0
 27 13  1  0  0  0  0
 29 13  1  0  0  0  0
 31 14  1  0  0  0  0
 32 14  1  0  0  0  0
 33 15  1  0  0  0  0
 34 15  1  0  0  0  0
 35 15  1  0  0  0  0
M  END
