8
q = -1.0

 29 30  0  0  1  0  0  0  0  0999 V2000
    0.5068   -1.7111   -0.9441 C   0  0  2  0  0  3  0  0  0  0  0  0
    1.7748   -2.0224   -1.5326 C   0  0  0  0  0  0  0  0  0  0  0  0
    2.3504   -2.9349   -1.3440 H   0  0  0  0  0  0  0  0  0  0  0  0
    2.1667   -0.9420   -2.3639 C   0  0  0  0  0  0  0  0  0  0  0  0
    3.1094   -0.8644   -2.9176 H   0  0  0  0  0  0  0  0  0  0  0  0
    1.1353    0.0465   -2.3212 C   0  0  0  0  0  3  0  0  0  0  0  0
    1.1458    1.0157   -2.8332 H   0  0  0  0  0  0  0  0  0  0  0  0
    0.1129   -0.4219   -1.4533 C   0  0  0  0  0  3  0  0  0  0  0  0
   -0.8100    0.1119   -1.1946 H   0  0  0  0  0  0  0  0  0  0  0  0
   -0.2500   -2.5535    0.0157 C   0  0  0  0  0  0  0  0  0  0  0  0
    0.3953   -3.3628    0.9031 C   0  0  0  0  0  0  0  0  0  0  0  0
   -0.1454   -4.0363    1.5806 H   0  0  0  0  0  0  0  0  0  0  0  0
    1.4905   -3.3315    0.9803 H   0  0  0  0  0  0  0  0  0  0  0  0
   -1.6475   -2.3800   -0.0191 N   0  0  0  0  0  0  0  0  0  0  0  0
   -2.4236   -2.9304    1.0872 C   0  0  0  0  0  0  0  0  0  0  0  0
   -1.8794   -2.7133    2.0284 H   0  0  0  0  0  0  0  0  0  0  0  0
   -2.4985   -4.0468    1.0085 H   0  0  0  0  0  0  0  0  0  0  0  0
   -3.8293   -2.3247    1.1338 C   0  0  0  0  0  0  0  0  0  0  0  0
   -3.7412   -1.2439    1.3794 H   0  0  0  0  0  0  0  0  0  0  0  0
   -4.4002   -2.7965    1.9599 H   0  0  0  0  0  0  0  0  0  0  0  0
   -4.5599   -2.4831   -0.2026 C   0  0  0  0  0  0  0  0  0  0  0  0
   -4.7599   -3.5625   -0.3877 H   0  0  0  0  0  0  0  0  0  0  0  0
   -5.5485   -1.9796   -0.1728 H   0  0  0  0  0  0  0  0  0  0  0  0
   -3.6961   -1.9299   -1.3400 C   0  0  0  0  0  0  0  0  0  0  0  0
   -4.1692   -2.1132   -2.3268 H   0  0  0  0  0  0  0  0  0  0  0  0
   -3.5904   -0.8286   -1.2288 H   0  0  0  0  0  0  0  0  0  0  0  0
   -2.3050   -2.5606   -1.3220 C   0  0  0  0  0  0  0  0  0  0  0  0
   -2.3897   -3.6549   -1.5485 H   0  0  0  0  0  0  0  0  0  0  0  0
   -1.6630   -2.1233   -2.1096 H   0  0  0  0  0  0  0  0  0  0  0  0
  1 10  1  1  0  0  0
  2  3  1  0  0  0  0
  2  1  1  0  0  0  0
  4  6  1  0  0  0  0
  4  2  2  0  0  0  0
  5  4  1  0  0  0  0
  6  8  1  0  0  0  0
  7  6  1  0  0  0  0
  8  9  1  0  0  0  0
  8  1  1  0  0  0  0
 10 11  2  0  0  0  0
 11 13  1  0  0  0  0
 11 12  1  0  0  0  0
 14 10  1  0  0  0  0
 14 15  1  0  0  0  0
 15 18  1  0  0  0  0
 15 16  1  0  0  0  0
 17 15  1  0  0  0  0
 18 19  1  0  0  0  0
 18 20  1  0  0  0  0
 21 23  1  0  0  0  0
 21 18  1  0  0  0  0
 22 21  1  0  0  0  0
 24 27  1  0  0  0  0
 24 26  1  0  0  0  0
 24 21  1  0  0  0  0
 25 24  1  0  0  0  0
 27 14  1  0  0  0  0
 28 27  1  0  0  0  0
 29 27  1  0  0  0  0
M  END
