8
q = -1.0

 22 22  0  0  1  0  0  0  0  0999 V2000
    0.3299   -1.6512   -1.0104 C   0  0  1  0  0  3  0  0  0  0  0  0
   -0.9368   -1.9754   -1.5939 C   0  0  0  0  0  0  0  0  0  0  0  0
   -1.4901   -2.9055   -1.4265 H   0  0  0  0  0  0  0  0  0  0  0  0
   -1.3637   -0.8806   -2.3892 C   0  0  0  0  0  0  0  0  0  0  0  0
   -2.3143   -0.8105   -2.9304 H   0  0  0  0  0  0  0  0  0  0  0  0
   -0.3556    0.1302   -2.3294 C   0  0  0  0  0  3  0  0  0  0  0  0
   -0.3944    1.1131   -2.8129 H   0  0  0  0  0  0  0  0  0  0  0  0
    0.6856   -0.3375   -1.4839 C   0  0  0  0  0  3  0  0  0  0  0  0
    1.5948    0.2126   -1.2114 H   0  0  0  0  0  0  0  0  0  0  0  0
    1.1130   -2.4961   -0.0746 C   0  0  0  0  0  0  0  0  0  0  0  0
    0.4930   -3.3630    0.7768 C   0  0  0  0  0  0  0  0  0  0  0  0
    1.0547   -4.0283    1.4451 H   0  0  0  0  0  0  0  0  0  0  0  0
   -0.6033   -3.3857    0.8374 H   0  0  0  0  0  0  0  0  0  0  0  0
    2.4988   -2.2477   -0.0604 N   0  0  0  0  0  0  0  0  0  0  0  0
    3.2193   -2.2603   -1.3285 C   0  0  0  0  0  0  0  0  0  0  0  0
    4.1410   -1.6473   -1.2483 H   0  0  0  0  0  0  0  0  0  0  0  0
    2.5926   -1.8429   -2.1365 H   0  0  0  0  0  0  0  0  0  0  0  0
    3.5173   -3.2949   -1.6272 H   0  0  0  0  0  0  0  0  0  0  0  0
    3.2671   -2.8046    1.0343 C   0  0  0  0  0  0  0  0  0  0  0  0
    2.7738   -2.5729    1.9993 H   0  0  0  0  0  0  0  0  0  0  0  0
    4.2793   -2.3523    1.0348 H   0  0  0  0  0  0  0  0  0  0  0  0
    3.3921   -3.9143    0.9685 H   0  0  0  0  0  0  0  0  0  0  0  0
  1 10  1  1  0  0  0
  2  3  1  0  0  0  0
  2  1  1  0  0  0  0
  4  6  1  0  0  0  0
  4  2  2  0  0  0  0
  5  4  1  0  0  0  0
  6  8  1  0  0  0  0
  7  6  1  0  0  0  0
  8  9  1  0  0  0  0
  8  1  1  0  0  0  0
 10 14  1  0  0  0  0
 10 11  2  0  0  0  0
 11 13  1  0  0  0  0
 11 12  1  0  0  0  0
 14 19  1  0  0  0  0
 15 16  1  0  0  0  0
 15 14  1  0  0  0  0
 17 15  1  0  0  0  0
 18 15  1  0  0  0  0
 19 21  1  0  0  0  0
 19 20  1  0  0  0  0
 22 19  1  0  0  0  0
M  END
