4
q = 0.0, confidence = 1.0

 23 23  0  0  0  0  0  0  0  0999 V2000
   -2.1425   -2.0420    0.0365 N   0  0  0  0  0  0  0  0  0  0  0  0
   -2.9232   -0.0639   -0.0927 N   0  0  0  0  0  0  0  0  0  0  0  0
   -4.0246   -0.8721   -0.1047 N   0  0  0  0  0  0  0  0  0  0  0  0
   -1.7461   -0.7277   -0.0126 C   0  0  0  0  0  2  0  0  0  0  0  0
   -3.5180   -2.0804   -0.0185 C   0  0  0  0  0  0  0  0  0  0  0  0
   -4.1041   -3.0066    0.0048 H   0  0  0  0  0  0  0  0  0  0  0  0
   -1.2235   -3.1785    0.1176 C   0  0  0  0  0  0  0  0  0  0  0  0
   -0.5068   -3.0637   -0.7227 H   0  0  0  0  0  0  0  0  0  0  0  0
   -1.8211   -4.0934   -0.0683 H   0  0  0  0  0  0  0  0  0  0  0  0
   -0.4954   -3.2424    1.4562 C   0  0  0  0  0  0  0  0  0  0  0  0
    0.0565   -2.2966    1.6332 H   0  0  0  0  0  0  0  0  0  0  0  0
    0.2273   -4.0823    1.4566 H   0  0  0  0  0  0  0  0  0  0  0  0
   -1.2015   -3.3834    2.2986 H   0  0  0  0  0  0  0  0  0  0  0  0
   -3.0642    1.3948   -0.2160 C   0  0  0  0  0  0  0  0  0  0  0  0
   -2.0273    1.7558   -0.0529 H   0  0  0  0  0  0  0  0  0  0  0  0
   -3.5193    1.7542   -1.6305 C   0  0  0  0  0  0  0  0  0  0  0  0
   -2.8095    1.3506   -2.3801 H   0  0  0  0  0  0  0  0  0  0  0  0
   -3.5667    2.8549   -1.7475 H   0  0  0  0  0  0  0  0  0  0  0  0
   -4.5255    1.3366   -1.8354 H   0  0  0  0  0  0  0  0  0  0  0  0
   -3.9617    1.9347    0.8943 C   0  0  0  0  0  0  0  0  0  0  0  0
   -4.9796    1.5032    0.8221 H   0  0  0  0  0  0  0  0  0  0  0  0
   -4.0392    3.0367    0.8136 H   0  0  0  0  0  0  0  0  0  0  0  0
   -3.5324    1.6848    1.8843 H   0  0  0  0  0  0  0  0  0  0  0  0
  1  7  1  0  0  0  0
  2  4  1  0  0  0  0
  3  2  1  0  0  0  0
  3  5  2  0  0  0  0
  4  1  1  0  0  0  0
  5  6  1  0  0  0  0
  5  1  1  0  0  0  0
  7 10  1  0  0  0  0
  8  7  1  0  0  0  0
  9  7  1  0  0  0  0
 10 12  1  0  0  0  0
 10 11  1  0  0  0  0
 10 13  1  0  0  0  0
 14  2  1  0  0  0  0
 14 15  1  0  0  0  0
 14 20  1  0  0  0  0
 16 14  1  0  0  0  0
 17 16  1  0  0  0  0
 18 16  1  0  0  0  0
 19 16  1  0  0  0  0
 20 23  1  0  0  0  0
 21 20  1  0  0  0  0
 22 20  1  0  0  0  0
M  END
