4
q = 0.0, confidence = 0.992

 62 64  0  0  0  0  0  0  0  0999 V2000
    2.1572    1.2079    1.0077 N   0  0  0  0  0  0  0  0  0  0  0  0
    0.0374    1.4082    1.3701 N   0  0  0  0  0  0  0  0  0  0  0  0
   -1.7866    0.4403    0.3428 N   0  0  0  0  0  0  0  0  0  0  0  0
    0.9572    0.6809    0.6398 C   0  0  0  0  0  2  0  0  0  0  0  0
    2.0127    2.2322    1.9431 C   0  0  0  0  0  0  0  0  0  0  0  0
    0.6709    2.3569    2.1773 C   0  0  0  0  0  0  0  0  0  0  0  0
    3.4145    0.7407    0.4821 C   0  0  0  0  0  0  0  0  0  0  0  0
    3.9029    1.3163   -0.7098 C   0  0  0  0  0  0  0  0  0  0  0  0
    5.1304    0.8417   -1.2026 C   0  0  0  0  0  0  0  0  0  0  0  0
    5.8510   -0.1771   -0.5513 C   0  0  0  0  0  0  0  0  0  0  0  0
    5.3148   -0.7292    0.6273 C   0  0  0  0  0  0  0  0  0  0  0  0
    4.0914   -0.2924    1.1634 C   0  0  0  0  0  0  0  0  0  0  0  0
    3.1064    2.3616   -1.4451 C   0  0  0  0  0  0  0  0  0  0  0  0
    7.1429   -0.6972   -1.1285 C   0  0  0  0  0  0  0  0  0  0  0  0
    3.4899   -0.9342    2.3857 C   0  0  0  0  0  0  0  0  0  0  0  0
   -1.3827    1.1938    1.2857 C   0  0  0  0  0  0  0  0  0  0  0  0
   -2.2169    1.8633    2.3417 C   0  0  0  0  0  0  0  0  0  0  0  0
   -3.1245    0.1001    0.0944 C   0  0  0  0  0  0  0  0  0  0  0  0
   -3.5447   -1.2185    0.4133 C   0  0  0  0  0  0  0  0  0  0  0  0
   -4.8673   -1.5822    0.1062 C   0  0  0  0  0  0  0  0  0  0  0  0
   -5.7384   -0.6839   -0.5217 C   0  0  0  0  0  0  0  0  0  0  0  0
   -5.2897    0.5983   -0.8697 C   0  0  0  0  0  0  0  0  0  0  0  0
   -3.9799    1.0193   -0.5796 C   0  0  0  0  0  0  0  0  0  0  0  0
   -2.5831   -2.1762    1.1036 C   0  0  0  0  0  0  0  0  0  0  0  0
   -2.8214   -2.1794    2.6247 C   0  0  0  0  0  0  0  0  0  0  0  0
   -2.6094   -3.5907    0.5128 C   0  0  0  0  0  0  0  0  0  0  0  0
   -3.4336    2.3658   -1.0457 C   0  0  0  0  0  0  0  0  0  0  0  0
   -4.5174    3.3818   -1.4214 C   0  0  0  0  0  0  0  0  0  0  0  0
   -2.4402    2.1641   -2.2084 C   0  0  0  0  0  0  0  0  0  0  0  0
    2.8705    2.7749    2.3513 H   0  0  0  0  0  0  0  0  0  0  0  0
    0.1290    3.0429    2.8320 H   0  0  0  0  0  0  0  0  0  0  0  0
    5.5295    1.2764   -2.1329 H   0  0  0  0  0  0  0  0  0  0  0  0
    5.8591   -1.5364    1.1426 H   0  0  0  0  0  0  0  0  0  0  0  0
    2.1568    1.9269   -1.8249 H   0  0  0  0  0  0  0  0  0  0  0  0
    3.6712    2.7598   -2.3084 H   0  0  0  0  0  0  0  0  0  0  0  0
    2.8277    3.2124   -0.7898 H   0  0  0  0  0  0  0  0  0  0  0  0
    6.9464   -1.5292   -1.8384 H   0  0  0  0  0  0  0  0  0  0  0  0
    7.8141   -1.0919   -0.3409 H   0  0  0  0  0  0  0  0  0  0  0  0
    7.6866    0.0881   -1.6893 H   0  0  0  0  0  0  0  0  0  0  0  0
    3.2196   -0.1882    3.1611 H   0  0  0  0  0  0  0  0  0  0  0  0
    4.1866   -1.6650    2.8366 H   0  0  0  0  0  0  0  0  0  0  0  0
    2.5543   -1.4704    2.1172 H   0  0  0  0  0  0  0  0  0  0  0  0
   -3.2691    1.5477    2.2197 H   0  0  0  0  0  0  0  0  0  0  0  0
   -2.1732    2.9688    2.2544 H   0  0  0  0  0  0  0  0  0  0  0  0
   -1.8691    1.5891    3.3584 H   0  0  0  0  0  0  0  0  0  0  0  0
   -5.2159   -2.5953    0.3568 H   0  0  0  0  0  0  0  0  0  0  0  0
   -6.7698   -0.9870   -0.7567 H   0  0  0  0  0  0  0  0  0  0  0  0
   -5.9744    1.2849   -1.3872 H   0  0  0  0  0  0  0  0  0  0  0  0
   -1.5596   -1.7781    0.9262 H   0  0  0  0  0  0  0  0  0  0  0  0
   -2.7473   -1.1581    3.0532 H   0  0  0  0  0  0  0  0  0  0  0  0
   -2.0791   -2.8225    3.1411 H   0  0  0  0  0  0  0  0  0  0  0  0
   -3.8339   -2.5651    2.8674 H   0  0  0  0  0  0  0  0  0  0  0  0
   -3.6023   -4.0746    0.6229 H   0  0  0  0  0  0  0  0  0  0  0  0
   -1.8699   -4.2320    1.0339 H   0  0  0  0  0  0  0  0  0  0  0  0
   -2.3294   -3.5702   -0.5587 H   0  0  0  0  0  0  0  0  0  0  0  0
   -2.8609    2.8080   -0.2001 H   0  0  0  0  0  0  0  0  0  0  0  0
   -5.0784    3.0650   -2.3246 H   0  0  0  0  0  0  0  0  0  0  0  0
   -4.0578    4.3635   -1.6537 H   0  0  0  0  0  0  0  0  0  0  0  0
   -5.2493    3.5305   -0.6018 H   0  0  0  0  0  0  0  0  0  0  0  0
   -1.6186    1.4753   -1.9270 H   0  0  0  0  0  0  0  0  0  0  0  0
   -1.9936    3.1316   -2.5182 H   0  0  0  0  0  0  0  0  0  0  0  0
   -2.9591    1.7270   -3.0857 H   0  0  0  0  0  0  0  0  0  0  0  0
  1  5  1  0  0  0  0
  2  6  1  0  0  0  0
  3 16  2  0  0  0  0
  4  1  1  0  0  0  0
  4  2  1  0  0  0  0
  5  6  2  0  0  0  0
  5 30  1  0  0  0  0
  6 31  1  0  0  0  0
  7  1  1  0  0  0  0
  7 12  1  0  0  0  0
  8  7  2  0  0  0  0
  9  8  1  0  0  0  0
  9 10  2  0  0  0  0
 10 11  1  0  0  0  0
 11 33  1  0  0  0  0
 11 12  2  0  0  0  0
 12 15  1  0  0  0  0
 13 36  1  0  0  0  0
 13  8  1  0  0  0  0
 14 10  1  0  0  0  0
 14 38  1  0  0  0  0
 15 41  1  0  0  0  0
 15 40  1  0  0  0  0
 16  2  1  0  0  0  0
 16 17  1  0  0  0  0
 17 45  1  0  0  0  0
 18  3  1  0  0  0  0
 18 19  1  0  0  0  0
 19 24  1  0  0  0  0
 20 46  1  0  0  0  0
 20 19  2  0  0  0  0
 21 20  1  0  0  0  0
 22 23  1  0  0  0  0
 22 21  2  0  0  0  0
 23 18  2  0  0  0  0
 24 25  1  0  0  0  0
 25 52  1  0  0  0  0
 25 50  1  0  0  0  0
 25 51  1  0  0  0  0
 26 53  1  0  0  0  0
 26 54  1  0  0  0  0
 26 24  1  0  0  0  0
 27 23  1  0  0  0  0
 27 56  1  0  0  0  0
 28 27  1  0  0  0  0
 28 59  1  0  0  0  0
 29 60  1  0  0  0  0
 29 27  1  0  0  0  0
 32  9  1  0  0  0  0
 34 13  1  0  0  0  0
 35 13  1  0  0  0  0
 37 14  1  0  0  0  0
 39 14  1  0  0  0  0
 42 15  1  0  0  0  0
 43 17  1  0  0  0  0
 44 17  1  0  0  0  0
 47 21  1  0  0  0  0
 48 22  1  0  0  0  0
 49 24  1  0  0  0  0
 55 26  1  0  0  0  0
 57 28  1  0  0  0  0
 58 28  1  0  0  0  0
 61 29  1  0  0  0  0
 62 29  1  0  0  0  0
M  END
