8
q = -1.0

 12 11  0  0  0  0  0  0  0  0999 V2000
    5.9335   -0.1149   -0.1612 S   0  0  0  0  0  0  0  0  0  0  0  0
    3.6441   -1.2511   -0.0977 O   0  0  0  0  0  0  0  0  0  0  0  0
    2.1488    3.2794    0.4149 N   0  0  0  0  0  0  0  0  0  0  0  0
    2.6816    2.2389    0.2813 C   0  0  0  0  0  0  0  0  0  0  0  0
    7.4718    0.8988   -0.1920 C   0  0  0  0  0  0  0  0  0  0  0  0
    4.7963    1.1662    0.0361 C   0  0  0  0  0  0  0  0  0  0  0  0
    3.4221    1.0302    0.1253 C   0  0  0  0  0  0  0  0  0  0  0  0
    2.8156   -0.3389    0.0481 C   0  0  0  0  0  3  0  0  0  0  0  0
    5.2255    2.1797    0.0938 H   0  0  0  0  0  0  0  0  0  0  0  0
    8.3060    0.1825   -0.3162 H   0  0  0  0  0  0  0  0  0  0  0  0
    7.4723    1.6023   -1.0470 H   0  0  0  0  0  0  0  0  0  0  0  0
    7.6096    1.4492    0.7587 H   0  0  0  0  0  0  0  0  0  0  0  0
  1  6  1  0  0  0  0
  2  8  2  0  0  0  0
  4  3  3  0  0  0  0
  5  1  1  0  0  0  0
  5 12  1  0  0  0  0
  6  9  1  0  0  0  0
  6  7  2  0  0  0  0
  7  4  1  0  0  0  0
  8  7  1  0  0  0  0
 10  5  1  0  0  0  0
 11  5  1  0  0  0  0
M  END
