8
q = -1.0, confidence = 0.0

 24 27  0  0  1  0  0  0  0  0999 V2000
    0.1356   -3.7450   -1.9424 F   0  0  0  0  0  0  0  0  0  0  0  0
    1.5863   -3.3430   -0.3526 F   0  0  0  0  0  0  0  0  0  0  0  0
    0.0131   -4.8307   -0.0509 F   0  0  0  0  0  0  0  0  0  0  0  0
   -1.4040   -0.2187    3.6786 O   0  0  0  0  0  0  0  0  0  0  0  0
   -0.2938   -1.3683   -0.6023 O   0  0  0  0  0  0  0  0  0  0  0  0
   -1.4673   -2.7326    0.8167 O   0  0  0  0  0  0  0  0  0  0  0  0
   -0.7020    0.1320    1.3221 C   0  0  0  0  0  0  0  0  0  0  0  0
    0.0191    0.9243    0.2957 C   0  0  1  0  0  0  0  0  0  0  0  0
   -0.9390   -0.1961   -0.0957 C   0  0  1  0  0  0  0  0  0  0  0  0
   -1.0906   -0.0452    2.5607 C   0  0  0  0  0  0  0  0  0  0  0  0
   -0.6267   -2.5496   -0.0262 C   0  0  0  0  0  0  0  0  0  0  0  0
    0.2963   -3.6521   -0.6096 C   0  0  0  0  0  0  0  0  0  0  0  0
   -0.3760    2.3472    0.0522 C   0  0  0  0  0  0  0  0  0  0  0  0
    0.4749    3.4364    0.3275 C   0  0  0  0  0  0  0  0  0  0  0  0
   -0.0792    4.5858    0.1200 C   0  0  0  0  0  0  0  0  0  0  0  0
   -1.2614    4.9690   -0.3717 C   0  0  0  0  0  0  0  0  0  0  0  0
   -2.0227    3.9573   -0.6101 C   0  0  0  0  0  0  0  0  0  0  0  0
   -1.7279    2.5994   -0.4887 C   0  0  0  0  0  0  0  0  0  0  0  0
   -2.2301    0.1054   -0.7736 C   0  0  0  0  0  0  0  0  0  0  0  0
   -2.6270    1.5214   -0.9010 C   0  0  0  0  0  0  0  0  0  0  0  0
   -3.8821    1.7366   -1.4862 C   0  0  0  0  0  0  0  0  0  0  0  0
   -4.6111    0.7795   -1.9433 C   0  0  0  0  0  0  0  0  0  0  0  0
   -4.2018   -0.4801   -1.8029 C   0  0  0  0  0  0  0  0  0  0  0  0
   -3.0847   -0.8734   -1.2936 C   0  0  0  0  0  0  0  0  0  0  0  0
  1 12  1  0  0  0  0
  5 11  1  0  0  0  0
  7 10  2  0  0  0  0
  8 13  1  6  0  0  0
  8  7  1  0  0  0  0
  9  5  1  6  0  0  0
  9  8  1  0  0  0  0
  9  7  1  0  0  0  0
 10  4  2  0  0  0  0
 11  6  2  0  0  0  0
 12  2  1  0  0  0  0
 12  3  1  0  0  0  0
 12 11  1  0  0  0  0
 13 14  1  0  0  0  0
 15 14  2  0  0  0  0
 16 15  1  0  0  0  0
 17 18  1  0  0  0  0
 17 16  2  0  0  0  0
 18 13  2  0  0  0  0
 19  9  1  0  0  0  0
 20 19  1  0  0  0  0
 20 18  1  0  0  0  0
 21 20  2  0  0  0  0
 22 23  2  0  0  0  0
 22 21  1  0  0  0  0
 23 24  1  0  0  0  0
 24 19  2  0  0  0  0
M  END
