3
q = -1.0

 68 72  0  0  1  0  0  0  0  0999 V2000
   -0.6151   -1.4239   -0.3427 P   0  0  0  0  0  0  0  0  0  0  0  0
   -0.8218    1.5463   -0.3014 P   0  0  0  0  0  0  0  0  0  0  0  0
    1.2077    0.4682   -1.0123 C   0  0  0  0  0  3  0  0  0  0  0  0
    2.4451    0.4591   -1.5881 C   0  0  0  0  0  0  0  0  0  0  0  0
    2.6985    0.6454   -3.0707 C   0  0  0  0  0  0  0  0  0  0  0  0
   -0.7831   -0.6052   -2.0382 C   0  0  0  0  0  0  0  0  0  0  0  0
   -0.0744    0.7391   -1.8215 C   0  0  1  0  0  0  0  0  0  0  0  0
    4.4393   -0.9332   -0.8859 C   0  0  0  0  0  0  0  0  0  0  0  0
    5.5970   -1.1262   -0.1161 C   0  0  0  0  0  0  0  0  0  0  0  0
    6.0421   -0.1181    0.7552 C   0  0  0  0  0  0  0  0  0  0  0  0
    5.3265    1.0875    0.8389 C   0  0  0  0  0  0  0  0  0  0  0  0
    4.1637    1.2707    0.0756 C   0  0  0  0  0  0  0  0  0  0  0  0
    3.6861    0.2574   -0.7823 C   0  0  0  0  0  0  0  0  0  0  0  0
   -0.3573   -4.1519   -1.2016 C   0  0  0  0  0  0  0  0  0  0  0  0
    0.3830   -5.3168   -1.4563 C   0  0  0  0  0  0  0  0  0  0  0  0
    1.7602   -5.3534   -1.1810 C   0  0  0  0  0  0  0  0  0  0  0  0
    2.3964   -4.2204   -0.6482 C   0  0  0  0  0  0  0  0  0  0  0  0
    1.6590   -3.0545   -0.3933 C   0  0  0  0  0  0  0  0  0  0  0  0
    0.2798   -3.0119   -0.6718 C   0  0  0  0  0  0  0  0  0  0  0  0
   -3.3702   -2.1388   -0.8244 C   0  0  0  0  0  0  0  0  0  0  0  0
   -4.6361   -2.5772   -0.4027 C   0  0  0  0  0  0  0  0  0  0  0  0
   -4.8482   -2.9416    0.9348 C   0  0  0  0  0  0  0  0  0  0  0  0
   -3.7851   -2.8696    1.8516 C   0  0  0  0  0  0  0  0  0  0  0  0
   -2.5255   -2.4218    1.4323 C   0  0  0  0  0  0  0  0  0  0  0  0
   -2.3037   -2.0469    0.0905 C   0  0  0  0  0  0  0  0  0  0  0  0
   -1.3884    4.3180   -0.0611 C   0  0  0  0  0  0  0  0  0  0  0  0
   -1.0474    5.6803   -0.0776 C   0  0  0  0  0  0  0  0  0  0  0  0
    0.2493    6.0802   -0.4331 C   0  0  0  0  0  0  0  0  0  0  0  0
    1.2100    5.1095   -0.7655 C   0  0  0  0  0  0  0  0  0  0  0  0
    0.8800    3.7480   -0.7377 C   0  0  0  0  0  0  0  0  0  0  0  0
   -0.4285    3.3406   -0.3943 C   0  0  0  0  0  0  0  0  0  0  0  0
   -3.3528    0.9714    0.7410 C   0  0  0  0  0  0  0  0  0  0  0  0
   -4.7484    0.8372    0.7023 C   0  0  0  0  0  0  0  0  0  0  0  0
   -5.4552    1.2031   -0.4541 C   0  0  0  0  0  0  0  0  0  0  0  0
   -4.7677    1.7160   -1.5678 C   0  0  0  0  0  0  0  0  0  0  0  0
   -3.3735    1.8668   -1.5247 C   0  0  0  0  0  0  0  0  0  0  0  0
   -2.6583    1.4899   -0.3689 C   0  0  0  0  0  0  0  0  0  0  0  0
    1.7658    0.7420   -3.6587 H   0  0  0  0  0  0  0  0  0  0  0  0
    3.2680   -0.2145   -3.4868 H   0  0  0  0  0  0  0  0  0  0  0  0
    3.3227    1.5459   -3.2667 H   0  0  0  0  0  0  0  0  0  0  0  0
   -1.8403   -0.4938   -2.3505 H   0  0  0  0  0  0  0  0  0  0  0  0
   -0.2489   -1.2126   -2.7957 H   0  0  0  0  0  0  0  0  0  0  0  0
   -0.0063    1.3505   -2.7464 H   0  0  0  0  0  0  0  0  0  0  0  0
    4.0955   -1.7267   -1.5676 H   0  0  0  0  0  0  0  0  0  0  0  0
    6.1574   -2.0708   -0.1973 H   0  0  0  0  0  0  0  0  0  0  0  0
    6.9494   -0.2682    1.3600 H   0  0  0  0  0  0  0  0  0  0  0  0
    5.6753    1.8895    1.5079 H   0  0  0  0  0  0  0  0  0  0  0  0
    3.5982    2.2119    0.1449 H   0  0  0  0  0  0  0  0  0  0  0  0
   -1.4392   -4.1343   -1.4058 H   0  0  0  0  0  0  0  0  0  0  0  0
   -0.1208   -6.2052   -1.8674 H   0  0  0  0  0  0  0  0  0  0  0  0
    2.3367   -6.2704   -1.3774 H   0  0  0  0  0  0  0  0  0  0  0  0
    3.4745   -4.2418   -0.4248 H   0  0  0  0  0  0  0  0  0  0  0  0
    2.1383   -2.1551    0.0238 H   0  0  0  0  0  0  0  0  0  0  0  0
   -3.2283   -1.8524   -1.8766 H   0  0  0  0  0  0  0  0  0  0  0  0
   -5.4631   -2.6274   -1.1274 H   0  0  0  0  0  0  0  0  0  0  0  0
   -5.8417   -3.2814    1.2650 H   0  0  0  0  0  0  0  0  0  0  0  0
   -3.9418   -3.1577    2.9025 H   0  0  0  0  0  0  0  0  0  0  0  0
   -1.6977   -2.3405    2.1531 H   0  0  0  0  0  0  0  0  0  0  0  0
   -2.4099    4.0130    0.2116 H   0  0  0  0  0  0  0  0  0  0  0  0
   -1.8050    6.4338    0.1876 H   0  0  0  0  0  0  0  0  0  0  0  0
    0.5137    7.1486   -0.4492 H   0  0  0  0  0  0  0  0  0  0  0  0
    2.2301    5.4153   -1.0446 H   0  0  0  0  0  0  0  0  0  0  0  0
    1.6343    2.9834   -0.9790 H   0  0  0  0  0  0  0  0  0  0  0  0
   -2.7727    0.6453    1.6190 H   0  0  0  0  0  0  0  0  0  0  0  0
   -5.2826    0.4223    1.5701 H   0  0  0  0  0  0  0  0  0  0  0  0
   -6.5487    1.0829   -0.4922 H   0  0  0  0  0  0  0  0  0  0  0  0
   -5.3227    2.0014   -2.4748 H   0  0  0  0  0  0  0  0  0  0  0  0
   -2.8356    2.2787   -2.3935 H   0  0  0  0  0  0  0  0  0  0  0  0
  1 25  1  0  0  0  0
  4  3  2  0  0  0  0
  4 13  1  0  0  0  0
  5  4  1  0  0  0  0
  6  7  1  0  0  0  0
  6  1  1  0  0  0  0
  7 43  1  6  0  0  0
  7  3  1  0  0  0  0
  7  2  1  0  0  0  0
  8 13  2  0  0  0  0
  8  9  1  0  0  0  0
  9 10  2  0  0  0  0
 10 11  1  0  0  0  0
 10 46  1  0  0  0  0
 11 47  1  0  0  0  0
 12 48  1  0  0  0  0
 12 11  2  0  0  0  0
 13 12  1  0  0  0  0
 14 19  1  0  0  0  0
 15 14  2  0  0  0  0
 15 16  1  0  0  0  0
 16 17  2  0  0  0  0
 17 52  1  0  0  0  0
 17 18  1  0  0  0  0
 18 53  1  0  0  0  0
 19 18  2  0  0  0  0
 19  1  1  0  0  0  0
 20 21  2  0  0  0  0
 20 25  1  0  0  0  0
 21 22  1  0  0  0  0
 22 56  1  0  0  0  0
 22 23  2  0  0  0  0
 23 57  1  0  0  0  0
 24 23  1  0  0  0  0
 24 58  1  0  0  0  0
 25 24  2  0  0  0  0
 26 59  1  0  0  0  0
 27 26  1  0  0  0  0
 27 60  1  0  0  0  0
 28 27  2  0  0  0  0
 29 30  2  0  0  0  0
 29 28  1  0  0  0  0
 30 31  1  0  0  0  0
 31  2  1  0  0  0  0
 31 26  2  0  0  0  0
 32 64  1  0  0  0  0
 33 32  1  0  0  0  0
 33 65  1  0  0  0  0
 34 33  2  0  0  0  0
 35 36  2  0  0  0  0
 35 34  1  0  0  0  0
 36 37  1  0  0  0  0
 37  2  1  0  0  0  0
 37 32  2  0  0  0  0
 38  5  1  0  0  0  0
 39  5  1  0  0  0  0
 40  5  1  0  0  0  0
 41  6  1  0  0  0  0
 42  6  1  0  0  0  0
 44  8  1  0  0  0  0
 45  9  1  0  0  0  0
 49 14  1  0  0  0  0
 50 15  1  0  0  0  0
 51 16  1  0  0  0  0
 54 20  1  0  0  0  0
 55 21  1  0  0  0  0
 61 28  1  0  0  0  0
 62 29  1  0  0  0  0
 63 30  1  0  0  0  0
 66 34  1  0  0  0  0
 67 35  1  0  0  0  0
 68 36  1  0  0  0  0
M  END
