2
q = 0.0, confidence = 0.966

 36 37  0  0  0  0  0  0  0  0999 V2000
    1.3558   -0.2522   -1.1057 C   0  0  0  0  0  3  0  0  0  0  0  0
    0.7106    0.7511   -1.8976 C   0  0  0  0  0  3  0  0  0  0  0  0
   -0.7106    0.7511   -1.8976 C   0  0  0  0  0  3  0  0  0  0  0  0
   -1.3558   -0.2523   -1.1057 C   0  0  0  0  0  3  0  0  0  0  0  0
   -2.7197   -0.0737   -0.9199 O   0  0  0  0  0  0  0  0  0  0  0  0
   -3.4192   -1.1285   -0.3729 C   0  0  0  0  0  0  0  0  0  0  0  0
   -2.9102   -2.2108   -0.1516 O   0  0  0  0  0  0  0  0  0  0  0  0
   -4.8342   -0.7625   -0.1012 C   0  0  0  0  0  0  0  0  0  0  0  0
   -5.7041   -1.7872    0.3264 C   0  0  0  0  0  0  0  0  0  0  0  0
   -7.0441   -1.4968    0.6064 C   0  0  0  0  0  0  0  0  0  0  0  0
   -7.5210   -0.1819    0.4682 C   0  0  0  0  0  0  0  0  0  0  0  0
   -6.6552    0.8428    0.0508 C   0  0  0  0  0  0  0  0  0  0  0  0
   -5.3140    0.5575   -0.2360 C   0  0  0  0  0  0  0  0  0  0  0  0
    2.7197   -0.0736   -0.9199 O   0  0  0  0  0  0  0  0  0  0  0  0
    3.4192   -1.1285   -0.3728 C   0  0  0  0  0  0  0  0  0  0  0  0
    2.9102   -2.2108   -0.1516 O   0  0  0  0  0  0  0  0  0  0  0  0
    4.8342   -0.7625   -0.1012 C   0  0  0  0  0  0  0  0  0  0  0  0
    5.7041   -1.7872    0.3265 C   0  0  0  0  0  0  0  0  0  0  0  0
    7.0441   -1.4968    0.6064 C   0  0  0  0  0  0  0  0  0  0  0  0
    7.5211   -0.1819    0.4682 C   0  0  0  0  0  0  0  0  0  0  0  0
    6.6552    0.8428    0.0508 C   0  0  0  0  0  0  0  0  0  0  0  0
    5.3141    0.5575   -0.2361 C   0  0  0  0  0  0  0  0  0  0  0  0
    1.0511   -1.3110   -1.0957 H   0  0  0  0  0  0  0  0  0  0  0  0
    1.2860    1.5458   -2.3955 H   0  0  0  0  0  0  0  0  0  0  0  0
   -1.2860    1.5458   -2.3955 H   0  0  0  0  0  0  0  0  0  0  0  0
   -1.0510   -1.3110   -1.0956 H   0  0  0  0  0  0  0  0  0  0  0  0
   -5.3009   -2.8050    0.4320 H   0  0  0  0  0  0  0  0  0  0  0  0
   -7.7223   -2.2977    0.9370 H   0  0  0  0  0  0  0  0  0  0  0  0
   -8.5744    0.0467    0.6915 H   0  0  0  0  0  0  0  0  0  0  0  0
   -7.0282    1.8733   -0.0482 H   0  0  0  0  0  0  0  0  0  0  0  0
   -4.6257    1.3538   -0.5501 H   0  0  0  0  0  0  0  0  0  0  0  0
    5.3009   -2.8050    0.4321 H   0  0  0  0  0  0  0  0  0  0  0  0
    7.7222   -2.2978    0.9370 H   0  0  0  0  0  0  0  0  0  0  0  0
    8.5744    0.0467    0.6915 H   0  0  0  0  0  0  0  0  0  0  0  0
    7.0283    1.8732   -0.0483 H   0  0  0  0  0  0  0  0  0  0  0  0
    4.6257    1.3538   -0.5502 H   0  0  0  0  0  0  0  0  0  0  0  0
  1 23  1  0  0  0  0
  1 14  1  0  0  0  0
  2  3  1  0  0  0  0
  2  1  1  0  0  0  0
  3  4  1  0  0  0  0
  4 26  1  0  0  0  0
  4  5  1  0  0  0  0
  5  6  1  0  0  0  0
  6  7  2  0  0  0  0
  6  8  1  0  0  0  0
  8  9  1  0  0  0  0
  9 27  1  0  0  0  0
  9 10  2  0  0  0  0
 10 28  1  0  0  0  0
 11 10  1  0  0  0  0
 11 29  1  0  0  0  0
 12 11  2  0  0  0  0
 13  8  2  0  0  0  0
 13 12  1  0  0  0  0
 14 15  1  0  0  0  0
 15 16  2  0  0  0  0
 15 17  1  0  0  0  0
 17 18  1  0  0  0  0
 18 32  1  0  0  0  0
 18 19  2  0  0  0  0
 19 33  1  0  0  0  0
 20 19  1  0  0  0  0
 20 34  1  0  0  0  0
 21 20  2  0  0  0  0
 22 17  2  0  0  0  0
 22 21  1  0  0  0  0
 24  2  1  0  0  0  0
 25  3  1  0  0  0  0
 30 12  1  0  0  0  0
 31 13  1  0  0  0  0
 35 21  1  0  0  0  0
 36 22  1  0  0  0  0
M  END
