4
q = -1.0

 52 56  0  0  1  0  0  0  0  0999 V2000
    0.0616   -0.2972   -3.2438 C   0  0  0  0  0  0  0  0  0  0  0  0
   -0.6427    0.8516   -1.0086 C   0  0  1  0  0  3  0  0  0  0  0  0
   -0.2801   -0.4693   -1.7558 C   0  0  2  0  0  0  0  0  0  0  0  0
    1.0012   -0.4066   -0.8384 C   0  0  2  0  0  3  0  0  0  0  0  0
    0.7233    0.9872   -0.5330 C   0  0  1  0  0  3  0  0  0  0  0  0
   -1.7453    1.7930   -1.2258 C   0  0  0  0  0  0  0  0  0  0  0  0
   -2.7165    1.5516   -2.2302 C   0  0  0  0  0  0  0  0  0  0  0  0
   -3.7895    2.4319   -2.4292 C   0  0  0  0  0  0  0  0  0  0  0  0
   -3.9253    3.5795   -1.6338 C   0  0  0  0  0  0  0  0  0  0  0  0
   -2.9711    3.8362   -0.6338 C   0  0  0  0  0  0  0  0  0  0  0  0
   -1.9001    2.9588   -0.4314 C   0  0  0  0  0  0  0  0  0  0  0  0
   -1.1549   -1.6950   -1.4862 C   0  0  0  0  0  0  0  0  0  0  0  0
   -0.6417   -2.9879   -1.7438 C   0  0  0  0  0  0  0  0  0  0  0  0
   -1.3932   -4.1342   -1.4551 C   0  0  0  0  0  0  0  0  0  0  0  0
   -2.6857   -4.0161   -0.9148 C   0  0  0  0  0  0  0  0  0  0  0  0
   -3.2219   -2.7416   -0.6844 C   0  0  0  0  0  0  0  0  0  0  0  0
   -2.4665   -1.5903   -0.9692 C   0  0  0  0  0  0  0  0  0  0  0  0
    2.2867   -1.1092   -1.0214 C   0  0  0  0  0  0  0  0  0  0  0  0
    3.3494   -0.4722   -1.7057 C   0  0  0  0  0  0  0  0  0  0  0  0
    4.5695   -1.1307   -1.9135 C   0  0  0  0  0  0  0  0  0  0  0  0
    4.7543   -2.4420   -1.4467 C   0  0  0  0  0  0  0  0  0  0  0  0
    3.7095   -3.0879   -0.7662 C   0  0  0  0  0  0  0  0  0  0  0  0
    2.4913   -2.4272   -0.5522 C   0  0  0  0  0  0  0  0  0  0  0  0
    1.6026    2.0902   -0.1255 C   0  0  0  0  0  0  0  0  0  0  0  0
    1.4005    3.4032   -0.6093 C   0  0  0  0  0  0  0  0  0  0  0  0
    2.2767    4.4389   -0.2538 C   0  0  0  0  0  0  0  0  0  0  0  0
    3.3735    4.1841    0.5841 C   0  0  0  0  0  0  0  0  0  0  0  0
    3.5969    2.8781    1.0539 C   0  0  0  0  0  0  0  0  0  0  0  0
    2.7249    1.8420    0.7009 C   0  0  0  0  0  0  0  0  0  0  0  0
   -0.8534   -0.2106   -3.8632 H   0  0  0  0  0  0  0  0  0  0  0  0
    0.6404   -1.1674   -3.6141 H   0  0  0  0  0  0  0  0  0  0  0  0
    0.6759    0.6131   -3.3950 H   0  0  0  0  0  0  0  0  0  0  0  0
   -2.6258    0.6599   -2.8658 H   0  0  0  0  0  0  0  0  0  0  0  0
   -4.5261    2.2172   -3.2186 H   0  0  0  0  0  0  0  0  0  0  0  0
   -4.7679    4.2697   -1.7898 H   0  0  0  0  0  0  0  0  0  0  0  0
   -3.0652    4.7308    0.0009 H   0  0  0  0  0  0  0  0  0  0  0  0
   -1.1658    3.1726    0.3577 H   0  0  0  0  0  0  0  0  0  0  0  0
    0.3673   -3.0930   -2.1689 H   0  0  0  0  0  0  0  0  0  0  0  0
   -0.9685   -5.1299   -1.6562 H   0  0  0  0  0  0  0  0  0  0  0  0
   -3.2764   -4.9167   -0.6881 H   0  0  0  0  0  0  0  0  0  0  0  0
   -4.2419   -2.6341   -0.2847 H   0  0  0  0  0  0  0  0  0  0  0  0
   -2.9069   -0.5995   -0.8004 H   0  0  0  0  0  0  0  0  0  0  0  0
    3.2085    0.5551   -2.0734 H   0  0  0  0  0  0  0  0  0  0  0  0
    5.3828   -0.6153   -2.4472 H   0  0  0  0  0  0  0  0  0  0  0  0
    5.7124   -2.9585   -1.6095 H   0  0  0  0  0  0  0  0  0  0  0  0
    3.8470   -4.1133   -0.3898 H   0  0  0  0  0  0  0  0  0  0  0  0
    1.6788   -2.9280   -0.0066 H   0  0  0  0  0  0  0  0  0  0  0  0
    0.5567    3.6060   -1.2839 H   0  0  0  0  0  0  0  0  0  0  0  0
    2.1026    5.4546   -0.6410 H   0  0  0  0  0  0  0  0  0  0  0  0
    4.0582    4.9988    0.8648 H   0  0  0  0  0  0  0  0  0  0  0  0
    4.4610    2.6652    1.7018 H   0  0  0  0  0  0  0  0  0  0  0  0
    2.9047    0.8200    1.0622 H   0  0  0  0  0  0  0  0  0  0  0  0
  2  6  1  6  0  0  0
  2  5  1  0  0  0  0
  3  1  1  6  0  0  0
  3 12  1  0  0  0  0
  3  2  1  0  0  0  0
  3  4  1  0  0  0  0
  4 18  1  6  0  0  0
  4  5  1  0  0  0  0
  5 24  1  6  0  0  0
  6 11  1  0  0  0  0
  7  6  2  0  0  0  0
  8  7  1  0  0  0  0
  8  9  2  0  0  0  0
  9 10  1  0  0  0  0
 10 11  2  0  0  0  0
 10 36  1  0  0  0  0
 11 37  1  0  0  0  0
 12 17  1  0  0  0  0
 13 12  2  0  0  0  0
 13 14  1  0  0  0  0
 14 15  2  0  0  0  0
 15 40  1  0  0  0  0
 15 16  1  0  0  0  0
 16 41  1  0  0  0  0
 17 42  1  0  0  0  0
 17 16  2  0  0  0  0
 18 23  1  0  0  0  0
 19 18  2  0  0  0  0
 20 19  1  0  0  0  0
 20 21  2  0  0  0  0
 21 22  1  0  0  0  0
 22 23  2  0  0  0  0
 22 46  1  0  0  0  0
 23 47  1  0  0  0  0
 24 29  1  0  0  0  0
 25 26  1  0  0  0  0
 25 24  2  0  0  0  0
 26 27  2  0  0  0  0
 27 50  1  0  0  0  0
 27 28  1  0  0  0  0
 28 51  1  0  0  0  0
 29 28  2  0  0  0  0
 29 52  1  0  0  0  0
 30  1  1  0  0  0  0
 31  1  1  0  0  0  0
 32  1  1  0  0  0  0
 33  7  1  0  0  0  0
 34  8  1  0  0  0  0
 35  9  1  0  0  0  0
 38 13  1  0  0  0  0
 39 14  1  0  0  0  0
 43 19  1  0  0  0  0
 44 20  1  0  0  0  0
 45 21  1  0  0  0  0
 48 25  1  0  0  0  0
 49 26  1  0  0  0  0
M  END
