2
q = 0.0, confidence = 0.966

 24 24  0  0  1  0  0  0  0  0999 V2000
   -1.5941    1.7952   -0.3787 N   0  0  0  0  0  0  0  0  0  0  0  0
   -0.7667    1.8625    0.6573 C   0  0  0  0  0  2  0  0  0  0  0  0
   -1.3567    2.1302    2.0092 C   0  0  0  0  0  0  0  0  0  0  0  0
   -3.0713    1.9610   -0.4563 C   0  0  2  0  0  0  0  0  0  0  0  0
   -3.7702    0.6469   -0.1337 C   0  0  0  0  0  0  0  0  0  0  0  0
   -4.5608    0.5257    1.0245 C   0  0  0  0  0  0  0  0  0  0  0  0
   -5.1805   -0.6934    1.3430 C   0  0  0  0  0  0  0  0  0  0  0  0
   -5.0103   -1.8071    0.5063 C   0  0  0  0  0  0  0  0  0  0  0  0
   -4.2250   -1.6935   -0.6526 C   0  0  0  0  0  0  0  0  0  0  0  0
   -3.6112   -0.4748   -0.9728 C   0  0  0  0  0  0  0  0  0  0  0  0
   -3.4174    2.5148   -1.8400 C   0  0  0  0  0  0  0  0  0  0  0  0
   -0.8161    2.9650    2.4958 H   0  0  0  0  0  0  0  0  0  0  0  0
   -2.4426    2.3389    2.0252 H   0  0  0  0  0  0  0  0  0  0  0  0
   -1.1748    1.2390    2.6467 H   0  0  0  0  0  0  0  0  0  0  0  0
   -3.3584    2.7079    0.3084 H   0  0  0  0  0  0  0  0  0  0  0  0
   -4.7027    1.3971    1.6838 H   0  0  0  0  0  0  0  0  0  0  0  0
   -5.8027   -0.7704    2.2472 H   0  0  0  0  0  0  0  0  0  0  0  0
   -5.4947   -2.7633    0.7540 H   0  0  0  0  0  0  0  0  0  0  0  0
   -4.0888   -2.5610   -1.3153 H   0  0  0  0  0  0  0  0  0  0  0  0
   -2.9941   -0.4077   -1.8819 H   0  0  0  0  0  0  0  0  0  0  0  0
   -4.5105    2.6617   -1.9254 H   0  0  0  0  0  0  0  0  0  0  0  0
   -2.9186    3.4887   -2.0158 H   0  0  0  0  0  0  0  0  0  0  0  0
   -3.1128    1.8115   -2.6424 H   0  0  0  0  0  0  0  0  0  0  0  0
   -1.1688    1.5110   -1.2697 H   0  0  0  0  0  0  0  0  0  0  0  0
  1  2  1  0  0  0  0
  2  3  1  0  0  0  0
  3 13  1  0  0  0  0
  3 12  1  0  0  0  0
  3 14  1  0  0  0  0
  4  1  1  0  0  0  0
  4  5  1  0  0  0  0
  4 15  1  1  0  0  0
  5  6  1  0  0  0  0
  6  7  2  0  0  0  0
  6 16  1  0  0  0  0
  7 17  1  0  0  0  0
  8 18  1  0  0  0  0
  8  7  1  0  0  0  0
  9  8  2  0  0  0  0
 10  9  1  0  0  0  0
 10  5  2  0  0  0  0
 11  4  1  0  0  0  0
 19  9  1  0  0  0  0
 20 10  1  0  0  0  0
 21 11  1  0  0  0  0
 22 11  1  0  0  0  0
 23 11  1  0  0  0  0
 24  1  1  0  0  0  0
M  END
