1
q = 0.0, confidence = 0.922

 32 32  0  0  1  0  0  0  0  0999 V2000
   -0.4422    0.9123   -0.3034 C   0  0  0  0  0  2  0  0  0  0  0  0
    0.6931    0.9884    0.2855 N   0  0  0  0  0  2  0  0  0  0  0  0
    1.8513    0.8130    0.7951 C   0  0  2  0  0  3  0  0  0  0  0  0
    2.1870    1.3281    1.9973 O   0  0  0  0  0  0  0  0  0  0  0  0
    1.1594    2.0045    2.7246 C   0  0  0  0  0  0  0  0  0  0  0  0
    2.9196    0.0495    0.1192 C   0  0  0  0  0  0  0  0  0  0  0  0
    4.1917   -0.0725    0.7182 C   0  0  0  0  0  0  0  0  0  0  0  0
    5.1949   -0.8142    0.0818 C   0  0  0  0  0  0  0  0  0  0  0  0
    4.9397   -1.4422   -1.1481 C   0  0  0  0  0  0  0  0  0  0  0  0
    3.6728   -1.3252   -1.7446 C   0  0  0  0  0  0  0  0  0  0  0  0
    2.6674   -0.5806   -1.1187 C   0  0  0  0  0  0  0  0  0  0  0  0
   -0.7537    2.0968   -1.2572 C   0  0  0  0  0  0  0  0  0  0  0  0
   -1.1360    1.5481   -2.6456 C   0  0  0  0  0  0  0  0  0  0  0  0
    0.4626    3.0308   -1.4139 C   0  0  0  0  0  0  0  0  0  0  0  0
   -1.9247    2.8956   -0.6467 C   0  0  0  0  0  0  0  0  0  0  0  0
    0.7560    2.8588    2.1405 H   0  0  0  0  0  0  0  0  0  0  0  0
    0.3251    1.3178    2.9736 H   0  0  0  0  0  0  0  0  0  0  0  0
    1.6333    2.3729    3.6511 H   0  0  0  0  0  0  0  0  0  0  0  0
    4.3792    0.4136    1.6850 H   0  0  0  0  0  0  0  0  0  0  0  0
    6.1849   -0.9064    0.5530 H   0  0  0  0  0  0  0  0  0  0  0  0
    5.7296   -2.0272   -1.6427 H   0  0  0  0  0  0  0  0  0  0  0  0
    3.4629   -1.8206   -2.7041 H   0  0  0  0  0  0  0  0  0  0  0  0
    1.6763   -0.4969   -1.5858 H   0  0  0  0  0  0  0  0  0  0  0  0
   -2.0343    0.9074   -2.6078 H   0  0  0  0  0  0  0  0  0  0  0  0
   -1.3474    2.3957   -3.3286 H   0  0  0  0  0  0  0  0  0  0  0  0
   -0.3101    0.9542   -3.0857 H   0  0  0  0  0  0  0  0  0  0  0  0
    0.7589    3.4856   -0.4475 H   0  0  0  0  0  0  0  0  0  0  0  0
    1.3421    2.4905   -1.8185 H   0  0  0  0  0  0  0  0  0  0  0  0
    0.2178    3.8546   -2.1131 H   0  0  0  0  0  0  0  0  0  0  0  0
   -2.1401    3.7765   -1.2853 H   0  0  0  0  0  0  0  0  0  0  0  0
   -2.8461    2.2908   -0.5733 H   0  0  0  0  0  0  0  0  0  0  0  0
   -1.6733    3.2622    0.3692 H   0  0  0  0  0  0  0  0  0  0  0  0
  1  2  1  0  0  0  0
  3  2  1  6  0  0  0
  3  4  1  0  0  0  0
  4  5  1  0  0  0  0
  5 17  1  0  0  0  0
  5 18  1  0  0  0  0
  6  7  1  0  0  0  0
  6  3  1  0  0  0  0
  7 19  1  0  0  0  0
  8 20  1  0  0  0  0
  8  7  2  0  0  0  0
  9  8  1  0  0  0  0
 10  9  2  0  0  0  0
 10 11  1  0  0  0  0
 11  6  2  0  0  0  0
 12 15  1  0  0  0  0
 12  1  1  0  0  0  0
 13 24  1  0  0  0  0
 13 12  1  0  0  0  0
 14 12  1  0  0  0  0
 14 27  1  0  0  0  0
 15 31  1  0  0  0  0
 15 32  1  0  0  0  0
 16  5  1  0  0  0  0
 21  9  1  0  0  0  0
 22 10  1  0  0  0  0
 23 11  1  0  0  0  0
 25 13  1  0  0  0  0
 26 13  1  0  0  0  0
 28 14  1  0  0  0  0
 29 14  1  0  0  0  0
 30 15  1  0  0  0  0
M  END
