2
q = -1.0

  7  6  0  0  0  0  0  0  0  0999 V2000
    0.1033    1.6128   -1.9196 S   0  0  0  0  0  0  0  0  0  0  0  0
    0.0643    2.0237   -0.2781 C   0  0  0  0  0  3  0  0  0  0  0  0
    0.0577    4.3832   -0.5105 C   0  0  0  0  0  0  0  0  0  0  0  0
    0.0340    3.1844    0.3053 O   0  0  0  0  0  0  0  0  0  0  0  0
   -0.0042    5.2300    0.1939 H   0  0  0  0  0  0  0  0  0  0  0  0
   -0.8124    4.3753   -1.1959 H   0  0  0  0  0  0  0  0  0  0  0  0
    1.0060    4.4149   -1.0820 H   0  0  0  0  0  0  0  0  0  0  0  0
  1  2  2  0  0  0  0
  2  4  1  0  0  0  0
  3  5  1  0  0  0  0
  3  4  1  0  0  0  0
  6  3  1  0  0  0  0
  7  3  1  0  0  0  0
M  END
