4
q = -1.0

 17 16  0  0  0  0  0  0  0  0999 V2000
   -1.7179    1.3421    1.9780 C   0  0  0  0  0  0  0  0  0  0  0  0
   -2.5867    1.9589    2.2777 H   0  0  0  0  0  0  0  0  0  0  0  0
   -1.1794    0.8417    2.7955 H   0  0  0  0  0  0  0  0  0  0  0  0
   -1.3682    1.2362    0.6827 C   0  0  0  0  0  3  0  0  0  0  0  0
   -2.1395    1.9590   -0.4089 C   0  0  0  0  0  0  0  0  0  0  0  0
   -1.8181    1.6243   -1.4118 H   0  0  0  0  0  0  0  0  0  0  0  0
   -1.8677    3.0379   -0.3684 H   0  0  0  0  0  0  0  0  0  0  0  0
   -3.6694    1.8138   -0.3242 C   0  0  0  0  0  0  0  0  0  0  0  0
   -4.0428    2.2212    0.6413 H   0  0  0  0  0  0  0  0  0  0  0  0
   -4.1276    2.4478   -1.1163 H   0  0  0  0  0  0  0  0  0  0  0  0
   -4.1549    0.3706   -0.4879 C   0  0  0  0  0  0  0  0  0  0  0  0
   -3.7626   -0.0298   -1.4485 H   0  0  0  0  0  0  0  0  0  0  0  0
   -3.6917   -0.2472    0.3118 H   0  0  0  0  0  0  0  0  0  0  0  0
   -5.6756    0.2267   -0.4400 C   0  0  0  0  0  0  0  0  0  0  0  0
   -5.9949   -0.8292   -0.5607 H   0  0  0  0  0  0  0  0  0  0  0  0
   -6.1660    0.8154   -1.2440 H   0  0  0  0  0  0  0  0  0  0  0  0
   -6.0850    0.5885    0.5268 H   0  0  0  0  0  0  0  0  0  0  0  0
  1  2  1  0  0  0  0
  1  3  1  0  0  0  0
  4  1  2  0  0  0  0
  5  7  1  0  0  0  0
  5  8  1  0  0  0  0
  5  4  1  0  0  0  0
  6  5  1  0  0  0  0
  8  9  1  0  0  0  0
 10  8  1  0  0  0  0
 11 14  1  0  0  0  0
 11  8  1  0  0  0  0
 11 13  1  0  0  0  0
 12 11  1  0  0  0  0
 14 17  1  0  0  0  0
 15 14  1  0  0  0  0
 16 14  1  0  0  0  0
M  END
