2
q = -1.0

  8  7  0  0  0  0  0  0  0  0999 V2000
   -0.0033    2.6446   -0.5631 O   0  0  0  0  0  0  0  0  0  0  0  0
   -0.0011    1.7002    0.4936 C   0  0  0  0  0  3  0  0  0  0  0  0
   -0.0035    3.9797   -0.1091 C   0  0  0  0  0  0  0  0  0  0  0  0
   -0.8956    1.8347    1.1487 H   0  0  0  0  0  0  0  0  0  0  0  0
    0.8945    1.8369    1.1465 H   0  0  0  0  0  0  0  0  0  0  0  0
   -0.9034    4.2095    0.5134 H   0  0  0  0  0  0  0  0  0  0  0  0
    0.8981    4.2106    0.5106 H   0  0  0  0  0  0  0  0  0  0  0  0
   -0.0053    4.6447   -0.9966 H   0  0  0  0  0  0  0  0  0  0  0  0
  1  3  1  0  0  0  0
  1  2  1  0  0  0  0
  2  5  1  0  0  0  0
  2  4  1  0  0  0  0
  3  7  1  0  0  0  0
  3  6  1  0  0  0  0
  8  3  1  0  0  0  0
M  END
