5
q = -1.0

 21 21  0  0  1  0  0  0  0  0999 V2000
   -1.5476    0.5014    2.0190 P   0  0  0  0  0  0  0  0  0  0  0  0
   -2.1632    1.3187    0.5583 C   0  0  0  0  0  0  0  0  0  0  0  0
   -2.5946    0.4003   -0.4454 C   0  0  0  0  0  0  0  0  0  0  0  0
   -2.4380   -0.9698   -0.0378 C   0  0  0  0  0  0  0  0  0  0  0  0
   -1.7999   -1.0945    1.2282 C   0  0  2  0  0  3  0  0  0  0  0  0
   -1.5042   -2.4104    1.8973 C   0  0  0  0  0  0  0  0  0  0  0  0
   -2.9914   -2.1345   -0.8037 C   0  0  0  0  0  0  0  0  0  0  0  0
   -3.2368    0.8299   -1.7328 C   0  0  0  0  0  0  0  0  0  0  0  0
   -2.2997    2.8108    0.4482 C   0  0  0  0  0  0  0  0  0  0  0  0
   -0.9948   -3.1166    1.2083 H   0  0  0  0  0  0  0  0  0  0  0  0
   -2.4420   -2.9009    2.2358 H   0  0  0  0  0  0  0  0  0  0  0  0
   -0.8545   -2.2738    2.7830 H   0  0  0  0  0  0  0  0  0  0  0  0
   -2.9436   -1.9760   -1.8967 H   0  0  0  0  0  0  0  0  0  0  0  0
   -2.4480   -3.0705   -0.5802 H   0  0  0  0  0  0  0  0  0  0  0  0
   -4.0575   -2.2826   -0.5240 H   0  0  0  0  0  0  0  0  0  0  0  0
   -2.7665    1.7533   -2.1207 H   0  0  0  0  0  0  0  0  0  0  0  0
   -3.1449    0.0540   -2.5158 H   0  0  0  0  0  0  0  0  0  0  0  0
   -4.3189    1.0338   -1.5809 H   0  0  0  0  0  0  0  0  0  0  0  0
   -3.3724    3.0989    0.4752 H   0  0  0  0  0  0  0  0  0  0  0  0
   -1.8723    3.1920   -0.5009 H   0  0  0  0  0  0  0  0  0  0  0  0
   -1.7932    3.3277    1.2867 H   0  0  0  0  0  0  0  0  0  0  0  0
  2  1  2  0  0  0  0
  3  4  2  0  0  0  0
  3  2  1  0  0  0  0
  4  5  1  0  0  0  0
  5  6  1  1  0  0  0
  5  1  1  0  0  0  0
  6 11  1  0  0  0  0
  6 12  1  0  0  0  0
  7 14  1  0  0  0  0
  7 15  1  0  0  0  0
  7  4  1  0  0  0  0
  8 18  1  0  0  0  0
  8  3  1  0  0  0  0
  9 19  1  0  0  0  0
  9  2  1  0  0  0  0
  9 21  1  0  0  0  0
 10  6  1  0  0  0  0
 13  7  1  0  0  0  0
 16  8  1  0  0  0  0
 17  8  1  0  0  0  0
 20  9  1  0  0  0  0
M  END
