1
q = -1.0, confidence = 0.01

 35 35  0  0  1  0  0  0  0  0999 V2000
   -0.0234   -1.1294    0.9363 C   0  0  0  0  0  3  0  0  0  0  0  0
    1.2555   -0.4386    1.4842 C   0  0  1  0  0  0  0  0  0  0  0  0
    1.2682   -0.3313    3.0088 C   0  0  0  0  0  0  0  0  0  0  0  0
    2.4565   -1.1969    0.8761 C   0  0  2  0  0  0  0  0  0  0  0  0
    2.8683   -2.4532    1.6361 C   0  0  0  0  0  0  0  0  0  0  0  0
    3.9044   -3.3118    0.8841 C   0  0  0  0  0  0  0  0  0  0  0  0
    3.3309   -4.0296   -0.3062 C   0  0  0  0  0  0  0  0  0  0  0  0
    3.5766   -3.7312   -1.5943 C   0  0  0  0  0  0  0  0  0  0  0  0
    4.0574    0.0873   -0.3814 C   0  0  0  0  0  0  0  0  0  0  0  0
    5.1858    1.0613   -0.2681 C   0  0  0  0  0  0  0  0  0  0  0  0
    5.7597    1.5450   -1.4610 C   0  0  0  0  0  0  0  0  0  0  0  0
    6.8190    2.4590   -1.4110 C   0  0  0  0  0  0  0  0  0  0  0  0
    7.3120    2.8951   -0.1693 C   0  0  0  0  0  0  0  0  0  0  0  0
    6.7422    2.4158    1.0221 C   0  0  0  0  0  0  0  0  0  0  0  0
    5.6811    1.5016    0.9763 C   0  0  0  0  0  0  0  0  0  0  0  0
   -0.5675   -1.9689    1.6520 O   0  0  0  0  0  0  0  0  0  0  0  0
    3.5992   -0.2951    0.8360 O   0  0  0  0  0  0  0  0  0  0  0  0
    3.6154   -0.3183   -1.4473 O   0  0  0  0  0  0  0  0  0  0  0  0
    1.2957    0.5766    1.0465 H   0  0  0  0  0  0  0  0  0  0  0  0
    2.2370    0.0728    3.3661 H   0  0  0  0  0  0  0  0  0  0  0  0
    1.0896   -1.3153    3.4821 H   0  0  0  0  0  0  0  0  0  0  0  0
    0.4657    0.3504    3.3505 H   0  0  0  0  0  0  0  0  0  0  0  0
    2.2148   -1.4477   -0.1745 H   0  0  0  0  0  0  0  0  0  0  0  0
    3.2748   -2.1602    2.6257 H   0  0  0  0  0  0  0  0  0  0  0  0
    1.9469   -3.0411    1.8368 H   0  0  0  0  0  0  0  0  0  0  0  0
    4.3196   -4.0591    1.5947 H   0  0  0  0  0  0  0  0  0  0  0  0
    4.7543   -2.6691    0.5715 H   0  0  0  0  0  0  0  0  0  0  0  0
    2.6298   -4.8545   -0.0741 H   0  0  0  0  0  0  0  0  0  0  0  0
    4.2445   -2.8993   -1.8719 H   0  0  0  0  0  0  0  0  0  0  0  0
    3.1000   -4.2915   -2.4141 H   0  0  0  0  0  0  0  0  0  0  0  0
    5.3499    1.1861   -2.4164 H   0  0  0  0  0  0  0  0  0  0  0  0
    7.2643    2.8360   -2.3442 H   0  0  0  0  0  0  0  0  0  0  0  0
    8.1451    3.6138   -0.1298 H   0  0  0  0  0  0  0  0  0  0  0  0
    7.1285    2.7587    1.9941 H   0  0  0  0  0  0  0  0  0  0  0  0
    5.2242    1.1190    1.8992 H   0  0  0  0  0  0  0  0  0  0  0  0
  1  2  1  0  0  0  0
  1 16  2  0  0  0  0
  2 19  1  6  0  0  0
  2  3  1  0  0  0  0
  3 22  1  0  0  0  0
  3 20  1  0  0  0  0
  3 21  1  0  0  0  0
  4 23  1  6  0  0  0
  4  2  1  0  0  0  0
  4  5  1  0  0  0  0
  5 25  1  0  0  0  0
  5 24  1  0  0  0  0
  6 26  1  0  0  0  0
  6  5  1  0  0  0  0
  7 28  1  0  0  0  0
  7  6  1  0  0  0  0
  8  7  2  0  0  0  0
  9 10  1  0  0  0  0
  9 17  1  0  0  0  0
 10 15  1  0  0  0  0
 11 12  1  0  0  0  0
 11 10  2  0  0  0  0
 12 13  2  0  0  0  0
 13 33  1  0  0  0  0
 13 14  1  0  0  0  0
 14 34  1  0  0  0  0
 15 14  2  0  0  0  0
 15 35  1  0  0  0  0
 17  4  1  0  0  0  0
 18  9  2  0  0  0  0
 27  6  1  0  0  0  0
 29  8  1  0  0  0  0
 30  8  1  0  0  0  0
 31 11  1  0  0  0  0
 32 12  1  0  0  0  0
M  END
