1
q = -1.0

 14 13  0  0  0  0  0  0  0  0999 V2000
    1.7256   -1.9164   -0.7037 C   0  0  0  0  0  3  0  0  0  0  0  0
    2.2054   -2.1751    0.2679 H   0  0  0  0  0  0  0  0  0  0  0  0
    1.3433   -2.8667   -1.1309 H   0  0  0  0  0  0  0  0  0  0  0  0
    2.7867   -1.3320   -1.6551 C   0  0  0  0  0  0  0  0  0  0  0  0
    3.1522   -0.3579   -1.2543 H   0  0  0  0  0  0  0  0  0  0  0  0
    2.3358   -1.1048   -2.6455 H   0  0  0  0  0  0  0  0  0  0  0  0
    3.9638   -2.2506   -1.8323 C   0  0  0  0  0  0  0  0  0  0  0  0
    4.5524   -2.4554   -0.9157 H   0  0  0  0  0  0  0  0  0  0  0  0
    4.3207   -2.8633   -2.9787 C   0  0  0  0  0  0  0  0  0  0  0  0
    3.7183   -2.6614   -3.8855 H   0  0  0  0  0  0  0  0  0  0  0  0
    5.4729   -3.8102   -3.1397 C   0  0  0  0  0  0  0  0  0  0  0  0
    6.2009   -3.4467   -3.8982 H   0  0  0  0  0  0  0  0  0  0  0  0
    5.1343   -4.8090   -3.4934 H   0  0  0  0  0  0  0  0  0  0  0  0
    6.0190   -3.9554   -2.1857 H   0  0  0  0  0  0  0  0  0  0  0  0
  1  2  1  0  0  0  0
  3  1  1  0  0  0  0
  4  5  1  0  0  0  0
  4  1  1  0  0  0  0
  6  4  1  0  0  0  0
  7  4  1  0  0  0  0
  7  8  1  0  0  0  0
  9  7  2  0  0  0  0
 10  9  1  0  0  0  0
 11  9  1  0  0  0  0
 11 14  1  0  0  0  0
 12 11  1  0  0  0  0
 13 11  1  0  0  0  0
M  END
