1
q = -1

 14 13  0  0  0  0  0  0  0  0999 V2000
    1.2375   -0.9170    2.7071 C   0  0  0  0  0  3  0  0  0  0  0  0
    0.9168   -0.4898    3.6824 H   0  0  0  0  0  0  0  0  0  0  0  0
    1.1220   -2.0211    2.8047 H   0  0  0  0  0  0  0  0  0  0  0  0
    2.6963   -0.5492    2.4392 C   0  0  0  0  0  0  0  0  0  0  0  0
    3.3549   -0.9590    3.2408 H   0  0  0  0  0  0  0  0  0  0  0  0
    3.0492   -1.0275    1.4963 H   0  0  0  0  0  0  0  0  0  0  0  0
    2.9257    0.9699    2.3469 C   0  0  0  0  0  0  0  0  0  0  0  0
    2.2280    1.3585    1.5674 H   0  0  0  0  0  0  0  0  0  0  0  0
    2.6170    1.4489    3.3019 H   0  0  0  0  0  0  0  0  0  0  0  0
    4.3309    1.3579    1.9987 C   0  0  0  0  0  0  0  0  0  0  0  0
    4.7101    0.9580    1.0398 H   0  0  0  0  0  0  0  0  0  0  0  0
    5.1428    2.1295    2.7435 C   0  0  0  0  0  0  0  0  0  0  0  0
    4.8092    2.5501    3.7077 H   0  0  0  0  0  0  0  0  0  0  0  0
    6.1673    2.3726    2.4194 H   0  0  0  0  0  0  0  0  0  0  0  0
  1  3  1  0  0  0  0
  1  2  1  0  0  0  0
  4  1  1  0  0  0  0
  4  5  1  0  0  0  0
  6  4  1  0  0  0  0
  7  4  1  0  0  0  0
  7  9  1  0  0  0  0
  8  7  1  0  0  0  0
 10  7  1  0  0  0  0
 10 12  2  0  0  0  0
 11 10  1  0  0  0  0
 12 13  1  0  0  0  0
 14 12  1  0  0  0  0
M  END
