5
q = -1.0, confidence = 0.0

 53 53  0  0  0  0  0  0  0  0999 V2000
   -2.2527   -0.3490    0.2075 P   0  0  0  0  0  0  0  0  0  0  0  0
    2.2224   -0.0512    0.2053 P   0  0  0  0  0  0  0  0  0  0  0  0
   -2.2326   -1.6921   -0.8418 O   0  0  0  0  0  0  0  0  0  0  0  0
    2.5191   -1.0321   -1.1489 O   0  0  0  0  0  0  0  0  0  0  0  0
    0.1400   -1.3115   -0.9347 C   0  0  0  0  0  3  0  0  0  0  0  0
   -0.9889   -2.0718   -1.3041 C   0  0  0  0  0  0  0  0  0  0  0  0
   -0.9140   -3.1970   -2.1447 C   0  0  0  0  0  0  0  0  0  0  0  0
   -1.8326   -3.7494   -2.3880 H   0  0  0  0  0  0  0  0  0  0  0  0
    0.3342   -3.5789   -2.6595 C   0  0  0  0  0  0  0  0  0  0  0  0
    0.4070   -4.4557   -3.3201 H   0  0  0  0  0  0  0  0  0  0  0  0
    1.4916   -2.8530   -2.3335 C   0  0  0  0  0  0  0  0  0  0  0  0
    2.4825   -3.1381   -2.7137 H   0  0  0  0  0  0  0  0  0  0  0  0
    1.3696   -1.7420   -1.4854 C   0  0  0  0  0  0  0  0  0  0  0  0
   -3.7866    0.4574   -0.5438 C   0  0  0  0  0  0  0  0  0  0  0  0
   -3.3795    0.8246   -1.5087 H   0  0  0  0  0  0  0  0  0  0  0  0
   -4.8993   -0.5497   -0.8628 C   0  0  0  0  0  0  0  0  0  0  0  0
   -5.3821   -0.9323    0.0599 H   0  0  0  0  0  0  0  0  0  0  0  0
   -4.5189   -1.4117   -1.4409 H   0  0  0  0  0  0  0  0  0  0  0  0
   -5.6903   -0.0487   -1.4591 H   0  0  0  0  0  0  0  0  0  0  0  0
   -4.3338    1.6590    0.2392 C   0  0  0  0  0  0  0  0  0  0  0  0
   -4.9882    2.2667   -0.4194 H   0  0  0  0  0  0  0  0  0  0  0  0
   -3.5434    2.3239    0.6326 H   0  0  0  0  0  0  0  0  0  0  0  0
   -4.9554    1.3310    1.0951 H   0  0  0  0  0  0  0  0  0  0  0  0
   -2.9020   -1.2080    1.7437 C   0  0  0  0  0  0  0  0  0  0  0  0
   -3.8363   -1.6731    1.3582 H   0  0  0  0  0  0  0  0  0  0  0  0
   -1.9562   -2.3307    2.1831 C   0  0  0  0  0  0  0  0  0  0  0  0
   -1.0445   -1.9036    2.6416 H   0  0  0  0  0  0  0  0  0  0  0  0
   -1.6640   -2.9837    1.3384 H   0  0  0  0  0  0  0  0  0  0  0  0
   -2.4650   -2.9621    2.9412 H   0  0  0  0  0  0  0  0  0  0  0  0
   -3.2426   -0.2604    2.9012 C   0  0  0  0  0  0  0  0  0  0  0  0
   -4.0219    0.4788    2.6406 H   0  0  0  0  0  0  0  0  0  0  0  0
   -3.6254   -0.8562    3.7561 H   0  0  0  0  0  0  0  0  0  0  0  0
   -2.3370    0.2806    3.2367 H   0  0  0  0  0  0  0  0  0  0  0  0
    3.5635    1.2355    0.0254 C   0  0  0  0  0  0  0  0  0  0  0  0
    3.0490    1.9950   -0.5935 H   0  0  0  0  0  0  0  0  0  0  0  0
    4.8169    0.8046   -0.7458 C   0  0  0  0  0  0  0  0  0  0  0  0
    5.4318    1.7009   -0.9722 H   0  0  0  0  0  0  0  0  0  0  0  0
    4.5508    0.3156   -1.7019 H   0  0  0  0  0  0  0  0  0  0  0  0
    5.4497    0.1034   -0.1713 H   0  0  0  0  0  0  0  0  0  0  0  0
    3.8573    1.8737    1.3920 C   0  0  0  0  0  0  0  0  0  0  0  0
    4.4877    1.2168    2.0235 H   0  0  0  0  0  0  0  0  0  0  0  0
    2.9299    2.0879    1.9611 H   0  0  0  0  0  0  0  0  0  0  0  0
    4.4053    2.8285    1.2561 H   0  0  0  0  0  0  0  0  0  0  0  0
    2.7434   -1.1957    1.5952 C   0  0  0  0  0  0  0  0  0  0  0  0
    2.5830   -0.5806    2.5056 H   0  0  0  0  0  0  0  0  0  0  0  0
    1.8150   -2.4146    1.6672 C   0  0  0  0  0  0  0  0  0  0  0  0
    1.9862   -3.1008    0.8141 H   0  0  0  0  0  0  0  0  0  0  0  0
    0.7532   -2.1183    1.6635 H   0  0  0  0  0  0  0  0  0  0  0  0
    2.0207   -2.9739    2.6031 H   0  0  0  0  0  0  0  0  0  0  0  0
    4.2060   -1.6448    1.4891 C   0  0  0  0  0  0  0  0  0  0  0  0
    4.4059   -2.4083    2.2694 H   0  0  0  0  0  0  0  0  0  0  0  0
    4.9298   -0.8229    1.6427 H   0  0  0  0  0  0  0  0  0  0  0  0
    4.4089   -2.1130    0.5049 H   0  0  0  0  0  0  0  0  0  0  0  0
  1 24  1  0  0  0  0
  2 44  1  0  0  0  0
  3  1  1  0  0  0  0
  4  2  1  0  0  0  0
  6  5  1  0  0  0  0
  6  3  1  0  0  0  0
  7  6  2  0  0  0  0
  8  7  1  0  0  0  0
  9 11  2  0  0  0  0
  9  7  1  0  0  0  0
 10  9  1  0  0  0  0
 11 13  1  0  0  0  0
 12 11  1  0  0  0  0
 13  4  1  0  0  0  0
 13  5  2  0  0  0  0
 14  1  1  0  0  0  0
 14 20  1  0  0  0  0
 15 14  1  0  0  0  0
 16 14  1  0  0  0  0
 16 17  1  0  0  0  0
 18 16  1  0  0  0  0
 19 16  1  0  0  0  0
 20 22  1  0  0  0  0
 20 23  1  0  0  0  0
 21 20  1  0  0  0  0
 24 26  1  0  0  0  0
 24 30  1  0  0  0  0
 25 24  1  0  0  0  0
 26 27  1  0  0  0  0
 26 29  1  0  0  0  0
 28 26  1  0  0  0  0
 30 33  1  0  0  0  0
 30 32  1  0  0  0  0
 31 30  1  0  0  0  0
 34  2  1  0  0  0  0
 34 40  1  0  0  0  0
 35 34  1  0  0  0  0
 36 39  1  0  0  0  0
 36 34  1  0  0  0  0
 37 36  1  0  0  0  0
 38 36  1  0  0  0  0
 40 42  1  0  0  0  0
 40 41  1  0  0  0  0
 43 40  1  0  0  0  0
 44 46  1  0  0  0  0
 44 45  1  0  0  0  0
 46 49  1  0  0  0  0
 47 46  1  0  0  0  0
 48 46  1  0  0  0  0
 50 44  1  0  0  0  0
 50 52  1  0  0  0  0
 50 51  1  0  0  0  0
 53 50  1  0  0  0  0
M  END
