3
q = -1.0

 44 48  0  0  1  0  0  0  0  0999 V2000
   -1.0787    0.1719    0.2454 C   0  0  0  0  0  0  0  0  0  0  0  0
   -1.4469    1.5389    0.1898 C   0  0  0  0  0  3  0  0  0  0  0  0
   -1.0359    2.0392   -1.0907 C   0  0  0  0  0  3  0  0  0  0  0  0
   -0.3976    0.9858   -1.8025 C   0  0  0  0  0  3  0  0  0  0  0  0
   -0.3866   -0.1655   -0.9545 C   0  0  0  0  0  0  0  0  0  0  0  0
   -0.3032   -1.6484   -1.2039 C   0  0  2  0  0  0  0  0  0  0  0  0
   -1.7988   -2.0889   -1.2581 C   0  0  0  0  0  0  0  0  0  0  0  0
   -2.5149   -1.8010    0.0989 C   0  0  1  0  0  0  0  0  0  0  0  0
   -1.5116   -1.0207    1.0406 C   0  0  1  0  0  0  0  0  0  0  0  0
   -0.3177   -1.9594    1.3061 C   0  0  0  0  0  0  0  0  0  0  0  0
    0.3339   -2.4405   -0.0213 C   0  0  2  0  0  0  0  0  0  0  0  0
    2.5936   -2.5158    1.1971 C   0  0  0  0  0  0  0  0  0  0  0  0
    3.9898   -2.6650    1.1994 C   0  0  0  0  0  0  0  0  0  0  0  0
    4.6900   -2.8187   -0.0060 C   0  0  0  0  0  0  0  0  0  0  0  0
    3.9738   -2.8398   -1.2128 C   0  0  0  0  0  0  0  0  0  0  0  0
    2.5785   -2.7002   -1.2076 C   0  0  0  0  0  0  0  0  0  0  0  0
    1.8585   -2.5160   -0.0068 C   0  0  0  0  0  0  0  0  0  0  0  0
   -4.0878   -0.0460   -0.9182 C   0  0  0  0  0  0  0  0  0  0  0  0
   -5.3218    0.6213   -0.9466 C   0  0  0  0  0  0  0  0  0  0  0  0
   -6.3513    0.2463   -0.0699 C   0  0  0  0  0  0  0  0  0  0  0  0
   -6.1360   -0.8031    0.8370 C   0  0  0  0  0  0  0  0  0  0  0  0
   -4.9003   -1.4656    0.8632 C   0  0  0  0  0  0  0  0  0  0  0  0
   -3.8554   -1.1010   -0.0112 C   0  0  0  0  0  0  0  0  0  0  0  0
   -1.9443    2.1168    0.9755 H   0  0  0  0  0  0  0  0  0  0  0  0
   -1.1473    3.0735   -1.4334 H   0  0  0  0  0  0  0  0  0  0  0  0
    0.0008    1.0438   -2.8217 H   0  0  0  0  0  0  0  0  0  0  0  0
    0.1879   -1.8867   -2.1663 H   0  0  0  0  0  0  0  0  0  0  0  0
   -1.8528   -3.1712   -1.4947 H   0  0  0  0  0  0  0  0  0  0  0  0
   -2.3030   -1.5561   -2.0871 H   0  0  0  0  0  0  0  0  0  0  0  0
   -2.6962   -2.7664    0.6158 H   0  0  0  0  0  0  0  0  0  0  0  0
   -2.0135   -0.7431    1.9863 H   0  0  0  0  0  0  0  0  0  0  0  0
    0.4074   -1.3947    1.9162 H   0  0  0  0  0  0  0  0  0  0  0  0
   -0.6621   -2.8251    1.9067 H   0  0  0  0  0  0  0  0  0  0  0  0
    0.0102   -3.4922   -0.1941 H   0  0  0  0  0  0  0  0  0  0  0  0
    2.0758   -2.3832    2.1563 H   0  0  0  0  0  0  0  0  0  0  0  0
    4.5332   -2.6523    2.1565 H   0  0  0  0  0  0  0  0  0  0  0  0
    5.7851   -2.9256   -0.0060 H   0  0  0  0  0  0  0  0  0  0  0  0
    4.5049   -2.9691   -2.1682 H   0  0  0  0  0  0  0  0  0  0  0  0
    2.0401   -2.7428   -2.1669 H   0  0  0  0  0  0  0  0  0  0  0  0
   -3.2944    0.2670   -1.6130 H   0  0  0  0  0  0  0  0  0  0  0  0
   -5.4783    1.4438   -1.6614 H   0  0  0  0  0  0  0  0  0  0  0  0
   -7.3197    0.7685   -0.0951 H   0  0  0  0  0  0  0  0  0  0  0  0
   -6.9370   -1.1112    1.5265 H   0  0  0  0  0  0  0  0  0  0  0  0
   -4.7378   -2.2896    1.5771 H   0  0  0  0  0  0  0  0  0  0  0  0
  1  9  1  0  0  0  0
  2  1  1  0  0  0  0
  2 24  1  0  0  0  0
  3  2  1  0  0  0  0
  4  3  1  0  0  0  0
  4  5  1  0  0  0  0
  5  1  2  0  0  0  0
  6 27  1  6  0  0  0
  6  5  1  0  0  0  0
  6 11  1  0  0  0  0
  7  6  1  0  0  0  0
  7  8  1  0  0  0  0
  8 30  1  1  0  0  0
  8  9  1  0  0  0  0
  9 10  1  0  0  0  0
  9 31  1  1  0  0  0
 10 33  1  0  0  0  0
 10 32  1  0  0  0  0
 11 34  1  6  0  0  0
 11 17  1  0  0  0  0
 11 10  1  0  0  0  0
 12 13  1  0  0  0  0
 12 35  1  0  0  0  0
 13 36  1  0  0  0  0
 14 37  1  0  0  0  0
 14 13  2  0  0  0  0
 15 16  2  0  0  0  0
 15 14  1  0  0  0  0
 16 17  1  0  0  0  0
 17 12  2  0  0  0  0
 18 23  1  0  0  0  0
 19 18  2  0  0  0  0
 19 20  1  0  0  0  0
 20 21  2  0  0  0  0
 21 22  1  0  0  0  0
 21 43  1  0  0  0  0
 22 44  1  0  0  0  0
 23  8  1  0  0  0  0
 23 22  2  0  0  0  0
 25  3  1  0  0  0  0
 26  4  1  0  0  0  0
 28  7  1  0  0  0  0
 29  7  1  0  0  0  0
 38 15  1  0  0  0  0
 39 16  1  0  0  0  0
 40 18  1  0  0  0  0
 41 19  1  0  0  0  0
 42 20  1  0  0  0  0
M  END
