1
q = -1.0, confidence = 0.01

 16 18  0  0  1  0  0  0  0  0999 V2000
   -1.2667    1.2896   -0.7977 C   0  0  0  0  0  3  0  0  0  0  0  0
   -0.6095    1.1601   -1.6802 H   0  0  0  0  0  0  0  0  0  0  0  0
   -2.6960    1.4681   -1.2917 C   0  0  1  0  0  0  0  0  0  0  0  0
   -3.2552    0.6773   -1.8094 H   0  0  0  0  0  0  0  0  0  0  0  0
   -3.3829    2.4995   -0.4166 C   0  0  2  0  0  0  0  0  0  0  0  0
   -4.4658    2.4793   -0.2300 H   0  0  0  0  0  0  0  0  0  0  0  0
   -2.8016    2.9237   -1.7590 C   0  0  1  0  0  0  0  0  0  0  0  0
   -3.4400    3.2112   -2.6071 H   0  0  0  0  0  0  0  0  0  0  0  0
   -1.4509    3.5781   -1.4723 C   0  0  0  0  0  0  0  0  0  0  0  0
   -1.5339    4.6621   -1.2424 H   0  0  0  0  0  0  0  0  0  0  0  0
   -0.7140    3.4437   -2.2913 H   0  0  0  0  0  0  0  0  0  0  0  0
   -1.1009    2.7208   -0.2263 C   0  0  1  0  0  0  0  0  0  0  0  0
   -0.1357    2.9432    0.2626 H   0  0  0  0  0  0  0  0  0  0  0  0
   -2.3685    2.9192    0.6393 C   0  0  0  0  0  0  0  0  0  0  0  0
   -2.3836    2.2801    1.5389 H   0  0  0  0  0  0  0  0  0  0  0  0
   -2.4917    3.9782    0.9518 H   0  0  0  0  0  0  0  0  0  0  0  0
  1 12  1  0  0  0  0
  2  1  1  0  0  0  0
  3  4  1  6  0  0  0
  3  1  1  0  0  0  0
  3  5  1  0  0  0  0
  5  6  1  1  0  0  0
  5 14  1  0  0  0  0
  7  8  1  6  0  0  0
  7  9  1  0  0  0  0
  7  3  1  0  0  0  0
  7  5  1  0  0  0  0
  9 10  1  0  0  0  0
  9 12  1  0  0  0  0
 11  9  1  0  0  0  0
 12 13  1  1  0  0  0
 12 14  1  0  0  0  0
 14 16  1  0  0  0  0
 14 15  1  0  0  0  0
M  END
