5
q = -2.0, confidence = 0.844

 40 47  0  0  1  0  0  0  0  0999 V2000
    1.8724    0.4073    0.6685 C   0  0  1  0  0  0  0  0  0  0  0  0
    3.2790    0.3861   -0.3069 C   0  0  1  0  0  0  0  0  0  0  0  0
    3.2705   -0.5971   -1.5250 C   0  0  0  0  0  0  0  0  0  0  0  0
    1.8968   -1.2552   -1.6299 C   0  0  0  0  0  0  0  0  0  0  0  0
    1.5311   -2.5227   -1.0770 C   0  0  0  0  0  3  0  0  0  0  0  0
    0.2137   -2.8474   -1.5200 C   0  0  0  0  0  0  0  0  0  0  0  0
   -0.2547   -1.7758   -2.3237 C   0  0  0  0  0  0  0  0  0  0  0  0
    0.7729   -0.7888   -2.3843 C   0  0  0  0  0  0  0  0  0  0  0  0
    3.5614    0.1456   -2.8474 C   0  0  0  0  0  0  0  0  0  0  0  0
    4.3490   -1.6904   -1.3702 C   0  0  0  0  0  0  0  0  0  0  0  0
    3.3134   -0.2831    1.2717 B   0  0  2  0  0  0  0  0  0  0  0  0
    2.3268    0.7787    2.2850 B   0  0  2  0  0  0  0  0  0  0  0  0
    1.6255    2.0073    1.2411 B   0  0  1  0  0  0  0  0  0  0  0  0
    2.2128    1.7096   -0.3999 B   0  0  2  0  0  0  0  0  0  0  0  0
    4.6712    0.6901    0.6357 B   0  0  2  0  0  0  0  0  0  0  0  0
    4.0893    0.9615    2.2919 B   0  0  2  0  0  0  0  0  0  0  0  0
    3.0321    2.4062    2.2662 B   0  0  0  0  0  0  0  0  0  0  0  0
    2.9466    3.0002    0.5826 B   0  0  2  0  0  0  0  0  0  0  0  0
    3.9793    1.9457   -0.4057 B   0  0  1  0  0  0  0  0  0  0  0  0
    4.4847    2.3555    1.2430 B   0  0  2  0  0  0  0  0  0  0  0  0
    4.2550   -2.4206   -2.1970 H   0  0  0  0  0  0  0  0  0  0  0  0
    4.2693   -2.2320   -0.4107 H   0  0  0  0  0  0  0  0  0  0  0  0
    3.3734   -1.4792    1.4130 H   0  0  0  0  0  0  0  0  0  0  0  0
    1.7045    0.3040    3.1997 H   0  0  0  0  0  0  0  0  0  0  0  0
    2.1714   -3.1516   -0.4488 H   0  0  0  0  0  0  0  0  0  0  0  0
   -0.3342   -3.7695   -1.2954 H   0  0  0  0  0  0  0  0  0  0  0  0
   -1.2351   -1.7096   -2.8057 H   0  0  0  0  0  0  0  0  0  0  0  0
    0.7051    0.1584   -2.9303 H   0  0  0  0  0  0  0  0  0  0  0  0
    2.9140    3.1370    3.2220 H   0  0  0  0  0  0  0  0  0  0  0  0
    2.7742    4.1574    0.2822 H   0  0  0  0  0  0  0  0  0  0  0  0
    5.3580   -1.2425   -1.4174 H   0  0  0  0  0  0  0  0  0  0  0  0
    4.5154    2.2679   -1.4332 H   0  0  0  0  0  0  0  0  0  0  0  0
    5.4531    3.0549    1.4291 H   0  0  0  0  0  0  0  0  0  0  0  0
    0.4915    2.3841    1.3783 H   0  0  0  0  0  0  0  0  0  0  0  0
    1.5435    1.8424   -1.3880 H   0  0  0  0  0  0  0  0  0  0  0  0
    5.6957    0.1302    0.3391 H   0  0  0  0  0  0  0  0  0  0  0  0
    4.7493    0.6273    3.2478 H   0  0  0  0  0  0  0  0  0  0  0  0
    4.5996    0.5234   -2.8603 H   0  0  0  0  0  0  0  0  0  0  0  0
    2.8860    1.0054   -3.0059 H   0  0  0  0  0  0  0  0  0  0  0  0
    3.4373   -0.5579   -3.6934 H   0  0  0  0  0  0  0  0  0  0  0  0
  1 13  1  0  0  0  0
  1 11  1  0  0  0  0
  2 15  1  0  0  0  0
  2  1  1  0  0  0  0
  3 10  1  0  0  0  0
  3  2  1  0  0  0  0
  4  3  1  0  0  0  0
  4  5  1  0  0  0  0
  5 25  1  0  0  0  0
  6 26  1  0  0  0  0
  6  5  1  0  0  0  0
  7  6  2  0  0  0  0
  8  7  1  0  0  0  0
  8  4  2  0  0  0  0
  9  3  1  0  0  0  0
 10 22  1  0  0  0  0
 11 23  1  0  0  0  0
 11 12  1  0  0  0  0
 11 16  1  0  0  0  0
 12 16  1  0  0  0  0
 12 24  1  0  0  0  0
 13 34  1  0  0  0  0
 13 12  1  0  0  0  0
 14  2  1  0  0  0  0
 14  1  1  0  0  0  0
 14 13  1  0  0  0  0
 15 16  1  0  0  0  0
 16 37  1  0  0  0  0
 17 29  1  0  0  0  0
 18 20  1  0  0  0  0
 18 17  1  0  0  0  0
 19 18  1  0  0  0  0
 19 15  1  0  0  0  0
 19 20  1  0  0  0  0
 20 33  1  0  0  0  0
 20 17  1  0  0  0  0
 21 10  1  0  0  0  0
 27  7  1  0  0  0  0
 28  8  1  0  0  0  0
 30 18  1  0  0  0  0
 31 10  1  0  0  0  0
 32 19  1  0  0  0  0
 35 14  1  0  0  0  0
 36 15  1  0  0  0  0
 38  9  1  0  0  0  0
 39  9  1  0  0  0  0
 40  9  1  0  0  0  0
M  END
