6
q = 0.0, confidence = 0.984

 43 44  0  0  0  0  0  0  0  0999 V2000
   -0.3307   -0.2112   -0.1653 O   0  0  0  0  0  0  0  0  0  0  0  0
   -3.5892    3.2008   -0.0631 O   0  0  0  0  0  0  0  0  0  0  0  0
   -2.7652    3.7074    0.0512 H   0  0  0  0  0  0  0  0  0  0  0  0
   -2.5091   -2.2738   -0.6371 O   0  0  0  0  0  0  0  0  0  0  0  0
    2.0236    2.3760    0.2787 O   0  0  0  0  0  0  0  0  0  0  0  0
    1.7321    1.0843    0.0969 C   0  0  0  0  0  2  0  0  0  0  0  0
    0.2857    1.0130    0.0158 C   0  0  0  0  0  0  0  0  0  0  0  0
   -0.6725    2.0235    0.0627 C   0  0  0  0  0  0  0  0  0  0  0  0
   -0.4281    3.0830    0.1967 H   0  0  0  0  0  0  0  0  0  0  0  0
   -1.9451    1.4055   -0.1081 C   0  0  0  0  0  0  0  0  0  0  0  0
   -3.2784    1.8766   -0.1888 C   0  0  0  0  0  0  0  0  0  0  0  0
   -4.3195    0.9567   -0.4121 C   0  0  0  0  0  0  0  0  0  0  0  0
   -4.0234   -0.4368   -0.5429 C   0  0  0  0  0  0  0  0  0  0  0  0
   -2.6942   -0.9362   -0.4499 C   0  0  0  0  0  0  0  0  0  0  0  0
   -1.6787    0.0131   -0.2473 C   0  0  0  0  0  0  0  0  0  0  0  0
   -1.4699   -2.9603    0.0844 C   0  0  0  0  0  0  0  0  0  0  0  0
   -0.4788   -2.5342   -0.1684 H   0  0  0  0  0  0  0  0  0  0  0  0
   -1.5031   -3.9900   -0.3228 H   0  0  0  0  0  0  0  0  0  0  0  0
   -1.7020   -2.9632    1.5865 C   0  0  0  0  0  0  0  0  0  0  0  0
   -0.8950   -3.5276    2.0929 H   0  0  0  0  0  0  0  0  0  0  0  0
   -2.6748   -3.4311    1.8386 H   0  0  0  0  0  0  0  0  0  0  0  0
   -1.6891   -1.9344    1.9986 H   0  0  0  0  0  0  0  0  0  0  0  0
   -5.1129   -1.4640   -0.7660 C   0  0  0  0  0  0  0  0  0  0  0  0
   -4.7009   -2.2794   -1.3914 H   0  0  0  0  0  0  0  0  0  0  0  0
   -5.9476   -1.0136   -1.3379 H   0  0  0  0  0  0  0  0  0  0  0  0
   -5.6504   -2.0661    0.5422 C   0  0  0  0  0  0  0  0  0  0  0  0
   -6.4280   -2.8296    0.3373 H   0  0  0  0  0  0  0  0  0  0  0  0
   -6.0982   -1.2898    1.1942 H   0  0  0  0  0  0  0  0  0  0  0  0
   -4.8355   -2.5542    1.1127 H   0  0  0  0  0  0  0  0  0  0  0  0
   -5.7285    1.5109   -0.4626 C   0  0  0  0  0  0  0  0  0  0  0  0
   -6.3964    0.8154   -1.0057 H   0  0  0  0  0  0  0  0  0  0  0  0
   -5.7115    2.4519   -1.0506 H   0  0  0  0  0  0  0  0  0  0  0  0
   -6.3148    1.8118    0.9267 C   0  0  0  0  0  0  0  0  0  0  0  0
   -7.3395    2.2278    0.8436 H   0  0  0  0  0  0  0  0  0  0  0  0
   -5.6899    2.5519    1.4643 H   0  0  0  0  0  0  0  0  0  0  0  0
   -6.3686    0.8971    1.5505 H   0  0  0  0  0  0  0  0  0  0  0  0
    3.3591    2.8863    0.4406 C   0  0  0  0  0  0  0  0  0  0  0  0
    4.0312    2.3949   -0.2880 H   0  0  0  0  0  0  0  0  0  0  0  0
    3.7081    2.6233    1.4599 H   0  0  0  0  0  0  0  0  0  0  0  0
    3.3072    4.3872    0.2379 C   0  0  0  0  0  0  0  0  0  0  0  0
    4.3183    4.8171    0.3789 H   0  0  0  0  0  0  0  0  0  0  0  0
    2.6239    4.8670    0.9664 H   0  0  0  0  0  0  0  0  0  0  0  0
    2.9642    4.6385   -0.7852 H   0  0  0  0  0  0  0  0  0  0  0  0
  1  7  1  0  0  0  0
  2  3  1  0  0  0  0
  4 14  1  0  0  0  0
  4 16  1  0  0  0  0
  5 37  1  0  0  0  0
  6  5  1  0  0  0  0
  7  8  2  0  0  0  0
  7  6  1  0  0  0  0
  8  9  1  0  0  0  0
 10  8  1  0  0  0  0
 11 10  1  0  0  0  0
 11  2  1  0  0  0  0
 12 11  2  0  0  0  0
 13 14  2  0  0  0  0
 13 12  1  0  0  0  0
 14 15  1  0  0  0  0
 15  1  1  0  0  0  0
 15 10  2  0  0  0  0
 16 19  1  0  0  0  0
 17 16  1  0  0  0  0
 18 16  1  0  0  0  0
 19 21  1  0  0  0  0
 19 22  1  0  0  0  0
 19 20  1  0  0  0  0
 23 13  1  0  0  0  0
 23 26  1  0  0  0  0
 24 23  1  0  0  0  0
 25 23  1  0  0  0  0
 26 29  1  0  0  0  0
 26 28  1  0  0  0  0
 27 26  1  0  0  0  0
 30 12  1  0  0  0  0
 30 33  1  0  0  0  0
 31 30  1  0  0  0  0
 32 30  1  0  0  0  0
 33 35  1  0  0  0  0
 33 36  1  0  0  0  0
 34 33  1  0  0  0  0
 37 39  1  0  0  0  0
 38 37  1  0  0  0  0
 40 41  1  0  0  0  0
 40 37  1  0  0  0  0
 40 42  1  0  0  0  0
 43 40  1  0  0  0  0
M  END
