2
q = -1.0, confidence = 0.0

 17 17  0  0  0  0  0  0  0  0999 V2000
    2.8417   -0.3358   -1.1785 C   0  0  0  0  0  0  0  0  0  0  0  0
    2.1198    0.0006   -0.0001 C   0  0  0  0  0  3  0  0  0  0  0  0
    4.2531   -0.3323   -1.1642 C   0  0  0  0  0  0  0  0  0  0  0  0
    4.8028   -0.5965   -2.0828 H   0  0  0  0  0  0  0  0  0  0  0  0
    2.8416    0.3371    1.1783 C   0  0  0  0  0  0  0  0  0  0  0  0
    4.9589    0.0008    0.0000 C   0  0  0  0  0  0  0  0  0  0  0  0
    6.0599    0.0008    0.0001 H   0  0  0  0  0  0  0  0  0  0  0  0
    4.2529    0.3338    1.1642 C   0  0  0  0  0  0  0  0  0  0  0  0
    4.8024    0.5980    2.0829 H   0  0  0  0  0  0  0  0  0  0  0  0
    2.1101    0.7149    2.4479 C   0  0  0  0  0  0  0  0  0  0  0  0
    2.8068    0.8609    3.2969 H   0  0  0  0  0  0  0  0  0  0  0  0
    1.3691   -0.0602    2.7382 H   0  0  0  0  0  0  0  0  0  0  0  0
    1.5264    1.6494    2.3121 H   0  0  0  0  0  0  0  0  0  0  0  0
    2.1105   -0.7138   -2.4480 C   0  0  0  0  0  0  0  0  0  0  0  0
    2.8072   -0.8600   -3.2969 H   0  0  0  0  0  0  0  0  0  0  0  0
    1.3695    0.0611   -2.7386 H   0  0  0  0  0  0  0  0  0  0  0  0
    1.5268   -1.6484   -2.3122 H   0  0  0  0  0  0  0  0  0  0  0  0
  1  3  2  0  0  0  0
  1  2  1  0  0  0  0
  2  5  2  0  0  0  0
  3  6  1  0  0  0  0
  4  3  1  0  0  0  0
  5 10  1  0  0  0  0
  6  7  1  0  0  0  0
  6  8  2  0  0  0  0
  8  5  1  0  0  0  0
  8  9  1  0  0  0  0
 10 12  1  0  0  0  0
 10 11  1  0  0  0  0
 13 10  1  0  0  0  0
 14 17  1  0  0  0  0
 14  1  1  0  0  0  0
 15 14  1  0  0  0  0
 16 14  1  0  0  0  0
M  END
