2
q = -1.0

 38 41  0  0  0  0  0  0  0  0999 V2000
    1.3356   -1.3952   -0.1070 C   0  0  0  0  0  0  0  0  0  0  0  0
    0.5230   -1.1010   -1.2554 C   0  0  0  0  0  3  0  0  0  0  0  0
    0.8851   -1.0410   -2.2867 H   0  0  0  0  0  0  0  0  0  0  0  0
   -0.8604   -1.0848   -0.8448 C   0  0  0  0  0  0  0  0  0  0  0  0
   -2.0533   -0.8894   -1.5755 C   0  0  0  0  0  0  0  0  0  0  0  0
   -3.2721   -0.8870   -0.8461 C   0  0  0  0  0  0  0  0  0  0  0  0
   -4.5267   -0.6980   -1.5148 C   0  0  0  0  0  0  0  0  0  0  0  0
   -4.5331   -0.5709   -2.6062 H   0  0  0  0  0  0  0  0  0  0  0  0
   -5.7231   -0.6656   -0.8247 C   0  0  0  0  0  0  0  0  0  0  0  0
   -6.6682   -0.5167   -1.3686 H   0  0  0  0  0  0  0  0  0  0  0  0
   -5.7367   -0.8187    0.5914 C   0  0  0  0  0  0  0  0  0  0  0  0
   -6.6919   -0.7879    1.1370 H   0  0  0  0  0  0  0  0  0  0  0  0
   -4.5526   -1.0006    1.2788 C   0  0  0  0  0  0  0  0  0  0  0  0
   -4.5762   -1.1117    2.3715 H   0  0  0  0  0  0  0  0  0  0  0  0
   -3.2863   -1.0457    0.6068 C   0  0  0  0  0  0  0  0  0  0  0  0
   -2.0831   -1.2177    1.3421 C   0  0  0  0  0  0  0  0  0  0  0  0
   -0.8762   -1.2601    0.6076 C   0  0  0  0  0  0  0  0  0  0  0  0
    0.4910   -1.4188    1.0369 C   0  0  0  0  0  0  0  0  0  0  0  0
    0.8242   -1.6022    2.0620 H   0  0  0  0  0  0  0  0  0  0  0  0
   -2.0128   -0.6532   -3.0606 C   0  0  0  0  0  0  0  0  0  0  0  0
   -2.6786   -1.3474   -3.6132 H   0  0  0  0  0  0  0  0  0  0  0  0
   -0.9932   -0.7850   -3.4677 H   0  0  0  0  0  0  0  0  0  0  0  0
   -2.3440    0.3779   -3.3110 H   0  0  0  0  0  0  0  0  0  0  0  0
   -2.0695   -1.3005    2.8423 C   0  0  0  0  0  0  0  0  0  0  0  0
   -1.0468   -1.4371    3.2362 H   0  0  0  0  0  0  0  0  0  0  0  0
   -2.6957   -2.1345    3.2215 H   0  0  0  0  0  0  0  0  0  0  0  0
   -2.4659   -0.3634    3.2873 H   0  0  0  0  0  0  0  0  0  0  0  0
    2.7997   -1.5790   -0.0994 C   0  0  0  0  0  0  0  0  0  0  0  0
    3.4649   -2.0817   -1.2409 C   0  0  0  0  0  0  0  0  0  0  0  0
    2.8781   -2.3626   -2.1284 H   0  0  0  0  0  0  0  0  0  0  0  0
    4.8562   -2.2528   -1.2414 C   0  0  0  0  0  0  0  0  0  0  0  0
    5.3564   -2.6526   -2.1365 H   0  0  0  0  0  0  0  0  0  0  0  0
    5.6085   -1.9243   -0.1022 C   0  0  0  0  0  0  0  0  0  0  0  0
    6.7008   -2.0573   -0.1034 H   0  0  0  0  0  0  0  0  0  0  0  0
    4.9581   -1.4247    1.0385 C   0  0  0  0  0  0  0  0  0  0  0  0
    5.5410   -1.1576    1.9330 H   0  0  0  0  0  0  0  0  0  0  0  0
    3.5679   -1.2528    1.0429 C   0  0  0  0  0  0  0  0  0  0  0  0
    3.0691   -0.8215    1.9241 H   0  0  0  0  0  0  0  0  0  0  0  0
  1 28  1  0  0  0  0
  1 18  2  0  0  0  0
  2  4  1  0  0  0  0
  2  1  1  0  0  0  0
  3  2  1  0  0  0  0
  4 17  1  0  0  0  0
  5  6  1  0  0  0  0
  5  4  2  0  0  0  0
  6 15  1  0  0  0  0
  7  6  2  0  0  0  0
  7  9  1  0  0  0  0
  8  7  1  0  0  0  0
  9 11  2  0  0  0  0
 10  9  1  0  0  0  0
 11 12  1  0  0  0  0
 11 13  1  0  0  0  0
 13 14  1  0  0  0  0
 15 13  2  0  0  0  0
 15 16  1  0  0  0  0
 16 24  1  0  0  0  0
 17 18  1  0  0  0  0
 17 16  2  0  0  0  0
 18 19  1  0  0  0  0
 20  5  1  0  0  0  0
 21 20  1  0  0  0  0
 22 20  1  0  0  0  0
 23 20  1  0  0  0  0
 24 26  1  0  0  0  0
 24 25  1  0  0  0  0
 24 27  1  0  0  0  0
 28 37  1  0  0  0  0
 29 28  2  0  0  0  0
 30 29  1  0  0  0  0
 31 29  1  0  0  0  0
 31 33  2  0  0  0  0
 32 31  1  0  0  0  0
 33 35  1  0  0  0  0
 34 33  1  0  0  0  0
 35 37  2  0  0  0  0
 35 36  1  0  0  0  0
 37 38  1  0  0  0  0
M  END
