10
q = -1.0

 23 23  0  0  1  0  0  0  0  0999 V2000
    1.4063   -0.3606   -1.3380 S   0  0  0  0  0  0  0  0  0  0  0  0
    1.3249   -0.3844    2.2819 C   0  0  0  0  0  3  0  0  0  0  0  0
    2.1469    0.3134    2.4811 H   0  0  0  0  0  0  0  0  0  0  0  0
   -0.0358   -0.2550    2.7476 C   0  0  0  0  0  0  0  0  0  0  0  0
   -0.4358    0.5884    3.3230 H   0  0  0  0  0  0  0  0  0  0  0  0
   -0.7881   -1.3808    2.2804 C   0  0  0  0  0  0  0  0  0  0  0  0
   -1.8567   -1.5586    2.4484 H   0  0  0  0  0  0  0  0  0  0  0  0
    0.0992   -2.2266    1.5071 C   0  0  0  0  0  3  0  0  0  0  0  0
   -0.1817   -3.1617    1.0078 H   0  0  0  0  0  0  0  0  0  0  0  0
    1.4002   -1.5955    1.4864 C   0  0  1  0  0  3  0  0  0  0  0  0
    2.5765   -2.0181    0.6314 C   0  0  0  0  0  0  0  0  0  0  0  0
    2.8871   -3.0542    0.8873 H   0  0  0  0  0  0  0  0  0  0  0  0
    3.4445   -1.3683    0.8608 H   0  0  0  0  0  0  0  0  0  0  0  0
    2.2385   -1.9529   -0.8625 C   0  0  0  0  0  0  0  0  0  0  0  0
    1.4816   -2.7132   -1.1424 H   0  0  0  0  0  0  0  0  0  0  0  0
    3.1251   -2.1038   -1.5118 H   0  0  0  0  0  0  0  0  0  0  0  0
    2.7646    0.8513   -1.0600 C   0  0  0  0  0  0  0  0  0  0  0  0
    2.2123    1.8127   -0.9997 H   0  0  0  0  0  0  0  0  0  0  0  0
    3.2020    0.6718   -0.0575 H   0  0  0  0  0  0  0  0  0  0  0  0
    3.8005    0.8312   -2.1748 C   0  0  0  0  0  0  0  0  0  0  0  0
    4.3498   -0.1312   -2.2260 H   0  0  0  0  0  0  0  0  0  0  0  0
    4.5505    1.6301   -2.0024 H   0  0  0  0  0  0  0  0  0  0  0  0
    3.3315    1.0120   -3.1622 H   0  0  0  0  0  0  0  0  0  0  0  0
  1 17  1  0  0  0  0
  1 14  1  0  0  0  0
  2  3  1  0  0  0  0
  2  4  1  0  0  0  0
  4  5  1  0  0  0  0
  6  7  1  0  0  0  0
  6  4  2  0  0  0  0
  8  6  1  0  0  0  0
  9  8  1  0  0  0  0
 10 11  1  6  0  0  0
 10  8  1  0  0  0  0
 10  2  1  0  0  0  0
 11 13  1  0  0  0  0
 11 12  1  0  0  0  0
 14 11  1  0  0  0  0
 15 14  1  0  0  0  0
 16 14  1  0  0  0  0
 17 18  1  0  0  0  0
 17 19  1  0  0  0  0
 20 22  1  0  0  0  0
 20 17  1  0  0  0  0
 21 20  1  0  0  0  0
 23 20  1  0  0  0  0
M  END
