7
q = -1.0

 36 38  0  0  1  0  0  0  0  0999 V2000
    0.8663   -1.6574   -2.3757 C   0  0  0  0  0  0  0  0  0  0  0  0
    1.6956   -2.2965   -2.6966 H   0  0  0  0  0  0  0  0  0  0  0  0
   -0.5086   -1.9669   -2.5511 C   0  0  0  0  0  0  0  0  0  0  0  0
   -1.2745   -0.8747   -2.0045 C   0  0  0  0  0  0  0  0  0  0  0  0
   -0.3515    0.0832   -1.4981 C   0  0  0  0  0  0  0  0  0  0  0  0
   -0.6446    1.0359   -1.0430 H   0  0  0  0  0  0  0  0  0  0  0  0
    0.9909   -0.3857   -1.7231 C   0  0  2  0  0  3  0  0  0  0  0  0
   -1.0722   -3.1602   -3.2570 C   0  0  0  0  0  0  0  0  0  0  0  0
   -1.5047   -2.8631   -4.2361 H   0  0  0  0  0  0  0  0  0  0  0  0
   -1.8781   -3.6331   -2.6609 H   0  0  0  0  0  0  0  0  0  0  0  0
   -0.2914   -3.9217   -3.4434 H   0  0  0  0  0  0  0  0  0  0  0  0
   -2.7655   -0.7420   -2.0604 C   0  0  0  0  0  0  0  0  0  0  0  0
   -3.2670   -1.6410   -1.6501 H   0  0  0  0  0  0  0  0  0  0  0  0
   -3.0974   -0.6274   -3.1144 H   0  0  0  0  0  0  0  0  0  0  0  0
   -3.1174    0.1394   -1.4931 H   0  0  0  0  0  0  0  0  0  0  0  0
    2.2451    0.3045   -1.3808 C   0  0  0  0  0  0  0  0  0  0  0  0
    2.2587    1.6821   -1.0591 C   0  0  0  0  0  0  0  0  0  0  0  0
    1.3214    2.2575   -1.0936 H   0  0  0  0  0  0  0  0  0  0  0  0
    3.4449    2.3324   -0.7059 C   0  0  0  0  0  0  0  0  0  0  0  0
    3.4138    3.3981   -0.4341 H   0  0  0  0  0  0  0  0  0  0  0  0
    4.6780    1.6412   -0.6680 C   0  0  0  0  0  0  0  0  0  0  0  0
    4.6645    0.2687   -1.0095 C   0  0  0  0  0  0  0  0  0  0  0  0
    5.6086   -0.2961   -1.0141 H   0  0  0  0  0  0  0  0  0  0  0  0
    3.4796   -0.3858   -1.3541 C   0  0  0  0  0  0  0  0  0  0  0  0
    3.5051   -1.4623   -1.5749 H   0  0  0  0  0  0  0  0  0  0  0  0
    5.9344    2.3273   -0.2811 C   0  0  0  0  0  0  0  0  0  0  0  0
    6.1605    3.6817   -0.6194 C   0  0  0  0  0  0  0  0  0  0  0  0
    5.4045    4.2256   -1.2057 H   0  0  0  0  0  0  0  0  0  0  0  0
    7.3473    4.3290   -0.2509 C   0  0  0  0  0  0  0  0  0  0  0  0
    7.5047    5.3809   -0.5344 H   0  0  0  0  0  0  0  0  0  0  0  0
    8.3375    3.6379    0.4656 C   0  0  0  0  0  0  0  0  0  0  0  0
    9.2697    4.1462    0.7550 H   0  0  0  0  0  0  0  0  0  0  0  0
    8.1285    2.2928    0.8094 C   0  0  0  0  0  0  0  0  0  0  0  0
    8.8939    1.7436    1.3789 H   0  0  0  0  0  0  0  0  0  0  0  0
    6.9418    1.6456    0.4405 C   0  0  0  0  0  0  0  0  0  0  0  0
    6.7776    0.5993    0.7396 H   0  0  0  0  0  0  0  0  0  0  0  0
  1  7  1  0  0  0  0
  2  1  1  0  0  0  0
  3  1  2  0  0  0  0
  3  4  1  0  0  0  0
  4  5  2  0  0  0  0
  5  6  1  0  0  0  0
  7  5  1  0  0  0  0
  7 16  1  6  0  0  0
  8 10  1  0  0  0  0
  8  3  1  0  0  0  0
  9  8  1  0  0  0  0
 11  8  1  0  0  0  0
 12  4  1  0  0  0  0
 12 13  1  0  0  0  0
 12 15  1  0  0  0  0
 14 12  1  0  0  0  0
 16 24  2  0  0  0  0
 16 17  1  0  0  0  0
 17 19  2  0  0  0  0
 18 17  1  0  0  0  0
 19 21  1  0  0  0  0
 19 20  1  0  0  0  0
 21 26  1  0  0  0  0
 22 21  2  0  0  0  0
 23 22  1  0  0  0  0
 24 22  1  0  0  0  0
 25 24  1  0  0  0  0
 26 35  1  0  0  0  0
 27 26  2  0  0  0  0
 27 29  1  0  0  0  0
 28 27  1  0  0  0  0
 29 31  2  0  0  0  0
 30 29  1  0  0  0  0
 31 32  1  0  0  0  0
 31 33  1  0  0  0  0
 33 34  1  0  0  0  0
 35 36  1  0  0  0  0
 35 33  2  0  0  0  0
M  END
