6
q = -2.0, confidence = 0.782

 38 43  0  0  1  0  0  0  0  0999 V2000
    2.0389   -1.4123   -0.4441 C   0  0  2  0  0  0  0  0  0  0  0  0
    1.6885    0.1556    0.1092 C   0  0  1  0  0  0  0  0  0  0  0  0
    0.8022   -2.2205   -0.8196 C   0  0  0  0  0  0  0  0  0  0  0  0
    0.5569   -2.8858    0.0298 H   0  0  0  0  0  0  0  0  0  0  0  0
    1.0652   -2.8809   -1.6735 H   0  0  0  0  0  0  0  0  0  0  0  0
   -0.3534   -1.3047   -1.1463 C   0  0  0  0  0  3  0  0  0  0  0  0
   -0.2030   -0.7525   -2.0940 H   0  0  0  0  0  0  0  0  0  0  0  0
   -1.7355   -1.6483   -0.9082 C   0  0  0  0  0  0  0  0  0  0  0  0
   -2.1768   -2.7729   -0.1338 C   0  0  0  0  0  0  0  0  0  0  0  0
   -1.4408   -3.5186    0.1995 H   0  0  0  0  0  0  0  0  0  0  0  0
   -3.5203   -2.9565    0.1691 C   0  0  0  0  0  0  0  0  0  0  0  0
   -3.8262   -3.8451    0.7427 H   0  0  0  0  0  0  0  0  0  0  0  0
   -4.5054   -2.0257   -0.2519 C   0  0  0  0  0  0  0  0  0  0  0  0
   -5.5640   -2.1875   -0.0020 H   0  0  0  0  0  0  0  0  0  0  0  0
   -4.1136   -0.9302   -1.0200 C   0  0  0  0  0  0  0  0  0  0  0  0
   -4.8659   -0.2233   -1.4028 H   0  0  0  0  0  0  0  0  0  0  0  0
   -2.7529   -0.7374   -1.3512 C   0  0  0  0  0  0  0  0  0  0  0  0
   -2.4987    0.0104   -2.1127 H   0  0  0  0  0  0  0  0  0  0  0  0
    2.2215   -1.0706    1.2054 B   0  0  2  0  0  0  0  0  0  0  0  0
    1.4529   -1.5783    1.9764 H   0  0  0  0  0  0  0  0  0  0  0  0
    3.3784   -2.1115    0.3466 B   0  0  0  0  0  0  0  0  0  0  0  0
    3.3290   -3.2987    0.5645 H   0  0  0  0  0  0  0  0  0  0  0  0
    3.5140   -1.4998   -1.3079 B   0  0  0  0  0  0  0  0  0  0  0  0
    3.5581   -2.2622   -2.2433 H   0  0  0  0  0  0  0  0  0  0  0  0
    2.4272   -0.0978   -1.4371 B   0  0  2  0  0  0  0  0  0  0  0  0
    1.7914    0.0765   -2.4451 H   0  0  0  0  0  0  0  0  0  0  0  0
    2.8812    0.5606    1.2897 B   0  0  1  0  0  0  0  0  0  0  0  0
    2.5648    1.2960    2.1951 H   0  0  0  0  0  0  0  0  0  0  0  0
    3.9631   -0.8508    1.4602 B   0  0  0  0  0  0  0  0  0  0  0  0
    4.4547   -1.1385    2.5272 H   0  0  0  0  0  0  0  0  0  0  0  0
    4.7743   -1.1089   -0.1152 B   0  0  0  0  0  0  0  0  0  0  0  0
    5.8817   -1.5878   -0.2018 H   0  0  0  0  0  0  0  0  0  0  0  0
    4.1776    0.1466   -1.2430 B   0  0  0  0  0  0  0  0  0  0  0  0
    4.8251    0.5993   -2.1589 H   0  0  0  0  0  0  0  0  0  0  0  0
    3.0167    1.1635   -0.3524 B   0  0  2  0  0  0  0  0  0  0  0  0
    2.8156    2.3246   -0.6075 H   0  0  0  0  0  0  0  0  0  0  0  0
    4.4686    0.5462    0.4728 B   0  0  0  0  0  0  0  0  0  0  0  0
    5.3477    1.3016    0.8197 H   0  0  0  0  0  0  0  0  0  0  0  0
  1  3  1  6  0  0  0
  1  2  1  0  0  0  0
  1 19  1  0  0  0  0
  2 19  1  0  0  0  0
  2 27  1  0  0  0  0
  3  4  1  0  0  0  0
  5  3  1  0  0  0  0
  6  8  1  0  0  0  0
  6  3  1  0  0  0  0
  7  6  1  0  0  0  0
  8  9  1  0  0  0  0
  9 11  2  0  0  0  0
  9 10  1  0  0  0  0
 11 12  1  0  0  0  0
 13 14  1  0  0  0  0
 13 11  1  0  0  0  0
 15 13  2  0  0  0  0
 16 15  1  0  0  0  0
 17 15  1  0  0  0  0
 17  8  2  0  0  0  0
 18 17  1  0  0  0  0
 19 27  1  0  0  0  0
 19 20  1  0  0  0  0
 21 22  1  0  0  0  0
 21 29  1  0  0  0  0
 23 33  1  0  0  0  0
 23 21  1  0  0  0  0
 24 23  1  0  0  0  0
 25 33  1  0  0  0  0
 25  1  1  0  0  0  0
 25 35  1  0  0  0  0
 26 25  1  0  0  0  0
 27 28  1  0  0  0  0
 29 30  1  0  0  0  0
 31 21  1  0  0  0  0
 31 37  1  0  0  0  0
 32 31  1  0  0  0  0
 34 33  1  0  0  0  0
 35  2  1  0  0  0  0
 35 27  1  0  0  0  0
 36 35  1  0  0  0  0
 37 38  1  0  0  0  0
 37 29  1  0  0  0  0
M  END
