6
q = -1.0

 17 17  0  0  0  0  0  0  0  0999 V2000
   -0.9211    2.4272   -1.7214 C   0  0  0  0  0  0  0  0  0  0  0  0
   -1.6565    1.2124   -1.8958 C   0  0  0  0  0  0  0  0  0  0  0  0
   -2.7484    1.1240   -1.8823 H   0  0  0  0  0  0  0  0  0  0  0  0
   -0.7350    0.1447   -2.0870 C   0  0  0  0  0  3  0  0  0  0  0  0
   -0.9958   -0.9101   -2.2350 H   0  0  0  0  0  0  0  0  0  0  0  0
    0.5823    0.6897   -2.0216 C   0  0  0  0  0  3  0  0  0  0  0  0
    1.5171    0.1272   -2.1237 H   0  0  0  0  0  0  0  0  0  0  0  0
    0.4655    2.0915   -1.7913 C   0  0  0  0  0  3  0  0  0  0  0  0
    1.2866    2.8077   -1.6711 H   0  0  0  0  0  0  0  0  0  0  0  0
   -1.5034    3.8138   -1.5944 C   0  0  0  0  0  0  0  0  0  0  0  0
   -1.7282    4.1870   -2.6184 H   0  0  0  0  0  0  0  0  0  0  0  0
   -2.4717    3.7310   -1.0558 H   0  0  0  0  0  0  0  0  0  0  0  0
   -0.6094    4.7891   -0.8793 C   0  0  0  0  0  0  0  0  0  0  0  0
   -0.3921    4.5464    0.1758 H   0  0  0  0  0  0  0  0  0  0  0  0
   -0.0670    5.8830   -1.4407 C   0  0  0  0  0  0  0  0  0  0  0  0
   -0.2562    6.1446   -2.4962 H   0  0  0  0  0  0  0  0  0  0  0  0
    0.5807    6.5620   -0.8646 H   0  0  0  0  0  0  0  0  0  0  0  0
  1 10  1  0  0  0  0
  2  3  1  0  0  0  0
  2  1  2  0  0  0  0
  4  6  1  0  0  0  0
  4  2  1  0  0  0  0
  5  4  1  0  0  0  0
  6  8  1  0  0  0  0
  7  6  1  0  0  0  0
  8  1  1  0  0  0  0
  8  9  1  0  0  0  0
 10 12  1  0  0  0  0
 10 13  1  0  0  0  0
 11 10  1  0  0  0  0
 13 14  1  0  0  0  0
 15 13  2  0  0  0  0
 15 17  1  0  0  0  0
 16 15  1  0  0  0  0
M  END
