20
q = 0.0, confidence = 0.994

 24 26  0  0  1  0  0  0  0  0999 V2000
    1.6296   -0.0092   -2.1628 S   0  0  0  0  0  0  0  0  0  0  0  0
    3.1280   -0.1298   -1.2424 C   0  0  0  0  0  0  0  0  0  0  0  0
    4.2415    0.7220   -1.4152 C   0  0  0  0  0  0  0  0  0  0  0  0
    5.3555    0.4877   -0.5907 C   0  0  0  0  0  0  0  0  0  0  0  0
    6.2391    1.1363   -0.6989 H   0  0  0  0  0  0  0  0  0  0  0  0
    5.3646   -0.5509    0.3642 C   0  0  0  0  0  0  0  0  0  0  0  0
    6.2554   -0.7006    0.9926 H   0  0  0  0  0  0  0  0  0  0  0  0
    4.2520   -1.3820    0.5247 C   0  0  0  0  0  0  0  0  0  0  0  0
    4.2560   -2.1826    1.2796 H   0  0  0  0  0  0  0  0  0  0  0  0
    3.1069   -1.1783   -0.2755 C   0  0  0  0  0  0  0  0  0  0  0  0
    1.8466   -1.9004   -0.2602 C   0  0  0  0  0  0  0  0  0  0  0  0
    1.5006   -3.0672    0.4222 C   0  0  0  0  0  0  0  0  0  0  0  0
    2.2159   -3.5430    1.1094 H   0  0  0  0  0  0  0  0  0  0  0  0
    0.2300   -3.6573    0.1883 C   0  0  0  0  0  0  0  0  0  0  0  0
   -0.0404   -4.5812    0.7219 H   0  0  0  0  0  0  0  0  0  0  0  0
   -0.6574   -3.1308   -0.7512 C   0  0  0  0  0  0  0  0  0  0  0  0
   -1.5814   -3.6849   -0.9822 H   0  0  0  0  0  0  0  0  0  0  0  0
   -0.3756   -1.9298   -1.4949 C   0  0  0  0  0  3  0  0  0  0  0  0
   -0.8328   -1.7929   -2.4894 H   0  0  0  0  0  0  0  0  0  0  0  0
    0.8700   -1.2709   -1.1303 C   0  0  2  0  0  3  0  0  0  0  0  0
    4.2065    1.8283   -2.4332 C   0  0  0  0  0  0  0  0  0  0  0  0
    5.1557    2.3967   -2.4532 H   0  0  0  0  0  0  0  0  0  0  0  0
    3.3799    2.5396   -2.2178 H   0  0  0  0  0  0  0  0  0  0  0  0
    4.0199    1.4285   -3.4530 H   0  0  0  0  0  0  0  0  0  0  0  0
  1  2  1  0  0  0  0
  2 10  1  0  0  0  0
  3  2  2  0  0  0  0
  3  4  1  0  0  0  0
  4  6  2  0  0  0  0
  5  4  1  0  0  0  0
  6  8  1  0  0  0  0
  6  7  1  0  0  0  0
  8  9  1  0  0  0  0
 10 11  1  0  0  0  0
 10  8  2  0  0  0  0
 11 12  2  0  0  0  0
 12 13  1  0  0  0  0
 14 12  1  0  0  0  0
 14 15  1  0  0  0  0
 16 14  2  0  0  0  0
 17 16  1  0  0  0  0
 18 20  1  0  0  0  0
 18 16  1  0  0  0  0
 19 18  1  0  0  0  0
 20  1  1  6  0  0  0
 20 11  1  0  0  0  0
 21 23  1  0  0  0  0
 21  3  1  0  0  0  0
 22 21  1  0  0  0  0
 24 21  1  0  0  0  0
M  END
