1
q = nan, confidence = 0.0

 27 26  0  0  0  0  0  0  0  0999 V2000
   -0.9702   -0.2235   -1.3626 C   0  0  0  0  0  3  0  0  0  0  0  0
   -2.9782   -1.2362    0.6087 C   0  0  0  0  0  0  0  0  0  0  0  0
   -2.2167   -0.7579    1.8496 C   0  0  0  0  0  0  0  0  0  0  0  0
   -0.3657   -0.7911    1.6393 P   0  0  0  0  0  0  0  0  0  0  0  0
   -0.0260   -2.5875    1.4759 C   0  0  0  0  0  0  0  0  0  0  0  0
    0.2275   -0.4032    3.3328 C   0  0  0  0  0  0  0  0  0  0  0  0
   -2.7001   -0.2652   -0.9246 P   0  0  0  0  0  4  0  0  0  0  0  0
   -3.7118   -1.0806   -2.2030 C   0  0  0  0  0  0  0  0  0  0  0  0
   -3.4091    1.3885   -0.6723 C   0  0  0  0  0  0  0  0  0  0  0  0
   -0.6679   -1.2702   -1.5817 H   0  0  0  0  0  0  0  0  0  0  0  0
   -0.8720    0.3493   -2.3088 H   0  0  0  0  0  0  0  0  0  0  0  0
   -2.7147   -2.2859    0.3572 H   0  0  0  0  0  0  0  0  0  0  0  0
   -4.0743   -1.2264    0.7884 H   0  0  0  0  0  0  0  0  0  0  0  0
   -2.4996    0.2803    2.1209 H   0  0  0  0  0  0  0  0  0  0  0  0
   -2.4879   -1.4016    2.7135 H   0  0  0  0  0  0  0  0  0  0  0  0
   -0.3211   -2.9537    0.4745 H   0  0  0  0  0  0  0  0  0  0  0  0
   -4.7748   -1.1303   -1.8945 H   0  0  0  0  0  0  0  0  0  0  0  0
   -3.6317   -0.5115   -3.1499 H   0  0  0  0  0  0  0  0  0  0  0  0
    1.0637   -2.7531    1.5690 H   0  0  0  0  0  0  0  0  0  0  0  0
   -0.5668   -3.1468    2.2660 H   0  0  0  0  0  0  0  0  0  0  0  0
    1.3344   -0.4306    3.3333 H   0  0  0  0  0  0  0  0  0  0  0  0
   -0.1056    0.6098    3.6289 H   0  0  0  0  0  0  0  0  0  0  0  0
   -0.1565   -1.1439    4.0624 H   0  0  0  0  0  0  0  0  0  0  0  0
   -3.3293   -2.1059   -2.3739 H   0  0  0  0  0  0  0  0  0  0  0  0
   -3.2939    1.9823   -1.5999 H   0  0  0  0  0  0  0  0  0  0  0  0
   -2.8831    1.9001    0.1541 H   0  0  0  0  0  0  0  0  0  0  0  0
   -4.4864    1.3015   -0.4318 H   0  0  0  0  0  0  0  0  0  0  0  0
  1  7  1  0  0  0  0
  2 13  1  0  0  0  0
  2  3  1  0  0  0  0
  3 14  1  0  0  0  0
  3 15  1  0  0  0  0
  4  3  1  0  0  0  0
  4  6  1  0  0  0  0
  5 19  1  0  0  0  0
  5  4  1  0  0  0  0
  5 20  1  0  0  0  0
  6 21  1  0  0  0  0
  6 22  1  0  0  0  0
  6 23  1  0  0  0  0
  7  9  1  0  0  0  0
  7  2  1  0  0  0  0
  8 17  1  0  0  0  0
  8  7  1  0  0  0  0
  9 27  1  0  0  0  0
  9 26  1  0  0  0  0
 10  1  1  0  0  0  0
 11  1  1  0  0  0  0
 12  2  1  0  0  0  0
 16  5  1  0  0  0  0
 18  8  1  0  0  0  0
 24  8  1  0  0  0  0
 25  9  1  0  0  0  0
M  END
