1
q = -1.0

 21 22  0  0  1  0  0  0  0  0999 V2000
   -0.1859   -0.1031    0.2855 C   0  0  0  0  0  3  0  0  0  0  0  0
   -0.8963   -0.3584   -1.0618 C   0  0  1  0  0  0  0  0  0  0  0  0
   -1.0824   -1.8360   -1.3212 C   0  0  0  0  0  0  0  0  0  0  0  0
   -2.1242   -2.5121   -0.7985 C   0  0  0  0  0  0  0  0  0  0  0  0
   -3.1860   -1.8597    0.0488 C   0  0  0  0  0  0  0  0  0  0  0  0
   -3.3614   -0.3538   -0.2484 C   0  0  2  0  0  0  0  0  0  0  0  0
   -2.3068    0.3142   -1.1437 C   0  0  1  0  0  0  0  0  0  0  0  0
   -2.2497    1.7394   -0.6252 C   0  0  0  0  0  0  0  0  0  0  0  0
   -3.3895    0.5477    0.9768 C   0  0  0  0  0  0  0  0  0  0  0  0
   -2.8798    1.8054    0.6153 O   0  0  0  0  0  0  0  0  0  0  0  0
   -1.7081    2.7026   -1.1075 O   0  0  0  0  0  0  0  0  0  0  0  0
   -3.7805    0.3245    2.0891 O   0  0  0  0  0  0  0  0  0  0  0  0
   -0.4114    0.9055    0.6838 H   0  0  0  0  0  0  0  0  0  0  0  0
   -0.5440   -0.8346    1.0369 H   0  0  0  0  0  0  0  0  0  0  0  0
   -0.3038    0.0896   -1.8841 H   0  0  0  0  0  0  0  0  0  0  0  0
   -0.3258   -2.3685   -1.9168 H   0  0  0  0  0  0  0  0  0  0  0  0
   -2.2110   -3.5985   -0.9637 H   0  0  0  0  0  0  0  0  0  0  0  0
   -2.9391   -1.9837    1.1274 H   0  0  0  0  0  0  0  0  0  0  0  0
   -4.1516   -2.3876   -0.0809 H   0  0  0  0  0  0  0  0  0  0  0  0
   -4.3560   -0.1956   -0.7214 H   0  0  0  0  0  0  0  0  0  0  0  0
   -2.6049    0.3338   -2.2098 H   0  0  0  0  0  0  0  0  0  0  0  0
  1 13  1  0  0  0  0
  1 14  1  0  0  0  0
  2 15  1  6  0  0  0
  2  1  1  0  0  0  0
  3  2  1  0  0  0  0
  3  4  2  0  0  0  0
  4  5  1  0  0  0  0
  5 18  1  0  0  0  0
  6 20  1  6  0  0  0
  6  5  1  0  0  0  0
  6  9  1  0  0  0  0
  7 21  1  6  0  0  0
  7  2  1  0  0  0  0
  7  8  1  0  0  0  0
  7  6  1  0  0  0  0
  8 10  1  0  0  0  0
  9 12  2  0  0  0  0
 10  9  1  0  0  0  0
 11  8  2  0  0  0  0
 16  3  1  0  0  0  0
 17  4  1  0  0  0  0
 19  5  1  0  0  0  0
M  END
