1
q = -1.0

 24 25  0  0  1  0  0  0  0  0999 V2000
    0.5784    0.8668   -0.4620 C   0  0  0  0  0  3  0  0  0  0  0  0
   -0.6409   -0.0443   -0.3403 C   0  0  1  0  0  0  0  0  0  0  0  0
   -1.0216   -0.5078    1.0454 C   0  0  0  0  0  0  0  0  0  0  0  0
   -2.1130   -1.2921    1.1774 C   0  0  0  0  0  0  0  0  0  0  0  0
   -2.8883   -1.6651   -0.0635 C   0  0  2  0  0  0  0  0  0  0  0  0
   -3.1700   -0.3572   -0.8796 C   0  0  2  0  0  0  0  0  0  0  0  0
   -1.9376    0.5667   -0.9884 C   0  0  1  0  0  0  0  0  0  0  0  0
   -2.3700    1.8590   -0.3012 C   0  0  0  0  0  0  0  0  0  0  0  0
   -4.2353    0.5106   -0.2147 C   0  0  0  0  0  0  0  0  0  0  0  0
   -4.1248   -2.5248    0.1997 C   0  0  0  0  0  0  0  0  0  0  0  0
   -3.6965    1.7483    0.1175 O   0  0  0  0  0  0  0  0  0  0  0  0
   -1.7462    2.8685   -0.1097 O   0  0  0  0  0  0  0  0  0  0  0  0
   -5.3845    0.2472    0.0254 O   0  0  0  0  0  0  0  0  0  0  0  0
    0.6952    1.1840   -1.5191 H   0  0  0  0  0  0  0  0  0  0  0  0
    0.4155    1.7889    0.1259 H   0  0  0  0  0  0  0  0  0  0  0  0
   -0.4700   -0.9587   -0.9551 H   0  0  0  0  0  0  0  0  0  0  0  0
   -0.4429   -0.1757    1.9190 H   0  0  0  0  0  0  0  0  0  0  0  0
   -2.4626   -1.6428    2.1620 H   0  0  0  0  0  0  0  0  0  0  0  0
   -2.2030   -2.2480   -0.7252 H   0  0  0  0  0  0  0  0  0  0  0  0
   -3.5667   -0.6496   -1.8739 H   0  0  0  0  0  0  0  0  0  0  0  0
   -1.7074    0.8247   -2.0433 H   0  0  0  0  0  0  0  0  0  0  0  0
   -4.6553   -2.7723   -0.7412 H   0  0  0  0  0  0  0  0  0  0  0  0
   -4.8479   -2.0088    0.8592 H   0  0  0  0  0  0  0  0  0  0  0  0
   -3.8253   -3.4754    0.6848 H   0  0  0  0  0  0  0  0  0  0  0  0
  1  2  1  0  0  0  0
  1 15  1  0  0  0  0
  2 16  1  6  0  0  0
  2  3  1  0  0  0  0
  3  4  2  0  0  0  0
  3 17  1  0  0  0  0
  4 18  1  0  0  0  0
  5 19  1  6  0  0  0
  5 10  1  0  0  0  0
  5  4  1  0  0  0  0
  6 20  1  6  0  0  0
  6  9  1  0  0  0  0
  6  5  1  0  0  0  0
  7 21  1  6  0  0  0
  7  6  1  0  0  0  0
  7  2  1  0  0  0  0
  7  8  1  0  0  0  0
  8 12  2  0  0  0  0
  8 11  1  0  0  0  0
  9 13  2  0  0  0  0
  9 11  1  0  0  0  0
 10 24  1  0  0  0  0
 10 23  1  0  0  0  0
 14  1  1  0  0  0  0
 22 10  1  0  0  0  0
M  END
