1
q = -1.0

 26 27  0  0  0  0  0  0  0  0999 V2000
    0.3073   -0.1615    0.0994 C   0  0  0  0  0  3  0  0  0  0  0  0
    0.5246    0.9279   -0.7737 O   0  0  0  0  0  0  0  0  0  0  0  0
    1.1478   -1.2010   -0.3346 O   0  0  0  0  0  0  0  0  0  0  0  0
    0.3737    2.2184   -0.3504 C   0  0  0  0  0  0  0  0  0  0  0  0
    0.6517    3.2072   -1.3183 C   0  0  0  0  0  0  0  0  0  0  0  0
    0.5260    4.5601   -0.9926 C   0  0  0  0  0  0  0  0  0  0  0  0
    0.1189    4.9500    0.2969 C   0  0  0  0  0  0  0  0  0  0  0  0
   -0.1587    3.9653    1.2533 C   0  0  0  0  0  0  0  0  0  0  0  0
   -0.0376    2.5990    0.9438 C   0  0  0  0  0  0  0  0  0  0  0  0
    2.5048   -1.1132   -0.0934 C   0  0  0  0  0  0  0  0  0  0  0  0
    3.2495   -2.2577   -0.4372 C   0  0  0  0  0  0  0  0  0  0  0  0
    4.6312   -2.2822   -0.2187 C   0  0  0  0  0  0  0  0  0  0  0  0
    5.2827   -1.1704    0.3433 C   0  0  0  0  0  0  0  0  0  0  0  0
    4.5338   -0.0339    0.6790 C   0  0  0  0  0  0  0  0  0  0  0  0
    3.1462    0.0101    0.4622 C   0  0  0  0  0  0  0  0  0  0  0  0
    0.5837    0.1289    1.1366 H   0  0  0  0  0  0  0  0  0  0  0  0
    0.9682    2.8796   -2.3190 H   0  0  0  0  0  0  0  0  0  0  0  0
    0.7478    5.3217   -1.7555 H   0  0  0  0  0  0  0  0  0  0  0  0
    0.0173    6.0154    0.5500 H   0  0  0  0  0  0  0  0  0  0  0  0
   -0.4828    4.2540    2.2648 H   0  0  0  0  0  0  0  0  0  0  0  0
   -0.2730    1.8551    1.7149 H   0  0  0  0  0  0  0  0  0  0  0  0
    2.7173   -3.1170   -0.8703 H   0  0  0  0  0  0  0  0  0  0  0  0
    5.2052   -3.1818   -0.4887 H   0  0  0  0  0  0  0  0  0  0  0  0
    6.3691   -1.1901    0.5139 H   0  0  0  0  0  0  0  0  0  0  0  0
    5.0324    0.8471    1.1115 H   0  0  0  0  0  0  0  0  0  0  0  0
    2.5891    0.9216    0.7153 H   0  0  0  0  0  0  0  0  0  0  0  0
  1 16  1  0  0  0  0
  2  4  1  0  0  0  0
  2  1  1  0  0  0  0
  3 10  1  0  0  0  0
  3  1  1  0  0  0  0
  4  9  1  0  0  0  0
  5  6  1  0  0  0  0
  5  4  2  0  0  0  0
  6  7  2  0  0  0  0
  7 19  1  0  0  0  0
  7  8  1  0  0  0  0
  8 20  1  0  0  0  0
  9  8  2  0  0  0  0
  9 21  1  0  0  0  0
 10 15  1  0  0  0  0
 11 12  1  0  0  0  0
 11 10  2  0  0  0  0
 12 13  2  0  0  0  0
 13 24  1  0  0  0  0
 13 14  1  0  0  0  0
 14 25  1  0  0  0  0
 15 14  2  0  0  0  0
 15 26  1  0  0  0  0
 17  5  1  0  0  0  0
 18  6  1  0  0  0  0
 22 11  1  0  0  0  0
 23 12  1  0  0  0  0
M  END
