21
q = 0.0, confidence = 0.998

 50 53  0  0  1  0  0  0  0  0999 V2000
   -0.1404    0.6580   -0.1940 P   0  0  0  0  0  0  0  0  0  0  0  0
   -1.2193   -0.3802   -1.1347 N   0  0  0  0  0  0  0  0  0  0  0  0
   -1.3409    3.9791   -2.3449 C   0  0  0  0  0  0  0  0  0  0  0  0
   -0.4240   -0.6577   -2.3689 C   0  0  0  0  0  0  0  0  0  0  0  0
   -1.3420    2.7221   -1.7231 C   0  0  0  0  0  0  0  0  0  0  0  0
   -0.1966    4.7933   -2.2898 C   0  0  0  0  0  0  0  0  0  0  0  0
   -1.0174    1.6073    3.6954 C   0  0  0  0  0  0  0  0  0  0  0  0
    0.7787   -3.4898   -0.1621 C   0  0  0  0  0  0  0  0  0  0  0  0
    0.3238   -2.1460   -0.6602 C   0  0  2  0  0  3  0  0  0  0  0  0
   -3.1519    1.2187    2.5900 C   0  0  0  0  0  0  0  0  0  0  0  0
   -4.1451   -2.3347    0.8008 C   0  0  0  0  0  0  0  0  0  0  0  0
   -1.1189   -1.6748   -0.3846 C   0  0  2  0  0  0  0  0  0  0  0  0
   -2.2309   -2.6537   -0.8281 C   0  0  0  0  0  0  0  0  0  0  0  0
   -2.4866    0.9447    1.3859 C   0  0  0  0  0  0  0  0  0  0  0  0
    0.9662    3.0848   -1.0065 C   0  0  0  0  0  0  0  0  0  0  0  0
   -3.5882   -2.0988   -0.4719 C   0  0  0  0  0  0  0  0  0  0  0  0
   -1.0782    0.9921    1.3440 C   0  0  0  0  0  0  0  0  0  0  0  0
   -2.4209    1.5551    3.7416 C   0  0  0  0  0  0  0  0  0  0  0  0
   -4.2712   -1.2353   -1.3524 C   0  0  0  0  0  0  0  0  0  0  0  0
   -5.4733   -0.6218   -0.9699 C   0  0  0  0  0  0  0  0  0  0  0  0
    0.7513   -1.4900   -1.8608 C   0  0  0  0  0  3  0  0  0  0  0  0
   -6.0140   -0.8601    0.3049 C   0  0  0  0  0  0  0  0  0  0  0  0
   -0.1842    2.2735   -1.0564 C   0  0  0  0  0  0  0  0  0  0  0  0
    0.9536    4.3476   -1.6180 C   0  0  0  0  0  0  0  0  0  0  0  0
   -5.3470   -1.7229    1.1888 C   0  0  0  0  0  0  0  0  0  0  0  0
   -0.3416    1.3170    2.5009 C   0  0  0  0  0  0  0  0  0  0  0  0
   -1.2796   -1.4812    0.6973 H   0  0  0  0  0  0  0  0  0  0  0  0
    1.4910   -1.9201   -2.5557 H   0  0  0  0  0  0  0  0  0  0  0  0
   -1.0536   -1.2389   -3.0809 H   0  0  0  0  0  0  0  0  0  0  0  0
   -0.1454    0.2893   -2.8727 H   0  0  0  0  0  0  0  0  0  0  0  0
    1.8428   -3.6597   -0.4077 H   0  0  0  0  0  0  0  0  0  0  0  0
    0.1801   -4.3085   -0.6215 H   0  0  0  0  0  0  0  0  0  0  0  0
    0.6597   -3.5685    0.9387 H   0  0  0  0  0  0  0  0  0  0  0  0
   -2.0645   -3.6195   -0.3097 H   0  0  0  0  0  0  0  0  0  0  0  0
   -2.1529   -2.8521   -1.9166 H   0  0  0  0  0  0  0  0  0  0  0  0
   -3.6197   -3.0009    1.5041 H   0  0  0  0  0  0  0  0  0  0  0  0
   -5.7635   -1.9198    2.1886 H   0  0  0  0  0  0  0  0  0  0  0  0
   -6.9565   -0.3778    0.6059 H   0  0  0  0  0  0  0  0  0  0  0  0
   -5.9917    0.0504   -1.6709 H   0  0  0  0  0  0  0  0  0  0  0  0
   -3.8402   -1.0306   -2.3439 H   0  0  0  0  0  0  0  0  0  0  0  0
   -2.2322    2.0751   -1.7584 H   0  0  0  0  0  0  0  0  0  0  0  0
   -2.2403    4.3286   -2.8749 H   0  0  0  0  0  0  0  0  0  0  0  0
   -0.2015    5.7807   -2.7764 H   0  0  0  0  0  0  0  0  0  0  0  0
    1.8502    4.9849   -1.5774 H   0  0  0  0  0  0  0  0  0  0  0  0
    1.8625    2.7122   -0.4843 H   0  0  0  0  0  0  0  0  0  0  0  0
   -3.0555    0.6690    0.4850 H   0  0  0  0  0  0  0  0  0  0  0  0
   -4.2505    1.1609    2.6247 H   0  0  0  0  0  0  0  0  0  0  0  0
   -2.9479    1.7719    4.6835 H   0  0  0  0  0  0  0  0  0  0  0  0
   -0.4450    1.8650    4.5996 H   0  0  0  0  0  0  0  0  0  0  0  0
    0.7596    1.3316    2.4510 H   0  0  0  0  0  0  0  0  0  0  0  0
  1 17  1  0  0  0  0
  2 12  1  0  0  0  0
  2  1  1  0  0  0  0
  3  6  2  0  0  0  0
  3  5  1  0  0  0  0
  4 21  1  0  0  0  0
  4  2  1  0  0  0  0
  5 23  2  0  0  0  0
  6 24  1  0  0  0  0
  7 18  1  0  0  0  0
  7 49  1  0  0  0  0
  8 33  1  0  0  0  0
  9 12  1  0  0  0  0
  9  8  1  6  0  0  0
 10 47  1  0  0  0  0
 10 18  2  0  0  0  0
 11 25  1  0  0  0  0
 11 36  1  0  0  0  0
 12 27  1  1  0  0  0
 13 16  1  0  0  0  0
 13 12  1  0  0  0  0
 13 34  1  0  0  0  0
 14 10  1  0  0  0  0
 15 45  1  0  0  0  0
 16 11  2  0  0  0  0
 17 14  2  0  0  0  0
 17 26  1  0  0  0  0
 18 48  1  0  0  0  0
 19 20  2  0  0  0  0
 19 16  1  0  0  0  0
 20 22  1  0  0  0  0
 21  9  1  0  0  0  0
 22 38  1  0  0  0  0
 22 25  2  0  0  0  0
 23 15  1  0  0  0  0
 23  1  1  0  0  0  0
 24 44  1  0  0  0  0
 24 15  2  0  0  0  0
 25 37  1  0  0  0  0
 26  7  2  0  0  0  0
 28 21  1  0  0  0  0
 29  4  1  0  0  0  0
 30  4  1  0  0  0  0
 31  8  1  0  0  0  0
 32  8  1  0  0  0  0
 35 13  1  0  0  0  0
 39 20  1  0  0  0  0
 40 19  1  0  0  0  0
 41  5  1  0  0  0  0
 42  3  1  0  0  0  0
 43  6  1  0  0  0  0
 46 14  1  0  0  0  0
 50 26  1  0  0  0  0
M  END
