3
q = 0.0, confidence = 0.998

 34 36  0  0  1  0  0  0  0  0999 V2000
   -2.8516   -0.0488   -1.7503 C   0  0  0  0  0  0  0  0  0  0  0  0
   -3.0005   -0.7237   -2.7406 O   0  0  0  0  0  0  0  0  0  0  0  0
   -1.5822    0.3579   -1.0619 C   0  0  1  0  0  3  0  0  0  0  0  0
   -1.9038    1.1567    0.0800 C   0  0  0  0  0  3  0  0  0  0  0  0
   -3.4108    1.3198    0.0405 C   0  0  0  0  0  0  0  0  0  0  0  0
   -3.8907    0.5071   -1.0454 O   0  0  0  0  0  0  0  0  0  0  0  0
   -0.3024   -0.2113   -1.3015 C   0  0  0  0  0  3  0  0  0  0  0  0
    0.7877    0.1599   -0.4291 C   0  0  0  0  0  3  0  0  0  0  0  0
    2.0296   -0.6924   -0.4974 C   0  0  0  0  0  0  0  0  0  0  0  0
    2.6447   -0.8942   -1.7516 C   0  0  0  0  0  0  0  0  0  0  0  0
    3.8256   -1.6425   -1.8617 C   0  0  0  0  0  0  0  0  0  0  0  0
    4.4189   -2.1954   -0.7166 C   0  0  0  0  0  0  0  0  0  0  0  0
    3.8199   -1.9970    0.5367 C   0  0  0  0  0  0  0  0  0  0  0  0
    2.6359   -1.2536    0.6452 C   0  0  0  0  0  0  0  0  0  0  0  0
    1.0793    1.6033   -0.1299 C   0  0  0  0  0  0  0  0  0  0  0  0
    0.6989    2.6130   -1.0441 C   0  0  0  0  0  0  0  0  0  0  0  0
    1.0130    3.9596   -0.8062 C   0  0  0  0  0  0  0  0  0  0  0  0
    1.7240    4.3263    0.3455 C   0  0  0  0  0  0  0  0  0  0  0  0
    2.1277    3.3309    1.2517 C   0  0  0  0  0  0  0  0  0  0  0  0
    1.8161    1.9872    1.0135 C   0  0  0  0  0  0  0  0  0  0  0  0
   -1.2848    1.9769    0.4642 H   0  0  0  0  0  0  0  0  0  0  0  0
   -3.6882    2.3777   -0.1636 H   0  0  0  0  0  0  0  0  0  0  0  0
   -3.9351    1.0046    0.9666 H   0  0  0  0  0  0  0  0  0  0  0  0
   -0.2093   -0.9891   -2.0754 H   0  0  0  0  0  0  0  0  0  0  0  0
    2.1945   -0.4471   -2.6515 H   0  0  0  0  0  0  0  0  0  0  0  0
    4.2861   -1.7911   -2.8502 H   0  0  0  0  0  0  0  0  0  0  0  0
    5.3449   -2.7837   -0.8013 H   0  0  0  0  0  0  0  0  0  0  0  0
    4.2708   -2.4345    1.4402 H   0  0  0  0  0  0  0  0  0  0  0  0
    2.1606   -1.1273    1.6289 H   0  0  0  0  0  0  0  0  0  0  0  0
    0.1596    2.3337   -1.9610 H   0  0  0  0  0  0  0  0  0  0  0  0
    0.7057    4.7255   -1.5346 H   0  0  0  0  0  0  0  0  0  0  0  0
    1.9720    5.3817    0.5332 H   0  0  0  0  0  0  0  0  0  0  0  0
    2.6938    3.6040    2.1550 H   0  0  0  0  0  0  0  0  0  0  0  0
    2.1437    1.2231    1.7312 H   0  0  0  0  0  0  0  0  0  0  0  0
  1  3  1  0  0  0  0
  1  6  1  0  0  0  0
  2  1  2  0  0  0  0
  3  7  1  1  0  0  0
  3  4  1  0  0  0  0
  4 21  1  0  0  0  0
  5  4  1  0  0  0  0
  5 23  1  0  0  0  0
  6  5  1  0  0  0  0
  7  8  1  0  0  0  0
  8 15  1  0  0  0  0
  9  8  1  0  0  0  0
  9 14  1  0  0  0  0
 10  9  2  0  0  0  0
 11 10  1  0  0  0  0
 11 12  2  0  0  0  0
 12 13  1  0  0  0  0
 13 14  2  0  0  0  0
 13 28  1  0  0  0  0
 14 29  1  0  0  0  0
 15 20  1  0  0  0  0
 16 17  1  0  0  0  0
 16 15  2  0  0  0  0
 17 18  2  0  0  0  0
 18 32  1  0  0  0  0
 18 19  1  0  0  0  0
 19 33  1  0  0  0  0
 20 19  2  0  0  0  0
 20 34  1  0  0  0  0
 22  5  1  0  0  0  0
 24  7  1  0  0  0  0
 25 10  1  0  0  0  0
 26 11  1  0  0  0  0
 27 12  1  0  0  0  0
 30 16  1  0  0  0  0
 31 17  1  0  0  0  0
M  END
