3
q = -1.0

 12 12  0  0  0  0  0  0  0  0999 V2000
    3.2414   -0.1727   -0.0000 C   0  0  0  0  0  0  0  0  0  0  0  0
    4.6637   -0.1970   -0.0000 C   0  0  0  0  0  0  0  0  0  0  0  0
    1.9990   -0.0947   -0.0000 C   0  0  0  0  0  3  0  0  0  0  0  0
    5.4103   -1.4033   -0.0012 C   0  0  0  0  0  0  0  0  0  0  0  0
    4.8799   -2.3678   -0.0022 H   0  0  0  0  0  0  0  0  0  0  0  0
    5.4193    1.0118    0.0012 C   0  0  0  0  0  0  0  0  0  0  0  0
    4.8753    1.9740    0.0022 H   0  0  0  0  0  0  0  0  0  0  0  0
    7.4344   -0.0889    0.0001 C   0  0  0  0  0  0  0  0  0  0  0  0
    8.5367   -0.0142    0.0002 H   0  0  0  0  0  0  0  0  0  0  0  0
    6.7535    1.0704    0.0013 N   0  0  0  0  0  0  0  0  0  0  0  0
    6.8073   -1.3463   -0.0011 C   0  0  0  0  0  0  0  0  0  0  0  0
    7.4098   -2.2675   -0.0021 H   0  0  0  0  0  0  0  0  0  0  0  0
  1  2  1  0  0  0  0
  1  3  3  0  0  0  0
  2  6  1  0  0  0  0
  4 11  1  0  0  0  0
  4  2  2  0  0  0  0
  5  4  1  0  0  0  0
  6 10  2  0  0  0  0
  6  7  1  0  0  0  0
  8  9  1  0  0  0  0
  8 10  1  0  0  0  0
 11  8  2  0  0  0  0
 12 11  1  0  0  0  0
M  END
