1
q = 0.0, confidence = 0.982

 19 19  0  0  0  0  0  0  0  0999 V2000
   -1.5746    0.5902    0.0575 C   0  0  0  0  0  3  0  0  0  0  0  0
   -2.3796   -0.5144   -0.3687 C   0  0  0  0  0  3  0  0  0  0  0  0
   -3.5326   -1.0302    0.4823 C   0  0  0  0  0  0  0  0  0  0  0  0
   -4.7424   -0.1371    0.2782 C   0  0  0  0  0  0  0  0  0  0  0  0
   -4.9619    0.9801    1.1082 C   0  0  0  0  0  0  0  0  0  0  0  0
   -6.0522    1.8338    0.8858 C   0  0  0  0  0  0  0  0  0  0  0  0
   -6.9361    1.5838   -0.1759 C   0  0  0  0  0  0  0  0  0  0  0  0
   -6.7262    0.4745   -1.0101 C   0  0  0  0  0  0  0  0  0  0  0  0
   -5.6359   -0.3784   -0.7844 C   0  0  0  0  0  0  0  0  0  0  0  0
   -1.7129    0.9519    1.0922 H   0  0  0  0  0  0  0  0  0  0  0  0
   -1.3160    1.3917   -0.6498 H   0  0  0  0  0  0  0  0  0  0  0  0
   -2.5969   -0.5720   -1.4499 H   0  0  0  0  0  0  0  0  0  0  0  0
   -3.2506   -1.0360    1.5555 H   0  0  0  0  0  0  0  0  0  0  0  0
   -3.7935   -2.0688    0.1946 H   0  0  0  0  0  0  0  0  0  0  0  0
   -4.2771    1.1771    1.9489 H   0  0  0  0  0  0  0  0  0  0  0  0
   -6.2172    2.6961    1.5492 H   0  0  0  0  0  0  0  0  0  0  0  0
   -7.7938    2.2507   -0.3490 H   0  0  0  0  0  0  0  0  0  0  0  0
   -7.4201    0.2684   -1.8389 H   0  0  0  0  0  0  0  0  0  0  0  0
   -5.4805   -1.2517   -1.4386 H   0  0  0  0  0  0  0  0  0  0  0  0
  1 10  1  0  0  0  0
  2  1  1  0  0  0  0
  2  3  1  0  0  0  0
  3 13  1  0  0  0  0
  4  3  1  0  0  0  0
  4  5  1  0  0  0  0
  5 15  1  0  0  0  0
  6  5  2  0  0  0  0
  6 16  1  0  0  0  0
  7  6  1  0  0  0  0
  8  9  1  0  0  0  0
  8  7  2  0  0  0  0
  9  4  2  0  0  0  0
 11  1  1  0  0  0  0
 12  2  1  0  0  0  0
 14  3  1  0  0  0  0
 17  7  1  0  0  0  0
 18  8  1  0  0  0  0
 19  9  1  0  0  0  0
M  END
