1
q = -1.0

 13 12  0  0  0  0  0  0  0  0999 V2000
    2.9874   -0.2017   -0.0520 C   0  0  0  0  0  1  0  0  0  0  0  0
    4.2020    0.0271    0.0051 C   0  0  0  0  0  2  0  0  0  0  0  0
    6.2867   -0.5746    0.9142 O   0  0  0  0  0  0  0  0  0  0  0  0
    7.2323   -0.3319    0.9007 H   0  0  0  0  0  0  0  0  0  0  0  0
    5.6377    0.3538    0.0241 C   0  0  0  0  0  0  0  0  0  0  0  0
    6.2263    0.2006   -1.3953 C   0  0  0  0  0  0  0  0  0  0  0  0
    6.1048   -0.8450   -1.7364 H   0  0  0  0  0  0  0  0  0  0  0  0
    7.3095    0.4511   -1.3888 H   0  0  0  0  0  0  0  0  0  0  0  0
    5.7203    0.8713   -2.1173 H   0  0  0  0  0  0  0  0  0  0  0  0
    5.8400    1.7925    0.5470 C   0  0  0  0  0  0  0  0  0  0  0  0
    5.3171    2.5318   -0.0911 H   0  0  0  0  0  0  0  0  0  0  0  0
    6.9223    2.0466    0.5578 H   0  0  0  0  0  0  0  0  0  0  0  0
    5.4458    1.8711    1.5780 H   0  0  0  0  0  0  0  0  0  0  0  0
  1  2  1  0  0  0  0
  2  5  1  0  0  0  0
  4  3  1  0  0  0  0
  5 10  1  0  0  0  0
  5  3  1  0  0  0  0
  6  8  1  0  0  0  0
  6  5  1  0  0  0  0
  7  6  1  0  0  0  0
  9  6  1  0  0  0  0
 10 12  1  0  0  0  0
 10 13  1  0  0  0  0
 11 10  1  0  0  0  0
M  END
