6
q = -1

 35 34  0  0  0  0  0  0  0  0999 V2000
    2.6739   -1.5531   -0.9725 P   0  0  2  0  0  0  0  0  0  0  0  0
    2.9286   -1.4164   -2.4720 O   0  0  0  0  0  0  0  0  0  0  0  0
    3.1315   -2.7338   -0.1250 O   0  0  0  0  0  1  0  0  0  0  0  0
    2.8824    1.2673   -0.5888 N   0  0  0  0  0  0  0  0  0  0  0  0
    4.5411    0.0814    0.5330 N   0  0  0  0  0  0  0  0  0  0  0  0
    0.9360   -1.2530   -0.5712 C   0  0  0  0  0  1  0  0  0  0  0  0
    3.4392    0.0753   -0.2489 C   0  0  0  0  0  3  0  0  0  0  0  0
    2.1815    1.4556   -1.8724 C   0  0  0  0  0  0  0  0  0  0  0  0
    1.0973    1.5825   -1.6880 H   0  0  0  0  0  0  0  0  0  0  0  0
    2.3244    0.5215   -2.4477 H   0  0  0  0  0  0  0  0  0  0  0  0
    2.7492    2.6323   -2.6635 C   0  0  0  0  0  0  0  0  0  0  0  0
    2.6303    3.6075   -2.1484 H   0  0  0  0  0  0  0  0  0  0  0  0
    2.2136    2.7048   -3.6309 H   0  0  0  0  0  0  0  0  0  0  0  0
    3.8258    2.4840   -2.8856 H   0  0  0  0  0  0  0  0  0  0  0  0
    2.8024    2.3843    0.3764 C   0  0  0  0  0  0  0  0  0  0  0  0
    3.5250    3.1917    0.1237 H   0  0  0  0  0  0  0  0  0  0  0  0
    3.1044    1.9772    1.3601 H   0  0  0  0  0  0  0  0  0  0  0  0
    1.3895    2.9580    0.4819 C   0  0  0  0  0  0  0  0  0  0  0  0
    1.0980    3.5382   -0.4143 H   0  0  0  0  0  0  0  0  0  0  0  0
    1.3432    3.6377    1.3548 H   0  0  0  0  0  0  0  0  0  0  0  0
    0.6469    2.1535    0.6342 H   0  0  0  0  0  0  0  0  0  0  0  0
    5.4797    1.2250    0.5127 C   0  0  0  0  0  0  0  0  0  0  0  0
    5.3888    1.8275    1.4420 H   0  0  0  0  0  0  0  0  0  0  0  0
    5.1668    1.8740   -0.3248 H   0  0  0  0  0  0  0  0  0  0  0  0
    6.9309    0.8005    0.2951 C   0  0  0  0  0  0  0  0  0  0  0  0
    7.3570    0.2553    1.1588 H   0  0  0  0  0  0  0  0  0  0  0  0
    7.5462    1.7089    0.1409 H   0  0  0  0  0  0  0  0  0  0  0  0
    7.0295    0.1634   -0.6061 H   0  0  0  0  0  0  0  0  0  0  0  0
    4.9355   -1.0748    1.3648 C   0  0  0  0  0  0  0  0  0  0  0  0
    5.9012   -1.4690    0.9890 H   0  0  0  0  0  0  0  0  0  0  0  0
    4.1909   -1.8755    1.1793 H   0  0  0  0  0  0  0  0  0  0  0  0
    5.0369   -0.7060    2.8425 C   0  0  0  0  0  0  0  0  0  0  0  0
    5.8278    0.0424    3.0569 H   0  0  0  0  0  0  0  0  0  0  0  0
    5.2754   -1.6155    3.4285 H   0  0  0  0  0  0  0  0  0  0  0  0
    4.0735   -0.3086    3.2198 H   0  0  0  0  0  0  0  0  0  0  0  0
  1  6  1  1  0  0  0
  1  7  1  0  0  0  0
  1  3  1  0  0  0  0
  2  1  2  0  0  0  0
  4  7  1  0  0  0  0
  4 15  1  0  0  0  0
  5 29  1  0  0  0  0
  7  5  1  0  0  0  0
  8  9  1  0  0  0  0
  8  4  1  0  0  0  0
 10  8  1  0  0  0  0
 11 12  1  0  0  0  0
 11  8  1  0  0  0  0
 13 11  1  0  0  0  0
 14 11  1  0  0  0  0
 15 18  1  0  0  0  0
 15 17  1  0  0  0  0
 16 15  1  0  0  0  0
 18 21  1  0  0  0  0
 18 20  1  0  0  0  0
 19 18  1  0  0  0  0
 22  5  1  0  0  0  0
 22 23  1  0  0  0  0
 24 22  1  0  0  0  0
 25 22  1  0  0  0  0
 25 26  1  0  0  0  0
 27 25  1  0  0  0  0
 28 25  1  0  0  0  0
 29 32  1  0  0  0  0
 30 29  1  0  0  0  0
 31 29  1  0  0  0  0
 32 33  1  0  0  0  0
 32 35  1  0  0  0  0
 32 34  1  0  0  0  0
M  END
