5
q = 0.0, confidence = 0.978

 16 16  0  0  0  0  0  0  0  0999 V2000
   -4.0160    0.1158   -0.0990 O   0  0  0  0  0  0  0  0  0  0  0  0
   -3.2173   -0.8174   -0.6995 C   0  0  0  0  0  0  0  0  0  0  0  0
   -2.7244   -0.7153   -2.0366 C   0  0  0  0  0  3  0  0  0  0  0  0
   -2.9719    0.1493   -2.6668 H   0  0  0  0  0  0  0  0  0  0  0  0
   -1.8897   -1.7504   -2.5595 C   0  0  0  0  0  3  0  0  0  0  0  0
   -1.5031   -1.6611   -3.5857 H   0  0  0  0  0  0  0  0  0  0  0  0
   -1.5581   -2.8858   -1.7692 C   0  0  0  0  0  0  0  0  0  0  0  0
   -0.9131   -3.6771   -2.1774 H   0  0  0  0  0  0  0  0  0  0  0  0
   -2.0362   -2.9672   -0.4294 C   0  0  0  0  0  0  0  0  0  0  0  0
   -1.7570   -3.8231    0.2029 H   0  0  0  0  0  0  0  0  0  0  0  0
   -2.8667   -1.9433    0.1058 C   0  0  0  0  0  0  0  0  0  0  0  0
   -3.2469   -1.9888    1.1364 H   0  0  0  0  0  0  0  0  0  0  0  0
   -4.1362    1.3770   -0.7308 C   0  0  0  0  0  0  0  0  0  0  0  0
   -3.1359    1.8293   -0.9171 H   0  0  0  0  0  0  0  0  0  0  0  0
   -4.7062    2.0237   -0.0380 H   0  0  0  0  0  0  0  0  0  0  0  0
   -4.6889    1.3115   -1.6948 H   0  0  0  0  0  0  0  0  0  0  0  0
  2  1  1  0  0  0  0
  2 11  2  0  0  0  0
  3  2  1  0  0  0  0
  4  3  1  0  0  0  0
  5  3  1  0  0  0  0
  5  7  1  0  0  0  0
  6  5  1  0  0  0  0
  7  9  2  0  0  0  0
  8  7  1  0  0  0  0
  9 11  1  0  0  0  0
  9 10  1  0  0  0  0
 11 12  1  0  0  0  0
 13  1  1  0  0  0  0
 13 15  1  0  0  0  0
 14 13  1  0  0  0  0
 16 13  1  0  0  0  0
M  END
