2
q = -1.0

 18 19  0  0  1  0  0  0  0  0999 V2000
    1.0149    2.4969   -1.0889 C   0  0  0  0  0  0  0  0  0  0  0  0
    2.0110    1.3999   -0.7773 C   0  0  0  0  0  3  0  0  0  0  0  0
    2.8977    2.0085    0.3188 C   0  0  1  0  0  0  0  0  0  0  0  0
    3.7741    3.0871   -0.3794 C   0  0  0  0  0  0  0  0  0  0  0  0
    2.7475    4.2095   -0.7220 C   0  0  0  0  0  0  0  0  0  0  0  0
    1.4132    3.6570   -0.1533 C   0  0  2  0  0  0  0  0  0  0  0  0
    1.8988    2.8935    1.0944 C   0  0  0  0  0  0  0  0  0  0  0  0
   -0.1234    2.2007   -0.7774 H   0  0  0  0  0  0  0  0  0  0  0  0
    0.8673    2.7444   -2.1577 H   0  0  0  0  0  0  0  0  0  0  0  0
    2.5475    0.9563   -1.6340 H   0  0  0  0  0  0  0  0  0  0  0  0
    3.4783    1.2812    0.9154 H   0  0  0  0  0  0  0  0  0  0  0  0
    4.2939    2.6857   -1.2714 H   0  0  0  0  0  0  0  0  0  0  0  0
    4.5549    3.4538    0.3167 H   0  0  0  0  0  0  0  0  0  0  0  0
    3.0020    5.1622   -0.2179 H   0  0  0  0  0  0  0  0  0  0  0  0
    2.6800    4.4262   -1.8064 H   0  0  0  0  0  0  0  0  0  0  0  0
    0.6254    4.4187   -0.0016 H   0  0  0  0  0  0  0  0  0  0  0  0
    1.0927    2.3125    1.5919 H   0  0  0  0  0  0  0  0  0  0  0  0
    2.3822    3.5533    1.8414 H   0  0  0  0  0  0  0  0  0  0  0  0
  1  8  1  0  0  0  0
  1  2  1  0  0  0  0
  1  6  1  0  0  0  0
  2  3  1  0  0  0  0
  3 11  1  1  0  0  0
  3  7  1  0  0  0  0
  4 13  1  0  0  0  0
  4  3  1  0  0  0  0
  5  4  1  0  0  0  0
  5 14  1  0  0  0  0
  5  6  1  0  0  0  0
  6 16  1  1  0  0  0
  6  7  1  0  0  0  0
  7 17  1  0  0  0  0
  7 18  1  0  0  0  0
  9  1  1  0  0  0  0
 10  2  1  0  0  0  0
 12  4  1  0  0  0  0
 15  5  1  0  0  0  0
M  END
