13
q = 0.0, confidence = 0.996

 25 26  0  0  0  0  0  0  0  0999 V2000
   -2.9847    1.1143    2.3244 F   0  0  0  0  0  0  0  0  0  0  0  0
   -5.5139    0.7869    1.4465 F   0  0  0  0  0  0  0  0  0  0  0  0
   -6.0633    0.7905   -1.2520 F   0  0  0  0  0  0  0  0  0  0  0  0
   -4.0027    1.1087   -3.0430 F   0  0  0  0  0  0  0  0  0  0  0  0
   -1.4832    1.4036   -2.2058 F   0  0  0  0  0  0  0  0  0  0  0  0
    3.8255    3.7851    1.9102 N   0  0  0  0  0  0  0  0  0  0  0  0
   -2.1113    1.3125    0.1122 C   0  0  0  0  0  0  0  0  0  0  0  0
   -3.2056    1.1401    0.9938 C   0  0  0  0  0  0  0  0  0  0  0  0
   -4.5256    0.9544    0.5592 C   0  0  0  0  0  0  0  0  0  0  0  0
   -4.8094    0.9558   -0.8163 C   0  0  0  0  0  0  0  0  0  0  0  0
   -3.7548    1.1289   -1.7276 C   0  0  0  0  0  0  0  0  0  0  0  0
   -2.4434    1.3059   -1.2627 C   0  0  0  0  0  0  0  0  0  0  0  0
   -0.7500    1.4162    0.6735 C   0  0  0  0  0  3  0  0  0  0  0  0
    0.3974    1.9761   -0.0392 C   0  0  0  0  0  3  0  0  0  0  0  0
    1.5241    2.6168    0.6623 C   0  0  0  0  0  0  0  0  0  0  0  0
    1.7794    2.4816    2.0497 C   0  0  0  0  0  0  0  0  0  0  0  0
    1.1021    1.8980    2.6907 H   0  0  0  0  0  0  0  0  0  0  0  0
    2.9200    3.0725    2.6058 C   0  0  0  0  0  0  0  0  0  0  0  0
    3.1187    2.9569    3.6874 H   0  0  0  0  0  0  0  0  0  0  0  0
    3.5741    3.9389    0.5982 C   0  0  0  0  0  0  0  0  0  0  0  0
    4.3068    4.5390    0.0269 H   0  0  0  0  0  0  0  0  0  0  0  0
    2.4619    3.3968   -0.0585 C   0  0  0  0  0  0  0  0  0  0  0  0
    2.3133    3.5764   -1.1355 H   0  0  0  0  0  0  0  0  0  0  0  0
    0.2431    2.3471   -1.0633 H   0  0  0  0  0  0  0  0  0  0  0  0
   -0.7699    1.5423    1.7677 H   0  0  0  0  0  0  0  0  0  0  0  0
  3 10  1  0  0  0  0
  4 11  1  0  0  0  0
  5 12  1  0  0  0  0
  6 18  1  0  0  0  0
  7 13  1  0  0  0  0
  7  8  1  0  0  0  0
  8  1  1  0  0  0  0
  9  8  2  0  0  0  0
  9  2  1  0  0  0  0
 10  9  1  0  0  0  0
 11 12  1  0  0  0  0
 11 10  2  0  0  0  0
 12  7  2  0  0  0  0
 13 25  1  0  0  0  0
 14 15  1  0  0  0  0
 14 13  1  0  0  0  0
 15 16  1  0  0  0  0
 16 18  2  0  0  0  0
 16 17  1  0  0  0  0
 18 19  1  0  0  0  0
 20  6  2  0  0  0  0
 21 20  1  0  0  0  0
 22 20  1  0  0  0  0
 22 15  2  0  0  0  0
 23 22  1  0  0  0  0
 24 14  1  0  0  0  0
M  END
