1
q = -1.0, confidence = 0.006

 20 21  0  0  0  0  0  0  0  0999 V2000
   -0.3197   -1.6930    0.6818 C   0  0  0  0  0  3  0  0  0  0  0  0
    0.1103   -2.6105    0.2388 H   0  0  0  0  0  0  0  0  0  0  0  0
   -0.2115   -1.7091    1.7820 H   0  0  0  0  0  0  0  0  0  0  0  0
   -1.7182   -1.4710    0.2717 C   0  0  0  0  0  0  0  0  0  0  0  0
   -2.1808   -1.8902   -1.0188 C   0  0  0  0  0  0  0  0  0  0  0  0
   -1.4804   -2.4248   -1.6786 H   0  0  0  0  0  0  0  0  0  0  0  0
   -3.4640   -1.6125   -1.4518 C   0  0  0  0  0  0  0  0  0  0  0  0
   -3.7950   -1.9379   -2.4508 H   0  0  0  0  0  0  0  0  0  0  0  0
   -4.3796   -0.8900   -0.6282 C   0  0  0  0  0  0  0  0  0  0  0  0
   -3.9399   -0.4767    0.6839 C   0  0  0  0  0  0  0  0  0  0  0  0
   -2.6148   -0.7856    1.0980 C   0  0  0  0  0  0  0  0  0  0  0  0
   -2.2802   -0.4536    2.0940 H   0  0  0  0  0  0  0  0  0  0  0  0
   -5.6973   -0.5539   -1.0521 C   0  0  0  0  0  0  0  0  0  0  0  0
   -6.0268   -0.8727   -2.0539 H   0  0  0  0  0  0  0  0  0  0  0  0
   -6.5531    0.1626   -0.2258 C   0  0  0  0  0  0  0  0  0  0  0  0
   -7.5675    0.4169   -0.5689 H   0  0  0  0  0  0  0  0  0  0  0  0
   -6.1238    0.5670    1.0674 C   0  0  0  0  0  0  0  0  0  0  0  0
   -6.8098    1.1307    1.7180 H   0  0  0  0  0  0  0  0  0  0  0  0
   -4.8474    0.2512    1.5118 C   0  0  0  0  0  0  0  0  0  0  0  0
   -4.5129    0.5592    2.5153 H   0  0  0  0  0  0  0  0  0  0  0  0
  1  3  1  0  0  0  0
  2  1  1  0  0  0  0
  4  1  1  0  0  0  0
  4 11  1  0  0  0  0
  5  4  2  0  0  0  0
  6  5  1  0  0  0  0
  7  5  1  0  0  0  0
  7  9  2  0  0  0  0
  8  7  1  0  0  0  0
  9 10  1  0  0  0  0
 10 11  2  0  0  0  0
 10 19  1  0  0  0  0
 11 12  1  0  0  0  0
 13  9  1  0  0  0  0
 13 15  2  0  0  0  0
 14 13  1  0  0  0  0
 15 17  1  0  0  0  0
 16 15  1  0  0  0  0
 17 19  2  0  0  0  0
 17 18  1  0  0  0  0
 19 20  1  0  0  0  0
M  END
