20
q = -1.0

 69 73  0  0  0  0  0  0  0  0999 V2000
   -1.5714    0.0248    0.2454 P   0  0  0  0  0  0  0  0  0  0  0  0
    1.6926   -0.0760    0.3418 P   0  0  0  0  0  0  0  0  0  0  0  0
   -1.1766   -0.0477    2.0687 C   0  0  0  0  0  0  0  0  0  0  0  0
   -0.9016    0.9887    2.3443 H   0  0  0  0  0  0  0  0  0  0  0  0
   -2.1137   -0.2706    2.6160 H   0  0  0  0  0  0  0  0  0  0  0  0
    1.3477   -0.5302    2.1216 C   0  0  0  0  0  0  0  0  0  0  0  0
    2.0889   -1.3150    2.3769 H   0  0  0  0  0  0  0  0  0  0  0  0
    1.6195    0.3508    2.7378 H   0  0  0  0  0  0  0  0  0  0  0  0
   -0.3530   -2.4775    2.0413 C   0  0  0  0  0  0  0  0  0  0  0  0
    0.2855   -3.1572    2.6440 H   0  0  0  0  0  0  0  0  0  0  0  0
   -1.4000   -2.7325    2.3026 H   0  0  0  0  0  0  0  0  0  0  0  0
   -0.0700   -1.0210    2.5302 C   0  0  0  0  0  0  0  0  0  0  0  0
   -0.1029   -1.0471    4.0736 C   0  0  0  0  0  0  0  0  0  0  0  0
   -1.0606   -1.4685    4.4403 H   0  0  0  0  0  0  0  0  0  0  0  0
    0.0043   -0.0286    4.4975 H   0  0  0  0  0  0  0  0  0  0  0  0
    0.7182   -1.6732    4.4771 H   0  0  0  0  0  0  0  0  0  0  0  0
   -0.1042   -2.7740    0.5908 C   0  0  0  0  0  0  0  0  0  0  0  0
   -1.0653   -2.9428   -0.4817 C   0  0  0  0  0  3  0  0  0  0  0  0
   -2.1558   -2.9628   -0.3743 H   0  0  0  0  0  0  0  0  0  0  0  0
   -0.3363   -3.2265   -1.6889 C   0  0  0  0  0  3  0  0  0  0  0  0
   -0.7775   -3.4344   -2.6728 H   0  0  0  0  0  0  0  0  0  0  0  0
    1.0620   -3.1983   -1.3812 C   0  0  0  0  0  3  0  0  0  0  0  0
    1.8888   -3.3816   -2.0784 H   0  0  0  0  0  0  0  0  0  0  0  0
    1.1894   -2.9382    0.0151 C   0  0  0  0  0  0  0  0  0  0  0  0
    2.1463   -2.8903    0.5499 H   0  0  0  0  0  0  0  0  0  0  0  0
   -3.2749   -0.6505    0.0516 C   0  0  0  0  0  0  0  0  0  0  0  0
   -3.8828   -0.4433   -1.2063 C   0  0  0  0  0  0  0  0  0  0  0  0
   -3.3584    0.1396   -1.9806 H   0  0  0  0  0  0  0  0  0  0  0  0
   -5.1533   -0.9700   -1.4702 C   0  0  0  0  0  0  0  0  0  0  0  0
   -5.6227   -0.7958   -2.4498 H   0  0  0  0  0  0  0  0  0  0  0  0
   -5.8274   -1.7147   -0.4867 C   0  0  0  0  0  0  0  0  0  0  0  0
   -6.8250   -2.1287   -0.6955 H   0  0  0  0  0  0  0  0  0  0  0  0
   -5.2266   -1.9267    0.7624 C   0  0  0  0  0  0  0  0  0  0  0  0
   -5.7503   -2.5064    1.5370 H   0  0  0  0  0  0  0  0  0  0  0  0
   -3.9532   -1.3973    1.0338 C   0  0  0  0  0  0  0  0  0  0  0  0
   -3.5036   -1.5785    2.0212 H   0  0  0  0  0  0  0  0  0  0  0  0
   -1.8519    1.8216   -0.0528 C   0  0  0  0  0  0  0  0  0  0  0  0
   -1.3504    2.4987   -1.1779 C   0  0  0  0  0  0  0  0  0  0  0  0
   -0.7411    1.9627   -1.9185 H   0  0  0  0  0  0  0  0  0  0  0  0
   -1.6240    3.8655   -1.3470 C   0  0  0  0  0  0  0  0  0  0  0  0
   -1.2226    4.3898   -2.2267 H   0  0  0  0  0  0  0  0  0  0  0  0
   -2.3956    4.5584   -0.4038 C   0  0  0  0  0  0  0  0  0  0  0  0
   -2.6049    5.6299   -0.5403 H   0  0  0  0  0  0  0  0  0  0  0  0
   -2.9117    3.8789    0.7124 C   0  0  0  0  0  0  0  0  0  0  0  0
   -3.5333    4.4118    1.4475 H   0  0  0  0  0  0  0  0  0  0  0  0
   -2.6487    2.5144    0.8871 C   0  0  0  0  0  0  0  0  0  0  0  0
   -3.0838    1.9900    1.7518 H   0  0  0  0  0  0  0  0  0  0  0  0
    3.4820   -0.4439    0.1163 C   0  0  0  0  0  0  0  0  0  0  0  0
    3.9241   -0.9282   -1.1301 C   0  0  0  0  0  0  0  0  0  0  0  0
    3.1898   -1.1155   -1.9307 H   0  0  0  0  0  0  0  0  0  0  0  0
    5.2900   -1.1615   -1.3514 C   0  0  0  0  0  0  0  0  0  0  0  0
    5.6307   -1.5364   -2.3281 H   0  0  0  0  0  0  0  0  0  0  0  0
    6.2176   -0.9170   -0.3270 C   0  0  0  0  0  0  0  0  0  0  0  0
    7.2882   -1.1042   -0.4979 H   0  0  0  0  0  0  0  0  0  0  0  0
    5.7812   -0.4273    0.9155 C   0  0  0  0  0  0  0  0  0  0  0  0
    6.5092   -0.2266    1.7157 H   0  0  0  0  0  0  0  0  0  0  0  0
    4.4186   -0.1829    1.1382 C   0  0  0  0  0  0  0  0  0  0  0  0
    4.0942    0.2243    2.1081 H   0  0  0  0  0  0  0  0  0  0  0  0
    1.6515    1.7593    0.2291 C   0  0  0  0  0  0  0  0  0  0  0  0
    2.0983    2.3305   -0.9819 C   0  0  0  0  0  0  0  0  0  0  0  0
    2.4536    1.6849   -1.7993 H   0  0  0  0  0  0  0  0  0  0  0  0
    2.0858    3.7202   -1.1505 C   0  0  0  0  0  0  0  0  0  0  0  0
    2.4411    4.1562   -2.0960 H   0  0  0  0  0  0  0  0  0  0  0  0
    1.6191    4.5528   -0.1195 C   0  0  0  0  0  0  0  0  0  0  0  0
    1.6036    5.6443   -0.2559 H   0  0  0  0  0  0  0  0  0  0  0  0
    1.1740    3.9901    1.0848 C   0  0  0  0  0  0  0  0  0  0  0  0
    0.8072    4.6357    1.8962 H   0  0  0  0  0  0  0  0  0  0  0  0
    1.1931    2.5981    1.2626 C   0  0  0  0  0  0  0  0  0  0  0  0
    0.8472    2.1837    2.2202 H   0  0  0  0  0  0  0  0  0  0  0  0
  1  3  1  0  0  0  0
  2  6  1  0  0  0  0
  3  4  1  0  0  0  0
  3 12  1  0  0  0  0
  3  5  1  0  0  0  0
  6  7  1  0  0  0  0
  6 12  1  0  0  0  0
  6  8  1  0  0  0  0
  9 11  1  0  0  0  0
  9 12  1  0  0  0  0
  9 10  1  0  0  0  0
 12 13  1  0  0  0  0
 13 14  1  0  0  0  0
 13 16  1  0  0  0  0
 13 15  1  0  0  0  0
 17  9  1  0  0  0  0
 18 19  1  0  0  0  0
 18 17  1  0  0  0  0
 20 22  1  0  0  0  0
 20 18  1  0  0  0  0
 21 20  1  0  0  0  0
 22 24  1  0  0  0  0
 23 22  1  0  0  0  0
 24 25  1  0  0  0  0
 24 17  2  0  0  0  0
 26  1  1  0  0  0  0
 26 35  1  0  0  0  0
 27 26  2  0  0  0  0
 28 27  1  0  0  0  0
 29 27  1  0  0  0  0
 29 31  2  0  0  0  0
 30 29  1  0  0  0  0
 31 33  1  0  0  0  0
 32 31  1  0  0  0  0
 33 35  2  0  0  0  0
 33 34  1  0  0  0  0
 35 36  1  0  0  0  0
 37  1  1  0  0  0  0
 37 46  1  0  0  0  0
 38 37  2  0  0  0  0
 39 38  1  0  0  0  0
 40 38  1  0  0  0  0
 40 42  2  0  0  0  0
 41 40  1  0  0  0  0
 42 44  1  0  0  0  0
 43 42  1  0  0  0  0
 44 46  2  0  0  0  0
 44 45  1  0  0  0  0
 46 47  1  0  0  0  0
 48  2  1  0  0  0  0
 48 57  1  0  0  0  0
 49 48  2  0  0  0  0
 50 49  1  0  0  0  0
 51 49  1  0  0  0  0
 51 53  2  0  0  0  0
 52 51  1  0  0  0  0
 53 55  1  0  0  0  0
 54 53  1  0  0  0  0
 55 57  2  0  0  0  0
 55 56  1  0  0  0  0
 57 58  1  0  0  0  0
 59  2  1  0  0  0  0
 59 68  1  0  0  0  0
 60 59  2  0  0  0  0
 61 60  1  0  0  0  0
 62 60  1  0  0  0  0
 62 64  2  0  0  0  0
 63 62  1  0  0  0  0
 64 66  1  0  0  0  0
 65 64  1  0  0  0  0
 66 68  2  0  0  0  0
 66 67  1  0  0  0  0
 68 69  1  0  0  0  0
M  END
