1
q = 0.0, confidence = 0.968

 30 29  0  0  1  0  0  0  0  0999 V2000
   -0.3298   -0.3285   -0.4057 C   0  0  0  0  0  1  0  0  0  0  0  0
    0.8252   -0.4058   -1.1248 C   0  0  1  0  0  3  0  0  0  0  0  0
    1.0705   -1.5155   -2.0766 C   0  0  0  0  0  0  0  0  0  0  0  0
    0.1290   -2.5089   -1.9517 O   0  0  0  0  0  0  0  0  0  0  0  0
    0.2669   -3.5890   -2.8765 C   0  0  0  0  0  0  0  0  0  0  0  0
   -0.5604   -4.2873   -2.6545 H   0  0  0  0  0  0  0  0  0  0  0  0
    0.1979   -3.2311   -3.9244 H   0  0  0  0  0  0  0  0  0  0  0  0
    1.2443   -4.0986   -2.7539 H   0  0  0  0  0  0  0  0  0  0  0  0
    1.9634   -1.5672   -2.9062 O   0  0  0  0  0  0  0  0  0  0  0  0
    1.8505    0.6565   -0.9453 C   0  0  0  0  0  0  0  0  0  0  0  0
    1.4269    1.9589   -0.8039 C   0  0  0  0  0  0  0  0  0  0  0  0
    0.3567    2.1658   -0.9227 H   0  0  0  0  0  0  0  0  0  0  0  0
    2.2341    3.1189   -0.4066 C   0  0  0  0  0  0  0  0  0  0  0  0
    1.4086    4.2056   -0.2566 O   0  0  0  0  0  0  0  0  0  0  0  0
    2.0611    5.4071    0.1530 C   0  0  0  0  0  0  0  0  0  0  0  0
    1.2701    6.1733    0.2418 H   0  0  0  0  0  0  0  0  0  0  0  0
    2.5755    5.2693    1.1266 H   0  0  0  0  0  0  0  0  0  0  0  0
    2.8222    5.7217   -0.5904 H   0  0  0  0  0  0  0  0  0  0  0  0
    3.4410    3.1883   -0.2107 O   0  0  0  0  0  0  0  0  0  0  0  0
    3.2576    0.2940   -0.7598 C   0  0  0  0  0  0  0  0  0  0  0  0
    3.9852    1.1166   -0.8271 H   0  0  0  0  0  0  0  0  0  0  0  0
    3.6956   -0.9436   -0.4124 C   0  0  0  0  0  0  0  0  0  0  0  0
    3.0089   -1.7928   -0.2773 H   0  0  0  0  0  0  0  0  0  0  0  0
    5.1084   -1.2927   -0.1568 C   0  0  0  0  0  0  0  0  0  0  0  0
    5.9581   -0.2518   -0.3697 O   0  0  0  0  0  0  0  0  0  0  0  0
    7.3369   -0.5351   -0.1315 C   0  0  0  0  0  0  0  0  0  0  0  0
    7.8845    0.4002   -0.3452 H   0  0  0  0  0  0  0  0  0  0  0  0
    7.5037   -0.8485    0.9198 H   0  0  0  0  0  0  0  0  0  0  0  0
    7.6950   -1.3520   -0.7912 H   0  0  0  0  0  0  0  0  0  0  0  0
    5.4827   -2.3970    0.2111 O   0  0  0  0  0  0  0  0  0  0  0  0
  2 10  1  0  0  0  0
  2  1  1  6  0  0  0
  3  4  1  0  0  0  0
  3  2  1  0  0  0  0
  5  8  1  0  0  0  0
  5  6  1  0  0  0  0
  5  4  1  0  0  0  0
  7  5  1  0  0  0  0
  9  3  2  0  0  0  0
 10 11  2  0  0  0  0
 10 20  1  0  0  0  0
 11 13  1  0  0  0  0
 12 11  1  0  0  0  0
 13 14  1  0  0  0  0
 13 19  2  0  0  0  0
 14 15  1  0  0  0  0
 15 16  1  0  0  0  0
 15 17  1  0  0  0  0
 18 15  1  0  0  0  0
 20 22  2  0  0  0  0
 21 20  1  0  0  0  0
 22 23  1  0  0  0  0
 22 24  1  0  0  0  0
 24 30  2  0  0  0  0
 25 24  1  0  0  0  0
 25 26  1  0  0  0  0
 26 28  1  0  0  0  0
 27 26  1  0  0  0  0
 29 26  1  0  0  0  0
M  END
