2
q = 0.0, confidence = 0.998

 54 55  0  0  0  0  0  0  0  0999 V2000
   -2.2211   -0.3656    0.1111 P   0  0  0  0  0  0  0  0  0  0  0  0
    0.2241   -0.8157   -0.0995 C   0  0  0  0  0  2  0  0  0  0  0  0
    1.2553   -1.7065   -0.0829 N   0  0  0  0  0  0  0  0  0  0  0  0
    0.7720   -3.0179   -0.0261 C   0  0  0  0  0  0  0  0  0  0  0  0
    1.4452   -3.8804    0.0029 H   0  0  0  0  0  0  0  0  0  0  0  0
   -0.6013   -2.9502   -0.0078 C   0  0  0  0  0  0  0  0  0  0  0  0
   -1.3477   -3.7484    0.0342 H   0  0  0  0  0  0  0  0  0  0  0  0
   -0.9132   -1.5939   -0.0607 N   0  0  0  0  0  0  0  0  0  0  0  0
   -3.3200   -0.6898   -1.4021 C   0  0  0  0  0  0  0  0  0  0  0  0
   -2.5143   -0.1021   -2.5802 C   0  0  0  0  0  0  0  0  0  0  0  0
   -2.3264    0.9831   -2.4520 H   0  0  0  0  0  0  0  0  0  0  0  0
   -3.0904   -0.2464   -3.5187 H   0  0  0  0  0  0  0  0  0  0  0  0
   -1.5350   -0.6075   -2.7004 H   0  0  0  0  0  0  0  0  0  0  0  0
   -3.6159   -2.1730   -1.6668 C   0  0  0  0  0  0  0  0  0  0  0  0
   -2.6855   -2.7475   -1.8442 H   0  0  0  0  0  0  0  0  0  0  0  0
   -4.2317   -2.2600   -2.5874 H   0  0  0  0  0  0  0  0  0  0  0  0
   -4.1789   -2.6546   -0.8460 H   0  0  0  0  0  0  0  0  0  0  0  0
   -4.6182    0.1169   -1.2243 C   0  0  0  0  0  0  0  0  0  0  0  0
   -4.4116    1.1756   -0.9648 H   0  0  0  0  0  0  0  0  0  0  0  0
   -5.2840   -0.3179   -0.4527 H   0  0  0  0  0  0  0  0  0  0  0  0
   -5.1769    0.1177   -2.1836 H   0  0  0  0  0  0  0  0  0  0  0  0
   -3.0242   -0.8281    1.7708 C   0  0  0  0  0  0  0  0  0  0  0  0
   -3.8587   -2.1147    1.7752 C   0  0  0  0  0  0  0  0  0  0  0  0
   -4.7548   -2.0366    1.1296 H   0  0  0  0  0  0  0  0  0  0  0  0
   -4.2147   -2.3175    2.8081 H   0  0  0  0  0  0  0  0  0  0  0  0
   -3.2698   -2.9969    1.4540 H   0  0  0  0  0  0  0  0  0  0  0  0
   -3.8845    0.3868    2.1738 C   0  0  0  0  0  0  0  0  0  0  0  0
   -3.2922    1.3239    2.1462 H   0  0  0  0  0  0  0  0  0  0  0  0
   -4.2523    0.2441    3.2115 H   0  0  0  0  0  0  0  0  0  0  0  0
   -4.7677    0.5185    1.5205 H   0  0  0  0  0  0  0  0  0  0  0  0
   -1.8477   -0.9494    2.7601 C   0  0  0  0  0  0  0  0  0  0  0  0
   -1.1794   -0.0647    2.7053 H   0  0  0  0  0  0  0  0  0  0  0  0
   -1.2345   -1.8526    2.5717 H   0  0  0  0  0  0  0  0  0  0  0  0
   -2.2487   -1.0172    3.7929 H   0  0  0  0  0  0  0  0  0  0  0  0
    2.6356   -1.3011   -0.0890 C   0  0  0  0  0  0  0  0  0  0  0  0
    3.3811   -1.4416   -1.2782 C   0  0  0  0  0  0  0  0  0  0  0  0
    4.7092   -0.9789   -1.2727 C   0  0  0  0  0  0  0  0  0  0  0  0
    5.3068   -1.0740   -2.1934 H   0  0  0  0  0  0  0  0  0  0  0  0
    5.2812   -0.3757   -0.1378 C   0  0  0  0  0  0  0  0  0  0  0  0
    4.4955   -0.2513    1.0234 C   0  0  0  0  0  0  0  0  0  0  0  0
    4.9173    0.2382    1.9149 H   0  0  0  0  0  0  0  0  0  0  0  0
    3.1693   -0.7104    1.0785 C   0  0  0  0  0  0  0  0  0  0  0  0
    2.7601   -2.0276   -2.5207 C   0  0  0  0  0  0  0  0  0  0  0  0
    2.5244   -3.1062   -2.4036 H   0  0  0  0  0  0  0  0  0  0  0  0
    3.4389   -1.9257   -3.3881 H   0  0  0  0  0  0  0  0  0  0  0  0
    1.8046   -1.5193   -2.7671 H   0  0  0  0  0  0  0  0  0  0  0  0
    6.6933    0.1523   -0.1607 C   0  0  0  0  0  0  0  0  0  0  0  0
    7.2003   -0.0698   -1.1193 H   0  0  0  0  0  0  0  0  0  0  0  0
    7.3009   -0.2842    0.6587 H   0  0  0  0  0  0  0  0  0  0  0  0
    6.7048    1.2528   -0.0156 H   0  0  0  0  0  0  0  0  0  0  0  0
    2.3381   -0.5348    2.3207 C   0  0  0  0  0  0  0  0  0  0  0  0
    1.6292    0.3096    2.1902 H   0  0  0  0  0  0  0  0  0  0  0  0
    2.9762   -0.3002    3.1923 H   0  0  0  0  0  0  0  0  0  0  0  0
    1.7375   -1.4385    2.5489 H   0  0  0  0  0  0  0  0  0  0  0  0
  1 22  1  0  0  0  0
  2  3  1  0  0  0  0
  2  8  1  0  0  0  0
  3  4  1  0  0  0  0
  4  6  2  0  0  0  0
  4  5  1  0  0  0  0
  6  7  1  0  0  0  0
  8  6  1  0  0  0  0
  8  1  1  0  0  0  0
  9 18  1  0  0  0  0
  9  1  1  0  0  0  0
 10 11  1  0  0  0  0
 10  9  1  0  0  0  0
 12 10  1  0  0  0  0
 13 10  1  0  0  0  0
 14  9  1  0  0  0  0
 14 17  1  0  0  0  0
 15 14  1  0  0  0  0
 16 14  1  0  0  0  0
 18 19  1  0  0  0  0
 18 20  1  0  0  0  0
 21 18  1  0  0  0  0
 22 23  1  0  0  0  0
 22 27  1  0  0  0  0
 22 31  1  0  0  0  0
 23 25  1  0  0  0  0
 24 23  1  0  0  0  0
 26 23  1  0  0  0  0
 27 29  1  0  0  0  0
 28 27  1  0  0  0  0
 30 27  1  0  0  0  0
 31 34  1  0  0  0  0
 32 31  1  0  0  0  0
 33 31  1  0  0  0  0
 35  3  1  0  0  0  0
 35 42  1  0  0  0  0
 36 37  1  0  0  0  0
 36 35  2  0  0  0  0
 37 39  2  0  0  0  0
 38 37  1  0  0  0  0
 39 40  1  0  0  0  0
 40 42  2  0  0  0  0
 40 41  1  0  0  0  0
 42 51  1  0  0  0  0
 43 44  1  0  0  0  0
 43 36  1  0  0  0  0
 45 43  1  0  0  0  0
 46 43  1  0  0  0  0
 47 39  1  0  0  0  0
 47 50  1  0  0  0  0
 47 49  1  0  0  0  0
 48 47  1  0  0  0  0
 51 54  1  0  0  0  0
 51 53  1  0  0  0  0
 52 51  1  0  0  0  0
M  END
