1
q = -1.0, confidence = 0.0

 15 15  0  0  0  0  0  0  0  0999 V2000
   -0.0901    1.2157   -1.3426 C   0  0  0  0  0  3  0  0  0  0  0  0
   -0.5712    2.5878   -0.9906 C   0  0  0  0  0  0  0  0  0  0  0  0
   -0.3605    3.1358    0.3004 C   0  0  0  0  0  0  0  0  0  0  0  0
    0.2019    2.5588    1.0549 H   0  0  0  0  0  0  0  0  0  0  0  0
   -0.8747    4.3904    0.6592 C   0  0  0  0  0  0  0  0  0  0  0  0
   -0.7002    4.7754    1.6756 H   0  0  0  0  0  0  0  0  0  0  0  0
   -1.6051    5.1470   -0.2695 C   0  0  0  0  0  0  0  0  0  0  0  0
   -2.0105    6.1316    0.0089 H   0  0  0  0  0  0  0  0  0  0  0  0
   -1.8198    4.6284   -1.5581 C   0  0  0  0  0  0  0  0  0  0  0  0
   -2.3982    5.2072   -2.2951 H   0  0  0  0  0  0  0  0  0  0  0  0
   -1.3195    3.3682   -1.9089 C   0  0  0  0  0  0  0  0  0  0  0  0
   -1.5261    2.9628   -2.9102 H   0  0  0  0  0  0  0  0  0  0  0  0
    0.1871    0.9064   -2.6362 C   0  0  0  0  0  0  0  0  0  0  0  0
    0.1536    1.6771   -3.4269 H   0  0  0  0  0  0  0  0  0  0  0  0
    0.4898   -0.1026   -2.9504 H   0  0  0  0  0  0  0  0  0  0  0  0
  1  2  1  0  0  0  0
  2  3  1  0  0  0  0
  3  5  2  0  0  0  0
  3  4  1  0  0  0  0
  5  6  1  0  0  0  0
  7  8  1  0  0  0  0
  7  5  1  0  0  0  0
  9  7  2  0  0  0  0
 10  9  1  0  0  0  0
 11  9  1  0  0  0  0
 11  2  2  0  0  0  0
 12 11  1  0  0  0  0
 13  1  2  0  0  0  0
 14 13  1  0  0  0  0
 15 13  1  0  0  0  0
M  END
