8
q = 0.0, confidence = 0.982

 37 39  0  0  0  0  0  0  0  0999 V2000
   -3.2721    4.6713    1.1437 Cl  0  0  0  0  0  0  0  0  0  0  0  0
   -0.6709    5.7000   -1.0282 Cl  0  0  0  0  0  0  0  0  0  0  0  0
   -1.8556    2.3926    0.6483 N   0  0  0  0  0  0  0  0  0  0  0  0
   -0.2705    3.0110   -0.6996 N   0  0  0  0  0  0  0  0  0  0  0  0
    6.0869    2.2999    0.8369 N   0  0  0  0  0  0  0  0  0  0  0  0
    7.0365    2.1531    0.0710 O   0  0  0  0  0  0  0  0  0  0  0  0
    6.1531    2.3208    2.0650 O   0  0  0  0  0  0  0  0  0  0  0  0
   -0.7799    1.9235   -0.0460 C   0  0  0  0  0  2  0  0  0  0  0  0
   -2.0283    3.7570    0.4389 C   0  0  0  0  0  0  0  0  0  0  0  0
   -1.0140    4.1543   -0.4112 C   0  0  0  0  0  0  0  0  0  0  0  0
   -2.7970    1.5470    1.3884 C   0  0  0  0  0  0  0  0  0  0  0  0
   -2.2608    0.5909    1.5673 H   0  0  0  0  0  0  0  0  0  0  0  0
   -2.9937    2.0177    2.3713 H   0  0  0  0  0  0  0  0  0  0  0  0
   -4.0895    1.3184    0.6318 C   0  0  0  0  0  0  0  0  0  0  0  0
   -4.0729    0.9974   -0.7390 C   0  0  0  0  0  0  0  0  0  0  0  0
   -3.1140    0.9315   -1.2776 H   0  0  0  0  0  0  0  0  0  0  0  0
   -5.2727    0.7615   -1.4254 C   0  0  0  0  0  0  0  0  0  0  0  0
   -5.2533    0.5040   -2.4944 H   0  0  0  0  0  0  0  0  0  0  0  0
   -6.4991    0.8334   -0.7447 C   0  0  0  0  0  0  0  0  0  0  0  0
   -7.4373    0.6250   -1.2788 H   0  0  0  0  0  0  0  0  0  0  0  0
   -6.5209    1.1461    0.6230 C   0  0  0  0  0  0  0  0  0  0  0  0
   -7.4794    1.1998    1.1599 H   0  0  0  0  0  0  0  0  0  0  0  0
   -5.3215    1.3964    1.3067 C   0  0  0  0  0  0  0  0  0  0  0  0
   -5.3434    1.6577    2.3767 H   0  0  0  0  0  0  0  0  0  0  0  0
    0.8800    2.9579   -1.5977 C   0  0  0  0  0  0  0  0  0  0  0  0
    0.6925    2.1598   -2.3440 H   0  0  0  0  0  0  0  0  0  0  0  0
    0.8967    3.9181   -2.1532 H   0  0  0  0  0  0  0  0  0  0  0  0
    2.2138    2.7378   -0.9122 C   0  0  0  0  0  0  0  0  0  0  0  0
    3.3113    2.3347   -1.7021 C   0  0  0  0  0  0  0  0  0  0  0  0
    3.1715    2.1417   -2.7775 H   0  0  0  0  0  0  0  0  0  0  0  0
    4.5846    2.1972   -1.1396 C   0  0  0  0  0  0  0  0  0  0  0  0
    5.4591    1.8983   -1.7320 H   0  0  0  0  0  0  0  0  0  0  0  0
    4.7411    2.4453    0.2291 C   0  0  0  0  0  0  0  0  0  0  0  0
    3.6679    2.8231    1.0424 C   0  0  0  0  0  0  0  0  0  0  0  0
    3.8454    2.9976    2.1120 H   0  0  0  0  0  0  0  0  0  0  0  0
    2.4023    2.9775    0.4624 C   0  0  0  0  0  0  0  0  0  0  0  0
    1.5569    3.2945    1.0904 H   0  0  0  0  0  0  0  0  0  0  0  0
  2 10  1  0  0  0  0
  3 11  1  0  0  0  0
  4 10  1  0  0  0  0
  4  8  1  0  0  0  0
  5  7  2  0  0  0  0
  6  5  2  0  0  0  0
  8  3  1  0  0  0  0
  9  3  1  0  0  0  0
  9  1  1  0  0  0  0
 10  9  2  0  0  0  0
 11 12  1  0  0  0  0
 11 13  1  0  0  0  0
 14 23  1  0  0  0  0
 14 11  1  0  0  0  0
 15 14  2  0  0  0  0
 16 15  1  0  0  0  0
 17 19  2  0  0  0  0
 17 15  1  0  0  0  0
 18 17  1  0  0  0  0
 19 21  1  0  0  0  0
 20 19  1  0  0  0  0
 21 22  1  0  0  0  0
 21 23  2  0  0  0  0
 23 24  1  0  0  0  0
 25 28  1  0  0  0  0
 25  4  1  0  0  0  0
 26 25  1  0  0  0  0
 27 25  1  0  0  0  0
 28 36  1  0  0  0  0
 29 31  1  0  0  0  0
 29 28  2  0  0  0  0
 30 29  1  0  0  0  0
 31 33  2  0  0  0  0
 32 31  1  0  0  0  0
 33  5  1  0  0  0  0
 33 34  1  0  0  0  0
 34 35  1  0  0  0  0
 36 34  2  0  0  0  0
 36 37  1  0  0  0  0
M  END
