5
q = -1.0

 18 18  0  0  0  0  0  0  0  0999 V2000
    4.8754   -0.9676    1.9810 O   0  0  0  0  0  0  0  0  0  0  0  0
    4.5490   -0.0970    2.2677 H   0  0  0  0  0  0  0  0  0  0  0  0
    4.2027   -3.1703    1.4849 O   0  0  0  0  0  0  0  0  0  0  0  0
    5.1713   -3.2632    1.4311 H   0  0  0  0  0  0  0  0  0  0  0  0
   -1.9242   -0.6889    2.3084 C   0  0  0  0  0  3  0  0  0  0  0  0
   -2.1485    0.2315    2.8822 H   0  0  0  0  0  0  0  0  0  0  0  0
   -2.5301   -1.5242    2.7071 H   0  0  0  0  0  0  0  0  0  0  0  0
   -0.4734   -0.9978    2.3147 C   0  0  0  0  0  0  0  0  0  0  0  0
    0.0010   -2.3134    2.0777 C   0  0  0  0  0  0  0  0  0  0  0  0
   -0.7329   -3.1273    1.9661 H   0  0  0  0  0  0  0  0  0  0  0  0
    1.3643   -2.5836    1.9509 C   0  0  0  0  0  0  0  0  0  0  0  0
    1.7004   -3.6105    1.7389 H   0  0  0  0  0  0  0  0  0  0  0  0
    2.3392   -1.5609    2.0703 C   0  0  0  0  0  0  0  0  0  0  0  0
    1.8674   -0.2614    2.3618 C   0  0  0  0  0  0  0  0  0  0  0  0
    2.5789    0.5761    2.4834 H   0  0  0  0  0  0  0  0  0  0  0  0
    0.5006    0.0180    2.4814 C   0  0  0  0  0  0  0  0  0  0  0  0
    0.1670    1.0462    2.6938 H   0  0  0  0  0  0  0  0  0  0  0  0
    3.8545   -1.8910    1.8502 B   0  0  0  0  0  0  0  0  0  0  0  0
  1  2  1  0  0  0  0
  3 18  1  0  0  0  0
  4  3  1  0  0  0  0
  5  8  1  0  0  0  0
  5  7  1  0  0  0  0
  5  6  1  0  0  0  0
  8 16  1  0  0  0  0
  9  8  2  0  0  0  0
 10  9  1  0  0  0  0
 11 13  2  0  0  0  0
 11  9  1  0  0  0  0
 12 11  1  0  0  0  0
 13 14  1  0  0  0  0
 14 16  2  0  0  0  0
 14 15  1  0  0  0  0
 16 17  1  0  0  0  0
 18  1  1  0  0  0  0
 18 13  1  0  0  0  0
M  END
