1
q = 0.0, confidence = 0.992

 16 16  0  0  0  0  0  0  0  0999 V2000
   -0.7575    0.0863   -2.4993 C   0  0  0  0  0  3  0  0  0  0  0  0
   -2.0037   -0.0041   -1.8540 C   0  0  0  0  0  3  0  0  0  0  0  0
   -2.5683    0.9969   -0.9339 C   0  0  0  0  0  0  0  0  0  0  0  0
   -1.9498    2.2547   -0.7292 C   0  0  0  0  0  0  0  0  0  0  0  0
   -2.4710    3.1928    0.1652 C   0  0  0  0  0  0  0  0  0  0  0  0
   -3.6419    2.8989    0.8846 C   0  0  0  0  0  0  0  0  0  0  0  0
   -4.2959    1.6742    0.6900 C   0  0  0  0  0  0  0  0  0  0  0  0
   -3.7669    0.7424   -0.2146 C   0  0  0  0  0  0  0  0  0  0  0  0
   -4.6412   -0.7560   -0.4425 Cl  0  0  0  0  0  0  0  0  0  0  0  0
   -0.5687   -0.5579   -3.3734 H   0  0  0  0  0  0  0  0  0  0  0  0
   -0.1631    1.0098   -2.4502 H   0  0  0  0  0  0  0  0  0  0  0  0
   -2.7138   -0.7705   -2.1983 H   0  0  0  0  0  0  0  0  0  0  0  0
   -1.0432    2.5017   -1.2976 H   0  0  0  0  0  0  0  0  0  0  0  0
   -1.9639    4.1596    0.2955 H   0  0  0  0  0  0  0  0  0  0  0  0
   -4.0627    3.6314    1.5893 H   0  0  0  0  0  0  0  0  0  0  0  0
   -5.2241    1.4354    1.2274 H   0  0  0  0  0  0  0  0  0  0  0  0
  1 11  1  0  0  0  0
  1  2  1  0  0  0  0
  2  3  1  0  0  0  0
  3  4  2  0  0  0  0
  3  8  1  0  0  0  0
  4  5  1  0  0  0  0
  5 14  1  0  0  0  0
  5  6  2  0  0  0  0
  6 15  1  0  0  0  0
  7  6  1  0  0  0  0
  7 16  1  0  0  0  0
  8  7  2  0  0  0  0
  9  8  1  0  0  0  0
 10  1  1  0  0  0  0
 12  2  1  0  0  0  0
 13  4  1  0  0  0  0
M  END
