8
q = 0.0, confidence = 0.872

 24 23  0  0  0  0  0  0  0  0999 V2000
   -0.5821   -1.4314   -1.8686 C   0  0  0  0  0  3  0  0  0  0  0  0
   -1.9684   -1.3102   -1.5628 C   0  0  0  0  0  0  0  0  0  0  0  0
   -2.4829   -0.0253   -1.2039 C   0  0  0  0  0  0  0  0  0  0  0  0
   -1.6156    1.1092   -1.0653 C   0  0  0  0  0  3  0  0  0  0  0  0
   -2.0991    2.2296   -0.1395 C   0  0  0  0  0  0  0  0  0  0  0  0
   -1.4278    2.1379    1.2547 C   0  0  0  0  0  0  0  0  0  0  0  0
   -1.1226    0.6926    1.6220 C   0  0  0  0  0  3  0  0  0  0  0  0
   -2.1467   -0.3080    1.5702 C   0  0  0  0  0  3  0  0  0  0  0  0
   -1.7533   -1.6777    1.4151 C   0  0  0  0  0  3  0  0  0  0  0  0
   -0.3664   -2.0062    1.3622 C   0  0  0  0  0  3  0  0  0  0  0  0
   -2.6173   -2.1952   -1.4460 H   0  0  0  0  0  0  0  0  0  0  0  0
   -3.5136    0.0236   -0.8076 H   0  0  0  0  0  0  0  0  0  0  0  0
   -0.9443    1.3821   -1.8979 H   0  0  0  0  0  0  0  0  0  0  0  0
   -0.3068    0.5463    2.3516 H   0  0  0  0  0  0  0  0  0  0  0  0
   -3.2109   -0.0445    1.4422 H   0  0  0  0  0  0  0  0  0  0  0  0
   -2.5286   -2.4287    1.1819 H   0  0  0  0  0  0  0  0  0  0  0  0
   -0.1657   -2.4497   -1.9532 H   0  0  0  0  0  0  0  0  0  0  0  0
   -0.1247   -0.7085   -2.5696 H   0  0  0  0  0  0  0  0  0  0  0  0
   -3.2013    2.1393   -0.0186 H   0  0  0  0  0  0  0  0  0  0  0  0
   -1.9303    3.2346   -0.5814 H   0  0  0  0  0  0  0  0  0  0  0  0
   -2.0509    2.6469    2.0283 H   0  0  0  0  0  0  0  0  0  0  0  0
   -0.4666    2.6937    1.2363 H   0  0  0  0  0  0  0  0  0  0  0  0
   -0.1156   -3.0386    1.0683 H   0  0  0  0  0  0  0  0  0  0  0  0
    0.3274   -1.5898    2.1140 H   0  0  0  0  0  0  0  0  0  0  0  0
  1  2  1  0  0  0  0
  2 11  1  0  0  0  0
  2  3  2  0  0  0  0
  3  4  1  0  0  0  0
  3 12  1  0  0  0  0
  4  5  1  0  0  0  0
  5 19  1  0  0  0  0
  5  6  1  0  0  0  0
  6  7  1  0  0  0  0
  6 21  1  0  0  0  0
  7 14  1  0  0  0  0
  8  7  1  0  0  0  0
  9  8  1  0  0  0  0
 10  9  1  0  0  0  0
 10 24  1  0  0  0  0
 13  4  1  0  0  0  0
 15  8  1  0  0  0  0
 16  9  1  0  0  0  0
 17  1  1  0  0  0  0
 18  1  1  0  0  0  0
 20  5  1  0  0  0  0
 22  6  1  0  0  0  0
 23 10  1  0  0  0  0
M  END
