8
q = 0.0, confidence = 0.948

 50 50  0  0  1  0  0  0  0  0999 V2000
    1.5561   -0.9151   -0.1455 P   0  0  0  0  0  0  0  0  0  0  0  0
    0.3014    1.0091    1.5016 O   0  0  0  0  0  1  0  0  0  0  0  0
    2.3691    0.5383   -0.3550 O   0  0  0  0  0  0  0  0  0  0  0  0
    2.5831   -1.6611    0.8902 O   0  0  0  0  0  0  0  0  0  0  0  0
    1.8704   -1.7765   -1.4900 O   0  0  0  0  0  0  0  0  0  0  0  0
   -2.1431    0.9244    0.5236 C   0  0  0  0  0  3  0  0  0  0  0  0
   -1.0995    1.4228   -0.3258 C   0  0  0  0  0  3  0  0  0  0  0  0
    0.2191    1.4162    0.2499 C   0  0  2  0  0  3  0  0  0  0  0  0
    1.4997    1.6796   -0.5349 C   0  0  1  0  0  0  0  0  0  0  0  0
    2.2668    2.9664   -0.1348 C   0  0  0  0  0  0  0  0  0  0  0  0
    1.3142    4.1617   -0.3138 C   0  0  0  0  0  0  0  0  0  0  0  0
    2.7534    2.8895    1.3223 C   0  0  0  0  0  0  0  0  0  0  0  0
    3.4735    3.1152   -1.0796 C   0  0  0  0  0  0  0  0  0  0  0  0
    2.6927   -1.1737    2.2536 C   0  0  0  0  0  0  0  0  0  0  0  0
    2.3761   -2.2947    3.2243 C   0  0  0  0  0  0  0  0  0  0  0  0
    3.2276   -2.0301   -1.9278 C   0  0  0  0  0  0  0  0  0  0  0  0
    3.1719   -2.5332   -3.3552 C   0  0  0  0  0  0  0  0  0  0  0  0
   -3.5115    0.6291    0.0702 C   0  0  0  0  0  0  0  0  0  0  0  0
   -4.5334    0.4709    1.0363 C   0  0  0  0  0  0  0  0  0  0  0  0
   -5.8518    0.1886    0.6586 C   0  0  0  0  0  0  0  0  0  0  0  0
   -6.1840    0.0571   -0.6995 C   0  0  0  0  0  0  0  0  0  0  0  0
   -5.1816    0.2088   -1.6720 C   0  0  0  0  0  0  0  0  0  0  0  0
   -3.8627    0.4886   -1.2938 C   0  0  0  0  0  0  0  0  0  0  0  0
   -4.2757    0.5721    2.1023 H   0  0  0  0  0  0  0  0  0  0  0  0
   -6.6275    0.0701    1.4307 H   0  0  0  0  0  0  0  0  0  0  0  0
   -7.2189   -0.1662   -0.9996 H   0  0  0  0  0  0  0  0  0  0  0  0
   -5.4294    0.1023   -2.7392 H   0  0  0  0  0  0  0  0  0  0  0  0
   -3.0923    0.5854   -2.0731 H   0  0  0  0  0  0  0  0  0  0  0  0
   -2.0328    1.1554    1.5959 H   0  0  0  0  0  0  0  0  0  0  0  0
   -1.2411    1.6683   -1.3894 H   0  0  0  0  0  0  0  0  0  0  0  0
    1.2311    1.7624   -1.6130 H   0  0  0  0  0  0  0  0  0  0  0  0
    1.8505    5.1103   -0.1099 H   0  0  0  0  0  0  0  0  0  0  0  0
    0.9178    4.2168   -1.3495 H   0  0  0  0  0  0  0  0  0  0  0  0
    0.4513    4.1059    0.3802 H   0  0  0  0  0  0  0  0  0  0  0  0
    3.3243    3.8053    1.5779 H   0  0  0  0  0  0  0  0  0  0  0  0
    1.9079    2.7921    2.0298 H   0  0  0  0  0  0  0  0  0  0  0  0
    3.4178    2.0154    1.4665 H   0  0  0  0  0  0  0  0  0  0  0  0
    4.0485    4.0302   -0.8315 H   0  0  0  0  0  0  0  0  0  0  0  0
    4.1513    2.2440   -0.9921 H   0  0  0  0  0  0  0  0  0  0  0  0
    3.1489    3.1940   -2.1382 H   0  0  0  0  0  0  0  0  0  0  0  0
    2.0134   -0.3070    2.3938 H   0  0  0  0  0  0  0  0  0  0  0  0
    3.7359   -0.8128    2.3758 H   0  0  0  0  0  0  0  0  0  0  0  0
    2.5323   -1.9484    4.2660 H   0  0  0  0  0  0  0  0  0  0  0  0
    1.3226   -2.6220    3.1246 H   0  0  0  0  0  0  0  0  0  0  0  0
    3.0325   -3.1701    3.0476 H   0  0  0  0  0  0  0  0  0  0  0  0
    3.8150   -1.0898   -1.8502 H   0  0  0  0  0  0  0  0  0  0  0  0
    3.6856   -2.7752   -1.2443 H   0  0  0  0  0  0  0  0  0  0  0  0
    4.1943   -2.7579   -3.7195 H   0  0  0  0  0  0  0  0  0  0  0  0
    2.5656   -3.4580   -3.4227 H   0  0  0  0  0  0  0  0  0  0  0  0
    2.7202   -1.7744   -4.0243 H   0  0  0  0  0  0  0  0  0  0  0  0
  1  4  1  0  0  0  0
  3  1  1  0  0  0  0
  4 14  1  0  0  0  0
  5  1  1  0  0  0  0
  6 29  1  0  0  0  0
  7  8  1  0  0  0  0
  7  6  1  0  0  0  0
  8  2  1  6  0  0  0
  9 31  1  6  0  0  0
  9  3  1  0  0  0  0
  9 10  1  0  0  0  0
  9  8  1  0  0  0  0
 10 12  1  0  0  0  0
 11 10  1  0  0  0  0
 11 32  1  0  0  0  0
 11 34  1  0  0  0  0
 12 37  1  0  0  0  0
 12 35  1  0  0  0  0
 12 36  1  0  0  0  0
 13 39  1  0  0  0  0
 13 38  1  0  0  0  0
 13 10  1  0  0  0  0
 14 42  1  0  0  0  0
 14 41  1  0  0  0  0
 14 15  1  0  0  0  0
 15 43  1  0  0  0  0
 16 46  1  0  0  0  0
 16  5  1  0  0  0  0
 16 47  1  0  0  0  0
 17 16  1  0  0  0  0
 18  6  1  0  0  0  0
 18 19  1  0  0  0  0
 19 24  1  0  0  0  0
 20 19  2  0  0  0  0
 20 25  1  0  0  0  0
 21 20  1  0  0  0  0
 22 23  1  0  0  0  0
 22 21  2  0  0  0  0
 23 18  2  0  0  0  0
 26 21  1  0  0  0  0
 27 22  1  0  0  0  0
 28 23  1  0  0  0  0
 30  7  1  0  0  0  0
 33 11  1  0  0  0  0
 40 13  1  0  0  0  0
 44 15  1  0  0  0  0
 45 15  1  0  0  0  0
 48 17  1  0  0  0  0
 49 17  1  0  0  0  0
 50 17  1  0  0  0  0
M  END
