34
q = -1.0

 35 36  0  0  0  0  0  0  0  0999 V2000
   -6.3762    0.5722   -0.7980 O   0  0  0  0  0  0  0  0  0  0  0  0
   -5.5975   -1.9150    0.0039 O   0  0  0  0  0  0  0  0  0  0  0  0
   -4.7588    2.6566   -0.6097 O   0  0  0  0  0  0  0  0  0  0  0  0
   -5.1302    0.3644   -0.3018 C   0  0  0  0  0  0  0  0  0  0  0  0
   -2.9063    1.2743    0.2018 C   0  0  0  0  0  0  0  0  0  0  0  0
   -2.2135    2.1246    0.2622 H   0  0  0  0  0  0  0  0  0  0  0  0
   -4.6796   -0.9197    0.1035 C   0  0  0  0  0  0  0  0  0  0  0  0
   -0.2689   -0.8486   -0.1348 C   0  0  0  0  0  0  0  0  0  0  0  0
   -3.9250    3.7977   -0.5875 C   0  0  0  0  0  0  0  0  0  0  0  0
   -3.5486    4.0189    0.4370 H   0  0  0  0  0  0  0  0  0  0  0  0
   -4.5459    4.6451   -0.9314 H   0  0  0  0  0  0  0  0  0  0  0  0
   -3.0542    3.6884   -1.2734 H   0  0  0  0  0  0  0  0  0  0  0  0
   -2.4767   -0.0027    0.6013 C   0  0  0  0  0  0  0  0  0  0  0  0
   -3.3550   -1.0992    0.5532 C   0  0  0  0  0  0  0  0  0  0  0  0
   -3.0033   -2.0939    0.8581 H   0  0  0  0  0  0  0  0  0  0  0  0
   -4.2357    1.4649   -0.2332 C   0  0  0  0  0  0  0  0  0  0  0  0
   -1.0271   -0.2185    1.0033 C   0  0  0  0  0  0  0  0  0  0  0  0
   -0.5677    0.7538    1.2741 H   0  0  0  0  0  0  0  0  0  0  0  0
   -0.9602   -0.8728    1.8953 H   0  0  0  0  0  0  0  0  0  0  0  0
    0.0541   -0.2171   -1.3758 C   0  0  0  0  0  0  0  0  0  0  0  0
   -0.1730    0.8277   -1.6249 H   0  0  0  0  0  0  0  0  0  0  0  0
    0.6832   -1.1740   -2.2384 C   0  0  0  0  0  3  0  0  0  0  0  0
    0.9782   -1.0099   -3.2821 H   0  0  0  0  0  0  0  0  0  0  0  0
   -7.4688    0.4257    0.1114 C   0  0  0  0  0  0  0  0  0  0  0  0
   -7.5516   -0.6134    0.4919 H   0  0  0  0  0  0  0  0  0  0  0  0
   -8.3825    0.6807   -0.4567 H   0  0  0  0  0  0  0  0  0  0  0  0
   -7.3688    1.1276    0.9681 H   0  0  0  0  0  0  0  0  0  0  0  0
    0.1957   -2.2074   -0.2160 C   0  0  0  0  0  3  0  0  0  0  0  0
    0.0587   -2.9723    0.5589 H   0  0  0  0  0  0  0  0  0  0  0  0
   -5.2170   -3.2310    0.3637 C   0  0  0  0  0  0  0  0  0  0  0  0
   -4.3820   -3.6048   -0.2699 H   0  0  0  0  0  0  0  0  0  0  0  0
   -6.1049   -3.8680    0.1990 H   0  0  0  0  0  0  0  0  0  0  0  0
   -4.9172   -3.2978    1.4334 H   0  0  0  0  0  0  0  0  0  0  0  0
    0.7645   -2.4216   -1.5224 C   0  0  0  0  0  3  0  0  0  0  0  0
    1.1295   -3.3755   -1.9218 H   0  0  0  0  0  0  0  0  0  0  0  0
  1  4  1  0  0  0  0
  1 24  1  0  0  0  0
  2  7  1  0  0  0  0
  2 30  1  0  0  0  0
  3  9  1  0  0  0  0
  3 16  1  0  0  0  0
  4 16  2  0  0  0  0
  4  7  1  0  0  0  0
  5  6  1  0  0  0  0
  5 13  2  0  0  0  0
  7 14  2  0  0  0  0
  8 17  1  0  0  0  0
  9 10  1  0  0  0  0
 11  9  1  0  0  0  0
 12  9  1  0  0  0  0
 13 17  1  0  0  0  0
 14 13  1  0  0  0  0
 14 15  1  0  0  0  0
 16  5  1  0  0  0  0
 17 18  1  0  0  0  0
 17 19  1  0  0  0  0
 20  8  2  0  0  0  0
 21 20  1  0  0  0  0
 22 34  1  0  0  0  0
 22 20  1  0  0  0  0
 23 22  1  0  0  0  0
 24 25  1  0  0  0  0
 24 27  1  0  0  0  0
 26 24  1  0  0  0  0
 28  8  1  0  0  0  0
 28 29  1  0  0  0  0
 30 33  1  0  0  0  0
 31 30  1  0  0  0  0
 32 30  1  0  0  0  0
 34 28  1  0  0  0  0
 35 34  1  0  0  0  0
M  END
