1
q = -1.0

 14 13  0  0  0  0  0  0  0  0999 V2000
   -0.9441    0.2819   -2.2331 C   0  0  0  0  0  3  0  0  0  0  0  0
   -0.2201   -0.4829   -2.5556 H   0  0  0  0  0  0  0  0  0  0  0  0
   -1.6462   -2.4608   -1.5579 O   0  0  0  0  0  0  0  0  0  0  0  0
   -3.6476   -1.7187   -0.7795 O   0  0  0  0  0  0  0  0  0  0  0  0
   -2.4083   -1.5338   -1.3180 C   0  0  0  0  0  0  0  0  0  0  0  0
   -2.1399   -0.0991   -1.5532 C   0  0  0  0  0  3  0  0  0  0  0  0
   -3.0365    0.5332   -1.6408 H   0  0  0  0  0  0  0  0  0  0  0  0
   -0.7454    1.6857   -2.3760 C   0  0  0  0  0  3  0  0  0  0  0  0
   -1.6218    2.3269   -2.5618 H   0  0  0  0  0  0  0  0  0  0  0  0
    0.1881    2.0471   -2.8362 H   0  0  0  0  0  0  0  0  0  0  0  0
   -4.0086   -3.0793   -0.5369 C   0  0  0  0  0  0  0  0  0  0  0  0
   -3.9803   -3.6725   -1.4736 H   0  0  0  0  0  0  0  0  0  0  0  0
   -5.0328   -3.0578   -0.1237 H   0  0  0  0  0  0  0  0  0  0  0  0
   -3.3123   -3.5546    0.1854 H   0  0  0  0  0  0  0  0  0  0  0  0
  1  6  1  0  0  0  0
  2  1  1  0  0  0  0
  3  5  2  0  0  0  0
  4 11  1  0  0  0  0
  5  4  1  0  0  0  0
  6  5  1  0  0  0  0
  7  6  1  0  0  0  0
  8  1  1  0  0  0  0
  9  8  1  0  0  0  0
 10  8  1  0  0  0  0
 11 13  1  0  0  0  0
 11 14  1  0  0  0  0
 12 11  1  0  0  0  0
M  END
