30
q = -1.0

 33 35  0  0  1  0  0  0  0  0999 V2000
   -4.7189   -0.7293   -1.3723 C   0  0  0  0  0  0  0  0  0  0  0  0
   -5.3636   -0.7653   -2.2624 H   0  0  0  0  0  0  0  0  0  0  0  0
   -6.6134   -0.0017   -0.1793 O   0  0  0  0  0  0  0  0  0  0  0  0
   -1.0717   -1.4103   -0.3796 C   0  0  0  0  0  0  0  0  0  0  0  0
   -0.9134   -2.4298    0.0330 H   0  0  0  0  0  0  0  0  0  0  0  0
   -0.7771   -1.4720   -1.4465 H   0  0  0  0  0  0  0  0  0  0  0  0
   -3.3660   -1.0719   -1.4366 C   0  0  0  0  0  0  0  0  0  0  0  0
   -2.9366   -1.3880   -2.4011 H   0  0  0  0  0  0  0  0  0  0  0  0
    1.2822    2.9068    0.8942 C   0  0  0  0  0  0  0  0  0  0  0  0
    1.9129    3.3729    1.6657 H   0  0  0  0  0  0  0  0  0  0  0  0
    0.8794    1.5459    1.0274 C   0  0  0  0  0  0  0  0  0  0  0  0
    0.0574    0.9314   -0.0079 C   0  0  0  0  0  0  0  0  0  0  0  0
    0.0359    3.0259   -1.2208 C   0  0  0  0  0  0  0  0  0  0  0  0
   -0.2865    3.6351   -2.0785 H   0  0  0  0  0  0  0  0  0  0  0  0
    1.1568    0.5356    2.0186 C   0  0  0  0  0  3  0  0  0  0  0  0
    1.7182    0.6821    2.9486 H   0  0  0  0  0  0  0  0  0  0  0  0
   -0.3605    1.6982   -1.1339 C   0  0  0  0  0  0  0  0  0  0  0  0
   -0.9999    1.2416   -1.9034 H   0  0  0  0  0  0  0  0  0  0  0  0
   -4.4770   -0.2605    1.0032 C   0  0  0  0  0  0  0  0  0  0  0  0
   -4.8888    0.0595    1.9696 H   0  0  0  0  0  0  0  0  0  0  0  0
   -2.5395   -1.0244   -0.2942 C   0  0  0  0  0  0  0  0  0  0  0  0
    0.8552    3.6251   -0.2148 C   0  0  0  0  0  0  0  0  0  0  0  0
    1.1495    4.6796   -0.3252 H   0  0  0  0  0  0  0  0  0  0  0  0
   -7.2308    0.4163    1.0220 C   0  0  0  0  0  0  0  0  0  0  0  0
   -7.1881   -0.3710    1.8084 H   0  0  0  0  0  0  0  0  0  0  0  0
   -8.2897    0.6201    0.7767 H   0  0  0  0  0  0  0  0  0  0  0  0
   -6.7692    1.3456    1.4265 H   0  0  0  0  0  0  0  0  0  0  0  0
   -3.1201   -0.6091    0.9168 C   0  0  0  0  0  0  0  0  0  0  0  0
   -2.4972   -0.5472    1.8231 H   0  0  0  0  0  0  0  0  0  0  0  0
    0.4661   -0.6595    1.6258 C   0  0  0  0  0  3  0  0  0  0  0  0
    0.4321   -1.5955    2.1974 H   0  0  0  0  0  0  0  0  0  0  0  0
   -0.1660   -0.4536    0.3509 C   0  0  1  0  0  3  0  0  0  0  0  0
   -5.2892   -0.3199   -0.1483 C   0  0  0  0  0  0  0  0  0  0  0  0
  1 33  1  0  0  0  0
  2  1  1  0  0  0  0
  3 33  1  0  0  0  0
  3 24  1  0  0  0  0
  4 21  1  0  0  0  0
  4  5  1  0  0  0  0
  6  4  1  0  0  0  0
  7  1  2  0  0  0  0
  7 21  1  0  0  0  0
  8  7  1  0  0  0  0
  9 11  1  0  0  0  0
  9 10  1  0  0  0  0
 11 15  1  0  0  0  0
 12 32  1  0  0  0  0
 12 11  2  0  0  0  0
 13 17  2  0  0  0  0
 13 22  1  0  0  0  0
 14 13  1  0  0  0  0
 15 16  1  0  0  0  0
 17 12  1  0  0  0  0
 18 17  1  0  0  0  0
 19 20  1  0  0  0  0
 21 28  2  0  0  0  0
 22  9  2  0  0  0  0
 23 22  1  0  0  0  0
 24 27  1  0  0  0  0
 24 25  1  0  0  0  0
 26 24  1  0  0  0  0
 28 19  1  0  0  0  0
 28 29  1  0  0  0  0
 30 15  1  0  0  0  0
 30 31  1  0  0  0  0
 32  4  1  1  0  0  0
 32 30  1  0  0  0  0
 33 19  2  0  0  0  0
M  END
