1
q = 0.0, confidence = 0.998

 53 55  0  0  0  0  0  0  0  0999 V2000
   -0.1884    0.9961    0.0071 C   0  0  0  0  0  2  0  0  0  0  0  0
   -3.0946    3.0838   -0.0034 O   0  0  0  0  0  0  0  0  0  0  0  0
    3.0295    1.4249   -0.8802 C   0  0  0  0  0  0  0  0  0  0  0  0
   -3.3238    0.0980   -0.9328 C   0  0  0  0  0  0  0  0  0  0  0  0
   -3.0961    0.6633   -2.3045 C   0  0  0  0  0  0  0  0  0  0  0  0
   -3.7109    0.1342   -3.0567 H   0  0  0  0  0  0  0  0  0  0  0  0
   -2.0307    0.5840   -2.6066 H   0  0  0  0  0  0  0  0  0  0  0  0
   -3.3788    1.7370   -2.3262 H   0  0  0  0  0  0  0  0  0  0  0  0
    1.5743    4.1265    0.1667 O   0  0  0  0  0  0  0  0  0  0  0  0
   -2.2715    0.8357    2.6911 C   0  0  0  0  0  0  0  0  0  0  0  0
   -1.1704    0.7024    2.6702 H   0  0  0  0  0  0  0  0  0  0  0  0
   -2.6456    0.4104    3.6410 H   0  0  0  0  0  0  0  0  0  0  0  0
   -2.4586    1.9301    2.7108 H   0  0  0  0  0  0  0  0  0  0  0  0
    2.6315    1.2455    1.5490 C   0  0  0  0  0  0  0  0  0  0  0  0
   -3.9628   -0.7610    1.6830 C   0  0  0  0  0  0  0  0  0  0  0  0
   -4.2317   -1.0663    2.7069 H   0  0  0  0  0  0  0  0  0  0  0  0
    4.7678    0.4933    0.5998 C   0  0  0  0  0  0  0  0  0  0  0  0
   -2.5904    0.5473    0.1864 C   0  0  0  0  0  0  0  0  0  0  0  0
    2.1685    1.4970    0.2379 C   0  0  0  0  0  0  0  0  0  0  0  0
    3.9244    0.7184    1.7034 C   0  0  0  0  0  0  0  0  0  0  0  0
    4.2876    0.4928    2.7192 H   0  0  0  0  0  0  0  0  0  0  0  0
    4.3138    0.8902   -0.6715 C   0  0  0  0  0  0  0  0  0  0  0  0
    4.9875    0.7975   -1.5386 H   0  0  0  0  0  0  0  0  0  0  0  0
   -2.9434    0.1895    1.5067 C   0  0  0  0  0  0  0  0  0  0  0  0
    0.6046    3.3826    0.0869 C   0  0  0  0  0  0  0  0  0  0  0  0
   -4.3299   -0.8586   -0.7005 C   0  0  0  0  0  0  0  0  0  0  0  0
   -4.8944   -1.2416   -1.5656 H   0  0  0  0  0  0  0  0  0  0  0  0
    6.1212   -0.1476    0.7754 C   0  0  0  0  0  0  0  0  0  0  0  0
    6.5408    0.0476    1.7821 H   0  0  0  0  0  0  0  0  0  0  0  0
    6.8469    0.2137    0.0202 H   0  0  0  0  0  0  0  0  0  0  0  0
    6.0533   -1.2514    0.6584 H   0  0  0  0  0  0  0  0  0  0  0  0
   -0.7786    3.7871    0.0051 C   0  0  0  0  0  0  0  0  0  0  0  0
   -0.9827    4.8621   -0.0160 H   0  0  0  0  0  0  0  0  0  0  0  0
   -1.7758    2.8454    0.0037 C   0  0  0  0  0  0  0  0  0  0  0  0
   -3.5303    4.4394   -0.0248 C   0  0  0  0  0  0  0  0  0  0  0  0
   -4.6340    4.4035   -0.0228 H   0  0  0  0  0  0  0  0  0  0  0  0
   -3.1751    4.9585   -0.9400 H   0  0  0  0  0  0  0  0  0  0  0  0
   -3.1722    4.9888    0.8716 H   0  0  0  0  0  0  0  0  0  0  0  0
    2.6270    1.9747   -2.2180 C   0  0  0  0  0  0  0  0  0  0  0  0
    1.6533    1.5653   -2.5547 H   0  0  0  0  0  0  0  0  0  0  0  0
    3.3853    1.7369   -2.9877 H   0  0  0  0  0  0  0  0  0  0  0  0
    2.5365    3.0791   -2.1477 H   0  0  0  0  0  0  0  0  0  0  0  0
   -4.6451   -1.3243    0.5884 C   0  0  0  0  0  0  0  0  0  0  0  0
    1.8005    1.6137    2.7505 C   0  0  0  0  0  0  0  0  0  0  0  0
    0.7460    1.2880    2.6561 H   0  0  0  0  0  0  0  0  0  0  0  0
    1.7806    2.7179    2.8720 H   0  0  0  0  0  0  0  0  0  0  0  0
    2.2158    1.1753    3.6775 H   0  0  0  0  0  0  0  0  0  0  0  0
   -5.6824   -2.3986    0.7945 C   0  0  0  0  0  0  0  0  0  0  0  0
   -6.4301   -2.4090   -0.0226 H   0  0  0  0  0  0  0  0  0  0  0  0
   -6.2181   -2.2733    1.7563 H   0  0  0  0  0  0  0  0  0  0  0  0
   -5.2073   -3.4034    0.8156 H   0  0  0  0  0  0  0  0  0  0  0  0
    0.7949    1.9488    0.0812 N   0  0  0  0  0  0  0  0  0  0  0  0
   -1.4871    1.4829    0.0219 N   0  0  0  0  0  0  0  0  0  0  0  0
  1 53  1  0  0  0  0
  1 52  1  0  0  0  0
  2 34  1  0  0  0  0
  3 22  2  0  0  0  0
  3 19  1  0  0  0  0
  4 26  2  0  0  0  0
  4 18  1  0  0  0  0
  5  4  1  0  0  0  0
  6  5  1  0  0  0  0
  7  5  1  0  0  0  0
  8  5  1  0  0  0  0
 10 13  1  0  0  0  0
 10 12  1  0  0  0  0
 11 10  1  0  0  0  0
 14 20  1  0  0  0  0
 14 44  1  0  0  0  0
 15 16  1  0  0  0  0
 17 28  1  0  0  0  0
 17 20  2  0  0  0  0
 18 24  2  0  0  0  0
 19 14  2  0  0  0  0
 20 21  1  0  0  0  0
 22 17  1  0  0  0  0
 23 22  1  0  0  0  0
 24 15  1  0  0  0  0
 24 10  1  0  0  0  0
 25  9  2  0  0  0  0
 26 43  1  0  0  0  0
 27 26  1  0  0  0  0
 28 29  1  0  0  0  0
 30 28  1  0  0  0  0
 31 28  1  0  0  0  0
 32 25  1  0  0  0  0
 33 32  1  0  0  0  0
 34 32  2  0  0  0  0
 34 53  1  0  0  0  0
 35 36  1  0  0  0  0
 35  2  1  0  0  0  0
 35 38  1  0  0  0  0
 37 35  1  0  0  0  0
 39 42  1  0  0  0  0
 39  3  1  0  0  0  0
 40 39  1  0  0  0  0
 41 39  1  0  0  0  0
 43 48  1  0  0  0  0
 43 15  2  0  0  0  0
 44 46  1  0  0  0  0
 44 47  1  0  0  0  0
 45 44  1  0  0  0  0
 48 51  1  0  0  0  0
 48 50  1  0  0  0  0
 49 48  1  0  0  0  0
 52 25  1  0  0  0  0
 52 19  1  0  0  0  0
 53 18  1  0  0  0  0
M  END
