3
q = 0.0, confidence = 0.968

 61 61  0  0  0  0  0  0  0  0999 V2000
    3.6616    0.3164   -0.3041 Si  0  0  0  0  0  0  0  0  0  0  0  0
   -3.1659    1.7632    1.1005 N   0  0  0  0  0  0  0  0  0  0  0  0
   -2.2890    1.0704    0.3091 C   0  0  0  0  0  2  0  0  0  0  0  0
   -1.3736    2.0051   -0.0889 N   0  0  0  0  0  0  0  0  0  0  0  0
   -1.6768    3.2583    0.4340 C   0  0  0  0  0  0  0  0  0  0  0  0
   -1.0640    4.1410    0.2299 H   0  0  0  0  0  0  0  0  0  0  0  0
   -2.8207    3.1086    1.1721 C   0  0  0  0  0  0  0  0  0  0  0  0
   -3.4319    3.8349    1.7134 H   0  0  0  0  0  0  0  0  0  0  0  0
   -4.4361    1.2137    1.5640 C   0  0  0  0  0  0  0  0  0  0  0  0
   -4.7234    1.7384    2.4974 H   0  0  0  0  0  0  0  0  0  0  0  0
   -4.2804    0.1394    1.7814 H   0  0  0  0  0  0  0  0  0  0  0  0
   -5.5196    1.3614    0.5031 C   0  0  0  0  0  0  0  0  0  0  0  0
   -5.1819    0.8311   -0.4189 H   0  0  0  0  0  0  0  0  0  0  0  0
   -6.4561    0.8661    0.8660 H   0  0  0  0  0  0  0  0  0  0  0  0
   -5.7217    2.7372    0.2559 O   0  0  0  0  0  0  0  0  0  0  0  0
   -6.2840    2.9913   -1.0148 C   0  0  0  0  0  0  0  0  0  0  0  0
   -6.3362    4.0903   -1.1424 H   0  0  0  0  0  0  0  0  0  0  0  0
   -7.3177    2.5772   -1.1079 H   0  0  0  0  0  0  0  0  0  0  0  0
   -5.6613    2.5564   -1.8313 H   0  0  0  0  0  0  0  0  0  0  0  0
    3.2614   -0.7732    0.9001 O   0  0  0  0  0  0  0  0  0  0  0  0
   -0.2673    1.7052   -0.9916 C   0  0  0  0  0  0  0  0  0  0  0  0
   -0.1784    2.5378   -1.7199 H   0  0  0  0  0  0  0  0  0  0  0  0
   -0.5784    0.8027   -1.5575 H   0  0  0  0  0  0  0  0  0  0  0  0
    1.0607    1.4544   -0.2733 C   0  0  0  0  0  0  0  0  0  0  0  0
    0.8803    0.7273    0.5449 H   0  0  0  0  0  0  0  0  0  0  0  0
    1.4149    2.3876    0.2170 H   0  0  0  0  0  0  0  0  0  0  0  0
    3.4553   -0.6098    2.3152 C   0  0  0  0  0  0  0  0  0  0  0  0
    3.2233    0.4457    2.5885 H   0  0  0  0  0  0  0  0  0  0  0  0
    2.1340    0.8954   -1.2154 C   0  0  0  0  0  0  0  0  0  0  0  0
    2.4139    1.6296   -2.0019 H   0  0  0  0  0  0  0  0  0  0  0  0
    1.7393    0.0099   -1.7607 H   0  0  0  0  0  0  0  0  0  0  0  0
    4.9115   -0.8881    2.6841 C   0  0  0  0  0  0  0  0  0  0  0  0
    5.5791   -0.1664    2.1740 H   0  0  0  0  0  0  0  0  0  0  0  0
    5.1969   -1.9177    2.3845 H   0  0  0  0  0  0  0  0  0  0  0  0
    5.0681   -0.7880    3.7774 H   0  0  0  0  0  0  0  0  0  0  0  0
    4.6262   -0.4195   -1.4505 O   0  0  0  0  0  0  0  0  0  0  0  0
    5.7630   -1.2486   -1.1488 C   0  0  0  0  0  0  0  0  0  0  0  0
    6.2027   -0.9322   -0.1730 H   0  0  0  0  0  0  0  0  0  0  0  0
    5.3121   -2.7033   -1.0328 C   0  0  0  0  0  0  0  0  0  0  0  0
    4.5443   -2.8008   -0.2409 H   0  0  0  0  0  0  0  0  0  0  0  0
    6.1662   -3.3661   -0.7860 H   0  0  0  0  0  0  0  0  0  0  0  0
    4.8701   -3.0423   -1.9921 H   0  0  0  0  0  0  0  0  0  0  0  0
    6.8030   -1.0329   -2.2428 C   0  0  0  0  0  0  0  0  0  0  0  0
    7.1279    0.0256   -2.2756 H   0  0  0  0  0  0  0  0  0  0  0  0
    6.3734   -1.2941   -3.2314 H   0  0  0  0  0  0  0  0  0  0  0  0
    7.6957   -1.6668   -2.0695 H   0  0  0  0  0  0  0  0  0  0  0  0
    4.4342    1.5670    0.5127 O   0  0  0  0  0  0  0  0  0  0  0  0
    4.7454    2.8539   -0.0326 C   0  0  0  0  0  0  0  0  0  0  0  0
    3.8799    3.2120   -0.6432 H   0  0  0  0  0  0  0  0  0  0  0  0
    4.9356    3.8122    1.1383 C   0  0  0  0  0  0  0  0  0  0  0  0
    4.0269    3.8354    1.7716 H   0  0  0  0  0  0  0  0  0  0  0  0
    5.1448    4.8407    0.7821 H   0  0  0  0  0  0  0  0  0  0  0  0
    5.7851    3.4784    1.7686 H   0  0  0  0  0  0  0  0  0  0  0  0
    5.9741    2.7730   -0.9382 C   0  0  0  0  0  0  0  0  0  0  0  0
    5.7957    2.0799   -1.7838 H   0  0  0  0  0  0  0  0  0  0  0  0
    6.8454    2.3969   -0.3634 H   0  0  0  0  0  0  0  0  0  0  0  0
    6.2305    3.7699   -1.3502 H   0  0  0  0  0  0  0  0  0  0  0  0
    2.4778   -1.5373    3.0274 C   0  0  0  0  0  0  0  0  0  0  0  0
    1.4333   -1.3011    2.7460 H   0  0  0  0  0  0  0  0  0  0  0  0
    2.5748   -1.4401    4.1271 H   0  0  0  0  0  0  0  0  0  0  0  0
    2.6775   -2.5926    2.7497 H   0  0  0  0  0  0  0  0  0  0  0  0
  1 47  1  0  0  0  0
  1 20  1  0  0  0  0
  2  7  1  0  0  0  0
  2  9  1  0  0  0  0
  3  2  1  0  0  0  0
  4  3  1  0  0  0  0
  4  5  1  0  0  0  0
  5  7  2  0  0  0  0
  6  5  1  0  0  0  0
  7  8  1  0  0  0  0
  9 11  1  0  0  0  0
  9 10  1  0  0  0  0
 12 14  1  0  0  0  0
 12  9  1  0  0  0  0
 13 12  1  0  0  0  0
 15 12  1  0  0  0  0
 16 15  1  0  0  0  0
 17 16  1  0  0  0  0
 18 16  1  0  0  0  0
 19 16  1  0  0  0  0
 20 27  1  0  0  0  0
 21 24  1  0  0  0  0
 21  4  1  0  0  0  0
 22 21  1  0  0  0  0
 23 21  1  0  0  0  0
 24 26  1  0  0  0  0
 24 25  1  0  0  0  0
 27 28  1  0  0  0  0
 27 32  1  0  0  0  0
 27 58  1  0  0  0  0
 29  1  1  0  0  0  0
 29 24  1  0  0  0  0
 30 29  1  0  0  0  0
 31 29  1  0  0  0  0
 32 35  1  0  0  0  0
 33 32  1  0  0  0  0
 34 32  1  0  0  0  0
 36 37  1  0  0  0  0
 36  1  1  0  0  0  0
 37 39  1  0  0  0  0
 37 38  1  0  0  0  0
 39 41  1  0  0  0  0
 39 40  1  0  0  0  0
 42 39  1  0  0  0  0
 43 46  1  0  0  0  0
 43 37  1  0  0  0  0
 44 43  1  0  0  0  0
 45 43  1  0  0  0  0
 48 47  1  0  0  0  0
 48 50  1  0  0  0  0
 49 48  1  0  0  0  0
 50 53  1  0  0  0  0
 50 51  1  0  0  0  0
 52 50  1  0  0  0  0
 54 56  1  0  0  0  0
 54 48  1  0  0  0  0
 55 54  1  0  0  0  0
 57 54  1  0  0  0  0
 58 60  1  0  0  0  0
 59 58  1  0  0  0  0
 61 58  1  0  0  0  0
M  END
