1
q = -1.0, confidence = 0.0

 17 16  0  0  0  0  0  0  0  0999 V2000
    1.7243    0.7336   -0.8520 C   0  0  0  0  0  3  0  0  0  0  0  0
    2.0656    0.6307   -2.0407 O   0  0  0  0  0  0  0  0  0  0  0  0
    2.0476    1.8797   -0.1470 N   0  0  0  0  0  0  0  0  0  0  0  0
    1.6525    2.1278    1.2307 C   0  0  0  0  0  0  0  0  0  0  0  0
    1.0825    1.2296    1.5525 H   0  0  0  0  0  0  0  0  0  0  0  0
    0.9437    2.9869    1.2596 H   0  0  0  0  0  0  0  0  0  0  0  0
    2.8170    2.3840    2.1876 C   0  0  0  0  0  0  0  0  0  0  0  0
    3.5263    1.5328    2.1955 H   0  0  0  0  0  0  0  0  0  0  0  0
    2.4366    2.5234    3.2200 H   0  0  0  0  0  0  0  0  0  0  0  0
    3.3842    3.2982    1.9187 H   0  0  0  0  0  0  0  0  0  0  0  0
    2.7187    2.9552   -0.8811 C   0  0  0  0  0  0  0  0  0  0  0  0
    2.4978    3.9083   -0.3564 H   0  0  0  0  0  0  0  0  0  0  0  0
    2.2553    3.0123   -1.8876 H   0  0  0  0  0  0  0  0  0  0  0  0
    4.2260    2.7460   -1.0345 C   0  0  0  0  0  0  0  0  0  0  0  0
    4.7352    2.6863   -0.0519 H   0  0  0  0  0  0  0  0  0  0  0  0
    4.6810    3.5790   -1.6087 H   0  0  0  0  0  0  0  0  0  0  0  0
    4.4141    1.8059   -1.5886 H   0  0  0  0  0  0  0  0  0  0  0  0
  1  3  1  0  0  0  0
  2  1  2  0  0  0  0
  3  4  1  0  0  0  0
  4  6  1  0  0  0  0
  4  5  1  0  0  0  0
  4  7  1  0  0  0  0
  7  8  1  0  0  0  0
  7  9  1  0  0  0  0
 10  7  1  0  0  0  0
 11 12  1  0  0  0  0
 11  3  1  0  0  0  0
 13 11  1  0  0  0  0
 14 11  1  0  0  0  0
 14 15  1  0  0  0  0
 16 14  1  0  0  0  0
 17 14  1  0  0  0  0
M  END
