8
q = 0.0, confidence = 0.958

 34 34  0  0  1  0  0  0  0  0999 V2000
   -4.3469   -1.3858    0.5472 O   0  0  0  0  0  0  0  0  0  0  0  0
   -4.4265    0.2069   -1.0737 O   0  0  0  0  0  0  0  0  0  0  0  0
    2.4825   -2.1992   -1.0733 O   0  0  0  0  0  0  0  0  0  0  0  0
    2.1895    0.1405    1.7200 O   0  0  0  0  0  0  0  0  0  0  0  0
   -5.7292   -1.1279    0.8147 C   0  0  0  0  0  0  0  0  0  0  0  0
   -3.7992   -0.6253   -0.4364 C   0  0  0  0  0  0  0  0  0  0  0  0
   -2.3606   -0.9431   -0.6098 C   0  0  0  0  0  3  0  0  0  0  0  0
   -1.6859   -0.4287   -1.7701 C   0  0  0  0  0  3  0  0  0  0  0  0
   -0.2663   -0.5146   -1.7865 C   0  0  0  0  0  3  0  0  0  0  0  0
    0.3765   -1.0871   -0.6327 C   0  0  0  0  0  3  0  0  0  0  0  0
    1.8797   -1.0390   -0.4892 C   0  0  1  0  0  0  0  0  0  0  0  0
    2.3108   -1.0641    0.9673 C   0  0  1  0  0  0  0  0  0  0  0  0
    3.5136   -0.3644    1.4658 C   0  0  1  0  0  0  0  0  0  0  0  0
    4.4337    0.4484    0.5840 C   0  0  0  0  0  0  0  0  0  0  0  0
    5.4488   -0.4278   -0.1633 C   0  0  0  0  0  0  0  0  0  0  0  0
    6.4009    0.3779   -1.0468 C   0  0  0  0  0  0  0  0  0  0  0  0
   -5.8857   -0.0661    1.0937 H   0  0  0  0  0  0  0  0  0  0  0  0
   -6.0099   -1.7929    1.6506 H   0  0  0  0  0  0  0  0  0  0  0  0
   -6.3523   -1.3436   -0.0770 H   0  0  0  0  0  0  0  0  0  0  0  0
   -2.0354   -1.8803   -0.1348 H   0  0  0  0  0  0  0  0  0  0  0  0
    2.1224   -2.2864   -1.9753 H   0  0  0  0  0  0  0  0  0  0  0  0
   -2.2492    0.1109   -2.5465 H   0  0  0  0  0  0  0  0  0  0  0  0
    0.3074   -0.0254   -2.5914 H   0  0  0  0  0  0  0  0  0  0  0  0
   -0.0626   -1.9960   -0.1849 H   0  0  0  0  0  0  0  0  0  0  0  0
    2.2608   -0.1055   -0.9652 H   0  0  0  0  0  0  0  0  0  0  0  0
    1.9817   -1.9847    1.4922 H   0  0  0  0  0  0  0  0  0  0  0  0
    3.9979   -0.8093    2.3592 H   0  0  0  0  0  0  0  0  0  0  0  0
    4.9631    1.1971    1.2135 H   0  0  0  0  0  0  0  0  0  0  0  0
    3.8246    1.0375   -0.1326 H   0  0  0  0  0  0  0  0  0  0  0  0
    4.8916   -1.1731   -0.7713 H   0  0  0  0  0  0  0  0  0  0  0  0
    6.0341   -1.0201    0.5746 H   0  0  0  0  0  0  0  0  0  0  0  0
    7.1202   -0.2780   -1.5770 H   0  0  0  0  0  0  0  0  0  0  0  0
    5.8450    0.9550   -1.8154 H   0  0  0  0  0  0  0  0  0  0  0  0
    6.9887    1.1077   -0.4515 H   0  0  0  0  0  0  0  0  0  0  0  0
  1  5  1  0  0  0  0
  2  6  2  0  0  0  0
  3 11  1  0  0  0  0
  5 17  1  0  0  0  0
  5 18  1  0  0  0  0
  6  1  1  0  0  0  0
  7  6  1  0  0  0  0
  7 20  1  0  0  0  0
  8  7  1  0  0  0  0
  9  8  1  0  0  0  0
  9 10  1  0  0  0  0
 10 11  1  0  0  0  0
 10 24  1  0  0  0  0
 11 25  1  6  0  0  0
 11 12  1  0  0  0  0
 12 13  1  0  0  0  0
 12 26  1  1  0  0  0
 12  4  1  0  0  0  0
 13  4  1  0  0  0  0
 13 27  1  1  0  0  0
 14 28  1  0  0  0  0
 14 13  1  0  0  0  0
 15 31  1  0  0  0  0
 15 14  1  0  0  0  0
 16 34  1  0  0  0  0
 16 15  1  0  0  0  0
 19  5  1  0  0  0  0
 21  3  1  0  0  0  0
 22  8  1  0  0  0  0
 23  9  1  0  0  0  0
 29 14  1  0  0  0  0
 30 15  1  0  0  0  0
 32 16  1  0  0  0  0
 33 16  1  0  0  0  0
M  END
