3
q = -1.0

 19 19  0  0  1  0  0  0  0  0999 V2000
   -2.5110   -0.0224    0.0085 Si  0  0  0  0  0  0  0  0  0  0  0  0
   -2.2615   -0.9828    1.3261 F   0  0  0  0  0  0  0  0  0  0  0  0
   -0.9081    0.9136   -0.3242 C   0  0  2  0  0  3  0  0  0  0  0  0
    0.9668    1.7793   -1.3941 C   0  0  0  0  0  0  0  0  0  0  0  0
    1.7503    1.9621   -2.1389 H   0  0  0  0  0  0  0  0  0  0  0  0
   -2.9552   -1.0965   -1.4540 C   0  0  0  0  0  0  0  0  0  0  0  0
   -3.1569   -0.4808   -2.3547 H   0  0  0  0  0  0  0  0  0  0  0  0
   -3.8664   -1.6893   -1.2362 H   0  0  0  0  0  0  0  0  0  0  0  0
   -2.1282   -1.7975   -1.6838 H   0  0  0  0  0  0  0  0  0  0  0  0
    0.9684    2.2567   -0.0467 C   0  0  0  0  0  0  0  0  0  0  0  0
    1.7554    2.8649    0.4163 H   0  0  0  0  0  0  0  0  0  0  0  0
   -0.1873    1.7427    0.5999 C   0  0  0  0  0  0  0  0  0  0  0  0
   -0.4499    1.8976    1.6531 H   0  0  0  0  0  0  0  0  0  0  0  0
   -0.1813    0.9641   -1.5652 C   0  0  0  0  0  0  0  0  0  0  0  0
   -0.4399    0.4100   -2.4754 H   0  0  0  0  0  0  0  0  0  0  0  0
   -3.8478    1.2046    0.4760 C   0  0  0  0  0  0  0  0  0  0  0  0
   -4.0458    1.9098   -0.3570 H   0  0  0  0  0  0  0  0  0  0  0  0
   -3.5470    1.7987    1.3626 H   0  0  0  0  0  0  0  0  0  0  0  0
   -4.7950    0.6813    0.7187 H   0  0  0  0  0  0  0  0  0  0  0  0
  1 16  1  0  0  0  0
  1  2  1  0  0  0  0
  3  1  1  6  0  0  0
  3 12  1  0  0  0  0
  4 10  1  0  0  0  0
  5  4  1  0  0  0  0
  6  8  1  0  0  0  0
  6  1  1  0  0  0  0
  7  6  1  0  0  0  0
  9  6  1  0  0  0  0
 10 11  1  0  0  0  0
 10 12  2  0  0  0  0
 12 13  1  0  0  0  0
 14  4  2  0  0  0  0
 14  3  1  0  0  0  0
 15 14  1  0  0  0  0
 16 19  1  0  0  0  0
 16 18  1  0  0  0  0
 17 16  1  0  0  0  0
M  END
