11
q = 0.0, confidence = 1.0

 31 34  0  0  0  0  0  0  0  0999 V2000
    1.4718    1.7299   -1.1286 O   0  0  0  0  0  0  0  0  0  0  0  0
    2.2231    2.3270    0.9486 O   0  0  0  0  0  0  0  0  0  0  0  0
    1.4699   -1.7285   -1.1267 O   0  0  0  0  0  0  0  0  0  0  0  0
    2.2226   -2.3246    0.9505 O   0  0  0  0  0  0  0  0  0  0  0  0
    1.6941    1.2427    0.1859 C   0  0  0  0  0  0  0  0  0  0  0  0
    2.6093    0.0010    0.1415 C   0  0  0  0  0  0  0  0  0  0  0  0
    1.6939   -1.2405    0.1876 C   0  0  0  0  0  0  0  0  0  0  0  0
    0.4346   -0.7043    0.8806 C   0  0  0  0  0  0  0  0  0  0  0  0
   -0.6166   -1.4360    1.5081 C   0  0  0  0  0  0  0  0  0  0  0  0
   -1.6501   -0.7150    2.1578 C   0  0  0  0  0  0  0  0  0  0  0  0
   -1.6509    0.7192    2.1553 C   0  0  0  0  0  3  0  0  0  0  0  0
   -0.6175    1.4401    1.5050 C   0  0  0  0  0  3  0  0  0  0  0  0
    0.4339    0.7076    0.8787 C   0  0  0  0  0  0  0  0  0  0  0  0
    1.4278    3.1506   -1.0516 C   0  0  0  0  0  0  0  0  0  0  0  0
    2.4262    3.4319    0.0682 C   0  0  0  0  0  0  0  0  0  0  0  0
    1.4338   -3.1495   -1.0511 C   0  0  0  0  0  0  0  0  0  0  0  0
    2.4335   -3.4266    0.0684 C   0  0  0  0  0  0  0  0  0  0  0  0
    3.2576    0.0007   -0.7522 H   0  0  0  0  0  0  0  0  0  0  0  0
    3.2224    0.0017    1.0619 H   0  0  0  0  0  0  0  0  0  0  0  0
   -0.6209   -2.5339    1.4924 H   0  0  0  0  0  0  0  0  0  0  0  0
   -2.4845   -1.2559    2.6249 H   0  0  0  0  0  0  0  0  0  0  0  0
   -2.4859    1.2606    2.6207 H   0  0  0  0  0  0  0  0  0  0  0  0
   -0.6228    2.5379    1.4873 H   0  0  0  0  0  0  0  0  0  0  0  0
    0.4040    3.5139   -0.8019 H   0  0  0  0  0  0  0  0  0  0  0  0
    1.7167    3.5607   -2.0386 H   0  0  0  0  0  0  0  0  0  0  0  0
    3.4732    3.4485   -0.3149 H   0  0  0  0  0  0  0  0  0  0  0  0
    2.2308    4.3711    0.6234 H   0  0  0  0  0  0  0  0  0  0  0  0
    1.7252   -3.5570   -2.0385 H   0  0  0  0  0  0  0  0  0  0  0  0
    0.4120   -3.5187   -0.8020 H   0  0  0  0  0  0  0  0  0  0  0  0
    2.2440   -4.3678    0.6222 H   0  0  0  0  0  0  0  0  0  0  0  0
    3.4808   -3.4358   -0.3144 H   0  0  0  0  0  0  0  0  0  0  0  0
  1 14  1  0  0  0  0
  1  5  1  0  0  0  0
  3 16  1  0  0  0  0
  3  7  1  0  0  0  0
  5 13  1  0  0  0  0
  5  2  1  0  0  0  0
  6  5  1  0  0  0  0
  6  7  1  0  0  0  0
  6 19  1  0  0  0  0
  7  8  1  0  0  0  0
  7  4  1  0  0  0  0
  8  9  1  0  0  0  0
  9 10  2  0  0  0  0
 10 21  1  0  0  0  0
 11 10  1  0  0  0  0
 11 22  1  0  0  0  0
 12 11  1  0  0  0  0
 13  8  2  0  0  0  0
 13 12  1  0  0  0  0
 14 24  1  0  0  0  0
 14 15  1  0  0  0  0
 15 27  1  0  0  0  0
 15  2  1  0  0  0  0
 16 29  1  0  0  0  0
 16 17  1  0  0  0  0
 17 30  1  0  0  0  0
 17  4  1  0  0  0  0
 18  6  1  0  0  0  0
 20  9  1  0  0  0  0
 23 12  1  0  0  0  0
 25 14  1  0  0  0  0
 26 15  1  0  0  0  0
 28 16  1  0  0  0  0
 31 17  1  0  0  0  0
M  END
