13
q = -1.0

 20 20  0  0  0  0  0  0  0  0999 V2000
   -8.5738   -2.5515    0.1534 O   0  0  0  0  0  0  0  0  0  0  0  0
   -6.6595   -1.2367    0.0738 N   0  0  0  0  0  0  0  0  0  0  0  0
   -6.5062   -3.5458    0.1416 N   0  0  0  0  0  0  0  0  0  0  0  0
   -8.0744    2.7435   -0.0765 N   0  0  0  0  0  0  0  0  0  0  0  0
   -6.7718    2.4489   -0.0707 C   0  0  0  0  0  0  0  0  0  0  0  0
   -6.2458    1.1323   -0.0210 C   0  0  0  0  0  0  0  0  0  0  0  0
   -7.1838    0.0453    0.0277 C   0  0  0  0  0  0  0  0  0  0  0  0
   -8.5572    0.3587    0.0225 C   0  0  0  0  0  0  0  0  0  0  0  0
   -8.9328    1.7071   -0.0308 C   0  0  0  0  0  0  0  0  0  0  0  0
   -4.8551    0.8644   -0.0213 C   0  0  0  0  0  0  0  0  0  0  0  0
   -3.6513    0.5497   -0.0214 C   0  0  0  0  0  0  0  0  0  0  0  0
   -2.3319    0.2197   -0.0222 C   0  0  0  0  0  2  0  0  0  0  0  0
   -1.1171   -0.0730   -0.0224 C   0  0  0  0  0  1  0  0  0  0  0  0
   -7.3526   -2.4513    0.1124 C   0  0  0  0  0  0  0  0  0  0  0  0
   -6.0611    3.2933   -0.1079 H   0  0  0  0  0  0  0  0  0  0  0  0
   -9.2956   -0.4503    0.0633 H   0  0  0  0  0  0  0  0  0  0  0  0
  -10.0075    1.9634   -0.0353 H   0  0  0  0  0  0  0  0  0  0  0  0
   -5.6331   -1.2513    0.1091 H   0  0  0  0  0  0  0  0  0  0  0  0
   -6.9714   -4.4446    0.0199 H   0  0  0  0  0  0  0  0  0  0  0  0
   -5.5435   -3.4828   -0.1907 H   0  0  0  0  0  0  0  0  0  0  0  0
  2 18  1  0  0  0  0
  2 14  1  0  0  0  0
  4  5  2  0  0  0  0
  4  9  1  0  0  0  0
  5  6  1  0  0  0  0
  6  7  2  0  0  0  0
  7  2  1  0  0  0  0
  8  7  1  0  0  0  0
  8 16  1  0  0  0  0
  9  8  2  0  0  0  0
 10  6  1  0  0  0  0
 11 10  3  0  0  0  0
 12 11  1  0  0  0  0
 13 12  1  0  0  0  0
 14  3  1  0  0  0  0
 14  1  2  0  0  0  0
 15  5  1  0  0  0  0
 17  9  1  0  0  0  0
 19  3  1  0  0  0  0
 20  3  1  0  0  0  0
M  END
