10
q = 0.0, confidence = 0.996

 51 54  0  0  1  0  0  0  0  0999 V2000
    4.6114   -0.1501   -2.3446 F   0  0  0  0  0  0  0  0  0  0  0  0
    4.0586    1.9571   -2.2986 F   0  0  0  0  0  0  0  0  0  0  0  0
    2.5079    0.4304   -2.2549 F   0  0  0  0  0  0  0  0  0  0  0  0
    5.5204    2.3496   -0.0696 F   0  0  0  0  0  0  0  0  0  0  0  0
    5.1441    1.0668    1.6495 F   0  0  0  0  0  0  0  0  0  0  0  0
    6.1545    0.2695   -0.1168 F   0  0  0  0  0  0  0  0  0  0  0  0
    2.9000    1.7943    0.0848 O   0  0  0  0  0  0  0  0  0  0  0  0
    1.3327    0.4025    1.1717 N   0  0  0  0  0  0  0  0  0  0  0  0
   -0.1370    2.0110    0.9003 N   0  0  0  0  0  0  0  0  0  0  0  0
    0.0064    0.6572    0.8031 C   0  0  0  0  0  2  0  0  0  0  0  0
    2.0684   -0.7735    0.9197 C   0  0  0  0  0  0  0  0  0  0  0  0
    1.6164   -2.0309    1.3540 C   0  0  0  0  0  0  0  0  0  0  0  0
    0.6765   -2.0855    1.9267 H   0  0  0  0  0  0  0  0  0  0  0  0
    2.3794   -3.1713    1.0975 C   0  0  0  0  0  0  0  0  0  0  0  0
    2.0123   -4.1517    1.4395 H   0  0  0  0  0  0  0  0  0  0  0  0
    3.6193   -3.0841    0.4304 C   0  0  0  0  0  0  0  0  0  0  0  0
    4.4342   -4.3213    0.1519 C   0  0  0  0  0  0  0  0  0  0  0  0
    4.6201   -4.9009    1.0797 H   0  0  0  0  0  0  0  0  0  0  0  0
    5.4146   -4.0726   -0.2976 H   0  0  0  0  0  0  0  0  0  0  0  0
    3.9036   -4.9988   -0.5497 H   0  0  0  0  0  0  0  0  0  0  0  0
    4.0700   -1.8142    0.0302 C   0  0  0  0  0  0  0  0  0  0  0  0
    5.0314   -1.7366   -0.4930 H   0  0  0  0  0  0  0  0  0  0  0  0
    3.3118   -0.6495    0.2588 C   0  0  0  0  0  0  0  0  0  0  0  0
    3.7647    0.7183   -0.2592 C   0  0  0  0  0  0  0  0  0  0  0  0
    5.1771    1.1048    0.2944 C   0  0  0  0  0  0  0  0  0  0  0  0
    3.7376    0.7389   -1.8230 C   0  0  0  0  0  0  0  0  0  0  0  0
    2.1298    1.6028    1.2753 C   0  0  2  0  0  0  0  0  0  0  0  0
    2.8085    1.5468    2.1513 H   0  0  0  0  0  0  0  0  0  0  0  0
    1.0746    2.6947    1.3631 C   0  0  0  0  0  0  0  0  0  0  0  0
    0.9512    3.0608    2.4048 H   0  0  0  0  0  0  0  0  0  0  0  0
    1.3340    3.5516    0.7111 H   0  0  0  0  0  0  0  0  0  0  0  0
   -1.2519    2.7911    0.4682 C   0  0  0  0  0  0  0  0  0  0  0  0
   -1.3172    3.1606   -0.8960 C   0  0  0  0  0  0  0  0  0  0  0  0
   -0.2784    2.6742   -1.8717 C   0  0  0  0  0  0  0  0  0  0  0  0
   -0.3996    3.1598   -2.8581 H   0  0  0  0  0  0  0  0  0  0  0  0
   -0.3565    1.5738   -2.0127 H   0  0  0  0  0  0  0  0  0  0  0  0
    0.7566    2.8550   -1.5178 H   0  0  0  0  0  0  0  0  0  0  0  0
   -2.4272    3.9166   -1.3127 C   0  0  0  0  0  0  0  0  0  0  0  0
   -2.5045    4.2029   -2.3739 H   0  0  0  0  0  0  0  0  0  0  0  0
   -3.4463    4.2983   -0.4181 C   0  0  0  0  0  0  0  0  0  0  0  0
   -4.6122    5.1310   -0.8899 C   0  0  0  0  0  0  0  0  0  0  0  0
   -5.5104    4.9708   -0.2618 H   0  0  0  0  0  0  0  0  0  0  0  0
   -4.8773    4.9040   -1.9414 H   0  0  0  0  0  0  0  0  0  0  0  0
   -4.3695    6.2146   -0.8429 H   0  0  0  0  0  0  0  0  0  0  0  0
   -3.3410    3.9039    0.9301 C   0  0  0  0  0  0  0  0  0  0  0  0
   -4.1393    4.1793    1.6379 H   0  0  0  0  0  0  0  0  0  0  0  0
   -2.2509    3.1497    1.3999 C   0  0  0  0  0  0  0  0  0  0  0  0
   -2.1827    2.6561    2.8205 C   0  0  0  0  0  0  0  0  0  0  0  0
   -3.0414    3.0251    3.4125 H   0  0  0  0  0  0  0  0  0  0  0  0
   -1.2537    2.9868    3.3301 H   0  0  0  0  0  0  0  0  0  0  0  0
   -2.1826    1.5450    2.8540 H   0  0  0  0  0  0  0  0  0  0  0  0
  1 26  1  0  0  0  0
  2 26  1  0  0  0  0
  3 26  1  0  0  0  0
  4 25  1  0  0  0  0
  6 25  1  0  0  0  0
  7 27  1  0  0  0  0
  8 27  1  0  0  0  0
  9 29  1  0  0  0  0
 10  9  1  0  0  0  0
 10  8  1  0  0  0  0
 11  8  1  0  0  0  0
 11 12  1  0  0  0  0
 12 13  1  0  0  0  0
 14 12  2  0  0  0  0
 14 15  1  0  0  0  0
 16 14  1  0  0  0  0
 17 16  1  0  0  0  0
 17 18  1  0  0  0  0
 19 17  1  0  0  0  0
 20 17  1  0  0  0  0
 21 23  1  0  0  0  0
 21 16  2  0  0  0  0
 22 21  1  0  0  0  0
 23 11  2  0  0  0  0
 24  7  1  0  0  0  0
 24 23  1  0  0  0  0
 24 25  1  0  0  0  0
 25  5  1  0  0  0  0
 26 24  1  0  0  0  0
 27 29  1  0  0  0  0
 27 28  1  1  0  0  0
 29 30  1  0  0  0  0
 31 29  1  0  0  0  0
 32  9  1  0  0  0  0
 32 47  1  0  0  0  0
 33 32  2  0  0  0  0
 34 37  1  0  0  0  0
 34 33  1  0  0  0  0
 35 34  1  0  0  0  0
 36 34  1  0  0  0  0
 38 33  1  0  0  0  0
 38 40  2  0  0  0  0
 39 38  1  0  0  0  0
 40 45  1  0  0  0  0
 41 44  1  0  0  0  0
 41 40  1  0  0  0  0
 41 42  1  0  0  0  0
 43 41  1  0  0  0  0
 45 47  2  0  0  0  0
 45 46  1  0  0  0  0
 47 48  1  0  0  0  0
 48 51  1  0  0  0  0
 48 50  1  0  0  0  0
 48 49  1  0  0  0  0
M  END
