3
q = 0.0, confidence = 1.0

 21 22  0  0  0  0  0  0  0  0999 V2000
   -2.1735   -1.2145   -1.6178 S   0  0  0  0  0  0  0  0  0  0  0  0
   -2.5393    0.0244    0.5749 N   0  0  0  0  0  0  0  0  0  0  0  0
   -1.5446   -0.3423   -0.2593 C   0  0  0  0  0  2  0  0  0  0  0  0
   -3.8359   -0.3357    0.1777 C   0  0  0  0  0  0  0  0  0  0  0  0
   -5.0447   -0.0573    0.8383 C   0  0  0  0  0  0  0  0  0  0  0  0
   -5.0594    0.5283    1.7667 H   0  0  0  0  0  0  0  0  0  0  0  0
   -6.2324   -0.5296    0.2661 C   0  0  0  0  0  0  0  0  0  0  0  0
   -7.1892   -0.3199    0.7663 H   0  0  0  0  0  0  0  0  0  0  0  0
   -6.2225   -1.2624   -0.9390 C   0  0  0  0  0  0  0  0  0  0  0  0
   -7.1705   -1.6211   -1.3662 H   0  0  0  0  0  0  0  0  0  0  0  0
   -5.0204   -1.5356   -1.6046 C   0  0  0  0  0  0  0  0  0  0  0  0
   -5.0092   -2.1021   -2.5467 H   0  0  0  0  0  0  0  0  0  0  0  0
   -3.8276   -1.0628   -1.0371 C   0  0  0  0  0  0  0  0  0  0  0  0
   -2.2747    0.8011    1.8002 C   0  0  0  0  0  0  0  0  0  0  0  0
   -2.9233    0.4057    2.6072 H   0  0  0  0  0  0  0  0  0  0  0  0
   -1.2227    0.5684    2.0690 H   0  0  0  0  0  0  0  0  0  0  0  0
   -2.4737    2.2753    1.5829 C   0  0  0  0  0  0  0  0  0  0  0  0
   -1.8891    2.7018    0.7466 H   0  0  0  0  0  0  0  0  0  0  0  0
   -3.2702    3.0455    2.3417 C   0  0  0  0  0  0  0  0  0  0  0  0
   -3.8544    2.6265    3.1794 H   0  0  0  0  0  0  0  0  0  0  0  0
   -3.3573    4.1285    2.1652 H   0  0  0  0  0  0  0  0  0  0  0  0
  1 13  1  0  0  0  0
  1  3  1  0  0  0  0
  2 14  1  0  0  0  0
  3  2  1  0  0  0  0
  4  2  1  0  0  0  0
  4  5  1  0  0  0  0
  5  6  1  0  0  0  0
  7  8  1  0  0  0  0
  7  5  2  0  0  0  0
  9  7  1  0  0  0  0
 10  9  1  0  0  0  0
 11 13  1  0  0  0  0
 11  9  2  0  0  0  0
 12 11  1  0  0  0  0
 13  4  2  0  0  0  0
 14 16  1  0  0  0  0
 14 15  1  0  0  0  0
 17 14  1  0  0  0  0
 17 19  2  0  0  0  0
 18 17  1  0  0  0  0
 19 20  1  0  0  0  0
 21 19  1  0  0  0  0
M  END
