5
q = -1.0

 25 25  0  0  1  0  0  0  0  0999 V2000
   -2.5403    3.8758    0.2362 Br  0  0  0  0  0  0  0  0  0  0  0  0
   -1.3958    1.2520    0.2950 C   0  0  0  0  0  0  0  0  0  0  0  0
   -0.3215    1.1128    1.2453 C   0  0  0  0  0  0  0  0  0  0  0  0
   -0.5719   -0.0583    2.0602 C   0  0  2  0  0  3  0  0  0  0  0  0
   -1.8123   -0.6428    1.6138 C   0  0  2  0  0  3  0  0  0  0  0  0
   -2.3291    0.1871    0.5265 C   0  0  1  0  0  3  0  0  0  0  0  0
   -1.5838    2.3727   -0.6570 C   0  0  0  0  0  0  0  0  0  0  0  0
   -2.2134    2.0927   -1.5185 H   0  0  0  0  0  0  0  0  0  0  0  0
   -0.6318    2.7934   -1.0180 H   0  0  0  0  0  0  0  0  0  0  0  0
    0.7302    2.1399    1.5078 C   0  0  0  0  0  0  0  0  0  0  0  0
    1.6621    1.6949    1.9016 H   0  0  0  0  0  0  0  0  0  0  0  0
    0.3377    2.8497    2.2672 H   0  0  0  0  0  0  0  0  0  0  0  0
    0.9750    2.7272    0.6047 H   0  0  0  0  0  0  0  0  0  0  0  0
    0.2240   -0.4694    3.2599 C   0  0  0  0  0  0  0  0  0  0  0  0
    1.2970   -0.2363    3.1394 H   0  0  0  0  0  0  0  0  0  0  0  0
    0.1411   -1.5552    3.4516 H   0  0  0  0  0  0  0  0  0  0  0  0
   -0.1420    0.0650    4.1626 H   0  0  0  0  0  0  0  0  0  0  0  0
   -2.5361   -1.7910    2.2424 C   0  0  0  0  0  0  0  0  0  0  0  0
   -2.9524   -2.4643    1.4660 H   0  0  0  0  0  0  0  0  0  0  0  0
   -3.3748   -1.4246    2.8708 H   0  0  0  0  0  0  0  0  0  0  0  0
   -1.8626   -2.3882    2.8850 H   0  0  0  0  0  0  0  0  0  0  0  0
   -3.6837    0.0904   -0.0963 C   0  0  0  0  0  0  0  0  0  0  0  0
   -4.1355   -0.9048    0.0561 H   0  0  0  0  0  0  0  0  0  0  0  0
   -3.6520    0.2777   -1.1864 H   0  0  0  0  0  0  0  0  0  0  0  0
   -4.3392    0.8619    0.3622 H   0  0  0  0  0  0  0  0  0  0  0  0
  2  6  1  0  0  0  0
  2  3  2  0  0  0  0
  3 10  1  0  0  0  0
  3  4  1  0  0  0  0
  4 14  1  1  0  0  0
  5  4  1  0  0  0  0
  5 18  1  1  0  0  0
  6 22  1  1  0  0  0
  6  5  1  0  0  0  0
  7  1  1  0  0  0  0
  7  2  1  0  0  0  0
  8  7  1  0  0  0  0
  9  7  1  0  0  0  0
 10 11  1  0  0  0  0
 10 12  1  0  0  0  0
 13 10  1  0  0  0  0
 14 16  1  0  0  0  0
 14 17  1  0  0  0  0
 15 14  1  0  0  0  0
 18 20  1  0  0  0  0
 18 21  1  0  0  0  0
 19 18  1  0  0  0  0
 22 23  1  0  0  0  0
 22 25  1  0  0  0  0
 24 22  1  0  0  0  0
M  END
