1
q = 0.0, confidence = 0.982

 20 21  0  0  0  0  0  0  0  0999 V2000
    1.0107   -0.7100   -0.0359 C   0  0  0  0  0  1  0  0  0  0  0  0
    2.1742   -0.0726    0.1119 C   0  0  0  0  0  3  0  0  0  0  0  0
    3.5372   -0.5763   -0.0268 C   0  0  0  0  0  0  0  0  0  0  0  0
    3.7654   -1.9412   -0.2548 C   0  0  0  0  0  0  0  0  0  0  0  0
    5.0710   -2.4584   -0.3809 C   0  0  0  0  0  0  0  0  0  0  0  0
    6.1669   -1.6108   -0.2783 C   0  0  0  0  0  0  0  0  0  0  0  0
    6.9469    2.0209    0.2338 C   0  0  0  0  0  0  0  0  0  0  0  0
    7.1162    0.6606    0.0349 C   0  0  0  0  0  0  0  0  0  0  0  0
    5.6386    2.5600    0.3430 C   0  0  0  0  0  0  0  0  0  0  0  0
    4.5254    1.7353    0.2593 C   0  0  0  0  0  0  0  0  0  0  0  0
    4.6598    0.3300    0.0651 C   0  0  0  0  0  0  0  0  0  0  0  0
    5.9933   -0.2145   -0.0585 C   0  0  0  0  0  0  0  0  0  0  0  0
    2.0381    0.9993    0.3592 H   0  0  0  0  0  0  0  0  0  0  0  0
    2.9003   -2.6178   -0.3366 H   0  0  0  0  0  0  0  0  0  0  0  0
    5.2169   -3.5341   -0.5580 H   0  0  0  0  0  0  0  0  0  0  0  0
    7.1895   -2.0076   -0.3701 H   0  0  0  0  0  0  0  0  0  0  0  0
    7.8212    2.6848    0.3029 H   0  0  0  0  0  0  0  0  0  0  0  0
    8.1252    0.2308   -0.0582 H   0  0  0  0  0  0  0  0  0  0  0  0
    5.5059    3.6421    0.4921 H   0  0  0  0  0  0  0  0  0  0  0  0
    3.5266    2.1904    0.3330 H   0  0  0  0  0  0  0  0  0  0  0  0
  1  2  1  0  0  0  0
  2 13  1  0  0  0  0
  3 11  1  0  0  0  0
  3  2  1  0  0  0  0
  4  3  2  0  0  0  0
  5  6  2  0  0  0  0
  5  4  1  0  0  0  0
  6 12  1  0  0  0  0
  7 17  1  0  0  0  0
  7  9  1  0  0  0  0
  8  7  2  0  0  0  0
  9 19  1  0  0  0  0
 10 20  1  0  0  0  0
 10  9  2  0  0  0  0
 11 10  1  0  0  0  0
 12  8  1  0  0  0  0
 12 11  2  0  0  0  0
 14  4  1  0  0  0  0
 15  5  1  0  0  0  0
 16  6  1  0  0  0  0
 18  8  1  0  0  0  0
M  END
