3
q = 0.0, confidence = 0.998

 38 40  0  0  0  0  0  0  0  0999 V2000
    1.4887    1.4878    1.1968 N   0  0  0  0  0  0  0  0  0  0  0  0
   -0.1763    0.1267    1.4209 N   0  0  0  0  0  0  0  0  0  0  0  0
    1.0215    0.2733    0.7597 C   0  0  0  0  0  2  0  0  0  0  0  0
   -3.4973   -2.1417    2.1951 F   0  0  0  0  0  0  0  0  0  0  0  0
   -5.9481   -1.5302    1.2802 F   0  0  0  0  0  0  0  0  0  0  0  0
   -0.4463    1.2216    2.2330 C   0  0  0  0  0  0  0  0  0  0  0  0
   -1.3687    1.2983    2.8157 H   0  0  0  0  0  0  0  0  0  0  0  0
    0.6047    2.0813    2.0893 C   0  0  0  0  0  0  0  0  0  0  0  0
    0.7964    3.0697    2.5160 H   0  0  0  0  0  0  0  0  0  0  0  0
   -1.1090   -0.9785    1.2579 C   0  0  0  0  0  0  0  0  0  0  0  0
   -0.6678   -1.6563    0.4909 H   0  0  0  0  0  0  0  0  0  0  0  0
   -1.2200   -1.5206    2.2171 H   0  0  0  0  0  0  0  0  0  0  0  0
   -3.6165   -1.1937    1.2491 C   0  0  0  0  0  0  0  0  0  0  0  0
   -2.4664   -0.5465    0.7637 C   0  0  0  0  0  0  0  0  0  0  0  0
   -4.8953   -0.8804    0.7729 C   0  0  0  0  0  0  0  0  0  0  0  0
   -1.6154    1.1081   -0.7300 F   0  0  0  0  0  0  0  0  0  0  0  0
   -4.0129    1.7111   -1.6403 F   0  0  0  0  0  0  0  0  0  0  0  0
    2.1419    6.2344   -0.3946 C   0  0  0  0  0  0  0  0  0  0  0  0
    1.9789    7.2775   -0.7059 H   0  0  0  0  0  0  0  0  0  0  0  0
    1.8735    3.8483   -0.8017 C   0  0  0  0  0  0  0  0  0  0  0  0
    1.5268    3.0109   -1.4286 H   0  0  0  0  0  0  0  0  0  0  0  0
    3.0327    4.6236    1.1914 C   0  0  0  0  0  0  0  0  0  0  0  0
    3.5739    4.4032    2.1262 H   0  0  0  0  0  0  0  0  0  0  0  0
   -2.6507    0.4325   -0.2286 C   0  0  0  0  0  0  0  0  0  0  0  0
    2.5576    3.5625    0.3984 C   0  0  0  0  0  0  0  0  0  0  0  0
    2.8285    5.9561    0.7967 C   0  0  0  0  0  0  0  0  0  0  0  0
    3.2072    6.7784    1.4227 H   0  0  0  0  0  0  0  0  0  0  0  0
   -5.0778    0.1024   -0.2199 C   0  0  0  0  0  0  0  0  0  0  0  0
    1.6674    5.1782   -1.1918 C   0  0  0  0  0  0  0  0  0  0  0  0
    1.1366    5.3934   -2.1317 H   0  0  0  0  0  0  0  0  0  0  0  0
   -6.5406    1.3283   -1.6529 F   0  0  0  0  0  0  0  0  0  0  0  0
   -7.2468    0.8443    0.3494 F   0  0  0  0  0  0  0  0  0  0  0  0
   -7.0824   -0.7217   -1.1600 F   0  0  0  0  0  0  0  0  0  0  0  0
   -3.9339    0.7606   -0.7087 C   0  0  0  0  0  0  0  0  0  0  0  0
    2.7574    2.1247    0.8176 C   0  0  0  0  0  0  0  0  0  0  0  0
    3.4533    2.0656    1.6807 H   0  0  0  0  0  0  0  0  0  0  0  0
    3.1551    1.5306   -0.0296 H   0  0  0  0  0  0  0  0  0  0  0  0
   -6.4923    0.3982   -0.6835 C   0  0  0  0  0  0  0  0  0  0  0  0
  1  8  1  0  0  0  0
  2  6  1  0  0  0  0
  3  1  1  0  0  0  0
  3  2  1  0  0  0  0
  6  7  1  0  0  0  0
  8  6  2  0  0  0  0
  8  9  1  0  0  0  0
 10  2  1  0  0  0  0
 10 12  1  0  0  0  0
 11 10  1  0  0  0  0
 13  4  1  0  0  0  0
 14 13  2  0  0  0  0
 14 10  1  0  0  0  0
 15 13  1  0  0  0  0
 15  5  1  0  0  0  0
 16 24  1  0  0  0  0
 17 34  1  0  0  0  0
 18 26  1  0  0  0  0
 19 18  1  0  0  0  0
 20 25  2  0  0  0  0
 21 20  1  0  0  0  0
 22 23  1  0  0  0  0
 24 14  1  0  0  0  0
 25 35  1  0  0  0  0
 25 22  1  0  0  0  0
 26 22  2  0  0  0  0
 26 27  1  0  0  0  0
 28 15  2  0  0  0  0
 29 20  1  0  0  0  0
 29 18  2  0  0  0  0
 30 29  1  0  0  0  0
 31 38  1  0  0  0  0
 33 38  1  0  0  0  0
 34 24  2  0  0  0  0
 34 28  1  0  0  0  0
 35  1  1  0  0  0  0
 35 36  1  0  0  0  0
 37 35  1  0  0  0  0
 38 28  1  0  0  0  0
 38 32  1  0  0  0  0
M  END
