1
q = -1.0

 14 14  0  0  0  0  0  0  0  0999 V2000
    1.7815    0.3053    0.8161 C   0  0  0  0  0  3  0  0  0  0  0  0
    3.1060   -0.0150    0.1222 C   0  0  0  0  0  0  0  0  0  0  0  0
    3.1808   -0.9913   -1.0322 C   0  0  0  0  0  0  0  0  0  0  0  0
    3.4062    0.4847   -1.2764 C   0  0  0  0  0  0  0  0  0  0  0  0
    4.2799   -0.0262    1.0933 C   0  0  0  0  0  0  0  0  0  0  0  0
    1.7148   -0.3610    1.7089 H   0  0  0  0  0  0  0  0  0  0  0  0
    1.8932    1.3265    1.2525 H   0  0  0  0  0  0  0  0  0  0  0  0
    2.2264   -1.4029   -1.3943 H   0  0  0  0  0  0  0  0  0  0  0  0
    4.0425   -1.6764   -1.0876 H   0  0  0  0  0  0  0  0  0  0  0  0
    4.4283    0.8341   -1.4959 H   0  0  0  0  0  0  0  0  0  0  0  0
    2.6079    1.0239   -1.8094 H   0  0  0  0  0  0  0  0  0  0  0  0
    5.2413   -0.2382    0.5813 H   0  0  0  0  0  0  0  0  0  0  0  0
    4.3804    0.9540    1.6077 H   0  0  0  0  0  0  0  0  0  0  0  0
    4.1374   -0.7990    1.8792 H   0  0  0  0  0  0  0  0  0  0  0  0
  1  7  1  0  0  0  0
  1  6  1  0  0  0  0
  2  1  1  0  0  0  0
  2  5  1  0  0  0  0
  3  2  1  0  0  0  0
  4  3  1  0  0  0  0
  4  2  1  0  0  0  0
  5 13  1  0  0  0  0
  5 14  1  0  0  0  0
  8  3  1  0  0  0  0
  9  3  1  0  0  0  0
 10  4  1  0  0  0  0
 11  4  1  0  0  0  0
 12  5  1  0  0  0  0
M  END
