4
q = -1.0, confidence = 0.0

 37 38  0  0  0  0  0  0  0  0999 V2000
   -1.1884    0.6306   -0.1414 B   0  0  0  0  0  0  0  0  0  0  0  0
   -1.7958    1.1372    1.0083 O   0  0  0  0  0  0  0  0  0  0  0  0
   -1.4807    1.4173   -1.2541 O   0  0  0  0  0  0  0  0  0  0  0  0
   -0.2815   -0.6206   -0.1429 C   0  0  0  0  0  3  0  0  0  0  0  0
   -0.2701   -1.0592   -1.1656 H   0  0  0  0  0  0  0  0  0  0  0  0
   -0.7046   -1.7105    0.8772 C   0  0  0  0  0  0  0  0  0  0  0  0
    0.1028   -2.4581    1.0249 H   0  0  0  0  0  0  0  0  0  0  0  0
   -0.9032   -1.2479    1.8645 H   0  0  0  0  0  0  0  0  0  0  0  0
   -1.9510   -2.4332    0.4113 C   0  0  0  0  0  0  0  0  0  0  0  0
   -3.2314   -2.0316    0.8435 C   0  0  0  0  0  0  0  0  0  0  0  0
   -3.3124   -1.2102    1.5714 H   0  0  0  0  0  0  0  0  0  0  0  0
   -4.3871   -2.6621    0.3570 C   0  0  0  0  0  0  0  0  0  0  0  0
   -5.3780   -2.3363    0.7105 H   0  0  0  0  0  0  0  0  0  0  0  0
   -4.2818   -3.7087   -0.5728 C   0  0  0  0  0  0  0  0  0  0  0  0
   -5.1870   -4.2056   -0.9540 H   0  0  0  0  0  0  0  0  0  0  0  0
   -3.0115   -4.1221   -1.0073 C   0  0  0  0  0  0  0  0  0  0  0  0
   -2.9185   -4.9480   -1.7296 H   0  0  0  0  0  0  0  0  0  0  0  0
   -1.8589   -3.4895   -0.5190 C   0  0  0  0  0  0  0  0  0  0  0  0
   -0.8629   -3.8181   -0.8587 H   0  0  0  0  0  0  0  0  0  0  0  0
   -2.7037    2.1976    0.6083 C   0  0  0  0  0  0  0  0  0  0  0  0
   -2.1032    2.6415   -0.7855 C   0  0  0  0  0  0  0  0  0  0  0  0
   -2.6970    3.2809    1.6835 C   0  0  0  0  0  0  0  0  0  0  0  0
   -3.1226    2.8764    2.6228 H   0  0  0  0  0  0  0  0  0  0  0  0
   -3.3148    4.1478    1.3742 H   0  0  0  0  0  0  0  0  0  0  0  0
   -1.6730    3.6365    1.9012 H   0  0  0  0  0  0  0  0  0  0  0  0
   -4.1024    1.5817    0.4836 C   0  0  0  0  0  0  0  0  0  0  0  0
   -4.1238    0.7849   -0.2851 H   0  0  0  0  0  0  0  0  0  0  0  0
   -4.8645    2.3445    0.2307 H   0  0  0  0  0  0  0  0  0  0  0  0
   -4.3816    1.1243    1.4529 H   0  0  0  0  0  0  0  0  0  0  0  0
   -0.9910    3.6900   -0.6467 C   0  0  0  0  0  0  0  0  0  0  0  0
   -0.2453    3.3781    0.1111 H   0  0  0  0  0  0  0  0  0  0  0  0
   -1.3900    4.6818   -0.3578 H   0  0  0  0  0  0  0  0  0  0  0  0
   -0.4712    3.7960   -1.6192 H   0  0  0  0  0  0  0  0  0  0  0  0
   -3.1332    3.0951   -1.8152 C   0  0  0  0  0  0  0  0  0  0  0  0
   -2.6222    3.3805   -2.7557 H   0  0  0  0  0  0  0  0  0  0  0  0
   -3.6953    3.9777   -1.4492 H   0  0  0  0  0  0  0  0  0  0  0  0
   -3.8512    2.2886   -2.0502 H   0  0  0  0  0  0  0  0  0  0  0  0
  1  2  1  0  0  0  0
  3 21  1  0  0  0  0
  3  1  1  0  0  0  0
  4  1  1  0  0  0  0
  4  6  1  0  0  0  0
  5  4  1  0  0  0  0
  6  7  1  0  0  0  0
  6  8  1  0  0  0  0
  9 10  1  0  0  0  0
  9  6  1  0  0  0  0
 10 11  1  0  0  0  0
 12 13  1  0  0  0  0
 12 10  2  0  0  0  0
 14 12  1  0  0  0  0
 15 14  1  0  0  0  0
 16 14  2  0  0  0  0
 16 18  1  0  0  0  0
 17 16  1  0  0  0  0
 18  9  2  0  0  0  0
 19 18  1  0  0  0  0
 20  2  1  0  0  0  0
 20 22  1  0  0  0  0
 21 30  1  0  0  0  0
 21 20  1  0  0  0  0
 22 25  1  0  0  0  0
 22 23  1  0  0  0  0
 24 22  1  0  0  0  0
 26 20  1  0  0  0  0
 26 29  1  0  0  0  0
 27 26  1  0  0  0  0
 28 26  1  0  0  0  0
 30 32  1  0  0  0  0
 30 31  1  0  0  0  0
 33 30  1  0  0  0  0
 34 36  1  0  0  0  0
 34 21  1  0  0  0  0
 35 34  1  0  0  0  0
 37 34  1  0  0  0  0
M  END
