11
q = -1.0, confidence = 0.0

 33 35  0  0  0  0  0  0  0  0999 V2000
    1.4746    0.5035   -0.7170 As  0  0  0  0  0  0  0  0  0  0  0  0
    3.2918   -1.1757    1.4438 F   0  0  0  0  0  0  0  0  0  0  0  0
    2.4562   -2.8972    3.3556 F   0  0  0  0  0  0  0  0  0  0  0  0
   -0.2141   -3.2870    3.7922 F   0  0  0  0  0  0  0  0  0  0  0  0
   -2.0629   -1.9540    2.3161 F   0  0  0  0  0  0  0  0  0  0  0  0
    1.0313   -0.6873    0.7962 C   0  0  0  0  0  0  0  0  0  0  0  0
    1.9678   -1.3664    1.5917 C   0  0  0  0  0  0  0  0  0  0  0  0
    1.5564   -2.2537    2.6012 C   0  0  0  0  0  0  0  0  0  0  0  0
    0.1845   -2.4490    2.8292 C   0  0  0  0  0  0  0  0  0  0  0  0
   -0.7537   -1.7510    2.0488 C   0  0  0  0  0  0  0  0  0  0  0  0
   -0.3510   -0.8846    1.0287 C   0  0  0  0  0  3  0  0  0  0  0  0
    3.1604   -0.3120   -1.3325 C   0  0  0  0  0  0  0  0  0  0  0  0
    3.0662   -1.5784   -1.9438 C   0  0  0  0  0  0  0  0  0  0  0  0
    2.0904   -2.0876   -2.0113 H   0  0  0  0  0  0  0  0  0  0  0  0
    4.2147   -2.1966   -2.4603 C   0  0  0  0  0  0  0  0  0  0  0  0
    4.1365   -3.1908   -2.9268 H   0  0  0  0  0  0  0  0  0  0  0  0
    5.4583   -1.5475   -2.3871 C   0  0  0  0  0  0  0  0  0  0  0  0
    6.3583   -2.0316   -2.7958 H   0  0  0  0  0  0  0  0  0  0  0  0
    5.5496   -0.2794   -1.7921 C   0  0  0  0  0  0  0  0  0  0  0  0
    6.5227    0.2322   -1.7306 H   0  0  0  0  0  0  0  0  0  0  0  0
    4.4050    0.3386   -1.2630 C   0  0  0  0  0  0  0  0  0  0  0  0
    4.4861    1.3257   -0.7824 H   0  0  0  0  0  0  0  0  0  0  0  0
    2.1689    2.0782    0.2526 C   0  0  0  0  0  0  0  0  0  0  0  0
    2.6302    2.0612    1.5839 C   0  0  0  0  0  0  0  0  0  0  0  0
    2.6854    1.1120    2.1349 H   0  0  0  0  0  0  0  0  0  0  0  0
    3.0361    3.2518    2.2083 C   0  0  0  0  0  0  0  0  0  0  0  0
    3.3935    3.2258    3.2493 H   0  0  0  0  0  0  0  0  0  0  0  0
    2.9938    4.4695    1.5099 C   0  0  0  0  0  0  0  0  0  0  0  0
    3.3129    5.4004    2.0029 H   0  0  0  0  0  0  0  0  0  0  0  0
    2.5460    4.4945    0.1794 C   0  0  0  0  0  0  0  0  0  0  0  0
    2.5157    5.4443   -0.3766 H   0  0  0  0  0  0  0  0  0  0  0  0
    2.1298    3.3056   -0.4417 C   0  0  0  0  0  0  0  0  0  0  0  0
    1.7704    3.3321   -1.4841 H   0  0  0  0  0  0  0  0  0  0  0  0
  1 23  1  0  0  0  0
  1  6  1  0  0  0  0
  2  7  1  0  0  0  0
  6 11  2  0  0  0  0
  6  7  1  0  0  0  0
  7  8  2  0  0  0  0
  8  9  1  0  0  0  0
  8  3  1  0  0  0  0
  9  4  1  0  0  0  0
 10  5  1  0  0  0  0
 10  9  2  0  0  0  0
 11 10  1  0  0  0  0
 12 21  1  0  0  0  0
 12  1  1  0  0  0  0
 13 12  2  0  0  0  0
 14 13  1  0  0  0  0
 15 17  2  0  0  0  0
 15 13  1  0  0  0  0
 16 15  1  0  0  0  0
 17 19  1  0  0  0  0
 18 17  1  0  0  0  0
 19 20  1  0  0  0  0
 19 21  2  0  0  0  0
 21 22  1  0  0  0  0
 23 24  1  0  0  0  0
 24 25  1  0  0  0  0
 24 26  2  0  0  0  0
 26 27  1  0  0  0  0
 28 29  1  0  0  0  0
 28 26  1  0  0  0  0
 30 28  2  0  0  0  0
 31 30  1  0  0  0  0
 32 30  1  0  0  0  0
 32 23  2  0  0  0  0
 33 32  1  0  0  0  0
M  END
