59
q = 0.0, confidence = 0.992

 76 78  0  0  0  0  0  0  0  0999 V2000
    1.1505   -0.6497    0.5444 C   0  0  0  0  0  0  0  0  0  0  0  0
    2.5839   -0.9630    0.8109 C   0  0  0  0  0  0  0  0  0  0  0  0
    2.9937   -2.3131    0.7904 C   0  0  0  0  0  0  0  0  0  0  0  0
    2.2463   -3.0841    0.5560 H   0  0  0  0  0  0  0  0  0  0  0  0
    4.3214   -2.6598    1.0515 C   0  0  0  0  0  0  0  0  0  0  0  0
    4.6217   -3.7191    1.0167 H   0  0  0  0  0  0  0  0  0  0  0  0
    5.2869   -1.6755    1.3578 C   0  0  0  0  0  0  0  0  0  0  0  0
    6.7219   -2.0569    1.6130 C   0  0  0  0  0  0  0  0  0  0  0  0
    7.3037   -1.2115    2.0279 H   0  0  0  0  0  0  0  0  0  0  0  0
    7.2204   -2.3770    0.6732 H   0  0  0  0  0  0  0  0  0  0  0  0
    6.7956   -2.9083    2.3199 H   0  0  0  0  0  0  0  0  0  0  0  0
    4.8647   -0.3324    1.3995 C   0  0  0  0  0  0  0  0  0  0  0  0
    5.5924    0.4552    1.6498 H   0  0  0  0  0  0  0  0  0  0  0  0
    3.5377    0.0254    1.1249 C   0  0  0  0  0  0  0  0  0  0  0  0
    3.2505    1.0840    1.1605 H   0  0  0  0  0  0  0  0  0  0  0  0
    1.6025    1.5032   -0.6916 C   0  0  0  0  0  0  0  0  0  0  0  0
    2.4377    1.1401   -1.7812 C   0  0  0  0  0  0  0  0  0  0  0  0
    2.4595   -0.2590   -2.3882 C   0  0  0  0  0  0  0  0  0  0  0  0
    1.8350   -0.9192   -1.7551 H   0  0  0  0  0  0  0  0  0  0  0  0
    1.8172   -0.2491   -3.7882 C   0  0  0  0  0  0  0  0  0  0  0  0
    0.7883    0.1563   -3.7547 H   0  0  0  0  0  0  0  0  0  0  0  0
    1.7758   -1.2788   -4.2009 H   0  0  0  0  0  0  0  0  0  0  0  0
    2.4073    0.3714   -4.4942 H   0  0  0  0  0  0  0  0  0  0  0  0
    3.8728   -0.8627   -2.4266 C   0  0  0  0  0  0  0  0  0  0  0  0
    4.5365   -0.2910   -3.1079 H   0  0  0  0  0  0  0  0  0  0  0  0
    3.8365   -1.9058   -2.8016 H   0  0  0  0  0  0  0  0  0  0  0  0
    4.3415   -0.8745   -1.4239 H   0  0  0  0  0  0  0  0  0  0  0  0
    3.2299    2.1501   -2.3608 C   0  0  0  0  0  0  0  0  0  0  0  0
    3.8934    1.8919   -3.2002 H   0  0  0  0  0  0  0  0  0  0  0  0
    3.1697    3.4738   -1.9137 C   0  0  0  0  0  0  0  0  0  0  0  0
    3.7958    4.2447   -2.3881 H   0  0  0  0  0  0  0  0  0  0  0  0
    2.2909    3.8231   -0.8792 C   0  0  0  0  0  0  0  0  0  0  0  0
    2.2250    4.8709   -0.5531 H   0  0  0  0  0  0  0  0  0  0  0  0
    1.4940    2.8519   -0.2506 C   0  0  0  0  0  0  0  0  0  0  0  0
    0.5587    3.2151    0.8993 C   0  0  0  0  0  0  0  0  0  0  0  0
   -0.3099    2.5277    0.8477 H   0  0  0  0  0  0  0  0  0  0  0  0
   -0.0078    4.6363    0.8067 C   0  0  0  0  0  0  0  0  0  0  0  0
   -0.8021    4.7756    1.5661 H   0  0  0  0  0  0  0  0  0  0  0  0
   -0.4581    4.8283   -0.1871 H   0  0  0  0  0  0  0  0  0  0  0  0
    0.7687    5.4077    0.9906 H   0  0  0  0  0  0  0  0  0  0  0  0
    1.2383    2.9787    2.2612 C   0  0  0  0  0  0  0  0  0  0  0  0
    2.1259    3.6348    2.3766 H   0  0  0  0  0  0  0  0  0  0  0  0
    1.5758    1.9297    2.3773 H   0  0  0  0  0  0  0  0  0  0  0  0
    0.5371    3.2009    3.0917 H   0  0  0  0  0  0  0  0  0  0  0  0
   -1.0993   -1.4637    0.8119 C   0  0  0  0  0  0  0  0  0  0  0  0
   -1.8593   -0.8074    1.8496 C   0  0  0  0  0  0  0  0  0  0  0  0
   -1.1172   -0.1003    2.9760 C   0  0  0  0  0  0  0  0  0  0  0  0
   -0.2464    0.4089    2.5155 H   0  0  0  0  0  0  0  0  0  0  0  0
   -0.5712   -1.1546    3.9593 C   0  0  0  0  0  0  0  0  0  0  0  0
    0.0380   -0.6686    4.7482 H   0  0  0  0  0  0  0  0  0  0  0  0
    0.0653   -1.8930    3.4349 H   0  0  0  0  0  0  0  0  0  0  0  0
   -1.4043   -1.6946    4.4554 H   0  0  0  0  0  0  0  0  0  0  0  0
   -1.9395    0.9681    3.7030 C   0  0  0  0  0  0  0  0  0  0  0  0
   -2.7773    0.5261    4.2813 H   0  0  0  0  0  0  0  0  0  0  0  0
   -2.3576    1.7193    3.0058 H   0  0  0  0  0  0  0  0  0  0  0  0
   -1.2961    1.5008    4.4314 H   0  0  0  0  0  0  0  0  0  0  0  0
   -3.2813   -0.9970    1.8960 C   0  0  0  0  0  3  0  0  0  0  0  0
   -3.8617   -0.5255    2.6995 H   0  0  0  0  0  0  0  0  0  0  0  0
   -3.9488   -1.7546    0.9066 C   0  0  0  0  0  3  0  0  0  0  0  0
   -5.0398   -1.8759    0.9498 H   0  0  0  0  0  0  0  0  0  0  0  0
   -3.2068   -2.3467   -0.1640 C   0  0  0  0  0  0  0  0  0  0  0  0
   -3.7361   -2.9117   -0.9424 H   0  0  0  0  0  0  0  0  0  0  0  0
   -1.8008   -2.1695   -0.2556 C   0  0  0  0  0  0  0  0  0  0  0  0
   -0.9773   -2.8227   -1.3551 C   0  0  0  0  0  0  0  0  0  0  0  0
   -0.0930   -2.1686   -1.5075 H   0  0  0  0  0  0  0  0  0  0  0  0
   -1.7064   -2.9408   -2.6965 C   0  0  0  0  0  0  0  0  0  0  0  0
   -2.5530   -3.6568   -2.6489 H   0  0  0  0  0  0  0  0  0  0  0  0
   -1.0102   -3.3170   -3.4724 H   0  0  0  0  0  0  0  0  0  0  0  0
   -2.0993   -1.9612   -3.0317 H   0  0  0  0  0  0  0  0  0  0  0  0
   -0.4658   -4.1895   -0.8614 C   0  0  0  0  0  0  0  0  0  0  0  0
    0.0692   -4.0875    0.1028 H   0  0  0  0  0  0  0  0  0  0  0  0
    0.2278   -4.6374   -1.6016 H   0  0  0  0  0  0  0  0  0  0  0  0
   -1.3110   -4.8936   -0.7148 H   0  0  0  0  0  0  0  0  0  0  0  0
    0.7948    0.5388   -0.0224 N   0  0  0  0  0  0  0  0  0  0  0  0
   -0.2336    0.6765   -0.0956 H   0  0  0  0  0  0  0  0  0  0  0  0
    0.2714   -1.5535    0.8960 N   0  0  0  0  0  0  0  0  0  0  0  0
  1  2  1  0  0  0  0
  1 76  2  0  0  0  0
  2 14  1  0  0  0  0
  3  2  2  0  0  0  0
  3  5  1  0  0  0  0
  4  3  1  0  0  0  0
  5  7  2  0  0  0  0
  6  5  1  0  0  0  0
  7 12  1  0  0  0  0
  7  8  1  0  0  0  0
  8  9  1  0  0  0  0
  8 11  1  0  0  0  0
 10  8  1  0  0  0  0
 12 13  1  0  0  0  0
 14 15  1  0  0  0  0
 14 12  2  0  0  0  0
 16 34  1  0  0  0  0
 16 74  1  0  0  0  0
 17 16  2  0  0  0  0
 18 17  1  0  0  0  0
 18 19  1  0  0  0  0
 20 21  1  0  0  0  0
 20 18  1  0  0  0  0
 22 20  1  0  0  0  0
 23 20  1  0  0  0  0
 24 18  1  0  0  0  0
 24 27  1  0  0  0  0
 25 24  1  0  0  0  0
 26 24  1  0  0  0  0
 28 30  2  0  0  0  0
 28 17  1  0  0  0  0
 29 28  1  0  0  0  0
 30 32  1  0  0  0  0
 31 30  1  0  0  0  0
 32 33  1  0  0  0  0
 32 34  2  0  0  0  0
 34 35  1  0  0  0  0
 35 41  1  0  0  0  0
 36 35  1  0  0  0  0
 37 35  1  0  0  0  0
 37 40  1  0  0  0  0
 37 38  1  0  0  0  0
 39 37  1  0  0  0  0
 41 42  1  0  0  0  0
 41 43  1  0  0  0  0
 41 44  1  0  0  0  0
 45 76  1  0  0  0  0
 45 46  2  0  0  0  0
 46 57  1  0  0  0  0
 46 47  1  0  0  0  0
 47 53  1  0  0  0  0
 47 49  1  0  0  0  0
 48 47  1  0  0  0  0
 49 52  1  0  0  0  0
 49 50  1  0  0  0  0
 51 49  1  0  0  0  0
 53 54  1  0  0  0  0
 53 56  1  0  0  0  0
 55 53  1  0  0  0  0
 57 58  1  0  0  0  0
 59 60  1  0  0  0  0
 59 57  1  0  0  0  0
 61 59  1  0  0  0  0
 62 61  1  0  0  0  0
 63 61  2  0  0  0  0
 63 45  1  0  0  0  0
 64 70  1  0  0  0  0
 64 63  1  0  0  0  0
 65 64  1  0  0  0  0
 66 67  1  0  0  0  0
 66 64  1  0  0  0  0
 68 66  1  0  0  0  0
 69 66  1  0  0  0  0
 70 73  1  0  0  0  0
 70 71  1  0  0  0  0
 72 70  1  0  0  0  0
 74  1  1  0  0  0  0
 75 74  1  0  0  0  0
M  END
