6
q = -1.0

 20 21  0  0  0  0  0  0  0  0999 V2000
    0.3846   -1.9522    1.6614 C   0  0  0  0  0  0  0  0  0  0  0  0
   -0.0418   -2.7211    0.5302 C   0  0  0  0  0  0  0  0  0  0  0  0
   -1.0809   -2.9597    0.2765 H   0  0  0  0  0  0  0  0  0  0  0  0
    1.1101   -3.1382   -0.1857 C   0  0  0  0  0  0  0  0  0  0  0  0
    1.1170   -3.7561   -1.0908 H   0  0  0  0  0  0  0  0  0  0  0  0
    2.2596   -2.5934    0.4758 C   0  0  0  0  0  3  0  0  0  0  0  0
    3.3079   -2.7469    0.1917 H   0  0  0  0  0  0  0  0  0  0  0  0
    1.8089   -1.8814    1.6294 C   0  0  0  0  0  0  0  0  0  0  0  0
    2.6227   -1.1838    2.6842 C   0  0  0  0  0  0  0  0  0  0  0  0
    3.4066   -0.5502    2.2178 H   0  0  0  0  0  0  0  0  0  0  0  0
    3.1680   -1.9676    3.2582 H   0  0  0  0  0  0  0  0  0  0  0  0
    1.7505   -0.3469    3.6369 C   0  0  0  0  0  0  0  0  0  0  0  0
    2.3279   -0.1165    4.5554 H   0  0  0  0  0  0  0  0  0  0  0  0
    1.5109    0.6255    3.1593 H   0  0  0  0  0  0  0  0  0  0  0  0
    0.4453   -1.0684    4.0014 C   0  0  0  0  0  0  0  0  0  0  0  0
   -0.1277   -0.4677    4.7365 H   0  0  0  0  0  0  0  0  0  0  0  0
    0.6799   -2.0369    4.4976 H   0  0  0  0  0  0  0  0  0  0  0  0
   -0.4269   -1.3306    2.7610 C   0  0  0  0  0  0  0  0  0  0  0  0
   -1.2865   -1.9876    3.0088 H   0  0  0  0  0  0  0  0  0  0  0  0
   -0.8700   -0.3736    2.4070 H   0  0  0  0  0  0  0  0  0  0  0  0
  1 18  1  0  0  0  0
  2  1  1  0  0  0  0
  3  2  1  0  0  0  0
  4  6  1  0  0  0  0
  4  2  2  0  0  0  0
  5  4  1  0  0  0  0
  6  8  1  0  0  0  0
  7  6  1  0  0  0  0
  8  1  2  0  0  0  0
  8  9  1  0  0  0  0
  9 11  1  0  0  0  0
  9 12  1  0  0  0  0
 10  9  1  0  0  0  0
 12 15  1  0  0  0  0
 12 13  1  0  0  0  0
 14 12  1  0  0  0  0
 15 17  1  0  0  0  0
 15 16  1  0  0  0  0
 18 19  1  0  0  0  0
 18 15  1  0  0  0  0
 20 18  1  0  0  0  0
M  END
