25
q = 0.0, confidence = 0.99

 59 63  0  0  1  0  0  0  0  0999 V2000
    4.9358    1.2729    0.2952 C   0  0  0  0  0  0  0  0  0  0  0  0
    6.0842    2.0224   -0.0079 C   0  0  0  0  0  0  0  0  0  0  0  0
    6.1404    3.0992    0.2120 H   0  0  0  0  0  0  0  0  0  0  0  0
    7.1572    1.3483   -0.6031 C   0  0  0  0  0  0  0  0  0  0  0  0
    8.0711    1.9073   -0.8539 H   0  0  0  0  0  0  0  0  0  0  0  0
    7.0884   -0.0372   -0.8888 C   0  0  0  0  0  0  0  0  0  0  0  0
    7.9516   -0.5321   -1.3583 H   0  0  0  0  0  0  0  0  0  0  0  0
    5.9449   -0.7823   -0.5856 C   0  0  0  0  0  0  0  0  0  0  0  0
    5.8999   -1.8582   -0.8131 H   0  0  0  0  0  0  0  0  0  0  0  0
    4.8453   -0.1327    0.0171 C   0  0  0  0  0  0  0  0  0  0  0  0
    3.5421   -0.5644    0.4591 C   0  0  0  0  0  0  0  0  0  0  0  0
    2.8823   -1.9111    0.4066 C   0  0  0  0  0  0  0  0  0  0  0  0
    3.5803   -2.7158    0.7195 H   0  0  0  0  0  0  0  0  0  0  0  0
    2.5648   -2.1562   -0.6314 H   0  0  0  0  0  0  0  0  0  0  0  0
    1.6498   -1.9254    1.3279 C   0  0  0  0  0  0  0  0  0  0  0  0
    0.9808   -2.7818    1.1206 H   0  0  0  0  0  0  0  0  0  0  0  0
    1.9646   -1.9607    2.3928 H   0  0  0  0  0  0  0  0  0  0  0  0
    2.9017    0.5583    0.9653 C   0  0  0  0  0  0  0  0  0  0  0  0
    1.5093    0.5756    1.5202 C   0  0  1  0  0  0  0  0  0  0  0  0
    1.5404    0.6110    2.6356 H   0  0  0  0  0  0  0  0  0  0  0  0
    0.5400    1.6450    0.9682 C   0  0  0  0  0  0  0  0  0  0  0  0
    1.0575    2.2966    0.2372 H   0  0  0  0  0  0  0  0  0  0  0  0
    0.1897    2.2969    1.7874 H   0  0  0  0  0  0  0  0  0  0  0  0
   -0.6435    0.8532    0.3203 C   0  0  1  0  0  0  0  0  0  0  0  0
   -0.3000   -0.5965    0.5241 C   0  0  0  0  0  2  0  0  0  0  0  0
   -2.0691    1.1412    0.9229 C   0  0  1  0  0  0  0  0  0  0  0  0
   -2.7131    0.3367    0.5100 H   0  0  0  0  0  0  0  0  0  0  0  0
   -2.0585    0.9792    2.4307 C   0  0  0  0  0  0  0  0  0  0  0  0
   -1.7101    1.8487    3.0176 H   0  0  0  0  0  0  0  0  0  0  0  0
   -2.4400   -0.1358    3.0775 C   0  0  0  0  0  0  0  0  0  0  0  0
   -2.8012   -1.0215    2.5277 H   0  0  0  0  0  0  0  0  0  0  0  0
   -2.3996   -0.2036    4.1760 H   0  0  0  0  0  0  0  0  0  0  0  0
   -2.6857    2.4716    0.5133 C   0  0  0  0  0  0  0  0  0  0  0  0
   -3.8677    2.4824   -0.2545 C   0  0  0  0  0  0  0  0  0  0  0  0
   -4.3347    1.5238   -0.5293 H   0  0  0  0  0  0  0  0  0  0  0  0
   -4.4553    3.6870   -0.6694 C   0  0  0  0  0  0  0  0  0  0  0  0
   -5.3747    3.6657   -1.2741 H   0  0  0  0  0  0  0  0  0  0  0  0
   -3.8758    4.9131   -0.3095 C   0  0  0  0  0  0  0  0  0  0  0  0
   -4.3323    5.8603   -0.6342 H   0  0  0  0  0  0  0  0  0  0  0  0
   -2.7161    4.9207    0.4816 C   0  0  0  0  0  0  0  0  0  0  0  0
   -2.2611    5.8765    0.7834 H   0  0  0  0  0  0  0  0  0  0  0  0
   -2.1325    3.7133    0.8917 C   0  0  0  0  0  0  0  0  0  0  0  0
   -1.2267    3.7494    1.5142 H   0  0  0  0  0  0  0  0  0  0  0  0
   -2.0851    0.3773   -2.5252 C   0  0  0  0  0  0  0  0  0  0  0  0
   -1.8821    0.3754   -3.6166 H   0  0  0  0  0  0  0  0  0  0  0  0
   -2.9954    0.9818   -2.3519 H   0  0  0  0  0  0  0  0  0  0  0  0
   -2.2846   -0.6687   -2.2149 H   0  0  0  0  0  0  0  0  0  0  0  0
   -0.4556    2.9437   -2.0512 C   0  0  0  0  0  0  0  0  0  0  0  0
   -0.2639    3.0379   -3.1409 H   0  0  0  0  0  0  0  0  0  0  0  0
    0.3755    3.4556   -1.5257 H   0  0  0  0  0  0  0  0  0  0  0  0
   -1.3946    3.4821   -1.8189 H   0  0  0  0  0  0  0  0  0  0  0  0
    0.9847    0.2220   -2.2397 C   0  0  0  0  0  0  0  0  0  0  0  0
    0.8662   -0.8770   -2.1521 H   0  0  0  0  0  0  0  0  0  0  0  0
    1.8909    0.5193   -1.6734 H   0  0  0  0  0  0  0  0  0  0  0  0
    1.1603    0.4602   -3.3090 H   0  0  0  0  0  0  0  0  0  0  0  0
    3.7363    1.6589    0.8729 N   0  0  0  0  0  0  0  0  0  0  0  0
    3.5098    2.6018    1.1831 H   0  0  0  0  0  0  0  0  0  0  0  0
    0.8707   -0.7027    1.1340 N   0  0  1  0  0  0  0  0  0  0  0  0
   -0.5831    1.0980   -1.6441 Si  0  0  0  0  0  0  0  0  0  0  0  0
  1 56  1  0  0  0  0
  2  3  1  0  0  0  0
  2  1  2  0  0  0  0
  4  2  1  0  0  0  0
  5  4  1  0  0  0  0
  6  4  2  0  0  0  0
  6  8  1  0  0  0  0
  7  6  1  0  0  0  0
  8 10  2  0  0  0  0
  9  8  1  0  0  0  0
 10  1  1  0  0  0  0
 10 11  1  0  0  0  0
 11 18  2  0  0  0  0
 12 11  1  0  0  0  0
 12 13  1  0  0  0  0
 12 15  1  0  0  0  0
 14 12  1  0  0  0  0
 15 17  1  0  0  0  0
 16 15  1  0  0  0  0
 18 19  1  0  0  0  0
 19 20  1  1  0  0  0
 21 19  1  0  0  0  0
 21 23  1  0  0  0  0
 22 21  1  0  0  0  0
 24 59  1  6  0  0  0
 24 25  1  0  0  0  0
 24 26  1  0  0  0  0
 24 21  1  0  0  0  0
 26 27  1  6  0  0  0
 26 28  1  0  0  0  0
 28 29  1  0  0  0  0
 28 30  2  0  0  0  0
 30 32  1  0  0  0  0
 31 30  1  0  0  0  0
 33 42  1  0  0  0  0
 33 26  1  0  0  0  0
 34 33  2  0  0  0  0
 35 34  1  0  0  0  0
 36 38  2  0  0  0  0
 36 34  1  0  0  0  0
 37 36  1  0  0  0  0
 38 40  1  0  0  0  0
 39 38  1  0  0  0  0
 40 41  1  0  0  0  0
 40 42  2  0  0  0  0
 42 43  1  0  0  0  0
 44 46  1  0  0  0  0
 44 47  1  0  0  0  0
 44 59  1  0  0  0  0
 45 44  1  0  0  0  0
 48 51  1  0  0  0  0
 48 59  1  0  0  0  0
 48 50  1  0  0  0  0
 49 48  1  0  0  0  0
 52 53  1  0  0  0  0
 52 54  1  0  0  0  0
 52 59  1  0  0  0  0
 55 52  1  0  0  0  0
 56 18  1  0  0  0  0
 56 57  1  0  0  0  0
 58 25  1  6  0  0  0
 58 15  1  0  0  0  0
 58 19  1  0  0  0  0
M  END
