15
q = -2.0, confidence = 0.896

 23 22  0  0  1  0  0  0  0  0999 V2000
   -0.3633    1.2034   -0.6296 S   0  0  0  0  0  0  0  0  0  0  0  0
   -0.0896   -1.7922    0.3589 S   0  0  0  0  0  0  0  0  0  0  0  0
    3.5685    0.9808   -0.3385 O   0  0  0  0  0  0  0  0  0  0  0  0
    2.0805    2.6016   -0.9194 O   0  0  0  0  0  0  0  0  0  0  0  0
    3.0245   -1.4587    1.6674 O   0  0  0  0  0  0  0  0  0  0  0  0
    3.2331   -1.9336   -0.5525 O   0  0  0  0  0  0  0  0  0  0  0  0
    0.1733    0.5910    3.1200 N   0  0  0  0  0  0  0  0  0  0  0  0
   -3.2229    2.7571    1.2169 N   0  0  0  0  0  0  0  0  0  0  0  0
    1.2248    0.5021   -0.3227 C   0  0  2  0  0  3  0  0  0  0  0  0
    1.2862   -0.8086    0.1322 C   0  0  0  0  0  0  0  0  0  0  0  0
    2.4173    1.3487   -0.5152 C   0  0  0  0  0  0  0  0  0  0  0  0
    3.1799    3.4966   -1.1218 C   0  0  0  0  0  0  0  0  0  0  0  0
    2.6194   -1.4182    0.5275 C   0  0  0  0  0  0  0  0  0  0  0  0
    4.5720   -2.3960   -0.3196 C   0  0  0  0  0  0  0  0  0  0  0  0
   -1.2792    1.0302    1.0044 C   0  0  0  0  0  3  0  0  0  0  0  0
   -0.4791    0.7983    2.1641 C   0  0  0  0  0  0  0  0  0  0  0  0
   -2.3291    1.9945    1.1487 C   0  0  0  0  0  0  0  0  0  0  0  0
    3.7594    3.6238   -0.1854 H   0  0  0  0  0  0  0  0  0  0  0  0
    2.7363    4.4582   -1.4346 H   0  0  0  0  0  0  0  0  0  0  0  0
    3.8638    3.1115   -1.9049 H   0  0  0  0  0  0  0  0  0  0  0  0
    5.2210   -1.5347   -0.0632 H   0  0  0  0  0  0  0  0  0  0  0  0
    4.9036   -2.8619   -1.2640 H   0  0  0  0  0  0  0  0  0  0  0  0
    4.6003   -3.1282    0.5115 H   0  0  0  0  0  0  0  0  0  0  0  0
  1 15  1  0  0  0  0
  4 11  1  0  0  0  0
  6 14  1  0  0  0  0
  6 13  1  0  0  0  0
  9  1  1  1  0  0  0
  9 10  1  0  0  0  0
 10  2  2  0  0  0  0
 10 13  1  0  0  0  0
 11  3  2  0  0  0  0
 11  9  1  0  0  0  0
 12  4  1  0  0  0  0
 12 18  1  0  0  0  0
 13  5  2  0  0  0  0
 14 21  1  0  0  0  0
 14 23  1  0  0  0  0
 15 17  1  0  0  0  0
 15 16  1  0  0  0  0
 16  7  3  0  0  0  0
 17  8  3  0  0  0  0
 19 12  1  0  0  0  0
 20 12  1  0  0  0  0
 22 14  1  0  0  0  0
M  END
