3
q = 0.0, confidence = 0.91

 37 39  0  0  0  0  0  0  0  0999 V2000
    1.9908    2.0043   -0.8188 O   0  0  0  0  0  0  0  0  0  0  0  0
    1.2814    3.9055   -1.7117 O   0  0  0  0  0  0  0  0  0  0  0  0
    0.1352    0.5822   -0.9768 C   0  0  0  0  0  3  0  0  0  0  0  0
    1.5445    0.6719   -0.6129 C   0  0  0  0  0  0  0  0  0  0  0  0
    0.9863    2.6663   -1.3960 C   0  0  0  0  0  0  0  0  0  0  0  0
   -0.1541    1.8671   -1.5252 C   0  0  0  0  0  0  0  0  0  0  0  0
    2.5440   -0.1976   -0.1824 C   0  0  0  0  0  3  0  0  0  0  0  0
    3.7842    0.3275    0.4212 C   0  0  0  0  0  0  0  0  0  0  0  0
    5.0315   -0.2833    0.1327 C   0  0  0  0  0  0  0  0  0  0  0  0
    6.2110    0.1918    0.7166 C   0  0  0  0  0  0  0  0  0  0  0  0
    6.1683    1.2705    1.6148 C   0  0  0  0  0  0  0  0  0  0  0  0
    4.9385    1.8803    1.9194 C   0  0  0  0  0  0  0  0  0  0  0  0
    3.7605    1.4223    1.3231 C   0  0  0  0  0  0  0  0  0  0  0  0
    2.4693   -1.6461   -0.4211 C   0  0  0  0  0  0  0  0  0  0  0  0
    1.9959   -2.1426   -1.6605 C   0  0  0  0  0  0  0  0  0  0  0  0
    2.0060   -3.5161   -1.9230 C   0  0  0  0  0  0  0  0  0  0  0  0
    2.4752   -4.4169   -0.9512 C   0  0  0  0  0  0  0  0  0  0  0  0
    2.9538   -3.9367    0.2792 C   0  0  0  0  0  0  0  0  0  0  0  0
    2.9644   -2.5627    0.5389 C   0  0  0  0  0  0  0  0  0  0  0  0
    0.2940    4.6949   -2.4301 C   0  0  0  0  0  0  0  0  0  0  0  0
   -0.6847    5.3671   -1.4866 C   0  0  0  0  0  0  0  0  0  0  0  0
   -1.1199    2.2092   -1.9042 H   0  0  0  0  0  0  0  0  0  0  0  0
    5.0697   -1.1211   -0.5780 H   0  0  0  0  0  0  0  0  0  0  0  0
    7.1721   -0.2819    0.4678 H   0  0  0  0  0  0  0  0  0  0  0  0
    7.0951    1.6372    2.0808 H   0  0  0  0  0  0  0  0  0  0  0  0
    4.9006    2.7180    2.6314 H   0  0  0  0  0  0  0  0  0  0  0  0
    2.8016    1.8980    1.5710 H   0  0  0  0  0  0  0  0  0  0  0  0
    1.6563   -1.4285   -2.4239 H   0  0  0  0  0  0  0  0  0  0  0  0
    1.6632   -3.8915   -2.8992 H   0  0  0  0  0  0  0  0  0  0  0  0
    2.4800   -5.4972   -1.1595 H   0  0  0  0  0  0  0  0  0  0  0  0
    3.3199   -4.6406    1.0408 H   0  0  0  0  0  0  0  0  0  0  0  0
    3.3342   -2.1848    1.5032 H   0  0  0  0  0  0  0  0  0  0  0  0
    0.9003    5.4391   -2.9800 H   0  0  0  0  0  0  0  0  0  0  0  0
   -0.2099    4.0443   -3.1754 H   0  0  0  0  0  0  0  0  0  0  0  0
   -1.3079    4.6310   -0.9426 H   0  0  0  0  0  0  0  0  0  0  0  0
   -0.1506    5.9942   -0.7465 H   0  0  0  0  0  0  0  0  0  0  0  0
   -1.3622    6.0247   -2.0665 H   0  0  0  0  0  0  0  0  0  0  0  0
  1  4  1  0  0  0  0
  2  5  1  0  0  0  0
  3  4  2  0  0  0  0
  4  7  1  0  0  0  0
  5  1  1  0  0  0  0
  6  5  2  0  0  0  0
  6  3  1  0  0  0  0
  7  8  1  0  0  0  0
  8 13  1  0  0  0  0
  9  8  2  0  0  0  0
  9 10  1  0  0  0  0
 10 11  2  0  0  0  0
 11 12  1  0  0  0  0
 11 25  1  0  0  0  0
 12 26  1  0  0  0  0
 13 27  1  0  0  0  0
 13 12  2  0  0  0  0
 14  7  1  0  0  0  0
 14 19  1  0  0  0  0
 15 14  2  0  0  0  0
 16 15  1  0  0  0  0
 16 17  2  0  0  0  0
 17 18  1  0  0  0  0
 18 19  2  0  0  0  0
 18 31  1  0  0  0  0
 19 32  1  0  0  0  0
 20  2  1  0  0  0  0
 20 21  1  0  0  0  0
 21 35  1  0  0  0  0
 21 36  1  0  0  0  0
 22  6  1  0  0  0  0
 23  9  1  0  0  0  0
 24 10  1  0  0  0  0
 28 15  1  0  0  0  0
 29 16  1  0  0  0  0
 30 17  1  0  0  0  0
 33 20  1  0  0  0  0
 34 20  1  0  0  0  0
 37 21  1  0  0  0  0
M  END
