6
q = 0.0, confidence = 1.0

 38 40  0  0  0  0  0  0  0  0999 V2000
   -0.9328    2.1021   -0.0566 N   0  0  0  0  0  0  0  0  0  0  0  0
   -1.6665    0.1351    0.5880 N   0  0  0  0  0  0  0  0  0  0  0  0
   -2.7787    0.9783    0.5742 C   0  0  0  0  0  0  0  0  0  0  0  0
   -1.2747    3.8323   -2.4654 O   0  0  0  0  0  0  0  0  0  0  0  0
   -1.8065    3.0249   -2.5920 H   0  0  0  0  0  0  0  0  0  0  0  0
   -0.5471    0.8179    0.2060 C   0  0  0  0  0  2  0  0  0  0  0  0
   -2.3095    2.2437    0.1452 C   0  0  0  0  0  0  0  0  0  0  0  0
   -4.1280    0.7642    0.8900 C   0  0  0  0  0  0  0  0  0  0  0  0
   -4.4913   -0.2230    1.2048 H   0  0  0  0  0  0  0  0  0  0  0  0
   -0.0237    3.1753   -0.4497 C   0  0  0  0  0  0  0  0  0  0  0  0
    0.9869    2.8846   -0.0973 H   0  0  0  0  0  0  0  0  0  0  0  0
   -0.3303    4.0896    0.0981 H   0  0  0  0  0  0  0  0  0  0  0  0
   -2.6687   -2.1241    0.3297 C   0  0  0  0  0  0  0  0  0  0  0  0
   -4.4953   -3.7321   -1.0881 C   0  0  0  0  0  0  0  0  0  0  0  0
   -5.2148   -4.3628   -1.6323 H   0  0  0  0  0  0  0  0  0  0  0  0
   -2.7676   -2.0340   -1.0718 C   0  0  0  0  0  0  0  0  0  0  0  0
   -2.1099   -1.3335   -1.6114 H   0  0  0  0  0  0  0  0  0  0  0  0
   -3.6742   -2.8311   -1.7819 C   0  0  0  0  0  0  0  0  0  0  0  0
   -3.7343   -2.7492   -2.8775 H   0  0  0  0  0  0  0  0  0  0  0  0
   -4.3950   -3.8308    0.3064 C   0  0  0  0  0  0  0  0  0  0  0  0
   -5.0375   -4.5412    0.8506 H   0  0  0  0  0  0  0  0  0  0  0  0
   -3.1755    3.3389    0.0101 C   0  0  0  0  0  0  0  0  0  0  0  0
   -2.8134    4.3027   -0.3706 H   0  0  0  0  0  0  0  0  0  0  0  0
   -1.6680   -1.2482    1.0556 C   0  0  0  0  0  0  0  0  0  0  0  0
   -1.8461   -1.2391    2.1488 H   0  0  0  0  0  0  0  0  0  0  0  0
   -0.6284   -1.6122    0.9045 H   0  0  0  0  0  0  0  0  0  0  0  0
   -4.5244    3.1238    0.3299 C   0  0  0  0  0  0  0  0  0  0  0  0
   -5.2363    3.9567    0.2315 H   0  0  0  0  0  0  0  0  0  0  0  0
   -0.0129    3.4315   -1.9596 C   0  0  0  0  0  0  0  0  0  0  0  0
    0.6986    4.2623   -2.1536 H   0  0  0  0  0  0  0  0  0  0  0  0
    0.3769    2.5245   -2.4762 H   0  0  0  0  0  0  0  0  0  0  0  0
   -3.4882   -3.0385    1.0403 C   0  0  0  0  0  0  0  0  0  0  0  0
   -3.4112   -3.1803    2.5423 C   0  0  0  0  0  0  0  0  0  0  0  0
   -2.4055   -3.5063    2.8806 H   0  0  0  0  0  0  0  0  0  0  0  0
   -4.1419   -3.9276    2.9059 H   0  0  0  0  0  0  0  0  0  0  0  0
   -3.6272   -2.2236    3.0646 H   0  0  0  0  0  0  0  0  0  0  0  0
   -4.9911    1.8629    0.7644 C   0  0  0  0  0  0  0  0  0  0  0  0
   -6.0580    1.7349    0.9992 H   0  0  0  0  0  0  0  0  0  0  0  0
  1  7  1  0  0  0  0
  1  6  1  0  0  0  0
  2 24  1  0  0  0  0
  3  2  1  0  0  0  0
  3  8  1  0  0  0  0
  4 29  1  0  0  0  0
  5  4  1  0  0  0  0
  6  2  1  0  0  0  0
  7  3  2  0  0  0  0
  8  9  1  0  0  0  0
 10 11  1  0  0  0  0
 10  1  1  0  0  0  0
 10 12  1  0  0  0  0
 13 32  1  0  0  0  0
 13 24  1  0  0  0  0
 14 20  1  0  0  0  0
 15 14  1  0  0  0  0
 16 13  2  0  0  0  0
 17 16  1  0  0  0  0
 18 14  2  0  0  0  0
 18 16  1  0  0  0  0
 19 18  1  0  0  0  0
 20 21  1  0  0  0  0
 20 32  2  0  0  0  0
 22  7  1  0  0  0  0
 22 27  2  0  0  0  0
 23 22  1  0  0  0  0
 24 25  1  0  0  0  0
 26 24  1  0  0  0  0
 27 37  1  0  0  0  0
 28 27  1  0  0  0  0
 29 10  1  0  0  0  0
 30 29  1  0  0  0  0
 31 29  1  0  0  0  0
 32 33  1  0  0  0  0
 33 34  1  0  0  0  0
 33 35  1  0  0  0  0
 33 36  1  0  0  0  0
 37  8  2  0  0  0  0
 37 38  1  0  0  0  0
M  END
