5
q = 0.0, confidence = 1.0

 47 49  0  0  0  0  0  0  0  0999 V2000
   -1.3281    0.5152    0.1312 N   0  0  0  0  0  0  0  0  0  0  0  0
   -0.1811    1.8509    1.4502 N   0  0  0  0  0  0  0  0  0  0  0  0
    1.3542    3.9837    0.3203 O   0  0  0  0  0  0  0  0  0  0  0  0
    1.2231    3.4597   -0.5036 H   0  0  0  0  0  0  0  0  0  0  0  0
   -0.0779    0.7818    0.6109 C   0  0  0  0  0  2  0  0  0  0  0  0
   -2.2434    1.4515    0.6252 C   0  0  0  0  0  0  0  0  0  0  0  0
   -3.4277   -1.7880    0.3318 C   0  0  0  0  0  0  0  0  0  0  0  0
   -4.7663   -2.2534    0.3706 C   0  0  0  0  0  0  0  0  0  0  0  0
   -1.4980    2.3117    1.4733 C   0  0  0  0  0  0  0  0  0  0  0  0
   -2.9702   -1.1154   -0.8291 C   0  0  0  0  0  0  0  0  0  0  0  0
   -3.6220    1.6488    0.4309 C   0  0  0  0  0  0  0  0  0  0  0  0
   -4.2098    0.9910   -0.2197 H   0  0  0  0  0  0  0  0  0  0  0  0
   -3.8074   -0.9264   -1.9620 C   0  0  0  0  0  0  0  0  0  0  0  0
    0.9319    2.4495    2.1829 C   0  0  0  0  0  0  0  0  0  0  0  0
    1.4192    1.6563    2.7889 H   0  0  0  0  0  0  0  0  0  0  0  0
    0.4935    3.1946    2.8723 H   0  0  0  0  0  0  0  0  0  0  0  0
   -4.2175    2.7234    1.1061 C   0  0  0  0  0  0  0  0  0  0  0  0
   -5.2941    2.9040    0.9708 H   0  0  0  0  0  0  0  0  0  0  0  0
   -1.5667   -0.5549   -0.8519 C   0  0  0  0  0  0  0  0  0  0  0  0
   -0.8148   -1.3384   -0.6214 H   0  0  0  0  0  0  0  0  0  0  0  0
   -1.2941   -0.1561   -1.8464 H   0  0  0  0  0  0  0  0  0  0  0  0
   -5.5830   -2.0597   -0.7537 C   0  0  0  0  0  0  0  0  0  0  0  0
   -6.6220   -2.4268   -0.7197 H   0  0  0  0  0  0  0  0  0  0  0  0
   -5.3175   -2.9354    1.5971 C   0  0  0  0  0  0  0  0  0  0  0  0
   -4.7683   -3.8724    1.8305 H   0  0  0  0  0  0  0  0  0  0  0  0
   -6.3852   -3.1957    1.4652 H   0  0  0  0  0  0  0  0  0  0  0  0
   -5.2317   -2.2918    2.4976 H   0  0  0  0  0  0  0  0  0  0  0  0
   -3.4725    3.5778    1.9479 C   0  0  0  0  0  0  0  0  0  0  0  0
   -3.9762    4.4144    2.4540 H   0  0  0  0  0  0  0  0  0  0  0  0
   -2.0989    3.3853    2.1452 C   0  0  0  0  0  0  0  0  0  0  0  0
   -1.5150    4.0598    2.7858 H   0  0  0  0  0  0  0  0  0  0  0  0
   -5.1360   -1.4180   -1.9224 C   0  0  0  0  0  0  0  0  0  0  0  0
    1.9549    3.1219    1.2507 C   0  0  0  0  0  0  0  0  0  0  0  0
    2.6580    3.7005    1.8914 H   0  0  0  0  0  0  0  0  0  0  0  0
    2.5512    2.3213    0.7505 H   0  0  0  0  0  0  0  0  0  0  0  0
   -2.5423   -1.9770    1.5377 C   0  0  0  0  0  0  0  0  0  0  0  0
   -2.7550   -1.2093    2.3141 H   0  0  0  0  0  0  0  0  0  0  0  0
   -1.4616   -1.9050    1.3160 H   0  0  0  0  0  0  0  0  0  0  0  0
   -2.7137   -2.9612    2.0154 H   0  0  0  0  0  0  0  0  0  0  0  0
   -3.2988   -0.1869   -3.1805 C   0  0  0  0  0  0  0  0  0  0  0  0
   -2.9414    0.8328   -2.9262 H   0  0  0  0  0  0  0  0  0  0  0  0
   -4.0812   -0.0740   -3.9509 H   0  0  0  0  0  0  0  0  0  0  0  0
   -2.4447   -0.7094   -3.6596 H   0  0  0  0  0  0  0  0  0  0  0  0
   -6.0847   -1.2636   -3.0882 C   0  0  0  0  0  0  0  0  0  0  0  0
   -6.2639   -0.1983   -3.3447 H   0  0  0  0  0  0  0  0  0  0  0  0
   -7.0672   -1.7184   -2.8580 H   0  0  0  0  0  0  0  0  0  0  0  0
   -5.6982   -1.7526   -4.0068 H   0  0  0  0  0  0  0  0  0  0  0  0
  1  5  1  0  0  0  0
  1  6  1  0  0  0  0
  2  9  1  0  0  0  0
  2 14  1  0  0  0  0
  3 33  1  0  0  0  0
  4  3  1  0  0  0  0
  5  2  1  0  0  0  0
  6  9  1  0  0  0  0
  7  8  1  0  0  0  0
  7 36  1  0  0  0  0
  8 24  1  0  0  0  0
  9 30  2  0  0  0  0
 10  7  2  0  0  0  0
 11  6  2  0  0  0  0
 11 17  1  0  0  0  0
 12 11  1  0  0  0  0
 13 32  2  0  0  0  0
 13 10  1  0  0  0  0
 14 15  1  0  0  0  0
 14 16  1  0  0  0  0
 17 28  2  0  0  0  0
 18 17  1  0  0  0  0
 19 10  1  0  0  0  0
 19 20  1  0  0  0  0
 19  1  1  0  0  0  0
 21 19  1  0  0  0  0
 22 23  1  0  0  0  0
 22  8  2  0  0  0  0
 24 25  1  0  0  0  0
 24 27  1  0  0  0  0
 26 24  1  0  0  0  0
 28 30  1  0  0  0  0
 28 29  1  0  0  0  0
 30 31  1  0  0  0  0
 32 22  1  0  0  0  0
 33 34  1  0  0  0  0
 33 14  1  0  0  0  0
 35 33  1  0  0  0  0
 36 39  1  0  0  0  0
 36 37  1  0  0  0  0
 38 36  1  0  0  0  0
 40 41  1  0  0  0  0
 40 13  1  0  0  0  0
 42 40  1  0  0  0  0
 43 40  1  0  0  0  0
 44 46  1  0  0  0  0
 44 32  1  0  0  0  0
 45 44  1  0  0  0  0
 47 44  1  0  0  0  0
M  END
