13
q = -1.0, confidence = 0.294

 45 52  0  0  1  0  0  0  0  0999 V2000
    1.3213   -1.3158    0.2279 C   0  0  1  0  0  0  0  0  0  0  0  0
    2.3655   -0.2962    0.8573 C   0  0  2  0  0  0  0  0  0  0  0  0
    2.2810   -0.0808    1.9283 H   0  0  0  0  0  0  0  0  0  0  0  0
    0.1187   -1.8002    1.1178 C   0  0  0  0  0  0  0  0  0  0  0  0
    0.4981   -1.8141    2.6141 C   0  0  0  0  0  0  0  0  0  0  0  0
    1.3629   -2.4818    2.7882 H   0  0  0  0  0  0  0  0  0  0  0  0
   -0.3619   -2.1893    3.2014 H   0  0  0  0  0  0  0  0  0  0  0  0
    0.7506   -0.8108    3.0059 H   0  0  0  0  0  0  0  0  0  0  0  0
   -0.2863   -3.2416    0.7624 C   0  0  0  0  0  0  0  0  0  0  0  0
    0.5272   -3.9436    1.0328 H   0  0  0  0  0  0  0  0  0  0  0  0
   -0.4982   -3.3729   -0.3112 H   0  0  0  0  0  0  0  0  0  0  0  0
   -1.2006   -3.5130    1.3267 H   0  0  0  0  0  0  0  0  0  0  0  0
   -1.0748   -0.8087    0.8919 C   0  0  2  0  0  3  0  0  0  0  0  0
   -1.6692   -0.0737    2.0184 C   0  0  0  0  0  0  0  0  0  0  0  0
   -1.1127    0.2556    2.9014 H   0  0  0  0  0  0  0  0  0  0  0  0
   -3.0150    0.1720    1.8047 C   0  0  0  0  0  0  0  0  0  0  0  0
   -3.6809    0.7444    2.4657 H   0  0  0  0  0  0  0  0  0  0  0  0
   -3.3957   -0.4373    0.5590 C   0  0  0  0  0  0  0  0  0  0  0  0
   -4.6357   -0.4604   -0.1157 C   0  0  0  0  0  0  0  0  0  0  0  0
   -5.5050    0.0611    0.3172 H   0  0  0  0  0  0  0  0  0  0  0  0
   -4.7474   -1.1472   -1.3288 C   0  0  0  0  0  0  0  0  0  0  0  0
   -5.7100   -1.1738   -1.8639 H   0  0  0  0  0  0  0  0  0  0  0  0
   -3.6221   -1.8106   -1.8699 C   0  0  0  0  0  0  0  0  0  0  0  0
   -3.7174   -2.3574   -2.8213 H   0  0  0  0  0  0  0  0  0  0  0  0
   -2.3788   -1.7799   -1.2221 C   0  0  0  0  0  0  0  0  0  0  0  0
   -1.5226   -2.2784   -1.6938 H   0  0  0  0  0  0  0  0  0  0  0  0
   -2.2272   -1.0801   -0.0044 C   0  0  0  0  0  0  0  0  0  0  0  0
    2.8981    0.8611   -0.2239 B   0  0  2  0  0  0  0  0  0  0  0  0
    3.2130    1.9580    0.1931 H   0  0  0  0  0  0  0  0  0  0  0  0
    2.1635    0.4546   -1.7725 B   0  0  2  0  0  0  0  0  0  0  0  0
    2.0258    1.2148   -2.7083 H   0  0  0  0  0  0  0  0  0  0  0  0
    1.1133   -0.9222   -1.3988 B   0  0  1  0  0  0  0  0  0  0  0  0
    0.0509   -1.1560   -1.9277 H   0  0  0  0  0  0  0  0  0  0  0  0
    2.9046   -1.8930    0.5792 B   0  0  1  0  0  0  0  0  0  0  0  0
    3.0740   -2.6513    1.5028 H   0  0  0  0  0  0  0  0  0  0  0  0
    3.9524   -0.4893    0.2770 B   0  0  2  0  0  0  0  0  0  0  0  0
    4.8795   -0.3166    1.0367 H   0  0  0  0  0  0  0  0  0  0  0  0
    3.8319   -0.0583   -1.4344 B   0  0  2  0  0  0  0  0  0  0  0  0
    4.7795    0.4172   -2.0277 H   0  0  0  0  0  0  0  0  0  0  0  0
    2.6761   -1.1961   -2.1936 B   0  0  0  0  0  0  0  0  0  0  0  0
    2.7525   -1.5627   -3.3495 H   0  0  0  0  0  0  0  0  0  0  0  0
    2.1063   -2.3177   -0.9411 B   0  0  2  0  0  0  0  0  0  0  0  0
    1.7410   -3.4566   -1.1087 H   0  0  0  0  0  0  0  0  0  0  0  0
    3.8065   -1.7839   -0.9375 B   0  0  2  0  0  0  0  0  0  0  0  0
    4.7124   -2.5622   -1.1517 H   0  0  0  0  0  0  0  0  0  0  0  0
  1 34  1  0  0  0  0
  1  2  1  0  0  0  0
  1  4  1  1  0  0  0
  2  3  1  1  0  0  0
  4  5  1  0  0  0  0
  5  6  1  0  0  0  0
  5  8  1  0  0  0  0
  5  7  1  0  0  0  0
  9 10  1  0  0  0  0
  9  4  1  0  0  0  0
  9 12  1  0  0  0  0
 11  9  1  0  0  0  0
 13  4  1  1  0  0  0
 13 14  1  0  0  0  0
 14 15  1  0  0  0  0
 16 14  2  0  0  0  0
 16 17  1  0  0  0  0
 18 16  1  0  0  0  0
 19 20  1  0  0  0  0
 19 18  2  0  0  0  0
 21 19  1  0  0  0  0
 22 21  1  0  0  0  0
 23 21  2  0  0  0  0
 23 25  1  0  0  0  0
 24 23  1  0  0  0  0
 25 27  2  0  0  0  0
 26 25  1  0  0  0  0
 27 18  1  0  0  0  0
 27 13  1  0  0  0  0
 28 29  1  1  0  0  0
 28  2  1  0  0  0  0
 30 31  1  6  0  0  0
 30 38  1  0  0  0  0
 30 32  1  0  0  0  0
 30 28  1  0  0  0  0
 32 33  1  6  0  0  0
 32 42  1  0  0  0  0
 32  1  1  0  0  0  0
 34 35  1  1  0  0  0
 36  2  1  0  0  0  0
 36 37  1  1  0  0  0
 38 39  1  6  0  0  0
 38 28  1  0  0  0  0
 38 36  1  0  0  0  0
 40 42  1  0  0  0  0
 40 44  1  0  0  0  0
 41 40  1  0  0  0  0
 42 43  1  6  0  0  0
 42 34  1  0  0  0  0
 44 45  1  6  0  0  0
 44 36  1  0  0  0  0
 44 34  1  0  0  0  0
M  END
