13
q = -1.0

 45 51  0  0  1  0  0  0  0  0999 V2000
    1.9793   -1.1214   -0.5256 C   0  0  1  0  0  0  0  0  0  0  0  0
    0.4388   -1.3075   -1.1870 B   0  0  2  0  0  0  0  0  0  0  0  0
    0.0822   -0.5151   -2.0394 H   0  0  0  0  0  0  0  0  0  0  0  0
    2.8393    0.1573   -0.8248 C   0  0  0  0  0  0  0  0  0  0  0  0
    4.2803    0.0807   -0.2772 C   0  0  0  0  0  0  0  0  0  0  0  0
    4.7692    1.0673   -0.4078 H   0  0  0  0  0  0  0  0  0  0  0  0
    4.8677   -0.6819   -0.8215 H   0  0  0  0  0  0  0  0  0  0  0  0
    4.3249   -0.1724    0.7989 H   0  0  0  0  0  0  0  0  0  0  0  0
    2.9477    0.3911   -2.3396 C   0  0  0  0  0  0  0  0  0  0  0  0
    3.3761    1.3931   -2.5418 H   0  0  0  0  0  0  0  0  0  0  0  0
    1.9674    0.3062   -2.8399 H   0  0  0  0  0  0  0  0  0  0  0  0
    3.6104   -0.3718   -2.7889 H   0  0  0  0  0  0  0  0  0  0  0  0
    2.0889    1.2807   -0.1052 C   0  0  1  0  0  3  0  0  0  0  0  0
    1.1529    2.2618   -0.6053 C   0  0  0  0  0  0  0  0  0  0  0  0
    0.7241    2.6545   -1.9118 C   0  0  0  0  0  0  0  0  0  0  0  0
    1.1104    2.1493   -2.8039 H   0  0  0  0  0  0  0  0  0  0  0  0
   -0.1976    3.6813   -2.0503 C   0  0  0  0  0  0  0  0  0  0  0  0
   -0.5237    3.9771   -3.0595 H   0  0  0  0  0  0  0  0  0  0  0  0
   -0.7416    4.3615   -0.9184 C   0  0  0  0  0  0  0  0  0  0  0  0
   -1.4792    5.1637   -1.0742 H   0  0  0  0  0  0  0  0  0  0  0  0
   -0.3489    4.0184    0.3649 C   0  0  0  0  0  0  0  0  0  0  0  0
   -0.7630    4.5344    1.2448 H   0  0  0  0  0  0  0  0  0  0  0  0
    0.6041    2.9783    0.5457 C   0  0  0  0  0  0  0  0  0  0  0  0
    1.1910    2.4364    1.7249 C   0  0  0  0  0  0  0  0  0  0  0  0
    0.9706    2.7378    2.7543 H   0  0  0  0  0  0  0  0  0  0  0  0
    2.1138    1.4387    1.3262 C   0  0  0  0  0  0  0  0  0  0  0  0
    2.7576    0.8807    2.0159 H   0  0  0  0  0  0  0  0  0  0  0  0
   -0.5618   -2.1010    0.0495 B   0  0  2  0  0  0  0  0  0  0  0  0
   -1.7623   -1.9756    0.1501 H   0  0  0  0  0  0  0  0  0  0  0  0
    0.5037   -2.2475    1.4472 B   0  0  0  0  0  0  0  0  0  0  0  0
    0.2312   -2.2307    2.6265 H   0  0  0  0  0  0  0  0  0  0  0  0
    1.9813   -1.6756    0.9466 C   0  0  1  0  0  0  0  0  0  0  0  0
    2.7066   -1.2431    1.6482 H   0  0  0  0  0  0  0  0  0  0  0  0
    1.7513   -2.3988   -1.6595 B   0  0  2  0  0  0  0  0  0  0  0  0
    2.2702   -2.3379   -2.7506 H   0  0  0  0  0  0  0  0  0  0  0  0
    0.1366   -3.0574   -1.2788 B   0  0  0  0  0  0  0  0  0  0  0  0
   -0.5428   -3.5456   -2.1589 H   0  0  0  0  0  0  0  0  0  0  0  0
    0.1855   -3.6683    0.4041 B   0  0  1  0  0  0  0  0  0  0  0  0
   -0.4577   -4.6240    0.7877 H   0  0  0  0  0  0  0  0  0  0  0  0
    1.8188   -3.3708    1.0323 B   0  0  1  0  0  0  0  0  0  0  0  0
    2.4107   -3.9796    1.8966 H   0  0  0  0  0  0  0  0  0  0  0  0
    2.7851   -2.6225   -0.2439 B   0  0  1  0  0  0  0  0  0  0  0  0
    3.9902   -2.6743   -0.2724 H   0  0  0  0  0  0  0  0  0  0  0  0
    1.6083   -3.8731   -0.6666 B   0  0  0  0  0  0  0  0  0  0  0  0
    2.0047   -4.9479   -1.0668 H   0  0  0  0  0  0  0  0  0  0  0  0
  1  4  1  6  0  0  0
  1 32  1  0  0  0  0
  2  3  1  6  0  0  0
  2  1  1  0  0  0  0
  2 28  1  0  0  0  0
  4  5  1  0  0  0  0
  5  8  1  0  0  0  0
  6  5  1  0  0  0  0
  7  5  1  0  0  0  0
  9  4  1  0  0  0  0
 10  9  1  0  0  0  0
 11  9  1  0  0  0  0
 12  9  1  0  0  0  0
 13  4  1  1  0  0  0
 13 26  1  0  0  0  0
 14 13  1  0  0  0  0
 14 23  1  0  0  0  0
 15 14  2  0  0  0  0
 16 15  1  0  0  0  0
 17 15  1  0  0  0  0
 17 19  2  0  0  0  0
 18 17  1  0  0  0  0
 19 21  1  0  0  0  0
 20 19  1  0  0  0  0
 21 23  2  0  0  0  0
 21 22  1  0  0  0  0
 23 24  1  0  0  0  0
 24 25  1  0  0  0  0
 26 24  2  0  0  0  0
 26 27  1  0  0  0  0
 28 29  1  1  0  0  0
 28 38  1  0  0  0  0
 28 30  1  0  0  0  0
 30 31  1  0  0  0  0
 32 40  1  0  0  0  0
 32 30  1  0  0  0  0
 32 33  1  1  0  0  0
 34 35  1  6  0  0  0
 34  2  1  0  0  0  0
 34  1  1  0  0  0  0
 34 42  1  0  0  0  0
 36 44  1  0  0  0  0
 36 38  1  0  0  0  0
 37 36  1  0  0  0  0
 38 39  1  1  0  0  0
 38 40  1  0  0  0  0
 40 41  1  1  0  0  0
 42 43  1  6  0  0  0
 42 40  1  0  0  0  0
 44 42  1  0  0  0  0
 45 44  1  0  0  0  0
M  END
