13
q = -1.0, confidence = 0.108

 45 51  0  0  1  0  0  0  0  0999 V2000
   -2.6392   -1.0120   -0.0314 C   0  0  1  0  0  0  0  0  0  0  0  0
   -3.0083    0.5214   -0.0117 C   0  0  2  0  0  0  0  0  0  0  0  0
   -3.2336    1.0006   -0.9752 H   0  0  0  0  0  0  0  0  0  0  0  0
   -2.3881   -1.7046   -1.4186 C   0  0  0  0  0  0  0  0  0  0  0  0
   -3.4573   -1.3733   -2.4787 C   0  0  0  0  0  0  0  0  0  0  0  0
   -3.1264   -1.7645   -3.4613 H   0  0  0  0  0  0  0  0  0  0  0  0
   -3.6433   -0.2889   -2.5968 H   0  0  0  0  0  0  0  0  0  0  0  0
   -4.4221   -1.8449   -2.2195 H   0  0  0  0  0  0  0  0  0  0  0  0
   -2.3516   -3.2353   -1.2755 C   0  0  0  0  0  0  0  0  0  0  0  0
   -1.9246   -3.6904   -2.1908 H   0  0  0  0  0  0  0  0  0  0  0  0
   -3.3767   -3.6248   -1.1357 H   0  0  0  0  0  0  0  0  0  0  0  0
   -1.7614   -3.5614   -0.4025 H   0  0  0  0  0  0  0  0  0  0  0  0
   -1.0415   -1.1286   -1.8589 C   0  0  1  0  0  3  0  0  0  0  0  0
   -0.9066    0.1706   -2.4568 C   0  0  0  0  0  0  0  0  0  0  0  0
   -1.7436    0.7850   -2.8097 H   0  0  0  0  0  0  0  0  0  0  0  0
    0.4650    0.5213   -2.5564 C   0  0  0  0  0  0  0  0  0  0  0  0
    0.8722    1.4436   -2.9887 H   0  0  0  0  0  0  0  0  0  0  0  0
    1.2335   -0.5855   -2.0856 C   0  0  0  0  0  0  0  0  0  0  0  0
    2.6366   -0.8256   -2.0834 C   0  0  0  0  0  0  0  0  0  0  0  0
    3.3228   -0.0631   -2.4780 H   0  0  0  0  0  0  0  0  0  0  0  0
    3.1143   -2.0259   -1.5906 C   0  0  0  0  0  0  0  0  0  0  0  0
    4.1964   -2.2192   -1.5718 H   0  0  0  0  0  0  0  0  0  0  0  0
    2.2206   -3.0028   -1.0618 C   0  0  0  0  0  0  0  0  0  0  0  0
    2.6337   -3.9364   -0.6516 H   0  0  0  0  0  0  0  0  0  0  0  0
    0.8478   -2.8145   -1.0612 C   0  0  0  0  0  0  0  0  0  0  0  0
    0.1900   -3.5969   -0.6679 H   0  0  0  0  0  0  0  0  0  0  0  0
    0.3050   -1.6075   -1.6089 C   0  0  0  0  0  0  0  0  0  0  0  0
   -2.3432    1.3472    1.2781 B   0  0  0  0  0  0  0  0  0  0  0  0
   -2.1782    2.5448    1.1852 H   0  0  0  0  0  0  0  0  0  0  0  0
   -1.4851    0.1487    2.2428 B   0  0  2  0  0  0  0  0  0  0  0  0
   -0.5710    0.3922    3.0121 H   0  0  0  0  0  0  0  0  0  0  0  0
   -1.6588   -1.3484    1.3045 B   0  0  1  0  0  0  0  0  0  0  0  0
   -0.8448   -2.2446    1.1990 H   0  0  0  0  0  0  0  0  0  0  0  0
   -4.2582   -0.5961    0.4022 B   0  0  1  0  0  0  0  0  0  0  0  0
   -5.1543   -0.8084   -0.3725 H   0  0  0  0  0  0  0  0  0  0  0  0
   -4.0724    0.9358    1.2618 B   0  0  1  0  0  0  0  0  0  0  0  0
   -4.9031    1.7929    1.0698 H   0  0  0  0  0  0  0  0  0  0  0  0
   -3.1164    0.6483    2.7303 B   0  0  1  0  0  0  0  0  0  0  0  0
   -3.3103    1.3043    3.7301 H   0  0  0  0  0  0  0  0  0  0  0  0
   -2.6661   -1.0816    2.7479 B   0  0  0  0  0  0  0  0  0  0  0  0
   -2.5144   -1.7309    3.7591 H   0  0  0  0  0  0  0  0  0  0  0  0
   -3.3630   -1.8362    1.2912 B   0  0  1  0  0  0  0  0  0  0  0  0
   -3.6908   -2.9900    1.1654 H   0  0  0  0  0  0  0  0  0  0  0  0
   -4.2840   -0.5856    2.1676 B   0  0  0  0  0  0  0  0  0  0  0  0
   -5.3157   -0.8447    2.7433 H   0  0  0  0  0  0  0  0  0  0  0  0
  1  4  1  6  0  0  0
  1  2  1  0  0  0  0
  1 42  1  0  0  0  0
  1 32  1  0  0  0  0
  2  3  1  6  0  0  0
  2 36  1  0  0  0  0
  2 28  1  0  0  0  0
  4  9  1  0  0  0  0
  5  8  1  0  0  0  0
  5  4  1  0  0  0  0
  6  5  1  0  0  0  0
  7  5  1  0  0  0  0
  9 11  1  0  0  0  0
  9 12  1  0  0  0  0
 10  9  1  0  0  0  0
 13 27  1  0  0  0  0
 13  4  1  1  0  0  0
 14 13  1  0  0  0  0
 15 14  1  0  0  0  0
 16 14  2  0  0  0  0
 16 18  1  0  0  0  0
 17 16  1  0  0  0  0
 18 19  2  0  0  0  0
 18 27  1  0  0  0  0
 19 21  1  0  0  0  0
 20 19  1  0  0  0  0
 21 22  1  0  0  0  0
 21 23  2  0  0  0  0
 23 25  1  0  0  0  0
 23 24  1  0  0  0  0
 25 26  1  0  0  0  0
 27 25  2  0  0  0  0
 28 30  1  0  0  0  0
 29 28  1  0  0  0  0
 30 38  1  0  0  0  0
 30 31  1  1  0  0  0
 32 33  1  6  0  0  0
 32 30  1  0  0  0  0
 34 35  1  6  0  0  0
 34 36  1  0  0  0  0
 34 42  1  0  0  0  0
 34 44  1  0  0  0  0
 36 37  1  6  0  0  0
 36 38  1  0  0  0  0
 38 40  1  0  0  0  0
 38 39  1  1  0  0  0
 40 41  1  0  0  0  0
 42 43  1  6  0  0  0
 42 32  1  0  0  0  0
 44 45  1  0  0  0  0
 44 40  1  0  0  0  0
M  END
