2
q = -1.0

 12 11  0  0  0  0  0  0  0  0999 V2000
   -0.0089   -2.9622    1.4943 O   0  0  0  0  0  0  0  0  0  0  0  0
    0.0735   -2.5625    0.3340 C   0  0  0  0  0  3  0  0  0  0  0  0
    0.3798   -3.5730   -0.8052 C   0  0  0  0  0  0  0  0  0  0  0  0
   -0.1876   -3.1562   -2.1611 C   0  0  0  0  0  0  0  0  0  0  0  0
   -0.0310   -2.0705   -2.3334 H   0  0  0  0  0  0  0  0  0  0  0  0
   -1.2778   -3.3496   -2.2136 H   0  0  0  0  0  0  0  0  0  0  0  0
    0.2906   -3.7157   -2.9902 H   0  0  0  0  0  0  0  0  0  0  0  0
    0.0326   -5.0106   -0.4153 C   0  0  0  0  0  0  0  0  0  0  0  0
    0.4302   -5.7318   -1.1578 H   0  0  0  0  0  0  0  0  0  0  0  0
   -1.0671   -5.1521   -0.3644 H   0  0  0  0  0  0  0  0  0  0  0  0
    0.4416   -5.2562    0.5835 H   0  0  0  0  0  0  0  0  0  0  0  0
    1.4904   -3.4939   -0.8729 H   0  0  0  0  0  0  0  0  0  0  0  0
  2  1  2  0  0  0  0
  3  8  1  0  0  0  0
  3  2  1  0  0  0  0
  4  3  1  0  0  0  0
  5  4  1  0  0  0  0
  6  4  1  0  0  0  0
  7  4  1  0  0  0  0
  8 10  1  0  0  0  0
  8 11  1  0  0  0  0
  9  8  1  0  0  0  0
 12  3  1  0  0  0  0
M  END
