1
q = -1.0

 21 22  0  0  0  0  0  0  0  0999 V2000
    0.8004    0.1277   -0.3986 C   0  0  0  0  0  1  0  0  0  0  0  0
    2.0395    0.1420   -0.3173 C   0  0  0  0  0  2  0  0  0  0  0  0
    3.4568    0.1503   -0.2152 C   0  0  0  0  0  0  0  0  0  0  0  0
    4.2643    1.0988   -0.8950 C   0  0  0  0  0  0  0  0  0  0  0  0
    3.7847    1.8601   -1.5276 H   0  0  0  0  0  0  0  0  0  0  0  0
    5.6498    1.0519   -0.7509 C   0  0  0  0  0  0  0  0  0  0  0  0
    6.3195    1.7623   -1.2548 H   0  0  0  0  0  0  0  0  0  0  0  0
    6.2222    0.0574    0.0718 C   0  0  0  0  0  0  0  0  0  0  0  0
    5.4669   -0.8532    0.7256 N   0  0  0  0  0  0  0  0  0  0  0  0
    4.1439   -0.8068    0.5867 C   0  0  0  0  0  0  0  0  0  0  0  0
    3.5534   -1.5633    1.1331 H   0  0  0  0  0  0  0  0  0  0  0  0
    7.6961   -0.0234    0.2500 C   0  0  0  0  0  0  0  0  0  0  0  0
    8.4515    0.8867   -0.4033 N   0  0  0  0  0  0  0  0  0  0  0  0
    9.7801    0.8303   -0.2552 C   0  0  0  0  0  0  0  0  0  0  0  0
   10.3660    1.5902   -0.8041 H   0  0  0  0  0  0  0  0  0  0  0  0
   10.4360   -0.1231    0.5424 C   0  0  0  0  0  0  0  0  0  0  0  0
   11.5330   -0.1207    0.6263 H   0  0  0  0  0  0  0  0  0  0  0  0
    9.6503   -1.0685    1.2207 C   0  0  0  0  0  0  0  0  0  0  0  0
   10.1191   -1.8350    1.8573 H   0  0  0  0  0  0  0  0  0  0  0  0
    8.2606   -1.0219    1.0756 C   0  0  0  0  0  0  0  0  0  0  0  0
    7.5838   -1.7284    1.5756 H   0  0  0  0  0  0  0  0  0  0  0  0
  1  2  1  0  0  0  0
  2  3  1  0  0  0  0
  3 10  1  0  0  0  0
  4  6  1  0  0  0  0
  4  3  2  0  0  0  0
  5  4  1  0  0  0  0
  6  8  2  0  0  0  0
  7  6  1  0  0  0  0
  8 12  1  0  0  0  0
  8  9  1  0  0  0  0
 10  9  2  0  0  0  0
 10 11  1  0  0  0  0
 12 20  1  0  0  0  0
 13 14  1  0  0  0  0
 13 12  2  0  0  0  0
 14 16  2  0  0  0  0
 15 14  1  0  0  0  0
 16 17  1  0  0  0  0
 16 18  1  0  0  0  0
 18 19  1  0  0  0  0
 20 18  2  0  0  0  0
 20 21  1  0  0  0  0
M  END
