17
q = -1.0

 25 26  0  0  0  0  0  0  0  0999 V2000
    3.4508    0.8889    0.8200 N   0  0  0  0  0  0  0  0  0  0  0  0
    4.7655    1.1372    0.1989 C   0  0  0  0  0  0  0  0  0  0  0  0
    4.6134    1.8471   -0.6466 H   0  0  0  0  0  0  0  0  0  0  0  0
    5.3880    1.6683    0.9479 H   0  0  0  0  0  0  0  0  0  0  0  0
    5.4618   -0.1285   -0.2779 C   0  0  0  0  0  0  0  0  0  0  0  0
    5.8536   -0.6941    0.5936 H   0  0  0  0  0  0  0  0  0  0  0  0
    6.3340    0.1587   -0.8976 H   0  0  0  0  0  0  0  0  0  0  0  0
    4.4784   -1.0036   -1.0551 C   0  0  0  0  0  0  0  0  0  0  0  0
    4.9570   -1.9335   -1.4172 H   0  0  0  0  0  0  0  0  0  0  0  0
    4.1212   -0.4620   -1.9611 H   0  0  0  0  0  0  0  0  0  0  0  0
    3.3043   -1.3325   -0.1724 C   0  0  0  0  0  0  0  0  0  0  0  0
    2.7488   -2.5711   -0.1086 C   0  0  0  0  0  3  0  0  0  0  0  0
    3.1958   -3.3705   -0.7227 H   0  0  0  0  0  0  0  0  0  0  0  0
    1.5702   -2.9333    0.7349 C   0  0  0  0  0  0  0  0  0  0  0  0
    1.9410   -3.5750    1.5723 H   0  0  0  0  0  0  0  0  0  0  0  0
    0.9169   -3.6141    0.1456 H   0  0  0  0  0  0  0  0  0  0  0  0
    0.8008   -1.7349    1.2807 C   0  0  0  0  0  3  0  0  0  0  0  0
    1.5087   -0.4537    1.3483 C   0  0  0  0  0  3  0  0  0  0  0  0
    2.7580   -0.2602    0.6744 C   0  0  0  0  0  0  0  0  0  0  0  0
    2.9531    1.9838    1.6488 C   0  0  0  0  0  0  0  0  0  0  0  0
    1.8557    2.0724    1.5679 H   0  0  0  0  0  0  0  0  0  0  0  0
    3.3985    2.9312    1.2943 H   0  0  0  0  0  0  0  0  0  0  0  0
    3.2315    1.8352    2.7142 H   0  0  0  0  0  0  0  0  0  0  0  0
    0.2655   -1.9697    2.2155 H   0  0  0  0  0  0  0  0  0  0  0  0
    1.2873    0.2073    2.1975 H   0  0  0  0  0  0  0  0  0  0  0  0
  1 20  1  0  0  0  0
  2  1  1  0  0  0  0
  2  4  1  0  0  0  0
  3  2  1  0  0  0  0
  5  2  1  0  0  0  0
  5  6  1  0  0  0  0
  7  5  1  0  0  0  0
  8  5  1  0  0  0  0
  8 11  1  0  0  0  0
  9  8  1  0  0  0  0
 10  8  1  0  0  0  0
 11 12  1  0  0  0  0
 11 19  2  0  0  0  0
 12 14  1  0  0  0  0
 13 12  1  0  0  0  0
 14 17  1  0  0  0  0
 14 15  1  0  0  0  0
 16 14  1  0  0  0  0
 17 18  1  0  0  0  0
 17 24  1  0  0  0  0
 18 25  1  0  0  0  0
 19  1  1  0  0  0  0
 19 18  1  0  0  0  0
 20 23  1  0  0  0  0
 21 20  1  0  0  0  0
 22 20  1  0  0  0  0
M  END
