1
q = -1.0

 26 28  0  0  1  0  0  0  0  0999 V2000
   -0.4728   -0.0001    0.1207 C   0  0  0  0  0  1  0  0  0  0  0  0
   -1.9583   -0.0001   -0.0074 C   0  0  1  0  0  0  0  0  0  0  0  0
   -2.6555   -0.0003    1.3846 C   0  0  0  0  0  0  0  0  0  0  0  0
   -2.3289   -0.8902    1.9608 H   0  0  0  0  0  0  0  0  0  0  0  0
   -2.3289    0.8896    1.9609 H   0  0  0  0  0  0  0  0  0  0  0  0
   -4.1875   -0.0003    1.2237 C   0  0  2  0  0  0  0  0  0  0  0  0
   -4.6557   -0.0004    2.2314 H   0  0  0  0  0  0  0  0  0  0  0  0
   -4.6249   -1.2587    0.4500 C   0  0  0  0  0  0  0  0  0  0  0  0
   -4.3293   -2.1722    1.0097 H   0  0  0  0  0  0  0  0  0  0  0  0
   -5.7318   -1.2827    0.3520 H   0  0  0  0  0  0  0  0  0  0  0  0
   -2.4371    1.2588   -0.7882 C   0  0  0  0  0  0  0  0  0  0  0  0
   -2.1031    2.1713   -0.2522 H   0  0  0  0  0  0  0  0  0  0  0  0
   -1.9484    1.2734   -1.7857 H   0  0  0  0  0  0  0  0  0  0  0  0
   -3.9694   -1.2578   -0.9442 C   0  0  1  0  0  0  0  0  0  0  0  0
   -4.2782   -2.1675   -1.5030 H   0  0  0  0  0  0  0  0  0  0  0  0
   -4.4075   -0.0001   -1.7182 C   0  0  0  0  0  0  0  0  0  0  0  0
   -5.5104   -0.0001   -1.8558 H   0  0  0  0  0  0  0  0  0  0  0  0
   -3.9551    0.0000   -2.7337 H   0  0  0  0  0  0  0  0  0  0  0  0
   -2.4370   -1.2590   -0.7885 C   0  0  0  0  0  0  0  0  0  0  0  0
   -3.9695    1.2576   -0.9440 C   0  0  1  0  0  0  0  0  0  0  0  0
   -2.1030   -2.1716   -0.2526 H   0  0  0  0  0  0  0  0  0  0  0  0
   -1.9483   -1.2734   -1.7860 H   0  0  0  0  0  0  0  0  0  0  0  0
   -4.6250    1.2581    0.4502 C   0  0  0  0  0  0  0  0  0  0  0  0
   -4.3294    2.1715    1.0101 H   0  0  0  0  0  0  0  0  0  0  0  0
   -5.7319    1.2821    0.3522 H   0  0  0  0  0  0  0  0  0  0  0  0
   -4.2784    2.1673   -1.5026 H   0  0  0  0  0  0  0  0  0  0  0  0
  2  1  1  1  0  0  0
  2  3  1  0  0  0  0
  3  4  1  0  0  0  0
  3  5  1  0  0  0  0
  6  3  1  0  0  0  0
  6  7  1  1  0  0  0
  8  9  1  0  0  0  0
  8  6  1  0  0  0  0
 10  8  1  0  0  0  0
 11 12  1  0  0  0  0
 11  2  1  0  0  0  0
 13 11  1  0  0  0  0
 14 15  1  6  0  0  0
 14 19  1  0  0  0  0
 14  8  1  0  0  0  0
 16 14  1  0  0  0  0
 16 20  1  0  0  0  0
 17 16  1  0  0  0  0
 18 16  1  0  0  0  0
 19 21  1  0  0  0  0
 19  2  1  0  0  0  0
 20 26  1  6  0  0  0
 20 11  1  0  0  0  0
 20 23  1  0  0  0  0
 22 19  1  0  0  0  0
 23 24  1  0  0  0  0
 23  6  1  0  0  0  0
 25 23  1  0  0  0  0
M  END
