5
q = -1.0

 19 19  0  0  0  0  0  0  0  0999 V2000
    3.8327    0.1876    0.2353 Si  0  0  0  0  0  0  0  0  0  0  0  0
    5.0744    1.8483   -0.1605 Cl  0  0  0  0  0  0  0  0  0  0  0  0
    1.3638    1.6731   -0.4769 C   0  0  0  0  0  0  0  0  0  0  0  0
    1.4698    2.4170    0.3223 H   0  0  0  0  0  0  0  0  0  0  0  0
    0.3531    1.6717   -1.4859 C   0  0  0  0  0  3  0  0  0  0  0  0
   -0.4631    2.3967   -1.5912 H   0  0  0  0  0  0  0  0  0  0  0  0
    0.6176    0.5781   -2.3633 C   0  0  0  0  0  0  0  0  0  0  0  0
    0.0161    0.2908   -3.2329 H   0  0  0  0  0  0  0  0  0  0  0  0
    1.7590   -0.1074   -1.8754 C   0  0  0  0  0  0  0  0  0  0  0  0
    2.1894   -1.0191   -2.3079 H   0  0  0  0  0  0  0  0  0  0  0  0
    2.2410    0.5663   -0.6980 C   0  0  0  0  0  0  0  0  0  0  0  0
    4.6670   -1.3386   -0.4572 C   0  0  0  0  0  0  0  0  0  0  0  0
    4.0227   -2.2252   -0.2910 H   0  0  0  0  0  0  0  0  0  0  0  0
    5.6426   -1.5035    0.0420 H   0  0  0  0  0  0  0  0  0  0  0  0
    4.8514   -1.2265   -1.5441 H   0  0  0  0  0  0  0  0  0  0  0  0
    3.6055    0.1448    2.0996 C   0  0  0  0  0  0  0  0  0  0  0  0
    2.9384   -0.6935    2.3825 H   0  0  0  0  0  0  0  0  0  0  0  0
    3.1757    1.0970    2.4703 H   0  0  0  0  0  0  0  0  0  0  0  0
    4.5868    0.0044    2.5956 H   0  0  0  0  0  0  0  0  0  0  0  0
  1 16  1  0  0  0  0
  2  1  1  0  0  0  0
  3  4  1  0  0  0  0
  5  3  1  0  0  0  0
  6  5  1  0  0  0  0
  7  9  2  0  0  0  0
  7  5  1  0  0  0  0
  8  7  1  0  0  0  0
  9 11  1  0  0  0  0
 10  9  1  0  0  0  0
 11  3  2  0  0  0  0
 11  1  1  0  0  0  0
 12 13  1  0  0  0  0
 12 14  1  0  0  0  0
 12  1  1  0  0  0  0
 15 12  1  0  0  0  0
 16 17  1  0  0  0  0
 16 18  1  0  0  0  0
 16 19  1  0  0  0  0
M  END
