6
q = -1.0

 62 67  0  0  1  0  0  0  0  0999 V2000
    2.8809   -0.0369   -0.0738 P   0  0  0  0  0  4  0  0  0  0  0  0
   -2.8749    0.3007   -0.1383 P   0  0  0  0  0  4  0  0  0  0  0  0
    4.1866   -1.0526   -1.1376 S   0  0  0  0  0  1  0  0  0  0  0  0
   -4.2753   -0.3790   -1.3425 S   0  0  0  0  0  1  0  0  0  0  0  0
    1.1771    0.0021   -0.7112 C   0  0  1  0  0  3  0  0  0  0  0  0
   -0.0087    0.0122    0.1000 C   0  0  0  0  0  3  0  0  0  0  0  0
   -0.0288   -0.0920    1.1908 H   0  0  0  0  0  0  0  0  0  0  0  0
   -1.1638    0.1411   -0.7432 C   0  0  2  0  0  3  0  0  0  0  0  0
   -0.6881    0.2983   -2.1128 C   0  0  0  0  0  0  0  0  0  0  0  0
   -1.3727    0.4986   -3.3480 C   0  0  0  0  0  0  0  0  0  0  0  0
   -2.4705    0.5582   -3.3486 H   0  0  0  0  0  0  0  0  0  0  0  0
   -0.6179    0.6229   -4.5033 C   0  0  0  0  0  0  0  0  0  0  0  0
   -1.1271    0.7904   -5.4643 H   0  0  0  0  0  0  0  0  0  0  0  0
    0.8074    0.5343   -4.4817 C   0  0  0  0  0  0  0  0  0  0  0  0
    1.3626    0.6356   -5.4263 H   0  0  0  0  0  0  0  0  0  0  0  0
    0.7607    0.2072   -2.0917 C   0  0  0  0  0  0  0  0  0  0  0  0
    1.5044    0.3203   -3.3038 C   0  0  0  0  0  0  0  0  0  0  0  0
    2.6006    0.2404   -3.2716 H   0  0  0  0  0  0  0  0  0  0  0  0
    3.3003    1.7444    0.1220 C   0  0  0  0  0  0  0  0  0  0  0  0
    2.3317    2.7626    0.0260 C   0  0  0  0  0  0  0  0  0  0  0  0
    1.2852    2.5115   -0.2024 H   0  0  0  0  0  0  0  0  0  0  0  0
    2.7054    4.1049    0.2011 C   0  0  0  0  0  0  0  0  0  0  0  0
    1.9466    4.8979    0.1143 H   0  0  0  0  0  0  0  0  0  0  0  0
    4.0420    4.4328    0.4748 C   0  0  0  0  0  0  0  0  0  0  0  0
    4.3337    5.4852    0.6113 H   0  0  0  0  0  0  0  0  0  0  0  0
    5.0108    3.4179    0.5606 C   0  0  0  0  0  0  0  0  0  0  0  0
    6.0617    3.6745    0.7629 H   0  0  0  0  0  0  0  0  0  0  0  0
    4.6452    2.0776    0.3776 C   0  0  0  0  0  0  0  0  0  0  0  0
    5.3985    1.2747    0.4098 H   0  0  0  0  0  0  0  0  0  0  0  0
    2.6295   -0.6581    1.6388 C   0  0  0  0  0  0  0  0  0  0  0  0
    2.1519    0.1833    2.6638 C   0  0  0  0  0  0  0  0  0  0  0  0
    2.0101    1.2589    2.4755 H   0  0  0  0  0  0  0  0  0  0  0  0
    1.8603   -0.3562    3.9258 C   0  0  0  0  0  0  0  0  0  0  0  0
    1.4869    0.2990    4.7276 H   0  0  0  0  0  0  0  0  0  0  0  0
    2.0476   -1.7276    4.1651 C   0  0  0  0  0  0  0  0  0  0  0  0
    1.8109   -2.1494    5.1537 H   0  0  0  0  0  0  0  0  0  0  0  0
    2.5433   -2.5590    3.1483 C   0  0  0  0  0  0  0  0  0  0  0  0
    2.6932   -3.6326    3.3363 H   0  0  0  0  0  0  0  0  0  0  0  0
    2.8407   -2.0260    1.8859 C   0  0  0  0  0  0  0  0  0  0  0  0
    3.2358   -2.6573    1.0740 H   0  0  0  0  0  0  0  0  0  0  0  0
   -3.0243    2.0980    0.2428 C   0  0  0  0  0  0  0  0  0  0  0  0
   -1.9098    2.8874    0.5919 C   0  0  0  0  0  0  0  0  0  0  0  0
   -0.9034    2.4443    0.6251 H   0  0  0  0  0  0  0  0  0  0  0  0
   -2.0786    4.2490    0.8874 C   0  0  0  0  0  0  0  0  0  0  0  0
   -1.2038    4.8615    1.1551 H   0  0  0  0  0  0  0  0  0  0  0  0
   -3.3568    4.8269    0.8338 C   0  0  0  0  0  0  0  0  0  0  0  0
   -3.4874    5.8956    1.0619 H   0  0  0  0  0  0  0  0  0  0  0  0
   -4.4668    4.0427    0.4783 C   0  0  0  0  0  0  0  0  0  0  0  0
   -5.4683    4.4959    0.4261 H   0  0  0  0  0  0  0  0  0  0  0  0
   -4.3030    2.6827    0.1788 C   0  0  0  0  0  0  0  0  0  0  0  0
   -5.1556    2.0565   -0.1294 H   0  0  0  0  0  0  0  0  0  0  0  0
   -2.7848   -0.5561    1.4877 C   0  0  0  0  0  0  0  0  0  0  0  0
   -3.1829   -1.9050    1.5344 C   0  0  0  0  0  0  0  0  0  0  0  0
   -3.6173   -2.3631    0.6314 H   0  0  0  0  0  0  0  0  0  0  0  0
   -3.0196   -2.6390    2.7173 C   0  0  0  0  0  0  0  0  0  0  0  0
   -3.3179   -3.6975    2.7477 H   0  0  0  0  0  0  0  0  0  0  0  0
   -2.4687   -2.0288    3.8556 C   0  0  0  0  0  0  0  0  0  0  0  0
   -2.3346   -2.6096    4.7806 H   0  0  0  0  0  0  0  0  0  0  0  0
   -2.0956   -0.6760    3.8171 C   0  0  0  0  0  0  0  0  0  0  0  0
   -1.6768   -0.1920    4.7124 H   0  0  0  0  0  0  0  0  0  0  0  0
   -2.2557    0.0653    2.6363 C   0  0  0  0  0  0  0  0  0  0  0  0
   -1.9714    1.1282    2.6129 H   0  0  0  0  0  0  0  0  0  0  0  0
  1 19  1  0  0  0  0
  1 30  1  0  0  0  0
  2 41  1  0  0  0  0
  2 52  1  0  0  0  0
  3  1  1  0  0  0  0
  4  2  1  0  0  0  0
  5  1  1  1  0  0  0
  5  6  1  0  0  0  0
  6  7  1  0  0  0  0
  8  2  1  1  0  0  0
  8  6  1  0  0  0  0
  9 16  1  0  0  0  0
  9  8  1  0  0  0  0
 10  9  2  0  0  0  0
 11 10  1  0  0  0  0
 12 14  2  0  0  0  0
 12 10  1  0  0  0  0
 13 12  1  0  0  0  0
 14 17  1  0  0  0  0
 15 14  1  0  0  0  0
 16  5  1  0  0  0  0
 17 18  1  0  0  0  0
 17 16  2  0  0  0  0
 19 28  1  0  0  0  0
 20 19  2  0  0  0  0
 20 22  1  0  0  0  0
 21 20  1  0  0  0  0
 22 24  2  0  0  0  0
 23 22  1  0  0  0  0
 24 26  1  0  0  0  0
 24 25  1  0  0  0  0
 26 27  1  0  0  0  0
 28 29  1  0  0  0  0
 28 26  2  0  0  0  0
 30 39  2  0  0  0  0
 30 31  1  0  0  0  0
 31 33  2  0  0  0  0
 32 31  1  0  0  0  0
 33 35  1  0  0  0  0
 33 34  1  0  0  0  0
 35 36  1  0  0  0  0
 37 38  1  0  0  0  0
 37 35  2  0  0  0  0
 39 37  1  0  0  0  0
 40 39  1  0  0  0  0
 41 42  1  0  0  0  0
 42 43  1  0  0  0  0
 42 44  2  0  0  0  0
 44 45  1  0  0  0  0
 46 44  1  0  0  0  0
 46 47  1  0  0  0  0
 48 46  2  0  0  0  0
 49 48  1  0  0  0  0
 50 41  2  0  0  0  0
 50 48  1  0  0  0  0
 51 50  1  0  0  0  0
 52 53  2  0  0  0  0
 52 61  1  0  0  0  0
 53 55  1  0  0  0  0
 54 53  1  0  0  0  0
 55 56  1  0  0  0  0
 55 57  2  0  0  0  0
 57 58  1  0  0  0  0
 59 57  1  0  0  0  0
 59 60  1  0  0  0  0
 61 59  2  0  0  0  0
 62 61  1  0  0  0  0
M  END
