2
q = -1.0

 21 20  0  0  0  0  0  0  0  0999 V2000
   -1.0571    1.5280    1.6679 O   0  0  0  0  0  0  0  0  0  0  0  0
   -1.0488    1.4450    0.4413 C   0  0  0  0  0  3  0  0  0  0  0  0
   -2.3743    1.1790   -0.2771 C   0  0  0  0  0  0  0  0  0  0  0  0
   -2.1900    0.4994   -1.1326 H   0  0  0  0  0  0  0  0  0  0  0  0
   -2.6715    2.1461   -0.7457 H   0  0  0  0  0  0  0  0  0  0  0  0
   -3.4757    0.6202    0.6230 C   0  0  0  0  0  0  0  0  0  0  0  0
   -3.0720   -0.2663    1.1571 H   0  0  0  0  0  0  0  0  0  0  0  0
   -3.7192    1.3574    1.4170 H   0  0  0  0  0  0  0  0  0  0  0  0
   -4.7363    0.2180   -0.1438 C   0  0  0  0  0  0  0  0  0  0  0  0
   -4.4577   -0.4954   -0.9535 H   0  0  0  0  0  0  0  0  0  0  0  0
   -5.1582    1.1086   -0.6604 H   0  0  0  0  0  0  0  0  0  0  0  0
   -5.8008   -0.4326    0.7458 C   0  0  0  0  0  0  0  0  0  0  0  0
   -6.1004    0.2853    1.5433 H   0  0  0  0  0  0  0  0  0  0  0  0
   -5.3347   -1.2921    1.2772 H   0  0  0  0  0  0  0  0  0  0  0  0
   -7.0534   -0.9215    0.0053 C   0  0  0  0  0  0  0  0  0  0  0  0
   -6.7493   -1.6557   -0.7748 H   0  0  0  0  0  0  0  0  0  0  0  0
   -7.6918   -1.4883    0.7174 H   0  0  0  0  0  0  0  0  0  0  0  0
   -7.8864    0.1899   -0.6383 C   0  0  0  0  0  0  0  0  0  0  0  0
   -8.8021   -0.2129   -1.1167 H   0  0  0  0  0  0  0  0  0  0  0  0
   -8.2061    0.9390    0.1168 H   0  0  0  0  0  0  0  0  0  0  0  0
   -7.3190    0.7334   -1.4212 H   0  0  0  0  0  0  0  0  0  0  0  0
  2  1  2  0  0  0  0
  3  2  1  0  0  0  0
  3  6  1  0  0  0  0
  4  3  1  0  0  0  0
  5  3  1  0  0  0  0
  6  7  1  0  0  0  0
  6  8  1  0  0  0  0
  9  6  1  0  0  0  0
  9 12  1  0  0  0  0
 10  9  1  0  0  0  0
 11  9  1  0  0  0  0
 12 14  1  0  0  0  0
 12 13  1  0  0  0  0
 15 17  1  0  0  0  0
 15 12  1  0  0  0  0
 16 15  1  0  0  0  0
 18 15  1  0  0  0  0
 18 20  1  0  0  0  0
 19 18  1  0  0  0  0
 21 18  1  0  0  0  0
M  END
