49
q = 0.0, confidence = 0.968

 63 67  0  0  1  0  0  0  0  0999 V2000
   -5.7758    1.4720   -1.2894 C   0  0  0  0  0  0  0  0  0  0  0  0
   -5.1280    1.9982   -2.0052 H   0  0  0  0  0  0  0  0  0  0  0  0
   -7.1099    1.8675   -1.1980 C   0  0  0  0  0  0  0  0  0  0  0  0
   -7.5127    2.6834   -1.8151 H   0  0  0  0  0  0  0  0  0  0  0  0
   -7.9730    1.2110   -0.2967 C   0  0  0  0  0  0  0  0  0  0  0  0
   -7.4651    0.1655    0.4924 C   0  0  0  0  0  0  0  0  0  0  0  0
   -8.1136   -0.3668    1.2029 H   0  0  0  0  0  0  0  0  0  0  0  0
   -6.1141   -0.2316    0.3964 C   0  0  0  0  0  0  0  0  0  0  0  0
   -5.6309   -1.3463    1.3051 C   0  0  0  0  0  0  0  0  0  0  0  0
   -6.4021   -2.1438    1.3565 H   0  0  0  0  0  0  0  0  0  0  0  0
   -5.5549   -0.9408    2.3401 H   0  0  0  0  0  0  0  0  0  0  0  0
   -4.2759   -1.9260    0.8998 C   0  0  0  0  0  0  0  0  0  0  0  0
   -3.8858   -2.5744    1.7108 H   0  0  0  0  0  0  0  0  0  0  0  0
   -4.3844   -2.5733    0.0006 H   0  0  0  0  0  0  0  0  0  0  0  0
   -3.2899   -0.7989    0.5838 C   0  0  2  0  0  0  0  0  0  0  0  0
   -3.2838   -0.1045    1.4561 H   0  0  0  0  0  0  0  0  0  0  0  0
   -3.7869   -0.0147   -0.6563 C   0  0  1  0  0  0  0  0  0  0  0  0
   -3.7552   -0.7484   -1.5004 H   0  0  0  0  0  0  0  0  0  0  0  0
   -5.2413    0.4250   -0.5038 C   0  0  0  0  0  0  0  0  0  0  0  0
   -2.8200    1.1250   -1.0400 C   0  0  0  0  0  0  0  0  0  0  0  0
   -2.8869    1.9293   -0.2766 H   0  0  0  0  0  0  0  0  0  0  0  0
   -3.1396    1.5887   -1.9947 H   0  0  0  0  0  0  0  0  0  0  0  0
   -1.3641    0.6496   -1.1945 C   0  0  0  0  0  0  0  0  0  0  0  0
   -1.2966   -0.0321   -2.0724 H   0  0  0  0  0  0  0  0  0  0  0  0
   -0.7064    1.5188   -1.4127 H   0  0  0  0  0  0  0  0  0  0  0  0
   -0.8804   -0.1078    0.0495 C   0  0  1  0  0  0  0  0  0  0  0  0
   -1.8618   -1.2749    0.3276 C   0  0  1  0  0  0  0  0  0  0  0  0
   -1.8966   -1.8703   -0.6165 H   0  0  0  0  0  0  0  0  0  0  0  0
   -1.1300   -2.1394    1.3694 C   0  0  0  0  0  0  0  0  0  0  0  0
   -1.4554   -3.1973    1.3363 H   0  0  0  0  0  0  0  0  0  0  0  0
   -1.3405   -1.7739    2.3961 H   0  0  0  0  0  0  0  0  0  0  0  0
    0.3735   -1.9700    1.0131 C   0  0  0  0  0  0  0  0  0  0  0  0
    0.8497   -2.9216    0.7065 H   0  0  0  0  0  0  0  0  0  0  0  0
    0.9579   -1.5834    1.8709 H   0  0  0  0  0  0  0  0  0  0  0  0
    0.4316   -0.9321   -0.1375 C   0  0  2  0  0  0  0  0  0  0  0  0
    0.3282   -1.4703   -1.1149 H   0  0  0  0  0  0  0  0  0  0  0  0
   -0.7292    0.8561    1.2402 C   0  0  0  0  0  0  0  0  0  0  0  0
   -0.4132    0.3364    2.1650 H   0  0  0  0  0  0  0  0  0  0  0  0
   -1.6722    1.3898    1.4634 H   0  0  0  0  0  0  0  0  0  0  0  0
    0.0472    1.6119    1.0127 H   0  0  0  0  0  0  0  0  0  0  0  0
   -9.2632    1.6523   -0.2647 O   0  0  0  0  0  0  0  0  0  0  0  0
  -10.1622    1.0230    0.6250 C   0  0  0  0  0  0  0  0  0  0  0  0
  -11.1388    1.5256    0.4944 H   0  0  0  0  0  0  0  0  0  0  0  0
   -9.8418    1.1283    1.6866 H   0  0  0  0  0  0  0  0  0  0  0  0
  -10.2823   -0.0614    0.4000 H   0  0  0  0  0  0  0  0  0  0  0  0
    1.6318   -0.1250   -0.1142 N   0  0  0  0  0  0  0  0  0  0  0  0
    2.0910    0.3518   -1.2921 C   0  0  0  0  0  0  0  0  0  0  0  0
    1.5656    0.1895   -2.2549 H   0  0  0  0  0  0  0  0  0  0  0  0
    3.3552    1.0222   -1.2318 C   0  0  0  0  0  3  0  0  0  0  0  0
    3.8496    1.3535   -2.1561 H   0  0  0  0  0  0  0  0  0  0  0  0
    3.9311    1.1667    0.0756 C   0  0  0  0  0  3  0  0  0  0  0  0
    3.2010    1.2733    0.8949 H   0  0  0  0  0  0  0  0  0  0  0  0
    5.2771    1.6989    0.3445 C   0  0  0  0  0  0  0  0  0  0  0  0
    5.6214    2.0341    1.6755 C   0  0  0  0  0  0  0  0  0  0  0  0
    4.8753    1.8819    2.4712 H   0  0  0  0  0  0  0  0  0  0  0  0
    6.8861    2.5457    1.9897 C   0  0  0  0  0  0  0  0  0  0  0  0
    7.1299    2.7977    3.0331 H   0  0  0  0  0  0  0  0  0  0  0  0
    7.8403    2.7374    0.9771 C   0  0  0  0  0  0  0  0  0  0  0  0
    8.8355    3.1388    1.2208 H   0  0  0  0  0  0  0  0  0  0  0  0
    7.5152    2.4098   -0.3495 C   0  0  0  0  0  0  0  0  0  0  0  0
    8.2569    2.5540   -1.1499 H   0  0  0  0  0  0  0  0  0  0  0  0
    6.2513    1.8944   -0.6629 C   0  0  0  0  0  0  0  0  0  0  0  0
    6.0240    1.6350   -1.7075 H   0  0  0  0  0  0  0  0  0  0  0  0
  1  3  2  0  0  0  0
  1 19  1  0  0  0  0
  2  1  1  0  0  0  0
  3  5  1  0  0  0  0
  4  3  1  0  0  0  0
  5 41  1  0  0  0  0
  5  6  2  0  0  0  0
  6  7  1  0  0  0  0
  8  6  1  0  0  0  0
  8  9  1  0  0  0  0
  9 10  1  0  0  0  0
  9 11  1  0  0  0  0
 12  9  1  0  0  0  0
 12 13  1  0  0  0  0
 14 12  1  0  0  0  0
 15 12  1  0  0  0  0
 15 16  1  1  0  0  0
 17 18  1  6  0  0  0
 17 19  1  0  0  0  0
 17 15  1  0  0  0  0
 19  8  2  0  0  0  0
 20 17  1  0  0  0  0
 20 21  1  0  0  0  0
 22 20  1  0  0  0  0
 23 20  1  0  0  0  0
 23 26  1  0  0  0  0
 24 23  1  0  0  0  0
 25 23  1  0  0  0  0
 26 27  1  0  0  0  0
 26 37  1  1  0  0  0
 27 28  1  6  0  0  0
 27 15  1  0  0  0  0
 27 29  1  0  0  0  0
 29 31  1  0  0  0  0
 30 29  1  0  0  0  0
 32 29  1  0  0  0  0
 32 34  1  0  0  0  0
 33 32  1  0  0  0  0
 35 36  1  6  0  0  0
 35 46  1  0  0  0  0
 35 26  1  0  0  0  0
 35 32  1  0  0  0  0
 37 39  1  0  0  0  0
 37 38  1  0  0  0  0
 40 37  1  0  0  0  0
 41 42  1  0  0  0  0
 42 44  1  0  0  0  0
 43 42  1  0  0  0  0
 45 42  1  0  0  0  0
 47 49  1  0  0  0  0
 47 46  2  0  0  0  0
 48 47  1  0  0  0  0
 49 51  1  0  0  0  0
 50 49  1  0  0  0  0
 51 53  1  0  0  0  0
 51 52  1  0  0  0  0
 53 54  1  0  0  0  0
 54 56  2  0  0  0  0
 54 55  1  0  0  0  0
 56 57  1  0  0  0  0
 58 59  1  0  0  0  0
 58 56  1  0  0  0  0
 60 58  2  0  0  0  0
 61 60  1  0  0  0  0
 62 60  1  0  0  0  0
 62 53  2  0  0  0  0
 63 62  1  0  0  0  0
M  END
