1
q = 0.0, confidence = 0.992

 56 58  0  0  1  0  0  0  0  0999 V2000
   -0.2073    0.9006   -0.0717 C   0  0  0  0  0  2  0  0  0  0  0  0
    0.1315    2.2135    0.0181 O   0  0  0  0  0  0  0  0  0  0  0  0
   -0.8293    3.2765   -0.0461 C   0  0  0  0  0  0  0  0  0  0  0  0
   -1.3394    3.3664    0.9352 H   0  0  0  0  0  0  0  0  0  0  0  0
   -1.6001    3.0250   -0.7998 H   0  0  0  0  0  0  0  0  0  0  0  0
   -0.0980    4.5562   -0.4041 C   0  0  0  0  0  0  0  0  0  0  0  0
   -0.8228    5.3905   -0.4822 H   0  0  0  0  0  0  0  0  0  0  0  0
    0.4210    4.4569   -1.3783 H   0  0  0  0  0  0  0  0  0  0  0  0
    0.6526    4.8266    0.3646 H   0  0  0  0  0  0  0  0  0  0  0  0
    0.9899    0.1053   -0.0728 C   0  0  2  0  0  3  0  0  0  0  0  0
    2.2884    0.5725    0.2698 C   0  0  1  0  0  3  0  0  0  0  0  0
    2.5410    1.4232    1.3076 N   0  0  0  0  0  0  0  0  0  0  0  0
    3.7428    2.2712    1.3425 C   0  0  0  0  0  0  0  0  0  0  0  0
    4.4236    1.9239    0.5466 H   0  0  0  0  0  0  0  0  0  0  0  0
    4.2731    2.1151    2.3046 H   0  0  0  0  0  0  0  0  0  0  0  0
    3.4256    3.7530    1.1383 C   0  0  0  0  0  0  0  0  0  0  0  0
    4.3673    4.3368    1.1234 H   0  0  0  0  0  0  0  0  0  0  0  0
    2.7902    4.1661    1.9471 H   0  0  0  0  0  0  0  0  0  0  0  0
    2.9018    3.9113    0.1756 H   0  0  0  0  0  0  0  0  0  0  0  0
    1.5450    1.6579    2.3565 C   0  0  0  0  0  0  0  0  0  0  0  0
    0.7939    0.8492    2.2618 H   0  0  0  0  0  0  0  0  0  0  0  0
    0.9944    2.6008    2.1550 H   0  0  0  0  0  0  0  0  0  0  0  0
    2.1382    1.6622    3.7638 C   0  0  0  0  0  0  0  0  0  0  0  0
    1.3102    1.7004    4.4985 H   0  0  0  0  0  0  0  0  0  0  0  0
    2.7905    2.5358    3.9613 H   0  0  0  0  0  0  0  0  0  0  0  0
    2.7208    0.7393    3.9608 H   0  0  0  0  0  0  0  0  0  0  0  0
    3.4638    0.0353   -0.4746 C   0  0  0  0  0  0  0  0  0  0  0  0
    4.5285   -0.5737    0.2243 C   0  0  0  0  0  0  0  0  0  0  0  0
    4.4661   -0.6551    1.3205 H   0  0  0  0  0  0  0  0  0  0  0  0
    5.6353   -1.0891   -0.4590 C   0  0  0  0  0  0  0  0  0  0  0  0
    6.4494   -1.5778    0.0967 H   0  0  0  0  0  0  0  0  0  0  0  0
    5.6943   -0.9788   -1.8576 C   0  0  0  0  0  0  0  0  0  0  0  0
    6.5650   -1.3691   -2.4062 H   0  0  0  0  0  0  0  0  0  0  0  0
    4.6393   -0.3772   -2.5588 C   0  0  0  0  0  0  0  0  0  0  0  0
    4.6875   -0.3002   -3.6566 H   0  0  0  0  0  0  0  0  0  0  0  0
    3.5061    0.1266   -1.8933 C   0  0  0  0  0  0  0  0  0  0  0  0
    2.3354    0.6728   -2.6758 C   0  0  0  0  0  0  0  0  0  0  0  0
    2.6975    1.1155   -3.6260 H   0  0  0  0  0  0  0  0  0  0  0  0
    1.8451    1.4847   -2.1063 H   0  0  0  0  0  0  0  0  0  0  0  0
    1.2877   -0.4328   -3.0160 C   0  0  0  0  0  0  0  0  0  0  0  0
    0.3142    0.0665   -3.2261 H   0  0  0  0  0  0  0  0  0  0  0  0
    1.5864   -0.9272   -3.9620 H   0  0  0  0  0  0  0  0  0  0  0  0
    1.0961   -1.4984   -1.9688 C   0  0  0  0  0  0  0  0  0  0  0  0
    1.1162   -2.5416   -2.3248 H   0  0  0  0  0  0  0  0  0  0  0  0
    0.9484   -1.2896   -0.6352 C   0  0  0  0  0  0  0  0  0  0  0  0
    0.8467   -2.4192    0.3261 C   0  0  0  0  0  0  0  0  0  0  0  0
    1.3697   -2.3015    1.6347 C   0  0  0  0  0  0  0  0  0  0  0  0
    1.8391   -1.3567    1.9444 H   0  0  0  0  0  0  0  0  0  0  0  0
    1.2971   -3.3643    2.5441 C   0  0  0  0  0  0  0  0  0  0  0  0
    1.7135   -3.2453    3.5562 H   0  0  0  0  0  0  0  0  0  0  0  0
    0.6835   -4.5703    2.1736 C   0  0  0  0  0  0  0  0  0  0  0  0
    0.6098   -5.4005    2.8921 H   0  0  0  0  0  0  0  0  0  0  0  0
    0.1484   -4.7009    0.8816 C   0  0  0  0  0  0  0  0  0  0  0  0
   -0.3530   -5.6348    0.5848 H   0  0  0  0  0  0  0  0  0  0  0  0
    0.2293   -3.6416   -0.0304 C   0  0  0  0  0  0  0  0  0  0  0  0
   -0.2246   -3.7469   -1.0260 H   0  0  0  0  0  0  0  0  0  0  0  0
  1  2  1  0  0  0  0
  3  2  1  0  0  0  0
  3  4  1  0  0  0  0
  5  3  1  0  0  0  0
  6  3  1  0  0  0  0
  6  9  1  0  0  0  0
  7  6  1  0  0  0  0
  8  6  1  0  0  0  0
 10  1  1  6  0  0  0
 10 11  1  0  0  0  0
 11 12  1  1  0  0  0
 12 13  1  0  0  0  0
 12 20  1  0  0  0  0
 13 15  1  0  0  0  0
 14 13  1  0  0  0  0
 16 13  1  0  0  0  0
 16 18  1  0  0  0  0
 17 16  1  0  0  0  0
 19 16  1  0  0  0  0
 20 23  1  0  0  0  0
 21 20  1  0  0  0  0
 22 20  1  0  0  0  0
 23 26  1  0  0  0  0
 23 25  1  0  0  0  0
 23 24  1  0  0  0  0
 27 28  1  0  0  0  0
 27 11  1  0  0  0  0
 28 29  1  0  0  0  0
 30 31  1  0  0  0  0
 30 28  2  0  0  0  0
 32 30  1  0  0  0  0
 33 32  1  0  0  0  0
 34 36  1  0  0  0  0
 34 32  2  0  0  0  0
 35 34  1  0  0  0  0
 36 27  2  0  0  0  0
 37 39  1  0  0  0  0
 37 36  1  0  0  0  0
 38 37  1  0  0  0  0
 40 37  1  0  0  0  0
 40 43  1  0  0  0  0
 41 40  1  0  0  0  0
 42 40  1  0  0  0  0
 43 45  2  0  0  0  0
 44 43  1  0  0  0  0
 45 10  1  0  0  0  0
 45 46  1  0  0  0  0
 46 47  1  0  0  0  0
 47 48  1  0  0  0  0
 47 49  2  0  0  0  0
 49 50  1  0  0  0  0
 51 49  1  0  0  0  0
 51 52  1  0  0  0  0
 53 51  2  0  0  0  0
 54 53  1  0  0  0  0
 55 46  2  0  0  0  0
 55 53  1  0  0  0  0
 56 55  1  0  0  0  0
M  END
