3
q = 0.0, confidence = 0.99

 76 81  0  0  1  0  0  0  0  0999 V2000
    0.2500    2.0197   -0.0001 N   0  0  0  0  0  0  0  0  0  0  0  0
    2.2152    1.1082    0.0193 N   0  0  0  0  0  0  0  0  0  0  0  0
    0.8843    0.7897   -0.0426 C   0  0  0  0  0  2  0  0  0  0  0  0
    2.4278    2.4767    0.0752 C   0  0  0  0  0  0  0  0  0  0  0  0
    3.4200    2.9297    0.1198 H   0  0  0  0  0  0  0  0  0  0  0  0
    1.1871    3.0849    0.0620 C   0  0  0  0  0  0  0  0  0  0  0  0
    0.7353    4.4346    0.0938 C   0  0  0  0  0  0  0  0  0  0  0  0
    1.4775    5.2437    0.1331 H   0  0  0  0  0  0  0  0  0  0  0  0
   -0.6191    4.6791    0.0766 C   0  0  0  0  0  0  0  0  0  0  0  0
   -0.9999    5.7102    0.1001 H   0  0  0  0  0  0  0  0  0  0  0  0
   -1.5439    3.5858    0.0452 C   0  0  0  0  0  0  0  0  0  0  0  0
   -2.6258    3.7723    0.0646 H   0  0  0  0  0  0  0  0  0  0  0  0
   -1.1307    2.2709    0.0131 C   0  0  0  0  0  0  0  0  0  0  0  0
   -2.0895    1.1318    0.0382 C   0  0  0  0  0  0  0  0  0  0  0  0
   -2.4517    0.5555    1.2857 C   0  0  0  0  0  0  0  0  0  0  0  0
   -3.4062   -0.4731    1.2941 C   0  0  0  0  0  0  0  0  0  0  0  0
   -3.6781   -0.9364    2.2553 H   0  0  0  0  0  0  0  0  0  0  0  0
   -4.0028   -0.9480    0.1126 C   0  0  0  0  0  0  0  0  0  0  0  0
   -3.6274   -0.3559   -1.1036 C   0  0  0  0  0  0  0  0  0  0  0  0
   -4.0716   -0.7401   -2.0347 H   0  0  0  0  0  0  0  0  0  0  0  0
   -2.6725    0.6723   -1.1715 C   0  0  0  0  0  0  0  0  0  0  0  0
   -1.8055    1.0065    2.5915 C   0  0  0  0  0  0  0  0  0  0  0  0
   -1.0863    1.8169    2.3493 H   0  0  0  0  0  0  0  0  0  0  0  0
   -1.0042   -0.1332    3.2444 C   0  0  0  0  0  0  0  0  0  0  0  0
   -1.6625   -0.9784    3.5322 H   0  0  0  0  0  0  0  0  0  0  0  0
   -0.4899    0.2227    4.1610 H   0  0  0  0  0  0  0  0  0  0  0  0
   -0.2408   -0.5307    2.5446 H   0  0  0  0  0  0  0  0  0  0  0  0
   -2.8429    1.6003    3.5585 C   0  0  0  0  0  0  0  0  0  0  0  0
   -3.3851    2.4491    3.0949 H   0  0  0  0  0  0  0  0  0  0  0  0
   -2.3547    1.9665    4.4851 H   0  0  0  0  0  0  0  0  0  0  0  0
   -3.5976    0.8428    3.8545 H   0  0  0  0  0  0  0  0  0  0  0  0
   -5.0098   -2.0869    0.1469 C   0  0  0  0  0  0  0  0  0  0  0  0
   -5.2512   -2.3283   -0.9111 H   0  0  0  0  0  0  0  0  0  0  0  0
   -4.4131   -3.3513    0.7872 C   0  0  0  0  0  0  0  0  0  0  0  0
   -3.4535   -3.6232    0.3033 H   0  0  0  0  0  0  0  0  0  0  0  0
   -5.1204   -4.2018    0.7010 H   0  0  0  0  0  0  0  0  0  0  0  0
   -4.2133   -3.1961    1.8685 H   0  0  0  0  0  0  0  0  0  0  0  0
   -6.3149   -1.6576    0.8393 C   0  0  0  0  0  0  0  0  0  0  0  0
   -6.1339   -1.3967    1.9032 H   0  0  0  0  0  0  0  0  0  0  0  0
   -7.0605   -2.4791    0.8194 H   0  0  0  0  0  0  0  0  0  0  0  0
   -6.7645   -0.7707    0.3485 H   0  0  0  0  0  0  0  0  0  0  0  0
   -2.2600    1.2564   -2.5181 C   0  0  0  0  0  0  0  0  0  0  0  0
   -1.3488    1.8684   -2.3455 H   0  0  0  0  0  0  0  0  0  0  0  0
   -3.3459    2.1973   -3.0673 C   0  0  0  0  0  0  0  0  0  0  0  0
   -4.2948    1.6475   -3.2371 H   0  0  0  0  0  0  0  0  0  0  0  0
   -3.0336    2.6426   -4.0346 H   0  0  0  0  0  0  0  0  0  0  0  0
   -3.5607    3.0244   -2.3609 H   0  0  0  0  0  0  0  0  0  0  0  0
   -1.8866    0.1666   -3.5356 C   0  0  0  0  0  0  0  0  0  0  0  0
   -1.1331   -0.5309   -3.1163 H   0  0  0  0  0  0  0  0  0  0  0  0
   -1.4743    0.6229   -4.4587 H   0  0  0  0  0  0  0  0  0  0  0  0
   -2.7676   -0.4392   -3.8305 H   0  0  0  0  0  0  0  0  0  0  0  0
    3.3771    0.1651    0.0521 C   0  0  2  0  0  0  0  0  0  0  0  0
    4.2636    0.4159   -1.1914 C   0  0  0  0  0  0  0  0  0  0  0  0
    4.5782    1.4800   -1.2283 H   0  0  0  0  0  0  0  0  0  0  0  0
    3.6636    0.2199   -2.1050 H   0  0  0  0  0  0  0  0  0  0  0  0
    5.5052   -0.4955   -1.1429 C   0  0  2  0  0  0  0  0  0  0  0  0
    6.1309   -0.2934   -2.0376 H   0  0  0  0  0  0  0  0  0  0  0  0
    5.0595   -1.9691   -1.1363 C   0  0  0  0  0  0  0  0  0  0  0  0
    5.9472   -2.6365   -1.1261 H   0  0  0  0  0  0  0  0  0  0  0  0
    4.4892   -2.2019   -2.0605 H   0  0  0  0  0  0  0  0  0  0  0  0
    4.1852   -2.2268    0.1040 C   0  0  2  0  0  0  0  0  0  0  0  0
    3.8327   -3.2787    0.1046 H   0  0  0  0  0  0  0  0  0  0  0  0
    2.9461   -1.3108    0.0591 C   0  0  0  0  0  0  0  0  0  0  0  0
    2.3471   -1.5378   -0.8470 H   0  0  0  0  0  0  0  0  0  0  0  0
    2.2895   -1.5111    0.9306 H   0  0  0  0  0  0  0  0  0  0  0  0
    4.1973    0.4403    1.3371 C   0  0  0  0  0  0  0  0  0  0  0  0
    3.5479    0.2648    2.2207 H   0  0  0  0  0  0  0  0  0  0  0  0
    4.5146    1.5030    1.3716 H   0  0  0  0  0  0  0  0  0  0  0  0
    5.4396   -0.4698    1.3765 C   0  0  2  0  0  0  0  0  0  0  0  0
    6.0166   -0.2449    2.2982 H   0  0  0  0  0  0  0  0  0  0  0  0
    6.3117   -0.1937    0.1356 C   0  0  0  0  0  0  0  0  0  0  0  0
    7.2248   -0.8249    0.1657 H   0  0  0  0  0  0  0  0  0  0  0  0
    6.6521    0.8646    0.1339 H   0  0  0  0  0  0  0  0  0  0  0  0
    4.9956   -1.9433    1.3807 C   0  0  0  0  0  0  0  0  0  0  0  0
    4.3797   -2.1556    2.2804 H   0  0  0  0  0  0  0  0  0  0  0  0
    5.8824   -2.6102    1.4300 H   0  0  0  0  0  0  0  0  0  0  0  0
  1 13  1  0  0  0  0
  1  6  1  0  0  0  0
  2  4  1  0  0  0  0
  3  1  1  0  0  0  0
  3  2  1  0  0  0  0
  4  5  1  0  0  0  0
  6  4  2  0  0  0  0
  6  7  1  0  0  0  0
  7  8  1  0  0  0  0
  9  7  2  0  0  0  0
  9 10  1  0  0  0  0
 11 12  1  0  0  0  0
 11  9  1  0  0  0  0
 13 14  1  0  0  0  0
 13 11  2  0  0  0  0
 14 15  1  0  0  0  0
 15 16  2  0  0  0  0
 15 22  1  0  0  0  0
 16 17  1  0  0  0  0
 18 32  1  0  0  0  0
 18 16  1  0  0  0  0
 19 18  2  0  0  0  0
 20 19  1  0  0  0  0
 21 19  1  0  0  0  0
 21 14  2  0  0  0  0
 22 24  1  0  0  0  0
 22 28  1  0  0  0  0
 23 22  1  0  0  0  0
 24 25  1  0  0  0  0
 24 26  1  0  0  0  0
 27 24  1  0  0  0  0
 28 31  1  0  0  0  0
 28 30  1  0  0  0  0
 29 28  1  0  0  0  0
 32 34  1  0  0  0  0
 32 38  1  0  0  0  0
 33 32  1  0  0  0  0
 34 37  1  0  0  0  0
 35 34  1  0  0  0  0
 36 34  1  0  0  0  0
 38 39  1  0  0  0  0
 40 38  1  0  0  0  0
 41 38  1  0  0  0  0
 42 43  1  0  0  0  0
 42 21  1  0  0  0  0
 44 42  1  0  0  0  0
 44 47  1  0  0  0  0
 45 44  1  0  0  0  0
 46 44  1  0  0  0  0
 48 49  1  0  0  0  0
 48 42  1  0  0  0  0
 50 48  1  0  0  0  0
 51 48  1  0  0  0  0
 52  2  1  6  0  0  0
 52 63  1  0  0  0  0
 52 66  1  0  0  0  0
 53 56  1  0  0  0  0
 53 52  1  0  0  0  0
 54 53  1  0  0  0  0
 55 53  1  0  0  0  0
 56 57  1  6  0  0  0
 56 58  1  0  0  0  0
 56 71  1  0  0  0  0
 58 59  1  0  0  0  0
 58 61  1  0  0  0  0
 60 58  1  0  0  0  0
 61 62  1  1  0  0  0
 61 74  1  0  0  0  0
 63 61  1  0  0  0  0
 63 65  1  0  0  0  0
 64 63  1  0  0  0  0
 66 68  1  0  0  0  0
 66 69  1  0  0  0  0
 66 67  1  0  0  0  0
 69 74  1  0  0  0  0
 69 70  1  1  0  0  0
 71 72  1  0  0  0  0
 71 69  1  0  0  0  0
 73 71  1  0  0  0  0
 74 76  1  0  0  0  0
 74 75  1  0  0  0  0
M  END
