4
q = -1.0

  5  4  0  0  0  0  0  0  0  0999 V2000
    4.1101   -1.8063   -0.0109 Cl  0  0  0  0  0  0  0  0  0  0  0  0
    5.5013    0.8226    0.0241 F   0  0  0  0  0  0  0  0  0  0  0  0
    3.7386    2.1103    0.0376 F   0  0  0  0  0  0  0  0  0  0  0  0
    3.3439   -0.2183    0.0085 C   0  0  0  0  0  0  0  0  0  0  0  0
    4.1706    0.8453    0.0225 C   0  0  0  0  0  0  0  0  0  0  0  0
  1  4  1  0  0  0  0
  4  5  2  0  0  0  0
  5  2  1  0  0  0  0
  5  3  1  0  0  0  0
M  END
