3
q = -1.0

 17 16  0  0  0  0  0  0  0  0999 V2000
    4.4654   -2.3867    1.3021 O   0  0  0  0  0  0  0  0  0  0  0  0
    4.6495   -1.5884   -0.8372 N   0  0  0  0  0  0  0  0  0  0  0  0
    1.6679   -1.0057    0.1628 C   0  0  0  0  0  3  0  0  0  0  0  0
    1.3414   -1.9271    0.6852 H   0  0  0  0  0  0  0  0  0  0  0  0
    1.7405   -1.2389   -0.9192 H   0  0  0  0  0  0  0  0  0  0  0  0
    3.0116   -0.5513    0.7206 C   0  0  0  0  0  0  0  0  0  0  0  0
    2.9579   -0.4510    1.8207 H   0  0  0  0  0  0  0  0  0  0  0  0
    3.3112    0.4354    0.3125 H   0  0  0  0  0  0  0  0  0  0  0  0
    4.1070   -1.5817    0.4413 C   0  0  0  0  0  0  0  0  0  0  0  0
    5.7116   -2.5306   -1.1322 C   0  0  0  0  0  0  0  0  0  0  0  0
    6.6643   -2.0046   -1.3685 H   0  0  0  0  0  0  0  0  0  0  0  0
    5.4473   -3.1680   -2.0047 H   0  0  0  0  0  0  0  0  0  0  0  0
    5.8568   -3.1647   -0.2386 H   0  0  0  0  0  0  0  0  0  0  0  0
    4.3304   -0.6452   -1.8902 C   0  0  0  0  0  0  0  0  0  0  0  0
    4.2467   -1.1798   -2.8610 H   0  0  0  0  0  0  0  0  0  0  0  0
    5.1221    0.1329   -2.0092 H   0  0  0  0  0  0  0  0  0  0  0  0
    3.3647   -0.1405   -1.7189 H   0  0  0  0  0  0  0  0  0  0  0  0
  2  9  1  0  0  0  0
  3  4  1  0  0  0  0
  3  6  1  0  0  0  0
  5  3  1  0  0  0  0
  6  7  1  0  0  0  0
  8  6  1  0  0  0  0
  9  6  1  0  0  0  0
  9  1  2  0  0  0  0
 10  2  1  0  0  0  0
 10 13  1  0  0  0  0
 11 10  1  0  0  0  0
 12 10  1  0  0  0  0
 14 17  1  0  0  0  0
 14  2  1  0  0  0  0
 15 14  1  0  0  0  0
 16 14  1  0  0  0  0
M  END
