5
q = 0.0, confidence = 0.972

 10 10  0  0  0  0  0  0  0  0999 V2000
   -2.4496   -0.6764   -2.7282 F   0  0  0  0  0  0  0  0  0  0  0  0
   -4.7830   -0.4803   -1.2892 F   0  0  0  0  0  0  0  0  0  0  0  0
   -4.7604    0.0682    1.3658 F   0  0  0  0  0  0  0  0  0  0  0  0
   -2.3950    0.4415    2.7263 F   0  0  0  0  0  0  0  0  0  0  0  0
   -1.2213    0.1419    0.6314 C   0  0  0  0  0  0  0  0  0  0  0  0
   -1.2306   -0.1286   -0.7107 C   0  0  0  0  0  0  0  0  0  0  0  0
   -2.3894   -0.3734   -1.4111 C   0  0  0  0  0  0  0  0  0  0  0  0
   -3.6026   -0.2890   -0.6736 C   0  0  0  0  0  0  0  0  0  0  0  0
   -3.5914   -0.0045    0.7047 C   0  0  0  0  0  0  0  0  0  0  0  0
   -2.3649    0.2032    1.3941 C   0  0  0  0  0  0  0  0  0  0  0  0
  1  7  1  0  0  0  0
  2  8  1  0  0  0  0
  5 10  1  0  0  0  0
  6  5  2  0  0  0  0
  7  6  1  0  0  0  0
  7  8  2  0  0  0  0
  8  9  1  0  0  0  0
  9  3  1  0  0  0  0
  9 10  2  0  0  0  0
 10  4  1  0  0  0  0
M  END
