1
q = 0.0, confidence = 0.7

 54 57  0  0  1  0  0  0  0  0999 V2000
    1.6054    0.6294   -0.2663 C   0  0  0  0  0  2  0  0  0  0  0  0
    1.6493    1.9083   -0.6511 O   0  0  0  0  0  0  0  0  0  0  0  0
    2.8801    2.6018   -0.9023 C   0  0  0  0  0  0  0  0  0  0  0  0
    2.5412    3.9215   -1.5664 C   0  0  0  0  0  0  0  0  0  0  0  0
    0.2686    0.2243    0.0756 C   0  0  0  0  0  0  0  0  0  0  0  0
   -0.8342    1.0383    0.3198 C   0  0  0  0  0  0  0  0  0  0  0  0
   -0.7622    2.5328    0.3335 C   0  0  0  0  0  0  0  0  0  0  0  0
   -1.3076    3.2825   -0.7267 C   0  0  0  0  0  0  0  0  0  0  0  0
   -1.2537    4.6833   -0.7022 C   0  0  0  0  0  0  0  0  0  0  0  0
   -0.6645    5.3483    0.3855 C   0  0  0  0  0  0  0  0  0  0  0  0
   -0.1257    4.6048    1.4488 C   0  0  0  0  0  0  0  0  0  0  0  0
   -0.1738    3.2038    1.4241 C   0  0  0  0  0  0  0  0  0  0  0  0
   -2.0721    0.5254    0.6405 N   0  0  0  0  0  0  0  0  0  0  0  0
   -3.2220    1.3654    1.0032 C   0  0  0  0  0  0  0  0  0  0  0  0
   -4.1859    0.3982    1.6863 C   0  0  0  0  0  0  0  0  0  0  0  0
   -3.9515   -0.9168    0.9265 C   0  0  2  0  0  0  0  0  0  0  0  0
   -2.4461   -0.9100    0.5344 C   0  0  2  0  0  0  0  0  0  0  0  0
   -1.6135   -1.7770    1.2406 O   0  0  0  0  0  0  0  0  0  0  0  0
   -1.4705   -1.5188    2.6296 C   0  0  0  0  0  0  0  0  0  0  0  0
   -2.4300   -1.3195   -0.9770 C   0  0  0  0  0  0  0  0  0  0  0  0
   -1.4408   -1.6432   -1.6107 O   0  0  0  0  0  0  0  0  0  0  0  0
   -3.8195   -1.2221   -1.4453 C   0  0  0  0  0  0  0  0  0  0  0  0
   -4.6860   -1.0270   -0.4064 C   0  0  0  0  0  0  0  0  0  0  0  0
   -6.1494   -0.9558   -0.4927 C   0  0  0  0  0  0  0  0  0  0  0  0
   -6.9576   -1.2157    0.6410 C   0  0  0  0  0  0  0  0  0  0  0  0
   -8.3549   -1.1747    0.5521 C   0  0  0  0  0  0  0  0  0  0  0  0
   -8.9751   -0.8606   -0.6673 C   0  0  0  0  0  0  0  0  0  0  0  0
   -8.1874   -0.5913   -1.8001 C   0  0  0  0  0  0  0  0  0  0  0  0
   -6.7924   -0.6393   -1.7148 C   0  0  0  0  0  0  0  0  0  0  0  0
    3.4017    2.7532    0.0660 H   0  0  0  0  0  0  0  0  0  0  0  0
    3.5298    1.9671   -1.5376 H   0  0  0  0  0  0  0  0  0  0  0  0
    3.4690    4.4972   -1.7536 H   0  0  0  0  0  0  0  0  0  0  0  0
    1.8722    4.5283   -0.9244 H   0  0  0  0  0  0  0  0  0  0  0  0
    2.0322    3.7561   -2.5366 H   0  0  0  0  0  0  0  0  0  0  0  0
    0.1161   -0.8552    0.1817 H   0  0  0  0  0  0  0  0  0  0  0  0
   -1.7529    2.7586   -1.5862 H   0  0  0  0  0  0  0  0  0  0  0  0
   -1.6696    5.2608   -1.5418 H   0  0  0  0  0  0  0  0  0  0  0  0
   -0.6229    6.4478    0.4037 H   0  0  0  0  0  0  0  0  0  0  0  0
    0.3401    5.1202    2.3025 H   0  0  0  0  0  0  0  0  0  0  0  0
    0.2616    2.6144    2.2453 H   0  0  0  0  0  0  0  0  0  0  0  0
   -3.6860    1.8107    0.0940 H   0  0  0  0  0  0  0  0  0  0  0  0
   -2.9052    2.2048    1.6504 H   0  0  0  0  0  0  0  0  0  0  0  0
   -5.2325    0.7542    1.6406 H   0  0  0  0  0  0  0  0  0  0  0  0
   -3.9137    0.2689    2.7529 H   0  0  0  0  0  0  0  0  0  0  0  0
   -4.1672   -1.8118    1.5466 H   0  0  0  0  0  0  0  0  0  0  0  0
   -0.6797   -2.1971    2.9968 H   0  0  0  0  0  0  0  0  0  0  0  0
   -2.4130   -1.7170    3.1906 H   0  0  0  0  0  0  0  0  0  0  0  0
   -1.1489   -0.4712    2.8210 H   0  0  0  0  0  0  0  0  0  0  0  0
   -4.0870   -1.3935   -2.4967 H   0  0  0  0  0  0  0  0  0  0  0  0
   -6.4865   -1.4757    1.6002 H   0  0  0  0  0  0  0  0  0  0  0  0
   -8.9649   -1.3909    1.4420 H   0  0  0  0  0  0  0  0  0  0  0  0
  -10.0727   -0.8222   -0.7356 H   0  0  0  0  0  0  0  0  0  0  0  0
   -8.6672   -0.3370   -2.7572 H   0  0  0  0  0  0  0  0  0  0  0  0
   -6.1835   -0.4100   -2.6017 H   0  0  0  0  0  0  0  0  0  0  0  0
  1  5  1  0  0  0  0
  2  1  1  0  0  0  0
  3  2  1  0  0  0  0
  3 30  1  0  0  0  0
  4 33  1  0  0  0  0
  4  3  1  0  0  0  0
  5 35  1  0  0  0  0
  5  6  2  0  0  0  0
  6  7  1  0  0  0  0
  6 13  1  0  0  0  0
  7 12  1  0  0  0  0
  8  9  1  0  0  0  0
  8  7  2  0  0  0  0
  9 10  2  0  0  0  0
 10 38  1  0  0  0  0
 10 11  1  0  0  0  0
 11 39  1  0  0  0  0
 12 11  2  0  0  0  0
 12 40  1  0  0  0  0
 13 14  1  0  0  0  0
 14 42  1  0  0  0  0
 14 15  1  0  0  0  0
 15 44  1  0  0  0  0
 16 45  1  1  0  0  0
 16 15  1  0  0  0  0
 17 13  1  0  0  0  0
 17 16  1  0  0  0  0
 17 18  1  1  0  0  0
 18 19  1  0  0  0  0
 19 48  1  0  0  0  0
 19 46  1  0  0  0  0
 19 47  1  0  0  0  0
 20 17  1  0  0  0  0
 21 20  2  0  0  0  0
 22 20  1  0  0  0  0
 22 23  2  0  0  0  0
 23 16  1  0  0  0  0
 24 23  1  0  0  0  0
 24 25  1  0  0  0  0
 25 50  1  0  0  0  0
 26 25  2  0  0  0  0
 26 51  1  0  0  0  0
 27 26  1  0  0  0  0
 28 29  1  0  0  0  0
 28 27  2  0  0  0  0
 29 24  2  0  0  0  0
 31  3  1  0  0  0  0
 32  4  1  0  0  0  0
 34  4  1  0  0  0  0
 36  8  1  0  0  0  0
 37  9  1  0  0  0  0
 41 14  1  0  0  0  0
 43 15  1  0  0  0  0
 49 22  1  0  0  0  0
 52 27  1  0  0  0  0
 53 28  1  0  0  0  0
 54 29  1  0  0  0  0
M  END
