7
q = 0.0, confidence = 0.962

 21 20  0  0  1  0  0  0  0  0999 V2000
   -6.2057    1.0930   -0.0232 N   0  0  0  0  0  0  0  0  0  0  0  0
   -5.3904    0.3521    0.3780 C   0  0  0  0  0  0  0  0  0  0  0  0
   -4.3059   -0.5397    0.7778 C   0  0  0  0  0  0  0  0  0  0  0  0
   -3.0263   -0.2766   -0.0773 C   0  0  2  0  0  0  0  0  0  0  0  0
   -3.3104   -0.4133   -1.4560 O   0  0  0  0  0  0  0  0  0  0  0  0
   -1.9302   -1.2301    0.3228 C   0  0  0  0  0  3  0  0  0  0  0  0
   -1.8552   -2.5535   -0.2287 C   0  0  0  0  0  3  0  0  0  0  0  0
   -0.7292   -3.3432    0.1528 C   0  0  0  0  0  3  0  0  0  0  0  0
    0.2252   -2.7503    1.0465 C   0  0  0  0  0  3  0  0  0  0  0  0
    1.5231   -3.4408    1.3831 C   0  0  0  0  0  0  0  0  0  0  0  0
   -4.0249    0.2133   -1.6825 H   0  0  0  0  0  0  0  0  0  0  0  0
   -4.0784   -0.3919    1.8540 H   0  0  0  0  0  0  0  0  0  0  0  0
   -4.6280   -1.5935    0.6421 H   0  0  0  0  0  0  0  0  0  0  0  0
   -2.6949    0.7627    0.1639 H   0  0  0  0  0  0  0  0  0  0  0  0
   -1.6483   -1.0927    1.3809 H   0  0  0  0  0  0  0  0  0  0  0  0
   -2.5569   -2.9011   -1.0023 H   0  0  0  0  0  0  0  0  0  0  0  0
   -0.5525   -4.3193   -0.3284 H   0  0  0  0  0  0  0  0  0  0  0  0
   -0.1868   -2.1446    1.8723 H   0  0  0  0  0  0  0  0  0  0  0  0
    2.3241   -2.7104    1.6218 H   0  0  0  0  0  0  0  0  0  0  0  0
    1.8956   -4.0613    0.5445 H   0  0  0  0  0  0  0  0  0  0  0  0
    1.4105   -4.1035    2.2697 H   0  0  0  0  0  0  0  0  0  0  0  0
  1  2  3  0  0  0  0
  2  3  1  0  0  0  0
  3 12  1  0  0  0  0
  4 14  1  1  0  0  0
  4  6  1  0  0  0  0
  4  3  1  0  0  0  0
  5  4  1  0  0  0  0
  6 15  1  0  0  0  0
  7  8  1  0  0  0  0
  7  6  1  0  0  0  0
  8  9  1  0  0  0  0
  9 10  1  0  0  0  0
  9 18  1  0  0  0  0
 10 19  1  0  0  0  0
 10 21  1  0  0  0  0
 11  5  1  0  0  0  0
 13  3  1  0  0  0  0
 16  7  1  0  0  0  0
 17  8  1  0  0  0  0
 20 10  1  0  0  0  0
M  END
