4
q = -1.0

 21 21  0  0  0  0  0  0  0  0999 V2000
    0.0917   -0.6696   -2.2113 C   0  0  0  0  0  3  0  0  0  0  0  0
   -0.2181   -1.3958   -2.9825 H   0  0  0  0  0  0  0  0  0  0  0  0
    0.0298    0.3738   -2.5514 H   0  0  0  0  0  0  0  0  0  0  0  0
    1.1862   -1.0462   -1.3519 C   0  0  0  0  0  3  0  0  0  0  0  0
    1.6727   -2.0345   -1.4420 H   0  0  0  0  0  0  0  0  0  0  0  0
    1.4697   -0.2000   -0.2152 C   0  0  0  0  0  3  0  0  0  0  0  0
    1.4690    0.8895   -0.4002 H   0  0  0  0  0  0  0  0  0  0  0  0
    2.5525   -0.6205    0.7707 C   0  0  0  0  0  0  0  0  0  0  0  0
    2.6094   -1.7287    0.7961 H   0  0  0  0  0  0  0  0  0  0  0  0
    2.2808   -0.2972    1.7961 H   0  0  0  0  0  0  0  0  0  0  0  0
    3.9023   -0.0346    0.4111 C   0  0  0  0  0  0  0  0  0  0  0  0
    4.3490    1.1620    1.0076 C   0  0  0  0  0  0  0  0  0  0  0  0
    3.7256    1.6400    1.7810 H   0  0  0  0  0  0  0  0  0  0  0  0
    5.5701    1.7452    0.6351 C   0  0  0  0  0  0  0  0  0  0  0  0
    5.9016    2.6782    1.1170 H   0  0  0  0  0  0  0  0  0  0  0  0
    6.3695    1.1381   -0.3459 C   0  0  0  0  0  0  0  0  0  0  0  0
    7.3290    1.5912   -0.6382 H   0  0  0  0  0  0  0  0  0  0  0  0
    5.9371   -0.0544   -0.9493 C   0  0  0  0  0  0  0  0  0  0  0  0
    6.5590   -0.5397   -1.7175 H   0  0  0  0  0  0  0  0  0  0  0  0
    4.7152   -0.6315   -0.5745 C   0  0  0  0  0  0  0  0  0  0  0  0
    4.3801   -1.5651   -1.0541 H   0  0  0  0  0  0  0  0  0  0  0  0
  1  4  1  0  0  0  0
  2  1  1  0  0  0  0
  3  1  1  0  0  0  0
  4  6  1  0  0  0  0
  5  4  1  0  0  0  0
  6  8  1  0  0  0  0
  7  6  1  0  0  0  0
  8  9  1  0  0  0  0
  8 10  1  0  0  0  0
 11  8  1  0  0  0  0
 11 12  1  0  0  0  0
 12 13  1  0  0  0  0
 14 12  2  0  0  0  0
 14 15  1  0  0  0  0
 16 14  1  0  0  0  0
 17 16  1  0  0  0  0
 18 20  1  0  0  0  0
 18 16  2  0  0  0  0
 19 18  1  0  0  0  0
 20 11  2  0  0  0  0
 21 20  1  0  0  0  0
M  END
