6
q = 0.0, confidence = 0.874

 48 48  0  0  0  0  0  0  0  0999 V2000
   -4.5026   -0.0825    0.1206 Si  0  0  0  0  0  0  0  0  0  0  0  0
    0.9879    3.2459   -0.0234 Si  0  0  0  0  0  0  0  0  0  0  0  0
   -2.0338   -0.3011    1.7482 C   0  0  0  0  0  3  0  0  0  0  0  0
   -2.6816    0.2003    0.5587 C   0  0  0  0  0  0  0  0  0  0  0  0
   -1.7579    0.8376   -0.3554 C   0  0  0  0  0  0  0  0  0  0  0  0
   -0.3891    0.6951    0.0065 C   0  0  0  0  0  3  0  0  0  0  0  0
    0.7643    1.3706    0.0987 C   0  0  0  0  0  0  0  0  0  0  0  0
    1.9559    0.6523    0.4247 O   0  0  0  0  0  0  0  0  0  0  0  0
    2.6953    0.1455   -0.5958 C   0  0  0  0  0  0  0  0  0  0  0  0
    2.4034    0.2515   -1.7764 O   0  0  0  0  0  0  0  0  0  0  0  0
    3.9024   -0.5795   -0.0905 C   0  0  0  0  0  0  0  0  0  0  0  0
    4.7678   -1.1563   -1.0416 C   0  0  0  0  0  0  0  0  0  0  0  0
    5.9073   -1.8540   -0.6233 C   0  0  0  0  0  0  0  0  0  0  0  0
    6.1890   -1.9808    0.7478 C   0  0  0  0  0  0  0  0  0  0  0  0
    5.3288   -1.4075    1.6994 C   0  0  0  0  0  0  0  0  0  0  0  0
    4.1877   -0.7072    1.2849 C   0  0  0  0  0  0  0  0  0  0  0  0
   -4.6856   -0.5256   -1.7103 C   0  0  0  0  0  0  0  0  0  0  0  0
   -5.1979   -1.4695    1.2030 C   0  0  0  0  0  0  0  0  0  0  0  0
   -5.4355    1.5283    0.4762 C   0  0  0  0  0  0  0  0  0  0  0  0
    2.3953    3.6078   -1.2344 C   0  0  0  0  0  0  0  0  0  0  0  0
   -0.6355    4.0092   -0.6184 C   0  0  0  0  0  0  0  0  0  0  0  0
    1.4458    3.9122    1.6897 C   0  0  0  0  0  0  0  0  0  0  0  0
   -2.5901   -1.0083    2.3859 H   0  0  0  0  0  0  0  0  0  0  0  0
   -1.3035    0.3254    2.2893 H   0  0  0  0  0  0  0  0  0  0  0  0
   -2.0838    1.2159   -1.3405 H   0  0  0  0  0  0  0  0  0  0  0  0
    4.5184   -1.0401   -2.1066 H   0  0  0  0  0  0  0  0  0  0  0  0
    6.5814   -2.3031   -1.3684 H   0  0  0  0  0  0  0  0  0  0  0  0
    7.0845   -2.5299    1.0768 H   0  0  0  0  0  0  0  0  0  0  0  0
    5.5507   -1.5072    2.7728 H   0  0  0  0  0  0  0  0  0  0  0  0
    3.5062   -0.2523    2.0171 H   0  0  0  0  0  0  0  0  0  0  0  0
   -5.7573   -0.6026   -1.9873 H   0  0  0  0  0  0  0  0  0  0  0  0
   -4.2007   -1.4958   -1.9366 H   0  0  0  0  0  0  0  0  0  0  0  0
   -4.2254    0.2438   -2.3635 H   0  0  0  0  0  0  0  0  0  0  0  0
   -5.1543   -1.2009    2.2781 H   0  0  0  0  0  0  0  0  0  0  0  0
   -6.2600   -1.6638    0.9479 H   0  0  0  0  0  0  0  0  0  0  0  0
   -4.6362   -2.4152    1.0654 H   0  0  0  0  0  0  0  0  0  0  0  0
   -5.3308    1.8182    1.5417 H   0  0  0  0  0  0  0  0  0  0  0  0
   -6.5176    1.4241    0.2531 H   0  0  0  0  0  0  0  0  0  0  0  0
   -5.0380    2.3602   -0.1407 H   0  0  0  0  0  0  0  0  0  0  0  0
    2.5145    4.7002   -1.3893 H   0  0  0  0  0  0  0  0  0  0  0  0
    2.2046    3.1234   -2.2123 H   0  0  0  0  0  0  0  0  0  0  0  0
    3.3577    3.2133   -0.8488 H   0  0  0  0  0  0  0  0  0  0  0  0
   -0.8921    3.6571   -1.6380 H   0  0  0  0  0  0  0  0  0  0  0  0
   -1.4734    3.7445    0.0579 H   0  0  0  0  0  0  0  0  0  0  0  0
   -0.5549    5.1155   -0.6493 H   0  0  0  0  0  0  0  0  0  0  0  0
    2.3503    3.3984    2.0747 H   0  0  0  0  0  0  0  0  0  0  0  0
    0.6238    3.7427    2.4146 H   0  0  0  0  0  0  0  0  0  0  0  0
    1.6592    5.0009    1.6554 H   0  0  0  0  0  0  0  0  0  0  0  0
  1 19  1  0  0  0  0
  1  4  1  0  0  0  0
  1 18  1  0  0  0  0
  2  7  1  0  0  0  0
  2 22  1  0  0  0  0
  3 24  1  0  0  0  0
  3 23  1  0  0  0  0
  4  3  1  0  0  0  0
  5  6  1  0  0  0  0
  5  4  2  0  0  0  0
  6  7  2  0  0  0  0
  7  8  1  0  0  0  0
  9 11  1  0  0  0  0
  9  8  1  0  0  0  0
 10  9  2  0  0  0  0
 11 16  1  0  0  0  0
 12 13  1  0  0  0  0
 12 11  2  0  0  0  0
 13 14  2  0  0  0  0
 14 28  1  0  0  0  0
 14 15  1  0  0  0  0
 15 29  1  0  0  0  0
 16 15  2  0  0  0  0
 16 30  1  0  0  0  0
 17  1  1  0  0  0  0
 18 34  1  0  0  0  0
 19 37  1  0  0  0  0
 20 42  1  0  0  0  0
 20  2  1  0  0  0  0
 21  2  1  0  0  0  0
 21 44  1  0  0  0  0
 22 46  1  0  0  0  0
 22 47  1  0  0  0  0
 25  5  1  0  0  0  0
 26 12  1  0  0  0  0
 27 13  1  0  0  0  0
 31 17  1  0  0  0  0
 32 17  1  0  0  0  0
 33 17  1  0  0  0  0
 35 18  1  0  0  0  0
 36 18  1  0  0  0  0
 38 19  1  0  0  0  0
 39 19  1  0  0  0  0
 40 20  1  0  0  0  0
 41 20  1  0  0  0  0
 43 21  1  0  0  0  0
 45 21  1  0  0  0  0
 48 22  1  0  0  0  0
M  END
