3
q = -1.0, confidence = 0.0

 27 27  0  0  0  0  0  0  0  0999 V2000
   -0.2767   -2.6909   -0.2738 N   0  0  0  0  0  0  0  0  0  0  0  0
   -1.6782    0.0914   -2.5938 C   0  0  0  0  0  0  0  0  0  0  0  0
   -0.5505    0.9912   -2.5761 C   0  0  0  0  0  3  0  0  0  0  0  0
    0.6147    0.2285   -2.9547 C   0  0  0  0  0  0  0  0  0  0  0  0
    0.2160   -1.1267   -3.1957 C   0  0  0  0  0  0  0  0  0  0  0  0
   -1.2198   -1.2114   -2.9592 C   0  0  0  0  0  0  0  0  0  0  0  0
   -2.0871   -2.4242   -3.0881 C   0  0  0  0  0  0  0  0  0  0  0  0
   -1.6030   -3.6406   -2.2895 C   0  0  0  0  0  0  0  0  0  0  0  0
   -1.4801   -3.4289   -0.7827 C   0  0  0  0  0  0  0  0  0  0  0  0
   -0.3497   -2.7620    1.2052 C   0  0  0  0  0  0  0  0  0  0  0  0
    0.9523   -3.4184   -0.6814 C   0  0  0  0  0  0  0  0  0  0  0  0
   -2.7206    0.3627   -2.3867 H   0  0  0  0  0  0  0  0  0  0  0  0
   -0.6105    2.0702   -2.3934 H   0  0  0  0  0  0  0  0  0  0  0  0
    1.6318    0.6248   -3.0675 H   0  0  0  0  0  0  0  0  0  0  0  0
    0.8644   -1.9300   -3.5651 H   0  0  0  0  0  0  0  0  0  0  0  0
   -3.1164   -2.1586   -2.7685 H   0  0  0  0  0  0  0  0  0  0  0  0
   -2.1592   -2.7043   -4.1615 H   0  0  0  0  0  0  0  0  0  0  0  0
   -2.3326   -4.4635   -2.4339 H   0  0  0  0  0  0  0  0  0  0  0  0
   -0.6508   -4.0281   -2.7067 H   0  0  0  0  0  0  0  0  0  0  0  0
   -1.4647   -4.4306   -0.2940 H   0  0  0  0  0  0  0  0  0  0  0  0
   -2.3708   -2.8959   -0.3948 H   0  0  0  0  0  0  0  0  0  0  0  0
   -0.3829   -3.8239    1.5382 H   0  0  0  0  0  0  0  0  0  0  0  0
    0.5497   -2.2977    1.6437 H   0  0  0  0  0  0  0  0  0  0  0  0
   -1.2582   -2.2509    1.5682 H   0  0  0  0  0  0  0  0  0  0  0  0
    0.8919   -4.4837   -0.3609 H   0  0  0  0  0  0  0  0  0  0  0  0
    1.0882   -3.3747   -1.7735 H   0  0  0  0  0  0  0  0  0  0  0  0
    1.8296   -2.9514   -0.2053 H   0  0  0  0  0  0  0  0  0  0  0  0
  1 10  1  0  0  0  0
  2  3  1  0  0  0  0
  2 12  1  0  0  0  0
  3 13  1  0  0  0  0
  4  3  1  0  0  0  0
  5  6  1  0  0  0  0
  5  4  2  0  0  0  0
  6  2  2  0  0  0  0
  7  6  1  0  0  0  0
  7 16  1  0  0  0  0
  7  8  1  0  0  0  0
  8  9  1  0  0  0  0
  9 21  1  0  0  0  0
  9 20  1  0  0  0  0
  9  1  1  0  0  0  0
 10 22  1  0  0  0  0
 10 24  1  0  0  0  0
 10 23  1  0  0  0  0
 11 25  1  0  0  0  0
 11  1  1  0  0  0  0
 11 27  1  0  0  0  0
 14  4  1  0  0  0  0
 15  5  1  0  0  0  0
 17  7  1  0  0  0  0
 18  8  1  0  0  0  0
 19  8  1  0  0  0  0
 26 11  1  0  0  0  0
M  END
