5
q = -1.0, confidence = 0.012

 50 54  0  0  1  0  0  0  0  0999 V2000
   -0.6280   -0.0754    1.8419 C   0  0  0  0  0  0  0  0  0  0  0  0
    0.8031   -0.0896    1.7575 C   0  0  0  0  0  0  0  0  0  0  0  0
    1.1838    1.0478    0.9519 C   0  0  0  0  0  0  0  0  0  0  0  0
   -0.0246    1.7213    0.5143 C   0  0  0  0  0  0  0  0  0  0  0  0
   -1.1585    1.0352    1.1098 C   0  0  2  0  0  3  0  0  0  0  0  0
    1.6443   -1.1761    2.2978 C   0  0  0  0  0  0  0  0  0  0  0  0
    2.8569   -1.5662    1.6804 C   0  0  0  0  0  0  0  0  0  0  0  0
    3.6021   -2.6412    2.1787 C   0  0  0  0  0  0  0  0  0  0  0  0
    3.1584   -3.3537    3.3050 C   0  0  0  0  0  0  0  0  0  0  0  0
    1.9584   -2.9783    3.9289 C   0  0  0  0  0  0  0  0  0  0  0  0
    1.2102   -1.9026    3.4319 C   0  0  0  0  0  0  0  0  0  0  0  0
    2.5480    1.5870    0.7607 C   0  0  0  0  0  0  0  0  0  0  0  0
    2.9596    2.1807   -0.4537 C   0  0  0  0  0  0  0  0  0  0  0  0
    4.2376    2.7413   -0.5777 C   0  0  0  0  0  0  0  0  0  0  0  0
    5.1286    2.7243    0.5069 C   0  0  0  0  0  0  0  0  0  0  0  0
    4.7274    2.1481    1.7228 C   0  0  0  0  0  0  0  0  0  0  0  0
    3.4496    1.5877    1.8499 C   0  0  0  0  0  0  0  0  0  0  0  0
   -0.0560    3.0564   -0.1414 C   0  0  0  0  0  0  0  0  0  0  0  0
   -0.4385    3.2516   -1.4843 C   0  0  0  0  0  0  0  0  0  0  0  0
   -0.4335    4.5394   -2.0418 C   0  0  0  0  0  0  0  0  0  0  0  0
   -0.0416    5.6450   -1.2717 C   0  0  0  0  0  0  0  0  0  0  0  0
    0.3456    5.4583    0.0648 C   0  0  0  0  0  0  0  0  0  0  0  0
    0.3383    4.1740    0.6255 C   0  0  0  0  0  0  0  0  0  0  0  0
   -2.5766    1.4547    1.1171 C   0  0  0  0  0  0  0  0  0  0  0  0
   -3.2598    1.8906   -0.0399 C   0  0  0  0  0  0  0  0  0  0  0  0
   -4.6046    2.2777    0.0347 C   0  0  0  0  0  0  0  0  0  0  0  0
   -5.2938    2.2355    1.2572 C   0  0  0  0  0  0  0  0  0  0  0  0
   -4.6254    1.8034    2.4130 C   0  0  0  0  0  0  0  0  0  0  0  0
   -3.2790    1.4194    2.3440 C   0  0  0  0  0  0  0  0  0  0  0  0
   -1.2375   -0.8274    2.3526 H   0  0  0  0  0  0  0  0  0  0  0  0
    3.2096   -1.0284    0.7904 H   0  0  0  0  0  0  0  0  0  0  0  0
    4.5376   -2.9301    1.6759 H   0  0  0  0  0  0  0  0  0  0  0  0
    3.7457   -4.1988    3.6942 H   0  0  0  0  0  0  0  0  0  0  0  0
    1.6019   -3.5254    4.8148 H   0  0  0  0  0  0  0  0  0  0  0  0
    0.2793   -1.6082    3.9388 H   0  0  0  0  0  0  0  0  0  0  0  0
    2.2702    2.1988   -1.3078 H   0  0  0  0  0  0  0  0  0  0  0  0
    4.5389    3.1961   -1.5335 H   0  0  0  0  0  0  0  0  0  0  0  0
    6.1324    3.1641    0.4066 H   0  0  0  0  0  0  0  0  0  0  0  0
    5.4130    2.1391    2.5837 H   0  0  0  0  0  0  0  0  0  0  0  0
    3.1363    1.1498    2.8086 H   0  0  0  0  0  0  0  0  0  0  0  0
   -0.7367    2.3916   -2.1007 H   0  0  0  0  0  0  0  0  0  0  0  0
   -0.7363    4.6753   -3.0910 H   0  0  0  0  0  0  0  0  0  0  0  0
   -0.0359    6.6531   -1.7134 H   0  0  0  0  0  0  0  0  0  0  0  0
    0.6568    6.3189    0.6762 H   0  0  0  0  0  0  0  0  0  0  0  0
    0.6483    4.0245    1.6707 H   0  0  0  0  0  0  0  0  0  0  0  0
   -2.7539    1.8857   -1.0131 H   0  0  0  0  0  0  0  0  0  0  0  0
   -5.1224    2.6021   -0.8805 H   0  0  0  0  0  0  0  0  0  0  0  0
   -6.3512    2.5363    1.3084 H   0  0  0  0  0  0  0  0  0  0  0  0
   -5.1533    1.7691    3.3781 H   0  0  0  0  0  0  0  0  0  0  0  0
   -2.7516    1.1008    3.2559 H   0  0  0  0  0  0  0  0  0  0  0  0
  1 30  1  0  0  0  0
  2  1  2  0  0  0  0
  2  6  1  0  0  0  0
  3  2  1  0  0  0  0
  4  3  2  0  0  0  0
  4  5  1  0  0  0  0
  5 24  1  1  0  0  0
  5  1  1  0  0  0  0
  6 11  1  0  0  0  0
  7  8  1  0  0  0  0
  7  6  2  0  0  0  0
  8  9  2  0  0  0  0
  9 33  1  0  0  0  0
  9 10  1  0  0  0  0
 10 34  1  0  0  0  0
 11 10  2  0  0  0  0
 11 35  1  0  0  0  0
 12  3  1  0  0  0  0
 12 17  1  0  0  0  0
 13 12  2  0  0  0  0
 14 13  1  0  0  0  0
 14 15  2  0  0  0  0
 15 16  1  0  0  0  0
 16 17  2  0  0  0  0
 16 39  1  0  0  0  0
 17 40  1  0  0  0  0
 18  4  1  0  0  0  0
 18 23  1  0  0  0  0
 19 18  2  0  0  0  0
 20 19  1  0  0  0  0
 20 21  2  0  0  0  0
 21 22  1  0  0  0  0
 22 23  2  0  0  0  0
 22 44  1  0  0  0  0
 23 45  1  0  0  0  0
 24 29  1  0  0  0  0
 25 26  1  0  0  0  0
 25 24  2  0  0  0  0
 26 27  2  0  0  0  0
 27 48  1  0  0  0  0
 27 28  1  0  0  0  0
 28 49  1  0  0  0  0
 29 28  2  0  0  0  0
 29 50  1  0  0  0  0
 31  7  1  0  0  0  0
 32  8  1  0  0  0  0
 36 13  1  0  0  0  0
 37 14  1  0  0  0  0
 38 15  1  0  0  0  0
 41 19  1  0  0  0  0
 42 20  1  0  0  0  0
 43 21  1  0  0  0  0
 46 25  1  0  0  0  0
 47 26  1  0  0  0  0
M  END
