5
q = -1.0, confidence = 0.0

 73 79  0  0  1  0  0  0  0  0999 V2000
    1.3409   -0.4369   -0.5197 C   0  0  1  0  0  3  0  0  0  0  0  0
    1.1010    0.9242   -1.2224 C   0  0  1  0  0  0  0  0  0  0  0  0
   -0.2024    1.4432   -0.5994 C   0  0  2  0  0  3  0  0  0  0  0  0
   -1.3225    0.5447   -0.6228 C   0  0  2  0  0  3  0  0  0  0  0  0
   -1.1021   -0.8985   -0.6336 C   0  0  2  0  0  3  0  0  0  0  0  0
    0.2710   -1.3849   -0.5602 C   0  0  1  0  0  3  0  0  0  0  0  0
    2.7585   -0.9193   -0.4782 C   0  0  0  0  0  0  0  0  0  0  0  0
    3.6321   -0.6282    0.5859 C   0  0  0  0  0  0  0  0  0  0  0  0
    4.9737   -1.0359    0.5428 C   0  0  0  0  0  0  0  0  0  0  0  0
    5.4636   -1.7425   -0.5657 C   0  0  0  0  0  0  0  0  0  0  0  0
    4.6018   -2.0384   -1.6338 C   0  0  0  0  0  0  0  0  0  0  0  0
    3.2633   -1.6271   -1.5911 C   0  0  0  0  0  0  0  0  0  0  0  0
    2.3211    1.8243   -1.1154 C   0  0  0  0  0  0  0  0  0  0  0  0
    2.5759    2.6574   -0.0100 C   0  0  0  0  0  0  0  0  0  0  0  0
    3.7644    3.3966    0.0733 C   0  0  0  0  0  0  0  0  0  0  0  0
    4.7205    3.3205   -0.9510 C   0  0  0  0  0  0  0  0  0  0  0  0
    4.4721    2.5057   -2.0661 C   0  0  0  0  0  0  0  0  0  0  0  0
    3.2814    1.7700   -2.1450 C   0  0  0  0  0  0  0  0  0  0  0  0
   -0.4498    2.9134   -0.5251 C   0  0  0  0  0  0  0  0  0  0  0  0
   -0.0089    3.7527   -1.5742 C   0  0  0  0  0  0  0  0  0  0  0  0
   -0.2913    5.1257   -1.5645 C   0  0  0  0  0  0  0  0  0  0  0  0
   -1.0113    5.6928   -0.5019 C   0  0  0  0  0  0  0  0  0  0  0  0
   -1.4448    4.8726    0.5523 C   0  0  0  0  0  0  0  0  0  0  0  0
   -1.1636    3.5010    0.5406 C   0  0  0  0  0  0  0  0  0  0  0  0
   -2.7321    1.0528   -0.6951 C   0  0  0  0  0  0  0  0  0  0  0  0
   -3.0622    1.9523   -1.7318 C   0  0  0  0  0  0  0  0  0  0  0  0
   -4.3803    2.3947   -1.9046 C   0  0  0  0  0  0  0  0  0  0  0  0
   -5.3921    1.9495   -1.0400 C   0  0  0  0  0  0  0  0  0  0  0  0
   -5.0762    1.0488   -0.0110 C   0  0  0  0  0  0  0  0  0  0  0  0
   -3.7602    0.5986    0.1548 C   0  0  0  0  0  0  0  0  0  0  0  0
   -2.2426   -1.8475   -0.8132 C   0  0  0  0  0  0  0  0  0  0  0  0
   -3.0137   -1.7830   -1.9928 C   0  0  0  0  0  0  0  0  0  0  0  0
   -4.0691   -2.6803   -2.2067 C   0  0  0  0  0  0  0  0  0  0  0  0
   -4.3679   -3.6586   -1.2454 C   0  0  0  0  0  0  0  0  0  0  0  0
   -3.6051   -3.7311   -0.0688 C   0  0  0  0  0  0  0  0  0  0  0  0
   -2.5526   -2.8314    0.1466 C   0  0  0  0  0  0  0  0  0  0  0  0
    0.5559   -2.8555   -0.5823 C   0  0  0  0  0  0  0  0  0  0  0  0
    0.0805   -3.6107   -1.6762 C   0  0  0  0  0  0  0  0  0  0  0  0
    0.3928   -4.9719   -1.7948 C   0  0  0  0  0  0  0  0  0  0  0  0
    1.1818   -5.6027   -0.8211 C   0  0  0  0  0  0  0  0  0  0  0  0
    1.6664   -4.8575    0.2648 C   0  0  0  0  0  0  0  0  0  0  0  0
    1.3628   -3.4946    0.3797 C   0  0  0  0  0  0  0  0  0  0  0  0
    0.9541    0.7320   -2.3150 H   0  0  0  0  0  0  0  0  0  0  0  0
    3.2550   -0.0707    1.4531 H   0  0  0  0  0  0  0  0  0  0  0  0
    5.6399   -0.7973    1.3856 H   0  0  0  0  0  0  0  0  0  0  0  0
    6.5156   -2.0641   -0.5973 H   0  0  0  0  0  0  0  0  0  0  0  0
    4.9735   -2.5968   -2.5066 H   0  0  0  0  0  0  0  0  0  0  0  0
    2.5897   -1.8675   -2.4276 H   0  0  0  0  0  0  0  0  0  0  0  0
    1.8337    2.7464    0.7918 H   0  0  0  0  0  0  0  0  0  0  0  0
    3.9401    4.0402    0.9486 H   0  0  0  0  0  0  0  0  0  0  0  0
    5.6538    3.9000   -0.8838 H   0  0  0  0  0  0  0  0  0  0  0  0
    5.2103    2.4393   -2.8798 H   0  0  0  0  0  0  0  0  0  0  0  0
    3.0972    1.1236   -3.0174 H   0  0  0  0  0  0  0  0  0  0  0  0
    0.5582    3.3260   -2.4137 H   0  0  0  0  0  0  0  0  0  0  0  0
    0.0602    5.7577   -2.3942 H   0  0  0  0  0  0  0  0  0  0  0  0
   -1.2255    6.7722   -0.4900 H   0  0  0  0  0  0  0  0  0  0  0  0
   -2.0015    5.3048    1.3975 H   0  0  0  0  0  0  0  0  0  0  0  0
   -1.4979    2.8681    1.3736 H   0  0  0  0  0  0  0  0  0  0  0  0
   -2.2743    2.3098   -2.4095 H   0  0  0  0  0  0  0  0  0  0  0  0
   -4.6155    3.0966   -2.7188 H   0  0  0  0  0  0  0  0  0  0  0  0
   -6.4264    2.3030   -1.1688 H   0  0  0  0  0  0  0  0  0  0  0  0
   -5.8613    0.6884    0.6704 H   0  0  0  0  0  0  0  0  0  0  0  0
   -3.5314   -0.1228    0.9493 H   0  0  0  0  0  0  0  0  0  0  0  0
   -2.7846   -1.0136   -2.7453 H   0  0  0  0  0  0  0  0  0  0  0  0
   -4.6637   -2.6122   -3.1304 H   0  0  0  0  0  0  0  0  0  0  0  0
   -5.1981   -4.3618   -1.4110 H   0  0  0  0  0  0  0  0  0  0  0  0
   -3.8342   -4.4915    0.6929 H   0  0  0  0  0  0  0  0  0  0  0  0
   -1.9602   -2.8824    1.0714 H   0  0  0  0  0  0  0  0  0  0  0  0
   -0.5400   -3.1262   -2.4431 H   0  0  0  0  0  0  0  0  0  0  0  0
    0.0113   -5.5426   -2.6549 H   0  0  0  0  0  0  0  0  0  0  0  0
    1.4209   -6.6733   -0.9095 H   0  0  0  0  0  0  0  0  0  0  0  0
    2.2912   -5.3383    1.0323 H   0  0  0  0  0  0  0  0  0  0  0  0
    1.7671   -2.9181    1.2212 H   0  0  0  0  0  0  0  0  0  0  0  0
  1  7  1  6  0  0  0
  2 43  1  6  0  0  0
  2 13  1  0  0  0  0
  2  3  1  0  0  0  0
  2  1  1  0  0  0  0
  3 19  1  6  0  0  0
  4 25  1  6  0  0  0
  4  3  1  0  0  0  0
  5 31  1  6  0  0  0
  5  4  1  0  0  0  0
  5  6  1  0  0  0  0
  6 37  1  6  0  0  0
  6  1  1  0  0  0  0
  7  8  1  0  0  0  0
  8 44  1  0  0  0  0
  9  8  2  0  0  0  0
  9 45  1  0  0  0  0
 10  9  1  0  0  0  0
 11 12  1  0  0  0  0
 11 10  2  0  0  0  0
 12  7  2  0  0  0  0
 13 14  1  0  0  0  0
 14 15  2  0  0  0  0
 14 49  1  0  0  0  0
 15 50  1  0  0  0  0
 16 51  1  0  0  0  0
 16 15  1  0  0  0  0
 17 16  2  0  0  0  0
 18 17  1  0  0  0  0
 18 13  2  0  0  0  0
 19 24  1  0  0  0  0
 20 21  1  0  0  0  0
 20 19  2  0  0  0  0
 21 22  2  0  0  0  0
 22 56  1  0  0  0  0
 22 23  1  0  0  0  0
 23 57  1  0  0  0  0
 24 23  2  0  0  0  0
 24 58  1  0  0  0  0
 25 30  1  0  0  0  0
 26 25  2  0  0  0  0
 27 26  1  0  0  0  0
 27 28  2  0  0  0  0
 28 29  1  0  0  0  0
 29 30  2  0  0  0  0
 29 62  1  0  0  0  0
 30 63  1  0  0  0  0
 31 36  1  0  0  0  0
 32 31  2  0  0  0  0
 33 32  1  0  0  0  0
 33 34  2  0  0  0  0
 34 35  1  0  0  0  0
 35 36  2  0  0  0  0
 35 67  1  0  0  0  0
 36 68  1  0  0  0  0
 37 42  1  0  0  0  0
 38 37  2  0  0  0  0
 39 38  1  0  0  0  0
 39 40  2  0  0  0  0
 40 41  1  0  0  0  0
 41 42  2  0  0  0  0
 41 72  1  0  0  0  0
 42 73  1  0  0  0  0
 46 10  1  0  0  0  0
 47 11  1  0  0  0  0
 48 12  1  0  0  0  0
 52 17  1  0  0  0  0
 53 18  1  0  0  0  0
 54 20  1  0  0  0  0
 55 21  1  0  0  0  0
 59 26  1  0  0  0  0
 60 27  1  0  0  0  0
 61 28  1  0  0  0  0
 64 32  1  0  0  0  0
 65 33  1  0  0  0  0
 66 34  1  0  0  0  0
 69 38  1  0  0  0  0
 70 39  1  0  0  0  0
 71 40  1  0  0  0  0
M  END
