4
q = 0.0, confidence = 0.996

 40 42  0  0  0  0  0  0  0  0999 V2000
    0.7206    2.3823   -0.1580 O   0  0  0  0  0  0  0  0  0  0  0  0
   -3.5135   -2.9716   -1.6527 O   0  0  0  0  0  0  0  0  0  0  0  0
   -1.9476   -1.3997    0.1154 N   0  0  0  0  0  0  0  0  0  0  0  0
    0.4874    1.0638    0.2029 C   0  0  0  0  0  2  0  0  0  0  0  0
   -0.2212    3.3253   -0.3425 C   0  0  0  0  0  0  0  0  0  0  0  0
   -1.5479    3.0072   -0.1771 C   0  0  0  0  0  0  0  0  0  0  0  0
   -1.9090    1.6969    0.2560 C   0  0  0  0  0  0  0  0  0  0  0  0
   -0.8793    0.7592    0.4904 C   0  0  0  0  0  0  0  0  0  0  0  0
   -3.3532    1.3771    0.3845 C   0  0  0  0  0  0  0  0  0  0  0  0
   -4.2293    1.7418   -0.6635 C   0  0  0  0  0  0  0  0  0  0  0  0
   -5.5944    1.4302   -0.5962 C   0  0  0  0  0  0  0  0  0  0  0  0
   -6.1099    0.7740    0.5322 C   0  0  0  0  0  0  0  0  0  0  0  0
   -5.2514    0.4319    1.5909 C   0  0  0  0  0  0  0  0  0  0  0  0
   -3.8841    0.7236    1.5188 C   0  0  0  0  0  0  0  0  0  0  0  0
   -1.2151   -0.6123    0.9920 C   0  0  0  0  0  0  0  0  0  0  0  0
   -1.7403   -1.3394   -1.3303 C   0  0  0  0  0  0  0  0  0  0  0  0
   -3.0318   -1.7015   -2.0600 C   0  0  0  0  0  0  0  0  0  0  0  0
   -3.7801   -2.9701   -0.2613 C   0  0  0  0  0  0  0  0  0  0  0  0
   -2.5332   -2.6521    0.5685 C   0  0  0  0  0  0  0  0  0  0  0  0
   -0.8908   -0.9396    2.2753 C   0  0  0  0  0  0  0  0  0  0  0  0
    0.3462    4.6495   -0.7235 C   0  0  0  0  0  0  0  0  0  0  0  0
   -2.3165    3.7754   -0.3349 H   0  0  0  0  0  0  0  0  0  0  0  0
   -3.8264    2.2417   -1.5578 H   0  0  0  0  0  0  0  0  0  0  0  0
   -6.2581    1.6999   -1.4313 H   0  0  0  0  0  0  0  0  0  0  0  0
   -7.1820    0.5326    0.5890 H   0  0  0  0  0  0  0  0  0  0  0  0
   -5.6521   -0.0712    2.4840 H   0  0  0  0  0  0  0  0  0  0  0  0
   -3.2114    0.4422    2.3409 H   0  0  0  0  0  0  0  0  0  0  0  0
   -1.4081   -0.3246   -1.6209 H   0  0  0  0  0  0  0  0  0  0  0  0
   -0.9367   -2.0507   -1.6369 H   0  0  0  0  0  0  0  0  0  0  0  0
   -2.8498   -1.7580   -3.1519 H   0  0  0  0  0  0  0  0  0  0  0  0
   -3.8013   -0.9131   -1.8647 H   0  0  0  0  0  0  0  0  0  0  0  0
   -4.5731   -2.2178   -0.0208 H   0  0  0  0  0  0  0  0  0  0  0  0
   -4.1606   -3.9786   -0.0025 H   0  0  0  0  0  0  0  0  0  0  0  0
   -1.7937   -3.4849    0.4998 H   0  0  0  0  0  0  0  0  0  0  0  0
   -2.8250   -2.5436    1.6323 H   0  0  0  0  0  0  0  0  0  0  0  0
   -1.0654   -1.9392    2.6947 H   0  0  0  0  0  0  0  0  0  0  0  0
   -0.4061   -0.1930    2.9164 H   0  0  0  0  0  0  0  0  0  0  0  0
   -0.4530    5.3970   -0.8737 H   0  0  0  0  0  0  0  0  0  0  0  0
    0.9425    4.5581   -1.6545 H   0  0  0  0  0  0  0  0  0  0  0  0
    1.0391    5.0104    0.0645 H   0  0  0  0  0  0  0  0  0  0  0  0
  1  4  1  0  0  0  0
  2 18  1  0  0  0  0
  3 19  1  0  0  0  0
  3 15  1  0  0  0  0
  4  8  1  0  0  0  0
  5  6  2  0  0  0  0
  5  1  1  0  0  0  0
  6  7  1  0  0  0  0
  7  9  1  0  0  0  0
  7  8  2  0  0  0  0
  8 15  1  0  0  0  0
  9 14  1  0  0  0  0
 10 11  1  0  0  0  0
 10  9  2  0  0  0  0
 11 12  2  0  0  0  0
 12 25  1  0  0  0  0
 12 13  1  0  0  0  0
 13 26  1  0  0  0  0
 14 13  2  0  0  0  0
 14 27  1  0  0  0  0
 15 20  2  0  0  0  0
 16  3  1  0  0  0  0
 17 31  1  0  0  0  0
 17  2  1  0  0  0  0
 17 16  1  0  0  0  0
 18 32  1  0  0  0  0
 18 33  1  0  0  0  0
 18 19  1  0  0  0  0
 19 35  1  0  0  0  0
 20 36  1  0  0  0  0
 20 37  1  0  0  0  0
 21  5  1  0  0  0  0
 21 40  1  0  0  0  0
 22  6  1  0  0  0  0
 23 10  1  0  0  0  0
 24 11  1  0  0  0  0
 28 16  1  0  0  0  0
 29 16  1  0  0  0  0
 30 17  1  0  0  0  0
 34 19  1  0  0  0  0
 38 21  1  0  0  0  0
 39 21  1  0  0  0  0
M  END
