3
q = nan, confidence = 0.0

 16 15  0  0  0  0  0  0  0  0999 V2000
    1.6662   -0.4773   -2.9765 Cl  0  0  0  0  0  0  0  0  0  0  0  0
    2.2718   -2.9402   -1.1762 Si  0  0  0  0  0  0  0  0  0  0  0  0
    1.7805   -1.0873   -1.2512 C   0  0  0  0  0  3  0  0  0  0  0  0
    1.7158   -3.9205   -2.6886 C   0  0  0  0  0  0  0  0  0  0  0  0
    1.6002   -3.7103    0.4219 C   0  0  0  0  0  0  0  0  0  0  0  0
    4.1733   -2.9471   -1.0976 C   0  0  0  0  0  0  0  0  0  0  0  0
    2.6565   -0.5359   -0.8621 H   0  0  0  0  0  0  0  0  0  0  0  0
    2.1457   -4.9436   -2.6716 H   0  0  0  0  0  0  0  0  0  0  0  0
    0.6111   -3.9849   -2.7115 H   0  0  0  0  0  0  0  0  0  0  0  0
    2.0476   -3.4119   -3.6157 H   0  0  0  0  0  0  0  0  0  0  0  0
    2.0217   -4.7238    0.5867 H   0  0  0  0  0  0  0  0  0  0  0  0
    1.8557   -3.0809    1.2989 H   0  0  0  0  0  0  0  0  0  0  0  0
    0.4965   -3.7860    0.3578 H   0  0  0  0  0  0  0  0  0  0  0  0
    4.5792   -3.9797   -1.0634 H   0  0  0  0  0  0  0  0  0  0  0  0
    4.5971   -2.4431   -1.9911 H   0  0  0  0  0  0  0  0  0  0  0  0
    4.5355   -2.4052   -0.1990 H   0  0  0  0  0  0  0  0  0  0  0  0
  1  3  1  0  0  0  0
  2  6  1  0  0  0  0
  2  5  1  0  0  0  0
  3  2  1  0  0  0  0
  3  7  1  0  0  0  0
  4  8  1  0  0  0  0
  4  2  1  0  0  0  0
  5 11  1  0  0  0  0
  5 12  1  0  0  0  0
  6 14  1  0  0  0  0
  6 16  1  0  0  0  0
  9  4  1  0  0  0  0
 10  4  1  0  0  0  0
 13  5  1  0  0  0  0
 15  6  1  0  0  0  0
M  END
