2
q = -1.0

 12 12  0  0  0  0  0  0  0  0999 V2000
    6.2301    0.1325   -0.0271 I   0  0  0  0  0  0  0  0  0  0  0  0
   -0.1439   -0.0603    0.0567 C   0  0  0  0  0  1  0  0  0  0  0  0
    1.2877   -0.0153    0.0426 C   0  0  0  0  0  0  0  0  0  0  0  0
    2.0554   -1.2125    0.0169 C   0  0  0  0  0  0  0  0  0  0  0  0
    3.4524   -1.1737   -0.0022 C   0  0  0  0  0  0  0  0  0  0  0  0
    4.1115    0.0695    0.0031 C   0  0  0  0  0  0  0  0  0  0  0  0
    3.3823    1.2711    0.0277 C   0  0  0  0  0  0  0  0  0  0  0  0
    1.9842    1.2238    0.0473 C   0  0  0  0  0  0  0  0  0  0  0  0
    1.5317   -2.1799    0.0104 H   0  0  0  0  0  0  0  0  0  0  0  0
    4.0290   -2.1095   -0.0218 H   0  0  0  0  0  0  0  0  0  0  0  0
    3.9034    2.2390    0.0315 H   0  0  0  0  0  0  0  0  0  0  0  0
    1.4100    2.1631    0.0653 H   0  0  0  0  0  0  0  0  0  0  0  0
  1  6  1  0  0  0  0
  3  8  1  0  0  0  0
  3  2  1  0  0  0  0
  4  3  2  0  0  0  0
  5  6  2  0  0  0  0
  5  4  1  0  0  0  0
  6  7  1  0  0  0  0
  7 11  1  0  0  0  0
  7  8  2  0  0  0  0
  8 12  1  0  0  0  0
  9  4  1  0  0  0  0
 10  5  1  0  0  0  0
M  END
