2
q = -1.0, confidence = 0.07

 26 27  0  0  0  0  0  0  0  0999 V2000
   12.1341   -0.9146    0.0546 O   0  0  0  0  0  0  0  0  0  0  0  0
   -1.2292    0.0012   -0.1924 C   0  0  0  0  0  1  0  0  0  0  0  0
    0.2001    0.0050   -0.1794 C   0  0  0  0  0  0  0  0  0  0  0  0
    0.9468   -1.2021   -0.2983 C   0  0  0  0  0  0  0  0  0  0  0  0
    2.3383   -1.1928   -0.2571 C   0  0  0  0  0  0  0  0  0  0  0  0
    3.0527    0.0266   -0.0949 C   0  0  0  0  0  0  0  0  0  0  0  0
    2.3109    1.2355    0.0196 C   0  0  0  0  0  0  0  0  0  0  0  0
    0.9199    1.2252   -0.0215 C   0  0  0  0  0  0  0  0  0  0  0  0
    4.4704    0.0372   -0.0517 C   0  0  0  0  0  0  0  0  0  0  0  0
    5.7042    0.0477   -0.0149 C   0  0  0  0  0  0  0  0  0  0  0  0
    7.1228    0.0579    0.0260 C   0  0  0  0  0  0  0  0  0  0  0  0
    7.8597   -1.1558   -0.0971 C   0  0  0  0  0  0  0  0  0  0  0  0
    9.2507   -1.1431   -0.0564 C   0  0  0  0  0  0  0  0  0  0  0  0
    9.9503    0.0738    0.1074 C   0  0  0  0  0  0  0  0  0  0  0  0
    9.2280    1.2793    0.2293 C   0  0  0  0  0  0  0  0  0  0  0  0
    7.8333    1.2787    0.1901 C   0  0  0  0  0  0  0  0  0  0  0  0
   11.4316    0.0792    0.1503 C   0  0  0  0  0  0  0  0  0  0  0  0
    0.4065   -2.1509   -0.4315 H   0  0  0  0  0  0  0  0  0  0  0  0
    2.9031   -2.1313   -0.3534 H   0  0  0  0  0  0  0  0  0  0  0  0
    2.8544    2.1841    0.1383 H   0  0  0  0  0  0  0  0  0  0  0  0
    0.3557    2.1658    0.0603 H   0  0  0  0  0  0  0  0  0  0  0  0
    7.3098   -2.0994   -0.2251 H   0  0  0  0  0  0  0  0  0  0  0  0
    9.8394   -2.0684   -0.1497 H   0  0  0  0  0  0  0  0  0  0  0  0
    9.7773    2.2265    0.3563 H   0  0  0  0  0  0  0  0  0  0  0  0
    7.2673    2.2164    0.2844 H   0  0  0  0  0  0  0  0  0  0  0  0
   11.8860    1.1085    0.2834 H   0  0  0  0  0  0  0  0  0  0  0  0
  1 17  2  0  0  0  0
  2  3  1  0  0  0  0
  3  8  1  0  0  0  0
  4  5  1  0  0  0  0
  4  3  2  0  0  0  0
  5  6  2  0  0  0  0
  6  9  1  0  0  0  0
  6  7  1  0  0  0  0
  7 20  1  0  0  0  0
  8  7  2  0  0  0  0
  8 21  1  0  0  0  0
  9 10  3  0  0  0  0
 10 11  1  0  0  0  0
 11 16  1  0  0  0  0
 12 13  1  0  0  0  0
 12 11  2  0  0  0  0
 13 14  2  0  0  0  0
 14 17  1  0  0  0  0
 14 15  1  0  0  0  0
 15 24  1  0  0  0  0
 16 15  2  0  0  0  0
 16 25  1  0  0  0  0
 17 26  1  0  0  0  0
 18  4  1  0  0  0  0
 19  5  1  0  0  0  0
 22 12  1  0  0  0  0
 23 13  1  0  0  0  0
M  END
