2
q = -1.0, confidence = 0.0

 19 19  0  0  0  0  0  0  0  0999 V2000
   -1.1202   -2.9566   -1.6118 S   0  0  0  0  0  0  0  0  0  0  0  0
   -1.3329   -1.2345   -1.2177 C   0  0  0  0  0  2  0  0  0  0  0  0
   -2.6117   -0.7650   -1.2958 C   0  0  0  0  0  3  0  0  0  0  0  0
    0.5831   -3.0620   -2.2458 C   0  0  0  0  0  0  0  0  0  0  0  0
    0.7295   -4.1163   -2.5510 H   0  0  0  0  0  0  0  0  0  0  0  0
    1.3229   -2.7908   -1.4661 H   0  0  0  0  0  0  0  0  0  0  0  0
    0.7173   -2.3842   -3.1092 H   0  0  0  0  0  0  0  0  0  0  0  0
   -3.0793    0.5564   -0.8510 C   0  0  0  0  0  0  0  0  0  0  0  0
   -2.3380    1.7421   -1.0858 C   0  0  0  0  0  0  0  0  0  0  0  0
   -1.4049    1.6739   -1.6658 H   0  0  0  0  0  0  0  0  0  0  0  0
   -2.8074    2.9829   -0.6344 C   0  0  0  0  0  0  0  0  0  0  0  0
   -2.2229    3.8927   -0.8445 H   0  0  0  0  0  0  0  0  0  0  0  0
   -4.0227    3.0788    0.0657 C   0  0  0  0  0  0  0  0  0  0  0  0
   -4.3863    4.0554    0.4201 H   0  0  0  0  0  0  0  0  0  0  0  0
   -4.7813    1.9172    0.2852 C   0  0  0  0  0  0  0  0  0  0  0  0
   -5.7440    1.9793    0.8164 H   0  0  0  0  0  0  0  0  0  0  0  0
   -4.3212    0.6758   -0.1784 C   0  0  0  0  0  0  0  0  0  0  0  0
   -4.9268   -0.2299   -0.0120 H   0  0  0  0  0  0  0  0  0  0  0  0
   -3.4024   -1.4497   -1.6615 H   0  0  0  0  0  0  0  0  0  0  0  0
  1  2  1  0  0  0  0
  3  2  1  0  0  0  0
  3  8  1  0  0  0  0
  4  1  1  0  0  0  0
  4  6  1  0  0  0  0
  5  4  1  0  0  0  0
  7  4  1  0  0  0  0
  8 17  1  0  0  0  0
  9  8  2  0  0  0  0
  9 11  1  0  0  0  0
 10  9  1  0  0  0  0
 11 13  2  0  0  0  0
 12 11  1  0  0  0  0
 13 15  1  0  0  0  0
 13 14  1  0  0  0  0
 15 16  1  0  0  0  0
 17 18  1  0  0  0  0
 17 15  2  0  0  0  0
 19  3  1  0  0  0  0
M  END
