1
q = -1.0

 37 39  0  0  0  0  0  0  0  0999 V2000
    0.0000    1.2164   -0.3833 C   0  0  0  0  0  3  0  0  0  0  0  0
   -1.2248    1.9412   -0.3932 C   0  0  0  0  0  0  0  0  0  0  0  0
   -1.2150    3.3502   -0.3666 C   0  0  0  0  0  0  0  0  0  0  0  0
   -2.1717    3.8952   -0.3705 H   0  0  0  0  0  0  0  0  0  0  0  0
    0.0000    4.0495   -0.3495 C   0  0  0  0  0  0  0  0  0  0  0  0
    0.0000    5.1502   -0.3342 H   0  0  0  0  0  0  0  0  0  0  0  0
    1.2151    3.3502   -0.3666 C   0  0  0  0  0  0  0  0  0  0  0  0
    2.1718    3.8952   -0.3705 H   0  0  0  0  0  0  0  0  0  0  0  0
    1.2248    1.9412   -0.3932 C   0  0  0  0  0  0  0  0  0  0  0  0
   -2.5216    1.2099   -0.3787 C   0  0  0  0  0  0  0  0  0  0  0  0
   -2.8455    0.2947   -1.4033 C   0  0  0  0  0  0  0  0  0  0  0  0
   -2.1387    0.1427   -2.2316 H   0  0  0  0  0  0  0  0  0  0  0  0
   -4.0604   -0.4042   -1.3810 C   0  0  0  0  0  0  0  0  0  0  0  0
   -4.2922   -1.1094   -2.1948 H   0  0  0  0  0  0  0  0  0  0  0  0
   -4.9872   -0.2247   -0.3362 C   0  0  0  0  0  0  0  0  0  0  0  0
   -4.6650    0.7030    0.6790 C   0  0  0  0  0  0  0  0  0  0  0  0
   -5.3747    0.8650    1.5061 H   0  0  0  0  0  0  0  0  0  0  0  0
   -3.4602    1.4143    0.6572 C   0  0  0  0  0  0  0  0  0  0  0  0
   -3.2199    2.1202    1.4668 H   0  0  0  0  0  0  0  0  0  0  0  0
   -6.2674   -1.0182   -0.2817 C   0  0  0  0  0  0  0  0  0  0  0  0
   -6.1455   -1.9194    0.3575 H   0  0  0  0  0  0  0  0  0  0  0  0
   -6.5747   -1.3689   -1.2862 H   0  0  0  0  0  0  0  0  0  0  0  0
   -7.0988   -0.4258    0.1496 H   0  0  0  0  0  0  0  0  0  0  0  0
    2.5217    1.2098   -0.3786 C   0  0  0  0  0  0  0  0  0  0  0  0
    3.4602    1.4143    0.6572 C   0  0  0  0  0  0  0  0  0  0  0  0
    3.2199    2.1202    1.4668 H   0  0  0  0  0  0  0  0  0  0  0  0
    4.6650    0.7030    0.6791 C   0  0  0  0  0  0  0  0  0  0  0  0
    5.3747    0.8650    1.5061 H   0  0  0  0  0  0  0  0  0  0  0  0
    4.9872   -0.2247   -0.3361 C   0  0  0  0  0  0  0  0  0  0  0  0
    4.0605   -0.4042   -1.3809 C   0  0  0  0  0  0  0  0  0  0  0  0
    4.2922   -1.1095   -2.1948 H   0  0  0  0  0  0  0  0  0  0  0  0
    2.8455    0.2947   -1.4033 C   0  0  0  0  0  0  0  0  0  0  0  0
    2.1388    0.1427   -2.2316 H   0  0  0  0  0  0  0  0  0  0  0  0
    6.2675   -1.0182   -0.2817 C   0  0  0  0  0  0  0  0  0  0  0  0
    7.0988   -0.4257    0.1494 H   0  0  0  0  0  0  0  0  0  0  0  0
    6.5746   -1.3691   -1.2862 H   0  0  0  0  0  0  0  0  0  0  0  0
    6.1457   -1.9193    0.3577 H   0  0  0  0  0  0  0  0  0  0  0  0
  2  1  2  0  0  0  0
  2 10  1  0  0  0  0
  2  3  1  0  0  0  0
  3  5  2  0  0  0  0
  4  3  1  0  0  0  0
  5  6  1  0  0  0  0
  7  5  1  0  0  0  0
  8  7  1  0  0  0  0
  9  1  1  0  0  0  0
  9 24  1  0  0  0  0
  9  7  2  0  0  0  0
 10 18  1  0  0  0  0
 11 13  1  0  0  0  0
 11 10  2  0  0  0  0
 12 11  1  0  0  0  0
 13 15  2  0  0  0  0
 14 13  1  0  0  0  0
 15 20  1  0  0  0  0
 15 16  1  0  0  0  0
 16 17  1  0  0  0  0
 18 16  2  0  0  0  0
 18 19  1  0  0  0  0
 20 23  1  0  0  0  0
 20 21  1  0  0  0  0
 22 20  1  0  0  0  0
 24 25  1  0  0  0  0
 25 27  2  0  0  0  0
 25 26  1  0  0  0  0
 27 28  1  0  0  0  0
 29 34  1  0  0  0  0
 29 27  1  0  0  0  0
 30 29  2  0  0  0  0
 31 30  1  0  0  0  0
 32 30  1  0  0  0  0
 32 24  2  0  0  0  0
 33 32  1  0  0  0  0
 34 35  1  0  0  0  0
 34 37  1  0  0  0  0
 36 34  1  0  0  0  0
M  END
