1
q = -1.0

 16 16  0  0  0  0  0  0  0  0999 V2000
   -2.0394    0.0021   -0.7145 C   0  0  0  0  0  3  0  0  0  0  0  0
   -3.2575    0.0033   -0.4650 C   0  0  0  0  0  0  0  0  0  0  0  0
   -4.6511    0.0044   -0.1624 C   0  0  0  0  0  0  0  0  0  0  0  0
   -5.6313   -0.0021   -1.1926 C   0  0  0  0  0  0  0  0  0  0  0  0
   -5.2933   -0.0073   -2.2394 H   0  0  0  0  0  0  0  0  0  0  0  0
   -6.9958   -0.0001   -0.8917 C   0  0  0  0  0  0  0  0  0  0  0  0
   -7.7290   -0.0040   -1.7153 H   0  0  0  0  0  0  0  0  0  0  0  0
   -7.4580    0.0078    0.4425 C   0  0  0  0  0  0  0  0  0  0  0  0
   -6.4891    0.0158    1.4660 C   0  0  0  0  0  0  0  0  0  0  0  0
   -6.8198    0.0244    2.5177 H   0  0  0  0  0  0  0  0  0  0  0  0
   -5.1194    0.0139    1.1778 C   0  0  0  0  0  0  0  0  0  0  0  0
   -4.3816    0.0212    1.9938 H   0  0  0  0  0  0  0  0  0  0  0  0
   -8.9344   -0.0032    0.7510 C   0  0  0  0  0  0  0  0  0  0  0  0
   -9.4699    0.8093    0.2164 H   0  0  0  0  0  0  0  0  0  0  0  0
   -9.1257    0.1214    1.8349 H   0  0  0  0  0  0  0  0  0  0  0  0
   -9.4093   -0.9575    0.4360 H   0  0  0  0  0  0  0  0  0  0  0  0
  1  2  3  0  0  0  0
  2  3  1  0  0  0  0
  3 11  1  0  0  0  0
  4  6  1  0  0  0  0
  4  3  2  0  0  0  0
  5  4  1  0  0  0  0
  6  8  2  0  0  0  0
  7  6  1  0  0  0  0
  8 13  1  0  0  0  0
  8  9  1  0  0  0  0
  9 10  1  0  0  0  0
 11  9  2  0  0  0  0
 11 12  1  0  0  0  0
 13 15  1  0  0  0  0
 14 13  1  0  0  0  0
 16 13  1  0  0  0  0
M  END
