3
q = -1.0, confidence = 0.004

 13 12  0  0  0  0  0  0  0  0999 V2000
   -3.7211   -0.0004    2.3347 C   0  0  0  0  0  0  0  0  0  0  0  0
   -2.3020   -0.0003    1.8462 C   0  0  0  0  0  0  0  0  0  0  0  0
   -1.9080   -0.0001    0.5380 C   0  0  0  0  0  3  0  0  0  0  0  0
   -2.8708   -0.0000   -0.5128 C   0  0  0  0  0  0  0  0  0  0  0  0
   -3.6637    0.0001   -1.4586 C   0  0  0  0  0  0  0  0  0  0  0  0
   -4.5964    0.0002   -2.5776 C   0  0  0  0  0  0  0  0  0  0  0  0
   -3.9286    0.8855    2.9763 H   0  0  0  0  0  0  0  0  0  0  0  0
   -4.4471    0.0001    1.4972 H   0  0  0  0  0  0  0  0  0  0  0  0
   -3.9288   -0.8871    2.9752 H   0  0  0  0  0  0  0  0  0  0  0  0
   -1.5042   -0.0003    2.6112 H   0  0  0  0  0  0  0  0  0  0  0  0
   -5.2616   -0.8907   -2.5618 H   0  0  0  0  0  0  0  0  0  0  0  0
   -4.0716   -0.0016   -3.5579 H   0  0  0  0  0  0  0  0  0  0  0  0
   -5.2589    0.8932   -2.5637 H   0  0  0  0  0  0  0  0  0  0  0  0
  1  9  1  0  0  0  0
  1  7  1  0  0  0  0
  2  1  1  0  0  0  0
  2 10  1  0  0  0  0
  3  2  2  0  0  0  0
  4  3  1  0  0  0  0
  5  4  3  0  0  0  0
  6 13  1  0  0  0  0
  6 11  1  0  0  0  0
  6  5  1  0  0  0  0
  8  1  1  0  0  0  0
 12  6  1  0  0  0  0
M  END
