7
q = -1.0

 35 36  0  0  0  0  0  0  0  0999 V2000
    1.6364    1.7180   -0.4789 O   0  0  0  0  0  0  0  0  0  0  0  0
    1.1095    0.8725    1.5578 O   0  0  0  0  0  0  0  0  0  0  0  0
    3.5149   -0.8107    0.3605 O   0  0  0  0  0  0  0  0  0  0  0  0
    3.0898   -1.5434   -1.7419 O   0  0  0  0  0  0  0  0  0  0  0  0
   -0.8201   -1.7306   -0.0000 C   0  0  0  0  0  0  0  0  0  0  0  0
   -2.0964   -2.3179    0.3022 C   0  0  0  0  0  3  0  0  0  0  0  0
   -2.9651   -2.0017   -0.7977 C   0  0  0  0  0  3  0  0  0  0  0  0
   -2.2417   -1.2265   -1.7729 C   0  0  0  0  0  3  0  0  0  0  0  0
   -0.9118   -1.0701   -1.2615 C   0  0  0  0  0  0  0  0  0  0  0  0
    0.4216   -0.5399   -1.6914 C   0  0  0  0  0  0  0  0  0  0  0  0
    1.2708   -0.6243   -0.3833 C   0  0  0  0  0  0  0  0  0  0  0  0
    0.5827   -1.6972    0.5331 C   0  0  0  0  0  0  0  0  0  0  0  0
    1.3125    0.7220    0.3699 C   0  0  0  0  0  0  0  0  0  0  0  0
    2.7154   -1.0404   -0.7006 C   0  0  0  0  0  0  0  0  0  0  0  0
    1.6997    3.0505    0.0845 C   0  0  0  0  0  0  0  0  0  0  0  0
    1.6807    4.0404   -1.0601 C   0  0  0  0  0  0  0  0  0  0  0  0
    4.9029   -1.1923    0.2145 C   0  0  0  0  0  0  0  0  0  0  0  0
    5.6280   -0.7901    1.4809 C   0  0  0  0  0  0  0  0  0  0  0  0
   -2.3688   -2.8968    1.1919 H   0  0  0  0  0  0  0  0  0  0  0  0
   -4.0194   -2.2956   -0.8769 H   0  0  0  0  0  0  0  0  0  0  0  0
   -2.6415   -0.8433   -2.7181 H   0  0  0  0  0  0  0  0  0  0  0  0
    0.4124    0.4822   -2.1110 H   0  0  0  0  0  0  0  0  0  0  0  0
    0.8785   -1.2118   -2.4482 H   0  0  0  0  0  0  0  0  0  0  0  0
    1.0586   -2.6922    0.3999 H   0  0  0  0  0  0  0  0  0  0  0  0
    0.6755   -1.4021    1.5951 H   0  0  0  0  0  0  0  0  0  0  0  0
    2.6250    3.1230    0.6957 H   0  0  0  0  0  0  0  0  0  0  0  0
    0.8392    3.1822    0.7704 H   0  0  0  0  0  0  0  0  0  0  0  0
    1.7630    5.0728   -0.6662 H   0  0  0  0  0  0  0  0  0  0  0  0
    2.5247    3.8668   -1.7570 H   0  0  0  0  0  0  0  0  0  0  0  0
    0.7308    3.9584   -1.6233 H   0  0  0  0  0  0  0  0  0  0  0  0
    5.3135   -0.6940   -0.6886 H   0  0  0  0  0  0  0  0  0  0  0  0
    4.9508   -2.2861    0.0276 H   0  0  0  0  0  0  0  0  0  0  0  0
    6.6976   -1.0697    1.4092 H   0  0  0  0  0  0  0  0  0  0  0  0
    5.5646    0.3039    1.6440 H   0  0  0  0  0  0  0  0  0  0  0  0
    5.1943   -1.2962    2.3657 H   0  0  0  0  0  0  0  0  0  0  0  0
  1 15  1  0  0  0  0
  1 13  1  0  0  0  0
  4 14  2  0  0  0  0
  5  6  1  0  0  0  0
  5 12  1  0  0  0  0
  6 19  1  0  0  0  0
  7  6  1  0  0  0  0
  8  9  1  0  0  0  0
  8  7  1  0  0  0  0
  9  5  2  0  0  0  0
 10  9  1  0  0  0  0
 10 11  1  0  0  0  0
 11 13  1  0  0  0  0
 11 12  1  0  0  0  0
 12 25  1  0  0  0  0
 13  2  2  0  0  0  0
 14 11  1  0  0  0  0
 14  3  1  0  0  0  0
 15 26  1  0  0  0  0
 15 27  1  0  0  0  0
 16 28  1  0  0  0  0
 16 15  1  0  0  0  0
 17  3  1  0  0  0  0
 17 18  1  0  0  0  0
 18 34  1  0  0  0  0
 18 35  1  0  0  0  0
 20  7  1  0  0  0  0
 21  8  1  0  0  0  0
 22 10  1  0  0  0  0
 23 10  1  0  0  0  0
 24 12  1  0  0  0  0
 29 16  1  0  0  0  0
 30 16  1  0  0  0  0
 31 17  1  0  0  0  0
 32 17  1  0  0  0  0
 33 18  1  0  0  0  0
M  END
