2
q = -1.0, confidence = 0.0

 26 27  0  0  1  0  0  0  0  0999 V2000
    1.4804    2.0491    0.0519 C   0  0  0  0  0  0  0  0  0  0  0  0
    0.8696    1.7848    1.3171 C   0  0  1  0  0  3  0  0  0  0  0  0
    1.4350    0.5531    1.7880 C   0  0  0  0  0  0  0  0  0  0  0  0
    2.3594    0.0585    0.8205 C   0  0  0  0  0  0  0  0  0  0  0  0
    3.2513   -1.1455    0.9502 C   0  0  0  0  0  0  0  0  0  0  0  0
    4.7513   -0.7931    0.9100 C   0  0  0  0  0  0  0  0  0  0  0  0
    5.2972   -0.4036   -0.4725 C   0  0  0  0  0  0  0  0  0  0  0  0
    4.7932    0.9166   -1.0750 C   0  0  0  0  0  0  0  0  0  0  0  0
    3.3011    0.9365   -1.4573 C   0  0  0  0  0  0  0  0  0  0  0  0
    2.3875    1.0004   -0.2671 C   0  0  0  0  0  0  0  0  0  0  0  0
   -0.0607    2.7064    2.0529 C   0  0  0  0  0  0  0  0  0  0  0  0
    1.2698    2.9158   -0.5856 H   0  0  0  0  0  0  0  0  0  0  0  0
    1.2280    0.0852    2.7584 H   0  0  0  0  0  0  0  0  0  0  0  0
    3.0313   -1.8664    0.1326 H   0  0  0  0  0  0  0  0  0  0  0  0
    3.0173   -1.6639    1.9019 H   0  0  0  0  0  0  0  0  0  0  0  0
    4.9584    0.0205    1.6401 H   0  0  0  0  0  0  0  0  0  0  0  0
    5.3188   -1.6793    1.2662 H   0  0  0  0  0  0  0  0  0  0  0  0
    6.4050   -0.3519   -0.4028 H   0  0  0  0  0  0  0  0  0  0  0  0
    5.0773   -1.2287   -1.1874 H   0  0  0  0  0  0  0  0  0  0  0  0
    5.0089    1.7552   -0.3761 H   0  0  0  0  0  0  0  0  0  0  0  0
    5.3838    1.1215   -1.9932 H   0  0  0  0  0  0  0  0  0  0  0  0
    3.0670    0.0297   -2.0568 H   0  0  0  0  0  0  0  0  0  0  0  0
    3.0905    1.8073   -2.1104 H   0  0  0  0  0  0  0  0  0  0  0  0
   -0.6298    2.1784    2.8420 H   0  0  0  0  0  0  0  0  0  0  0  0
    0.5106    3.5196    2.5492 H   0  0  0  0  0  0  0  0  0  0  0  0
   -0.7864    3.1855    1.3661 H   0  0  0  0  0  0  0  0  0  0  0  0
  1  2  1  0  0  0  0
  2  3  1  0  0  0  0
  2 11  1  1  0  0  0
  3 13  1  0  0  0  0
  4  5  1  0  0  0  0
  4  3  2  0  0  0  0
  5 15  1  0  0  0  0
  6  5  1  0  0  0  0
  6 17  1  0  0  0  0
  6 16  1  0  0  0  0
  7 18  1  0  0  0  0
  7  6  1  0  0  0  0
  8  7  1  0  0  0  0
  8 20  1  0  0  0  0
  9  8  1  0  0  0  0
  9 10  1  0  0  0  0
 10  1  2  0  0  0  0
 10  4  1  0  0  0  0
 11 25  1  0  0  0  0
 11 24  1  0  0  0  0
 12  1  1  0  0  0  0
 14  5  1  0  0  0  0
 19  7  1  0  0  0  0
 21  8  1  0  0  0  0
 22  9  1  0  0  0  0
 23  9  1  0  0  0  0
 26 11  1  0  0  0  0
M  END
