8
q = -1.0, confidence = 0.034

 29 30  0  0  0  0  0  0  0  0999 V2000
    1.4409   -1.5753   -0.4296 C   0  0  0  0  0  0  0  0  0  0  0  0
    2.5426   -2.0956    0.3361 C   0  0  0  0  0  0  0  0  0  0  0  0
    2.4405   -2.5452    1.3310 H   0  0  0  0  0  0  0  0  0  0  0  0
    3.7434   -1.9393   -0.4210 C   0  0  0  0  0  0  0  0  0  0  0  0
    4.7476   -2.2529   -0.1140 H   0  0  0  0  0  0  0  0  0  0  0  0
    3.3946   -1.3159   -1.6760 C   0  0  0  0  0  0  0  0  0  0  0  0
    4.0863   -1.0795   -2.4933 H   0  0  0  0  0  0  0  0  0  0  0  0
    1.9845   -1.0902   -1.6837 C   0  0  0  0  0  3  0  0  0  0  0  0
    1.4126   -0.6688   -2.5198 H   0  0  0  0  0  0  0  0  0  0  0  0
    0.0166   -1.6448    0.0310 C   0  0  0  0  0  0  0  0  0  0  0  0
   -2.1689   -0.4490   -0.3020 C   0  0  0  0  0  0  0  0  0  0  0  0
   -2.7247    0.7445   -0.8223 C   0  0  0  0  0  0  0  0  0  0  0  0
   -2.0717    1.4700   -1.3336 H   0  0  0  0  0  0  0  0  0  0  0  0
   -4.0837    1.0222   -0.6650 C   0  0  0  0  0  0  0  0  0  0  0  0
   -4.5207    1.9586   -1.0414 H   0  0  0  0  0  0  0  0  0  0  0  0
   -4.8972    0.1011    0.0145 C   0  0  0  0  0  0  0  0  0  0  0  0
   -4.3540   -1.0720    0.5608 C   0  0  0  0  0  0  0  0  0  0  0  0
   -5.0039   -1.7530    1.1301 H   0  0  0  0  0  0  0  0  0  0  0  0
   -2.9932   -1.3563    0.4041 C   0  0  0  0  0  0  0  0  0  0  0  0
   -2.5466   -2.2583    0.8377 H   0  0  0  0  0  0  0  0  0  0  0  0
   -0.8005   -0.6675   -0.5153 N   0  0  0  0  0  0  0  0  0  0  0  0
   -0.3252    0.0740   -1.0336 H   0  0  0  0  0  0  0  0  0  0  0  0
   -7.4141   -0.2891   -1.1360 N   0  0  0  0  0  0  0  0  0  0  0  0
   -7.3036   -1.3101   -1.1309 H   0  0  0  0  0  0  0  0  0  0  0  0
   -7.1147    0.1284   -2.0251 H   0  0  0  0  0  0  0  0  0  0  0  0
   -0.3548   -2.5073    0.8208 O   0  0  0  0  0  0  0  0  0  0  0  0
   -6.8494    1.8871    0.0073 O   0  0  0  0  0  0  0  0  0  0  0  0
   -7.1339   -0.3089    1.3702 O   0  0  0  0  0  0  0  0  0  0  0  0
   -6.6566    0.4378    0.1933 S   0  0  0  0  0  0  0  0  0  0  0  0
  1 10  1  0  0  0  0
  1  2  2  0  0  0  0
  2  3  1  0  0  0  0
  4  5  1  0  0  0  0
  4  2  1  0  0  0  0
  6  4  2  0  0  0  0
  7  6  1  0  0  0  0
  8  6  1  0  0  0  0
  8  1  1  0  0  0  0
  9  8  1  0  0  0  0
 10 26  2  0  0  0  0
 11 19  1  0  0  0  0
 12 14  1  0  0  0  0
 12 11  2  0  0  0  0
 13 12  1  0  0  0  0
 14 16  2  0  0  0  0
 15 14  1  0  0  0  0
 16 29  1  0  0  0  0
 16 17  1  0  0  0  0
 17 18  1  0  0  0  0
 19 17  2  0  0  0  0
 19 20  1  0  0  0  0
 21 11  1  0  0  0  0
 21 10  1  0  0  0  0
 22 21  1  0  0  0  0
 23 24  1  0  0  0  0
 23 29  1  0  0  0  0
 25 23  1  0  0  0  0
 27 29  2  0  0  0  0
 29 28  2  0  0  0  0
M  END
