5
q = -2.0, confidence = 0.656

 64 64  0  0  1  0  0  0  0  0999 V2000
    4.1374    3.4845   -0.7139 Si  0  0  0  0  0  0  0  0  0  0  0  0
   -3.9758    3.8972   -0.7164 Si  0  0  0  0  0  0  0  0  0  0  0  0
   -4.0914   -3.7807   -0.8435 Si  0  0  0  0  0  0  0  0  0  0  0  0
    4.1865   -3.4386   -0.7012 Si  0  0  0  0  0  0  0  0  0  0  0  0
    0.6515    0.7234   -0.1584 C   0  0  1  0  0  3  0  0  0  0  0  0
   -0.8347    0.7299   -0.2002 C   0  0  2  0  0  3  0  0  0  0  0  0
   -0.8353   -0.7452   -0.2831 C   0  0  0  0  0  0  0  0  0  0  0  0
    0.6356   -0.7593   -0.2418 C   0  0  0  0  0  0  0  0  0  0  0  0
    1.6795    1.6652   -0.3141 C   0  0  0  0  0  0  0  0  0  0  0  0
    2.6327    2.4358   -0.4795 C   0  0  0  0  0  0  0  0  0  0  0  0
   -1.8180    1.7173   -0.3747 C   0  0  0  0  0  0  0  0  0  0  0  0
   -2.6784    2.5896   -0.5398 C   0  0  0  0  0  0  0  0  0  0  0  0
   -1.8312   -1.7070   -0.5269 C   0  0  0  0  0  0  0  0  0  0  0  0
   -2.7219   -2.5392   -0.7286 C   0  0  0  0  0  0  0  0  0  0  0  0
    1.6553   -1.7016   -0.4520 C   0  0  0  0  0  0  0  0  0  0  0  0
    2.6243   -2.4500   -0.6211 C   0  0  0  0  0  0  0  0  0  0  0  0
    5.6336    2.3344   -0.5899 C   0  0  0  0  0  0  0  0  0  0  0  0
    4.1820    4.7968    0.6446 C   0  0  0  0  0  0  0  0  0  0  0  0
    4.0544    4.2964   -2.4182 C   0  0  0  0  0  0  0  0  0  0  0  0
   -5.6595    3.0825   -0.4484 C   0  0  0  0  0  0  0  0  0  0  0  0
   -3.8591    4.6358   -2.4516 C   0  0  0  0  0  0  0  0  0  0  0  0
   -3.6469    5.2159    0.5961 C   0  0  0  0  0  0  0  0  0  0  0  0
   -3.7605   -4.9290   -2.3059 C   0  0  0  0  0  0  0  0  0  0  0  0
   -5.7088   -2.8343   -1.0823 C   0  0  0  0  0  0  0  0  0  0  0  0
   -4.0980   -4.7360    0.7865 C   0  0  0  0  0  0  0  0  0  0  0  0
    5.5532   -2.2626   -1.2702 C   0  0  0  0  0  0  0  0  0  0  0  0
    4.5286   -4.0774    1.0440 C   0  0  0  0  0  0  0  0  0  0  0  0
    3.9695   -4.8653   -1.9190 C   0  0  0  0  0  0  0  0  0  0  0  0
    6.5777    2.8979   -0.7400 H   0  0  0  0  0  0  0  0  0  0  0  0
    5.6739    1.8501    0.4067 H   0  0  0  0  0  0  0  0  0  0  0  0
    5.5804    1.5346   -1.3562 H   0  0  0  0  0  0  0  0  0  0  0  0
    5.0813    5.4380    0.5368 H   0  0  0  0  0  0  0  0  0  0  0  0
    3.2861    5.4480    0.5956 H   0  0  0  0  0  0  0  0  0  0  0  0
    4.2097    4.3275    1.6485 H   0  0  0  0  0  0  0  0  0  0  0  0
    4.9519    4.9254   -2.5929 H   0  0  0  0  0  0  0  0  0  0  0  0
    4.0061    3.5320   -3.2196 H   0  0  0  0  0  0  0  0  0  0  0  0
    3.1579    4.9426   -2.5062 H   0  0  0  0  0  0  0  0  0  0  0  0
   -6.4739    3.8297   -0.5483 H   0  0  0  0  0  0  0  0  0  0  0  0
   -5.8336    2.2792   -1.1924 H   0  0  0  0  0  0  0  0  0  0  0  0
   -5.7246    2.6330    0.5629 H   0  0  0  0  0  0  0  0  0  0  0  0
   -4.6225    5.4298   -2.5872 H   0  0  0  0  0  0  0  0  0  0  0  0
   -2.8601    5.0841   -2.6250 H   0  0  0  0  0  0  0  0  0  0  0  0
   -4.0261    3.8600   -3.2256 H   0  0  0  0  0  0  0  0  0  0  0  0
   -4.4174    6.0133    0.5517 H   0  0  0  0  0  0  0  0  0  0  0  0
   -3.6622    4.7730    1.6122 H   0  0  0  0  0  0  0  0  0  0  0  0
   -2.6540    5.6848    0.4438 H   0  0  0  0  0  0  0  0  0  0  0  0
   -4.5603   -5.6941   -2.3859 H   0  0  0  0  0  0  0  0  0  0  0  0
   -3.7289   -4.3620   -3.2579 H   0  0  0  0  0  0  0  0  0  0  0  0
   -2.7916   -5.4541   -2.1863 H   0  0  0  0  0  0  0  0  0  0  0  0
   -6.5657   -3.5371   -1.1399 H   0  0  0  0  0  0  0  0  0  0  0  0
   -5.8872   -2.1393   -0.2374 H   0  0  0  0  0  0  0  0  0  0  0  0
   -5.6860   -2.2393   -2.0175 H   0  0  0  0  0  0  0  0  0  0  0  0
   -4.9549   -5.4398    0.8297 H   0  0  0  0  0  0  0  0  0  0  0  0
   -3.1628   -5.3199    0.9031 H   0  0  0  0  0  0  0  0  0  0  0  0
   -4.1708   -4.0387    1.6454 H   0  0  0  0  0  0  0  0  0  0  0  0
    6.5328   -2.7831   -1.3004 H   0  0  0  0  0  0  0  0  0  0  0  0
    5.3381   -1.8696   -2.2844 H   0  0  0  0  0  0  0  0  0  0  0  0
    5.6392   -1.3987   -0.5801 H   0  0  0  0  0  0  0  0  0  0  0  0
    5.5072   -4.5985    1.0908 H   0  0  0  0  0  0  0  0  0  0  0  0
    4.5418   -3.2379    1.7682 H   0  0  0  0  0  0  0  0  0  0  0  0
    3.7411   -4.7891    1.3642 H   0  0  0  0  0  0  0  0  0  0  0  0
    4.8971   -5.4717   -1.9754 H   0  0  0  0  0  0  0  0  0  0  0  0
    3.1411   -5.5319   -1.6052 H   0  0  0  0  0  0  0  0  0  0  0  0
    3.7411   -4.4888   -2.9363 H   0  0  0  0  0  0  0  0  0  0  0  0
  1 17  1  0  0  0  0
  1 10  1  0  0  0  0
  1 18  1  0  0  0  0
  2 12  1  0  0  0  0
  2 20  1  0  0  0  0
  2 22  1  0  0  0  0
  3 14  1  0  0  0  0
  3 25  1  0  0  0  0
  4 16  1  0  0  0  0
  4 27  1  0  0  0  0
  5  9  1  6  0  0  0
  6 11  1  6  0  0  0
  6  5  1  0  0  0  0
  7  8  2  0  0  0  0
  7  6  1  0  0  0  0
  8  5  1  0  0  0  0
 10  9  3  0  0  0  0
 12 11  3  0  0  0  0
 13  7  1  0  0  0  0
 14 13  3  0  0  0  0
 15  8  1  0  0  0  0
 16 15  3  0  0  0  0
 17 30  1  0  0  0  0
 18 34  1  0  0  0  0
 19  1  1  0  0  0  0
 20 40  1  0  0  0  0
 21  2  1  0  0  0  0
 22 45  1  0  0  0  0
 23 49  1  0  0  0  0
 23  3  1  0  0  0  0
 24  3  1  0  0  0  0
 24 51  1  0  0  0  0
 25 53  1  0  0  0  0
 25 54  1  0  0  0  0
 25 55  1  0  0  0  0
 26  4  1  0  0  0  0
 26 58  1  0  0  0  0
 27 59  1  0  0  0  0
 27 61  1  0  0  0  0
 27 60  1  0  0  0  0
 28 63  1  0  0  0  0
 28  4  1  0  0  0  0
 29 17  1  0  0  0  0
 31 17  1  0  0  0  0
 32 18  1  0  0  0  0
 33 18  1  0  0  0  0
 35 19  1  0  0  0  0
 36 19  1  0  0  0  0
 37 19  1  0  0  0  0
 38 20  1  0  0  0  0
 39 20  1  0  0  0  0
 41 21  1  0  0  0  0
 42 21  1  0  0  0  0
 43 21  1  0  0  0  0
 44 22  1  0  0  0  0
 46 22  1  0  0  0  0
 47 23  1  0  0  0  0
 48 23  1  0  0  0  0
 50 24  1  0  0  0  0
 52 24  1  0  0  0  0
 56 26  1  0  0  0  0
 57 26  1  0  0  0  0
 62 28  1  0  0  0  0
 64 28  1  0  0  0  0
M  END
