10
q = 0.0, confidence = 0.998

 43 45  0  0  1  0  0  0  0  0999 V2000
   -0.3471    0.0276    0.4584 P   0  0  2  0  0  0  0  0  0  0  0  0
   -0.4048    0.0612    2.3518 C   0  0  1  0  0  0  0  0  0  0  0  0
   -1.4646    0.1858    2.6502 H   0  0  0  0  0  0  0  0  0  0  0  0
    0.1354   -1.2547    2.8526 C   0  0  0  0  0  0  0  0  0  0  0  0
   -0.4985   -1.8546    3.5242 H   0  0  0  0  0  0  0  0  0  0  0  0
    1.3558   -1.7175    2.4718 C   0  0  0  0  0  0  0  0  0  0  0  0
    1.6656   -2.7126    2.8339 H   0  0  0  0  0  0  0  0  0  0  0  0
    2.3211   -1.0100    1.6221 C   0  0  0  0  0  3  0  0  0  0  0  0
    3.2436   -1.5862    1.4375 H   0  0  0  0  0  0  0  0  0  0  0  0
    2.4975    0.4446    1.6161 C   0  0  0  0  0  3  0  0  0  0  0  0
    3.5317    0.7824    1.4340 H   0  0  0  0  0  0  0  0  0  0  0  0
    1.7263    1.3737    2.4508 C   0  0  0  0  0  0  0  0  0  0  0  0
    2.2622    2.2739    2.7971 H   0  0  0  0  0  0  0  0  0  0  0  0
    0.4279    1.2263    2.8241 C   0  0  0  0  0  0  0  0  0  0  0  0
   -0.0477    1.9774    3.4735 H   0  0  0  0  0  0  0  0  0  0  0  0
   -1.2679    1.6014    0.0290 C   0  0  1  0  0  0  0  0  0  0  0  0
   -2.0771    1.7354    0.7852 H   0  0  0  0  0  0  0  0  0  0  0  0
   -0.3792    2.8167    0.0651 C   0  0  0  0  0  0  0  0  0  0  0  0
    0.7123    2.6579    0.0298 H   0  0  0  0  0  0  0  0  0  0  0  0
   -0.9230    4.0692    0.1475 C   0  0  0  0  0  0  0  0  0  0  0  0
   -0.2419    4.9199    0.3222 H   0  0  0  0  0  0  0  0  0  0  0  0
   -2.3196    4.3794   -0.0204 C   0  0  0  0  0  0  0  0  0  0  0  0
   -2.6727    5.3384    0.3957 H   0  0  0  0  0  0  0  0  0  0  0  0
   -3.2035    3.6844   -0.8287 C   0  0  0  0  0  0  0  0  0  0  0  0
   -4.1950    4.1383   -0.9954 H   0  0  0  0  0  0  0  0  0  0  0  0
   -2.8629    2.5435   -1.6403 C   0  0  0  0  0  0  0  0  0  0  0  0
   -3.4048    2.4330   -2.5954 H   0  0  0  0  0  0  0  0  0  0  0  0
   -1.8961    1.6227   -1.3405 C   0  0  0  0  0  0  0  0  0  0  0  0
   -1.5918    0.8851   -2.0992 H   0  0  0  0  0  0  0  0  0  0  0  0
   -1.5529   -1.3495    0.1016 C   0  0  2  0  0  0  0  0  0  0  0  0
   -1.1758   -2.1643    0.7658 H   0  0  0  0  0  0  0  0  0  0  0  0
   -1.5425   -1.8788   -1.3084 C   0  0  0  0  0  0  0  0  0  0  0  0
   -1.1261   -1.2684   -2.1243 H   0  0  0  0  0  0  0  0  0  0  0  0
   -2.0236   -3.1300   -1.5756 C   0  0  0  0  0  0  0  0  0  0  0  0
   -1.8778   -3.5371   -2.5911 H   0  0  0  0  0  0  0  0  0  0  0  0
   -2.7382   -3.9642   -0.6403 C   0  0  0  0  0  0  0  0  0  0  0  0
   -2.7506   -5.0469   -0.8519 H   0  0  0  0  0  0  0  0  0  0  0  0
   -3.5589   -3.5166    0.3788 C   0  0  0  0  0  0  0  0  0  0  0  0
   -4.1643   -4.2755    0.9030 H   0  0  0  0  0  0  0  0  0  0  0  0
   -3.8510   -2.1338    0.6688 C   0  0  0  0  0  0  0  0  0  0  0  0
   -4.8616   -1.9105    1.0535 H   0  0  0  0  0  0  0  0  0  0  0  0
   -2.9977   -1.0896    0.4465 C   0  0  0  0  0  0  0  0  0  0  0  0
   -3.3705   -0.0548    0.5167 H   0  0  0  0  0  0  0  0  0  0  0  0
  1 16  1  6  0  0  0
  1  2  1  0  0  0  0
  2  3  1  1  0  0  0
  2 14  1  0  0  0  0
  2  4  1  0  0  0  0
  4  5  1  0  0  0  0
  6  7  1  0  0  0  0
  6  4  2  0  0  0  0
  8  6  1  0  0  0  0
  9  8  1  0  0  0  0
 10  8  1  0  0  0  0
 10 12  1  0  0  0  0
 11 10  1  0  0  0  0
 12 13  1  0  0  0  0
 12 14  2  0  0  0  0
 14 15  1  0  0  0  0
 16 18  1  0  0  0  0
 16 17  1  1  0  0  0
 18 20  2  0  0  0  0
 19 18  1  0  0  0  0
 20 21  1  0  0  0  0
 22 20  1  0  0  0  0
 22 23  1  0  0  0  0
 24 22  2  0  0  0  0
 25 24  1  0  0  0  0
 26 28  2  0  0  0  0
 26 24  1  0  0  0  0
 27 26  1  0  0  0  0
 28 16  1  0  0  0  0
 29 28  1  0  0  0  0
 30 42  1  0  0  0  0
 30  1  1  0  0  0  0
 30 31  1  1  0  0  0
 32 30  1  0  0  0  0
 33 32  1  0  0  0  0
 34 32  2  0  0  0  0
 34 36  1  0  0  0  0
 35 34  1  0  0  0  0
 36 38  2  0  0  0  0
 37 36  1  0  0  0  0
 38 40  1  0  0  0  0
 38 39  1  0  0  0  0
 40 41  1  0  0  0  0
 42 43  1  0  0  0  0
 42 40  2  0  0  0  0
M  END
