4
q = -1.0

 30 30  0  0  0  0  0  0  0  0999 V2000
    1.4282    2.2373    0.8390 O   0  0  0  0  0  0  0  0  0  0  0  0
    0.3261    2.6646   -1.2678 O   0  0  0  0  0  0  0  0  0  0  0  0
    0.8130    1.7678   -0.3192 B   0  0  0  0  0  0  0  0  0  0  0  0
    0.6652    0.2338   -0.5187 C   0  0  0  0  0  3  0  0  0  0  0  0
    1.7780   -0.5977    0.1514 C   0  0  0  0  0  0  0  0  0  0  0  0
    3.1215   -0.4994   -0.5884 C   0  0  0  0  0  0  0  0  0  0  0  0
    4.2439   -1.3113    0.0622 C   0  0  0  0  0  0  0  0  0  0  0  0
    5.5839   -1.2229   -0.6744 C   0  0  0  0  0  0  0  0  0  0  0  0
    6.6997   -2.0339   -0.0144 C   0  0  0  0  0  0  0  0  0  0  0  0
    1.5576    3.6310    1.0944 C   0  0  0  0  0  0  0  0  0  0  0  0
    0.4161    4.0714   -1.0682 C   0  0  0  0  0  0  0  0  0  0  0  0
    0.4495    4.4271    0.4140 C   0  0  0  0  0  0  0  0  0  0  0  0
    0.6351    0.0084   -1.6088 H   0  0  0  0  0  0  0  0  0  0  0  0
    1.5034   -1.6735    0.2212 H   0  0  0  0  0  0  0  0  0  0  0  0
    1.9337   -0.2526    1.1953 H   0  0  0  0  0  0  0  0  0  0  0  0
    3.4227    0.5710   -0.6489 H   0  0  0  0  0  0  0  0  0  0  0  0
    2.9840   -0.8350   -1.6413 H   0  0  0  0  0  0  0  0  0  0  0  0
    3.9322   -2.3784    0.1319 H   0  0  0  0  0  0  0  0  0  0  0  0
    4.3801   -0.9718    1.1146 H   0  0  0  0  0  0  0  0  0  0  0  0
    5.8891   -0.1548   -0.7469 H   0  0  0  0  0  0  0  0  0  0  0  0
    5.4441   -1.5635   -1.7247 H   0  0  0  0  0  0  0  0  0  0  0  0
    7.6559   -1.9511   -0.5700 H   0  0  0  0  0  0  0  0  0  0  0  0
    6.8862   -1.6909    1.0251 H   0  0  0  0  0  0  0  0  0  0  0  0
    6.4364   -3.1111    0.0392 H   0  0  0  0  0  0  0  0  0  0  0  0
    2.5539    3.9773    0.7333 H   0  0  0  0  0  0  0  0  0  0  0  0
    1.5416    3.7777    2.1952 H   0  0  0  0  0  0  0  0  0  0  0  0
   -0.4528    4.5422   -1.5755 H   0  0  0  0  0  0  0  0  0  0  0  0
    1.3341    4.4528   -1.5729 H   0  0  0  0  0  0  0  0  0  0  0  0
    0.6116    5.5166    0.5494 H   0  0  0  0  0  0  0  0  0  0  0  0
   -0.5290    4.1782    0.8806 H   0  0  0  0  0  0  0  0  0  0  0  0
  1 10  1  0  0  0  0
  2 11  1  0  0  0  0
  2  3  1  0  0  0  0
  3  1  1  0  0  0  0
  4  3  1  0  0  0  0
  4  5  1  0  0  0  0
  5 14  1  0  0  0  0
  5 15  1  0  0  0  0
  6  7  1  0  0  0  0
  6  5  1  0  0  0  0
  7 18  1  0  0  0  0
  7 19  1  0  0  0  0
  8  9  1  0  0  0  0
  8  7  1  0  0  0  0
  9 24  1  0  0  0  0
  9 23  1  0  0  0  0
 10 26  1  0  0  0  0
 11 12  1  0  0  0  0
 12 29  1  0  0  0  0
 12 30  1  0  0  0  0
 12 10  1  0  0  0  0
 13  4  1  0  0  0  0
 16  6  1  0  0  0  0
 17  6  1  0  0  0  0
 20  8  1  0  0  0  0
 21  8  1  0  0  0  0
 22  9  1  0  0  0  0
 25 10  1  0  0  0  0
 27 11  1  0  0  0  0
 28 11  1  0  0  0  0
M  END
