1
q = 0.0, confidence = 0.994

 17 17  0  0  0  0  0  0  0  0999 V2000
    0.2449    0.5851   -0.0541 C   0  0  0  0  0  1  0  0  0  0  0  0
    1.3993    0.8973   -0.0706 N   0  0  0  0  0  2  0  0  0  0  0  0
    2.7547    0.8733   -0.0536 C   0  0  0  0  0  0  0  0  0  0  0  0
    3.6872   -0.3451    0.0101 C   0  0  0  0  0  0  0  0  0  0  0  0
    3.7515    1.7956   -0.0731 C   0  0  0  0  0  0  0  0  0  0  0  0
    4.8384    0.7406   -0.0100 C   0  0  0  0  0  0  0  0  0  0  0  0
    3.5677   -1.1458    1.3074 C   0  0  0  0  0  0  0  0  0  0  0  0
    3.6198   -1.2392   -1.2286 C   0  0  0  0  0  0  0  0  0  0  0  0
    3.7655    2.8939   -0.1153 H   0  0  0  0  0  0  0  0  0  0  0  0
    5.5060    0.6840   -0.8962 H   0  0  0  0  0  0  0  0  0  0  0  0
    5.4681    0.7557    0.9052 H   0  0  0  0  0  0  0  0  0  0  0  0
    3.6373   -0.4872    2.1964 H   0  0  0  0  0  0  0  0  0  0  0  0
    2.5939   -1.6771    1.3520 H   0  0  0  0  0  0  0  0  0  0  0  0
    4.3703   -1.9086    1.3753 H   0  0  0  0  0  0  0  0  0  0  0  0
    2.6499   -1.7773   -1.2710 H   0  0  0  0  0  0  0  0  0  0  0  0
    4.4262   -2.0009   -1.2089 H   0  0  0  0  0  0  0  0  0  0  0  0
    3.7220   -0.6474   -2.1604 H   0  0  0  0  0  0  0  0  0  0  0  0
  2  1  1  0  0  0  0
  2  3  1  0  0  0  0
  3  4  1  0  0  0  0
  4  7  1  0  0  0  0
  5  3  2  0  0  0  0
  5  6  1  0  0  0  0
  6  4  1  0  0  0  0
  6 11  1  0  0  0  0
  7 13  1  0  0  0  0
  7 14  1  0  0  0  0
  7 12  1  0  0  0  0
  8 16  1  0  0  0  0
  8  4  1  0  0  0  0
  9  5  1  0  0  0  0
 10  6  1  0  0  0  0
 15  8  1  0  0  0  0
 17  8  1  0  0  0  0
M  END
