2
q = 0.0, confidence = 0.988

 77 79  0  0  0  0  0  0  0  0999 V2000
   -1.1081   -0.7811   -0.6703 N   0  0  0  0  0  0  0  0  0  0  0  0
    0.1926   -0.4863   -0.3739 C   0  0  0  0  0  2  0  0  0  0  0  0
    0.8514   -1.6781   -0.4759 N   0  0  0  0  0  0  0  0  0  0  0  0
   -1.2621   -2.1336   -0.9415 C   0  0  0  0  0  0  0  0  0  0  0  0
   -2.2249   -2.5819   -1.1981 H   0  0  0  0  0  0  0  0  0  0  0  0
   -0.0173   -2.7018   -0.8217 C   0  0  0  0  0  0  0  0  0  0  0  0
    0.3093   -3.7365   -0.9585 H   0  0  0  0  0  0  0  0  0  0  0  0
   -2.1856    0.2263   -0.5938 C   0  0  0  0  0  0  0  0  0  0  0  0
   -1.6892    1.1804   -0.8718 H   0  0  0  0  0  0  0  0  0  0  0  0
   -2.6829    0.3667    0.8587 C   0  0  0  0  0  0  0  0  0  0  0  0
   -3.4606    1.1577    0.8585 H   0  0  0  0  0  0  0  0  0  0  0  0
   -1.8477    0.7699    1.4699 H   0  0  0  0  0  0  0  0  0  0  0  0
   -3.2289   -0.9162    1.5009 C   0  0  0  0  0  0  0  0  0  0  0  0
   -3.7871   -1.5126    0.7465 H   0  0  0  0  0  0  0  0  0  0  0  0
   -2.3807   -1.5606    1.8134 H   0  0  0  0  0  0  0  0  0  0  0  0
   -4.1505   -0.6611    2.7066 C   0  0  0  0  0  0  0  0  0  0  0  0
   -3.6126   -0.0259    3.4432 H   0  0  0  0  0  0  0  0  0  0  0  0
   -4.3451   -1.6266    3.2224 H   0  0  0  0  0  0  0  0  0  0  0  0
   -5.4923   -0.0000    2.3504 C   0  0  0  0  0  0  0  0  0  0  0  0
   -5.2933    0.9411    1.7934 H   0  0  0  0  0  0  0  0  0  0  0  0
   -6.0032    0.3231    3.2825 H   0  0  0  0  0  0  0  0  0  0  0  0
   -6.4459   -0.8893    1.5369 C   0  0  0  0  0  0  0  0  0  0  0  0
   -5.8649   -1.4831    0.7978 H   0  0  0  0  0  0  0  0  0  0  0  0
   -6.9050   -1.6427    2.2125 H   0  0  0  0  0  0  0  0  0  0  0  0
   -7.5524   -0.1214    0.7939 C   0  0  0  0  0  0  0  0  0  0  0  0
   -8.1000    0.5183    1.5202 H   0  0  0  0  0  0  0  0  0  0  0  0
   -8.3010   -0.8450    0.4029 H   0  0  0  0  0  0  0  0  0  0  0  0
   -7.0450    0.7528   -0.3657 C   0  0  0  0  0  0  0  0  0  0  0  0
   -7.8607    1.4235   -0.7106 H   0  0  0  0  0  0  0  0  0  0  0  0
   -6.2564    1.4351    0.0196 H   0  0  0  0  0  0  0  0  0  0  0  0
   -6.5044   -0.0384   -1.5678 C   0  0  0  0  0  0  0  0  0  0  0  0
   -7.3587   -0.4345   -2.1573 H   0  0  0  0  0  0  0  0  0  0  0  0
   -5.9638   -0.9407   -1.2069 H   0  0  0  0  0  0  0  0  0  0  0  0
   -5.5732    0.7640   -2.4923 C   0  0  0  0  0  0  0  0  0  0  0  0
   -6.0899    1.6954   -2.8101 H   0  0  0  0  0  0  0  0  0  0  0  0
   -5.3912    0.1856   -3.4245 H   0  0  0  0  0  0  0  0  0  0  0  0
   -4.2221    1.1371   -1.8594 C   0  0  0  0  0  0  0  0  0  0  0  0
   -3.6963    1.8745   -2.5018 H   0  0  0  0  0  0  0  0  0  0  0  0
   -4.4088    1.6663   -0.9011 H   0  0  0  0  0  0  0  0  0  0  0  0
   -3.2957   -0.0636   -1.6149 C   0  0  0  0  0  0  0  0  0  0  0  0
   -2.8329   -0.3741   -2.5754 H   0  0  0  0  0  0  0  0  0  0  0  0
   -3.8968   -0.9306   -1.2672 H   0  0  0  0  0  0  0  0  0  0  0  0
    2.2955   -1.8189   -0.2331 C   0  0  0  0  0  0  0  0  0  0  0  0
    2.6127   -0.7815   -0.0072 H   0  0  0  0  0  0  0  0  0  0  0  0
    2.5844   -2.6652    1.0197 C   0  0  0  0  0  0  0  0  0  0  0  0
    2.5542   -3.7467    0.7624 H   0  0  0  0  0  0  0  0  0  0  0  0
    1.7725   -2.4885    1.7570 H   0  0  0  0  0  0  0  0  0  0  0  0
    3.9359   -2.2951    1.6514 C   0  0  0  0  0  0  0  0  0  0  0  0
    4.2300   -3.0773    2.3821 H   0  0  0  0  0  0  0  0  0  0  0  0
    4.7166   -2.3280    0.8612 H   0  0  0  0  0  0  0  0  0  0  0  0
    3.9417   -0.9154    2.3369 C   0  0  0  0  0  0  0  0  0  0  0  0
    3.5166   -1.0171    3.3580 H   0  0  0  0  0  0  0  0  0  0  0  0
    3.2475   -0.2225    1.8122 H   0  0  0  0  0  0  0  0  0  0  0  0
    5.3246   -0.2484    2.4219 C   0  0  0  0  0  0  0  0  0  0  0  0
    5.2353    0.6724    3.0378 H   0  0  0  0  0  0  0  0  0  0  0  0
    6.0211   -0.9191    2.9724 H   0  0  0  0  0  0  0  0  0  0  0  0
    5.9465    0.1158    1.0631 C   0  0  0  0  0  0  0  0  0  0  0  0
    6.0431   -0.8079    0.4498 H   0  0  0  0  0  0  0  0  0  0  0  0
    6.9919    0.4587    1.2231 H   0  0  0  0  0  0  0  0  0  0  0  0
    5.1837    1.1857    0.2694 C   0  0  0  0  0  0  0  0  0  0  0  0
    4.0878    1.0142    0.3326 H   0  0  0  0  0  0  0  0  0  0  0  0
    5.3197    2.1742    0.7559 H   0  0  0  0  0  0  0  0  0  0  0  0
    5.5882    1.2751   -1.2110 C   0  0  0  0  0  0  0  0  0  0  0  0
    6.6950    1.3588   -1.2842 H   0  0  0  0  0  0  0  0  0  0  0  0
    5.1794    2.2137   -1.6433 H   0  0  0  0  0  0  0  0  0  0  0  0
    5.1096    0.0826   -2.0586 C   0  0  0  0  0  0  0  0  0  0  0  0
    5.6676    0.0499   -3.0191 H   0  0  0  0  0  0  0  0  0  0  0  0
    5.3873   -0.8583   -1.5346 H   0  0  0  0  0  0  0  0  0  0  0  0
    3.6000    0.0956   -2.3526 C   0  0  0  0  0  0  0  0  0  0  0  0
    3.0546    0.5577   -1.4991 H   0  0  0  0  0  0  0  0  0  0  0  0
    3.3992    0.7799   -3.2039 H   0  0  0  0  0  0  0  0  0  0  0  0
    2.9821   -1.2776   -2.6617 C   0  0  0  0  0  0  0  0  0  0  0  0
    3.4964   -1.7313   -3.5367 H   0  0  0  0  0  0  0  0  0  0  0  0
    1.9241   -1.1347   -2.9721 H   0  0  0  0  0  0  0  0  0  0  0  0
    3.0279   -2.2833   -1.4989 C   0  0  0  0  0  0  0  0  0  0  0  0
    2.6155   -3.2633   -1.8249 H   0  0  0  0  0  0  0  0  0  0  0  0
    4.0808   -2.4869   -1.2141 H   0  0  0  0  0  0  0  0  0  0  0  0
  1  8  1  0  0  0  0
  1  2  1  0  0  0  0
  3  2  1  0  0  0  0
  3 43  1  0  0  0  0
  4  6  2  0  0  0  0
  4  1  1  0  0  0  0
  5  4  1  0  0  0  0
  6  3  1  0  0  0  0
  7  6  1  0  0  0  0
  8 10  1  0  0  0  0
  9  8  1  0  0  0  0
 10 12  1  0  0  0  0
 10 13  1  0  0  0  0
 11 10  1  0  0  0  0
 13 15  1  0  0  0  0
 13 16  1  0  0  0  0
 14 13  1  0  0  0  0
 16 18  1  0  0  0  0
 16 17  1  0  0  0  0
 19 16  1  0  0  0  0
 19 21  1  0  0  0  0
 20 19  1  0  0  0  0
 22 24  1  0  0  0  0
 22 19  1  0  0  0  0
 23 22  1  0  0  0  0
 25 26  1  0  0  0  0
 25 22  1  0  0  0  0
 27 25  1  0  0  0  0
 28 30  1  0  0  0  0
 28 25  1  0  0  0  0
 29 28  1  0  0  0  0
 31 33  1  0  0  0  0
 31 28  1  0  0  0  0
 32 31  1  0  0  0  0
 34 37  1  0  0  0  0
 34 31  1  0  0  0  0
 35 34  1  0  0  0  0
 36 34  1  0  0  0  0
 37 40  1  0  0  0  0
 37 39  1  0  0  0  0
 38 37  1  0  0  0  0
 40 42  1  0  0  0  0
 40  8  1  0  0  0  0
 41 40  1  0  0  0  0
 43 44  1  0  0  0  0
 43 45  1  0  0  0  0
 45 48  1  0  0  0  0
 45 47  1  0  0  0  0
 46 45  1  0  0  0  0
 48 51  1  0  0  0  0
 48 49  1  0  0  0  0
 50 48  1  0  0  0  0
 51 54  1  0  0  0  0
 51 52  1  0  0  0  0
 53 51  1  0  0  0  0
 54 56  1  0  0  0  0
 54 55  1  0  0  0  0
 57 59  1  0  0  0  0
 57 54  1  0  0  0  0
 58 57  1  0  0  0  0
 60 61  1  0  0  0  0
 60 62  1  0  0  0  0
 60 57  1  0  0  0  0
 63 60  1  0  0  0  0
 64 63  1  0  0  0  0
 65 63  1  0  0  0  0
 66 68  1  0  0  0  0
 66 63  1  0  0  0  0
 67 66  1  0  0  0  0
 69 66  1  0  0  0  0
 69 70  1  0  0  0  0
 71 69  1  0  0  0  0
 72 69  1  0  0  0  0
 72 75  1  0  0  0  0
 73 72  1  0  0  0  0
 74 72  1  0  0  0  0
 75 77  1  0  0  0  0
 75 43  1  0  0  0  0
 76 75  1  0  0  0  0
M  END
