7
q = 0.0, confidence = 0.98

 21 23  0  0  0  0  0  0  0  0999 V2000
   -1.3172    1.0799   -0.0000 N   0  0  0  0  0  0  0  0  0  0  0  0
   -2.6840    0.7012   -0.0000 C   0  0  0  0  0  0  0  0  0  0  0  0
   -3.7013    1.6818   -0.0000 C   0  0  0  0  0  0  0  0  0  0  0  0
   -3.3566    3.0213    0.0000 C   0  0  0  0  0  0  0  0  0  0  0  0
   -1.9730    3.3826    0.0000 C   0  0  0  0  0  0  0  0  0  0  0  0
   -0.9864    2.4280    0.0000 C   0  0  0  0  0  0  0  0  0  0  0  0
   -0.4487   -0.0000   -0.0000 C   0  0  0  0  0  2  0  0  0  0  0  0
   -4.7505    1.3540   -0.0000 H   0  0  0  0  0  0  0  0  0  0  0  0
   -4.1314    3.8001    0.0000 H   0  0  0  0  0  0  0  0  0  0  0  0
   -1.6712    4.4389    0.0001 H   0  0  0  0  0  0  0  0  0  0  0  0
    0.0831    2.6555    0.0000 H   0  0  0  0  0  0  0  0  0  0  0  0
   -1.3172   -1.0799    0.0000 N   0  0  0  0  0  0  0  0  0  0  0  0
   -2.6840   -0.7012    0.0000 C   0  0  0  0  0  0  0  0  0  0  0  0
   -3.7014   -1.6817    0.0000 C   0  0  0  0  0  0  0  0  0  0  0  0
   -3.3567   -3.0213   -0.0000 C   0  0  0  0  0  0  0  0  0  0  0  0
   -1.9730   -3.3825   -0.0000 C   0  0  0  0  0  0  0  0  0  0  0  0
   -0.9865   -2.4280   -0.0000 C   0  0  0  0  0  0  0  0  0  0  0  0
   -4.7505   -1.3540    0.0000 H   0  0  0  0  0  0  0  0  0  0  0  0
   -4.1315   -3.8000   -0.0000 H   0  0  0  0  0  0  0  0  0  0  0  0
   -1.6713   -4.4389   -0.0001 H   0  0  0  0  0  0  0  0  0  0  0  0
    0.0831   -2.6555   -0.0000 H   0  0  0  0  0  0  0  0  0  0  0  0
  1  2  1  0  0  0  0
  1  7  1  0  0  0  0
  1  6  1  0  0  0  0
  2 13  2  0  0  0  0
  3  2  1  0  0  0  0
  3  4  2  0  0  0  0
  4  9  1  0  0  0  0
  4  5  1  0  0  0  0
  5  6  2  0  0  0  0
  5 10  1  0  0  0  0
  7 12  1  0  0  0  0
  8  3  1  0  0  0  0
 11  6  1  0  0  0  0
 13 12  1  0  0  0  0
 14 13  1  0  0  0  0
 14 18  1  0  0  0  0
 15 14  2  0  0  0  0
 16 15  1  0  0  0  0
 17 16  2  0  0  0  0
 17 21  1  0  0  0  0
 17 12  1  0  0  0  0
 19 15  1  0  0  0  0
 20 16  1  0  0  0  0
M  END
